# Generated by pormake.
# Topology fau, (4)-cn, num edge types: 1
# Building blocks:
#     Node 0, Type 0, BuildingBlock: QUQFOY_clean_sbu_3, # of connection points: 4
#     Node 1, Type 0, BuildingBlock: QUQFOY_clean_sbu_3, # of connection points: 4
#     Node 2, Type 0, BuildingBlock: QUQFOY_clean_sbu_3, # of connection points: 4
#     Node 3, Type 0, BuildingBlock: QUQFOY_clean_sbu_3, # of connection points: 4
#     Node 4, Type 0, BuildingBlock: QUQFOY_clean_sbu_3, # of connection points: 4
#     Node 5, Type 0, BuildingBlock: QUQFOY_clean_sbu_3, # of connection points: 4
#     Node 6, Type 0, BuildingBlock: QUQFOY_clean_sbu_3, # of connection points: 4
#     Node 7, Type 0, BuildingBlock: QUQFOY_clean_sbu_3, # of connection points: 4
#     Node 8, Type 0, BuildingBlock: QUQFOY_clean_sbu_3, # of connection points: 4
#     Node 9, Type 0, BuildingBlock: QUQFOY_clean_sbu_3, # of connection points: 4
#     Node 10, Type 0, BuildingBlock: QUQFOY_clean_sbu_3, # of connection points: 4
#     Node 11, Type 0, BuildingBlock: QUQFOY_clean_sbu_3, # of connection points: 4
#     Node 12, Type 0, BuildingBlock: QUQFOY_clean_sbu_3, # of connection points: 4
#     Node 13, Type 0, BuildingBlock: QUQFOY_clean_sbu_3, # of connection points: 4
#     Node 14, Type 0, BuildingBlock: QUQFOY_clean_sbu_3, # of connection points: 4
#     Node 15, Type 0, BuildingBlock: QUQFOY_clean_sbu_3, # of connection points: 4
#     Node 16, Type 0, BuildingBlock: QUQFOY_clean_sbu_3, # of connection points: 4
#     Node 17, Type 0, BuildingBlock: QUQFOY_clean_sbu_3, # of connection points: 4
#     Node 18, Type 0, BuildingBlock: QUQFOY_clean_sbu_3, # of connection points: 4
#     Node 19, Type 0, BuildingBlock: QUQFOY_clean_sbu_3, # of connection points: 4
#     Node 20, Type 0, BuildingBlock: QUQFOY_clean_sbu_3, # of connection points: 4
#     Node 21, Type 0, BuildingBlock: QUQFOY_clean_sbu_3, # of connection points: 4
#     Node 22, Type 0, BuildingBlock: QUQFOY_clean_sbu_3, # of connection points: 4
#     Node 23, Type 0, BuildingBlock: QUQFOY_clean_sbu_3, # of connection points: 4
#     Node 24, Type 0, BuildingBlock: QUQFOY_clean_sbu_3, # of connection points: 4
#     Node 25, Type 0, BuildingBlock: QUQFOY_clean_sbu_3, # of connection points: 4
#     Node 26, Type 0, BuildingBlock: QUQFOY_clean_sbu_3, # of connection points: 4
#     Node 27, Type 0, BuildingBlock: QUQFOY_clean_sbu_3, # of connection points: 4
#     Node 28, Type 0, BuildingBlock: QUQFOY_clean_sbu_3, # of connection points: 4
#     Node 29, Type 0, BuildingBlock: QUQFOY_clean_sbu_3, # of connection points: 4
#     Node 30, Type 0, BuildingBlock: QUQFOY_clean_sbu_3, # of connection points: 4
#     Node 31, Type 0, BuildingBlock: QUQFOY_clean_sbu_3, # of connection points: 4
#     Node 32, Type 0, BuildingBlock: QUQFOY_clean_sbu_3, # of connection points: 4
#     Node 33, Type 0, BuildingBlock: QUQFOY_clean_sbu_3, # of connection points: 4
#     Node 34, Type 0, BuildingBlock: QUQFOY_clean_sbu_3, # of connection points: 4
#     Node 35, Type 0, BuildingBlock: QUQFOY_clean_sbu_3, # of connection points: 4
#     Node 36, Type 0, BuildingBlock: QUQFOY_clean_sbu_3, # of connection points: 4
#     Node 37, Type 0, BuildingBlock: QUQFOY_clean_sbu_3, # of connection points: 4
#     Node 38, Type 0, BuildingBlock: QUQFOY_clean_sbu_3, # of connection points: 4
#     Node 39, Type 0, BuildingBlock: QUQFOY_clean_sbu_3, # of connection points: 4
#     Node 40, Type 0, BuildingBlock: QUQFOY_clean_sbu_3, # of connection points: 4
#     Node 41, Type 0, BuildingBlock: QUQFOY_clean_sbu_3, # of connection points: 4
#     Node 42, Type 0, BuildingBlock: QUQFOY_clean_sbu_3, # of connection points: 4
#     Node 43, Type 0, BuildingBlock: QUQFOY_clean_sbu_3, # of connection points: 4
#     Node 44, Type 0, BuildingBlock: QUQFOY_clean_sbu_3, # of connection points: 4
#     Node 45, Type 0, BuildingBlock: QUQFOY_clean_sbu_3, # of connection points: 4
#     Node 46, Type 0, BuildingBlock: QUQFOY_clean_sbu_3, # of connection points: 4
#     Node 47, Type 0, BuildingBlock: QUQFOY_clean_sbu_3, # of connection points: 4
#     Node 48, Type 0, BuildingBlock: QUQFOY_clean_sbu_3, # of connection points: 4
#     Node 49, Type 0, BuildingBlock: QUQFOY_clean_sbu_3, # of connection points: 4
#     Node 50, Type 0, BuildingBlock: QUQFOY_clean_sbu_3, # of connection points: 4
#     Node 51, Type 0, BuildingBlock: QUQFOY_clean_sbu_3, # of connection points: 4
#     Node 52, Type 0, BuildingBlock: QUQFOY_clean_sbu_3, # of connection points: 4
#     Node 53, Type 0, BuildingBlock: QUQFOY_clean_sbu_3, # of connection points: 4
#     Node 54, Type 0, BuildingBlock: QUQFOY_clean_sbu_3, # of connection points: 4
#     Node 55, Type 0, BuildingBlock: QUQFOY_clean_sbu_3, # of connection points: 4
#     Node 56, Type 0, BuildingBlock: QUQFOY_clean_sbu_3, # of connection points: 4
#     Node 57, Type 0, BuildingBlock: QUQFOY_clean_sbu_3, # of connection points: 4
#     Node 58, Type 0, BuildingBlock: QUQFOY_clean_sbu_3, # of connection points: 4
#     Node 59, Type 0, BuildingBlock: QUQFOY_clean_sbu_3, # of connection points: 4
#     Node 60, Type 0, BuildingBlock: QUQFOY_clean_sbu_3, # of connection points: 4
#     Node 61, Type 0, BuildingBlock: QUQFOY_clean_sbu_3, # of connection points: 4
#     Node 62, Type 0, BuildingBlock: QUQFOY_clean_sbu_3, # of connection points: 4
#     Node 63, Type 0, BuildingBlock: QUQFOY_clean_sbu_3, # of connection points: 4
#     Node 64, Type 0, BuildingBlock: QUQFOY_clean_sbu_3, # of connection points: 4
#     Node 65, Type 0, BuildingBlock: QUQFOY_clean_sbu_3, # of connection points: 4
#     Node 66, Type 0, BuildingBlock: QUQFOY_clean_sbu_3, # of connection points: 4
#     Node 67, Type 0, BuildingBlock: QUQFOY_clean_sbu_3, # of connection points: 4
#     Node 68, Type 0, BuildingBlock: QUQFOY_clean_sbu_3, # of connection points: 4
#     Node 69, Type 0, BuildingBlock: QUQFOY_clean_sbu_3, # of connection points: 4
#     Node 70, Type 0, BuildingBlock: QUQFOY_clean_sbu_3, # of connection points: 4
#     Node 71, Type 0, BuildingBlock: QUQFOY_clean_sbu_3, # of connection points: 4
#     Node 72, Type 0, BuildingBlock: QUQFOY_clean_sbu_3, # of connection points: 4
#     Node 73, Type 0, BuildingBlock: QUQFOY_clean_sbu_3, # of connection points: 4
#     Node 74, Type 0, BuildingBlock: QUQFOY_clean_sbu_3, # of connection points: 4
#     Node 75, Type 0, BuildingBlock: QUQFOY_clean_sbu_3, # of connection points: 4
#     Node 76, Type 0, BuildingBlock: QUQFOY_clean_sbu_3, # of connection points: 4
#     Node 77, Type 0, BuildingBlock: QUQFOY_clean_sbu_3, # of connection points: 4
#     Node 78, Type 0, BuildingBlock: QUQFOY_clean_sbu_3, # of connection points: 4
#     Node 79, Type 0, BuildingBlock: QUQFOY_clean_sbu_3, # of connection points: 4
#     Node 80, Type 0, BuildingBlock: QUQFOY_clean_sbu_3, # of connection points: 4
#     Node 81, Type 0, BuildingBlock: QUQFOY_clean_sbu_3, # of connection points: 4
#     Node 82, Type 0, BuildingBlock: QUQFOY_clean_sbu_3, # of connection points: 4
#     Node 83, Type 0, BuildingBlock: QUQFOY_clean_sbu_3, # of connection points: 4
#     Node 84, Type 0, BuildingBlock: QUQFOY_clean_sbu_3, # of connection points: 4
#     Node 85, Type 0, BuildingBlock: QUQFOY_clean_sbu_3, # of connection points: 4
#     Node 86, Type 0, BuildingBlock: QUQFOY_clean_sbu_3, # of connection points: 4
#     Node 87, Type 0, BuildingBlock: QUQFOY_clean_sbu_3, # of connection points: 4
#     Node 88, Type 0, BuildingBlock: QUQFOY_clean_sbu_3, # of connection points: 4
#     Node 89, Type 0, BuildingBlock: QUQFOY_clean_sbu_3, # of connection points: 4
#     Node 90, Type 0, BuildingBlock: QUQFOY_clean_sbu_3, # of connection points: 4
#     Node 91, Type 0, BuildingBlock: QUQFOY_clean_sbu_3, # of connection points: 4
#     Node 92, Type 0, BuildingBlock: QUQFOY_clean_sbu_3, # of connection points: 4
#     Node 93, Type 0, BuildingBlock: QUQFOY_clean_sbu_3, # of connection points: 4
#     Node 94, Type 0, BuildingBlock: QUQFOY_clean_sbu_3, # of connection points: 4
#     Node 95, Type 0, BuildingBlock: QUQFOY_clean_sbu_3, # of connection points: 4
#     Node 96, Type 0, BuildingBlock: QUQFOY_clean_sbu_3, # of connection points: 4
#     Node 97, Type 0, BuildingBlock: QUQFOY_clean_sbu_3, # of connection points: 4
#     Node 98, Type 0, BuildingBlock: QUQFOY_clean_sbu_3, # of connection points: 4
#     Node 99, Type 0, BuildingBlock: QUQFOY_clean_sbu_3, # of connection points: 4
#     Node 100, Type 0, BuildingBlock: QUQFOY_clean_sbu_3, # of connection points: 4
#     Node 101, Type 0, BuildingBlock: QUQFOY_clean_sbu_3, # of connection points: 4
#     Node 102, Type 0, BuildingBlock: QUQFOY_clean_sbu_3, # of connection points: 4
#     Node 103, Type 0, BuildingBlock: QUQFOY_clean_sbu_3, # of connection points: 4
#     Node 104, Type 0, BuildingBlock: QUQFOY_clean_sbu_3, # of connection points: 4
#     Node 105, Type 0, BuildingBlock: QUQFOY_clean_sbu_3, # of connection points: 4
#     Node 106, Type 0, BuildingBlock: QUQFOY_clean_sbu_3, # of connection points: 4
#     Node 107, Type 0, BuildingBlock: QUQFOY_clean_sbu_3, # of connection points: 4
#     Node 108, Type 0, BuildingBlock: QUQFOY_clean_sbu_3, # of connection points: 4
#     Node 109, Type 0, BuildingBlock: QUQFOY_clean_sbu_3, # of connection points: 4
#     Node 110, Type 0, BuildingBlock: QUQFOY_clean_sbu_3, # of connection points: 4
#     Node 111, Type 0, BuildingBlock: QUQFOY_clean_sbu_3, # of connection points: 4
#     Node 112, Type 0, BuildingBlock: QUQFOY_clean_sbu_3, # of connection points: 4
#     Node 113, Type 0, BuildingBlock: QUQFOY_clean_sbu_3, # of connection points: 4
#     Node 114, Type 0, BuildingBlock: QUQFOY_clean_sbu_3, # of connection points: 4
#     Node 115, Type 0, BuildingBlock: QUQFOY_clean_sbu_3, # of connection points: 4
#     Node 116, Type 0, BuildingBlock: QUQFOY_clean_sbu_3, # of connection points: 4
#     Node 117, Type 0, BuildingBlock: QUQFOY_clean_sbu_3, # of connection points: 4
#     Node 118, Type 0, BuildingBlock: QUQFOY_clean_sbu_3, # of connection points: 4
#     Node 119, Type 0, BuildingBlock: QUQFOY_clean_sbu_3, # of connection points: 4
#     Node 120, Type 0, BuildingBlock: QUQFOY_clean_sbu_3, # of connection points: 4
#     Node 121, Type 0, BuildingBlock: QUQFOY_clean_sbu_3, # of connection points: 4
#     Node 122, Type 0, BuildingBlock: QUQFOY_clean_sbu_3, # of connection points: 4
#     Node 123, Type 0, BuildingBlock: QUQFOY_clean_sbu_3, # of connection points: 4
#     Node 124, Type 0, BuildingBlock: QUQFOY_clean_sbu_3, # of connection points: 4
#     Node 125, Type 0, BuildingBlock: QUQFOY_clean_sbu_3, # of connection points: 4
#     Node 126, Type 0, BuildingBlock: QUQFOY_clean_sbu_3, # of connection points: 4
#     Node 127, Type 0, BuildingBlock: QUQFOY_clean_sbu_3, # of connection points: 4
#     Node 128, Type 0, BuildingBlock: QUQFOY_clean_sbu_3, # of connection points: 4
#     Node 129, Type 0, BuildingBlock: QUQFOY_clean_sbu_3, # of connection points: 4
#     Node 130, Type 0, BuildingBlock: QUQFOY_clean_sbu_3, # of connection points: 4
#     Node 131, Type 0, BuildingBlock: QUQFOY_clean_sbu_3, # of connection points: 4
#     Node 132, Type 0, BuildingBlock: QUQFOY_clean_sbu_3, # of connection points: 4
#     Node 133, Type 0, BuildingBlock: QUQFOY_clean_sbu_3, # of connection points: 4
#     Node 134, Type 0, BuildingBlock: QUQFOY_clean_sbu_3, # of connection points: 4
#     Node 135, Type 0, BuildingBlock: QUQFOY_clean_sbu_3, # of connection points: 4
#     Node 136, Type 0, BuildingBlock: QUQFOY_clean_sbu_3, # of connection points: 4
#     Node 137, Type 0, BuildingBlock: QUQFOY_clean_sbu_3, # of connection points: 4
#     Node 138, Type 0, BuildingBlock: QUQFOY_clean_sbu_3, # of connection points: 4
#     Node 139, Type 0, BuildingBlock: QUQFOY_clean_sbu_3, # of connection points: 4
#     Node 140, Type 0, BuildingBlock: QUQFOY_clean_sbu_3, # of connection points: 4
#     Node 141, Type 0, BuildingBlock: QUQFOY_clean_sbu_3, # of connection points: 4
#     Node 142, Type 0, BuildingBlock: QUQFOY_clean_sbu_3, # of connection points: 4
#     Node 143, Type 0, BuildingBlock: QUQFOY_clean_sbu_3, # of connection points: 4
#     Node 144, Type 0, BuildingBlock: QUQFOY_clean_sbu_3, # of connection points: 4
#     Node 145, Type 0, BuildingBlock: QUQFOY_clean_sbu_3, # of connection points: 4
#     Node 146, Type 0, BuildingBlock: QUQFOY_clean_sbu_3, # of connection points: 4
#     Node 147, Type 0, BuildingBlock: QUQFOY_clean_sbu_3, # of connection points: 4
#     Node 148, Type 0, BuildingBlock: QUQFOY_clean_sbu_3, # of connection points: 4
#     Node 149, Type 0, BuildingBlock: QUQFOY_clean_sbu_3, # of connection points: 4
#     Node 150, Type 0, BuildingBlock: QUQFOY_clean_sbu_3, # of connection points: 4
#     Node 151, Type 0, BuildingBlock: QUQFOY_clean_sbu_3, # of connection points: 4
#     Node 152, Type 0, BuildingBlock: QUQFOY_clean_sbu_3, # of connection points: 4
#     Node 153, Type 0, BuildingBlock: QUQFOY_clean_sbu_3, # of connection points: 4
#     Node 154, Type 0, BuildingBlock: QUQFOY_clean_sbu_3, # of connection points: 4
#     Node 155, Type 0, BuildingBlock: QUQFOY_clean_sbu_3, # of connection points: 4
#     Node 156, Type 0, BuildingBlock: QUQFOY_clean_sbu_3, # of connection points: 4
#     Node 157, Type 0, BuildingBlock: QUQFOY_clean_sbu_3, # of connection points: 4
#     Node 158, Type 0, BuildingBlock: QUQFOY_clean_sbu_3, # of connection points: 4
#     Node 159, Type 0, BuildingBlock: QUQFOY_clean_sbu_3, # of connection points: 4
#     Node 160, Type 0, BuildingBlock: QUQFOY_clean_sbu_3, # of connection points: 4
#     Node 161, Type 0, BuildingBlock: QUQFOY_clean_sbu_3, # of connection points: 4
#     Node 162, Type 0, BuildingBlock: QUQFOY_clean_sbu_3, # of connection points: 4
#     Node 163, Type 0, BuildingBlock: QUQFOY_clean_sbu_3, # of connection points: 4
#     Node 164, Type 0, BuildingBlock: QUQFOY_clean_sbu_3, # of connection points: 4
#     Node 165, Type 0, BuildingBlock: QUQFOY_clean_sbu_3, # of connection points: 4
#     Node 166, Type 0, BuildingBlock: QUQFOY_clean_sbu_3, # of connection points: 4
#     Node 167, Type 0, BuildingBlock: QUQFOY_clean_sbu_3, # of connection points: 4
#     Node 168, Type 0, BuildingBlock: QUQFOY_clean_sbu_3, # of connection points: 4
#     Node 169, Type 0, BuildingBlock: QUQFOY_clean_sbu_3, # of connection points: 4
#     Node 170, Type 0, BuildingBlock: QUQFOY_clean_sbu_3, # of connection points: 4
#     Node 171, Type 0, BuildingBlock: QUQFOY_clean_sbu_3, # of connection points: 4
#     Node 172, Type 0, BuildingBlock: QUQFOY_clean_sbu_3, # of connection points: 4
#     Node 173, Type 0, BuildingBlock: QUQFOY_clean_sbu_3, # of connection points: 4
#     Node 174, Type 0, BuildingBlock: QUQFOY_clean_sbu_3, # of connection points: 4
#     Node 175, Type 0, BuildingBlock: QUQFOY_clean_sbu_3, # of connection points: 4
#     Node 176, Type 0, BuildingBlock: QUQFOY_clean_sbu_3, # of connection points: 4
#     Node 177, Type 0, BuildingBlock: QUQFOY_clean_sbu_3, # of connection points: 4
#     Node 178, Type 0, BuildingBlock: QUQFOY_clean_sbu_3, # of connection points: 4
#     Node 179, Type 0, BuildingBlock: QUQFOY_clean_sbu_3, # of connection points: 4
#     Node 180, Type 0, BuildingBlock: QUQFOY_clean_sbu_3, # of connection points: 4
#     Node 181, Type 0, BuildingBlock: QUQFOY_clean_sbu_3, # of connection points: 4
#     Node 182, Type 0, BuildingBlock: QUQFOY_clean_sbu_3, # of connection points: 4
#     Node 183, Type 0, BuildingBlock: QUQFOY_clean_sbu_3, # of connection points: 4
#     Node 184, Type 0, BuildingBlock: QUQFOY_clean_sbu_3, # of connection points: 4
#     Node 185, Type 0, BuildingBlock: QUQFOY_clean_sbu_3, # of connection points: 4
#     Node 186, Type 0, BuildingBlock: QUQFOY_clean_sbu_3, # of connection points: 4
#     Node 187, Type 0, BuildingBlock: QUQFOY_clean_sbu_3, # of connection points: 4
#     Node 188, Type 0, BuildingBlock: QUQFOY_clean_sbu_3, # of connection points: 4
#     Node 189, Type 0, BuildingBlock: QUQFOY_clean_sbu_3, # of connection points: 4
#     Node 190, Type 0, BuildingBlock: QUQFOY_clean_sbu_3, # of connection points: 4
#     Node 191, Type 0, BuildingBlock: QUQFOY_clean_sbu_3, # of connection points: 4
#     Edge 192, Type (0, 0), BuildingBlock: OJICUG_clean_linker_0, # of connection points: 2
#     Edge 193, Type (0, 0), BuildingBlock: OJICUG_clean_linker_0, # of connection points: 2
#     Edge 194, Type (0, 0), BuildingBlock: OJICUG_clean_linker_0, # of connection points: 2
#     Edge 195, Type (0, 0), BuildingBlock: OJICUG_clean_linker_0, # of connection points: 2
#     Edge 196, Type (0, 0), BuildingBlock: OJICUG_clean_linker_0, # of connection points: 2
#     Edge 197, Type (0, 0), BuildingBlock: OJICUG_clean_linker_0, # of connection points: 2
#     Edge 198, Type (0, 0), BuildingBlock: OJICUG_clean_linker_0, # of connection points: 2
#     Edge 199, Type (0, 0), BuildingBlock: OJICUG_clean_linker_0, # of connection points: 2
#     Edge 200, Type (0, 0), BuildingBlock: OJICUG_clean_linker_0, # of connection points: 2
#     Edge 201, Type (0, 0), BuildingBlock: OJICUG_clean_linker_0, # of connection points: 2
#     Edge 202, Type (0, 0), BuildingBlock: OJICUG_clean_linker_0, # of connection points: 2
#     Edge 203, Type (0, 0), BuildingBlock: OJICUG_clean_linker_0, # of connection points: 2
#     Edge 204, Type (0, 0), BuildingBlock: OJICUG_clean_linker_0, # of connection points: 2
#     Edge 205, Type (0, 0), BuildingBlock: OJICUG_clean_linker_0, # of connection points: 2
#     Edge 206, Type (0, 0), BuildingBlock: OJICUG_clean_linker_0, # of connection points: 2
#     Edge 207, Type (0, 0), BuildingBlock: OJICUG_clean_linker_0, # of connection points: 2
#     Edge 208, Type (0, 0), BuildingBlock: OJICUG_clean_linker_0, # of connection points: 2
#     Edge 209, Type (0, 0), BuildingBlock: OJICUG_clean_linker_0, # of connection points: 2
#     Edge 210, Type (0, 0), BuildingBlock: OJICUG_clean_linker_0, # of connection points: 2
#     Edge 211, Type (0, 0), BuildingBlock: OJICUG_clean_linker_0, # of connection points: 2
#     Edge 212, Type (0, 0), BuildingBlock: OJICUG_clean_linker_0, # of connection points: 2
#     Edge 213, Type (0, 0), BuildingBlock: OJICUG_clean_linker_0, # of connection points: 2
#     Edge 214, Type (0, 0), BuildingBlock: OJICUG_clean_linker_0, # of connection points: 2
#     Edge 215, Type (0, 0), BuildingBlock: OJICUG_clean_linker_0, # of connection points: 2
#     Edge 216, Type (0, 0), BuildingBlock: OJICUG_clean_linker_0, # of connection points: 2
#     Edge 217, Type (0, 0), BuildingBlock: OJICUG_clean_linker_0, # of connection points: 2
#     Edge 218, Type (0, 0), BuildingBlock: OJICUG_clean_linker_0, # of connection points: 2
#     Edge 219, Type (0, 0), BuildingBlock: OJICUG_clean_linker_0, # of connection points: 2
#     Edge 220, Type (0, 0), BuildingBlock: OJICUG_clean_linker_0, # of connection points: 2
#     Edge 221, Type (0, 0), BuildingBlock: OJICUG_clean_linker_0, # of connection points: 2
#     Edge 222, Type (0, 0), BuildingBlock: OJICUG_clean_linker_0, # of connection points: 2
#     Edge 223, Type (0, 0), BuildingBlock: OJICUG_clean_linker_0, # of connection points: 2
#     Edge 224, Type (0, 0), BuildingBlock: OJICUG_clean_linker_0, # of connection points: 2
#     Edge 225, Type (0, 0), BuildingBlock: OJICUG_clean_linker_0, # of connection points: 2
#     Edge 226, Type (0, 0), BuildingBlock: OJICUG_clean_linker_0, # of connection points: 2
#     Edge 227, Type (0, 0), BuildingBlock: OJICUG_clean_linker_0, # of connection points: 2
#     Edge 228, Type (0, 0), BuildingBlock: OJICUG_clean_linker_0, # of connection points: 2
#     Edge 229, Type (0, 0), BuildingBlock: OJICUG_clean_linker_0, # of connection points: 2
#     Edge 230, Type (0, 0), BuildingBlock: OJICUG_clean_linker_0, # of connection points: 2
#     Edge 231, Type (0, 0), BuildingBlock: OJICUG_clean_linker_0, # of connection points: 2
#     Edge 232, Type (0, 0), BuildingBlock: OJICUG_clean_linker_0, # of connection points: 2
#     Edge 233, Type (0, 0), BuildingBlock: OJICUG_clean_linker_0, # of connection points: 2
#     Edge 234, Type (0, 0), BuildingBlock: OJICUG_clean_linker_0, # of connection points: 2
#     Edge 235, Type (0, 0), BuildingBlock: OJICUG_clean_linker_0, # of connection points: 2
#     Edge 236, Type (0, 0), BuildingBlock: OJICUG_clean_linker_0, # of connection points: 2
#     Edge 237, Type (0, 0), BuildingBlock: OJICUG_clean_linker_0, # of connection points: 2
#     Edge 238, Type (0, 0), BuildingBlock: OJICUG_clean_linker_0, # of connection points: 2
#     Edge 239, Type (0, 0), BuildingBlock: OJICUG_clean_linker_0, # of connection points: 2
#     Edge 240, Type (0, 0), BuildingBlock: OJICUG_clean_linker_0, # of connection points: 2
#     Edge 241, Type (0, 0), BuildingBlock: OJICUG_clean_linker_0, # of connection points: 2
#     Edge 242, Type (0, 0), BuildingBlock: OJICUG_clean_linker_0, # of connection points: 2
#     Edge 243, Type (0, 0), BuildingBlock: OJICUG_clean_linker_0, # of connection points: 2
#     Edge 244, Type (0, 0), BuildingBlock: OJICUG_clean_linker_0, # of connection points: 2
#     Edge 245, Type (0, 0), BuildingBlock: OJICUG_clean_linker_0, # of connection points: 2
#     Edge 246, Type (0, 0), BuildingBlock: OJICUG_clean_linker_0, # of connection points: 2
#     Edge 247, Type (0, 0), BuildingBlock: OJICUG_clean_linker_0, # of connection points: 2
#     Edge 248, Type (0, 0), BuildingBlock: OJICUG_clean_linker_0, # of connection points: 2
#     Edge 249, Type (0, 0), BuildingBlock: OJICUG_clean_linker_0, # of connection points: 2
#     Edge 250, Type (0, 0), BuildingBlock: OJICUG_clean_linker_0, # of connection points: 2
#     Edge 251, Type (0, 0), BuildingBlock: OJICUG_clean_linker_0, # of connection points: 2
#     Edge 252, Type (0, 0), BuildingBlock: OJICUG_clean_linker_0, # of connection points: 2
#     Edge 253, Type (0, 0), BuildingBlock: OJICUG_clean_linker_0, # of connection points: 2
#     Edge 254, Type (0, 0), BuildingBlock: OJICUG_clean_linker_0, # of connection points: 2
#     Edge 255, Type (0, 0), BuildingBlock: OJICUG_clean_linker_0, # of connection points: 2
#     Edge 256, Type (0, 0), BuildingBlock: OJICUG_clean_linker_0, # of connection points: 2
#     Edge 257, Type (0, 0), BuildingBlock: OJICUG_clean_linker_0, # of connection points: 2
#     Edge 258, Type (0, 0), BuildingBlock: OJICUG_clean_linker_0, # of connection points: 2
#     Edge 259, Type (0, 0), BuildingBlock: OJICUG_clean_linker_0, # of connection points: 2
#     Edge 260, Type (0, 0), BuildingBlock: OJICUG_clean_linker_0, # of connection points: 2
#     Edge 261, Type (0, 0), BuildingBlock: OJICUG_clean_linker_0, # of connection points: 2
#     Edge 262, Type (0, 0), BuildingBlock: OJICUG_clean_linker_0, # of connection points: 2
#     Edge 263, Type (0, 0), BuildingBlock: OJICUG_clean_linker_0, # of connection points: 2
#     Edge 264, Type (0, 0), BuildingBlock: OJICUG_clean_linker_0, # of connection points: 2
#     Edge 265, Type (0, 0), BuildingBlock: OJICUG_clean_linker_0, # of connection points: 2
#     Edge 266, Type (0, 0), BuildingBlock: OJICUG_clean_linker_0, # of connection points: 2
#     Edge 267, Type (0, 0), BuildingBlock: OJICUG_clean_linker_0, # of connection points: 2
#     Edge 268, Type (0, 0), BuildingBlock: OJICUG_clean_linker_0, # of connection points: 2
#     Edge 269, Type (0, 0), BuildingBlock: OJICUG_clean_linker_0, # of connection points: 2
#     Edge 270, Type (0, 0), BuildingBlock: OJICUG_clean_linker_0, # of connection points: 2
#     Edge 271, Type (0, 0), BuildingBlock: OJICUG_clean_linker_0, # of connection points: 2
#     Edge 272, Type (0, 0), BuildingBlock: OJICUG_clean_linker_0, # of connection points: 2
#     Edge 273, Type (0, 0), BuildingBlock: OJICUG_clean_linker_0, # of connection points: 2
#     Edge 274, Type (0, 0), BuildingBlock: OJICUG_clean_linker_0, # of connection points: 2
#     Edge 275, Type (0, 0), BuildingBlock: OJICUG_clean_linker_0, # of connection points: 2
#     Edge 276, Type (0, 0), BuildingBlock: OJICUG_clean_linker_0, # of connection points: 2
#     Edge 277, Type (0, 0), BuildingBlock: OJICUG_clean_linker_0, # of connection points: 2
#     Edge 278, Type (0, 0), BuildingBlock: OJICUG_clean_linker_0, # of connection points: 2
#     Edge 279, Type (0, 0), BuildingBlock: OJICUG_clean_linker_0, # of connection points: 2
#     Edge 280, Type (0, 0), BuildingBlock: OJICUG_clean_linker_0, # of connection points: 2
#     Edge 281, Type (0, 0), BuildingBlock: OJICUG_clean_linker_0, # of connection points: 2
#     Edge 282, Type (0, 0), BuildingBlock: OJICUG_clean_linker_0, # of connection points: 2
#     Edge 283, Type (0, 0), BuildingBlock: OJICUG_clean_linker_0, # of connection points: 2
#     Edge 284, Type (0, 0), BuildingBlock: OJICUG_clean_linker_0, # of connection points: 2
#     Edge 285, Type (0, 0), BuildingBlock: OJICUG_clean_linker_0, # of connection points: 2
#     Edge 286, Type (0, 0), BuildingBlock: OJICUG_clean_linker_0, # of connection points: 2
#     Edge 287, Type (0, 0), BuildingBlock: OJICUG_clean_linker_0, # of connection points: 2
#     Edge 288, Type (0, 0), BuildingBlock: OJICUG_clean_linker_0, # of connection points: 2
#     Edge 289, Type (0, 0), BuildingBlock: OJICUG_clean_linker_0, # of connection points: 2
#     Edge 290, Type (0, 0), BuildingBlock: OJICUG_clean_linker_0, # of connection points: 2
#     Edge 291, Type (0, 0), BuildingBlock: OJICUG_clean_linker_0, # of connection points: 2
#     Edge 292, Type (0, 0), BuildingBlock: OJICUG_clean_linker_0, # of connection points: 2
#     Edge 293, Type (0, 0), BuildingBlock: OJICUG_clean_linker_0, # of connection points: 2
#     Edge 294, Type (0, 0), BuildingBlock: OJICUG_clean_linker_0, # of connection points: 2
#     Edge 295, Type (0, 0), BuildingBlock: OJICUG_clean_linker_0, # of connection points: 2
#     Edge 296, Type (0, 0), BuildingBlock: OJICUG_clean_linker_0, # of connection points: 2
#     Edge 297, Type (0, 0), BuildingBlock: OJICUG_clean_linker_0, # of connection points: 2
#     Edge 298, Type (0, 0), BuildingBlock: OJICUG_clean_linker_0, # of connection points: 2
#     Edge 299, Type (0, 0), BuildingBlock: OJICUG_clean_linker_0, # of connection points: 2
#     Edge 300, Type (0, 0), BuildingBlock: OJICUG_clean_linker_0, # of connection points: 2
#     Edge 301, Type (0, 0), BuildingBlock: OJICUG_clean_linker_0, # of connection points: 2
#     Edge 302, Type (0, 0), BuildingBlock: OJICUG_clean_linker_0, # of connection points: 2
#     Edge 303, Type (0, 0), BuildingBlock: OJICUG_clean_linker_0, # of connection points: 2
#     Edge 304, Type (0, 0), BuildingBlock: OJICUG_clean_linker_0, # of connection points: 2
#     Edge 305, Type (0, 0), BuildingBlock: OJICUG_clean_linker_0, # of connection points: 2
#     Edge 306, Type (0, 0), BuildingBlock: OJICUG_clean_linker_0, # of connection points: 2
#     Edge 307, Type (0, 0), BuildingBlock: OJICUG_clean_linker_0, # of connection points: 2
#     Edge 308, Type (0, 0), BuildingBlock: OJICUG_clean_linker_0, # of connection points: 2
#     Edge 309, Type (0, 0), BuildingBlock: OJICUG_clean_linker_0, # of connection points: 2
#     Edge 310, Type (0, 0), BuildingBlock: OJICUG_clean_linker_0, # of connection points: 2
#     Edge 311, Type (0, 0), BuildingBlock: OJICUG_clean_linker_0, # of connection points: 2
#     Edge 312, Type (0, 0), BuildingBlock: OJICUG_clean_linker_0, # of connection points: 2
#     Edge 313, Type (0, 0), BuildingBlock: OJICUG_clean_linker_0, # of connection points: 2
#     Edge 314, Type (0, 0), BuildingBlock: OJICUG_clean_linker_0, # of connection points: 2
#     Edge 315, Type (0, 0), BuildingBlock: OJICUG_clean_linker_0, # of connection points: 2
#     Edge 316, Type (0, 0), BuildingBlock: OJICUG_clean_linker_0, # of connection points: 2
#     Edge 317, Type (0, 0), BuildingBlock: OJICUG_clean_linker_0, # of connection points: 2
#     Edge 318, Type (0, 0), BuildingBlock: OJICUG_clean_linker_0, # of connection points: 2
#     Edge 319, Type (0, 0), BuildingBlock: OJICUG_clean_linker_0, # of connection points: 2
#     Edge 320, Type (0, 0), BuildingBlock: OJICUG_clean_linker_0, # of connection points: 2
#     Edge 321, Type (0, 0), BuildingBlock: OJICUG_clean_linker_0, # of connection points: 2
#     Edge 322, Type (0, 0), BuildingBlock: OJICUG_clean_linker_0, # of connection points: 2
#     Edge 323, Type (0, 0), BuildingBlock: OJICUG_clean_linker_0, # of connection points: 2
#     Edge 324, Type (0, 0), BuildingBlock: OJICUG_clean_linker_0, # of connection points: 2
#     Edge 325, Type (0, 0), BuildingBlock: OJICUG_clean_linker_0, # of connection points: 2
#     Edge 326, Type (0, 0), BuildingBlock: OJICUG_clean_linker_0, # of connection points: 2
#     Edge 327, Type (0, 0), BuildingBlock: OJICUG_clean_linker_0, # of connection points: 2
#     Edge 328, Type (0, 0), BuildingBlock: OJICUG_clean_linker_0, # of connection points: 2
#     Edge 329, Type (0, 0), BuildingBlock: OJICUG_clean_linker_0, # of connection points: 2
#     Edge 330, Type (0, 0), BuildingBlock: OJICUG_clean_linker_0, # of connection points: 2
#     Edge 331, Type (0, 0), BuildingBlock: OJICUG_clean_linker_0, # of connection points: 2
#     Edge 332, Type (0, 0), BuildingBlock: OJICUG_clean_linker_0, # of connection points: 2
#     Edge 333, Type (0, 0), BuildingBlock: OJICUG_clean_linker_0, # of connection points: 2
#     Edge 334, Type (0, 0), BuildingBlock: OJICUG_clean_linker_0, # of connection points: 2
#     Edge 335, Type (0, 0), BuildingBlock: OJICUG_clean_linker_0, # of connection points: 2
#     Edge 336, Type (0, 0), BuildingBlock: OJICUG_clean_linker_0, # of connection points: 2
#     Edge 337, Type (0, 0), BuildingBlock: OJICUG_clean_linker_0, # of connection points: 2
#     Edge 338, Type (0, 0), BuildingBlock: OJICUG_clean_linker_0, # of connection points: 2
#     Edge 339, Type (0, 0), BuildingBlock: OJICUG_clean_linker_0, # of connection points: 2
#     Edge 340, Type (0, 0), BuildingBlock: OJICUG_clean_linker_0, # of connection points: 2
#     Edge 341, Type (0, 0), BuildingBlock: OJICUG_clean_linker_0, # of connection points: 2
#     Edge 342, Type (0, 0), BuildingBlock: OJICUG_clean_linker_0, # of connection points: 2
#     Edge 343, Type (0, 0), BuildingBlock: OJICUG_clean_linker_0, # of connection points: 2
#     Edge 344, Type (0, 0), BuildingBlock: OJICUG_clean_linker_0, # of connection points: 2
#     Edge 345, Type (0, 0), BuildingBlock: OJICUG_clean_linker_0, # of connection points: 2
#     Edge 346, Type (0, 0), BuildingBlock: OJICUG_clean_linker_0, # of connection points: 2
#     Edge 347, Type (0, 0), BuildingBlock: OJICUG_clean_linker_0, # of connection points: 2
#     Edge 348, Type (0, 0), BuildingBlock: OJICUG_clean_linker_0, # of connection points: 2
#     Edge 349, Type (0, 0), BuildingBlock: OJICUG_clean_linker_0, # of connection points: 2
#     Edge 350, Type (0, 0), BuildingBlock: OJICUG_clean_linker_0, # of connection points: 2
#     Edge 351, Type (0, 0), BuildingBlock: OJICUG_clean_linker_0, # of connection points: 2
#     Edge 352, Type (0, 0), BuildingBlock: OJICUG_clean_linker_0, # of connection points: 2
#     Edge 353, Type (0, 0), BuildingBlock: OJICUG_clean_linker_0, # of connection points: 2
#     Edge 354, Type (0, 0), BuildingBlock: OJICUG_clean_linker_0, # of connection points: 2
#     Edge 355, Type (0, 0), BuildingBlock: OJICUG_clean_linker_0, # of connection points: 2
#     Edge 356, Type (0, 0), BuildingBlock: OJICUG_clean_linker_0, # of connection points: 2
#     Edge 357, Type (0, 0), BuildingBlock: OJICUG_clean_linker_0, # of connection points: 2
#     Edge 358, Type (0, 0), BuildingBlock: OJICUG_clean_linker_0, # of connection points: 2
#     Edge 359, Type (0, 0), BuildingBlock: OJICUG_clean_linker_0, # of connection points: 2
#     Edge 360, Type (0, 0), BuildingBlock: OJICUG_clean_linker_0, # of connection points: 2
#     Edge 361, Type (0, 0), BuildingBlock: OJICUG_clean_linker_0, # of connection points: 2
#     Edge 362, Type (0, 0), BuildingBlock: OJICUG_clean_linker_0, # of connection points: 2
#     Edge 363, Type (0, 0), BuildingBlock: OJICUG_clean_linker_0, # of connection points: 2
#     Edge 364, Type (0, 0), BuildingBlock: OJICUG_clean_linker_0, # of connection points: 2
#     Edge 365, Type (0, 0), BuildingBlock: OJICUG_clean_linker_0, # of connection points: 2
#     Edge 366, Type (0, 0), BuildingBlock: OJICUG_clean_linker_0, # of connection points: 2
#     Edge 367, Type (0, 0), BuildingBlock: OJICUG_clean_linker_0, # of connection points: 2
#     Edge 368, Type (0, 0), BuildingBlock: OJICUG_clean_linker_0, # of connection points: 2
#     Edge 369, Type (0, 0), BuildingBlock: OJICUG_clean_linker_0, # of connection points: 2
#     Edge 370, Type (0, 0), BuildingBlock: OJICUG_clean_linker_0, # of connection points: 2
#     Edge 371, Type (0, 0), BuildingBlock: OJICUG_clean_linker_0, # of connection points: 2
#     Edge 372, Type (0, 0), BuildingBlock: OJICUG_clean_linker_0, # of connection points: 2
#     Edge 373, Type (0, 0), BuildingBlock: OJICUG_clean_linker_0, # of connection points: 2
#     Edge 374, Type (0, 0), BuildingBlock: OJICUG_clean_linker_0, # of connection points: 2
#     Edge 375, Type (0, 0), BuildingBlock: OJICUG_clean_linker_0, # of connection points: 2
#     Edge 376, Type (0, 0), BuildingBlock: OJICUG_clean_linker_0, # of connection points: 2
#     Edge 377, Type (0, 0), BuildingBlock: OJICUG_clean_linker_0, # of connection points: 2
#     Edge 378, Type (0, 0), BuildingBlock: OJICUG_clean_linker_0, # of connection points: 2
#     Edge 379, Type (0, 0), BuildingBlock: OJICUG_clean_linker_0, # of connection points: 2
#     Edge 380, Type (0, 0), BuildingBlock: OJICUG_clean_linker_0, # of connection points: 2
#     Edge 381, Type (0, 0), BuildingBlock: OJICUG_clean_linker_0, # of connection points: 2
#     Edge 382, Type (0, 0), BuildingBlock: OJICUG_clean_linker_0, # of connection points: 2
#     Edge 383, Type (0, 0), BuildingBlock: OJICUG_clean_linker_0, # of connection points: 2
#     Edge 384, Type (0, 0), BuildingBlock: OJICUG_clean_linker_0, # of connection points: 2
#     Edge 385, Type (0, 0), BuildingBlock: OJICUG_clean_linker_0, # of connection points: 2
#     Edge 386, Type (0, 0), BuildingBlock: OJICUG_clean_linker_0, # of connection points: 2
#     Edge 387, Type (0, 0), BuildingBlock: OJICUG_clean_linker_0, # of connection points: 2
#     Edge 388, Type (0, 0), BuildingBlock: OJICUG_clean_linker_0, # of connection points: 2
#     Edge 389, Type (0, 0), BuildingBlock: OJICUG_clean_linker_0, # of connection points: 2
#     Edge 390, Type (0, 0), BuildingBlock: OJICUG_clean_linker_0, # of connection points: 2
#     Edge 391, Type (0, 0), BuildingBlock: OJICUG_clean_linker_0, # of connection points: 2
#     Edge 392, Type (0, 0), BuildingBlock: OJICUG_clean_linker_0, # of connection points: 2
#     Edge 393, Type (0, 0), BuildingBlock: OJICUG_clean_linker_0, # of connection points: 2
#     Edge 394, Type (0, 0), BuildingBlock: OJICUG_clean_linker_0, # of connection points: 2
#     Edge 395, Type (0, 0), BuildingBlock: OJICUG_clean_linker_0, # of connection points: 2
#     Edge 396, Type (0, 0), BuildingBlock: OJICUG_clean_linker_0, # of connection points: 2
#     Edge 397, Type (0, 0), BuildingBlock: OJICUG_clean_linker_0, # of connection points: 2
#     Edge 398, Type (0, 0), BuildingBlock: OJICUG_clean_linker_0, # of connection points: 2
#     Edge 399, Type (0, 0), BuildingBlock: OJICUG_clean_linker_0, # of connection points: 2
#     Edge 400, Type (0, 0), BuildingBlock: OJICUG_clean_linker_0, # of connection points: 2
#     Edge 401, Type (0, 0), BuildingBlock: OJICUG_clean_linker_0, # of connection points: 2
#     Edge 402, Type (0, 0), BuildingBlock: OJICUG_clean_linker_0, # of connection points: 2
#     Edge 403, Type (0, 0), BuildingBlock: OJICUG_clean_linker_0, # of connection points: 2
#     Edge 404, Type (0, 0), BuildingBlock: OJICUG_clean_linker_0, # of connection points: 2
#     Edge 405, Type (0, 0), BuildingBlock: OJICUG_clean_linker_0, # of connection points: 2
#     Edge 406, Type (0, 0), BuildingBlock: OJICUG_clean_linker_0, # of connection points: 2
#     Edge 407, Type (0, 0), BuildingBlock: OJICUG_clean_linker_0, # of connection points: 2
#     Edge 408, Type (0, 0), BuildingBlock: OJICUG_clean_linker_0, # of connection points: 2
#     Edge 409, Type (0, 0), BuildingBlock: OJICUG_clean_linker_0, # of connection points: 2
#     Edge 410, Type (0, 0), BuildingBlock: OJICUG_clean_linker_0, # of connection points: 2
#     Edge 411, Type (0, 0), BuildingBlock: OJICUG_clean_linker_0, # of connection points: 2
#     Edge 412, Type (0, 0), BuildingBlock: OJICUG_clean_linker_0, # of connection points: 2
#     Edge 413, Type (0, 0), BuildingBlock: OJICUG_clean_linker_0, # of connection points: 2
#     Edge 414, Type (0, 0), BuildingBlock: OJICUG_clean_linker_0, # of connection points: 2
#     Edge 415, Type (0, 0), BuildingBlock: OJICUG_clean_linker_0, # of connection points: 2
#     Edge 416, Type (0, 0), BuildingBlock: OJICUG_clean_linker_0, # of connection points: 2
#     Edge 417, Type (0, 0), BuildingBlock: OJICUG_clean_linker_0, # of connection points: 2
#     Edge 418, Type (0, 0), BuildingBlock: OJICUG_clean_linker_0, # of connection points: 2
#     Edge 419, Type (0, 0), BuildingBlock: OJICUG_clean_linker_0, # of connection points: 2
#     Edge 420, Type (0, 0), BuildingBlock: OJICUG_clean_linker_0, # of connection points: 2
#     Edge 421, Type (0, 0), BuildingBlock: OJICUG_clean_linker_0, # of connection points: 2
#     Edge 422, Type (0, 0), BuildingBlock: OJICUG_clean_linker_0, # of connection points: 2
#     Edge 423, Type (0, 0), BuildingBlock: OJICUG_clean_linker_0, # of connection points: 2
#     Edge 424, Type (0, 0), BuildingBlock: OJICUG_clean_linker_0, # of connection points: 2
#     Edge 425, Type (0, 0), BuildingBlock: OJICUG_clean_linker_0, # of connection points: 2
#     Edge 426, Type (0, 0), BuildingBlock: OJICUG_clean_linker_0, # of connection points: 2
#     Edge 427, Type (0, 0), BuildingBlock: OJICUG_clean_linker_0, # of connection points: 2
#     Edge 428, Type (0, 0), BuildingBlock: OJICUG_clean_linker_0, # of connection points: 2
#     Edge 429, Type (0, 0), BuildingBlock: OJICUG_clean_linker_0, # of connection points: 2
#     Edge 430, Type (0, 0), BuildingBlock: OJICUG_clean_linker_0, # of connection points: 2
#     Edge 431, Type (0, 0), BuildingBlock: OJICUG_clean_linker_0, # of connection points: 2
#     Edge 432, Type (0, 0), BuildingBlock: OJICUG_clean_linker_0, # of connection points: 2
#     Edge 433, Type (0, 0), BuildingBlock: OJICUG_clean_linker_0, # of connection points: 2
#     Edge 434, Type (0, 0), BuildingBlock: OJICUG_clean_linker_0, # of connection points: 2
#     Edge 435, Type (0, 0), BuildingBlock: OJICUG_clean_linker_0, # of connection points: 2
#     Edge 436, Type (0, 0), BuildingBlock: OJICUG_clean_linker_0, # of connection points: 2
#     Edge 437, Type (0, 0), BuildingBlock: OJICUG_clean_linker_0, # of connection points: 2
#     Edge 438, Type (0, 0), BuildingBlock: OJICUG_clean_linker_0, # of connection points: 2
#     Edge 439, Type (0, 0), BuildingBlock: OJICUG_clean_linker_0, # of connection points: 2
#     Edge 440, Type (0, 0), BuildingBlock: OJICUG_clean_linker_0, # of connection points: 2
#     Edge 441, Type (0, 0), BuildingBlock: OJICUG_clean_linker_0, # of connection points: 2
#     Edge 442, Type (0, 0), BuildingBlock: OJICUG_clean_linker_0, # of connection points: 2
#     Edge 443, Type (0, 0), BuildingBlock: OJICUG_clean_linker_0, # of connection points: 2
#     Edge 444, Type (0, 0), BuildingBlock: OJICUG_clean_linker_0, # of connection points: 2
#     Edge 445, Type (0, 0), BuildingBlock: OJICUG_clean_linker_0, # of connection points: 2
#     Edge 446, Type (0, 0), BuildingBlock: OJICUG_clean_linker_0, # of connection points: 2
#     Edge 447, Type (0, 0), BuildingBlock: OJICUG_clean_linker_0, # of connection points: 2
#     Edge 448, Type (0, 0), BuildingBlock: OJICUG_clean_linker_0, # of connection points: 2
#     Edge 449, Type (0, 0), BuildingBlock: OJICUG_clean_linker_0, # of connection points: 2
#     Edge 450, Type (0, 0), BuildingBlock: OJICUG_clean_linker_0, # of connection points: 2
#     Edge 451, Type (0, 0), BuildingBlock: OJICUG_clean_linker_0, # of connection points: 2
#     Edge 452, Type (0, 0), BuildingBlock: OJICUG_clean_linker_0, # of connection points: 2
#     Edge 453, Type (0, 0), BuildingBlock: OJICUG_clean_linker_0, # of connection points: 2
#     Edge 454, Type (0, 0), BuildingBlock: OJICUG_clean_linker_0, # of connection points: 2
#     Edge 455, Type (0, 0), BuildingBlock: OJICUG_clean_linker_0, # of connection points: 2
#     Edge 456, Type (0, 0), BuildingBlock: OJICUG_clean_linker_0, # of connection points: 2
#     Edge 457, Type (0, 0), BuildingBlock: OJICUG_clean_linker_0, # of connection points: 2
#     Edge 458, Type (0, 0), BuildingBlock: OJICUG_clean_linker_0, # of connection points: 2
#     Edge 459, Type (0, 0), BuildingBlock: OJICUG_clean_linker_0, # of connection points: 2
#     Edge 460, Type (0, 0), BuildingBlock: OJICUG_clean_linker_0, # of connection points: 2
#     Edge 461, Type (0, 0), BuildingBlock: OJICUG_clean_linker_0, # of connection points: 2
#     Edge 462, Type (0, 0), BuildingBlock: OJICUG_clean_linker_0, # of connection points: 2
#     Edge 463, Type (0, 0), BuildingBlock: OJICUG_clean_linker_0, # of connection points: 2
#     Edge 464, Type (0, 0), BuildingBlock: OJICUG_clean_linker_0, # of connection points: 2
#     Edge 465, Type (0, 0), BuildingBlock: OJICUG_clean_linker_0, # of connection points: 2
#     Edge 466, Type (0, 0), BuildingBlock: OJICUG_clean_linker_0, # of connection points: 2
#     Edge 467, Type (0, 0), BuildingBlock: OJICUG_clean_linker_0, # of connection points: 2
#     Edge 468, Type (0, 0), BuildingBlock: OJICUG_clean_linker_0, # of connection points: 2
#     Edge 469, Type (0, 0), BuildingBlock: OJICUG_clean_linker_0, # of connection points: 2
#     Edge 470, Type (0, 0), BuildingBlock: OJICUG_clean_linker_0, # of connection points: 2
#     Edge 471, Type (0, 0), BuildingBlock: OJICUG_clean_linker_0, # of connection points: 2
#     Edge 472, Type (0, 0), BuildingBlock: OJICUG_clean_linker_0, # of connection points: 2
#     Edge 473, Type (0, 0), BuildingBlock: OJICUG_clean_linker_0, # of connection points: 2
#     Edge 474, Type (0, 0), BuildingBlock: OJICUG_clean_linker_0, # of connection points: 2
#     Edge 475, Type (0, 0), BuildingBlock: OJICUG_clean_linker_0, # of connection points: 2
#     Edge 476, Type (0, 0), BuildingBlock: OJICUG_clean_linker_0, # of connection points: 2
#     Edge 477, Type (0, 0), BuildingBlock: OJICUG_clean_linker_0, # of connection points: 2
#     Edge 478, Type (0, 0), BuildingBlock: OJICUG_clean_linker_0, # of connection points: 2
#     Edge 479, Type (0, 0), BuildingBlock: OJICUG_clean_linker_0, # of connection points: 2
#     Edge 480, Type (0, 0), BuildingBlock: OJICUG_clean_linker_0, # of connection points: 2
#     Edge 481, Type (0, 0), BuildingBlock: OJICUG_clean_linker_0, # of connection points: 2
#     Edge 482, Type (0, 0), BuildingBlock: OJICUG_clean_linker_0, # of connection points: 2
#     Edge 483, Type (0, 0), BuildingBlock: OJICUG_clean_linker_0, # of connection points: 2
#     Edge 484, Type (0, 0), BuildingBlock: OJICUG_clean_linker_0, # of connection points: 2
#     Edge 485, Type (0, 0), BuildingBlock: OJICUG_clean_linker_0, # of connection points: 2
#     Edge 486, Type (0, 0), BuildingBlock: OJICUG_clean_linker_0, # of connection points: 2
#     Edge 487, Type (0, 0), BuildingBlock: OJICUG_clean_linker_0, # of connection points: 2
#     Edge 488, Type (0, 0), BuildingBlock: OJICUG_clean_linker_0, # of connection points: 2
#     Edge 489, Type (0, 0), BuildingBlock: OJICUG_clean_linker_0, # of connection points: 2
#     Edge 490, Type (0, 0), BuildingBlock: OJICUG_clean_linker_0, # of connection points: 2
#     Edge 491, Type (0, 0), BuildingBlock: OJICUG_clean_linker_0, # of connection points: 2
#     Edge 492, Type (0, 0), BuildingBlock: OJICUG_clean_linker_0, # of connection points: 2
#     Edge 493, Type (0, 0), BuildingBlock: OJICUG_clean_linker_0, # of connection points: 2
#     Edge 494, Type (0, 0), BuildingBlock: OJICUG_clean_linker_0, # of connection points: 2
#     Edge 495, Type (0, 0), BuildingBlock: OJICUG_clean_linker_0, # of connection points: 2
#     Edge 496, Type (0, 0), BuildingBlock: OJICUG_clean_linker_0, # of connection points: 2
#     Edge 497, Type (0, 0), BuildingBlock: OJICUG_clean_linker_0, # of connection points: 2
#     Edge 498, Type (0, 0), BuildingBlock: OJICUG_clean_linker_0, # of connection points: 2
#     Edge 499, Type (0, 0), BuildingBlock: OJICUG_clean_linker_0, # of connection points: 2
#     Edge 500, Type (0, 0), BuildingBlock: OJICUG_clean_linker_0, # of connection points: 2
#     Edge 501, Type (0, 0), BuildingBlock: OJICUG_clean_linker_0, # of connection points: 2
#     Edge 502, Type (0, 0), BuildingBlock: OJICUG_clean_linker_0, # of connection points: 2
#     Edge 503, Type (0, 0), BuildingBlock: OJICUG_clean_linker_0, # of connection points: 2
#     Edge 504, Type (0, 0), BuildingBlock: OJICUG_clean_linker_0, # of connection points: 2
#     Edge 505, Type (0, 0), BuildingBlock: OJICUG_clean_linker_0, # of connection points: 2
#     Edge 506, Type (0, 0), BuildingBlock: OJICUG_clean_linker_0, # of connection points: 2
#     Edge 507, Type (0, 0), BuildingBlock: OJICUG_clean_linker_0, # of connection points: 2
#     Edge 508, Type (0, 0), BuildingBlock: OJICUG_clean_linker_0, # of connection points: 2
#     Edge 509, Type (0, 0), BuildingBlock: OJICUG_clean_linker_0, # of connection points: 2
#     Edge 510, Type (0, 0), BuildingBlock: OJICUG_clean_linker_0, # of connection points: 2
#     Edge 511, Type (0, 0), BuildingBlock: OJICUG_clean_linker_0, # of connection points: 2
#     Edge 512, Type (0, 0), BuildingBlock: OJICUG_clean_linker_0, # of connection points: 2
#     Edge 513, Type (0, 0), BuildingBlock: OJICUG_clean_linker_0, # of connection points: 2
#     Edge 514, Type (0, 0), BuildingBlock: OJICUG_clean_linker_0, # of connection points: 2
#     Edge 515, Type (0, 0), BuildingBlock: OJICUG_clean_linker_0, # of connection points: 2
#     Edge 516, Type (0, 0), BuildingBlock: OJICUG_clean_linker_0, # of connection points: 2
#     Edge 517, Type (0, 0), BuildingBlock: OJICUG_clean_linker_0, # of connection points: 2
#     Edge 518, Type (0, 0), BuildingBlock: OJICUG_clean_linker_0, # of connection points: 2
#     Edge 519, Type (0, 0), BuildingBlock: OJICUG_clean_linker_0, # of connection points: 2
#     Edge 520, Type (0, 0), BuildingBlock: OJICUG_clean_linker_0, # of connection points: 2
#     Edge 521, Type (0, 0), BuildingBlock: OJICUG_clean_linker_0, # of connection points: 2
#     Edge 522, Type (0, 0), BuildingBlock: OJICUG_clean_linker_0, # of connection points: 2
#     Edge 523, Type (0, 0), BuildingBlock: OJICUG_clean_linker_0, # of connection points: 2
#     Edge 524, Type (0, 0), BuildingBlock: OJICUG_clean_linker_0, # of connection points: 2
#     Edge 525, Type (0, 0), BuildingBlock: OJICUG_clean_linker_0, # of connection points: 2
#     Edge 526, Type (0, 0), BuildingBlock: OJICUG_clean_linker_0, # of connection points: 2
#     Edge 527, Type (0, 0), BuildingBlock: OJICUG_clean_linker_0, # of connection points: 2
#     Edge 528, Type (0, 0), BuildingBlock: OJICUG_clean_linker_0, # of connection points: 2
#     Edge 529, Type (0, 0), BuildingBlock: OJICUG_clean_linker_0, # of connection points: 2
#     Edge 530, Type (0, 0), BuildingBlock: OJICUG_clean_linker_0, # of connection points: 2
#     Edge 531, Type (0, 0), BuildingBlock: OJICUG_clean_linker_0, # of connection points: 2
#     Edge 532, Type (0, 0), BuildingBlock: OJICUG_clean_linker_0, # of connection points: 2
#     Edge 533, Type (0, 0), BuildingBlock: OJICUG_clean_linker_0, # of connection points: 2
#     Edge 534, Type (0, 0), BuildingBlock: OJICUG_clean_linker_0, # of connection points: 2
#     Edge 535, Type (0, 0), BuildingBlock: OJICUG_clean_linker_0, # of connection points: 2
#     Edge 536, Type (0, 0), BuildingBlock: OJICUG_clean_linker_0, # of connection points: 2
#     Edge 537, Type (0, 0), BuildingBlock: OJICUG_clean_linker_0, # of connection points: 2
#     Edge 538, Type (0, 0), BuildingBlock: OJICUG_clean_linker_0, # of connection points: 2
#     Edge 539, Type (0, 0), BuildingBlock: OJICUG_clean_linker_0, # of connection points: 2
#     Edge 540, Type (0, 0), BuildingBlock: OJICUG_clean_linker_0, # of connection points: 2
#     Edge 541, Type (0, 0), BuildingBlock: OJICUG_clean_linker_0, # of connection points: 2
#     Edge 542, Type (0, 0), BuildingBlock: OJICUG_clean_linker_0, # of connection points: 2
#     Edge 543, Type (0, 0), BuildingBlock: OJICUG_clean_linker_0, # of connection points: 2
#     Edge 544, Type (0, 0), BuildingBlock: OJICUG_clean_linker_0, # of connection points: 2
#     Edge 545, Type (0, 0), BuildingBlock: OJICUG_clean_linker_0, # of connection points: 2
#     Edge 546, Type (0, 0), BuildingBlock: OJICUG_clean_linker_0, # of connection points: 2
#     Edge 547, Type (0, 0), BuildingBlock: OJICUG_clean_linker_0, # of connection points: 2
#     Edge 548, Type (0, 0), BuildingBlock: OJICUG_clean_linker_0, # of connection points: 2
#     Edge 549, Type (0, 0), BuildingBlock: OJICUG_clean_linker_0, # of connection points: 2
#     Edge 550, Type (0, 0), BuildingBlock: OJICUG_clean_linker_0, # of connection points: 2
#     Edge 551, Type (0, 0), BuildingBlock: OJICUG_clean_linker_0, # of connection points: 2
#     Edge 552, Type (0, 0), BuildingBlock: OJICUG_clean_linker_0, # of connection points: 2
#     Edge 553, Type (0, 0), BuildingBlock: OJICUG_clean_linker_0, # of connection points: 2
#     Edge 554, Type (0, 0), BuildingBlock: OJICUG_clean_linker_0, # of connection points: 2
#     Edge 555, Type (0, 0), BuildingBlock: OJICUG_clean_linker_0, # of connection points: 2
#     Edge 556, Type (0, 0), BuildingBlock: OJICUG_clean_linker_0, # of connection points: 2
#     Edge 557, Type (0, 0), BuildingBlock: OJICUG_clean_linker_0, # of connection points: 2
#     Edge 558, Type (0, 0), BuildingBlock: OJICUG_clean_linker_0, # of connection points: 2
#     Edge 559, Type (0, 0), BuildingBlock: OJICUG_clean_linker_0, # of connection points: 2
#     Edge 560, Type (0, 0), BuildingBlock: OJICUG_clean_linker_0, # of connection points: 2
#     Edge 561, Type (0, 0), BuildingBlock: OJICUG_clean_linker_0, # of connection points: 2
#     Edge 562, Type (0, 0), BuildingBlock: OJICUG_clean_linker_0, # of connection points: 2
#     Edge 563, Type (0, 0), BuildingBlock: OJICUG_clean_linker_0, # of connection points: 2
#     Edge 564, Type (0, 0), BuildingBlock: OJICUG_clean_linker_0, # of connection points: 2
#     Edge 565, Type (0, 0), BuildingBlock: OJICUG_clean_linker_0, # of connection points: 2
#     Edge 566, Type (0, 0), BuildingBlock: OJICUG_clean_linker_0, # of connection points: 2
#     Edge 567, Type (0, 0), BuildingBlock: OJICUG_clean_linker_0, # of connection points: 2
#     Edge 568, Type (0, 0), BuildingBlock: OJICUG_clean_linker_0, # of connection points: 2
#     Edge 569, Type (0, 0), BuildingBlock: OJICUG_clean_linker_0, # of connection points: 2
#     Edge 570, Type (0, 0), BuildingBlock: OJICUG_clean_linker_0, # of connection points: 2
#     Edge 571, Type (0, 0), BuildingBlock: OJICUG_clean_linker_0, # of connection points: 2
#     Edge 572, Type (0, 0), BuildingBlock: OJICUG_clean_linker_0, # of connection points: 2
#     Edge 573, Type (0, 0), BuildingBlock: OJICUG_clean_linker_0, # of connection points: 2
#     Edge 574, Type (0, 0), BuildingBlock: OJICUG_clean_linker_0, # of connection points: 2
#     Edge 575, Type (0, 0), BuildingBlock: OJICUG_clean_linker_0, # of connection points: 2
# Relax obj value: 0.085
# Max RMSD: 0.074
# Mean RMSD: 0.074
data_MOF--net-fau--node1-QUQFOY_clean_sbu_3--edge1-OJICUG_clean_linker_0
_symmetry_space_group_name_H-M    P1
_symmetry_Int_Tables_number       1
_symmetry_cell_setting            triclinic
loop_
_symmetry_equiv_pos_as_xyz
'x, y, z'
_cell_length_a     88.92125
_cell_length_b     88.948657
_cell_length_c     88.948977
_cell_angle_alpha  90.004819
_cell_angle_beta   90.000131
_cell_angle_gamma 89.985102
loop_
_atom_site_label
_atom_site_type_symbol
_atom_site_fract_x
_atom_site_fract_y
_atom_site_fract_z
_atom_type_partial_charge
C0 C 0.01634 0.12797 0.46971 0.0
O1 O 0.03 0.13143 0.47119 0.0
Cd2 Cd 0.03537 0.12563 0.44495 0.0
O3 O 0.0119 0.12467 0.4566 0.0
Cd4 Cd 0.03445 0.12776 0.43789 0.0
C5 C 0.01366 0.10677 0.42431 0.0
O6 O 0.05815 0.11515 0.44878 0.0
O7 O 0.05351 0.11045 0.42562 0.0
O8 O 0.03958 0.15341 0.44657 0.0
C9 C 0.06222 0.10874 0.4368 0.0
O10 O 0.01928 0.10379 0.43705 0.0
C11 C 0.04109 0.1589 0.4335 0.0
O12 O 0.01744 0.11907 0.41826 0.0
O13 O 0.03917 0.15002 0.42249 0.0
C14 C 0.86578 0.26458 0.7191 0.0
O15 O 0.85627 0.27507 0.71953 0.0
Cd16 Cd 0.86518 0.28496 0.69472 0.0
O17 O 0.87333 0.26334 0.70719 0.0
Cd18 Cd 0.86435 0.28437 0.68898 0.0
C19 C 0.88582 0.26613 0.67317 0.0
O20 O 0.87508 0.30796 0.70115 0.0
O21 O 0.88045 0.30473 0.67785 0.0
O22 O 0.83796 0.28715 0.69794 0.0
C23 C 0.88171 0.3128 0.68956 0.0
O24 O 0.88904 0.27241 0.68551 0.0
C25 C 0.83258 0.28945 0.68493 0.0
O26 O 0.87267 0.26816 0.66817 0.0
O27 O 0.8417 0.2887 0.67399 0.0
C28 C 0.7255 0.11348 0.96713 0.0
O29 O 0.71187 0.11005 0.96898 0.0
Cd30 Cd 0.70617 0.11431 0.94256 0.0
O31 O 0.72979 0.11602 0.9538 0.0
Cd32 Cd 0.70732 0.11199 0.93517 0.0
C33 C 0.72723 0.13408 0.92196 0.0
O34 O 0.68312 0.124 0.94592 0.0
O35 O 0.6878 0.12868 0.92276 0.0
O36 O 0.70351 0.08655 0.94496 0.0
C37 C 0.67898 0.13025 0.93388 0.0
O38 O 0.72103 0.13672 0.9345 0.0
C39 C 0.7012 0.08048 0.93227 0.0
O40 O 0.72443 0.12155 0.91581 0.0
O41 O 0.70231 0.08891 0.92079 0.0
C42 C 0.87818 0.97843 0.21893 0.0
O43 O 0.88709 0.96747 0.21998 0.0
Cd44 Cd 0.8787 0.95752 0.19502 0.0
O45 O 0.87125 0.97985 0.20666 0.0
Cd46 Cd 0.87969 0.95807 0.18898 0.0
C47 C 0.85835 0.97645 0.17308 0.0
O48 O 0.86815 0.93496 0.20158 0.0
O49 O 0.86324 0.9378 0.17813 0.0
O50 O 0.90578 0.9551 0.19869 0.0
C51 C 0.86159 0.93002 0.18999 0.0
O52 O 0.85517 0.97025 0.18547 0.0
C53 C 0.91144 0.95183 0.18602 0.0
O54 O 0.87146 0.97431 0.16799 0.0
O55 O 0.90266 0.9523 0.17477 0.0
C56 C 0.01871 0.12921 0.76666 0.0
O57 O 0.02483 0.14209 0.76609 0.0
Cd58 Cd 0.04223 0.15091 0.78442 0.0
O59 O 0.02218 0.11984 0.77691 0.0
Cd60 Cd 0.03922 0.11781 0.79883 0.0
C61 C 0.01884 0.145 0.81496 0.0
O62 O 0.06038 0.13161 0.7885 0.0
O63 O 0.0611 0.12797 0.81239 0.0
O64 O 0.04368 0.09279 0.78955 0.0
C65 C 0.06752 0.13306 0.80073 0.0
O66 O 0.02558 0.15385 0.80594 0.0
C67 C 0.04329 0.08633 0.80226 0.0
O68 O 0.02119 0.13088 0.81462 0.0
O69 O 0.04042 0.09453 0.81361 0.0
C70 C 0.86505 0.26752 0.01696 0.0
O71 O 0.85226 0.27383 0.01623 0.0
Cd72 Cd 0.84333 0.29209 0.03358 0.0
O73 O 0.8745 0.27105 0.02714 0.0
Cd74 Cd 0.87659 0.28851 0.04885 0.0
C75 C 0.84827 0.26959 0.06505 0.0
O76 O 0.86349 0.30916 0.03718 0.0
O77 O 0.86701 0.31167 0.06092 0.0
O78 O 0.90196 0.29205 0.04012 0.0
C79 C 0.86206 0.31725 0.04878 0.0
O80 O 0.83983 0.27631 0.05562 0.0
C81 C 0.90797 0.29247 0.05305 0.0
O82 O 0.86247 0.27146 0.06494 0.0
O83 O 0.8994 0.29014 0.06425 0.0
C84 C 0.72523 0.11505 0.27176 0.0
O85 O 0.71888 0.10229 0.27122 0.0
Cd86 Cd 0.70059 0.09399 0.28889 0.0
O87 O 0.72192 0.12453 0.28198 0.0
Cd88 Cd 0.70492 0.12646 0.30408 0.0
C89 C 0.72313 0.09756 0.32028 0.0
O90 O 0.68353 0.11441 0.2923 0.0
O91 O 0.68161 0.1173 0.3162 0.0
O92 O 0.70224 0.15207 0.29565 0.0
C93 C 0.67552 0.1132 0.304 0.0
O94 O 0.71607 0.08931 0.31094 0.0
C95 C 0.70184 0.15798 0.30863 0.0
O96 O 0.72177 0.11181 0.32001 0.0
O97 O 0.70374 0.14921 0.31975 0.0
C98 C 0.88445 0.96954 0.51442 0.0
O99 O 0.89664 0.96214 0.51492 0.0
Cd100 Cd 0.90433 0.94714 0.53541 0.0
O101 O 0.87468 0.96835 0.52487 0.0
Cd102 Cd 0.87092 0.95282 0.54801 0.0
C103 C 0.89802 0.97285 0.56423 0.0
O104 O 0.88375 0.93069 0.539 0.0
O105 O 0.88036 0.93106 0.56285 0.0
O106 O 0.84596 0.94908 0.53823 0.0
C107 C 0.88502 0.92393 0.55142 0.0
O108 O 0.90692 0.96534 0.55588 0.0
C109 C 0.83927 0.94968 0.55081 0.0
O110 O 0.88386 0.97101 0.56348 0.0
O111 O 0.8473 0.95252 0.56228 0.0
C112 C 0.47128 0.01516 0.12492 0.0
O113 O 0.47255 0.02679 0.13291 0.0
Cd114 Cd 0.44682 0.03536 0.12568 0.0
O115 O 0.45867 0.01293 0.11885 0.0
Cd116 Cd 0.44065 0.03443 0.12726 0.0
C117 C 0.42489 0.01514 0.10658 0.0
O118 O 0.45099 0.05834 0.11491 0.0
O119 O 0.42762 0.05357 0.11118 0.0
O120 O 0.4518 0.03829 0.15256 0.0
C121 C 0.4387 0.06228 0.10893 0.0
O122 O 0.43697 0.02166 0.10288 0.0
C123 C 0.43936 0.04057 0.15914 0.0
O124 O 0.42013 0.01737 0.11981 0.0
O125 O 0.42757 0.03933 0.15118 0.0
C126 C 0.9668 0.72747 0.36364 0.0
O127 O 0.95782 0.7281 0.35256 0.0
Cd128 Cd 0.94281 0.70777 0.34449 0.0
O129 O 0.96688 0.71607 0.37237 0.0
Cd130 Cd 0.95189 0.69236 0.37607 0.0
C131 C 0.97074 0.68017 0.3462 0.0
O132 O 0.92847 0.70136 0.36588 0.0
O133 O 0.92997 0.67735 0.36705 0.0
O134 O 0.94991 0.70068 0.40175 0.0
C135 C 0.92207 0.68882 0.36399 0.0
O136 O 0.96222 0.68909 0.3389 0.0
C137 C 0.95087 0.68775 0.40769 0.0
O138 O 0.96974 0.67895 0.36043 0.0
O139 O 0.95329 0.67676 0.39887 0.0
C140 C 0.27565 0.2294 0.62577 0.0
O141 O 0.27396 0.21723 0.63284 0.0
Cd142 Cd 0.29962 0.2087 0.62549 0.0
O143 O 0.28847 0.23188 0.62027 0.0
Cd144 Cd 0.30612 0.20955 0.62697 0.0
C145 C 0.32129 0.22934 0.60644 0.0
O146 O 0.29498 0.18644 0.61373 0.0
O147 O 0.31824 0.19117 0.6093 0.0
O148 O 0.29531 0.20493 0.65226 0.0
C149 C 0.30695 0.18276 0.60699 0.0
O150 O 0.30906 0.22297 0.60299 0.0
C151 C 0.30774 0.20168 0.65843 0.0
O152 O 0.32654 0.22675 0.61942 0.0
O153 O 0.31944 0.20283 0.65031 0.0
C154 C 0.77374 0.5169 0.85987 0.0
O155 O 0.78146 0.51785 0.84791 0.0
Cd156 Cd 0.79681 0.53852 0.84157 0.0
O157 O 0.77468 0.52702 0.87002 0.0
Cd158 Cd 0.78979 0.55041 0.87439 0.0
C159 C 0.77031 0.56651 0.84672 0.0
O160 O 0.81266 0.54141 0.86295 0.0
O161 O 0.81206 0.56529 0.86597 0.0
O162 O 0.79252 0.5421 0.90014 0.0
C163 C 0.81958 0.55378 0.86221 0.0
O164 O 0.77831 0.55859 0.83786 0.0
C165 C 0.79108 0.55507 0.90594 0.0
O166 O 0.77184 0.56552 0.86088 0.0
O167 O 0.78821 0.56584 0.89703 0.0
C168 C 0.47567 0.22384 0.12913 0.0
O169 O 0.47718 0.21699 0.14156 0.0
Cd170 Cd 0.45938 0.19947 0.1511 0.0
O171 O 0.4645 0.22124 0.12054 0.0
Cd172 Cd 0.44178 0.20497 0.11955 0.0
C173 C 0.42894 0.22396 0.14937 0.0
O174 O 0.45326 0.18316 0.13086 0.0
O175 O 0.42917 0.18223 0.12939 0.0
O176 O 0.44912 0.20205 0.09373 0.0
C177 C 0.44133 0.1757 0.13296 0.0
O178 O 0.43875 0.21652 0.1567 0.0
C179 C 0.43591 0.20206 0.08836 0.0
O180 O 0.42758 0.22247 0.13519 0.0
O181 O 0.42519 0.20438 0.09753 0.0
C182 C 0.77245 0.72659 0.3829 0.0
O183 O 0.78023 0.72541 0.3948 0.0
Cd184 Cd 0.79512 0.70431 0.40084 0.0
O185 O 0.77305 0.71649 0.37272 0.0
Cd186 Cd 0.78786 0.69302 0.36775 0.0
C187 C 0.76879 0.67604 0.39518 0.0
O188 O 0.81076 0.70166 0.37936 0.0
O189 O 0.81019 0.67788 0.37562 0.0
O190 O 0.79065 0.70318 0.34275 0.0
C191 C 0.81768 0.68927 0.37975 0.0
O192 O 0.77677 0.68404 0.40399 0.0
C193 C 0.78969 0.6907 0.33592 0.0
O194 O 0.77008 0.67722 0.38098 0.0
O195 O 0.78691 0.67919 0.3439 0.0
C196 C 0.27256 0.0143 0.61497 0.0
O197 O 0.27065 0.02806 0.61214 0.0
Cd198 Cd 0.29682 0.03387 0.61773 0.0
O199 O 0.28585 0.01008 0.61785 0.0
Cd200 Cd 0.30406 0.03313 0.61542 0.0
C201 C 0.31782 0.01216 0.63612 0.0
O202 O 0.29292 0.05641 0.62853 0.0
O203 O 0.31626 0.05212 0.63275 0.0
O204 O 0.29496 0.03902 0.59015 0.0
C205 C 0.30498 0.06065 0.63468 0.0
O206 O 0.30502 0.01761 0.63918 0.0
C207 C 0.30792 0.04112 0.5846 0.0
O208 O 0.32386 0.01619 0.62389 0.0
O209 O 0.31911 0.03887 0.59319 0.0
C210 C 0.9673 0.51534 0.88233 0.0
O211 O 0.95862 0.51509 0.89365 0.0
Cd212 Cd 0.94444 0.53601 0.90175 0.0
O213 O 0.96745 0.52661 0.87344 0.0
Cd214 Cd 0.95322 0.55058 0.86936 0.0
C215 C 0.97299 0.56296 0.89851 0.0
O216 O 0.92997 0.54249 0.88052 0.0
O217 O 0.932 0.5664 0.87847 0.0
O218 O 0.95053 0.54116 0.84417 0.0
C219 C 0.92401 0.55525 0.88234 0.0
O220 O 0.96446 0.55437 0.90618 0.0
C221 C 0.95188 0.55374 0.83758 0.0
O222 O 0.97171 0.56392 0.88428 0.0
O223 O 0.95467 0.56508 0.84583 0.0
C224 C 0.11271 0.47729 0.01605 0.0
O225 O 0.09954 0.47752 0.02156 0.0
Cd226 Cd 0.09017 0.45936 0.03887 0.0
O227 O 0.12214 0.46721 0.01988 0.0
Cd228 Cd 0.12332 0.44507 0.03677 0.0
C229 C 0.09651 0.42844 0.01623 0.0
O230 O 0.10903 0.45567 0.05753 0.0
O231 O 0.11271 0.43178 0.05847 0.0
O232 O 0.14862 0.45324 0.04204 0.0
C233 C 0.10752 0.44347 0.06473 0.0
O234 O 0.08742 0.43743 0.02271 0.0
C235 C 0.15448 0.44024 0.04146 0.0
O236 O 0.11059 0.42912 0.0187 0.0
O237 O 0.14585 0.42938 0.0381 0.0
C238 C 0.61081 0.26217 0.22327 0.0
O239 O 0.59839 0.26256 0.21626 0.0
Cd240 Cd 0.58991 0.28314 0.20175 0.0
O241 O 0.6203 0.27284 0.22198 0.0
Cd242 Cd 0.62267 0.2962 0.20643 0.0
C243 C 0.5959 0.31222 0.22704 0.0
O244 O 0.60962 0.28714 0.18424 0.0
O245 O 0.61242 0.31106 0.18509 0.0
O246 O 0.64791 0.28758 0.20161 0.0
C247 C 0.60808 0.29967 0.17772 0.0
O248 O 0.58696 0.3037 0.21979 0.0
C249 C 0.65408 0.30041 0.20248 0.0
O250 O 0.61003 0.31157 0.22491 0.0
O251 O 0.64566 0.3114 0.20599 0.0
C252 C 0.71681 0.88027 0.47624 0.0
O253 O 0.71786 0.88873 0.46491 0.0
Cd254 Cd 0.6926 0.88046 0.45583 0.0
O255 O 0.70439 0.87373 0.47819 0.0
Cd256 Cd 0.68605 0.88145 0.45666 0.0
C257 C 0.67196 0.85873 0.47479 0.0
O258 O 0.69787 0.87091 0.4326 0.0
O259 O 0.67483 0.86498 0.43675 0.0
O260 O 0.69456 0.90785 0.4538 0.0
C261 C 0.68623 0.86404 0.4282 0.0
O262 O 0.68438 0.85631 0.46829 0.0
C263 C 0.68158 0.91299 0.45085 0.0
O264 O 0.66615 0.87162 0.47309 0.0
O265 O 0.67069 0.90379 0.45166 0.0
C266 C 0.13054 0.97847 0.71845 0.0
O267 O 0.14174 0.979 0.7096 0.0
Cd268 Cd 0.14972 0.95922 0.69378 0.0
O269 O 0.12158 0.96725 0.71829 0.0
Cd270 Cd 0.11774 0.94377 0.70314 0.0
C271 C 0.14814 0.93071 0.72078 0.0
O272 O 0.12799 0.95318 0.67995 0.0
O273 O 0.12605 0.9292 0.68078 0.0
O274 O 0.09205 0.95204 0.7012 0.0
C275 C 0.12958 0.94077 0.67324 0.0
O276 O 0.15536 0.93973 0.71229 0.0
C277 C 0.08617 0.93906 0.70198 0.0
O278 O 0.13385 0.92984 0.72025 0.0
O279 O 0.09503 0.92812 0.70449 0.0
C280 C 0.52562 0.36348 0.47732 0.0
O281 O 0.5242 0.35507 0.466 0.0
Cd282 Cd 0.54929 0.36314 0.45618 0.0
O283 O 0.53811 0.36997 0.4789 0.0
Cd284 Cd 0.55556 0.36198 0.45678 0.0
C285 C 0.57097 0.38351 0.47541 0.0
O286 O 0.54302 0.37377 0.43368 0.0
O287 O 0.56651 0.3785 0.43662 0.0
O288 O 0.54558 0.33605 0.45387 0.0
C289 C 0.55468 0.38028 0.42882 0.0
O290 O 0.55864 0.38662 0.46905 0.0
C291 C 0.55813 0.33023 0.45041 0.0
O292 O 0.57627 0.37048 0.47322 0.0
O293 O 0.56951 0.33885 0.45075 0.0
C294 C 0.11548 0.77653 0.0133 0.0
O295 O 0.10703 0.77509 0.02459 0.0
Cd296 Cd 0.11469 0.8002 0.03436 0.0
O297 O 0.12194 0.78903 0.01173 0.0
Cd298 Cd 0.11344 0.8065 0.03361 0.0
C299 C 0.1358 0.82172 0.0159 0.0
O300 O 0.12396 0.79448 0.05754 0.0
O301 O 0.12894 0.81788 0.05432 0.0
O302 O 0.0875 0.79654 0.03573 0.0
C303 C 0.13016 0.80626 0.06252 0.0
O304 O 0.13864 0.80935 0.02231 0.0
C305 C 0.08155 0.80919 0.03852 0.0
O306 O 0.12271 0.82705 0.0176 0.0
O307 O 0.09016 0.82058 0.03809 0.0
C308 C 0.7185 0.86438 0.26615 0.0
O309 O 0.71985 0.85624 0.27767 0.0
Cd310 Cd 0.69452 0.8641 0.28687 0.0
O311 O 0.70593 0.87064 0.26419 0.0
Cd312 Cd 0.68816 0.86282 0.28608 0.0
C313 C 0.67294 0.88457 0.26754 0.0
O314 O 0.69993 0.87492 0.30951 0.0
O315 O 0.67646 0.87922 0.30577 0.0
O316 O 0.69817 0.83699 0.28952 0.0
C317 C 0.688 0.88128 0.31392 0.0
O318 O 0.68532 0.88755 0.27386 0.0
C319 C 0.68553 0.83111 0.29251 0.0
O320 O 0.66764 0.87152 0.26955 0.0
O321 O 0.67411 0.83966 0.29165 0.0
C322 C 0.02442 0.37882 0.76514 0.0
O323 O 0.02302 0.38725 0.77644 0.0
Cd324 Cd 0.04812 0.37932 0.78621 0.0
O325 O 0.03692 0.37236 0.7635 0.0
Cd326 Cd 0.05435 0.38049 0.78551 0.0
C327 C 0.06987 0.3587 0.76734 0.0
O328 O 0.04192 0.36868 0.8087 0.0
O329 O 0.06546 0.36421 0.80572 0.0
O330 O 0.04423 0.40635 0.78842 0.0
C331 C 0.05366 0.36229 0.81353 0.0
O332 O 0.05749 0.35574 0.77367 0.0
C333 C 0.05678 0.41225 0.79172 0.0
O334 O 0.07512 0.37179 0.76924 0.0
O335 O 0.06822 0.4037 0.79123 0.0
C336 C 0.97981 0.86508 0.52306 0.0
O337 O 0.96966 0.85522 0.52287 0.0
Cd338 Cd 0.9601 0.86364 0.54805 0.0
O339 O 0.98098 0.87273 0.53491 0.0
Cd340 Cd 0.96061 0.86268 0.55357 0.0
C341 C 0.97935 0.88337 0.56999 0.0
O342 O 0.93684 0.87357 0.54226 0.0
O343 O 0.94043 0.87854 0.56559 0.0
O344 O 0.95774 0.83686 0.54302 0.0
C345 C 0.9321 0.87989 0.55407 0.0
O346 O 0.97289 0.88707 0.55789 0.0
C347 C 0.9547 0.83072 0.5555 0.0
O348 O 0.97734 0.87005 0.57451 0.0
O349 O 0.95536 0.83907 0.56706 0.0
C350 C 0.12936 0.72661 0.27755 0.0
O351 O 0.13801 0.71543 0.27647 0.0
Cd352 Cd 0.13022 0.70629 0.30187 0.0
O353 O 0.1229 0.72848 0.29002 0.0
Cd354 Cd 0.13131 0.70706 0.30815 0.0
C355 C 0.10916 0.72534 0.32314 0.0
O356 O 0.12024 0.6833 0.2963 0.0
O357 O 0.11496 0.68703 0.31955 0.0
O358 O 0.15732 0.70425 0.29827 0.0
C359 C 0.1136 0.67875 0.30801 0.0
O360 O 0.10636 0.7188 0.31083 0.0
C361 C 0.16314 0.70096 0.31086 0.0
O362 O 0.12223 0.72362 0.32853 0.0
O363 O 0.15451 0.70153 0.32223 0.0
C364 C 0.26732 0.87633 0.02597 0.0
O365 O 0.27867 0.88477 0.02519 0.0
Cd366 Cd 0.28707 0.87689 0.05084 0.0
O367 O 0.26509 0.86977 0.03832 0.0
Cd368 Cd 0.2861 0.87811 0.05692 0.0
C369 C 0.26662 0.85722 0.07206 0.0
O370 O 0.30999 0.86617 0.04613 0.0
O371 O 0.30515 0.86131 0.06926 0.0
O372 O 0.28928 0.90383 0.04647 0.0
C373 C 0.31385 0.85952 0.05808 0.0
O374 O 0.27342 0.85376 0.06006 0.0
C375 C 0.29223 0.91 0.05897 0.0
O376 O 0.26869 0.87036 0.0771 0.0
O377 O 0.29165 0.90163 0.07053 0.0
C378 C 0.13107 0.02197 0.76626 0.0
O379 O 0.14307 0.02965 0.76716 0.0
Cd380 Cd 0.1499 0.04468 0.78789 0.0
O381 O 0.12109 0.02272 0.77656 0.0
Cd382 Cd 0.1169 0.03791 0.8 0.0
C383 C 0.14441 0.01879 0.81664 0.0
O384 O 0.12873 0.06053 0.79094 0.0
O385 O 0.12563 0.0601 0.81481 0.0
O386 O 0.09188 0.04116 0.79018 0.0
C387 C 0.12962 0.06746 0.8033 0.0
O388 O 0.15308 0.02662 0.80837 0.0
C389 C 0.08524 0.041 0.8028 0.0
O390 O 0.13019 0.02009 0.81574 0.0
O391 O 0.09328 0.03823 0.81427 0.0
C392 C 0.97554 0.86267 0.2263 0.0
O393 O 0.96905 0.84997 0.22681 0.0
Cd394 Cd 0.95098 0.84177 0.20883 0.0
O395 O 0.97243 0.87216 0.21603 0.0
Cd396 Cd 0.95575 0.87441 0.19381 0.0
C397 C 0.97416 0.8456 0.17792 0.0
O398 O 0.9341 0.8622 0.20476 0.0
O399 O 0.93297 0.86538 0.18083 0.0
O400 O 0.95252 0.90001 0.20201 0.0
C401 C 0.92653 0.86102 0.19277 0.0
O402 O 0.96697 0.83727 0.18709 0.0
C403 C 0.95297 0.90581 0.18898 0.0
O404 O 0.97276 0.85984 0.17821 0.0
O405 O 0.95556 0.89697 0.17805 0.0
C406 C 0.12765 0.72855 0.97173 0.0
O407 O 0.14113 0.72418 0.96997 0.0
Cd408 Cd 0.14885 0.70477 0.95308 0.0
O409 O 0.11703 0.7231 0.96381 0.0
Cd410 Cd 0.1149 0.7051 0.94272 0.0
C411 C 0.13965 0.72416 0.92153 0.0
O412 O 0.12996 0.68598 0.95488 0.0
O413 O 0.12535 0.6817 0.9316 0.0
O414 O 0.08993 0.70061 0.9524 0.0
C415 C 0.13086 0.67703 0.9439 0.0
O416 O 0.14988 0.71711 0.92865 0.0
C417 C 0.08361 0.69956 0.93964 0.0
O418 O 0.12592 0.72318 0.92536 0.0
O419 O 0.09182 0.70177 0.92817 0.0
C420 C 0.27391 0.87855 0.72671 0.0
O421 O 0.28258 0.88988 0.72659 0.0
Cd422 Cd 0.29726 0.8973 0.70588 0.0
O423 O 0.2736 0.86938 0.71566 0.0
Cd424 Cd 0.28791 0.8653 0.69159 0.0
C425 C 0.26947 0.89494 0.67819 0.0
O426 O 0.31116 0.87528 0.70088 0.0
O427 O 0.31035 0.87371 0.67689 0.0
O428 O 0.28951 0.83976 0.70032 0.0
C429 C 0.318 0.87671 0.68853 0.0
O430 O 0.27806 0.90246 0.68684 0.0
C431 C 0.2894 0.83369 0.68742 0.0
O432 O 0.27023 0.88066 0.67759 0.0
O433 O 0.28726 0.84235 0.67626 0.0
C434 C 0.11321 0.0202 0.47475 0.0
O435 O 0.10061 0.02677 0.47339 0.0
Cd436 Cd 0.09307 0.04217 0.45303 0.0
O437 O 0.12352 0.022 0.46493 0.0
Cd438 Cd 0.12627 0.03761 0.44164 0.0
C439 C 0.10039 0.01714 0.42441 0.0
O440 O 0.11286 0.05959 0.45044 0.0
O441 O 0.11458 0.0582 0.42649 0.0
O442 O 0.15136 0.04298 0.45048 0.0
C443 C 0.11057 0.06578 0.43788 0.0
O444 O 0.091 0.02544 0.43133 0.0
C445 C 0.15757 0.04287 0.43763 0.0
O446 O 0.11442 0.01793 0.42703 0.0
O447 O 0.1493 0.03943 0.4265 0.0
C448 C 0.51685 0.97404 0.87718 0.0
O449 O 0.51336 0.9655 0.88806 0.0
Cd450 Cd 0.53235 0.95076 0.89983 0.0
O451 O 0.52956 0.97286 0.87068 0.0
Cd452 Cd 0.5519 0.95617 0.87009 0.0
C453 C 0.56163 0.97703 0.89922 0.0
O454 O 0.54149 0.93371 0.88149 0.0
O455 O 0.56563 0.93533 0.88184 0.0
O456 O 0.545 0.9523 0.84432 0.0
C457 C 0.55396 0.92772 0.88489 0.0
O458 O 0.55132 0.96977 0.90605 0.0
C459 C 0.55825 0.95284 0.83904 0.0
O460 O 0.56453 0.97458 0.88543 0.0
O461 O 0.56881 0.95568 0.84825 0.0
C462 C 0.01345 0.27523 0.61441 0.0
O463 O 0.02435 0.27441 0.6054 0.0
Cd464 Cd 0.03416 0.29932 0.61401 0.0
O465 O 0.01198 0.28739 0.62152 0.0
Cd466 Cd 0.03361 0.30523 0.61308 0.0
C467 C 0.01525 0.32124 0.63435 0.0
O468 O 0.05663 0.29256 0.6247 0.0
O469 O 0.05378 0.31598 0.62972 0.0
O470 O 0.03656 0.29553 0.58699 0.0
C471 C 0.06151 0.30409 0.6314 0.0
O472 O 0.02136 0.30881 0.63752 0.0
C473 C 0.03993 0.30818 0.58136 0.0
O474 O 0.01742 0.32631 0.62124 0.0
O475 O 0.03955 0.31942 0.59015 0.0
C476 C 0.72849 0.77399 0.38334 0.0
O477 O 0.72871 0.78254 0.39477 0.0
Cd478 Cd 0.70815 0.79737 0.40267 0.0
O479 O 0.71736 0.77414 0.37428 0.0
Cd480 Cd 0.69358 0.78877 0.37053 0.0
C481 C 0.68063 0.76954 0.39988 0.0
O482 O 0.70217 0.81207 0.38137 0.0
O483 O 0.67821 0.81024 0.37952 0.0
O484 O 0.70188 0.79152 0.3449 0.0
C485 C 0.68948 0.81823 0.38303 0.0
O486 O 0.68927 0.77799 0.40759 0.0
C487 C 0.68896 0.79024 0.33897 0.0
O488 O 0.67993 0.77067 0.38563 0.0
O489 O 0.67808 0.78729 0.34776 0.0
C490 C 0.22869 0.4681 0.11566 0.0
O491 O 0.21766 0.46918 0.10684 0.0
Cd492 Cd 0.20756 0.44437 0.11542 0.0
O493 O 0.23005 0.45587 0.12267 0.0
Cd494 Cd 0.20801 0.43846 0.11441 0.0
C495 C 0.22655 0.42208 0.13526 0.0
O496 O 0.18536 0.45135 0.12648 0.0
O497 O 0.18789 0.42782 0.13118 0.0
O498 O 0.20471 0.44856 0.08853 0.0
C499 C 0.18036 0.43981 0.13307 0.0
O500 O 0.22058 0.43452 0.13864 0.0
C501 C 0.20099 0.43606 0.08278 0.0
O502 O 0.22413 0.41714 0.12214 0.0
O503 O 0.20139 0.42468 0.09138 0.0
C504 C 0.52274 0.76688 0.87311 0.0
O505 O 0.52219 0.77782 0.88209 0.0
Cd506 Cd 0.54773 0.78647 0.874 0.0
O507 O 0.53494 0.76495 0.86617 0.0
Cd508 Cd 0.55362 0.78554 0.87521 0.0
C509 C 0.56911 0.76649 0.85418 0.0
O510 O 0.54339 0.80992 0.86399 0.0
O511 O 0.56652 0.80483 0.85929 0.0
O512 O 0.54376 0.78897 0.90115 0.0
C513 C 0.55553 0.81381 0.8577 0.0
O514 O 0.55707 0.77315 0.8506 0.0
C515 C 0.55662 0.79056 0.90711 0.0
O516 O 0.57389 0.76849 0.86742 0.0
O517 O 0.56791 0.7892 0.89849 0.0
C518 C 0.22739 0.2708 0.61423 0.0
O519 O 0.22277 0.27248 0.60082 0.0
Cd520 Cd 0.20348 0.28959 0.59321 0.0
O521 O 0.22231 0.27892 0.62487 0.0
Cd522 Cd 0.20469 0.30028 0.62716 0.0
C523 C 0.22348 0.32099 0.60196 0.0
O524 O 0.18496 0.28878 0.6124 0.0
O525 O 0.18167 0.31225 0.61707 0.0
O526 O 0.2 0.29039 0.65191 0.0
C527 C 0.17647 0.30017 0.6116 0.0
O528 O 0.21617 0.31381 0.59197 0.0
C529 C 0.19909 0.30307 0.65839 0.0
O530 O 0.22279 0.31734 0.61576 0.0
O531 O 0.20165 0.31462 0.65039 0.0
C532 C 0.72431 0.97551 0.3663 0.0
O533 O 0.72775 0.96755 0.35497 0.0
Cd534 Cd 0.70909 0.95261 0.34283 0.0
O535 O 0.71168 0.97392 0.37287 0.0
Cd536 Cd 0.6895 0.95702 0.37287 0.0
C537 C 0.67889 0.97789 0.34389 0.0
O538 O 0.70076 0.93505 0.36111 0.0
O539 O 0.67655 0.93559 0.36138 0.0
O540 O 0.69671 0.9533 0.39857 0.0
C541 C 0.68847 0.92852 0.35804 0.0
O542 O 0.6894 0.97105 0.33693 0.0
C543 C 0.68353 0.95354 0.404 0.0
O544 O 0.6762 0.97523 0.35769 0.0
O545 O 0.67279 0.95601 0.39488 0.0
C546 C 0.01417 0.46912 0.12835 0.0
O547 O 0.02508 0.46981 0.13735 0.0
Cd548 Cd 0.03495 0.44504 0.12834 0.0
O549 O 0.01277 0.45711 0.12099 0.0
Cd550 Cd 0.03448 0.4392 0.12926 0.0
C551 C 0.01574 0.4232 0.1083 0.0
O552 O 0.0573 0.45183 0.11736 0.0
O553 O 0.05445 0.42838 0.11246 0.0
O554 O 0.03795 0.449 0.15525 0.0
C555 C 0.06217 0.44026 0.11071 0.0
O556 O 0.02183 0.43561 0.10501 0.0
C557 C 0.04161 0.43642 0.16085 0.0
O558 O 0.01812 0.41813 0.12137 0.0
O559 O 0.04104 0.42512 0.15215 0.0
C560 C 0.86512 0.52705 0.97704 0.0
O561 O 0.85595 0.52654 0.96626 0.0
Cd562 Cd 0.86411 0.55199 0.95739 0.0
O563 O 0.87218 0.53919 0.97881 0.0
Cd564 Cd 0.86304 0.55795 0.9582 0.0
C565 C 0.88472 0.57293 0.97703 0.0
O566 O 0.87364 0.54666 0.93408 0.0
O567 O 0.87901 0.56985 0.93802 0.0
O568 O 0.83712 0.5477 0.956 0.0
C569 C 0.88012 0.55844 0.9295 0.0
O570 O 0.88789 0.56091 0.97014 0.0
C571 C 0.83103 0.56016 0.95278 0.0
O572 O 0.87157 0.5781 0.97527 0.0
O573 O 0.8395 0.57166 0.95307 0.0
C574 C 0.36333 0.71742 0.76357 0.0
O575 O 0.35432 0.71827 0.77448 0.0
Cd576 Cd 0.36299 0.69349 0.7844 0.0
O577 O 0.37048 0.70527 0.76214 0.0
Cd578 Cd 0.36215 0.68737 0.78364 0.0
C579 C 0.38488 0.67254 0.76616 0.0
O580 O 0.37256 0.69997 0.80734 0.0
O581 O 0.37821 0.67671 0.80425 0.0
O582 O 0.3357 0.69611 0.78579 0.0
C583 C 0.37933 0.68848 0.81225 0.0
O584 O 0.38731 0.68499 0.77256 0.0
C585 C 0.33039 0.68314 0.78842 0.0
O586 O 0.37189 0.66694 0.76767 0.0
O587 O 0.33958 0.67223 0.78802 0.0
C588 C 0.2732 0.11705 0.51518 0.0
O589 O 0.27155 0.11426 0.52898 0.0
Cd590 Cd 0.29783 0.11983 0.53432 0.0
O591 O 0.2864 0.11994 0.5107 0.0
Cd592 Cd 0.30479 0.11757 0.53347 0.0
C593 C 0.31903 0.13717 0.51191 0.0
O594 O 0.29412 0.13158 0.55649 0.0
O595 O 0.31724 0.1359 0.55125 0.0
O596 O 0.29532 0.09249 0.53975 0.0
C597 C 0.30617 0.1382 0.55996 0.0
O598 O 0.30635 0.14071 0.51735 0.0
C599 C 0.3082 0.08671 0.54174 0.0
O600 O 0.32474 0.12487 0.51618 0.0
O601 O 0.31951 0.09517 0.53964 0.0
C602 C 0.86386 0.01759 0.26831 0.0
O603 O 0.85091 0.01677 0.27425 0.0
Cd604 Cd 0.84138 0.03477 0.29162 0.0
O605 O 0.873 0.02801 0.27193 0.0
Cd606 Cd 0.87432 0.04994 0.28915 0.0
C607 C 0.84711 0.0657 0.2686 0.0
O608 O 0.86021 0.03945 0.31003 0.0
O609 O 0.86327 0.06342 0.31072 0.0
O610 O 0.89925 0.04068 0.29416 0.0
C611 C 0.8582 0.0517 0.31703 0.0
O612 O 0.83844 0.0564 0.2752 0.0
C613 C 0.90574 0.05337 0.294 0.0
O614 O 0.86123 0.06566 0.27099 0.0
O615 O 0.89761 0.06476 0.29105 0.0
C616 C 0.46986 0.62613 0.51402 0.0
O617 O 0.47004 0.63554 0.5246 0.0
Cd618 Cd 0.44545 0.62579 0.53441 0.0
O619 O 0.45819 0.61822 0.51277 0.0
Cd620 Cd 0.43977 0.62658 0.53398 0.0
C621 C 0.42398 0.60573 0.51497 0.0
O622 O 0.45206 0.61541 0.55722 0.0
O623 O 0.42874 0.61006 0.55404 0.0
O624 O 0.44859 0.65293 0.53736 0.0
C625 C 0.44049 0.60872 0.56204 0.0
O626 O 0.43639 0.60232 0.521 0.0
C627 C 0.43558 0.65817 0.53994 0.0
O628 O 0.4189 0.61872 0.51763 0.0
O629 O 0.42467 0.64903 0.53909 0.0
C630 C 0.87734 0.21749 0.978 0.0
O631 O 0.88687 0.21786 0.96753 0.0
Cd632 Cd 0.87797 0.1931 0.95764 0.0
O633 O 0.86968 0.20563 0.9792 0.0
Cd634 Cd 0.87884 0.1873 0.95833 0.0
C635 C 0.85641 0.17198 0.97586 0.0
O636 O 0.8689 0.19928 0.93427 0.0
O637 O 0.86322 0.17607 0.93765 0.0
O638 O 0.90525 0.19627 0.9563 0.0
C639 C 0.86231 0.18768 0.92938 0.0
O640 O 0.85361 0.18437 0.96948 0.0
C641 C 0.91075 0.1833 0.9541 0.0
O642 O 0.86956 0.16678 0.97433 0.0
O643 O 0.90167 0.17231 0.95464 0.0
C644 C 0.2666 0.11043 0.72208 0.0
O645 O 0.26821 0.09799 0.71529 0.0
Cd646 Cd 0.28876 0.09117 0.69981 0.0
O647 O 0.27623 0.12095 0.72052 0.0
Cd648 Cd 0.29962 0.1245 0.70536 0.0
C649 C 0.31688 0.09834 0.72542 0.0
O650 O 0.29121 0.11157 0.68309 0.0
O651 O 0.31514 0.11335 0.68473 0.0
O652 O 0.29082 0.14967 0.7002 0.0
C653 C 0.30383 0.10943 0.67698 0.0
O654 O 0.3103 0.08903 0.71676 0.0
C655 C 0.30366 0.15586 0.70088 0.0
O656 O 0.31402 0.11233 0.72495 0.0
O657 O 0.31468 0.14754 0.70456 0.0
C658 C 0.97425 0.63218 0.22258 0.0
O659 O 0.97171 0.64448 0.21578 0.0
Cd660 Cd 0.95136 0.64931 0.1993 0.0
O661 O 0.96554 0.62091 0.22086 0.0
Cd662 Cd 0.94251 0.61579 0.20556 0.0
C663 C 0.92279 0.64186 0.22397 0.0
O664 O 0.95189 0.62805 0.1833 0.0
O665 O 0.92816 0.62432 0.18278 0.0
O666 O 0.9521 0.59049 0.20259 0.0
C667 C 0.93986 0.62854 0.17582 0.0
O668 O 0.92891 0.6513 0.21511 0.0
C669 C 0.93934 0.58409 0.20295 0.0
O670 O 0.92672 0.62813 0.22401 0.0
O671 O 0.92803 0.59241 0.20552 0.0
C672 C 0.02445 0.61032 0.97807 0.0
O673 O 0.03306 0.59894 0.97836 0.0
Cd674 Cd 0.04796 0.59104 0.95782 0.0
O675 O 0.02457 0.61933 0.96691 0.0
Cd676 Cd 0.03929 0.62327 0.94329 0.0
C677 C 0.02025 0.59396 0.93009 0.0
O678 O 0.06255 0.61237 0.95188 0.0
O679 O 0.06092 0.6146 0.92794 0.0
O680 O 0.04185 0.64843 0.95269 0.0
C681 C 0.0688 0.61086 0.93921 0.0
O682 O 0.02868 0.5863 0.9388 0.0
C683 C 0.04093 0.65494 0.94004 0.0
O684 O 0.02131 0.60822 0.92939 0.0
O685 O 0.03819 0.64668 0.9287 0.0
C686 C 0.88115 0.77045 0.22753 0.0
O687 O 0.89275 0.77876 0.22754 0.0
Cd688 Cd 0.90006 0.79488 0.20792 0.0
O689 O 0.8715 0.77128 0.2169 0.0
Cd690 Cd 0.86713 0.78716 0.19387 0.0
C691 C 0.89593 0.76864 0.17883 0.0
O692 O 0.8783 0.80939 0.20418 0.0
O693 O 0.87607 0.81003 0.18025 0.0
O694 O 0.84184 0.78983 0.20322 0.0
C695 C 0.87979 0.81683 0.19221 0.0
O696 O 0.90377 0.77668 0.18774 0.0
C697 C 0.83553 0.79034 0.19044 0.0
O698 O 0.88165 0.7697 0.17853 0.0
O699 O 0.84385 0.78797 0.17906 0.0
C700 C 0.72745 0.6155 0.46821 0.0
O701 O 0.71695 0.60603 0.46874 0.0
Cd702 Cd 0.70793 0.6137 0.4432 0.0
O703 O 0.72904 0.62256 0.45604 0.0
Cd704 Cd 0.70875 0.61256 0.43738 0.0
C705 C 0.72708 0.63423 0.42177 0.0
O706 O 0.68437 0.62289 0.44831 0.0
O707 O 0.68834 0.62784 0.42504 0.0
O708 O 0.7069 0.58678 0.44807 0.0
C709 C 0.67974 0.62905 0.43638 0.0
O710 O 0.72027 0.63755 0.4338 0.0
C711 C 0.70416 0.58038 0.43565 0.0
O712 O 0.72552 0.62094 0.41694 0.0
O713 O 0.70445 0.58865 0.42401 0.0
C714 C 0.85962 0.4732 0.72728 0.0
O715 O 0.84739 0.46587 0.7267 0.0
Cd716 Cd 0.83996 0.45033 0.7065 0.0
O717 O 0.8696 0.47161 0.71709 0.0
Cd718 Cd 0.87331 0.45539 0.69432 0.0
C719 C 0.84672 0.47546 0.67733 0.0
O720 O 0.86011 0.43328 0.70322 0.0
O721 O 0.8634 0.43403 0.67936 0.0
O722 O 0.89814 0.45058 0.70409 0.0
C723 C 0.85881 0.42672 0.69068 0.0
O724 O 0.83771 0.46806 0.68566 0.0
C725 C 0.90483 0.45091 0.69149 0.0
O726 O 0.86088 0.47362 0.67832 0.0
O727 O 0.89693 0.4543 0.68008 0.0
C728 C 0.02228 0.63399 0.26596 0.0
O729 O 0.03063 0.64556 0.26574 0.0
Cd730 Cd 0.04568 0.65348 0.28613 0.0
O731 O 0.02279 0.6248 0.27698 0.0
Cd732 Cd 0.03783 0.62122 0.30055 0.0
C733 C 0.01818 0.65018 0.31386 0.0
O734 O 0.06097 0.63247 0.29185 0.0
O735 O 0.05923 0.63054 0.31581 0.0
O736 O 0.04104 0.59557 0.29235 0.0
C737 C 0.06715 0.63415 0.30453 0.0
O738 O 0.02644 0.65809 0.30521 0.0
C739 C 0.03974 0.58968 0.30528 0.0
O740 O 0.01957 0.63595 0.31444 0.0
O741 O 0.03663 0.59848 0.3161 0.0
C742 C 0.86153 0.76826 0.5164 0.0
O743 O 0.84894 0.77469 0.51844 0.0
Cd744 Cd 0.84292 0.792 0.53779 0.0
O745 O 0.87255 0.77069 0.52525 0.0
Cd746 Cd 0.87652 0.78699 0.54775 0.0
C747 C 0.85034 0.76935 0.568 0.0
O748 O 0.8638 0.80841 0.53705 0.0
O749 O 0.86741 0.81039 0.5607 0.0
O750 O 0.90205 0.79018 0.53885 0.0
C751 C 0.86289 0.8165 0.54864 0.0
O752 O 0.84087 0.77764 0.56116 0.0
C753 C 0.90807 0.78987 0.55179 0.0
O754 O 0.86413 0.76922 0.56427 0.0
O755 O 0.89941 0.78744 0.56287 0.0
C756 C 0.7256 0.62382 0.77534 0.0
O757 O 0.71438 0.6324 0.77412 0.0
Cd758 Cd 0.70551 0.6254 0.79987 0.0
O759 O 0.72752 0.61764 0.78793 0.0
Cd760 Cd 0.70636 0.62682 0.80606 0.0
C761 C 0.72543 0.60572 0.82146 0.0
O762 O 0.6821 0.61583 0.79534 0.0
O763 O 0.68635 0.61121 0.81864 0.0
O764 O 0.7038 0.65246 0.79535 0.0
C765 C 0.67766 0.60978 0.8074 0.0
O766 O 0.71853 0.60207 0.80958 0.0
C767 C 0.70118 0.6588 0.80785 0.0
O768 O 0.72345 0.61895 0.82628 0.0
O769 O 0.70181 0.65055 0.81948 0.0
C770 C 0.87853 0.47689 0.01537 0.0
O771 O 0.89114 0.47033 0.0141 0.0
Cd772 Cd 0.90053 0.45278 0.03189 0.0
O773 O 0.86957 0.47381 0.02613 0.0
Cd774 Cd 0.86759 0.45685 0.04825 0.0
C775 C 0.89596 0.4767 0.06275 0.0
O776 O 0.88044 0.43604 0.03667 0.0
O777 O 0.87742 0.43388 0.06052 0.0
O778 O 0.84248 0.45329 0.039 0.0
C779 C 0.88216 0.42814 0.04836 0.0
O780 O 0.90385 0.46986 0.05295 0.0
C781 C 0.83616 0.45277 0.05177 0.0
O782 O 0.88184 0.4745 0.06379 0.0
O783 O 0.84445 0.4551 0.06319 0.0
C784 C 0.47468 0.51445 0.61453 0.0
O785 O 0.47354 0.51891 0.60102 0.0
Cd786 Cd 0.45608 0.53754 0.5924 0.0
O787 O 0.4661 0.51964 0.62474 0.0
Cd788 Cd 0.44477 0.53737 0.62627 0.0
C789 C 0.42483 0.51722 0.60169 0.0
O790 O 0.45528 0.55709 0.61054 0.0
O791 O 0.43155 0.55882 0.6149 0.0
O792 O 0.45504 0.54376 0.65045 0.0
C793 C 0.44326 0.56462 0.60922 0.0
O794 O 0.43227 0.52411 0.59159 0.0
C795 C 0.44252 0.54457 0.65724 0.0
O796 O 0.42805 0.51852 0.61556 0.0
O797 O 0.43084 0.54123 0.64972 0.0
C798 C 0.97862 0.2172 0.87638 0.0
O799 O 0.96829 0.21772 0.88606 0.0
Cd800 Cd 0.95826 0.19283 0.87753 0.0
O801 O 0.97975 0.20522 0.86893 0.0
Cd802 Cd 0.95887 0.18707 0.87835 0.0
C803 C 0.97681 0.17133 0.85656 0.0
O804 O 0.93509 0.19935 0.86815 0.0
O805 O 0.93814 0.17607 0.86258 0.0
O806 O 0.95684 0.19618 0.90475 0.0
C807 C 0.93008 0.18781 0.86155 0.0
O808 O 0.97034 0.18359 0.85344 0.0
C809 C 0.95441 0.18324 0.91024 0.0
O810 O 0.97504 0.16632 0.86974 0.0
O811 O 0.95478 0.17224 0.90116 0.0
C812 C 0.26451 0.71968 0.10916 0.0
O813 O 0.26539 0.71183 0.09727 0.0
Cd814 Cd 0.2862 0.69665 0.09076 0.0
O815 O 0.27464 0.71882 0.11928 0.0
Cd816 Cd 0.29767 0.70351 0.12434 0.0
C817 C 0.31454 0.72287 0.09716 0.0
O818 O 0.28956 0.68081 0.11186 0.0
O819 O 0.31327 0.68186 0.116 0.0
O820 O 0.28706 0.70001 0.149 0.0
C821 C 0.30219 0.67434 0.11115 0.0
O822 O 0.30653 0.71499 0.08826 0.0
C823 C 0.29934 0.70124 0.15615 0.0
O824 O 0.31341 0.72146 0.11135 0.0
O825 O 0.311 0.70433 0.14848 0.0
C826 C 0.76517 0.02314 0.38121 0.0
O827 O 0.77871 0.02094 0.38478 0.0
Cd828 Cd 0.78532 0.04708 0.37995 0.0
O829 O 0.76131 0.03655 0.37846 0.0
Cd830 Cd 0.78461 0.05414 0.3821 0.0
C831 C 0.76443 0.06885 0.36128 0.0
O832 O 0.80749 0.04212 0.36883 0.0
O833 O 0.80395 0.06555 0.36455 0.0
O834 O 0.78939 0.04451 0.40756 0.0
C835 C 0.81194 0.05391 0.36236 0.0
O836 O 0.76984 0.05606 0.35816 0.0
C837 C 0.79184 0.05729 0.41338 0.0
O838 O 0.76813 0.07459 0.37375 0.0
O839 O 0.79057 0.06863 0.4048 0.0
C840 C 0.46758 0.73417 0.61074 0.0
O841 O 0.4702 0.72096 0.60631 0.0
Cd842 Cd 0.44578 0.71195 0.61547 0.0
O843 O 0.45465 0.73668 0.61609 0.0
Cd844 Cd 0.43884 0.71213 0.61375 0.0
C845 C 0.42411 0.73185 0.63504 0.0
O846 O 0.4529 0.69072 0.62744 0.0
O847 O 0.4291 0.69219 0.6312 0.0
O848 O 0.44778 0.70667 0.58815 0.0
C849 C 0.44136 0.6853 0.63369 0.0
O850 O 0.43738 0.7273 0.6375 0.0
C851 C 0.43488 0.70361 0.58293 0.0
O852 O 0.41791 0.72754 0.62298 0.0
O853 O 0.42379 0.70503 0.59182 0.0
C854 C 0.77028 0.22723 0.88418 0.0
O855 O 0.77763 0.22638 0.89638 0.0
Cd856 Cd 0.79364 0.20635 0.90331 0.0
O857 O 0.7719 0.2173 0.87395 0.0
Cd858 Cd 0.78809 0.19461 0.86981 0.0
C859 C 0.76892 0.17689 0.89679 0.0
O860 O 0.81027 0.20376 0.88268 0.0
O861 O 0.81004 0.17997 0.87887 0.0
O862 O 0.79229 0.20442 0.84487 0.0
C863 C 0.81717 0.19137 0.88355 0.0
O864 O 0.7764 0.18512 0.90581 0.0
C865 C 0.79188 0.19182 0.8382 0.0
O866 O 0.77038 0.17827 0.88262 0.0
O867 O 0.78867 0.18041 0.84616 0.0
C868 C 0.26853 0.5172 0.12879 0.0
O869 O 0.26788 0.52339 0.14163 0.0
Cd870 Cd 0.28568 0.54135 0.1504 0.0
O871 O 0.27887 0.52056 0.11947 0.0
Cd872 Cd 0.30106 0.53741 0.11814 0.0
C873 C 0.31655 0.51826 0.14666 0.0
O874 O 0.28963 0.55885 0.13041 0.0
O875 O 0.31361 0.56029 0.12776 0.0
O876 O 0.29376 0.54064 0.09226 0.0
C877 C 0.3015 0.56658 0.13187 0.0
O878 O 0.30734 0.52526 0.15509 0.0
C879 C 0.30699 0.54011 0.08694 0.0
O880 O 0.31641 0.52006 0.13247 0.0
O881 O 0.3176 0.53766 0.09619 0.0
C882 C 0.97019 0.01702 0.38276 0.0
O883 O 0.96202 0.01759 0.39445 0.0
Cd884 Cd 0.94555 0.03747 0.40064 0.0
O885 O 0.96922 0.02715 0.37264 0.0
Cd886 Cd 0.95345 0.04997 0.36776 0.0
C887 C 0.97112 0.06661 0.39643 0.0
O888 O 0.93064 0.04052 0.37877 0.0
O889 O 0.93089 0.06442 0.37575 0.0
O890 O 0.95087 0.04044 0.34254 0.0
C891 C 0.92354 0.0528 0.37946 0.0
O892 O 0.96296 0.05832 0.40479 0.0
C893 C 0.95107 0.05317 0.3361 0.0
O894 O 0.97044 0.06564 0.38216 0.0
O895 O 0.95374 0.06452 0.34435 0.0
C896 C 0.11427 0.97618 0.522 0.0
O897 O 0.10273 0.97636 0.5304 0.0
Cd898 Cd 0.09465 0.95667 0.54607 0.0
O899 O 0.12354 0.96519 0.52244 0.0
Cd900 Cd 0.12697 0.94163 0.53795 0.0
C901 C 0.09746 0.92791 0.51939 0.0
O902 O 0.11624 0.95188 0.56055 0.0
O903 O 0.11776 0.9279 0.56069 0.0
O904 O 0.15293 0.9493 0.54028 0.0
C905 C 0.11438 0.93981 0.56774 0.0
O906 O 0.08991 0.93693 0.52759 0.0
C907 C 0.15843 0.93613 0.54011 0.0
O908 O 0.11173 0.9272 0.52039 0.0
O909 O 0.14931 0.92538 0.53779 0.0
C910 C 0.61129 0.76591 0.72038 0.0
O911 O 0.59888 0.76681 0.71338 0.0
Cd912 Cd 0.59064 0.7875 0.69901 0.0
O913 O 0.62112 0.77631 0.71932 0.0
Cd914 Cd 0.62402 0.80007 0.70441 0.0
C915 C 0.59697 0.8159 0.72498 0.0
O916 O 0.61093 0.79141 0.68226 0.0
O917 O 0.61397 0.81526 0.68311 0.0
O918 O 0.64963 0.79218 0.6998 0.0
C919 C 0.60934 0.80395 0.67581 0.0
O920 O 0.5879 0.80778 0.71741 0.0
C921 C 0.6554 0.80515 0.70122 0.0
O922 O 0.6111 0.81498 0.72301 0.0
O923 O 0.64659 0.81579 0.70485 0.0
C924 C 0.71787 0.37433 0.97669 0.0
O925 O 0.71935 0.38279 0.96543 0.0
Cd926 Cd 0.69392 0.37574 0.95591 0.0
O927 O 0.70529 0.36801 0.9783 0.0
Cd928 Cd 0.6877 0.37729 0.95673 0.0
C929 C 0.67203 0.35541 0.97479 0.0
O930 O 0.69895 0.36667 0.93245 0.0
O931 O 0.6754 0.36259 0.93586 0.0
O932 O 0.69881 0.40279 0.95492 0.0
C933 C 0.68686 0.36109 0.92747 0.0
O934 O 0.68418 0.35212 0.96817 0.0
C935 C 0.68645 0.40945 0.95248 0.0
O936 O 0.66709 0.36864 0.97304 0.0
O937 O 0.67465 0.4014 0.95283 0.0
C938 C 0.12953 0.47713 0.22809 0.0
O939 O 0.14274 0.47745 0.2227 0.0
Cd940 Cd 0.15246 0.45952 0.20529 0.0
O941 O 0.12019 0.467 0.22418 0.0
Cd942 Cd 0.11935 0.44487 0.20722 0.0
C943 C 0.14637 0.42827 0.22758 0.0
O944 O 0.13375 0.45557 0.18653 0.0
O945 O 0.13 0.43168 0.18552 0.0
O946 O 0.09409 0.45304 0.20179 0.0
C947 C 0.13528 0.44337 0.17933 0.0
O948 O 0.15532 0.43744 0.22119 0.0
C949 C 0.08821 0.44004 0.20222 0.0
O950 O 0.13227 0.42881 0.22517 0.0
O951 O 0.09682 0.42915 0.2056 0.0
C952 C 0.52463 0.86639 0.97889 0.0
O953 O 0.52342 0.85797 0.96756 0.0
Cd954 Cd 0.54873 0.86581 0.95831 0.0
O955 O 0.5371 0.87284 0.98074 0.0
Cd956 Cd 0.55485 0.86455 0.95902 0.0
C957 C 0.57049 0.8858 0.97773 0.0
O958 O 0.54323 0.87614 0.93542 0.0
O959 O 0.56664 0.88072 0.93916 0.0
O960 O 0.54482 0.83873 0.9555 0.0
C961 C 0.55513 0.88244 0.93088 0.0
O962 O 0.55821 0.88917 0.97141 0.0
C963 C 0.55756 0.83285 0.9529 0.0
O964 O 0.57553 0.87268 0.97549 0.0
O965 O 0.56893 0.8414 0.95403 0.0
C966 C 0.12892 0.26804 0.51602 0.0
O967 O 0.14185 0.26781 0.52205 0.0
Cd968 Cd 0.15055 0.28561 0.53995 0.0
O969 O 0.11927 0.27805 0.5195 0.0
Cd970 Cd 0.11724 0.30011 0.53645 0.0
C971 C 0.14517 0.31669 0.51721 0.0
O972 O 0.13032 0.28856 0.55718 0.0
O973 O 0.12652 0.31225 0.55974 0.0
O974 O 0.09162 0.29194 0.53992 0.0
C975 C 0.13147 0.30013 0.56535 0.0
O976 O 0.15392 0.30755 0.52393 0.0
C977 C 0.08591 0.30502 0.53978 0.0
O978 O 0.13101 0.31622 0.51924 0.0
O979 O 0.09479 0.31593 0.53733 0.0
C980 C 0.72727 0.37911 0.76893 0.0
O981 O 0.72876 0.39123 0.77632 0.0
Cd982 Cd 0.7103 0.39981 0.79366 0.0
O983 O 0.71613 0.37038 0.7712 0.0
Cd984 Cd 0.69354 0.36792 0.78741 0.0
C985 C 0.68053 0.39746 0.76826 0.0
O986 O 0.7044 0.37914 0.80953 0.0
O987 O 0.68032 0.37713 0.8101 0.0
O988 O 0.70258 0.34262 0.7899 0.0
C989 C 0.69232 0.3808 0.81687 0.0
O990 O 0.6901 0.40488 0.77592 0.0
C991 C 0.68978 0.33633 0.78991 0.0
O992 O 0.6792 0.38328 0.76978 0.0
O993 O 0.67843 0.34477 0.78775 0.0
C994 C 0.02477 0.87518 0.26618 0.0
O995 O 0.0241 0.88457 0.27675 0.0
Cd996 Cd 0.04939 0.87678 0.28627 0.0
O997 O 0.03692 0.86804 0.26477 0.0
Cd998 Cd 0.0552 0.87787 0.28549 0.0
C999 C 0.07111 0.8562 0.26746 0.0
O1000 O 0.04371 0.86726 0.30953 0.0
O1001 O 0.06706 0.86233 0.30601 0.0
O1002 O 0.04458 0.9037 0.28731 0.0
C1003 C 0.05552 0.86096 0.31431 0.0
O1004 O 0.059 0.85296 0.27416 0.0
C1005 C 0.05703 0.91005 0.29005 0.0
O1006 O 0.07591 0.86951 0.26894 0.0
O1007 O 0.06863 0.90172 0.28991 0.0
C1008 C 0.97782 0.3784 0.0173 0.0
O1009 O 0.97202 0.39143 0.01672 0.0
Cd1010 Cd 0.95374 0.40069 0.0339 0.0
O1011 O 0.97391 0.36897 0.02735 0.0
Cd1012 Cd 0.95636 0.36748 0.04903 0.0
C1013 C 0.97538 0.3954 0.06586 0.0
O1014 O 0.93604 0.38095 0.03705 0.0
O1015 O 0.93317 0.37735 0.06074 0.0
O1016 O 0.95248 0.34216 0.04028 0.0
C1017 C 0.92781 0.38242 0.04855 0.0
O1018 O 0.96898 0.40397 0.05633 0.0
C1019 C 0.95186 0.33615 0.0532 0.0
O1020 O 0.97338 0.38122 0.06557 0.0
O1021 O 0.95417 0.34469 0.06442 0.0
C1022 C 0.12857 0.22709 0.77476 0.0
O1023 O 0.1374 0.21609 0.77336 0.0
Cd1024 Cd 0.12987 0.20622 0.79858 0.0
O1025 O 0.12221 0.22861 0.78731 0.0
Cd1026 Cd 0.13094 0.20691 0.80483 0.0
C1027 C 0.10895 0.2249 0.82024 0.0
O1028 O 0.11993 0.18339 0.79239 0.0
O1029 O 0.11481 0.18645 0.81577 0.0
O1030 O 0.15711 0.20455 0.79525 0.0
C1031 C 0.11336 0.1785 0.804 0.0
O1032 O 0.10597 0.21838 0.80797 0.0
C1033 C 0.1628 0.2016 0.808 0.0
O1034 O 0.12207 0.22316 0.82545 0.0
O1035 O 0.15396 0.20196 0.8192 0.0
C1036 C 0.26483 0.36448 0.51974 0.0
O1037 O 0.26951 0.35108 0.52129 0.0
Cd1038 Cd 0.2886 0.3438 0.53888 0.0
O1039 O 0.26975 0.375 0.52809 0.0
Cd1040 Cd 0.2871 0.37767 0.54952 0.0
C1041 C 0.2683 0.35247 0.57018 0.0
O1042 O 0.30713 0.36311 0.53829 0.0
O1043 O 0.31025 0.3681 0.56173 0.0
O1044 O 0.29131 0.40221 0.53894 0.0
C1045 C 0.31561 0.36265 0.5497 0.0
O1046 O 0.27559 0.3425 0.56295 0.0
C1047 C 0.29183 0.40913 0.55141 0.0
O1048 O 0.26904 0.36629 0.56661 0.0
O1049 O 0.28942 0.4014 0.56318 0.0
C1050 C 0.11425 0.51708 0.27652 0.0
O1051 O 0.10598 0.52851 0.27511 0.0
Cd1052 Cd 0.11326 0.5375 0.30071 0.0
O1053 O 0.12026 0.51507 0.28919 0.0
Cd1054 Cd 0.11195 0.53662 0.3072 0.0
C1055 C 0.13411 0.51813 0.32192 0.0
O1056 O 0.12325 0.56058 0.29585 0.0
O1057 O 0.12802 0.5565 0.31916 0.0
O1058 O 0.08615 0.53958 0.29697 0.0
C1059 C 0.12959 0.56498 0.30778 0.0
O1060 O 0.13698 0.5249 0.30975 0.0
C1061 C 0.08013 0.54269 0.30952 0.0
O1062 O 0.12102 0.51978 0.3273 0.0
O1063 O 0.08856 0.54192 0.32102 0.0
C1064 C 0.97555 0.36456 0.7254 0.0
O1065 O 0.96981 0.35151 0.72596 0.0
Cd1066 Cd 0.95219 0.34223 0.7081 0.0
O1067 O 0.9717 0.3739 0.71526 0.0
Cd1068 Cd 0.95428 0.37543 0.69354 0.0
C1069 C 0.97459 0.34854 0.6768 0.0
O1070 O 0.93365 0.36112 0.70429 0.0
O1071 O 0.93244 0.3647 0.68042 0.0
O1072 O 0.94904 0.40008 0.70333 0.0
C1073 C 0.92635 0.35946 0.69218 0.0
O1074 O 0.96815 0.33973 0.68608 0.0
C1075 C 0.9487 0.40676 0.69074 0.0
O1076 O 0.97221 0.36266 0.67715 0.0
O1077 O 0.9517 0.39891 0.67917 0.0
C1078 C 0.11675 0.22818 0.46676 0.0
O1079 O 0.10802 0.21705 0.46749 0.0
Cd1080 Cd 0.11674 0.2079 0.44242 0.0
O1081 O 0.12378 0.23001 0.45461 0.0
Cd1082 Cd 0.11573 0.20879 0.43623 0.0
C1083 C 0.13812 0.22707 0.42185 0.0
O1084 O 0.12635 0.18472 0.44789 0.0
O1085 O 0.13175 0.1887 0.4247 0.0
O1086 O 0.08947 0.20627 0.44519 0.0
C1087 C 0.13293 0.18022 0.43612 0.0
O1088 O 0.14081 0.22049 0.43415 0.0
C1089 C 0.08402 0.20376 0.43226 0.0
O1090 O 0.12515 0.2253 0.41625 0.0
O1091 O 0.09305 0.20446 0.42122 0.0
C1092 C 0.2667 0.37821 0.22547 0.0
O1093 O 0.27262 0.39118 0.22596 0.0
Cd1094 Cd 0.29036 0.40025 0.20815 0.0
O1095 O 0.27037 0.36876 0.21534 0.0
Cd1096 Cd 0.28761 0.36685 0.19342 0.0
C1097 C 0.26772 0.39427 0.17691 0.0
O1098 O 0.30827 0.3808 0.20443 0.0
O1099 O 0.30992 0.37724 0.1806 0.0
O1100 O 0.29203 0.34182 0.20281 0.0
C1101 C 0.31581 0.38246 0.19248 0.0
O1102 O 0.27433 0.40295 0.18619 0.0
C1103 C 0.29232 0.33537 0.19009 0.0
O1104 O 0.26989 0.38011 0.17718 0.0
O1105 O 0.28975 0.34355 0.17865 0.0
C1106 C 0.12749 0.51673 0.96711 0.0
O1107 O 0.13665 0.5275 0.96803 0.0
Cd1108 Cd 0.12913 0.53677 0.94258 0.0
O1109 O 0.12078 0.5151 0.95475 0.0
Cd1110 Cd 0.13024 0.53588 0.93643 0.0
C1111 C 0.10781 0.51809 0.92141 0.0
O1112 O 0.12013 0.56021 0.94792 0.0
O1113 O 0.11483 0.55645 0.92468 0.0
O1114 O 0.15623 0.53725 0.94653 0.0
C1115 C 0.11379 0.56493 0.93612 0.0
O1116 O 0.10495 0.52493 0.93354 0.0
C1117 C 0.16229 0.54046 0.93405 0.0
O1118 O 0.121 0.5194 0.9162 0.0
O1119 O 0.15375 0.54051 0.9226 0.0
C1120 C 0.51802 0.47562 0.38112 0.0
O1121 O 0.51919 0.47052 0.39441 0.0
Cd1122 Cd 0.53741 0.45228 0.40225 0.0
O1123 O 0.527 0.4714 0.37081 0.0
Cd1124 Cd 0.54923 0.45494 0.36868 0.0
C1125 C 0.56756 0.47474 0.39487 0.0
O1126 O 0.5392 0.4339 0.3829 0.0
O1127 O 0.56303 0.43319 0.37887 0.0
O1128 O 0.54052 0.45006 0.34345 0.0
C1129 C 0.55143 0.42667 0.38396 0.0
O1130 O 0.56051 0.46687 0.40452 0.0
C1131 C 0.55341 0.45069 0.33735 0.0
O1132 O 0.56456 0.47391 0.38092 0.0
O1133 O 0.56445 0.45391 0.34583 0.0
C1134 C 0.01343 0.77117 0.11576 0.0
O1135 O 0.02385 0.77104 0.10616 0.0
Cd1136 Cd 0.03384 0.79557 0.11586 0.0
O1137 O 0.01229 0.78282 0.12372 0.0
Cd1138 Cd 0.03335 0.80123 0.11513 0.0
C1139 C 0.01476 0.81699 0.13637 0.0
O1140 O 0.05674 0.78897 0.12613 0.0
O1141 O 0.05343 0.81222 0.13165 0.0
O1142 O 0.0367 0.79277 0.08861 0.0
C1143 C 0.06147 0.80049 0.13296 0.0
O1144 O 0.02081 0.80454 0.1396 0.0
C1145 C 0.03874 0.80592 0.08348 0.0
O1146 O 0.01714 0.82209 0.12333 0.0
O1147 O 0.0377 0.81667 0.0928 0.0
C1148 C 0.72356 0.27209 0.88194 0.0
O1149 O 0.72102 0.27897 0.89418 0.0
Cd1150 Cd 0.70065 0.29542 0.89896 0.0
O1151 O 0.71496 0.27391 0.8706 0.0
Cd1152 Cd 0.69218 0.2895 0.86523 0.0
C1153 C 0.67255 0.2704 0.89065 0.0
O1154 O 0.70083 0.31178 0.87803 0.0
O1155 O 0.67704 0.31129 0.87469 0.0
O1156 O 0.70227 0.29322 0.84027 0.0
C1157 C 0.68845 0.31863 0.87905 0.0
O1158 O 0.67844 0.27922 0.90027 0.0
C1159 C 0.68969 0.29279 0.83354 0.0
O1160 O 0.67659 0.27058 0.87695 0.0
O1161 O 0.6782 0.28993 0.84152 0.0
C1162 C 0.22354 0.97331 0.6241 0.0
O1163 O 0.21487 0.97641 0.635 0.0
Cd1164 Cd 0.19904 0.95766 0.64552 0.0
O1165 O 0.22229 0.96095 0.61693 0.0
Cd1166 Cd 0.20504 0.93891 0.61506 0.0
C1167 C 0.22428 0.92733 0.6448 0.0
O1168 O 0.18286 0.95037 0.62573 0.0
O1169 O 0.18257 0.92622 0.62543 0.0
O1170 O 0.2026 0.94718 0.58949 0.0
C1171 C 0.17571 0.93837 0.62839 0.0
O1172 O 0.21708 0.93773 0.65158 0.0
C1173 C 0.20204 0.9342 0.5836 0.0
O1174 O 0.22235 0.92491 0.63082 0.0
O1175 O 0.20388 0.92305 0.59237 0.0
C1176 C 0.51304 0.27107 0.36159 0.0
O1177 O 0.51307 0.27901 0.34974 0.0
Cd1178 Cd 0.53375 0.29323 0.34113 0.0
O1179 O 0.52419 0.27134 0.37065 0.0
Cd1180 Cd 0.54826 0.28584 0.37339 0.0
C1181 C 0.5616 0.26588 0.34463 0.0
O1182 O 0.53945 0.30879 0.36191 0.0
O1183 O 0.56342 0.30721 0.3637 0.0
O1184 O 0.54052 0.28942 0.39912 0.0
C1185 C 0.55207 0.31503 0.36007 0.0
O1186 O 0.55289 0.27396 0.33662 0.0
C1187 C 0.55357 0.28834 0.40479 0.0
O1188 O 0.56214 0.26743 0.35884 0.0
O1189 O 0.56424 0.28511 0.39586 0.0
C1190 C 0.2194 0.76599 0.10877 0.0
O1191 O 0.21204 0.76715 0.0966 0.0
Cd1192 Cd 0.19718 0.78799 0.08983 0.0
O1193 O 0.21827 0.77598 0.11902 0.0
Cd1194 Cd 0.20289 0.7992 0.12365 0.0
C1195 C 0.2232 0.81631 0.09731 0.0
O1196 O 0.18078 0.79059 0.11057 0.0
O1197 O 0.18123 0.81436 0.11436 0.0
O1198 O 0.19868 0.78867 0.14826 0.0
C1199 C 0.17402 0.80303 0.1096 0.0
O1200 O 0.2156 0.80832 0.08816 0.0
C1201 C 0.19887 0.80108 0.15529 0.0
O1202 O 0.22133 0.81513 0.11145 0.0
O1203 O 0.20193 0.81276 0.14767 0.0
C1204 C 0.72769 0.47138 0.86082 0.0
O1205 O 0.72571 0.46423 0.84862 0.0
Cd1206 Cd 0.7059 0.44719 0.8433 0.0
O1207 O 0.71868 0.4697 0.87186 0.0
Cd1208 Cd 0.69586 0.45415 0.87668 0.0
C1209 C 0.67698 0.47181 0.84947 0.0
O1210 O 0.70537 0.43173 0.8649 0.0
O1211 O 0.68157 0.43145 0.86816 0.0
O1212 O 0.70453 0.45118 0.90228 0.0
C1213 C 0.69327 0.42439 0.86408 0.0
O1214 O 0.68343 0.46283 0.84038 0.0
C1215 C 0.69159 0.45217 0.90823 0.0
O1216 O 0.68045 0.47213 0.86333 0.0
O1217 O 0.68067 0.45509 0.89949 0.0
C1218 C 0.01913 0.97321 0.61509 0.0
O1219 O 0.02555 0.97372 0.60236 0.0
Cd1220 Cd 0.04339 0.95566 0.59395 0.0
O1221 O 0.02232 0.96295 0.62458 0.0
Cd1222 Cd 0.03928 0.94084 0.62694 0.0
C1223 C 0.02028 0.92462 0.5987 0.0
O1224 O 0.06055 0.95192 0.61413 0.0
O1225 O 0.06214 0.92807 0.61752 0.0
O1226 O 0.04251 0.95005 0.65218 0.0
C1227 C 0.06827 0.94004 0.61284 0.0
O1228 O 0.02722 0.9339 0.59028 0.0
C1229 C 0.04276 0.93728 0.65852 0.0
O1230 O 0.02202 0.92481 0.61292 0.0
O1231 O 0.04059 0.92589 0.65016 0.0
C1232 C 0.8822 0.01505 0.46865 0.0
O1233 O 0.89323 0.0152 0.45959 0.0
Cd1234 Cd 0.89987 0.03557 0.444 0.0
O1235 O 0.87288 0.02597 0.4691 0.0
Cd1236 Cd 0.86818 0.0499 0.45499 0.0
C1237 C 0.89893 0.06346 0.47153 0.0
O1238 O 0.87712 0.0407 0.43134 0.0
O1239 O 0.87526 0.06466 0.43223 0.0
O1240 O 0.84242 0.04174 0.45444 0.0
C1241 C 0.87818 0.05307 0.42448 0.0
O1242 O 0.90612 0.05491 0.46254 0.0
C1243 C 0.83671 0.05478 0.45551 0.0
O1244 O 0.88462 0.06376 0.47161 0.0
O1245 O 0.84575 0.06563 0.45761 0.0
C1246 C 0.3797 0.22296 0.27273 0.0
O1247 O 0.39184 0.22122 0.28003 0.0
Cd1248 Cd 0.39742 0.20068 0.29607 0.0
O1249 O 0.36903 0.21344 0.27387 0.0
Cd1250 Cd 0.36439 0.19007 0.28874 0.0
C1251 C 0.39178 0.17227 0.27045 0.0
O1252 O 0.37589 0.1991 0.31157 0.0
O1253 O 0.37315 0.17523 0.31109 0.0
O1254 O 0.33928 0.19999 0.29123 0.0
C1255 C 0.37687 0.18679 0.31854 0.0
O1256 O 0.40062 0.17893 0.27954 0.0
C1257 C 0.3326 0.18739 0.29089 0.0
O1258 O 0.37778 0.17521 0.27019 0.0
O1259 O 0.34072 0.17587 0.28855 0.0
C1260 C 0.27726 0.61481 0.01682 0.0
O1261 O 0.27696 0.60519 0.02721 0.0
Cd1262 Cd 0.30206 0.61376 0.03672 0.0
O1263 O 0.28921 0.62229 0.01546 0.0
Cd1264 Cd 0.30793 0.61299 0.03601 0.0
C1265 C 0.32303 0.63498 0.01779 0.0
O1266 O 0.29591 0.62294 0.06002 0.0
O1267 O 0.31898 0.62909 0.05655 0.0
O1268 O 0.29862 0.58665 0.03764 0.0
C1269 C 0.30738 0.62979 0.06485 0.0
O1270 O 0.31089 0.6379 0.02459 0.0
C1271 C 0.3113 0.58105 0.04097 0.0
O1272 O 0.32827 0.62185 0.01933 0.0
O1273 O 0.32243 0.58999 0.04103 0.0
C1274 C 0.86251 0.51999 0.77203 0.0
O1275 O 0.85051 0.52218 0.77945 0.0
Cd1276 Cd 0.84593 0.54229 0.79625 0.0
O1277 O 0.8737 0.52886 0.77341 0.0
Cd1278 Cd 0.87921 0.55168 0.78897 0.0
C1279 C 0.85248 0.57095 0.77125 0.0
O1280 O 0.86762 0.5424 0.81158 0.0
O1281 O 0.87048 0.56625 0.81151 0.0
O1282 O 0.90428 0.54163 0.79179 0.0
C1283 C 0.86674 0.55458 0.81879 0.0
O1284 O 0.84345 0.56459 0.78036 0.0
C1285 C 0.91095 0.55424 0.79176 0.0
O1286 O 0.86631 0.56735 0.77078 0.0
O1287 O 0.90289 0.56576 0.78922 0.0
C1288 C 0.46683 0.12686 0.01683 0.0
O1289 O 0.46784 0.13532 0.02816 0.0
Cd1290 Cd 0.44263 0.12686 0.0374 0.0
O1291 O 0.45452 0.12011 0.015 0.0
Cd1292 Cd 0.43649 0.12791 0.03667 0.0
C1293 C 0.42106 0.10723 0.01731 0.0
O1294 O 0.44814 0.11594 0.0601 0.0
O1295 O 0.42503 0.11051 0.05568 0.0
O1296 O 0.44594 0.15397 0.04025 0.0
C1297 C 0.43645 0.10891 0.06411 0.0
O1298 O 0.43327 0.10374 0.0237 0.0
C1299 C 0.43315 0.1595 0.04331 0.0
O1300 O 0.41597 0.12028 0.01977 0.0
O1301 O 0.42198 0.15063 0.04262 0.0
C1302 C 0.86302 0.72519 0.46805 0.0
O1303 O 0.85211 0.72567 0.45886 0.0
Cd1304 Cd 0.84488 0.70561 0.44323 0.0
O1305 O 0.87213 0.71408 0.46808 0.0
Cd1306 Cd 0.87684 0.69061 0.45295 0.0
C1307 C 0.84692 0.67789 0.47119 0.0
O1308 O 0.86693 0.70004 0.42975 0.0
O1309 O 0.86805 0.67603 0.43058 0.0
O1310 O 0.90235 0.69953 0.45147 0.0
C1311 C 0.86505 0.68772 0.42298 0.0
O1312 O 0.83973 0.68672 0.46248 0.0
C1313 C 0.90854 0.68668 0.45179 0.0
O1314 O 0.86119 0.67681 0.47053 0.0
O1315 O 0.89994 0.67545 0.45385 0.0
C1316 C 0.26719 0.61088 0.22296 0.0
O1317 O 0.26961 0.59852 0.21625 0.0
Cd1318 Cd 0.28957 0.59352 0.19934 0.0
O1319 O 0.27574 0.6222 0.22084 0.0
Cd1320 Cd 0.2981 0.62758 0.20477 0.0
C1321 C 0.31871 0.60222 0.22311 0.0
O1322 O 0.2885 0.61452 0.18314 0.0
O1323 O 0.31208 0.61889 0.18184 0.0
O1324 O 0.28726 0.65223 0.20134 0.0
C1325 C 0.30034 0.61404 0.17537 0.0
O1326 O 0.31237 0.59253 0.2147 0.0
C1327 C 0.29966 0.65928 0.2013 0.0
O1328 O 0.31468 0.61593 0.223 0.0
O1329 O 0.31144 0.65162 0.2039 0.0
C1330 C 0.96825 0.11585 0.72862 0.0
O1331 O 0.96847 0.10615 0.71831 0.0
Cd1332 Cd 0.94351 0.11491 0.70866 0.0
O1333 O 0.95637 0.12345 0.72992 0.0
Cd1334 Cd 0.93789 0.11409 0.70922 0.0
C1335 C 0.92187 0.13533 0.72765 0.0
O1336 O 0.95001 0.1249 0.6857 0.0
O1337 O 0.9267 0.13023 0.68889 0.0
O1338 O 0.94737 0.08783 0.70655 0.0
C1339 C 0.93842 0.13153 0.68085 0.0
O1340 O 0.93413 0.13866 0.72129 0.0
C1341 C 0.93455 0.08223 0.70382 0.0
O1342 O 0.91699 0.12213 0.72565 0.0
O1343 O 0.92341 0.09113 0.70434 0.0
C1344 C 0.51546 0.11452 0.97613 0.0
O1345 O 0.52172 0.1017 0.97645 0.0
Cd1346 Cd 0.53985 0.09347 0.95855 0.0
O1347 O 0.51877 0.12411 0.96602 0.0
Cd1348 Cd 0.53577 0.12607 0.94398 0.0
C1349 C 0.51756 0.09765 0.92705 0.0
O1350 O 0.55724 0.11358 0.95519 0.0
O1351 O 0.55861 0.11684 0.93128 0.0
O1352 O 0.5397 0.15127 0.95297 0.0
C1353 C 0.56496 0.11253 0.94328 0.0
O1354 O 0.52452 0.08925 0.93632 0.0
C1355 C 0.53994 0.15748 0.94013 0.0
O1356 O 0.51889 0.11191 0.92758 0.0
O1357 O 0.53712 0.14912 0.92888 0.0
C1358 C 0.3797 0.27145 0.22983 0.0
O1359 O 0.39106 0.28008 0.23027 0.0
Cd1360 Cd 0.39894 0.29603 0.21066 0.0
O1361 O 0.37046 0.27199 0.21884 0.0
Cd1362 Cd 0.36641 0.28768 0.19562 0.0
C1363 C 0.39594 0.2693 0.18187 0.0
O1364 O 0.37735 0.31029 0.20543 0.0
O1365 O 0.37545 0.31008 0.18145 0.0
O1366 O 0.3409 0.29043 0.20429 0.0
C1367 C 0.37915 0.31725 0.1932 0.0
O1368 O 0.40343 0.27753 0.19091 0.0
C1369 C 0.33486 0.29034 0.19137 0.0
O1370 O 0.38166 0.27021 0.18109 0.0
O1371 O 0.34346 0.28767 0.18026 0.0
C1372 C 0.2239 0.12673 0.4748 0.0
O1373 O 0.21543 0.13777 0.47795 0.0
Cd1374 Cd 0.20107 0.14908 0.45847 0.0
O1375 O 0.22272 0.11985 0.46229 0.0
Cd1376 Cd 0.20586 0.11846 0.44007 0.0
C1377 C 0.22745 0.1466 0.42917 0.0
O1378 O 0.18375 0.13067 0.45023 0.0
O1379 O 0.18509 0.13017 0.42608 0.0
O1380 O 0.20145 0.09348 0.44908 0.0
C1381 C 0.17766 0.13372 0.43772 0.0
O1382 O 0.22033 0.15381 0.43932 0.0
C1383 C 0.20121 0.08712 0.43632 0.0
O1384 O 0.22466 0.1328 0.42656 0.0
O1385 O 0.20402 0.09532 0.42494 0.0
C1386 C 0.35881 0.96829 0.7255 0.0
O1387 O 0.34725 0.95995 0.72486 0.0
Cd1388 Cd 0.34155 0.9435 0.7048 0.0
O1389 O 0.36901 0.96748 0.71544 0.0
Cd1390 Cd 0.37459 0.95201 0.69263 0.0
C1391 C 0.34583 0.96937 0.67588 0.0
O1392 O 0.36373 0.92905 0.70179 0.0
O1393 O 0.36726 0.92932 0.67797 0.0
O1394 O 0.39968 0.95027 0.70268 0.0
C1395 C 0.36326 0.92197 0.6895 0.0
O1396 O 0.33749 0.96106 0.68405 0.0
C1397 C 0.40641 0.95095 0.69012 0.0
O1398 O 0.3601 0.96886 0.67696 0.0
O1399 O 0.39829 0.95321 0.67857 0.0
C1400 C 0.5246 0.13089 0.26922 0.0
O1401 O 0.53358 0.14198 0.26916 0.0
Cd1402 Cd 0.54884 0.14865 0.28976 0.0
O1403 O 0.52456 0.12155 0.28013 0.0
Cd1404 Cd 0.53915 0.11653 0.30379 0.0
C1405 C 0.5207 0.14623 0.31708 0.0
O1406 O 0.56256 0.12646 0.29479 0.0
O1407 O 0.56148 0.12454 0.31877 0.0
O1408 O 0.54037 0.09125 0.29423 0.0
C1409 C 0.56927 0.12765 0.30724 0.0
O1410 O 0.52941 0.15373 0.30853 0.0
C1411 C 0.53998 0.08472 0.30691 0.0
O1412 O 0.52147 0.13195 0.31776 0.0
O1413 O 0.53804 0.09304 0.31837 0.0
C1414 C 0.36167 0.27114 0.51424 0.0
O1415 O 0.34952 0.27863 0.51486 0.0
Cd1416 Cd 0.3422 0.29506 0.53434 0.0
O1417 O 0.37178 0.27265 0.52432 0.0
Cd1418 Cd 0.37582 0.28896 0.547 0.0
C1419 C 0.34797 0.27085 0.56448 0.0
O1420 O 0.36349 0.31071 0.5367 0.0
O1421 O 0.36731 0.31217 0.5604 0.0
O1422 O 0.40122 0.29191 0.53792 0.0
C1423 C 0.36256 0.31847 0.54854 0.0
O1424 O 0.33924 0.27825 0.55585 0.0
C1425 C 0.40743 0.2915 0.55076 0.0
O1426 O 0.36218 0.27208 0.56343 0.0
O1427 O 0.39893 0.28896 0.56195 0.0
C1428 C 0.2196 0.11091 0.76646 0.0
O1429 O 0.21083 0.09964 0.76636 0.0
Cd1430 Cd 0.19541 0.09244 0.78666 0.0
O1431 O 0.21957 0.12013 0.77747 0.0
Cd1432 Cd 0.20486 0.1244 0.8012 0.0
C1433 C 0.22286 0.09455 0.8147 0.0
O1434 O 0.1816 0.11451 0.7918 0.0
O1435 O 0.18231 0.11615 0.81579 0.0
O1436 O 0.20335 0.15007 0.79272 0.0
C1437 C 0.17473 0.11304 0.80413 0.0
O1438 O 0.21427 0.08712 0.80595 0.0
C1439 C 0.20427 0.15599 0.80567 0.0
O1440 O 0.22223 0.10883 0.8153 0.0
O1441 O 0.20653 0.14715 0.81666 0.0
C1442 C 0.38136 0.97243 0.01552 0.0
O1443 O 0.39341 0.9648 0.01602 0.0
Cd1444 Cd 0.40114 0.94886 0.03572 0.0
O1445 O 0.37151 0.97137 0.02592 0.0
Cd1446 Cd 0.36812 0.95559 0.0491 0.0
C1447 C 0.39667 0.97384 0.06538 0.0
O1448 O 0.3798 0.93338 0.03895 0.0
O1449 O 0.37688 0.93271 0.06281 0.0
O1450 O 0.34235 0.9524 0.04114 0.0
C1451 C 0.38098 0.92594 0.05097 0.0
O1452 O 0.4051 0.96616 0.0567 0.0
C1453 C 0.33671 0.95303 0.05424 0.0
O1454 O 0.38242 0.97271 0.06475 0.0
O1455 O 0.34566 0.95595 0.06497 0.0
C1456 C 0.96978 0.01318 0.62705 0.0
O1457 O 0.97035 0.02405 0.63613 0.0
Cd1458 Cd 0.9454 0.03355 0.62722 0.0
O1459 O 0.95777 0.01165 0.61971 0.0
Cd1460 Cd 0.93941 0.03282 0.62819 0.0
C1461 C 0.92429 0.01447 0.60627 0.0
O1462 O 0.9511 0.05672 0.61739 0.0
O1463 O 0.92785 0.05288 0.61213 0.0
O1464 O 0.94844 0.03587 0.65447 0.0
C1465 C 0.93933 0.06127 0.61084 0.0
O1466 O 0.93663 0.02087 0.60332 0.0
C1467 C 0.93545 0.03808 0.65993 0.0
O1468 O 0.91899 0.0164 0.61933 0.0
O1469 O 0.92443 0.03706 0.65091 0.0
C1470 C 0.47372 0.72669 0.86074 0.0
O1471 O 0.46796 0.72643 0.84769 0.0
Cd1472 Cd 0.4511 0.70747 0.83933 0.0
O1473 O 0.47022 0.71686 0.87055 0.0
Cd1474 Cd 0.45346 0.69465 0.87294 0.0
C1475 C 0.47454 0.67732 0.84709 0.0
O1476 O 0.43254 0.70456 0.85846 0.0
O1477 O 0.4318 0.68079 0.86268 0.0
O1478 O 0.44817 0.70462 0.89754 0.0
C1479 C 0.42538 0.69233 0.85733 0.0
O1480 O 0.46795 0.68594 0.83774 0.0
C1481 C 0.44812 0.69206 0.90431 0.0
O1482 O 0.47188 0.67825 0.86113 0.0
O1483 O 0.45132 0.68051 0.89653 0.0
C1484 C 0.77429 0.23102 0.12605 0.0
O1485 O 0.77291 0.21975 0.13453 0.0
Cd1486 Cd 0.79766 0.20953 0.12613 0.0
O1487 O 0.78664 0.23238 0.11925 0.0
Cd1488 Cd 0.80368 0.21001 0.12728 0.0
C1489 C 0.81998 0.22833 0.1062 0.0
O1490 O 0.79097 0.18705 0.11554 0.0
O1491 O 0.81451 0.1897 0.11091 0.0
O1492 O 0.79387 0.20671 0.15325 0.0
C1493 C 0.80261 0.18201 0.10913 0.0
O1494 O 0.80747 0.22246 0.10283 0.0
C1495 C 0.80665 0.20401 0.15898 0.0
O1496 O 0.82497 0.22582 0.11927 0.0
O1497 O 0.81791 0.20476 0.15025 0.0
C1498 C 0.27601 0.51451 0.36206 0.0
O1499 O 0.28476 0.51424 0.35078 0.0
Cd1500 Cd 0.29998 0.5345 0.3431 0.0
O1501 O 0.27619 0.52554 0.37126 0.0
Cd1502 Cd 0.29129 0.54899 0.37579 0.0
C1503 C 0.27233 0.56239 0.34643 0.0
O1504 O 0.31408 0.53973 0.36484 0.0
O1505 O 0.31367 0.56366 0.36721 0.0
O1506 O 0.29352 0.5395 0.40102 0.0
C1507 C 0.32096 0.55204 0.36332 0.0
O1508 O 0.28068 0.5536 0.33877 0.0
C1509 C 0.29297 0.55218 0.40753 0.0
O1510 O 0.27349 0.56318 0.36068 0.0
O1511 O 0.29054 0.56358 0.39924 0.0
C1512 C 0.97509 0.22515 0.62833 0.0
O1513 O 0.97598 0.2192 0.64126 0.0
Cd1514 Cd 0.95827 0.20167 0.65099 0.0
O1515 O 0.96467 0.2215 0.61921 0.0
Cd1516 Cd 0.94281 0.20417 0.61834 0.0
C1517 C 0.92732 0.22465 0.64582 0.0
O1518 O 0.95356 0.18319 0.63222 0.0
O1519 O 0.92954 0.18272 0.62949 0.0
O1520 O 0.95093 0.19904 0.59307 0.0
C1521 C 0.9413 0.17624 0.63428 0.0
O1522 O 0.93662 0.218 0.65445 0.0
C1523 C 0.93789 0.19889 0.58725 0.0
O1524 O 0.92734 0.22229 0.6317 0.0
O1525 O 0.92691 0.20196 0.59587 0.0
C1526 C 0.2612 0.71735 0.86525 0.0
O1527 O 0.27254 0.71878 0.85687 0.0
Cd1528 Cd 0.28281 0.69419 0.86547 0.0
O1529 O 0.25982 0.70501 0.87206 0.0
Cd1530 Cd 0.2822 0.68788 0.86441 0.0
C1531 C 0.26465 0.67281 0.88697 0.0
O1532 O 0.30561 0.70084 0.87516 0.0
O1533 O 0.30296 0.67743 0.88038 0.0
O1534 O 0.28462 0.69656 0.83804 0.0
C1535 C 0.31076 0.68931 0.88168 0.0
O1536 O 0.2706 0.68546 0.88955 0.0
C1537 C 0.28704 0.68354 0.83274 0.0
O1538 O 0.26672 0.66719 0.87408 0.0
O1539 O 0.28653 0.67265 0.84195 0.0
C1540 C 0.76744 0.01623 0.13011 0.0
O1541 O 0.76686 0.02197 0.14316 0.0
Cd1542 Cd 0.78455 0.03972 0.15248 0.0
O1543 O 0.77753 0.02017 0.12074 0.0
Cd1544 Cd 0.79914 0.03784 0.11947 0.0
C1545 C 0.81601 0.01758 0.14629 0.0
O1546 O 0.78804 0.0584 0.13367 0.0
O1547 O 0.81196 0.05974 0.13041 0.0
O1548 O 0.78994 0.04306 0.09457 0.0
C1549 C 0.80008 0.0658 0.13543 0.0
O1550 O 0.8067 0.02396 0.15513 0.0
C1551 C 0.80272 0.04366 0.08827 0.0
O1552 O 0.81563 0.01998 0.13218 0.0
O1553 O 0.8141 0.04074 0.09642 0.0
C1554 C 0.47798 0.52473 0.36826 0.0
O1555 O 0.46777 0.52435 0.35846 0.0
Cd1556 Cd 0.45838 0.54974 0.36626 0.0
O1557 O 0.47927 0.5368 0.37556 0.0
Cd1558 Cd 0.45901 0.55536 0.36523 0.0
C1559 C 0.47755 0.57155 0.38622 0.0
O1560 O 0.43474 0.54428 0.37527 0.0
O1561 O 0.43847 0.56751 0.38056 0.0
O1562 O 0.45682 0.54517 0.33924 0.0
C1563 C 0.42993 0.55611 0.3815 0.0
O1564 O 0.47086 0.55957 0.38993 0.0
C1565 C 0.45448 0.55785 0.33318 0.0
O1566 O 0.4757 0.57607 0.37288 0.0
O1567 O 0.4551 0.56925 0.34173 0.0
C1568 C 0.6077 0.47488 0.52176 0.0
O1569 O 0.59546 0.47388 0.52904 0.0
Cd1570 Cd 0.58876 0.45331 0.54436 0.0
O1571 O 0.61793 0.46492 0.52321 0.0
Cd1572 Cd 0.62242 0.44191 0.53883 0.0
C1573 C 0.59597 0.42471 0.51869 0.0
O1574 O 0.60947 0.45087 0.56095 0.0
O1575 O 0.61339 0.4271 0.56083 0.0
O1576 O 0.64729 0.45214 0.54244 0.0
C1577 C 0.60864 0.43852 0.56791 0.0
O1578 O 0.5868 0.43276 0.52621 0.0
C1579 C 0.65417 0.43965 0.54193 0.0
O1580 O 0.6101 0.42591 0.52058 0.0
O1581 O 0.64629 0.42806 0.53919 0.0
C1582 C 0.11212 0.26673 0.7265 0.0
O1583 O 0.09889 0.26626 0.72115 0.0
Cd1584 Cd 0.08922 0.28446 0.70397 0.0
O1585 O 0.1213 0.27698 0.72258 0.0
Cd1586 Cd 0.12235 0.29903 0.7057 0.0
C1587 C 0.09572 0.31559 0.72647 0.0
O1588 O 0.10783 0.28841 0.68508 0.0
O1589 O 0.11184 0.31227 0.68394 0.0
O1590 O 0.14717 0.28971 0.70053 0.0
C1591 C 0.10641 0.3006 0.67783 0.0
O1592 O 0.08672 0.30639 0.72015 0.0
C1593 C 0.15366 0.3024 0.70071 0.0
O1594 O 0.10978 0.31515 0.72385 0.0
O1595 O 0.14557 0.31378 0.70378 0.0
C1596 C 0.22779 0.864 0.97642 0.0
O1597 O 0.22788 0.85103 0.97047 0.0
Cd1598 Cd 0.20996 0.84238 0.95257 0.0
O1599 O 0.21785 0.8737 0.97288 0.0
Cd1600 Cd 0.19571 0.87548 0.956 0.0
C1601 C 0.17898 0.84763 0.97521 0.0
O1602 O 0.20663 0.86222 0.93484 0.0
O1603 O 0.18285 0.86617 0.93326 0.0
O1604 O 0.20333 0.90121 0.95196 0.0
C1605 C 0.19469 0.86114 0.92715 0.0
O1606 O 0.18796 0.83877 0.96843 0.0
C1607 C 0.19017 0.9067 0.95265 0.0
O1608 O 0.1797 0.86178 0.97329 0.0
O1609 O 0.17952 0.89767 0.95563 0.0
C1610 C 0.63202 0.9775 0.22197 0.0
O1611 O 0.64451 0.97688 0.21509 0.0
Cd1612 Cd 0.65291 0.95609 0.20087 0.0
O1613 O 0.62246 0.96688 0.22082 0.0
Cd1614 Cd 0.61985 0.94322 0.20579 0.0
C1615 C 0.64666 0.92721 0.22644 0.0
O1616 O 0.63294 0.95221 0.18366 0.0
O1617 O 0.62965 0.92836 0.18418 0.0
O1618 O 0.59481 0.95258 0.20158 0.0
C1619 C 0.63428 0.93976 0.17699 0.0
O1620 O 0.6556 0.93566 0.2191 0.0
C1621 C 0.58828 0.93993 0.20222 0.0
O1622 O 0.63252 0.92787 0.22436 0.0
O1623 O 0.59643 0.9286 0.20525 0.0
C1624 C 0.02648 0.36464 0.9771 0.0
O1625 O 0.0251 0.35623 0.96578 0.0
Cd1626 Cd 0.05024 0.3642 0.9561 0.0
O1627 O 0.03896 0.37114 0.97874 0.0
Cd1628 Cd 0.0566 0.36306 0.95686 0.0
C1629 C 0.07158 0.38517 0.97502 0.0
O1630 O 0.04447 0.3742 0.93322 0.0
O1631 O 0.06781 0.37934 0.93668 0.0
O1632 O 0.04677 0.3371 0.95425 0.0
C1633 C 0.05617 0.38076 0.92852 0.0
O1634 O 0.05926 0.38798 0.96851 0.0
C1635 C 0.05939 0.33132 0.95097 0.0
O1636 O 0.07701 0.37213 0.97326 0.0
O1637 O 0.07074 0.33998 0.95143 0.0
C1638 C 0.633 0.76488 0.52098 0.0
O1639 O 0.64543 0.76597 0.52791 0.0
Cd1640 Cd 0.65337 0.78702 0.54197 0.0
O1641 O 0.62314 0.77526 0.5219 0.0
Cd1642 Cd 0.62041 0.79926 0.53645 0.0
C1643 C 0.64734 0.81519 0.51586 0.0
O1644 O 0.63321 0.79094 0.55902 0.0
O1645 O 0.63029 0.81479 0.55746 0.0
O1646 O 0.59473 0.79174 0.54116 0.0
C1647 C 0.63456 0.80364 0.56522 0.0
O1648 O 0.65646 0.80724 0.52353 0.0
C1649 C 0.58915 0.80479 0.53968 0.0
O1650 O 0.63322 0.81407 0.51773 0.0
O1651 O 0.59807 0.81525 0.53586 0.0
C1652 C 0.22871 0.88124 0.77254 0.0
O1653 O 0.22933 0.89298 0.78063 0.0
Cd1654 Cd 0.20873 0.90238 0.79449 0.0
O1655 O 0.21713 0.87277 0.77277 0.0
Cd1656 Cd 0.19317 0.87051 0.78739 0.0
C1657 C 0.18104 0.89912 0.76677 0.0
O1658 O 0.20196 0.88215 0.81028 0.0
O1659 O 0.17796 0.88079 0.80844 0.0
O1660 O 0.20165 0.84516 0.79106 0.0
C1661 C 0.18929 0.88438 0.8163 0.0
O1662 O 0.19004 0.90685 0.7748 0.0
C1663 C 0.18879 0.83904 0.79033 0.0
O1664 O 0.17978 0.88498 0.76857 0.0
O1665 O 0.17773 0.84758 0.7873 0.0
C1666 C 0.52431 0.37535 0.26576 0.0
O1667 O 0.52314 0.38412 0.27682 0.0
Cd1668 Cd 0.54833 0.37624 0.28646 0.0
O1669 O 0.53668 0.36863 0.26422 0.0
Cd1670 Cd 0.55451 0.37743 0.28569 0.0
C1671 C 0.56983 0.35523 0.26783 0.0
O1672 O 0.54281 0.36662 0.30963 0.0
O1673 O 0.56619 0.36173 0.30603 0.0
O1674 O 0.54433 0.4033 0.28818 0.0
C1675 C 0.55467 0.36034 0.31435 0.0
O1676 O 0.55752 0.35233 0.27433 0.0
C1677 C 0.5569 0.40933 0.29112 0.0
O1678 O 0.57504 0.36838 0.26943 0.0
O1679 O 0.56838 0.40084 0.29052 0.0
C1680 C 0.4765 0.87868 0.0202 0.0
O1681 O 0.47152 0.89199 0.02156 0.0
Cd1682 Cd 0.45281 0.89959 0.03935 0.0
O1683 O 0.4721 0.86822 0.02893 0.0
Cd1684 Cd 0.45545 0.86605 0.051 0.0
C1685 C 0.47446 0.89238 0.07005 0.0
O1686 O 0.4348 0.87982 0.03996 0.0
O1687 O 0.43266 0.8758 0.06368 0.0
O1688 O 0.45132 0.84075 0.04224 0.0
C1689 C 0.42676 0.88067 0.05166 0.0
O1690 O 0.46664 0.90202 0.06291 0.0
C1691 C 0.4514 0.83475 0.05519 0.0
O1692 O 0.47384 0.87846 0.06686 0.0
O1693 O 0.45411 0.84332 0.06629 0.0
C1694 C 0.61182 0.71938 0.76487 0.0
O1695 O 0.59984 0.71163 0.76523 0.0
Cd1696 Cd 0.59179 0.69714 0.78595 0.0
O1697 O 0.62129 0.71874 0.77562 0.0
Cd1698 Cd 0.62452 0.70372 0.7992 0.0
C1699 C 0.59667 0.72384 0.81404 0.0
O1700 O 0.61229 0.68089 0.79088 0.0
O1701 O 0.61482 0.68268 0.81478 0.0
O1702 O 0.64994 0.69957 0.79076 0.0
C1703 C 0.61072 0.67482 0.80363 0.0
O1704 O 0.58809 0.71592 0.80573 0.0
C1705 C 0.65602 0.70095 0.8036 0.0
O1706 O 0.61088 0.72219 0.81367 0.0
O1707 O 0.64744 0.70448 0.81446 0.0
C1708 C 0.76633 0.86604 0.51533 0.0
O1709 O 0.77192 0.85291 0.51489 0.0
Cd1710 Cd 0.78966 0.84365 0.5327 0.0
O1711 O 0.77037 0.87544 0.52535 0.0
Cd1712 Cd 0.788 0.87667 0.54702 0.0
C1713 C 0.76764 0.85007 0.56414 0.0
O1714 O 0.80849 0.86245 0.53586 0.0
O1715 O 0.81022 0.86607 0.55973 0.0
O1716 O 0.79314 0.90152 0.53772 0.0
C1717 C 0.81616 0.86104 0.54779 0.0
O1718 O 0.7739 0.84107 0.5549 0.0
C1719 C 0.7936 0.90787 0.55048 0.0
O1720 O 0.7702 0.86414 0.5636 0.0
O1721 O 0.79062 0.89975 0.56185 0.0
C1722 C 0.6281 0.02598 0.26428 0.0
O1723 O 0.63917 0.03498 0.26381 0.0
Cd1724 Cd 0.64722 0.0507 0.28354 0.0
O1725 O 0.61909 0.02593 0.27548 0.0
Cd1726 Cd 0.61497 0.04099 0.29905 0.0
C1727 C 0.64561 0.02331 0.31175 0.0
O1728 O 0.62526 0.06403 0.28961 0.0
O1729 O 0.62336 0.06347 0.31357 0.0
O1730 O 0.5891 0.04278 0.29112 0.0
C1731 C 0.62706 0.07082 0.30193 0.0
O1732 O 0.65282 0.03192 0.30283 0.0
C1733 C 0.5834 0.04178 0.30417 0.0
O1734 O 0.63132 0.02385 0.31267 0.0
O1735 O 0.59244 0.0393 0.31497 0.0
C1736 C 0.47813 0.86629 0.72628 0.0
O1737 O 0.47253 0.85316 0.72656 0.0
Cd1738 Cd 0.45389 0.84417 0.70957 0.0
O1739 O 0.47392 0.87594 0.71657 0.0
Cd1740 Cd 0.45604 0.87746 0.6952 0.0
C1741 C 0.47473 0.84984 0.67729 0.0
O1742 O 0.4358 0.86372 0.70728 0.0
O1743 O 0.43267 0.86783 0.68369 0.0
O1744 O 0.45189 0.90272 0.70411 0.0
C1745 C 0.42741 0.86258 0.69584 0.0
O1746 O 0.46844 0.84103 0.68667 0.0
C1747 C 0.4514 0.90882 0.69122 0.0
O1748 O 0.47284 0.86402 0.67811 0.0
O1749 O 0.45391 0.90035 0.67998 0.0
C1750 C 0.63199 0.71692 0.47797 0.0
O1751 O 0.6433 0.70823 0.47846 0.0
Cd1752 Cd 0.65176 0.69384 0.45785 0.0
O1753 O 0.62326 0.71697 0.46656 0.0
Cd1754 Cd 0.61976 0.7024 0.44268 0.0
C1755 C 0.64907 0.72206 0.43057 0.0
O1756 O 0.6307 0.67917 0.45124 0.0
O1757 O 0.62922 0.68107 0.42728 0.0
O1758 O 0.59429 0.69978 0.45131 0.0
C1759 C 0.63274 0.6731 0.43856 0.0
O1760 O 0.65663 0.71362 0.43935 0.0
C1761 C 0.58814 0.70075 0.43848 0.0
O1762 O 0.63486 0.72076 0.42942 0.0
O1763 O 0.59675 0.70342 0.42738 0.0
C1764 C 0.76751 0.8784 0.22645 0.0
O1765 O 0.77318 0.89148 0.22688 0.0
Cd1766 Cd 0.79066 0.90081 0.20889 0.0
O1767 O 0.77135 0.86901 0.21634 0.0
Cd1768 Cd 0.78861 0.86758 0.19443 0.0
C1769 C 0.76804 0.89446 0.17785 0.0
O1770 O 0.80929 0.88197 0.20507 0.0
O1771 O 0.81044 0.87835 0.18121 0.0
O1772 O 0.79373 0.8426 0.2036 0.0
C1773 C 0.81655 0.88365 0.19294 0.0
O1774 O 0.77449 0.90338 0.18701 0.0
C1775 C 0.79366 0.8362 0.19085 0.0
O1776 O 0.77053 0.88036 0.17826 0.0
O1777 O 0.79067 0.84439 0.17953 0.0
C1778 C 0.61261 0.02433 0.97967 0.0
O1779 O 0.60122 0.03292 0.98029 0.0
Cd1780 Cd 0.59271 0.0491 0.96109 0.0
O1781 O 0.62151 0.02463 0.96841 0.0
Cd1782 Cd 0.62463 0.03972 0.94486 0.0
C1783 C 0.5936 0.0226 0.93226 0.0
O1784 O 0.61477 0.0625 0.95522 0.0
O1785 O 0.61654 0.06285 0.93125 0.0
O1786 O 0.65089 0.04084 0.95132 0.0
C1787 C 0.61303 0.0698 0.94318 0.0
O1788 O 0.58637 0.03097 0.94137 0.0
C1789 C 0.65574 0.03964 0.93795 0.0
O1790 O 0.60788 0.02315 0.93139 0.0
O1791 O 0.64601 0.03746 0.92771 0.0
C1792 C 0.01711 0.97226 0.38205 0.0
O1793 O 0.01918 0.96505 0.3942 0.0
Cd1794 Cd 0.03884 0.94774 0.39923 0.0
O1795 O 0.02597 0.97053 0.3709 0.0
Cd1796 Cd 0.04864 0.95482 0.36583 0.0
C1797 C 0.06807 0.97195 0.39299 0.0
O1798 O 0.03903 0.93239 0.37754 0.0
O1799 O 0.06279 0.93192 0.37397 0.0
O1800 O 0.03977 0.95207 0.34028 0.0
C1801 C 0.05108 0.92494 0.37812 0.0
O1802 O 0.06156 0.96298 0.40206 0.0
C1803 C 0.05268 0.95296 0.33425 0.0
O1804 O 0.06445 0.97246 0.37918 0.0
O1805 O 0.06367 0.95577 0.34292 0.0
C1806 C 0.51533 0.27284 0.11515 0.0
O1807 O 0.52621 0.27188 0.10614 0.0
Cd1808 Cd 0.53585 0.29711 0.11421 0.0
O1809 O 0.51386 0.28511 0.12207 0.0
Cd1810 Cd 0.53526 0.30303 0.11311 0.0
C1811 C 0.51646 0.31908 0.13401 0.0
O1812 O 0.55862 0.29119 0.12478 0.0
O1813 O 0.55521 0.31459 0.12956 0.0
O1814 O 0.53831 0.29244 0.08737 0.0
C1815 C 0.56328 0.30294 0.13129 0.0
O1816 O 0.52289 0.3069 0.13751 0.0
C1817 C 0.54152 0.30488 0.08122 0.0
O1818 O 0.51859 0.32392 0.1208 0.0
O1819 O 0.54101 0.31646 0.08957 0.0
C1820 C 0.21965 0.76547 0.87693 0.0
O1821 O 0.21817 0.77006 0.89036 0.0
Cd1822 Cd 0.20141 0.78951 0.89813 0.0
O1823 O 0.21154 0.77074 0.86638 0.0
Cd1824 Cd 0.19044 0.78876 0.86442 0.0
C1825 C 0.16983 0.76982 0.88969 0.0
O1826 O 0.20279 0.80807 0.87899 0.0
O1827 O 0.17936 0.81215 0.87505 0.0
O1828 O 0.19997 0.79304 0.83939 0.0
C1829 C 0.19177 0.81694 0.8802 0.0
O1830 O 0.17709 0.77704 0.89968 0.0
C1831 C 0.18719 0.79438 0.83316 0.0
O1832 O 0.17336 0.77066 0.87587 0.0
O1833 O 0.17573 0.79236 0.84144 0.0
C1834 C 0.72565 0.47598 0.62617 0.0
O1835 O 0.7193 0.47664 0.63893 0.0
Cd1836 Cd 0.70128 0.45887 0.64759 0.0
O1837 O 0.72223 0.46577 0.61673 0.0
Cd1838 Cd 0.70486 0.444 0.61479 0.0
C1839 C 0.72406 0.42768 0.64275 0.0
O1840 O 0.68364 0.45496 0.62785 0.0
O1841 O 0.68248 0.43102 0.62474 0.0
O1842 O 0.70043 0.45324 0.58978 0.0
C1843 C 0.67615 0.44294 0.62929 0.0
O1844 O 0.71723 0.43699 0.65123 0.0
C1845 C 0.70013 0.44047 0.58343 0.0
O1846 O 0.72223 0.42789 0.62854 0.0
O1847 O 0.70306 0.42912 0.59162 0.0
C1848 C 0.01504 0.77039 0.36191 0.0
O1849 O 0.01605 0.77726 0.34946 0.0
Cd1850 Cd 0.03687 0.7917 0.34162 0.0
O1851 O 0.02533 0.77164 0.37185 0.0
Cd1852 Cd 0.04895 0.78698 0.37481 0.0
C1853 C 0.06577 0.76635 0.34842 0.0
O1854 O 0.04004 0.80908 0.36155 0.0
O1855 O 0.06391 0.80837 0.36464 0.0
O1856 O 0.04007 0.79188 0.40003 0.0
C1857 C 0.05253 0.81569 0.36018 0.0
O1858 O 0.05752 0.77367 0.33928 0.0
C1859 C 0.05288 0.79139 0.40628 0.0
O1860 O 0.0647 0.7684 0.36253 0.0
O1861 O 0.06397 0.78794 0.39796 0.0
C1862 C 0.72637 0.27291 0.11473 0.0
O1863 O 0.72147 0.27443 0.10141 0.0
Cd1864 Cd 0.70233 0.2919 0.09438 0.0
O1865 O 0.72152 0.28118 0.12535 0.0
Cd1866 Cd 0.7039 0.30249 0.1281 0.0
C1867 C 0.72291 0.323 0.10298 0.0
O1868 O 0.68396 0.29102 0.11377 0.0
O1869 O 0.68081 0.31458 0.11787 0.0
O1870 O 0.69986 0.29179 0.15261 0.0
C1871 C 0.67547 0.30237 0.1128 0.0
O1872 O 0.71548 0.31587 0.09305 0.0
C1873 C 0.69862 0.30421 0.15951 0.0
O1874 O 0.72216 0.31945 0.11681 0.0
O1875 O 0.70063 0.31609 0.15184 0.0
C1876 C 0.21836 0.97725 0.8776 0.0
O1877 O 0.21855 0.96662 0.88695 0.0
Cd1878 Cd 0.19322 0.95776 0.87835 0.0
O1879 O 0.20643 0.97895 0.87016 0.0
Cd1880 Cd 0.18746 0.95848 0.87932 0.0
C1881 C 0.17188 0.97744 0.85826 0.0
O1882 O 0.19864 0.93458 0.86826 0.0
O1883 O 0.17546 0.93874 0.863 0.0
O1884 O 0.19756 0.95584 0.90529 0.0
C1885 C 0.18683 0.93022 0.86166 0.0
O1886 O 0.18405 0.97092 0.85486 0.0
C1887 C 0.18504 0.95258 0.91125 0.0
O1888 O 0.16694 0.97539 0.87144 0.0
O1889 O 0.17361 0.95294 0.9027 0.0
C1890 C 0.51484 0.46575 0.62873 0.0
O1891 O 0.52606 0.46713 0.63728 0.0
Cd1892 Cd 0.53554 0.44172 0.63003 0.0
O1893 O 0.51312 0.45314 0.62249 0.0
Cd1894 Cd 0.53482 0.43549 0.63127 0.0
C1895 C 0.51662 0.41971 0.6097 0.0
O1896 O 0.5585 0.44734 0.62001 0.0
O1897 O 0.55509 0.42394 0.61523 0.0
O1898 O 0.53739 0.44587 0.6571 0.0
C1899 C 0.56325 0.43555 0.61366 0.0
O1900 O 0.52305 0.43198 0.60651 0.0
C1901 C 0.5406 0.43337 0.66316 0.0
O1902 O 0.51847 0.41469 0.62288 0.0
O1903 O 0.54019 0.42186 0.65471 0.0
C1904 C 0.38389 0.51686 0.47002 0.0
O1905 O 0.39555 0.51744 0.46181 0.0
Cd1906 Cd 0.40196 0.53751 0.44578 0.0
O1907 O 0.3737 0.52694 0.46906 0.0
Cd1908 Cd 0.36834 0.54964 0.45324 0.0
C1909 C 0.39625 0.56603 0.47204 0.0
O1910 O 0.38042 0.5409 0.43068 0.0
O1911 O 0.3771 0.56473 0.43137 0.0
O1912 O 0.34328 0.53971 0.45011 0.0
C1913 C 0.38159 0.55339 0.42401 0.0
O1914 O 0.40486 0.55789 0.46397 0.0
C1915 C 0.33655 0.55227 0.45088 0.0
O1916 O 0.382 0.56516 0.47091 0.0
O1917 O 0.3446 0.56373 0.45373 0.0
C1918 C 0.88035 0.7229 0.2715 0.0
O1919 O 0.89255 0.72082 0.27862 0.0
Cd1920 Cd 0.89749 0.7005 0.29511 0.0
O1921 O 0.8693 0.71391 0.27312 0.0
Cd1922 Cd 0.86411 0.69115 0.28867 0.0
C1923 C 0.89039 0.67203 0.27006 0.0
O1924 O 0.87621 0.70036 0.31109 0.0
O1925 O 0.87281 0.67656 0.31122 0.0
O1926 O 0.8394 0.70193 0.29164 0.0
C1927 C 0.87683 0.68821 0.31838 0.0
O1928 O 0.89967 0.67837 0.27893 0.0
C1929 C 0.83233 0.68954 0.29152 0.0
O1930 O 0.87652 0.67554 0.27006 0.0
O1931 O 0.84002 0.67776 0.28905 0.0
C1932 C 0.76549 0.12671 0.01602 0.0
O1933 O 0.76287 0.13884 0.02306 0.0
Cd1934 Cd 0.78161 0.15023 0.03848 0.0
O1935 O 0.77723 0.11898 0.01874 0.0
Cd1936 Cd 0.79824 0.11837 0.03715 0.0
C1937 C 0.81311 0.14487 0.01564 0.0
O1938 O 0.78739 0.13277 0.05778 0.0
O1939 O 0.81153 0.13066 0.05785 0.0
O1940 O 0.78938 0.09362 0.04331 0.0
C1941 C 0.79977 0.13536 0.06438 0.0
O1942 O 0.80313 0.15335 0.0215 0.0
C1943 C 0.80223 0.08742 0.04376 0.0
O1944 O 0.81386 0.13097 0.01895 0.0
O1945 O 0.81348 0.09556 0.04038 0.0
C1946 C 0.35904 0.0151 0.77037 0.0
O1947 O 0.34688 0.01713 0.77758 0.0
Cd1948 Cd 0.34195 0.03673 0.79499 0.0
O1949 O 0.37019 0.02395 0.77214 0.0
Cd1950 Cd 0.37526 0.04657 0.78785 0.0
C1951 C 0.34803 0.06596 0.77082 0.0
O1952 O 0.36372 0.0368 0.81029 0.0
O1953 O 0.3673 0.06055 0.8109 0.0
O1954 O 0.40088 0.03784 0.79031 0.0
C1955 C 0.36322 0.0488 0.81783 0.0
O1956 O 0.33897 0.05948 0.77982 0.0
C1957 C 0.40681 0.05079 0.78934 0.0
O1958 O 0.36184 0.06233 0.77029 0.0
O1959 O 0.39804 0.06173 0.78666 0.0
C1960 C 0.97728 0.61077 0.02218 0.0
O1961 O 0.97605 0.59854 0.02944 0.0
Cd1962 Cd 0.95571 0.59168 0.0449 0.0
O1963 O 0.96736 0.6211 0.02334 0.0
Cd1964 Cd 0.94402 0.6253 0.03876 0.0
C1965 C 0.92669 0.59793 0.01961 0.0
O1966 O 0.954 0.61305 0.0607 0.0
O1967 O 0.9303 0.61691 0.06187 0.0
O1968 O 0.95271 0.65091 0.04175 0.0
C1969 C 0.94213 0.61242 0.06842 0.0
O1970 O 0.93487 0.5889 0.02714 0.0
C1971 C 0.93975 0.65689 0.04131 0.0
O1972 O 0.92793 0.61208 0.02122 0.0
O1973 O 0.92874 0.64819 0.03867 0.0
C1974 C 0.36333 0.22552 0.46834 0.0
O1975 O 0.35191 0.22501 0.45979 0.0
Cd1976 Cd 0.34563 0.20507 0.44346 0.0
O1977 O 0.37328 0.21517 0.46795 0.0
Cd1978 Cd 0.37818 0.19202 0.45259 0.0
C1979 C 0.3486 0.17606 0.46938 0.0
O1980 O 0.36793 0.20149 0.42943 0.0
O1981 O 0.37066 0.17758 0.42975 0.0
O1982 O 0.40372 0.20093 0.45107 0.0
C1983 C 0.36711 0.18922 0.42234 0.0
O1984 O 0.34063 0.18444 0.46092 0.0
C1985 C 0.40987 0.18807 0.4518 0.0
O1986 O 0.3629 0.1768 0.46916 0.0
O1987 O 0.40122 0.17694 0.45411 0.0
C1988 C 0.77349 0.1275 0.23063 0.0
O1989 O 0.77236 0.13645 0.21971 0.0
Cd1990 Cd 0.797 0.12779 0.20924 0.0
O1991 O 0.78566 0.12034 0.23174 0.0
Cd1992 Cd 0.80295 0.12883 0.20973 0.0
C1993 C 0.81923 0.10745 0.2277 0.0
O1994 O 0.79041 0.11733 0.1866 0.0
O1995 O 0.81395 0.11273 0.18937 0.0
O1996 O 0.79338 0.1549 0.20634 0.0
C1997 C 0.80211 0.11099 0.18159 0.0
O1998 O 0.80673 0.10423 0.22175 0.0
C1999 C 0.80624 0.1605 0.20374 0.0
O2000 O 0.82419 0.12059 0.22553 0.0
O2001 O 0.81742 0.15168 0.20474 0.0
C2002 C 0.47834 0.63211 0.72726 0.0
O2003 O 0.47878 0.64534 0.72194 0.0
Cd2004 Cd 0.46087 0.655 0.70452 0.0
O2005 O 0.46832 0.62279 0.72305 0.0
Cd2006 Cd 0.44673 0.6216 0.70553 0.0
C2007 C 0.42947 0.64772 0.72633 0.0
O2008 O 0.45732 0.63666 0.68538 0.0
O2009 O 0.43352 0.63263 0.68393 0.0
O2010 O 0.45622 0.59698 0.69965 0.0
C2011 C 0.4452 0.63834 0.6781 0.0
O2012 O 0.43862 0.65692 0.72028 0.0
C2013 C 0.44355 0.59041 0.69966 0.0
O2014 O 0.43015 0.63369 0.72355 0.0
O2015 O 0.43214 0.59834 0.703 0.0
C2016 C 0.51982 0.61517 0.4745 0.0
O2017 O 0.52636 0.6025 0.47501 0.0
Cd2018 Cd 0.54404 0.59417 0.45682 0.0
O2019 O 0.52291 0.62469 0.46425 0.0
Cd2020 Cd 0.53992 0.62699 0.44214 0.0
C2021 C 0.52038 0.599 0.42629 0.0
O2022 O 0.56127 0.61433 0.45318 0.0
O2023 O 0.56262 0.61724 0.42925 0.0
O2024 O 0.54337 0.65235 0.45092 0.0
C2025 C 0.56893 0.61292 0.44128 0.0
O2026 O 0.52741 0.59045 0.43539 0.0
C2027 C 0.54362 0.65844 0.43803 0.0
O2028 O 0.52235 0.61318 0.42645 0.0
O2029 O 0.54125 0.6499 0.42682 0.0
C2030 C 0.37696 0.7675 0.72517 0.0
O2031 O 0.38986 0.77354 0.72619 0.0
Cd2032 Cd 0.39929 0.79264 0.70995 0.0
O2033 O 0.36764 0.77148 0.71504 0.0
Cd2034 Cd 0.36608 0.78938 0.69374 0.0
C2035 C 0.39539 0.77171 0.67737 0.0
O2036 O 0.37898 0.80957 0.70645 0.0
O2037 O 0.37516 0.81334 0.68293 0.0
O2038 O 0.34028 0.79206 0.70163 0.0
C2039 C 0.3804 0.81822 0.69525 0.0
O2040 O 0.40362 0.77817 0.68716 0.0
C2041 C 0.33468 0.79227 0.68851 0.0
O2042 O 0.38114 0.77324 0.6775 0.0
O2043 O 0.34373 0.7905 0.67759 0.0
C2044 C 0.22692 0.62824 0.97858 0.0
O2045 O 0.22092 0.64118 0.97918 0.0
Cd2046 Cd 0.20265 0.65039 0.96185 0.0
O2047 O 0.22322 0.61883 0.96843 0.0
Cd2048 Cd 0.20598 0.61755 0.94658 0.0
C2049 C 0.2248 0.64605 0.9304 0.0
O2050 O 0.18495 0.63063 0.95797 0.0
O2051 O 0.18303 0.62696 0.93418 0.0
O2052 O 0.2022 0.5916 0.95355 0.0
C2053 C 0.17714 0.63196 0.94615 0.0
O2054 O 0.21812 0.65468 0.93969 0.0
C2055 C 0.20307 0.58643 0.94028 0.0
O2056 O 0.22294 0.63188 0.93082 0.0
O2057 O 0.20591 0.59576 0.92986 0.0
C2058 C 0.37699 0.47851 0.21957 0.0
O2059 O 0.3852 0.46707 0.22123 0.0
Cd2060 Cd 0.37709 0.45693 0.19633 0.0
O2061 O 0.37054 0.47995 0.20705 0.0
Cd2062 Cd 0.37838 0.45745 0.19007 0.0
C2063 C 0.35717 0.47598 0.17417 0.0
O2064 O 0.36645 0.4344 0.20257 0.0
O2065 O 0.36219 0.43718 0.17897 0.0
O2066 O 0.4043 0.45401 0.19987 0.0
C2067 C 0.36027 0.4294 0.19079 0.0
O2068 O 0.35382 0.46995 0.1866 0.0
C2069 C 0.41003 0.45119 0.18711 0.0
O2070 O 0.37022 0.47348 0.16909 0.0
O2071 O 0.40133 0.45207 0.17583 0.0
C2072 C 0.51658 0.6163 0.77686 0.0
O2073 O 0.52712 0.60687 0.77609 0.0
Cd2074 Cd 0.53641 0.61428 0.80162 0.0
O2075 O 0.51503 0.6231 0.78918 0.0
Cd2076 Cd 0.5356 0.61328 0.80756 0.0
C2077 C 0.51738 0.63511 0.82298 0.0
O2078 O 0.55976 0.62351 0.79602 0.0
O2079 O 0.55608 0.62905 0.81921 0.0
O2080 O 0.53735 0.58731 0.79726 0.0
C2081 C 0.56448 0.63006 0.80771 0.0
O2082 O 0.5244 0.63826 0.81102 0.0
C2083 C 0.54037 0.5812 0.80978 0.0
O2084 O 0.51874 0.62184 0.82792 0.0
O2085 O 0.54024 0.5897 0.82125 0.0
C2086 C 0.37437 0.76618 0.02466 0.0
O2087 O 0.38304 0.77736 0.02394 0.0
Cd2088 Cd 0.37531 0.78574 0.04964 0.0
O2089 O 0.36776 0.76402 0.037 0.0
Cd2090 Cd 0.37655 0.78473 0.05568 0.0
C2091 C 0.35554 0.76552 0.07091 0.0
O2092 O 0.36512 0.80901 0.04532 0.0
O2093 O 0.36031 0.80397 0.06842 0.0
O2094 O 0.40231 0.78778 0.04535 0.0
C2095 C 0.35868 0.81288 0.05738 0.0
O2096 O 0.35204 0.77234 0.05894 0.0
C2097 C 0.40847 0.79014 0.05798 0.0
O2098 O 0.36875 0.76746 0.07584 0.0
O2099 O 0.40006 0.78926 0.06948 0.0
C2100 C 0.22019 0.60947 0.26743 0.0
O2101 O 0.21175 0.59797 0.26737 0.0
Cd2102 Cd 0.19679 0.59024 0.28782 0.0
O2103 O 0.21992 0.61871 0.27843 0.0
Cd2104 Cd 0.20525 0.6225 0.30223 0.0
C2105 C 0.22466 0.59329 0.3153 0.0
O2106 O 0.18209 0.61165 0.29334 0.0
O2107 O 0.18355 0.61335 0.31732 0.0
O2108 O 0.2025 0.64822 0.29403 0.0
C2109 C 0.17572 0.60994 0.30591 0.0
O2110 O 0.21622 0.58554 0.30669 0.0
C2111 C 0.20364 0.65407 0.307 0.0
O2112 O 0.22345 0.60753 0.31599 0.0
O2113 O 0.20651 0.64521 0.31784 0.0
C2114 C 0.3845 0.47335 0.51803 0.0
O2115 O 0.39693 0.46677 0.52047 0.0
Cd2116 Cd 0.40185 0.44936 0.54005 0.0
O2117 O 0.37315 0.47097 0.52647 0.0
Cd2118 Cd 0.36793 0.45477 0.54869 0.0
C2119 C 0.39344 0.47235 0.56977 0.0
O2120 O 0.38077 0.43325 0.53855 0.0
O2121 O 0.37622 0.43132 0.56205 0.0
O2122 O 0.34306 0.45191 0.5382 0.0
C2123 C 0.38108 0.42514 0.55016 0.0
O2124 O 0.40309 0.46398 0.5633 0.0
C2125 C 0.33621 0.45208 0.55072 0.0
O2126 O 0.37977 0.4725 0.56561 0.0
O2127 O 0.34414 0.45439 0.56237 0.0
C2128 C 0.97504 0.51909 0.11639 0.0
O2129 O 0.97661 0.52643 0.10425 0.0
Cd2130 Cd 0.9592 0.54492 0.09569 0.0
O2131 O 0.96408 0.52166 0.12525 0.0
Cd2132 Cd 0.94186 0.53836 0.12778 0.0
C2133 C 0.92802 0.52107 0.09742 0.0
O2134 O 0.9533 0.56018 0.11661 0.0
O2135 O 0.92931 0.5616 0.11901 0.0
O2136 O 0.95105 0.54041 0.15304 0.0
C2137 C 0.94144 0.56787 0.1149 0.0
O2138 O 0.93788 0.52874 0.0904 0.0
C2139 C 0.93829 0.5406 0.1594 0.0
O2140 O 0.92695 0.52168 0.11171 0.0
O2141 O 0.92685 0.53874 0.15101 0.0
C2142 C 0.46699 0.22597 0.36261 0.0
O2143 O 0.45851 0.226 0.35113 0.0
Cd2144 Cd 0.4444 0.20493 0.34344 0.0
O2145 O 0.46704 0.21483 0.37167 0.0
Cd2146 Cd 0.45265 0.19083 0.3756 0.0
C2147 C 0.47259 0.17779 0.34685 0.0
O2148 O 0.42945 0.19964 0.36482 0.0
O2149 O 0.43062 0.17568 0.36681 0.0
O2150 O 0.45072 0.20002 0.40097 0.0
C2151 C 0.42288 0.18714 0.36337 0.0
O2152 O 0.4643 0.1864 0.33895 0.0
C2153 C 0.45161 0.1873 0.40736 0.0
O2154 O 0.47102 0.17701 0.36105 0.0
O2155 O 0.4538 0.17599 0.39891 0.0
C2156 C 0.76874 0.73005 0.6144 0.0
O2157 O 0.7699 0.72508 0.60107 0.0
Cd2158 Cd 0.78693 0.70569 0.59342 0.0
O2159 O 0.77718 0.72514 0.62486 0.0
Cd2160 Cd 0.79824 0.70731 0.62728 0.0
C2161 C 0.81858 0.72576 0.60151 0.0
O2162 O 0.78692 0.68728 0.61276 0.0
O2163 O 0.81048 0.68442 0.61735 0.0
O2164 O 0.7878 0.70243 0.65176 0.0
C2165 C 0.79844 0.67899 0.61195 0.0
O2166 O 0.81101 0.7185 0.59178 0.0
C2167 C 0.80031 0.70151 0.65856 0.0
O2168 O 0.81536 0.72517 0.61545 0.0
O2169 O 0.81206 0.70428 0.6509 0.0
C2170 C 0.26906 0.01539 0.86558 0.0
O2171 O 0.27623 0.01391 0.85332 0.0
Cd2172 Cd 0.29382 0.03189 0.84431 0.0
O2173 O 0.27155 0.02645 0.87434 0.0
Cd2174 Cd 0.28806 0.04896 0.87619 0.0
C2175 C 0.2689 0.06199 0.84659 0.0
O2176 O 0.30994 0.03781 0.86474 0.0
O2177 O 0.31067 0.06189 0.86649 0.0
O2178 O 0.29105 0.04083 0.90177 0.0
C2179 C 0.31732 0.04982 0.86282 0.0
O2180 O 0.27641 0.05234 0.83913 0.0
C2181 C 0.29122 0.05386 0.90756 0.0
O2182 O 0.27048 0.06328 0.86077 0.0
O2183 O 0.28884 0.06488 0.89876 0.0
C2184 C 0.97414 0.72131 0.12766 0.0
O2185 O 0.97553 0.71404 0.13986 0.0
Cd2186 Cd 0.95707 0.69688 0.14875 0.0
O2187 O 0.96301 0.71907 0.11893 0.0
Cd2188 Cd 0.94025 0.70297 0.11656 0.0
C2189 C 0.92723 0.72234 0.14594 0.0
O2190 O 0.95105 0.68107 0.12818 0.0
O2191 O 0.92702 0.68029 0.12598 0.0
O2192 O 0.94973 0.70053 0.09145 0.0
C2193 C 0.93902 0.67371 0.12999 0.0
O2194 O 0.93684 0.7147 0.15334 0.0
C2195 C 0.93706 0.70025 0.08492 0.0
O2196 O 0.92585 0.7208 0.13176 0.0
O2197 O 0.9255 0.70217 0.09314 0.0
C2198 C 0.27703 0.22726 0.38133 0.0
O2199 O 0.28592 0.22709 0.3925 0.0
Cd2200 Cd 0.30139 0.20654 0.39905 0.0
O2201 O 0.27683 0.21641 0.37193 0.0
Cd2202 Cd 0.29107 0.19259 0.36699 0.0
C2203 C 0.27381 0.17868 0.39724 0.0
O2204 O 0.31459 0.2017 0.37651 0.0
O2205 O 0.31383 0.17777 0.37418 0.0
O2206 O 0.29184 0.20158 0.34147 0.0
C2207 C 0.32149 0.18933 0.37744 0.0
O2208 O 0.28264 0.1872 0.40467 0.0
C2209 C 0.29071 0.18877 0.33528 0.0
O2210 O 0.27407 0.17845 0.38293 0.0
O2211 O 0.28865 0.1776 0.34394 0.0
C2212 C 0.77538 0.5154 0.61407 0.0
O2213 O 0.77455 0.52652 0.60534 0.0
Cd2214 Cd 0.7993 0.53628 0.61444 0.0
O2215 O 0.78749 0.51386 0.62127 0.0
Cd2216 Cd 0.80538 0.53573 0.61354 0.0
C2217 C 0.82068 0.51719 0.63518 0.0
O2218 O 0.79256 0.55873 0.62505 0.0
O2219 O 0.81593 0.55585 0.63034 0.0
O2220 O 0.79622 0.53872 0.58729 0.0
C2221 C 0.80404 0.56361 0.63185 0.0
O2222 O 0.80817 0.52329 0.63808 0.0
C2223 C 0.80896 0.54217 0.5819 0.0
O2224 O 0.82613 0.51949 0.62225 0.0
O2225 O 0.82004 0.5418 0.5909 0.0
C2226 C 0.47665 0.02305 0.865 0.0
O2227 O 0.46311 0.02115 0.86127 0.0
Cd2228 Cd 0.45714 0.04755 0.86544 0.0
O2229 O 0.4808 0.03639 0.86771 0.0
Cd2230 Cd 0.45814 0.05452 0.86293 0.0
C2231 C 0.47782 0.06915 0.8844 0.0
O2232 O 0.4343 0.0438 0.87551 0.0
O2233 O 0.43827 0.0673 0.87893 0.0
O2234 O 0.45409 0.04335 0.83805 0.0
C2235 C 0.4298 0.05602 0.88111 0.0
O2236 O 0.47196 0.05656 0.88753 0.0
C2237 C 0.45192 0.05572 0.83131 0.0
O2238 O 0.47484 0.0747 0.87163 0.0
O2239 O 0.4532 0.06763 0.83911 0.0
C2240 C 0.61245 0.9766 0.02302 0.0
O2241 O 0.60038 0.97576 0.03059 0.0
Cd2242 Cd 0.59304 0.95541 0.04582 0.0
O2243 O 0.62237 0.96625 0.02373 0.0
Cd2244 Cd 0.62622 0.94262 0.03862 0.0
C2245 C 0.59785 0.92668 0.01984 0.0
O2246 O 0.61471 0.95236 0.06096 0.0
O2247 O 0.61791 0.92855 0.06156 0.0
O2248 O 0.65191 0.95102 0.04112 0.0
C2249 C 0.61378 0.94034 0.0684 0.0
O2250 O 0.58928 0.93502 0.02773 0.0
C2251 C 0.65777 0.93804 0.04021 0.0
O2252 O 0.61207 0.9274 0.02112 0.0
O2253 O 0.64892 0.92714 0.03762 0.0
C2254 C 0.11402 0.76487 0.22778 0.0
O2255 O 0.10087 0.76415 0.22228 0.0
Cd2256 Cd 0.09102 0.78179 0.20469 0.0
O2257 O 0.12321 0.77504 0.22363 0.0
Cd2258 Cd 0.12409 0.79657 0.20588 0.0
C2259 C 0.09753 0.81331 0.22668 0.0
O2260 O 0.10932 0.78561 0.18557 0.0
O2261 O 0.11282 0.80953 0.18435 0.0
O2262 O 0.14877 0.78722 0.19995 0.0
C2263 C 0.10754 0.79775 0.17832 0.0
O2264 O 0.0886 0.80393 0.22055 0.0
C2265 C 0.15524 0.79992 0.1997 0.0
O2266 O 0.11159 0.81301 0.22395 0.0
O2267 O 0.14726 0.81131 0.20305 0.0
C2268 C 0.21735 0.37749 0.47783 0.0
O2269 O 0.21895 0.38601 0.46662 0.0
Cd2270 Cd 0.19379 0.37863 0.4566 0.0
O2271 O 0.20476 0.37119 0.47928 0.0
Cd2272 Cd 0.18762 0.37988 0.45718 0.0
C2273 C 0.17164 0.3584 0.47531 0.0
O2274 O 0.19999 0.3687 0.43378 0.0
O2275 O 0.17654 0.3638 0.43668 0.0
O2276 O 0.19811 0.40562 0.45455 0.0
C2277 C 0.18833 0.36235 0.42875 0.0
O2278 O 0.18393 0.35511 0.46896 0.0
C2279 C 0.18566 0.4117 0.45117 0.0
O2280 O 0.16665 0.37157 0.47331 0.0
O2281 O 0.17411 0.40331 0.45159 0.0
C2282 C 0.63178 0.47799 0.72032 0.0
O2283 O 0.64321 0.47829 0.71177 0.0
Cd2284 Cd 0.65081 0.45874 0.69563 0.0
O2285 O 0.62247 0.46706 0.71983 0.0
Cd2286 Cd 0.61847 0.44371 0.70447 0.0
C2287 C 0.64853 0.42987 0.72217 0.0
O2288 O 0.62868 0.45411 0.68184 0.0
O2289 O 0.6267 0.43017 0.68126 0.0
O2290 O 0.59248 0.45142 0.70291 0.0
C2291 C 0.63018 0.44215 0.67438 0.0
O2292 O 0.65601 0.43888 0.7139 0.0
C2293 C 0.587 0.43827 0.70376 0.0
O2294 O 0.63425 0.42926 0.72141 0.0
O2295 O 0.59622 0.42758 0.70598 0.0
C2296 C 0.01834 0.87786 0.4728 0.0
O2297 O 0.01689 0.89017 0.46572 0.0
Cd2298 Cd 0.03506 0.899 0.44821 0.0
O2299 O 0.02934 0.86905 0.47018 0.0
Cd2300 Cd 0.05176 0.86679 0.45359 0.0
C2301 C 0.06527 0.89592 0.47307 0.0
O2302 O 0.04056 0.87858 0.43195 0.0
O2303 O 0.06461 0.87645 0.43088 0.0
O2304 O 0.04236 0.84167 0.45072 0.0
C2305 C 0.05251 0.88034 0.42442 0.0
O2306 O 0.05561 0.90346 0.46565 0.0
C2307 C 0.05506 0.83523 0.45007 0.0
O2308 O 0.06652 0.88174 0.47136 0.0
O2309 O 0.06659 0.84345 0.45211 0.0
C2310 C 0.63346 0.26423 0.01912 0.0
O2311 O 0.64546 0.26512 0.02679 0.0
Cd2312 Cd 0.652 0.28519 0.04282 0.0
O2313 O 0.62315 0.27416 0.02042 0.0
Cd2314 Cd 0.61858 0.29701 0.03638 0.0
C2315 C 0.64605 0.31417 0.01741 0.0
O2316 O 0.63072 0.28755 0.05867 0.0
O2317 O 0.62699 0.31133 0.05897 0.0
O2318 O 0.59313 0.28804 0.03979 0.0
C2319 C 0.63138 0.29972 0.06595 0.0
O2320 O 0.65496 0.30598 0.02508 0.0
C2321 C 0.58699 0.3009 0.03897 0.0
O2322 O 0.63187 0.31304 0.01888 0.0
O2323 O 0.59551 0.31193 0.0359 0.0
C2324 C 0.21802 0.36479 0.26575 0.0
O2325 O 0.21932 0.35624 0.27697 0.0
Cd2326 Cd 0.19405 0.36387 0.28656 0.0
O2327 O 0.20553 0.37131 0.26412 0.0
Cd2328 Cd 0.18781 0.36264 0.28575 0.0
C2329 C 0.17237 0.3846 0.26774 0.0
O2330 O 0.19962 0.37392 0.30948 0.0
O2331 O 0.17618 0.37853 0.30603 0.0
O2332 O 0.19837 0.3369 0.28798 0.0
C2333 C 0.18777 0.3802 0.3142 0.0
O2334 O 0.18465 0.38756 0.27427 0.0
C2335 C 0.18598 0.33069 0.29128 0.0
O2336 O 0.1672 0.37143 0.26936 0.0
O2337 O 0.17437 0.33902 0.29107 0.0
C2338 C 0.52722 0.87945 0.76614 0.0
O2339 O 0.52579 0.88713 0.77797 0.0
Cd2340 Cd 0.55103 0.87888 0.787 0.0
O2341 O 0.5398 0.87329 0.76399 0.0
Cd2342 Cd 0.55764 0.88003 0.78613 0.0
C2343 C 0.57201 0.8582 0.76717 0.0
O2344 O 0.54577 0.8681 0.80966 0.0
O2345 O 0.56887 0.86268 0.80518 0.0
O2346 O 0.54865 0.90615 0.78973 0.0
C2347 C 0.55748 0.86108 0.81363 0.0
O2348 O 0.5596 0.85543 0.77355 0.0
C2349 C 0.56149 0.91148 0.79291 0.0
O2350 O 0.57771 0.87105 0.76937 0.0
O2351 O 0.57256 0.90248 0.79211 0.0
C2352 C 0.47729 0.37726 0.51793 0.0
O2353 O 0.47146 0.39028 0.51759 0.0
Cd2354 Cd 0.45361 0.39887 0.5356 0.0
O2355 O 0.47354 0.36776 0.52796 0.0
Cd2356 Cd 0.45627 0.36584 0.5498 0.0
C2357 C 0.47587 0.393 0.56696 0.0
O2358 O 0.43547 0.37935 0.53858 0.0
O2359 O 0.43346 0.37563 0.56237 0.0
O2360 O 0.45234 0.34098 0.54 0.0
C2361 C 0.42757 0.38054 0.55036 0.0
O2362 O 0.46937 0.40182 0.55774 0.0
C2363 C 0.45181 0.33437 0.55262 0.0
O2364 O 0.47371 0.37886 0.56643 0.0
O2365 O 0.45416 0.3424 0.56421 0.0
C2366 C 0.61405 0.21543 0.2676 0.0
O2367 O 0.6032 0.20616 0.26723 0.0
Cd2368 Cd 0.59543 0.19135 0.28776 0.0
O2369 O 0.62277 0.21609 0.27899 0.0
Cd2370 Cd 0.62684 0.20194 0.30315 0.0
C2371 C 0.59615 0.21984 0.31491 0.0
O2372 O 0.61743 0.1782 0.29445 0.0
O2373 O 0.61839 0.18001 0.31842 0.0
O2374 O 0.65255 0.20048 0.2949 0.0
C2375 C 0.6156 0.17191 0.30704 0.0
O2376 O 0.58923 0.21088 0.30612 0.0
C2377 C 0.65843 0.20132 0.30786 0.0
O2378 O 0.61042 0.21945 0.31618 0.0
O2379 O 0.64955 0.2037 0.31882 0.0
C2380 C 0.76492 0.36347 0.01971 0.0
O2381 O 0.76951 0.35012 0.02189 0.0
Cd2382 Cd 0.78863 0.34317 0.03946 0.0
O2383 O 0.76992 0.37436 0.02756 0.0
Cd2384 Cd 0.78726 0.37739 0.0491 0.0
C2385 C 0.76846 0.35269 0.0705 0.0
O2386 O 0.807 0.36251 0.03781 0.0
O2387 O 0.81054 0.36778 0.0611 0.0
O2388 O 0.79167 0.40228 0.03916 0.0
C2389 C 0.81567 0.36213 0.04907 0.0
O2390 O 0.77583 0.34248 0.06368 0.0
C2391 C 0.79234 0.40878 0.05185 0.0
O2392 O 0.76918 0.36636 0.06639 0.0
O2393 O 0.78987 0.40071 0.06337 0.0
C2394 C 0.63178 0.52112 0.76846 0.0
O2395 O 0.64404 0.52821 0.77023 0.0
Cd2396 Cd 0.6502 0.54372 0.79099 0.0
O2397 O 0.62121 0.52222 0.77808 0.0
Cd2398 Cd 0.61716 0.53665 0.80174 0.0
C2399 C 0.64434 0.51747 0.81871 0.0
O2400 O 0.62901 0.55956 0.79336 0.0
O2401 O 0.62683 0.55802 0.81725 0.0
O2402 O 0.5917 0.54026 0.79303 0.0
C2403 C 0.63052 0.56589 0.80595 0.0
O2404 O 0.6533 0.52664 0.81233 0.0
C2405 C 0.58559 0.53912 0.80587 0.0
O2406 O 0.63035 0.51746 0.8158 0.0
O2407 O 0.59416 0.53594 0.81684 0.0
C2408 C 0.47615 0.3625 0.2247 0.0
O2409 O 0.47005 0.34961 0.22491 0.0
Cd2410 Cd 0.45221 0.34144 0.20676 0.0
O2411 O 0.47277 0.37211 0.21462 0.0
Cd2412 Cd 0.45594 0.37424 0.19246 0.0
C2413 C 0.47499 0.34642 0.17567 0.0
O2414 O 0.43474 0.36157 0.20378 0.0
O2415 O 0.43295 0.36488 0.17992 0.0
O2416 O 0.45246 0.39957 0.20135 0.0
C2417 C 0.42684 0.36046 0.19201 0.0
O2418 O 0.46813 0.33779 0.1848 0.0
C2419 C 0.45236 0.40568 0.18847 0.0
O2420 O 0.4732 0.36061 0.17618 0.0
O2421 O 0.45476 0.39716 0.17726 0.0
C2422 C 0.63339 0.22011 0.97171 0.0
O2423 O 0.64581 0.21346 0.96938 0.0
Cd2424 Cd 0.65108 0.19764 0.9486 0.0
O2425 O 0.62232 0.21826 0.96278 0.0
Cd2426 Cd 0.61738 0.20294 0.93979 0.0
C2427 C 0.64242 0.22293 0.92074 0.0
O2428 O 0.63058 0.18072 0.94802 0.0
O2429 O 0.62727 0.18164 0.92422 0.0
O2430 O 0.59282 0.19885 0.95056 0.0
C2431 C 0.63171 0.17414 0.9355 0.0
O2432 O 0.65215 0.21431 0.92674 0.0
C2433 C 0.58566 0.19926 0.93823 0.0
O2434 O 0.62865 0.22239 0.92451 0.0
O2435 O 0.59324 0.2021 0.92646 0.0
C2436 C 0.76501 0.36715 0.71791 0.0
O2437 O 0.7745 0.35668 0.71732 0.0
Cd2438 Cd 0.78417 0.36592 0.69245 0.0
O2439 O 0.76414 0.37554 0.70655 0.0
Cd2440 Cd 0.7837 0.36528 0.68718 0.0
C2441 C 0.76492 0.38619 0.67113 0.0
O2442 O 0.80769 0.37537 0.69852 0.0
O2443 O 0.80389 0.3813 0.67545 0.0
O2444 O 0.78615 0.33896 0.69665 0.0
C2445 C 0.81233 0.38214 0.68694 0.0
O2446 O 0.77147 0.38974 0.68323 0.0
C2447 C 0.78864 0.33328 0.68382 0.0
O2448 O 0.76686 0.37291 0.66647 0.0
O2449 O 0.7881 0.34217 0.67268 0.0
C2450 C 0.61033 0.52077 0.47613 0.0
O2451 O 0.5983 0.52816 0.47399 0.0
Cd2452 Cd 0.59361 0.54538 0.45423 0.0
O2453 O 0.62156 0.52231 0.46734 0.0
Cd2454 Cd 0.62694 0.53789 0.44464 0.0
C2455 C 0.5997 0.52057 0.42551 0.0
O2456 O 0.61552 0.56046 0.45421 0.0
O2457 O 0.61888 0.56086 0.43044 0.0
O2458 O 0.65262 0.54019 0.45337 0.0
C2459 C 0.6149 0.56791 0.44217 0.0
O2460 O 0.59067 0.52976 0.43176 0.0
C2461 C 0.65855 0.53912 0.44042 0.0
O2462 O 0.6135 0.52006 0.42917 0.0
O2463 O 0.64975 0.53652 0.42949 0.0
C2464 C 0.01467 0.47161 0.88321 0.0
O2465 O 0.01576 0.46453 0.89555 0.0
Cd2466 Cd 0.03681 0.45023 0.903 0.0
O2467 O 0.02496 0.47064 0.87325 0.0
Cd2468 Cd 0.04871 0.45588 0.86979 0.0
C2469 C 0.06505 0.47632 0.89659 0.0
O2470 O 0.04009 0.43346 0.88251 0.0
O2471 O 0.06392 0.43429 0.87912 0.0
O2472 O 0.04008 0.45186 0.84436 0.0
C2473 C 0.05261 0.42686 0.88357 0.0
O2474 O 0.05704 0.46874 0.90572 0.0
C2475 C 0.05292 0.45308 0.83826 0.0
O2476 O 0.06396 0.47437 0.88247 0.0
O2477 O 0.06386 0.45636 0.84683 0.0
C2478 C 0.51333 0.78004 0.61036 0.0
O2479 O 0.52658 0.77736 0.60605 0.0
Cd2480 Cd 0.53534 0.80223 0.61416 0.0
O2481 O 0.51072 0.79314 0.61522 0.0
Cd2482 Cd 0.53497 0.80935 0.61216 0.0
C2483 C 0.51524 0.82358 0.63391 0.0
O2484 O 0.55706 0.79606 0.62558 0.0
O2485 O 0.55515 0.81987 0.62902 0.0
O2486 O 0.53941 0.79895 0.58697 0.0
C2487 C 0.5624 0.80781 0.6315 0.0
O2488 O 0.52045 0.81057 0.63635 0.0
C2489 C 0.54295 0.81133 0.5809 0.0
O2490 O 0.51893 0.82987 0.62167 0.0
O2491 O 0.54213 0.823 0.58911 0.0
C2492 C 0.23072 0.27234 0.38278 0.0
O2493 O 0.22986 0.27972 0.39496 0.0
Cd2494 Cd 0.20919 0.29468 0.40237 0.0
O2495 O 0.22042 0.27335 0.37283 0.0
Cd2496 Cd 0.1969 0.28832 0.36918 0.0
C2497 C 0.18078 0.26868 0.39672 0.0
O2498 O 0.20536 0.31096 0.3816 0.0
O2499 O 0.18153 0.30982 0.37827 0.0
O2500 O 0.20488 0.29213 0.3435 0.0
C2501 C 0.19275 0.31738 0.38274 0.0
O2502 O 0.18879 0.27649 0.40568 0.0
C2503 C 0.19195 0.29035 0.33772 0.0
O2504 O 0.1819 0.27024 0.38256 0.0
O2505 O 0.18132 0.28688 0.3466 0.0
C2506 C 0.72821 0.96682 0.11611 0.0
O2507 O 0.71729 0.9678 0.10713 0.0
Cd2508 Cd 0.7077 0.94256 0.11502 0.0
O2509 O 0.72972 0.95451 0.12295 0.0
Cd2510 Cd 0.70842 0.93654 0.11393 0.0
C2511 C 0.72667 0.92079 0.13548 0.0
O2512 O 0.68467 0.94836 0.12496 0.0
O2513 O 0.68811 0.92501 0.12995 0.0
O2514 O 0.70606 0.94674 0.088 0.0
C2515 C 0.67993 0.93662 0.13141 0.0
O2516 O 0.72017 0.93302 0.13868 0.0
C2517 C 0.70313 0.93418 0.08195 0.0
O2518 O 0.72488 0.9158 0.12228 0.0
O2519 O 0.70346 0.92273 0.09048 0.0
C2520 C 0.01785 0.2665 0.86223 0.0
O2521 O 0.0175 0.27226 0.84917 0.0
Cd2522 Cd 0.03569 0.28964 0.84003 0.0
O2523 O 0.02803 0.27012 0.87163 0.0
Cd2524 Cd 0.0502 0.28695 0.87296 0.0
C2525 C 0.06649 0.26669 0.84567 0.0
O2526 O 0.03934 0.30796 0.85926 0.0
O2527 O 0.06325 0.30905 0.86279 0.0
O2528 O 0.04223 0.2914 0.89848 0.0
C2529 C 0.05143 0.31533 0.85787 0.0
O2530 O 0.05747 0.27332 0.83674 0.0
C2531 C 0.05529 0.29075 0.90419 0.0
O2532 O 0.06597 0.26904 0.85977 0.0
O2533 O 0.0661 0.28777 0.89535 0.0
C2534 C 0.72827 0.7789 0.62679 0.0
O2535 O 0.71702 0.77764 0.6353 0.0
Cd2536 Cd 0.7074 0.80281 0.62757 0.0
O2537 O 0.72993 0.79136 0.62026 0.0
Cd2538 Cd 0.70809 0.80895 0.62872 0.0
C2539 C 0.7263 0.8245 0.60699 0.0
O2540 O 0.68463 0.79663 0.61755 0.0
O2541 O 0.68775 0.82 0.61239 0.0
O2542 O 0.70571 0.79861 0.65454 0.0
C2543 C 0.67976 0.80825 0.61099 0.0
O2544 O 0.71985 0.81221 0.60394 0.0
C2545 C 0.70201 0.81098 0.66056 0.0
O2546 O 0.72445 0.82969 0.62012 0.0
O2547 O 0.70212 0.8225 0.65212 0.0
C2548 C 0.22764 0.47186 0.35976 0.0
O2549 O 0.22653 0.46502 0.34728 0.0
Cd2550 Cd 0.20564 0.45056 0.33968 0.0
O2551 O 0.21742 0.47063 0.36975 0.0
Cd2552 Cd 0.19377 0.45563 0.37292 0.0
C2553 C 0.17699 0.47613 0.34635 0.0
O2554 O 0.20277 0.43346 0.35997 0.0
O2555 O 0.17894 0.4338 0.36344 0.0
O2556 O 0.20256 0.4514 0.39828 0.0
C2557 C 0.19039 0.42661 0.35892 0.0
O2558 O 0.18511 0.46873 0.33715 0.0
C2559 C 0.18974 0.45247 0.40446 0.0
O2560 O 0.17815 0.47408 0.36044 0.0
O2561 O 0.17873 0.45574 0.39597 0.0
C2562 C 0.51907 0.97297 0.11431 0.0
O2563 O 0.52435 0.97133 0.10115 0.0
Cd2564 Cd 0.54279 0.95296 0.09443 0.0
O2565 O 0.52307 0.96433 0.125 0.0
Cd2566 Cd 0.53939 0.94204 0.12807 0.0
C2567 C 0.52027 0.92292 0.10199 0.0
O2568 O 0.5605 0.95231 0.11449 0.0
O2569 O 0.56192 0.92857 0.11855 0.0
O2570 O 0.54337 0.95187 0.15297 0.0
C2571 C 0.56823 0.9404 0.11374 0.0
O2572 O 0.52838 0.92976 0.09238 0.0
C2573 C 0.54362 0.93923 0.15956 0.0
O2574 O 0.52074 0.92627 0.11588 0.0
O2575 O 0.54101 0.9277 0.15153 0.0
C2576 C 0.38122 0.01798 0.96979 0.0
O2577 O 0.39327 0.01854 0.96217 0.0
Cd2578 Cd 0.40093 0.03906 0.94733 0.0
O2579 O 0.37142 0.02844 0.96884 0.0
Cd2580 Cd 0.36763 0.05173 0.95329 0.0
C2581 C 0.39472 0.06746 0.97357 0.0
O2582 O 0.38026 0.0428 0.93108 0.0
O2583 O 0.37775 0.06672 0.93179 0.0
O2584 O 0.3425 0.04229 0.94955 0.0
C2585 C 0.38201 0.05525 0.9245 0.0
O2586 O 0.40355 0.0592 0.96588 0.0
C2587 C 0.33598 0.05497 0.94997 0.0
O2588 O 0.38055 0.06685 0.97174 0.0
O2589 O 0.34418 0.06634 0.95271 0.0
C2590 C 0.87889 0.22553 0.76885 0.0
O2591 O 0.89177 0.22605 0.77496 0.0
Cd2592 Cd 0.90074 0.20774 0.79228 0.0
O2593 O 0.86948 0.21529 0.77228 0.0
Cd2594 Cd 0.86738 0.19337 0.78937 0.0
C2595 C 0.89449 0.17701 0.76903 0.0
O2596 O 0.88148 0.20359 0.81033 0.0
O2597 O 0.87774 0.17973 0.81109 0.0
O2598 O 0.84275 0.20336 0.79434 0.0
C2599 C 0.88302 0.19134 0.81743 0.0
O2600 O 0.90327 0.18613 0.77574 0.0
C2601 C 0.83593 0.19084 0.79443 0.0
O2602 O 0.88035 0.17731 0.77131 0.0
O2603 O 0.8437 0.17922 0.7914 0.0
C2604 C 0.76608 0.62953 0.51798 0.0
O2605 O 0.76484 0.64218 0.52447 0.0
Cd2606 Cd 0.78246 0.6518 0.54209 0.0
O2607 O 0.77693 0.62065 0.52097 0.0
Cd2608 Cd 0.79944 0.61931 0.53747 0.0
C2609 C 0.8131 0.64859 0.51801 0.0
O2610 O 0.78761 0.63145 0.55852 0.0
O2611 O 0.81152 0.62894 0.56064 0.0
O2612 O 0.79219 0.59341 0.54046 0.0
C2613 C 0.79926 0.63328 0.56646 0.0
O2614 O 0.80341 0.65642 0.52509 0.0
C2615 C 0.80545 0.58814 0.5404 0.0
O2616 O 0.81408 0.63444 0.51998 0.0
O2617 O 0.8161 0.5974 0.53815 0.0
C2618 C 0.36536 0.52156 0.26635 0.0
O2619 O 0.35214 0.52293 0.27156 0.0
Cd2620 Cd 0.34499 0.54093 0.29026 0.0
O2621 O 0.37585 0.53038 0.27046 0.0
Cd2622 Cd 0.3783 0.55266 0.28683 0.0
C2623 C 0.35151 0.57154 0.26827 0.0
O2624 O 0.3651 0.54174 0.30792 0.0
O2625 O 0.36898 0.56552 0.30973 0.0
O2626 O 0.40352 0.54344 0.29045 0.0
C2627 C 0.36441 0.55351 0.31588 0.0
O2628 O 0.34214 0.56437 0.27637 0.0
C2629 C 0.40978 0.55626 0.2904 0.0
O2630 O 0.36547 0.56844 0.26854 0.0
O2631 O 0.40139 0.56755 0.28791 0.0
C2632 C 0.97698 0.11698 0.51963 0.0
O2633 O 0.9806 0.10599 0.52796 0.0
Cd2634 Cd 0.96179 0.09385 0.54261 0.0
O2635 O 0.9643 0.12349 0.5211 0.0
Cd2636 Cd 0.94246 0.12398 0.53851 0.0
C2637 C 0.93186 0.09575 0.51697 0.0
O2638 O 0.9531 0.11162 0.56042 0.0
O2639 O 0.92892 0.11168 0.55915 0.0
O2640 O 0.95042 0.14926 0.54315 0.0
C2641 C 0.94066 0.1082 0.56646 0.0
O2642 O 0.94232 0.0887 0.52378 0.0
C2643 C 0.9374 0.15508 0.54342 0.0
O2644 O 0.92903 0.10948 0.5199 0.0
O2645 O 0.92636 0.14643 0.54059 0.0
C2646 C 0.36138 0.72673 0.97523 0.0
O2647 O 0.34827 0.72667 0.96958 0.0
Cd2648 Cd 0.33957 0.70808 0.9525 0.0
O2649 O 0.37109 0.71688 0.97151 0.0
Cd2650 Cd 0.37313 0.69491 0.95441 0.0
C2651 C 0.34724 0.6776 0.97547 0.0
O2652 O 0.35845 0.70507 0.93377 0.0
O2653 O 0.36248 0.68127 0.93279 0.0
O2654 O 0.39771 0.70476 0.94885 0.0
C2655 C 0.35709 0.69289 0.92655 0.0
O2656 O 0.33792 0.68636 0.96903 0.0
C2657 C 0.40441 0.69217 0.94867 0.0
O2658 O 0.36128 0.67845 0.97276 0.0
O2659 O 0.39662 0.68065 0.95193 0.0
C2660 C 0.76736 0.61107 0.72764 0.0
O2661 O 0.76927 0.59767 0.72312 0.0
Cd2662 Cd 0.78765 0.59025 0.70482 0.0
O2663 O 0.77571 0.62168 0.72291 0.0
Cd2664 Cd 0.79768 0.62429 0.70617 0.0
C2665 C 0.81813 0.59971 0.72602 0.0
O2666 O 0.78791 0.609 0.68573 0.0
O2667 O 0.81147 0.61426 0.68433 0.0
O2668 O 0.78729 0.64871 0.70066 0.0
C2669 C 0.79998 0.60845 0.67821 0.0
O2670 O 0.81132 0.58953 0.71862 0.0
C2671 C 0.79975 0.65567 0.70082 0.0
O2672 O 0.8143 0.61346 0.72504 0.0
O2673 O 0.81139 0.64805 0.70408 0.0
C2674 C 0.4772 0.13148 0.22508 0.0
O2675 O 0.4751 0.14394 0.21844 0.0
Cd2676 Cd 0.45516 0.14966 0.20167 0.0
O2677 O 0.46828 0.12045 0.22297 0.0
Cd2678 Cd 0.44556 0.11605 0.2071 0.0
C2679 C 0.42587 0.14214 0.22553 0.0
O2680 O 0.45512 0.12882 0.18518 0.0
O2681 O 0.43136 0.12511 0.1846 0.0
O2682 O 0.45514 0.09093 0.20302 0.0
C2683 C 0.44305 0.12954 0.17775 0.0
O2684 O 0.43242 0.1516 0.21703 0.0
C2685 C 0.44239 0.08451 0.20327 0.0
O2686 O 0.42952 0.12832 0.22545 0.0
O2687 O 0.43112 0.09269 0.20643 0.0
C2688 C 0.0602 0.19478 0.44364 0.0
C2689 C 0.06903 0.19692 0.43073 0.0
H2690 H 0.04397 0.18088 0.45458 0.0
C2691 C 0.06524 0.18924 0.41746 0.0
H2692 H 0.06264 0.2008 0.45395 0.0
C2693 C 0.0545 0.17781 0.41782 0.0
C2694 C 0.04752 0.174 0.43146 0.0
H2695 H 0.0717 0.19086 0.40726 0.0
H2696 H 0.05294 0.17095 0.40787 0.0
C2697 C 0.04952 0.18334 0.44402 0.0
C2698 C 0.79733 0.30945 0.6955 0.0
C2699 C 0.79515 0.31812 0.68248 0.0
H2700 H 0.81101 0.29301 0.70642 0.0
C2701 C 0.80237 0.31384 0.66911 0.0
H2702 H 0.79163 0.31227 0.7059 0.0
C2703 C 0.81349 0.30277 0.6694 0.0
C2704 C 0.81745 0.29593 0.68308 0.0
H2705 H 0.80068 0.32013 0.65882 0.0
H2706 H 0.82005 0.30083 0.65932 0.0
C2707 C 0.80844 0.29841 0.6958 0.0
C2708 C 0.6815 0.04639 0.94612 0.0
C2709 C 0.6712 0.04435 0.93435 0.0
H2710 H 0.69976 0.05952 0.95449 0.0
C2711 C 0.67427 0.05078 0.92025 0.0
H2712 H 0.6796 0.04127 0.95701 0.0
C2713 C 0.68581 0.06134 0.91881 0.0
C2714 C 0.69433 0.06543 0.93147 0.0
H2715 H 0.66663 0.0492 0.91089 0.0
H2716 H 0.68676 0.06756 0.90839 0.0
C2717 C 0.69305 0.05688 0.94468 0.0
C2718 C 0.9451 0.93061 0.19908 0.0
C2719 C 0.94742 0.92123 0.1866 0.0
H2720 H 0.9319 0.94828 0.20854 0.0
C2721 C 0.94104 0.9252 0.17271 0.0
H2722 H 0.95015 0.92799 0.20985 0.0
C2723 C 0.93048 0.93681 0.17196 0.0
C2724 C 0.92631 0.94455 0.18509 0.0
H2725 H 0.94281 0.91829 0.16283 0.0
H2726 H 0.92445 0.93855 0.16152 0.0
C2727 C 0.93463 0.94225 0.19832 0.0
C2728 C 0.05134 0.06216 0.79086 0.0
C2729 C 0.04892 0.07082 0.80383 0.0
H2730 H 0.06473 0.04515 0.78049 0.0
C2731 C 0.05514 0.06603 0.81754 0.0
H2732 H 0.04637 0.06538 0.78021 0.0
C2733 C 0.06568 0.05436 0.8177 0.0
C2734 C 0.07005 0.04749 0.80416 0.0
H2735 H 0.05327 0.07237 0.82777 0.0
H2736 H 0.07168 0.05209 0.82805 0.0
C2737 C 0.06183 0.05053 0.79103 0.0
C2738 C 0.94325 0.31204 0.0421 0.0
C2739 C 0.94551 0.32095 0.05494 0.0
H2740 H 0.92953 0.2954 0.03156 0.0
C2741 C 0.93837 0.31689 0.06844 0.0
H2742 H 0.94887 0.31469 0.03162 0.0
C2743 C 0.92725 0.30579 0.06841 0.0
C2744 C 0.92322 0.2987 0.05487 0.0
H2745 H 0.94006 0.32343 0.07858 0.0
H2746 H 0.92068 0.30409 0.07852 0.0
C2747 C 0.93217 0.30097 0.04207 0.0
C2748 C 0.68319 0.19368 0.29758 0.0
C2749 C 0.6739 0.19582 0.31017 0.0
H2750 H 0.69996 0.17987 0.28734 0.0
C2751 C 0.67767 0.18867 0.32375 0.0
H2752 H 0.68075 0.1993 0.28705 0.0
C2753 C 0.6887 0.17745 0.32391 0.0
C2754 C 0.696 0.17339 0.3105 0.0
H2755 H 0.67084 0.19025 0.33371 0.0
H2756 H 0.69007 0.17077 0.334 0.0
C2757 C 0.69418 0.18251 0.29774 0.0
C2758 C 0.80726 0.92705 0.56566 0.0
C2759 C 0.80051 0.92284 0.552 0.0
H2760 H 0.82506 0.93944 0.57606 0.0
C2761 C 0.80368 0.93119 0.53899 0.0
H2762 H 0.80486 0.92094 0.57592 0.0
C2763 C 0.81525 0.94175 0.53906 0.0
C2764 C 0.82373 0.94409 0.55216 0.0
H2765 H 0.79839 0.92843 0.52837 0.0
H2766 H 0.81857 0.94684 0.52851 0.0
C2767 C 0.81884 0.93767 0.56574 0.0
C2768 C 0.42654 0.06504 0.19088 0.0
C2769 C 0.44055 0.06938 0.19676 0.0
H2770 H 0.41509 0.05209 0.17415 0.0
C2771 C 0.45337 0.06093 0.19307 0.0
H2772 H 0.41642 0.07123 0.19367 0.0
C2773 C 0.4526 0.04994 0.18192 0.0
C2774 C 0.43901 0.04733 0.17429 0.0
H2775 H 0.46428 0.06383 0.19766 0.0
H2776 H 0.46294 0.04464 0.17826 0.0
C2777 C 0.42577 0.05408 0.17965 0.0
C2778 C 0.93286 0.69782 0.44392 0.0
C2779 C 0.92401 0.68492 0.44608 0.0
H2780 H 0.949 0.70873 0.42988 0.0
C2781 C 0.92815 0.67151 0.43879 0.0
H2782 H 0.93016 0.70822 0.44966 0.0
C2783 C 0.93899 0.67181 0.4274 0.0
C2784 C 0.94573 0.6855 0.4233 0.0
H2785 H 0.92168 0.66132 0.4404 0.0
H2786 H 0.94057 0.66182 0.4206 0.0
C2787 C 0.94366 0.69811 0.43256 0.0
C2788 C 0.29442 0.19153 0.68081 0.0
C2789 C 0.30801 0.19405 0.67315 0.0
H2790 H 0.28243 0.17735 0.69605 0.0
C2791 C 0.32104 0.18652 0.67797 0.0
H2792 H 0.28424 0.19738 0.67756 0.0
C2793 C 0.32001 0.17508 0.6887 0.0
C2794 C 0.30593 0.17103 0.69461 0.0
H2795 H 0.33172 0.18839 0.67242 0.0
H2796 H 0.32992 0.16842 0.69109 0.0
C2797 C 0.29337 0.18005 0.69143 0.0
C2798 C 0.80847 0.54689 0.94309 0.0
C2799 C 0.81615 0.56049 0.94547 0.0
H2800 H 0.79403 0.5345 0.92842 0.0
C2801 C 0.81158 0.57336 0.93754 0.0
H2802 H 0.81149 0.53685 0.94929 0.0
C2803 C 0.80142 0.57202 0.92563 0.0
C2804 C 0.79588 0.5578 0.92155 0.0
H2805 H 0.8171 0.58407 0.93932 0.0
H2806 H 0.79941 0.58175 0.91858 0.0
C2807 C 0.79845 0.54553 0.93112 0.0
C2808 C 0.4449 0.18325 0.05213 0.0
C2809 C 0.43192 0.17444 0.05039 0.0
H2810 H 0.45622 0.19957 0.06563 0.0
C2811 C 0.41885 0.17835 0.05835 0.0
H2812 H 0.45505 0.18073 0.04588 0.0
C2813 C 0.4195 0.18923 0.06967 0.0
C2814 C 0.43325 0.19621 0.0731 0.0
H2815 H 0.40859 0.17192 0.05704 0.0
H2816 H 0.40976 0.19082 0.07681 0.0
C2817 C 0.44556 0.19408 0.06344 0.0
C2818 C 0.80075 0.67553 0.31514 0.0
C2819 C 0.79513 0.68937 0.32032 0.0
H2820 H 0.81714 0.66466 0.3013 0.0
C2821 C 0.79842 0.70249 0.31218 0.0
H2822 H 0.7982 0.66519 0.32104 0.0
C2823 C 0.80926 0.70219 0.30086 0.0
C2824 C 0.81691 0.68877 0.2976 0.0
H2825 H 0.79396 0.71327 0.31569 0.0
H2826 H 0.81285 0.71275 0.29596 0.0
C2827 C 0.81162 0.67523 0.3038 0.0
C2828 C 0.32312 0.06761 0.5558 0.0
C2829 C 0.30967 0.07176 0.54863 0.0
H2830 H 0.33319 0.05411 0.57295 0.0
C2831 C 0.2968 0.06285 0.55058 0.0
H2832 H 0.33327 0.07417 0.5543 0.0
C2833 C 0.29676 0.05136 0.5612 0.0
C2834 C 0.30958 0.0487 0.57001 0.0
H2835 H 0.28636 0.06559 0.54492 0.0
H2836 H 0.28628 0.04558 0.56349 0.0
C2837 C 0.32308 0.0561 0.56646 0.0
C2838 C 0.94466 0.54228 0.8132 0.0
C2839 C 0.94702 0.5553 0.82181 0.0
H2840 H 0.93135 0.53183 0.79617 0.0
C2841 C 0.94103 0.56902 0.81676 0.0
H2842 H 0.94945 0.53161 0.81663 0.0
C2843 C 0.93062 0.56915 0.80498 0.0
C2844 C 0.92617 0.55556 0.79823 0.0
H2845 H 0.94285 0.57929 0.82305 0.0
H2846 H 0.92473 0.57953 0.80254 0.0
C2847 C 0.93429 0.54241 0.80145 0.0
C2848 C 0.18539 0.4226 0.06377 0.0
C2849 C 0.19333 0.43556 0.06809 0.0
H2850 H 0.16668 0.4139 0.05142 0.0
C2851 C 0.19098 0.44901 0.06015 0.0
H2852 H 0.18714 0.41201 0.06953 0.0
C2853 C 0.17921 0.45011 0.04988 0.0
C2854 C 0.16976 0.43773 0.04731 0.0
H2855 H 0.19716 0.45911 0.063 0.0
H2856 H 0.17663 0.461 0.04507 0.0
C2857 C 0.17366 0.42368 0.05338 0.0
C2858 C 0.6735 0.31677 0.19068 0.0
C2859 C 0.66935 0.30268 0.1965 0.0
H2860 H 0.68658 0.3284 0.17418 0.0
C2861 C 0.67829 0.29009 0.19323 0.0
H2862 H 0.66692 0.32671 0.19318 0.0
C2863 C 0.68956 0.29106 0.18239 0.0
C2864 C 0.69196 0.30462 0.17467 0.0
H2865 H 0.67555 0.27915 0.19783 0.0
H2866 H 0.69521 0.28083 0.17893 0.0
C2867 C 0.68477 0.31774 0.17977 0.0
C2868 C 0.66682 0.93083 0.43505 0.0
C2869 C 0.67992 0.92768 0.44333 0.0
H2870 H 0.65762 0.94203 0.41584 0.0
C2871 C 0.69268 0.93672 0.44121 0.0
H2872 H 0.65672 0.9242 0.4366 0.0
C2873 C 0.6932 0.94688 0.4293 0.0
C2874 C 0.68093 0.94817 0.41945 0.0
H2875 H 0.70285 0.93477 0.44765 0.0
H2876 H 0.70373 0.95251 0.4269 0.0
C2877 C 0.66732 0.94107 0.42314 0.0
C2878 C 0.05056 0.94887 0.68267 0.0
C2879 C 0.04867 0.93584 0.67394 0.0
H2880 H 0.06401 0.95997 0.69917 0.0
C2881 C 0.05591 0.92253 0.67838 0.0
H2882 H 0.04483 0.95921 0.67973 0.0
C2883 C 0.06693 0.92296 0.68959 0.0
C2884 C 0.07075 0.93672 0.69636 0.0
H2885 H 0.05448 0.91225 0.67201 0.0
H2886 H 0.0737 0.91301 0.69149 0.0
C2887 C 0.06154 0.9493 0.69384 0.0
C2888 C 0.57161 0.31093 0.43513 0.0
C2889 C 0.55872 0.31532 0.44316 0.0
H2890 H 0.58013 0.29831 0.41651 0.0
C2891 C 0.54535 0.30712 0.44126 0.0
H2892 H 0.58214 0.31688 0.43654 0.0
C2893 C 0.54418 0.29655 0.42975 0.0
C2894 C 0.55641 0.29396 0.42011 0.0
H2895 H 0.53531 0.31001 0.44753 0.0
H2896 H 0.53329 0.2916 0.42745 0.0
C2897 C 0.57046 0.30025 0.42366 0.0
C2898 C 0.04758 0.79581 0.05896 0.0
C2899 C 0.04501 0.80825 0.06833 0.0
H2900 H 0.06118 0.78651 0.0415 0.0
C2901 C 0.05138 0.82219 0.06453 0.0
H2902 H 0.04253 0.785 0.06141 0.0
C2903 C 0.0621 0.82306 0.0531 0.0
C2904 C 0.0665 0.80999 0.0454 0.0
H2905 H 0.04936 0.83206 0.07138 0.0
H2906 H 0.06807 0.83356 0.0515 0.0
C2907 C 0.05826 0.79669 0.04752 0.0
C2908 C 0.69806 0.80813 0.3023 0.0
C2909 C 0.68474 0.81628 0.2999 0.0
H2910 H 0.70978 0.79292 0.31673 0.0
C2911 C 0.67165 0.81201 0.30765 0.0
H2912 H 0.70826 0.81092 0.29624 0.0
C2913 C 0.67251 0.80157 0.31937 0.0
C2914 C 0.68648 0.79541 0.32343 0.0
H2915 H 0.66114 0.81791 0.30586 0.0
H2916 H 0.66266 0.79977 0.3263 0.0
C2917 C 0.69894 0.79779 0.31403 0.0
C2918 C 0.04284 0.44515 0.81347 0.0
C2919 C 0.05532 0.44775 0.82277 0.0
H2920 H 0.03368 0.43198 0.79564 0.0
C2921 C 0.06939 0.44189 0.8186 0.0
H2922 H 0.03193 0.44981 0.81626 0.0
C2923 C 0.07039 0.43154 0.80682 0.0
C2924 C 0.05734 0.42707 0.79912 0.0
H2925 H 0.07925 0.44389 0.82545 0.0
H2926 H 0.081 0.42586 0.80493 0.0
C2927 C 0.04386 0.43493 0.80164 0.0
C2928 C 0.93982 0.81121 0.56902 0.0
C2929 C 0.94731 0.81589 0.55593 0.0
H2930 H 0.92134 0.79875 0.57801 0.0
C2931 C 0.94454 0.80826 0.54237 0.0
H2932 H 0.94191 0.8167 0.57969 0.0
C2933 C 0.93269 0.79805 0.54139 0.0
C2934 C 0.92358 0.79528 0.55397 0.0
H2935 H 0.95038 0.81137 0.53215 0.0
H2936 H 0.92973 0.79357 0.53045 0.0
C2937 C 0.92801 0.80091 0.56805 0.0
C2938 C 0.18215 0.68552 0.32455 0.0
C2939 C 0.17792 0.69342 0.31154 0.0
H2940 H 0.19422 0.66667 0.33337 0.0
C2941 C 0.18596 0.69099 0.29816 0.0
H2942 H 0.17632 0.68732 0.3351 0.0
C2943 C 0.19615 0.67911 0.29716 0.0
C2944 C 0.1985 0.66962 0.30955 0.0
H2945 H 0.18319 0.69713 0.28802 0.0
H2946 H 0.20093 0.67642 0.28628 0.0
C2947 C 0.19244 0.67367 0.32357 0.0
C2948 C 0.318 0.94088 0.07112 0.0
C2949 C 0.3215 0.94709 0.05702 0.0
H2950 H 0.30553 0.92403 0.08291 0.0
C2951 C 0.31203 0.94408 0.04476 0.0
H2952 H 0.32499 0.94316 0.08083 0.0
C2953 C 0.30084 0.93317 0.04597 0.0
C2954 C 0.29908 0.92509 0.05942 0.0
H2955 H 0.31427 0.94896 0.03382 0.0
H2956 H 0.29474 0.92997 0.03592 0.0
C2957 C 0.30685 0.92988 0.07231 0.0
C2958 C 0.06391 0.68632 0.92473 0.0
C2959 C 0.06845 0.69298 0.93832 0.0
H2960 H 0.05092 0.66883 0.91453 0.0
C2961 C 0.06006 0.69021 0.9514 0.0
H2962 H 0.07 0.68846 0.91441 0.0
C2963 C 0.0491 0.67901 0.95145 0.0
C2964 C 0.04646 0.67047 0.93844 0.0
H2965 H 0.06306 0.69548 0.96197 0.0
H2966 H 0.044 0.67591 0.96207 0.0
C2967 C 0.05292 0.67509 0.92479 0.0
C2968 C 0.29787 0.80952 0.69837 0.0
C2969 C 0.2956 0.81843 0.68554 0.0
H2970 H 0.31226 0.79369 0.70929 0.0
C2971 C 0.30327 0.81476 0.67221 0.0
H2972 H 0.29187 0.81187 0.7087 0.0
C2973 C 0.31503 0.80433 0.67256 0.0
C2974 C 0.31911 0.79752 0.68621 0.0
H2975 H 0.30159 0.8213 0.66208 0.0
H2976 H 0.322 0.80308 0.66265 0.0
C2977 C 0.30961 0.79913 0.69871 0.0
C2978 C 0.18754 0.06756 0.42158 0.0
C2979 C 0.19481 0.07189 0.43492 0.0
H2980 H 0.16985 0.0544 0.41191 0.0
C2981 C 0.19264 0.06328 0.44798 0.0
H2982 H 0.18911 0.0739 0.41131 0.0
C2983 C 0.18159 0.05218 0.44835 0.0
C2984 C 0.17263 0.04951 0.43564 0.0
H2985 H 0.19833 0.06617 0.45835 0.0
H2986 H 0.17907 0.04681 0.45899 0.0
C2987 C 0.17649 0.05637 0.42194 0.0
C2988 C 0.54909 0.94561 0.81372 0.0
C2989 C 0.56119 0.94727 0.82373 0.0
H2990 H 0.53988 0.933 0.7955 0.0
C2991 C 0.57492 0.94021 0.82043 0.0
H2992 H 0.53846 0.95118 0.81583 0.0
C2993 C 0.57573 0.9297 0.80877 0.0
C2994 C 0.56281 0.92623 0.80035 0.0
H2995 H 0.58449 0.94143 0.82787 0.0
H2996 H 0.58592 0.92314 0.80753 0.0
C2997 C 0.54991 0.93517 0.80207 0.0
C2998 C 0.0611 0.29499 0.54775 0.0
C2999 C 0.07053 0.30743 0.54542 0.0
H3000 H 0.04337 0.28563 0.56093 0.0
C3001 C 0.0666 0.32135 0.55177 0.0
H3002 H 0.06368 0.2842 0.54271 0.0
C3003 C 0.05499 0.32216 0.56231 0.0
C3004 C 0.0472 0.30907 0.5665 0.0
H3005 H 0.07354 0.3312 0.54998 0.0
H3006 H 0.05329 0.33261 0.56833 0.0
C3007 C 0.04946 0.29582 0.5582 0.0
C3008 C 0.57209 0.81365 0.9386 0.0
C3009 C 0.55863 0.818 0.94563 0.0
H3010 H 0.58207 0.80106 0.92072 0.0
C3011 C 0.54543 0.80986 0.94264 0.0
H3012 H 0.58251 0.81955 0.94088 0.0
C3013 C 0.54517 0.7993 0.93106 0.0
C3014 C 0.55812 0.79674 0.9224 0.0
H3015 H 0.53494 0.81274 0.94813 0.0
H3016 H 0.5345 0.79431 0.92797 0.0
C3017 C 0.57184 0.80305 0.92703 0.0
C3018 C 0.18908 0.29108 0.6815 0.0
C3019 C 0.19212 0.30426 0.67336 0.0
H3020 H 0.1744 0.28025 0.69709 0.0
C3021 C 0.18526 0.31779 0.67779 0.0
H3022 H 0.19446 0.28055 0.67855 0.0
C3023 C 0.17372 0.31762 0.68845 0.0
C3024 C 0.16901 0.30391 0.69472 0.0
H3025 H 0.18755 0.32817 0.67185 0.0
H3026 H 0.16744 0.32786 0.69044 0.0
C3027 C 0.17757 0.29091 0.69211 0.0
C3028 C 0.06908 0.42365 0.18999 0.0
C3029 C 0.07296 0.43761 0.19627 0.0
H3030 H 0.0556 0.41221 0.17368 0.0
C3031 C 0.0635 0.45002 0.19388 0.0
H3032 H 0.07609 0.41385 0.1918 0.0
C3033 C 0.05171 0.44906 0.18361 0.0
C3034 C 0.04935 0.43572 0.17549 0.0
H3035 H 0.06606 0.46084 0.19885 0.0
H3036 H 0.04551 0.45919 0.18092 0.0
C3037 C 0.05733 0.42271 0.1796 0.0
C3038 C 0.29537 0.69437 0.80838 0.0
C3039 C 0.29334 0.68168 0.81754 0.0
H3040 H 0.30876 0.70467 0.79133 0.0
C3041 C 0.30049 0.66815 0.81362 0.0
H3042 H 0.28972 0.70487 0.81091 0.0
C3043 C 0.31143 0.66803 0.80237 0.0
C3044 C 0.31528 0.68145 0.79499 0.0
H3045 H 0.2989 0.65809 0.82031 0.0
H3046 H 0.31798 0.65789 0.80072 0.0
C3047 C 0.30629 0.69425 0.79714 0.0
C3048 C 0.93768 0.0684 0.31681 0.0
C3049 C 0.94458 0.05479 0.32093 0.0
H3050 H 0.91966 0.07868 0.30458 0.0
C3051 C 0.94151 0.0418 0.31251 0.0
H3052 H 0.93996 0.07865 0.32298 0.0
C3053 C 0.92986 0.04181 0.30203 0.0
C3054 C 0.9212 0.05483 0.29981 0.0
H3055 H 0.94689 0.03121 0.31523 0.0
H3056 H 0.92664 0.03124 0.29689 0.0
C3057 C 0.92599 0.06841 0.30628 0.0
C3058 C 0.42022 0.67697 0.5539 0.0
C3059 C 0.43373 0.6732 0.54661 0.0
H3060 H 0.40991 0.69002 0.57127 0.0
C3061 C 0.44637 0.68244 0.54857 0.0
H3062 H 0.41022 0.67018 0.55242 0.0
C3063 C 0.44619 0.6938 0.55935 0.0
C3064 C 0.43336 0.69603 0.5683 0.0
H3065 H 0.45685 0.68 0.54285 0.0
H3066 H 0.45653 0.69982 0.56164 0.0
C3067 C 0.42004 0.68834 0.56472 0.0
C3068 C 0.93486 0.19445 0.9455 0.0
C3069 C 0.92597 0.18161 0.94779 0.0
H3070 H 0.95145 0.20495 0.93167 0.0
C3071 C 0.93005 0.16808 0.94075 0.0
H3072 H 0.93221 0.20496 0.95106 0.0
C3073 C 0.94111 0.16807 0.92962 0.0
C3074 C 0.94813 0.1816 0.92547 0.0
H3075 H 0.92359 0.15791 0.94254 0.0
H3076 H 0.94286 0.1579 0.92315 0.0
C3077 C 0.9459 0.19445 0.93437 0.0
C3078 C 0.95014 0.54884 0.18327 0.0
C3079 C 0.93697 0.54638 0.17489 0.0
H3080 H 0.96117 0.5629 0.19932 0.0
C3081 C 0.9235 0.55315 0.17962 0.0
H3082 H 0.96062 0.54348 0.18012 0.0
C3083 C 0.92381 0.56427 0.19073 0.0
C3084 C 0.93759 0.56868 0.1971 0.0
H3085 H 0.91312 0.55128 0.17353 0.0
H3086 H 0.91364 0.57061 0.19288 0.0
C3087 C 0.95046 0.55998 0.19429 0.0
C3088 C 0.80178 0.81199 0.20217 0.0
C3089 C 0.79956 0.82078 0.18926 0.0
H3090 H 0.81481 0.79468 0.21253 0.0
C3091 C 0.806 0.81612 0.17561 0.0
H3092 H 0.79667 0.81512 0.21278 0.0
C3093 C 0.81644 0.80435 0.17545 0.0
C3094 C 0.8205 0.79721 0.18896 0.0
H3095 H 0.80432 0.82257 0.16542 0.0
H3096 H 0.82256 0.80213 0.16516 0.0
C3097 C 0.81214 0.80023 0.20201 0.0
C3098 C 0.68337 0.54725 0.45033 0.0
C3099 C 0.67412 0.54422 0.43791 0.0
H3100 H 0.70088 0.56105 0.45918 0.0
C3101 C 0.67832 0.54968 0.42369 0.0
H3102 H 0.68059 0.5429 0.46136 0.0
C3103 C 0.6899 0.56021 0.42245 0.0
C3104 C 0.69738 0.56525 0.4354 0.0
H3105 H 0.67155 0.5473 0.41385 0.0
H3106 H 0.69172 0.56563 0.41169 0.0
C3107 C 0.695 0.55768 0.44906 0.0
C3108 C 0.93553 0.42675 0.67609 0.0
C3109 C 0.94213 0.42194 0.68962 0.0
H3110 H 0.91838 0.44029 0.66602 0.0
C3111 C 0.93935 0.43011 0.70284 0.0
H3112 H 0.93762 0.42077 0.66569 0.0
C3113 C 0.92834 0.44126 0.70303 0.0
C3114 C 0.92 0.44438 0.69 0.0
H3115 H 0.94453 0.42687 0.71337 0.0
H3116 H 0.92531 0.44629 0.71371 0.0
C3117 C 0.9245 0.43796 0.67628 0.0
C3118 C 0.06102 0.55817 0.32302 0.0
C3119 C 0.06537 0.55026 0.31005 0.0
H3120 H 0.0489 0.57704 0.33173 0.0
C3121 C 0.0575 0.55275 0.29658 0.0
H3122 H 0.06672 0.55633 0.33363 0.0
C3123 C 0.04737 0.56467 0.29547 0.0
C3124 C 0.04489 0.57414 0.30785 0.0
H3125 H 0.06036 0.54661 0.28645 0.0
H3126 H 0.04271 0.56738 0.28455 0.0
C3127 C 0.05078 0.57005 0.32193 0.0
C3128 C 0.67542 0.68953 0.82021 0.0
C3129 C 0.67141 0.69537 0.80609 0.0
H3130 H 0.68854 0.67314 0.83196 0.0
C3131 C 0.68063 0.69236 0.79364 0.0
H3132 H 0.66862 0.69183 0.83005 0.0
C3133 C 0.69209 0.68172 0.79474 0.0
C3134 C 0.69434 0.6739 0.80828 0.0
H3135 H 0.67799 0.69698 0.78269 0.0
H3136 H 0.69797 0.67844 0.78459 0.0
C3137 C 0.68684 0.67879 0.8213 0.0
C3138 C 0.80159 0.43235 0.04006 0.0
C3139 C 0.7988 0.42398 0.05315 0.0
H3140 H 0.8156 0.44871 0.02949 0.0
C3141 C 0.80533 0.42862 0.06677 0.0
H3142 H 0.79644 0.42924 0.02946 0.0
C3143 C 0.81637 0.4398 0.06678 0.0
C3144 C 0.82092 0.4464 0.05317 0.0
H3145 H 0.8032 0.42253 0.07709 0.0
H3146 H 0.82247 0.44197 0.0771 0.0
C3147 C 0.81256 0.44352 0.04008 0.0
C3148 C 0.45488 0.55523 0.67986 0.0
C3149 C 0.44157 0.55199 0.67201 0.0
H3150 H 0.46586 0.57 0.69527 0.0
C3151 C 0.42808 0.55883 0.67659 0.0
H3152 H 0.46539 0.54989 0.67678 0.0
C3153 C 0.42835 0.5704 0.68722 0.0
C3154 C 0.44211 0.57518 0.69333 0.0
H3155 H 0.41761 0.55641 0.67084 0.0
H3156 H 0.41808 0.57658 0.6894 0.0
C3157 C 0.45515 0.56676 0.69045 0.0
C3158 C 0.28714 0.6821 0.19122 0.0
C3159 C 0.30052 0.67456 0.19491 0.0
H3160 H 0.27634 0.6971 0.1759 0.0
C3161 C 0.31417 0.67977 0.1889 0.0
H3162 H 0.27649 0.67857 0.19596 0.0
C3163 C 0.31409 0.69044 0.17736 0.0
C3164 C 0.30035 0.69592 0.17181 0.0
H3165 H 0.3247 0.67435 0.19173 0.0
H3166 H 0.32455 0.69293 0.17165 0.0
C3167 C 0.28706 0.69273 0.17971 0.0
C3168 C 0.81739 0.07112 0.44369 0.0
C3169 C 0.82116 0.05732 0.45038 0.0
H3170 H 0.8047 0.08201 0.4264 0.0
C3171 C 0.81177 0.04485 0.44805 0.0
H3172 H 0.82431 0.08099 0.44546 0.0
C3173 C 0.80057 0.04542 0.43711 0.0
C3174 C 0.79866 0.05848 0.42844 0.0
H3175 H 0.81422 0.03415 0.45333 0.0
H3176 H 0.7946 0.03517 0.43435 0.0
C3177 C 0.80619 0.07169 0.4327 0.0
C3178 C 0.80452 0.17655 0.81838 0.0
C3179 C 0.79823 0.19031 0.82296 0.0
H3180 H 0.82161 0.16585 0.80524 0.0
C3181 C 0.80144 0.20334 0.81464 0.0
H3182 H 0.8021 0.16628 0.82447 0.0
C3183 C 0.81259 0.20308 0.80364 0.0
C3184 C 0.82067 0.18981 0.80083 0.0
H3185 H 0.79652 0.21405 0.81772 0.0
H3186 H 0.81594 0.21361 0.7985 0.0
C3187 C 0.81572 0.1763 0.80735 0.0
C3188 C 0.29783 0.54737 0.06161 0.0
C3189 C 0.30995 0.54532 0.07152 0.0
H3190 H 0.28897 0.56024 0.04341 0.0
C3191 C 0.32396 0.55168 0.06795 0.0
H3192 H 0.28699 0.5423 0.0639 0.0
C3193 C 0.32509 0.56206 0.05623 0.0
C3194 C 0.31221 0.56608 0.048 0.0
H3195 H 0.33357 0.55008 0.07527 0.0
H3196 H 0.33553 0.56817 0.05484 0.0
C3197 C 0.29898 0.55765 0.04985 0.0
C3198 C 0.19447 0.94527 0.55914 0.0
C3199 C 0.19601 0.93246 0.56825 0.0
H3200 H 0.18125 0.95638 0.54245 0.0
C3201 C 0.18819 0.91931 0.56432 0.0
H3202 H 0.20062 0.95548 0.5617 0.0
C3203 C 0.17707 0.91982 0.5532 0.0
C3204 C 0.17371 0.93349 0.546 0.0
H3205 H 0.18929 0.9092 0.57101 0.0
H3206 H 0.16994 0.91007 0.55165 0.0
C3207 C 0.18337 0.94579 0.54809 0.0
C3208 C 0.68048 0.79592 0.69312 0.0
C3209 C 0.67079 0.80807 0.69585 0.0
H3210 H 0.6987 0.78752 0.67995 0.0
C3211 C 0.67456 0.82233 0.69021 0.0
H3212 H 0.67802 0.78487 0.69761 0.0
C3213 C 0.68635 0.82385 0.67994 0.0
C3214 C 0.69451 0.81112 0.67535 0.0
H3215 H 0.66738 0.83195 0.69231 0.0
H3216 H 0.68794 0.83459 0.67442 0.0
C3217 C 0.69235 0.79746 0.683 0.0
C3218 C 0.7001 0.43226 0.94396 0.0
C3219 C 0.68637 0.42475 0.94611 0.0
H3220 H 0.71252 0.44744 0.93009 0.0
C3221 C 0.67344 0.43017 0.93883 0.0
H3222 H 0.71019 0.42859 0.94971 0.0
C3223 C 0.67477 0.44111 0.92764 0.0
C3224 C 0.68903 0.44659 0.92361 0.0
H3225 H 0.66264 0.4248 0.94049 0.0
H3226 H 0.66494 0.44381 0.92097 0.0
C3227 C 0.70144 0.4431 0.93272 0.0
C3228 C 0.70131 0.31244 0.79853 0.0
C3229 C 0.68825 0.3209 0.79578 0.0
H3230 H 0.71194 0.29634 0.81283 0.0
C3231 C 0.67462 0.31631 0.80232 0.0
H3232 H 0.71191 0.3155 0.79336 0.0
C3233 C 0.67464 0.30523 0.81347 0.0
C3234 C 0.68828 0.29875 0.81814 0.0
H3235 H 0.66432 0.32247 0.80023 0.0
H3236 H 0.66433 0.30316 0.81962 0.0
C3237 C 0.70134 0.30146 0.8097 0.0
C3238 C 0.06927 0.94157 0.31483 0.0
C3239 C 0.05511 0.94731 0.31887 0.0
H3240 H 0.0811 0.92501 0.30203 0.0
C3241 C 0.04262 0.94399 0.3098 0.0
H3242 H 0.07916 0.94414 0.32147 0.0
C3243 C 0.04376 0.93309 0.2986 0.0
C3244 C 0.05737 0.92534 0.29645 0.0
H3245 H 0.03163 0.94853 0.31244 0.0
H3246 H 0.03359 0.92957 0.29289 0.0
C3247 C 0.07039 0.93057 0.30369 0.0
C3248 C 0.19282 0.17576 0.82179 0.0
C3249 C 0.19919 0.17159 0.80795 0.0
H3250 H 0.17607 0.18908 0.83276 0.0
C3251 C 0.19687 0.18084 0.79537 0.0
H3252 H 0.19459 0.16897 0.83175 0.0
C3253 C 0.18627 0.19238 0.79595 0.0
C3254 C 0.17786 0.19473 0.8091 0.0
H3255 H 0.20192 0.17809 0.78462 0.0
H3256 H 0.18349 0.19823 0.78563 0.0
C3257 C 0.18215 0.18728 0.82236 0.0
C3258 C 0.30421 0.42971 0.56578 0.0
C3259 C 0.29818 0.4244 0.55218 0.0
H3260 H 0.32118 0.44329 0.57603 0.0
C3261 C 0.30155 0.43204 0.53879 0.0
H3262 H 0.30159 0.42422 0.57633 0.0
C3263 C 0.31278 0.44296 0.53861 0.0
C3264 C 0.32072 0.44633 0.55183 0.0
H3265 H 0.29677 0.42844 0.52818 0.0
H3266 H 0.31636 0.44746 0.52787 0.0
C3267 C 0.31545 0.44067 0.5656 0.0
C3268 C 0.30529 0.31533 0.17535 0.0
C3269 C 0.29834 0.31997 0.18875 0.0
H3270 H 0.32247 0.3016 0.16557 0.0
C3271 C 0.30027 0.31129 0.20179 0.0
H3272 H 0.30384 0.32169 0.16507 0.0
C3273 C 0.31088 0.29976 0.20207 0.0
C3274 C 0.31973 0.29682 0.18933 0.0
H3275 H 0.29477 0.31441 0.21221 0.0
H3276 H 0.31332 0.29435 0.21271 0.0
C3277 C 0.31596 0.30376 0.17563 0.0
C3278 C 0.1817 0.55592 0.92108 0.0
C3279 C 0.1773 0.54749 0.93369 0.0
H3280 H 0.19388 0.57511 0.91326 0.0
C3281 C 0.18529 0.54919 0.94721 0.0
H3282 H 0.17593 0.55467 0.91042 0.0
C3283 C 0.19547 0.56098 0.94887 0.0
C3284 C 0.19788 0.57106 0.93697 0.0
H3285 H 0.1824 0.5426 0.95704 0.0
H3286 H 0.20018 0.56313 0.9599 0.0
C3287 C 0.19199 0.56767 0.92271 0.0
C3288 C 0.5706 0.42874 0.30596 0.0
C3289 C 0.5575 0.42421 0.29839 0.0
H3290 H 0.57961 0.44121 0.32444 0.0
C3291 C 0.54402 0.43203 0.30101 0.0
H3292 H 0.58121 0.42308 0.30399 0.0
C3293 C 0.54308 0.44231 0.3128 0.0
C3294 C 0.55564 0.445 0.32196 0.0
H3295 H 0.5338 0.42903 0.29511 0.0
H3296 H 0.53219 0.44698 0.31563 0.0
C3297 C 0.56968 0.43914 0.3177 0.0
C3298 C 0.18965 0.78871 0.17853 0.0
C3299 C 0.1925 0.80202 0.17056 0.0
H3300 H 0.17558 0.77768 0.19456 0.0
C3301 C 0.18593 0.81551 0.17554 0.0
H3302 H 0.19479 0.7782 0.17514 0.0
C3303 C 0.17484 0.81521 0.18669 0.0
C3304 C 0.1703 0.80143 0.19293 0.0
H3305 H 0.18805 0.82599 0.16971 0.0
H3306 H 0.16875 0.82547 0.18916 0.0
C3307 C 0.17861 0.78841 0.18965 0.0
C3308 C 0.30161 0.17301 0.31491 0.0
C3309 C 0.29549 0.18682 0.31952 0.0
H3310 H 0.31844 0.16226 0.3015 0.0
C3311 C 0.29803 0.19965 0.31067 0.0
H3312 H 0.29964 0.16287 0.32135 0.0
C3313 C 0.30881 0.1993 0.2993 0.0
C3314 C 0.31712 0.18612 0.2967 0.0
H3315 H 0.29314 0.21038 0.31373 0.0
H3316 H 0.31193 0.20978 0.29392 0.0
C3317 C 0.31242 0.17266 0.3035 0.0
C3318 C 0.94645 0.04731 0.6839 0.0
C3319 C 0.93367 0.04477 0.67498 0.0
H3320 H 0.95665 0.06124 0.70059 0.0
C3321 C 0.92004 0.05171 0.67893 0.0
H3322 H 0.95704 0.04186 0.68134 0.0
C3323 C 0.91981 0.06285 0.68998 0.0
C3324 C 0.93322 0.06711 0.69716 0.0
H3325 H 0.90993 0.04976 0.67242 0.0
H3326 H 0.90954 0.06917 0.69168 0.0
C3327 C 0.94623 0.05843 0.69495 0.0
C3328 C 0.5504 0.18081 0.95128 0.0
C3329 C 0.54673 0.1725 0.93837 0.0
H3330 H 0.56579 0.1963 0.96129 0.0
C3331 C 0.55303 0.1767 0.9245 0.0
H3332 H 0.54547 0.17806 0.96208 0.0
C3333 C 0.56469 0.18723 0.92405 0.0
C3334 C 0.57011 0.19359 0.93746 0.0
H3335 H 0.55026 0.17063 0.91431 0.0
H3336 H 0.57055 0.189 0.91352 0.0
C3337 C 0.56207 0.19126 0.95084 0.0
C3338 C 0.44183 0.93258 0.70233 0.0
C3339 C 0.44491 0.92397 0.68945 0.0
H3340 H 0.4271 0.94857 0.71253 0.0
C3341 C 0.43839 0.92819 0.67569 0.0
H3342 H 0.44697 0.92983 0.71303 0.0
C3343 C 0.427 0.93902 0.67539 0.0
C3344 C 0.42206 0.94563 0.68887 0.0
H3345 H 0.44075 0.92192 0.66551 0.0
H3346 H 0.42087 0.94074 0.66501 0.0
C3347 C 0.43045 0.94335 0.70204 0.0
C3348 C 0.55846 0.04956 0.29438 0.0
C3349 C 0.56789 0.04706 0.30679 0.0
H3350 H 0.54144 0.06357 0.28485 0.0
C3351 C 0.56409 0.05354 0.3207 0.0
H3352 H 0.56089 0.04442 0.2836 0.0
C3353 C 0.55289 0.06457 0.32142 0.0
C3354 C 0.54547 0.06912 0.30823 0.0
H3355 H 0.57102 0.05163 0.33054 0.0
H3356 H 0.55154 0.07082 0.33178 0.0
C3357 C 0.54729 0.06054 0.2951 0.0
C3358 C 0.42721 0.30346 0.56655 0.0
C3359 C 0.42286 0.29723 0.5527 0.0
H3360 H 0.44039 0.32035 0.57749 0.0
C3361 C 0.43168 0.30004 0.53992 0.0
H3362 H 0.42076 0.3013 0.57665 0.0
C3363 C 0.44294 0.31092 0.5404 0.0
C3364 C 0.44545 0.31911 0.55367 0.0
H3365 H 0.4288 0.29511 0.52916 0.0
H3366 H 0.44844 0.31407 0.53 0.0
C3367 C 0.43849 0.3144 0.56704 0.0
C3368 C 0.43521 0.67725 0.92428 0.0
C3369 C 0.44161 0.69087 0.91949 0.0
H3370 H 0.41821 0.66691 0.93782 0.0
C3371 C 0.43863 0.70405 0.92765 0.0
H3372 H 0.43744 0.66687 0.9183 0.0
C3373 C 0.42764 0.70407 0.93881 0.0
C3374 C 0.4195 0.69092 0.94193 0.0
H3375 H 0.44367 0.71466 0.9244 0.0
H3376 H 0.4245 0.7147 0.94387 0.0
C3377 C 0.42417 0.67727 0.93548 0.0
C3378 C 0.79481 0.19486 0.1826 0.0
C3379 C 0.80788 0.19732 0.17409 0.0
H3380 H 0.78411 0.18123 0.19922 0.0
C3381 C 0.82139 0.19049 0.17859 0.0
H3382 H 0.78429 0.20023 0.17959 0.0
C3383 C 0.8213 0.17959 0.18988 0.0
C3384 C 0.80768 0.17543 0.19673 0.0
H3385 H 0.83171 0.19239 0.17241 0.0
H3386 H 0.83155 0.17338 0.19206 0.0
C3387 C 0.79471 0.18397 0.19387 0.0
C3388 C 0.31263 0.54062 0.44246 0.0
C3389 C 0.32104 0.5537 0.44518 0.0
H3390 H 0.29638 0.53001 0.42833 0.0
C3391 C 0.31627 0.56734 0.43879 0.0
H3392 H 0.31583 0.53001 0.44752 0.0
C3393 C 0.30509 0.56734 0.42772 0.0
C3394 C 0.29865 0.55369 0.42304 0.0
H3395 H 0.32239 0.57766 0.44087 0.0
H3396 H 0.30296 0.57765 0.4216 0.0
C3397 C 0.30146 0.54063 0.43146 0.0
C3398 C 0.94801 0.1795 0.55161 0.0
C3399 C 0.93536 0.17021 0.54984 0.0
H3400 H 0.9586 0.19642 0.56495 0.0
C3401 C 0.92206 0.1738 0.55757 0.0
H3402 H 0.95833 0.17718 0.54555 0.0
C3403 C 0.92221 0.1849 0.56872 0.0
C3404 C 0.93567 0.19242 0.57217 0.0
H3405 H 0.91209 0.16691 0.55631 0.0
H3406 H 0.91234 0.18627 0.57573 0.0
C3407 C 0.94817 0.19052 0.56273 0.0
C3408 C 0.81753 0.06854 0.05777 0.0
C3409 C 0.80395 0.07249 0.05074 0.0
H3410 H 0.82788 0.05578 0.07538 0.0
C3411 C 0.79109 0.06372 0.05337 0.0
H3412 H 0.82766 0.07502 0.05583 0.0
C3413 C 0.79122 0.05273 0.06453 0.0
C3414 C 0.8042 0.05038 0.0732 0.0
H3415 H 0.78054 0.06632 0.04787 0.0
H3416 H 0.78076 0.04715 0.06733 0.0
C3417 C 0.81766 0.0575 0.06898 0.0
C3418 C 0.43386 0.54512 0.2991 0.0
C3419 C 0.42517 0.558 0.29626 0.0
H3420 H 0.45063 0.53509 0.31304 0.0
C3421 C 0.42968 0.57182 0.30242 0.0
H3422 H 0.43085 0.53438 0.29421 0.0
C3423 C 0.44102 0.57223 0.31328 0.0
C3424 C 0.44791 0.55882 0.318 0.0
H3425 H 0.42334 0.58199 0.30022 0.0
H3426 H 0.4431 0.5827 0.31913 0.0
C3427 C 0.44521 0.54554 0.30989 0.0
C3428 C 0.68664 0.42517 0.56422 0.0
C3429 C 0.69323 0.43889 0.56844 0.0
H3430 H 0.66885 0.41458 0.55196 0.0
C3431 C 0.68979 0.45191 0.56019 0.0
H3432 H 0.68923 0.41491 0.57025 0.0
C3433 C 0.67808 0.45173 0.54977 0.0
C3434 C 0.66976 0.43853 0.54744 0.0
H3435 H 0.69495 0.46259 0.56296 0.0
H3436 H 0.67455 0.46227 0.54478 0.0
C3437 C 0.67493 0.42499 0.55373 0.0
C3438 C 0.17309 0.92558 0.94101 0.0
C3439 C 0.18724 0.92202 0.94709 0.0
H3440 H 0.16116 0.93861 0.92469 0.0
C3441 C 0.19937 0.93178 0.94457 0.0
H3442 H 0.16348 0.91836 0.94295 0.0
C3443 C 0.19801 0.94345 0.9342 0.0
C3444 C 0.18455 0.94536 0.92615 0.0
H3445 H 0.21032 0.92949 0.9494 0.0
H3446 H 0.20798 0.94983 0.93132 0.0
C3447 C 0.17176 0.9372 0.93053 0.0
C3448 C 0.55678 0.92443 0.17935 0.0
C3449 C 0.55004 0.93797 0.17478 0.0
H3450 H 0.57445 0.91438 0.19222 0.0
C3451 C 0.55289 0.95113 0.18301 0.0
H3452 H 0.55462 0.91406 0.17335 0.0
C3453 C 0.56425 0.95131 0.1938 0.0
C3454 C 0.57283 0.93833 0.19646 0.0
H3455 H 0.54758 0.96166 0.17996 0.0
H3456 H 0.56738 0.96198 0.19878 0.0
C3457 C 0.56817 0.92461 0.19018 0.0
C3458 C 0.04558 0.29842 0.92921 0.0
C3459 C 0.0579 0.29616 0.91961 0.0
H3460 H 0.03659 0.3112 0.94741 0.0
C3461 C 0.07195 0.3022 0.92356 0.0
H3462 H 0.0347 0.29359 0.92662 0.0
C3463 C 0.07303 0.3124 0.93545 0.0
C3464 C 0.06007 0.31655 0.94349 0.0
H3465 H 0.0817 0.30045 0.91647 0.0
H3466 H 0.08358 0.31824 0.93719 0.0
C3467 C 0.04668 0.3085 0.94115 0.0
C3468 C 0.56402 0.79607 0.54807 0.0
C3469 C 0.57392 0.80802 0.54531 0.0
H3470 H 0.54579 0.78796 0.56139 0.0
C3471 C 0.57061 0.8223 0.55121 0.0
H3472 H 0.56616 0.78501 0.54342 0.0
C3473 C 0.55901 0.82397 0.56169 0.0
C3474 C 0.5506 0.8114 0.5662 0.0
H3475 H 0.57799 0.83176 0.54912 0.0
H3476 H 0.55775 0.83468 0.56736 0.0
C3477 C 0.55236 0.79778 0.55839 0.0
C3478 C 0.19941 0.81465 0.79864 0.0
C3479 C 0.18669 0.82368 0.79614 0.0
H3480 H 0.20942 0.79772 0.8124 0.0
C3481 C 0.17295 0.81961 0.80278 0.0
H3482 H 0.21008 0.81734 0.79341 0.0
C3483 C 0.17258 0.80835 0.81373 0.0
C3484 C 0.18595 0.8011 0.81806 0.0
H3485 H 0.16292 0.82627 0.80091 0.0
H3486 H 0.16225 0.8066 0.81995 0.0
C3487 C 0.19904 0.80342 0.80955 0.0
C3488 C 0.44252 0.81048 0.04468 0.0
C3489 C 0.44539 0.81948 0.05732 0.0
H3490 H 0.42855 0.79347 0.03511 0.0
C3491 C 0.43921 0.81537 0.07126 0.0
H3492 H 0.44742 0.81319 0.03386 0.0
C3493 C 0.42831 0.80409 0.07197 0.0
C3494 C 0.4236 0.79684 0.05876 0.0
H3495 H 0.44143 0.82197 0.08125 0.0
H3496 H 0.42245 0.8023 0.0825 0.0
C3497 C 0.4317 0.79918 0.0454 0.0
C3498 C 0.55702 0.6777 0.42275 0.0
C3499 C 0.54983 0.6737 0.43624 0.0
H3500 H 0.57507 0.6901 0.41279 0.0
C3501 C 0.55216 0.68257 0.44908 0.0
H3502 H 0.55526 0.6712 0.4126 0.0
C3503 C 0.56349 0.69338 0.44919 0.0
C3504 C 0.57259 0.69543 0.43645 0.0
H3505 H 0.54649 0.67997 0.45955 0.0
H3506 H 0.56627 0.69881 0.45974 0.0
C3507 C 0.56839 0.68857 0.42285 0.0
C3508 C 0.56749 0.31728 0.0506 0.0
C3509 C 0.57163 0.30319 0.04476 0.0
H3510 H 0.55424 0.32897 0.06692 0.0
C3511 C 0.56258 0.29065 0.04789 0.0
H3512 H 0.57414 0.3272 0.04822 0.0
C3513 C 0.55112 0.29168 0.05854 0.0
C3514 C 0.54867 0.30524 0.06627 0.0
H3515 H 0.56533 0.2797 0.0433 0.0
H3516 H 0.54533 0.28148 0.06184 0.0
C3517 C 0.55608 0.3183 0.06135 0.0
C3518 C 0.04293 0.81159 0.44158 0.0
C3519 C 0.05617 0.81991 0.4438 0.0
H3520 H 0.03156 0.79551 0.42782 0.0
C3521 C 0.06943 0.81528 0.43657 0.0
H3522 H 0.0326 0.81469 0.44725 0.0
C3523 C 0.06885 0.80419 0.42544 0.0
C3524 C 0.05498 0.79772 0.42146 0.0
H3525 H 0.07986 0.82137 0.4382 0.0
H3526 H 0.07885 0.80203 0.41882 0.0
C3527 C 0.04232 0.80059 0.43043 0.0
C3528 C 0.56758 0.42128 0.69291 0.0
C3529 C 0.57144 0.43543 0.6988 0.0
H3530 H 0.55422 0.40941 0.67683 0.0
C3531 C 0.56178 0.44766 0.6963 0.0
H3532 H 0.57469 0.41158 0.69485 0.0
C3533 C 0.55001 0.4464 0.68601 0.0
C3534 C 0.54785 0.43292 0.67807 0.0
H3535 H 0.56429 0.45862 0.70098 0.0
H3536 H 0.54377 0.45645 0.68307 0.0
C3537 C 0.55583 0.42004 0.68255 0.0
C3538 C 0.4428 0.04213 0.80871 0.0
C3539 C 0.4451 0.05584 0.81622 0.0
H3540 H 0.4287 0.02981 0.79367 0.0
C3541 C 0.43776 0.06879 0.81097 0.0
H3542 H 0.4486 0.03202 0.81225 0.0
C3543 C 0.4264 0.06753 0.80021 0.0
C3544 C 0.42228 0.05329 0.79472 0.0
H3545 H 0.43953 0.07957 0.81636 0.0
H3546 H 0.41971 0.07738 0.79763 0.0
C3547 C 0.43141 0.04086 0.79803 0.0
C3548 C 0.9235 0.67615 0.05351 0.0
C3549 C 0.93744 0.67222 0.04717 0.0
H3550 H 0.91232 0.68873 0.07071 0.0
C3551 C 0.95 0.68133 0.05004 0.0
H3552 H 0.91356 0.66947 0.05131 0.0
C3553 C 0.94926 0.69242 0.0611 0.0
C3554 C 0.93599 0.69443 0.06943 0.0
H3555 H 0.96081 0.67879 0.04504 0.0
H3556 H 0.95955 0.69812 0.0643 0.0
C3557 C 0.92278 0.68723 0.06464 0.0
C3558 C 0.44481 0.19865 0.4319 0.0
C3559 C 0.44672 0.18567 0.42311 0.0
H3560 H 0.43155 0.20946 0.44874 0.0
C3561 C 0.44007 0.17216 0.42786 0.0
H3562 H 0.45013 0.20914 0.42872 0.0
C3563 C 0.42938 0.17234 0.4394 0.0
C3564 C 0.42533 0.18605 0.44616 0.0
H3565 H 0.44155 0.16191 0.42145 0.0
H3566 H 0.42294 0.16223 0.4415 0.0
C3567 C 0.43417 0.19883 0.4434 0.0
C3568 C 0.43997 0.42538 0.17291 0.0
C3569 C 0.44645 0.42105 0.18664 0.0
H3570 H 0.42317 0.43885 0.1622 0.0
C3571 C 0.44398 0.42995 0.19945 0.0
H3572 H 0.44185 0.41885 0.1628 0.0
C3573 C 0.4333 0.44142 0.19911 0.0
C3574 C 0.42495 0.44406 0.18597 0.0
H3575 H 0.4491 0.42706 0.21012 0.0
H3576 H 0.4305 0.44706 0.20953 0.0
C3577 C 0.42923 0.43684 0.17258 0.0
C3578 C 0.56602 0.55048 0.82233 0.0
C3579 C 0.57015 0.54465 0.80824 0.0
H3580 H 0.5528 0.56684 0.83399 0.0
C3581 C 0.561 0.54763 0.79573 0.0
H3582 H 0.57275 0.54819 0.83223 0.0
C3583 C 0.54951 0.55824 0.79676 0.0
C3584 C 0.54716 0.56608 0.81027 0.0
H3585 H 0.56374 0.54301 0.78479 0.0
H3586 H 0.54369 0.5615 0.78656 0.0
C3587 C 0.55458 0.5612 0.82334 0.0
C3588 C 0.81473 0.68792 0.67839 0.0
C3589 C 0.80114 0.69431 0.67346 0.0
H3590 H 0.82498 0.67047 0.69139 0.0
C3591 C 0.78775 0.69063 0.68099 0.0
H3592 H 0.82526 0.6907 0.67294 0.0
C3593 C 0.78758 0.67902 0.6915 0.0
C3594 C 0.80081 0.67101 0.69466 0.0
H3595 H 0.77714 0.69561 0.67765 0.0
H3596 H 0.77686 0.67539 0.69601 0.0
C3597 C 0.81457 0.67631 0.68897 0.0
C3598 C 0.30452 0.06966 0.92649 0.0
C3599 C 0.29753 0.05599 0.92274 0.0
H3600 H 0.32245 0.08013 0.93865 0.0
C3601 C 0.30023 0.0433 0.93174 0.0
H3602 H 0.30251 0.07968 0.91988 0.0
C3603 C 0.31169 0.04353 0.94242 0.0
C3604 C 0.32049 0.05649 0.94428 0.0
H3605 H 0.29473 0.03269 0.92934 0.0
H3606 H 0.31471 0.03312 0.94798 0.0
C3607 C 0.31598 0.06991 0.93725 0.0
C3608 C 0.79611 0.56294 0.54791 0.0
C3609 C 0.80828 0.5728 0.54599 0.0
H3610 H 0.78696 0.54487 0.56077 0.0
C3611 C 0.82212 0.56935 0.55277 0.0
H3612 H 0.7854 0.56514 0.54254 0.0
C3613 C 0.82301 0.55774 0.56331 0.0
C3614 C 0.81007 0.54949 0.56708 0.0
H3615 H 0.83177 0.57665 0.55131 0.0
H3616 H 0.83332 0.5564 0.56966 0.0
C3617 C 0.79701 0.55131 0.55837 0.0
C3618 C 0.68257 0.94799 0.04825 0.0
C3619 C 0.67326 0.93554 0.04551 0.0
H3620 H 0.70001 0.95716 0.06195 0.0
C3621 C 0.67728 0.92148 0.05149 0.0
H3622 H 0.67993 0.95889 0.04351 0.0
C3623 C 0.68875 0.9205 0.06218 0.0
C3624 C 0.6963 0.93356 0.06686 0.0
H3625 H 0.67044 0.91163 0.04937 0.0
H3626 H 0.69045 0.90991 0.06795 0.0
C3627 C 0.69408 0.94699 0.05884 0.0
C3628 C 0.2 0.44421 0.42908 0.0
C3629 C 0.18746 0.44705 0.41994 0.0
H3630 H 0.20912 0.43091 0.44684 0.0
C3631 C 0.17334 0.44148 0.4243 0.0
H3632 H 0.21097 0.44864 0.42616 0.0
C3633 C 0.17228 0.4312 0.43613 0.0
C3634 C 0.18532 0.42649 0.4437 0.0
H3635 H 0.16342 0.44368 0.41758 0.0
H3636 H 0.16157 0.42575 0.43818 0.0
C3637 C 0.19893 0.43405 0.44096 0.0
C3638 C 0.20114 0.29809 0.31255 0.0
C3639 C 0.18899 0.29533 0.32222 0.0
H3640 H 0.20951 0.31133 0.29439 0.0
C3641 C 0.17468 0.3008 0.31837 0.0
H3642 H 0.21223 0.29372 0.31508 0.0
C3643 C 0.17312 0.31105 0.30656 0.0
C3644 C 0.18586 0.31578 0.29851 0.0
H3645 H 0.16505 0.29865 0.32552 0.0
H3646 H 0.16235 0.3165 0.30495 0.0
C3647 C 0.19956 0.30819 0.30068 0.0
C3648 C 0.09185 0.08114 0.42333 0.0
C3649 C 0.09978 0.07837 0.43672 0.0
H3650 H 0.07357 0.09292 0.41284 0.0
C3651 C 0.09612 0.08665 0.44965 0.0
H3652 H 0.09441 0.0749 0.41319 0.0
C3653 C 0.08427 0.09691 0.44945 0.0
C3654 C 0.07575 0.09909 0.43633 0.0
H3655 H 0.10209 0.08482 0.46011 0.0
H3656 H 0.08148 0.10277 0.45976 0.0
C3657 C 0.07988 0.09139 0.42315 0.0
C3658 C 0.89568 0.3325 0.70389 0.0
C3659 C 0.89159 0.32613 0.69003 0.0
H3660 H 0.90994 0.34809 0.71543 0.0
C3661 C 0.89796 0.33185 0.67676 0.0
H3662 H 0.89094 0.32835 0.71431 0.0
C3663 C 0.90873 0.34327 0.6774 0.0
C3664 C 0.91346 0.34903 0.69133 0.0
H3665 H 0.89495 0.3272 0.66591 0.0
H3666 H 0.9138 0.34711 0.66701 0.0
C3667 C 0.90659 0.34379 0.70454 0.0
C3668 C 0.64973 0.15831 0.92059 0.0
C3669 C 0.64187 0.1611 0.93402 0.0
H3670 H 0.66781 0.14633 0.90999 0.0
C3671 C 0.64525 0.15248 0.9468 0.0
H3672 H 0.64738 0.16482 0.91057 0.0
C3673 C 0.65685 0.14194 0.94647 0.0
C3674 C 0.66541 0.13984 0.93337 0.0
H3675 H 0.63932 0.15432 0.95729 0.0
H3676 H 0.65949 0.13589 0.9567 0.0
C3677 C 0.66146 0.14779 0.92028 0.0
C3678 C 0.83425 0.8997 0.17805 0.0
C3679 C 0.82943 0.8941 0.19203 0.0
H3680 H 0.84821 0.91553 0.16645 0.0
C3681 C 0.83627 0.89948 0.20521 0.0
H3682 H 0.82921 0.89575 0.16769 0.0
C3683 C 0.84724 0.91069 0.20448 0.0
C3684 C 0.85148 0.91686 0.19057 0.0
H3685 H 0.83284 0.89532 0.21613 0.0
H3686 H 0.85198 0.91492 0.21487 0.0
C3687 C 0.84511 0.91104 0.17734 0.0
C3688 C 0.08796 0.14811 0.7887 0.0
C3689 C 0.08072 0.14309 0.8018 0.0
H3690 H 0.10417 0.16309 0.77916 0.0
C3691 C 0.08542 0.14871 0.8158 0.0
H3692 H 0.08464 0.1439 0.77776 0.0
C3693 C 0.09651 0.15982 0.8166 0.0
C3694 C 0.10323 0.16536 0.80342 0.0
H3695 H 0.08008 0.14503 0.82611 0.0
H3696 H 0.09947 0.1644 0.82749 0.0
C3697 C 0.09916 0.15908 0.78951 0.0
C3698 C 0.8341 0.34613 0.03532 0.0
C3699 C 0.82917 0.35247 0.04893 0.0
H3700 H 0.84849 0.33016 0.02462 0.0
C3701 C 0.83642 0.3484 0.06236 0.0
H3702 H 0.82885 0.34916 0.02476 0.0
C3703 C 0.84772 0.33745 0.06228 0.0
C3704 C 0.85195 0.33043 0.04876 0.0
H3705 H 0.83292 0.35316 0.07301 0.0
H3706 H 0.85267 0.33404 0.07287 0.0
C3707 C 0.84537 0.33524 0.03524 0.0
C3708 C 0.65494 0.0991 0.31715 0.0
C3709 C 0.6614 0.10446 0.30376 0.0
H3710 H 0.63879 0.08425 0.32713 0.0
C3711 C 0.65501 0.10028 0.28995 0.0
H3712 H 0.65956 0.10222 0.32798 0.0
C3713 C 0.64309 0.09011 0.28948 0.0
C3714 C 0.63737 0.08382 0.30279 0.0
H3715 H 0.65961 0.10439 0.27945 0.0
H3716 H 0.63887 0.08661 0.2786 0.0
C3717 C 0.64302 0.08883 0.31667 0.0
C3718 C 0.89949 0.90297 0.5398 0.0
C3719 C 0.8952 0.91089 0.55277 0.0
H3720 H 0.91439 0.88681 0.5301 0.0
C3721 C 0.90202 0.90731 0.56657 0.0
H3722 H 0.89434 0.90542 0.52904 0.0
C3723 C 0.91365 0.89672 0.56716 0.0
C3724 C 0.91852 0.88945 0.55399 0.0
H3725 H 0.89894 0.91323 0.57675 0.0
H3726 H 0.91918 0.89465 0.57781 0.0
C3727 C 0.91098 0.89231 0.54042 0.0
C3728 C 0.45035 0.08432 0.09589 0.0
C3729 C 0.43763 0.07542 0.09882 0.0
H3730 H 0.45991 0.10202 0.08268 0.0
C3731 C 0.42416 0.07854 0.09118 0.0
H3732 H 0.46088 0.08222 0.10164 0.0
C3733 C 0.4236 0.08987 0.08032 0.0
C3734 C 0.43651 0.0983 0.07689 0.0
H3735 H 0.41415 0.07191 0.09324 0.0
H3736 H 0.41319 0.09167 0.07427 0.0
C3737 C 0.44979 0.09566 0.08503 0.0
C3738 C 0.90046 0.70098 0.35101 0.0
C3739 C 0.90833 0.68779 0.35468 0.0
H3740 H 0.88413 0.71133 0.33678 0.0
C3741 C 0.90399 0.67415 0.34795 0.0
H3742 H 0.90339 0.71163 0.35614 0.0
C3743 C 0.89285 0.67398 0.3368 0.0
C3744 C 0.88594 0.68745 0.33224 0.0
H3745 H 0.90979 0.66379 0.35062 0.0
H3746 H 0.89036 0.6635 0.33112 0.0
C3747 C 0.88941 0.70081 0.33991 0.0
C3748 C 0.29439 0.16167 0.59336 0.0
C3749 C 0.30733 0.17031 0.59601 0.0
H3750 H 0.28391 0.14472 0.57994 0.0
C3751 C 0.32027 0.16762 0.58733 0.0
H3752 H 0.28425 0.16345 0.59989 0.0
C3753 C 0.32007 0.15688 0.57584 0.0
C3754 C 0.30693 0.14865 0.57285 0.0
H3755 H 0.33043 0.1741 0.58911 0.0
H3756 H 0.33008 0.1553 0.56908 0.0
C3757 C 0.29419 0.15095 0.58191 0.0
C3758 C 0.85338 0.54192 0.83978 0.0
C3759 C 0.85721 0.55532 0.83236 0.0
H3760 H 0.83856 0.53101 0.8552 0.0
C3761 C 0.85014 0.56878 0.8367 0.0
H3762 H 0.85877 0.5314 0.83682 0.0
C3763 C 0.83848 0.56855 0.8473 0.0
C3764 C 0.83377 0.55487 0.85366 0.0
H3765 H 0.8529 0.57929 0.8312 0.0
H3766 H 0.83256 0.57891 0.84977 0.0
C3767 C 0.84178 0.54169 0.8503 0.0
C3768 C 0.4552 0.15569 0.1468 0.0
C3769 C 0.44144 0.162 0.14233 0.0
H3770 H 0.46643 0.14025 0.16135 0.0
C3771 C 0.42799 0.15597 0.14807 0.0
H3772 H 0.46574 0.15996 0.14244 0.0
C3773 C 0.42838 0.14462 0.15896 0.0
C3774 C 0.44223 0.13915 0.16425 0.0
H3775 H 0.4172 0.16054 0.14473 0.0
H3776 H 0.4179 0.14074 0.1638 0.0
C3777 C 0.45559 0.14438 0.15764 0.0
C3778 C 0.8517 0.70062 0.4021 0.0
C3779 C 0.85534 0.68716 0.40952 0.0
H3780 H 0.837 0.71174 0.38671 0.0
C3781 C 0.84803 0.67382 0.40522 0.0
H3782 H 0.85727 0.71105 0.40501 0.0
C3783 C 0.83637 0.67421 0.39463 0.0
C3784 C 0.83186 0.68797 0.38827 0.0
H3785 H 0.85065 0.66326 0.41069 0.0
H3786 H 0.83028 0.66396 0.39218 0.0
C3787 C 0.84007 0.70102 0.39162 0.0
C3788 C 0.31864 0.07842 0.65189 0.0
C3789 C 0.30549 0.07429 0.64415 0.0
H3790 H 0.32856 0.09307 0.66828 0.0
C3791 C 0.29244 0.08298 0.64602 0.0
H3792 H 0.3289 0.07199 0.65057 0.0
C3793 C 0.29225 0.095 0.65606 0.0
C3794 C 0.30512 0.09863 0.66445 0.0
H3795 H 0.28216 0.08021 0.64008 0.0
H3796 H 0.28183 0.1011 0.65768 0.0
C3797 C 0.31847 0.09054 0.66194 0.0
C3798 C 0.89175 0.545 0.9078 0.0
C3799 C 0.88961 0.55841 0.91586 0.0
H3800 H 0.90423 0.53358 0.89072 0.0
C3801 C 0.89754 0.57135 0.91146 0.0
H3802 H 0.88572 0.53486 0.91082 0.0
C3803 C 0.9081 0.57064 0.89982 0.0
C3804 C 0.91097 0.55694 0.89248 0.0
H3805 H 0.89604 0.58187 0.91741 0.0
H3806 H 0.91456 0.5806 0.89713 0.0
C3807 C 0.90235 0.54426 0.89626 0.0
C3808 C 0.09218 0.45562 0.08488 0.0
C3809 C 0.0974 0.44249 0.07786 0.0
H3810 H 0.07706 0.4652 0.10096 0.0
C3811 C 0.09195 0.42848 0.08274 0.0
H3812 H 0.09625 0.46658 0.08141 0.0
C3813 C 0.08085 0.4277 0.09384 0.0
C3814 C 0.07514 0.4409 0.10038 0.0
H3815 H 0.09578 0.41816 0.07757 0.0
H3816 H 0.07644 0.41679 0.09698 0.0
C3817 C 0.08121 0.45484 0.09609 0.0
C3818 C 0.59427 0.28813 0.15623 0.0
C3819 C 0.59838 0.30106 0.16431 0.0
H3820 H 0.5801 0.27864 0.1393 0.0
C3821 C 0.59202 0.31496 0.1603 0.0
H3822 H 0.59907 0.27728 0.15899 0.0
C3823 C 0.58103 0.31572 0.14907 0.0
C3824 C 0.57633 0.30263 0.14157 0.0
H3825 H 0.595 0.32512 0.16631 0.0
H3826 H 0.57583 0.32647 0.14665 0.0
C3827 C 0.5834 0.28891 0.14494 0.0
C3828 C 0.70072 0.84024 0.39624 0.0
C3829 C 0.68793 0.83173 0.39255 0.0
H3830 H 0.71016 0.85729 0.4103 0.0
C3831 C 0.67412 0.83525 0.39938 0.0
H3832 H 0.71149 0.83786 0.39106 0.0
C3833 C 0.67338 0.84633 0.41051 0.0
C3834 C 0.6864 0.85415 0.41488 0.0
H3835 H 0.66406 0.82892 0.39673 0.0
H3836 H 0.66275 0.84832 0.41611 0.0
C3837 C 0.69995 0.85137 0.40726 0.0
C3838 C 0.15547 0.95237 0.64181 0.0
C3839 C 0.16201 0.93858 0.63778 0.0
H3840 H 0.13989 0.96383 0.65605 0.0
C3841 C 0.15624 0.92524 0.64399 0.0
H3842 H 0.15955 0.96283 0.63709 0.0
C3843 C 0.14492 0.92581 0.6549 0.0
C3844 C 0.13921 0.93973 0.65976 0.0
H3845 H 0.16097 0.91442 0.64101 0.0
H3846 H 0.14123 0.91543 0.66008 0.0
C3847 C 0.14419 0.95294 0.65268 0.0
C3848 C 0.54024 0.39469 0.40953 0.0
C3849 C 0.55414 0.3906 0.41583 0.0
H3850 H 0.52851 0.40932 0.39446 0.0
C3851 C 0.56733 0.39741 0.4104 0.0
H3852 H 0.52988 0.38961 0.41343 0.0
C3853 C 0.56655 0.40862 0.39941 0.0
C3854 C 0.55255 0.41333 0.39379 0.0
H3855 H 0.57821 0.39442 0.41499 0.0
H3856 H 0.57685 0.41404 0.39583 0.0
C3857 C 0.53945 0.406 0.39867 0.0
C3858 C 0.14683 0.81915 0.08122 0.0
C3859 C 0.13955 0.80605 0.07621 0.0
H3860 H 0.16337 0.82856 0.09601 0.0
C3861 C 0.14232 0.79241 0.08364 0.0
H3862 H 0.14483 0.82985 0.07576 0.0
C3863 C 0.15294 0.79166 0.09515 0.0
C3864 C 0.16093 0.80456 0.09953 0.0
H3865 H 0.1368 0.78214 0.08013 0.0
H3866 H 0.15535 0.78084 0.1002 0.0
C3867 C 0.1574 0.81843 0.09285 0.0
C3868 C 0.67435 0.89856 0.3314 0.0
C3869 C 0.68786 0.89181 0.32677 0.0
H3870 H 0.66392 0.91537 0.3451 0.0
C3871 C 0.70139 0.89619 0.33364 0.0
H3872 H 0.66373 0.89535 0.32636 0.0
C3873 C 0.70152 0.90773 0.3443 0.0
C3874 C 0.6881 0.91503 0.34836 0.0
H3875 H 0.71198 0.89116 0.33033 0.0
H3876 H 0.71219 0.91126 0.34898 0.0
C3877 C 0.67446 0.91002 0.34214 0.0
C3878 C 0.0389 0.33575 0.84319 0.0
C3879 C 0.05218 0.32878 0.84815 0.0
H3880 H 0.02898 0.35202 0.82852 0.0
C3881 C 0.06608 0.33403 0.84274 0.0
H3882 H 0.02801 0.33201 0.84725 0.0
C3883 C 0.06661 0.3454 0.83192 0.0
C3884 C 0.05327 0.35186 0.82643 0.0
H3885 H 0.07649 0.32892 0.84638 0.0
H3886 H 0.07744 0.3488 0.82749 0.0
C3887 C 0.03944 0.34723 0.8325 0.0
C3888 C 0.08444 0.65019 0.31994 0.0
C3889 C 0.08072 0.6436 0.30607 0.0
H3890 H 0.09785 0.66656 0.33144 0.0
C3891 C 0.08915 0.64738 0.29326 0.0
H3892 H 0.07817 0.64746 0.33001 0.0
C3893 C 0.10045 0.65823 0.2941 0.0
C3894 C 0.10347 0.66559 0.30774 0.0
H3895 H 0.08662 0.64239 0.28244 0.0
H3896 H 0.10633 0.66133 0.28389 0.0
C3897 C 0.09569 0.66115 0.32075 0.0
C3898 C 0.32973 0.84061 0.07156 0.0
C3899 C 0.32671 0.84901 0.05852 0.0
H3900 H 0.3423 0.82263 0.08145 0.0
C3901 C 0.33532 0.84637 0.04554 0.0
H3902 H 0.32331 0.84242 0.08175 0.0
C3903 C 0.3462 0.83503 0.04536 0.0
C3904 C 0.34867 0.82611 0.05817 0.0
H3905 H 0.3333 0.85271 0.03534 0.0
H3906 H 0.35229 0.83292 0.03503 0.0
C3907 C 0.3406 0.82927 0.07138 0.0
C3908 C 0.15633 0.09695 0.81827 0.0
C3909 C 0.16092 0.10385 0.80481 0.0
H3910 H 0.14257 0.07993 0.82841 0.0
C3911 C 0.15334 0.10033 0.79141 0.0
H3912 H 0.16191 0.09951 0.82879 0.0
C3913 C 0.14237 0.08917 0.7912 0.0
C3914 C 0.1387 0.08131 0.80438 0.0
H3915 H 0.15648 0.10561 0.7809 0.0
H3916 H 0.13733 0.08615 0.78053 0.0
C3917 C 0.14526 0.08575 0.81806 0.0
C3918 C 0.90687 0.84662 0.1786 0.0
C3919 C 0.91271 0.85184 0.19233 0.0
H3920 H 0.89166 0.83141 0.16773 0.0
C3921 C 0.90609 0.84704 0.20581 0.0
H3922 H 0.91169 0.85023 0.16801 0.0
C3923 C 0.89462 0.83637 0.20565 0.0
C3924 C 0.88958 0.83023 0.19199 0.0
H3925 H 0.91021 0.85102 0.21656 0.0
H3926 H 0.89023 0.83239 0.21629 0.0
C3927 C 0.89539 0.83586 0.17843 0.0
C3928 C 0.15669 0.64532 0.93205 0.0
C3929 C 0.16373 0.64178 0.94576 0.0
H3930 H 0.14061 0.65921 0.9207 0.0
C3931 C 0.15864 0.64872 0.95899 0.0
H3932 H 0.1603 0.64007 0.92166 0.0
C3933 C 0.1474 0.65965 0.95841 0.0
C3934 C 0.14098 0.66387 0.9446 0.0
H3935 H 0.16374 0.64615 0.96974 0.0
H3936 H 0.14412 0.6652 0.96877 0.0
C3937 C 0.14539 0.65627 0.93147 0.0
C3938 C 0.33658 0.89258 0.67441 0.0
C3939 C 0.33193 0.8857 0.68785 0.0
H3940 H 0.35042 0.90954 0.66432 0.0
C3941 C 0.33957 0.88908 0.70125 0.0
H3942 H 0.33095 0.89011 0.66389 0.0
C3943 C 0.35062 0.90016 0.7015 0.0
C3944 C 0.35431 0.90806 0.68835 0.0
H3945 H 0.3364 0.88379 0.71175 0.0
H3946 H 0.35568 0.90313 0.71217 0.0
C3947 C 0.34773 0.9037 0.67465 0.0
C3948 C 0.54146 0.90691 0.899 0.0
C3949 C 0.55467 0.91458 0.895 0.0
H3950 H 0.53128 0.89058 0.91342 0.0
C3951 C 0.56833 0.91043 0.90179 0.0
H3952 H 0.53079 0.90979 0.89388 0.0
C3953 C 0.5686 0.89948 0.91305 0.0
C3954 C 0.55524 0.89242 0.91763 0.0
H3955 H 0.57872 0.91609 0.89889 0.0
H3956 H 0.57919 0.89695 0.91851 0.0
C3957 C 0.54175 0.8959 0.91019 0.0
C3958 C 0.08029 0.28937 0.64623 0.0
C3959 C 0.07442 0.30336 0.64182 0.0
H3960 H 0.09502 0.27755 0.66114 0.0
C3961 C 0.08018 0.31652 0.64838 0.0
H3962 H 0.07609 0.27903 0.64136 0.0
C3963 C 0.09113 0.31566 0.65961 0.0
C3964 C 0.09638 0.30162 0.66462 0.0
H3965 H 0.07591 0.32746 0.64514 0.0
H3966 H 0.09503 0.32599 0.6648 0.0
C3967 C 0.09111 0.28851 0.65759 0.0
C3968 C 0.16165 0.45458 0.14794 0.0
C3969 C 0.16747 0.44057 0.1435 0.0
H3970 H 0.14688 0.46644 0.1628 0.0
C3971 C 0.16162 0.42742 0.14999 0.0
H3972 H 0.16592 0.46491 0.14312 0.0
C3973 C 0.15061 0.4283 0.16116 0.0
C3974 C 0.14538 0.44235 0.16618 0.0
H3975 H 0.16584 0.41647 0.14673 0.0
H3976 H 0.14664 0.41798 0.16628 0.0
C3977 C 0.15077 0.45546 0.15923 0.0
C3978 C 0.57045 0.842 0.82966 0.0
C3979 C 0.55748 0.8504 0.82634 0.0
H3980 H 0.58002 0.8239 0.84227 0.0
C3981 C 0.54422 0.84758 0.83446 0.0
H3982 H 0.58085 0.84395 0.82363 0.0
C3983 C 0.54374 0.83607 0.84515 0.0
C3984 C 0.55651 0.82718 0.8479 0.0
H3985 H 0.53406 0.8539 0.83219 0.0
H3986 H 0.53322 0.83381 0.85086 0.0
C3987 C 0.56997 0.83051 0.84033 0.0
C3988 C 0.15842 0.28651 0.5951 0.0
C3989 C 0.16324 0.30008 0.60157 0.0
H3990 H 0.14447 0.2759 0.57869 0.0
C3991 C 0.15621 0.31357 0.59727 0.0
H3992 H 0.16351 0.2759 0.59831 0.0
C3993 C 0.14526 0.31355 0.58597 0.0
C3994 C 0.14118 0.30006 0.57883 0.0
H3995 H 0.15962 0.32417 0.60212 0.0
H3996 H 0.14049 0.32418 0.5824 0.0
C3997 C 0.1475 0.2865 0.58386 0.0
C3998 C 0.40739 0.67703 0.84205 0.0
C3999 C 0.41208 0.69109 0.84749 0.0
H4000 H 0.3933 0.66516 0.82654 0.0
C4001 C 0.40471 0.70413 0.84246 0.0
H4002 H 0.41283 0.66679 0.84577 0.0
C4003 C 0.39342 0.70318 0.83159 0.0
C4004 C 0.38942 0.6892 0.82542 0.0
H4005 H 0.408 0.71511 0.84656 0.0
H4006 H 0.38835 0.71347 0.82752 0.0
C4007 C 0.39623 0.67609 0.83103 0.0
C4008 C 0.83166 0.03997 0.34804 0.0
C4009 C 0.82489 0.05371 0.35193 0.0
H4010 H 0.84752 0.02858 0.33397 0.0
C4011 C 0.83006 0.06699 0.34512 0.0
H4012 H 0.82797 0.02954 0.35312 0.0
C4013 C 0.84141 0.06645 0.33423 0.0
C4014 C 0.84765 0.0526 0.32984 0.0
H4015 H 0.82509 0.07775 0.34794 0.0
H4016 H 0.84488 0.07681 0.32886 0.0
C4017 C 0.84286 0.03941 0.33706 0.0
C4018 C 0.42773 0.59258 0.58122 0.0
C4019 C 0.44099 0.59886 0.57538 0.0
H4020 H 0.41802 0.57697 0.59676 0.0
C4021 C 0.45487 0.59484 0.58176 0.0
H4022 H 0.41687 0.59555 0.57658 0.0
C4023 C 0.45555 0.58411 0.5932 0.0
C4024 C 0.44235 0.57733 0.5986 0.0
H4025 H 0.46528 0.59953 0.57753 0.0
H4026 H 0.46645 0.58081 0.59752 0.0
C4027 C 0.42839 0.58198 0.59281 0.0
C4028 C 0.83842 0.20283 0.89779 0.0
C4029 C 0.83054 0.18991 0.89327 0.0
H4030 H 0.85485 0.2122 0.91262 0.0
C4031 C 0.83455 0.17592 0.89942 0.0
H4032 H 0.83565 0.21374 0.89315 0.0
C4033 C 0.84547 0.17505 0.9107 0.0
C4034 C 0.85267 0.18813 0.91588 0.0
H4035 H 0.8287 0.16576 0.89612 0.0
H4036 H 0.84782 0.16424 0.91578 0.0
C4037 C 0.84943 0.20194 0.90894 0.0
C4038 C 0.95257 0.64252 0.15521 0.0
C4039 C 0.93913 0.6378 0.16205 0.0
H4040 H 0.96302 0.65747 0.13959 0.0
C4041 C 0.92539 0.6435 0.15672 0.0
H4042 H 0.96333 0.63819 0.15894 0.0
C4043 C 0.92522 0.65462 0.14556 0.0
C4044 C 0.93878 0.66017 0.13961 0.0
H4045 H 0.91486 0.64003 0.16174 0.0
H4046 H 0.91453 0.65941 0.14221 0.0
C4047 C 0.95239 0.65359 0.14412 0.0
C4048 C 0.09065 0.59742 0.95045 0.0
C4049 C 0.08223 0.60124 0.93765 0.0
H4050 H 0.10741 0.58305 0.95995 0.0
C4051 C 0.08569 0.59437 0.92385 0.0
H4052 H 0.08831 0.60263 0.96122 0.0
C4053 C 0.09658 0.58305 0.92314 0.0
C4054 C 0.10425 0.57852 0.93619 0.0
H4055 H 0.07942 0.59713 0.91378 0.0
H4056 H 0.0985 0.5774 0.91252 0.0
C4057 C 0.10159 0.5862 0.94972 0.0
C4058 C 0.65792 0.64084 0.4495 0.0
C4059 C 0.66604 0.63844 0.43617 0.0
H4060 H 0.64086 0.65362 0.46062 0.0
C4061 C 0.66171 0.64613 0.42306 0.0
H4062 H 0.6609 0.63499 0.45976 0.0
C4063 C 0.65011 0.65676 0.42353 0.0
C4064 C 0.64276 0.65994 0.43716 0.0
H4065 H 0.66769 0.64443 0.41259 0.0
H4066 H 0.6475 0.66306 0.41344 0.0
C4067 C 0.64643 0.65151 0.45 0.0
C4068 C 0.83075 0.39931 0.67431 0.0
C4069 C 0.82584 0.39179 0.68731 0.0
H4070 H 0.84531 0.41615 0.66511 0.0
C4071 C 0.83316 0.39459 0.70102 0.0
H4072 H 0.82538 0.3973 0.66356 0.0
C4073 C 0.84447 0.40543 0.70192 0.0
C4074 C 0.84878 0.41359 0.68911 0.0
H4075 H 0.8297 0.38892 0.71122 0.0
H4076 H 0.84944 0.40783 0.71278 0.0
C4077 C 0.84219 0.41007 0.67518 0.0
C4078 C 0.84731 0.83529 0.53492 0.0
C4079 C 0.85293 0.82982 0.54864 0.0
H4080 H 0.83135 0.84949 0.52392 0.0
C4081 C 0.84756 0.83604 0.56213 0.0
H4082 H 0.85131 0.83083 0.52432 0.0
C4083 C 0.83607 0.84681 0.56189 0.0
C4084 C 0.82975 0.85148 0.54816 0.0
H4085 H 0.85171 0.83208 0.57288 0.0
H4086 H 0.83167 0.85095 0.57248 0.0
C4087 C 0.83584 0.84597 0.53468 0.0
C4088 C 0.64821 0.58209 0.82079 0.0
C4089 C 0.64051 0.57908 0.80733 0.0
H4090 H 0.66615 0.59423 0.83138 0.0
C4091 C 0.64392 0.58759 0.79447 0.0
H4092 H 0.64582 0.57571 0.83088 0.0
C4093 C 0.6555 0.59815 0.79476 0.0
C4094 C 0.66396 0.60039 0.80789 0.0
H4095 H 0.63808 0.58559 0.78396 0.0
H4096 H 0.65824 0.60406 0.78447 0.0
C4097 C 0.65989 0.59264 0.82106 0.0
C4098 C 0.89636 0.40783 0.06179 0.0
C4099 C 0.89221 0.41492 0.04829 0.0
H4100 H 0.91085 0.39183 0.07247 0.0
C4101 C 0.89872 0.41005 0.03475 0.0
H4102 H 0.89146 0.41129 0.07239 0.0
C4103 C 0.90981 0.39895 0.03479 0.0
C4104 C 0.9146 0.39248 0.04838 0.0
H4105 H 0.89567 0.4152 0.02415 0.0
H4106 H 0.915 0.39585 0.02422 0.0
C4107 C 0.90746 0.39669 0.06183 0.0
C4108 C 0.8993 0.17616 0.83465 0.0
C4109 C 0.89347 0.19019 0.83027 0.0
H4110 H 0.91554 0.1644 0.848 0.0
C4111 C 0.89873 0.20324 0.83742 0.0
H4112 H 0.89544 0.16589 0.82936 0.0
C4113 C 0.91012 0.20237 0.84819 0.0
C4114 C 0.91659 0.18844 0.85189 0.0
H4115 H 0.89438 0.2142 0.83435 0.0
H4116 H 0.9143 0.21269 0.85313 0.0
C4117 C 0.91082 0.1753 0.8453 0.0
C4118 C 0.31829 0.65793 0.09485 0.0
C4119 C 0.30422 0.66113 0.10131 0.0
H4120 H 0.33033 0.64545 0.07811 0.0
C4121 C 0.29165 0.65266 0.09692 0.0
H4122 H 0.32818 0.66428 0.09802 0.0
C4123 C 0.29289 0.64184 0.08563 0.0
C4124 C 0.30672 0.63938 0.07839 0.0
H4125 H 0.28069 0.65481 0.10179 0.0
H4126 H 0.28285 0.63593 0.08209 0.0
C4127 C 0.31951 0.64719 0.08341 0.0
C4128 C 0.43008 0.65429 0.66053 0.0
C4129 C 0.44416 0.64915 0.66554 0.0
H4130 H 0.41815 0.66986 0.64655 0.0
C4131 C 0.45727 0.65526 0.65921 0.0
H4132 H 0.41977 0.64978 0.66519 0.0
C4133 C 0.45633 0.66668 0.64848 0.0
C4134 C 0.44227 0.6723 0.64397 0.0
H4135 H 0.46828 0.65148 0.66281 0.0
H4136 H 0.46665 0.67141 0.64406 0.0
C4137 C 0.42914 0.66582 0.6499 0.0
C4138 C 0.31479 0.59851 0.15671 0.0
C4139 C 0.30101 0.60408 0.16209 0.0
H4140 H 0.32578 0.58219 0.14277 0.0
C4141 C 0.28756 0.59856 0.1559 0.0
H4142 H 0.32533 0.60258 0.16124 0.0
C4143 C 0.28781 0.5869 0.14544 0.0
C4144 C 0.30151 0.58053 0.14089 0.0
H4145 H 0.27677 0.60275 0.15969 0.0
H4146 H 0.27721 0.58245 0.14142 0.0
C4147 C 0.31503 0.58681 0.14617 0.0
C4148 C 0.90173 0.04051 0.39181 0.0
C4149 C 0.90953 0.05375 0.38827 0.0
H4150 H 0.88537 0.03002 0.40589 0.0
C4151 C 0.90496 0.06738 0.39485 0.0
H4152 H 0.90485 0.02988 0.38673 0.0
C4153 C 0.89377 0.06746 0.40591 0.0
C4154 C 0.88702 0.05392 0.41047 0.0
H4155 H 0.91072 0.07779 0.39223 0.0
H4156 H 0.89117 0.07793 0.41157 0.0
C4157 C 0.89056 0.0406 0.40278 0.0
C4158 C 0.09902 0.92596 0.58697 0.0
C4159 C 0.10461 0.93956 0.58119 0.0
H4160 H 0.08313 0.91542 0.60171 0.0
C4161 C 0.09946 0.95319 0.58733 0.0
H4162 H 0.10283 0.91529 0.58252 0.0
C4163 C 0.08818 0.95327 0.59821 0.0
C4164 C 0.08184 0.93972 0.60325 0.0
H4165 H 0.10366 0.96386 0.58323 0.0
H4166 H 0.084 0.96398 0.60223 0.0
C4167 C 0.08774 0.92604 0.59795 0.0
C4168 C 0.58253 0.79342 0.64471 0.0
C4169 C 0.57565 0.80727 0.6415 0.0
H4170 H 0.59871 0.78159 0.65796 0.0
C4171 C 0.58107 0.82034 0.64854 0.0
H4172 H 0.5787 0.78316 0.63938 0.0
C4173 C 0.59265 0.81945 0.65915 0.0
C4174 C 0.59893 0.80545 0.66295 0.0
H4175 H 0.57605 0.83119 0.6462 0.0
H4176 H 0.59622 0.82961 0.66483 0.0
C4177 C 0.59402 0.79252 0.65534 0.0
C4178 C 0.67355 0.3348 0.89672 0.0
C4179 C 0.68715 0.3316 0.88934 0.0
H4180 H 0.66278 0.34669 0.91472 0.0
C4181 C 0.70016 0.33957 0.89342 0.0
H4182 H 0.66334 0.32882 0.89382 0.0
C4183 C 0.69984 0.34977 0.90533 0.0
C4184 C 0.68652 0.35216 0.91346 0.0
H4185 H 0.71078 0.33741 0.88785 0.0
H4186 H 0.71022 0.35525 0.90858 0.0
C4187 C 0.67325 0.34497 0.90873 0.0
C4188 C 0.70588 0.4042 0.84942 0.0
C4189 C 0.69248 0.41097 0.85434 0.0
H4190 H 0.71629 0.38925 0.83377 0.0
C4191 C 0.67873 0.40608 0.84828 0.0
H4192 H 0.71665 0.4076 0.85401 0.0
C4193 C 0.67854 0.3955 0.83662 0.0
C4194 C 0.69208 0.38971 0.83087 0.0
H4195 H 0.66822 0.41105 0.8519 0.0
H4196 H 0.66786 0.39252 0.83158 0.0
C4197 C 0.70569 0.3937 0.8378 0.0
C4198 C 0.06848 0.84373 0.33247 0.0
C4199 C 0.05536 0.85117 0.32772 0.0
H4200 H 0.07795 0.82675 0.34671 0.0
C4201 C 0.04172 0.84809 0.33507 0.0
H4202 H 0.07917 0.84594 0.32707 0.0
C4203 C 0.041 0.83707 0.34621 0.0
C4204 C 0.05393 0.82898 0.35033 0.0
H4205 H 0.03142 0.85369 0.33174 0.0
H4206 H 0.03019 0.83448 0.35119 0.0
C4207 C 0.06778 0.83277 0.34374 0.0
C4208 C 0.33501 0.34801 0.53584 0.0
C4209 C 0.32935 0.35333 0.54958 0.0
H4210 H 0.35016 0.33303 0.52477 0.0
C4211 C 0.33613 0.34855 0.56304 0.0
H4212 H 0.33016 0.35163 0.52527 0.0
C4213 C 0.34764 0.3378 0.56276 0.0
C4214 C 0.35255 0.33173 0.54902 0.0
H4215 H 0.33205 0.35254 0.5738 0.0
H4216 H 0.35215 0.33373 0.57331 0.0
C4217 C 0.3465 0.33736 0.53556 0.0
C4218 C 0.1472 0.58239 0.32119 0.0
C4219 C 0.13958 0.57823 0.30798 0.0
H4220 H 0.16454 0.59595 0.33098 0.0
C4221 C 0.14264 0.58601 0.29459 0.0
H4222 H 0.145 0.57666 0.33171 0.0
C4223 C 0.15384 0.59698 0.29416 0.0
C4224 C 0.16215 0.60046 0.30714 0.0
H4225 H 0.13688 0.58314 0.28425 0.0
H4226 H 0.15642 0.60229 0.28351 0.0
C4227 C 0.15836 0.59347 0.32079 0.0
C4228 C 0.16066 0.15076 0.42318 0.0
C4229 C 0.16463 0.14396 0.43687 0.0
H4230 H 0.14744 0.16762 0.4122 0.0
C4231 C 0.15689 0.14807 0.45002 0.0
H4232 H 0.16637 0.14778 0.41285 0.0
C4233 C 0.14599 0.15936 0.44963 0.0
C4234 C 0.1427 0.16682 0.43611 0.0
H4235 H 0.15963 0.14294 0.46072 0.0
H4236 H 0.14062 0.16267 0.46005 0.0
C4237 C 0.14983 0.16214 0.42281 0.0
C4238 C 0.33365 0.39877 0.17806 0.0
C4239 C 0.32863 0.393 0.19188 0.0
H4240 H 0.34761 0.41489 0.16687 0.0
C4241 C 0.3351 0.39838 0.20525 0.0
H4242 H 0.32889 0.39483 0.16756 0.0
C4243 C 0.34591 0.40977 0.20484 0.0
C4244 C 0.35032 0.41611 0.19106 0.0
H4245 H 0.33151 0.39409 0.21606 0.0
H4246 H 0.35036 0.41399 0.21536 0.0
C4247 C 0.34434 0.41028 0.17766 0.0
C4248 C 0.09195 0.78539 0.15845 0.0
C4249 C 0.09718 0.79859 0.16535 0.0
H4250 H 0.0767 0.77566 0.14258 0.0
C4251 C 0.09156 0.81254 0.16049 0.0
H4252 H 0.09615 0.77448 0.16191 0.0
C4253 C 0.08031 0.8132 0.14953 0.0
C4254 C 0.07462 0.79995 0.14309 0.0
H4255 H 0.09539 0.82292 0.16556 0.0
H4256 H 0.07578 0.82407 0.14641 0.0
C4257 C 0.08084 0.78607 0.14736 0.0
C4258 C 0.56778 0.34305 0.33228 0.0
C4259 C 0.55463 0.35059 0.32777 0.0
H4260 H 0.57735 0.32596 0.34629 0.0
C4261 C 0.54111 0.34766 0.33538 0.0
H4262 H 0.57839 0.34516 0.32669 0.0
C4263 C 0.54051 0.33666 0.34653 0.0
C4264 C 0.55343 0.32842 0.35036 0.0
H4265 H 0.53081 0.35337 0.33224 0.0
H4266 H 0.52976 0.33416 0.35171 0.0
C4267 C 0.56719 0.33209 0.34353 0.0
C4268 C 0.40466 0.17251 0.34744 0.0
C4269 C 0.40898 0.18609 0.35431 0.0
H4270 H 0.39085 0.162 0.33067 0.0
C4271 C 0.40091 0.19925 0.35099 0.0
H4272 H 0.41063 0.16217 0.34984 0.0
C4273 C 0.38965 0.19914 0.3401 0.0
C4274 C 0.38619 0.18588 0.33227 0.0
H4275 H 0.40383 0.20984 0.35625 0.0
H4276 H 0.3842 0.20966 0.33725 0.0
C4277 C 0.39332 0.17241 0.33648 0.0
C4278 C 0.95353 0.15627 0.64981 0.0
C4279 C 0.94037 0.16335 0.64469 0.0
H4280 H 0.9632 0.14047 0.66515 0.0
C4281 C 0.92641 0.15879 0.65054 0.0
H4282 H 0.96443 0.15949 0.64544 0.0
C4283 C 0.92571 0.148 0.66194 0.0
C4284 C 0.93893 0.14144 0.66755 0.0
H4285 H 0.91606 0.164 0.64679 0.0
H4286 H 0.91485 0.14513 0.66665 0.0
C4287 C 0.95281 0.14536 0.66108 0.0
C4288 C 0.58525 0.09881 0.92935 0.0
C4289 C 0.57906 0.10378 0.94302 0.0
H4290 H 0.60109 0.08415 0.91862 0.0
C4291 C 0.58568 0.09918 0.95657 0.0
H4292 H 0.58044 0.10229 0.91871 0.0
C4293 C 0.59753 0.08892 0.95652 0.0
C4294 C 0.60293 0.08297 0.94291 0.0
H4295 H 0.58129 0.10299 0.96728 0.0
H4296 H 0.60191 0.08504 0.9672 0.0
C4297 C 0.59709 0.08845 0.92929 0.0
C4298 C 0.39495 0.33563 0.17877 0.0
C4299 C 0.38927 0.33039 0.19255 0.0
H4300 H 0.41134 0.34944 0.16775 0.0
C4301 C 0.39472 0.33667 0.20598 0.0
H4302 H 0.3909 0.33106 0.16823 0.0
C4303 C 0.40643 0.34708 0.20571 0.0
C4304 C 0.41287 0.3515 0.192 0.0
H4305 H 0.39046 0.333 0.21678 0.0
H4306 H 0.41085 0.35118 0.21629 0.0
C4307 C 0.40665 0.34614 0.17849 0.0
C4308 C 0.60288 0.15012 0.29501 0.0
C4309 C 0.60626 0.15823 0.30813 0.0
H4310 H 0.58862 0.13389 0.28455 0.0
C4311 C 0.59904 0.15432 0.32164 0.0
H4312 H 0.60841 0.15272 0.28447 0.0
C4313 C 0.58765 0.14346 0.32169 0.0
C4314 C 0.58334 0.1364 0.30822 0.0
H4315 H 0.60149 0.16032 0.33195 0.0
H4316 H 0.58158 0.14134 0.33203 0.0
C4317 C 0.59153 0.13933 0.29506 0.0
C4318 C 0.40703 0.89517 0.03811 0.0
C4319 C 0.41314 0.89017 0.05178 0.0
H4320 H 0.39186 0.91022 0.02719 0.0
C4321 C 0.40706 0.89555 0.06534 0.0
H4322 H 0.41135 0.89108 0.02748 0.0
C4323 C 0.39584 0.9066 0.06518 0.0
C4324 C 0.39056 0.91239 0.05146 0.0
H4325 H 0.41149 0.89182 0.07605 0.0
H4326 H 0.39191 0.91115 0.07577 0.0
C4327 C 0.39585 0.90613 0.03795 0.0
C4328 C 0.92598 0.07951 0.59414 0.0
C4329 C 0.93933 0.07469 0.60107 0.0
H4330 H 0.9159 0.09408 0.57789 0.0
C4331 C 0.95287 0.08207 0.59765 0.0
H4332 H 0.91535 0.0741 0.59663 0.0
C4333 C 0.9532 0.09345 0.58685 0.0
C4334 C 0.93998 0.09774 0.57934 0.0
H4335 H 0.96333 0.07864 0.60287 0.0
H4336 H 0.96391 0.09854 0.58401 0.0
C4337 C 0.92629 0.09098 0.58342 0.0
C4338 C 0.78819 0.16242 0.09505 0.0
C4339 C 0.80207 0.16882 0.09906 0.0
H4340 H 0.77658 0.14677 0.08092 0.0
C4341 C 0.8153 0.16318 0.09254 0.0
H4342 H 0.7778 0.16651 0.09993 0.0
C4343 C 0.81461 0.15179 0.08174 0.0
C4344 C 0.80066 0.14594 0.07715 0.0
H4345 H 0.82616 0.16784 0.09547 0.0
H4346 H 0.82497 0.14799 0.07658 0.0
C4347 C 0.78748 0.15113 0.08415 0.0
C4348 C 0.35139 0.53991 0.33656 0.0
C4349 C 0.35549 0.55361 0.32988 0.0
H4350 H 0.33749 0.52875 0.35261 0.0
C4351 C 0.34974 0.56708 0.33583 0.0
H4352 H 0.3558 0.52936 0.33236 0.0
C4353 C 0.33914 0.56674 0.34747 0.0
C4354 C 0.33421 0.55292 0.35335 0.0
H4355 H 0.35278 0.57782 0.33095 0.0
H4356 H 0.33424 0.57722 0.35128 0.0
C4357 C 0.34091 0.53958 0.34819 0.0
C4358 C 0.34132 0.67773 0.90885 0.0
C4359 C 0.34682 0.69178 0.91356 0.0
H4360 H 0.32552 0.66594 0.89503 0.0
C4361 C 0.34144 0.70487 0.90656 0.0
H4362 H 0.34529 0.66744 0.91401 0.0
C4363 C 0.33024 0.704 0.89559 0.0
C4364 C 0.32409 0.69003 0.89155 0.0
H4365 H 0.34555 0.71584 0.90988 0.0
H4366 H 0.32595 0.71433 0.89077 0.0
C4367 C 0.32999 0.67687 0.89801 0.0
C4368 C 0.81458 0.08396 0.15127 0.0
C4369 C 0.8007 0.07882 0.14572 0.0
H4370 H 0.8259 0.0982 0.16703 0.0
C4371 C 0.78738 0.08543 0.15103 0.0
H4372 H 0.82505 0.07912 0.14735 0.0
C4373 C 0.78788 0.09645 0.16221 0.0
C4374 C 0.8017 0.10096 0.16837 0.0
H4375 H 0.77653 0.08175 0.14689 0.0
H4376 H 0.77739 0.10098 0.16643 0.0
C4377 C 0.81507 0.09487 0.16256 0.0
C4378 C 0.41112 0.56923 0.39791 0.0
C4379 C 0.41599 0.55613 0.39052 0.0
H4380 H 0.39611 0.57874 0.41419 0.0
C4381 C 0.40806 0.54266 0.39278 0.0
H4382 H 0.41695 0.5798 0.39629 0.0
C4383 C 0.39621 0.54204 0.40303 0.0
C4384 C 0.39196 0.5549 0.41115 0.0
H4385 H 0.41144 0.5324 0.38715 0.0
H4386 H 0.39079 0.53133 0.40507 0.0
C4387 C 0.39914 0.56864 0.4081 0.0
C4388 C 0.58366 0.44945 0.60035 0.0
C4389 C 0.57654 0.43576 0.60369 0.0
H4390 H 0.59951 0.46099 0.58644 0.0
C4391 C 0.58141 0.4226 0.59642 0.0
H4392 H 0.58023 0.45977 0.60583 0.0
C4393 C 0.59259 0.42328 0.58537 0.0
C4394 C 0.59896 0.43716 0.58132 0.0
H4395 H 0.57618 0.41187 0.59883 0.0
H4396 H 0.59567 0.41308 0.57947 0.0
C4397 C 0.59471 0.45015 0.58924 0.0
C4398 C 0.20653 0.8342 0.89661 0.0
C4399 C 0.19261 0.82998 0.89045 0.0
H4400 H 0.21811 0.84747 0.91296 0.0
C4401 C 0.17951 0.83738 0.89527 0.0
H4402 H 0.21685 0.8288 0.89302 0.0
C4403 C 0.18024 0.84811 0.90675 0.0
C4404 C 0.19408 0.85161 0.91357 0.0
H4405 H 0.16863 0.83442 0.89067 0.0
H4406 H 0.1699 0.85319 0.9107 0.0
C4407 C 0.20726 0.8449 0.90805 0.0
C4408 C 0.65055 0.92449 0.15974 0.0
C4409 C 0.64414 0.93838 0.16369 0.0
H4410 H 0.66701 0.91302 0.14637 0.0
C4411 C 0.64841 0.95134 0.15574 0.0
H4412 H 0.64746 0.91431 0.16566 0.0
C4413 C 0.65949 0.95059 0.14466 0.0
C4414 C 0.66663 0.93689 0.14138 0.0
H4415 H 0.64357 0.96218 0.15845 0.0
H4416 H 0.66292 0.96089 0.13913 0.0
C4417 C 0.66177 0.92376 0.14873 0.0
C4418 C 0.04212 0.39398 0.90816 0.0
C4419 C 0.05584 0.39082 0.91532 0.0
H4420 H 0.03042 0.40784 0.89238 0.0
C4421 C 0.0689 0.39837 0.91059 0.0
H4422 H 0.03188 0.38829 0.91148 0.0
C4423 C 0.06807 0.40952 0.89953 0.0
C4424 C 0.05415 0.41338 0.89313 0.0
H4425 H 0.07965 0.39609 0.91585 0.0
H4426 H 0.07819 0.41562 0.89657 0.0
C4427 C 0.04128 0.40519 0.89722 0.0
C4428 C 0.65941 0.79388 0.59812 0.0
C4429 C 0.66652 0.80768 0.60098 0.0
H4430 H 0.64359 0.78184 0.5846 0.0
C4431 C 0.66171 0.82056 0.5932 0.0
H4432 H 0.66279 0.78376 0.604 0.0
C4433 C 0.65059 0.81947 0.58213 0.0
C4434 C 0.64422 0.80545 0.57858 0.0
H4435 H 0.66693 0.83137 0.59525 0.0
H4436 H 0.64755 0.82945 0.57585 0.0
C4437 C 0.64841 0.79277 0.587 0.0
C4438 C 0.20024 0.90909 0.84897 0.0
C4439 C 0.1868 0.91691 0.85173 0.0
H4440 H 0.2115 0.89254 0.83564 0.0
C4441 C 0.1737 0.91267 0.84396 0.0
H4442 H 0.2105 0.91202 0.85484 0.0
C4443 C 0.17426 0.9014 0.833 0.0
C4444 C 0.18794 0.89429 0.82956 0.0
H4445 H 0.16316 0.91844 0.84593 0.0
H4446 H 0.16414 0.8988 0.82674 0.0
C4447 C 0.20081 0.89792 0.83796 0.0
C4448 C 0.58259 0.64763 0.82027 0.0
C4449 C 0.578 0.63972 0.80739 0.0
H4450 H 0.59682 0.66487 0.82926 0.0
C4451 C 0.5856 0.64215 0.79376 0.0
H4452 H 0.57699 0.64592 0.83094 0.0
C4453 C 0.59686 0.65303 0.79278 0.0
C4454 C 0.60082 0.66161 0.80543 0.0
H4455 H 0.5824 0.63615 0.78366 0.0
H4456 H 0.60204 0.65513 0.78196 0.0
C4457 C 0.59397 0.65845 0.81931 0.0
C4458 C 0.40946 0.84575 0.70939 0.0
C4459 C 0.41393 0.85286 0.69601 0.0
H4460 H 0.39522 0.82933 0.71965 0.0
C4461 C 0.40613 0.84966 0.68265 0.0
H4462 H 0.41517 0.84806 0.71989 0.0
C4463 C 0.39466 0.8389 0.68251 0.0
C4464 C 0.39081 0.83116 0.69573 0.0
H4465 H 0.40925 0.85503 0.67218 0.0
H4466 H 0.38924 0.83624 0.67193 0.0
C4467 C 0.39802 0.83502 0.70925 0.0
C4468 C 0.0657 0.90616 0.39329 0.0
C4469 C 0.05189 0.91137 0.38765 0.0
H4470 H 0.07677 0.89208 0.40942 0.0
C4471 C 0.03851 0.9047 0.39276 0.0
H4472 H 0.0762 0.91104 0.38951 0.0
C4473 C 0.03882 0.89395 0.40414 0.0
C4474 C 0.05253 0.8896 0.41064 0.0
H4475 H 0.02769 0.90835 0.3885 0.0
H4476 H 0.02825 0.88957 0.40832 0.0
C4477 C 0.06602 0.89533 0.40471 0.0
C4478 C 0.65604 0.45594 0.64384 0.0
C4479 C 0.66256 0.44248 0.63882 0.0
H4480 H 0.64044 0.46633 0.65883 0.0
C4481 C 0.6568 0.42872 0.64407 0.0
H4482 H 0.6601 0.4667 0.63986 0.0
C4483 C 0.64551 0.42849 0.65502 0.0
C4484 C 0.63979 0.44202 0.66084 0.0
H4485 H 0.66154 0.41815 0.6403 0.0
H4486 H 0.64184 0.41776 0.65947 0.0
C4487 C 0.64475 0.45571 0.65471 0.0
C4488 C 0.65594 0.3153 0.09704 0.0
C4489 C 0.66218 0.302 0.10286 0.0
H4490 H 0.64111 0.32506 0.0807 0.0
C4491 C 0.65665 0.28809 0.09784 0.0
H4492 H 0.65994 0.32619 0.10075 0.0
C4493 C 0.64592 0.28744 0.08646 0.0
C4494 C 0.6405 0.30069 0.07979 0.0
H4495 H 0.66111 0.27765 0.10226 0.0
H4496 H 0.6424 0.27652 0.0824 0.0
C4497 C 0.64517 0.31465 0.08556 0.0
C4498 C 0.34821 0.06325 0.83685 0.0
C4499 C 0.35385 0.04949 0.83152 0.0
H4500 H 0.33214 0.07419 0.85111 0.0
C4501 C 0.34889 0.03606 0.83819 0.0
H4502 H 0.35188 0.07379 0.83197 0.0
C4503 C 0.3376 0.03628 0.84905 0.0
C4504 C 0.33106 0.04994 0.85351 0.0
H4505 H 0.35317 0.02529 0.83445 0.0
H4506 H 0.33351 0.02568 0.85343 0.0
C4507 C 0.33688 0.06347 0.84778 0.0
C4508 C 0.92797 0.59818 0.08825 0.0
C4509 C 0.94168 0.60318 0.08221 0.0
H4510 H 0.9171 0.58304 0.10353 0.0
C4511 C 0.9552 0.59797 0.0885 0.0
H4512 H 0.91737 0.60207 0.08368 0.0
C4513 C 0.95506 0.58712 0.0998 0.0
C4514 C 0.94139 0.58124 0.10506 0.0
H4515 H 0.96596 0.60176 0.08422 0.0
H4516 H 0.9657 0.58283 0.10391 0.0
C4517 C 0.92782 0.58728 0.0996 0.0
C4518 C 0.3545 0.20163 0.40073 0.0
C4519 C 0.35811 0.18834 0.40843 0.0
H4520 H 0.34022 0.21226 0.38463 0.0
C4521 C 0.35136 0.17478 0.40392 0.0
H4522 H 0.35969 0.21222 0.4038 0.0
C4523 C 0.34013 0.1748 0.39288 0.0
C4524 C 0.33554 0.18839 0.38623 0.0
H4525 H 0.35399 0.16433 0.40961 0.0
H4526 H 0.33437 0.16438 0.39032 0.0
C4527 C 0.34334 0.20166 0.38974 0.0
C4528 C 0.59979 0.5869 0.42773 0.0
C4529 C 0.60548 0.58158 0.44148 0.0
H4530 H 0.58368 0.60117 0.41685 0.0
C4531 C 0.60053 0.58824 0.45492 0.0
H4532 H 0.60344 0.58202 0.41719 0.0
C4533 C 0.58921 0.59908 0.45473 0.0
C4534 C 0.58265 0.60356 0.4411 0.0
H4535 H 0.60483 0.58452 0.46568 0.0
H4536 H 0.58514 0.60346 0.46535 0.0
C4537 C 0.58845 0.59783 0.42754 0.0
C4538 C 0.40783 0.39515 0.53691 0.0
C4539 C 0.41387 0.38994 0.55052 0.0
H4540 H 0.39246 0.41015 0.52619 0.0
C4541 C 0.40751 0.39486 0.56413 0.0
H4542 H 0.41235 0.39142 0.52623 0.0
C4543 C 0.39605 0.40567 0.56412 0.0
C4544 C 0.3908 0.41167 0.55048 0.0
H4545 H 0.41187 0.39095 0.57481 0.0
H4546 H 0.3919 0.40989 0.57476 0.0
C4547 C 0.3964 0.40587 0.53689 0.0
C4548 C 0.78509 0.66048 0.59571 0.0
C4549 C 0.79857 0.66564 0.6021 0.0
H4550 H 0.77474 0.64606 0.57954 0.0
C4551 C 0.81219 0.65878 0.59794 0.0
H4552 H 0.77439 0.66546 0.59881 0.0
C4553 C 0.81239 0.64764 0.58684 0.0
C4554 C 0.79897 0.64319 0.57977 0.0
H4555 H 0.82274 0.66245 0.60275 0.0
H4556 H 0.8231 0.643 0.58337 0.0
C4557 C 0.78528 0.64936 0.58467 0.0
C4558 C 0.81632 0.58233 0.6489 0.0
C4559 C 0.80323 0.57657 0.6422 0.0
H4560 H 0.82559 0.5972 0.66542 0.0
C4561 C 0.7892 0.58248 0.64641 0.0
H4562 H 0.8273 0.57803 0.64582 0.0
C4563 C 0.78821 0.59331 0.65773 0.0
C4564 C 0.80124 0.59858 0.66493 0.0
H4565 H 0.77891 0.57829 0.64143 0.0
H4566 H 0.7772 0.59724 0.66115 0.0
C4567 C 0.81535 0.59333 0.6601 0.0
C4568 C 0.3961 0.04334 0.90351 0.0
C4569 C 0.39243 0.05637 0.91162 0.0
H4570 H 0.41066 0.03309 0.88742 0.0
C4571 C 0.40012 0.06981 0.90845 0.0
H4572 H 0.3903 0.03284 0.90563 0.0
C4573 C 0.41195 0.06993 0.89805 0.0
C4574 C 0.41617 0.05664 0.89061 0.0
H4575 H 0.39754 0.08003 0.91456 0.0
H4576 H 0.41814 0.08027 0.89627 0.0
C4577 C 0.40781 0.04348 0.89309 0.0
C4578 C 0.58862 0.9534 0.09975 0.0
C4579 C 0.5819 0.9399 0.10436 0.0
H4580 H 0.6042 0.96405 0.08496 0.0
C4581 C 0.58738 0.92622 0.09862 0.0
H4582 H 0.58477 0.96411 0.10415 0.0
C4583 C 0.59856 0.92618 0.08753 0.0
C4584 C 0.6044 0.93982 0.08209 0.0
H4585 H 0.58246 0.91565 0.10204 0.0
H4586 H 0.60199 0.91557 0.08265 0.0
C4587 C 0.59976 0.95337 0.08876 0.0
C4588 C 0.20372 0.33885 0.39697 0.0
C4589 C 0.19098 0.33063 0.39258 0.0
H4590 H 0.21282 0.35547 0.41174 0.0
C4591 C 0.17696 0.33417 0.39897 0.0
H4592 H 0.21465 0.33645 0.39215 0.0
C4593 C 0.17592 0.34501 0.41031 0.0
C4594 C 0.18886 0.35257 0.41534 0.0
H4595 H 0.16694 0.32803 0.39578 0.0
H4596 H 0.16511 0.34704 0.41554 0.0
C4597 C 0.20267 0.34974 0.4082 0.0
C4598 C 0.17528 0.40886 0.34307 0.0
C4599 C 0.18912 0.41306 0.34942 0.0
H4600 H 0.16398 0.39509 0.32684 0.0
C4601 C 0.20216 0.4051 0.34537 0.0
H4602 H 0.16504 0.41478 0.346 0.0
C4603 C 0.20154 0.3938 0.33451 0.0
C4604 C 0.18789 0.39031 0.32738 0.0
H4605 H 0.21297 0.408 0.35018 0.0
H4606 H 0.2119 0.38831 0.33121 0.0
C4607 C 0.17468 0.39762 0.33208 0.0
C4608 C 0.98117 0.12589 0.49341 0.0
C4609 C 0.98711 0.12146 0.50736 0.0
H4610 H 0.98586 0.13115 0.47035 0.0
C4611 C 0.00274 0.12021 0.50909 0.0
H4612 H 0.96913 0.12682 0.49179 0.0
C4613 C 0.01229 0.12305 0.49696 0.0
C4614 C 0.00632 0.12674 0.48282 0.0
H4615 H 0.00756 0.11682 0.51975 0.0
H4616 H 0.0243 0.12173 0.4985 0.0
C4617 C 0.9907 0.12829 0.48116 0.0
C4618 C 0.88355 0.24971 0.7345 0.0
C4619 C 0.86884 0.25486 0.73208 0.0
H4620 H 0.89828 0.23671 0.74834 0.0
C4621 C 0.85739 0.25072 0.74212 0.0
H4622 H 0.89259 0.25286 0.72696 0.0
C4623 C 0.86059 0.24114 0.75419 0.0
C4624 C 0.87536 0.23607 0.75662 0.0
H4625 H 0.84597 0.2546 0.74043 0.0
H4626 H 0.85157 0.23776 0.76166 0.0
C4627 C 0.88683 0.24058 0.74679 0.0
C4628 C 0.72991 0.12073 0.99377 0.0
C4629 C 0.73565 0.11553 0.98002 0.0
H4630 H 0.73501 0.12866 0.01595 0.0
C4631 C 0.75118 0.11318 0.97848 0.0
H4632 H 0.71797 0.12272 0.99519 0.0
C4633 C 0.76085 0.11615 0.99049 0.0
C4634 C 0.75516 0.12199 0.00401 0.0
H4635 H 0.75583 0.10916 0.96796 0.0
H4636 H 0.77283 0.11448 0.98901 0.0
C4637 C 0.73962 0.12418 0.0056 0.0
C4638 C 0.85663 0.00309 0.24566 0.0
C4639 C 0.86775 0.00722 0.25605 0.0
H4640 H 0.85144 0.99105 0.22552 0.0
C4641 C 0.8825 0.00184 0.25421 0.0
H4642 H 0.84522 0.00722 0.24676 0.0
C4643 C 0.88598 0.99223 0.24223 0.0
C4644 C 0.87488 0.9884 0.23168 0.0
H4645 H 0.89124 0.00494 0.26211 0.0
H4646 H 0.89736 0.98803 0.24105 0.0
C4647 C 0.86022 0.99396 0.23346 0.0
C4648 C 0.99648 0.13711 0.75179 0.0
C4649 C 0.00637 0.12566 0.75626 0.0
H4650 H 0.97642 0.1428 0.73984 0.0
C4651 C 0.00379 0.11085 0.75142 0.0
H4652 H -0.00185 0.1486 0.7555 0.0
C4653 C 0.99151 0.10758 0.74214 0.0
C4654 C 0.98141 0.11901 0.73806 0.0
H4655 H 0.01127 0.10184 0.75478 0.0
H4656 H 0.98971 0.09612 0.73844 0.0
C4657 C 0.984 0.13378 0.74296 0.0
C4658 C 0.85988 0.23295 0.9932 0.0
C4659 C 0.87449 0.23044 0.98783 0.0
H4660 H 0.84543 0.24695 0.00634 0.0
C4661 C 0.88607 0.24039 0.99182 0.0
H4662 H 0.85075 0.22547 0.99018 0.0
C4663 C 0.88309 0.25251 0.00141 0.0
C4664 C 0.86841 0.25507 0.00664 0.0
H4665 H 0.89743 0.23863 0.98778 0.0
H4666 H 0.8922 0.25995 0.00461 0.0
C4667 C 0.85682 0.24528 0.00234 0.0
C4668 C 0.75095 0.13607 0.24518 0.0
C4669 C 0.76102 0.12463 0.24105 0.0
H4670 H 0.73177 0.14206 0.2586 0.0
C4671 C 0.75909 0.11011 0.2469 0.0
H4672 H 0.75227 0.14735 0.24078 0.0
C4673 C 0.7472 0.107 0.25661 0.0
C4674 C 0.73731 0.11846 0.26101 0.0
H4675 H 0.76666 0.10108 0.24379 0.0
H4676 H 0.74595 0.09568 0.26092 0.0
C4677 C 0.73931 0.13306 0.25533 0.0
C4678 C 0.89137 0.97915 0.48912 0.0
C4679 C 0.88214 0.98015 0.50188 0.0
H4680 H 0.89842 0.98918 0.46857 0.0
C4681 C 0.87166 0.99195 0.50289 0.0
H4682 H 0.8994 0.97007 0.48788 0.0
C4683 C 0.87111 0.00305 0.49174 0.0
C4684 C 0.88101 0.00246 0.47942 0.0
H4685 H 0.86436 0.99297 0.51259 0.0
H4686 H 0.8634 0.01238 0.49309 0.0
C4687 C 0.89079 0.99013 0.47802 0.0
C4688 C 0.48502 -0.00259 0.10838 0.0
C4689 C 0.48389 0.00483 0.12226 0.0
H4690 H 0.49736 0.98178 0.0949 0.0
C4691 C 0.4947 0.00212 0.13343 0.0
H4692 H 0.47685 -0.0006 0.09957 0.0
C4693 C 0.50623 0.99172 0.13089 0.0
C4694 C 0.50736 0.98433 0.11698 0.0
H4695 H 0.494 0.00773 0.14422 0.0
H4696 H 0.51429 0.9895 0.13976 0.0
C4697 C 0.49679 0.98742 0.10568 0.0
C4698 C 0.00242 0.74838 0.37446 0.0
C4699 C 0.0019 0.76052 0.36437 0.0
H4700 H 0.99161 0.72823 0.38222 0.0
C4701 C 0.98898 0.76261 0.35554 0.0
H4702 H 0.01223 0.74654 0.38144 0.0
C4703 C 0.97724 0.7523 0.35604 0.0
C4704 C 0.97813 0.73955 0.36531 0.0
H4705 H 0.98812 0.77201 0.34784 0.0
H4706 H 0.96771 0.75405 0.34866 0.0
C4707 C 0.99062 0.73792 0.3749 0.0
C4708 C 0.26274 0.24803 0.60959 0.0
C4709 C 0.26316 0.23987 0.62309 0.0
H4710 H 0.2508 0.26395 0.5961 0.0
C4711 C 0.25161 0.24174 0.63367 0.0
H4712 H 0.27149 0.24668 0.60122 0.0
C4713 C 0.23995 0.25194 0.6309 0.0
C4714 C 0.23947 0.25995 0.61729 0.0
H4715 H 0.25175 0.23553 0.64415 0.0
H4716 H 0.23123 0.25343 0.63927 0.0
C4717 C 0.25088 0.25781 0.60662 0.0
C4718 C 0.76247 0.49315 0.85026 0.0
C4719 C 0.7629 0.50439 0.86136 0.0
H4720 H 0.75115 0.47396 0.84149 0.0
C4721 C 0.75231 0.50398 0.8731 0.0
H4722 H 0.77053 0.493 0.84113 0.0
C4723 C 0.7411 0.49292 0.87331 0.0
C4724 C 0.74029 0.48215 0.86176 0.0
H4725 H 0.75238 0.51246 0.88184 0.0
H4726 H 0.73279 0.49313 0.88221 0.0
C4727 C 0.75131 0.48221 0.85045 0.0
C4728 C 0.50088 0.25006 0.10709 0.0
C4729 C 0.5054 0.26007 0.11842 0.0
H4730 H 0.48743 0.23076 0.10157 0.0
C4731 C 0.50039 0.25785 0.13321 0.0
H4732 H 0.50464 0.25162 0.0956 0.0
C4733 C 0.49109 0.24575 0.13668 0.0
C4734 C 0.48623 0.23595 0.12533 0.0
H4735 H 0.50383 0.26539 0.14214 0.0
H4736 H 0.48738 0.24429 0.14819 0.0
C4737 C 0.49109 0.23821 0.11048 0.0
C4738 C 0.76375 0.75185 0.39119 0.0
C4739 C 0.76221 0.73958 0.38137 0.0
H4740 H 0.75451 0.7724 0.39929 0.0
C4741 C 0.75032 0.73952 0.37096 0.0
H4742 H 0.77291 0.75237 0.3992 0.0
C4743 C 0.73965 0.7511 0.37103 0.0
C4744 C 0.74076 0.76292 0.38148 0.0
H4745 H 0.7489 0.73024 0.3632 0.0
H4746 H 0.73022 0.75046 0.36334 0.0
C4747 C 0.75318 0.76338 0.39122 0.0
C4748 C 0.24981 0.97845 0.61574 0.0
C4749 C 0.23568 0.98386 0.62028 0.0
H4750 H 0.27277 0.98393 0.61077 0.0
C4751 C 0.23356 -0.00063 0.62215 0.0
H4752 H 0.25172 0.9665 0.61433 0.0
C4753 C 0.24545 0.00933 0.61977 0.0
C4754 C 0.25976 0.00388 0.6159 0.0
H4755 H 0.22275 0.00379 0.62562 0.0
H4756 H 0.24358 0.02123 0.62153 0.0
C4757 C 0.26183 0.98838 0.61379 0.0
C4758 C 0.97733 0.49034 0.88987 0.0
C4759 C 0.97826 0.50299 0.88047 0.0
H4760 H 0.98804 0.47048 0.89796 0.0
C4761 C 0.99049 0.50428 0.87052 0.0
H4762 H 0.96797 0.48885 0.89751 0.0
C4763 C 0.00208 0.49361 0.87075 0.0
C4764 C 0.0016 0.48158 0.88098 0.0
H4765 H 0.99149 0.51387 0.86309 0.0
H4766 H 0.01174 0.49522 0.8635 0.0
C4767 C 0.98888 0.47979 0.89014 0.0
C4768 C 0.10554 0.49234 0.99372 0.0
C4769 C 0.1166 0.48799 0.00408 0.0
H4770 H 0.10053 0.50459 0.97366 0.0
C4771 C 0.13137 0.49336 0.00241 0.0
H4772 H 0.09411 0.48824 0.99469 0.0
C4773 C 0.13496 0.50306 0.99055 0.0
C4774 C 0.12394 0.50702 0.97997 0.0
H4775 H 0.14007 0.49012 0.01029 0.0
H4776 H 0.14638 0.50715 0.98943 0.0
C4777 C 0.10923 0.50158 0.98164 0.0
C4778 C 0.60633 0.22472 0.24236 0.0
C4779 C 0.61544 0.22638 0.25516 0.0
H4780 H 0.59785 0.23466 0.22227 0.0
C4781 C 0.62453 0.23926 0.25647 0.0
H4782 H 0.59935 0.21485 0.24085 0.0
C4783 C 0.62371 0.25069 0.24566 0.0
C4784 C 0.61372 0.24941 0.23347 0.0
H4785 H 0.63171 0.24084 0.26618 0.0
H4786 H 0.63027 0.26082 0.24726 0.0
C4787 C 0.60544 0.2361 0.23169 0.0
C4788 C 0.74343 0.85887 0.50113 0.0
C4789 C 0.75405 0.86989 0.50493 0.0
H4790 H 0.72311 0.85374 0.48937 0.0
C4791 C 0.75245 0.88451 0.49917 0.0
H4792 H 0.74436 0.84754 0.50554 0.0
C4793 C 0.74045 0.88797 0.48954 0.0
C4794 C 0.72967 0.87698 0.48608 0.0
H4795 H 0.76052 0.89318 0.50198 0.0
H4796 H 0.73944 0.89926 0.48508 0.0
C4797 C 0.73124 0.86244 0.49199 0.0
C4798 C 0.13844 0.01365 0.74063 0.0
C4799 C 0.12919 0.01179 0.75328 0.0
H4800 H 0.14588 0.00482 0.71967 0.0
C4801 C 0.11907 -0.00035 0.75367 0.0
H4802 H 0.14619 0.02302 0.73985 0.0
C4803 C 0.11892 0.98907 0.74199 0.0
C4804 C 0.12884 0.99054 0.72975 0.0
H4805 H 0.11176 -0.00203 0.76327 0.0
H4806 H 0.1115 0.97945 0.74286 0.0
C4807 C 0.13824 0.0032 0.72901 0.0
C4808 C 0.51175 0.38115 0.49375 0.0
C4809 C 0.51311 0.36668 0.48761 0.0
H4810 H 0.49904 0.39588 0.50787 0.0
C4811 C 0.50244 0.35565 0.49126 0.0
H4812 H 0.51981 0.38987 0.491 0.0
C4813 C 0.49075 0.359 0.50127 0.0
C4814 C 0.48934 0.37355 0.50725 0.0
H4815 H 0.5033 0.34442 0.48662 0.0
H4816 H 0.48274 0.3503 0.5042 0.0
C4817 C 0.49984 0.38462 0.5033 0.0
C4818 C 0.10758 0.75288 0.00026 0.0
C4819 C 0.11836 0.76414 0.00276 0.0
H4820 H 0.102 0.73281 0.98809 0.0
C4821 C 0.13218 0.76349 0.99517 0.0
H4822 H 0.09684 0.75319 0.006 0.0
C4823 C 0.13526 0.75172 0.98532 0.0
C4824 C 0.12442 0.7406 0.98257 0.0
H4825 H 0.14071 0.772 -0.003 0.0
H4826 H 0.14604 0.75148 0.97963 0.0
C4827 C 0.11051 0.7413 0.99003 0.0
C4828 C 0.74207 0.85667 0.25276 0.0
C4829 C 0.73118 0.86761 0.25608 0.0
H4830 H 0.76211 0.85145 0.24029 0.0
C4831 C 0.73251 0.88204 0.24986 0.0
H4832 H 0.74122 0.84547 0.25747 0.0
C4833 C 0.7446 0.88557 0.24057 0.0
C4834 C 0.75533 0.8746 0.23694 0.0
H4835 H 0.72429 0.89069 0.25236 0.0
H4836 H 0.74536 0.89681 0.23593 0.0
C4837 C 0.75394 0.86007 0.24298 0.0
C4838 C 0.98914 0.383 0.74175 0.0
C4839 C 0.98774 0.36842 0.73584 0.0
H4840 H 0.00182 0.3977 0.75614 0.0
C4841 C -0.00155 0.35746 0.73957 0.0
H4842 H 0.98098 0.39161 0.73896 0.0
C4843 C 0.01051 0.36105 0.74887 0.0
C4844 C 0.01183 0.37553 0.75498 0.0
H4845 H -0.00233 0.34618 0.73503 0.0
H4846 H 0.0187 0.35241 0.75148 0.0
C4847 C 0.00098 0.38647 0.75152 0.0
C4848 C 0.99399 0.85649 0.50034 0.0
C4849 C 0.98937 0.86813 0.50995 0.0
H4850 H 0.00722 0.85044 0.48105 0.0
C4851 C 0.99394 0.88293 0.50698 0.0
H4852 H 0.99058 0.84499 0.50246 0.0
C4853 C 0.00294 0.88609 0.49455 0.0
C4854 C 0.00793 0.87443 0.48516 0.0
H4855 H 0.99042 0.89209 0.5142 0.0
H4856 H 0.00636 0.8976 0.49254 0.0
C4857 C 0.00346 0.85959 0.48816 0.0
C4858 C 0.13661 0.73976 0.25371 0.0
C4859 C 0.12579 0.7363 0.26467 0.0
H4860 H 0.14141 0.75198 0.23342 0.0
C4861 C 0.11115 0.74199 0.2632 0.0
H4862 H 0.14797 0.73546 0.25464 0.0
C4863 C 0.1073 0.7509 0.25092 0.0
C4864 C 0.11814 0.75468 0.24012 0.0
H4865 H 0.10258 0.73937 0.27147 0.0
H4866 H 0.0959 0.75514 0.25008 0.0
C4867 C 0.13287 0.74916 0.24163 0.0
C4868 C 0.25148 0.85899 0.01106 0.0
C4869 C 0.25757 0.8734 0.01298 0.0
H4870 H 0.2376 0.84468 -0.00235 0.0
C4871 C 0.2542 0.88474 0.00254 0.0
H4872 H 0.25402 0.85005 0.01894 0.0
C4873 C 0.24444 0.88177 0.99055 0.0
C4874 C 0.23845 0.86729 0.98861 0.0
H4875 H 0.2588 0.89594 0.00386 0.0
H4876 H 0.24166 0.89071 0.98276 0.0
C4877 C 0.2422 0.8559 -0.00115 0.0
C4878 C -0.00253 0.85442 0.24144 0.0
C4879 C 0.98767 0.86596 0.23701 0.0
H4880 H 0.01718 0.84848 0.25388 0.0
C4881 C 0.98997 0.88062 0.2424 0.0
H4882 H 0.99598 0.84305 0.23731 0.0
C4883 C 0.00189 0.88364 0.25222 0.0
C4884 C 0.01191 0.87215 0.25629 0.0
H4885 H 0.98253 0.88968 0.23911 0.0
H4886 H 0.00348 0.89499 0.25634 0.0
C4887 C 0.00963 0.85754 0.2508 0.0
C4888 C 0.25476 0.8861 0.76366 0.0
C4889 C 0.24118 0.87824 0.76199 0.0
H4890 H 0.27582 0.89212 0.75394 0.0
C4891 C 0.23926 0.86877 0.74947 0.0
H4892 H 0.25671 0.89329 0.7733 0.0
C4893 C 0.25031 0.8681 0.73826 0.0
C4894 C 0.2634 0.87689 0.73946 0.0
H4895 H 0.22892 0.86252 0.74793 0.0
H4896 H 0.24824 0.86136 0.72833 0.0
C4897 C 0.26573 0.88542 0.75254 0.0
C4898 C 0.1061 0.01158 0.5003 0.0
C4899 C 0.11542 0.01002 0.48767 0.0
H4900 H 0.09872 0.00238 0.5211 0.0
C4901 C 0.12578 -0.00192 0.48718 0.0
H4902 H 0.09818 0.0208 0.50114 0.0
C4903 C 0.12605 0.98732 0.49872 0.0
C4904 C 0.11602 0.98846 0.51091 0.0
H4905 H 0.13313 -0.00336 0.47758 0.0
H4906 H 0.13361 0.97782 0.49776 0.0
C4907 C 0.10644 0.00099 0.51178 0.0
C4908 C 0.50248 0.01211 0.86535 0.0
C4909 C 0.48689 0.01022 0.86691 0.0
H4910 H 0.52421 0.00186 0.867 0.0
C4911 C 0.48116 0.99609 0.87101 0.0
H4912 H 0.50714 0.0229 0.86217 0.0
C4913 C 0.4909 0.9842 0.87413 0.0
C4914 C 0.5065 0.98613 0.87274 0.0
H4915 H 0.46917 0.99439 0.87234 0.0
H4916 H 0.48626 0.97353 0.87773 0.0
C4917 C 0.5122 8e-05 0.86803 0.0
C4918 C 0.99054 0.23968 0.60978 0.0
C4919 C 0.98529 0.23758 0.62453 0.0
H4920 H 0.00405 0.25323 0.59501 0.0
C4921 C 0.98931 0.24792 0.63574 0.0
H4922 H 0.98752 0.23184 0.60097 0.0
C4923 C -0.00179 0.2603 0.63225 0.0
C4924 C 0.00366 0.26233 0.61759 0.0
H4925 H 0.98526 0.24662 0.64716 0.0
H4926 H 0.00105 0.26817 0.64111 0.0
C4927 C -7e-05 0.25185 0.60639 0.0
C4928 C 0.24266 0.49109 0.10738 0.0
C4929 C 0.23883 0.48076 0.11868 0.0
H4930 H 0.25553 0.51073 0.10168 0.0
C4931 C 0.24456 0.48269 0.13325 0.0
H4932 H 0.23833 0.48979 0.09607 0.0
C4933 C 0.25386 0.49483 0.13655 0.0
C4934 C 0.25799 0.50499 0.12523 0.0
H4935 H 0.24165 0.47492 0.14217 0.0
H4936 H 0.25812 0.49606 0.1479 0.0
C4937 C 0.25244 0.503 0.11058 0.0
C4938 C 0.48772 0.74339 0.8786 0.0
C4939 C 0.48564 0.73766 0.86402 0.0
H4940 H 0.50105 0.75763 0.89288 0.0
C4941 C 0.49556 0.74194 0.85253 0.0
H4942 H 0.48019 0.74023 0.88763 0.0
C4943 C 0.50763 0.75141 0.85561 0.0
C4944 C 0.50974 0.75716 0.87014 0.0
H4945 H 0.49427 0.73758 0.84122 0.0
H4946 H 0.51529 0.75431 0.84659 0.0
C4947 C 0.49957 0.75332 0.88159 0.0
C4948 C 0.75036 0.985 0.37032 0.0
C4949 C 0.73478 0.9872 0.37147 0.0
H4950 H 0.77224 0.99464 0.373 0.0
C4951 C 0.72925 0.00098 0.37685 0.0
H4952 H 0.75486 0.97444 0.36625 0.0
C4953 C 0.73916 0.01266 0.38034 0.0
C4954 C 0.75473 0.01053 0.37895 0.0
H4955 H 0.71726 0.00295 0.37776 0.0
H4956 H 0.73465 0.02339 0.38394 0.0
C4957 C 0.76027 -0.00349 0.37425 0.0
C4958 C 0.99045 0.5039 0.13434 0.0
C4959 C 0.98535 0.50662 0.11964 0.0
H4960 H 0.00408 0.48993 0.1486 0.0
C4961 C 0.98976 0.49698 0.10797 0.0
H4962 H 0.98714 0.51122 0.14349 0.0
C4963 C -0.0011 0.48462 0.11097 0.0
C4964 C 0.0042 0.48198 0.12559 0.0
H4965 H 0.98583 0.4988 0.09658 0.0
H4966 H 0.00203 0.47724 0.10179 0.0
C4967 C 8e-05 0.49179 0.13725 0.0
C4968 C 0.86013 0.49165 2e-05 0.0
C4969 C 0.8749 0.48927 0.00507 0.0
H4970 H 0.84545 0.50546 0.98668 0.0
C4971 C 0.88631 0.49924 0.00072 0.0
H4972 H 0.85117 0.48408 0.00329 0.0
C4973 C 0.88298 0.51162 0.99175 0.0
C4974 C 0.86827 0.51397 0.98657 0.0
H4975 H 0.89776 0.4977 0.0046 0.0
H4976 H 0.89196 0.51928 0.98872 0.0
C4977 C 0.85688 0.50381 0.99057 0.0
C4978 C 0.35523 0.74078 0.75011 0.0
C4979 C 0.36643 0.73025 0.75367 0.0
H4980 H 0.34974 0.76084 0.73782 0.0
C4981 C 0.38101 0.73215 0.74795 0.0
H4982 H 0.34391 0.7395 0.75443 0.0
C4983 C 0.38443 0.74449 0.73896 0.0
C4984 C 0.37322 0.7549 0.73516 0.0
H4985 H 0.38987 0.72422 0.75065 0.0
H4986 H 0.3958 0.74573 0.73474 0.0
C4987 C 0.35855 0.75291 0.74065 0.0
C4988 C 0.23408 0.12457 0.50081 0.0
C4989 C 0.236 0.12261 0.48528 0.0
H4990 H 0.24438 0.12391 0.52254 0.0
C4991 C 0.24997 0.11779 0.47972 0.0
H4992 H 0.22338 0.12826 0.50533 0.0
C4993 C 0.26207 0.11569 0.48949 0.0
C4994 C 0.26023 0.11795 0.50499 0.0
H4995 H 0.25173 0.1163 0.46776 0.0
H4996 H 0.27291 0.1125 0.48492 0.0
C4997 C 0.24605 0.12204 0.51062 0.0
C4998 C 0.50454 0.63284 0.49028 0.0
C4999 C 0.50748 0.61821 0.48508 0.0
H5000 H 0.49036 0.64681 0.504 0.0
C5001 C 0.49809 0.60636 0.48957 0.0
H5002 H 0.51164 0.64214 0.48693 0.0
C5003 C 0.48578 0.60909 0.49883 0.0
C5004 C 0.48287 0.62365 0.50415 0.0
H5005 H 0.50005 0.59501 0.4856 0.0
H5006 H 0.47861 0.59976 0.50197 0.0
C5007 C 0.49244 0.6355 0.5 0.0
C5008 C 0.23017 0.10231 0.74202 0.0
C5009 C 0.23063 0.11245 0.75412 0.0
H5010 H 0.24106 0.09385 0.72243 0.0
C5011 C 0.24232 0.12309 0.75476 0.0
H5012 H 0.22125 0.09408 0.74103 0.0
C5013 C 0.25377 0.12299 0.74393 0.0
C5014 C 0.2537 0.1122 0.73237 0.0
H5015 H 0.24295 0.13109 0.76392 0.0
H5016 H 0.26297 0.13089 0.74498 0.0
C5017 C 0.24157 0.10216 0.73132 0.0
C5018 C -0.00137 0.64232 0.2318 0.0
C5019 C 0.98734 0.63133 0.23277 0.0
H5020 H 0.01858 0.65157 0.24124 0.0
C5021 C 0.98839 0.62021 0.24395 0.0
H5022 H -0.00172 0.65091 0.22317 0.0
C5023 C 0.00012 0.62062 0.25448 0.0
C5024 C 0.01101 0.63208 0.25388 0.0
H5025 H 0.97988 0.61156 0.24493 0.0
H5026 H 0.00036 0.61227 0.26334 0.0
C5027 C 0.01033 0.64266 0.24216 0.0
C5028 C 0.98996 0.62271 -9e-05 0.0
C5029 C 0.99022 0.61246 0.01193 0.0
H5030 H 0.0007 0.63012 0.97962 0.0
C5031 C 0.00263 0.60283 0.01354 0.0
H5032 H 0.98056 0.63031 -0.00158 0.0
C5033 C 0.01409 0.60275 0.00292 0.0
C5034 C 0.01342 0.61227 0.99035 0.0
H5035 H 0.0033 0.59497 0.02283 0.0
H5036 H 0.02321 0.5948 0.00432 0.0
C5037 C 0.00148 0.62259 0.98915 0.0
C5038 C 0.89018 0.74717 0.26175 0.0
C5039 C 0.87933 0.73574 0.26103 0.0
H5040 H 0.89908 0.7671 0.252 0.0
C5041 C 0.86815 0.73646 0.24986 0.0
H5042 H 0.89883 0.74708 0.27033 0.0
C5043 C 0.86832 0.74804 0.23917 0.0
C5044 C 0.87961 0.7591 0.23958 0.0
H5045 H 0.85961 0.72781 0.24906 0.0
H5046 H 0.8599 0.74806 0.23037 0.0
C5047 C 0.8903 0.7587 0.25121 0.0
C5048 C 0.7418 0.63367 0.48365 0.0
C5049 C 0.73696 0.61885 0.48126 0.0
H5050 H 0.75449 0.64866 0.49749 0.0
C5051 C 0.74134 0.60751 0.49132 0.0
H5052 H 0.73847 0.6426 0.47607 0.0
C5053 C 0.75087 0.6109 0.50337 0.0
C5054 C 0.75562 0.62577 0.50577 0.0
H5055 H 0.73772 0.596 0.48963 0.0
H5056 H 0.75446 0.60198 0.51084 0.0
C5057 C 0.75085 0.63714 0.49593 0.0
C5058 C 0.85097 0.48497 0.75115 0.0
C5059 C 0.86165 0.48427 0.73953 0.0
H5060 H 0.84298 0.49664 0.77047 0.0
C5061 C 0.87348 0.49477 0.73935 0.0
H5062 H 0.8418 0.47698 0.75177 0.0
C5063 C 0.87417 0.50616 0.75022 0.0
C5064 C 0.86302 0.50722 0.76139 0.0
H5065 H 0.8819 0.49449 0.73056 0.0
H5066 H 0.88311 0.5144 0.74957 0.0
C5067 C 0.85164 0.49629 0.76191 0.0
C5068 C 0.87487 0.73649 0.49119 0.0
C5069 C 0.86409 0.73709 0.47963 0.0
H5070 H 0.8826 0.74601 0.51201 0.0
C5071 C 0.85332 0.74866 0.4798 0.0
H5072 H 0.88333 0.72773 0.49136 0.0
C5073 C 0.85281 0.75889 0.4916 0.0
C5074 C 0.86314 0.75797 0.50348 0.0
H5075 H 0.8449 0.74958 0.47105 0.0
H5076 H 0.84411 0.76743 0.49149 0.0
C5077 C 0.87445 0.74692 0.50301 0.0
C5078 C 0.7386 0.63138 0.75155 0.0
C5079 C 0.73577 0.62059 0.76271 0.0
H5080 H 0.75118 0.63688 0.73171 0.0
C5081 C 0.74293 0.60655 0.76193 0.0
H5082 H 0.7332 0.64229 0.75196 0.0
C5083 C 0.7528 0.60331 0.7502 0.0
C5084 C 0.75603 0.61422 0.73929 0.0
H5085 H 0.74084 0.59802 0.77037 0.0
H5086 H 0.75826 0.59242 0.74994 0.0
C5087 C 0.74886 0.6283 0.74003 0.0
C5088 C 0.49222 0.5016 0.63242 0.0
C5089 C 0.48535 0.50234 0.61821 0.0
H5090 H 0.50734 0.48947 0.64684 0.0
C5091 C 0.48828 0.49105 0.6076 0.0
H5092 H 0.4901 0.5102 0.64078 0.0
C5093 C 0.49769 0.47906 0.61121 0.0
C5094 C 0.50469 0.47835 0.62533 0.0
H5095 H 0.48301 0.4913 0.59662 0.0
H5096 H 0.49965 0.47041 0.60284 0.0
C5097 C 0.50204 0.4898 0.63587 0.0
C5098 C 0.99331 0.23233 0.85824 0.0
C5099 C 0.98831 0.23014 0.87304 0.0
H5100 H 0.00626 0.24586 0.84321 0.0
C5101 C 0.9926 0.24031 0.8843 0.0
H5102 H 0.99003 0.22468 0.84935 0.0
C5103 C 0.00222 0.25228 0.88084 0.0
C5104 C 0.00718 0.25446 0.866 0.0
H5105 H 0.98884 0.23881 0.89578 0.0
H5106 H 0.00574 0.25984 0.88972 0.0
C5107 C 0.00248 0.2445 0.85471 0.0
C5108 C 0.24126 0.75326 0.12143 0.0
C5109 C 0.2299 0.75323 0.11044 0.0
H5110 H 0.26124 0.74257 0.12971 0.0
C5111 C 0.22923 0.74129 0.10013 0.0
H5112 H 0.24202 0.7623 0.12955 0.0
C5113 C 0.24013 0.73008 0.10022 0.0
C5114 C 0.25201 0.73052 0.11061 0.0
H5115 H 0.2205 0.74078 0.09165 0.0
H5116 H 0.23946 0.7213 0.0918 0.0
C5117 C 0.25225 0.74198 0.12152 0.0
C5118 C 0.47594 0.76055 0.61544 0.0
C5119 C 0.47914 0.74603 0.61011 0.0
H5120 H 0.48426 0.7827 0.61968 0.0
C5121 C 0.49358 0.74286 0.60455 0.0
H5122 H 0.4649 0.76332 0.6198 0.0
C5123 C 0.50468 0.75396 0.6045 0.0
C5124 C 0.50152 0.76843 0.60999 0.0
H5125 H 0.49637 0.73176 0.60038 0.0
H5126 H 0.51575 0.75117 0.60026 0.0
C5127 C 0.48702 0.77164 0.61538 0.0
C5128 C 0.74701 0.26156 0.89295 0.0
C5129 C 0.73634 0.26148 0.88132 0.0
H5130 H 0.76609 0.25102 0.90284 0.0
C5131 C 0.73762 0.25072 0.8698 0.0
H5132 H 0.74649 0.26981 0.9019 0.0
C5133 C 0.74898 0.2398 0.87036 0.0
C5134 C 0.75922 0.23953 0.88241 0.0
H5135 H 0.72958 0.25041 0.86067 0.0
H5136 H 0.74943 0.23132 0.86163 0.0
C5137 C 0.7583 0.25076 0.89348 0.0
C5138 C 0.99359 0.98308 0.39267 0.0
C5139 C 0.00447 0.98301 0.38123 0.0
H5140 H 0.97425 0.99365 0.402 0.0
C5141 C 0.0034 0.99364 0.36957 0.0
H5142 H 0.99396 0.97495 0.40174 0.0
C5143 C 0.992 0.0045 0.36973 0.0
C5144 C 0.98146 0.00485 0.38152 0.0
H5145 H 0.01161 0.99383 0.36057 0.0
H5146 H 0.99167 0.01283 0.36085 0.0
C5147 C 0.98224 0.99382 0.3928 0.0
C5148 C 0.60468 0.72886 0.73958 0.0
C5149 C 0.61392 0.73005 0.75232 0.0
H5150 H 0.59681 0.73916 0.71944 0.0
C5151 C 0.6239 0.74227 0.75348 0.0
H5152 H 0.59705 0.71947 0.73821 0.0
C5153 C 0.62377 0.75366 0.74259 0.0
C5154 C 0.61365 0.75295 0.73047 0.0
H5155 H 0.6312 0.74344 0.76315 0.0
H5156 H 0.63097 0.76336 0.74411 0.0
C5157 C 0.60454 0.74018 0.72881 0.0
C5158 C 0.74237 0.35516 0.00542 0.0
C5159 C 0.7532 0.36625 0.00838 0.0
H5160 H 0.72249 0.34923 0.99325 0.0
C5161 C 0.75252 0.38001 0.00065 0.0
H5162 H 0.74261 0.34449 0.0113 0.0
C5163 C 0.7412 0.38258 0.99003 0.0
C5164 C 0.73018 0.3716 0.98738 0.0
H5165 H 0.76079 0.3887 0.00272 0.0
H5166 H 0.74088 0.39324 0.98416 0.0
C5167 C 0.73084 0.3579 0.99517 0.0
C5168 C 0.11082 0.49366 0.24116 0.0
C5169 C 0.12546 0.48781 0.24003 0.0
H5170 H 0.09581 0.50802 0.25356 0.0
C5171 C 0.13626 0.49178 0.25081 0.0
H5172 H 0.10232 0.49071 0.23295 0.0
C5173 C 0.13242 0.50115 0.26274 0.0
C5174 C 0.11786 0.50712 0.26386 0.0
H5175 H 0.14758 0.48731 0.25024 0.0
H5176 H 0.14093 0.50388 0.27104 0.0
C5177 C 0.10711 0.50351 0.25288 0.0
C5178 C 0.5109 0.8835 0.99605 0.0
C5179 C 0.51201 0.86938 0.98911 0.0
H5180 H 0.49849 0.8976 0.01106 0.0
C5181 C 0.50108 0.85839 0.99204 0.0
H5182 H 0.51915 0.89219 0.99386 0.0
C5183 C 0.48943 0.86137 0.00218 0.0
C5184 C 0.48833 0.87554 0.00909 0.0
H5185 H 0.50175 0.84742 0.98677 0.0
H5186 H 0.48127 0.85266 0.00458 0.0
C5187 C 0.49904 0.88663 0.00579 0.0
C5188 C 0.11105 0.25161 0.50176 0.0
C5189 C 0.12561 0.25738 0.50386 0.0
H5190 H 0.09685 0.23733 0.48839 0.0
C5191 C 0.1371 0.25333 0.49385 0.0
H5192 H 0.10203 0.25462 0.50938 0.0
C5193 C 0.13405 0.24395 0.48172 0.0
C5194 C 0.11956 0.23808 0.47964 0.0
H5195 H 0.14838 0.25775 0.49518 0.0
H5196 H 0.14308 0.24116 0.47403 0.0
C5197 C 0.1081 0.24177 0.48984 0.0
C5198 C 0.75074 0.3581 0.74038 0.0
C5199 C 0.75582 0.36999 0.73133 0.0
H5200 H 0.73733 0.35168 0.7594 0.0
C5201 C 0.75201 0.38481 0.73512 0.0
H5202 H 0.75357 0.34657 0.73763 0.0
C5203 C 0.74322 0.38775 0.74775 0.0
C5204 C 0.73771 0.37587 0.75654 0.0
H5205 H 0.7559 0.39416 0.72834 0.0
H5206 H 0.74033 0.39929 0.75034 0.0
C5207 C 0.7415 0.36101 0.75277 0.0
C5208 C 0.00066 0.38565 0.00312 0.0
C5209 C 0.99003 0.37462 0.00685 0.0
H5210 H 0.02076 0.3909 0.99105 0.0
C5211 C 0.99141 0.36011 0.00076 0.0
H5212 H -0.00012 0.39688 0.00778 0.0
C5213 C 0.00316 0.35679 0.99082 0.0
C5214 C 0.01393 0.3678 0.98735 0.0
H5215 H 0.9833 0.35145 0.00351 0.0
H5216 H 0.00399 0.34561 0.98607 0.0
C5217 C 0.01263 0.3822 0.99365 0.0
C5218 C 0.13129 0.25073 0.73951 0.0
C5219 C 0.11645 0.25606 0.73834 0.0
H5220 H 0.14676 0.2369 0.75192 0.0
C5221 C 0.10576 0.25167 0.74906 0.0
H5222 H 0.1397 0.25401 0.73134 0.0
C5223 C 0.10989 0.24242 0.76099 0.0
C5224 C 0.12467 0.237 0.76215 0.0
H5225 H 0.09429 0.25574 0.74847 0.0
H5226 H 0.10146 0.23936 0.76923 0.0
C5227 C 0.13531 0.241 0.75122 0.0
C5228 C 0.2524 0.38185 0.50149 0.0
C5229 C 0.25302 0.36778 0.50866 0.0
H5230 H 0.24067 0.39588 0.48572 0.0
C5231 C 0.24196 0.357 0.50552 0.0
H5232 H 0.26084 0.39034 0.50373 0.0
C5233 C 0.23027 0.36032 0.49563 0.0
C5234 C 0.22968 0.37432 0.48837 0.0
H5235 H 0.24214 0.34611 0.51099 0.0
H5236 H 0.22177 0.35185 0.49353 0.0
C5237 C 0.24092 0.38501 0.49121 0.0
C5238 C 0.24406 0.38571 0.23987 0.0
C5239 C 0.25454 0.37457 0.23604 0.0
H5240 H 0.22403 0.39112 0.25201 0.0
C5241 C 0.25301 0.36005 0.24204 0.0
H5242 H 0.24495 0.39695 0.23526 0.0
C5243 C 0.24124 0.35681 0.25199 0.0
C5244 C 0.2306 0.36792 0.25554 0.0
H5245 H 0.261 0.3513 0.2392 0.0
H5246 H 0.24028 0.34561 0.25666 0.0
C5247 C 0.23206 0.38235 0.24935 0.0
C5248 C 0.49368 0.50994 0.38597 0.0
C5249 C 0.48768 0.51174 0.37149 0.0
H5250 H 0.50768 0.4968 0.40044 0.0
C5251 C 0.49115 0.50119 0.36028 0.0
H5252 H 0.49107 0.51788 0.39483 0.0
C5253 C 0.50094 0.48928 0.36341 0.0
C5254 C 0.50698 0.48753 0.37791 0.0
H5255 H 0.48664 0.50238 0.34903 0.0
H5256 H 0.5038 0.48147 0.35452 0.0
C5257 C 0.50308 0.49782 0.38921 0.0
C5258 C -0.00114 0.74886 0.10665 0.0
C5259 C 0.0037 0.75812 0.11847 0.0
H5260 H 0.98524 0.72993 0.10028 0.0
C5261 C -0.00083 0.7549 0.13323 0.0
H5262 H 0.00224 0.75118 0.09518 0.0
C5263 C 0.98998 0.74258 0.13618 0.0
C5264 C 0.98476 0.73354 0.12437 0.0
H5265 H 0.00286 0.76184 0.14253 0.0
H5266 H 0.9866 0.74039 0.14768 0.0
C5267 C 0.98918 0.73678 0.10955 0.0
C5268 C 0.48712 0.26251 0.35558 0.0
C5269 C 0.5003 0.26072 0.36408 0.0
H5270 H 0.4662 0.25309 0.34867 0.0
C5271 C 0.50158 0.24825 0.37371 0.0
H5272 H 0.48565 0.27212 0.34823 0.0
C5273 C 0.49032 0.23723 0.37396 0.0
C5274 C 0.47765 0.23856 0.36458 0.0
H5275 H 0.5116 0.2466 0.38044 0.0
H5276 H 0.49192 0.22733 0.38088 0.0
C5277 C 0.47594 0.25158 0.35583 0.0
C5278 C -0.00273 0.98834 0.60671 0.0
C5279 C 0.00694 0.98389 0.61835 0.0
H5280 H 0.97769 0.00085 0.60055 0.0
C5281 C 0.00448 0.98929 0.63299 0.0
H5282 H -0.00113 0.98423 0.59536 0.0
C5283 C 0.99255 -0.00084 0.63588 0.0
C5284 C 0.98268 0.00326 0.62427 0.0
H5285 H 0.01183 0.98598 0.64212 0.0
H5286 H 0.99084 0.0033 0.64721 0.0
C5287 C 0.98512 -0.00225 0.6097 0.0
C5288 C 0.38834 0.25983 0.25378 0.0
C5289 C 0.37813 0.25993 0.24173 0.0
H5290 H 0.39677 0.24819 0.27294 0.0
C5291 C 0.36744 0.24832 0.24065 0.0
H5292 H 0.39663 0.26866 0.25509 0.0
C5293 C 0.3675 0.23648 0.25106 0.0
C5294 C 0.3783 0.23605 0.26261 0.0
H5295 H 0.3594 0.24809 0.23151 0.0
H5296 H 0.35948 0.22741 0.24972 0.0
C5297 C 0.38846 0.24804 0.26404 0.0
C5298 C 0.24932 0.63604 0.99325 0.0
C5299 C 0.23932 0.62464 0.9889 0.0
H5300 H 0.26939 0.64168 0.00521 0.0
C5301 C 0.24175 0.60986 0.99393 0.0
H5302 H 0.24776 0.6475 0.98941 0.0
C5303 C 0.25396 0.60659 0.00331 0.0
C5304 C 0.26415 0.61797 0.0073 0.0
H5305 H 0.23417 0.6009 0.99068 0.0
H5306 H 0.25564 0.59516 0.00717 0.0
C5307 C 0.26173 0.63269 0.00218 0.0
C5308 C 0.48149 0.1095 0.00079 0.0
C5309 C 0.47956 0.12399 0.00673 0.0
H5310 H 0.49468 0.09513 0.98674 0.0
C5311 C 0.48975 0.1354 0.00286 0.0
H5312 H 0.47381 0.1005 0.0037 0.0
C5313 C 0.50148 0.13242 0.99278 0.0
C5314 C 0.50343 0.11786 0.98695 0.0
H5315 H 0.48842 0.14665 0.00734 0.0
H5316 H 0.50908 0.1414 0.98966 0.0
C5317 C 0.49345 0.10641 0.99118 0.0
C5318 C 0.25366 0.62297 0.24465 0.0
C5319 C 0.25439 0.6118 0.23349 0.0
H5320 H 0.24219 0.63104 0.26428 0.0
C5321 C 0.24305 0.60086 0.23283 0.0
H5322 H 0.26224 0.63158 0.24539 0.0
C5323 C 0.2316 0.60062 0.24346 0.0
C5324 C 0.23124 0.61125 0.25514 0.0
H5325 H 0.24316 0.59223 0.22423 0.0
H5326 H 0.22329 0.59175 0.24276 0.0
C5327 C 0.24219 0.62266 0.25545 0.0
C5328 C 0.34839 0.99172 0.75928 0.0
C5329 C 0.3599 0.00251 0.75956 0.0
H5330 H 0.33913 0.97246 0.74851 0.0
C5331 C 0.37172 0.00142 0.74911 0.0
H5332 H 0.33919 0.99213 0.76726 0.0
C5333 C 0.37167 0.99004 0.73823 0.0
C5334 C 0.35984 0.97956 0.73768 0.0
H5335 H 0.38078 0.00956 0.74908 0.0
H5336 H 0.3807 0.98968 0.73006 0.0
C5337 C 0.34837 0.98039 0.74851 0.0
C5338 C 0.49058 0.11872 0.24647 0.0
C5339 C 0.49003 0.13011 0.23553 0.0
H5340 H 0.50202 0.10997 0.26583 0.0
C5341 C 0.5016 0.14083 0.23503 0.0
H5342 H 0.48183 0.11027 0.24709 0.0
C5343 C 0.51313 0.1406 0.24559 0.0
C5344 C 0.51335 0.1297 0.25702 0.0
H5345 H 0.50162 0.14964 0.22662 0.0
H5346 H 0.52163 0.1493 0.24501 0.0
C5347 C 0.50214 0.11855 0.25719 0.0
C5348 C 0.37479 0.23765 0.49124 0.0
C5349 C 0.36442 0.23797 0.4793 0.0
H5350 H 0.38213 0.248 0.51179 0.0
C5351 C 0.35419 0.24996 0.47836 0.0
H5352 H 0.38284 0.22857 0.49223 0.0
C5353 C 0.35377 0.26095 0.48946 0.0
C5354 C 0.36358 0.26029 0.50181 0.0
H5355 H 0.34617 0.25071 0.46922 0.0
H5356 H 0.34545 0.2698 0.4885 0.0
C5357 C 0.37438 0.24876 0.50242 0.0
C5358 C 0.36917 0.00628 0.99258 0.0
C5359 C 0.37926 0.00539 0.98044 0.0
H5360 H 0.36185 0.99643 0.01338 0.0
C5361 C 0.38865 0.99277 0.97917 0.0
H5362 H 0.36176 0.01587 0.99381 0.0
C5363 C 0.38871 0.98177 0.99026 0.0
C5364 C 0.37938 0.98308 0.00292 0.0
H5365 H 0.39639 0.99159 0.96983 0.0
H5366 H 0.39648 0.97245 0.98911 0.0
C5367 C 0.36922 0.99517 0.00377 0.0
C5368 C 0.74916 0.25896 0.10662 0.0
C5369 C 0.73838 0.26196 0.11773 0.0
H5370 H 0.76919 0.24703 0.10076 0.0
C5371 C 0.73944 0.25471 0.13173 0.0
H5372 H 0.74865 0.26449 0.09578 0.0
C5373 C 0.75102 0.24443 0.13447 0.0
C5374 C 0.76194 0.24167 0.12341 0.0
H5375 H 0.73122 0.25686 0.14046 0.0
H5376 H 0.75159 0.23883 0.14527 0.0
C5377 C 0.76095 0.24906 0.10951 0.0
C5378 C 0.25233 0.50385 0.3733 0.0
C5379 C 0.26466 0.50246 0.36349 0.0
H5380 H 0.2308 0.49512 0.37989 0.0
C5381 C 0.26537 0.49001 0.3538 0.0
H5382 H 0.25149 0.5133 0.38094 0.0
C5383 C 0.25359 0.47977 0.35314 0.0
C5384 C 0.24082 0.48164 0.36222 0.0
H5385 H 0.2748 0.48845 0.34624 0.0
H5386 H 0.25431 0.47061 0.34514 0.0
C5387 C 0.24049 0.49347 0.3727 0.0
C5388 C 0.23314 0.74231 0.88468 0.0
C5389 C 0.23038 0.75331 0.87373 0.0
H5390 H 0.24484 0.72212 0.89036 0.0
C5391 C 0.23776 0.75241 0.85979 0.0
H5392 H 0.22751 0.7427 0.89548 0.0
C5393 C 0.24797 0.74078 0.85697 0.0
C5394 C 0.25053 0.72968 0.86789 0.0
H5395 H 0.23579 0.76081 0.85119 0.0
H5396 H 0.2537 0.74035 0.84623 0.0
C5397 C 0.24297 0.7305 0.88171 0.0
C5398 C 0.75143 0.00219 0.11166 0.0
C5399 C 0.75708 0.00392 0.12631 0.0
H5400 H 0.73737 0.98913 0.09697 0.0
C5401 C 0.75317 0.99344 0.13742 0.0
H5402 H 0.75433 0.01016 0.10293 0.0
C5403 C 0.74398 0.98127 0.13393 0.0
C5404 C 0.73814 0.9796 0.11937 0.0
H5405 H 0.75751 0.99447 0.14876 0.0
H5406 H 0.74125 0.97326 0.14269 0.0
C5407 C 0.74177 0.99023 0.10828 0.0
C5408 C 0.59854 0.49873 0.51033 0.0
C5409 C 0.60953 0.4874 0.51099 0.0
H5410 H 0.59028 0.51812 0.49897 0.0
C5411 C 0.62159 0.4878 0.50077 0.0
H5412 H 0.58918 0.49888 0.51812 0.0
C5413 C 0.62224 0.49897 0.48968 0.0
C5414 C 0.61082 0.50986 0.48865 0.0
H5415 H 0.63026 0.47926 0.50103 0.0
H5416 H 0.63139 0.49877 0.48164 0.0
C5417 C 0.59917 0.50979 0.49931 0.0
C5418 C 0.63719 0.00389 0.2294 0.0
C5419 C 0.62899 0.99062 0.23166 0.0
H5420 H 0.643 0.02558 0.23768 0.0
C5421 C 0.61884 0.98979 0.24376 0.0
H5422 H 0.64488 0.00499 0.22001 0.0
C5423 C 0.6178 0.00169 0.25405 0.0
C5424 C 0.62682 0.01456 0.25228 0.0
H5425 H 0.61232 0.9797 0.2457 0.0
H5426 H 0.61052 0.00048 0.26374 0.0
C5427 C 0.63608 0.01573 0.23953 0.0
C5428 C 0.62054 0.75214 0.49906 0.0
C5429 C 0.63058 0.75167 0.51125 0.0
H5430 H 0.61303 0.74138 0.47881 0.0
C5431 C 0.63948 0.7388 0.51338 0.0
H5432 H 0.6135 0.7619 0.49719 0.0
C5433 C 0.63916 0.72711 0.50301 0.0
C5434 C 0.63 0.72802 0.49018 0.0
H5435 H 0.64714 0.73798 0.52282 0.0
H5436 H 0.64663 0.71764 0.50475 0.0
C5437 C 0.62027 0.7404 0.48855 0.0
C5438 C 0.50999 0.35779 0.24959 0.0
C5439 C 0.51172 0.3723 0.25554 0.0
H5440 H 0.49705 0.34329 0.23545 0.0
C5441 C 0.50145 0.38361 0.25159 0.0
H5442 H 0.51774 0.34887 0.25257 0.0
C5443 C 0.48982 0.38051 0.24144 0.0
C5444 C 0.48807 0.36593 0.2356 0.0
H5445 H 0.50262 0.39488 0.25606 0.0
H5446 H 0.48215 0.38942 0.23826 0.0
C5447 C 0.49813 0.35458 0.2399 0.0
C5448 C 0.50137 0.85898 0.73975 0.0
C5449 C 0.49047 0.86993 0.73662 0.0
H5450 H 0.52177 0.85368 0.75127 0.0
C5451 C 0.49169 0.88424 0.7432 0.0
H5452 H 0.50072 0.84791 0.7347 0.0
C5453 C 0.50356 0.88742 0.75306 0.0
C5454 C 0.51459 0.8765 0.75593 0.0
H5455 H 0.48337 0.89283 0.74091 0.0
H5456 H 0.50426 0.89843 0.75822 0.0
C5457 C 0.51345 0.86231 0.74912 0.0
C5458 C 0.62431 0.00073 0.98999 0.0
C5459 C 0.61462 0.01311 0.99174 0.0
H5460 H 0.6313 0.9793 -0.00136 0.0
C5461 C 0.60564 0.01406 0.00469 0.0
H5462 H 0.63141 -0.00027 0.98014 0.0
C5463 C 0.60554 0.00245 0.01513 0.0
C5464 C 0.61446 0.98961 0.01295 0.0
H5465 H 0.59822 0.02354 0.00654 0.0
H5466 H 0.59807 0.00335 0.02472 0.0
C5467 C 0.62425 0.98905 0.00056 0.0
C5468 C 0.74811 0.49029 0.63434 0.0
C5469 C 0.73805 0.48637 0.62284 0.0
H5470 H 0.76807 0.50225 0.64035 0.0
C5471 C 0.7403 0.49204 0.60828 0.0
H5472 H 0.74668 0.48594 0.64563 0.0
C5473 C 0.75236 0.50173 0.60534 0.0
C5474 C 0.76257 0.50535 0.61681 0.0
H5475 H 0.73266 0.48912 0.59925 0.0
H5476 H 0.75386 0.50615 0.59409 0.0
C5477 C 0.76039 0.4995 0.63129 0.0
C5478 C 0.24124 0.99097 0.88652 0.0
C5479 C 0.23159 0.98671 0.87478 0.0
H5480 H 0.26069 0.00386 0.89282 0.0
C5481 C 0.23461 0.99153 0.86008 0.0
H5482 H 0.23907 0.98735 0.89794 0.0
C5483 C 0.24715 0.00042 0.8571 0.0
C5484 C 0.2566 0.00506 0.86885 0.0
H5485 H 0.22735 0.98828 0.85085 0.0
H5486 H 0.24921 0.00404 0.84565 0.0
C5487 C 0.25354 0.00036 0.88361 0.0
C5488 C 0.37141 0.49405 0.50387 0.0
C5489 C 0.38341 0.48384 0.50521 0.0
H5490 H 0.36208 0.51261 0.4916 0.0
C5491 C 0.39482 0.4839 0.4943 0.0
H5492 H 0.36243 0.4942 0.51209 0.0
C5493 C 0.39456 0.49426 0.4826 0.0
C5494 C 0.38294 0.50492 0.48154 0.0
H5495 H 0.40412 0.47606 0.49487 0.0
H5496 H 0.40374 0.4941 0.4746 0.0
C5497 C 0.3712 0.50456 0.49214 0.0
C5498 C 0.5019 0.63489 0.76225 0.0
C5499 C 0.50711 0.62009 0.76388 0.0
H5500 H 0.48903 0.65033 0.74908 0.0
C5501 C 0.50325 0.60925 0.75309 0.0
H5502 H 0.50484 0.64347 0.77039 0.0
C5503 C 0.49387 0.6131 0.74106 0.0
C5504 C 0.48872 0.62795 0.73943 0.0
H5505 H 0.50718 0.59777 0.75416 0.0
H5506 H 0.4907 0.60453 0.73301 0.0
C5507 C 0.49297 0.63884 0.75002 0.0
C5508 C 0.38245 0.50301 0.25388 0.0
C5509 C 0.36839 0.51018 0.25475 0.0
H5510 H 0.39612 0.48692 0.24214 0.0
C5511 C 0.35726 0.50675 0.24412 0.0
H5512 H 0.39118 0.50549 0.262 0.0
C5513 C 0.36023 0.49657 0.2326 0.0
C5514 C 0.37421 0.48929 0.23177 0.0
H5515 H 0.34638 0.51222 0.2445 0.0
H5516 H 0.3515 0.49425 0.22442 0.0
C5517 C 0.38526 0.49242 0.24259 0.0
C5518 C 0.35353 0.74132 -0.00237 0.0
C5519 C 0.36483 0.73745 0.98733 0.0
H5520 H 0.34791 0.7532 0.01774 0.0
C5521 C 0.37938 0.74332 0.98916 0.0
H5522 H 0.34226 0.73682 -0.00348 0.0
C5523 C 0.38252 0.75305 0.00113 0.0
C5524 C 0.37127 0.75653 0.01164 0.0
H5525 H 0.38826 0.74044 0.98133 0.0
H5526 H 0.39377 0.75753 0.00239 0.0
C5527 C 0.35678 0.75059 0.0098 0.0
C5528 C 0.74112 0.75518 0.63472 0.0
C5529 C 0.73856 0.76632 0.62384 0.0
H5530 H 0.75306 0.73497 0.64032 0.0
C5531 C 0.74576 0.7653 0.60983 0.0
H5532 H 0.73566 0.75576 0.64559 0.0
C5533 C 0.75528 0.75327 0.60667 0.0
C5534 C 0.7581 0.74228 0.61762 0.0
H5535 H 0.74386 0.77371 0.60123 0.0
H5536 H 0.76069 0.75273 0.59577 0.0
C5537 C 0.75104 0.74335 0.63171 0.0
C5538 C 0.25418 0.23924 0.36973 0.0
C5539 C 0.26616 0.23977 0.38004 0.0
H5540 H 0.23348 0.24925 0.36242 0.0
C5541 C 0.2671 0.25194 0.39006 0.0
H5542 H 0.25318 0.23003 0.36182 0.0
C5543 C 0.25589 0.26283 0.39042 0.0
C5544 C 0.24346 0.26188 0.38074 0.0
H5545 H 0.27628 0.25283 0.39802 0.0
H5546 H 0.25677 0.27178 0.39864 0.0
C5547 C 0.24291 0.25024 0.37006 0.0
C5548 C 0.64031 0.50211 0.73164 0.0
C5549 C 0.63015 0.49002 0.73168 0.0
H5550 H 0.64869 0.52138 0.74313 0.0
C5551 C 0.61943 0.48904 0.74327 0.0
H5552 H 0.6486 0.50334 0.7228 0.0
C5553 C 0.61945 0.49954 0.75501 0.0
C5554 C 0.63025 0.51109 0.75534 0.0
H5555 H 0.61142 0.47988 0.74358 0.0
H5556 H 0.61146 0.49824 0.7641 0.0
C5557 C 0.64039 0.51247 0.74333 0.0
C5558 C 0.64342 0.23032 0.99573 0.0
C5559 C 0.63219 0.23047 0.98464 0.0
H5560 H 0.65245 0.24062 0.01535 0.0
C5561 C 0.62049 0.24106 0.9857 0.0
H5562 H 0.65249 0.22219 0.99539 0.0
C5563 C 0.62048 0.25178 -0.00276 0.0
C5564 C 0.63215 0.25201 0.00792 0.0
H5565 H 0.61165 0.2414 0.97732 0.0
H5566 H 0.61164 0.26015 -0.0025 0.0
C5567 C 0.64338 0.24091 0.00723 0.0
C5568 C 0.98572 0.07536 0.41873 0.0
C5569 C 0.98189 0.07706 0.4035 0.0
H5570 H -0.00109 0.08331 0.43718 0.0
C5571 C 0.98865 0.08861 0.39511 0.0
H5572 H 0.98077 0.06651 0.42548 0.0
C5573 C -0.00103 0.09833 0.40187 0.0
C5574 C 0.00286 0.09652 0.41707 0.0
H5575 H 0.98591 0.0902 0.38335 0.0
H5576 H 0.00397 0.10719 0.39518 0.0
C5577 C 0.99617 0.08492 0.42542 0.0
C5578 C 0.90968 0.25161 0.67334 0.0
C5579 C 0.89665 0.25613 0.66566 0.0
H5580 H 0.92945 0.23806 0.67313 0.0
C5581 C 0.89387 0.25048 0.65117 0.0
H5582 H 0.91211 0.25574 0.68453 0.0
C5583 C 0.90392 0.24036 0.64454 0.0
C5584 C 0.91677 0.2356 0.65242 0.0
H5585 H 0.88389 0.25379 0.64501 0.0
H5586 H 0.90151 0.23608 0.6334 0.0
C5587 C 0.91957 0.2414 0.66683 0.0
C5588 C 0.75342 0.16717 0.918 0.0
C5589 C 0.75815 0.16589 0.90299 0.0
H5590 H 0.73984 0.15823 0.93564 0.0
C5591 C 0.75248 0.15411 0.89411 0.0
H5592 H 0.7575 0.17616 0.92512 0.0
C5593 C 0.74241 0.14368 0.90022 0.0
C5594 C 0.73768 0.14504 0.91523 0.0
H5595 H 0.75595 0.15283 0.8825 0.0
H5596 H 0.73829 0.13462 0.8932 0.0
C5597 C 0.74323 0.15692 0.92402 0.0
C5598 C 0.83971 0.00221 0.14465 0.0
C5599 C 0.82689 0.00681 0.15269 0.0
H5600 H 0.85991 0.98898 0.14487 0.0
C5601 C 0.82438 0.00098 0.16714 0.0
H5602 H 0.84191 0.00652 0.13348 0.0
C5603 C 0.83447 0.99088 0.17351 0.0
C5604 C 0.84744 0.98648 0.16566 0.0
H5605 H 0.81455 0.00417 0.17359 0.0
H5606 H 0.8322 0.98672 0.18473 0.0
C5607 C 0.84998 0.99219 0.15115 0.0
C5608 C 0.0017 0.16566 0.82282 0.0
C5609 C 0.00774 0.15132 0.82552 0.0
H5610 H 0.98702 0.18305 0.83037 0.0
C5611 C 0.00302 0.14324 0.83825 0.0
H5612 H 0.00499 0.17211 0.81302 0.0
C5613 C 0.99274 0.1496 0.84831 0.0
C5614 C 0.98687 0.16402 0.84564 0.0
H5615 H 0.00748 0.13214 0.84057 0.0
H5616 H 0.9895 0.1433 0.85822 0.0
C5617 C 0.99131 0.17189 0.83271 0.0
C5618 C 0.82 0.24347 0.08276 0.0
C5619 C 0.82768 0.23844 0.09559 0.0
H5620 H 0.82041 0.25732 0.06323 0.0
C5621 C 0.84235 0.24362 0.09835 0.0
H5622 H 0.80866 0.23973 0.08035 0.0
C5623 C 0.84919 0.25371 0.0884 0.0
C5624 C 0.84135 0.25892 0.07569 0.0
H5625 H 0.84851 0.23992 0.10818 0.0
H5626 H 0.8605 0.25757 0.09074 0.0
C5627 C 0.82671 0.25365 0.07298 0.0
C5628 C 0.74973 0.09148 0.35307 0.0
C5629 C 0.75391 0.0764 0.35092 0.0
H5630 H 0.73672 0.1101 0.345 0.0
C5631 C 0.74781 0.06837 0.33878 0.0
H5632 H 0.75427 0.09792 0.36235 0.0
C5633 C 0.73768 0.07524 0.32901 0.0
C5634 C 0.73355 0.09035 0.33103 0.0
H5635 H 0.75076 0.05671 0.33686 0.0
H5636 H 0.73323 0.0687 0.31975 0.0
C5637 C 0.73969 0.09844 0.34315 0.0
C5638 C 0.919 0.9894 0.57256 0.0
C5639 C 0.90435 0.98395 0.57478 0.0
H5640 H 0.93664 0.0035 0.58066 0.0
C5641 C 0.896 0.98906 0.58719 0.0
H5642 H 0.92566 0.98577 0.56304 0.0
C5643 C 0.90238 -0.00085 0.59742 0.0
C5644 C 0.91709 0.00446 0.59524 0.0
H5645 H 0.88468 0.98502 0.58917 0.0
H5646 H 0.89584 0.00272 0.60706 0.0
C5647 C 0.92525 -0.00036 0.58262 0.0
C5648 C 0.39567 0.98996 0.08852 0.0
C5649 C 0.40365 0.9845 0.076 0.0
H5650 H 0.39623 0.0039 0.10821 0.0
C5651 C 0.41847 0.98936 0.0736 0.0
H5652 H 0.38423 0.98637 0.09065 0.0
C5653 C 0.4252 -0.00051 0.08345 0.0
C5654 C 0.41734 0.00482 0.09606 0.0
H5655 H 0.42488 0.98543 0.06401 0.0
H5656 H 0.43666 0.00298 0.08127 0.0
C5657 C 0.40253 -5e-05 0.09856 0.0
C5658 C 0.0004 0.6514 0.33573 0.0
C5659 C 0.00615 0.65768 0.32242 0.0
H5660 H 0.98471 0.65377 0.35393 0.0
C5661 C 5e-05 0.67118 0.31699 0.0
H5662 H 0.00492 0.64099 0.34013 0.0
C5663 C 0.98835 0.67824 0.32462 0.0
C5664 C 0.9827 0.67213 0.33803 0.0
H5665 H 0.00416 0.67621 0.30669 0.0
H5666 H 0.98391 0.68865 0.32012 0.0
C5667 C 0.98888 0.6587 0.3436 0.0
C5668 C 0.32008 0.24538 0.58366 0.0
C5669 C 0.32844 0.23987 0.59587 0.0
H5670 H 0.31964 0.25955 0.56434 0.0
C5671 C 0.34335 0.24469 0.59783 0.0
H5672 H 0.30852 0.24195 0.5819 0.0
C5673 C 0.34982 0.25474 0.58759 0.0
C5674 C 0.34137 0.2603 0.57543 0.0
H5675 H 0.35002 0.2406 0.60716 0.0
H5676 H 0.36137 0.25824 0.58926 0.0
C5677 C 0.32643 0.25555 0.57362 0.0
C5678 C 0.75305 0.57393 0.82596 0.0
C5679 C 0.7587 0.57653 0.84046 0.0
H5680 H 0.73786 0.58096 0.80876 0.0
C5681 C 0.75294 0.58855 0.84896 0.0
H5682 H 0.75718 0.56467 0.81921 0.0
C5683 C 0.74194 0.59801 0.8429 0.0
C5684 C 0.73634 0.59539 0.82839 0.0
H5685 H 0.75709 0.59079 0.86019 0.0
H5686 H 0.73786 0.60737 0.84955 0.0
C5687 C 0.74189 0.58319 0.82004 0.0
C5688 C 0.39821 0.25171 0.15982 0.0
C5689 C 0.40408 0.25775 0.17319 0.0
H5690 H 0.40164 0.23629 0.14153 0.0
C5691 C 0.41792 0.25246 0.17862 0.0
H5692 H 0.38755 0.25561 0.15541 0.0
C5693 C 0.42573 0.24132 0.17094 0.0
C5694 C 0.42005 0.23536 0.15748 0.0
H5695 H 0.42268 0.25678 0.18897 0.0
H5696 H 0.43639 0.23755 0.17548 0.0
C5697 C 0.40625 0.2407 0.1519 0.0
C5698 C 0.74213 0.65776 0.42261 0.0
C5699 C 0.73718 0.64516 0.4145 0.0
H5700 H 0.75613 0.67727 0.42291 0.0
C5701 C 0.74244 0.64289 0.39978 0.0
H5702 H 0.73832 0.65977 0.43401 0.0
C5703 C 0.75255 0.65308 0.39333 0.0
C5704 C 0.75776 0.66549 0.40162 0.0
H5705 H 0.73879 0.63326 0.39329 0.0
H5706 H 0.75651 0.65108 0.38199 0.0
C5707 C 0.75241 0.66774 0.41629 0.0
C5708 C 0.34714 0.98713 0.65406 0.0
C5709 C 0.33874 0.98017 0.66549 0.0
H5710 H 0.34705 0.00268 0.63567 0.0
C5711 C 0.32346 0.98386 0.66716 0.0
H5712 H 0.35893 0.98449 0.6525 0.0
C5713 C 0.31675 0.99437 0.65769 0.0
C5714 C 0.32511 0.00127 0.64623 0.0
H5715 H 0.3167 0.97876 0.67591 0.0
H5716 H 0.30496 -0.003 0.65929 0.0
C5717 C 0.34035 -0.00249 0.64443 0.0
C5718 C 0.9909 0.58465 0.90062 0.0
C5719 C 0.98511 0.5711 0.9063 0.0
H5720 H 0.00653 0.60276 0.90389 0.0
C5721 C 0.99113 0.5651 0.9196 0.0
H5722 H 0.98643 0.58949 0.89038 0.0
C5723 C 0.00275 0.57244 0.92706 0.0
C5724 C 0.0084 0.58611 0.92159 0.0
H5725 H 0.98697 0.5546 0.92416 0.0
H5726 H 0.00711 0.56751 0.93731 0.0
C5727 C 0.00235 0.59223 0.90834 0.0
C5728 C 0.09299 0.39432 0.99094 0.0
C5729 C 0.0785 0.3964 0.98503 0.0
H5730 H 0.11019 0.40298 0.00546 0.0
C5731 C 0.07018 0.40914 0.98924 0.0
H5732 H 0.09963 0.38458 0.98788 0.0
C5733 C 0.07608 0.41947 -0.00062 0.0
C5734 C 0.09052 0.41741 0.0054 0.0
H5735 H 0.05895 0.41103 0.98492 0.0
H5736 H 0.0693 0.42912 0.00246 0.0
C5737 C 0.09902 0.40483 0.00098 0.0
C5738 C 0.59167 0.3461 0.2525 0.0
C5739 C 0.57704 0.34396 0.25807 0.0
H5740 H 0.60924 0.33756 0.23838 0.0
C5741 C 0.56893 0.33112 0.25374 0.0
H5742 H 0.59816 0.3559 0.25568 0.0
C5743 C 0.57514 0.3208 0.24374 0.0
C5744 C 0.58968 0.32298 0.23801 0.0
H5745 H 0.55762 0.32918 0.25781 0.0
H5746 H 0.56851 0.31112 0.24047 0.0
C5747 C 0.59799 0.3356 0.24264 0.0
C5748 C 0.67392 0.83495 0.48936 0.0
C5749 C 0.66522 0.84726 0.48463 0.0
H5750 H 0.67511 0.81524 0.50304 0.0
C5751 C 0.6504 0.84872 0.48986 0.0
H5752 H 0.68541 0.83356 0.48556 0.0
C5753 C 0.64443 0.83809 0.49977 0.0
C5754 C 0.65329 0.826 0.5048 0.0
H5755 H 0.64346 0.8581 0.48636 0.0
H5756 H 0.63301 0.83954 0.50376 0.0
C5757 C 0.66805 0.82449 0.49944 0.0
C5758 C 0.15866 0.9012 0.7497 0.0
C5759 C 0.17256 0.90676 0.75477 0.0
H5760 H 0.13981 0.90461 0.73501 0.0
C5761 C 0.17845 0.91989 0.74831 0.0
H5762 H 0.15389 0.89109 0.75453 0.0
C5763 C 0.17062 0.92737 0.73703 0.0
C5764 C 0.15657 0.92208 0.73215 0.0
H5765 H 0.1892 0.92435 0.75191 0.0
H5766 H 0.17546 0.93753 0.73236 0.0
C5767 C 0.15062 0.90893 0.73859 0.0
C5768 C 0.59257 0.39211 0.49143 0.0
C5769 C 0.57795 0.3943 0.48586 0.0
H5770 H 0.60988 0.40017 0.50617 0.0
C5771 C 0.56953 0.40666 0.49094 0.0
H5772 H 0.59928 0.38265 0.4877 0.0
C5773 C 0.57543 0.41645 0.50161 0.0
C5774 C 0.58999 0.41426 0.5073 0.0
H5775 H 0.55819 0.40862 0.48692 0.0
H5776 H 0.56857 0.42578 0.50538 0.0
C5777 C 0.59861 0.40211 0.50198 0.0
C5778 C 0.15541 0.84971 0.99055 0.0
C5779 C 0.16794 0.84131 0.98584 0.0
H5780 H 0.13523 0.85004 0.00378 0.0
C5781 C 0.17 0.82671 0.99146 0.0
H5782 H 0.15356 0.86101 0.9864 0.0
C5783 C 0.15971 0.82057 0.00151 0.0
C5784 C 0.14702 0.82882 0.00602 0.0
H5785 H 0.17961 0.82 0.98814 0.0
H5786 H 0.16158 0.80923 0.00553 0.0
C5787 C 0.14494 0.84346 0.00048 0.0
C5788 C 0.66755 0.91867 0.24299 0.0
C5789 C 0.65293 0.91652 0.23746 0.0
H5790 H 0.68519 0.91037 0.25695 0.0
C5791 C 0.64461 0.90398 0.24232 0.0
H5792 H 0.6742 0.92827 0.23955 0.0
C5793 C 0.65101 0.89356 0.25223 0.0
C5794 C 0.6657 0.89568 0.25761 0.0
H5795 H 0.63331 0.90204 0.23821 0.0
H5796 H 0.6445 0.88384 0.25561 0.0
C5797 C 0.67382 0.90843 0.25302 0.0
C5798 C 0.06906 0.33456 0.75337 0.0
C5799 C 0.07707 0.34754 0.75744 0.0
H5800 H 0.06863 0.31444 0.74038 0.0
C5801 C 0.09153 0.34986 0.75151 0.0
H5802 H 0.05787 0.33246 0.75771 0.0
C5803 C 0.0978 0.33937 0.74157 0.0
C5804 C 0.08958 0.32657 0.73728 0.0
H5805 H 0.09794 0.35978 0.75447 0.0
H5806 H 0.10892 0.34142 0.73706 0.0
C5807 C 0.0752 0.32425 0.74335 0.0
C5808 C 0.00473 0.90104 0.59933 0.0
C5809 C 0.00962 0.914 0.59172 0.0
H5810 H 0.99134 0.88099 0.59833 0.0
C5811 C 0.00416 0.91691 0.57719 0.0
H5812 H 0.00876 0.89853 0.61054 0.0
C5813 C 0.99411 0.90707 0.57036 0.0
C5814 C 0.98942 0.89397 0.57779 0.0
H5815 H 0.00759 0.92687 0.57107 0.0
H5816 H 0.9902 0.90964 0.55911 0.0
C5817 C 0.9948 0.89102 0.59235 0.0
C5818 C 0.0852 0.73969 0.32178 0.0
C5819 C 0.09784 0.73523 0.33015 0.0
H5820 H 0.06528 0.75305 0.32096 0.0
C5821 C 0.09969 0.74074 0.34483 0.0
H5822 H 0.08348 0.73567 0.31041 0.0
C5823 C 0.08909 0.75063 0.35098 0.0
C5824 C 0.07666 0.75536 0.34242 0.0
H5825 H 0.10933 0.73747 0.35152 0.0
H5826 H 0.09081 0.75484 0.36228 0.0
C5827 C 0.0748 0.74971 0.3278 0.0
C5828 C 0.24032 0.82438 0.07675 0.0
C5829 C 0.2346 0.82671 0.09127 0.0
H5830 H 0.25505 0.83206 0.05946 0.0
C5831 C 0.23984 0.83898 0.09975 0.0
H5832 H 0.2366 0.81496 0.06998 0.0
C5833 C 0.25037 0.84895 0.09361 0.0
C5834 C 0.25599 0.8466 0.07904 0.0
H5835 H 0.23561 0.84103 0.11098 0.0
H5836 H 0.25407 0.85848 0.10023 0.0
C5837 C 0.25097 0.83414 0.07075 0.0
C5838 C 0.14295 0.00256 0.83967 0.0
C5839 C 0.15108 0.00789 0.8272 0.0
H5840 H 0.14324 0.98879 0.85947 0.0
C5841 C 0.16585 0.00281 0.8249 0.0
H5842 H 0.13154 0.00632 0.84172 0.0
C5843 C 0.17241 0.99268 0.83486 0.0
C5844 C 0.16443 0.98757 0.84749 0.0
H5845 H 0.17236 0.00663 0.81534 0.0
H5846 H 0.18386 0.98906 0.83279 0.0
C5847 C 0.14963 0.99258 0.84982 0.0
C5848 C 0.98956 0.82371 0.16972 0.0
C5849 C 0.98467 0.83852 0.16724 0.0
H5850 H 0.00306 0.80542 0.16202 0.0
C5851 C 0.99003 0.8464 0.15464 0.0
H5852 H 0.98573 0.81737 0.17939 0.0
C5853 C -8e-05 0.83947 0.14457 0.0
C5854 C 0.00476 0.82465 0.1471 0.0
H5855 H 0.98645 0.85783 0.15246 0.0
H5856 H 0.00376 0.84569 0.13483 0.0
C5857 C -0.00043 0.81689 0.15981 0.0
C5858 C 0.1481 0.762 0.90537 0.0
C5859 C 0.15917 0.75835 0.89476 0.0
H5860 H 0.1326 0.75365 0.92181 0.0
C5861 C 0.16196 0.74322 0.89128 0.0
H5862 H 0.14595 0.77363 0.9083 0.0
C5863 C 0.15477 0.73184 0.89935 0.0
C5864 C 0.14432 0.73551 0.91056 0.0
H5865 H 0.17066 0.7402 0.88329 0.0
H5866 H 0.15795 0.72024 0.89742 0.0
C5867 C 0.14049 0.75062 0.91303 0.0
C5868 C 0.25303 0.91722 0.67425 0.0
C5869 C 0.25793 0.90302 0.66942 0.0
H5870 H 0.23844 0.93586 0.6704 0.0
C5871 C 0.25155 0.89667 0.65642 0.0
H5872 H 0.25765 0.92235 0.68429 0.0
C5873 C 0.24061 0.90455 0.64829 0.0
C5874 C 0.23566 0.91872 0.65325 0.0
H5875 H 0.25514 0.88573 0.65246 0.0
H5876 H 0.23595 0.89952 0.63823 0.0
C5877 C 0.24193 0.92491 0.66635 0.0
C5878 C 0.09676 0.9903 0.41807 0.0
C5879 C 0.09455 0.00548 0.41444 0.0
H5880 H 0.08974 0.96758 0.41412 0.0
C5881 C 0.08497 0.00939 0.40256 0.0
H5882 H 0.10401 0.98715 0.42734 0.0
C5883 C 0.07721 -0.00177 0.39472 0.0
C5884 C 0.07854 0.98312 0.39909 0.0
H5885 H 0.08307 0.02108 0.39972 0.0
H5886 H 0.0694 0.00151 0.38597 0.0
C5887 C 0.0886 0.97918 0.41059 0.0
C5888 C 0.59182 0.00478 0.91053 0.0
C5889 C 0.58531 0.01139 0.92332 0.0
H5890 H 0.58931 0.98875 0.89271 0.0
C5891 C 0.57094 0.00675 0.92795 0.0
H5892 H 0.60287 0.00817 0.90671 0.0
C5893 C 0.56335 0.99551 0.92015 0.0
C5894 C 0.56984 0.98885 0.90739 0.0
H5895 H 0.56567 0.01157 0.93782 0.0
H5896 H 0.55233 0.9921 0.92407 0.0
C5897 C 0.58407 0.99369 0.90253 0.0
C5898 C 0.99115 0.32761 0.66854 0.0
C5899 C 0.98533 0.34206 0.66594 0.0
H5900 H 0.00525 0.30989 0.66073 0.0
C5901 C 0.98983 0.34996 0.65302 0.0
H5902 H 0.98804 0.32127 0.67846 0.0
C5903 C -0.00029 0.34332 0.64269 0.0
C5904 C 0.00537 0.3288 0.6453 0.0
H5905 H 0.98552 0.36113 0.65075 0.0
H5906 H 0.00283 0.3495 0.63268 0.0
C5907 C 0.00111 0.32111 0.65839 0.0
C5908 C 0.6777 0.75182 0.42125 0.0
C5909 C 0.67219 0.75759 0.40764 0.0
H5910 H 0.67483 0.7359 0.43897 0.0
C5911 C 0.65895 0.75155 0.40147 0.0
H5912 H 0.68795 0.75616 0.42621 0.0
C5913 C 0.65126 0.74004 0.40895 0.0
C5914 C 0.65695 0.73416 0.42246 0.0
H5915 H 0.65449 0.75582 0.39097 0.0
H5916 H 0.64101 0.73561 0.40408 0.0
C5917 C 0.67025 0.74013 0.4285 0.0
C5918 C 0.25212 0.39309 0.15333 0.0
C5919 C 0.25693 0.40092 0.16619 0.0
H5920 H 0.23871 0.39371 0.13325 0.0
C5921 C 0.25131 0.41542 0.16891 0.0
H5922 H 0.25626 0.38188 0.15097 0.0
C5923 C 0.24122 0.42204 0.15898 0.0
C5924 C 0.23661 0.4144 0.14597 0.0
H5925 H 0.25467 0.42172 0.17879 0.0
H5926 H 0.23723 0.43329 0.16142 0.0
C5927 C 0.2421 0.39984 0.14321 0.0
C5928 C 0.56879 0.75098 0.83092 0.0
C5929 C 0.57659 0.75617 0.84363 0.0
H5930 H 0.56899 0.73658 0.8117 0.0
C5931 C 0.59123 0.75094 0.84638 0.0
H5932 H 0.55746 0.75478 0.82854 0.0
C5933 C 0.59792 0.74061 0.83661 0.0
C5934 C 0.58995 0.73516 0.8241 0.0
H5935 H 0.59749 0.75478 0.8561 0.0
H5936 H 0.6092 0.73667 0.83902 0.0
C5937 C 0.57536 0.74049 0.82132 0.0
C5938 C 0.26109 0.33689 0.59217 0.0
C5939 C 0.25711 0.34742 0.58113 0.0
H5940 H 0.25318 0.32063 0.60809 0.0
C5941 C 0.24191 0.35097 0.57882 0.0
H5942 H 0.27277 0.33394 0.59398 0.0
C5943 C 0.23075 0.34303 0.58647 0.0
C5944 C 0.23472 0.33189 0.59689 0.0
H5945 H 0.23865 0.35892 0.57018 0.0
H5946 H 0.21905 0.34499 0.58367 0.0
C5947 C 0.24993 0.32936 0.60023 0.0
C5948 C 0.64784 0.00506 0.33316 0.0
C5949 C 0.65405 0.01191 0.32035 0.0
H5950 H 0.65096 0.98895 0.35084 0.0
C5951 C 0.66839 0.0075 0.31544 0.0
H5952 H 0.6368 0.00825 0.33719 0.0
C5953 C 0.67632 0.99634 0.32303 0.0
C5954 C 0.6702 0.98952 0.33587 0.0
H5955 H 0.67344 0.01249 0.30554 0.0
H5956 H 0.68734 0.99317 0.3189 0.0
C5957 C 0.65594 0.99405 0.34096 0.0
C5958 C 0.0004 0.40097 0.09999 0.0
C5959 C 0.00571 0.41564 0.09749 0.0
H5960 H 0.98663 0.38291 0.09182 0.0
C5961 C 0.00105 0.42343 0.08458 0.0
H5962 H 0.00383 0.39473 0.10986 0.0
C5963 C 0.99115 0.41681 0.07446 0.0
C5964 C 0.98578 0.40217 0.07688 0.0
H5965 H 0.00489 0.43477 0.08236 0.0
H5966 H 0.98778 0.42321 0.06465 0.0
C5967 C 0.99059 0.39423 0.08968 0.0
C5968 C 0.91795 0.57719 0.00296 0.0
C5969 C 0.91596 0.59182 0.00854 0.0
H5970 H 0.90979 0.55993 0.98845 0.0
C5971 C 0.90376 0.60045 0.00337 0.0
H5972 H 0.92731 0.57031 0.00664 0.0
C5973 C 0.89356 0.59441 0.99302 0.0
C5974 C 0.89561 0.57978 0.98747 0.0
H5975 H 0.90196 0.61177 0.0075 0.0
H5976 H 0.88411 0.60118 0.98937 0.0
C5977 C 0.90796 0.57129 0.99245 0.0
C5978 C 0.40943 0.67384 0.75296 0.0
C5979 C 0.39648 0.66559 0.75661 0.0
H5980 H 0.42988 0.67469 0.74051 0.0
C5981 C 0.39457 0.65113 0.75055 0.0
H5982 H 0.41121 0.68504 0.75742 0.0
C5983 C 0.40541 0.64511 0.74087 0.0
C5984 C 0.41817 0.65357 0.73695 0.0
H5985 H 0.38468 0.64454 0.7532 0.0
H5986 H 0.40365 0.63399 0.73622 0.0
C5987 C 0.4201 0.66794 0.74318 0.0
C5988 C 0.32575 0.16781 0.48339 0.0
C5989 C 0.34105 0.16581 0.48 0.0
H5990 H 0.30686 0.16041 0.49626 0.0
C5991 C 0.34907 0.1542 0.48711 0.0
H5992 H 0.31928 0.17671 0.47815 0.0
C5993 C 0.34188 0.14476 0.4974 0.0
C5994 C 0.32664 0.14693 0.50092 0.0
H5995 H 0.36087 0.15237 0.4847 0.0
H5996 H 0.34831 0.13588 0.50273 0.0
C5997 C 0.31864 0.15853 0.49382 0.0
C5998 C 0.84145 0.09942 0.24314 0.0
C5999 C 0.82696 0.09657 0.2375 0.0
H6000 H 0.85934 0.09176 0.25741 0.0
C6001 C 0.81946 0.08339 0.24182 0.0
H6002 H 0.84748 0.10952 0.23997 0.0
C6003 C 0.8261 0.07341 0.25186 0.0
C6004 C 0.84049 0.07629 0.2577 0.0
H6005 H 0.80828 0.08087 0.23768 0.0
H6006 H 0.81991 0.06343 0.25505 0.0
C6007 C 0.84822 0.08929 0.2531 0.0
C6008 C 0.3949 0.58828 0.48929 0.0
C6009 C 0.40304 0.57615 0.48326 0.0
H6010 H 0.39523 0.60732 0.50408 0.0
C6011 C 0.41785 0.5736 0.48812 0.0
H6012 H 0.38346 0.59048 0.48575 0.0
C6013 C 0.42444 0.58302 0.49872 0.0
C6014 C 0.41646 0.59533 0.50453 0.0
H6015 H 0.42436 0.56426 0.48378 0.0
H6016 H 0.43593 0.58081 0.50214 0.0
C6017 C 0.40162 0.59789 0.49976 0.0
C6018 C 0.83171 0.17214 0.98899 0.0
C6019 C 0.84506 0.16455 0.98534 0.0
H6020 H 0.81121 0.17191 0.00147 0.0
C6021 C 0.84765 0.15017 0.99132 0.0
H6022 H 0.8294 0.18325 0.98456 0.0
C6023 C 0.83714 0.1436 0.00097 0.0
C6024 C 0.82396 0.15139 0.00492 0.0
H6025 H 0.85785 0.14406 0.98867 0.0
H6026 H 0.83948 0.13257 0.00557 0.0
C6027 C 0.8213 0.16567 -0.00126 0.0
C6028 C 0.32307 0.09467 0.75231 0.0
C6029 C 0.32674 0.09239 0.73715 0.0
H6030 H 0.32692 0.08769 0.77507 0.0
C6031 C 0.33858 0.08274 0.7333 0.0
H6032 H 0.31383 0.10198 0.75542 0.0
C6033 C 0.34635 0.07498 0.7445 0.0
C6034 C 0.34195 0.07638 0.75959 0.0
H6035 H 0.34146 0.08081 0.72162 0.0
H6036 H 0.35509 0.06713 0.74127 0.0
C6037 C 0.33047 0.08649 0.76348 0.0
C6038 C 0.90687 0.65097 0.26197 0.0
C6039 C 0.89635 0.66213 0.25832 0.0
H6040 H 0.92316 0.63528 0.25366 0.0
C6041 C 0.89326 0.66529 0.24318 0.0
H6042 H 0.90945 0.64847 0.27362 0.0
C6043 C 0.90145 0.65817 0.23183 0.0
C6044 C 0.9124 0.64744 0.23551 0.0
H6045 H 0.8853 0.67402 0.24017 0.0
H6046 H 0.8996 0.66141 0.22023 0.0
C6047 C 0.91465 0.64344 0.2506 0.0
C6048 C 0.92504 0.74028 0.16713 0.0
C6049 C 0.9188 0.73414 0.154 0.0
H6050 H 0.92284 0.75604 0.185 0.0
C6051 C 0.90492 0.73961 0.14877 0.0
H6052 H 0.9358 0.73643 0.17137 0.0
C6053 C 0.8973 0.75086 0.1568 0.0
C6054 C 0.90369 0.75701 0.16989 0.0
H6055 H 0.8999 0.73507 0.13865 0.0
H6056 H 0.88652 0.75481 0.15272 0.0
C6057 C 0.91766 0.75164 0.17489 0.0
C6058 C 0.84262 0.50184 0.64411 0.0
C6059 C 0.82786 0.50708 0.64617 0.0
H6060 H 0.86031 0.48775 0.65251 0.0
C6061 C 0.81958 0.50212 0.65866 0.0
H6062 H 0.84924 0.5055 0.63456 0.0
C6063 C 0.82578 0.49188 0.66873 0.0
C6064 C 0.84048 0.48651 0.66667 0.0
H6065 H 0.80816 0.50591 0.66054 0.0
H6066 H 0.81902 0.48819 0.67817 0.0
C6067 C 0.84894 0.49171 0.65436 0.0
C6068 C 0.834 0.76295 0.58974 0.0
C6069 C 0.84475 0.75853 0.57909 0.0
H6070 H 0.81765 0.75572 0.6059 0.0
C6071 C 0.84856 0.74328 0.57771 0.0
H6072 H 0.8309 0.77468 0.59092 0.0
C6073 C 0.8407 0.73245 0.58592 0.0
C6074 C 0.82939 0.73684 0.59599 0.0
H6075 H 0.85674 0.73965 0.56944 0.0
H6076 H 0.84289 0.72065 0.58384 0.0
C6077 C 0.82653 0.75216 0.59835 0.0
C6078 C 0.90641 0.50279 0.09491 0.0
C6079 C 0.91886 0.51031 0.08866 0.0
H6080 H 0.88909 0.48623 0.09146 0.0
C6081 C 0.92319 0.50696 0.07385 0.0
H6082 H 0.90282 0.50516 0.1063 0.0
C6083 C 0.91563 0.49608 0.06562 0.0
C6084 C 0.90336 0.48839 0.07184 0.0
H6085 H 0.93271 0.51248 0.06863 0.0
H6086 H 0.91942 0.49371 0.05428 0.0
C6087 C 0.89858 0.492 0.08646 0.0
C6088 C 0.40249 0.50977 0.5868 0.0
C6089 C 0.41407 0.50583 0.59674 0.0
H6090 H 0.38633 0.5019 0.57078 0.0
C6091 C 0.41722 0.49063 0.59947 0.0
H6092 H 0.40008 0.52148 0.58445 0.0
C6093 C 0.40978 0.47949 0.59129 0.0
C6094 C 0.39879 0.48347 0.58069 0.0
H6095 H 0.4263 0.48743 0.60695 0.0
H6096 H 0.41312 0.46786 0.59269 0.0
C6097 C 0.39468 0.49861 0.57902 0.0
C6098 C 0.33727 0.73942 0.09912 0.0
C6099 C 0.32498 0.73403 0.09078 0.0
H6100 H 0.3568 0.7536 0.09929 0.0
C6101 C 0.32266 0.73938 0.07612 0.0
H6102 H 0.33932 0.73546 0.11046 0.0
C6103 C 0.33245 0.74988 0.06988 0.0
C6104 C 0.34491 0.75506 0.07807 0.0
H6105 H 0.31322 0.73553 0.06945 0.0
H6106 H 0.33039 0.7537 0.0585 0.0
C6107 C 0.34726 0.74976 0.09275 0.0
C6108 C 0.39436 0.75554 0.65423 0.0
C6109 C 0.4026 0.76174 0.66621 0.0
H6110 H 0.39473 0.7412 0.63485 0.0
C6111 C 0.41789 0.75804 0.66774 0.0
H6112 H 0.38256 0.75818 0.65275 0.0
C6113 C 0.42476 0.74828 0.65764 0.0
C6114 C 0.41656 0.74206 0.64567 0.0
H6115 H 0.42457 0.76256 0.67687 0.0
H6116 H 0.43656 0.74565 0.6592 0.0
C6117 C 0.40131 0.74583 0.64399 0.0
C6118 C 0.33953 0.50194 0.14544 0.0
C6119 C 0.32703 0.50737 0.15347 0.0
H6120 H 0.359 0.48771 0.14575 0.0
C6121 C 0.32438 0.50207 0.1681 0.0
H6122 H 0.34182 0.50582 0.13413 0.0
C6123 C 0.33402 0.4916 0.1746 0.0
C6124 C 0.34663 0.48633 0.16671 0.0
H6125 H 0.31478 0.50593 0.17453 0.0
H6126 H 0.33169 0.48783 0.18595 0.0
C6127 C 0.34933 0.49158 0.15206 0.0
C6128 C 0.07553 0.92451 0.50251 0.0
C6129 C 0.08945 0.91924 0.50773 0.0
H6130 H 0.05723 0.92142 0.48741 0.0
C6131 C 0.09559 0.9061 0.50141 0.0
H6132 H 0.07055 0.93467 0.50704 0.0
C6133 C 0.08776 0.8983 0.49016 0.0
C6134 C 0.07393 0.90379 0.48484 0.0
H6135 H 0.10632 0.90181 0.50525 0.0
H6136 H 0.09259 0.88813 0.4855 0.0
C6137 C 0.06794 0.91697 0.49113 0.0
C6138 C 0.59359 0.84893 0.75162 0.0
C6139 C 0.57883 0.84714 0.75692 0.0
H6140 H 0.61102 0.8403 0.7374 0.0
C6141 C 0.57027 0.83484 0.75193 0.0
H6142 H 0.60043 0.85831 0.75531 0.0
C6143 C 0.57621 0.82471 0.74158 0.0
C6144 C 0.59092 0.82652 0.73618 0.0
H6145 H 0.55883 0.83319 0.75578 0.0
H6146 H 0.56925 0.81543 0.73784 0.0
C6147 C 0.59964 0.83862 0.74141 0.0
C6148 C 0.65023 0.34696 0.99055 0.0
C6149 C 0.66487 0.34461 0.98509 0.0
H6150 H 0.63267 0.33902 0.00504 0.0
C6151 C 0.6731 0.33213 0.99017 0.0
H6152 H 0.64367 0.35652 0.98682 0.0
C6153 C 0.66697 0.32234 0.00073 0.0
C6154 C 0.65237 0.32468 0.00626 0.0
H6155 H 0.68444 0.33007 0.98624 0.0
H6156 H 0.67366 0.31289 0.0045 0.0
C6157 C 0.64397 0.33697 0.00095 0.0
C6158 C 0.17319 0.40887 0.25401 0.0
C6159 C 0.16517 0.39587 0.25797 0.0
H6160 H 0.17359 0.42916 0.24127 0.0
C6161 C 0.15067 0.39366 0.25211 0.0
H6162 H 0.18442 0.41088 0.2583 0.0
C6163 C 0.14436 0.40429 0.24236 0.0
C6164 C 0.15258 0.41714 0.23818 0.0
H6165 H 0.14425 0.38372 0.25499 0.0
H6166 H 0.1332 0.40233 0.23791 0.0
C6167 C 0.16702 0.41932 0.24417 0.0
C6168 C 0.59931 0.90398 0.00321 0.0
C6169 C 0.59112 0.91629 0.00883 0.0
H6170 H 0.59913 0.88452 0.98897 0.0
C6171 C 0.57634 0.91866 0.0038 0.0
H6172 H 0.61073 0.90189 0.0069 0.0
C6173 C 0.56985 0.90891 0.99342 0.0
C6174 C 0.57789 0.89645 0.98801 0.0
H6175 H 0.56979 0.9281 0.00784 0.0
H6176 H 0.55838 0.911 0.98985 0.0
C6177 C 0.59269 0.89405 0.99297 0.0
C6178 C 0.14346 0.34007 0.50148 0.0
C6179 C 0.15163 0.32744 0.50637 0.0
H6180 H 0.14344 0.35994 0.48778 0.0
C6181 C 0.16611 0.32493 0.50061 0.0
H6182 H 0.13225 0.34226 0.50572 0.0
C6183 C 0.17234 0.33483 0.49024 0.0
C6184 C 0.16435 0.3476 0.48553 0.0
H6185 H 0.17264 0.31523 0.50404 0.0
H6186 H 0.18359 0.33258 0.48613 0.0
C6187 C 0.14983 0.35016 0.49122 0.0
C6188 C 0.6781 0.41861 0.75026 0.0
C6189 C 0.67201 0.40546 0.75651 0.0
H6190 H 0.6756 0.43638 0.73439 0.0
C6191 C 0.65815 0.40008 0.75116 0.0
H6192 H 0.68884 0.42296 0.75403 0.0
C6193 C 0.65039 0.40796 0.73994 0.0
C6194 C 0.6566 0.42108 0.73367 0.0
H6195 H 0.65325 0.38993 0.75578 0.0
H6196 H 0.63962 0.40376 0.7361 0.0
C6197 C 0.67057 0.42624 0.73889 0.0
C6198 C 0.09916 0.83739 0.24141 0.0
C6199 C 0.09129 0.82425 0.23748 0.0
H6200 H 0.09886 0.858 0.25398 0.0
C6201 C 0.07714 0.82155 0.24393 0.0
H6202 H 0.1101 0.83975 0.23661 0.0
C6203 C 0.07087 0.83179 0.25394 0.0
C6204 C 0.0785 0.84511 0.25761 0.0
H6205 H 0.07085 0.81146 0.24126 0.0
H6206 H 0.05986 0.82938 0.25856 0.0
C6207 C 0.09274 0.84782 0.25132 0.0
C6208 C 0.075 0.24973 0.82512 0.0
C6209 C 0.07732 0.25574 0.83952 0.0
H6210 H 0.08303 0.2351 0.80791 0.0
C6211 C 0.08992 0.25112 0.84788 0.0
H6212 H 0.06532 0.25295 0.81845 0.0
C6213 C 0.1002 0.24091 0.84175 0.0
C6214 C 0.09788 0.235 0.82729 0.0
H6215 H 0.09197 0.25557 0.85902 0.0
H6216 H 0.10998 0.23771 0.84827 0.0
C6217 C 0.0851 0.2394 0.81912 0.0
C6218 C 0.15392 0.49211 0.34922 0.0
C6219 C 0.16619 0.48728 0.34049 0.0
H6220 H 0.13394 0.50564 0.35012 0.0
C6221 C 0.16804 0.49306 0.32594 0.0
H6222 H 0.15222 0.48781 0.36048 0.0
C6223 C 0.15778 0.50338 0.32015 0.0
C6224 C 0.14531 0.50796 0.32869 0.0
H6225 H 0.17744 0.48964 0.31899 0.0
H6226 H 0.15948 0.50751 0.30882 0.0
C6227 C 0.14346 0.50228 0.3433 0.0
C6228 C 0.17179 0.2524 0.41765 0.0
C6229 C 0.17008 0.25766 0.40288 0.0
H6230 H 0.16313 0.23839 0.43511 0.0
C6231 C 0.158 0.2524 0.39414 0.0
H6232 H 0.18105 0.25618 0.42461 0.0
C6233 C 0.14762 0.2423 0.40022 0.0
C6234 C 0.14932 0.23713 0.41502 0.0
H6235 H 0.1564 0.25629 0.38271 0.0
H6236 H 0.13826 0.2386 0.39336 0.0
C6237 C 0.16158 0.24214 0.42362 0.0
C6238 C 0.07371 0.49336 0.91704 0.0
C6239 C 0.07571 0.48753 0.90252 0.0
H6240 H 0.08215 0.5078 0.93423 0.0
C6241 C 0.08807 0.49233 0.89391 0.0
H6242 H 0.06423 0.48996 0.92389 0.0
C6243 C 0.09849 0.50246 0.89991 0.0
C6244 C 0.09653 0.50814 0.9145 0.0
H6245 H 0.08988 0.48799 0.88267 0.0
H6246 H 0.1081 0.50575 0.8932 0.0
C6247 C 0.08393 0.50365 0.92292 0.0
C6248 C 0.58931 0.48258 0.41047 0.0
C6249 C 0.57785 0.48633 0.40033 0.0
H6250 H 0.60573 0.49079 0.42605 0.0
C6251 C 0.57485 0.50148 0.39714 0.0
H6252 H 0.59166 0.47093 0.41312 0.0
C6253 C 0.58248 0.5128 0.40488 0.0
C6254 C 0.59355 0.50905 0.41547 0.0
H6255 H 0.56589 0.50454 0.38946 0.0
H6256 H 0.5794 0.52443 0.403 0.0
C6257 C 0.59733 0.4939 0.41779 0.0
C6258 C 0.65818 0.2318 0.89947 0.0
C6259 C 0.64771 0.23495 0.91082 0.0
H6260 H 0.6739 0.24086 0.88365 0.0
C6261 C 0.64398 0.24993 0.91409 0.0
H6262 H 0.66122 0.22029 0.89688 0.0
C6263 C 0.65157 0.26165 0.90692 0.0
C6264 C 0.66254 0.25848 0.89605 0.0
H6265 H 0.63603 0.25256 0.92294 0.0
H6266 H 0.6493 0.27314 0.91028 0.0
C6267 C 0.66536 0.24352 0.89191 0.0
C6268 C 0.57378 0.23648 0.31669 0.0
C6269 C 0.58742 0.23146 0.32286 0.0
H6270 H 0.55511 0.25145 0.31863 0.0
C6271 C 0.59262 0.23786 0.33633 0.0
H6272 H 0.56955 0.23184 0.30625 0.0
C6273 C 0.58417 0.24898 0.34359 0.0
C6274 C 0.57062 0.25411 0.33726 0.0
H6275 H 0.60311 0.23418 0.34131 0.0
H6276 H 0.58831 0.25371 0.35402 0.0
C6277 C 0.56556 0.24779 0.32372 0.0
C6278 C 0.64801 0.49058 0.825 0.0
C6279 C 0.65068 0.50575 0.82835 0.0
H6280 H 0.65464 0.46773 0.82901 0.0
C6281 C 0.66084 0.50957 0.83978 0.0
H6282 H 0.6403 0.48746 0.81609 0.0
C6283 C 0.66861 0.49833 0.84747 0.0
C6284 C 0.66673 0.4832 0.84341 0.0
H6285 H 0.66306 0.52125 0.84244 0.0
H6286 H 0.67679 0.50152 0.85592 0.0
C6287 C 0.6562 0.47936 0.83231 0.0
C6288 C 0.90085 0.08468 0.49 0.0
C6289 C 0.90741 0.07229 0.48269 0.0
H6290 H 0.90357 0.10203 0.50653 0.0
C6291 C 0.92209 0.06794 0.48656 0.0
H6292 H 0.88955 0.08828 0.4872 0.0
C6293 C 0.92993 0.07558 0.49774 0.0
C6294 C 0.92339 0.08791 0.50511 0.0
H6295 H 0.92742 0.05839 0.4812 0.0
H6296 H 0.94118 0.07184 0.50056 0.0
C6297 C 0.90885 0.09254 0.50102 0.0
C6298 C 0.40422 0.15834 0.23266 0.0
C6299 C 0.41516 0.14773 0.23674 0.0
H6300 H 0.38767 0.17408 0.24039 0.0
C6301 C 0.41705 0.14392 0.25193 0.0
H6302 H 0.40267 0.16145 0.22098 0.0
C6303 C 0.40887 0.15147 0.263 0.0
C6304 C 0.39833 0.16248 0.25895 0.0
H6305 H 0.42555 0.13586 0.25529 0.0
H6306 H 0.41113 0.14909 0.27474 0.0
C6307 C 0.39565 0.16548 0.24371 0.0
C6308 C 0.32164 0.65897 0.00361 0.0
C6309 C 0.32988 0.64612 0.00762 0.0
H6310 H 0.32063 0.67883 0.99024 0.0
C6311 C 0.34415 0.64379 0.00126 0.0
H6312 H 0.31058 0.66107 0.00827 0.0
C6313 C 0.35001 0.65412 0.99094 0.0
C6314 C 0.34155 0.66677 0.98666 0.0
H6315 H 0.35072 0.63395 0.00417 0.0
H6316 H 0.361 0.65207 0.98609 0.0
C6317 C 0.32736 0.66911 0.99318 0.0
C6318 C 0.82698 0.59884 0.7524 0.0
C6319 C 0.82921 0.59504 0.73726 0.0
H6320 H 0.83265 0.59382 0.7753 0.0
C6321 C 0.84063 0.5849 0.73334 0.0
H6322 H 0.81808 0.60652 0.75562 0.0
C6323 C 0.84927 0.57806 0.74452 0.0
C6324 C 0.84617 0.58089 0.75973 0.0
H6325 H 0.8424 0.58178 0.7217 0.0
H6326 H 0.85754 0.5697 0.74132 0.0
C6327 C 0.83524 0.59158 0.76361 0.0
C6328 C 0.42195 0.08441 0.00125 0.0
C6329 C 0.41385 0.09683 0.00666 0.0
H6330 H 0.42231 0.06552 0.98646 0.0
C6331 C 0.39922 0.09945 0.0013 0.0
H6332 H 0.43328 0.08214 0.00512 0.0
C6333 C 0.39285 0.08979 0.99066 0.0
C6334 C 0.40112 0.07755 0.98504 0.0
H6335 H 0.39275 0.10896 0.00529 0.0
H6336 H 0.38157 0.09206 0.98664 0.0
C6337 C 0.41571 0.07494 0.99048 0.0
C6338 C 0.82487 0.67613 0.48816 0.0
C6339 C 0.83852 0.67002 0.4831 0.0
H6340 H 0.80639 0.67431 0.50329 0.0
C6341 C 0.84404 0.65683 0.48982 0.0
H6342 H 0.8204 0.68638 0.48332 0.0
C6343 C 0.83584 0.64974 0.50125 0.0
C6344 C 0.82223 0.65598 0.50633 0.0
H6345 H 0.85457 0.65193 0.48613 0.0
H6346 H 0.84017 0.63947 0.50616 0.0
C6347 C 0.81691 0.66928 0.49972 0.0
C6348 C 0.349 0.57941 0.2417 0.0
C6349 C 0.34561 0.58188 0.25691 0.0
H6350 H 0.34273 0.58388 0.21885 0.0
C6351 C 0.33476 0.59262 0.26085 0.0
H6352 H 0.35721 0.571 0.23846 0.0
C6353 C 0.32688 0.60032 0.24967 0.0
C6354 C 0.32939 0.59692 0.23448 0.0
H6355 H 0.33194 0.59456 0.27254 0.0
H6356 H 0.31805 0.60807 0.25292 0.0
C6357 C 0.34072 0.58669 0.23053 0.0
C6358 C 0.89317 0.15349 0.75342 0.0
C6359 C 0.90101 0.16639 0.75807 0.0
H6360 H 0.8937 0.13334 0.74014 0.0
C6361 C 0.91541 0.16919 0.7522 0.0
H6362 H 0.88205 0.15107 0.75776 0.0
C6363 C 0.92192 0.15924 0.74205 0.0
C6364 C 0.9143 0.14615 0.73765 0.0
H6365 H 0.92169 0.17911 0.75544 0.0
H6366 H 0.9331 0.1617 0.73787 0.0
C6367 C 0.89983 0.14336 0.74336 0.0
C6368 C 0.49232 0.09173 0.89314 0.0
C6369 C 0.48795 0.07668 0.89515 0.0
H6370 H 0.50508 0.11029 0.90177 0.0
C6371 C 0.4934 0.06868 0.9076 0.0
H6372 H 0.48826 0.09816 0.88364 0.0
C6373 C 0.50309 0.07551 0.91782 0.0
C6374 C 0.50743 0.09058 0.91594 0.0
H6375 H 0.49028 0.05705 0.90943 0.0
H6376 H 0.50707 0.06897 0.92729 0.0
C6377 C 0.50191 0.09867 0.90352 0.0
C6378 C 0.24677 0.16671 0.42758 0.0
C6379 C 0.23954 0.15437 0.42092 0.0
H6380 H 0.26341 0.18384 0.42543 0.0
C6381 C 0.24398 0.14967 0.40651 0.0
H6382 H 0.24368 0.1705 0.43874 0.0
C6383 C 0.25522 0.15749 0.39874 0.0
C6384 C 0.2624 0.16988 0.40544 0.0
H6385 H 0.23857 0.14017 0.40114 0.0
H6386 H 0.25829 0.15385 0.38754 0.0
C6387 C 0.25816 0.17429 0.42 0.0
C6388 C 0.49046 0.15599 0.34549 0.0
C6389 C 0.48485 0.16947 0.33944 0.0
H6390 H 0.50618 0.13783 0.34298 0.0
C6391 C 0.4913 0.1753 0.32628 0.0
H6392 H 0.48566 0.1513 0.35565 0.0
C6393 C 0.50318 0.16787 0.31932 0.0
C6394 C 0.50866 0.15426 0.32516 0.0
H6395 H 0.4873 0.18574 0.32145 0.0
H6396 H 0.50788 0.17265 0.30915 0.0
C6397 C 0.50216 0.14832 0.33827 0.0
C6398 C 0.23954 0.07244 0.81797 0.0
C6399 C 0.23446 0.0864 0.82326 0.0
H6400 H 0.25454 0.05401 0.82105 0.0
C6401 C 0.24087 0.09248 0.83637 0.0
H6402 H 0.23492 0.06751 0.80783 0.0
C6403 C 0.25207 0.08457 0.84414 0.0
C6404 C 0.25725 0.0707 0.83865 0.0
H6405 H 0.23713 0.10325 0.84068 0.0
H6406 H 0.25678 0.08937 0.8543 0.0
C6407 C 0.2509 0.06476 0.82548 0.0
C6408 C 0.49014 0.65391 0.84985 0.0
C6409 C 0.48586 0.66659 0.84143 0.0
H6410 H 0.50349 0.6338 0.85054 0.0
C6411 C 0.49251 0.66908 0.82734 0.0
H6412 H 0.48519 0.65175 0.86077 0.0
C6413 C 0.50308 0.65904 0.82167 0.0
C6414 C 0.5071 0.64615 0.82984 0.0
H6415 H 0.48958 0.67882 0.82065 0.0
H6416 H 0.50784 0.66125 0.81068 0.0
C6417 C 0.50059 0.64367 0.84402 0.0
C6418 C 0.25444 0.56488 0.32517 0.0
C6419 C 0.26032 0.5707 0.33861 0.0
H6420 H 0.23841 0.56734 0.3075 0.0
C6421 C 0.25431 0.58407 0.34452 0.0
H6422 H 0.25875 0.55453 0.32041 0.0
C6423 C 0.24273 0.59159 0.33694 0.0
C6424 C 0.23675 0.58559 0.3236 0.0
H6425 H 0.25866 0.58876 0.35489 0.0
H6426 H 0.23834 0.60195 0.34159 0.0
C6427 C 0.24269 0.57215 0.31784 0.0
C6428 C 0.24009 0.64433 0.9068 0.0
C6429 C 0.23518 0.65266 0.91931 0.0
H6430 H 0.25328 0.64422 0.88663 0.0
C6431 C 0.2404 0.66743 0.92126 0.0
H6432 H 0.23625 0.63291 0.90502 0.0
C6433 C 0.25025 0.67378 0.9109 0.0
C6434 C 0.25495 0.66558 0.89826 0.0
H6435 H 0.23692 0.6741 0.93084 0.0
H6436 H 0.25397 0.68524 0.91268 0.0
C6437 C 0.24982 0.65078 0.89629 0.0
C6438 C 0.4928 0.57147 0.40962 0.0
C6439 C 0.48794 0.57908 0.39668 0.0
H6440 H 0.50699 0.57173 0.42895 0.0
C6441 C 0.49368 0.59346 0.39356 0.0
H6442 H 0.48864 0.56034 0.41228 0.0
C6443 C 0.50416 0.60008 0.40324 0.0
C6444 C 0.50925 0.59229 0.41601 0.0
H6445 H 0.49012 0.59955 0.38364 0.0
H6446 H 0.50845 0.61117 0.4006 0.0
C6447 C 0.50342 0.57795 0.41911 0.0
C6448 C 0.51231 0.90138 0.08615 0.0
C6449 C 0.50862 0.91275 0.09642 0.0
H6450 H 0.50402 0.88546 0.07008 0.0
C6451 C 0.49347 0.91599 0.09942 0.0
H6452 H 0.52396 0.89888 0.08361 0.0
C6453 C 0.48214 0.90875 0.09133 0.0
C6454 C 0.48586 0.89783 0.08059 0.0
H6455 H 0.49045 0.9249 0.10716 0.0
H6456 H 0.47054 0.91209 0.09301 0.0
C6457 C 0.50095 0.89374 0.07847 0.0
C6458 C 0.74054 0.82355 0.58302 0.0
C6459 C 0.73637 0.83162 0.59592 0.0
H6460 H 0.75374 0.82298 0.56303 0.0
C6461 C 0.74238 0.84603 0.59828 0.0
H6462 H 0.73616 0.81238 0.58089 0.0
C6463 C 0.75246 0.85222 0.58789 0.0
C6464 C 0.75684 0.84395 0.57513 0.0
H6465 H 0.73935 0.85248 0.60816 0.0
H6466 H 0.757 0.86333 0.58994 0.0
C6467 C 0.75072 0.82959 0.57281 0.0
C6468 C 0.50052 0.84575 0.64348 0.0
C6469 C 0.50489 0.83062 0.64479 0.0
H6470 H 0.48754 0.86382 0.65283 0.0
C6471 C 0.49913 0.82195 0.65665 0.0
H6472 H 0.50479 0.85268 0.63443 0.0
C6473 C 0.48922 0.82821 0.667 0.0
C6474 C 0.4849 0.84336 0.66586 0.0
H6475 H 0.5022 0.81024 0.65794 0.0
H6476 H 0.48507 0.82115 0.67601 0.0
C6477 C 0.49066 0.8521 0.654 0.0
C6478 C 0.74083 0.92128 0.15953 0.0
C6479 C 0.73668 0.91346 0.14647 0.0
H6480 H 0.75403 0.92147 0.17952 0.0
C6481 C 0.74266 0.89907 0.14387 0.0
H6482 H 0.73646 0.93242 0.16184 0.0
C6483 C 0.75273 0.89268 0.15416 0.0
C6484 C 0.75712 0.90072 0.16704 0.0
H6485 H 0.73964 0.8928 0.13388 0.0
H6486 H 0.75727 0.88161 0.1519 0.0
C6487 C 0.751 0.91504 0.16963 0.0
C6488 C 0.49068 0.34776 0.1522 0.0
C6489 C 0.48568 0.33974 0.16488 0.0
H6490 H 0.50435 0.34744 0.1323 0.0
C6491 C 0.49114 0.32514 0.16738 0.0
H6492 H 0.48666 0.35904 0.15001 0.0
C6493 C 0.50135 0.31866 0.15747 0.0
C6494 C 0.5062 0.32653 0.14468 0.0
H6495 H 0.48761 0.3187 0.1771 0.0
H6496 H 0.50526 0.30735 0.15974 0.0
C6497 C 0.50078 0.34114 0.14209 0.0
C6498 C 0.73951 0.40405 0.64199 0.0
C6499 C 0.7347 0.41701 0.64966 0.0
H6500 H 0.75283 0.38396 0.64287 0.0
C6501 C 0.74023 0.41986 0.66418 0.0
H6502 H 0.73543 0.40159 0.63078 0.0
C6503 C 0.75028 0.40996 0.67094 0.0
C6504 C 0.75489 0.39687 0.66344 0.0
H6505 H 0.73686 0.42981 0.67034 0.0
H6506 H 0.75425 0.41247 0.68218 0.0
C6507 C 0.74944 0.39398 0.64889 0.0
C6508 C 0.73077 0.34473 0.08736 0.0
C6509 C 0.73445 0.33351 0.0978 0.0
H6510 H 0.73904 0.36021 0.07086 0.0
C6511 C 0.7496 0.3304 0.10092 0.0
H6512 H 0.71912 0.34713 0.08471 0.0
C6513 C 0.76093 0.33744 0.09264 0.0
C6514 C 0.75721 0.34804 0.08159 0.0
H6515 H 0.75263 0.32159 0.10877 0.0
H6516 H 0.77252 0.33404 0.09431 0.0
C6517 C 0.74213 0.35219 0.0795 0.0
C6518 C 0.49105 0.39134 0.59075 0.0
C6519 C 0.48651 0.39943 0.57795 0.0
H6520 H 0.50415 0.39148 0.61103 0.0
C6521 C 0.4923 0.41392 0.57555 0.0
H6522 H 0.48677 0.38014 0.59286 0.0
C6523 C 0.50232 0.42026 0.58574 0.0
C6524 C 0.50666 0.41235 0.59869 0.0
H6525 H 0.48914 0.4204 0.56574 0.0
H6526 H 0.50646 0.4315 0.58357 0.0
C6527 C 0.50097 0.39781 0.60113 0.0
loop_
_geom_bond_atom_site_label_1
_geom_bond_atom_site_label_2
_geom_bond_distance
_geom_bond_site_symmetry_2
_ccdc_geom_bond_type
C0 O1 1.306 . S
C0 O3 1.160 . S
O1 C0 1.306 . S
O1 Cd2 2.228 . S
Cd2 O1 2.228 . S
Cd2 O6 2.273 . S
Cd2 O10 2.277 . S
O3 C0 1.160 . S
O3 Cd4 2.203 . S
Cd4 O3 2.203 . S
Cd4 O6 2.411 . S
Cd4 O7 2.333 . S
Cd4 O8 2.352 . S
Cd4 O12 2.277 . S
Cd4 O13 2.356 . S
C5 O10 1.209 . S
C5 O12 1.226 . S
O6 Cd2 2.273 . S
O6 Cd4 2.411 . S
O6 C9 1.320 . S
O7 Cd4 2.333 . S
O7 C9 1.214 . S
O8 Cd4 2.352 . S
O8 C11 1.258 . S
C9 O6 1.320 . S
C9 O7 1.214 . S
O10 Cd2 2.277 . S
O10 C5 1.209 . S
C11 O8 1.258 . S
C11 O13 1.282 . S
O12 Cd4 2.277 . S
O12 C5 1.226 . S
O13 Cd4 2.356 . S
O13 C11 1.282 . S
C14 O15 1.306 . S
C14 O17 1.160 . S
O15 C14 1.306 . S
O15 Cd16 2.228 . S
Cd16 O15 2.228 . S
Cd16 O20 2.273 . S
Cd16 O24 2.277 . S
O17 C14 1.160 . S
O17 Cd18 2.203 . S
Cd18 O17 2.203 . S
Cd18 O20 2.411 . S
Cd18 O21 2.333 . S
Cd18 O22 2.352 . S
Cd18 O26 2.277 . S
Cd18 O27 2.356 . S
C19 O24 1.209 . S
C19 O26 1.226 . S
O20 Cd16 2.273 . S
O20 Cd18 2.411 . S
O20 C23 1.320 . S
O21 Cd18 2.333 . S
O21 C23 1.214 . S
O22 Cd18 2.352 . S
O22 C25 1.258 . S
C23 O20 1.320 . S
C23 O21 1.214 . S
O24 Cd16 2.277 . S
O24 C19 1.209 . S
C25 O22 1.258 . S
C25 O27 1.282 . S
O26 Cd18 2.277 . S
O26 C19 1.226 . S
O27 Cd18 2.356 . S
O27 C25 1.282 . S
C28 O29 1.306 . S
C28 O31 1.160 . S
O29 C28 1.306 . S
O29 Cd30 2.228 . S
Cd30 O29 2.228 . S
Cd30 O34 2.273 . S
Cd30 O38 2.277 . S
O31 C28 1.160 . S
O31 Cd32 2.203 . S
Cd32 O31 2.203 . S
Cd32 O34 2.411 . S
Cd32 O35 2.333 . S
Cd32 O36 2.352 . S
Cd32 O40 2.277 . S
Cd32 O41 2.356 . S
C33 O38 1.209 . S
C33 O40 1.226 . S
O34 Cd30 2.273 . S
O34 Cd32 2.411 . S
O34 C37 1.320 . S
O35 Cd32 2.333 . S
O35 C37 1.214 . S
O36 Cd32 2.352 . S
O36 C39 1.258 . S
C37 O34 1.320 . S
C37 O35 1.214 . S
O38 Cd30 2.277 . S
O38 C33 1.209 . S
C39 O36 1.258 . S
C39 O41 1.282 . S
O40 Cd32 2.277 . S
O40 C33 1.226 . S
O41 Cd32 2.356 . S
O41 C39 1.282 . S
C42 O43 1.306 . S
C42 O45 1.160 . S
O43 C42 1.306 . S
O43 Cd44 2.228 . S
Cd44 O43 2.228 . S
Cd44 O48 2.273 . S
Cd44 O52 2.277 . S
O45 C42 1.160 . S
O45 Cd46 2.203 . S
Cd46 O45 2.203 . S
Cd46 O48 2.411 . S
Cd46 O49 2.333 . S
Cd46 O50 2.352 . S
Cd46 O54 2.277 . S
Cd46 O55 2.356 . S
C47 O52 1.209 . S
C47 O54 1.226 . S
O48 Cd44 2.273 . S
O48 Cd46 2.411 . S
O48 C51 1.320 . S
O49 Cd46 2.333 . S
O49 C51 1.214 . S
O50 Cd46 2.352 . S
O50 C53 1.258 . S
C51 O48 1.320 . S
C51 O49 1.214 . S
O52 Cd44 2.277 . S
O52 C47 1.209 . S
C53 O50 1.258 . S
C53 O55 1.282 . S
O54 Cd46 2.277 . S
O54 C47 1.226 . S
O55 Cd46 2.356 . S
O55 C53 1.282 . S
C56 O57 1.306 . S
C56 O59 1.160 . S
O57 C56 1.306 . S
O57 Cd58 2.228 . S
Cd58 O57 2.228 . S
Cd58 O62 2.273 . S
Cd58 O66 2.277 . S
O59 C56 1.160 . S
O59 Cd60 2.203 . S
Cd60 O59 2.203 . S
Cd60 O62 2.411 . S
Cd60 O63 2.333 . S
Cd60 O64 2.352 . S
Cd60 O68 2.277 . S
Cd60 O69 2.356 . S
C61 O66 1.209 . S
C61 O68 1.226 . S
O62 Cd58 2.273 . S
O62 Cd60 2.411 . S
O62 C65 1.320 . S
O63 Cd60 2.333 . S
O63 C65 1.214 . S
O64 Cd60 2.352 . S
O64 C67 1.258 . S
C65 O62 1.320 . S
C65 O63 1.214 . S
O66 Cd58 2.277 . S
O66 C61 1.209 . S
C67 O64 1.258 . S
C67 O69 1.282 . S
O68 Cd60 2.277 . S
O68 C61 1.226 . S
O69 Cd60 2.356 . S
O69 C67 1.282 . S
C70 O71 1.306 . S
C70 O73 1.160 . S
O71 C70 1.306 . S
O71 Cd72 2.228 . S
Cd72 O71 2.228 . S
Cd72 O76 2.273 . S
Cd72 O80 2.277 . S
O73 C70 1.160 . S
O73 Cd74 2.203 . S
Cd74 O73 2.203 . S
Cd74 O76 2.411 . S
Cd74 O77 2.333 . S
Cd74 O78 2.352 . S
Cd74 O82 2.277 . S
Cd74 O83 2.356 . S
C75 O80 1.209 . S
C75 O82 1.226 . S
O76 Cd72 2.273 . S
O76 Cd74 2.411 . S
O76 C79 1.320 . S
O77 Cd74 2.333 . S
O77 C79 1.214 . S
O78 Cd74 2.352 . S
O78 C81 1.258 . S
C79 O76 1.320 . S
C79 O77 1.214 . S
O80 Cd72 2.277 . S
O80 C75 1.209 . S
C81 O78 1.258 . S
C81 O83 1.282 . S
O82 Cd74 2.277 . S
O82 C75 1.226 . S
O83 Cd74 2.356 . S
O83 C81 1.282 . S
C84 O85 1.306 . S
C84 O87 1.160 . S
O85 C84 1.306 . S
O85 Cd86 2.228 . S
Cd86 O85 2.228 . S
Cd86 O90 2.273 . S
Cd86 O94 2.277 . S
O87 C84 1.160 . S
O87 Cd88 2.203 . S
Cd88 O87 2.203 . S
Cd88 O90 2.411 . S
Cd88 O91 2.333 . S
Cd88 O92 2.352 . S
Cd88 O96 2.277 . S
Cd88 O97 2.356 . S
C89 O94 1.209 . S
C89 O96 1.226 . S
O90 Cd86 2.273 . S
O90 Cd88 2.411 . S
O90 C93 1.320 . S
O91 Cd88 2.333 . S
O91 C93 1.214 . S
O92 Cd88 2.352 . S
O92 C95 1.258 . S
C93 O90 1.320 . S
C93 O91 1.214 . S
O94 Cd86 2.277 . S
O94 C89 1.209 . S
C95 O92 1.258 . S
C95 O97 1.282 . S
O96 Cd88 2.277 . S
O96 C89 1.226 . S
O97 Cd88 2.356 . S
O97 C95 1.282 . S
C98 O99 1.306 . S
C98 O101 1.160 . S
O99 C98 1.306 . S
O99 Cd100 2.228 . S
Cd100 O99 2.228 . S
Cd100 O104 2.273 . S
Cd100 O108 2.277 . S
O101 C98 1.160 . S
O101 Cd102 2.203 . S
Cd102 O101 2.203 . S
Cd102 O104 2.411 . S
Cd102 O105 2.333 . S
Cd102 O106 2.352 . S
Cd102 O110 2.277 . S
Cd102 O111 2.356 . S
C103 O108 1.209 . S
C103 O110 1.226 . S
O104 Cd100 2.273 . S
O104 Cd102 2.411 . S
O104 C107 1.320 . S
O105 Cd102 2.333 . S
O105 C107 1.214 . S
O106 Cd102 2.352 . S
O106 C109 1.258 . S
C107 O104 1.320 . S
C107 O105 1.214 . S
O108 Cd100 2.277 . S
O108 C103 1.209 . S
C109 O106 1.258 . S
C109 O111 1.282 . S
O110 Cd102 2.277 . S
O110 C103 1.226 . S
O111 Cd102 2.356 . S
O111 C109 1.282 . S
C112 O113 1.306 . S
C112 O115 1.160 . S
O113 C112 1.306 . S
O113 Cd114 2.228 . S
Cd114 O113 2.228 . S
Cd114 O118 2.273 . S
Cd114 O122 2.277 . S
O115 C112 1.160 . S
O115 Cd116 2.203 . S
Cd116 O115 2.203 . S
Cd116 O118 2.411 . S
Cd116 O119 2.333 . S
Cd116 O120 2.352 . S
Cd116 O124 2.277 . S
Cd116 O125 2.356 . S
C117 O122 1.209 . S
C117 O124 1.226 . S
O118 Cd114 2.273 . S
O118 Cd116 2.411 . S
O118 C121 1.320 . S
O119 Cd116 2.333 . S
O119 C121 1.214 . S
O120 Cd116 2.352 . S
O120 C123 1.258 . S
C121 O118 1.320 . S
C121 O119 1.214 . S
O122 Cd114 2.277 . S
O122 C117 1.209 . S
C123 O120 1.258 . S
C123 O125 1.282 . S
O124 Cd116 2.277 . S
O124 C117 1.226 . S
O125 Cd116 2.356 . S
O125 C123 1.282 . S
C126 O127 1.306 . S
C126 O129 1.160 . S
O127 C126 1.306 . S
O127 Cd128 2.228 . S
Cd128 O127 2.228 . S
Cd128 O132 2.273 . S
Cd128 O136 2.277 . S
O129 C126 1.160 . S
O129 Cd130 2.203 . S
Cd130 O129 2.203 . S
Cd130 O132 2.411 . S
Cd130 O133 2.333 . S
Cd130 O134 2.352 . S
Cd130 O138 2.277 . S
Cd130 O139 2.356 . S
C131 O136 1.209 . S
C131 O138 1.226 . S
O132 Cd128 2.273 . S
O132 Cd130 2.411 . S
O132 C135 1.320 . S
O133 Cd130 2.333 . S
O133 C135 1.214 . S
O134 Cd130 2.352 . S
O134 C137 1.258 . S
C135 O132 1.320 . S
C135 O133 1.214 . S
O136 Cd128 2.277 . S
O136 C131 1.209 . S
C137 O134 1.258 . S
C137 O139 1.282 . S
O138 Cd130 2.277 . S
O138 C131 1.226 . S
O139 Cd130 2.356 . S
O139 C137 1.282 . S
C140 O141 1.306 . S
C140 O143 1.160 . S
O141 C140 1.306 . S
O141 Cd142 2.228 . S
Cd142 O141 2.228 . S
Cd142 O146 2.273 . S
Cd142 O150 2.277 . S
O143 C140 1.160 . S
O143 Cd144 2.203 . S
Cd144 O143 2.203 . S
Cd144 O146 2.411 . S
Cd144 O147 2.333 . S
Cd144 O148 2.352 . S
Cd144 O152 2.277 . S
Cd144 O153 2.356 . S
C145 O150 1.209 . S
C145 O152 1.226 . S
O146 Cd142 2.273 . S
O146 Cd144 2.411 . S
O146 C149 1.320 . S
O147 Cd144 2.333 . S
O147 C149 1.214 . S
O148 Cd144 2.352 . S
O148 C151 1.258 . S
C149 O146 1.320 . S
C149 O147 1.214 . S
O150 Cd142 2.277 . S
O150 C145 1.209 . S
C151 O148 1.258 . S
C151 O153 1.282 . S
O152 Cd144 2.277 . S
O152 C145 1.226 . S
O153 Cd144 2.356 . S
O153 C151 1.282 . S
C154 O155 1.306 . S
C154 O157 1.160 . S
O155 C154 1.306 . S
O155 Cd156 2.228 . S
Cd156 O155 2.228 . S
Cd156 O160 2.273 . S
Cd156 O164 2.277 . S
O157 C154 1.160 . S
O157 Cd158 2.203 . S
Cd158 O157 2.203 . S
Cd158 O160 2.411 . S
Cd158 O161 2.333 . S
Cd158 O162 2.352 . S
Cd158 O166 2.277 . S
Cd158 O167 2.356 . S
C159 O164 1.209 . S
C159 O166 1.226 . S
O160 Cd156 2.273 . S
O160 Cd158 2.411 . S
O160 C163 1.320 . S
O161 Cd158 2.333 . S
O161 C163 1.214 . S
O162 Cd158 2.352 . S
O162 C165 1.258 . S
C163 O160 1.320 . S
C163 O161 1.214 . S
O164 Cd156 2.277 . S
O164 C159 1.209 . S
C165 O162 1.258 . S
C165 O167 1.282 . S
O166 Cd158 2.277 . S
O166 C159 1.226 . S
O167 Cd158 2.356 . S
O167 C165 1.282 . S
C168 O169 1.306 . S
C168 O171 1.160 . S
O169 C168 1.306 . S
O169 Cd170 2.228 . S
Cd170 O169 2.228 . S
Cd170 O174 2.273 . S
Cd170 O178 2.277 . S
O171 C168 1.160 . S
O171 Cd172 2.203 . S
Cd172 O171 2.203 . S
Cd172 O174 2.411 . S
Cd172 O175 2.333 . S
Cd172 O176 2.352 . S
Cd172 O180 2.277 . S
Cd172 O181 2.356 . S
C173 O178 1.209 . S
C173 O180 1.226 . S
O174 Cd170 2.273 . S
O174 Cd172 2.411 . S
O174 C177 1.320 . S
O175 Cd172 2.333 . S
O175 C177 1.214 . S
O176 Cd172 2.352 . S
O176 C179 1.258 . S
C177 O174 1.320 . S
C177 O175 1.214 . S
O178 Cd170 2.277 . S
O178 C173 1.209 . S
C179 O176 1.258 . S
C179 O181 1.282 . S
O180 Cd172 2.277 . S
O180 C173 1.226 . S
O181 Cd172 2.356 . S
O181 C179 1.282 . S
C182 O183 1.306 . S
C182 O185 1.160 . S
O183 C182 1.306 . S
O183 Cd184 2.228 . S
Cd184 O183 2.228 . S
Cd184 O188 2.273 . S
Cd184 O192 2.277 . S
O185 C182 1.160 . S
O185 Cd186 2.203 . S
Cd186 O185 2.203 . S
Cd186 O188 2.411 . S
Cd186 O189 2.333 . S
Cd186 O190 2.352 . S
Cd186 O194 2.277 . S
Cd186 O195 2.356 . S
C187 O192 1.209 . S
C187 O194 1.226 . S
O188 Cd184 2.273 . S
O188 Cd186 2.411 . S
O188 C191 1.320 . S
O189 Cd186 2.333 . S
O189 C191 1.214 . S
O190 Cd186 2.352 . S
O190 C193 1.258 . S
C191 O188 1.320 . S
C191 O189 1.214 . S
O192 Cd184 2.277 . S
O192 C187 1.209 . S
C193 O190 1.258 . S
C193 O195 1.282 . S
O194 Cd186 2.277 . S
O194 C187 1.226 . S
O195 Cd186 2.356 . S
O195 C193 1.282 . S
C196 O197 1.306 . S
C196 O199 1.160 . S
O197 C196 1.306 . S
O197 Cd198 2.228 . S
Cd198 O197 2.228 . S
Cd198 O202 2.273 . S
Cd198 O206 2.277 . S
O199 C196 1.160 . S
O199 Cd200 2.203 . S
Cd200 O199 2.203 . S
Cd200 O202 2.411 . S
Cd200 O203 2.333 . S
Cd200 O204 2.352 . S
Cd200 O208 2.277 . S
Cd200 O209 2.356 . S
C201 O206 1.209 . S
C201 O208 1.226 . S
O202 Cd198 2.273 . S
O202 Cd200 2.411 . S
O202 C205 1.320 . S
O203 Cd200 2.333 . S
O203 C205 1.214 . S
O204 Cd200 2.352 . S
O204 C207 1.258 . S
C205 O202 1.320 . S
C205 O203 1.214 . S
O206 Cd198 2.277 . S
O206 C201 1.209 . S
C207 O204 1.258 . S
C207 O209 1.282 . S
O208 Cd200 2.277 . S
O208 C201 1.226 . S
O209 Cd200 2.356 . S
O209 C207 1.282 . S
C210 O211 1.306 . S
C210 O213 1.160 . S
O211 C210 1.306 . S
O211 Cd212 2.228 . S
Cd212 O211 2.228 . S
Cd212 O216 2.273 . S
Cd212 O220 2.277 . S
O213 C210 1.160 . S
O213 Cd214 2.203 . S
Cd214 O213 2.203 . S
Cd214 O216 2.411 . S
Cd214 O217 2.333 . S
Cd214 O218 2.352 . S
Cd214 O222 2.277 . S
Cd214 O223 2.356 . S
C215 O220 1.209 . S
C215 O222 1.226 . S
O216 Cd212 2.273 . S
O216 Cd214 2.411 . S
O216 C219 1.320 . S
O217 Cd214 2.333 . S
O217 C219 1.214 . S
O218 Cd214 2.352 . S
O218 C221 1.258 . S
C219 O216 1.320 . S
C219 O217 1.214 . S
O220 Cd212 2.277 . S
O220 C215 1.209 . S
C221 O218 1.258 . S
C221 O223 1.282 . S
O222 Cd214 2.277 . S
O222 C215 1.226 . S
O223 Cd214 2.356 . S
O223 C221 1.282 . S
C224 O225 1.306 . S
C224 O227 1.160 . S
O225 C224 1.306 . S
O225 Cd226 2.228 . S
Cd226 O225 2.228 . S
Cd226 O230 2.273 . S
Cd226 O234 2.277 . S
O227 C224 1.160 . S
O227 Cd228 2.203 . S
Cd228 O227 2.203 . S
Cd228 O230 2.411 . S
Cd228 O231 2.333 . S
Cd228 O232 2.352 . S
Cd228 O236 2.277 . S
Cd228 O237 2.356 . S
C229 O234 1.209 . S
C229 O236 1.226 . S
O230 Cd226 2.273 . S
O230 Cd228 2.411 . S
O230 C233 1.320 . S
O231 Cd228 2.333 . S
O231 C233 1.214 . S
O232 Cd228 2.352 . S
O232 C235 1.258 . S
C233 O230 1.320 . S
C233 O231 1.214 . S
O234 Cd226 2.277 . S
O234 C229 1.209 . S
C235 O232 1.258 . S
C235 O237 1.282 . S
O236 Cd228 2.277 . S
O236 C229 1.226 . S
O237 Cd228 2.356 . S
O237 C235 1.282 . S
C238 O239 1.306 . S
C238 O241 1.160 . S
O239 C238 1.306 . S
O239 Cd240 2.228 . S
Cd240 O239 2.228 . S
Cd240 O244 2.273 . S
Cd240 O248 2.277 . S
O241 C238 1.160 . S
O241 Cd242 2.203 . S
Cd242 O241 2.203 . S
Cd242 O244 2.411 . S
Cd242 O245 2.333 . S
Cd242 O246 2.352 . S
Cd242 O250 2.277 . S
Cd242 O251 2.356 . S
C243 O248 1.209 . S
C243 O250 1.226 . S
O244 Cd240 2.273 . S
O244 Cd242 2.411 . S
O244 C247 1.320 . S
O245 Cd242 2.333 . S
O245 C247 1.214 . S
O246 Cd242 2.352 . S
O246 C249 1.258 . S
C247 O244 1.320 . S
C247 O245 1.214 . S
O248 Cd240 2.277 . S
O248 C243 1.209 . S
C249 O246 1.258 . S
C249 O251 1.282 . S
O250 Cd242 2.277 . S
O250 C243 1.226 . S
O251 Cd242 2.356 . S
O251 C249 1.282 . S
C252 O253 1.306 . S
C252 O255 1.160 . S
O253 C252 1.306 . S
O253 Cd254 2.228 . S
Cd254 O253 2.228 . S
Cd254 O258 2.273 . S
Cd254 O262 2.277 . S
O255 C252 1.160 . S
O255 Cd256 2.203 . S
Cd256 O255 2.203 . S
Cd256 O258 2.411 . S
Cd256 O259 2.333 . S
Cd256 O260 2.352 . S
Cd256 O264 2.277 . S
Cd256 O265 2.356 . S
C257 O262 1.209 . S
C257 O264 1.226 . S
O258 Cd254 2.273 . S
O258 Cd256 2.411 . S
O258 C261 1.320 . S
O259 Cd256 2.333 . S
O259 C261 1.214 . S
O260 Cd256 2.352 . S
O260 C263 1.258 . S
C261 O258 1.320 . S
C261 O259 1.214 . S
O262 Cd254 2.277 . S
O262 C257 1.209 . S
C263 O260 1.258 . S
C263 O265 1.282 . S
O264 Cd256 2.277 . S
O264 C257 1.226 . S
O265 Cd256 2.356 . S
O265 C263 1.282 . S
C266 O267 1.306 . S
C266 O269 1.160 . S
O267 C266 1.306 . S
O267 Cd268 2.228 . S
Cd268 O267 2.228 . S
Cd268 O272 2.273 . S
Cd268 O276 2.277 . S
O269 C266 1.160 . S
O269 Cd270 2.203 . S
Cd270 O269 2.203 . S
Cd270 O272 2.411 . S
Cd270 O273 2.333 . S
Cd270 O274 2.352 . S
Cd270 O278 2.277 . S
Cd270 O279 2.356 . S
C271 O276 1.209 . S
C271 O278 1.226 . S
O272 Cd268 2.273 . S
O272 Cd270 2.411 . S
O272 C275 1.320 . S
O273 Cd270 2.333 . S
O273 C275 1.214 . S
O274 Cd270 2.352 . S
O274 C277 1.258 . S
C275 O272 1.320 . S
C275 O273 1.214 . S
O276 Cd268 2.277 . S
O276 C271 1.209 . S
C277 O274 1.258 . S
C277 O279 1.282 . S
O278 Cd270 2.277 . S
O278 C271 1.226 . S
O279 Cd270 2.356 . S
O279 C277 1.282 . S
C280 O281 1.306 . S
C280 O283 1.160 . S
O281 C280 1.306 . S
O281 Cd282 2.228 . S
Cd282 O281 2.228 . S
Cd282 O286 2.273 . S
Cd282 O290 2.277 . S
O283 C280 1.160 . S
O283 Cd284 2.203 . S
Cd284 O283 2.203 . S
Cd284 O286 2.411 . S
Cd284 O287 2.333 . S
Cd284 O288 2.352 . S
Cd284 O292 2.277 . S
Cd284 O293 2.356 . S
C285 O290 1.209 . S
C285 O292 1.226 . S
O286 Cd282 2.273 . S
O286 Cd284 2.411 . S
O286 C289 1.320 . S
O287 Cd284 2.333 . S
O287 C289 1.214 . S
O288 Cd284 2.352 . S
O288 C291 1.258 . S
C289 O286 1.320 . S
C289 O287 1.214 . S
O290 Cd282 2.277 . S
O290 C285 1.209 . S
C291 O288 1.258 . S
C291 O293 1.282 . S
O292 Cd284 2.277 . S
O292 C285 1.226 . S
O293 Cd284 2.356 . S
O293 C291 1.282 . S
C294 O295 1.306 . S
C294 O297 1.160 . S
O295 C294 1.306 . S
O295 Cd296 2.228 . S
Cd296 O295 2.228 . S
Cd296 O300 2.273 . S
Cd296 O304 2.277 . S
O297 C294 1.160 . S
O297 Cd298 2.203 . S
Cd298 O297 2.203 . S
Cd298 O300 2.411 . S
Cd298 O301 2.333 . S
Cd298 O302 2.352 . S
Cd298 O306 2.277 . S
Cd298 O307 2.356 . S
C299 O304 1.209 . S
C299 O306 1.226 . S
O300 Cd296 2.273 . S
O300 Cd298 2.411 . S
O300 C303 1.320 . S
O301 Cd298 2.333 . S
O301 C303 1.214 . S
O302 Cd298 2.352 . S
O302 C305 1.258 . S
C303 O300 1.320 . S
C303 O301 1.214 . S
O304 Cd296 2.277 . S
O304 C299 1.209 . S
C305 O302 1.258 . S
C305 O307 1.282 . S
O306 Cd298 2.277 . S
O306 C299 1.226 . S
O307 Cd298 2.356 . S
O307 C305 1.282 . S
C308 O309 1.306 . S
C308 O311 1.160 . S
O309 C308 1.306 . S
O309 Cd310 2.228 . S
Cd310 O309 2.228 . S
Cd310 O314 2.273 . S
Cd310 O318 2.277 . S
O311 C308 1.160 . S
O311 Cd312 2.203 . S
Cd312 O311 2.203 . S
Cd312 O314 2.411 . S
Cd312 O315 2.333 . S
Cd312 O316 2.352 . S
Cd312 O320 2.277 . S
Cd312 O321 2.356 . S
C313 O318 1.209 . S
C313 O320 1.226 . S
O314 Cd310 2.273 . S
O314 Cd312 2.411 . S
O314 C317 1.320 . S
O315 Cd312 2.333 . S
O315 C317 1.214 . S
O316 Cd312 2.352 . S
O316 C319 1.258 . S
C317 O314 1.320 . S
C317 O315 1.214 . S
O318 Cd310 2.277 . S
O318 C313 1.209 . S
C319 O316 1.258 . S
C319 O321 1.282 . S
O320 Cd312 2.277 . S
O320 C313 1.226 . S
O321 Cd312 2.356 . S
O321 C319 1.282 . S
C322 O323 1.306 . S
C322 O325 1.160 . S
O323 C322 1.306 . S
O323 Cd324 2.228 . S
Cd324 O323 2.228 . S
Cd324 O328 2.273 . S
Cd324 O332 2.277 . S
O325 C322 1.160 . S
O325 Cd326 2.203 . S
Cd326 O325 2.203 . S
Cd326 O328 2.411 . S
Cd326 O329 2.333 . S
Cd326 O330 2.352 . S
Cd326 O334 2.277 . S
Cd326 O335 2.356 . S
C327 O332 1.209 . S
C327 O334 1.226 . S
O328 Cd324 2.273 . S
O328 Cd326 2.411 . S
O328 C331 1.320 . S
O329 Cd326 2.333 . S
O329 C331 1.214 . S
O330 Cd326 2.352 . S
O330 C333 1.258 . S
C331 O328 1.320 . S
C331 O329 1.214 . S
O332 Cd324 2.277 . S
O332 C327 1.209 . S
C333 O330 1.258 . S
C333 O335 1.282 . S
O334 Cd326 2.277 . S
O334 C327 1.226 . S
O335 Cd326 2.356 . S
O335 C333 1.282 . S
C336 O337 1.306 . S
C336 O339 1.160 . S
O337 C336 1.306 . S
O337 Cd338 2.228 . S
Cd338 O337 2.228 . S
Cd338 O342 2.273 . S
Cd338 O346 2.277 . S
O339 C336 1.160 . S
O339 Cd340 2.203 . S
Cd340 O339 2.203 . S
Cd340 O342 2.411 . S
Cd340 O343 2.333 . S
Cd340 O344 2.352 . S
Cd340 O348 2.277 . S
Cd340 O349 2.356 . S
C341 O346 1.209 . S
C341 O348 1.226 . S
O342 Cd338 2.273 . S
O342 Cd340 2.411 . S
O342 C345 1.320 . S
O343 Cd340 2.333 . S
O343 C345 1.214 . S
O344 Cd340 2.352 . S
O344 C347 1.258 . S
C345 O342 1.320 . S
C345 O343 1.214 . S
O346 Cd338 2.277 . S
O346 C341 1.209 . S
C347 O344 1.258 . S
C347 O349 1.282 . S
O348 Cd340 2.277 . S
O348 C341 1.226 . S
O349 Cd340 2.356 . S
O349 C347 1.282 . S
C350 O351 1.306 . S
C350 O353 1.160 . S
O351 C350 1.306 . S
O351 Cd352 2.228 . S
Cd352 O351 2.228 . S
Cd352 O356 2.273 . S
Cd352 O360 2.277 . S
O353 C350 1.160 . S
O353 Cd354 2.203 . S
Cd354 O353 2.203 . S
Cd354 O356 2.411 . S
Cd354 O357 2.333 . S
Cd354 O358 2.352 . S
Cd354 O362 2.277 . S
Cd354 O363 2.356 . S
C355 O360 1.209 . S
C355 O362 1.226 . S
O356 Cd352 2.273 . S
O356 Cd354 2.411 . S
O356 C359 1.320 . S
O357 Cd354 2.333 . S
O357 C359 1.214 . S
O358 Cd354 2.352 . S
O358 C361 1.258 . S
C359 O356 1.320 . S
C359 O357 1.214 . S
O360 Cd352 2.277 . S
O360 C355 1.209 . S
C361 O358 1.258 . S
C361 O363 1.282 . S
O362 Cd354 2.277 . S
O362 C355 1.226 . S
O363 Cd354 2.356 . S
O363 C361 1.282 . S
C364 O365 1.306 . S
C364 O367 1.160 . S
O365 C364 1.306 . S
O365 Cd366 2.228 . S
Cd366 O365 2.228 . S
Cd366 O370 2.273 . S
Cd366 O374 2.277 . S
O367 C364 1.160 . S
O367 Cd368 2.203 . S
Cd368 O367 2.203 . S
Cd368 O370 2.411 . S
Cd368 O371 2.333 . S
Cd368 O372 2.352 . S
Cd368 O376 2.277 . S
Cd368 O377 2.356 . S
C369 O374 1.209 . S
C369 O376 1.226 . S
O370 Cd366 2.273 . S
O370 Cd368 2.411 . S
O370 C373 1.320 . S
O371 Cd368 2.333 . S
O371 C373 1.214 . S
O372 Cd368 2.352 . S
O372 C375 1.258 . S
C373 O370 1.320 . S
C373 O371 1.214 . S
O374 Cd366 2.277 . S
O374 C369 1.209 . S
C375 O372 1.258 . S
C375 O377 1.282 . S
O376 Cd368 2.277 . S
O376 C369 1.226 . S
O377 Cd368 2.356 . S
O377 C375 1.282 . S
C378 O379 1.306 . S
C378 O381 1.160 . S
O379 C378 1.306 . S
O379 Cd380 2.228 . S
Cd380 O379 2.228 . S
Cd380 O384 2.273 . S
Cd380 O388 2.277 . S
O381 C378 1.160 . S
O381 Cd382 2.203 . S
Cd382 O381 2.203 . S
Cd382 O384 2.411 . S
Cd382 O385 2.333 . S
Cd382 O386 2.352 . S
Cd382 O390 2.277 . S
Cd382 O391 2.356 . S
C383 O388 1.209 . S
C383 O390 1.226 . S
O384 Cd380 2.273 . S
O384 Cd382 2.411 . S
O384 C387 1.320 . S
O385 Cd382 2.333 . S
O385 C387 1.214 . S
O386 Cd382 2.352 . S
O386 C389 1.258 . S
C387 O384 1.320 . S
C387 O385 1.214 . S
O388 Cd380 2.277 . S
O388 C383 1.209 . S
C389 O386 1.258 . S
C389 O391 1.282 . S
O390 Cd382 2.277 . S
O390 C383 1.226 . S
O391 Cd382 2.356 . S
O391 C389 1.282 . S
C392 O393 1.306 . S
C392 O395 1.160 . S
O393 C392 1.306 . S
O393 Cd394 2.228 . S
Cd394 O393 2.228 . S
Cd394 O398 2.273 . S
Cd394 O402 2.277 . S
O395 C392 1.160 . S
O395 Cd396 2.203 . S
Cd396 O395 2.203 . S
Cd396 O398 2.411 . S
Cd396 O399 2.333 . S
Cd396 O400 2.352 . S
Cd396 O404 2.277 . S
Cd396 O405 2.356 . S
C397 O402 1.209 . S
C397 O404 1.226 . S
O398 Cd394 2.273 . S
O398 Cd396 2.411 . S
O398 C401 1.320 . S
O399 Cd396 2.333 . S
O399 C401 1.214 . S
O400 Cd396 2.352 . S
O400 C403 1.258 . S
C401 O398 1.320 . S
C401 O399 1.214 . S
O402 Cd394 2.277 . S
O402 C397 1.209 . S
C403 O400 1.258 . S
C403 O405 1.282 . S
O404 Cd396 2.277 . S
O404 C397 1.226 . S
O405 Cd396 2.356 . S
O405 C403 1.282 . S
C406 O407 1.306 . S
C406 O409 1.160 . S
O407 C406 1.306 . S
O407 Cd408 2.228 . S
Cd408 O407 2.228 . S
Cd408 O412 2.273 . S
Cd408 O416 2.277 . S
O409 C406 1.160 . S
O409 Cd410 2.203 . S
Cd410 O409 2.203 . S
Cd410 O412 2.411 . S
Cd410 O413 2.333 . S
Cd410 O414 2.352 . S
Cd410 O418 2.277 . S
Cd410 O419 2.356 . S
C411 O416 1.209 . S
C411 O418 1.226 . S
O412 Cd408 2.273 . S
O412 Cd410 2.411 . S
O412 C415 1.320 . S
O413 Cd410 2.333 . S
O413 C415 1.214 . S
O414 Cd410 2.352 . S
O414 C417 1.258 . S
C415 O412 1.320 . S
C415 O413 1.214 . S
O416 Cd408 2.277 . S
O416 C411 1.209 . S
C417 O414 1.258 . S
C417 O419 1.282 . S
O418 Cd410 2.277 . S
O418 C411 1.226 . S
O419 Cd410 2.356 . S
O419 C417 1.282 . S
C420 O421 1.306 . S
C420 O423 1.160 . S
O421 C420 1.306 . S
O421 Cd422 2.228 . S
Cd422 O421 2.228 . S
Cd422 O426 2.273 . S
Cd422 O430 2.277 . S
O423 C420 1.160 . S
O423 Cd424 2.203 . S
Cd424 O423 2.203 . S
Cd424 O426 2.411 . S
Cd424 O427 2.333 . S
Cd424 O428 2.352 . S
Cd424 O432 2.277 . S
Cd424 O433 2.356 . S
C425 O430 1.209 . S
C425 O432 1.226 . S
O426 Cd422 2.273 . S
O426 Cd424 2.411 . S
O426 C429 1.320 . S
O427 Cd424 2.333 . S
O427 C429 1.214 . S
O428 Cd424 2.352 . S
O428 C431 1.258 . S
C429 O426 1.320 . S
C429 O427 1.214 . S
O430 Cd422 2.277 . S
O430 C425 1.209 . S
C431 O428 1.258 . S
C431 O433 1.282 . S
O432 Cd424 2.277 . S
O432 C425 1.226 . S
O433 Cd424 2.356 . S
O433 C431 1.282 . S
C434 O435 1.306 . S
C434 O437 1.160 . S
O435 C434 1.306 . S
O435 Cd436 2.228 . S
Cd436 O435 2.228 . S
Cd436 O440 2.273 . S
Cd436 O444 2.277 . S
O437 C434 1.160 . S
O437 Cd438 2.203 . S
Cd438 O437 2.203 . S
Cd438 O440 2.411 . S
Cd438 O441 2.333 . S
Cd438 O442 2.352 . S
Cd438 O446 2.277 . S
Cd438 O447 2.356 . S
C439 O444 1.209 . S
C439 O446 1.226 . S
O440 Cd436 2.273 . S
O440 Cd438 2.411 . S
O440 C443 1.320 . S
O441 Cd438 2.333 . S
O441 C443 1.214 . S
O442 Cd438 2.352 . S
O442 C445 1.258 . S
C443 O440 1.320 . S
C443 O441 1.214 . S
O444 Cd436 2.277 . S
O444 C439 1.209 . S
C445 O442 1.258 . S
C445 O447 1.282 . S
O446 Cd438 2.277 . S
O446 C439 1.226 . S
O447 Cd438 2.356 . S
O447 C445 1.282 . S
C448 O449 1.306 . S
C448 O451 1.160 . S
O449 C448 1.306 . S
O449 Cd450 2.228 . S
Cd450 O449 2.228 . S
Cd450 O454 2.273 . S
Cd450 O458 2.277 . S
O451 C448 1.160 . S
O451 Cd452 2.203 . S
Cd452 O451 2.203 . S
Cd452 O454 2.411 . S
Cd452 O455 2.333 . S
Cd452 O456 2.352 . S
Cd452 O460 2.277 . S
Cd452 O461 2.356 . S
C453 O458 1.209 . S
C453 O460 1.226 . S
O454 Cd450 2.273 . S
O454 Cd452 2.411 . S
O454 C457 1.320 . S
O455 Cd452 2.333 . S
O455 C457 1.214 . S
O456 Cd452 2.352 . S
O456 C459 1.258 . S
C457 O454 1.320 . S
C457 O455 1.214 . S
O458 Cd450 2.277 . S
O458 C453 1.209 . S
C459 O456 1.258 . S
C459 O461 1.282 . S
O460 Cd452 2.277 . S
O460 C453 1.226 . S
O461 Cd452 2.356 . S
O461 C459 1.282 . S
C462 O463 1.306 . S
C462 O465 1.160 . S
O463 C462 1.306 . S
O463 Cd464 2.228 . S
Cd464 O463 2.228 . S
Cd464 O468 2.273 . S
Cd464 O472 2.277 . S
O465 C462 1.160 . S
O465 Cd466 2.203 . S
Cd466 O465 2.203 . S
Cd466 O468 2.411 . S
Cd466 O469 2.333 . S
Cd466 O470 2.352 . S
Cd466 O474 2.277 . S
Cd466 O475 2.356 . S
C467 O472 1.209 . S
C467 O474 1.226 . S
O468 Cd464 2.273 . S
O468 Cd466 2.411 . S
O468 C471 1.320 . S
O469 Cd466 2.333 . S
O469 C471 1.214 . S
O470 Cd466 2.352 . S
O470 C473 1.258 . S
C471 O468 1.320 . S
C471 O469 1.214 . S
O472 Cd464 2.277 . S
O472 C467 1.209 . S
C473 O470 1.258 . S
C473 O475 1.282 . S
O474 Cd466 2.277 . S
O474 C467 1.226 . S
O475 Cd466 2.356 . S
O475 C473 1.282 . S
C476 O477 1.306 . S
C476 O479 1.160 . S
O477 C476 1.306 . S
O477 Cd478 2.228 . S
Cd478 O477 2.228 . S
Cd478 O482 2.273 . S
Cd478 O486 2.277 . S
O479 C476 1.160 . S
O479 Cd480 2.203 . S
Cd480 O479 2.203 . S
Cd480 O482 2.411 . S
Cd480 O483 2.333 . S
Cd480 O484 2.352 . S
Cd480 O488 2.277 . S
Cd480 O489 2.356 . S
C481 O486 1.209 . S
C481 O488 1.226 . S
O482 Cd478 2.273 . S
O482 Cd480 2.411 . S
O482 C485 1.320 . S
O483 Cd480 2.333 . S
O483 C485 1.214 . S
O484 Cd480 2.352 . S
O484 C487 1.258 . S
C485 O482 1.320 . S
C485 O483 1.214 . S
O486 Cd478 2.277 . S
O486 C481 1.209 . S
C487 O484 1.258 . S
C487 O489 1.282 . S
O488 Cd480 2.277 . S
O488 C481 1.226 . S
O489 Cd480 2.356 . S
O489 C487 1.282 . S
C490 O491 1.306 . S
C490 O493 1.160 . S
O491 C490 1.306 . S
O491 Cd492 2.228 . S
Cd492 O491 2.228 . S
Cd492 O496 2.273 . S
Cd492 O500 2.277 . S
O493 C490 1.160 . S
O493 Cd494 2.203 . S
Cd494 O493 2.203 . S
Cd494 O496 2.411 . S
Cd494 O497 2.333 . S
Cd494 O498 2.352 . S
Cd494 O502 2.277 . S
Cd494 O503 2.356 . S
C495 O500 1.209 . S
C495 O502 1.226 . S
O496 Cd492 2.273 . S
O496 Cd494 2.411 . S
O496 C499 1.320 . S
O497 Cd494 2.333 . S
O497 C499 1.214 . S
O498 Cd494 2.352 . S
O498 C501 1.258 . S
C499 O496 1.320 . S
C499 O497 1.214 . S
O500 Cd492 2.277 . S
O500 C495 1.209 . S
C501 O498 1.258 . S
C501 O503 1.282 . S
O502 Cd494 2.277 . S
O502 C495 1.226 . S
O503 Cd494 2.356 . S
O503 C501 1.282 . S
C504 O505 1.306 . S
C504 O507 1.160 . S
O505 C504 1.306 . S
O505 Cd506 2.228 . S
Cd506 O505 2.228 . S
Cd506 O510 2.273 . S
Cd506 O514 2.277 . S
O507 C504 1.160 . S
O507 Cd508 2.203 . S
Cd508 O507 2.203 . S
Cd508 O510 2.411 . S
Cd508 O511 2.333 . S
Cd508 O512 2.352 . S
Cd508 O516 2.277 . S
Cd508 O517 2.356 . S
C509 O514 1.209 . S
C509 O516 1.226 . S
O510 Cd506 2.273 . S
O510 Cd508 2.411 . S
O510 C513 1.320 . S
O511 Cd508 2.333 . S
O511 C513 1.214 . S
O512 Cd508 2.352 . S
O512 C515 1.258 . S
C513 O510 1.320 . S
C513 O511 1.214 . S
O514 Cd506 2.277 . S
O514 C509 1.209 . S
C515 O512 1.258 . S
C515 O517 1.282 . S
O516 Cd508 2.277 . S
O516 C509 1.226 . S
O517 Cd508 2.356 . S
O517 C515 1.282 . S
C518 O519 1.306 . S
C518 O521 1.160 . S
O519 C518 1.306 . S
O519 Cd520 2.228 . S
Cd520 O519 2.228 . S
Cd520 O524 2.273 . S
Cd520 O528 2.277 . S
O521 C518 1.160 . S
O521 Cd522 2.203 . S
Cd522 O521 2.203 . S
Cd522 O524 2.411 . S
Cd522 O525 2.333 . S
Cd522 O526 2.352 . S
Cd522 O530 2.277 . S
Cd522 O531 2.356 . S
C523 O528 1.209 . S
C523 O530 1.226 . S
O524 Cd520 2.273 . S
O524 Cd522 2.411 . S
O524 C527 1.320 . S
O525 Cd522 2.333 . S
O525 C527 1.214 . S
O526 Cd522 2.352 . S
O526 C529 1.258 . S
C527 O524 1.320 . S
C527 O525 1.214 . S
O528 Cd520 2.277 . S
O528 C523 1.209 . S
C529 O526 1.258 . S
C529 O531 1.282 . S
O530 Cd522 2.277 . S
O530 C523 1.226 . S
O531 Cd522 2.356 . S
O531 C529 1.282 . S
C532 O533 1.306 . S
C532 O535 1.160 . S
O533 C532 1.306 . S
O533 Cd534 2.228 . S
Cd534 O533 2.228 . S
Cd534 O538 2.273 . S
Cd534 O542 2.277 . S
O535 C532 1.160 . S
O535 Cd536 2.203 . S
Cd536 O535 2.203 . S
Cd536 O538 2.411 . S
Cd536 O539 2.333 . S
Cd536 O540 2.352 . S
Cd536 O544 2.277 . S
Cd536 O545 2.356 . S
C537 O542 1.209 . S
C537 O544 1.226 . S
O538 Cd534 2.273 . S
O538 Cd536 2.411 . S
O538 C541 1.320 . S
O539 Cd536 2.333 . S
O539 C541 1.214 . S
O540 Cd536 2.352 . S
O540 C543 1.258 . S
C541 O538 1.320 . S
C541 O539 1.214 . S
O542 Cd534 2.277 . S
O542 C537 1.209 . S
C543 O540 1.258 . S
C543 O545 1.282 . S
O544 Cd536 2.277 . S
O544 C537 1.226 . S
O545 Cd536 2.356 . S
O545 C543 1.282 . S
C546 O547 1.306 . S
C546 O549 1.160 . S
O547 C546 1.306 . S
O547 Cd548 2.228 . S
Cd548 O547 2.228 . S
Cd548 O552 2.273 . S
Cd548 O556 2.277 . S
O549 C546 1.160 . S
O549 Cd550 2.203 . S
Cd550 O549 2.203 . S
Cd550 O552 2.411 . S
Cd550 O553 2.333 . S
Cd550 O554 2.352 . S
Cd550 O558 2.277 . S
Cd550 O559 2.356 . S
C551 O556 1.209 . S
C551 O558 1.226 . S
O552 Cd548 2.273 . S
O552 Cd550 2.411 . S
O552 C555 1.320 . S
O553 Cd550 2.333 . S
O553 C555 1.214 . S
O554 Cd550 2.352 . S
O554 C557 1.258 . S
C555 O552 1.320 . S
C555 O553 1.214 . S
O556 Cd548 2.277 . S
O556 C551 1.209 . S
C557 O554 1.258 . S
C557 O559 1.282 . S
O558 Cd550 2.277 . S
O558 C551 1.226 . S
O559 Cd550 2.356 . S
O559 C557 1.282 . S
C560 O561 1.306 . S
C560 O563 1.160 . S
O561 C560 1.306 . S
O561 Cd562 2.228 . S
Cd562 O561 2.228 . S
Cd562 O566 2.273 . S
Cd562 O570 2.277 . S
O563 C560 1.160 . S
O563 Cd564 2.203 . S
Cd564 O563 2.203 . S
Cd564 O566 2.411 . S
Cd564 O567 2.333 . S
Cd564 O568 2.352 . S
Cd564 O572 2.277 . S
Cd564 O573 2.356 . S
C565 O570 1.209 . S
C565 O572 1.226 . S
O566 Cd562 2.273 . S
O566 Cd564 2.411 . S
O566 C569 1.320 . S
O567 Cd564 2.333 . S
O567 C569 1.214 . S
O568 Cd564 2.352 . S
O568 C571 1.258 . S
C569 O566 1.320 . S
C569 O567 1.214 . S
O570 Cd562 2.277 . S
O570 C565 1.209 . S
C571 O568 1.258 . S
C571 O573 1.282 . S
O572 Cd564 2.277 . S
O572 C565 1.226 . S
O573 Cd564 2.356 . S
O573 C571 1.282 . S
C574 O575 1.306 . S
C574 O577 1.160 . S
O575 C574 1.306 . S
O575 Cd576 2.228 . S
Cd576 O575 2.228 . S
Cd576 O580 2.273 . S
Cd576 O584 2.277 . S
O577 C574 1.160 . S
O577 Cd578 2.203 . S
Cd578 O577 2.203 . S
Cd578 O580 2.411 . S
Cd578 O581 2.333 . S
Cd578 O582 2.352 . S
Cd578 O586 2.277 . S
Cd578 O587 2.356 . S
C579 O584 1.209 . S
C579 O586 1.226 . S
O580 Cd576 2.273 . S
O580 Cd578 2.411 . S
O580 C583 1.320 . S
O581 Cd578 2.333 . S
O581 C583 1.214 . S
O582 Cd578 2.352 . S
O582 C585 1.258 . S
C583 O580 1.320 . S
C583 O581 1.214 . S
O584 Cd576 2.277 . S
O584 C579 1.209 . S
C585 O582 1.258 . S
C585 O587 1.282 . S
O586 Cd578 2.277 . S
O586 C579 1.226 . S
O587 Cd578 2.356 . S
O587 C585 1.282 . S
C588 O589 1.306 . S
C588 O591 1.160 . S
O589 C588 1.306 . S
O589 Cd590 2.228 . S
Cd590 O589 2.228 . S
Cd590 O594 2.273 . S
Cd590 O598 2.277 . S
O591 C588 1.160 . S
O591 Cd592 2.203 . S
Cd592 O591 2.203 . S
Cd592 O594 2.411 . S
Cd592 O595 2.333 . S
Cd592 O596 2.352 . S
Cd592 O600 2.277 . S
Cd592 O601 2.356 . S
C593 O598 1.209 . S
C593 O600 1.226 . S
O594 Cd590 2.273 . S
O594 Cd592 2.411 . S
O594 C597 1.320 . S
O595 Cd592 2.333 . S
O595 C597 1.214 . S
O596 Cd592 2.352 . S
O596 C599 1.258 . S
C597 O594 1.320 . S
C597 O595 1.214 . S
O598 Cd590 2.277 . S
O598 C593 1.209 . S
C599 O596 1.258 . S
C599 O601 1.282 . S
O600 Cd592 2.277 . S
O600 C593 1.226 . S
O601 Cd592 2.356 . S
O601 C599 1.282 . S
C602 O603 1.306 . S
C602 O605 1.160 . S
O603 C602 1.306 . S
O603 Cd604 2.228 . S
Cd604 O603 2.228 . S
Cd604 O608 2.273 . S
Cd604 O612 2.277 . S
O605 C602 1.160 . S
O605 Cd606 2.203 . S
Cd606 O605 2.203 . S
Cd606 O608 2.411 . S
Cd606 O609 2.333 . S
Cd606 O610 2.352 . S
Cd606 O614 2.277 . S
Cd606 O615 2.356 . S
C607 O612 1.209 . S
C607 O614 1.226 . S
O608 Cd604 2.273 . S
O608 Cd606 2.411 . S
O608 C611 1.320 . S
O609 Cd606 2.333 . S
O609 C611 1.214 . S
O610 Cd606 2.352 . S
O610 C613 1.258 . S
C611 O608 1.320 . S
C611 O609 1.214 . S
O612 Cd604 2.277 . S
O612 C607 1.209 . S
C613 O610 1.258 . S
C613 O615 1.282 . S
O614 Cd606 2.277 . S
O614 C607 1.226 . S
O615 Cd606 2.356 . S
O615 C613 1.282 . S
C616 O617 1.306 . S
C616 O619 1.160 . S
O617 C616 1.306 . S
O617 Cd618 2.228 . S
Cd618 O617 2.228 . S
Cd618 O622 2.273 . S
Cd618 O626 2.277 . S
O619 C616 1.160 . S
O619 Cd620 2.203 . S
Cd620 O619 2.203 . S
Cd620 O622 2.411 . S
Cd620 O623 2.333 . S
Cd620 O624 2.352 . S
Cd620 O628 2.277 . S
Cd620 O629 2.356 . S
C621 O626 1.209 . S
C621 O628 1.226 . S
O622 Cd618 2.273 . S
O622 Cd620 2.411 . S
O622 C625 1.320 . S
O623 Cd620 2.333 . S
O623 C625 1.214 . S
O624 Cd620 2.352 . S
O624 C627 1.258 . S
C625 O622 1.320 . S
C625 O623 1.214 . S
O626 Cd618 2.277 . S
O626 C621 1.209 . S
C627 O624 1.258 . S
C627 O629 1.282 . S
O628 Cd620 2.277 . S
O628 C621 1.226 . S
O629 Cd620 2.356 . S
O629 C627 1.282 . S
C630 O631 1.306 . S
C630 O633 1.160 . S
O631 C630 1.306 . S
O631 Cd632 2.228 . S
Cd632 O631 2.228 . S
Cd632 O636 2.273 . S
Cd632 O640 2.277 . S
O633 C630 1.160 . S
O633 Cd634 2.203 . S
Cd634 O633 2.203 . S
Cd634 O636 2.411 . S
Cd634 O637 2.333 . S
Cd634 O638 2.352 . S
Cd634 O642 2.277 . S
Cd634 O643 2.356 . S
C635 O640 1.209 . S
C635 O642 1.226 . S
O636 Cd632 2.273 . S
O636 Cd634 2.411 . S
O636 C639 1.320 . S
O637 Cd634 2.333 . S
O637 C639 1.214 . S
O638 Cd634 2.352 . S
O638 C641 1.258 . S
C639 O636 1.320 . S
C639 O637 1.214 . S
O640 Cd632 2.277 . S
O640 C635 1.209 . S
C641 O638 1.258 . S
C641 O643 1.282 . S
O642 Cd634 2.277 . S
O642 C635 1.226 . S
O643 Cd634 2.356 . S
O643 C641 1.282 . S
C644 O645 1.306 . S
C644 O647 1.160 . S
O645 C644 1.306 . S
O645 Cd646 2.228 . S
Cd646 O645 2.228 . S
Cd646 O650 2.273 . S
Cd646 O654 2.277 . S
O647 C644 1.160 . S
O647 Cd648 2.203 . S
Cd648 O647 2.203 . S
Cd648 O650 2.411 . S
Cd648 O651 2.333 . S
Cd648 O652 2.352 . S
Cd648 O656 2.277 . S
Cd648 O657 2.356 . S
C649 O654 1.209 . S
C649 O656 1.226 . S
O650 Cd646 2.273 . S
O650 Cd648 2.411 . S
O650 C653 1.320 . S
O651 Cd648 2.333 . S
O651 C653 1.214 . S
O652 Cd648 2.352 . S
O652 C655 1.258 . S
C653 O650 1.320 . S
C653 O651 1.214 . S
O654 Cd646 2.277 . S
O654 C649 1.209 . S
C655 O652 1.258 . S
C655 O657 1.282 . S
O656 Cd648 2.277 . S
O656 C649 1.226 . S
O657 Cd648 2.356 . S
O657 C655 1.282 . S
C658 O659 1.306 . S
C658 O661 1.160 . S
O659 C658 1.306 . S
O659 Cd660 2.228 . S
Cd660 O659 2.228 . S
Cd660 O664 2.273 . S
Cd660 O668 2.277 . S
O661 C658 1.160 . S
O661 Cd662 2.203 . S
Cd662 O661 2.203 . S
Cd662 O664 2.411 . S
Cd662 O665 2.333 . S
Cd662 O666 2.352 . S
Cd662 O670 2.277 . S
Cd662 O671 2.356 . S
C663 O668 1.209 . S
C663 O670 1.226 . S
O664 Cd660 2.273 . S
O664 Cd662 2.411 . S
O664 C667 1.320 . S
O665 Cd662 2.333 . S
O665 C667 1.214 . S
O666 Cd662 2.352 . S
O666 C669 1.258 . S
C667 O664 1.320 . S
C667 O665 1.214 . S
O668 Cd660 2.277 . S
O668 C663 1.209 . S
C669 O666 1.258 . S
C669 O671 1.282 . S
O670 Cd662 2.277 . S
O670 C663 1.226 . S
O671 Cd662 2.356 . S
O671 C669 1.282 . S
C672 O673 1.306 . S
C672 O675 1.160 . S
O673 C672 1.306 . S
O673 Cd674 2.228 . S
Cd674 O673 2.228 . S
Cd674 O678 2.273 . S
Cd674 O682 2.277 . S
O675 C672 1.160 . S
O675 Cd676 2.203 . S
Cd676 O675 2.203 . S
Cd676 O678 2.411 . S
Cd676 O679 2.333 . S
Cd676 O680 2.352 . S
Cd676 O684 2.277 . S
Cd676 O685 2.356 . S
C677 O682 1.209 . S
C677 O684 1.226 . S
O678 Cd674 2.273 . S
O678 Cd676 2.411 . S
O678 C681 1.320 . S
O679 Cd676 2.333 . S
O679 C681 1.214 . S
O680 Cd676 2.352 . S
O680 C683 1.258 . S
C681 O678 1.320 . S
C681 O679 1.214 . S
O682 Cd674 2.277 . S
O682 C677 1.209 . S
C683 O680 1.258 . S
C683 O685 1.282 . S
O684 Cd676 2.277 . S
O684 C677 1.226 . S
O685 Cd676 2.356 . S
O685 C683 1.282 . S
C686 O687 1.306 . S
C686 O689 1.160 . S
O687 C686 1.306 . S
O687 Cd688 2.228 . S
Cd688 O687 2.228 . S
Cd688 O692 2.273 . S
Cd688 O696 2.277 . S
O689 C686 1.160 . S
O689 Cd690 2.203 . S
Cd690 O689 2.203 . S
Cd690 O692 2.411 . S
Cd690 O693 2.333 . S
Cd690 O694 2.352 . S
Cd690 O698 2.277 . S
Cd690 O699 2.356 . S
C691 O696 1.209 . S
C691 O698 1.226 . S
O692 Cd688 2.273 . S
O692 Cd690 2.411 . S
O692 C695 1.320 . S
O693 Cd690 2.333 . S
O693 C695 1.214 . S
O694 Cd690 2.352 . S
O694 C697 1.258 . S
C695 O692 1.320 . S
C695 O693 1.214 . S
O696 Cd688 2.277 . S
O696 C691 1.209 . S
C697 O694 1.258 . S
C697 O699 1.282 . S
O698 Cd690 2.277 . S
O698 C691 1.226 . S
O699 Cd690 2.356 . S
O699 C697 1.282 . S
C700 O701 1.306 . S
C700 O703 1.160 . S
O701 C700 1.306 . S
O701 Cd702 2.228 . S
Cd702 O701 2.228 . S
Cd702 O706 2.273 . S
Cd702 O710 2.277 . S
O703 C700 1.160 . S
O703 Cd704 2.203 . S
Cd704 O703 2.203 . S
Cd704 O706 2.411 . S
Cd704 O707 2.333 . S
Cd704 O708 2.352 . S
Cd704 O712 2.277 . S
Cd704 O713 2.356 . S
C705 O710 1.209 . S
C705 O712 1.226 . S
O706 Cd702 2.273 . S
O706 Cd704 2.411 . S
O706 C709 1.320 . S
O707 Cd704 2.333 . S
O707 C709 1.214 . S
O708 Cd704 2.352 . S
O708 C711 1.258 . S
C709 O706 1.320 . S
C709 O707 1.214 . S
O710 Cd702 2.277 . S
O710 C705 1.209 . S
C711 O708 1.258 . S
C711 O713 1.282 . S
O712 Cd704 2.277 . S
O712 C705 1.226 . S
O713 Cd704 2.356 . S
O713 C711 1.282 . S
C714 O715 1.306 . S
C714 O717 1.160 . S
O715 C714 1.306 . S
O715 Cd716 2.228 . S
Cd716 O715 2.228 . S
Cd716 O720 2.273 . S
Cd716 O724 2.277 . S
O717 C714 1.160 . S
O717 Cd718 2.203 . S
Cd718 O717 2.203 . S
Cd718 O720 2.411 . S
Cd718 O721 2.333 . S
Cd718 O722 2.352 . S
Cd718 O726 2.277 . S
Cd718 O727 2.356 . S
C719 O724 1.209 . S
C719 O726 1.226 . S
O720 Cd716 2.273 . S
O720 Cd718 2.411 . S
O720 C723 1.320 . S
O721 Cd718 2.333 . S
O721 C723 1.214 . S
O722 Cd718 2.352 . S
O722 C725 1.258 . S
C723 O720 1.320 . S
C723 O721 1.214 . S
O724 Cd716 2.277 . S
O724 C719 1.209 . S
C725 O722 1.258 . S
C725 O727 1.282 . S
O726 Cd718 2.277 . S
O726 C719 1.226 . S
O727 Cd718 2.356 . S
O727 C725 1.282 . S
C728 O729 1.306 . S
C728 O731 1.160 . S
O729 C728 1.306 . S
O729 Cd730 2.228 . S
Cd730 O729 2.228 . S
Cd730 O734 2.273 . S
Cd730 O738 2.277 . S
O731 C728 1.160 . S
O731 Cd732 2.203 . S
Cd732 O731 2.203 . S
Cd732 O734 2.411 . S
Cd732 O735 2.333 . S
Cd732 O736 2.352 . S
Cd732 O740 2.277 . S
Cd732 O741 2.356 . S
C733 O738 1.209 . S
C733 O740 1.226 . S
O734 Cd730 2.273 . S
O734 Cd732 2.411 . S
O734 C737 1.320 . S
O735 Cd732 2.333 . S
O735 C737 1.214 . S
O736 Cd732 2.352 . S
O736 C739 1.258 . S
C737 O734 1.320 . S
C737 O735 1.214 . S
O738 Cd730 2.277 . S
O738 C733 1.209 . S
C739 O736 1.258 . S
C739 O741 1.282 . S
O740 Cd732 2.277 . S
O740 C733 1.226 . S
O741 Cd732 2.356 . S
O741 C739 1.282 . S
C742 O743 1.306 . S
C742 O745 1.160 . S
O743 C742 1.306 . S
O743 Cd744 2.228 . S
Cd744 O743 2.228 . S
Cd744 O748 2.273 . S
Cd744 O752 2.277 . S
O745 C742 1.160 . S
O745 Cd746 2.203 . S
Cd746 O745 2.203 . S
Cd746 O748 2.411 . S
Cd746 O749 2.333 . S
Cd746 O750 2.352 . S
Cd746 O754 2.277 . S
Cd746 O755 2.356 . S
C747 O752 1.209 . S
C747 O754 1.226 . S
O748 Cd744 2.273 . S
O748 Cd746 2.411 . S
O748 C751 1.320 . S
O749 Cd746 2.333 . S
O749 C751 1.214 . S
O750 Cd746 2.352 . S
O750 C753 1.258 . S
C751 O748 1.320 . S
C751 O749 1.214 . S
O752 Cd744 2.277 . S
O752 C747 1.209 . S
C753 O750 1.258 . S
C753 O755 1.282 . S
O754 Cd746 2.277 . S
O754 C747 1.226 . S
O755 Cd746 2.356 . S
O755 C753 1.282 . S
C756 O757 1.306 . S
C756 O759 1.160 . S
O757 C756 1.306 . S
O757 Cd758 2.228 . S
Cd758 O757 2.228 . S
Cd758 O762 2.273 . S
Cd758 O766 2.277 . S
O759 C756 1.160 . S
O759 Cd760 2.203 . S
Cd760 O759 2.203 . S
Cd760 O762 2.411 . S
Cd760 O763 2.333 . S
Cd760 O764 2.352 . S
Cd760 O768 2.277 . S
Cd760 O769 2.356 . S
C761 O766 1.209 . S
C761 O768 1.226 . S
O762 Cd758 2.273 . S
O762 Cd760 2.411 . S
O762 C765 1.320 . S
O763 Cd760 2.333 . S
O763 C765 1.214 . S
O764 Cd760 2.352 . S
O764 C767 1.258 . S
C765 O762 1.320 . S
C765 O763 1.214 . S
O766 Cd758 2.277 . S
O766 C761 1.209 . S
C767 O764 1.258 . S
C767 O769 1.282 . S
O768 Cd760 2.277 . S
O768 C761 1.226 . S
O769 Cd760 2.356 . S
O769 C767 1.282 . S
C770 O771 1.306 . S
C770 O773 1.160 . S
O771 C770 1.306 . S
O771 Cd772 2.228 . S
Cd772 O771 2.228 . S
Cd772 O776 2.273 . S
Cd772 O780 2.277 . S
O773 C770 1.160 . S
O773 Cd774 2.203 . S
Cd774 O773 2.203 . S
Cd774 O776 2.411 . S
Cd774 O777 2.333 . S
Cd774 O778 2.352 . S
Cd774 O782 2.277 . S
Cd774 O783 2.356 . S
C775 O780 1.209 . S
C775 O782 1.226 . S
O776 Cd772 2.273 . S
O776 Cd774 2.411 . S
O776 C779 1.320 . S
O777 Cd774 2.333 . S
O777 C779 1.214 . S
O778 Cd774 2.352 . S
O778 C781 1.258 . S
C779 O776 1.320 . S
C779 O777 1.214 . S
O780 Cd772 2.277 . S
O780 C775 1.209 . S
C781 O778 1.258 . S
C781 O783 1.282 . S
O782 Cd774 2.277 . S
O782 C775 1.226 . S
O783 Cd774 2.356 . S
O783 C781 1.282 . S
C784 O785 1.306 . S
C784 O787 1.160 . S
O785 C784 1.306 . S
O785 Cd786 2.228 . S
Cd786 O785 2.228 . S
Cd786 O790 2.273 . S
Cd786 O794 2.277 . S
O787 C784 1.160 . S
O787 Cd788 2.203 . S
Cd788 O787 2.203 . S
Cd788 O790 2.411 . S
Cd788 O791 2.333 . S
Cd788 O792 2.352 . S
Cd788 O796 2.277 . S
Cd788 O797 2.356 . S
C789 O794 1.209 . S
C789 O796 1.226 . S
O790 Cd786 2.273 . S
O790 Cd788 2.411 . S
O790 C793 1.320 . S
O791 Cd788 2.333 . S
O791 C793 1.214 . S
O792 Cd788 2.352 . S
O792 C795 1.258 . S
C793 O790 1.320 . S
C793 O791 1.214 . S
O794 Cd786 2.277 . S
O794 C789 1.209 . S
C795 O792 1.258 . S
C795 O797 1.282 . S
O796 Cd788 2.277 . S
O796 C789 1.226 . S
O797 Cd788 2.356 . S
O797 C795 1.282 . S
C798 O799 1.306 . S
C798 O801 1.160 . S
O799 C798 1.306 . S
O799 Cd800 2.228 . S
Cd800 O799 2.228 . S
Cd800 O804 2.273 . S
Cd800 O808 2.277 . S
O801 C798 1.160 . S
O801 Cd802 2.203 . S
Cd802 O801 2.203 . S
Cd802 O804 2.411 . S
Cd802 O805 2.333 . S
Cd802 O806 2.352 . S
Cd802 O810 2.277 . S
Cd802 O811 2.356 . S
C803 O808 1.209 . S
C803 O810 1.226 . S
O804 Cd800 2.273 . S
O804 Cd802 2.411 . S
O804 C807 1.320 . S
O805 Cd802 2.333 . S
O805 C807 1.214 . S
O806 Cd802 2.352 . S
O806 C809 1.258 . S
C807 O804 1.320 . S
C807 O805 1.214 . S
O808 Cd800 2.277 . S
O808 C803 1.209 . S
C809 O806 1.258 . S
C809 O811 1.282 . S
O810 Cd802 2.277 . S
O810 C803 1.226 . S
O811 Cd802 2.356 . S
O811 C809 1.282 . S
C812 O813 1.306 . S
C812 O815 1.160 . S
O813 C812 1.306 . S
O813 Cd814 2.228 . S
Cd814 O813 2.228 . S
Cd814 O818 2.273 . S
Cd814 O822 2.277 . S
O815 C812 1.160 . S
O815 Cd816 2.203 . S
Cd816 O815 2.203 . S
Cd816 O818 2.411 . S
Cd816 O819 2.333 . S
Cd816 O820 2.352 . S
Cd816 O824 2.277 . S
Cd816 O825 2.356 . S
C817 O822 1.209 . S
C817 O824 1.226 . S
O818 Cd814 2.273 . S
O818 Cd816 2.411 . S
O818 C821 1.320 . S
O819 Cd816 2.333 . S
O819 C821 1.214 . S
O820 Cd816 2.352 . S
O820 C823 1.258 . S
C821 O818 1.320 . S
C821 O819 1.214 . S
O822 Cd814 2.277 . S
O822 C817 1.209 . S
C823 O820 1.258 . S
C823 O825 1.282 . S
O824 Cd816 2.277 . S
O824 C817 1.226 . S
O825 Cd816 2.356 . S
O825 C823 1.282 . S
C826 O827 1.306 . S
C826 O829 1.160 . S
O827 C826 1.306 . S
O827 Cd828 2.228 . S
Cd828 O827 2.228 . S
Cd828 O832 2.273 . S
Cd828 O836 2.277 . S
O829 C826 1.160 . S
O829 Cd830 2.203 . S
Cd830 O829 2.203 . S
Cd830 O832 2.411 . S
Cd830 O833 2.333 . S
Cd830 O834 2.352 . S
Cd830 O838 2.277 . S
Cd830 O839 2.356 . S
C831 O836 1.209 . S
C831 O838 1.226 . S
O832 Cd828 2.273 . S
O832 Cd830 2.411 . S
O832 C835 1.320 . S
O833 Cd830 2.333 . S
O833 C835 1.214 . S
O834 Cd830 2.352 . S
O834 C837 1.258 . S
C835 O832 1.320 . S
C835 O833 1.214 . S
O836 Cd828 2.277 . S
O836 C831 1.209 . S
C837 O834 1.258 . S
C837 O839 1.282 . S
O838 Cd830 2.277 . S
O838 C831 1.226 . S
O839 Cd830 2.356 . S
O839 C837 1.282 . S
C840 O841 1.306 . S
C840 O843 1.160 . S
O841 C840 1.306 . S
O841 Cd842 2.228 . S
Cd842 O841 2.228 . S
Cd842 O846 2.273 . S
Cd842 O850 2.277 . S
O843 C840 1.160 . S
O843 Cd844 2.203 . S
Cd844 O843 2.203 . S
Cd844 O846 2.411 . S
Cd844 O847 2.333 . S
Cd844 O848 2.352 . S
Cd844 O852 2.277 . S
Cd844 O853 2.356 . S
C845 O850 1.209 . S
C845 O852 1.226 . S
O846 Cd842 2.273 . S
O846 Cd844 2.411 . S
O846 C849 1.320 . S
O847 Cd844 2.333 . S
O847 C849 1.214 . S
O848 Cd844 2.352 . S
O848 C851 1.258 . S
C849 O846 1.320 . S
C849 O847 1.214 . S
O850 Cd842 2.277 . S
O850 C845 1.209 . S
C851 O848 1.258 . S
C851 O853 1.282 . S
O852 Cd844 2.277 . S
O852 C845 1.226 . S
O853 Cd844 2.356 . S
O853 C851 1.282 . S
C854 O855 1.306 . S
C854 O857 1.160 . S
O855 C854 1.306 . S
O855 Cd856 2.228 . S
Cd856 O855 2.228 . S
Cd856 O860 2.273 . S
Cd856 O864 2.277 . S
O857 C854 1.160 . S
O857 Cd858 2.203 . S
Cd858 O857 2.203 . S
Cd858 O860 2.411 . S
Cd858 O861 2.333 . S
Cd858 O862 2.352 . S
Cd858 O866 2.277 . S
Cd858 O867 2.356 . S
C859 O864 1.209 . S
C859 O866 1.226 . S
O860 Cd856 2.273 . S
O860 Cd858 2.411 . S
O860 C863 1.320 . S
O861 Cd858 2.333 . S
O861 C863 1.214 . S
O862 Cd858 2.352 . S
O862 C865 1.258 . S
C863 O860 1.320 . S
C863 O861 1.214 . S
O864 Cd856 2.277 . S
O864 C859 1.209 . S
C865 O862 1.258 . S
C865 O867 1.282 . S
O866 Cd858 2.277 . S
O866 C859 1.226 . S
O867 Cd858 2.356 . S
O867 C865 1.282 . S
C868 O869 1.306 . S
C868 O871 1.160 . S
O869 C868 1.306 . S
O869 Cd870 2.228 . S
Cd870 O869 2.228 . S
Cd870 O874 2.273 . S
Cd870 O878 2.277 . S
O871 C868 1.160 . S
O871 Cd872 2.203 . S
Cd872 O871 2.203 . S
Cd872 O874 2.411 . S
Cd872 O875 2.333 . S
Cd872 O876 2.352 . S
Cd872 O880 2.277 . S
Cd872 O881 2.356 . S
C873 O878 1.209 . S
C873 O880 1.226 . S
O874 Cd870 2.273 . S
O874 Cd872 2.411 . S
O874 C877 1.320 . S
O875 Cd872 2.333 . S
O875 C877 1.214 . S
O876 Cd872 2.352 . S
O876 C879 1.258 . S
C877 O874 1.320 . S
C877 O875 1.214 . S
O878 Cd870 2.277 . S
O878 C873 1.209 . S
C879 O876 1.258 . S
C879 O881 1.282 . S
O880 Cd872 2.277 . S
O880 C873 1.226 . S
O881 Cd872 2.356 . S
O881 C879 1.282 . S
C882 O883 1.306 . S
C882 O885 1.160 . S
O883 C882 1.306 . S
O883 Cd884 2.228 . S
Cd884 O883 2.228 . S
Cd884 O888 2.273 . S
Cd884 O892 2.277 . S
O885 C882 1.160 . S
O885 Cd886 2.203 . S
Cd886 O885 2.203 . S
Cd886 O888 2.411 . S
Cd886 O889 2.333 . S
Cd886 O890 2.352 . S
Cd886 O894 2.277 . S
Cd886 O895 2.356 . S
C887 O892 1.209 . S
C887 O894 1.226 . S
O888 Cd884 2.273 . S
O888 Cd886 2.411 . S
O888 C891 1.320 . S
O889 Cd886 2.333 . S
O889 C891 1.214 . S
O890 Cd886 2.352 . S
O890 C893 1.258 . S
C891 O888 1.320 . S
C891 O889 1.214 . S
O892 Cd884 2.277 . S
O892 C887 1.209 . S
C893 O890 1.258 . S
C893 O895 1.282 . S
O894 Cd886 2.277 . S
O894 C887 1.226 . S
O895 Cd886 2.356 . S
O895 C893 1.282 . S
C896 O897 1.306 . S
C896 O899 1.160 . S
O897 C896 1.306 . S
O897 Cd898 2.228 . S
Cd898 O897 2.228 . S
Cd898 O902 2.273 . S
Cd898 O906 2.277 . S
O899 C896 1.160 . S
O899 Cd900 2.203 . S
Cd900 O899 2.203 . S
Cd900 O902 2.411 . S
Cd900 O903 2.333 . S
Cd900 O904 2.352 . S
Cd900 O908 2.277 . S
Cd900 O909 2.356 . S
C901 O906 1.209 . S
C901 O908 1.226 . S
O902 Cd898 2.273 . S
O902 Cd900 2.411 . S
O902 C905 1.320 . S
O903 Cd900 2.333 . S
O903 C905 1.214 . S
O904 Cd900 2.352 . S
O904 C907 1.258 . S
C905 O902 1.320 . S
C905 O903 1.214 . S
O906 Cd898 2.277 . S
O906 C901 1.209 . S
C907 O904 1.258 . S
C907 O909 1.282 . S
O908 Cd900 2.277 . S
O908 C901 1.226 . S
O909 Cd900 2.356 . S
O909 C907 1.282 . S
C910 O911 1.306 . S
C910 O913 1.160 . S
O911 C910 1.306 . S
O911 Cd912 2.228 . S
Cd912 O911 2.228 . S
Cd912 O916 2.273 . S
Cd912 O920 2.277 . S
O913 C910 1.160 . S
O913 Cd914 2.203 . S
Cd914 O913 2.203 . S
Cd914 O916 2.411 . S
Cd914 O917 2.333 . S
Cd914 O918 2.352 . S
Cd914 O922 2.277 . S
Cd914 O923 2.356 . S
C915 O920 1.209 . S
C915 O922 1.226 . S
O916 Cd912 2.273 . S
O916 Cd914 2.411 . S
O916 C919 1.320 . S
O917 Cd914 2.333 . S
O917 C919 1.214 . S
O918 Cd914 2.352 . S
O918 C921 1.258 . S
C919 O916 1.320 . S
C919 O917 1.214 . S
O920 Cd912 2.277 . S
O920 C915 1.209 . S
C921 O918 1.258 . S
C921 O923 1.282 . S
O922 Cd914 2.277 . S
O922 C915 1.226 . S
O923 Cd914 2.356 . S
O923 C921 1.282 . S
C924 O925 1.306 . S
C924 O927 1.160 . S
O925 C924 1.306 . S
O925 Cd926 2.228 . S
Cd926 O925 2.228 . S
Cd926 O930 2.273 . S
Cd926 O934 2.277 . S
O927 C924 1.160 . S
O927 Cd928 2.203 . S
Cd928 O927 2.203 . S
Cd928 O930 2.411 . S
Cd928 O931 2.333 . S
Cd928 O932 2.352 . S
Cd928 O936 2.277 . S
Cd928 O937 2.356 . S
C929 O934 1.209 . S
C929 O936 1.226 . S
O930 Cd926 2.273 . S
O930 Cd928 2.411 . S
O930 C933 1.320 . S
O931 Cd928 2.333 . S
O931 C933 1.214 . S
O932 Cd928 2.352 . S
O932 C935 1.258 . S
C933 O930 1.320 . S
C933 O931 1.214 . S
O934 Cd926 2.277 . S
O934 C929 1.209 . S
C935 O932 1.258 . S
C935 O937 1.282 . S
O936 Cd928 2.277 . S
O936 C929 1.226 . S
O937 Cd928 2.356 . S
O937 C935 1.282 . S
C938 O939 1.306 . S
C938 O941 1.160 . S
O939 C938 1.306 . S
O939 Cd940 2.228 . S
Cd940 O939 2.228 . S
Cd940 O944 2.273 . S
Cd940 O948 2.277 . S
O941 C938 1.160 . S
O941 Cd942 2.203 . S
Cd942 O941 2.203 . S
Cd942 O944 2.411 . S
Cd942 O945 2.333 . S
Cd942 O946 2.352 . S
Cd942 O950 2.277 . S
Cd942 O951 2.356 . S
C943 O948 1.209 . S
C943 O950 1.226 . S
O944 Cd940 2.273 . S
O944 Cd942 2.411 . S
O944 C947 1.320 . S
O945 Cd942 2.333 . S
O945 C947 1.214 . S
O946 Cd942 2.352 . S
O946 C949 1.258 . S
C947 O944 1.320 . S
C947 O945 1.214 . S
O948 Cd940 2.277 . S
O948 C943 1.209 . S
C949 O946 1.258 . S
C949 O951 1.282 . S
O950 Cd942 2.277 . S
O950 C943 1.226 . S
O951 Cd942 2.356 . S
O951 C949 1.282 . S
C952 O953 1.306 . S
C952 O955 1.160 . S
O953 C952 1.306 . S
O953 Cd954 2.228 . S
Cd954 O953 2.228 . S
Cd954 O958 2.273 . S
Cd954 O962 2.277 . S
O955 C952 1.160 . S
O955 Cd956 2.203 . S
Cd956 O955 2.203 . S
Cd956 O958 2.411 . S
Cd956 O959 2.333 . S
Cd956 O960 2.352 . S
Cd956 O964 2.277 . S
Cd956 O965 2.356 . S
C957 O962 1.209 . S
C957 O964 1.226 . S
O958 Cd954 2.273 . S
O958 Cd956 2.411 . S
O958 C961 1.320 . S
O959 Cd956 2.333 . S
O959 C961 1.214 . S
O960 Cd956 2.352 . S
O960 C963 1.258 . S
C961 O958 1.320 . S
C961 O959 1.214 . S
O962 Cd954 2.277 . S
O962 C957 1.209 . S
C963 O960 1.258 . S
C963 O965 1.282 . S
O964 Cd956 2.277 . S
O964 C957 1.226 . S
O965 Cd956 2.356 . S
O965 C963 1.282 . S
C966 O967 1.306 . S
C966 O969 1.160 . S
O967 C966 1.306 . S
O967 Cd968 2.228 . S
Cd968 O967 2.228 . S
Cd968 O972 2.273 . S
Cd968 O976 2.277 . S
O969 C966 1.160 . S
O969 Cd970 2.203 . S
Cd970 O969 2.203 . S
Cd970 O972 2.411 . S
Cd970 O973 2.333 . S
Cd970 O974 2.352 . S
Cd970 O978 2.277 . S
Cd970 O979 2.356 . S
C971 O976 1.209 . S
C971 O978 1.226 . S
O972 Cd968 2.273 . S
O972 Cd970 2.411 . S
O972 C975 1.320 . S
O973 Cd970 2.333 . S
O973 C975 1.214 . S
O974 Cd970 2.352 . S
O974 C977 1.258 . S
C975 O972 1.320 . S
C975 O973 1.214 . S
O976 Cd968 2.277 . S
O976 C971 1.209 . S
C977 O974 1.258 . S
C977 O979 1.282 . S
O978 Cd970 2.277 . S
O978 C971 1.226 . S
O979 Cd970 2.356 . S
O979 C977 1.282 . S
C980 O981 1.306 . S
C980 O983 1.160 . S
O981 C980 1.306 . S
O981 Cd982 2.228 . S
Cd982 O981 2.228 . S
Cd982 O986 2.273 . S
Cd982 O990 2.277 . S
O983 C980 1.160 . S
O983 Cd984 2.203 . S
Cd984 O983 2.203 . S
Cd984 O986 2.411 . S
Cd984 O987 2.333 . S
Cd984 O988 2.352 . S
Cd984 O992 2.277 . S
Cd984 O993 2.356 . S
C985 O990 1.209 . S
C985 O992 1.226 . S
O986 Cd982 2.273 . S
O986 Cd984 2.411 . S
O986 C989 1.320 . S
O987 Cd984 2.333 . S
O987 C989 1.214 . S
O988 Cd984 2.352 . S
O988 C991 1.258 . S
C989 O986 1.320 . S
C989 O987 1.214 . S
O990 Cd982 2.277 . S
O990 C985 1.209 . S
C991 O988 1.258 . S
C991 O993 1.282 . S
O992 Cd984 2.277 . S
O992 C985 1.226 . S
O993 Cd984 2.356 . S
O993 C991 1.282 . S
C994 O995 1.306 . S
C994 O997 1.160 . S
O995 C994 1.306 . S
O995 Cd996 2.228 . S
Cd996 O995 2.228 . S
Cd996 O1000 2.273 . S
Cd996 O1004 2.277 . S
O997 C994 1.160 . S
O997 Cd998 2.203 . S
Cd998 O997 2.203 . S
Cd998 O1000 2.411 . S
Cd998 O1001 2.333 . S
Cd998 O1002 2.352 . S
Cd998 O1006 2.277 . S
Cd998 O1007 2.356 . S
C999 O1004 1.209 . S
C999 O1006 1.226 . S
O1000 Cd996 2.273 . S
O1000 Cd998 2.411 . S
O1000 C1003 1.320 . S
O1001 Cd998 2.333 . S
O1001 C1003 1.214 . S
O1002 Cd998 2.352 . S
O1002 C1005 1.258 . S
C1003 O1000 1.320 . S
C1003 O1001 1.214 . S
O1004 Cd996 2.277 . S
O1004 C999 1.209 . S
C1005 O1002 1.258 . S
C1005 O1007 1.282 . S
O1006 Cd998 2.277 . S
O1006 C999 1.226 . S
O1007 Cd998 2.356 . S
O1007 C1005 1.282 . S
C1008 O1009 1.306 . S
C1008 O1011 1.160 . S
O1009 C1008 1.306 . S
O1009 Cd1010 2.228 . S
Cd1010 O1009 2.228 . S
Cd1010 O1014 2.273 . S
Cd1010 O1018 2.277 . S
O1011 C1008 1.160 . S
O1011 Cd1012 2.203 . S
Cd1012 O1011 2.203 . S
Cd1012 O1014 2.411 . S
Cd1012 O1015 2.333 . S
Cd1012 O1016 2.352 . S
Cd1012 O1020 2.277 . S
Cd1012 O1021 2.356 . S
C1013 O1018 1.209 . S
C1013 O1020 1.226 . S
O1014 Cd1010 2.273 . S
O1014 Cd1012 2.411 . S
O1014 C1017 1.320 . S
O1015 Cd1012 2.333 . S
O1015 C1017 1.214 . S
O1016 Cd1012 2.352 . S
O1016 C1019 1.258 . S
C1017 O1014 1.320 . S
C1017 O1015 1.214 . S
O1018 Cd1010 2.277 . S
O1018 C1013 1.209 . S
C1019 O1016 1.258 . S
C1019 O1021 1.282 . S
O1020 Cd1012 2.277 . S
O1020 C1013 1.226 . S
O1021 Cd1012 2.356 . S
O1021 C1019 1.282 . S
C1022 O1023 1.306 . S
C1022 O1025 1.160 . S
O1023 C1022 1.306 . S
O1023 Cd1024 2.228 . S
Cd1024 O1023 2.228 . S
Cd1024 O1028 2.273 . S
Cd1024 O1032 2.277 . S
O1025 C1022 1.160 . S
O1025 Cd1026 2.203 . S
Cd1026 O1025 2.203 . S
Cd1026 O1028 2.411 . S
Cd1026 O1029 2.333 . S
Cd1026 O1030 2.352 . S
Cd1026 O1034 2.277 . S
Cd1026 O1035 2.356 . S
C1027 O1032 1.209 . S
C1027 O1034 1.226 . S
O1028 Cd1024 2.273 . S
O1028 Cd1026 2.411 . S
O1028 C1031 1.320 . S
O1029 Cd1026 2.333 . S
O1029 C1031 1.214 . S
O1030 Cd1026 2.352 . S
O1030 C1033 1.258 . S
C1031 O1028 1.320 . S
C1031 O1029 1.214 . S
O1032 Cd1024 2.277 . S
O1032 C1027 1.209 . S
C1033 O1030 1.258 . S
C1033 O1035 1.282 . S
O1034 Cd1026 2.277 . S
O1034 C1027 1.226 . S
O1035 Cd1026 2.356 . S
O1035 C1033 1.282 . S
C1036 O1037 1.306 . S
C1036 O1039 1.160 . S
O1037 C1036 1.306 . S
O1037 Cd1038 2.228 . S
Cd1038 O1037 2.228 . S
Cd1038 O1042 2.273 . S
Cd1038 O1046 2.277 . S
O1039 C1036 1.160 . S
O1039 Cd1040 2.203 . S
Cd1040 O1039 2.203 . S
Cd1040 O1042 2.411 . S
Cd1040 O1043 2.333 . S
Cd1040 O1044 2.352 . S
Cd1040 O1048 2.277 . S
Cd1040 O1049 2.356 . S
C1041 O1046 1.209 . S
C1041 O1048 1.226 . S
O1042 Cd1038 2.273 . S
O1042 Cd1040 2.411 . S
O1042 C1045 1.320 . S
O1043 Cd1040 2.333 . S
O1043 C1045 1.214 . S
O1044 Cd1040 2.352 . S
O1044 C1047 1.258 . S
C1045 O1042 1.320 . S
C1045 O1043 1.214 . S
O1046 Cd1038 2.277 . S
O1046 C1041 1.209 . S
C1047 O1044 1.258 . S
C1047 O1049 1.282 . S
O1048 Cd1040 2.277 . S
O1048 C1041 1.226 . S
O1049 Cd1040 2.356 . S
O1049 C1047 1.282 . S
C1050 O1051 1.306 . S
C1050 O1053 1.160 . S
O1051 C1050 1.306 . S
O1051 Cd1052 2.228 . S
Cd1052 O1051 2.228 . S
Cd1052 O1056 2.273 . S
Cd1052 O1060 2.277 . S
O1053 C1050 1.160 . S
O1053 Cd1054 2.203 . S
Cd1054 O1053 2.203 . S
Cd1054 O1056 2.411 . S
Cd1054 O1057 2.333 . S
Cd1054 O1058 2.352 . S
Cd1054 O1062 2.277 . S
Cd1054 O1063 2.356 . S
C1055 O1060 1.209 . S
C1055 O1062 1.226 . S
O1056 Cd1052 2.273 . S
O1056 Cd1054 2.411 . S
O1056 C1059 1.320 . S
O1057 Cd1054 2.333 . S
O1057 C1059 1.214 . S
O1058 Cd1054 2.352 . S
O1058 C1061 1.258 . S
C1059 O1056 1.320 . S
C1059 O1057 1.214 . S
O1060 Cd1052 2.277 . S
O1060 C1055 1.209 . S
C1061 O1058 1.258 . S
C1061 O1063 1.282 . S
O1062 Cd1054 2.277 . S
O1062 C1055 1.226 . S
O1063 Cd1054 2.356 . S
O1063 C1061 1.282 . S
C1064 O1065 1.306 . S
C1064 O1067 1.160 . S
O1065 C1064 1.306 . S
O1065 Cd1066 2.228 . S
Cd1066 O1065 2.228 . S
Cd1066 O1070 2.273 . S
Cd1066 O1074 2.277 . S
O1067 C1064 1.160 . S
O1067 Cd1068 2.203 . S
Cd1068 O1067 2.203 . S
Cd1068 O1070 2.411 . S
Cd1068 O1071 2.333 . S
Cd1068 O1072 2.352 . S
Cd1068 O1076 2.277 . S
Cd1068 O1077 2.356 . S
C1069 O1074 1.209 . S
C1069 O1076 1.226 . S
O1070 Cd1066 2.273 . S
O1070 Cd1068 2.411 . S
O1070 C1073 1.320 . S
O1071 Cd1068 2.333 . S
O1071 C1073 1.214 . S
O1072 Cd1068 2.352 . S
O1072 C1075 1.258 . S
C1073 O1070 1.320 . S
C1073 O1071 1.214 . S
O1074 Cd1066 2.277 . S
O1074 C1069 1.209 . S
C1075 O1072 1.258 . S
C1075 O1077 1.282 . S
O1076 Cd1068 2.277 . S
O1076 C1069 1.226 . S
O1077 Cd1068 2.356 . S
O1077 C1075 1.282 . S
C1078 O1079 1.306 . S
C1078 O1081 1.160 . S
O1079 C1078 1.306 . S
O1079 Cd1080 2.228 . S
Cd1080 O1079 2.228 . S
Cd1080 O1084 2.273 . S
Cd1080 O1088 2.277 . S
O1081 C1078 1.160 . S
O1081 Cd1082 2.203 . S
Cd1082 O1081 2.203 . S
Cd1082 O1084 2.411 . S
Cd1082 O1085 2.333 . S
Cd1082 O1086 2.352 . S
Cd1082 O1090 2.277 . S
Cd1082 O1091 2.356 . S
C1083 O1088 1.209 . S
C1083 O1090 1.226 . S
O1084 Cd1080 2.273 . S
O1084 Cd1082 2.411 . S
O1084 C1087 1.320 . S
O1085 Cd1082 2.333 . S
O1085 C1087 1.214 . S
O1086 Cd1082 2.352 . S
O1086 C1089 1.258 . S
C1087 O1084 1.320 . S
C1087 O1085 1.214 . S
O1088 Cd1080 2.277 . S
O1088 C1083 1.209 . S
C1089 O1086 1.258 . S
C1089 O1091 1.282 . S
O1090 Cd1082 2.277 . S
O1090 C1083 1.226 . S
O1091 Cd1082 2.356 . S
O1091 C1089 1.282 . S
C1092 O1093 1.306 . S
C1092 O1095 1.160 . S
O1093 C1092 1.306 . S
O1093 Cd1094 2.228 . S
Cd1094 O1093 2.228 . S
Cd1094 O1098 2.273 . S
Cd1094 O1102 2.277 . S
O1095 C1092 1.160 . S
O1095 Cd1096 2.203 . S
Cd1096 O1095 2.203 . S
Cd1096 O1098 2.411 . S
Cd1096 O1099 2.333 . S
Cd1096 O1100 2.352 . S
Cd1096 O1104 2.277 . S
Cd1096 O1105 2.356 . S
C1097 O1102 1.209 . S
C1097 O1104 1.226 . S
O1098 Cd1094 2.273 . S
O1098 Cd1096 2.411 . S
O1098 C1101 1.320 . S
O1099 Cd1096 2.333 . S
O1099 C1101 1.214 . S
O1100 Cd1096 2.352 . S
O1100 C1103 1.258 . S
C1101 O1098 1.320 . S
C1101 O1099 1.214 . S
O1102 Cd1094 2.277 . S
O1102 C1097 1.209 . S
C1103 O1100 1.258 . S
C1103 O1105 1.282 . S
O1104 Cd1096 2.277 . S
O1104 C1097 1.226 . S
O1105 Cd1096 2.356 . S
O1105 C1103 1.282 . S
C1106 O1107 1.306 . S
C1106 O1109 1.160 . S
O1107 C1106 1.306 . S
O1107 Cd1108 2.228 . S
Cd1108 O1107 2.228 . S
Cd1108 O1112 2.273 . S
Cd1108 O1116 2.277 . S
O1109 C1106 1.160 . S
O1109 Cd1110 2.203 . S
Cd1110 O1109 2.203 . S
Cd1110 O1112 2.411 . S
Cd1110 O1113 2.333 . S
Cd1110 O1114 2.352 . S
Cd1110 O1118 2.277 . S
Cd1110 O1119 2.356 . S
C1111 O1116 1.209 . S
C1111 O1118 1.226 . S
O1112 Cd1108 2.273 . S
O1112 Cd1110 2.411 . S
O1112 C1115 1.320 . S
O1113 Cd1110 2.333 . S
O1113 C1115 1.214 . S
O1114 Cd1110 2.352 . S
O1114 C1117 1.258 . S
C1115 O1112 1.320 . S
C1115 O1113 1.214 . S
O1116 Cd1108 2.277 . S
O1116 C1111 1.209 . S
C1117 O1114 1.258 . S
C1117 O1119 1.282 . S
O1118 Cd1110 2.277 . S
O1118 C1111 1.226 . S
O1119 Cd1110 2.356 . S
O1119 C1117 1.282 . S
C1120 O1121 1.306 . S
C1120 O1123 1.160 . S
O1121 C1120 1.306 . S
O1121 Cd1122 2.228 . S
Cd1122 O1121 2.228 . S
Cd1122 O1126 2.273 . S
Cd1122 O1130 2.277 . S
O1123 C1120 1.160 . S
O1123 Cd1124 2.203 . S
Cd1124 O1123 2.203 . S
Cd1124 O1126 2.411 . S
Cd1124 O1127 2.333 . S
Cd1124 O1128 2.352 . S
Cd1124 O1132 2.277 . S
Cd1124 O1133 2.356 . S
C1125 O1130 1.209 . S
C1125 O1132 1.226 . S
O1126 Cd1122 2.273 . S
O1126 Cd1124 2.411 . S
O1126 C1129 1.320 . S
O1127 Cd1124 2.333 . S
O1127 C1129 1.214 . S
O1128 Cd1124 2.352 . S
O1128 C1131 1.258 . S
C1129 O1126 1.320 . S
C1129 O1127 1.214 . S
O1130 Cd1122 2.277 . S
O1130 C1125 1.209 . S
C1131 O1128 1.258 . S
C1131 O1133 1.282 . S
O1132 Cd1124 2.277 . S
O1132 C1125 1.226 . S
O1133 Cd1124 2.356 . S
O1133 C1131 1.282 . S
C1134 O1135 1.306 . S
C1134 O1137 1.160 . S
O1135 C1134 1.306 . S
O1135 Cd1136 2.228 . S
Cd1136 O1135 2.228 . S
Cd1136 O1140 2.273 . S
Cd1136 O1144 2.277 . S
O1137 C1134 1.160 . S
O1137 Cd1138 2.203 . S
Cd1138 O1137 2.203 . S
Cd1138 O1140 2.411 . S
Cd1138 O1141 2.333 . S
Cd1138 O1142 2.352 . S
Cd1138 O1146 2.277 . S
Cd1138 O1147 2.356 . S
C1139 O1144 1.209 . S
C1139 O1146 1.226 . S
O1140 Cd1136 2.273 . S
O1140 Cd1138 2.411 . S
O1140 C1143 1.320 . S
O1141 Cd1138 2.333 . S
O1141 C1143 1.214 . S
O1142 Cd1138 2.352 . S
O1142 C1145 1.258 . S
C1143 O1140 1.320 . S
C1143 O1141 1.214 . S
O1144 Cd1136 2.277 . S
O1144 C1139 1.209 . S
C1145 O1142 1.258 . S
C1145 O1147 1.282 . S
O1146 Cd1138 2.277 . S
O1146 C1139 1.226 . S
O1147 Cd1138 2.356 . S
O1147 C1145 1.282 . S
C1148 O1149 1.306 . S
C1148 O1151 1.160 . S
O1149 C1148 1.306 . S
O1149 Cd1150 2.228 . S
Cd1150 O1149 2.228 . S
Cd1150 O1154 2.273 . S
Cd1150 O1158 2.277 . S
O1151 C1148 1.160 . S
O1151 Cd1152 2.203 . S
Cd1152 O1151 2.203 . S
Cd1152 O1154 2.411 . S
Cd1152 O1155 2.333 . S
Cd1152 O1156 2.352 . S
Cd1152 O1160 2.277 . S
Cd1152 O1161 2.356 . S
C1153 O1158 1.209 . S
C1153 O1160 1.226 . S
O1154 Cd1150 2.273 . S
O1154 Cd1152 2.411 . S
O1154 C1157 1.320 . S
O1155 Cd1152 2.333 . S
O1155 C1157 1.214 . S
O1156 Cd1152 2.352 . S
O1156 C1159 1.258 . S
C1157 O1154 1.320 . S
C1157 O1155 1.214 . S
O1158 Cd1150 2.277 . S
O1158 C1153 1.209 . S
C1159 O1156 1.258 . S
C1159 O1161 1.282 . S
O1160 Cd1152 2.277 . S
O1160 C1153 1.226 . S
O1161 Cd1152 2.356 . S
O1161 C1159 1.282 . S
C1162 O1163 1.306 . S
C1162 O1165 1.160 . S
O1163 C1162 1.306 . S
O1163 Cd1164 2.228 . S
Cd1164 O1163 2.228 . S
Cd1164 O1168 2.273 . S
Cd1164 O1172 2.277 . S
O1165 C1162 1.160 . S
O1165 Cd1166 2.203 . S
Cd1166 O1165 2.203 . S
Cd1166 O1168 2.411 . S
Cd1166 O1169 2.333 . S
Cd1166 O1170 2.352 . S
Cd1166 O1174 2.277 . S
Cd1166 O1175 2.356 . S
C1167 O1172 1.209 . S
C1167 O1174 1.226 . S
O1168 Cd1164 2.273 . S
O1168 Cd1166 2.411 . S
O1168 C1171 1.320 . S
O1169 Cd1166 2.333 . S
O1169 C1171 1.214 . S
O1170 Cd1166 2.352 . S
O1170 C1173 1.258 . S
C1171 O1168 1.320 . S
C1171 O1169 1.214 . S
O1172 Cd1164 2.277 . S
O1172 C1167 1.209 . S
C1173 O1170 1.258 . S
C1173 O1175 1.282 . S
O1174 Cd1166 2.277 . S
O1174 C1167 1.226 . S
O1175 Cd1166 2.356 . S
O1175 C1173 1.282 . S
C1176 O1177 1.306 . S
C1176 O1179 1.160 . S
O1177 C1176 1.306 . S
O1177 Cd1178 2.228 . S
Cd1178 O1177 2.228 . S
Cd1178 O1182 2.273 . S
Cd1178 O1186 2.277 . S
O1179 C1176 1.160 . S
O1179 Cd1180 2.203 . S
Cd1180 O1179 2.203 . S
Cd1180 O1182 2.411 . S
Cd1180 O1183 2.333 . S
Cd1180 O1184 2.352 . S
Cd1180 O1188 2.277 . S
Cd1180 O1189 2.356 . S
C1181 O1186 1.209 . S
C1181 O1188 1.226 . S
O1182 Cd1178 2.273 . S
O1182 Cd1180 2.411 . S
O1182 C1185 1.320 . S
O1183 Cd1180 2.333 . S
O1183 C1185 1.214 . S
O1184 Cd1180 2.352 . S
O1184 C1187 1.258 . S
C1185 O1182 1.320 . S
C1185 O1183 1.214 . S
O1186 Cd1178 2.277 . S
O1186 C1181 1.209 . S
C1187 O1184 1.258 . S
C1187 O1189 1.282 . S
O1188 Cd1180 2.277 . S
O1188 C1181 1.226 . S
O1189 Cd1180 2.356 . S
O1189 C1187 1.282 . S
C1190 O1191 1.306 . S
C1190 O1193 1.160 . S
O1191 C1190 1.306 . S
O1191 Cd1192 2.228 . S
Cd1192 O1191 2.228 . S
Cd1192 O1196 2.273 . S
Cd1192 O1200 2.277 . S
O1193 C1190 1.160 . S
O1193 Cd1194 2.203 . S
Cd1194 O1193 2.203 . S
Cd1194 O1196 2.411 . S
Cd1194 O1197 2.333 . S
Cd1194 O1198 2.352 . S
Cd1194 O1202 2.277 . S
Cd1194 O1203 2.356 . S
C1195 O1200 1.209 . S
C1195 O1202 1.226 . S
O1196 Cd1192 2.273 . S
O1196 Cd1194 2.411 . S
O1196 C1199 1.320 . S
O1197 Cd1194 2.333 . S
O1197 C1199 1.214 . S
O1198 Cd1194 2.352 . S
O1198 C1201 1.258 . S
C1199 O1196 1.320 . S
C1199 O1197 1.214 . S
O1200 Cd1192 2.277 . S
O1200 C1195 1.209 . S
C1201 O1198 1.258 . S
C1201 O1203 1.282 . S
O1202 Cd1194 2.277 . S
O1202 C1195 1.226 . S
O1203 Cd1194 2.356 . S
O1203 C1201 1.282 . S
C1204 O1205 1.306 . S
C1204 O1207 1.160 . S
O1205 C1204 1.306 . S
O1205 Cd1206 2.228 . S
Cd1206 O1205 2.228 . S
Cd1206 O1210 2.273 . S
Cd1206 O1214 2.277 . S
O1207 C1204 1.160 . S
O1207 Cd1208 2.203 . S
Cd1208 O1207 2.203 . S
Cd1208 O1210 2.411 . S
Cd1208 O1211 2.333 . S
Cd1208 O1212 2.352 . S
Cd1208 O1216 2.277 . S
Cd1208 O1217 2.356 . S
C1209 O1214 1.209 . S
C1209 O1216 1.226 . S
O1210 Cd1206 2.273 . S
O1210 Cd1208 2.411 . S
O1210 C1213 1.320 . S
O1211 Cd1208 2.333 . S
O1211 C1213 1.214 . S
O1212 Cd1208 2.352 . S
O1212 C1215 1.258 . S
C1213 O1210 1.320 . S
C1213 O1211 1.214 . S
O1214 Cd1206 2.277 . S
O1214 C1209 1.209 . S
C1215 O1212 1.258 . S
C1215 O1217 1.282 . S
O1216 Cd1208 2.277 . S
O1216 C1209 1.226 . S
O1217 Cd1208 2.356 . S
O1217 C1215 1.282 . S
C1218 O1219 1.306 . S
C1218 O1221 1.160 . S
O1219 C1218 1.306 . S
O1219 Cd1220 2.228 . S
Cd1220 O1219 2.228 . S
Cd1220 O1224 2.273 . S
Cd1220 O1228 2.277 . S
O1221 C1218 1.160 . S
O1221 Cd1222 2.203 . S
Cd1222 O1221 2.203 . S
Cd1222 O1224 2.411 . S
Cd1222 O1225 2.333 . S
Cd1222 O1226 2.352 . S
Cd1222 O1230 2.277 . S
Cd1222 O1231 2.356 . S
C1223 O1228 1.209 . S
C1223 O1230 1.226 . S
O1224 Cd1220 2.273 . S
O1224 Cd1222 2.411 . S
O1224 C1227 1.320 . S
O1225 Cd1222 2.333 . S
O1225 C1227 1.214 . S
O1226 Cd1222 2.352 . S
O1226 C1229 1.258 . S
C1227 O1224 1.320 . S
C1227 O1225 1.214 . S
O1228 Cd1220 2.277 . S
O1228 C1223 1.209 . S
C1229 O1226 1.258 . S
C1229 O1231 1.282 . S
O1230 Cd1222 2.277 . S
O1230 C1223 1.226 . S
O1231 Cd1222 2.356 . S
O1231 C1229 1.282 . S
C1232 O1233 1.306 . S
C1232 O1235 1.160 . S
O1233 C1232 1.306 . S
O1233 Cd1234 2.228 . S
Cd1234 O1233 2.228 . S
Cd1234 O1238 2.273 . S
Cd1234 O1242 2.277 . S
O1235 C1232 1.160 . S
O1235 Cd1236 2.203 . S
Cd1236 O1235 2.203 . S
Cd1236 O1238 2.411 . S
Cd1236 O1239 2.333 . S
Cd1236 O1240 2.352 . S
Cd1236 O1244 2.277 . S
Cd1236 O1245 2.356 . S
C1237 O1242 1.209 . S
C1237 O1244 1.226 . S
O1238 Cd1234 2.273 . S
O1238 Cd1236 2.411 . S
O1238 C1241 1.320 . S
O1239 Cd1236 2.333 . S
O1239 C1241 1.214 . S
O1240 Cd1236 2.352 . S
O1240 C1243 1.258 . S
C1241 O1238 1.320 . S
C1241 O1239 1.214 . S
O1242 Cd1234 2.277 . S
O1242 C1237 1.209 . S
C1243 O1240 1.258 . S
C1243 O1245 1.282 . S
O1244 Cd1236 2.277 . S
O1244 C1237 1.226 . S
O1245 Cd1236 2.356 . S
O1245 C1243 1.282 . S
C1246 O1247 1.306 . S
C1246 O1249 1.160 . S
O1247 C1246 1.306 . S
O1247 Cd1248 2.228 . S
Cd1248 O1247 2.228 . S
Cd1248 O1252 2.273 . S
Cd1248 O1256 2.277 . S
O1249 C1246 1.160 . S
O1249 Cd1250 2.203 . S
Cd1250 O1249 2.203 . S
Cd1250 O1252 2.411 . S
Cd1250 O1253 2.333 . S
Cd1250 O1254 2.352 . S
Cd1250 O1258 2.277 . S
Cd1250 O1259 2.356 . S
C1251 O1256 1.209 . S
C1251 O1258 1.226 . S
O1252 Cd1248 2.273 . S
O1252 Cd1250 2.411 . S
O1252 C1255 1.320 . S
O1253 Cd1250 2.333 . S
O1253 C1255 1.214 . S
O1254 Cd1250 2.352 . S
O1254 C1257 1.258 . S
C1255 O1252 1.320 . S
C1255 O1253 1.214 . S
O1256 Cd1248 2.277 . S
O1256 C1251 1.209 . S
C1257 O1254 1.258 . S
C1257 O1259 1.282 . S
O1258 Cd1250 2.277 . S
O1258 C1251 1.226 . S
O1259 Cd1250 2.356 . S
O1259 C1257 1.282 . S
C1260 O1261 1.306 . S
C1260 O1263 1.160 . S
O1261 C1260 1.306 . S
O1261 Cd1262 2.228 . S
Cd1262 O1261 2.228 . S
Cd1262 O1266 2.273 . S
Cd1262 O1270 2.277 . S
O1263 C1260 1.160 . S
O1263 Cd1264 2.203 . S
Cd1264 O1263 2.203 . S
Cd1264 O1266 2.411 . S
Cd1264 O1267 2.333 . S
Cd1264 O1268 2.352 . S
Cd1264 O1272 2.277 . S
Cd1264 O1273 2.356 . S
C1265 O1270 1.209 . S
C1265 O1272 1.226 . S
O1266 Cd1262 2.273 . S
O1266 Cd1264 2.411 . S
O1266 C1269 1.320 . S
O1267 Cd1264 2.333 . S
O1267 C1269 1.214 . S
O1268 Cd1264 2.352 . S
O1268 C1271 1.258 . S
C1269 O1266 1.320 . S
C1269 O1267 1.214 . S
O1270 Cd1262 2.277 . S
O1270 C1265 1.209 . S
C1271 O1268 1.258 . S
C1271 O1273 1.282 . S
O1272 Cd1264 2.277 . S
O1272 C1265 1.226 . S
O1273 Cd1264 2.356 . S
O1273 C1271 1.282 . S
C1274 O1275 1.306 . S
C1274 O1277 1.160 . S
O1275 C1274 1.306 . S
O1275 Cd1276 2.228 . S
Cd1276 O1275 2.228 . S
Cd1276 O1280 2.273 . S
Cd1276 O1284 2.277 . S
O1277 C1274 1.160 . S
O1277 Cd1278 2.203 . S
Cd1278 O1277 2.203 . S
Cd1278 O1280 2.411 . S
Cd1278 O1281 2.333 . S
Cd1278 O1282 2.352 . S
Cd1278 O1286 2.277 . S
Cd1278 O1287 2.356 . S
C1279 O1284 1.209 . S
C1279 O1286 1.226 . S
O1280 Cd1276 2.273 . S
O1280 Cd1278 2.411 . S
O1280 C1283 1.320 . S
O1281 Cd1278 2.333 . S
O1281 C1283 1.214 . S
O1282 Cd1278 2.352 . S
O1282 C1285 1.258 . S
C1283 O1280 1.320 . S
C1283 O1281 1.214 . S
O1284 Cd1276 2.277 . S
O1284 C1279 1.209 . S
C1285 O1282 1.258 . S
C1285 O1287 1.282 . S
O1286 Cd1278 2.277 . S
O1286 C1279 1.226 . S
O1287 Cd1278 2.356 . S
O1287 C1285 1.282 . S
C1288 O1289 1.306 . S
C1288 O1291 1.160 . S
O1289 C1288 1.306 . S
O1289 Cd1290 2.228 . S
Cd1290 O1289 2.228 . S
Cd1290 O1294 2.273 . S
Cd1290 O1298 2.277 . S
O1291 C1288 1.160 . S
O1291 Cd1292 2.203 . S
Cd1292 O1291 2.203 . S
Cd1292 O1294 2.411 . S
Cd1292 O1295 2.333 . S
Cd1292 O1296 2.352 . S
Cd1292 O1300 2.277 . S
Cd1292 O1301 2.356 . S
C1293 O1298 1.209 . S
C1293 O1300 1.226 . S
O1294 Cd1290 2.273 . S
O1294 Cd1292 2.411 . S
O1294 C1297 1.320 . S
O1295 Cd1292 2.333 . S
O1295 C1297 1.214 . S
O1296 Cd1292 2.352 . S
O1296 C1299 1.258 . S
C1297 O1294 1.320 . S
C1297 O1295 1.214 . S
O1298 Cd1290 2.277 . S
O1298 C1293 1.209 . S
C1299 O1296 1.258 . S
C1299 O1301 1.282 . S
O1300 Cd1292 2.277 . S
O1300 C1293 1.226 . S
O1301 Cd1292 2.356 . S
O1301 C1299 1.282 . S
C1302 O1303 1.306 . S
C1302 O1305 1.160 . S
O1303 C1302 1.306 . S
O1303 Cd1304 2.228 . S
Cd1304 O1303 2.228 . S
Cd1304 O1308 2.273 . S
Cd1304 O1312 2.277 . S
O1305 C1302 1.160 . S
O1305 Cd1306 2.203 . S
Cd1306 O1305 2.203 . S
Cd1306 O1308 2.411 . S
Cd1306 O1309 2.333 . S
Cd1306 O1310 2.352 . S
Cd1306 O1314 2.277 . S
Cd1306 O1315 2.356 . S
C1307 O1312 1.209 . S
C1307 O1314 1.226 . S
O1308 Cd1304 2.273 . S
O1308 Cd1306 2.411 . S
O1308 C1311 1.320 . S
O1309 Cd1306 2.333 . S
O1309 C1311 1.214 . S
O1310 Cd1306 2.352 . S
O1310 C1313 1.258 . S
C1311 O1308 1.320 . S
C1311 O1309 1.214 . S
O1312 Cd1304 2.277 . S
O1312 C1307 1.209 . S
C1313 O1310 1.258 . S
C1313 O1315 1.282 . S
O1314 Cd1306 2.277 . S
O1314 C1307 1.226 . S
O1315 Cd1306 2.356 . S
O1315 C1313 1.282 . S
C1316 O1317 1.306 . S
C1316 O1319 1.160 . S
O1317 C1316 1.306 . S
O1317 Cd1318 2.228 . S
Cd1318 O1317 2.228 . S
Cd1318 O1322 2.273 . S
Cd1318 O1326 2.277 . S
O1319 C1316 1.160 . S
O1319 Cd1320 2.203 . S
Cd1320 O1319 2.203 . S
Cd1320 O1322 2.411 . S
Cd1320 O1323 2.333 . S
Cd1320 O1324 2.352 . S
Cd1320 O1328 2.277 . S
Cd1320 O1329 2.356 . S
C1321 O1326 1.209 . S
C1321 O1328 1.226 . S
O1322 Cd1318 2.273 . S
O1322 Cd1320 2.411 . S
O1322 C1325 1.320 . S
O1323 Cd1320 2.333 . S
O1323 C1325 1.214 . S
O1324 Cd1320 2.352 . S
O1324 C1327 1.258 . S
C1325 O1322 1.320 . S
C1325 O1323 1.214 . S
O1326 Cd1318 2.277 . S
O1326 C1321 1.209 . S
C1327 O1324 1.258 . S
C1327 O1329 1.282 . S
O1328 Cd1320 2.277 . S
O1328 C1321 1.226 . S
O1329 Cd1320 2.356 . S
O1329 C1327 1.282 . S
C1330 O1331 1.306 . S
C1330 O1333 1.160 . S
O1331 C1330 1.306 . S
O1331 Cd1332 2.228 . S
Cd1332 O1331 2.228 . S
Cd1332 O1336 2.273 . S
Cd1332 O1340 2.277 . S
O1333 C1330 1.160 . S
O1333 Cd1334 2.203 . S
Cd1334 O1333 2.203 . S
Cd1334 O1336 2.411 . S
Cd1334 O1337 2.333 . S
Cd1334 O1338 2.352 . S
Cd1334 O1342 2.277 . S
Cd1334 O1343 2.356 . S
C1335 O1340 1.209 . S
C1335 O1342 1.226 . S
O1336 Cd1332 2.273 . S
O1336 Cd1334 2.411 . S
O1336 C1339 1.320 . S
O1337 Cd1334 2.333 . S
O1337 C1339 1.214 . S
O1338 Cd1334 2.352 . S
O1338 C1341 1.258 . S
C1339 O1336 1.320 . S
C1339 O1337 1.214 . S
O1340 Cd1332 2.277 . S
O1340 C1335 1.209 . S
C1341 O1338 1.258 . S
C1341 O1343 1.282 . S
O1342 Cd1334 2.277 . S
O1342 C1335 1.226 . S
O1343 Cd1334 2.356 . S
O1343 C1341 1.282 . S
C1344 O1345 1.306 . S
C1344 O1347 1.160 . S
O1345 C1344 1.306 . S
O1345 Cd1346 2.228 . S
Cd1346 O1345 2.228 . S
Cd1346 O1350 2.273 . S
Cd1346 O1354 2.277 . S
O1347 C1344 1.160 . S
O1347 Cd1348 2.203 . S
Cd1348 O1347 2.203 . S
Cd1348 O1350 2.411 . S
Cd1348 O1351 2.333 . S
Cd1348 O1352 2.352 . S
Cd1348 O1356 2.277 . S
Cd1348 O1357 2.356 . S
C1349 O1354 1.209 . S
C1349 O1356 1.226 . S
O1350 Cd1346 2.273 . S
O1350 Cd1348 2.411 . S
O1350 C1353 1.320 . S
O1351 Cd1348 2.333 . S
O1351 C1353 1.214 . S
O1352 Cd1348 2.352 . S
O1352 C1355 1.258 . S
C1353 O1350 1.320 . S
C1353 O1351 1.214 . S
O1354 Cd1346 2.277 . S
O1354 C1349 1.209 . S
C1355 O1352 1.258 . S
C1355 O1357 1.282 . S
O1356 Cd1348 2.277 . S
O1356 C1349 1.226 . S
O1357 Cd1348 2.356 . S
O1357 C1355 1.282 . S
C1358 O1359 1.306 . S
C1358 O1361 1.160 . S
O1359 C1358 1.306 . S
O1359 Cd1360 2.228 . S
Cd1360 O1359 2.228 . S
Cd1360 O1364 2.273 . S
Cd1360 O1368 2.277 . S
O1361 C1358 1.160 . S
O1361 Cd1362 2.203 . S
Cd1362 O1361 2.203 . S
Cd1362 O1364 2.411 . S
Cd1362 O1365 2.333 . S
Cd1362 O1366 2.352 . S
Cd1362 O1370 2.277 . S
Cd1362 O1371 2.356 . S
C1363 O1368 1.209 . S
C1363 O1370 1.226 . S
O1364 Cd1360 2.273 . S
O1364 Cd1362 2.411 . S
O1364 C1367 1.320 . S
O1365 Cd1362 2.333 . S
O1365 C1367 1.214 . S
O1366 Cd1362 2.352 . S
O1366 C1369 1.258 . S
C1367 O1364 1.320 . S
C1367 O1365 1.214 . S
O1368 Cd1360 2.277 . S
O1368 C1363 1.209 . S
C1369 O1366 1.258 . S
C1369 O1371 1.282 . S
O1370 Cd1362 2.277 . S
O1370 C1363 1.226 . S
O1371 Cd1362 2.356 . S
O1371 C1369 1.282 . S
C1372 O1373 1.306 . S
C1372 O1375 1.160 . S
O1373 C1372 1.306 . S
O1373 Cd1374 2.228 . S
Cd1374 O1373 2.228 . S
Cd1374 O1378 2.273 . S
Cd1374 O1382 2.277 . S
O1375 C1372 1.160 . S
O1375 Cd1376 2.203 . S
Cd1376 O1375 2.203 . S
Cd1376 O1378 2.411 . S
Cd1376 O1379 2.333 . S
Cd1376 O1380 2.352 . S
Cd1376 O1384 2.277 . S
Cd1376 O1385 2.356 . S
C1377 O1382 1.209 . S
C1377 O1384 1.226 . S
O1378 Cd1374 2.273 . S
O1378 Cd1376 2.411 . S
O1378 C1381 1.320 . S
O1379 Cd1376 2.333 . S
O1379 C1381 1.214 . S
O1380 Cd1376 2.352 . S
O1380 C1383 1.258 . S
C1381 O1378 1.320 . S
C1381 O1379 1.214 . S
O1382 Cd1374 2.277 . S
O1382 C1377 1.209 . S
C1383 O1380 1.258 . S
C1383 O1385 1.282 . S
O1384 Cd1376 2.277 . S
O1384 C1377 1.226 . S
O1385 Cd1376 2.356 . S
O1385 C1383 1.282 . S
C1386 O1387 1.306 . S
C1386 O1389 1.160 . S
O1387 C1386 1.306 . S
O1387 Cd1388 2.228 . S
Cd1388 O1387 2.228 . S
Cd1388 O1392 2.273 . S
Cd1388 O1396 2.277 . S
O1389 C1386 1.160 . S
O1389 Cd1390 2.203 . S
Cd1390 O1389 2.203 . S
Cd1390 O1392 2.411 . S
Cd1390 O1393 2.333 . S
Cd1390 O1394 2.352 . S
Cd1390 O1398 2.277 . S
Cd1390 O1399 2.356 . S
C1391 O1396 1.209 . S
C1391 O1398 1.226 . S
O1392 Cd1388 2.273 . S
O1392 Cd1390 2.411 . S
O1392 C1395 1.320 . S
O1393 Cd1390 2.333 . S
O1393 C1395 1.214 . S
O1394 Cd1390 2.352 . S
O1394 C1397 1.258 . S
C1395 O1392 1.320 . S
C1395 O1393 1.214 . S
O1396 Cd1388 2.277 . S
O1396 C1391 1.209 . S
C1397 O1394 1.258 . S
C1397 O1399 1.282 . S
O1398 Cd1390 2.277 . S
O1398 C1391 1.226 . S
O1399 Cd1390 2.356 . S
O1399 C1397 1.282 . S
C1400 O1401 1.306 . S
C1400 O1403 1.160 . S
O1401 C1400 1.306 . S
O1401 Cd1402 2.228 . S
Cd1402 O1401 2.228 . S
Cd1402 O1406 2.273 . S
Cd1402 O1410 2.277 . S
O1403 C1400 1.160 . S
O1403 Cd1404 2.203 . S
Cd1404 O1403 2.203 . S
Cd1404 O1406 2.411 . S
Cd1404 O1407 2.333 . S
Cd1404 O1408 2.352 . S
Cd1404 O1412 2.277 . S
Cd1404 O1413 2.356 . S
C1405 O1410 1.209 . S
C1405 O1412 1.226 . S
O1406 Cd1402 2.273 . S
O1406 Cd1404 2.411 . S
O1406 C1409 1.320 . S
O1407 Cd1404 2.333 . S
O1407 C1409 1.214 . S
O1408 Cd1404 2.352 . S
O1408 C1411 1.258 . S
C1409 O1406 1.320 . S
C1409 O1407 1.214 . S
O1410 Cd1402 2.277 . S
O1410 C1405 1.209 . S
C1411 O1408 1.258 . S
C1411 O1413 1.282 . S
O1412 Cd1404 2.277 . S
O1412 C1405 1.226 . S
O1413 Cd1404 2.356 . S
O1413 C1411 1.282 . S
C1414 O1415 1.306 . S
C1414 O1417 1.160 . S
O1415 C1414 1.306 . S
O1415 Cd1416 2.228 . S
Cd1416 O1415 2.228 . S
Cd1416 O1420 2.273 . S
Cd1416 O1424 2.277 . S
O1417 C1414 1.160 . S
O1417 Cd1418 2.203 . S
Cd1418 O1417 2.203 . S
Cd1418 O1420 2.411 . S
Cd1418 O1421 2.333 . S
Cd1418 O1422 2.352 . S
Cd1418 O1426 2.277 . S
Cd1418 O1427 2.356 . S
C1419 O1424 1.209 . S
C1419 O1426 1.226 . S
O1420 Cd1416 2.273 . S
O1420 Cd1418 2.411 . S
O1420 C1423 1.320 . S
O1421 Cd1418 2.333 . S
O1421 C1423 1.214 . S
O1422 Cd1418 2.352 . S
O1422 C1425 1.258 . S
C1423 O1420 1.320 . S
C1423 O1421 1.214 . S
O1424 Cd1416 2.277 . S
O1424 C1419 1.209 . S
C1425 O1422 1.258 . S
C1425 O1427 1.282 . S
O1426 Cd1418 2.277 . S
O1426 C1419 1.226 . S
O1427 Cd1418 2.356 . S
O1427 C1425 1.282 . S
C1428 O1429 1.306 . S
C1428 O1431 1.160 . S
O1429 C1428 1.306 . S
O1429 Cd1430 2.228 . S
Cd1430 O1429 2.228 . S
Cd1430 O1434 2.273 . S
Cd1430 O1438 2.277 . S
O1431 C1428 1.160 . S
O1431 Cd1432 2.203 . S
Cd1432 O1431 2.203 . S
Cd1432 O1434 2.411 . S
Cd1432 O1435 2.333 . S
Cd1432 O1436 2.352 . S
Cd1432 O1440 2.277 . S
Cd1432 O1441 2.356 . S
C1433 O1438 1.209 . S
C1433 O1440 1.226 . S
O1434 Cd1430 2.273 . S
O1434 Cd1432 2.411 . S
O1434 C1437 1.320 . S
O1435 Cd1432 2.333 . S
O1435 C1437 1.214 . S
O1436 Cd1432 2.352 . S
O1436 C1439 1.258 . S
C1437 O1434 1.320 . S
C1437 O1435 1.214 . S
O1438 Cd1430 2.277 . S
O1438 C1433 1.209 . S
C1439 O1436 1.258 . S
C1439 O1441 1.282 . S
O1440 Cd1432 2.277 . S
O1440 C1433 1.226 . S
O1441 Cd1432 2.356 . S
O1441 C1439 1.282 . S
C1442 O1443 1.306 . S
C1442 O1445 1.160 . S
O1443 C1442 1.306 . S
O1443 Cd1444 2.228 . S
Cd1444 O1443 2.228 . S
Cd1444 O1448 2.273 . S
Cd1444 O1452 2.277 . S
O1445 C1442 1.160 . S
O1445 Cd1446 2.203 . S
Cd1446 O1445 2.203 . S
Cd1446 O1448 2.411 . S
Cd1446 O1449 2.333 . S
Cd1446 O1450 2.352 . S
Cd1446 O1454 2.277 . S
Cd1446 O1455 2.356 . S
C1447 O1452 1.209 . S
C1447 O1454 1.226 . S
O1448 Cd1444 2.273 . S
O1448 Cd1446 2.411 . S
O1448 C1451 1.320 . S
O1449 Cd1446 2.333 . S
O1449 C1451 1.214 . S
O1450 Cd1446 2.352 . S
O1450 C1453 1.258 . S
C1451 O1448 1.320 . S
C1451 O1449 1.214 . S
O1452 Cd1444 2.277 . S
O1452 C1447 1.209 . S
C1453 O1450 1.258 . S
C1453 O1455 1.282 . S
O1454 Cd1446 2.277 . S
O1454 C1447 1.226 . S
O1455 Cd1446 2.356 . S
O1455 C1453 1.282 . S
C1456 O1457 1.306 . S
C1456 O1459 1.160 . S
O1457 C1456 1.306 . S
O1457 Cd1458 2.228 . S
Cd1458 O1457 2.228 . S
Cd1458 O1462 2.273 . S
Cd1458 O1466 2.277 . S
O1459 C1456 1.160 . S
O1459 Cd1460 2.203 . S
Cd1460 O1459 2.203 . S
Cd1460 O1462 2.411 . S
Cd1460 O1463 2.333 . S
Cd1460 O1464 2.352 . S
Cd1460 O1468 2.277 . S
Cd1460 O1469 2.356 . S
C1461 O1466 1.209 . S
C1461 O1468 1.226 . S
O1462 Cd1458 2.273 . S
O1462 Cd1460 2.411 . S
O1462 C1465 1.320 . S
O1463 Cd1460 2.333 . S
O1463 C1465 1.214 . S
O1464 Cd1460 2.352 . S
O1464 C1467 1.258 . S
C1465 O1462 1.320 . S
C1465 O1463 1.214 . S
O1466 Cd1458 2.277 . S
O1466 C1461 1.209 . S
C1467 O1464 1.258 . S
C1467 O1469 1.282 . S
O1468 Cd1460 2.277 . S
O1468 C1461 1.226 . S
O1469 Cd1460 2.356 . S
O1469 C1467 1.282 . S
C1470 O1471 1.306 . S
C1470 O1473 1.160 . S
O1471 C1470 1.306 . S
O1471 Cd1472 2.228 . S
Cd1472 O1471 2.228 . S
Cd1472 O1476 2.273 . S
Cd1472 O1480 2.277 . S
O1473 C1470 1.160 . S
O1473 Cd1474 2.203 . S
Cd1474 O1473 2.203 . S
Cd1474 O1476 2.411 . S
Cd1474 O1477 2.333 . S
Cd1474 O1478 2.352 . S
Cd1474 O1482 2.277 . S
Cd1474 O1483 2.356 . S
C1475 O1480 1.209 . S
C1475 O1482 1.226 . S
O1476 Cd1472 2.273 . S
O1476 Cd1474 2.411 . S
O1476 C1479 1.320 . S
O1477 Cd1474 2.333 . S
O1477 C1479 1.214 . S
O1478 Cd1474 2.352 . S
O1478 C1481 1.258 . S
C1479 O1476 1.320 . S
C1479 O1477 1.214 . S
O1480 Cd1472 2.277 . S
O1480 C1475 1.209 . S
C1481 O1478 1.258 . S
C1481 O1483 1.282 . S
O1482 Cd1474 2.277 . S
O1482 C1475 1.226 . S
O1483 Cd1474 2.356 . S
O1483 C1481 1.282 . S
C1484 O1485 1.306 . S
C1484 O1487 1.160 . S
O1485 C1484 1.306 . S
O1485 Cd1486 2.228 . S
Cd1486 O1485 2.228 . S
Cd1486 O1490 2.273 . S
Cd1486 O1494 2.277 . S
O1487 C1484 1.160 . S
O1487 Cd1488 2.203 . S
Cd1488 O1487 2.203 . S
Cd1488 O1490 2.411 . S
Cd1488 O1491 2.333 . S
Cd1488 O1492 2.352 . S
Cd1488 O1496 2.277 . S
Cd1488 O1497 2.356 . S
C1489 O1494 1.209 . S
C1489 O1496 1.226 . S
O1490 Cd1486 2.273 . S
O1490 Cd1488 2.411 . S
O1490 C1493 1.320 . S
O1491 Cd1488 2.333 . S
O1491 C1493 1.214 . S
O1492 Cd1488 2.352 . S
O1492 C1495 1.258 . S
C1493 O1490 1.320 . S
C1493 O1491 1.214 . S
O1494 Cd1486 2.277 . S
O1494 C1489 1.209 . S
C1495 O1492 1.258 . S
C1495 O1497 1.282 . S
O1496 Cd1488 2.277 . S
O1496 C1489 1.226 . S
O1497 Cd1488 2.356 . S
O1497 C1495 1.282 . S
C1498 O1499 1.306 . S
C1498 O1501 1.160 . S
O1499 C1498 1.306 . S
O1499 Cd1500 2.228 . S
Cd1500 O1499 2.228 . S
Cd1500 O1504 2.273 . S
Cd1500 O1508 2.277 . S
O1501 C1498 1.160 . S
O1501 Cd1502 2.203 . S
Cd1502 O1501 2.203 . S
Cd1502 O1504 2.411 . S
Cd1502 O1505 2.333 . S
Cd1502 O1506 2.352 . S
Cd1502 O1510 2.277 . S
Cd1502 O1511 2.356 . S
C1503 O1508 1.209 . S
C1503 O1510 1.226 . S
O1504 Cd1500 2.273 . S
O1504 Cd1502 2.411 . S
O1504 C1507 1.320 . S
O1505 Cd1502 2.333 . S
O1505 C1507 1.214 . S
O1506 Cd1502 2.352 . S
O1506 C1509 1.258 . S
C1507 O1504 1.320 . S
C1507 O1505 1.214 . S
O1508 Cd1500 2.277 . S
O1508 C1503 1.209 . S
C1509 O1506 1.258 . S
C1509 O1511 1.282 . S
O1510 Cd1502 2.277 . S
O1510 C1503 1.226 . S
O1511 Cd1502 2.356 . S
O1511 C1509 1.282 . S
C1512 O1513 1.306 . S
C1512 O1515 1.160 . S
O1513 C1512 1.306 . S
O1513 Cd1514 2.228 . S
Cd1514 O1513 2.228 . S
Cd1514 O1518 2.273 . S
Cd1514 O1522 2.277 . S
O1515 C1512 1.160 . S
O1515 Cd1516 2.203 . S
Cd1516 O1515 2.203 . S
Cd1516 O1518 2.411 . S
Cd1516 O1519 2.333 . S
Cd1516 O1520 2.352 . S
Cd1516 O1524 2.277 . S
Cd1516 O1525 2.356 . S
C1517 O1522 1.209 . S
C1517 O1524 1.226 . S
O1518 Cd1514 2.273 . S
O1518 Cd1516 2.411 . S
O1518 C1521 1.320 . S
O1519 Cd1516 2.333 . S
O1519 C1521 1.214 . S
O1520 Cd1516 2.352 . S
O1520 C1523 1.258 . S
C1521 O1518 1.320 . S
C1521 O1519 1.214 . S
O1522 Cd1514 2.277 . S
O1522 C1517 1.209 . S
C1523 O1520 1.258 . S
C1523 O1525 1.282 . S
O1524 Cd1516 2.277 . S
O1524 C1517 1.226 . S
O1525 Cd1516 2.356 . S
O1525 C1523 1.282 . S
C1526 O1527 1.306 . S
C1526 O1529 1.160 . S
O1527 C1526 1.306 . S
O1527 Cd1528 2.228 . S
Cd1528 O1527 2.228 . S
Cd1528 O1532 2.273 . S
Cd1528 O1536 2.277 . S
O1529 C1526 1.160 . S
O1529 Cd1530 2.203 . S
Cd1530 O1529 2.203 . S
Cd1530 O1532 2.411 . S
Cd1530 O1533 2.333 . S
Cd1530 O1534 2.352 . S
Cd1530 O1538 2.277 . S
Cd1530 O1539 2.356 . S
C1531 O1536 1.209 . S
C1531 O1538 1.226 . S
O1532 Cd1528 2.273 . S
O1532 Cd1530 2.411 . S
O1532 C1535 1.320 . S
O1533 Cd1530 2.333 . S
O1533 C1535 1.214 . S
O1534 Cd1530 2.352 . S
O1534 C1537 1.258 . S
C1535 O1532 1.320 . S
C1535 O1533 1.214 . S
O1536 Cd1528 2.277 . S
O1536 C1531 1.209 . S
C1537 O1534 1.258 . S
C1537 O1539 1.282 . S
O1538 Cd1530 2.277 . S
O1538 C1531 1.226 . S
O1539 Cd1530 2.356 . S
O1539 C1537 1.282 . S
C1540 O1541 1.306 . S
C1540 O1543 1.160 . S
O1541 C1540 1.306 . S
O1541 Cd1542 2.228 . S
Cd1542 O1541 2.228 . S
Cd1542 O1546 2.273 . S
Cd1542 O1550 2.277 . S
O1543 C1540 1.160 . S
O1543 Cd1544 2.203 . S
Cd1544 O1543 2.203 . S
Cd1544 O1546 2.411 . S
Cd1544 O1547 2.333 . S
Cd1544 O1548 2.352 . S
Cd1544 O1552 2.277 . S
Cd1544 O1553 2.356 . S
C1545 O1550 1.209 . S
C1545 O1552 1.226 . S
O1546 Cd1542 2.273 . S
O1546 Cd1544 2.411 . S
O1546 C1549 1.320 . S
O1547 Cd1544 2.333 . S
O1547 C1549 1.214 . S
O1548 Cd1544 2.352 . S
O1548 C1551 1.258 . S
C1549 O1546 1.320 . S
C1549 O1547 1.214 . S
O1550 Cd1542 2.277 . S
O1550 C1545 1.209 . S
C1551 O1548 1.258 . S
C1551 O1553 1.282 . S
O1552 Cd1544 2.277 . S
O1552 C1545 1.226 . S
O1553 Cd1544 2.356 . S
O1553 C1551 1.282 . S
C1554 O1555 1.306 . S
C1554 O1557 1.160 . S
O1555 C1554 1.306 . S
O1555 Cd1556 2.228 . S
Cd1556 O1555 2.228 . S
Cd1556 O1560 2.273 . S
Cd1556 O1564 2.277 . S
O1557 C1554 1.160 . S
O1557 Cd1558 2.203 . S
Cd1558 O1557 2.203 . S
Cd1558 O1560 2.411 . S
Cd1558 O1561 2.333 . S
Cd1558 O1562 2.352 . S
Cd1558 O1566 2.277 . S
Cd1558 O1567 2.356 . S
C1559 O1564 1.209 . S
C1559 O1566 1.226 . S
O1560 Cd1556 2.273 . S
O1560 Cd1558 2.411 . S
O1560 C1563 1.320 . S
O1561 Cd1558 2.333 . S
O1561 C1563 1.214 . S
O1562 Cd1558 2.352 . S
O1562 C1565 1.258 . S
C1563 O1560 1.320 . S
C1563 O1561 1.214 . S
O1564 Cd1556 2.277 . S
O1564 C1559 1.209 . S
C1565 O1562 1.258 . S
C1565 O1567 1.282 . S
O1566 Cd1558 2.277 . S
O1566 C1559 1.226 . S
O1567 Cd1558 2.356 . S
O1567 C1565 1.282 . S
C1568 O1569 1.306 . S
C1568 O1571 1.160 . S
O1569 C1568 1.306 . S
O1569 Cd1570 2.228 . S
Cd1570 O1569 2.228 . S
Cd1570 O1574 2.273 . S
Cd1570 O1578 2.277 . S
O1571 C1568 1.160 . S
O1571 Cd1572 2.203 . S
Cd1572 O1571 2.203 . S
Cd1572 O1574 2.411 . S
Cd1572 O1575 2.333 . S
Cd1572 O1576 2.352 . S
Cd1572 O1580 2.277 . S
Cd1572 O1581 2.356 . S
C1573 O1578 1.209 . S
C1573 O1580 1.226 . S
O1574 Cd1570 2.273 . S
O1574 Cd1572 2.411 . S
O1574 C1577 1.320 . S
O1575 Cd1572 2.333 . S
O1575 C1577 1.214 . S
O1576 Cd1572 2.352 . S
O1576 C1579 1.258 . S
C1577 O1574 1.320 . S
C1577 O1575 1.214 . S
O1578 Cd1570 2.277 . S
O1578 C1573 1.209 . S
C1579 O1576 1.258 . S
C1579 O1581 1.282 . S
O1580 Cd1572 2.277 . S
O1580 C1573 1.226 . S
O1581 Cd1572 2.356 . S
O1581 C1579 1.282 . S
C1582 O1583 1.306 . S
C1582 O1585 1.160 . S
O1583 C1582 1.306 . S
O1583 Cd1584 2.228 . S
Cd1584 O1583 2.228 . S
Cd1584 O1588 2.273 . S
Cd1584 O1592 2.277 . S
O1585 C1582 1.160 . S
O1585 Cd1586 2.203 . S
Cd1586 O1585 2.203 . S
Cd1586 O1588 2.411 . S
Cd1586 O1589 2.333 . S
Cd1586 O1590 2.352 . S
Cd1586 O1594 2.277 . S
Cd1586 O1595 2.356 . S
C1587 O1592 1.209 . S
C1587 O1594 1.226 . S
O1588 Cd1584 2.273 . S
O1588 Cd1586 2.411 . S
O1588 C1591 1.320 . S
O1589 Cd1586 2.333 . S
O1589 C1591 1.214 . S
O1590 Cd1586 2.352 . S
O1590 C1593 1.258 . S
C1591 O1588 1.320 . S
C1591 O1589 1.214 . S
O1592 Cd1584 2.277 . S
O1592 C1587 1.209 . S
C1593 O1590 1.258 . S
C1593 O1595 1.282 . S
O1594 Cd1586 2.277 . S
O1594 C1587 1.226 . S
O1595 Cd1586 2.356 . S
O1595 C1593 1.282 . S
C1596 O1597 1.306 . S
C1596 O1599 1.160 . S
O1597 C1596 1.306 . S
O1597 Cd1598 2.228 . S
Cd1598 O1597 2.228 . S
Cd1598 O1602 2.273 . S
Cd1598 O1606 2.277 . S
O1599 C1596 1.160 . S
O1599 Cd1600 2.203 . S
Cd1600 O1599 2.203 . S
Cd1600 O1602 2.411 . S
Cd1600 O1603 2.333 . S
Cd1600 O1604 2.352 . S
Cd1600 O1608 2.277 . S
Cd1600 O1609 2.356 . S
C1601 O1606 1.209 . S
C1601 O1608 1.226 . S
O1602 Cd1598 2.273 . S
O1602 Cd1600 2.411 . S
O1602 C1605 1.320 . S
O1603 Cd1600 2.333 . S
O1603 C1605 1.214 . S
O1604 Cd1600 2.352 . S
O1604 C1607 1.258 . S
C1605 O1602 1.320 . S
C1605 O1603 1.214 . S
O1606 Cd1598 2.277 . S
O1606 C1601 1.209 . S
C1607 O1604 1.258 . S
C1607 O1609 1.282 . S
O1608 Cd1600 2.277 . S
O1608 C1601 1.226 . S
O1609 Cd1600 2.356 . S
O1609 C1607 1.282 . S
C1610 O1611 1.306 . S
C1610 O1613 1.160 . S
O1611 C1610 1.306 . S
O1611 Cd1612 2.228 . S
Cd1612 O1611 2.228 . S
Cd1612 O1616 2.273 . S
Cd1612 O1620 2.277 . S
O1613 C1610 1.160 . S
O1613 Cd1614 2.203 . S
Cd1614 O1613 2.203 . S
Cd1614 O1616 2.411 . S
Cd1614 O1617 2.333 . S
Cd1614 O1618 2.352 . S
Cd1614 O1622 2.277 . S
Cd1614 O1623 2.356 . S
C1615 O1620 1.209 . S
C1615 O1622 1.226 . S
O1616 Cd1612 2.273 . S
O1616 Cd1614 2.411 . S
O1616 C1619 1.320 . S
O1617 Cd1614 2.333 . S
O1617 C1619 1.214 . S
O1618 Cd1614 2.352 . S
O1618 C1621 1.258 . S
C1619 O1616 1.320 . S
C1619 O1617 1.214 . S
O1620 Cd1612 2.277 . S
O1620 C1615 1.209 . S
C1621 O1618 1.258 . S
C1621 O1623 1.282 . S
O1622 Cd1614 2.277 . S
O1622 C1615 1.226 . S
O1623 Cd1614 2.356 . S
O1623 C1621 1.282 . S
C1624 O1625 1.306 . S
C1624 O1627 1.160 . S
O1625 C1624 1.306 . S
O1625 Cd1626 2.228 . S
Cd1626 O1625 2.228 . S
Cd1626 O1630 2.273 . S
Cd1626 O1634 2.277 . S
O1627 C1624 1.160 . S
O1627 Cd1628 2.203 . S
Cd1628 O1627 2.203 . S
Cd1628 O1630 2.411 . S
Cd1628 O1631 2.333 . S
Cd1628 O1632 2.352 . S
Cd1628 O1636 2.277 . S
Cd1628 O1637 2.356 . S
C1629 O1634 1.209 . S
C1629 O1636 1.226 . S
O1630 Cd1626 2.273 . S
O1630 Cd1628 2.411 . S
O1630 C1633 1.320 . S
O1631 Cd1628 2.333 . S
O1631 C1633 1.214 . S
O1632 Cd1628 2.352 . S
O1632 C1635 1.258 . S
C1633 O1630 1.320 . S
C1633 O1631 1.214 . S
O1634 Cd1626 2.277 . S
O1634 C1629 1.209 . S
C1635 O1632 1.258 . S
C1635 O1637 1.282 . S
O1636 Cd1628 2.277 . S
O1636 C1629 1.226 . S
O1637 Cd1628 2.356 . S
O1637 C1635 1.282 . S
C1638 O1639 1.306 . S
C1638 O1641 1.160 . S
O1639 C1638 1.306 . S
O1639 Cd1640 2.228 . S
Cd1640 O1639 2.228 . S
Cd1640 O1644 2.273 . S
Cd1640 O1648 2.277 . S
O1641 C1638 1.160 . S
O1641 Cd1642 2.203 . S
Cd1642 O1641 2.203 . S
Cd1642 O1644 2.411 . S
Cd1642 O1645 2.333 . S
Cd1642 O1646 2.352 . S
Cd1642 O1650 2.277 . S
Cd1642 O1651 2.356 . S
C1643 O1648 1.209 . S
C1643 O1650 1.226 . S
O1644 Cd1640 2.273 . S
O1644 Cd1642 2.411 . S
O1644 C1647 1.320 . S
O1645 Cd1642 2.333 . S
O1645 C1647 1.214 . S
O1646 Cd1642 2.352 . S
O1646 C1649 1.258 . S
C1647 O1644 1.320 . S
C1647 O1645 1.214 . S
O1648 Cd1640 2.277 . S
O1648 C1643 1.209 . S
C1649 O1646 1.258 . S
C1649 O1651 1.282 . S
O1650 Cd1642 2.277 . S
O1650 C1643 1.226 . S
O1651 Cd1642 2.356 . S
O1651 C1649 1.282 . S
C1652 O1653 1.306 . S
C1652 O1655 1.160 . S
O1653 C1652 1.306 . S
O1653 Cd1654 2.228 . S
Cd1654 O1653 2.228 . S
Cd1654 O1658 2.273 . S
Cd1654 O1662 2.277 . S
O1655 C1652 1.160 . S
O1655 Cd1656 2.203 . S
Cd1656 O1655 2.203 . S
Cd1656 O1658 2.411 . S
Cd1656 O1659 2.333 . S
Cd1656 O1660 2.352 . S
Cd1656 O1664 2.277 . S
Cd1656 O1665 2.356 . S
C1657 O1662 1.209 . S
C1657 O1664 1.226 . S
O1658 Cd1654 2.273 . S
O1658 Cd1656 2.411 . S
O1658 C1661 1.320 . S
O1659 Cd1656 2.333 . S
O1659 C1661 1.214 . S
O1660 Cd1656 2.352 . S
O1660 C1663 1.258 . S
C1661 O1658 1.320 . S
C1661 O1659 1.214 . S
O1662 Cd1654 2.277 . S
O1662 C1657 1.209 . S
C1663 O1660 1.258 . S
C1663 O1665 1.282 . S
O1664 Cd1656 2.277 . S
O1664 C1657 1.226 . S
O1665 Cd1656 2.356 . S
O1665 C1663 1.282 . S
C1666 O1667 1.306 . S
C1666 O1669 1.160 . S
O1667 C1666 1.306 . S
O1667 Cd1668 2.228 . S
Cd1668 O1667 2.228 . S
Cd1668 O1672 2.273 . S
Cd1668 O1676 2.277 . S
O1669 C1666 1.160 . S
O1669 Cd1670 2.203 . S
Cd1670 O1669 2.203 . S
Cd1670 O1672 2.411 . S
Cd1670 O1673 2.333 . S
Cd1670 O1674 2.352 . S
Cd1670 O1678 2.277 . S
Cd1670 O1679 2.356 . S
C1671 O1676 1.209 . S
C1671 O1678 1.226 . S
O1672 Cd1668 2.273 . S
O1672 Cd1670 2.411 . S
O1672 C1675 1.320 . S
O1673 Cd1670 2.333 . S
O1673 C1675 1.214 . S
O1674 Cd1670 2.352 . S
O1674 C1677 1.258 . S
C1675 O1672 1.320 . S
C1675 O1673 1.214 . S
O1676 Cd1668 2.277 . S
O1676 C1671 1.209 . S
C1677 O1674 1.258 . S
C1677 O1679 1.282 . S
O1678 Cd1670 2.277 . S
O1678 C1671 1.226 . S
O1679 Cd1670 2.356 . S
O1679 C1677 1.282 . S
C1680 O1681 1.306 . S
C1680 O1683 1.160 . S
O1681 C1680 1.306 . S
O1681 Cd1682 2.228 . S
Cd1682 O1681 2.228 . S
Cd1682 O1686 2.273 . S
Cd1682 O1690 2.277 . S
O1683 C1680 1.160 . S
O1683 Cd1684 2.203 . S
Cd1684 O1683 2.203 . S
Cd1684 O1686 2.411 . S
Cd1684 O1687 2.333 . S
Cd1684 O1688 2.352 . S
Cd1684 O1692 2.277 . S
Cd1684 O1693 2.356 . S
C1685 O1690 1.209 . S
C1685 O1692 1.226 . S
O1686 Cd1682 2.273 . S
O1686 Cd1684 2.411 . S
O1686 C1689 1.320 . S
O1687 Cd1684 2.333 . S
O1687 C1689 1.214 . S
O1688 Cd1684 2.352 . S
O1688 C1691 1.258 . S
C1689 O1686 1.320 . S
C1689 O1687 1.214 . S
O1690 Cd1682 2.277 . S
O1690 C1685 1.209 . S
C1691 O1688 1.258 . S
C1691 O1693 1.282 . S
O1692 Cd1684 2.277 . S
O1692 C1685 1.226 . S
O1693 Cd1684 2.356 . S
O1693 C1691 1.282 . S
C1694 O1695 1.306 . S
C1694 O1697 1.160 . S
O1695 C1694 1.306 . S
O1695 Cd1696 2.228 . S
Cd1696 O1695 2.228 . S
Cd1696 O1700 2.273 . S
Cd1696 O1704 2.277 . S
O1697 C1694 1.160 . S
O1697 Cd1698 2.203 . S
Cd1698 O1697 2.203 . S
Cd1698 O1700 2.411 . S
Cd1698 O1701 2.333 . S
Cd1698 O1702 2.352 . S
Cd1698 O1706 2.277 . S
Cd1698 O1707 2.356 . S
C1699 O1704 1.209 . S
C1699 O1706 1.226 . S
O1700 Cd1696 2.273 . S
O1700 Cd1698 2.411 . S
O1700 C1703 1.320 . S
O1701 Cd1698 2.333 . S
O1701 C1703 1.214 . S
O1702 Cd1698 2.352 . S
O1702 C1705 1.258 . S
C1703 O1700 1.320 . S
C1703 O1701 1.214 . S
O1704 Cd1696 2.277 . S
O1704 C1699 1.209 . S
C1705 O1702 1.258 . S
C1705 O1707 1.282 . S
O1706 Cd1698 2.277 . S
O1706 C1699 1.226 . S
O1707 Cd1698 2.356 . S
O1707 C1705 1.282 . S
C1708 O1709 1.306 . S
C1708 O1711 1.160 . S
O1709 C1708 1.306 . S
O1709 Cd1710 2.228 . S
Cd1710 O1709 2.228 . S
Cd1710 O1714 2.273 . S
Cd1710 O1718 2.277 . S
O1711 C1708 1.160 . S
O1711 Cd1712 2.203 . S
Cd1712 O1711 2.203 . S
Cd1712 O1714 2.411 . S
Cd1712 O1715 2.333 . S
Cd1712 O1716 2.352 . S
Cd1712 O1720 2.277 . S
Cd1712 O1721 2.356 . S
C1713 O1718 1.209 . S
C1713 O1720 1.226 . S
O1714 Cd1710 2.273 . S
O1714 Cd1712 2.411 . S
O1714 C1717 1.320 . S
O1715 Cd1712 2.333 . S
O1715 C1717 1.214 . S
O1716 Cd1712 2.352 . S
O1716 C1719 1.258 . S
C1717 O1714 1.320 . S
C1717 O1715 1.214 . S
O1718 Cd1710 2.277 . S
O1718 C1713 1.209 . S
C1719 O1716 1.258 . S
C1719 O1721 1.282 . S
O1720 Cd1712 2.277 . S
O1720 C1713 1.226 . S
O1721 Cd1712 2.356 . S
O1721 C1719 1.282 . S
C1722 O1723 1.306 . S
C1722 O1725 1.160 . S
O1723 C1722 1.306 . S
O1723 Cd1724 2.228 . S
Cd1724 O1723 2.228 . S
Cd1724 O1728 2.273 . S
Cd1724 O1732 2.277 . S
O1725 C1722 1.160 . S
O1725 Cd1726 2.203 . S
Cd1726 O1725 2.203 . S
Cd1726 O1728 2.411 . S
Cd1726 O1729 2.333 . S
Cd1726 O1730 2.352 . S
Cd1726 O1734 2.277 . S
Cd1726 O1735 2.356 . S
C1727 O1732 1.209 . S
C1727 O1734 1.226 . S
O1728 Cd1724 2.273 . S
O1728 Cd1726 2.411 . S
O1728 C1731 1.320 . S
O1729 Cd1726 2.333 . S
O1729 C1731 1.214 . S
O1730 Cd1726 2.352 . S
O1730 C1733 1.258 . S
C1731 O1728 1.320 . S
C1731 O1729 1.214 . S
O1732 Cd1724 2.277 . S
O1732 C1727 1.209 . S
C1733 O1730 1.258 . S
C1733 O1735 1.282 . S
O1734 Cd1726 2.277 . S
O1734 C1727 1.226 . S
O1735 Cd1726 2.356 . S
O1735 C1733 1.282 . S
C1736 O1737 1.306 . S
C1736 O1739 1.160 . S
O1737 C1736 1.306 . S
O1737 Cd1738 2.228 . S
Cd1738 O1737 2.228 . S
Cd1738 O1742 2.273 . S
Cd1738 O1746 2.277 . S
O1739 C1736 1.160 . S
O1739 Cd1740 2.203 . S
Cd1740 O1739 2.203 . S
Cd1740 O1742 2.411 . S
Cd1740 O1743 2.333 . S
Cd1740 O1744 2.352 . S
Cd1740 O1748 2.277 . S
Cd1740 O1749 2.356 . S
C1741 O1746 1.209 . S
C1741 O1748 1.226 . S
O1742 Cd1738 2.273 . S
O1742 Cd1740 2.411 . S
O1742 C1745 1.320 . S
O1743 Cd1740 2.333 . S
O1743 C1745 1.214 . S
O1744 Cd1740 2.352 . S
O1744 C1747 1.258 . S
C1745 O1742 1.320 . S
C1745 O1743 1.214 . S
O1746 Cd1738 2.277 . S
O1746 C1741 1.209 . S
C1747 O1744 1.258 . S
C1747 O1749 1.282 . S
O1748 Cd1740 2.277 . S
O1748 C1741 1.226 . S
O1749 Cd1740 2.356 . S
O1749 C1747 1.282 . S
C1750 O1751 1.306 . S
C1750 O1753 1.160 . S
O1751 C1750 1.306 . S
O1751 Cd1752 2.228 . S
Cd1752 O1751 2.228 . S
Cd1752 O1756 2.273 . S
Cd1752 O1760 2.277 . S
O1753 C1750 1.160 . S
O1753 Cd1754 2.203 . S
Cd1754 O1753 2.203 . S
Cd1754 O1756 2.411 . S
Cd1754 O1757 2.333 . S
Cd1754 O1758 2.352 . S
Cd1754 O1762 2.277 . S
Cd1754 O1763 2.356 . S
C1755 O1760 1.209 . S
C1755 O1762 1.226 . S
O1756 Cd1752 2.273 . S
O1756 Cd1754 2.411 . S
O1756 C1759 1.320 . S
O1757 Cd1754 2.333 . S
O1757 C1759 1.214 . S
O1758 Cd1754 2.352 . S
O1758 C1761 1.258 . S
C1759 O1756 1.320 . S
C1759 O1757 1.214 . S
O1760 Cd1752 2.277 . S
O1760 C1755 1.209 . S
C1761 O1758 1.258 . S
C1761 O1763 1.282 . S
O1762 Cd1754 2.277 . S
O1762 C1755 1.226 . S
O1763 Cd1754 2.356 . S
O1763 C1761 1.282 . S
C1764 O1765 1.306 . S
C1764 O1767 1.160 . S
O1765 C1764 1.306 . S
O1765 Cd1766 2.228 . S
Cd1766 O1765 2.228 . S
Cd1766 O1770 2.273 . S
Cd1766 O1774 2.277 . S
O1767 C1764 1.160 . S
O1767 Cd1768 2.203 . S
Cd1768 O1767 2.203 . S
Cd1768 O1770 2.411 . S
Cd1768 O1771 2.333 . S
Cd1768 O1772 2.352 . S
Cd1768 O1776 2.277 . S
Cd1768 O1777 2.356 . S
C1769 O1774 1.209 . S
C1769 O1776 1.226 . S
O1770 Cd1766 2.273 . S
O1770 Cd1768 2.411 . S
O1770 C1773 1.320 . S
O1771 Cd1768 2.333 . S
O1771 C1773 1.214 . S
O1772 Cd1768 2.352 . S
O1772 C1775 1.258 . S
C1773 O1770 1.320 . S
C1773 O1771 1.214 . S
O1774 Cd1766 2.277 . S
O1774 C1769 1.209 . S
C1775 O1772 1.258 . S
C1775 O1777 1.282 . S
O1776 Cd1768 2.277 . S
O1776 C1769 1.226 . S
O1777 Cd1768 2.356 . S
O1777 C1775 1.282 . S
C1778 O1779 1.306 . S
C1778 O1781 1.160 . S
O1779 C1778 1.306 . S
O1779 Cd1780 2.228 . S
Cd1780 O1779 2.228 . S
Cd1780 O1784 2.273 . S
Cd1780 O1788 2.277 . S
O1781 C1778 1.160 . S
O1781 Cd1782 2.203 . S
Cd1782 O1781 2.203 . S
Cd1782 O1784 2.411 . S
Cd1782 O1785 2.333 . S
Cd1782 O1786 2.352 . S
Cd1782 O1790 2.277 . S
Cd1782 O1791 2.356 . S
C1783 O1788 1.209 . S
C1783 O1790 1.226 . S
O1784 Cd1780 2.273 . S
O1784 Cd1782 2.411 . S
O1784 C1787 1.320 . S
O1785 Cd1782 2.333 . S
O1785 C1787 1.214 . S
O1786 Cd1782 2.352 . S
O1786 C1789 1.258 . S
C1787 O1784 1.320 . S
C1787 O1785 1.214 . S
O1788 Cd1780 2.277 . S
O1788 C1783 1.209 . S
C1789 O1786 1.258 . S
C1789 O1791 1.282 . S
O1790 Cd1782 2.277 . S
O1790 C1783 1.226 . S
O1791 Cd1782 2.356 . S
O1791 C1789 1.282 . S
C1792 O1793 1.306 . S
C1792 O1795 1.160 . S
O1793 C1792 1.306 . S
O1793 Cd1794 2.228 . S
Cd1794 O1793 2.228 . S
Cd1794 O1798 2.273 . S
Cd1794 O1802 2.277 . S
O1795 C1792 1.160 . S
O1795 Cd1796 2.203 . S
Cd1796 O1795 2.203 . S
Cd1796 O1798 2.411 . S
Cd1796 O1799 2.333 . S
Cd1796 O1800 2.352 . S
Cd1796 O1804 2.277 . S
Cd1796 O1805 2.356 . S
C1797 O1802 1.209 . S
C1797 O1804 1.226 . S
O1798 Cd1794 2.273 . S
O1798 Cd1796 2.411 . S
O1798 C1801 1.320 . S
O1799 Cd1796 2.333 . S
O1799 C1801 1.214 . S
O1800 Cd1796 2.352 . S
O1800 C1803 1.258 . S
C1801 O1798 1.320 . S
C1801 O1799 1.214 . S
O1802 Cd1794 2.277 . S
O1802 C1797 1.209 . S
C1803 O1800 1.258 . S
C1803 O1805 1.282 . S
O1804 Cd1796 2.277 . S
O1804 C1797 1.226 . S
O1805 Cd1796 2.356 . S
O1805 C1803 1.282 . S
C1806 O1807 1.306 . S
C1806 O1809 1.160 . S
O1807 C1806 1.306 . S
O1807 Cd1808 2.228 . S
Cd1808 O1807 2.228 . S
Cd1808 O1812 2.273 . S
Cd1808 O1816 2.277 . S
O1809 C1806 1.160 . S
O1809 Cd1810 2.203 . S
Cd1810 O1809 2.203 . S
Cd1810 O1812 2.411 . S
Cd1810 O1813 2.333 . S
Cd1810 O1814 2.352 . S
Cd1810 O1818 2.277 . S
Cd1810 O1819 2.356 . S
C1811 O1816 1.209 . S
C1811 O1818 1.226 . S
O1812 Cd1808 2.273 . S
O1812 Cd1810 2.411 . S
O1812 C1815 1.320 . S
O1813 Cd1810 2.333 . S
O1813 C1815 1.214 . S
O1814 Cd1810 2.352 . S
O1814 C1817 1.258 . S
C1815 O1812 1.320 . S
C1815 O1813 1.214 . S
O1816 Cd1808 2.277 . S
O1816 C1811 1.209 . S
C1817 O1814 1.258 . S
C1817 O1819 1.282 . S
O1818 Cd1810 2.277 . S
O1818 C1811 1.226 . S
O1819 Cd1810 2.356 . S
O1819 C1817 1.282 . S
C1820 O1821 1.306 . S
C1820 O1823 1.160 . S
O1821 C1820 1.306 . S
O1821 Cd1822 2.228 . S
Cd1822 O1821 2.228 . S
Cd1822 O1826 2.273 . S
Cd1822 O1830 2.277 . S
O1823 C1820 1.160 . S
O1823 Cd1824 2.203 . S
Cd1824 O1823 2.203 . S
Cd1824 O1826 2.411 . S
Cd1824 O1827 2.333 . S
Cd1824 O1828 2.352 . S
Cd1824 O1832 2.277 . S
Cd1824 O1833 2.356 . S
C1825 O1830 1.209 . S
C1825 O1832 1.226 . S
O1826 Cd1822 2.273 . S
O1826 Cd1824 2.411 . S
O1826 C1829 1.320 . S
O1827 Cd1824 2.333 . S
O1827 C1829 1.214 . S
O1828 Cd1824 2.352 . S
O1828 C1831 1.258 . S
C1829 O1826 1.320 . S
C1829 O1827 1.214 . S
O1830 Cd1822 2.277 . S
O1830 C1825 1.209 . S
C1831 O1828 1.258 . S
C1831 O1833 1.282 . S
O1832 Cd1824 2.277 . S
O1832 C1825 1.226 . S
O1833 Cd1824 2.356 . S
O1833 C1831 1.282 . S
C1834 O1835 1.306 . S
C1834 O1837 1.160 . S
O1835 C1834 1.306 . S
O1835 Cd1836 2.228 . S
Cd1836 O1835 2.228 . S
Cd1836 O1840 2.273 . S
Cd1836 O1844 2.277 . S
O1837 C1834 1.160 . S
O1837 Cd1838 2.203 . S
Cd1838 O1837 2.203 . S
Cd1838 O1840 2.411 . S
Cd1838 O1841 2.333 . S
Cd1838 O1842 2.352 . S
Cd1838 O1846 2.277 . S
Cd1838 O1847 2.356 . S
C1839 O1844 1.209 . S
C1839 O1846 1.226 . S
O1840 Cd1836 2.273 . S
O1840 Cd1838 2.411 . S
O1840 C1843 1.320 . S
O1841 Cd1838 2.333 . S
O1841 C1843 1.214 . S
O1842 Cd1838 2.352 . S
O1842 C1845 1.258 . S
C1843 O1840 1.320 . S
C1843 O1841 1.214 . S
O1844 Cd1836 2.277 . S
O1844 C1839 1.209 . S
C1845 O1842 1.258 . S
C1845 O1847 1.282 . S
O1846 Cd1838 2.277 . S
O1846 C1839 1.226 . S
O1847 Cd1838 2.356 . S
O1847 C1845 1.282 . S
C1848 O1849 1.306 . S
C1848 O1851 1.160 . S
O1849 C1848 1.306 . S
O1849 Cd1850 2.228 . S
Cd1850 O1849 2.228 . S
Cd1850 O1854 2.273 . S
Cd1850 O1858 2.277 . S
O1851 C1848 1.160 . S
O1851 Cd1852 2.203 . S
Cd1852 O1851 2.203 . S
Cd1852 O1854 2.411 . S
Cd1852 O1855 2.333 . S
Cd1852 O1856 2.352 . S
Cd1852 O1860 2.277 . S
Cd1852 O1861 2.356 . S
C1853 O1858 1.209 . S
C1853 O1860 1.226 . S
O1854 Cd1850 2.273 . S
O1854 Cd1852 2.411 . S
O1854 C1857 1.320 . S
O1855 Cd1852 2.333 . S
O1855 C1857 1.214 . S
O1856 Cd1852 2.352 . S
O1856 C1859 1.258 . S
C1857 O1854 1.320 . S
C1857 O1855 1.214 . S
O1858 Cd1850 2.277 . S
O1858 C1853 1.209 . S
C1859 O1856 1.258 . S
C1859 O1861 1.282 . S
O1860 Cd1852 2.277 . S
O1860 C1853 1.226 . S
O1861 Cd1852 2.356 . S
O1861 C1859 1.282 . S
C1862 O1863 1.306 . S
C1862 O1865 1.160 . S
O1863 C1862 1.306 . S
O1863 Cd1864 2.228 . S
Cd1864 O1863 2.228 . S
Cd1864 O1868 2.273 . S
Cd1864 O1872 2.277 . S
O1865 C1862 1.160 . S
O1865 Cd1866 2.203 . S
Cd1866 O1865 2.203 . S
Cd1866 O1868 2.411 . S
Cd1866 O1869 2.333 . S
Cd1866 O1870 2.352 . S
Cd1866 O1874 2.277 . S
Cd1866 O1875 2.356 . S
C1867 O1872 1.209 . S
C1867 O1874 1.226 . S
O1868 Cd1864 2.273 . S
O1868 Cd1866 2.411 . S
O1868 C1871 1.320 . S
O1869 Cd1866 2.333 . S
O1869 C1871 1.214 . S
O1870 Cd1866 2.352 . S
O1870 C1873 1.258 . S
C1871 O1868 1.320 . S
C1871 O1869 1.214 . S
O1872 Cd1864 2.277 . S
O1872 C1867 1.209 . S
C1873 O1870 1.258 . S
C1873 O1875 1.282 . S
O1874 Cd1866 2.277 . S
O1874 C1867 1.226 . S
O1875 Cd1866 2.356 . S
O1875 C1873 1.282 . S
C1876 O1877 1.306 . S
C1876 O1879 1.160 . S
O1877 C1876 1.306 . S
O1877 Cd1878 2.228 . S
Cd1878 O1877 2.228 . S
Cd1878 O1882 2.273 . S
Cd1878 O1886 2.277 . S
O1879 C1876 1.160 . S
O1879 Cd1880 2.203 . S
Cd1880 O1879 2.203 . S
Cd1880 O1882 2.411 . S
Cd1880 O1883 2.333 . S
Cd1880 O1884 2.352 . S
Cd1880 O1888 2.277 . S
Cd1880 O1889 2.356 . S
C1881 O1886 1.209 . S
C1881 O1888 1.226 . S
O1882 Cd1878 2.273 . S
O1882 Cd1880 2.411 . S
O1882 C1885 1.320 . S
O1883 Cd1880 2.333 . S
O1883 C1885 1.214 . S
O1884 Cd1880 2.352 . S
O1884 C1887 1.258 . S
C1885 O1882 1.320 . S
C1885 O1883 1.214 . S
O1886 Cd1878 2.277 . S
O1886 C1881 1.209 . S
C1887 O1884 1.258 . S
C1887 O1889 1.282 . S
O1888 Cd1880 2.277 . S
O1888 C1881 1.226 . S
O1889 Cd1880 2.356 . S
O1889 C1887 1.282 . S
C1890 O1891 1.306 . S
C1890 O1893 1.160 . S
O1891 C1890 1.306 . S
O1891 Cd1892 2.228 . S
Cd1892 O1891 2.228 . S
Cd1892 O1896 2.273 . S
Cd1892 O1900 2.277 . S
O1893 C1890 1.160 . S
O1893 Cd1894 2.203 . S
Cd1894 O1893 2.203 . S
Cd1894 O1896 2.411 . S
Cd1894 O1897 2.333 . S
Cd1894 O1898 2.352 . S
Cd1894 O1902 2.277 . S
Cd1894 O1903 2.356 . S
C1895 O1900 1.209 . S
C1895 O1902 1.226 . S
O1896 Cd1892 2.273 . S
O1896 Cd1894 2.411 . S
O1896 C1899 1.320 . S
O1897 Cd1894 2.333 . S
O1897 C1899 1.214 . S
O1898 Cd1894 2.352 . S
O1898 C1901 1.258 . S
C1899 O1896 1.320 . S
C1899 O1897 1.214 . S
O1900 Cd1892 2.277 . S
O1900 C1895 1.209 . S
C1901 O1898 1.258 . S
C1901 O1903 1.282 . S
O1902 Cd1894 2.277 . S
O1902 C1895 1.226 . S
O1903 Cd1894 2.356 . S
O1903 C1901 1.282 . S
C1904 O1905 1.306 . S
C1904 O1907 1.160 . S
O1905 C1904 1.306 . S
O1905 Cd1906 2.228 . S
Cd1906 O1905 2.228 . S
Cd1906 O1910 2.273 . S
Cd1906 O1914 2.277 . S
O1907 C1904 1.160 . S
O1907 Cd1908 2.203 . S
Cd1908 O1907 2.203 . S
Cd1908 O1910 2.411 . S
Cd1908 O1911 2.333 . S
Cd1908 O1912 2.352 . S
Cd1908 O1916 2.277 . S
Cd1908 O1917 2.356 . S
C1909 O1914 1.209 . S
C1909 O1916 1.226 . S
O1910 Cd1906 2.273 . S
O1910 Cd1908 2.411 . S
O1910 C1913 1.320 . S
O1911 Cd1908 2.333 . S
O1911 C1913 1.214 . S
O1912 Cd1908 2.352 . S
O1912 C1915 1.258 . S
C1913 O1910 1.320 . S
C1913 O1911 1.214 . S
O1914 Cd1906 2.277 . S
O1914 C1909 1.209 . S
C1915 O1912 1.258 . S
C1915 O1917 1.282 . S
O1916 Cd1908 2.277 . S
O1916 C1909 1.226 . S
O1917 Cd1908 2.356 . S
O1917 C1915 1.282 . S
C1918 O1919 1.306 . S
C1918 O1921 1.160 . S
O1919 C1918 1.306 . S
O1919 Cd1920 2.228 . S
Cd1920 O1919 2.228 . S
Cd1920 O1924 2.273 . S
Cd1920 O1928 2.277 . S
O1921 C1918 1.160 . S
O1921 Cd1922 2.203 . S
Cd1922 O1921 2.203 . S
Cd1922 O1924 2.411 . S
Cd1922 O1925 2.333 . S
Cd1922 O1926 2.352 . S
Cd1922 O1930 2.277 . S
Cd1922 O1931 2.356 . S
C1923 O1928 1.209 . S
C1923 O1930 1.226 . S
O1924 Cd1920 2.273 . S
O1924 Cd1922 2.411 . S
O1924 C1927 1.320 . S
O1925 Cd1922 2.333 . S
O1925 C1927 1.214 . S
O1926 Cd1922 2.352 . S
O1926 C1929 1.258 . S
C1927 O1924 1.320 . S
C1927 O1925 1.214 . S
O1928 Cd1920 2.277 . S
O1928 C1923 1.209 . S
C1929 O1926 1.258 . S
C1929 O1931 1.282 . S
O1930 Cd1922 2.277 . S
O1930 C1923 1.226 . S
O1931 Cd1922 2.356 . S
O1931 C1929 1.282 . S
C1932 O1933 1.306 . S
C1932 O1935 1.160 . S
O1933 C1932 1.306 . S
O1933 Cd1934 2.228 . S
Cd1934 O1933 2.228 . S
Cd1934 O1938 2.273 . S
Cd1934 O1942 2.277 . S
O1935 C1932 1.160 . S
O1935 Cd1936 2.203 . S
Cd1936 O1935 2.203 . S
Cd1936 O1938 2.411 . S
Cd1936 O1939 2.333 . S
Cd1936 O1940 2.352 . S
Cd1936 O1944 2.277 . S
Cd1936 O1945 2.356 . S
C1937 O1942 1.209 . S
C1937 O1944 1.226 . S
O1938 Cd1934 2.273 . S
O1938 Cd1936 2.411 . S
O1938 C1941 1.320 . S
O1939 Cd1936 2.333 . S
O1939 C1941 1.214 . S
O1940 Cd1936 2.352 . S
O1940 C1943 1.258 . S
C1941 O1938 1.320 . S
C1941 O1939 1.214 . S
O1942 Cd1934 2.277 . S
O1942 C1937 1.209 . S
C1943 O1940 1.258 . S
C1943 O1945 1.282 . S
O1944 Cd1936 2.277 . S
O1944 C1937 1.226 . S
O1945 Cd1936 2.356 . S
O1945 C1943 1.282 . S
C1946 O1947 1.306 . S
C1946 O1949 1.160 . S
O1947 C1946 1.306 . S
O1947 Cd1948 2.228 . S
Cd1948 O1947 2.228 . S
Cd1948 O1952 2.273 . S
Cd1948 O1956 2.277 . S
O1949 C1946 1.160 . S
O1949 Cd1950 2.203 . S
Cd1950 O1949 2.203 . S
Cd1950 O1952 2.411 . S
Cd1950 O1953 2.333 . S
Cd1950 O1954 2.352 . S
Cd1950 O1958 2.277 . S
Cd1950 O1959 2.356 . S
C1951 O1956 1.209 . S
C1951 O1958 1.226 . S
O1952 Cd1948 2.273 . S
O1952 Cd1950 2.411 . S
O1952 C1955 1.320 . S
O1953 Cd1950 2.333 . S
O1953 C1955 1.214 . S
O1954 Cd1950 2.352 . S
O1954 C1957 1.258 . S
C1955 O1952 1.320 . S
C1955 O1953 1.214 . S
O1956 Cd1948 2.277 . S
O1956 C1951 1.209 . S
C1957 O1954 1.258 . S
C1957 O1959 1.282 . S
O1958 Cd1950 2.277 . S
O1958 C1951 1.226 . S
O1959 Cd1950 2.356 . S
O1959 C1957 1.282 . S
C1960 O1961 1.306 . S
C1960 O1963 1.160 . S
O1961 C1960 1.306 . S
O1961 Cd1962 2.228 . S
Cd1962 O1961 2.228 . S
Cd1962 O1966 2.273 . S
Cd1962 O1970 2.277 . S
O1963 C1960 1.160 . S
O1963 Cd1964 2.203 . S
Cd1964 O1963 2.203 . S
Cd1964 O1966 2.411 . S
Cd1964 O1967 2.333 . S
Cd1964 O1968 2.352 . S
Cd1964 O1972 2.277 . S
Cd1964 O1973 2.356 . S
C1965 O1970 1.209 . S
C1965 O1972 1.226 . S
O1966 Cd1962 2.273 . S
O1966 Cd1964 2.411 . S
O1966 C1969 1.320 . S
O1967 Cd1964 2.333 . S
O1967 C1969 1.214 . S
O1968 Cd1964 2.352 . S
O1968 C1971 1.258 . S
C1969 O1966 1.320 . S
C1969 O1967 1.214 . S
O1970 Cd1962 2.277 . S
O1970 C1965 1.209 . S
C1971 O1968 1.258 . S
C1971 O1973 1.282 . S
O1972 Cd1964 2.277 . S
O1972 C1965 1.226 . S
O1973 Cd1964 2.356 . S
O1973 C1971 1.282 . S
C1974 O1975 1.306 . S
C1974 O1977 1.160 . S
O1975 C1974 1.306 . S
O1975 Cd1976 2.228 . S
Cd1976 O1975 2.228 . S
Cd1976 O1980 2.273 . S
Cd1976 O1984 2.277 . S
O1977 C1974 1.160 . S
O1977 Cd1978 2.203 . S
Cd1978 O1977 2.203 . S
Cd1978 O1980 2.411 . S
Cd1978 O1981 2.333 . S
Cd1978 O1982 2.352 . S
Cd1978 O1986 2.277 . S
Cd1978 O1987 2.356 . S
C1979 O1984 1.209 . S
C1979 O1986 1.226 . S
O1980 Cd1976 2.273 . S
O1980 Cd1978 2.411 . S
O1980 C1983 1.320 . S
O1981 Cd1978 2.333 . S
O1981 C1983 1.214 . S
O1982 Cd1978 2.352 . S
O1982 C1985 1.258 . S
C1983 O1980 1.320 . S
C1983 O1981 1.214 . S
O1984 Cd1976 2.277 . S
O1984 C1979 1.209 . S
C1985 O1982 1.258 . S
C1985 O1987 1.282 . S
O1986 Cd1978 2.277 . S
O1986 C1979 1.226 . S
O1987 Cd1978 2.356 . S
O1987 C1985 1.282 . S
C1988 O1989 1.306 . S
C1988 O1991 1.160 . S
O1989 C1988 1.306 . S
O1989 Cd1990 2.228 . S
Cd1990 O1989 2.228 . S
Cd1990 O1994 2.273 . S
Cd1990 O1998 2.277 . S
O1991 C1988 1.160 . S
O1991 Cd1992 2.203 . S
Cd1992 O1991 2.203 . S
Cd1992 O1994 2.411 . S
Cd1992 O1995 2.333 . S
Cd1992 O1996 2.352 . S
Cd1992 O2000 2.277 . S
Cd1992 O2001 2.356 . S
C1993 O1998 1.209 . S
C1993 O2000 1.226 . S
O1994 Cd1990 2.273 . S
O1994 Cd1992 2.411 . S
O1994 C1997 1.320 . S
O1995 Cd1992 2.333 . S
O1995 C1997 1.214 . S
O1996 Cd1992 2.352 . S
O1996 C1999 1.258 . S
C1997 O1994 1.320 . S
C1997 O1995 1.214 . S
O1998 Cd1990 2.277 . S
O1998 C1993 1.209 . S
C1999 O1996 1.258 . S
C1999 O2001 1.282 . S
O2000 Cd1992 2.277 . S
O2000 C1993 1.226 . S
O2001 Cd1992 2.356 . S
O2001 C1999 1.282 . S
C2002 O2003 1.306 . S
C2002 O2005 1.160 . S
O2003 C2002 1.306 . S
O2003 Cd2004 2.228 . S
Cd2004 O2003 2.228 . S
Cd2004 O2008 2.273 . S
Cd2004 O2012 2.277 . S
O2005 C2002 1.160 . S
O2005 Cd2006 2.203 . S
Cd2006 O2005 2.203 . S
Cd2006 O2008 2.411 . S
Cd2006 O2009 2.333 . S
Cd2006 O2010 2.352 . S
Cd2006 O2014 2.277 . S
Cd2006 O2015 2.356 . S
C2007 O2012 1.209 . S
C2007 O2014 1.226 . S
O2008 Cd2004 2.273 . S
O2008 Cd2006 2.411 . S
O2008 C2011 1.320 . S
O2009 Cd2006 2.333 . S
O2009 C2011 1.214 . S
O2010 Cd2006 2.352 . S
O2010 C2013 1.258 . S
C2011 O2008 1.320 . S
C2011 O2009 1.214 . S
O2012 Cd2004 2.277 . S
O2012 C2007 1.209 . S
C2013 O2010 1.258 . S
C2013 O2015 1.282 . S
O2014 Cd2006 2.277 . S
O2014 C2007 1.226 . S
O2015 Cd2006 2.356 . S
O2015 C2013 1.282 . S
C2016 O2017 1.306 . S
C2016 O2019 1.160 . S
O2017 C2016 1.306 . S
O2017 Cd2018 2.228 . S
Cd2018 O2017 2.228 . S
Cd2018 O2022 2.273 . S
Cd2018 O2026 2.277 . S
O2019 C2016 1.160 . S
O2019 Cd2020 2.203 . S
Cd2020 O2019 2.203 . S
Cd2020 O2022 2.411 . S
Cd2020 O2023 2.333 . S
Cd2020 O2024 2.352 . S
Cd2020 O2028 2.277 . S
Cd2020 O2029 2.356 . S
C2021 O2026 1.209 . S
C2021 O2028 1.226 . S
O2022 Cd2018 2.273 . S
O2022 Cd2020 2.411 . S
O2022 C2025 1.320 . S
O2023 Cd2020 2.333 . S
O2023 C2025 1.214 . S
O2024 Cd2020 2.352 . S
O2024 C2027 1.258 . S
C2025 O2022 1.320 . S
C2025 O2023 1.214 . S
O2026 Cd2018 2.277 . S
O2026 C2021 1.209 . S
C2027 O2024 1.258 . S
C2027 O2029 1.282 . S
O2028 Cd2020 2.277 . S
O2028 C2021 1.226 . S
O2029 Cd2020 2.356 . S
O2029 C2027 1.282 . S
C2030 O2031 1.306 . S
C2030 O2033 1.160 . S
O2031 C2030 1.306 . S
O2031 Cd2032 2.228 . S
Cd2032 O2031 2.228 . S
Cd2032 O2036 2.273 . S
Cd2032 O2040 2.277 . S
O2033 C2030 1.160 . S
O2033 Cd2034 2.203 . S
Cd2034 O2033 2.203 . S
Cd2034 O2036 2.411 . S
Cd2034 O2037 2.333 . S
Cd2034 O2038 2.352 . S
Cd2034 O2042 2.277 . S
Cd2034 O2043 2.356 . S
C2035 O2040 1.209 . S
C2035 O2042 1.226 . S
O2036 Cd2032 2.273 . S
O2036 Cd2034 2.411 . S
O2036 C2039 1.320 . S
O2037 Cd2034 2.333 . S
O2037 C2039 1.214 . S
O2038 Cd2034 2.352 . S
O2038 C2041 1.258 . S
C2039 O2036 1.320 . S
C2039 O2037 1.214 . S
O2040 Cd2032 2.277 . S
O2040 C2035 1.209 . S
C2041 O2038 1.258 . S
C2041 O2043 1.282 . S
O2042 Cd2034 2.277 . S
O2042 C2035 1.226 . S
O2043 Cd2034 2.356 . S
O2043 C2041 1.282 . S
C2044 O2045 1.306 . S
C2044 O2047 1.160 . S
O2045 C2044 1.306 . S
O2045 Cd2046 2.228 . S
Cd2046 O2045 2.228 . S
Cd2046 O2050 2.273 . S
Cd2046 O2054 2.277 . S
O2047 C2044 1.160 . S
O2047 Cd2048 2.203 . S
Cd2048 O2047 2.203 . S
Cd2048 O2050 2.411 . S
Cd2048 O2051 2.333 . S
Cd2048 O2052 2.352 . S
Cd2048 O2056 2.277 . S
Cd2048 O2057 2.356 . S
C2049 O2054 1.209 . S
C2049 O2056 1.226 . S
O2050 Cd2046 2.273 . S
O2050 Cd2048 2.411 . S
O2050 C2053 1.320 . S
O2051 Cd2048 2.333 . S
O2051 C2053 1.214 . S
O2052 Cd2048 2.352 . S
O2052 C2055 1.258 . S
C2053 O2050 1.320 . S
C2053 O2051 1.214 . S
O2054 Cd2046 2.277 . S
O2054 C2049 1.209 . S
C2055 O2052 1.258 . S
C2055 O2057 1.282 . S
O2056 Cd2048 2.277 . S
O2056 C2049 1.226 . S
O2057 Cd2048 2.356 . S
O2057 C2055 1.282 . S
C2058 O2059 1.306 . S
C2058 O2061 1.160 . S
O2059 C2058 1.306 . S
O2059 Cd2060 2.228 . S
Cd2060 O2059 2.228 . S
Cd2060 O2064 2.273 . S
Cd2060 O2068 2.277 . S
O2061 C2058 1.160 . S
O2061 Cd2062 2.203 . S
Cd2062 O2061 2.203 . S
Cd2062 O2064 2.411 . S
Cd2062 O2065 2.333 . S
Cd2062 O2066 2.352 . S
Cd2062 O2070 2.277 . S
Cd2062 O2071 2.356 . S
C2063 O2068 1.209 . S
C2063 O2070 1.226 . S
O2064 Cd2060 2.273 . S
O2064 Cd2062 2.411 . S
O2064 C2067 1.320 . S
O2065 Cd2062 2.333 . S
O2065 C2067 1.214 . S
O2066 Cd2062 2.352 . S
O2066 C2069 1.258 . S
C2067 O2064 1.320 . S
C2067 O2065 1.214 . S
O2068 Cd2060 2.277 . S
O2068 C2063 1.209 . S
C2069 O2066 1.258 . S
C2069 O2071 1.282 . S
O2070 Cd2062 2.277 . S
O2070 C2063 1.226 . S
O2071 Cd2062 2.356 . S
O2071 C2069 1.282 . S
C2072 O2073 1.306 . S
C2072 O2075 1.160 . S
O2073 C2072 1.306 . S
O2073 Cd2074 2.228 . S
Cd2074 O2073 2.228 . S
Cd2074 O2078 2.273 . S
Cd2074 O2082 2.277 . S
O2075 C2072 1.160 . S
O2075 Cd2076 2.203 . S
Cd2076 O2075 2.203 . S
Cd2076 O2078 2.411 . S
Cd2076 O2079 2.333 . S
Cd2076 O2080 2.352 . S
Cd2076 O2084 2.277 . S
Cd2076 O2085 2.356 . S
C2077 O2082 1.209 . S
C2077 O2084 1.226 . S
O2078 Cd2074 2.273 . S
O2078 Cd2076 2.411 . S
O2078 C2081 1.320 . S
O2079 Cd2076 2.333 . S
O2079 C2081 1.214 . S
O2080 Cd2076 2.352 . S
O2080 C2083 1.258 . S
C2081 O2078 1.320 . S
C2081 O2079 1.214 . S
O2082 Cd2074 2.277 . S
O2082 C2077 1.209 . S
C2083 O2080 1.258 . S
C2083 O2085 1.282 . S
O2084 Cd2076 2.277 . S
O2084 C2077 1.226 . S
O2085 Cd2076 2.356 . S
O2085 C2083 1.282 . S
C2086 O2087 1.306 . S
C2086 O2089 1.160 . S
O2087 C2086 1.306 . S
O2087 Cd2088 2.228 . S
Cd2088 O2087 2.228 . S
Cd2088 O2092 2.273 . S
Cd2088 O2096 2.277 . S
O2089 C2086 1.160 . S
O2089 Cd2090 2.203 . S
Cd2090 O2089 2.203 . S
Cd2090 O2092 2.411 . S
Cd2090 O2093 2.333 . S
Cd2090 O2094 2.352 . S
Cd2090 O2098 2.277 . S
Cd2090 O2099 2.356 . S
C2091 O2096 1.209 . S
C2091 O2098 1.226 . S
O2092 Cd2088 2.273 . S
O2092 Cd2090 2.411 . S
O2092 C2095 1.320 . S
O2093 Cd2090 2.333 . S
O2093 C2095 1.214 . S
O2094 Cd2090 2.352 . S
O2094 C2097 1.258 . S
C2095 O2092 1.320 . S
C2095 O2093 1.214 . S
O2096 Cd2088 2.277 . S
O2096 C2091 1.209 . S
C2097 O2094 1.258 . S
C2097 O2099 1.282 . S
O2098 Cd2090 2.277 . S
O2098 C2091 1.226 . S
O2099 Cd2090 2.356 . S
O2099 C2097 1.282 . S
C2100 O2101 1.306 . S
C2100 O2103 1.160 . S
O2101 C2100 1.306 . S
O2101 Cd2102 2.228 . S
Cd2102 O2101 2.228 . S
Cd2102 O2106 2.273 . S
Cd2102 O2110 2.277 . S
O2103 C2100 1.160 . S
O2103 Cd2104 2.203 . S
Cd2104 O2103 2.203 . S
Cd2104 O2106 2.411 . S
Cd2104 O2107 2.333 . S
Cd2104 O2108 2.352 . S
Cd2104 O2112 2.277 . S
Cd2104 O2113 2.356 . S
C2105 O2110 1.209 . S
C2105 O2112 1.226 . S
O2106 Cd2102 2.273 . S
O2106 Cd2104 2.411 . S
O2106 C2109 1.320 . S
O2107 Cd2104 2.333 . S
O2107 C2109 1.214 . S
O2108 Cd2104 2.352 . S
O2108 C2111 1.258 . S
C2109 O2106 1.320 . S
C2109 O2107 1.214 . S
O2110 Cd2102 2.277 . S
O2110 C2105 1.209 . S
C2111 O2108 1.258 . S
C2111 O2113 1.282 . S
O2112 Cd2104 2.277 . S
O2112 C2105 1.226 . S
O2113 Cd2104 2.356 . S
O2113 C2111 1.282 . S
C2114 O2115 1.306 . S
C2114 O2117 1.160 . S
O2115 C2114 1.306 . S
O2115 Cd2116 2.228 . S
Cd2116 O2115 2.228 . S
Cd2116 O2120 2.273 . S
Cd2116 O2124 2.277 . S
O2117 C2114 1.160 . S
O2117 Cd2118 2.203 . S
Cd2118 O2117 2.203 . S
Cd2118 O2120 2.411 . S
Cd2118 O2121 2.333 . S
Cd2118 O2122 2.352 . S
Cd2118 O2126 2.277 . S
Cd2118 O2127 2.356 . S
C2119 O2124 1.209 . S
C2119 O2126 1.226 . S
O2120 Cd2116 2.273 . S
O2120 Cd2118 2.411 . S
O2120 C2123 1.320 . S
O2121 Cd2118 2.333 . S
O2121 C2123 1.214 . S
O2122 Cd2118 2.352 . S
O2122 C2125 1.258 . S
C2123 O2120 1.320 . S
C2123 O2121 1.214 . S
O2124 Cd2116 2.277 . S
O2124 C2119 1.209 . S
C2125 O2122 1.258 . S
C2125 O2127 1.282 . S
O2126 Cd2118 2.277 . S
O2126 C2119 1.226 . S
O2127 Cd2118 2.356 . S
O2127 C2125 1.282 . S
C2128 O2129 1.306 . S
C2128 O2131 1.160 . S
O2129 C2128 1.306 . S
O2129 Cd2130 2.228 . S
Cd2130 O2129 2.228 . S
Cd2130 O2134 2.273 . S
Cd2130 O2138 2.277 . S
O2131 C2128 1.160 . S
O2131 Cd2132 2.203 . S
Cd2132 O2131 2.203 . S
Cd2132 O2134 2.411 . S
Cd2132 O2135 2.333 . S
Cd2132 O2136 2.352 . S
Cd2132 O2140 2.277 . S
Cd2132 O2141 2.356 . S
C2133 O2138 1.209 . S
C2133 O2140 1.226 . S
O2134 Cd2130 2.273 . S
O2134 Cd2132 2.411 . S
O2134 C2137 1.320 . S
O2135 Cd2132 2.333 . S
O2135 C2137 1.214 . S
O2136 Cd2132 2.352 . S
O2136 C2139 1.258 . S
C2137 O2134 1.320 . S
C2137 O2135 1.214 . S
O2138 Cd2130 2.277 . S
O2138 C2133 1.209 . S
C2139 O2136 1.258 . S
C2139 O2141 1.282 . S
O2140 Cd2132 2.277 . S
O2140 C2133 1.226 . S
O2141 Cd2132 2.356 . S
O2141 C2139 1.282 . S
C2142 O2143 1.306 . S
C2142 O2145 1.160 . S
O2143 C2142 1.306 . S
O2143 Cd2144 2.228 . S
Cd2144 O2143 2.228 . S
Cd2144 O2148 2.273 . S
Cd2144 O2152 2.277 . S
O2145 C2142 1.160 . S
O2145 Cd2146 2.203 . S
Cd2146 O2145 2.203 . S
Cd2146 O2148 2.411 . S
Cd2146 O2149 2.333 . S
Cd2146 O2150 2.352 . S
Cd2146 O2154 2.277 . S
Cd2146 O2155 2.356 . S
C2147 O2152 1.209 . S
C2147 O2154 1.226 . S
O2148 Cd2144 2.273 . S
O2148 Cd2146 2.411 . S
O2148 C2151 1.320 . S
O2149 Cd2146 2.333 . S
O2149 C2151 1.214 . S
O2150 Cd2146 2.352 . S
O2150 C2153 1.258 . S
C2151 O2148 1.320 . S
C2151 O2149 1.214 . S
O2152 Cd2144 2.277 . S
O2152 C2147 1.209 . S
C2153 O2150 1.258 . S
C2153 O2155 1.282 . S
O2154 Cd2146 2.277 . S
O2154 C2147 1.226 . S
O2155 Cd2146 2.356 . S
O2155 C2153 1.282 . S
C2156 O2157 1.306 . S
C2156 O2159 1.160 . S
O2157 C2156 1.306 . S
O2157 Cd2158 2.228 . S
Cd2158 O2157 2.228 . S
Cd2158 O2162 2.273 . S
Cd2158 O2166 2.277 . S
O2159 C2156 1.160 . S
O2159 Cd2160 2.203 . S
Cd2160 O2159 2.203 . S
Cd2160 O2162 2.411 . S
Cd2160 O2163 2.333 . S
Cd2160 O2164 2.352 . S
Cd2160 O2168 2.277 . S
Cd2160 O2169 2.356 . S
C2161 O2166 1.209 . S
C2161 O2168 1.226 . S
O2162 Cd2158 2.273 . S
O2162 Cd2160 2.411 . S
O2162 C2165 1.320 . S
O2163 Cd2160 2.333 . S
O2163 C2165 1.214 . S
O2164 Cd2160 2.352 . S
O2164 C2167 1.258 . S
C2165 O2162 1.320 . S
C2165 O2163 1.214 . S
O2166 Cd2158 2.277 . S
O2166 C2161 1.209 . S
C2167 O2164 1.258 . S
C2167 O2169 1.282 . S
O2168 Cd2160 2.277 . S
O2168 C2161 1.226 . S
O2169 Cd2160 2.356 . S
O2169 C2167 1.282 . S
C2170 O2171 1.306 . S
C2170 O2173 1.160 . S
O2171 C2170 1.306 . S
O2171 Cd2172 2.228 . S
Cd2172 O2171 2.228 . S
Cd2172 O2176 2.273 . S
Cd2172 O2180 2.277 . S
O2173 C2170 1.160 . S
O2173 Cd2174 2.203 . S
Cd2174 O2173 2.203 . S
Cd2174 O2176 2.411 . S
Cd2174 O2177 2.333 . S
Cd2174 O2178 2.352 . S
Cd2174 O2182 2.277 . S
Cd2174 O2183 2.356 . S
C2175 O2180 1.209 . S
C2175 O2182 1.226 . S
O2176 Cd2172 2.273 . S
O2176 Cd2174 2.411 . S
O2176 C2179 1.320 . S
O2177 Cd2174 2.333 . S
O2177 C2179 1.214 . S
O2178 Cd2174 2.352 . S
O2178 C2181 1.258 . S
C2179 O2176 1.320 . S
C2179 O2177 1.214 . S
O2180 Cd2172 2.277 . S
O2180 C2175 1.209 . S
C2181 O2178 1.258 . S
C2181 O2183 1.282 . S
O2182 Cd2174 2.277 . S
O2182 C2175 1.226 . S
O2183 Cd2174 2.356 . S
O2183 C2181 1.282 . S
C2184 O2185 1.306 . S
C2184 O2187 1.160 . S
O2185 C2184 1.306 . S
O2185 Cd2186 2.228 . S
Cd2186 O2185 2.228 . S
Cd2186 O2190 2.273 . S
Cd2186 O2194 2.277 . S
O2187 C2184 1.160 . S
O2187 Cd2188 2.203 . S
Cd2188 O2187 2.203 . S
Cd2188 O2190 2.411 . S
Cd2188 O2191 2.333 . S
Cd2188 O2192 2.352 . S
Cd2188 O2196 2.277 . S
Cd2188 O2197 2.356 . S
C2189 O2194 1.209 . S
C2189 O2196 1.226 . S
O2190 Cd2186 2.273 . S
O2190 Cd2188 2.411 . S
O2190 C2193 1.320 . S
O2191 Cd2188 2.333 . S
O2191 C2193 1.214 . S
O2192 Cd2188 2.352 . S
O2192 C2195 1.258 . S
C2193 O2190 1.320 . S
C2193 O2191 1.214 . S
O2194 Cd2186 2.277 . S
O2194 C2189 1.209 . S
C2195 O2192 1.258 . S
C2195 O2197 1.282 . S
O2196 Cd2188 2.277 . S
O2196 C2189 1.226 . S
O2197 Cd2188 2.356 . S
O2197 C2195 1.282 . S
C2198 O2199 1.306 . S
C2198 O2201 1.160 . S
O2199 C2198 1.306 . S
O2199 Cd2200 2.228 . S
Cd2200 O2199 2.228 . S
Cd2200 O2204 2.273 . S
Cd2200 O2208 2.277 . S
O2201 C2198 1.160 . S
O2201 Cd2202 2.203 . S
Cd2202 O2201 2.203 . S
Cd2202 O2204 2.411 . S
Cd2202 O2205 2.333 . S
Cd2202 O2206 2.352 . S
Cd2202 O2210 2.277 . S
Cd2202 O2211 2.356 . S
C2203 O2208 1.209 . S
C2203 O2210 1.226 . S
O2204 Cd2200 2.273 . S
O2204 Cd2202 2.411 . S
O2204 C2207 1.320 . S
O2205 Cd2202 2.333 . S
O2205 C2207 1.214 . S
O2206 Cd2202 2.352 . S
O2206 C2209 1.258 . S
C2207 O2204 1.320 . S
C2207 O2205 1.214 . S
O2208 Cd2200 2.277 . S
O2208 C2203 1.209 . S
C2209 O2206 1.258 . S
C2209 O2211 1.282 . S
O2210 Cd2202 2.277 . S
O2210 C2203 1.226 . S
O2211 Cd2202 2.356 . S
O2211 C2209 1.282 . S
C2212 O2213 1.306 . S
C2212 O2215 1.160 . S
O2213 C2212 1.306 . S
O2213 Cd2214 2.228 . S
Cd2214 O2213 2.228 . S
Cd2214 O2218 2.273 . S
Cd2214 O2222 2.277 . S
O2215 C2212 1.160 . S
O2215 Cd2216 2.203 . S
Cd2216 O2215 2.203 . S
Cd2216 O2218 2.411 . S
Cd2216 O2219 2.333 . S
Cd2216 O2220 2.352 . S
Cd2216 O2224 2.277 . S
Cd2216 O2225 2.356 . S
C2217 O2222 1.209 . S
C2217 O2224 1.226 . S
O2218 Cd2214 2.273 . S
O2218 Cd2216 2.411 . S
O2218 C2221 1.320 . S
O2219 Cd2216 2.333 . S
O2219 C2221 1.214 . S
O2220 Cd2216 2.352 . S
O2220 C2223 1.258 . S
C2221 O2218 1.320 . S
C2221 O2219 1.214 . S
O2222 Cd2214 2.277 . S
O2222 C2217 1.209 . S
C2223 O2220 1.258 . S
C2223 O2225 1.282 . S
O2224 Cd2216 2.277 . S
O2224 C2217 1.226 . S
O2225 Cd2216 2.356 . S
O2225 C2223 1.282 . S
C2226 O2227 1.306 . S
C2226 O2229 1.160 . S
O2227 C2226 1.306 . S
O2227 Cd2228 2.228 . S
Cd2228 O2227 2.228 . S
Cd2228 O2232 2.273 . S
Cd2228 O2236 2.277 . S
O2229 C2226 1.160 . S
O2229 Cd2230 2.203 . S
Cd2230 O2229 2.203 . S
Cd2230 O2232 2.411 . S
Cd2230 O2233 2.333 . S
Cd2230 O2234 2.352 . S
Cd2230 O2238 2.277 . S
Cd2230 O2239 2.356 . S
C2231 O2236 1.209 . S
C2231 O2238 1.226 . S
O2232 Cd2228 2.273 . S
O2232 Cd2230 2.411 . S
O2232 C2235 1.320 . S
O2233 Cd2230 2.333 . S
O2233 C2235 1.214 . S
O2234 Cd2230 2.352 . S
O2234 C2237 1.258 . S
C2235 O2232 1.320 . S
C2235 O2233 1.214 . S
O2236 Cd2228 2.277 . S
O2236 C2231 1.209 . S
C2237 O2234 1.258 . S
C2237 O2239 1.282 . S
O2238 Cd2230 2.277 . S
O2238 C2231 1.226 . S
O2239 Cd2230 2.356 . S
O2239 C2237 1.282 . S
C2240 O2241 1.306 . S
C2240 O2243 1.160 . S
O2241 C2240 1.306 . S
O2241 Cd2242 2.228 . S
Cd2242 O2241 2.228 . S
Cd2242 O2246 2.273 . S
Cd2242 O2250 2.277 . S
O2243 C2240 1.160 . S
O2243 Cd2244 2.203 . S
Cd2244 O2243 2.203 . S
Cd2244 O2246 2.411 . S
Cd2244 O2247 2.333 . S
Cd2244 O2248 2.352 . S
Cd2244 O2252 2.277 . S
Cd2244 O2253 2.356 . S
C2245 O2250 1.209 . S
C2245 O2252 1.226 . S
O2246 Cd2242 2.273 . S
O2246 Cd2244 2.411 . S
O2246 C2249 1.320 . S
O2247 Cd2244 2.333 . S
O2247 C2249 1.214 . S
O2248 Cd2244 2.352 . S
O2248 C2251 1.258 . S
C2249 O2246 1.320 . S
C2249 O2247 1.214 . S
O2250 Cd2242 2.277 . S
O2250 C2245 1.209 . S
C2251 O2248 1.258 . S
C2251 O2253 1.282 . S
O2252 Cd2244 2.277 . S
O2252 C2245 1.226 . S
O2253 Cd2244 2.356 . S
O2253 C2251 1.282 . S
C2254 O2255 1.306 . S
C2254 O2257 1.160 . S
O2255 C2254 1.306 . S
O2255 Cd2256 2.228 . S
Cd2256 O2255 2.228 . S
Cd2256 O2260 2.273 . S
Cd2256 O2264 2.277 . S
O2257 C2254 1.160 . S
O2257 Cd2258 2.203 . S
Cd2258 O2257 2.203 . S
Cd2258 O2260 2.411 . S
Cd2258 O2261 2.333 . S
Cd2258 O2262 2.352 . S
Cd2258 O2266 2.277 . S
Cd2258 O2267 2.356 . S
C2259 O2264 1.209 . S
C2259 O2266 1.226 . S
O2260 Cd2256 2.273 . S
O2260 Cd2258 2.411 . S
O2260 C2263 1.320 . S
O2261 Cd2258 2.333 . S
O2261 C2263 1.214 . S
O2262 Cd2258 2.352 . S
O2262 C2265 1.258 . S
C2263 O2260 1.320 . S
C2263 O2261 1.214 . S
O2264 Cd2256 2.277 . S
O2264 C2259 1.209 . S
C2265 O2262 1.258 . S
C2265 O2267 1.282 . S
O2266 Cd2258 2.277 . S
O2266 C2259 1.226 . S
O2267 Cd2258 2.356 . S
O2267 C2265 1.282 . S
C2268 O2269 1.306 . S
C2268 O2271 1.160 . S
O2269 C2268 1.306 . S
O2269 Cd2270 2.228 . S
Cd2270 O2269 2.228 . S
Cd2270 O2274 2.273 . S
Cd2270 O2278 2.277 . S
O2271 C2268 1.160 . S
O2271 Cd2272 2.203 . S
Cd2272 O2271 2.203 . S
Cd2272 O2274 2.411 . S
Cd2272 O2275 2.333 . S
Cd2272 O2276 2.352 . S
Cd2272 O2280 2.277 . S
Cd2272 O2281 2.356 . S
C2273 O2278 1.209 . S
C2273 O2280 1.226 . S
O2274 Cd2270 2.273 . S
O2274 Cd2272 2.411 . S
O2274 C2277 1.320 . S
O2275 Cd2272 2.333 . S
O2275 C2277 1.214 . S
O2276 Cd2272 2.352 . S
O2276 C2279 1.258 . S
C2277 O2274 1.320 . S
C2277 O2275 1.214 . S
O2278 Cd2270 2.277 . S
O2278 C2273 1.209 . S
C2279 O2276 1.258 . S
C2279 O2281 1.282 . S
O2280 Cd2272 2.277 . S
O2280 C2273 1.226 . S
O2281 Cd2272 2.356 . S
O2281 C2279 1.282 . S
C2282 O2283 1.306 . S
C2282 O2285 1.160 . S
O2283 C2282 1.306 . S
O2283 Cd2284 2.228 . S
Cd2284 O2283 2.228 . S
Cd2284 O2288 2.273 . S
Cd2284 O2292 2.277 . S
O2285 C2282 1.160 . S
O2285 Cd2286 2.203 . S
Cd2286 O2285 2.203 . S
Cd2286 O2288 2.411 . S
Cd2286 O2289 2.333 . S
Cd2286 O2290 2.352 . S
Cd2286 O2294 2.277 . S
Cd2286 O2295 2.356 . S
C2287 O2292 1.209 . S
C2287 O2294 1.226 . S
O2288 Cd2284 2.273 . S
O2288 Cd2286 2.411 . S
O2288 C2291 1.320 . S
O2289 Cd2286 2.333 . S
O2289 C2291 1.214 . S
O2290 Cd2286 2.352 . S
O2290 C2293 1.258 . S
C2291 O2288 1.320 . S
C2291 O2289 1.214 . S
O2292 Cd2284 2.277 . S
O2292 C2287 1.209 . S
C2293 O2290 1.258 . S
C2293 O2295 1.282 . S
O2294 Cd2286 2.277 . S
O2294 C2287 1.226 . S
O2295 Cd2286 2.356 . S
O2295 C2293 1.282 . S
C2296 O2297 1.306 . S
C2296 O2299 1.160 . S
O2297 C2296 1.306 . S
O2297 Cd2298 2.228 . S
Cd2298 O2297 2.228 . S
Cd2298 O2302 2.273 . S
Cd2298 O2306 2.277 . S
O2299 C2296 1.160 . S
O2299 Cd2300 2.203 . S
Cd2300 O2299 2.203 . S
Cd2300 O2302 2.411 . S
Cd2300 O2303 2.333 . S
Cd2300 O2304 2.352 . S
Cd2300 O2308 2.277 . S
Cd2300 O2309 2.356 . S
C2301 O2306 1.209 . S
C2301 O2308 1.226 . S
O2302 Cd2298 2.273 . S
O2302 Cd2300 2.411 . S
O2302 C2305 1.320 . S
O2303 Cd2300 2.333 . S
O2303 C2305 1.214 . S
O2304 Cd2300 2.352 . S
O2304 C2307 1.258 . S
C2305 O2302 1.320 . S
C2305 O2303 1.214 . S
O2306 Cd2298 2.277 . S
O2306 C2301 1.209 . S
C2307 O2304 1.258 . S
C2307 O2309 1.282 . S
O2308 Cd2300 2.277 . S
O2308 C2301 1.226 . S
O2309 Cd2300 2.356 . S
O2309 C2307 1.282 . S
C2310 O2311 1.306 . S
C2310 O2313 1.160 . S
O2311 C2310 1.306 . S
O2311 Cd2312 2.228 . S
Cd2312 O2311 2.228 . S
Cd2312 O2316 2.273 . S
Cd2312 O2320 2.277 . S
O2313 C2310 1.160 . S
O2313 Cd2314 2.203 . S
Cd2314 O2313 2.203 . S
Cd2314 O2316 2.411 . S
Cd2314 O2317 2.333 . S
Cd2314 O2318 2.352 . S
Cd2314 O2322 2.277 . S
Cd2314 O2323 2.356 . S
C2315 O2320 1.209 . S
C2315 O2322 1.226 . S
O2316 Cd2312 2.273 . S
O2316 Cd2314 2.411 . S
O2316 C2319 1.320 . S
O2317 Cd2314 2.333 . S
O2317 C2319 1.214 . S
O2318 Cd2314 2.352 . S
O2318 C2321 1.258 . S
C2319 O2316 1.320 . S
C2319 O2317 1.214 . S
O2320 Cd2312 2.277 . S
O2320 C2315 1.209 . S
C2321 O2318 1.258 . S
C2321 O2323 1.282 . S
O2322 Cd2314 2.277 . S
O2322 C2315 1.226 . S
O2323 Cd2314 2.356 . S
O2323 C2321 1.282 . S
C2324 O2325 1.306 . S
C2324 O2327 1.160 . S
O2325 C2324 1.306 . S
O2325 Cd2326 2.228 . S
Cd2326 O2325 2.228 . S
Cd2326 O2330 2.273 . S
Cd2326 O2334 2.277 . S
O2327 C2324 1.160 . S
O2327 Cd2328 2.203 . S
Cd2328 O2327 2.203 . S
Cd2328 O2330 2.411 . S
Cd2328 O2331 2.333 . S
Cd2328 O2332 2.352 . S
Cd2328 O2336 2.277 . S
Cd2328 O2337 2.356 . S
C2329 O2334 1.209 . S
C2329 O2336 1.226 . S
O2330 Cd2326 2.273 . S
O2330 Cd2328 2.411 . S
O2330 C2333 1.320 . S
O2331 Cd2328 2.333 . S
O2331 C2333 1.214 . S
O2332 Cd2328 2.352 . S
O2332 C2335 1.258 . S
C2333 O2330 1.320 . S
C2333 O2331 1.214 . S
O2334 Cd2326 2.277 . S
O2334 C2329 1.209 . S
C2335 O2332 1.258 . S
C2335 O2337 1.282 . S
O2336 Cd2328 2.277 . S
O2336 C2329 1.226 . S
O2337 Cd2328 2.356 . S
O2337 C2335 1.282 . S
C2338 O2339 1.306 . S
C2338 O2341 1.160 . S
O2339 C2338 1.306 . S
O2339 Cd2340 2.228 . S
Cd2340 O2339 2.228 . S
Cd2340 O2344 2.273 . S
Cd2340 O2348 2.277 . S
O2341 C2338 1.160 . S
O2341 Cd2342 2.203 . S
Cd2342 O2341 2.203 . S
Cd2342 O2344 2.411 . S
Cd2342 O2345 2.333 . S
Cd2342 O2346 2.352 . S
Cd2342 O2350 2.277 . S
Cd2342 O2351 2.356 . S
C2343 O2348 1.209 . S
C2343 O2350 1.226 . S
O2344 Cd2340 2.273 . S
O2344 Cd2342 2.411 . S
O2344 C2347 1.320 . S
O2345 Cd2342 2.333 . S
O2345 C2347 1.214 . S
O2346 Cd2342 2.352 . S
O2346 C2349 1.258 . S
C2347 O2344 1.320 . S
C2347 O2345 1.214 . S
O2348 Cd2340 2.277 . S
O2348 C2343 1.209 . S
C2349 O2346 1.258 . S
C2349 O2351 1.282 . S
O2350 Cd2342 2.277 . S
O2350 C2343 1.226 . S
O2351 Cd2342 2.356 . S
O2351 C2349 1.282 . S
C2352 O2353 1.306 . S
C2352 O2355 1.160 . S
O2353 C2352 1.306 . S
O2353 Cd2354 2.228 . S
Cd2354 O2353 2.228 . S
Cd2354 O2358 2.273 . S
Cd2354 O2362 2.277 . S
O2355 C2352 1.160 . S
O2355 Cd2356 2.203 . S
Cd2356 O2355 2.203 . S
Cd2356 O2358 2.411 . S
Cd2356 O2359 2.333 . S
Cd2356 O2360 2.352 . S
Cd2356 O2364 2.277 . S
Cd2356 O2365 2.356 . S
C2357 O2362 1.209 . S
C2357 O2364 1.226 . S
O2358 Cd2354 2.273 . S
O2358 Cd2356 2.411 . S
O2358 C2361 1.320 . S
O2359 Cd2356 2.333 . S
O2359 C2361 1.214 . S
O2360 Cd2356 2.352 . S
O2360 C2363 1.258 . S
C2361 O2358 1.320 . S
C2361 O2359 1.214 . S
O2362 Cd2354 2.277 . S
O2362 C2357 1.209 . S
C2363 O2360 1.258 . S
C2363 O2365 1.282 . S
O2364 Cd2356 2.277 . S
O2364 C2357 1.226 . S
O2365 Cd2356 2.356 . S
O2365 C2363 1.282 . S
C2366 O2367 1.306 . S
C2366 O2369 1.160 . S
O2367 C2366 1.306 . S
O2367 Cd2368 2.228 . S
Cd2368 O2367 2.228 . S
Cd2368 O2372 2.273 . S
Cd2368 O2376 2.277 . S
O2369 C2366 1.160 . S
O2369 Cd2370 2.203 . S
Cd2370 O2369 2.203 . S
Cd2370 O2372 2.411 . S
Cd2370 O2373 2.333 . S
Cd2370 O2374 2.352 . S
Cd2370 O2378 2.277 . S
Cd2370 O2379 2.356 . S
C2371 O2376 1.209 . S
C2371 O2378 1.226 . S
O2372 Cd2368 2.273 . S
O2372 Cd2370 2.411 . S
O2372 C2375 1.320 . S
O2373 Cd2370 2.333 . S
O2373 C2375 1.214 . S
O2374 Cd2370 2.352 . S
O2374 C2377 1.258 . S
C2375 O2372 1.320 . S
C2375 O2373 1.214 . S
O2376 Cd2368 2.277 . S
O2376 C2371 1.209 . S
C2377 O2374 1.258 . S
C2377 O2379 1.282 . S
O2378 Cd2370 2.277 . S
O2378 C2371 1.226 . S
O2379 Cd2370 2.356 . S
O2379 C2377 1.282 . S
C2380 O2381 1.306 . S
C2380 O2383 1.160 . S
O2381 C2380 1.306 . S
O2381 Cd2382 2.228 . S
Cd2382 O2381 2.228 . S
Cd2382 O2386 2.273 . S
Cd2382 O2390 2.277 . S
O2383 C2380 1.160 . S
O2383 Cd2384 2.203 . S
Cd2384 O2383 2.203 . S
Cd2384 O2386 2.411 . S
Cd2384 O2387 2.333 . S
Cd2384 O2388 2.352 . S
Cd2384 O2392 2.277 . S
Cd2384 O2393 2.356 . S
C2385 O2390 1.209 . S
C2385 O2392 1.226 . S
O2386 Cd2382 2.273 . S
O2386 Cd2384 2.411 . S
O2386 C2389 1.320 . S
O2387 Cd2384 2.333 . S
O2387 C2389 1.214 . S
O2388 Cd2384 2.352 . S
O2388 C2391 1.258 . S
C2389 O2386 1.320 . S
C2389 O2387 1.214 . S
O2390 Cd2382 2.277 . S
O2390 C2385 1.209 . S
C2391 O2388 1.258 . S
C2391 O2393 1.282 . S
O2392 Cd2384 2.277 . S
O2392 C2385 1.226 . S
O2393 Cd2384 2.356 . S
O2393 C2391 1.282 . S
C2394 O2395 1.306 . S
C2394 O2397 1.160 . S
O2395 C2394 1.306 . S
O2395 Cd2396 2.228 . S
Cd2396 O2395 2.228 . S
Cd2396 O2400 2.273 . S
Cd2396 O2404 2.277 . S
O2397 C2394 1.160 . S
O2397 Cd2398 2.203 . S
Cd2398 O2397 2.203 . S
Cd2398 O2400 2.411 . S
Cd2398 O2401 2.333 . S
Cd2398 O2402 2.352 . S
Cd2398 O2406 2.277 . S
Cd2398 O2407 2.356 . S
C2399 O2404 1.209 . S
C2399 O2406 1.226 . S
O2400 Cd2396 2.273 . S
O2400 Cd2398 2.411 . S
O2400 C2403 1.320 . S
O2401 Cd2398 2.333 . S
O2401 C2403 1.214 . S
O2402 Cd2398 2.352 . S
O2402 C2405 1.258 . S
C2403 O2400 1.320 . S
C2403 O2401 1.214 . S
O2404 Cd2396 2.277 . S
O2404 C2399 1.209 . S
C2405 O2402 1.258 . S
C2405 O2407 1.282 . S
O2406 Cd2398 2.277 . S
O2406 C2399 1.226 . S
O2407 Cd2398 2.356 . S
O2407 C2405 1.282 . S
C2408 O2409 1.306 . S
C2408 O2411 1.160 . S
O2409 C2408 1.306 . S
O2409 Cd2410 2.228 . S
Cd2410 O2409 2.228 . S
Cd2410 O2414 2.273 . S
Cd2410 O2418 2.277 . S
O2411 C2408 1.160 . S
O2411 Cd2412 2.203 . S
Cd2412 O2411 2.203 . S
Cd2412 O2414 2.411 . S
Cd2412 O2415 2.333 . S
Cd2412 O2416 2.352 . S
Cd2412 O2420 2.277 . S
Cd2412 O2421 2.356 . S
C2413 O2418 1.209 . S
C2413 O2420 1.226 . S
O2414 Cd2410 2.273 . S
O2414 Cd2412 2.411 . S
O2414 C2417 1.320 . S
O2415 Cd2412 2.333 . S
O2415 C2417 1.214 . S
O2416 Cd2412 2.352 . S
O2416 C2419 1.258 . S
C2417 O2414 1.320 . S
C2417 O2415 1.214 . S
O2418 Cd2410 2.277 . S
O2418 C2413 1.209 . S
C2419 O2416 1.258 . S
C2419 O2421 1.282 . S
O2420 Cd2412 2.277 . S
O2420 C2413 1.226 . S
O2421 Cd2412 2.356 . S
O2421 C2419 1.282 . S
C2422 O2423 1.306 . S
C2422 O2425 1.160 . S
O2423 C2422 1.306 . S
O2423 Cd2424 2.228 . S
Cd2424 O2423 2.228 . S
Cd2424 O2428 2.273 . S
Cd2424 O2432 2.277 . S
O2425 C2422 1.160 . S
O2425 Cd2426 2.203 . S
Cd2426 O2425 2.203 . S
Cd2426 O2428 2.411 . S
Cd2426 O2429 2.333 . S
Cd2426 O2430 2.352 . S
Cd2426 O2434 2.277 . S
Cd2426 O2435 2.356 . S
C2427 O2432 1.209 . S
C2427 O2434 1.226 . S
O2428 Cd2424 2.273 . S
O2428 Cd2426 2.411 . S
O2428 C2431 1.320 . S
O2429 Cd2426 2.333 . S
O2429 C2431 1.214 . S
O2430 Cd2426 2.352 . S
O2430 C2433 1.258 . S
C2431 O2428 1.320 . S
C2431 O2429 1.214 . S
O2432 Cd2424 2.277 . S
O2432 C2427 1.209 . S
C2433 O2430 1.258 . S
C2433 O2435 1.282 . S
O2434 Cd2426 2.277 . S
O2434 C2427 1.226 . S
O2435 Cd2426 2.356 . S
O2435 C2433 1.282 . S
C2436 O2437 1.306 . S
C2436 O2439 1.160 . S
O2437 C2436 1.306 . S
O2437 Cd2438 2.228 . S
Cd2438 O2437 2.228 . S
Cd2438 O2442 2.273 . S
Cd2438 O2446 2.277 . S
O2439 C2436 1.160 . S
O2439 Cd2440 2.203 . S
Cd2440 O2439 2.203 . S
Cd2440 O2442 2.411 . S
Cd2440 O2443 2.333 . S
Cd2440 O2444 2.352 . S
Cd2440 O2448 2.277 . S
Cd2440 O2449 2.356 . S
C2441 O2446 1.209 . S
C2441 O2448 1.226 . S
O2442 Cd2438 2.273 . S
O2442 Cd2440 2.411 . S
O2442 C2445 1.320 . S
O2443 Cd2440 2.333 . S
O2443 C2445 1.214 . S
O2444 Cd2440 2.352 . S
O2444 C2447 1.258 . S
C2445 O2442 1.320 . S
C2445 O2443 1.214 . S
O2446 Cd2438 2.277 . S
O2446 C2441 1.209 . S
C2447 O2444 1.258 . S
C2447 O2449 1.282 . S
O2448 Cd2440 2.277 . S
O2448 C2441 1.226 . S
O2449 Cd2440 2.356 . S
O2449 C2447 1.282 . S
C2450 O2451 1.306 . S
C2450 O2453 1.160 . S
O2451 C2450 1.306 . S
O2451 Cd2452 2.228 . S
Cd2452 O2451 2.228 . S
Cd2452 O2456 2.273 . S
Cd2452 O2460 2.277 . S
O2453 C2450 1.160 . S
O2453 Cd2454 2.203 . S
Cd2454 O2453 2.203 . S
Cd2454 O2456 2.411 . S
Cd2454 O2457 2.333 . S
Cd2454 O2458 2.352 . S
Cd2454 O2462 2.277 . S
Cd2454 O2463 2.356 . S
C2455 O2460 1.209 . S
C2455 O2462 1.226 . S
O2456 Cd2452 2.273 . S
O2456 Cd2454 2.411 . S
O2456 C2459 1.320 . S
O2457 Cd2454 2.333 . S
O2457 C2459 1.214 . S
O2458 Cd2454 2.352 . S
O2458 C2461 1.258 . S
C2459 O2456 1.320 . S
C2459 O2457 1.214 . S
O2460 Cd2452 2.277 . S
O2460 C2455 1.209 . S
C2461 O2458 1.258 . S
C2461 O2463 1.282 . S
O2462 Cd2454 2.277 . S
O2462 C2455 1.226 . S
O2463 Cd2454 2.356 . S
O2463 C2461 1.282 . S
C2464 O2465 1.306 . S
C2464 O2467 1.160 . S
O2465 C2464 1.306 . S
O2465 Cd2466 2.228 . S
Cd2466 O2465 2.228 . S
Cd2466 O2470 2.273 . S
Cd2466 O2474 2.277 . S
O2467 C2464 1.160 . S
O2467 Cd2468 2.203 . S
Cd2468 O2467 2.203 . S
Cd2468 O2470 2.411 . S
Cd2468 O2471 2.333 . S
Cd2468 O2472 2.352 . S
Cd2468 O2476 2.277 . S
Cd2468 O2477 2.356 . S
C2469 O2474 1.209 . S
C2469 O2476 1.226 . S
O2470 Cd2466 2.273 . S
O2470 Cd2468 2.411 . S
O2470 C2473 1.320 . S
O2471 Cd2468 2.333 . S
O2471 C2473 1.214 . S
O2472 Cd2468 2.352 . S
O2472 C2475 1.258 . S
C2473 O2470 1.320 . S
C2473 O2471 1.214 . S
O2474 Cd2466 2.277 . S
O2474 C2469 1.209 . S
C2475 O2472 1.258 . S
C2475 O2477 1.282 . S
O2476 Cd2468 2.277 . S
O2476 C2469 1.226 . S
O2477 Cd2468 2.356 . S
O2477 C2475 1.282 . S
C2478 O2479 1.306 . S
C2478 O2481 1.160 . S
O2479 C2478 1.306 . S
O2479 Cd2480 2.228 . S
Cd2480 O2479 2.228 . S
Cd2480 O2484 2.273 . S
Cd2480 O2488 2.277 . S
O2481 C2478 1.160 . S
O2481 Cd2482 2.203 . S
Cd2482 O2481 2.203 . S
Cd2482 O2484 2.411 . S
Cd2482 O2485 2.333 . S
Cd2482 O2486 2.352 . S
Cd2482 O2490 2.277 . S
Cd2482 O2491 2.356 . S
C2483 O2488 1.209 . S
C2483 O2490 1.226 . S
O2484 Cd2480 2.273 . S
O2484 Cd2482 2.411 . S
O2484 C2487 1.320 . S
O2485 Cd2482 2.333 . S
O2485 C2487 1.214 . S
O2486 Cd2482 2.352 . S
O2486 C2489 1.258 . S
C2487 O2484 1.320 . S
C2487 O2485 1.214 . S
O2488 Cd2480 2.277 . S
O2488 C2483 1.209 . S
C2489 O2486 1.258 . S
C2489 O2491 1.282 . S
O2490 Cd2482 2.277 . S
O2490 C2483 1.226 . S
O2491 Cd2482 2.356 . S
O2491 C2489 1.282 . S
C2492 O2493 1.306 . S
C2492 O2495 1.160 . S
O2493 C2492 1.306 . S
O2493 Cd2494 2.228 . S
Cd2494 O2493 2.228 . S
Cd2494 O2498 2.273 . S
Cd2494 O2502 2.277 . S
O2495 C2492 1.160 . S
O2495 Cd2496 2.203 . S
Cd2496 O2495 2.203 . S
Cd2496 O2498 2.411 . S
Cd2496 O2499 2.333 . S
Cd2496 O2500 2.352 . S
Cd2496 O2504 2.277 . S
Cd2496 O2505 2.356 . S
C2497 O2502 1.209 . S
C2497 O2504 1.226 . S
O2498 Cd2494 2.273 . S
O2498 Cd2496 2.411 . S
O2498 C2501 1.320 . S
O2499 Cd2496 2.333 . S
O2499 C2501 1.214 . S
O2500 Cd2496 2.352 . S
O2500 C2503 1.258 . S
C2501 O2498 1.320 . S
C2501 O2499 1.214 . S
O2502 Cd2494 2.277 . S
O2502 C2497 1.209 . S
C2503 O2500 1.258 . S
C2503 O2505 1.282 . S
O2504 Cd2496 2.277 . S
O2504 C2497 1.226 . S
O2505 Cd2496 2.356 . S
O2505 C2503 1.282 . S
C2506 O2507 1.306 . S
C2506 O2509 1.160 . S
O2507 C2506 1.306 . S
O2507 Cd2508 2.228 . S
Cd2508 O2507 2.228 . S
Cd2508 O2512 2.273 . S
Cd2508 O2516 2.277 . S
O2509 C2506 1.160 . S
O2509 Cd2510 2.203 . S
Cd2510 O2509 2.203 . S
Cd2510 O2512 2.411 . S
Cd2510 O2513 2.333 . S
Cd2510 O2514 2.352 . S
Cd2510 O2518 2.277 . S
Cd2510 O2519 2.356 . S
C2511 O2516 1.209 . S
C2511 O2518 1.226 . S
O2512 Cd2508 2.273 . S
O2512 Cd2510 2.411 . S
O2512 C2515 1.320 . S
O2513 Cd2510 2.333 . S
O2513 C2515 1.214 . S
O2514 Cd2510 2.352 . S
O2514 C2517 1.258 . S
C2515 O2512 1.320 . S
C2515 O2513 1.214 . S
O2516 Cd2508 2.277 . S
O2516 C2511 1.209 . S
C2517 O2514 1.258 . S
C2517 O2519 1.282 . S
O2518 Cd2510 2.277 . S
O2518 C2511 1.226 . S
O2519 Cd2510 2.356 . S
O2519 C2517 1.282 . S
C2520 O2521 1.306 . S
C2520 O2523 1.160 . S
O2521 C2520 1.306 . S
O2521 Cd2522 2.228 . S
Cd2522 O2521 2.228 . S
Cd2522 O2526 2.273 . S
Cd2522 O2530 2.277 . S
O2523 C2520 1.160 . S
O2523 Cd2524 2.203 . S
Cd2524 O2523 2.203 . S
Cd2524 O2526 2.411 . S
Cd2524 O2527 2.333 . S
Cd2524 O2528 2.352 . S
Cd2524 O2532 2.277 . S
Cd2524 O2533 2.356 . S
C2525 O2530 1.209 . S
C2525 O2532 1.226 . S
O2526 Cd2522 2.273 . S
O2526 Cd2524 2.411 . S
O2526 C2529 1.320 . S
O2527 Cd2524 2.333 . S
O2527 C2529 1.214 . S
O2528 Cd2524 2.352 . S
O2528 C2531 1.258 . S
C2529 O2526 1.320 . S
C2529 O2527 1.214 . S
O2530 Cd2522 2.277 . S
O2530 C2525 1.209 . S
C2531 O2528 1.258 . S
C2531 O2533 1.282 . S
O2532 Cd2524 2.277 . S
O2532 C2525 1.226 . S
O2533 Cd2524 2.356 . S
O2533 C2531 1.282 . S
C2534 O2535 1.306 . S
C2534 O2537 1.160 . S
O2535 C2534 1.306 . S
O2535 Cd2536 2.228 . S
Cd2536 O2535 2.228 . S
Cd2536 O2540 2.273 . S
Cd2536 O2544 2.277 . S
O2537 C2534 1.160 . S
O2537 Cd2538 2.203 . S
Cd2538 O2537 2.203 . S
Cd2538 O2540 2.411 . S
Cd2538 O2541 2.333 . S
Cd2538 O2542 2.352 . S
Cd2538 O2546 2.277 . S
Cd2538 O2547 2.356 . S
C2539 O2544 1.209 . S
C2539 O2546 1.226 . S
O2540 Cd2536 2.273 . S
O2540 Cd2538 2.411 . S
O2540 C2543 1.320 . S
O2541 Cd2538 2.333 . S
O2541 C2543 1.214 . S
O2542 Cd2538 2.352 . S
O2542 C2545 1.258 . S
C2543 O2540 1.320 . S
C2543 O2541 1.214 . S
O2544 Cd2536 2.277 . S
O2544 C2539 1.209 . S
C2545 O2542 1.258 . S
C2545 O2547 1.282 . S
O2546 Cd2538 2.277 . S
O2546 C2539 1.226 . S
O2547 Cd2538 2.356 . S
O2547 C2545 1.282 . S
C2548 O2549 1.306 . S
C2548 O2551 1.160 . S
O2549 C2548 1.306 . S
O2549 Cd2550 2.228 . S
Cd2550 O2549 2.228 . S
Cd2550 O2554 2.273 . S
Cd2550 O2558 2.277 . S
O2551 C2548 1.160 . S
O2551 Cd2552 2.203 . S
Cd2552 O2551 2.203 . S
Cd2552 O2554 2.411 . S
Cd2552 O2555 2.333 . S
Cd2552 O2556 2.352 . S
Cd2552 O2560 2.277 . S
Cd2552 O2561 2.356 . S
C2553 O2558 1.209 . S
C2553 O2560 1.226 . S
O2554 Cd2550 2.273 . S
O2554 Cd2552 2.411 . S
O2554 C2557 1.320 . S
O2555 Cd2552 2.333 . S
O2555 C2557 1.214 . S
O2556 Cd2552 2.352 . S
O2556 C2559 1.258 . S
C2557 O2554 1.320 . S
C2557 O2555 1.214 . S
O2558 Cd2550 2.277 . S
O2558 C2553 1.209 . S
C2559 O2556 1.258 . S
C2559 O2561 1.282 . S
O2560 Cd2552 2.277 . S
O2560 C2553 1.226 . S
O2561 Cd2552 2.356 . S
O2561 C2559 1.282 . S
C2562 O2563 1.306 . S
C2562 O2565 1.160 . S
O2563 C2562 1.306 . S
O2563 Cd2564 2.228 . S
Cd2564 O2563 2.228 . S
Cd2564 O2568 2.273 . S
Cd2564 O2572 2.277 . S
O2565 C2562 1.160 . S
O2565 Cd2566 2.203 . S
Cd2566 O2565 2.203 . S
Cd2566 O2568 2.411 . S
Cd2566 O2569 2.333 . S
Cd2566 O2570 2.352 . S
Cd2566 O2574 2.277 . S
Cd2566 O2575 2.356 . S
C2567 O2572 1.209 . S
C2567 O2574 1.226 . S
O2568 Cd2564 2.273 . S
O2568 Cd2566 2.411 . S
O2568 C2571 1.320 . S
O2569 Cd2566 2.333 . S
O2569 C2571 1.214 . S
O2570 Cd2566 2.352 . S
O2570 C2573 1.258 . S
C2571 O2568 1.320 . S
C2571 O2569 1.214 . S
O2572 Cd2564 2.277 . S
O2572 C2567 1.209 . S
C2573 O2570 1.258 . S
C2573 O2575 1.282 . S
O2574 Cd2566 2.277 . S
O2574 C2567 1.226 . S
O2575 Cd2566 2.356 . S
O2575 C2573 1.282 . S
C2576 O2577 1.306 . S
C2576 O2579 1.160 . S
O2577 C2576 1.306 . S
O2577 Cd2578 2.228 . S
Cd2578 O2577 2.228 . S
Cd2578 O2582 2.273 . S
Cd2578 O2586 2.277 . S
O2579 C2576 1.160 . S
O2579 Cd2580 2.203 . S
Cd2580 O2579 2.203 . S
Cd2580 O2582 2.411 . S
Cd2580 O2583 2.333 . S
Cd2580 O2584 2.352 . S
Cd2580 O2588 2.277 . S
Cd2580 O2589 2.356 . S
C2581 O2586 1.209 . S
C2581 O2588 1.226 . S
O2582 Cd2578 2.273 . S
O2582 Cd2580 2.411 . S
O2582 C2585 1.320 . S
O2583 Cd2580 2.333 . S
O2583 C2585 1.214 . S
O2584 Cd2580 2.352 . S
O2584 C2587 1.258 . S
C2585 O2582 1.320 . S
C2585 O2583 1.214 . S
O2586 Cd2578 2.277 . S
O2586 C2581 1.209 . S
C2587 O2584 1.258 . S
C2587 O2589 1.282 . S
O2588 Cd2580 2.277 . S
O2588 C2581 1.226 . S
O2589 Cd2580 2.356 . S
O2589 C2587 1.282 . S
C2590 O2591 1.306 . S
C2590 O2593 1.160 . S
O2591 C2590 1.306 . S
O2591 Cd2592 2.228 . S
Cd2592 O2591 2.228 . S
Cd2592 O2596 2.273 . S
Cd2592 O2600 2.277 . S
O2593 C2590 1.160 . S
O2593 Cd2594 2.203 . S
Cd2594 O2593 2.203 . S
Cd2594 O2596 2.411 . S
Cd2594 O2597 2.333 . S
Cd2594 O2598 2.352 . S
Cd2594 O2602 2.277 . S
Cd2594 O2603 2.356 . S
C2595 O2600 1.209 . S
C2595 O2602 1.226 . S
O2596 Cd2592 2.273 . S
O2596 Cd2594 2.411 . S
O2596 C2599 1.320 . S
O2597 Cd2594 2.333 . S
O2597 C2599 1.214 . S
O2598 Cd2594 2.352 . S
O2598 C2601 1.258 . S
C2599 O2596 1.320 . S
C2599 O2597 1.214 . S
O2600 Cd2592 2.277 . S
O2600 C2595 1.209 . S
C2601 O2598 1.258 . S
C2601 O2603 1.282 . S
O2602 Cd2594 2.277 . S
O2602 C2595 1.226 . S
O2603 Cd2594 2.356 . S
O2603 C2601 1.282 . S
C2604 O2605 1.306 . S
C2604 O2607 1.160 . S
O2605 C2604 1.306 . S
O2605 Cd2606 2.228 . S
Cd2606 O2605 2.228 . S
Cd2606 O2610 2.273 . S
Cd2606 O2614 2.277 . S
O2607 C2604 1.160 . S
O2607 Cd2608 2.203 . S
Cd2608 O2607 2.203 . S
Cd2608 O2610 2.411 . S
Cd2608 O2611 2.333 . S
Cd2608 O2612 2.352 . S
Cd2608 O2616 2.277 . S
Cd2608 O2617 2.356 . S
C2609 O2614 1.209 . S
C2609 O2616 1.226 . S
O2610 Cd2606 2.273 . S
O2610 Cd2608 2.411 . S
O2610 C2613 1.320 . S
O2611 Cd2608 2.333 . S
O2611 C2613 1.214 . S
O2612 Cd2608 2.352 . S
O2612 C2615 1.258 . S
C2613 O2610 1.320 . S
C2613 O2611 1.214 . S
O2614 Cd2606 2.277 . S
O2614 C2609 1.209 . S
C2615 O2612 1.258 . S
C2615 O2617 1.282 . S
O2616 Cd2608 2.277 . S
O2616 C2609 1.226 . S
O2617 Cd2608 2.356 . S
O2617 C2615 1.282 . S
C2618 O2619 1.306 . S
C2618 O2621 1.160 . S
O2619 C2618 1.306 . S
O2619 Cd2620 2.228 . S
Cd2620 O2619 2.228 . S
Cd2620 O2624 2.273 . S
Cd2620 O2628 2.277 . S
O2621 C2618 1.160 . S
O2621 Cd2622 2.203 . S
Cd2622 O2621 2.203 . S
Cd2622 O2624 2.411 . S
Cd2622 O2625 2.333 . S
Cd2622 O2626 2.352 . S
Cd2622 O2630 2.277 . S
Cd2622 O2631 2.356 . S
C2623 O2628 1.209 . S
C2623 O2630 1.226 . S
O2624 Cd2620 2.273 . S
O2624 Cd2622 2.411 . S
O2624 C2627 1.320 . S
O2625 Cd2622 2.333 . S
O2625 C2627 1.214 . S
O2626 Cd2622 2.352 . S
O2626 C2629 1.258 . S
C2627 O2624 1.320 . S
C2627 O2625 1.214 . S
O2628 Cd2620 2.277 . S
O2628 C2623 1.209 . S
C2629 O2626 1.258 . S
C2629 O2631 1.282 . S
O2630 Cd2622 2.277 . S
O2630 C2623 1.226 . S
O2631 Cd2622 2.356 . S
O2631 C2629 1.282 . S
C2632 O2633 1.306 . S
C2632 O2635 1.160 . S
O2633 C2632 1.306 . S
O2633 Cd2634 2.228 . S
Cd2634 O2633 2.228 . S
Cd2634 O2638 2.273 . S
Cd2634 O2642 2.277 . S
O2635 C2632 1.160 . S
O2635 Cd2636 2.203 . S
Cd2636 O2635 2.203 . S
Cd2636 O2638 2.411 . S
Cd2636 O2639 2.333 . S
Cd2636 O2640 2.352 . S
Cd2636 O2644 2.277 . S
Cd2636 O2645 2.356 . S
C2637 O2642 1.209 . S
C2637 O2644 1.226 . S
O2638 Cd2634 2.273 . S
O2638 Cd2636 2.411 . S
O2638 C2641 1.320 . S
O2639 Cd2636 2.333 . S
O2639 C2641 1.214 . S
O2640 Cd2636 2.352 . S
O2640 C2643 1.258 . S
C2641 O2638 1.320 . S
C2641 O2639 1.214 . S
O2642 Cd2634 2.277 . S
O2642 C2637 1.209 . S
C2643 O2640 1.258 . S
C2643 O2645 1.282 . S
O2644 Cd2636 2.277 . S
O2644 C2637 1.226 . S
O2645 Cd2636 2.356 . S
O2645 C2643 1.282 . S
C2646 O2647 1.306 . S
C2646 O2649 1.160 . S
O2647 C2646 1.306 . S
O2647 Cd2648 2.228 . S
Cd2648 O2647 2.228 . S
Cd2648 O2652 2.273 . S
Cd2648 O2656 2.277 . S
O2649 C2646 1.160 . S
O2649 Cd2650 2.203 . S
Cd2650 O2649 2.203 . S
Cd2650 O2652 2.411 . S
Cd2650 O2653 2.333 . S
Cd2650 O2654 2.352 . S
Cd2650 O2658 2.277 . S
Cd2650 O2659 2.356 . S
C2651 O2656 1.209 . S
C2651 O2658 1.226 . S
O2652 Cd2648 2.273 . S
O2652 Cd2650 2.411 . S
O2652 C2655 1.320 . S
O2653 Cd2650 2.333 . S
O2653 C2655 1.214 . S
O2654 Cd2650 2.352 . S
O2654 C2657 1.258 . S
C2655 O2652 1.320 . S
C2655 O2653 1.214 . S
O2656 Cd2648 2.277 . S
O2656 C2651 1.209 . S
C2657 O2654 1.258 . S
C2657 O2659 1.282 . S
O2658 Cd2650 2.277 . S
O2658 C2651 1.226 . S
O2659 Cd2650 2.356 . S
O2659 C2657 1.282 . S
C2660 O2661 1.306 . S
C2660 O2663 1.160 . S
O2661 C2660 1.306 . S
O2661 Cd2662 2.228 . S
Cd2662 O2661 2.228 . S
Cd2662 O2666 2.273 . S
Cd2662 O2670 2.277 . S
O2663 C2660 1.160 . S
O2663 Cd2664 2.203 . S
Cd2664 O2663 2.203 . S
Cd2664 O2666 2.411 . S
Cd2664 O2667 2.333 . S
Cd2664 O2668 2.352 . S
Cd2664 O2672 2.277 . S
Cd2664 O2673 2.356 . S
C2665 O2670 1.209 . S
C2665 O2672 1.226 . S
O2666 Cd2662 2.273 . S
O2666 Cd2664 2.411 . S
O2666 C2669 1.320 . S
O2667 Cd2664 2.333 . S
O2667 C2669 1.214 . S
O2668 Cd2664 2.352 . S
O2668 C2671 1.258 . S
C2669 O2666 1.320 . S
C2669 O2667 1.214 . S
O2670 Cd2662 2.277 . S
O2670 C2665 1.209 . S
C2671 O2668 1.258 . S
C2671 O2673 1.282 . S
O2672 Cd2664 2.277 . S
O2672 C2665 1.226 . S
O2673 Cd2664 2.356 . S
O2673 C2671 1.282 . S
C2674 O2675 1.306 . S
C2674 O2677 1.160 . S
O2675 C2674 1.306 . S
O2675 Cd2676 2.228 . S
Cd2676 O2675 2.228 . S
Cd2676 O2680 2.273 . S
Cd2676 O2684 2.277 . S
O2677 C2674 1.160 . S
O2677 Cd2678 2.203 . S
Cd2678 O2677 2.203 . S
Cd2678 O2680 2.411 . S
Cd2678 O2681 2.333 . S
Cd2678 O2682 2.352 . S
Cd2678 O2686 2.277 . S
Cd2678 O2687 2.356 . S
C2679 O2684 1.209 . S
C2679 O2686 1.226 . S
O2680 Cd2676 2.273 . S
O2680 Cd2678 2.411 . S
O2680 C2683 1.320 . S
O2681 Cd2678 2.333 . S
O2681 C2683 1.214 . S
O2682 Cd2678 2.352 . S
O2682 C2685 1.258 . S
C2683 O2680 1.320 . S
C2683 O2681 1.214 . S
O2684 Cd2676 2.277 . S
O2684 C2679 1.209 . S
C2685 O2682 1.258 . S
C2685 O2687 1.282 . S
O2686 Cd2678 2.277 . S
O2686 C2679 1.226 . S
O2687 Cd2678 2.356 . S
O2687 C2685 1.282 . S
C2688 C2689 1.387 . S
C2688 H2692 0.950 . S
C2688 C2697 1.390 . S
C2689 C2688 1.387 . S
C2689 C2691 1.387 . S
H2690 C2697 0.950 . S
C2691 C2689 1.387 . S
C2691 C2693 1.390 . S
C2691 H2695 0.950 . S
H2692 C2688 0.950 . S
C2693 C2691 1.390 . S
C2693 C2694 1.387 . S
C2693 H2696 0.950 . S
C2694 C2693 1.387 . S
C2694 C2697 1.387 . S
H2695 C2691 0.950 . S
H2696 C2693 0.950 . S
C2697 C2688 1.390 . S
C2697 H2690 0.950 . S
C2697 C2694 1.387 . S
C2698 C2699 1.387 . S
C2698 H2702 0.950 . S
C2698 C2707 1.390 . S
C2699 C2698 1.387 . S
C2699 C2701 1.387 . S
H2700 C2707 0.950 . S
C2701 C2699 1.387 . S
C2701 C2703 1.390 . S
C2701 H2705 0.950 . S
H2702 C2698 0.950 . S
C2703 C2701 1.390 . S
C2703 C2704 1.387 . S
C2703 H2706 0.950 . S
C2704 C2703 1.387 . S
C2704 C2707 1.387 . S
H2705 C2701 0.950 . S
H2706 C2703 0.950 . S
C2707 C2698 1.390 . S
C2707 H2700 0.950 . S
C2707 C2704 1.387 . S
C2708 C2709 1.387 . S
C2708 H2712 0.950 . S
C2708 C2717 1.390 . S
C2709 C2708 1.387 . S
C2709 C2711 1.387 . S
H2710 C2717 0.950 . S
C2711 C2709 1.387 . S
C2711 C2713 1.390 . S
C2711 H2715 0.950 . S
H2712 C2708 0.950 . S
C2713 C2711 1.390 . S
C2713 C2714 1.387 . S
C2713 H2716 0.950 . S
C2714 C2713 1.387 . S
C2714 C2717 1.387 . S
H2715 C2711 0.950 . S
H2716 C2713 0.950 . S
C2717 C2708 1.390 . S
C2717 H2710 0.950 . S
C2717 C2714 1.387 . S
C2718 C2719 1.387 . S
C2718 H2722 0.950 . S
C2718 C2727 1.390 . S
C2719 C2718 1.387 . S
C2719 C2721 1.387 . S
H2720 C2727 0.950 . S
C2721 C2719 1.387 . S
C2721 C2723 1.390 . S
C2721 H2725 0.950 . S
H2722 C2718 0.950 . S
C2723 C2721 1.390 . S
C2723 C2724 1.387 . S
C2723 H2726 0.950 . S
C2724 C2723 1.387 . S
C2724 C2727 1.387 . S
H2725 C2721 0.950 . S
H2726 C2723 0.950 . S
C2727 C2718 1.390 . S
C2727 H2720 0.950 . S
C2727 C2724 1.387 . S
C2728 C2729 1.387 . S
C2728 H2732 0.950 . S
C2728 C2737 1.390 . S
C2729 C2728 1.387 . S
C2729 C2731 1.387 . S
H2730 C2737 0.950 . S
C2731 C2729 1.387 . S
C2731 C2733 1.390 . S
C2731 H2735 0.950 . S
H2732 C2728 0.950 . S
C2733 C2731 1.390 . S
C2733 C2734 1.387 . S
C2733 H2736 0.950 . S
C2734 C2733 1.387 . S
C2734 C2737 1.387 . S
H2735 C2731 0.950 . S
H2736 C2733 0.950 . S
C2737 C2728 1.390 . S
C2737 H2730 0.950 . S
C2737 C2734 1.387 . S
C2738 C2739 1.387 . S
C2738 H2742 0.950 . S
C2738 C2747 1.390 . S
C2739 C2738 1.387 . S
C2739 C2741 1.387 . S
H2740 C2747 0.950 . S
C2741 C2739 1.387 . S
C2741 C2743 1.390 . S
C2741 H2745 0.950 . S
H2742 C2738 0.950 . S
C2743 C2741 1.390 . S
C2743 C2744 1.387 . S
C2743 H2746 0.950 . S
C2744 C2743 1.387 . S
C2744 C2747 1.387 . S
H2745 C2741 0.950 . S
H2746 C2743 0.950 . S
C2747 C2738 1.390 . S
C2747 H2740 0.950 . S
C2747 C2744 1.387 . S
C2748 C2749 1.387 . S
C2748 H2752 0.950 . S
C2748 C2757 1.390 . S
C2749 C2748 1.387 . S
C2749 C2751 1.387 . S
H2750 C2757 0.950 . S
C2751 C2749 1.387 . S
C2751 C2753 1.390 . S
C2751 H2755 0.950 . S
H2752 C2748 0.950 . S
C2753 C2751 1.390 . S
C2753 C2754 1.387 . S
C2753 H2756 0.950 . S
C2754 C2753 1.387 . S
C2754 C2757 1.387 . S
H2755 C2751 0.950 . S
H2756 C2753 0.950 . S
C2757 C2748 1.390 . S
C2757 H2750 0.950 . S
C2757 C2754 1.387 . S
C2758 C2759 1.387 . S
C2758 H2762 0.950 . S
C2758 C2767 1.390 . S
C2759 C2758 1.387 . S
C2759 C2761 1.387 . S
H2760 C2767 0.950 . S
C2761 C2759 1.387 . S
C2761 C2763 1.390 . S
C2761 H2765 0.950 . S
H2762 C2758 0.950 . S
C2763 C2761 1.390 . S
C2763 C2764 1.387 . S
C2763 H2766 0.950 . S
C2764 C2763 1.387 . S
C2764 C2767 1.387 . S
H2765 C2761 0.950 . S
H2766 C2763 0.950 . S
C2767 C2758 1.390 . S
C2767 H2760 0.950 . S
C2767 C2764 1.387 . S
C2768 C2769 1.387 . S
C2768 H2772 0.950 . S
C2768 C2777 1.390 . S
C2769 C2768 1.387 . S
C2769 C2771 1.387 . S
H2770 C2777 0.950 . S
C2771 C2769 1.387 . S
C2771 C2773 1.390 . S
C2771 H2775 0.950 . S
H2772 C2768 0.950 . S
C2773 C2771 1.390 . S
C2773 C2774 1.387 . S
C2773 H2776 0.950 . S
C2774 C2773 1.387 . S
C2774 C2777 1.387 . S
H2775 C2771 0.950 . S
H2776 C2773 0.950 . S
C2777 C2768 1.390 . S
C2777 H2770 0.950 . S
C2777 C2774 1.387 . S
C2778 C2779 1.387 . S
C2778 H2782 0.950 . S
C2778 C2787 1.390 . S
C2779 C2778 1.387 . S
C2779 C2781 1.387 . S
H2780 C2787 0.950 . S
C2781 C2779 1.387 . S
C2781 C2783 1.390 . S
C2781 H2785 0.950 . S
H2782 C2778 0.950 . S
C2783 C2781 1.390 . S
C2783 C2784 1.387 . S
C2783 H2786 0.950 . S
C2784 C2783 1.387 . S
C2784 C2787 1.387 . S
H2785 C2781 0.950 . S
H2786 C2783 0.950 . S
C2787 C2778 1.390 . S
C2787 H2780 0.950 . S
C2787 C2784 1.387 . S
C2788 C2789 1.387 . S
C2788 H2792 0.950 . S
C2788 C2797 1.390 . S
C2789 C2788 1.387 . S
C2789 C2791 1.387 . S
H2790 C2797 0.950 . S
C2791 C2789 1.387 . S
C2791 C2793 1.390 . S
C2791 H2795 0.950 . S
H2792 C2788 0.950 . S
C2793 C2791 1.390 . S
C2793 C2794 1.387 . S
C2793 H2796 0.950 . S
C2794 C2793 1.387 . S
C2794 C2797 1.387 . S
H2795 C2791 0.950 . S
H2796 C2793 0.950 . S
C2797 C2788 1.390 . S
C2797 H2790 0.950 . S
C2797 C2794 1.387 . S
C2798 C2799 1.387 . S
C2798 H2802 0.950 . S
C2798 C2807 1.390 . S
C2799 C2798 1.387 . S
C2799 C2801 1.387 . S
H2800 C2807 0.950 . S
C2801 C2799 1.387 . S
C2801 C2803 1.390 . S
C2801 H2805 0.950 . S
H2802 C2798 0.950 . S
C2803 C2801 1.390 . S
C2803 C2804 1.387 . S
C2803 H2806 0.950 . S
C2804 C2803 1.387 . S
C2804 C2807 1.387 . S
H2805 C2801 0.950 . S
H2806 C2803 0.950 . S
C2807 C2798 1.390 . S
C2807 H2800 0.950 . S
C2807 C2804 1.387 . S
C2808 C2809 1.387 . S
C2808 H2812 0.950 . S
C2808 C2817 1.390 . S
C2809 C2808 1.387 . S
C2809 C2811 1.387 . S
H2810 C2817 0.950 . S
C2811 C2809 1.387 . S
C2811 C2813 1.390 . S
C2811 H2815 0.950 . S
H2812 C2808 0.950 . S
C2813 C2811 1.390 . S
C2813 C2814 1.387 . S
C2813 H2816 0.950 . S
C2814 C2813 1.387 . S
C2814 C2817 1.387 . S
H2815 C2811 0.950 . S
H2816 C2813 0.950 . S
C2817 C2808 1.390 . S
C2817 H2810 0.950 . S
C2817 C2814 1.387 . S
C2818 C2819 1.387 . S
C2818 H2822 0.950 . S
C2818 C2827 1.390 . S
C2819 C2818 1.387 . S
C2819 C2821 1.387 . S
H2820 C2827 0.950 . S
C2821 C2819 1.387 . S
C2821 C2823 1.390 . S
C2821 H2825 0.950 . S
H2822 C2818 0.950 . S
C2823 C2821 1.390 . S
C2823 C2824 1.387 . S
C2823 H2826 0.950 . S
C2824 C2823 1.387 . S
C2824 C2827 1.387 . S
H2825 C2821 0.950 . S
H2826 C2823 0.950 . S
C2827 C2818 1.390 . S
C2827 H2820 0.950 . S
C2827 C2824 1.387 . S
C2828 C2829 1.387 . S
C2828 H2832 0.950 . S
C2828 C2837 1.390 . S
C2829 C2828 1.387 . S
C2829 C2831 1.387 . S
H2830 C2837 0.950 . S
C2831 C2829 1.387 . S
C2831 C2833 1.390 . S
C2831 H2835 0.950 . S
H2832 C2828 0.950 . S
C2833 C2831 1.390 . S
C2833 C2834 1.387 . S
C2833 H2836 0.950 . S
C2834 C2833 1.387 . S
C2834 C2837 1.387 . S
H2835 C2831 0.950 . S
H2836 C2833 0.950 . S
C2837 C2828 1.390 . S
C2837 H2830 0.950 . S
C2837 C2834 1.387 . S
C2838 C2839 1.387 . S
C2838 H2842 0.950 . S
C2838 C2847 1.390 . S
C2839 C2838 1.387 . S
C2839 C2841 1.387 . S
H2840 C2847 0.950 . S
C2841 C2839 1.387 . S
C2841 C2843 1.390 . S
C2841 H2845 0.950 . S
H2842 C2838 0.950 . S
C2843 C2841 1.390 . S
C2843 C2844 1.387 . S
C2843 H2846 0.950 . S
C2844 C2843 1.387 . S
C2844 C2847 1.387 . S
H2845 C2841 0.950 . S
H2846 C2843 0.950 . S
C2847 C2838 1.390 . S
C2847 H2840 0.950 . S
C2847 C2844 1.387 . S
C2848 C2849 1.387 . S
C2848 H2852 0.950 . S
C2848 C2857 1.390 . S
C2849 C2848 1.387 . S
C2849 C2851 1.387 . S
H2850 C2857 0.950 . S
C2851 C2849 1.387 . S
C2851 C2853 1.390 . S
C2851 H2855 0.950 . S
H2852 C2848 0.950 . S
C2853 C2851 1.390 . S
C2853 C2854 1.387 . S
C2853 H2856 0.950 . S
C2854 C2853 1.387 . S
C2854 C2857 1.387 . S
H2855 C2851 0.950 . S
H2856 C2853 0.950 . S
C2857 C2848 1.390 . S
C2857 H2850 0.950 . S
C2857 C2854 1.387 . S
C2858 C2859 1.387 . S
C2858 H2862 0.950 . S
C2858 C2867 1.390 . S
C2859 C2858 1.387 . S
C2859 C2861 1.387 . S
H2860 C2867 0.950 . S
C2861 C2859 1.387 . S
C2861 C2863 1.390 . S
C2861 H2865 0.950 . S
H2862 C2858 0.950 . S
C2863 C2861 1.390 . S
C2863 C2864 1.387 . S
C2863 H2866 0.950 . S
C2864 C2863 1.387 . S
C2864 C2867 1.387 . S
H2865 C2861 0.950 . S
H2866 C2863 0.950 . S
C2867 C2858 1.390 . S
C2867 H2860 0.950 . S
C2867 C2864 1.387 . S
C2868 C2869 1.387 . S
C2868 H2872 0.950 . S
C2868 C2877 1.390 . S
C2869 C2868 1.387 . S
C2869 C2871 1.387 . S
H2870 C2877 0.950 . S
C2871 C2869 1.387 . S
C2871 C2873 1.390 . S
C2871 H2875 0.950 . S
H2872 C2868 0.950 . S
C2873 C2871 1.390 . S
C2873 C2874 1.387 . S
C2873 H2876 0.950 . S
C2874 C2873 1.387 . S
C2874 C2877 1.387 . S
H2875 C2871 0.950 . S
H2876 C2873 0.950 . S
C2877 C2868 1.390 . S
C2877 H2870 0.950 . S
C2877 C2874 1.387 . S
C2878 C2879 1.387 . S
C2878 H2882 0.950 . S
C2878 C2887 1.390 . S
C2879 C2878 1.387 . S
C2879 C2881 1.387 . S
H2880 C2887 0.950 . S
C2881 C2879 1.387 . S
C2881 C2883 1.390 . S
C2881 H2885 0.950 . S
H2882 C2878 0.950 . S
C2883 C2881 1.390 . S
C2883 C2884 1.387 . S
C2883 H2886 0.950 . S
C2884 C2883 1.387 . S
C2884 C2887 1.387 . S
H2885 C2881 0.950 . S
H2886 C2883 0.950 . S
C2887 C2878 1.390 . S
C2887 H2880 0.950 . S
C2887 C2884 1.387 . S
C2888 C2889 1.387 . S
C2888 H2892 0.950 . S
C2888 C2897 1.390 . S
C2889 C2888 1.387 . S
C2889 C2891 1.387 . S
H2890 C2897 0.950 . S
C2891 C2889 1.387 . S
C2891 C2893 1.390 . S
C2891 H2895 0.950 . S
H2892 C2888 0.950 . S
C2893 C2891 1.390 . S
C2893 C2894 1.387 . S
C2893 H2896 0.950 . S
C2894 C2893 1.387 . S
C2894 C2897 1.387 . S
H2895 C2891 0.950 . S
H2896 C2893 0.950 . S
C2897 C2888 1.390 . S
C2897 H2890 0.950 . S
C2897 C2894 1.387 . S
C2898 C2899 1.387 . S
C2898 H2902 0.950 . S
C2898 C2907 1.390 . S
C2899 C2898 1.387 . S
C2899 C2901 1.387 . S
H2900 C2907 0.950 . S
C2901 C2899 1.387 . S
C2901 C2903 1.390 . S
C2901 H2905 0.950 . S
H2902 C2898 0.950 . S
C2903 C2901 1.390 . S
C2903 C2904 1.387 . S
C2903 H2906 0.950 . S
C2904 C2903 1.387 . S
C2904 C2907 1.387 . S
H2905 C2901 0.950 . S
H2906 C2903 0.950 . S
C2907 C2898 1.390 . S
C2907 H2900 0.950 . S
C2907 C2904 1.387 . S
C2908 C2909 1.387 . S
C2908 H2912 0.950 . S
C2908 C2917 1.390 . S
C2909 C2908 1.387 . S
C2909 C2911 1.387 . S
H2910 C2917 0.950 . S
C2911 C2909 1.387 . S
C2911 C2913 1.390 . S
C2911 H2915 0.950 . S
H2912 C2908 0.950 . S
C2913 C2911 1.390 . S
C2913 C2914 1.387 . S
C2913 H2916 0.950 . S
C2914 C2913 1.387 . S
C2914 C2917 1.387 . S
H2915 C2911 0.950 . S
H2916 C2913 0.950 . S
C2917 C2908 1.390 . S
C2917 H2910 0.950 . S
C2917 C2914 1.387 . S
C2918 C2919 1.387 . S
C2918 H2922 0.950 . S
C2918 C2927 1.390 . S
C2919 C2918 1.387 . S
C2919 C2921 1.387 . S
H2920 C2927 0.950 . S
C2921 C2919 1.387 . S
C2921 C2923 1.390 . S
C2921 H2925 0.950 . S
H2922 C2918 0.950 . S
C2923 C2921 1.390 . S
C2923 C2924 1.387 . S
C2923 H2926 0.950 . S
C2924 C2923 1.387 . S
C2924 C2927 1.387 . S
H2925 C2921 0.950 . S
H2926 C2923 0.950 . S
C2927 C2918 1.390 . S
C2927 H2920 0.950 . S
C2927 C2924 1.387 . S
C2928 C2929 1.387 . S
C2928 H2932 0.950 . S
C2928 C2937 1.390 . S
C2929 C2928 1.387 . S
C2929 C2931 1.387 . S
H2930 C2937 0.950 . S
C2931 C2929 1.387 . S
C2931 C2933 1.390 . S
C2931 H2935 0.950 . S
H2932 C2928 0.950 . S
C2933 C2931 1.390 . S
C2933 C2934 1.387 . S
C2933 H2936 0.950 . S
C2934 C2933 1.387 . S
C2934 C2937 1.387 . S
H2935 C2931 0.950 . S
H2936 C2933 0.950 . S
C2937 C2928 1.390 . S
C2937 H2930 0.950 . S
C2937 C2934 1.387 . S
C2938 C2939 1.387 . S
C2938 H2942 0.950 . S
C2938 C2947 1.390 . S
C2939 C2938 1.387 . S
C2939 C2941 1.387 . S
H2940 C2947 0.950 . S
C2941 C2939 1.387 . S
C2941 C2943 1.390 . S
C2941 H2945 0.950 . S
H2942 C2938 0.950 . S
C2943 C2941 1.390 . S
C2943 C2944 1.387 . S
C2943 H2946 0.950 . S
C2944 C2943 1.387 . S
C2944 C2947 1.387 . S
H2945 C2941 0.950 . S
H2946 C2943 0.950 . S
C2947 C2938 1.390 . S
C2947 H2940 0.950 . S
C2947 C2944 1.387 . S
C2948 C2949 1.387 . S
C2948 H2952 0.950 . S
C2948 C2957 1.390 . S
C2949 C2948 1.387 . S
C2949 C2951 1.387 . S
H2950 C2957 0.950 . S
C2951 C2949 1.387 . S
C2951 C2953 1.390 . S
C2951 H2955 0.950 . S
H2952 C2948 0.950 . S
C2953 C2951 1.390 . S
C2953 C2954 1.387 . S
C2953 H2956 0.950 . S
C2954 C2953 1.387 . S
C2954 C2957 1.387 . S
H2955 C2951 0.950 . S
H2956 C2953 0.950 . S
C2957 C2948 1.390 . S
C2957 H2950 0.950 . S
C2957 C2954 1.387 . S
C2958 C2959 1.387 . S
C2958 H2962 0.950 . S
C2958 C2967 1.390 . S
C2959 C2958 1.387 . S
C2959 C2961 1.387 . S
H2960 C2967 0.950 . S
C2961 C2959 1.387 . S
C2961 C2963 1.390 . S
C2961 H2965 0.950 . S
H2962 C2958 0.950 . S
C2963 C2961 1.390 . S
C2963 C2964 1.387 . S
C2963 H2966 0.950 . S
C2964 C2963 1.387 . S
C2964 C2967 1.387 . S
H2965 C2961 0.950 . S
H2966 C2963 0.950 . S
C2967 C2958 1.390 . S
C2967 H2960 0.950 . S
C2967 C2964 1.387 . S
C2968 C2969 1.387 . S
C2968 H2972 0.950 . S
C2968 C2977 1.390 . S
C2969 C2968 1.387 . S
C2969 C2971 1.387 . S
H2970 C2977 0.950 . S
C2971 C2969 1.387 . S
C2971 C2973 1.390 . S
C2971 H2975 0.950 . S
H2972 C2968 0.950 . S
C2973 C2971 1.390 . S
C2973 C2974 1.387 . S
C2973 H2976 0.950 . S
C2974 C2973 1.387 . S
C2974 C2977 1.387 . S
H2975 C2971 0.950 . S
H2976 C2973 0.950 . S
C2977 C2968 1.390 . S
C2977 H2970 0.950 . S
C2977 C2974 1.387 . S
C2978 C2979 1.387 . S
C2978 H2982 0.950 . S
C2978 C2987 1.390 . S
C2979 C2978 1.387 . S
C2979 C2981 1.387 . S
H2980 C2987 0.950 . S
C2981 C2979 1.387 . S
C2981 C2983 1.390 . S
C2981 H2985 0.950 . S
H2982 C2978 0.950 . S
C2983 C2981 1.390 . S
C2983 C2984 1.387 . S
C2983 H2986 0.950 . S
C2984 C2983 1.387 . S
C2984 C2987 1.387 . S
H2985 C2981 0.950 . S
H2986 C2983 0.950 . S
C2987 C2978 1.390 . S
C2987 H2980 0.950 . S
C2987 C2984 1.387 . S
C2988 C2989 1.387 . S
C2988 H2992 0.950 . S
C2988 C2997 1.390 . S
C2989 C2988 1.387 . S
C2989 C2991 1.387 . S
H2990 C2997 0.950 . S
C2991 C2989 1.387 . S
C2991 C2993 1.390 . S
C2991 H2995 0.950 . S
H2992 C2988 0.950 . S
C2993 C2991 1.390 . S
C2993 C2994 1.387 . S
C2993 H2996 0.950 . S
C2994 C2993 1.387 . S
C2994 C2997 1.387 . S
H2995 C2991 0.950 . S
H2996 C2993 0.950 . S
C2997 C2988 1.390 . S
C2997 H2990 0.950 . S
C2997 C2994 1.387 . S
C2998 C2999 1.387 . S
C2998 H3002 0.950 . S
C2998 C3007 1.390 . S
C2999 C2998 1.387 . S
C2999 C3001 1.387 . S
H3000 C3007 0.950 . S
C3001 C2999 1.387 . S
C3001 C3003 1.390 . S
C3001 H3005 0.950 . S
H3002 C2998 0.950 . S
C3003 C3001 1.390 . S
C3003 C3004 1.387 . S
C3003 H3006 0.950 . S
C3004 C3003 1.387 . S
C3004 C3007 1.387 . S
H3005 C3001 0.950 . S
H3006 C3003 0.950 . S
C3007 C2998 1.390 . S
C3007 H3000 0.950 . S
C3007 C3004 1.387 . S
C3008 C3009 1.387 . S
C3008 H3012 0.950 . S
C3008 C3017 1.390 . S
C3009 C3008 1.387 . S
C3009 C3011 1.387 . S
H3010 C3017 0.950 . S
C3011 C3009 1.387 . S
C3011 C3013 1.390 . S
C3011 H3015 0.950 . S
H3012 C3008 0.950 . S
C3013 C3011 1.390 . S
C3013 C3014 1.387 . S
C3013 H3016 0.950 . S
C3014 C3013 1.387 . S
C3014 C3017 1.387 . S
H3015 C3011 0.950 . S
H3016 C3013 0.950 . S
C3017 C3008 1.390 . S
C3017 H3010 0.950 . S
C3017 C3014 1.387 . S
C3018 C3019 1.387 . S
C3018 H3022 0.950 . S
C3018 C3027 1.390 . S
C3019 C3018 1.387 . S
C3019 C3021 1.387 . S
H3020 C3027 0.950 . S
C3021 C3019 1.387 . S
C3021 C3023 1.390 . S
C3021 H3025 0.950 . S
H3022 C3018 0.950 . S
C3023 C3021 1.390 . S
C3023 C3024 1.387 . S
C3023 H3026 0.950 . S
C3024 C3023 1.387 . S
C3024 C3027 1.387 . S
H3025 C3021 0.950 . S
H3026 C3023 0.950 . S
C3027 C3018 1.390 . S
C3027 H3020 0.950 . S
C3027 C3024 1.387 . S
C3028 C3029 1.387 . S
C3028 H3032 0.950 . S
C3028 C3037 1.390 . S
C3029 C3028 1.387 . S
C3029 C3031 1.387 . S
H3030 C3037 0.950 . S
C3031 C3029 1.387 . S
C3031 C3033 1.390 . S
C3031 H3035 0.950 . S
H3032 C3028 0.950 . S
C3033 C3031 1.390 . S
C3033 C3034 1.387 . S
C3033 H3036 0.950 . S
C3034 C3033 1.387 . S
C3034 C3037 1.387 . S
H3035 C3031 0.950 . S
H3036 C3033 0.950 . S
C3037 C3028 1.390 . S
C3037 H3030 0.950 . S
C3037 C3034 1.387 . S
C3038 C3039 1.387 . S
C3038 H3042 0.950 . S
C3038 C3047 1.390 . S
C3039 C3038 1.387 . S
C3039 C3041 1.387 . S
H3040 C3047 0.950 . S
C3041 C3039 1.387 . S
C3041 C3043 1.390 . S
C3041 H3045 0.950 . S
H3042 C3038 0.950 . S
C3043 C3041 1.390 . S
C3043 C3044 1.387 . S
C3043 H3046 0.950 . S
C3044 C3043 1.387 . S
C3044 C3047 1.387 . S
H3045 C3041 0.950 . S
H3046 C3043 0.950 . S
C3047 C3038 1.390 . S
C3047 H3040 0.950 . S
C3047 C3044 1.387 . S
C3048 C3049 1.387 . S
C3048 H3052 0.950 . S
C3048 C3057 1.390 . S
C3049 C3048 1.387 . S
C3049 C3051 1.387 . S
H3050 C3057 0.950 . S
C3051 C3049 1.387 . S
C3051 C3053 1.390 . S
C3051 H3055 0.950 . S
H3052 C3048 0.950 . S
C3053 C3051 1.390 . S
C3053 C3054 1.387 . S
C3053 H3056 0.950 . S
C3054 C3053 1.387 . S
C3054 C3057 1.387 . S
H3055 C3051 0.950 . S
H3056 C3053 0.950 . S
C3057 C3048 1.390 . S
C3057 H3050 0.950 . S
C3057 C3054 1.387 . S
C3058 C3059 1.387 . S
C3058 H3062 0.950 . S
C3058 C3067 1.390 . S
C3059 C3058 1.387 . S
C3059 C3061 1.387 . S
H3060 C3067 0.950 . S
C3061 C3059 1.387 . S
C3061 C3063 1.390 . S
C3061 H3065 0.950 . S
H3062 C3058 0.950 . S
C3063 C3061 1.390 . S
C3063 C3064 1.387 . S
C3063 H3066 0.950 . S
C3064 C3063 1.387 . S
C3064 C3067 1.387 . S
H3065 C3061 0.950 . S
H3066 C3063 0.950 . S
C3067 C3058 1.390 . S
C3067 H3060 0.950 . S
C3067 C3064 1.387 . S
C3068 C3069 1.387 . S
C3068 H3072 0.950 . S
C3068 C3077 1.390 . S
C3069 C3068 1.387 . S
C3069 C3071 1.387 . S
H3070 C3077 0.950 . S
C3071 C3069 1.387 . S
C3071 C3073 1.390 . S
C3071 H3075 0.950 . S
H3072 C3068 0.950 . S
C3073 C3071 1.390 . S
C3073 C3074 1.387 . S
C3073 H3076 0.950 . S
C3074 C3073 1.387 . S
C3074 C3077 1.387 . S
H3075 C3071 0.950 . S
H3076 C3073 0.950 . S
C3077 C3068 1.390 . S
C3077 H3070 0.950 . S
C3077 C3074 1.387 . S
C3078 C3079 1.387 . S
C3078 H3082 0.950 . S
C3078 C3087 1.390 . S
C3079 C3078 1.387 . S
C3079 C3081 1.387 . S
H3080 C3087 0.950 . S
C3081 C3079 1.387 . S
C3081 C3083 1.390 . S
C3081 H3085 0.950 . S
H3082 C3078 0.950 . S
C3083 C3081 1.390 . S
C3083 C3084 1.387 . S
C3083 H3086 0.950 . S
C3084 C3083 1.387 . S
C3084 C3087 1.387 . S
H3085 C3081 0.950 . S
H3086 C3083 0.950 . S
C3087 C3078 1.390 . S
C3087 H3080 0.950 . S
C3087 C3084 1.387 . S
C3088 C3089 1.387 . S
C3088 H3092 0.950 . S
C3088 C3097 1.390 . S
C3089 C3088 1.387 . S
C3089 C3091 1.387 . S
H3090 C3097 0.950 . S
C3091 C3089 1.387 . S
C3091 C3093 1.390 . S
C3091 H3095 0.950 . S
H3092 C3088 0.950 . S
C3093 C3091 1.390 . S
C3093 C3094 1.387 . S
C3093 H3096 0.950 . S
C3094 C3093 1.387 . S
C3094 C3097 1.387 . S
H3095 C3091 0.950 . S
H3096 C3093 0.950 . S
C3097 C3088 1.390 . S
C3097 H3090 0.950 . S
C3097 C3094 1.387 . S
C3098 C3099 1.387 . S
C3098 H3102 0.950 . S
C3098 C3107 1.390 . S
C3099 C3098 1.387 . S
C3099 C3101 1.387 . S
H3100 C3107 0.950 . S
C3101 C3099 1.387 . S
C3101 C3103 1.390 . S
C3101 H3105 0.950 . S
H3102 C3098 0.950 . S
C3103 C3101 1.390 . S
C3103 C3104 1.387 . S
C3103 H3106 0.950 . S
C3104 C3103 1.387 . S
C3104 C3107 1.387 . S
H3105 C3101 0.950 . S
H3106 C3103 0.950 . S
C3107 C3098 1.390 . S
C3107 H3100 0.950 . S
C3107 C3104 1.387 . S
C3108 C3109 1.387 . S
C3108 H3112 0.950 . S
C3108 C3117 1.390 . S
C3109 C3108 1.387 . S
C3109 C3111 1.387 . S
H3110 C3117 0.950 . S
C3111 C3109 1.387 . S
C3111 C3113 1.390 . S
C3111 H3115 0.950 . S
H3112 C3108 0.950 . S
C3113 C3111 1.390 . S
C3113 C3114 1.387 . S
C3113 H3116 0.950 . S
C3114 C3113 1.387 . S
C3114 C3117 1.387 . S
H3115 C3111 0.950 . S
H3116 C3113 0.950 . S
C3117 C3108 1.390 . S
C3117 H3110 0.950 . S
C3117 C3114 1.387 . S
C3118 C3119 1.387 . S
C3118 H3122 0.950 . S
C3118 C3127 1.390 . S
C3119 C3118 1.387 . S
C3119 C3121 1.387 . S
H3120 C3127 0.950 . S
C3121 C3119 1.387 . S
C3121 C3123 1.390 . S
C3121 H3125 0.950 . S
H3122 C3118 0.950 . S
C3123 C3121 1.390 . S
C3123 C3124 1.387 . S
C3123 H3126 0.950 . S
C3124 C3123 1.387 . S
C3124 C3127 1.387 . S
H3125 C3121 0.950 . S
H3126 C3123 0.950 . S
C3127 C3118 1.390 . S
C3127 H3120 0.950 . S
C3127 C3124 1.387 . S
C3128 C3129 1.387 . S
C3128 H3132 0.950 . S
C3128 C3137 1.390 . S
C3129 C3128 1.387 . S
C3129 C3131 1.387 . S
H3130 C3137 0.950 . S
C3131 C3129 1.387 . S
C3131 C3133 1.390 . S
C3131 H3135 0.950 . S
H3132 C3128 0.950 . S
C3133 C3131 1.390 . S
C3133 C3134 1.387 . S
C3133 H3136 0.950 . S
C3134 C3133 1.387 . S
C3134 C3137 1.387 . S
H3135 C3131 0.950 . S
H3136 C3133 0.950 . S
C3137 C3128 1.390 . S
C3137 H3130 0.950 . S
C3137 C3134 1.387 . S
C3138 C3139 1.387 . S
C3138 H3142 0.950 . S
C3138 C3147 1.390 . S
C3139 C3138 1.387 . S
C3139 C3141 1.387 . S
H3140 C3147 0.950 . S
C3141 C3139 1.387 . S
C3141 C3143 1.390 . S
C3141 H3145 0.950 . S
H3142 C3138 0.950 . S
C3143 C3141 1.390 . S
C3143 C3144 1.387 . S
C3143 H3146 0.950 . S
C3144 C3143 1.387 . S
C3144 C3147 1.387 . S
H3145 C3141 0.950 . S
H3146 C3143 0.950 . S
C3147 C3138 1.390 . S
C3147 H3140 0.950 . S
C3147 C3144 1.387 . S
C3148 C3149 1.387 . S
C3148 H3152 0.950 . S
C3148 C3157 1.390 . S
C3149 C3148 1.387 . S
C3149 C3151 1.387 . S
H3150 C3157 0.950 . S
C3151 C3149 1.387 . S
C3151 C3153 1.390 . S
C3151 H3155 0.950 . S
H3152 C3148 0.950 . S
C3153 C3151 1.390 . S
C3153 C3154 1.387 . S
C3153 H3156 0.950 . S
C3154 C3153 1.387 . S
C3154 C3157 1.387 . S
H3155 C3151 0.950 . S
H3156 C3153 0.950 . S
C3157 C3148 1.390 . S
C3157 H3150 0.950 . S
C3157 C3154 1.387 . S
C3158 C3159 1.387 . S
C3158 H3162 0.950 . S
C3158 C3167 1.390 . S
C3159 C3158 1.387 . S
C3159 C3161 1.387 . S
H3160 C3167 0.950 . S
C3161 C3159 1.387 . S
C3161 C3163 1.390 . S
C3161 H3165 0.950 . S
H3162 C3158 0.950 . S
C3163 C3161 1.390 . S
C3163 C3164 1.387 . S
C3163 H3166 0.950 . S
C3164 C3163 1.387 . S
C3164 C3167 1.387 . S
H3165 C3161 0.950 . S
H3166 C3163 0.950 . S
C3167 C3158 1.390 . S
C3167 H3160 0.950 . S
C3167 C3164 1.387 . S
C3168 C3169 1.387 . S
C3168 H3172 0.950 . S
C3168 C3177 1.390 . S
C3169 C3168 1.387 . S
C3169 C3171 1.387 . S
H3170 C3177 0.950 . S
C3171 C3169 1.387 . S
C3171 C3173 1.390 . S
C3171 H3175 0.950 . S
H3172 C3168 0.950 . S
C3173 C3171 1.390 . S
C3173 C3174 1.387 . S
C3173 H3176 0.950 . S
C3174 C3173 1.387 . S
C3174 C3177 1.387 . S
H3175 C3171 0.950 . S
H3176 C3173 0.950 . S
C3177 C3168 1.390 . S
C3177 H3170 0.950 . S
C3177 C3174 1.387 . S
C3178 C3179 1.387 . S
C3178 H3182 0.950 . S
C3178 C3187 1.390 . S
C3179 C3178 1.387 . S
C3179 C3181 1.387 . S
H3180 C3187 0.950 . S
C3181 C3179 1.387 . S
C3181 C3183 1.390 . S
C3181 H3185 0.950 . S
H3182 C3178 0.950 . S
C3183 C3181 1.390 . S
C3183 C3184 1.387 . S
C3183 H3186 0.950 . S
C3184 C3183 1.387 . S
C3184 C3187 1.387 . S
H3185 C3181 0.950 . S
H3186 C3183 0.950 . S
C3187 C3178 1.390 . S
C3187 H3180 0.950 . S
C3187 C3184 1.387 . S
C3188 C3189 1.387 . S
C3188 H3192 0.950 . S
C3188 C3197 1.390 . S
C3189 C3188 1.387 . S
C3189 C3191 1.387 . S
H3190 C3197 0.950 . S
C3191 C3189 1.387 . S
C3191 C3193 1.390 . S
C3191 H3195 0.950 . S
H3192 C3188 0.950 . S
C3193 C3191 1.390 . S
C3193 C3194 1.387 . S
C3193 H3196 0.950 . S
C3194 C3193 1.387 . S
C3194 C3197 1.387 . S
H3195 C3191 0.950 . S
H3196 C3193 0.950 . S
C3197 C3188 1.390 . S
C3197 H3190 0.950 . S
C3197 C3194 1.387 . S
C3198 C3199 1.387 . S
C3198 H3202 0.950 . S
C3198 C3207 1.390 . S
C3199 C3198 1.387 . S
C3199 C3201 1.387 . S
H3200 C3207 0.950 . S
C3201 C3199 1.387 . S
C3201 C3203 1.390 . S
C3201 H3205 0.950 . S
H3202 C3198 0.950 . S
C3203 C3201 1.390 . S
C3203 C3204 1.387 . S
C3203 H3206 0.950 . S
C3204 C3203 1.387 . S
C3204 C3207 1.387 . S
H3205 C3201 0.950 . S
H3206 C3203 0.950 . S
C3207 C3198 1.390 . S
C3207 H3200 0.950 . S
C3207 C3204 1.387 . S
C3208 C3209 1.387 . S
C3208 H3212 0.950 . S
C3208 C3217 1.390 . S
C3209 C3208 1.387 . S
C3209 C3211 1.387 . S
H3210 C3217 0.950 . S
C3211 C3209 1.387 . S
C3211 C3213 1.390 . S
C3211 H3215 0.950 . S
H3212 C3208 0.950 . S
C3213 C3211 1.390 . S
C3213 C3214 1.387 . S
C3213 H3216 0.950 . S
C3214 C3213 1.387 . S
C3214 C3217 1.387 . S
H3215 C3211 0.950 . S
H3216 C3213 0.950 . S
C3217 C3208 1.390 . S
C3217 H3210 0.950 . S
C3217 C3214 1.387 . S
C3218 C3219 1.387 . S
C3218 H3222 0.950 . S
C3218 C3227 1.390 . S
C3219 C3218 1.387 . S
C3219 C3221 1.387 . S
H3220 C3227 0.950 . S
C3221 C3219 1.387 . S
C3221 C3223 1.390 . S
C3221 H3225 0.950 . S
H3222 C3218 0.950 . S
C3223 C3221 1.390 . S
C3223 C3224 1.387 . S
C3223 H3226 0.950 . S
C3224 C3223 1.387 . S
C3224 C3227 1.387 . S
H3225 C3221 0.950 . S
H3226 C3223 0.950 . S
C3227 C3218 1.390 . S
C3227 H3220 0.950 . S
C3227 C3224 1.387 . S
C3228 C3229 1.387 . S
C3228 H3232 0.950 . S
C3228 C3237 1.390 . S
C3229 C3228 1.387 . S
C3229 C3231 1.387 . S
H3230 C3237 0.950 . S
C3231 C3229 1.387 . S
C3231 C3233 1.390 . S
C3231 H3235 0.950 . S
H3232 C3228 0.950 . S
C3233 C3231 1.390 . S
C3233 C3234 1.387 . S
C3233 H3236 0.950 . S
C3234 C3233 1.387 . S
C3234 C3237 1.387 . S
H3235 C3231 0.950 . S
H3236 C3233 0.950 . S
C3237 C3228 1.390 . S
C3237 H3230 0.950 . S
C3237 C3234 1.387 . S
C3238 C3239 1.387 . S
C3238 H3242 0.950 . S
C3238 C3247 1.390 . S
C3239 C3238 1.387 . S
C3239 C3241 1.387 . S
H3240 C3247 0.950 . S
C3241 C3239 1.387 . S
C3241 C3243 1.390 . S
C3241 H3245 0.950 . S
H3242 C3238 0.950 . S
C3243 C3241 1.390 . S
C3243 C3244 1.387 . S
C3243 H3246 0.950 . S
C3244 C3243 1.387 . S
C3244 C3247 1.387 . S
H3245 C3241 0.950 . S
H3246 C3243 0.950 . S
C3247 C3238 1.390 . S
C3247 H3240 0.950 . S
C3247 C3244 1.387 . S
C3248 C3249 1.387 . S
C3248 H3252 0.950 . S
C3248 C3257 1.390 . S
C3249 C3248 1.387 . S
C3249 C3251 1.387 . S
H3250 C3257 0.950 . S
C3251 C3249 1.387 . S
C3251 C3253 1.390 . S
C3251 H3255 0.950 . S
H3252 C3248 0.950 . S
C3253 C3251 1.390 . S
C3253 C3254 1.387 . S
C3253 H3256 0.950 . S
C3254 C3253 1.387 . S
C3254 C3257 1.387 . S
H3255 C3251 0.950 . S
H3256 C3253 0.950 . S
C3257 C3248 1.390 . S
C3257 H3250 0.950 . S
C3257 C3254 1.387 . S
C3258 C3259 1.387 . S
C3258 H3262 0.950 . S
C3258 C3267 1.390 . S
C3259 C3258 1.387 . S
C3259 C3261 1.387 . S
H3260 C3267 0.950 . S
C3261 C3259 1.387 . S
C3261 C3263 1.390 . S
C3261 H3265 0.950 . S
H3262 C3258 0.950 . S
C3263 C3261 1.390 . S
C3263 C3264 1.387 . S
C3263 H3266 0.950 . S
C3264 C3263 1.387 . S
C3264 C3267 1.387 . S
H3265 C3261 0.950 . S
H3266 C3263 0.950 . S
C3267 C3258 1.390 . S
C3267 H3260 0.950 . S
C3267 C3264 1.387 . S
C3268 C3269 1.387 . S
C3268 H3272 0.950 . S
C3268 C3277 1.390 . S
C3269 C3268 1.387 . S
C3269 C3271 1.387 . S
H3270 C3277 0.950 . S
C3271 C3269 1.387 . S
C3271 C3273 1.390 . S
C3271 H3275 0.950 . S
H3272 C3268 0.950 . S
C3273 C3271 1.390 . S
C3273 C3274 1.387 . S
C3273 H3276 0.950 . S
C3274 C3273 1.387 . S
C3274 C3277 1.387 . S
H3275 C3271 0.950 . S
H3276 C3273 0.950 . S
C3277 C3268 1.390 . S
C3277 H3270 0.950 . S
C3277 C3274 1.387 . S
C3278 C3279 1.387 . S
C3278 H3282 0.950 . S
C3278 C3287 1.390 . S
C3279 C3278 1.387 . S
C3279 C3281 1.387 . S
H3280 C3287 0.950 . S
C3281 C3279 1.387 . S
C3281 C3283 1.390 . S
C3281 H3285 0.950 . S
H3282 C3278 0.950 . S
C3283 C3281 1.390 . S
C3283 C3284 1.387 . S
C3283 H3286 0.950 . S
C3284 C3283 1.387 . S
C3284 C3287 1.387 . S
H3285 C3281 0.950 . S
H3286 C3283 0.950 . S
C3287 C3278 1.390 . S
C3287 H3280 0.950 . S
C3287 C3284 1.387 . S
C3288 C3289 1.387 . S
C3288 H3292 0.950 . S
C3288 C3297 1.390 . S
C3289 C3288 1.387 . S
C3289 C3291 1.387 . S
H3290 C3297 0.950 . S
C3291 C3289 1.387 . S
C3291 C3293 1.390 . S
C3291 H3295 0.950 . S
H3292 C3288 0.950 . S
C3293 C3291 1.390 . S
C3293 C3294 1.387 . S
C3293 H3296 0.950 . S
C3294 C3293 1.387 . S
C3294 C3297 1.387 . S
H3295 C3291 0.950 . S
H3296 C3293 0.950 . S
C3297 C3288 1.390 . S
C3297 H3290 0.950 . S
C3297 C3294 1.387 . S
C3298 C3299 1.387 . S
C3298 H3302 0.950 . S
C3298 C3307 1.390 . S
C3299 C3298 1.387 . S
C3299 C3301 1.387 . S
H3300 C3307 0.950 . S
C3301 C3299 1.387 . S
C3301 C3303 1.390 . S
C3301 H3305 0.950 . S
H3302 C3298 0.950 . S
C3303 C3301 1.390 . S
C3303 C3304 1.387 . S
C3303 H3306 0.950 . S
C3304 C3303 1.387 . S
C3304 C3307 1.387 . S
H3305 C3301 0.950 . S
H3306 C3303 0.950 . S
C3307 C3298 1.390 . S
C3307 H3300 0.950 . S
C3307 C3304 1.387 . S
C3308 C3309 1.387 . S
C3308 H3312 0.950 . S
C3308 C3317 1.390 . S
C3309 C3308 1.387 . S
C3309 C3311 1.387 . S
H3310 C3317 0.950 . S
C3311 C3309 1.387 . S
C3311 C3313 1.390 . S
C3311 H3315 0.950 . S
H3312 C3308 0.950 . S
C3313 C3311 1.390 . S
C3313 C3314 1.387 . S
C3313 H3316 0.950 . S
C3314 C3313 1.387 . S
C3314 C3317 1.387 . S
H3315 C3311 0.950 . S
H3316 C3313 0.950 . S
C3317 C3308 1.390 . S
C3317 H3310 0.950 . S
C3317 C3314 1.387 . S
C3318 C3319 1.387 . S
C3318 H3322 0.950 . S
C3318 C3327 1.390 . S
C3319 C3318 1.387 . S
C3319 C3321 1.387 . S
H3320 C3327 0.950 . S
C3321 C3319 1.387 . S
C3321 C3323 1.390 . S
C3321 H3325 0.950 . S
H3322 C3318 0.950 . S
C3323 C3321 1.390 . S
C3323 C3324 1.387 . S
C3323 H3326 0.950 . S
C3324 C3323 1.387 . S
C3324 C3327 1.387 . S
H3325 C3321 0.950 . S
H3326 C3323 0.950 . S
C3327 C3318 1.390 . S
C3327 H3320 0.950 . S
C3327 C3324 1.387 . S
C3328 C3329 1.387 . S
C3328 H3332 0.950 . S
C3328 C3337 1.390 . S
C3329 C3328 1.387 . S
C3329 C3331 1.387 . S
H3330 C3337 0.950 . S
C3331 C3329 1.387 . S
C3331 C3333 1.390 . S
C3331 H3335 0.950 . S
H3332 C3328 0.950 . S
C3333 C3331 1.390 . S
C3333 C3334 1.387 . S
C3333 H3336 0.950 . S
C3334 C3333 1.387 . S
C3334 C3337 1.387 . S
H3335 C3331 0.950 . S
H3336 C3333 0.950 . S
C3337 C3328 1.390 . S
C3337 H3330 0.950 . S
C3337 C3334 1.387 . S
C3338 C3339 1.387 . S
C3338 H3342 0.950 . S
C3338 C3347 1.390 . S
C3339 C3338 1.387 . S
C3339 C3341 1.387 . S
H3340 C3347 0.950 . S
C3341 C3339 1.387 . S
C3341 C3343 1.390 . S
C3341 H3345 0.950 . S
H3342 C3338 0.950 . S
C3343 C3341 1.390 . S
C3343 C3344 1.387 . S
C3343 H3346 0.950 . S
C3344 C3343 1.387 . S
C3344 C3347 1.387 . S
H3345 C3341 0.950 . S
H3346 C3343 0.950 . S
C3347 C3338 1.390 . S
C3347 H3340 0.950 . S
C3347 C3344 1.387 . S
C3348 C3349 1.387 . S
C3348 H3352 0.950 . S
C3348 C3357 1.390 . S
C3349 C3348 1.387 . S
C3349 C3351 1.387 . S
H3350 C3357 0.950 . S
C3351 C3349 1.387 . S
C3351 C3353 1.390 . S
C3351 H3355 0.950 . S
H3352 C3348 0.950 . S
C3353 C3351 1.390 . S
C3353 C3354 1.387 . S
C3353 H3356 0.950 . S
C3354 C3353 1.387 . S
C3354 C3357 1.387 . S
H3355 C3351 0.950 . S
H3356 C3353 0.950 . S
C3357 C3348 1.390 . S
C3357 H3350 0.950 . S
C3357 C3354 1.387 . S
C3358 C3359 1.387 . S
C3358 H3362 0.950 . S
C3358 C3367 1.390 . S
C3359 C3358 1.387 . S
C3359 C3361 1.387 . S
H3360 C3367 0.950 . S
C3361 C3359 1.387 . S
C3361 C3363 1.390 . S
C3361 H3365 0.950 . S
H3362 C3358 0.950 . S
C3363 C3361 1.390 . S
C3363 C3364 1.387 . S
C3363 H3366 0.950 . S
C3364 C3363 1.387 . S
C3364 C3367 1.387 . S
H3365 C3361 0.950 . S
H3366 C3363 0.950 . S
C3367 C3358 1.390 . S
C3367 H3360 0.950 . S
C3367 C3364 1.387 . S
C3368 C3369 1.387 . S
C3368 H3372 0.950 . S
C3368 C3377 1.390 . S
C3369 C3368 1.387 . S
C3369 C3371 1.387 . S
H3370 C3377 0.950 . S
C3371 C3369 1.387 . S
C3371 C3373 1.390 . S
C3371 H3375 0.950 . S
H3372 C3368 0.950 . S
C3373 C3371 1.390 . S
C3373 C3374 1.387 . S
C3373 H3376 0.950 . S
C3374 C3373 1.387 . S
C3374 C3377 1.387 . S
H3375 C3371 0.950 . S
H3376 C3373 0.950 . S
C3377 C3368 1.390 . S
C3377 H3370 0.950 . S
C3377 C3374 1.387 . S
C3378 C3379 1.387 . S
C3378 H3382 0.950 . S
C3378 C3387 1.390 . S
C3379 C3378 1.387 . S
C3379 C3381 1.387 . S
H3380 C3387 0.950 . S
C3381 C3379 1.387 . S
C3381 C3383 1.390 . S
C3381 H3385 0.950 . S
H3382 C3378 0.950 . S
C3383 C3381 1.390 . S
C3383 C3384 1.387 . S
C3383 H3386 0.950 . S
C3384 C3383 1.387 . S
C3384 C3387 1.387 . S
H3385 C3381 0.950 . S
H3386 C3383 0.950 . S
C3387 C3378 1.390 . S
C3387 H3380 0.950 . S
C3387 C3384 1.387 . S
C3388 C3389 1.387 . S
C3388 H3392 0.950 . S
C3388 C3397 1.390 . S
C3389 C3388 1.387 . S
C3389 C3391 1.387 . S
H3390 C3397 0.950 . S
C3391 C3389 1.387 . S
C3391 C3393 1.390 . S
C3391 H3395 0.950 . S
H3392 C3388 0.950 . S
C3393 C3391 1.390 . S
C3393 C3394 1.387 . S
C3393 H3396 0.950 . S
C3394 C3393 1.387 . S
C3394 C3397 1.387 . S
H3395 C3391 0.950 . S
H3396 C3393 0.950 . S
C3397 C3388 1.390 . S
C3397 H3390 0.950 . S
C3397 C3394 1.387 . S
C3398 C3399 1.387 . S
C3398 H3402 0.950 . S
C3398 C3407 1.390 . S
C3399 C3398 1.387 . S
C3399 C3401 1.387 . S
H3400 C3407 0.950 . S
C3401 C3399 1.387 . S
C3401 C3403 1.390 . S
C3401 H3405 0.950 . S
H3402 C3398 0.950 . S
C3403 C3401 1.390 . S
C3403 C3404 1.387 . S
C3403 H3406 0.950 . S
C3404 C3403 1.387 . S
C3404 C3407 1.387 . S
H3405 C3401 0.950 . S
H3406 C3403 0.950 . S
C3407 C3398 1.390 . S
C3407 H3400 0.950 . S
C3407 C3404 1.387 . S
C3408 C3409 1.387 . S
C3408 H3412 0.950 . S
C3408 C3417 1.390 . S
C3409 C3408 1.387 . S
C3409 C3411 1.387 . S
H3410 C3417 0.950 . S
C3411 C3409 1.387 . S
C3411 C3413 1.390 . S
C3411 H3415 0.950 . S
H3412 C3408 0.950 . S
C3413 C3411 1.390 . S
C3413 C3414 1.387 . S
C3413 H3416 0.950 . S
C3414 C3413 1.387 . S
C3414 C3417 1.387 . S
H3415 C3411 0.950 . S
H3416 C3413 0.950 . S
C3417 C3408 1.390 . S
C3417 H3410 0.950 . S
C3417 C3414 1.387 . S
C3418 C3419 1.387 . S
C3418 H3422 0.950 . S
C3418 C3427 1.390 . S
C3419 C3418 1.387 . S
C3419 C3421 1.387 . S
H3420 C3427 0.950 . S
C3421 C3419 1.387 . S
C3421 C3423 1.390 . S
C3421 H3425 0.950 . S
H3422 C3418 0.950 . S
C3423 C3421 1.390 . S
C3423 C3424 1.387 . S
C3423 H3426 0.950 . S
C3424 C3423 1.387 . S
C3424 C3427 1.387 . S
H3425 C3421 0.950 . S
H3426 C3423 0.950 . S
C3427 C3418 1.390 . S
C3427 H3420 0.950 . S
C3427 C3424 1.387 . S
C3428 C3429 1.387 . S
C3428 H3432 0.950 . S
C3428 C3437 1.390 . S
C3429 C3428 1.387 . S
C3429 C3431 1.387 . S
H3430 C3437 0.950 . S
C3431 C3429 1.387 . S
C3431 C3433 1.390 . S
C3431 H3435 0.950 . S
H3432 C3428 0.950 . S
C3433 C3431 1.390 . S
C3433 C3434 1.387 . S
C3433 H3436 0.950 . S
C3434 C3433 1.387 . S
C3434 C3437 1.387 . S
H3435 C3431 0.950 . S
H3436 C3433 0.950 . S
C3437 C3428 1.390 . S
C3437 H3430 0.950 . S
C3437 C3434 1.387 . S
C3438 C3439 1.387 . S
C3438 H3442 0.950 . S
C3438 C3447 1.390 . S
C3439 C3438 1.387 . S
C3439 C3441 1.387 . S
H3440 C3447 0.950 . S
C3441 C3439 1.387 . S
C3441 C3443 1.390 . S
C3441 H3445 0.950 . S
H3442 C3438 0.950 . S
C3443 C3441 1.390 . S
C3443 C3444 1.387 . S
C3443 H3446 0.950 . S
C3444 C3443 1.387 . S
C3444 C3447 1.387 . S
H3445 C3441 0.950 . S
H3446 C3443 0.950 . S
C3447 C3438 1.390 . S
C3447 H3440 0.950 . S
C3447 C3444 1.387 . S
C3448 C3449 1.387 . S
C3448 H3452 0.950 . S
C3448 C3457 1.390 . S
C3449 C3448 1.387 . S
C3449 C3451 1.387 . S
H3450 C3457 0.950 . S
C3451 C3449 1.387 . S
C3451 C3453 1.390 . S
C3451 H3455 0.950 . S
H3452 C3448 0.950 . S
C3453 C3451 1.390 . S
C3453 C3454 1.387 . S
C3453 H3456 0.950 . S
C3454 C3453 1.387 . S
C3454 C3457 1.387 . S
H3455 C3451 0.950 . S
H3456 C3453 0.950 . S
C3457 C3448 1.390 . S
C3457 H3450 0.950 . S
C3457 C3454 1.387 . S
C3458 C3459 1.387 . S
C3458 H3462 0.950 . S
C3458 C3467 1.390 . S
C3459 C3458 1.387 . S
C3459 C3461 1.387 . S
H3460 C3467 0.950 . S
C3461 C3459 1.387 . S
C3461 C3463 1.390 . S
C3461 H3465 0.950 . S
H3462 C3458 0.950 . S
C3463 C3461 1.390 . S
C3463 C3464 1.387 . S
C3463 H3466 0.950 . S
C3464 C3463 1.387 . S
C3464 C3467 1.387 . S
H3465 C3461 0.950 . S
H3466 C3463 0.950 . S
C3467 C3458 1.390 . S
C3467 H3460 0.950 . S
C3467 C3464 1.387 . S
C3468 C3469 1.387 . S
C3468 H3472 0.950 . S
C3468 C3477 1.390 . S
C3469 C3468 1.387 . S
C3469 C3471 1.387 . S
H3470 C3477 0.950 . S
C3471 C3469 1.387 . S
C3471 C3473 1.390 . S
C3471 H3475 0.950 . S
H3472 C3468 0.950 . S
C3473 C3471 1.390 . S
C3473 C3474 1.387 . S
C3473 H3476 0.950 . S
C3474 C3473 1.387 . S
C3474 C3477 1.387 . S
H3475 C3471 0.950 . S
H3476 C3473 0.950 . S
C3477 C3468 1.390 . S
C3477 H3470 0.950 . S
C3477 C3474 1.387 . S
C3478 C3479 1.387 . S
C3478 H3482 0.950 . S
C3478 C3487 1.390 . S
C3479 C3478 1.387 . S
C3479 C3481 1.387 . S
H3480 C3487 0.950 . S
C3481 C3479 1.387 . S
C3481 C3483 1.390 . S
C3481 H3485 0.950 . S
H3482 C3478 0.950 . S
C3483 C3481 1.390 . S
C3483 C3484 1.387 . S
C3483 H3486 0.950 . S
C3484 C3483 1.387 . S
C3484 C3487 1.387 . S
H3485 C3481 0.950 . S
H3486 C3483 0.950 . S
C3487 C3478 1.390 . S
C3487 H3480 0.950 . S
C3487 C3484 1.387 . S
C3488 C3489 1.387 . S
C3488 H3492 0.950 . S
C3488 C3497 1.390 . S
C3489 C3488 1.387 . S
C3489 C3491 1.387 . S
H3490 C3497 0.950 . S
C3491 C3489 1.387 . S
C3491 C3493 1.390 . S
C3491 H3495 0.950 . S
H3492 C3488 0.950 . S
C3493 C3491 1.390 . S
C3493 C3494 1.387 . S
C3493 H3496 0.950 . S
C3494 C3493 1.387 . S
C3494 C3497 1.387 . S
H3495 C3491 0.950 . S
H3496 C3493 0.950 . S
C3497 C3488 1.390 . S
C3497 H3490 0.950 . S
C3497 C3494 1.387 . S
C3498 C3499 1.387 . S
C3498 H3502 0.950 . S
C3498 C3507 1.390 . S
C3499 C3498 1.387 . S
C3499 C3501 1.387 . S
H3500 C3507 0.950 . S
C3501 C3499 1.387 . S
C3501 C3503 1.390 . S
C3501 H3505 0.950 . S
H3502 C3498 0.950 . S
C3503 C3501 1.390 . S
C3503 C3504 1.387 . S
C3503 H3506 0.950 . S
C3504 C3503 1.387 . S
C3504 C3507 1.387 . S
H3505 C3501 0.950 . S
H3506 C3503 0.950 . S
C3507 C3498 1.390 . S
C3507 H3500 0.950 . S
C3507 C3504 1.387 . S
C3508 C3509 1.387 . S
C3508 H3512 0.950 . S
C3508 C3517 1.390 . S
C3509 C3508 1.387 . S
C3509 C3511 1.387 . S
H3510 C3517 0.950 . S
C3511 C3509 1.387 . S
C3511 C3513 1.390 . S
C3511 H3515 0.950 . S
H3512 C3508 0.950 . S
C3513 C3511 1.390 . S
C3513 C3514 1.387 . S
C3513 H3516 0.950 . S
C3514 C3513 1.387 . S
C3514 C3517 1.387 . S
H3515 C3511 0.950 . S
H3516 C3513 0.950 . S
C3517 C3508 1.390 . S
C3517 H3510 0.950 . S
C3517 C3514 1.387 . S
C3518 C3519 1.387 . S
C3518 H3522 0.950 . S
C3518 C3527 1.390 . S
C3519 C3518 1.387 . S
C3519 C3521 1.387 . S
H3520 C3527 0.950 . S
C3521 C3519 1.387 . S
C3521 C3523 1.390 . S
C3521 H3525 0.950 . S
H3522 C3518 0.950 . S
C3523 C3521 1.390 . S
C3523 C3524 1.387 . S
C3523 H3526 0.950 . S
C3524 C3523 1.387 . S
C3524 C3527 1.387 . S
H3525 C3521 0.950 . S
H3526 C3523 0.950 . S
C3527 C3518 1.390 . S
C3527 H3520 0.950 . S
C3527 C3524 1.387 . S
C3528 C3529 1.387 . S
C3528 H3532 0.950 . S
C3528 C3537 1.390 . S
C3529 C3528 1.387 . S
C3529 C3531 1.387 . S
H3530 C3537 0.950 . S
C3531 C3529 1.387 . S
C3531 C3533 1.390 . S
C3531 H3535 0.950 . S
H3532 C3528 0.950 . S
C3533 C3531 1.390 . S
C3533 C3534 1.387 . S
C3533 H3536 0.950 . S
C3534 C3533 1.387 . S
C3534 C3537 1.387 . S
H3535 C3531 0.950 . S
H3536 C3533 0.950 . S
C3537 C3528 1.390 . S
C3537 H3530 0.950 . S
C3537 C3534 1.387 . S
C3538 C3539 1.387 . S
C3538 H3542 0.950 . S
C3538 C3547 1.390 . S
C3539 C3538 1.387 . S
C3539 C3541 1.387 . S
H3540 C3547 0.950 . S
C3541 C3539 1.387 . S
C3541 C3543 1.390 . S
C3541 H3545 0.950 . S
H3542 C3538 0.950 . S
C3543 C3541 1.390 . S
C3543 C3544 1.387 . S
C3543 H3546 0.950 . S
C3544 C3543 1.387 . S
C3544 C3547 1.387 . S
H3545 C3541 0.950 . S
H3546 C3543 0.950 . S
C3547 C3538 1.390 . S
C3547 H3540 0.950 . S
C3547 C3544 1.387 . S
C3548 C3549 1.387 . S
C3548 H3552 0.950 . S
C3548 C3557 1.390 . S
C3549 C3548 1.387 . S
C3549 C3551 1.387 . S
H3550 C3557 0.950 . S
C3551 C3549 1.387 . S
C3551 C3553 1.390 . S
C3551 H3555 0.950 . S
H3552 C3548 0.950 . S
C3553 C3551 1.390 . S
C3553 C3554 1.387 . S
C3553 H3556 0.950 . S
C3554 C3553 1.387 . S
C3554 C3557 1.387 . S
H3555 C3551 0.950 . S
H3556 C3553 0.950 . S
C3557 C3548 1.390 . S
C3557 H3550 0.950 . S
C3557 C3554 1.387 . S
C3558 C3559 1.387 . S
C3558 H3562 0.950 . S
C3558 C3567 1.390 . S
C3559 C3558 1.387 . S
C3559 C3561 1.387 . S
H3560 C3567 0.950 . S
C3561 C3559 1.387 . S
C3561 C3563 1.390 . S
C3561 H3565 0.950 . S
H3562 C3558 0.950 . S
C3563 C3561 1.390 . S
C3563 C3564 1.387 . S
C3563 H3566 0.950 . S
C3564 C3563 1.387 . S
C3564 C3567 1.387 . S
H3565 C3561 0.950 . S
H3566 C3563 0.950 . S
C3567 C3558 1.390 . S
C3567 H3560 0.950 . S
C3567 C3564 1.387 . S
C3568 C3569 1.387 . S
C3568 H3572 0.950 . S
C3568 C3577 1.390 . S
C3569 C3568 1.387 . S
C3569 C3571 1.387 . S
H3570 C3577 0.950 . S
C3571 C3569 1.387 . S
C3571 C3573 1.390 . S
C3571 H3575 0.950 . S
H3572 C3568 0.950 . S
C3573 C3571 1.390 . S
C3573 C3574 1.387 . S
C3573 H3576 0.950 . S
C3574 C3573 1.387 . S
C3574 C3577 1.387 . S
H3575 C3571 0.950 . S
H3576 C3573 0.950 . S
C3577 C3568 1.390 . S
C3577 H3570 0.950 . S
C3577 C3574 1.387 . S
C3578 C3579 1.387 . S
C3578 H3582 0.950 . S
C3578 C3587 1.390 . S
C3579 C3578 1.387 . S
C3579 C3581 1.387 . S
H3580 C3587 0.950 . S
C3581 C3579 1.387 . S
C3581 C3583 1.390 . S
C3581 H3585 0.950 . S
H3582 C3578 0.950 . S
C3583 C3581 1.390 . S
C3583 C3584 1.387 . S
C3583 H3586 0.950 . S
C3584 C3583 1.387 . S
C3584 C3587 1.387 . S
H3585 C3581 0.950 . S
H3586 C3583 0.950 . S
C3587 C3578 1.390 . S
C3587 H3580 0.950 . S
C3587 C3584 1.387 . S
C3588 C3589 1.387 . S
C3588 H3592 0.950 . S
C3588 C3597 1.390 . S
C3589 C3588 1.387 . S
C3589 C3591 1.387 . S
H3590 C3597 0.950 . S
C3591 C3589 1.387 . S
C3591 C3593 1.390 . S
C3591 H3595 0.950 . S
H3592 C3588 0.950 . S
C3593 C3591 1.390 . S
C3593 C3594 1.387 . S
C3593 H3596 0.950 . S
C3594 C3593 1.387 . S
C3594 C3597 1.387 . S
H3595 C3591 0.950 . S
H3596 C3593 0.950 . S
C3597 C3588 1.390 . S
C3597 H3590 0.950 . S
C3597 C3594 1.387 . S
C3598 C3599 1.387 . S
C3598 H3602 0.950 . S
C3598 C3607 1.390 . S
C3599 C3598 1.387 . S
C3599 C3601 1.387 . S
H3600 C3607 0.950 . S
C3601 C3599 1.387 . S
C3601 C3603 1.390 . S
C3601 H3605 0.950 . S
H3602 C3598 0.950 . S
C3603 C3601 1.390 . S
C3603 C3604 1.387 . S
C3603 H3606 0.950 . S
C3604 C3603 1.387 . S
C3604 C3607 1.387 . S
H3605 C3601 0.950 . S
H3606 C3603 0.950 . S
C3607 C3598 1.390 . S
C3607 H3600 0.950 . S
C3607 C3604 1.387 . S
C3608 C3609 1.387 . S
C3608 H3612 0.950 . S
C3608 C3617 1.390 . S
C3609 C3608 1.387 . S
C3609 C3611 1.387 . S
H3610 C3617 0.950 . S
C3611 C3609 1.387 . S
C3611 C3613 1.390 . S
C3611 H3615 0.950 . S
H3612 C3608 0.950 . S
C3613 C3611 1.390 . S
C3613 C3614 1.387 . S
C3613 H3616 0.950 . S
C3614 C3613 1.387 . S
C3614 C3617 1.387 . S
H3615 C3611 0.950 . S
H3616 C3613 0.950 . S
C3617 C3608 1.390 . S
C3617 H3610 0.950 . S
C3617 C3614 1.387 . S
C3618 C3619 1.387 . S
C3618 H3622 0.950 . S
C3618 C3627 1.390 . S
C3619 C3618 1.387 . S
C3619 C3621 1.387 . S
H3620 C3627 0.950 . S
C3621 C3619 1.387 . S
C3621 C3623 1.390 . S
C3621 H3625 0.950 . S
H3622 C3618 0.950 . S
C3623 C3621 1.390 . S
C3623 C3624 1.387 . S
C3623 H3626 0.950 . S
C3624 C3623 1.387 . S
C3624 C3627 1.387 . S
H3625 C3621 0.950 . S
H3626 C3623 0.950 . S
C3627 C3618 1.390 . S
C3627 H3620 0.950 . S
C3627 C3624 1.387 . S
C3628 C3629 1.387 . S
C3628 H3632 0.950 . S
C3628 C3637 1.390 . S
C3629 C3628 1.387 . S
C3629 C3631 1.387 . S
H3630 C3637 0.950 . S
C3631 C3629 1.387 . S
C3631 C3633 1.390 . S
C3631 H3635 0.950 . S
H3632 C3628 0.950 . S
C3633 C3631 1.390 . S
C3633 C3634 1.387 . S
C3633 H3636 0.950 . S
C3634 C3633 1.387 . S
C3634 C3637 1.387 . S
H3635 C3631 0.950 . S
H3636 C3633 0.950 . S
C3637 C3628 1.390 . S
C3637 H3630 0.950 . S
C3637 C3634 1.387 . S
C3638 C3639 1.387 . S
C3638 H3642 0.950 . S
C3638 C3647 1.390 . S
C3639 C3638 1.387 . S
C3639 C3641 1.387 . S
H3640 C3647 0.950 . S
C3641 C3639 1.387 . S
C3641 C3643 1.390 . S
C3641 H3645 0.950 . S
H3642 C3638 0.950 . S
C3643 C3641 1.390 . S
C3643 C3644 1.387 . S
C3643 H3646 0.950 . S
C3644 C3643 1.387 . S
C3644 C3647 1.387 . S
H3645 C3641 0.950 . S
H3646 C3643 0.950 . S
C3647 C3638 1.390 . S
C3647 H3640 0.950 . S
C3647 C3644 1.387 . S
C3648 C3649 1.387 . S
C3648 H3652 0.950 . S
C3648 C3657 1.390 . S
C3649 C3648 1.387 . S
C3649 C3651 1.387 . S
H3650 C3657 0.950 . S
C3651 C3649 1.387 . S
C3651 C3653 1.390 . S
C3651 H3655 0.950 . S
H3652 C3648 0.950 . S
C3653 C3651 1.390 . S
C3653 C3654 1.387 . S
C3653 H3656 0.950 . S
C3654 C3653 1.387 . S
C3654 C3657 1.387 . S
H3655 C3651 0.950 . S
H3656 C3653 0.950 . S
C3657 C3648 1.390 . S
C3657 H3650 0.950 . S
C3657 C3654 1.387 . S
C3658 C3659 1.387 . S
C3658 H3662 0.950 . S
C3658 C3667 1.390 . S
C3659 C3658 1.387 . S
C3659 C3661 1.387 . S
H3660 C3667 0.950 . S
C3661 C3659 1.387 . S
C3661 C3663 1.390 . S
C3661 H3665 0.950 . S
H3662 C3658 0.950 . S
C3663 C3661 1.390 . S
C3663 C3664 1.387 . S
C3663 H3666 0.950 . S
C3664 C3663 1.387 . S
C3664 C3667 1.387 . S
H3665 C3661 0.950 . S
H3666 C3663 0.950 . S
C3667 C3658 1.390 . S
C3667 H3660 0.950 . S
C3667 C3664 1.387 . S
C3668 C3669 1.387 . S
C3668 H3672 0.950 . S
C3668 C3677 1.390 . S
C3669 C3668 1.387 . S
C3669 C3671 1.387 . S
H3670 C3677 0.950 . S
C3671 C3669 1.387 . S
C3671 C3673 1.390 . S
C3671 H3675 0.950 . S
H3672 C3668 0.950 . S
C3673 C3671 1.390 . S
C3673 C3674 1.387 . S
C3673 H3676 0.950 . S
C3674 C3673 1.387 . S
C3674 C3677 1.387 . S
H3675 C3671 0.950 . S
H3676 C3673 0.950 . S
C3677 C3668 1.390 . S
C3677 H3670 0.950 . S
C3677 C3674 1.387 . S
C3678 C3679 1.387 . S
C3678 H3682 0.950 . S
C3678 C3687 1.390 . S
C3679 C3678 1.387 . S
C3679 C3681 1.387 . S
H3680 C3687 0.950 . S
C3681 C3679 1.387 . S
C3681 C3683 1.390 . S
C3681 H3685 0.950 . S
H3682 C3678 0.950 . S
C3683 C3681 1.390 . S
C3683 C3684 1.387 . S
C3683 H3686 0.950 . S
C3684 C3683 1.387 . S
C3684 C3687 1.387 . S
H3685 C3681 0.950 . S
H3686 C3683 0.950 . S
C3687 C3678 1.390 . S
C3687 H3680 0.950 . S
C3687 C3684 1.387 . S
C3688 C3689 1.387 . S
C3688 H3692 0.950 . S
C3688 C3697 1.390 . S
C3689 C3688 1.387 . S
C3689 C3691 1.387 . S
H3690 C3697 0.950 . S
C3691 C3689 1.387 . S
C3691 C3693 1.390 . S
C3691 H3695 0.950 . S
H3692 C3688 0.950 . S
C3693 C3691 1.390 . S
C3693 C3694 1.387 . S
C3693 H3696 0.950 . S
C3694 C3693 1.387 . S
C3694 C3697 1.387 . S
H3695 C3691 0.950 . S
H3696 C3693 0.950 . S
C3697 C3688 1.390 . S
C3697 H3690 0.950 . S
C3697 C3694 1.387 . S
C3698 C3699 1.387 . S
C3698 H3702 0.950 . S
C3698 C3707 1.390 . S
C3699 C3698 1.387 . S
C3699 C3701 1.387 . S
H3700 C3707 0.950 . S
C3701 C3699 1.387 . S
C3701 C3703 1.390 . S
C3701 H3705 0.950 . S
H3702 C3698 0.950 . S
C3703 C3701 1.390 . S
C3703 C3704 1.387 . S
C3703 H3706 0.950 . S
C3704 C3703 1.387 . S
C3704 C3707 1.387 . S
H3705 C3701 0.950 . S
H3706 C3703 0.950 . S
C3707 C3698 1.390 . S
C3707 H3700 0.950 . S
C3707 C3704 1.387 . S
C3708 C3709 1.387 . S
C3708 H3712 0.950 . S
C3708 C3717 1.390 . S
C3709 C3708 1.387 . S
C3709 C3711 1.387 . S
H3710 C3717 0.950 . S
C3711 C3709 1.387 . S
C3711 C3713 1.390 . S
C3711 H3715 0.950 . S
H3712 C3708 0.950 . S
C3713 C3711 1.390 . S
C3713 C3714 1.387 . S
C3713 H3716 0.950 . S
C3714 C3713 1.387 . S
C3714 C3717 1.387 . S
H3715 C3711 0.950 . S
H3716 C3713 0.950 . S
C3717 C3708 1.390 . S
C3717 H3710 0.950 . S
C3717 C3714 1.387 . S
C3718 C3719 1.387 . S
C3718 H3722 0.950 . S
C3718 C3727 1.390 . S
C3719 C3718 1.387 . S
C3719 C3721 1.387 . S
H3720 C3727 0.950 . S
C3721 C3719 1.387 . S
C3721 C3723 1.390 . S
C3721 H3725 0.950 . S
H3722 C3718 0.950 . S
C3723 C3721 1.390 . S
C3723 C3724 1.387 . S
C3723 H3726 0.950 . S
C3724 C3723 1.387 . S
C3724 C3727 1.387 . S
H3725 C3721 0.950 . S
H3726 C3723 0.950 . S
C3727 C3718 1.390 . S
C3727 H3720 0.950 . S
C3727 C3724 1.387 . S
C3728 C3729 1.387 . S
C3728 H3732 0.950 . S
C3728 C3737 1.390 . S
C3729 C3728 1.387 . S
C3729 C3731 1.387 . S
H3730 C3737 0.950 . S
C3731 C3729 1.387 . S
C3731 C3733 1.390 . S
C3731 H3735 0.950 . S
H3732 C3728 0.950 . S
C3733 C3731 1.390 . S
C3733 C3734 1.387 . S
C3733 H3736 0.950 . S
C3734 C3733 1.387 . S
C3734 C3737 1.387 . S
H3735 C3731 0.950 . S
H3736 C3733 0.950 . S
C3737 C3728 1.390 . S
C3737 H3730 0.950 . S
C3737 C3734 1.387 . S
C3738 C3739 1.387 . S
C3738 H3742 0.950 . S
C3738 C3747 1.390 . S
C3739 C3738 1.387 . S
C3739 C3741 1.387 . S
H3740 C3747 0.950 . S
C3741 C3739 1.387 . S
C3741 C3743 1.390 . S
C3741 H3745 0.950 . S
H3742 C3738 0.950 . S
C3743 C3741 1.390 . S
C3743 C3744 1.387 . S
C3743 H3746 0.950 . S
C3744 C3743 1.387 . S
C3744 C3747 1.387 . S
H3745 C3741 0.950 . S
H3746 C3743 0.950 . S
C3747 C3738 1.390 . S
C3747 H3740 0.950 . S
C3747 C3744 1.387 . S
C3748 C3749 1.387 . S
C3748 H3752 0.950 . S
C3748 C3757 1.390 . S
C3749 C3748 1.387 . S
C3749 C3751 1.387 . S
H3750 C3757 0.950 . S
C3751 C3749 1.387 . S
C3751 C3753 1.390 . S
C3751 H3755 0.950 . S
H3752 C3748 0.950 . S
C3753 C3751 1.390 . S
C3753 C3754 1.387 . S
C3753 H3756 0.950 . S
C3754 C3753 1.387 . S
C3754 C3757 1.387 . S
H3755 C3751 0.950 . S
H3756 C3753 0.950 . S
C3757 C3748 1.390 . S
C3757 H3750 0.950 . S
C3757 C3754 1.387 . S
C3758 C3759 1.387 . S
C3758 H3762 0.950 . S
C3758 C3767 1.390 . S
C3759 C3758 1.387 . S
C3759 C3761 1.387 . S
H3760 C3767 0.950 . S
C3761 C3759 1.387 . S
C3761 C3763 1.390 . S
C3761 H3765 0.950 . S
H3762 C3758 0.950 . S
C3763 C3761 1.390 . S
C3763 C3764 1.387 . S
C3763 H3766 0.950 . S
C3764 C3763 1.387 . S
C3764 C3767 1.387 . S
H3765 C3761 0.950 . S
H3766 C3763 0.950 . S
C3767 C3758 1.390 . S
C3767 H3760 0.950 . S
C3767 C3764 1.387 . S
C3768 C3769 1.387 . S
C3768 H3772 0.950 . S
C3768 C3777 1.390 . S
C3769 C3768 1.387 . S
C3769 C3771 1.387 . S
H3770 C3777 0.950 . S
C3771 C3769 1.387 . S
C3771 C3773 1.390 . S
C3771 H3775 0.950 . S
H3772 C3768 0.950 . S
C3773 C3771 1.390 . S
C3773 C3774 1.387 . S
C3773 H3776 0.950 . S
C3774 C3773 1.387 . S
C3774 C3777 1.387 . S
H3775 C3771 0.950 . S
H3776 C3773 0.950 . S
C3777 C3768 1.390 . S
C3777 H3770 0.950 . S
C3777 C3774 1.387 . S
C3778 C3779 1.387 . S
C3778 H3782 0.950 . S
C3778 C3787 1.390 . S
C3779 C3778 1.387 . S
C3779 C3781 1.387 . S
H3780 C3787 0.950 . S
C3781 C3779 1.387 . S
C3781 C3783 1.390 . S
C3781 H3785 0.950 . S
H3782 C3778 0.950 . S
C3783 C3781 1.390 . S
C3783 C3784 1.387 . S
C3783 H3786 0.950 . S
C3784 C3783 1.387 . S
C3784 C3787 1.387 . S
H3785 C3781 0.950 . S
H3786 C3783 0.950 . S
C3787 C3778 1.390 . S
C3787 H3780 0.950 . S
C3787 C3784 1.387 . S
C3788 C3789 1.387 . S
C3788 H3792 0.950 . S
C3788 C3797 1.390 . S
C3789 C3788 1.387 . S
C3789 C3791 1.387 . S
H3790 C3797 0.950 . S
C3791 C3789 1.387 . S
C3791 C3793 1.390 . S
C3791 H3795 0.950 . S
H3792 C3788 0.950 . S
C3793 C3791 1.390 . S
C3793 C3794 1.387 . S
C3793 H3796 0.950 . S
C3794 C3793 1.387 . S
C3794 C3797 1.387 . S
H3795 C3791 0.950 . S
H3796 C3793 0.950 . S
C3797 C3788 1.390 . S
C3797 H3790 0.950 . S
C3797 C3794 1.387 . S
C3798 C3799 1.387 . S
C3798 H3802 0.950 . S
C3798 C3807 1.390 . S
C3799 C3798 1.387 . S
C3799 C3801 1.387 . S
H3800 C3807 0.950 . S
C3801 C3799 1.387 . S
C3801 C3803 1.390 . S
C3801 H3805 0.950 . S
H3802 C3798 0.950 . S
C3803 C3801 1.390 . S
C3803 C3804 1.387 . S
C3803 H3806 0.950 . S
C3804 C3803 1.387 . S
C3804 C3807 1.387 . S
H3805 C3801 0.950 . S
H3806 C3803 0.950 . S
C3807 C3798 1.390 . S
C3807 H3800 0.950 . S
C3807 C3804 1.387 . S
C3808 C3809 1.387 . S
C3808 H3812 0.950 . S
C3808 C3817 1.390 . S
C3809 C3808 1.387 . S
C3809 C3811 1.387 . S
H3810 C3817 0.950 . S
C3811 C3809 1.387 . S
C3811 C3813 1.390 . S
C3811 H3815 0.950 . S
H3812 C3808 0.950 . S
C3813 C3811 1.390 . S
C3813 C3814 1.387 . S
C3813 H3816 0.950 . S
C3814 C3813 1.387 . S
C3814 C3817 1.387 . S
H3815 C3811 0.950 . S
H3816 C3813 0.950 . S
C3817 C3808 1.390 . S
C3817 H3810 0.950 . S
C3817 C3814 1.387 . S
C3818 C3819 1.387 . S
C3818 H3822 0.950 . S
C3818 C3827 1.390 . S
C3819 C3818 1.387 . S
C3819 C3821 1.387 . S
H3820 C3827 0.950 . S
C3821 C3819 1.387 . S
C3821 C3823 1.390 . S
C3821 H3825 0.950 . S
H3822 C3818 0.950 . S
C3823 C3821 1.390 . S
C3823 C3824 1.387 . S
C3823 H3826 0.950 . S
C3824 C3823 1.387 . S
C3824 C3827 1.387 . S
H3825 C3821 0.950 . S
H3826 C3823 0.950 . S
C3827 C3818 1.390 . S
C3827 H3820 0.950 . S
C3827 C3824 1.387 . S
C3828 C3829 1.387 . S
C3828 H3832 0.950 . S
C3828 C3837 1.390 . S
C3829 C3828 1.387 . S
C3829 C3831 1.387 . S
H3830 C3837 0.950 . S
C3831 C3829 1.387 . S
C3831 C3833 1.390 . S
C3831 H3835 0.950 . S
H3832 C3828 0.950 . S
C3833 C3831 1.390 . S
C3833 C3834 1.387 . S
C3833 H3836 0.950 . S
C3834 C3833 1.387 . S
C3834 C3837 1.387 . S
H3835 C3831 0.950 . S
H3836 C3833 0.950 . S
C3837 C3828 1.390 . S
C3837 H3830 0.950 . S
C3837 C3834 1.387 . S
C3838 C3839 1.387 . S
C3838 H3842 0.950 . S
C3838 C3847 1.390 . S
C3839 C3838 1.387 . S
C3839 C3841 1.387 . S
H3840 C3847 0.950 . S
C3841 C3839 1.387 . S
C3841 C3843 1.390 . S
C3841 H3845 0.950 . S
H3842 C3838 0.950 . S
C3843 C3841 1.390 . S
C3843 C3844 1.387 . S
C3843 H3846 0.950 . S
C3844 C3843 1.387 . S
C3844 C3847 1.387 . S
H3845 C3841 0.950 . S
H3846 C3843 0.950 . S
C3847 C3838 1.390 . S
C3847 H3840 0.950 . S
C3847 C3844 1.387 . S
C3848 C3849 1.387 . S
C3848 H3852 0.950 . S
C3848 C3857 1.390 . S
C3849 C3848 1.387 . S
C3849 C3851 1.387 . S
H3850 C3857 0.950 . S
C3851 C3849 1.387 . S
C3851 C3853 1.390 . S
C3851 H3855 0.950 . S
H3852 C3848 0.950 . S
C3853 C3851 1.390 . S
C3853 C3854 1.387 . S
C3853 H3856 0.950 . S
C3854 C3853 1.387 . S
C3854 C3857 1.387 . S
H3855 C3851 0.950 . S
H3856 C3853 0.950 . S
C3857 C3848 1.390 . S
C3857 H3850 0.950 . S
C3857 C3854 1.387 . S
C3858 C3859 1.387 . S
C3858 H3862 0.950 . S
C3858 C3867 1.390 . S
C3859 C3858 1.387 . S
C3859 C3861 1.387 . S
H3860 C3867 0.950 . S
C3861 C3859 1.387 . S
C3861 C3863 1.390 . S
C3861 H3865 0.950 . S
H3862 C3858 0.950 . S
C3863 C3861 1.390 . S
C3863 C3864 1.387 . S
C3863 H3866 0.950 . S
C3864 C3863 1.387 . S
C3864 C3867 1.387 . S
H3865 C3861 0.950 . S
H3866 C3863 0.950 . S
C3867 C3858 1.390 . S
C3867 H3860 0.950 . S
C3867 C3864 1.387 . S
C3868 C3869 1.387 . S
C3868 H3872 0.950 . S
C3868 C3877 1.390 . S
C3869 C3868 1.387 . S
C3869 C3871 1.387 . S
H3870 C3877 0.950 . S
C3871 C3869 1.387 . S
C3871 C3873 1.390 . S
C3871 H3875 0.950 . S
H3872 C3868 0.950 . S
C3873 C3871 1.390 . S
C3873 C3874 1.387 . S
C3873 H3876 0.950 . S
C3874 C3873 1.387 . S
C3874 C3877 1.387 . S
H3875 C3871 0.950 . S
H3876 C3873 0.950 . S
C3877 C3868 1.390 . S
C3877 H3870 0.950 . S
C3877 C3874 1.387 . S
C3878 C3879 1.387 . S
C3878 H3882 0.950 . S
C3878 C3887 1.390 . S
C3879 C3878 1.387 . S
C3879 C3881 1.387 . S
H3880 C3887 0.950 . S
C3881 C3879 1.387 . S
C3881 C3883 1.390 . S
C3881 H3885 0.950 . S
H3882 C3878 0.950 . S
C3883 C3881 1.390 . S
C3883 C3884 1.387 . S
C3883 H3886 0.950 . S
C3884 C3883 1.387 . S
C3884 C3887 1.387 . S
H3885 C3881 0.950 . S
H3886 C3883 0.950 . S
C3887 C3878 1.390 . S
C3887 H3880 0.950 . S
C3887 C3884 1.387 . S
C3888 C3889 1.387 . S
C3888 H3892 0.950 . S
C3888 C3897 1.390 . S
C3889 C3888 1.387 . S
C3889 C3891 1.387 . S
H3890 C3897 0.950 . S
C3891 C3889 1.387 . S
C3891 C3893 1.390 . S
C3891 H3895 0.950 . S
H3892 C3888 0.950 . S
C3893 C3891 1.390 . S
C3893 C3894 1.387 . S
C3893 H3896 0.950 . S
C3894 C3893 1.387 . S
C3894 C3897 1.387 . S
H3895 C3891 0.950 . S
H3896 C3893 0.950 . S
C3897 C3888 1.390 . S
C3897 H3890 0.950 . S
C3897 C3894 1.387 . S
C3898 C3899 1.387 . S
C3898 H3902 0.950 . S
C3898 C3907 1.390 . S
C3899 C3898 1.387 . S
C3899 C3901 1.387 . S
H3900 C3907 0.950 . S
C3901 C3899 1.387 . S
C3901 C3903 1.390 . S
C3901 H3905 0.950 . S
H3902 C3898 0.950 . S
C3903 C3901 1.390 . S
C3903 C3904 1.387 . S
C3903 H3906 0.950 . S
C3904 C3903 1.387 . S
C3904 C3907 1.387 . S
H3905 C3901 0.950 . S
H3906 C3903 0.950 . S
C3907 C3898 1.390 . S
C3907 H3900 0.950 . S
C3907 C3904 1.387 . S
C3908 C3909 1.387 . S
C3908 H3912 0.950 . S
C3908 C3917 1.390 . S
C3909 C3908 1.387 . S
C3909 C3911 1.387 . S
H3910 C3917 0.950 . S
C3911 C3909 1.387 . S
C3911 C3913 1.390 . S
C3911 H3915 0.950 . S
H3912 C3908 0.950 . S
C3913 C3911 1.390 . S
C3913 C3914 1.387 . S
C3913 H3916 0.950 . S
C3914 C3913 1.387 . S
C3914 C3917 1.387 . S
H3915 C3911 0.950 . S
H3916 C3913 0.950 . S
C3917 C3908 1.390 . S
C3917 H3910 0.950 . S
C3917 C3914 1.387 . S
C3918 C3919 1.387 . S
C3918 H3922 0.950 . S
C3918 C3927 1.390 . S
C3919 C3918 1.387 . S
C3919 C3921 1.387 . S
H3920 C3927 0.950 . S
C3921 C3919 1.387 . S
C3921 C3923 1.390 . S
C3921 H3925 0.950 . S
H3922 C3918 0.950 . S
C3923 C3921 1.390 . S
C3923 C3924 1.387 . S
C3923 H3926 0.950 . S
C3924 C3923 1.387 . S
C3924 C3927 1.387 . S
H3925 C3921 0.950 . S
H3926 C3923 0.950 . S
C3927 C3918 1.390 . S
C3927 H3920 0.950 . S
C3927 C3924 1.387 . S
C3928 C3929 1.387 . S
C3928 H3932 0.950 . S
C3928 C3937 1.390 . S
C3929 C3928 1.387 . S
C3929 C3931 1.387 . S
H3930 C3937 0.950 . S
C3931 C3929 1.387 . S
C3931 C3933 1.390 . S
C3931 H3935 0.950 . S
H3932 C3928 0.950 . S
C3933 C3931 1.390 . S
C3933 C3934 1.387 . S
C3933 H3936 0.950 . S
C3934 C3933 1.387 . S
C3934 C3937 1.387 . S
H3935 C3931 0.950 . S
H3936 C3933 0.950 . S
C3937 C3928 1.390 . S
C3937 H3930 0.950 . S
C3937 C3934 1.387 . S
C3938 C3939 1.387 . S
C3938 H3942 0.950 . S
C3938 C3947 1.390 . S
C3939 C3938 1.387 . S
C3939 C3941 1.387 . S
H3940 C3947 0.950 . S
C3941 C3939 1.387 . S
C3941 C3943 1.390 . S
C3941 H3945 0.950 . S
H3942 C3938 0.950 . S
C3943 C3941 1.390 . S
C3943 C3944 1.387 . S
C3943 H3946 0.950 . S
C3944 C3943 1.387 . S
C3944 C3947 1.387 . S
H3945 C3941 0.950 . S
H3946 C3943 0.950 . S
C3947 C3938 1.390 . S
C3947 H3940 0.950 . S
C3947 C3944 1.387 . S
C3948 C3949 1.387 . S
C3948 H3952 0.950 . S
C3948 C3957 1.390 . S
C3949 C3948 1.387 . S
C3949 C3951 1.387 . S
H3950 C3957 0.950 . S
C3951 C3949 1.387 . S
C3951 C3953 1.390 . S
C3951 H3955 0.950 . S
H3952 C3948 0.950 . S
C3953 C3951 1.390 . S
C3953 C3954 1.387 . S
C3953 H3956 0.950 . S
C3954 C3953 1.387 . S
C3954 C3957 1.387 . S
H3955 C3951 0.950 . S
H3956 C3953 0.950 . S
C3957 C3948 1.390 . S
C3957 H3950 0.950 . S
C3957 C3954 1.387 . S
C3958 C3959 1.387 . S
C3958 H3962 0.950 . S
C3958 C3967 1.390 . S
C3959 C3958 1.387 . S
C3959 C3961 1.387 . S
H3960 C3967 0.950 . S
C3961 C3959 1.387 . S
C3961 C3963 1.390 . S
C3961 H3965 0.950 . S
H3962 C3958 0.950 . S
C3963 C3961 1.390 . S
C3963 C3964 1.387 . S
C3963 H3966 0.950 . S
C3964 C3963 1.387 . S
C3964 C3967 1.387 . S
H3965 C3961 0.950 . S
H3966 C3963 0.950 . S
C3967 C3958 1.390 . S
C3967 H3960 0.950 . S
C3967 C3964 1.387 . S
C3968 C3969 1.387 . S
C3968 H3972 0.950 . S
C3968 C3977 1.390 . S
C3969 C3968 1.387 . S
C3969 C3971 1.387 . S
H3970 C3977 0.950 . S
C3971 C3969 1.387 . S
C3971 C3973 1.390 . S
C3971 H3975 0.950 . S
H3972 C3968 0.950 . S
C3973 C3971 1.390 . S
C3973 C3974 1.387 . S
C3973 H3976 0.950 . S
C3974 C3973 1.387 . S
C3974 C3977 1.387 . S
H3975 C3971 0.950 . S
H3976 C3973 0.950 . S
C3977 C3968 1.390 . S
C3977 H3970 0.950 . S
C3977 C3974 1.387 . S
C3978 C3979 1.387 . S
C3978 H3982 0.950 . S
C3978 C3987 1.390 . S
C3979 C3978 1.387 . S
C3979 C3981 1.387 . S
H3980 C3987 0.950 . S
C3981 C3979 1.387 . S
C3981 C3983 1.390 . S
C3981 H3985 0.950 . S
H3982 C3978 0.950 . S
C3983 C3981 1.390 . S
C3983 C3984 1.387 . S
C3983 H3986 0.950 . S
C3984 C3983 1.387 . S
C3984 C3987 1.387 . S
H3985 C3981 0.950 . S
H3986 C3983 0.950 . S
C3987 C3978 1.390 . S
C3987 H3980 0.950 . S
C3987 C3984 1.387 . S
C3988 C3989 1.387 . S
C3988 H3992 0.950 . S
C3988 C3997 1.390 . S
C3989 C3988 1.387 . S
C3989 C3991 1.387 . S
H3990 C3997 0.950 . S
C3991 C3989 1.387 . S
C3991 C3993 1.390 . S
C3991 H3995 0.950 . S
H3992 C3988 0.950 . S
C3993 C3991 1.390 . S
C3993 C3994 1.387 . S
C3993 H3996 0.950 . S
C3994 C3993 1.387 . S
C3994 C3997 1.387 . S
H3995 C3991 0.950 . S
H3996 C3993 0.950 . S
C3997 C3988 1.390 . S
C3997 H3990 0.950 . S
C3997 C3994 1.387 . S
C3998 C3999 1.387 . S
C3998 H4002 0.950 . S
C3998 C4007 1.390 . S
C3999 C3998 1.387 . S
C3999 C4001 1.387 . S
H4000 C4007 0.950 . S
C4001 C3999 1.387 . S
C4001 C4003 1.390 . S
C4001 H4005 0.950 . S
H4002 C3998 0.950 . S
C4003 C4001 1.390 . S
C4003 C4004 1.387 . S
C4003 H4006 0.950 . S
C4004 C4003 1.387 . S
C4004 C4007 1.387 . S
H4005 C4001 0.950 . S
H4006 C4003 0.950 . S
C4007 C3998 1.390 . S
C4007 H4000 0.950 . S
C4007 C4004 1.387 . S
C4008 C4009 1.387 . S
C4008 H4012 0.950 . S
C4008 C4017 1.390 . S
C4009 C4008 1.387 . S
C4009 C4011 1.387 . S
H4010 C4017 0.950 . S
C4011 C4009 1.387 . S
C4011 C4013 1.390 . S
C4011 H4015 0.950 . S
H4012 C4008 0.950 . S
C4013 C4011 1.390 . S
C4013 C4014 1.387 . S
C4013 H4016 0.950 . S
C4014 C4013 1.387 . S
C4014 C4017 1.387 . S
H4015 C4011 0.950 . S
H4016 C4013 0.950 . S
C4017 C4008 1.390 . S
C4017 H4010 0.950 . S
C4017 C4014 1.387 . S
C4018 C4019 1.387 . S
C4018 H4022 0.950 . S
C4018 C4027 1.390 . S
C4019 C4018 1.387 . S
C4019 C4021 1.387 . S
H4020 C4027 0.950 . S
C4021 C4019 1.387 . S
C4021 C4023 1.390 . S
C4021 H4025 0.950 . S
H4022 C4018 0.950 . S
C4023 C4021 1.390 . S
C4023 C4024 1.387 . S
C4023 H4026 0.950 . S
C4024 C4023 1.387 . S
C4024 C4027 1.387 . S
H4025 C4021 0.950 . S
H4026 C4023 0.950 . S
C4027 C4018 1.390 . S
C4027 H4020 0.950 . S
C4027 C4024 1.387 . S
C4028 C4029 1.387 . S
C4028 H4032 0.950 . S
C4028 C4037 1.390 . S
C4029 C4028 1.387 . S
C4029 C4031 1.387 . S
H4030 C4037 0.950 . S
C4031 C4029 1.387 . S
C4031 C4033 1.390 . S
C4031 H4035 0.950 . S
H4032 C4028 0.950 . S
C4033 C4031 1.390 . S
C4033 C4034 1.387 . S
C4033 H4036 0.950 . S
C4034 C4033 1.387 . S
C4034 C4037 1.387 . S
H4035 C4031 0.950 . S
H4036 C4033 0.950 . S
C4037 C4028 1.390 . S
C4037 H4030 0.950 . S
C4037 C4034 1.387 . S
C4038 C4039 1.387 . S
C4038 H4042 0.950 . S
C4038 C4047 1.390 . S
C4039 C4038 1.387 . S
C4039 C4041 1.387 . S
H4040 C4047 0.950 . S
C4041 C4039 1.387 . S
C4041 C4043 1.390 . S
C4041 H4045 0.950 . S
H4042 C4038 0.950 . S
C4043 C4041 1.390 . S
C4043 C4044 1.387 . S
C4043 H4046 0.950 . S
C4044 C4043 1.387 . S
C4044 C4047 1.387 . S
H4045 C4041 0.950 . S
H4046 C4043 0.950 . S
C4047 C4038 1.390 . S
C4047 H4040 0.950 . S
C4047 C4044 1.387 . S
C4048 C4049 1.387 . S
C4048 H4052 0.950 . S
C4048 C4057 1.390 . S
C4049 C4048 1.387 . S
C4049 C4051 1.387 . S
H4050 C4057 0.950 . S
C4051 C4049 1.387 . S
C4051 C4053 1.390 . S
C4051 H4055 0.950 . S
H4052 C4048 0.950 . S
C4053 C4051 1.390 . S
C4053 C4054 1.387 . S
C4053 H4056 0.950 . S
C4054 C4053 1.387 . S
C4054 C4057 1.387 . S
H4055 C4051 0.950 . S
H4056 C4053 0.950 . S
C4057 C4048 1.390 . S
C4057 H4050 0.950 . S
C4057 C4054 1.387 . S
C4058 C4059 1.387 . S
C4058 H4062 0.950 . S
C4058 C4067 1.390 . S
C4059 C4058 1.387 . S
C4059 C4061 1.387 . S
H4060 C4067 0.950 . S
C4061 C4059 1.387 . S
C4061 C4063 1.390 . S
C4061 H4065 0.950 . S
H4062 C4058 0.950 . S
C4063 C4061 1.390 . S
C4063 C4064 1.387 . S
C4063 H4066 0.950 . S
C4064 C4063 1.387 . S
C4064 C4067 1.387 . S
H4065 C4061 0.950 . S
H4066 C4063 0.950 . S
C4067 C4058 1.390 . S
C4067 H4060 0.950 . S
C4067 C4064 1.387 . S
C4068 C4069 1.387 . S
C4068 H4072 0.950 . S
C4068 C4077 1.390 . S
C4069 C4068 1.387 . S
C4069 C4071 1.387 . S
H4070 C4077 0.950 . S
C4071 C4069 1.387 . S
C4071 C4073 1.390 . S
C4071 H4075 0.950 . S
H4072 C4068 0.950 . S
C4073 C4071 1.390 . S
C4073 C4074 1.387 . S
C4073 H4076 0.950 . S
C4074 C4073 1.387 . S
C4074 C4077 1.387 . S
H4075 C4071 0.950 . S
H4076 C4073 0.950 . S
C4077 C4068 1.390 . S
C4077 H4070 0.950 . S
C4077 C4074 1.387 . S
C4078 C4079 1.387 . S
C4078 H4082 0.950 . S
C4078 C4087 1.390 . S
C4079 C4078 1.387 . S
C4079 C4081 1.387 . S
H4080 C4087 0.950 . S
C4081 C4079 1.387 . S
C4081 C4083 1.390 . S
C4081 H4085 0.950 . S
H4082 C4078 0.950 . S
C4083 C4081 1.390 . S
C4083 C4084 1.387 . S
C4083 H4086 0.950 . S
C4084 C4083 1.387 . S
C4084 C4087 1.387 . S
H4085 C4081 0.950 . S
H4086 C4083 0.950 . S
C4087 C4078 1.390 . S
C4087 H4080 0.950 . S
C4087 C4084 1.387 . S
C4088 C4089 1.387 . S
C4088 H4092 0.950 . S
C4088 C4097 1.390 . S
C4089 C4088 1.387 . S
C4089 C4091 1.387 . S
H4090 C4097 0.950 . S
C4091 C4089 1.387 . S
C4091 C4093 1.390 . S
C4091 H4095 0.950 . S
H4092 C4088 0.950 . S
C4093 C4091 1.390 . S
C4093 C4094 1.387 . S
C4093 H4096 0.950 . S
C4094 C4093 1.387 . S
C4094 C4097 1.387 . S
H4095 C4091 0.950 . S
H4096 C4093 0.950 . S
C4097 C4088 1.390 . S
C4097 H4090 0.950 . S
C4097 C4094 1.387 . S
C4098 C4099 1.387 . S
C4098 H4102 0.950 . S
C4098 C4107 1.390 . S
C4099 C4098 1.387 . S
C4099 C4101 1.387 . S
H4100 C4107 0.950 . S
C4101 C4099 1.387 . S
C4101 C4103 1.390 . S
C4101 H4105 0.950 . S
H4102 C4098 0.950 . S
C4103 C4101 1.390 . S
C4103 C4104 1.387 . S
C4103 H4106 0.950 . S
C4104 C4103 1.387 . S
C4104 C4107 1.387 . S
H4105 C4101 0.950 . S
H4106 C4103 0.950 . S
C4107 C4098 1.390 . S
C4107 H4100 0.950 . S
C4107 C4104 1.387 . S
C4108 C4109 1.387 . S
C4108 H4112 0.950 . S
C4108 C4117 1.390 . S
C4109 C4108 1.387 . S
C4109 C4111 1.387 . S
H4110 C4117 0.950 . S
C4111 C4109 1.387 . S
C4111 C4113 1.390 . S
C4111 H4115 0.950 . S
H4112 C4108 0.950 . S
C4113 C4111 1.390 . S
C4113 C4114 1.387 . S
C4113 H4116 0.950 . S
C4114 C4113 1.387 . S
C4114 C4117 1.387 . S
H4115 C4111 0.950 . S
H4116 C4113 0.950 . S
C4117 C4108 1.390 . S
C4117 H4110 0.950 . S
C4117 C4114 1.387 . S
C4118 C4119 1.387 . S
C4118 H4122 0.950 . S
C4118 C4127 1.390 . S
C4119 C4118 1.387 . S
C4119 C4121 1.387 . S
H4120 C4127 0.950 . S
C4121 C4119 1.387 . S
C4121 C4123 1.390 . S
C4121 H4125 0.950 . S
H4122 C4118 0.950 . S
C4123 C4121 1.390 . S
C4123 C4124 1.387 . S
C4123 H4126 0.950 . S
C4124 C4123 1.387 . S
C4124 C4127 1.387 . S
H4125 C4121 0.950 . S
H4126 C4123 0.950 . S
C4127 C4118 1.390 . S
C4127 H4120 0.950 . S
C4127 C4124 1.387 . S
C4128 C4129 1.387 . S
C4128 H4132 0.950 . S
C4128 C4137 1.390 . S
C4129 C4128 1.387 . S
C4129 C4131 1.387 . S
H4130 C4137 0.950 . S
C4131 C4129 1.387 . S
C4131 C4133 1.390 . S
C4131 H4135 0.950 . S
H4132 C4128 0.950 . S
C4133 C4131 1.390 . S
C4133 C4134 1.387 . S
C4133 H4136 0.950 . S
C4134 C4133 1.387 . S
C4134 C4137 1.387 . S
H4135 C4131 0.950 . S
H4136 C4133 0.950 . S
C4137 C4128 1.390 . S
C4137 H4130 0.950 . S
C4137 C4134 1.387 . S
C4138 C4139 1.387 . S
C4138 H4142 0.950 . S
C4138 C4147 1.390 . S
C4139 C4138 1.387 . S
C4139 C4141 1.387 . S
H4140 C4147 0.950 . S
C4141 C4139 1.387 . S
C4141 C4143 1.390 . S
C4141 H4145 0.950 . S
H4142 C4138 0.950 . S
C4143 C4141 1.390 . S
C4143 C4144 1.387 . S
C4143 H4146 0.950 . S
C4144 C4143 1.387 . S
C4144 C4147 1.387 . S
H4145 C4141 0.950 . S
H4146 C4143 0.950 . S
C4147 C4138 1.390 . S
C4147 H4140 0.950 . S
C4147 C4144 1.387 . S
C4148 C4149 1.387 . S
C4148 H4152 0.950 . S
C4148 C4157 1.390 . S
C4149 C4148 1.387 . S
C4149 C4151 1.387 . S
H4150 C4157 0.950 . S
C4151 C4149 1.387 . S
C4151 C4153 1.390 . S
C4151 H4155 0.950 . S
H4152 C4148 0.950 . S
C4153 C4151 1.390 . S
C4153 C4154 1.387 . S
C4153 H4156 0.950 . S
C4154 C4153 1.387 . S
C4154 C4157 1.387 . S
H4155 C4151 0.950 . S
H4156 C4153 0.950 . S
C4157 C4148 1.390 . S
C4157 H4150 0.950 . S
C4157 C4154 1.387 . S
C4158 C4159 1.387 . S
C4158 H4162 0.950 . S
C4158 C4167 1.390 . S
C4159 C4158 1.387 . S
C4159 C4161 1.387 . S
H4160 C4167 0.950 . S
C4161 C4159 1.387 . S
C4161 C4163 1.390 . S
C4161 H4165 0.950 . S
H4162 C4158 0.950 . S
C4163 C4161 1.390 . S
C4163 C4164 1.387 . S
C4163 H4166 0.950 . S
C4164 C4163 1.387 . S
C4164 C4167 1.387 . S
H4165 C4161 0.950 . S
H4166 C4163 0.950 . S
C4167 C4158 1.390 . S
C4167 H4160 0.950 . S
C4167 C4164 1.387 . S
C4168 C4169 1.387 . S
C4168 H4172 0.950 . S
C4168 C4177 1.390 . S
C4169 C4168 1.387 . S
C4169 C4171 1.387 . S
H4170 C4177 0.950 . S
C4171 C4169 1.387 . S
C4171 C4173 1.390 . S
C4171 H4175 0.950 . S
H4172 C4168 0.950 . S
C4173 C4171 1.390 . S
C4173 C4174 1.387 . S
C4173 H4176 0.950 . S
C4174 C4173 1.387 . S
C4174 C4177 1.387 . S
H4175 C4171 0.950 . S
H4176 C4173 0.950 . S
C4177 C4168 1.390 . S
C4177 H4170 0.950 . S
C4177 C4174 1.387 . S
C4178 C4179 1.387 . S
C4178 H4182 0.950 . S
C4178 C4187 1.390 . S
C4179 C4178 1.387 . S
C4179 C4181 1.387 . S
H4180 C4187 0.950 . S
C4181 C4179 1.387 . S
C4181 C4183 1.390 . S
C4181 H4185 0.950 . S
H4182 C4178 0.950 . S
C4183 C4181 1.390 . S
C4183 C4184 1.387 . S
C4183 H4186 0.950 . S
C4184 C4183 1.387 . S
C4184 C4187 1.387 . S
H4185 C4181 0.950 . S
H4186 C4183 0.950 . S
C4187 C4178 1.390 . S
C4187 H4180 0.950 . S
C4187 C4184 1.387 . S
C4188 C4189 1.387 . S
C4188 H4192 0.950 . S
C4188 C4197 1.390 . S
C4189 C4188 1.387 . S
C4189 C4191 1.387 . S
H4190 C4197 0.950 . S
C4191 C4189 1.387 . S
C4191 C4193 1.390 . S
C4191 H4195 0.950 . S
H4192 C4188 0.950 . S
C4193 C4191 1.390 . S
C4193 C4194 1.387 . S
C4193 H4196 0.950 . S
C4194 C4193 1.387 . S
C4194 C4197 1.387 . S
H4195 C4191 0.950 . S
H4196 C4193 0.950 . S
C4197 C4188 1.390 . S
C4197 H4190 0.950 . S
C4197 C4194 1.387 . S
C4198 C4199 1.387 . S
C4198 H4202 0.950 . S
C4198 C4207 1.390 . S
C4199 C4198 1.387 . S
C4199 C4201 1.387 . S
H4200 C4207 0.950 . S
C4201 C4199 1.387 . S
C4201 C4203 1.390 . S
C4201 H4205 0.950 . S
H4202 C4198 0.950 . S
C4203 C4201 1.390 . S
C4203 C4204 1.387 . S
C4203 H4206 0.950 . S
C4204 C4203 1.387 . S
C4204 C4207 1.387 . S
H4205 C4201 0.950 . S
H4206 C4203 0.950 . S
C4207 C4198 1.390 . S
C4207 H4200 0.950 . S
C4207 C4204 1.387 . S
C4208 C4209 1.387 . S
C4208 H4212 0.950 . S
C4208 C4217 1.390 . S
C4209 C4208 1.387 . S
C4209 C4211 1.387 . S
H4210 C4217 0.950 . S
C4211 C4209 1.387 . S
C4211 C4213 1.390 . S
C4211 H4215 0.950 . S
H4212 C4208 0.950 . S
C4213 C4211 1.390 . S
C4213 C4214 1.387 . S
C4213 H4216 0.950 . S
C4214 C4213 1.387 . S
C4214 C4217 1.387 . S
H4215 C4211 0.950 . S
H4216 C4213 0.950 . S
C4217 C4208 1.390 . S
C4217 H4210 0.950 . S
C4217 C4214 1.387 . S
C4218 C4219 1.387 . S
C4218 H4222 0.950 . S
C4218 C4227 1.390 . S
C4219 C4218 1.387 . S
C4219 C4221 1.387 . S
H4220 C4227 0.950 . S
C4221 C4219 1.387 . S
C4221 C4223 1.390 . S
C4221 H4225 0.950 . S
H4222 C4218 0.950 . S
C4223 C4221 1.390 . S
C4223 C4224 1.387 . S
C4223 H4226 0.950 . S
C4224 C4223 1.387 . S
C4224 C4227 1.387 . S
H4225 C4221 0.950 . S
H4226 C4223 0.950 . S
C4227 C4218 1.390 . S
C4227 H4220 0.950 . S
C4227 C4224 1.387 . S
C4228 C4229 1.387 . S
C4228 H4232 0.950 . S
C4228 C4237 1.390 . S
C4229 C4228 1.387 . S
C4229 C4231 1.387 . S
H4230 C4237 0.950 . S
C4231 C4229 1.387 . S
C4231 C4233 1.390 . S
C4231 H4235 0.950 . S
H4232 C4228 0.950 . S
C4233 C4231 1.390 . S
C4233 C4234 1.387 . S
C4233 H4236 0.950 . S
C4234 C4233 1.387 . S
C4234 C4237 1.387 . S
H4235 C4231 0.950 . S
H4236 C4233 0.950 . S
C4237 C4228 1.390 . S
C4237 H4230 0.950 . S
C4237 C4234 1.387 . S
C4238 C4239 1.387 . S
C4238 H4242 0.950 . S
C4238 C4247 1.390 . S
C4239 C4238 1.387 . S
C4239 C4241 1.387 . S
H4240 C4247 0.950 . S
C4241 C4239 1.387 . S
C4241 C4243 1.390 . S
C4241 H4245 0.950 . S
H4242 C4238 0.950 . S
C4243 C4241 1.390 . S
C4243 C4244 1.387 . S
C4243 H4246 0.950 . S
C4244 C4243 1.387 . S
C4244 C4247 1.387 . S
H4245 C4241 0.950 . S
H4246 C4243 0.950 . S
C4247 C4238 1.390 . S
C4247 H4240 0.950 . S
C4247 C4244 1.387 . S
C4248 C4249 1.387 . S
C4248 H4252 0.950 . S
C4248 C4257 1.390 . S
C4249 C4248 1.387 . S
C4249 C4251 1.387 . S
H4250 C4257 0.950 . S
C4251 C4249 1.387 . S
C4251 C4253 1.390 . S
C4251 H4255 0.950 . S
H4252 C4248 0.950 . S
C4253 C4251 1.390 . S
C4253 C4254 1.387 . S
C4253 H4256 0.950 . S
C4254 C4253 1.387 . S
C4254 C4257 1.387 . S
H4255 C4251 0.950 . S
H4256 C4253 0.950 . S
C4257 C4248 1.390 . S
C4257 H4250 0.950 . S
C4257 C4254 1.387 . S
C4258 C4259 1.387 . S
C4258 H4262 0.950 . S
C4258 C4267 1.390 . S
C4259 C4258 1.387 . S
C4259 C4261 1.387 . S
H4260 C4267 0.950 . S
C4261 C4259 1.387 . S
C4261 C4263 1.390 . S
C4261 H4265 0.950 . S
H4262 C4258 0.950 . S
C4263 C4261 1.390 . S
C4263 C4264 1.387 . S
C4263 H4266 0.950 . S
C4264 C4263 1.387 . S
C4264 C4267 1.387 . S
H4265 C4261 0.950 . S
H4266 C4263 0.950 . S
C4267 C4258 1.390 . S
C4267 H4260 0.950 . S
C4267 C4264 1.387 . S
C4268 C4269 1.387 . S
C4268 H4272 0.950 . S
C4268 C4277 1.390 . S
C4269 C4268 1.387 . S
C4269 C4271 1.387 . S
H4270 C4277 0.950 . S
C4271 C4269 1.387 . S
C4271 C4273 1.390 . S
C4271 H4275 0.950 . S
H4272 C4268 0.950 . S
C4273 C4271 1.390 . S
C4273 C4274 1.387 . S
C4273 H4276 0.950 . S
C4274 C4273 1.387 . S
C4274 C4277 1.387 . S
H4275 C4271 0.950 . S
H4276 C4273 0.950 . S
C4277 C4268 1.390 . S
C4277 H4270 0.950 . S
C4277 C4274 1.387 . S
C4278 C4279 1.387 . S
C4278 H4282 0.950 . S
C4278 C4287 1.390 . S
C4279 C4278 1.387 . S
C4279 C4281 1.387 . S
H4280 C4287 0.950 . S
C4281 C4279 1.387 . S
C4281 C4283 1.390 . S
C4281 H4285 0.950 . S
H4282 C4278 0.950 . S
C4283 C4281 1.390 . S
C4283 C4284 1.387 . S
C4283 H4286 0.950 . S
C4284 C4283 1.387 . S
C4284 C4287 1.387 . S
H4285 C4281 0.950 . S
H4286 C4283 0.950 . S
C4287 C4278 1.390 . S
C4287 H4280 0.950 . S
C4287 C4284 1.387 . S
C4288 C4289 1.387 . S
C4288 H4292 0.950 . S
C4288 C4297 1.390 . S
C4289 C4288 1.387 . S
C4289 C4291 1.387 . S
H4290 C4297 0.950 . S
C4291 C4289 1.387 . S
C4291 C4293 1.390 . S
C4291 H4295 0.950 . S
H4292 C4288 0.950 . S
C4293 C4291 1.390 . S
C4293 C4294 1.387 . S
C4293 H4296 0.950 . S
C4294 C4293 1.387 . S
C4294 C4297 1.387 . S
H4295 C4291 0.950 . S
H4296 C4293 0.950 . S
C4297 C4288 1.390 . S
C4297 H4290 0.950 . S
C4297 C4294 1.387 . S
C4298 C4299 1.387 . S
C4298 H4302 0.950 . S
C4298 C4307 1.390 . S
C4299 C4298 1.387 . S
C4299 C4301 1.387 . S
H4300 C4307 0.950 . S
C4301 C4299 1.387 . S
C4301 C4303 1.390 . S
C4301 H4305 0.950 . S
H4302 C4298 0.950 . S
C4303 C4301 1.390 . S
C4303 C4304 1.387 . S
C4303 H4306 0.950 . S
C4304 C4303 1.387 . S
C4304 C4307 1.387 . S
H4305 C4301 0.950 . S
H4306 C4303 0.950 . S
C4307 C4298 1.390 . S
C4307 H4300 0.950 . S
C4307 C4304 1.387 . S
C4308 C4309 1.387 . S
C4308 H4312 0.950 . S
C4308 C4317 1.390 . S
C4309 C4308 1.387 . S
C4309 C4311 1.387 . S
H4310 C4317 0.950 . S
C4311 C4309 1.387 . S
C4311 C4313 1.390 . S
C4311 H4315 0.950 . S
H4312 C4308 0.950 . S
C4313 C4311 1.390 . S
C4313 C4314 1.387 . S
C4313 H4316 0.950 . S
C4314 C4313 1.387 . S
C4314 C4317 1.387 . S
H4315 C4311 0.950 . S
H4316 C4313 0.950 . S
C4317 C4308 1.390 . S
C4317 H4310 0.950 . S
C4317 C4314 1.387 . S
C4318 C4319 1.387 . S
C4318 H4322 0.950 . S
C4318 C4327 1.390 . S
C4319 C4318 1.387 . S
C4319 C4321 1.387 . S
H4320 C4327 0.950 . S
C4321 C4319 1.387 . S
C4321 C4323 1.390 . S
C4321 H4325 0.950 . S
H4322 C4318 0.950 . S
C4323 C4321 1.390 . S
C4323 C4324 1.387 . S
C4323 H4326 0.950 . S
C4324 C4323 1.387 . S
C4324 C4327 1.387 . S
H4325 C4321 0.950 . S
H4326 C4323 0.950 . S
C4327 C4318 1.390 . S
C4327 H4320 0.950 . S
C4327 C4324 1.387 . S
C4328 C4329 1.387 . S
C4328 H4332 0.950 . S
C4328 C4337 1.390 . S
C4329 C4328 1.387 . S
C4329 C4331 1.387 . S
H4330 C4337 0.950 . S
C4331 C4329 1.387 . S
C4331 C4333 1.390 . S
C4331 H4335 0.950 . S
H4332 C4328 0.950 . S
C4333 C4331 1.390 . S
C4333 C4334 1.387 . S
C4333 H4336 0.950 . S
C4334 C4333 1.387 . S
C4334 C4337 1.387 . S
H4335 C4331 0.950 . S
H4336 C4333 0.950 . S
C4337 C4328 1.390 . S
C4337 H4330 0.950 . S
C4337 C4334 1.387 . S
C4338 C4339 1.387 . S
C4338 H4342 0.950 . S
C4338 C4347 1.390 . S
C4339 C4338 1.387 . S
C4339 C4341 1.387 . S
H4340 C4347 0.950 . S
C4341 C4339 1.387 . S
C4341 C4343 1.390 . S
C4341 H4345 0.950 . S
H4342 C4338 0.950 . S
C4343 C4341 1.390 . S
C4343 C4344 1.387 . S
C4343 H4346 0.950 . S
C4344 C4343 1.387 . S
C4344 C4347 1.387 . S
H4345 C4341 0.950 . S
H4346 C4343 0.950 . S
C4347 C4338 1.390 . S
C4347 H4340 0.950 . S
C4347 C4344 1.387 . S
C4348 C4349 1.387 . S
C4348 H4352 0.950 . S
C4348 C4357 1.390 . S
C4349 C4348 1.387 . S
C4349 C4351 1.387 . S
H4350 C4357 0.950 . S
C4351 C4349 1.387 . S
C4351 C4353 1.390 . S
C4351 H4355 0.950 . S
H4352 C4348 0.950 . S
C4353 C4351 1.390 . S
C4353 C4354 1.387 . S
C4353 H4356 0.950 . S
C4354 C4353 1.387 . S
C4354 C4357 1.387 . S
H4355 C4351 0.950 . S
H4356 C4353 0.950 . S
C4357 C4348 1.390 . S
C4357 H4350 0.950 . S
C4357 C4354 1.387 . S
C4358 C4359 1.387 . S
C4358 H4362 0.950 . S
C4358 C4367 1.390 . S
C4359 C4358 1.387 . S
C4359 C4361 1.387 . S
H4360 C4367 0.950 . S
C4361 C4359 1.387 . S
C4361 C4363 1.390 . S
C4361 H4365 0.950 . S
H4362 C4358 0.950 . S
C4363 C4361 1.390 . S
C4363 C4364 1.387 . S
C4363 H4366 0.950 . S
C4364 C4363 1.387 . S
C4364 C4367 1.387 . S
H4365 C4361 0.950 . S
H4366 C4363 0.950 . S
C4367 C4358 1.390 . S
C4367 H4360 0.950 . S
C4367 C4364 1.387 . S
C4368 C4369 1.387 . S
C4368 H4372 0.950 . S
C4368 C4377 1.390 . S
C4369 C4368 1.387 . S
C4369 C4371 1.387 . S
H4370 C4377 0.950 . S
C4371 C4369 1.387 . S
C4371 C4373 1.390 . S
C4371 H4375 0.950 . S
H4372 C4368 0.950 . S
C4373 C4371 1.390 . S
C4373 C4374 1.387 . S
C4373 H4376 0.950 . S
C4374 C4373 1.387 . S
C4374 C4377 1.387 . S
H4375 C4371 0.950 . S
H4376 C4373 0.950 . S
C4377 C4368 1.390 . S
C4377 H4370 0.950 . S
C4377 C4374 1.387 . S
C4378 C4379 1.387 . S
C4378 H4382 0.950 . S
C4378 C4387 1.390 . S
C4379 C4378 1.387 . S
C4379 C4381 1.387 . S
H4380 C4387 0.950 . S
C4381 C4379 1.387 . S
C4381 C4383 1.390 . S
C4381 H4385 0.950 . S
H4382 C4378 0.950 . S
C4383 C4381 1.390 . S
C4383 C4384 1.387 . S
C4383 H4386 0.950 . S
C4384 C4383 1.387 . S
C4384 C4387 1.387 . S
H4385 C4381 0.950 . S
H4386 C4383 0.950 . S
C4387 C4378 1.390 . S
C4387 H4380 0.950 . S
C4387 C4384 1.387 . S
C4388 C4389 1.387 . S
C4388 H4392 0.950 . S
C4388 C4397 1.390 . S
C4389 C4388 1.387 . S
C4389 C4391 1.387 . S
H4390 C4397 0.950 . S
C4391 C4389 1.387 . S
C4391 C4393 1.390 . S
C4391 H4395 0.950 . S
H4392 C4388 0.950 . S
C4393 C4391 1.390 . S
C4393 C4394 1.387 . S
C4393 H4396 0.950 . S
C4394 C4393 1.387 . S
C4394 C4397 1.387 . S
H4395 C4391 0.950 . S
H4396 C4393 0.950 . S
C4397 C4388 1.390 . S
C4397 H4390 0.950 . S
C4397 C4394 1.387 . S
C4398 C4399 1.387 . S
C4398 H4402 0.950 . S
C4398 C4407 1.390 . S
C4399 C4398 1.387 . S
C4399 C4401 1.387 . S
H4400 C4407 0.950 . S
C4401 C4399 1.387 . S
C4401 C4403 1.390 . S
C4401 H4405 0.950 . S
H4402 C4398 0.950 . S
C4403 C4401 1.390 . S
C4403 C4404 1.387 . S
C4403 H4406 0.950 . S
C4404 C4403 1.387 . S
C4404 C4407 1.387 . S
H4405 C4401 0.950 . S
H4406 C4403 0.950 . S
C4407 C4398 1.390 . S
C4407 H4400 0.950 . S
C4407 C4404 1.387 . S
C4408 C4409 1.387 . S
C4408 H4412 0.950 . S
C4408 C4417 1.390 . S
C4409 C4408 1.387 . S
C4409 C4411 1.387 . S
H4410 C4417 0.950 . S
C4411 C4409 1.387 . S
C4411 C4413 1.390 . S
C4411 H4415 0.950 . S
H4412 C4408 0.950 . S
C4413 C4411 1.390 . S
C4413 C4414 1.387 . S
C4413 H4416 0.950 . S
C4414 C4413 1.387 . S
C4414 C4417 1.387 . S
H4415 C4411 0.950 . S
H4416 C4413 0.950 . S
C4417 C4408 1.390 . S
C4417 H4410 0.950 . S
C4417 C4414 1.387 . S
C4418 C4419 1.387 . S
C4418 H4422 0.950 . S
C4418 C4427 1.390 . S
C4419 C4418 1.387 . S
C4419 C4421 1.387 . S
H4420 C4427 0.950 . S
C4421 C4419 1.387 . S
C4421 C4423 1.390 . S
C4421 H4425 0.950 . S
H4422 C4418 0.950 . S
C4423 C4421 1.390 . S
C4423 C4424 1.387 . S
C4423 H4426 0.950 . S
C4424 C4423 1.387 . S
C4424 C4427 1.387 . S
H4425 C4421 0.950 . S
H4426 C4423 0.950 . S
C4427 C4418 1.390 . S
C4427 H4420 0.950 . S
C4427 C4424 1.387 . S
C4428 C4429 1.387 . S
C4428 H4432 0.950 . S
C4428 C4437 1.390 . S
C4429 C4428 1.387 . S
C4429 C4431 1.387 . S
H4430 C4437 0.950 . S
C4431 C4429 1.387 . S
C4431 C4433 1.390 . S
C4431 H4435 0.950 . S
H4432 C4428 0.950 . S
C4433 C4431 1.390 . S
C4433 C4434 1.387 . S
C4433 H4436 0.950 . S
C4434 C4433 1.387 . S
C4434 C4437 1.387 . S
H4435 C4431 0.950 . S
H4436 C4433 0.950 . S
C4437 C4428 1.390 . S
C4437 H4430 0.950 . S
C4437 C4434 1.387 . S
C4438 C4439 1.387 . S
C4438 H4442 0.950 . S
C4438 C4447 1.390 . S
C4439 C4438 1.387 . S
C4439 C4441 1.387 . S
H4440 C4447 0.950 . S
C4441 C4439 1.387 . S
C4441 C4443 1.390 . S
C4441 H4445 0.950 . S
H4442 C4438 0.950 . S
C4443 C4441 1.390 . S
C4443 C4444 1.387 . S
C4443 H4446 0.950 . S
C4444 C4443 1.387 . S
C4444 C4447 1.387 . S
H4445 C4441 0.950 . S
H4446 C4443 0.950 . S
C4447 C4438 1.390 . S
C4447 H4440 0.950 . S
C4447 C4444 1.387 . S
C4448 C4449 1.387 . S
C4448 H4452 0.950 . S
C4448 C4457 1.390 . S
C4449 C4448 1.387 . S
C4449 C4451 1.387 . S
H4450 C4457 0.950 . S
C4451 C4449 1.387 . S
C4451 C4453 1.390 . S
C4451 H4455 0.950 . S
H4452 C4448 0.950 . S
C4453 C4451 1.390 . S
C4453 C4454 1.387 . S
C4453 H4456 0.950 . S
C4454 C4453 1.387 . S
C4454 C4457 1.387 . S
H4455 C4451 0.950 . S
H4456 C4453 0.950 . S
C4457 C4448 1.390 . S
C4457 H4450 0.950 . S
C4457 C4454 1.387 . S
C4458 C4459 1.387 . S
C4458 H4462 0.950 . S
C4458 C4467 1.390 . S
C4459 C4458 1.387 . S
C4459 C4461 1.387 . S
H4460 C4467 0.950 . S
C4461 C4459 1.387 . S
C4461 C4463 1.390 . S
C4461 H4465 0.950 . S
H4462 C4458 0.950 . S
C4463 C4461 1.390 . S
C4463 C4464 1.387 . S
C4463 H4466 0.950 . S
C4464 C4463 1.387 . S
C4464 C4467 1.387 . S
H4465 C4461 0.950 . S
H4466 C4463 0.950 . S
C4467 C4458 1.390 . S
C4467 H4460 0.950 . S
C4467 C4464 1.387 . S
C4468 C4469 1.387 . S
C4468 H4472 0.950 . S
C4468 C4477 1.390 . S
C4469 C4468 1.387 . S
C4469 C4471 1.387 . S
H4470 C4477 0.950 . S
C4471 C4469 1.387 . S
C4471 C4473 1.390 . S
C4471 H4475 0.950 . S
H4472 C4468 0.950 . S
C4473 C4471 1.390 . S
C4473 C4474 1.387 . S
C4473 H4476 0.950 . S
C4474 C4473 1.387 . S
C4474 C4477 1.387 . S
H4475 C4471 0.950 . S
H4476 C4473 0.950 . S
C4477 C4468 1.390 . S
C4477 H4470 0.950 . S
C4477 C4474 1.387 . S
C4478 C4479 1.387 . S
C4478 H4482 0.950 . S
C4478 C4487 1.390 . S
C4479 C4478 1.387 . S
C4479 C4481 1.387 . S
H4480 C4487 0.950 . S
C4481 C4479 1.387 . S
C4481 C4483 1.390 . S
C4481 H4485 0.950 . S
H4482 C4478 0.950 . S
C4483 C4481 1.390 . S
C4483 C4484 1.387 . S
C4483 H4486 0.950 . S
C4484 C4483 1.387 . S
C4484 C4487 1.387 . S
H4485 C4481 0.950 . S
H4486 C4483 0.950 . S
C4487 C4478 1.390 . S
C4487 H4480 0.950 . S
C4487 C4484 1.387 . S
C4488 C4489 1.387 . S
C4488 H4492 0.950 . S
C4488 C4497 1.390 . S
C4489 C4488 1.387 . S
C4489 C4491 1.387 . S
H4490 C4497 0.950 . S
C4491 C4489 1.387 . S
C4491 C4493 1.390 . S
C4491 H4495 0.950 . S
H4492 C4488 0.950 . S
C4493 C4491 1.390 . S
C4493 C4494 1.387 . S
C4493 H4496 0.950 . S
C4494 C4493 1.387 . S
C4494 C4497 1.387 . S
H4495 C4491 0.950 . S
H4496 C4493 0.950 . S
C4497 C4488 1.390 . S
C4497 H4490 0.950 . S
C4497 C4494 1.387 . S
C4498 C4499 1.387 . S
C4498 H4502 0.950 . S
C4498 C4507 1.390 . S
C4499 C4498 1.387 . S
C4499 C4501 1.387 . S
H4500 C4507 0.950 . S
C4501 C4499 1.387 . S
C4501 C4503 1.390 . S
C4501 H4505 0.950 . S
H4502 C4498 0.950 . S
C4503 C4501 1.390 . S
C4503 C4504 1.387 . S
C4503 H4506 0.950 . S
C4504 C4503 1.387 . S
C4504 C4507 1.387 . S
H4505 C4501 0.950 . S
H4506 C4503 0.950 . S
C4507 C4498 1.390 . S
C4507 H4500 0.950 . S
C4507 C4504 1.387 . S
C4508 C4509 1.387 . S
C4508 H4512 0.950 . S
C4508 C4517 1.390 . S
C4509 C4508 1.387 . S
C4509 C4511 1.387 . S
H4510 C4517 0.950 . S
C4511 C4509 1.387 . S
C4511 C4513 1.390 . S
C4511 H4515 0.950 . S
H4512 C4508 0.950 . S
C4513 C4511 1.390 . S
C4513 C4514 1.387 . S
C4513 H4516 0.950 . S
C4514 C4513 1.387 . S
C4514 C4517 1.387 . S
H4515 C4511 0.950 . S
H4516 C4513 0.950 . S
C4517 C4508 1.390 . S
C4517 H4510 0.950 . S
C4517 C4514 1.387 . S
C4518 C4519 1.387 . S
C4518 H4522 0.950 . S
C4518 C4527 1.390 . S
C4519 C4518 1.387 . S
C4519 C4521 1.387 . S
H4520 C4527 0.950 . S
C4521 C4519 1.387 . S
C4521 C4523 1.390 . S
C4521 H4525 0.950 . S
H4522 C4518 0.950 . S
C4523 C4521 1.390 . S
C4523 C4524 1.387 . S
C4523 H4526 0.950 . S
C4524 C4523 1.387 . S
C4524 C4527 1.387 . S
H4525 C4521 0.950 . S
H4526 C4523 0.950 . S
C4527 C4518 1.390 . S
C4527 H4520 0.950 . S
C4527 C4524 1.387 . S
C4528 C4529 1.387 . S
C4528 H4532 0.950 . S
C4528 C4537 1.390 . S
C4529 C4528 1.387 . S
C4529 C4531 1.387 . S
H4530 C4537 0.950 . S
C4531 C4529 1.387 . S
C4531 C4533 1.390 . S
C4531 H4535 0.950 . S
H4532 C4528 0.950 . S
C4533 C4531 1.390 . S
C4533 C4534 1.387 . S
C4533 H4536 0.950 . S
C4534 C4533 1.387 . S
C4534 C4537 1.387 . S
H4535 C4531 0.950 . S
H4536 C4533 0.950 . S
C4537 C4528 1.390 . S
C4537 H4530 0.950 . S
C4537 C4534 1.387 . S
C4538 C4539 1.387 . S
C4538 H4542 0.950 . S
C4538 C4547 1.390 . S
C4539 C4538 1.387 . S
C4539 C4541 1.387 . S
H4540 C4547 0.950 . S
C4541 C4539 1.387 . S
C4541 C4543 1.390 . S
C4541 H4545 0.950 . S
H4542 C4538 0.950 . S
C4543 C4541 1.390 . S
C4543 C4544 1.387 . S
C4543 H4546 0.950 . S
C4544 C4543 1.387 . S
C4544 C4547 1.387 . S
H4545 C4541 0.950 . S
H4546 C4543 0.950 . S
C4547 C4538 1.390 . S
C4547 H4540 0.950 . S
C4547 C4544 1.387 . S
C4548 C4549 1.387 . S
C4548 H4552 0.950 . S
C4548 C4557 1.390 . S
C4549 C4548 1.387 . S
C4549 C4551 1.387 . S
H4550 C4557 0.950 . S
C4551 C4549 1.387 . S
C4551 C4553 1.390 . S
C4551 H4555 0.950 . S
H4552 C4548 0.950 . S
C4553 C4551 1.390 . S
C4553 C4554 1.387 . S
C4553 H4556 0.950 . S
C4554 C4553 1.387 . S
C4554 C4557 1.387 . S
H4555 C4551 0.950 . S
H4556 C4553 0.950 . S
C4557 C4548 1.390 . S
C4557 H4550 0.950 . S
C4557 C4554 1.387 . S
C4558 C4559 1.387 . S
C4558 H4562 0.950 . S
C4558 C4567 1.390 . S
C4559 C4558 1.387 . S
C4559 C4561 1.387 . S
H4560 C4567 0.950 . S
C4561 C4559 1.387 . S
C4561 C4563 1.390 . S
C4561 H4565 0.950 . S
H4562 C4558 0.950 . S
C4563 C4561 1.390 . S
C4563 C4564 1.387 . S
C4563 H4566 0.950 . S
C4564 C4563 1.387 . S
C4564 C4567 1.387 . S
H4565 C4561 0.950 . S
H4566 C4563 0.950 . S
C4567 C4558 1.390 . S
C4567 H4560 0.950 . S
C4567 C4564 1.387 . S
C4568 C4569 1.387 . S
C4568 H4572 0.950 . S
C4568 C4577 1.390 . S
C4569 C4568 1.387 . S
C4569 C4571 1.387 . S
H4570 C4577 0.950 . S
C4571 C4569 1.387 . S
C4571 C4573 1.390 . S
C4571 H4575 0.950 . S
H4572 C4568 0.950 . S
C4573 C4571 1.390 . S
C4573 C4574 1.387 . S
C4573 H4576 0.950 . S
C4574 C4573 1.387 . S
C4574 C4577 1.387 . S
H4575 C4571 0.950 . S
H4576 C4573 0.950 . S
C4577 C4568 1.390 . S
C4577 H4570 0.950 . S
C4577 C4574 1.387 . S
C4578 C4579 1.387 . S
C4578 H4582 0.950 . S
C4578 C4587 1.390 . S
C4579 C4578 1.387 . S
C4579 C4581 1.387 . S
H4580 C4587 0.950 . S
C4581 C4579 1.387 . S
C4581 C4583 1.390 . S
C4581 H4585 0.950 . S
H4582 C4578 0.950 . S
C4583 C4581 1.390 . S
C4583 C4584 1.387 . S
C4583 H4586 0.950 . S
C4584 C4583 1.387 . S
C4584 C4587 1.387 . S
H4585 C4581 0.950 . S
H4586 C4583 0.950 . S
C4587 C4578 1.390 . S
C4587 H4580 0.950 . S
C4587 C4584 1.387 . S
C4588 C4589 1.387 . S
C4588 H4592 0.950 . S
C4588 C4597 1.390 . S
C4589 C4588 1.387 . S
C4589 C4591 1.387 . S
H4590 C4597 0.950 . S
C4591 C4589 1.387 . S
C4591 C4593 1.390 . S
C4591 H4595 0.950 . S
H4592 C4588 0.950 . S
C4593 C4591 1.390 . S
C4593 C4594 1.387 . S
C4593 H4596 0.950 . S
C4594 C4593 1.387 . S
C4594 C4597 1.387 . S
H4595 C4591 0.950 . S
H4596 C4593 0.950 . S
C4597 C4588 1.390 . S
C4597 H4590 0.950 . S
C4597 C4594 1.387 . S
C4598 C4599 1.387 . S
C4598 H4602 0.950 . S
C4598 C4607 1.390 . S
C4599 C4598 1.387 . S
C4599 C4601 1.387 . S
H4600 C4607 0.950 . S
C4601 C4599 1.387 . S
C4601 C4603 1.390 . S
C4601 H4605 0.950 . S
H4602 C4598 0.950 . S
C4603 C4601 1.390 . S
C4603 C4604 1.387 . S
C4603 H4606 0.950 . S
C4604 C4603 1.387 . S
C4604 C4607 1.387 . S
H4605 C4601 0.950 . S
H4606 C4603 0.950 . S
C4607 C4598 1.390 . S
C4607 H4600 0.950 . S
C4607 C4604 1.387 . S
C4608 C4609 1.387 . S
C4608 H4612 0.950 . S
C4608 C4617 1.390 . S
C4609 C4608 1.387 . S
C4609 C4611 1.387 . S
H4610 C4617 0.950 1_455 S
C4611 C4609 1.387 . S
C4611 C4613 1.390 . S
C4611 H4615 0.950 . S
H4612 C4608 0.950 . S
C4613 C4611 1.390 . S
C4613 C4614 1.387 1_655 S
C4613 H4616 0.950 1_655 S
C4614 C4613 1.387 1_455 S
C4614 C4617 1.387 1_455 S
H4615 C4611 0.950 . S
H4616 C4613 0.950 1_455 S
C4617 C4608 1.390 . S
C4617 H4610 0.950 1_655 S
C4617 C4614 1.387 1_655 S
C4618 C4619 1.387 . S
C4618 H4622 0.950 . S
C4618 C4627 1.390 . S
C4619 C4618 1.387 . S
C4619 C4621 1.387 . S
H4620 C4627 0.950 . S
C4621 C4619 1.387 . S
C4621 C4623 1.390 . S
C4621 H4625 0.950 . S
H4622 C4618 0.950 . S
C4623 C4621 1.390 . S
C4623 C4624 1.387 . S
C4623 H4626 0.950 . S
C4624 C4623 1.387 . S
C4624 C4627 1.387 . S
H4625 C4621 0.950 . S
H4626 C4623 0.950 . S
C4627 C4618 1.390 . S
C4627 H4620 0.950 . S
C4627 C4624 1.387 . S
C4628 C4629 1.387 . S
C4628 H4632 0.950 . S
C4628 C4637 1.390 . S
C4629 C4628 1.387 . S
C4629 C4631 1.387 . S
H4630 C4637 0.950 1_554 S
C4631 C4629 1.387 . S
C4631 C4633 1.390 . S
C4631 H4635 0.950 . S
H4632 C4628 0.950 . S
C4633 C4631 1.390 . S
C4633 C4634 1.387 1_556 S
C4633 H4636 0.950 1_556 S
C4634 C4633 1.387 1_554 S
C4634 C4637 1.387 1_554 S
H4635 C4631 0.950 . S
H4636 C4633 0.950 1_554 S
C4637 C4628 1.390 . S
C4637 H4630 0.950 1_556 S
C4637 C4634 1.387 1_556 S
C4638 C4639 1.387 . S
C4638 H4642 0.950 . S
C4638 C4647 1.390 . S
C4639 C4638 1.387 . S
C4639 C4641 1.387 . S
H4640 C4647 0.950 1_565 S
C4641 C4639 1.387 . S
C4641 C4643 1.390 . S
C4641 H4645 0.950 . S
H4642 C4638 0.950 . S
C4643 C4641 1.390 . S
C4643 C4644 1.387 1_545 S
C4643 H4646 0.950 1_545 S
C4644 C4643 1.387 1_565 S
C4644 C4647 1.387 1_565 S
H4645 C4641 0.950 . S
H4646 C4643 0.950 1_565 S
C4647 C4638 1.390 . S
C4647 H4640 0.950 1_545 S
C4647 C4644 1.387 1_545 S
C4648 C4649 1.387 1_655 S
C4648 H4652 0.950 1_655 S
C4648 C4657 1.390 . S
C4649 C4648 1.387 1_455 S
C4649 C4651 1.387 1_455 S
H4650 C4657 0.950 . S
C4651 C4649 1.387 1_655 S
C4651 C4653 1.390 . S
C4651 H4655 0.950 1_655 S
H4652 C4648 0.950 1_455 S
C4653 C4651 1.390 . S
C4653 C4654 1.387 . S
C4653 H4656 0.950 . S
C4654 C4653 1.387 . S
C4654 C4657 1.387 . S
H4655 C4651 0.950 1_455 S
H4656 C4653 0.950 . S
C4657 C4648 1.390 . S
C4657 H4650 0.950 . S
C4657 C4654 1.387 . S
C4658 C4659 1.387 1_554 S
C4658 H4662 0.950 1_554 S
C4658 C4667 1.390 . S
C4659 C4658 1.387 1_556 S
C4659 C4661 1.387 1_556 S
H4660 C4667 0.950 . S
C4661 C4659 1.387 1_554 S
C4661 C4663 1.390 . S
C4661 H4665 0.950 1_554 S
H4662 C4658 0.950 1_556 S
C4663 C4661 1.390 . S
C4663 C4664 1.387 . S
C4663 H4666 0.950 . S
C4664 C4663 1.387 . S
C4664 C4667 1.387 . S
H4665 C4661 0.950 1_556 S
H4666 C4663 0.950 . S
C4667 C4658 1.390 . S
C4667 H4660 0.950 . S
C4667 C4664 1.387 . S
C4668 C4669 1.387 . S
C4668 H4672 0.950 . S
C4668 C4677 1.390 . S
C4669 C4668 1.387 . S
C4669 C4671 1.387 . S
H4670 C4677 0.950 . S
C4671 C4669 1.387 . S
C4671 C4673 1.390 . S
C4671 H4675 0.950 . S
H4672 C4668 0.950 . S
C4673 C4671 1.390 . S
C4673 C4674 1.387 . S
C4673 H4676 0.950 . S
C4674 C4673 1.387 . S
C4674 C4677 1.387 . S
H4675 C4671 0.950 . S
H4676 C4673 0.950 . S
C4677 C4668 1.390 . S
C4677 H4670 0.950 . S
C4677 C4674 1.387 . S
C4678 C4679 1.387 1_545 S
C4678 H4682 0.950 1_545 S
C4678 C4687 1.390 . S
C4679 C4678 1.387 1_565 S
C4679 C4681 1.387 1_565 S
H4680 C4687 0.950 . S
C4681 C4679 1.387 1_545 S
C4681 C4683 1.390 . S
C4681 H4685 0.950 1_545 S
H4682 C4678 0.950 1_565 S
C4683 C4681 1.390 . S
C4683 C4684 1.387 . S
C4683 H4686 0.950 . S
C4684 C4683 1.387 . S
C4684 C4687 1.387 . S
H4685 C4681 0.950 1_565 S
H4686 C4683 0.950 . S
C4687 C4678 1.390 . S
C4687 H4680 0.950 . S
C4687 C4684 1.387 . S
C4688 C4689 1.387 1_565 S
C4688 H4692 0.950 1_565 S
C4688 C4697 1.390 . S
C4689 C4688 1.387 1_545 S
C4689 C4691 1.387 1_545 S
H4690 C4697 0.950 . S
C4691 C4689 1.387 1_565 S
C4691 C4693 1.390 . S
C4691 H4695 0.950 1_565 S
H4692 C4688 0.950 1_545 S
C4693 C4691 1.390 . S
C4693 C4694 1.387 . S
C4693 H4696 0.950 . S
C4694 C4693 1.387 . S
C4694 C4697 1.387 . S
H4695 C4691 0.950 1_545 S
H4696 C4693 0.950 . S
C4697 C4688 1.390 . S
C4697 H4690 0.950 . S
C4697 C4694 1.387 . S
C4698 C4699 1.387 . S
C4698 H4702 0.950 . S
C4698 C4707 1.390 . S
C4699 C4698 1.387 . S
C4699 C4701 1.387 . S
H4700 C4707 0.950 1_655 S
C4701 C4699 1.387 . S
C4701 C4703 1.390 . S
C4701 H4705 0.950 . S
H4702 C4698 0.950 . S
C4703 C4701 1.390 . S
C4703 C4704 1.387 1_455 S
C4703 H4706 0.950 1_455 S
C4704 C4703 1.387 1_655 S
C4704 C4707 1.387 1_655 S
H4705 C4701 0.950 . S
H4706 C4703 0.950 1_655 S
C4707 C4698 1.390 . S
C4707 H4700 0.950 1_455 S
C4707 C4704 1.387 1_455 S
C4708 C4709 1.387 . S
C4708 H4712 0.950 . S
C4708 C4717 1.390 . S
C4709 C4708 1.387 . S
C4709 C4711 1.387 . S
H4710 C4717 0.950 . S
C4711 C4709 1.387 . S
C4711 C4713 1.390 . S
C4711 H4715 0.950 . S
H4712 C4708 0.950 . S
C4713 C4711 1.390 . S
C4713 C4714 1.387 . S
C4713 H4716 0.950 . S
C4714 C4713 1.387 . S
C4714 C4717 1.387 . S
H4715 C4711 0.950 . S
H4716 C4713 0.950 . S
C4717 C4708 1.390 . S
C4717 H4710 0.950 . S
C4717 C4714 1.387 . S
C4718 C4719 1.387 . S
C4718 H4722 0.950 . S
C4718 C4727 1.390 . S
C4719 C4718 1.387 . S
C4719 C4721 1.387 . S
H4720 C4727 0.950 . S
C4721 C4719 1.387 . S
C4721 C4723 1.390 . S
C4721 H4725 0.950 . S
H4722 C4718 0.950 . S
C4723 C4721 1.390 . S
C4723 C4724 1.387 . S
C4723 H4726 0.950 . S
C4724 C4723 1.387 . S
C4724 C4727 1.387 . S
H4725 C4721 0.950 . S
H4726 C4723 0.950 . S
C4727 C4718 1.390 . S
C4727 H4720 0.950 . S
C4727 C4724 1.387 . S
C4728 C4729 1.387 . S
C4728 H4732 0.950 . S
C4728 C4737 1.390 . S
C4729 C4728 1.387 . S
C4729 C4731 1.387 . S
H4730 C4737 0.950 . S
C4731 C4729 1.387 . S
C4731 C4733 1.390 . S
C4731 H4735 0.950 . S
H4732 C4728 0.950 . S
C4733 C4731 1.390 . S
C4733 C4734 1.387 . S
C4733 H4736 0.950 . S
C4734 C4733 1.387 . S
C4734 C4737 1.387 . S
H4735 C4731 0.950 . S
H4736 C4733 0.950 . S
C4737 C4728 1.390 . S
C4737 H4730 0.950 . S
C4737 C4734 1.387 . S
C4738 C4739 1.387 . S
C4738 H4742 0.950 . S
C4738 C4747 1.390 . S
C4739 C4738 1.387 . S
C4739 C4741 1.387 . S
H4740 C4747 0.950 . S
C4741 C4739 1.387 . S
C4741 C4743 1.390 . S
C4741 H4745 0.950 . S
H4742 C4738 0.950 . S
C4743 C4741 1.390 . S
C4743 C4744 1.387 . S
C4743 H4746 0.950 . S
C4744 C4743 1.387 . S
C4744 C4747 1.387 . S
H4745 C4741 0.950 . S
H4746 C4743 0.950 . S
C4747 C4738 1.390 . S
C4747 H4740 0.950 . S
C4747 C4744 1.387 . S
C4748 C4749 1.387 . S
C4748 H4752 0.950 . S
C4748 C4757 1.390 . S
C4749 C4748 1.387 . S
C4749 C4751 1.387 . S
H4750 C4757 0.950 1_545 S
C4751 C4749 1.387 . S
C4751 C4753 1.390 . S
C4751 H4755 0.950 . S
H4752 C4748 0.950 . S
C4753 C4751 1.390 . S
C4753 C4754 1.387 1_565 S
C4753 H4756 0.950 1_565 S
C4754 C4753 1.387 1_545 S
C4754 C4757 1.387 1_545 S
H4755 C4751 0.950 . S
H4756 C4753 0.950 1_545 S
C4757 C4748 1.390 . S
C4757 H4750 0.950 1_565 S
C4757 C4754 1.387 1_565 S
C4758 C4759 1.387 1_455 S
C4758 H4762 0.950 1_455 S
C4758 C4767 1.390 . S
C4759 C4758 1.387 1_655 S
C4759 C4761 1.387 1_655 S
H4760 C4767 0.950 . S
C4761 C4759 1.387 1_455 S
C4761 C4763 1.390 . S
C4761 H4765 0.950 1_455 S
H4762 C4758 0.950 1_655 S
C4763 C4761 1.390 . S
C4763 C4764 1.387 . S
C4763 H4766 0.950 . S
C4764 C4763 1.387 . S
C4764 C4767 1.387 . S
H4765 C4761 0.950 1_655 S
H4766 C4763 0.950 . S
C4767 C4758 1.390 . S
C4767 H4760 0.950 . S
C4767 C4764 1.387 . S
C4768 C4769 1.387 1_556 S
C4768 H4772 0.950 1_556 S
C4768 C4777 1.390 . S
C4769 C4768 1.387 1_554 S
C4769 C4771 1.387 1_554 S
H4770 C4777 0.950 . S
C4771 C4769 1.387 1_556 S
C4771 C4773 1.390 . S
C4771 H4775 0.950 1_556 S
H4772 C4768 0.950 1_554 S
C4773 C4771 1.390 . S
C4773 C4774 1.387 . S
C4773 H4776 0.950 . S
C4774 C4773 1.387 . S
C4774 C4777 1.387 . S
H4775 C4771 0.950 1_554 S
H4776 C4773 0.950 . S
C4777 C4768 1.390 . S
C4777 H4770 0.950 . S
C4777 C4774 1.387 . S
C4778 C4779 1.387 . S
C4778 H4782 0.950 . S
C4778 C4787 1.390 . S
C4779 C4778 1.387 . S
C4779 C4781 1.387 . S
H4780 C4787 0.950 . S
C4781 C4779 1.387 . S
C4781 C4783 1.390 . S
C4781 H4785 0.950 . S
H4782 C4778 0.950 . S
C4783 C4781 1.390 . S
C4783 C4784 1.387 . S
C4783 H4786 0.950 . S
C4784 C4783 1.387 . S
C4784 C4787 1.387 . S
H4785 C4781 0.950 . S
H4786 C4783 0.950 . S
C4787 C4778 1.390 . S
C4787 H4780 0.950 . S
C4787 C4784 1.387 . S
C4788 C4789 1.387 . S
C4788 H4792 0.950 . S
C4788 C4797 1.390 . S
C4789 C4788 1.387 . S
C4789 C4791 1.387 . S
H4790 C4797 0.950 . S
C4791 C4789 1.387 . S
C4791 C4793 1.390 . S
C4791 H4795 0.950 . S
H4792 C4788 0.950 . S
C4793 C4791 1.390 . S
C4793 C4794 1.387 . S
C4793 H4796 0.950 . S
C4794 C4793 1.387 . S
C4794 C4797 1.387 . S
H4795 C4791 0.950 . S
H4796 C4793 0.950 . S
C4797 C4788 1.390 . S
C4797 H4790 0.950 . S
C4797 C4794 1.387 . S
C4798 C4799 1.387 1_565 S
C4798 H4802 0.950 1_565 S
C4798 C4807 1.390 . S
C4799 C4798 1.387 1_545 S
C4799 C4801 1.387 1_545 S
H4800 C4807 0.950 . S
C4801 C4799 1.387 1_565 S
C4801 C4803 1.390 . S
C4801 H4805 0.950 1_565 S
H4802 C4798 0.950 1_545 S
C4803 C4801 1.390 . S
C4803 C4804 1.387 . S
C4803 H4806 0.950 . S
C4804 C4803 1.387 . S
C4804 C4807 1.387 . S
H4805 C4801 0.950 1_545 S
H4806 C4803 0.950 . S
C4807 C4798 1.390 . S
C4807 H4800 0.950 . S
C4807 C4804 1.387 . S
C4808 C4809 1.387 . S
C4808 H4812 0.950 . S
C4808 C4817 1.390 . S
C4809 C4808 1.387 . S
C4809 C4811 1.387 . S
H4810 C4817 0.950 . S
C4811 C4809 1.387 . S
C4811 C4813 1.390 . S
C4811 H4815 0.950 . S
H4812 C4808 0.950 . S
C4813 C4811 1.390 . S
C4813 C4814 1.387 . S
C4813 H4816 0.950 . S
C4814 C4813 1.387 . S
C4814 C4817 1.387 . S
H4815 C4811 0.950 . S
H4816 C4813 0.950 . S
C4817 C4808 1.390 . S
C4817 H4810 0.950 . S
C4817 C4814 1.387 . S
C4818 C4819 1.387 1_556 S
C4818 H4822 0.950 1_556 S
C4818 C4827 1.390 . S
C4819 C4818 1.387 1_554 S
C4819 C4821 1.387 1_554 S
H4820 C4827 0.950 . S
C4821 C4819 1.387 1_556 S
C4821 C4823 1.390 . S
C4821 H4825 0.950 1_556 S
H4822 C4818 0.950 1_554 S
C4823 C4821 1.390 . S
C4823 C4824 1.387 . S
C4823 H4826 0.950 . S
C4824 C4823 1.387 . S
C4824 C4827 1.387 . S
H4825 C4821 0.950 1_554 S
H4826 C4823 0.950 . S
C4827 C4818 1.390 . S
C4827 H4820 0.950 . S
C4827 C4824 1.387 . S
C4828 C4829 1.387 . S
C4828 H4832 0.950 . S
C4828 C4837 1.390 . S
C4829 C4828 1.387 . S
C4829 C4831 1.387 . S
H4830 C4837 0.950 . S
C4831 C4829 1.387 . S
C4831 C4833 1.390 . S
C4831 H4835 0.950 . S
H4832 C4828 0.950 . S
C4833 C4831 1.390 . S
C4833 C4834 1.387 . S
C4833 H4836 0.950 . S
C4834 C4833 1.387 . S
C4834 C4837 1.387 . S
H4835 C4831 0.950 . S
H4836 C4833 0.950 . S
C4837 C4828 1.390 . S
C4837 H4830 0.950 . S
C4837 C4834 1.387 . S
C4838 C4839 1.387 1_455 S
C4838 H4842 0.950 1_455 S
C4838 C4847 1.390 . S
C4839 C4838 1.387 1_655 S
C4839 C4841 1.387 1_655 S
H4840 C4847 0.950 . S
C4841 C4839 1.387 1_455 S
C4841 C4843 1.390 . S
C4841 H4845 0.950 1_455 S
H4842 C4838 0.950 1_655 S
C4843 C4841 1.390 . S
C4843 C4844 1.387 . S
C4843 H4846 0.950 . S
C4844 C4843 1.387 . S
C4844 C4847 1.387 . S
H4845 C4841 0.950 1_655 S
H4846 C4843 0.950 . S
C4847 C4838 1.390 . S
C4847 H4840 0.950 . S
C4847 C4844 1.387 . S
C4848 C4849 1.387 1_455 S
C4848 H4852 0.950 1_455 S
C4848 C4857 1.390 . S
C4849 C4848 1.387 1_655 S
C4849 C4851 1.387 1_655 S
H4850 C4857 0.950 . S
C4851 C4849 1.387 1_455 S
C4851 C4853 1.390 . S
C4851 H4855 0.950 1_455 S
H4852 C4848 0.950 1_655 S
C4853 C4851 1.390 . S
C4853 C4854 1.387 . S
C4853 H4856 0.950 . S
C4854 C4853 1.387 . S
C4854 C4857 1.387 . S
H4855 C4851 0.950 1_655 S
H4856 C4853 0.950 . S
C4857 C4848 1.390 . S
C4857 H4850 0.950 . S
C4857 C4854 1.387 . S
C4858 C4859 1.387 . S
C4858 H4862 0.950 . S
C4858 C4867 1.390 . S
C4859 C4858 1.387 . S
C4859 C4861 1.387 . S
H4860 C4867 0.950 . S
C4861 C4859 1.387 . S
C4861 C4863 1.390 . S
C4861 H4865 0.950 . S
H4862 C4858 0.950 . S
C4863 C4861 1.390 . S
C4863 C4864 1.387 . S
C4863 H4866 0.950 . S
C4864 C4863 1.387 . S
C4864 C4867 1.387 . S
H4865 C4861 0.950 . S
H4866 C4863 0.950 . S
C4867 C4858 1.390 . S
C4867 H4860 0.950 . S
C4867 C4864 1.387 . S
C4868 C4869 1.387 . S
C4868 H4872 0.950 . S
C4868 C4877 1.390 . S
C4869 C4868 1.387 . S
C4869 C4871 1.387 . S
H4870 C4877 0.950 1_556 S
C4871 C4869 1.387 . S
C4871 C4873 1.390 . S
C4871 H4875 0.950 . S
H4872 C4868 0.950 . S
C4873 C4871 1.390 . S
C4873 C4874 1.387 1_554 S
C4873 H4876 0.950 1_554 S
C4874 C4873 1.387 1_556 S
C4874 C4877 1.387 1_556 S
H4875 C4871 0.950 . S
H4876 C4873 0.950 1_556 S
C4877 C4868 1.390 . S
C4877 H4870 0.950 1_554 S
C4877 C4874 1.387 1_554 S
C4878 C4879 1.387 1_455 S
C4878 H4882 0.950 1_455 S
C4878 C4887 1.390 . S
C4879 C4878 1.387 1_655 S
C4879 C4881 1.387 1_655 S
H4880 C4887 0.950 . S
C4881 C4879 1.387 1_455 S
C4881 C4883 1.390 . S
C4881 H4885 0.950 1_455 S
H4882 C4878 0.950 1_655 S
C4883 C4881 1.390 . S
C4883 C4884 1.387 . S
C4883 H4886 0.950 . S
C4884 C4883 1.387 . S
C4884 C4887 1.387 . S
H4885 C4881 0.950 1_655 S
H4886 C4883 0.950 . S
C4887 C4878 1.390 . S
C4887 H4880 0.950 . S
C4887 C4884 1.387 . S
C4888 C4889 1.387 . S
C4888 H4892 0.950 . S
C4888 C4897 1.390 . S
C4889 C4888 1.387 . S
C4889 C4891 1.387 . S
H4890 C4897 0.950 . S
C4891 C4889 1.387 . S
C4891 C4893 1.390 . S
C4891 H4895 0.950 . S
H4892 C4888 0.950 . S
C4893 C4891 1.390 . S
C4893 C4894 1.387 . S
C4893 H4896 0.950 . S
C4894 C4893 1.387 . S
C4894 C4897 1.387 . S
H4895 C4891 0.950 . S
H4896 C4893 0.950 . S
C4897 C4888 1.390 . S
C4897 H4890 0.950 . S
C4897 C4894 1.387 . S
C4898 C4899 1.387 1_565 S
C4898 H4902 0.950 1_565 S
C4898 C4907 1.390 . S
C4899 C4898 1.387 1_545 S
C4899 C4901 1.387 1_545 S
H4900 C4907 0.950 . S
C4901 C4899 1.387 1_565 S
C4901 C4903 1.390 . S
C4901 H4905 0.950 1_565 S
H4902 C4898 0.950 1_545 S
C4903 C4901 1.390 . S
C4903 C4904 1.387 . S
C4903 H4906 0.950 . S
C4904 C4903 1.387 . S
C4904 C4907 1.387 . S
H4905 C4901 0.950 1_545 S
H4906 C4903 0.950 . S
C4907 C4898 1.390 . S
C4907 H4900 0.950 . S
C4907 C4904 1.387 . S
C4908 C4909 1.387 . S
C4908 H4912 0.950 . S
C4908 C4917 1.390 . S
C4909 C4908 1.387 . S
C4909 C4911 1.387 . S
H4910 C4917 0.950 1_565 S
C4911 C4909 1.387 . S
C4911 C4913 1.390 . S
C4911 H4915 0.950 . S
H4912 C4908 0.950 . S
C4913 C4911 1.390 . S
C4913 C4914 1.387 1_545 S
C4913 H4916 0.950 1_545 S
C4914 C4913 1.387 1_565 S
C4914 C4917 1.387 1_565 S
H4915 C4911 0.950 . S
H4916 C4913 0.950 1_565 S
C4917 C4908 1.390 . S
C4917 H4910 0.950 1_545 S
C4917 C4914 1.387 1_545 S
C4918 C4919 1.387 . S
C4918 H4922 0.950 . S
C4918 C4927 1.390 . S
C4919 C4918 1.387 . S
C4919 C4921 1.387 . S
H4920 C4927 0.950 1_455 S
C4921 C4919 1.387 . S
C4921 C4923 1.390 . S
C4921 H4925 0.950 . S
H4922 C4918 0.950 . S
C4923 C4921 1.390 . S
C4923 C4924 1.387 1_655 S
C4923 H4926 0.950 1_655 S
C4924 C4923 1.387 1_455 S
C4924 C4927 1.387 1_455 S
H4925 C4921 0.950 . S
H4926 C4923 0.950 1_455 S
C4927 C4918 1.390 . S
C4927 H4920 0.950 1_655 S
C4927 C4924 1.387 1_655 S
C4928 C4929 1.387 . S
C4928 H4932 0.950 . S
C4928 C4937 1.390 . S
C4929 C4928 1.387 . S
C4929 C4931 1.387 . S
H4930 C4937 0.950 . S
C4931 C4929 1.387 . S
C4931 C4933 1.390 . S
C4931 H4935 0.950 . S
H4932 C4928 0.950 . S
C4933 C4931 1.390 . S
C4933 C4934 1.387 . S
C4933 H4936 0.950 . S
C4934 C4933 1.387 . S
C4934 C4937 1.387 . S
H4935 C4931 0.950 . S
H4936 C4933 0.950 . S
C4937 C4928 1.390 . S
C4937 H4930 0.950 . S
C4937 C4934 1.387 . S
C4938 C4939 1.387 . S
C4938 H4942 0.950 . S
C4938 C4947 1.390 . S
C4939 C4938 1.387 . S
C4939 C4941 1.387 . S
H4940 C4947 0.950 . S
C4941 C4939 1.387 . S
C4941 C4943 1.390 . S
C4941 H4945 0.950 . S
H4942 C4938 0.950 . S
C4943 C4941 1.390 . S
C4943 C4944 1.387 . S
C4943 H4946 0.950 . S
C4944 C4943 1.387 . S
C4944 C4947 1.387 . S
H4945 C4941 0.950 . S
H4946 C4943 0.950 . S
C4947 C4938 1.390 . S
C4947 H4940 0.950 . S
C4947 C4944 1.387 . S
C4948 C4949 1.387 1_545 S
C4948 H4952 0.950 1_545 S
C4948 C4957 1.390 . S
C4949 C4948 1.387 1_565 S
C4949 C4951 1.387 1_565 S
H4950 C4957 0.950 . S
C4951 C4949 1.387 1_545 S
C4951 C4953 1.390 . S
C4951 H4955 0.950 1_545 S
H4952 C4948 0.950 1_565 S
C4953 C4951 1.390 . S
C4953 C4954 1.387 . S
C4953 H4956 0.950 . S
C4954 C4953 1.387 . S
C4954 C4957 1.387 . S
H4955 C4951 0.950 1_565 S
H4956 C4953 0.950 . S
C4957 C4948 1.390 . S
C4957 H4950 0.950 . S
C4957 C4954 1.387 . S
C4958 C4959 1.387 . S
C4958 H4962 0.950 . S
C4958 C4967 1.390 . S
C4959 C4958 1.387 . S
C4959 C4961 1.387 . S
H4960 C4967 0.950 1_455 S
C4961 C4959 1.387 . S
C4961 C4963 1.390 . S
C4961 H4965 0.950 . S
H4962 C4958 0.950 . S
C4963 C4961 1.390 . S
C4963 C4964 1.387 1_655 S
C4963 H4966 0.950 1_655 S
C4964 C4963 1.387 1_455 S
C4964 C4967 1.387 1_455 S
H4965 C4961 0.950 . S
H4966 C4963 0.950 1_455 S
C4967 C4958 1.390 . S
C4967 H4960 0.950 1_655 S
C4967 C4964 1.387 1_655 S
C4968 C4969 1.387 . S
C4968 H4972 0.950 . S
C4968 C4977 1.390 . S
C4969 C4968 1.387 . S
C4969 C4971 1.387 . S
H4970 C4977 0.950 1_556 S
C4971 C4969 1.387 . S
C4971 C4973 1.390 . S
C4971 H4975 0.950 . S
H4972 C4968 0.950 . S
C4973 C4971 1.390 . S
C4973 C4974 1.387 1_554 S
C4973 H4976 0.950 1_554 S
C4974 C4973 1.387 1_556 S
C4974 C4977 1.387 1_556 S
H4975 C4971 0.950 . S
H4976 C4973 0.950 1_556 S
C4977 C4968 1.390 . S
C4977 H4970 0.950 1_554 S
C4977 C4974 1.387 1_554 S
C4978 C4979 1.387 . S
C4978 H4982 0.950 . S
C4978 C4987 1.390 . S
C4979 C4978 1.387 . S
C4979 C4981 1.387 . S
H4980 C4987 0.950 . S
C4981 C4979 1.387 . S
C4981 C4983 1.390 . S
C4981 H4985 0.950 . S
H4982 C4978 0.950 . S
C4983 C4981 1.390 . S
C4983 C4984 1.387 . S
C4983 H4986 0.950 . S
C4984 C4983 1.387 . S
C4984 C4987 1.387 . S
H4985 C4981 0.950 . S
H4986 C4983 0.950 . S
C4987 C4978 1.390 . S
C4987 H4980 0.950 . S
C4987 C4984 1.387 . S
C4988 C4989 1.387 . S
C4988 H4992 0.950 . S
C4988 C4997 1.390 . S
C4989 C4988 1.387 . S
C4989 C4991 1.387 . S
H4990 C4997 0.950 . S
C4991 C4989 1.387 . S
C4991 C4993 1.390 . S
C4991 H4995 0.950 . S
H4992 C4988 0.950 . S
C4993 C4991 1.390 . S
C4993 C4994 1.387 . S
C4993 H4996 0.950 . S
C4994 C4993 1.387 . S
C4994 C4997 1.387 . S
H4995 C4991 0.950 . S
H4996 C4993 0.950 . S
C4997 C4988 1.390 . S
C4997 H4990 0.950 . S
C4997 C4994 1.387 . S
C4998 C4999 1.387 . S
C4998 H5002 0.950 . S
C4998 C5007 1.390 . S
C4999 C4998 1.387 . S
C4999 C5001 1.387 . S
H5000 C5007 0.950 . S
C5001 C4999 1.387 . S
C5001 C5003 1.390 . S
C5001 H5005 0.950 . S
H5002 C4998 0.950 . S
C5003 C5001 1.390 . S
C5003 C5004 1.387 . S
C5003 H5006 0.950 . S
C5004 C5003 1.387 . S
C5004 C5007 1.387 . S
H5005 C5001 0.950 . S
H5006 C5003 0.950 . S
C5007 C4998 1.390 . S
C5007 H5000 0.950 . S
C5007 C5004 1.387 . S
C5008 C5009 1.387 . S
C5008 H5012 0.950 . S
C5008 C5017 1.390 . S
C5009 C5008 1.387 . S
C5009 C5011 1.387 . S
H5010 C5017 0.950 . S
C5011 C5009 1.387 . S
C5011 C5013 1.390 . S
C5011 H5015 0.950 . S
H5012 C5008 0.950 . S
C5013 C5011 1.390 . S
C5013 C5014 1.387 . S
C5013 H5016 0.950 . S
C5014 C5013 1.387 . S
C5014 C5017 1.387 . S
H5015 C5011 0.950 . S
H5016 C5013 0.950 . S
C5017 C5008 1.390 . S
C5017 H5010 0.950 . S
C5017 C5014 1.387 . S
C5018 C5019 1.387 . S
C5018 H5022 0.950 . S
C5018 C5027 1.390 . S
C5019 C5018 1.387 . S
C5019 C5021 1.387 . S
H5020 C5027 0.950 1_455 S
C5021 C5019 1.387 . S
C5021 C5023 1.390 . S
C5021 H5025 0.950 . S
H5022 C5018 0.950 . S
C5023 C5021 1.390 . S
C5023 C5024 1.387 1_655 S
C5023 H5026 0.950 1_655 S
C5024 C5023 1.387 1_455 S
C5024 C5027 1.387 1_455 S
H5025 C5021 0.950 . S
H5026 C5023 0.950 1_455 S
C5027 C5018 1.390 . S
C5027 H5020 0.950 1_655 S
C5027 C5024 1.387 1_655 S
C5028 C5029 1.387 1_556 S
C5028 H5032 0.950 1_556 S
C5028 C5037 1.390 . S
C5029 C5028 1.387 1_554 S
C5029 C5031 1.387 1_554 S
H5030 C5037 0.950 1_455 S
C5031 C5029 1.387 1_556 S
C5031 C5033 1.390 . S
C5031 H5035 0.950 1_556 S
H5032 C5028 0.950 1_554 S
C5033 C5031 1.390 . S
C5033 C5034 1.387 1_655 S
C5033 H5036 0.950 1_655 S
C5034 C5033 1.387 1_455 S
C5034 C5037 1.387 1_455 S
H5035 C5031 0.950 1_554 S
H5036 C5033 0.950 1_455 S
C5037 C5028 1.390 . S
C5037 H5030 0.950 1_655 S
C5037 C5034 1.387 1_655 S
C5038 C5039 1.387 . S
C5038 H5042 0.950 . S
C5038 C5047 1.390 . S
C5039 C5038 1.387 . S
C5039 C5041 1.387 . S
H5040 C5047 0.950 . S
C5041 C5039 1.387 . S
C5041 C5043 1.390 . S
C5041 H5045 0.950 . S
H5042 C5038 0.950 . S
C5043 C5041 1.390 . S
C5043 C5044 1.387 . S
C5043 H5046 0.950 . S
C5044 C5043 1.387 . S
C5044 C5047 1.387 . S
H5045 C5041 0.950 . S
H5046 C5043 0.950 . S
C5047 C5038 1.390 . S
C5047 H5040 0.950 . S
C5047 C5044 1.387 . S
C5048 C5049 1.387 . S
C5048 H5052 0.950 . S
C5048 C5057 1.390 . S
C5049 C5048 1.387 . S
C5049 C5051 1.387 . S
H5050 C5057 0.950 . S
C5051 C5049 1.387 . S
C5051 C5053 1.390 . S
C5051 H5055 0.950 . S
H5052 C5048 0.950 . S
C5053 C5051 1.390 . S
C5053 C5054 1.387 . S
C5053 H5056 0.950 . S
C5054 C5053 1.387 . S
C5054 C5057 1.387 . S
H5055 C5051 0.950 . S
H5056 C5053 0.950 . S
C5057 C5048 1.390 . S
C5057 H5050 0.950 . S
C5057 C5054 1.387 . S
C5058 C5059 1.387 . S
C5058 H5062 0.950 . S
C5058 C5067 1.390 . S
C5059 C5058 1.387 . S
C5059 C5061 1.387 . S
H5060 C5067 0.950 . S
C5061 C5059 1.387 . S
C5061 C5063 1.390 . S
C5061 H5065 0.950 . S
H5062 C5058 0.950 . S
C5063 C5061 1.390 . S
C5063 C5064 1.387 . S
C5063 H5066 0.950 . S
C5064 C5063 1.387 . S
C5064 C5067 1.387 . S
H5065 C5061 0.950 . S
H5066 C5063 0.950 . S
C5067 C5058 1.390 . S
C5067 H5060 0.950 . S
C5067 C5064 1.387 . S
C5068 C5069 1.387 . S
C5068 H5072 0.950 . S
C5068 C5077 1.390 . S
C5069 C5068 1.387 . S
C5069 C5071 1.387 . S
H5070 C5077 0.950 . S
C5071 C5069 1.387 . S
C5071 C5073 1.390 . S
C5071 H5075 0.950 . S
H5072 C5068 0.950 . S
C5073 C5071 1.390 . S
C5073 C5074 1.387 . S
C5073 H5076 0.950 . S
C5074 C5073 1.387 . S
C5074 C5077 1.387 . S
H5075 C5071 0.950 . S
H5076 C5073 0.950 . S
C5077 C5068 1.390 . S
C5077 H5070 0.950 . S
C5077 C5074 1.387 . S
C5078 C5079 1.387 . S
C5078 H5082 0.950 . S
C5078 C5087 1.390 . S
C5079 C5078 1.387 . S
C5079 C5081 1.387 . S
H5080 C5087 0.950 . S
C5081 C5079 1.387 . S
C5081 C5083 1.390 . S
C5081 H5085 0.950 . S
H5082 C5078 0.950 . S
C5083 C5081 1.390 . S
C5083 C5084 1.387 . S
C5083 H5086 0.950 . S
C5084 C5083 1.387 . S
C5084 C5087 1.387 . S
H5085 C5081 0.950 . S
H5086 C5083 0.950 . S
C5087 C5078 1.390 . S
C5087 H5080 0.950 . S
C5087 C5084 1.387 . S
C5088 C5089 1.387 . S
C5088 H5092 0.950 . S
C5088 C5097 1.390 . S
C5089 C5088 1.387 . S
C5089 C5091 1.387 . S
H5090 C5097 0.950 . S
C5091 C5089 1.387 . S
C5091 C5093 1.390 . S
C5091 H5095 0.950 . S
H5092 C5088 0.950 . S
C5093 C5091 1.390 . S
C5093 C5094 1.387 . S
C5093 H5096 0.950 . S
C5094 C5093 1.387 . S
C5094 C5097 1.387 . S
H5095 C5091 0.950 . S
H5096 C5093 0.950 . S
C5097 C5088 1.390 . S
C5097 H5090 0.950 . S
C5097 C5094 1.387 . S
C5098 C5099 1.387 1_455 S
C5098 H5102 0.950 1_455 S
C5098 C5107 1.390 . S
C5099 C5098 1.387 1_655 S
C5099 C5101 1.387 1_655 S
H5100 C5107 0.950 . S
C5101 C5099 1.387 1_455 S
C5101 C5103 1.390 . S
C5101 H5105 0.950 1_455 S
H5102 C5098 0.950 1_655 S
C5103 C5101 1.390 . S
C5103 C5104 1.387 . S
C5103 H5106 0.950 . S
C5104 C5103 1.387 . S
C5104 C5107 1.387 . S
H5105 C5101 0.950 1_655 S
H5106 C5103 0.950 . S
C5107 C5098 1.390 . S
C5107 H5100 0.950 . S
C5107 C5104 1.387 . S
C5108 C5109 1.387 . S
C5108 H5112 0.950 . S
C5108 C5117 1.390 . S
C5109 C5108 1.387 . S
C5109 C5111 1.387 . S
H5110 C5117 0.950 . S
C5111 C5109 1.387 . S
C5111 C5113 1.390 . S
C5111 H5115 0.950 . S
H5112 C5108 0.950 . S
C5113 C5111 1.390 . S
C5113 C5114 1.387 . S
C5113 H5116 0.950 . S
C5114 C5113 1.387 . S
C5114 C5117 1.387 . S
H5115 C5111 0.950 . S
H5116 C5113 0.950 . S
C5117 C5108 1.390 . S
C5117 H5110 0.950 . S
C5117 C5114 1.387 . S
C5118 C5119 1.387 . S
C5118 H5122 0.950 . S
C5118 C5127 1.390 . S
C5119 C5118 1.387 . S
C5119 C5121 1.387 . S
H5120 C5127 0.950 . S
C5121 C5119 1.387 . S
C5121 C5123 1.390 . S
C5121 H5125 0.950 . S
H5122 C5118 0.950 . S
C5123 C5121 1.390 . S
C5123 C5124 1.387 . S
C5123 H5126 0.950 . S
C5124 C5123 1.387 . S
C5124 C5127 1.387 . S
H5125 C5121 0.950 . S
H5126 C5123 0.950 . S
C5127 C5118 1.390 . S
C5127 H5120 0.950 . S
C5127 C5124 1.387 . S
C5128 C5129 1.387 . S
C5128 H5132 0.950 . S
C5128 C5137 1.390 . S
C5129 C5128 1.387 . S
C5129 C5131 1.387 . S
H5130 C5137 0.950 . S
C5131 C5129 1.387 . S
C5131 C5133 1.390 . S
C5131 H5135 0.950 . S
H5132 C5128 0.950 . S
C5133 C5131 1.390 . S
C5133 C5134 1.387 . S
C5133 H5136 0.950 . S
C5134 C5133 1.387 . S
C5134 C5137 1.387 . S
H5135 C5131 0.950 . S
H5136 C5133 0.950 . S
C5137 C5128 1.390 . S
C5137 H5130 0.950 . S
C5137 C5134 1.387 . S
C5138 C5139 1.387 1_545 S
C5138 H5142 0.950 1_545 S
C5138 C5147 1.390 . S
C5139 C5138 1.387 1_565 S
C5139 C5141 1.387 1_565 S
H5140 C5147 0.950 1_655 S
C5141 C5139 1.387 1_545 S
C5141 C5143 1.390 . S
C5141 H5145 0.950 1_545 S
H5142 C5138 0.950 1_565 S
C5143 C5141 1.390 . S
C5143 C5144 1.387 1_455 S
C5143 H5146 0.950 1_455 S
C5144 C5143 1.387 1_655 S
C5144 C5147 1.387 1_655 S
H5145 C5141 0.950 1_565 S
H5146 C5143 0.950 1_655 S
C5147 C5138 1.390 . S
C5147 H5140 0.950 1_455 S
C5147 C5144 1.387 1_455 S
C5148 C5149 1.387 . S
C5148 H5152 0.950 . S
C5148 C5157 1.390 . S
C5149 C5148 1.387 . S
C5149 C5151 1.387 . S
H5150 C5157 0.950 . S
C5151 C5149 1.387 . S
C5151 C5153 1.390 . S
C5151 H5155 0.950 . S
H5152 C5148 0.950 . S
C5153 C5151 1.390 . S
C5153 C5154 1.387 . S
C5153 H5156 0.950 . S
C5154 C5153 1.387 . S
C5154 C5157 1.387 . S
H5155 C5151 0.950 . S
H5156 C5153 0.950 . S
C5157 C5148 1.390 . S
C5157 H5150 0.950 . S
C5157 C5154 1.387 . S
C5158 C5159 1.387 . S
C5158 H5162 0.950 . S
C5158 C5167 1.390 . S
C5159 C5158 1.387 . S
C5159 C5161 1.387 . S
H5160 C5167 0.950 1_556 S
C5161 C5159 1.387 . S
C5161 C5163 1.390 . S
C5161 H5165 0.950 . S
H5162 C5158 0.950 . S
C5163 C5161 1.390 . S
C5163 C5164 1.387 1_554 S
C5163 H5166 0.950 1_554 S
C5164 C5163 1.387 1_556 S
C5164 C5167 1.387 1_556 S
H5165 C5161 0.950 . S
H5166 C5163 0.950 1_556 S
C5167 C5158 1.390 . S
C5167 H5160 0.950 1_554 S
C5167 C5164 1.387 1_554 S
C5168 C5169 1.387 . S
C5168 H5172 0.950 . S
C5168 C5177 1.390 . S
C5169 C5168 1.387 . S
C5169 C5171 1.387 . S
H5170 C5177 0.950 . S
C5171 C5169 1.387 . S
C5171 C5173 1.390 . S
C5171 H5175 0.950 . S
H5172 C5168 0.950 . S
C5173 C5171 1.390 . S
C5173 C5174 1.387 . S
C5173 H5176 0.950 . S
C5174 C5173 1.387 . S
C5174 C5177 1.387 . S
H5175 C5171 0.950 . S
H5176 C5173 0.950 . S
C5177 C5168 1.390 . S
C5177 H5170 0.950 . S
C5177 C5174 1.387 . S
C5178 C5179 1.387 1_554 S
C5178 H5182 0.950 1_554 S
C5178 C5187 1.390 . S
C5179 C5178 1.387 1_556 S
C5179 C5181 1.387 1_556 S
H5180 C5187 0.950 . S
C5181 C5179 1.387 1_554 S
C5181 C5183 1.390 . S
C5181 H5185 0.950 1_554 S
H5182 C5178 0.950 1_556 S
C5183 C5181 1.390 . S
C5183 C5184 1.387 . S
C5183 H5186 0.950 . S
C5184 C5183 1.387 . S
C5184 C5187 1.387 . S
H5185 C5181 0.950 1_556 S
H5186 C5183 0.950 . S
C5187 C5178 1.390 . S
C5187 H5180 0.950 . S
C5187 C5184 1.387 . S
C5188 C5189 1.387 . S
C5188 H5192 0.950 . S
C5188 C5197 1.390 . S
C5189 C5188 1.387 . S
C5189 C5191 1.387 . S
H5190 C5197 0.950 . S
C5191 C5189 1.387 . S
C5191 C5193 1.390 . S
C5191 H5195 0.950 . S
H5192 C5188 0.950 . S
C5193 C5191 1.390 . S
C5193 C5194 1.387 . S
C5193 H5196 0.950 . S
C5194 C5193 1.387 . S
C5194 C5197 1.387 . S
H5195 C5191 0.950 . S
H5196 C5193 0.950 . S
C5197 C5188 1.390 . S
C5197 H5190 0.950 . S
C5197 C5194 1.387 . S
C5198 C5199 1.387 . S
C5198 H5202 0.950 . S
C5198 C5207 1.390 . S
C5199 C5198 1.387 . S
C5199 C5201 1.387 . S
H5200 C5207 0.950 . S
C5201 C5199 1.387 . S
C5201 C5203 1.390 . S
C5201 H5205 0.950 . S
H5202 C5198 0.950 . S
C5203 C5201 1.390 . S
C5203 C5204 1.387 . S
C5203 H5206 0.950 . S
C5204 C5203 1.387 . S
C5204 C5207 1.387 . S
H5205 C5201 0.950 . S
H5206 C5203 0.950 . S
C5207 C5198 1.390 . S
C5207 H5200 0.950 . S
C5207 C5204 1.387 . S
C5208 C5209 1.387 1_455 S
C5208 H5212 0.950 1_455 S
C5208 C5217 1.390 . S
C5209 C5208 1.387 1_655 S
C5209 C5211 1.387 1_655 S
H5210 C5217 0.950 1_556 S
C5211 C5209 1.387 1_455 S
C5211 C5213 1.390 . S
C5211 H5215 0.950 1_455 S
H5212 C5208 0.950 1_655 S
C5213 C5211 1.390 . S
C5213 C5214 1.387 1_554 S
C5213 H5216 0.950 1_554 S
C5214 C5213 1.387 1_556 S
C5214 C5217 1.387 1_556 S
H5215 C5211 0.950 1_655 S
H5216 C5213 0.950 1_556 S
C5217 C5208 1.390 . S
C5217 H5210 0.950 1_554 S
C5217 C5214 1.387 1_554 S
C5218 C5219 1.387 . S
C5218 H5222 0.950 . S
C5218 C5227 1.390 . S
C5219 C5218 1.387 . S
C5219 C5221 1.387 . S
H5220 C5227 0.950 . S
C5221 C5219 1.387 . S
C5221 C5223 1.390 . S
C5221 H5225 0.950 . S
H5222 C5218 0.950 . S
C5223 C5221 1.390 . S
C5223 C5224 1.387 . S
C5223 H5226 0.950 . S
C5224 C5223 1.387 . S
C5224 C5227 1.387 . S
H5225 C5221 0.950 . S
H5226 C5223 0.950 . S
C5227 C5218 1.390 . S
C5227 H5220 0.950 . S
C5227 C5224 1.387 . S
C5228 C5229 1.387 . S
C5228 H5232 0.950 . S
C5228 C5237 1.390 . S
C5229 C5228 1.387 . S
C5229 C5231 1.387 . S
H5230 C5237 0.950 . S
C5231 C5229 1.387 . S
C5231 C5233 1.390 . S
C5231 H5235 0.950 . S
H5232 C5228 0.950 . S
C5233 C5231 1.390 . S
C5233 C5234 1.387 . S
C5233 H5236 0.950 . S
C5234 C5233 1.387 . S
C5234 C5237 1.387 . S
H5235 C5231 0.950 . S
H5236 C5233 0.950 . S
C5237 C5228 1.390 . S
C5237 H5230 0.950 . S
C5237 C5234 1.387 . S
C5238 C5239 1.387 . S
C5238 H5242 0.950 . S
C5238 C5247 1.390 . S
C5239 C5238 1.387 . S
C5239 C5241 1.387 . S
H5240 C5247 0.950 . S
C5241 C5239 1.387 . S
C5241 C5243 1.390 . S
C5241 H5245 0.950 . S
H5242 C5238 0.950 . S
C5243 C5241 1.390 . S
C5243 C5244 1.387 . S
C5243 H5246 0.950 . S
C5244 C5243 1.387 . S
C5244 C5247 1.387 . S
H5245 C5241 0.950 . S
H5246 C5243 0.950 . S
C5247 C5238 1.390 . S
C5247 H5240 0.950 . S
C5247 C5244 1.387 . S
C5248 C5249 1.387 . S
C5248 H5252 0.950 . S
C5248 C5257 1.390 . S
C5249 C5248 1.387 . S
C5249 C5251 1.387 . S
H5250 C5257 0.950 . S
C5251 C5249 1.387 . S
C5251 C5253 1.390 . S
C5251 H5255 0.950 . S
H5252 C5248 0.950 . S
C5253 C5251 1.390 . S
C5253 C5254 1.387 . S
C5253 H5256 0.950 . S
C5254 C5253 1.387 . S
C5254 C5257 1.387 . S
H5255 C5251 0.950 . S
H5256 C5253 0.950 . S
C5257 C5248 1.390 . S
C5257 H5250 0.950 . S
C5257 C5254 1.387 . S
C5258 C5259 1.387 1_655 S
C5258 H5262 0.950 1_655 S
C5258 C5267 1.390 . S
C5259 C5258 1.387 1_455 S
C5259 C5261 1.387 1_455 S
H5260 C5267 0.950 . S
C5261 C5259 1.387 1_655 S
C5261 C5263 1.390 . S
C5261 H5265 0.950 1_655 S
H5262 C5258 0.950 1_455 S
C5263 C5261 1.390 . S
C5263 C5264 1.387 . S
C5263 H5266 0.950 . S
C5264 C5263 1.387 . S
C5264 C5267 1.387 . S
H5265 C5261 0.950 1_455 S
H5266 C5263 0.950 . S
C5267 C5258 1.390 . S
C5267 H5260 0.950 . S
C5267 C5264 1.387 . S
C5268 C5269 1.387 . S
C5268 H5272 0.950 . S
C5268 C5277 1.390 . S
C5269 C5268 1.387 . S
C5269 C5271 1.387 . S
H5270 C5277 0.950 . S
C5271 C5269 1.387 . S
C5271 C5273 1.390 . S
C5271 H5275 0.950 . S
H5272 C5268 0.950 . S
C5273 C5271 1.390 . S
C5273 C5274 1.387 . S
C5273 H5276 0.950 . S
C5274 C5273 1.387 . S
C5274 C5277 1.387 . S
H5275 C5271 0.950 . S
H5276 C5273 0.950 . S
C5277 C5268 1.390 . S
C5277 H5270 0.950 . S
C5277 C5274 1.387 . S
C5278 C5279 1.387 1_655 S
C5278 H5282 0.950 1_655 S
C5278 C5287 1.390 . S
C5279 C5278 1.387 1_455 S
C5279 C5281 1.387 1_455 S
H5280 C5287 0.950 1_545 S
C5281 C5279 1.387 1_655 S
C5281 C5283 1.390 . S
C5281 H5285 0.950 1_655 S
H5282 C5278 0.950 1_455 S
C5283 C5281 1.390 . S
C5283 C5284 1.387 1_565 S
C5283 H5286 0.950 1_565 S
C5284 C5283 1.387 1_545 S
C5284 C5287 1.387 1_545 S
H5285 C5281 0.950 1_455 S
H5286 C5283 0.950 1_545 S
C5287 C5278 1.390 . S
C5287 H5280 0.950 1_565 S
C5287 C5284 1.387 1_565 S
C5288 C5289 1.387 . S
C5288 H5292 0.950 . S
C5288 C5297 1.390 . S
C5289 C5288 1.387 . S
C5289 C5291 1.387 . S
H5290 C5297 0.950 . S
C5291 C5289 1.387 . S
C5291 C5293 1.390 . S
C5291 H5295 0.950 . S
H5292 C5288 0.950 . S
C5293 C5291 1.390 . S
C5293 C5294 1.387 . S
C5293 H5296 0.950 . S
C5294 C5293 1.387 . S
C5294 C5297 1.387 . S
H5295 C5291 0.950 . S
H5296 C5293 0.950 . S
C5297 C5288 1.390 . S
C5297 H5290 0.950 . S
C5297 C5294 1.387 . S
C5298 C5299 1.387 . S
C5298 H5302 0.950 . S
C5298 C5307 1.390 . S
C5299 C5298 1.387 . S
C5299 C5301 1.387 . S
H5300 C5307 0.950 1_554 S
C5301 C5299 1.387 . S
C5301 C5303 1.390 . S
C5301 H5305 0.950 . S
H5302 C5298 0.950 . S
C5303 C5301 1.390 . S
C5303 C5304 1.387 1_556 S
C5303 H5306 0.950 1_556 S
C5304 C5303 1.387 1_554 S
C5304 C5307 1.387 1_554 S
H5305 C5301 0.950 . S
H5306 C5303 0.950 1_554 S
C5307 C5298 1.390 . S
C5307 H5300 0.950 1_556 S
C5307 C5304 1.387 1_556 S
C5308 C5309 1.387 1_556 S
C5308 H5312 0.950 1_556 S
C5308 C5317 1.390 . S
C5309 C5308 1.387 1_554 S
C5309 C5311 1.387 1_554 S
H5310 C5317 0.950 . S
C5311 C5309 1.387 1_556 S
C5311 C5313 1.390 . S
C5311 H5315 0.950 1_556 S
H5312 C5308 0.950 1_554 S
C5313 C5311 1.390 . S
C5313 C5314 1.387 . S
C5313 H5316 0.950 . S
C5314 C5313 1.387 . S
C5314 C5317 1.387 . S
H5315 C5311 0.950 1_554 S
H5316 C5313 0.950 . S
C5317 C5308 1.390 . S
C5317 H5310 0.950 . S
C5317 C5314 1.387 . S
C5318 C5319 1.387 . S
C5318 H5322 0.950 . S
C5318 C5327 1.390 . S
C5319 C5318 1.387 . S
C5319 C5321 1.387 . S
H5320 C5327 0.950 . S
C5321 C5319 1.387 . S
C5321 C5323 1.390 . S
C5321 H5325 0.950 . S
H5322 C5318 0.950 . S
C5323 C5321 1.390 . S
C5323 C5324 1.387 . S
C5323 H5326 0.950 . S
C5324 C5323 1.387 . S
C5324 C5327 1.387 . S
H5325 C5321 0.950 . S
H5326 C5323 0.950 . S
C5327 C5318 1.390 . S
C5327 H5320 0.950 . S
C5327 C5324 1.387 . S
C5328 C5329 1.387 . S
C5328 H5332 0.950 . S
C5328 C5337 1.390 . S
C5329 C5328 1.387 . S
C5329 C5331 1.387 . S
H5330 C5337 0.950 1_565 S
C5331 C5329 1.387 . S
C5331 C5333 1.390 . S
C5331 H5335 0.950 . S
H5332 C5328 0.950 . S
C5333 C5331 1.390 . S
C5333 C5334 1.387 1_545 S
C5333 H5336 0.950 1_545 S
C5334 C5333 1.387 1_565 S
C5334 C5337 1.387 1_565 S
H5335 C5331 0.950 . S
H5336 C5333 0.950 1_565 S
C5337 C5328 1.390 . S
C5337 H5330 0.950 1_545 S
C5337 C5334 1.387 1_545 S
C5338 C5339 1.387 . S
C5338 H5342 0.950 . S
C5338 C5347 1.390 . S
C5339 C5338 1.387 . S
C5339 C5341 1.387 . S
H5340 C5347 0.950 . S
C5341 C5339 1.387 . S
C5341 C5343 1.390 . S
C5341 H5345 0.950 . S
H5342 C5338 0.950 . S
C5343 C5341 1.390 . S
C5343 C5344 1.387 . S
C5343 H5346 0.950 . S
C5344 C5343 1.387 . S
C5344 C5347 1.387 . S
H5345 C5341 0.950 . S
H5346 C5343 0.950 . S
C5347 C5338 1.390 . S
C5347 H5340 0.950 . S
C5347 C5344 1.387 . S
C5348 C5349 1.387 . S
C5348 H5352 0.950 . S
C5348 C5357 1.390 . S
C5349 C5348 1.387 . S
C5349 C5351 1.387 . S
H5350 C5357 0.950 . S
C5351 C5349 1.387 . S
C5351 C5353 1.390 . S
C5351 H5355 0.950 . S
H5352 C5348 0.950 . S
C5353 C5351 1.390 . S
C5353 C5354 1.387 . S
C5353 H5356 0.950 . S
C5354 C5353 1.387 . S
C5354 C5357 1.387 . S
H5355 C5351 0.950 . S
H5356 C5353 0.950 . S
C5357 C5348 1.390 . S
C5357 H5350 0.950 . S
C5357 C5354 1.387 . S
C5358 C5359 1.387 1_554 S
C5358 H5362 0.950 1_554 S
C5358 C5367 1.390 . S
C5359 C5358 1.387 1_556 S
C5359 C5361 1.387 1_556 S
H5360 C5367 0.950 1_565 S
C5361 C5359 1.387 1_554 S
C5361 C5363 1.390 . S
C5361 H5365 0.950 1_554 S
H5362 C5358 0.950 1_556 S
C5363 C5361 1.390 . S
C5363 C5364 1.387 1_545 S
C5363 H5366 0.950 1_545 S
C5364 C5363 1.387 1_565 S
C5364 C5367 1.387 1_565 S
H5365 C5361 0.950 1_556 S
H5366 C5363 0.950 1_565 S
C5367 C5358 1.390 . S
C5367 H5360 0.950 1_545 S
C5367 C5364 1.387 1_545 S
C5368 C5369 1.387 . S
C5368 H5372 0.950 . S
C5368 C5377 1.390 . S
C5369 C5368 1.387 . S
C5369 C5371 1.387 . S
H5370 C5377 0.950 . S
C5371 C5369 1.387 . S
C5371 C5373 1.390 . S
C5371 H5375 0.950 . S
H5372 C5368 0.950 . S
C5373 C5371 1.390 . S
C5373 C5374 1.387 . S
C5373 H5376 0.950 . S
C5374 C5373 1.387 . S
C5374 C5377 1.387 . S
H5375 C5371 0.950 . S
H5376 C5373 0.950 . S
C5377 C5368 1.390 . S
C5377 H5370 0.950 . S
C5377 C5374 1.387 . S
C5378 C5379 1.387 . S
C5378 H5382 0.950 . S
C5378 C5387 1.390 . S
C5379 C5378 1.387 . S
C5379 C5381 1.387 . S
H5380 C5387 0.950 . S
C5381 C5379 1.387 . S
C5381 C5383 1.390 . S
C5381 H5385 0.950 . S
H5382 C5378 0.950 . S
C5383 C5381 1.390 . S
C5383 C5384 1.387 . S
C5383 H5386 0.950 . S
C5384 C5383 1.387 . S
C5384 C5387 1.387 . S
H5385 C5381 0.950 . S
H5386 C5383 0.950 . S
C5387 C5378 1.390 . S
C5387 H5380 0.950 . S
C5387 C5384 1.387 . S
C5388 C5389 1.387 . S
C5388 H5392 0.950 . S
C5388 C5397 1.390 . S
C5389 C5388 1.387 . S
C5389 C5391 1.387 . S
H5390 C5397 0.950 . S
C5391 C5389 1.387 . S
C5391 C5393 1.390 . S
C5391 H5395 0.950 . S
H5392 C5388 0.950 . S
C5393 C5391 1.390 . S
C5393 C5394 1.387 . S
C5393 H5396 0.950 . S
C5394 C5393 1.387 . S
C5394 C5397 1.387 . S
H5395 C5391 0.950 . S
H5396 C5393 0.950 . S
C5397 C5388 1.390 . S
C5397 H5390 0.950 . S
C5397 C5394 1.387 . S
C5398 C5399 1.387 1_565 S
C5398 H5402 0.950 1_565 S
C5398 C5407 1.390 . S
C5399 C5398 1.387 1_545 S
C5399 C5401 1.387 1_545 S
H5400 C5407 0.950 . S
C5401 C5399 1.387 1_565 S
C5401 C5403 1.390 . S
C5401 H5405 0.950 1_565 S
H5402 C5398 0.950 1_545 S
C5403 C5401 1.390 . S
C5403 C5404 1.387 . S
C5403 H5406 0.950 . S
C5404 C5403 1.387 . S
C5404 C5407 1.387 . S
H5405 C5401 0.950 1_545 S
H5406 C5403 0.950 . S
C5407 C5398 1.390 . S
C5407 H5400 0.950 . S
C5407 C5404 1.387 . S
C5408 C5409 1.387 . S
C5408 H5412 0.950 . S
C5408 C5417 1.390 . S
C5409 C5408 1.387 . S
C5409 C5411 1.387 . S
H5410 C5417 0.950 . S
C5411 C5409 1.387 . S
C5411 C5413 1.390 . S
C5411 H5415 0.950 . S
H5412 C5408 0.950 . S
C5413 C5411 1.390 . S
C5413 C5414 1.387 . S
C5413 H5416 0.950 . S
C5414 C5413 1.387 . S
C5414 C5417 1.387 . S
H5415 C5411 0.950 . S
H5416 C5413 0.950 . S
C5417 C5408 1.390 . S
C5417 H5410 0.950 . S
C5417 C5414 1.387 . S
C5418 C5419 1.387 . S
C5418 H5422 0.950 . S
C5418 C5427 1.390 . S
C5419 C5418 1.387 . S
C5419 C5421 1.387 . S
H5420 C5427 0.950 1_545 S
C5421 C5419 1.387 . S
C5421 C5423 1.390 . S
C5421 H5425 0.950 . S
H5422 C5418 0.950 . S
C5423 C5421 1.390 . S
C5423 C5424 1.387 1_565 S
C5423 H5426 0.950 1_565 S
C5424 C5423 1.387 1_545 S
C5424 C5427 1.387 1_545 S
H5425 C5421 0.950 . S
H5426 C5423 0.950 1_545 S
C5427 C5418 1.390 . S
C5427 H5420 0.950 1_565 S
C5427 C5424 1.387 1_565 S
C5428 C5429 1.387 . S
C5428 H5432 0.950 . S
C5428 C5437 1.390 . S
C5429 C5428 1.387 . S
C5429 C5431 1.387 . S
H5430 C5437 0.950 . S
C5431 C5429 1.387 . S
C5431 C5433 1.390 . S
C5431 H5435 0.950 . S
H5432 C5428 0.950 . S
C5433 C5431 1.390 . S
C5433 C5434 1.387 . S
C5433 H5436 0.950 . S
C5434 C5433 1.387 . S
C5434 C5437 1.387 . S
H5435 C5431 0.950 . S
H5436 C5433 0.950 . S
C5437 C5428 1.390 . S
C5437 H5430 0.950 . S
C5437 C5434 1.387 . S
C5438 C5439 1.387 . S
C5438 H5442 0.950 . S
C5438 C5447 1.390 . S
C5439 C5438 1.387 . S
C5439 C5441 1.387 . S
H5440 C5447 0.950 . S
C5441 C5439 1.387 . S
C5441 C5443 1.390 . S
C5441 H5445 0.950 . S
H5442 C5438 0.950 . S
C5443 C5441 1.390 . S
C5443 C5444 1.387 . S
C5443 H5446 0.950 . S
C5444 C5443 1.387 . S
C5444 C5447 1.387 . S
H5445 C5441 0.950 . S
H5446 C5443 0.950 . S
C5447 C5438 1.390 . S
C5447 H5440 0.950 . S
C5447 C5444 1.387 . S
C5448 C5449 1.387 . S
C5448 H5452 0.950 . S
C5448 C5457 1.390 . S
C5449 C5448 1.387 . S
C5449 C5451 1.387 . S
H5450 C5457 0.950 . S
C5451 C5449 1.387 . S
C5451 C5453 1.390 . S
C5451 H5455 0.950 . S
H5452 C5448 0.950 . S
C5453 C5451 1.390 . S
C5453 C5454 1.387 . S
C5453 H5456 0.950 . S
C5454 C5453 1.387 . S
C5454 C5457 1.387 . S
H5455 C5451 0.950 . S
H5456 C5453 0.950 . S
C5457 C5448 1.390 . S
C5457 H5450 0.950 . S
C5457 C5454 1.387 . S
C5458 C5459 1.387 1_565 S
C5458 H5462 0.950 1_565 S
C5458 C5467 1.390 . S
C5459 C5458 1.387 1_545 S
C5459 C5461 1.387 1_545 S
H5460 C5467 0.950 1_554 S
C5461 C5459 1.387 1_565 S
C5461 C5463 1.390 . S
C5461 H5465 0.950 1_565 S
H5462 C5458 0.950 1_545 S
C5463 C5461 1.390 . S
C5463 C5464 1.387 1_556 S
C5463 H5466 0.950 1_556 S
C5464 C5463 1.387 1_554 S
C5464 C5467 1.387 1_554 S
H5465 C5461 0.950 1_545 S
H5466 C5463 0.950 1_554 S
C5467 C5458 1.390 . S
C5467 H5460 0.950 1_556 S
C5467 C5464 1.387 1_556 S
C5468 C5469 1.387 . S
C5468 H5472 0.950 . S
C5468 C5477 1.390 . S
C5469 C5468 1.387 . S
C5469 C5471 1.387 . S
H5470 C5477 0.950 . S
C5471 C5469 1.387 . S
C5471 C5473 1.390 . S
C5471 H5475 0.950 . S
H5472 C5468 0.950 . S
C5473 C5471 1.390 . S
C5473 C5474 1.387 . S
C5473 H5476 0.950 . S
C5474 C5473 1.387 . S
C5474 C5477 1.387 . S
H5475 C5471 0.950 . S
H5476 C5473 0.950 . S
C5477 C5468 1.390 . S
C5477 H5470 0.950 . S
C5477 C5474 1.387 . S
C5478 C5479 1.387 1_545 S
C5478 H5482 0.950 1_545 S
C5478 C5487 1.390 . S
C5479 C5478 1.387 1_565 S
C5479 C5481 1.387 1_565 S
H5480 C5487 0.950 . S
C5481 C5479 1.387 1_545 S
C5481 C5483 1.390 . S
C5481 H5485 0.950 1_545 S
H5482 C5478 0.950 1_565 S
C5483 C5481 1.390 . S
C5483 C5484 1.387 . S
C5483 H5486 0.950 . S
C5484 C5483 1.387 . S
C5484 C5487 1.387 . S
H5485 C5481 0.950 1_565 S
H5486 C5483 0.950 . S
C5487 C5478 1.390 . S
C5487 H5480 0.950 . S
C5487 C5484 1.387 . S
C5488 C5489 1.387 . S
C5488 H5492 0.950 . S
C5488 C5497 1.390 . S
C5489 C5488 1.387 . S
C5489 C5491 1.387 . S
H5490 C5497 0.950 . S
C5491 C5489 1.387 . S
C5491 C5493 1.390 . S
C5491 H5495 0.950 . S
H5492 C5488 0.950 . S
C5493 C5491 1.390 . S
C5493 C5494 1.387 . S
C5493 H5496 0.950 . S
C5494 C5493 1.387 . S
C5494 C5497 1.387 . S
H5495 C5491 0.950 . S
H5496 C5493 0.950 . S
C5497 C5488 1.390 . S
C5497 H5490 0.950 . S
C5497 C5494 1.387 . S
C5498 C5499 1.387 . S
C5498 H5502 0.950 . S
C5498 C5507 1.390 . S
C5499 C5498 1.387 . S
C5499 C5501 1.387 . S
H5500 C5507 0.950 . S
C5501 C5499 1.387 . S
C5501 C5503 1.390 . S
C5501 H5505 0.950 . S
H5502 C5498 0.950 . S
C5503 C5501 1.390 . S
C5503 C5504 1.387 . S
C5503 H5506 0.950 . S
C5504 C5503 1.387 . S
C5504 C5507 1.387 . S
H5505 C5501 0.950 . S
H5506 C5503 0.950 . S
C5507 C5498 1.390 . S
C5507 H5500 0.950 . S
C5507 C5504 1.387 . S
C5508 C5509 1.387 . S
C5508 H5512 0.950 . S
C5508 C5517 1.390 . S
C5509 C5508 1.387 . S
C5509 C5511 1.387 . S
H5510 C5517 0.950 . S
C5511 C5509 1.387 . S
C5511 C5513 1.390 . S
C5511 H5515 0.950 . S
H5512 C5508 0.950 . S
C5513 C5511 1.390 . S
C5513 C5514 1.387 . S
C5513 H5516 0.950 . S
C5514 C5513 1.387 . S
C5514 C5517 1.387 . S
H5515 C5511 0.950 . S
H5516 C5513 0.950 . S
C5517 C5508 1.390 . S
C5517 H5510 0.950 . S
C5517 C5514 1.387 . S
C5518 C5519 1.387 1_554 S
C5518 H5522 0.950 1_554 S
C5518 C5527 1.390 . S
C5519 C5518 1.387 1_556 S
C5519 C5521 1.387 1_556 S
H5520 C5527 0.950 . S
C5521 C5519 1.387 1_554 S
C5521 C5523 1.390 . S
C5521 H5525 0.950 1_554 S
H5522 C5518 0.950 1_556 S
C5523 C5521 1.390 . S
C5523 C5524 1.387 . S
C5523 H5526 0.950 . S
C5524 C5523 1.387 . S
C5524 C5527 1.387 . S
H5525 C5521 0.950 1_556 S
H5526 C5523 0.950 . S
C5527 C5518 1.390 . S
C5527 H5520 0.950 . S
C5527 C5524 1.387 . S
C5528 C5529 1.387 . S
C5528 H5532 0.950 . S
C5528 C5537 1.390 . S
C5529 C5528 1.387 . S
C5529 C5531 1.387 . S
H5530 C5537 0.950 . S
C5531 C5529 1.387 . S
C5531 C5533 1.390 . S
C5531 H5535 0.950 . S
H5532 C5528 0.950 . S
C5533 C5531 1.390 . S
C5533 C5534 1.387 . S
C5533 H5536 0.950 . S
C5534 C5533 1.387 . S
C5534 C5537 1.387 . S
H5535 C5531 0.950 . S
H5536 C5533 0.950 . S
C5537 C5528 1.390 . S
C5537 H5530 0.950 . S
C5537 C5534 1.387 . S
C5538 C5539 1.387 . S
C5538 H5542 0.950 . S
C5538 C5547 1.390 . S
C5539 C5538 1.387 . S
C5539 C5541 1.387 . S
H5540 C5547 0.950 . S
C5541 C5539 1.387 . S
C5541 C5543 1.390 . S
C5541 H5545 0.950 . S
H5542 C5538 0.950 . S
C5543 C5541 1.390 . S
C5543 C5544 1.387 . S
C5543 H5546 0.950 . S
C5544 C5543 1.387 . S
C5544 C5547 1.387 . S
H5545 C5541 0.950 . S
H5546 C5543 0.950 . S
C5547 C5538 1.390 . S
C5547 H5540 0.950 . S
C5547 C5544 1.387 . S
C5548 C5549 1.387 . S
C5548 H5552 0.950 . S
C5548 C5557 1.390 . S
C5549 C5548 1.387 . S
C5549 C5551 1.387 . S
H5550 C5557 0.950 . S
C5551 C5549 1.387 . S
C5551 C5553 1.390 . S
C5551 H5555 0.950 . S
H5552 C5548 0.950 . S
C5553 C5551 1.390 . S
C5553 C5554 1.387 . S
C5553 H5556 0.950 . S
C5554 C5553 1.387 . S
C5554 C5557 1.387 . S
H5555 C5551 0.950 . S
H5556 C5553 0.950 . S
C5557 C5548 1.390 . S
C5557 H5550 0.950 . S
C5557 C5554 1.387 . S
C5558 C5559 1.387 . S
C5558 H5562 0.950 . S
C5558 C5567 1.390 . S
C5559 C5558 1.387 . S
C5559 C5561 1.387 . S
H5560 C5567 0.950 1_554 S
C5561 C5559 1.387 . S
C5561 C5563 1.390 . S
C5561 H5565 0.950 . S
H5562 C5558 0.950 . S
C5563 C5561 1.390 . S
C5563 C5564 1.387 1_556 S
C5563 H5566 0.950 1_556 S
C5564 C5563 1.387 1_554 S
C5564 C5567 1.387 1_554 S
H5565 C5561 0.950 . S
H5566 C5563 0.950 1_554 S
C5567 C5558 1.390 . S
C5567 H5560 0.950 1_556 S
C5567 C5564 1.387 1_556 S
C5568 C5569 1.362 1_455 S
C5568 H5572 0.953 . S
C5568 C5577 1.415 . S
C5569 C5568 1.362 1_655 S
C5569 C5571 1.387 . S
H5570 C5577 0.950 . S
C5571 C5569 1.387 . S
C5571 C5573 1.415 . S
C5571 H5575 0.950 . S
H5572 C5568 0.953 . S
C5573 C5571 1.415 . S
C5573 C5574 1.362 1_655 S
C5573 H5576 0.953 . S
C5574 C5573 1.362 1_455 S
C5574 C5577 1.387 . S
H5575 C5571 0.950 . S
H5576 C5573 0.953 . S
C5577 C5568 1.415 . S
C5577 H5570 0.950 . S
C5577 C5574 1.387 . S
C5578 C5579 1.387 . S
C5578 H5582 0.950 . S
C5578 C5587 1.390 . S
C5579 C5578 1.387 . S
C5579 C5581 1.387 . S
H5580 C5587 0.950 . S
C5581 C5579 1.387 . S
C5581 C5583 1.390 . S
C5581 H5585 0.950 . S
H5582 C5578 0.950 . S
C5583 C5581 1.390 . S
C5583 C5584 1.387 . S
C5583 H5586 0.950 . S
C5584 C5583 1.387 . S
C5584 C5587 1.387 . S
H5585 C5581 0.950 . S
H5586 C5583 0.950 . S
C5587 C5578 1.390 . S
C5587 H5580 0.950 . S
C5587 C5584 1.387 . S
C5588 C5589 1.387 . S
C5588 H5592 0.950 . S
C5588 C5597 1.390 . S
C5589 C5588 1.387 . S
C5589 C5591 1.387 . S
H5590 C5597 0.950 . S
C5591 C5589 1.387 . S
C5591 C5593 1.390 . S
C5591 H5595 0.950 . S
H5592 C5588 0.950 . S
C5593 C5591 1.390 . S
C5593 C5594 1.387 . S
C5593 H5596 0.950 . S
C5594 C5593 1.387 . S
C5594 C5597 1.387 . S
H5595 C5591 0.950 . S
H5596 C5593 0.950 . S
C5597 C5588 1.390 . S
C5597 H5590 0.950 . S
C5597 C5594 1.387 . S
C5598 C5599 1.387 1_565 S
C5598 H5602 0.950 . S
C5598 C5607 1.390 . S
C5599 C5598 1.387 1_545 S
C5599 C5601 1.387 . S
H5600 C5607 0.950 . S
C5601 C5599 1.387 . S
C5601 C5603 1.390 . S
C5601 H5605 0.950 . S
H5602 C5598 0.950 . S
C5603 C5601 1.390 . S
C5603 C5604 1.387 1_545 S
C5603 H5606 0.950 . S
C5604 C5603 1.387 1_565 S
C5604 C5607 1.387 . S
H5605 C5601 0.950 . S
H5606 C5603 0.950 . S
C5607 C5598 1.390 . S
C5607 H5600 0.950 . S
C5607 C5604 1.387 . S
C5608 C5609 1.379 1_655 S
C5608 H5612 0.950 . S
C5608 C5617 1.398 . S
C5609 C5608 1.379 1_455 S
C5609 C5611 1.387 . S
H5610 C5617 0.950 . S
C5611 C5609 1.387 . S
C5611 C5613 1.398 . S
C5611 H5615 0.950 . S
H5612 C5608 0.950 . S
C5613 C5611 1.398 . S
C5613 C5614 1.379 1_455 S
C5613 H5616 0.950 . S
C5614 C5613 1.379 1_655 S
C5614 C5617 1.387 . S
H5615 C5611 0.950 . S
H5616 C5613 0.950 . S
C5617 C5608 1.398 . S
C5617 H5610 0.950 . S
C5617 C5614 1.387 . S
C5618 C5619 1.387 . S
C5618 H5622 0.950 . S
C5618 C5627 1.390 . S
C5619 C5618 1.387 . S
C5619 C5621 1.387 . S
H5620 C5627 0.950 . S
C5621 C5619 1.387 . S
C5621 C5623 1.390 . S
C5621 H5625 0.950 . S
H5622 C5618 0.950 . S
C5623 C5621 1.390 . S
C5623 C5624 1.387 . S
C5623 H5626 0.950 . S
C5624 C5623 1.387 . S
C5624 C5627 1.387 . S
H5625 C5621 0.950 . S
H5626 C5623 0.950 . S
C5627 C5618 1.390 . S
C5627 H5620 0.950 . S
C5627 C5624 1.387 . S
C5628 C5629 1.387 . S
C5628 H5632 0.950 . S
C5628 C5637 1.390 . S
C5629 C5628 1.387 . S
C5629 C5631 1.387 . S
H5630 C5637 0.950 . S
C5631 C5629 1.387 . S
C5631 C5633 1.390 . S
C5631 H5635 0.950 . S
H5632 C5628 0.950 . S
C5633 C5631 1.390 . S
C5633 C5634 1.387 . S
C5633 H5636 0.950 . S
C5634 C5633 1.387 . S
C5634 C5637 1.387 . S
H5635 C5631 0.950 . S
H5636 C5633 0.950 . S
C5637 C5628 1.390 . S
C5637 H5630 0.950 . S
C5637 C5634 1.387 . S
C5638 C5639 1.387 1_545 S
C5638 H5642 0.950 . S
C5638 C5647 1.390 . S
C5639 C5638 1.387 1_565 S
C5639 C5641 1.387 . S
H5640 C5647 0.950 . S
C5641 C5639 1.387 . S
C5641 C5643 1.390 . S
C5641 H5645 0.950 . S
H5642 C5638 0.950 . S
C5643 C5641 1.390 . S
C5643 C5644 1.387 1_565 S
C5643 H5646 0.950 . S
C5644 C5643 1.387 1_545 S
C5644 C5647 1.387 . S
H5645 C5641 0.950 . S
H5646 C5643 0.950 . S
C5647 C5638 1.390 . S
C5647 H5640 0.950 . S
C5647 C5644 1.387 . S
C5648 C5649 1.387 . S
C5648 H5652 0.950 . S
C5648 C5657 1.390 . S
C5649 C5648 1.387 . S
C5649 C5651 1.387 1_565 S
H5650 C5657 0.950 . S
C5651 C5649 1.387 1_545 S
C5651 C5653 1.390 . S
C5651 H5655 0.950 . S
H5652 C5648 0.950 . S
C5653 C5651 1.390 . S
C5653 C5654 1.387 . S
C5653 H5656 0.950 . S
C5654 C5653 1.387 . S
C5654 C5657 1.387 1_545 S
H5655 C5651 0.950 . S
H5656 C5653 0.950 . S
C5657 C5648 1.390 . S
C5657 H5650 0.950 . S
C5657 C5654 1.387 1_565 S
C5658 C5659 1.402 . S
C5658 H5662 0.949 . S
C5658 C5667 1.375 1_455 S
C5659 C5658 1.402 . S
C5659 C5661 1.387 . S
H5660 C5667 0.950 . S
C5661 C5659 1.387 . S
C5661 C5663 1.375 1_455 S
C5661 H5665 0.950 . S
H5662 C5658 0.949 . S
C5663 C5661 1.375 1_655 S
C5663 C5664 1.402 . S
C5663 H5666 0.949 . S
C5664 C5663 1.402 . S
C5664 C5667 1.387 . S
H5665 C5661 0.950 . S
H5666 C5663 0.949 . S
C5667 C5658 1.375 1_655 S
C5667 H5660 0.950 . S
C5667 C5664 1.387 . S
C5668 C5669 1.387 . S
C5668 H5672 0.950 . S
C5668 C5677 1.390 . S
C5669 C5668 1.387 . S
C5669 C5671 1.387 . S
H5670 C5677 0.950 . S
C5671 C5669 1.387 . S
C5671 C5673 1.390 . S
C5671 H5675 0.950 . S
H5672 C5668 0.950 . S
C5673 C5671 1.390 . S
C5673 C5674 1.387 . S
C5673 H5676 0.950 . S
C5674 C5673 1.387 . S
C5674 C5677 1.387 . S
H5675 C5671 0.950 . S
H5676 C5673 0.950 . S
C5677 C5668 1.390 . S
C5677 H5670 0.950 . S
C5677 C5674 1.387 . S
C5678 C5679 1.387 . S
C5678 H5682 0.950 . S
C5678 C5687 1.390 . S
C5679 C5678 1.387 . S
C5679 C5681 1.387 . S
H5680 C5687 0.950 . S
C5681 C5679 1.387 . S
C5681 C5683 1.390 . S
C5681 H5685 0.950 . S
H5682 C5678 0.950 . S
C5683 C5681 1.390 . S
C5683 C5684 1.387 . S
C5683 H5686 0.950 . S
C5684 C5683 1.387 . S
C5684 C5687 1.387 . S
H5685 C5681 0.950 . S
H5686 C5683 0.950 . S
C5687 C5678 1.390 . S
C5687 H5680 0.950 . S
C5687 C5684 1.387 . S
C5688 C5689 1.387 . S
C5688 H5692 0.950 . S
C5688 C5697 1.390 . S
C5689 C5688 1.387 . S
C5689 C5691 1.387 . S
H5690 C5697 0.950 . S
C5691 C5689 1.387 . S
C5691 C5693 1.390 . S
C5691 H5695 0.950 . S
H5692 C5688 0.950 . S
C5693 C5691 1.390 . S
C5693 C5694 1.387 . S
C5693 H5696 0.950 . S
C5694 C5693 1.387 . S
C5694 C5697 1.387 . S
H5695 C5691 0.950 . S
H5696 C5693 0.950 . S
C5697 C5688 1.390 . S
C5697 H5690 0.950 . S
C5697 C5694 1.387 . S
C5698 C5699 1.387 . S
C5698 H5702 0.950 . S
C5698 C5707 1.390 . S
C5699 C5698 1.387 . S
C5699 C5701 1.387 . S
H5700 C5707 0.950 . S
C5701 C5699 1.387 . S
C5701 C5703 1.390 . S
C5701 H5705 0.950 . S
H5702 C5698 0.950 . S
C5703 C5701 1.390 . S
C5703 C5704 1.387 . S
C5703 H5706 0.950 . S
C5704 C5703 1.387 . S
C5704 C5707 1.387 . S
H5705 C5701 0.950 . S
H5706 C5703 0.950 . S
C5707 C5698 1.390 . S
C5707 H5700 0.950 . S
C5707 C5704 1.387 . S
C5708 C5709 1.387 . S
C5708 H5712 0.950 . S
C5708 C5717 1.390 . S
C5709 C5708 1.387 . S
C5709 C5711 1.387 1_565 S
H5710 C5717 0.950 . S
C5711 C5709 1.387 1_545 S
C5711 C5713 1.390 . S
C5711 H5715 0.950 . S
H5712 C5708 0.950 . S
C5713 C5711 1.390 . S
C5713 C5714 1.387 . S
C5713 H5716 0.950 . S
C5714 C5713 1.387 . S
C5714 C5717 1.387 1_545 S
H5715 C5711 0.950 . S
H5716 C5713 0.950 . S
C5717 C5708 1.390 . S
C5717 H5710 0.950 . S
C5717 C5714 1.387 1_565 S
C5718 C5719 1.387 . S
C5718 H5722 0.950 . S
C5718 C5727 1.390 1_655 S
C5719 C5718 1.387 . S
C5719 C5721 1.387 . S
H5720 C5727 0.950 . S
C5721 C5719 1.387 . S
C5721 C5723 1.390 1_655 S
C5721 H5725 0.950 . S
H5722 C5718 0.950 . S
C5723 C5721 1.390 1_455 S
C5723 C5724 1.387 . S
C5723 H5726 0.950 . S
C5724 C5723 1.387 . S
C5724 C5727 1.387 . S
H5725 C5721 0.950 . S
H5726 C5723 0.950 . S
C5727 C5718 1.390 1_455 S
C5727 H5720 0.950 . S
C5727 C5724 1.387 . S
C5728 C5729 1.387 1_554 S
C5728 H5732 0.950 . S
C5728 C5737 1.390 . S
C5729 C5728 1.387 1_556 S
C5729 C5731 1.387 . S
H5730 C5737 0.950 . S
C5731 C5729 1.387 . S
C5731 C5733 1.390 . S
C5731 H5735 0.950 . S
H5732 C5728 0.950 . S
C5733 C5731 1.390 . S
C5733 C5734 1.387 1_556 S
C5733 H5736 0.950 . S
C5734 C5733 1.387 1_554 S
C5734 C5737 1.387 . S
H5735 C5731 0.950 . S
H5736 C5733 0.950 . S
C5737 C5728 1.390 . S
C5737 H5730 0.950 . S
C5737 C5734 1.387 . S
C5738 C5739 1.387 . S
C5738 H5742 0.950 . S
C5738 C5747 1.390 . S
C5739 C5738 1.387 . S
C5739 C5741 1.387 . S
H5740 C5747 0.950 . S
C5741 C5739 1.387 . S
C5741 C5743 1.390 . S
C5741 H5745 0.950 . S
H5742 C5738 0.950 . S
C5743 C5741 1.390 . S
C5743 C5744 1.387 . S
C5743 H5746 0.950 . S
C5744 C5743 1.387 . S
C5744 C5747 1.387 . S
H5745 C5741 0.950 . S
H5746 C5743 0.950 . S
C5747 C5738 1.390 . S
C5747 H5740 0.950 . S
C5747 C5744 1.387 . S
C5748 C5749 1.387 . S
C5748 H5752 0.950 . S
C5748 C5757 1.390 . S
C5749 C5748 1.387 . S
C5749 C5751 1.387 . S
H5750 C5757 0.950 . S
C5751 C5749 1.387 . S
C5751 C5753 1.390 . S
C5751 H5755 0.950 . S
H5752 C5748 0.950 . S
C5753 C5751 1.390 . S
C5753 C5754 1.387 . S
C5753 H5756 0.950 . S
C5754 C5753 1.387 . S
C5754 C5757 1.387 . S
H5755 C5751 0.950 . S
H5756 C5753 0.950 . S
C5757 C5748 1.390 . S
C5757 H5750 0.950 . S
C5757 C5754 1.387 . S
C5758 C5759 1.387 . S
C5758 H5762 0.950 . S
C5758 C5767 1.390 . S
C5759 C5758 1.387 . S
C5759 C5761 1.387 . S
H5760 C5767 0.950 . S
C5761 C5759 1.387 . S
C5761 C5763 1.390 . S
C5761 H5765 0.950 . S
H5762 C5758 0.950 . S
C5763 C5761 1.390 . S
C5763 C5764 1.387 . S
C5763 H5766 0.950 . S
C5764 C5763 1.387 . S
C5764 C5767 1.387 . S
H5765 C5761 0.950 . S
H5766 C5763 0.950 . S
C5767 C5758 1.390 . S
C5767 H5760 0.950 . S
C5767 C5764 1.387 . S
C5768 C5769 1.387 . S
C5768 H5772 0.950 . S
C5768 C5777 1.390 . S
C5769 C5768 1.387 . S
C5769 C5771 1.387 . S
H5770 C5777 0.950 . S
C5771 C5769 1.387 . S
C5771 C5773 1.390 . S
C5771 H5775 0.950 . S
H5772 C5768 0.950 . S
C5773 C5771 1.390 . S
C5773 C5774 1.387 . S
C5773 H5776 0.950 . S
C5774 C5773 1.387 . S
C5774 C5777 1.387 . S
H5775 C5771 0.950 . S
H5776 C5773 0.950 . S
C5777 C5768 1.390 . S
C5777 H5770 0.950 . S
C5777 C5774 1.387 . S
C5778 C5779 1.387 . S
C5778 H5782 0.950 . S
C5778 C5787 1.388 1_556 S
C5779 C5778 1.387 . S
C5779 C5781 1.389 . S
H5780 C5787 0.950 . S
C5781 C5779 1.389 . S
C5781 C5783 1.388 1_556 S
C5781 H5785 0.950 . S
H5782 C5778 0.950 . S
C5783 C5781 1.388 1_554 S
C5783 C5784 1.387 . S
C5783 H5786 0.950 . S
C5784 C5783 1.387 . S
C5784 C5787 1.389 . S
H5785 C5781 0.950 . S
H5786 C5783 0.950 . S
C5787 C5778 1.388 1_554 S
C5787 H5780 0.950 . S
C5787 C5784 1.389 . S
C5788 C5789 1.387 . S
C5788 H5792 0.950 . S
C5788 C5797 1.390 . S
C5789 C5788 1.387 . S
C5789 C5791 1.387 . S
H5790 C5797 0.950 . S
C5791 C5789 1.387 . S
C5791 C5793 1.390 . S
C5791 H5795 0.950 . S
H5792 C5788 0.950 . S
C5793 C5791 1.390 . S
C5793 C5794 1.387 . S
C5793 H5796 0.950 . S
C5794 C5793 1.387 . S
C5794 C5797 1.387 . S
H5795 C5791 0.950 . S
H5796 C5793 0.950 . S
C5797 C5788 1.390 . S
C5797 H5790 0.950 . S
C5797 C5794 1.387 . S
C5798 C5799 1.387 . S
C5798 H5802 0.950 . S
C5798 C5807 1.390 . S
C5799 C5798 1.387 . S
C5799 C5801 1.387 . S
H5800 C5807 0.950 . S
C5801 C5799 1.387 . S
C5801 C5803 1.390 . S
C5801 H5805 0.950 . S
H5802 C5798 0.950 . S
C5803 C5801 1.390 . S
C5803 C5804 1.387 . S
C5803 H5806 0.950 . S
C5804 C5803 1.387 . S
C5804 C5807 1.387 . S
H5805 C5801 0.950 . S
H5806 C5803 0.950 . S
C5807 C5798 1.390 . S
C5807 H5800 0.950 . S
C5807 C5804 1.387 . S
C5808 C5809 1.387 . S
C5808 H5812 0.950 . S
C5808 C5817 1.390 . S
C5809 C5808 1.387 . S
C5809 C5811 1.387 1_455 S
H5810 C5817 0.950 . S
C5811 C5809 1.387 1_655 S
C5811 C5813 1.390 . S
C5811 H5815 0.950 . S
H5812 C5808 0.950 . S
C5813 C5811 1.390 . S
C5813 C5814 1.387 . S
C5813 H5816 0.950 . S
C5814 C5813 1.387 . S
C5814 C5817 1.387 1_655 S
H5815 C5811 0.950 . S
H5816 C5813 0.950 . S
C5817 C5808 1.390 . S
C5817 H5810 0.950 . S
C5817 C5814 1.387 1_455 S
C5818 C5819 1.387 . S
C5818 H5822 0.950 . S
C5818 C5827 1.390 . S
C5819 C5818 1.387 . S
C5819 C5821 1.387 . S
H5820 C5827 0.950 . S
C5821 C5819 1.387 . S
C5821 C5823 1.390 . S
C5821 H5825 0.950 . S
H5822 C5818 0.950 . S
C5823 C5821 1.390 . S
C5823 C5824 1.387 . S
C5823 H5826 0.950 . S
C5824 C5823 1.387 . S
C5824 C5827 1.387 . S
H5825 C5821 0.950 . S
H5826 C5823 0.950 . S
C5827 C5818 1.390 . S
C5827 H5820 0.950 . S
C5827 C5824 1.387 . S
C5828 C5829 1.387 . S
C5828 H5832 0.950 . S
C5828 C5837 1.390 . S
C5829 C5828 1.387 . S
C5829 C5831 1.387 . S
H5830 C5837 0.950 . S
C5831 C5829 1.387 . S
C5831 C5833 1.390 . S
C5831 H5835 0.950 . S
H5832 C5828 0.950 . S
C5833 C5831 1.390 . S
C5833 C5834 1.387 . S
C5833 H5836 0.950 . S
C5834 C5833 1.387 . S
C5834 C5837 1.387 . S
H5835 C5831 0.950 . S
H5836 C5833 0.950 . S
C5837 C5828 1.390 . S
C5837 H5830 0.950 . S
C5837 C5834 1.387 . S
C5838 C5839 1.387 . S
C5838 H5842 0.950 . S
C5838 C5847 1.390 . S
C5839 C5838 1.387 . S
C5839 C5841 1.387 1_545 S
H5840 C5847 0.950 . S
C5841 C5839 1.387 1_565 S
C5841 C5843 1.390 . S
C5841 H5845 0.950 . S
H5842 C5838 0.950 . S
C5843 C5841 1.390 . S
C5843 C5844 1.387 . S
C5843 H5846 0.950 . S
C5844 C5843 1.387 . S
C5844 C5847 1.387 1_565 S
H5845 C5841 0.950 . S
H5846 C5843 0.950 . S
C5847 C5838 1.390 . S
C5847 H5840 0.950 . S
C5847 C5844 1.387 1_545 S
C5848 C5849 1.387 . S
C5848 H5852 0.950 . S
C5848 C5857 1.390 . S
C5849 C5848 1.387 . S
C5849 C5851 1.387 1_655 S
H5850 C5857 0.950 . S
C5851 C5849 1.387 1_455 S
C5851 C5853 1.390 . S
C5851 H5855 0.950 . S
H5852 C5848 0.950 . S
C5853 C5851 1.390 . S
C5853 C5854 1.387 . S
C5853 H5856 0.950 . S
C5854 C5853 1.387 . S
C5854 C5857 1.387 1_455 S
H5855 C5851 0.950 . S
H5856 C5853 0.950 . S
C5857 C5848 1.390 . S
C5857 H5850 0.950 . S
C5857 C5854 1.387 1_655 S
C5858 C5859 1.387 . S
C5858 H5862 0.950 . S
C5858 C5867 1.390 . S
C5859 C5858 1.387 . S
C5859 C5861 1.387 . S
H5860 C5867 0.950 . S
C5861 C5859 1.387 . S
C5861 C5863 1.390 . S
C5861 H5865 0.950 . S
H5862 C5858 0.950 . S
C5863 C5861 1.390 . S
C5863 C5864 1.387 . S
C5863 H5866 0.950 . S
C5864 C5863 1.387 . S
C5864 C5867 1.387 . S
H5865 C5861 0.950 . S
H5866 C5863 0.950 . S
C5867 C5858 1.390 . S
C5867 H5860 0.950 . S
C5867 C5864 1.387 . S
C5868 C5869 1.387 . S
C5868 H5872 0.950 . S
C5868 C5877 1.390 . S
C5869 C5868 1.387 . S
C5869 C5871 1.387 . S
H5870 C5877 0.950 . S
C5871 C5869 1.387 . S
C5871 C5873 1.390 . S
C5871 H5875 0.950 . S
H5872 C5868 0.950 . S
C5873 C5871 1.390 . S
C5873 C5874 1.387 . S
C5873 H5876 0.950 . S
C5874 C5873 1.387 . S
C5874 C5877 1.387 . S
H5875 C5871 0.950 . S
H5876 C5873 0.950 . S
C5877 C5868 1.390 . S
C5877 H5870 0.950 . S
C5877 C5874 1.387 . S
C5878 C5879 1.387 1_565 S
C5878 H5882 0.950 . S
C5878 C5887 1.390 . S
C5879 C5878 1.387 1_545 S
C5879 C5881 1.387 . S
H5880 C5887 0.950 . S
C5881 C5879 1.387 . S
C5881 C5883 1.390 . S
C5881 H5885 0.950 . S
H5882 C5878 0.950 . S
C5883 C5881 1.390 . S
C5883 C5884 1.387 1_545 S
C5883 H5886 0.950 . S
C5884 C5883 1.387 1_565 S
C5884 C5887 1.387 . S
H5885 C5881 0.950 . S
H5886 C5883 0.950 . S
C5887 C5878 1.390 . S
C5887 H5880 0.950 . S
C5887 C5884 1.387 . S
C5888 C5889 1.387 . S
C5888 H5892 0.950 . S
C5888 C5897 1.427 . S
C5889 C5888 1.387 . S
C5889 C5891 1.349 1_545 S
H5890 C5897 0.956 . S
C5891 C5889 1.349 1_565 S
C5891 C5893 1.427 . S
C5891 H5895 0.956 . S
H5892 C5888 0.950 . S
C5893 C5891 1.427 . S
C5893 C5894 1.387 . S
C5893 H5896 0.950 . S
C5894 C5893 1.387 . S
C5894 C5897 1.349 1_565 S
H5895 C5891 0.956 . S
H5896 C5893 0.950 . S
C5897 C5888 1.427 . S
C5897 H5890 0.956 . S
C5897 C5894 1.349 1_545 S
C5898 C5899 1.387 1_455 S
C5898 H5902 0.950 . S
C5898 C5907 1.390 . S
C5899 C5898 1.387 1_655 S
C5899 C5901 1.387 . S
H5900 C5907 0.950 . S
C5901 C5899 1.387 . S
C5901 C5903 1.390 . S
C5901 H5905 0.950 . S
H5902 C5898 0.950 . S
C5903 C5901 1.390 . S
C5903 C5904 1.387 1_655 S
C5903 H5906 0.950 . S
C5904 C5903 1.387 1_455 S
C5904 C5907 1.387 . S
H5905 C5901 0.950 . S
H5906 C5903 0.950 . S
C5907 C5898 1.390 . S
C5907 H5900 0.950 . S
C5907 C5904 1.387 . S
C5908 C5909 1.387 . S
C5908 H5912 0.950 . S
C5908 C5917 1.390 . S
C5909 C5908 1.387 . S
C5909 C5911 1.387 . S
H5910 C5917 0.950 . S
C5911 C5909 1.387 . S
C5911 C5913 1.390 . S
C5911 H5915 0.950 . S
H5912 C5908 0.950 . S
C5913 C5911 1.390 . S
C5913 C5914 1.387 . S
C5913 H5916 0.950 . S
C5914 C5913 1.387 . S
C5914 C5917 1.387 . S
H5915 C5911 0.950 . S
H5916 C5913 0.950 . S
C5917 C5908 1.390 . S
C5917 H5910 0.950 . S
C5917 C5914 1.387 . S
C5918 C5919 1.387 . S
C5918 H5922 0.950 . S
C5918 C5927 1.390 . S
C5919 C5918 1.387 . S
C5919 C5921 1.387 . S
H5920 C5927 0.950 . S
C5921 C5919 1.387 . S
C5921 C5923 1.390 . S
C5921 H5925 0.950 . S
H5922 C5918 0.950 . S
C5923 C5921 1.390 . S
C5923 C5924 1.387 . S
C5923 H5926 0.950 . S
C5924 C5923 1.387 . S
C5924 C5927 1.387 . S
H5925 C5921 0.950 . S
H5926 C5923 0.950 . S
C5927 C5918 1.390 . S
C5927 H5920 0.950 . S
C5927 C5924 1.387 . S
C5928 C5929 1.387 . S
C5928 H5932 0.950 . S
C5928 C5937 1.390 . S
C5929 C5928 1.387 . S
C5929 C5931 1.387 . S
H5930 C5937 0.950 . S
C5931 C5929 1.387 . S
C5931 C5933 1.390 . S
C5931 H5935 0.950 . S
H5932 C5928 0.950 . S
C5933 C5931 1.390 . S
C5933 C5934 1.387 . S
C5933 H5936 0.950 . S
C5934 C5933 1.387 . S
C5934 C5937 1.387 . S
H5935 C5931 0.950 . S
H5936 C5933 0.950 . S
C5937 C5928 1.390 . S
C5937 H5930 0.950 . S
C5937 C5934 1.387 . S
C5938 C5939 1.387 . S
C5938 H5942 0.950 . S
C5938 C5947 1.390 . S
C5939 C5938 1.387 . S
C5939 C5941 1.387 . S
H5940 C5947 0.950 . S
C5941 C5939 1.387 . S
C5941 C5943 1.390 . S
C5941 H5945 0.950 . S
H5942 C5938 0.950 . S
C5943 C5941 1.390 . S
C5943 C5944 1.387 . S
C5943 H5946 0.950 . S
C5944 C5943 1.387 . S
C5944 C5947 1.387 . S
H5945 C5941 0.950 . S
H5946 C5943 0.950 . S
C5947 C5938 1.390 . S
C5947 H5940 0.950 . S
C5947 C5944 1.387 . S
C5948 C5949 1.387 . S
C5948 H5952 0.950 . S
C5948 C5957 1.390 . S
C5949 C5948 1.387 . S
C5949 C5951 1.387 1_545 S
H5950 C5957 0.950 . S
C5951 C5949 1.387 1_565 S
C5951 C5953 1.390 . S
C5951 H5955 0.950 . S
H5952 C5948 0.950 . S
C5953 C5951 1.390 . S
C5953 C5954 1.387 . S
C5953 H5956 0.950 . S
C5954 C5953 1.387 . S
C5954 C5957 1.387 1_565 S
H5955 C5951 0.950 . S
H5956 C5953 0.950 . S
C5957 C5948 1.390 . S
C5957 H5950 0.950 . S
C5957 C5954 1.387 1_545 S
C5958 C5959 1.387 1_655 S
C5958 H5962 0.950 . S
C5958 C5967 1.390 . S
C5959 C5958 1.387 1_455 S
C5959 C5961 1.387 . S
H5960 C5967 0.950 . S
C5961 C5959 1.387 . S
C5961 C5963 1.390 . S
C5961 H5965 0.950 . S
H5962 C5958 0.950 . S
C5963 C5961 1.390 . S
C5963 C5964 1.387 1_455 S
C5963 H5966 0.950 . S
C5964 C5963 1.387 1_655 S
C5964 C5967 1.387 . S
H5965 C5961 0.950 . S
H5966 C5963 0.950 . S
C5967 C5958 1.390 . S
C5967 H5960 0.950 . S
C5967 C5964 1.387 . S
C5968 C5969 1.387 . S
C5968 H5972 0.950 . S
C5968 C5977 1.390 . S
C5969 C5968 1.387 . S
C5969 C5971 1.387 1_554 S
H5970 C5977 0.950 . S
C5971 C5969 1.387 1_556 S
C5971 C5973 1.390 . S
C5971 H5975 0.950 . S
H5972 C5968 0.950 . S
C5973 C5971 1.390 . S
C5973 C5974 1.387 . S
C5973 H5976 0.950 . S
C5974 C5973 1.387 . S
C5974 C5977 1.387 1_556 S
H5975 C5971 0.950 . S
H5976 C5973 0.950 . S
C5977 C5968 1.390 . S
C5977 H5970 0.950 . S
C5977 C5974 1.387 1_554 S
C5978 C5979 1.387 . S
C5978 H5982 0.950 . S
C5978 C5987 1.390 . S
C5979 C5978 1.387 . S
C5979 C5981 1.387 . S
H5980 C5987 0.950 . S
C5981 C5979 1.387 . S
C5981 C5983 1.390 . S
C5981 H5985 0.950 . S
H5982 C5978 0.950 . S
C5983 C5981 1.390 . S
C5983 C5984 1.387 . S
C5983 H5986 0.950 . S
C5984 C5983 1.387 . S
C5984 C5987 1.387 . S
H5985 C5981 0.950 . S
H5986 C5983 0.950 . S
C5987 C5978 1.390 . S
C5987 H5980 0.950 . S
C5987 C5984 1.387 . S
C5988 C5989 1.387 . S
C5988 H5992 0.950 . S
C5988 C5997 1.390 . S
C5989 C5988 1.387 . S
C5989 C5991 1.387 . S
H5990 C5997 0.950 . S
C5991 C5989 1.387 . S
C5991 C5993 1.390 . S
C5991 H5995 0.950 . S
H5992 C5988 0.950 . S
C5993 C5991 1.390 . S
C5993 C5994 1.387 . S
C5993 H5996 0.950 . S
C5994 C5993 1.387 . S
C5994 C5997 1.387 . S
H5995 C5991 0.950 . S
H5996 C5993 0.950 . S
C5997 C5988 1.390 . S
C5997 H5990 0.950 . S
C5997 C5994 1.387 . S
C5998 C5999 1.387 . S
C5998 H6002 0.950 . S
C5998 C6007 1.390 . S
C5999 C5998 1.387 . S
C5999 C6001 1.387 . S
H6000 C6007 0.950 . S
C6001 C5999 1.387 . S
C6001 C6003 1.390 . S
C6001 H6005 0.950 . S
H6002 C5998 0.950 . S
C6003 C6001 1.390 . S
C6003 C6004 1.387 . S
C6003 H6006 0.950 . S
C6004 C6003 1.387 . S
C6004 C6007 1.387 . S
H6005 C6001 0.950 . S
H6006 C6003 0.950 . S
C6007 C5998 1.390 . S
C6007 H6000 0.950 . S
C6007 C6004 1.387 . S
C6008 C6009 1.387 . S
C6008 H6012 0.950 . S
C6008 C6017 1.390 . S
C6009 C6008 1.387 . S
C6009 C6011 1.387 . S
H6010 C6017 0.950 . S
C6011 C6009 1.387 . S
C6011 C6013 1.390 . S
C6011 H6015 0.950 . S
H6012 C6008 0.950 . S
C6013 C6011 1.390 . S
C6013 C6014 1.387 . S
C6013 H6016 0.950 . S
C6014 C6013 1.387 . S
C6014 C6017 1.387 . S
H6015 C6011 0.950 . S
H6016 C6013 0.950 . S
C6017 C6008 1.390 . S
C6017 H6010 0.950 . S
C6017 C6014 1.387 . S
C6018 C6019 1.387 . S
C6018 H6022 0.950 . S
C6018 C6027 1.390 1_556 S
C6019 C6018 1.387 . S
C6019 C6021 1.387 . S
H6020 C6027 0.950 . S
C6021 C6019 1.387 . S
C6021 C6023 1.390 1_556 S
C6021 H6025 0.950 . S
H6022 C6018 0.950 . S
C6023 C6021 1.390 1_554 S
C6023 C6024 1.387 . S
C6023 H6026 0.950 . S
C6024 C6023 1.387 . S
C6024 C6027 1.387 . S
H6025 C6021 0.950 . S
H6026 C6023 0.950 . S
C6027 C6018 1.390 1_554 S
C6027 H6020 0.950 . S
C6027 C6024 1.387 . S
C6028 C6029 1.387 . S
C6028 H6032 0.950 . S
C6028 C6037 1.390 . S
C6029 C6028 1.387 . S
C6029 C6031 1.387 . S
H6030 C6037 0.950 . S
C6031 C6029 1.387 . S
C6031 C6033 1.390 . S
C6031 H6035 0.950 . S
H6032 C6028 0.950 . S
C6033 C6031 1.390 . S
C6033 C6034 1.387 . S
C6033 H6036 0.950 . S
C6034 C6033 1.387 . S
C6034 C6037 1.387 . S
H6035 C6031 0.950 . S
H6036 C6033 0.950 . S
C6037 C6028 1.390 . S
C6037 H6030 0.950 . S
C6037 C6034 1.387 . S
C6038 C6039 1.387 . S
C6038 H6042 0.950 . S
C6038 C6047 1.390 . S
C6039 C6038 1.387 . S
C6039 C6041 1.387 . S
H6040 C6047 0.950 . S
C6041 C6039 1.387 . S
C6041 C6043 1.390 . S
C6041 H6045 0.950 . S
H6042 C6038 0.950 . S
C6043 C6041 1.390 . S
C6043 C6044 1.387 . S
C6043 H6046 0.950 . S
C6044 C6043 1.387 . S
C6044 C6047 1.387 . S
H6045 C6041 0.950 . S
H6046 C6043 0.950 . S
C6047 C6038 1.390 . S
C6047 H6040 0.950 . S
C6047 C6044 1.387 . S
C6048 C6049 1.387 . S
C6048 H6052 0.950 . S
C6048 C6057 1.390 . S
C6049 C6048 1.387 . S
C6049 C6051 1.387 . S
H6050 C6057 0.950 . S
C6051 C6049 1.387 . S
C6051 C6053 1.390 . S
C6051 H6055 0.950 . S
H6052 C6048 0.950 . S
C6053 C6051 1.390 . S
C6053 C6054 1.387 . S
C6053 H6056 0.950 . S
C6054 C6053 1.387 . S
C6054 C6057 1.387 . S
H6055 C6051 0.950 . S
H6056 C6053 0.950 . S
C6057 C6048 1.390 . S
C6057 H6050 0.950 . S
C6057 C6054 1.387 . S
C6058 C6059 1.387 . S
C6058 H6062 0.950 . S
C6058 C6067 1.390 . S
C6059 C6058 1.387 . S
C6059 C6061 1.387 . S
H6060 C6067 0.950 . S
C6061 C6059 1.387 . S
C6061 C6063 1.390 . S
C6061 H6065 0.950 . S
H6062 C6058 0.950 . S
C6063 C6061 1.390 . S
C6063 C6064 1.387 . S
C6063 H6066 0.950 . S
C6064 C6063 1.387 . S
C6064 C6067 1.387 . S
H6065 C6061 0.950 . S
H6066 C6063 0.950 . S
C6067 C6058 1.390 . S
C6067 H6060 0.950 . S
C6067 C6064 1.387 . S
C6068 C6069 1.387 . S
C6068 H6072 0.950 . S
C6068 C6077 1.390 . S
C6069 C6068 1.387 . S
C6069 C6071 1.387 . S
H6070 C6077 0.950 . S
C6071 C6069 1.387 . S
C6071 C6073 1.390 . S
C6071 H6075 0.950 . S
H6072 C6068 0.950 . S
C6073 C6071 1.390 . S
C6073 C6074 1.387 . S
C6073 H6076 0.950 . S
C6074 C6073 1.387 . S
C6074 C6077 1.387 . S
H6075 C6071 0.950 . S
H6076 C6073 0.950 . S
C6077 C6068 1.390 . S
C6077 H6070 0.950 . S
C6077 C6074 1.387 . S
C6078 C6079 1.387 . S
C6078 H6082 0.950 . S
C6078 C6087 1.390 . S
C6079 C6078 1.387 . S
C6079 C6081 1.387 . S
H6080 C6087 0.950 . S
C6081 C6079 1.387 . S
C6081 C6083 1.390 . S
C6081 H6085 0.950 . S
H6082 C6078 0.950 . S
C6083 C6081 1.390 . S
C6083 C6084 1.387 . S
C6083 H6086 0.950 . S
C6084 C6083 1.387 . S
C6084 C6087 1.387 . S
H6085 C6081 0.950 . S
H6086 C6083 0.950 . S
C6087 C6078 1.390 . S
C6087 H6080 0.950 . S
C6087 C6084 1.387 . S
C6088 C6089 1.387 . S
C6088 H6092 0.950 . S
C6088 C6097 1.390 . S
C6089 C6088 1.387 . S
C6089 C6091 1.387 . S
H6090 C6097 0.950 . S
C6091 C6089 1.387 . S
C6091 C6093 1.390 . S
C6091 H6095 0.950 . S
H6092 C6088 0.950 . S
C6093 C6091 1.390 . S
C6093 C6094 1.387 . S
C6093 H6096 0.950 . S
C6094 C6093 1.387 . S
C6094 C6097 1.387 . S
H6095 C6091 0.950 . S
H6096 C6093 0.950 . S
C6097 C6088 1.390 . S
C6097 H6090 0.950 . S
C6097 C6094 1.387 . S
C6098 C6099 1.387 . S
C6098 H6102 0.950 . S
C6098 C6107 1.390 . S
C6099 C6098 1.387 . S
C6099 C6101 1.387 . S
H6100 C6107 0.950 . S
C6101 C6099 1.387 . S
C6101 C6103 1.390 . S
C6101 H6105 0.950 . S
H6102 C6098 0.950 . S
C6103 C6101 1.390 . S
C6103 C6104 1.387 . S
C6103 H6106 0.950 . S
C6104 C6103 1.387 . S
C6104 C6107 1.387 . S
H6105 C6101 0.950 . S
H6106 C6103 0.950 . S
C6107 C6098 1.390 . S
C6107 H6100 0.950 . S
C6107 C6104 1.387 . S
C6108 C6109 1.387 . S
C6108 H6112 0.950 . S
C6108 C6117 1.390 . S
C6109 C6108 1.387 . S
C6109 C6111 1.387 . S
H6110 C6117 0.950 . S
C6111 C6109 1.387 . S
C6111 C6113 1.390 . S
C6111 H6115 0.950 . S
H6112 C6108 0.950 . S
C6113 C6111 1.390 . S
C6113 C6114 1.387 . S
C6113 H6116 0.950 . S
C6114 C6113 1.387 . S
C6114 C6117 1.387 . S
H6115 C6111 0.950 . S
H6116 C6113 0.950 . S
C6117 C6108 1.390 . S
C6117 H6110 0.950 . S
C6117 C6114 1.387 . S
C6118 C6119 1.387 . S
C6118 H6122 0.950 . S
C6118 C6127 1.390 . S
C6119 C6118 1.387 . S
C6119 C6121 1.387 . S
H6120 C6127 0.950 . S
C6121 C6119 1.387 . S
C6121 C6123 1.390 . S
C6121 H6125 0.950 . S
H6122 C6118 0.950 . S
C6123 C6121 1.390 . S
C6123 C6124 1.387 . S
C6123 H6126 0.950 . S
C6124 C6123 1.387 . S
C6124 C6127 1.387 . S
H6125 C6121 0.950 . S
H6126 C6123 0.950 . S
C6127 C6118 1.390 . S
C6127 H6120 0.950 . S
C6127 C6124 1.387 . S
C6128 C6129 1.387 . S
C6128 H6132 0.950 . S
C6128 C6137 1.390 . S
C6129 C6128 1.387 . S
C6129 C6131 1.387 . S
H6130 C6137 0.950 . S
C6131 C6129 1.387 . S
C6131 C6133 1.390 . S
C6131 H6135 0.950 . S
H6132 C6128 0.950 . S
C6133 C6131 1.390 . S
C6133 C6134 1.387 . S
C6133 H6136 0.950 . S
C6134 C6133 1.387 . S
C6134 C6137 1.387 . S
H6135 C6131 0.950 . S
H6136 C6133 0.950 . S
C6137 C6128 1.390 . S
C6137 H6130 0.950 . S
C6137 C6134 1.387 . S
C6138 C6139 1.387 . S
C6138 H6142 0.950 . S
C6138 C6147 1.390 . S
C6139 C6138 1.387 . S
C6139 C6141 1.387 . S
H6140 C6147 0.950 . S
C6141 C6139 1.387 . S
C6141 C6143 1.390 . S
C6141 H6145 0.950 . S
H6142 C6138 0.950 . S
C6143 C6141 1.390 . S
C6143 C6144 1.387 . S
C6143 H6146 0.950 . S
C6144 C6143 1.387 . S
C6144 C6147 1.387 . S
H6145 C6141 0.950 . S
H6146 C6143 0.950 . S
C6147 C6138 1.390 . S
C6147 H6140 0.950 . S
C6147 C6144 1.387 . S
C6148 C6149 1.387 1_554 S
C6148 H6152 0.950 . S
C6148 C6157 1.390 . S
C6149 C6148 1.387 1_556 S
C6149 C6151 1.387 . S
H6150 C6157 0.950 . S
C6151 C6149 1.387 . S
C6151 C6153 1.390 . S
C6151 H6155 0.950 . S
H6152 C6148 0.950 . S
C6153 C6151 1.390 . S
C6153 C6154 1.387 1_556 S
C6153 H6156 0.950 . S
C6154 C6153 1.387 1_554 S
C6154 C6157 1.387 . S
H6155 C6151 0.950 . S
H6156 C6153 0.950 . S
C6157 C6148 1.390 . S
C6157 H6150 0.950 . S
C6157 C6154 1.387 . S
C6158 C6159 1.387 . S
C6158 H6162 0.950 . S
C6158 C6167 1.390 . S
C6159 C6158 1.387 . S
C6159 C6161 1.387 . S
H6160 C6167 0.950 . S
C6161 C6159 1.387 . S
C6161 C6163 1.390 . S
C6161 H6165 0.950 . S
H6162 C6158 0.950 . S
C6163 C6161 1.390 . S
C6163 C6164 1.387 . S
C6163 H6166 0.950 . S
C6164 C6163 1.387 . S
C6164 C6167 1.387 . S
H6165 C6161 0.950 . S
H6166 C6163 0.950 . S
C6167 C6158 1.390 . S
C6167 H6160 0.950 . S
C6167 C6164 1.387 . S
C6168 C6169 1.387 . S
C6168 H6172 0.950 . S
C6168 C6177 1.390 . S
C6169 C6168 1.387 . S
C6169 C6171 1.387 1_554 S
H6170 C6177 0.950 . S
C6171 C6169 1.387 1_556 S
C6171 C6173 1.390 . S
C6171 H6175 0.950 . S
H6172 C6168 0.950 . S
C6173 C6171 1.390 . S
C6173 C6174 1.387 . S
C6173 H6176 0.950 . S
C6174 C6173 1.387 . S
C6174 C6177 1.387 1_556 S
H6175 C6171 0.950 . S
H6176 C6173 0.950 . S
C6177 C6168 1.390 . S
C6177 H6170 0.950 . S
C6177 C6174 1.387 1_554 S
C6178 C6179 1.387 . S
C6178 H6182 0.950 . S
C6178 C6187 1.390 . S
C6179 C6178 1.387 . S
C6179 C6181 1.387 . S
H6180 C6187 0.950 . S
C6181 C6179 1.387 . S
C6181 C6183 1.390 . S
C6181 H6185 0.950 . S
H6182 C6178 0.950 . S
C6183 C6181 1.390 . S
C6183 C6184 1.387 . S
C6183 H6186 0.950 . S
C6184 C6183 1.387 . S
C6184 C6187 1.387 . S
H6185 C6181 0.950 . S
H6186 C6183 0.950 . S
C6187 C6178 1.390 . S
C6187 H6180 0.950 . S
C6187 C6184 1.387 . S
C6188 C6189 1.387 . S
C6188 H6192 0.950 . S
C6188 C6197 1.390 . S
C6189 C6188 1.387 . S
C6189 C6191 1.387 . S
H6190 C6197 0.950 . S
C6191 C6189 1.387 . S
C6191 C6193 1.390 . S
C6191 H6195 0.950 . S
H6192 C6188 0.950 . S
C6193 C6191 1.390 . S
C6193 C6194 1.387 . S
C6193 H6196 0.950 . S
C6194 C6193 1.387 . S
C6194 C6197 1.387 . S
H6195 C6191 0.950 . S
H6196 C6193 0.950 . S
C6197 C6188 1.390 . S
C6197 H6190 0.950 . S
C6197 C6194 1.387 . S
C6198 C6199 1.387 . S
C6198 H6202 0.950 . S
C6198 C6207 1.390 . S
C6199 C6198 1.387 . S
C6199 C6201 1.387 . S
H6200 C6207 0.950 . S
C6201 C6199 1.387 . S
C6201 C6203 1.390 . S
C6201 H6205 0.950 . S
H6202 C6198 0.950 . S
C6203 C6201 1.390 . S
C6203 C6204 1.387 . S
C6203 H6206 0.950 . S
C6204 C6203 1.387 . S
C6204 C6207 1.387 . S
H6205 C6201 0.950 . S
H6206 C6203 0.950 . S
C6207 C6198 1.390 . S
C6207 H6200 0.950 . S
C6207 C6204 1.387 . S
C6208 C6209 1.387 . S
C6208 H6212 0.950 . S
C6208 C6217 1.390 . S
C6209 C6208 1.387 . S
C6209 C6211 1.387 . S
H6210 C6217 0.950 . S
C6211 C6209 1.387 . S
C6211 C6213 1.390 . S
C6211 H6215 0.950 . S
H6212 C6208 0.950 . S
C6213 C6211 1.390 . S
C6213 C6214 1.387 . S
C6213 H6216 0.950 . S
C6214 C6213 1.387 . S
C6214 C6217 1.387 . S
H6215 C6211 0.950 . S
H6216 C6213 0.950 . S
C6217 C6208 1.390 . S
C6217 H6210 0.950 . S
C6217 C6214 1.387 . S
C6218 C6219 1.387 . S
C6218 H6222 0.950 . S
C6218 C6227 1.390 . S
C6219 C6218 1.387 . S
C6219 C6221 1.387 . S
H6220 C6227 0.950 . S
C6221 C6219 1.387 . S
C6221 C6223 1.390 . S
C6221 H6225 0.950 . S
H6222 C6218 0.950 . S
C6223 C6221 1.390 . S
C6223 C6224 1.387 . S
C6223 H6226 0.950 . S
C6224 C6223 1.387 . S
C6224 C6227 1.387 . S
H6225 C6221 0.950 . S
H6226 C6223 0.950 . S
C6227 C6218 1.390 . S
C6227 H6220 0.950 . S
C6227 C6224 1.387 . S
C6228 C6229 1.387 . S
C6228 H6232 0.950 . S
C6228 C6237 1.390 . S
C6229 C6228 1.387 . S
C6229 C6231 1.387 . S
H6230 C6237 0.950 . S
C6231 C6229 1.387 . S
C6231 C6233 1.390 . S
C6231 H6235 0.950 . S
H6232 C6228 0.950 . S
C6233 C6231 1.390 . S
C6233 C6234 1.387 . S
C6233 H6236 0.950 . S
C6234 C6233 1.387 . S
C6234 C6237 1.387 . S
H6235 C6231 0.950 . S
H6236 C6233 0.950 . S
C6237 C6228 1.390 . S
C6237 H6230 0.950 . S
C6237 C6234 1.387 . S
C6238 C6239 1.387 . S
C6238 H6242 0.950 . S
C6238 C6247 1.390 . S
C6239 C6238 1.387 . S
C6239 C6241 1.387 . S
H6240 C6247 0.950 . S
C6241 C6239 1.387 . S
C6241 C6243 1.390 . S
C6241 H6245 0.950 . S
H6242 C6238 0.950 . S
C6243 C6241 1.390 . S
C6243 C6244 1.387 . S
C6243 H6246 0.950 . S
C6244 C6243 1.387 . S
C6244 C6247 1.387 . S
H6245 C6241 0.950 . S
H6246 C6243 0.950 . S
C6247 C6238 1.390 . S
C6247 H6240 0.950 . S
C6247 C6244 1.387 . S
C6248 C6249 1.387 . S
C6248 H6252 0.950 . S
C6248 C6257 1.390 . S
C6249 C6248 1.387 . S
C6249 C6251 1.387 . S
H6250 C6257 0.950 . S
C6251 C6249 1.387 . S
C6251 C6253 1.390 . S
C6251 H6255 0.950 . S
H6252 C6248 0.950 . S
C6253 C6251 1.390 . S
C6253 C6254 1.387 . S
C6253 H6256 0.950 . S
C6254 C6253 1.387 . S
C6254 C6257 1.387 . S
H6255 C6251 0.950 . S
H6256 C6253 0.950 . S
C6257 C6248 1.390 . S
C6257 H6250 0.950 . S
C6257 C6254 1.387 . S
C6258 C6259 1.387 . S
C6258 H6262 0.950 . S
C6258 C6267 1.390 . S
C6259 C6258 1.387 . S
C6259 C6261 1.387 . S
H6260 C6267 0.950 . S
C6261 C6259 1.387 . S
C6261 C6263 1.390 . S
C6261 H6265 0.950 . S
H6262 C6258 0.950 . S
C6263 C6261 1.390 . S
C6263 C6264 1.387 . S
C6263 H6266 0.950 . S
C6264 C6263 1.387 . S
C6264 C6267 1.387 . S
H6265 C6261 0.950 . S
H6266 C6263 0.950 . S
C6267 C6258 1.390 . S
C6267 H6260 0.950 . S
C6267 C6264 1.387 . S
C6268 C6269 1.387 . S
C6268 H6272 0.950 . S
C6268 C6277 1.390 . S
C6269 C6268 1.387 . S
C6269 C6271 1.387 . S
H6270 C6277 0.950 . S
C6271 C6269 1.387 . S
C6271 C6273 1.390 . S
C6271 H6275 0.950 . S
H6272 C6268 0.950 . S
C6273 C6271 1.390 . S
C6273 C6274 1.387 . S
C6273 H6276 0.950 . S
C6274 C6273 1.387 . S
C6274 C6277 1.387 . S
H6275 C6271 0.950 . S
H6276 C6273 0.950 . S
C6277 C6268 1.390 . S
C6277 H6270 0.950 . S
C6277 C6274 1.387 . S
C6278 C6279 1.387 . S
C6278 H6282 0.950 . S
C6278 C6287 1.390 . S
C6279 C6278 1.387 . S
C6279 C6281 1.387 . S
H6280 C6287 0.950 . S
C6281 C6279 1.387 . S
C6281 C6283 1.390 . S
C6281 H6285 0.950 . S
H6282 C6278 0.950 . S
C6283 C6281 1.390 . S
C6283 C6284 1.387 . S
C6283 H6286 0.950 . S
C6284 C6283 1.387 . S
C6284 C6287 1.387 . S
H6285 C6281 0.950 . S
H6286 C6283 0.950 . S
C6287 C6278 1.390 . S
C6287 H6280 0.950 . S
C6287 C6284 1.387 . S
C6288 C6289 1.387 . S
C6288 H6292 0.950 . S
C6288 C6297 1.390 . S
C6289 C6288 1.387 . S
C6289 C6291 1.387 . S
H6290 C6297 0.950 . S
C6291 C6289 1.387 . S
C6291 C6293 1.390 . S
C6291 H6295 0.950 . S
H6292 C6288 0.950 . S
C6293 C6291 1.390 . S
C6293 C6294 1.387 . S
C6293 H6296 0.950 . S
C6294 C6293 1.387 . S
C6294 C6297 1.387 . S
H6295 C6291 0.950 . S
H6296 C6293 0.950 . S
C6297 C6288 1.390 . S
C6297 H6290 0.950 . S
C6297 C6294 1.387 . S
C6298 C6299 1.387 . S
C6298 H6302 0.950 . S
C6298 C6307 1.390 . S
C6299 C6298 1.387 . S
C6299 C6301 1.387 . S
H6300 C6307 0.950 . S
C6301 C6299 1.387 . S
C6301 C6303 1.390 . S
C6301 H6305 0.950 . S
H6302 C6298 0.950 . S
C6303 C6301 1.390 . S
C6303 C6304 1.387 . S
C6303 H6306 0.950 . S
C6304 C6303 1.387 . S
C6304 C6307 1.387 . S
H6305 C6301 0.950 . S
H6306 C6303 0.950 . S
C6307 C6298 1.390 . S
C6307 H6300 0.950 . S
C6307 C6304 1.387 . S
C6308 C6309 1.387 . S
C6308 H6312 0.950 . S
C6308 C6317 1.390 . S
C6309 C6308 1.387 . S
C6309 C6311 1.387 1_554 S
H6310 C6317 0.950 . S
C6311 C6309 1.387 1_556 S
C6311 C6313 1.390 . S
C6311 H6315 0.950 . S
H6312 C6308 0.950 . S
C6313 C6311 1.390 . S
C6313 C6314 1.387 . S
C6313 H6316 0.950 . S
C6314 C6313 1.387 . S
C6314 C6317 1.387 1_556 S
H6315 C6311 0.950 . S
H6316 C6313 0.950 . S
C6317 C6308 1.390 . S
C6317 H6310 0.950 . S
C6317 C6314 1.387 1_554 S
C6318 C6319 1.387 . S
C6318 H6322 0.950 . S
C6318 C6327 1.390 . S
C6319 C6318 1.387 . S
C6319 C6321 1.387 . S
H6320 C6327 0.950 . S
C6321 C6319 1.387 . S
C6321 C6323 1.390 . S
C6321 H6325 0.950 . S
H6322 C6318 0.950 . S
C6323 C6321 1.390 . S
C6323 C6324 1.387 . S
C6323 H6326 0.950 . S
C6324 C6323 1.387 . S
C6324 C6327 1.387 . S
H6325 C6321 0.950 . S
H6326 C6323 0.950 . S
C6327 C6318 1.390 . S
C6327 H6320 0.950 . S
C6327 C6324 1.387 . S
C6328 C6329 1.387 . S
C6328 H6332 0.950 . S
C6328 C6337 1.390 . S
C6329 C6328 1.387 . S
C6329 C6331 1.387 1_554 S
H6330 C6337 0.950 . S
C6331 C6329 1.387 1_556 S
C6331 C6333 1.390 . S
C6331 H6335 0.950 . S
H6332 C6328 0.950 . S
C6333 C6331 1.390 . S
C6333 C6334 1.387 . S
C6333 H6336 0.950 . S
C6334 C6333 1.387 . S
C6334 C6337 1.387 1_556 S
H6335 C6331 0.950 . S
H6336 C6333 0.950 . S
C6337 C6328 1.390 . S
C6337 H6330 0.950 . S
C6337 C6334 1.387 1_554 S
C6338 C6339 1.387 . S
C6338 H6342 0.950 . S
C6338 C6347 1.390 . S
C6339 C6338 1.387 . S
C6339 C6341 1.387 . S
H6340 C6347 0.950 . S
C6341 C6339 1.387 . S
C6341 C6343 1.390 . S
C6341 H6345 0.950 . S
H6342 C6338 0.950 . S
C6343 C6341 1.390 . S
C6343 C6344 1.387 . S
C6343 H6346 0.950 . S
C6344 C6343 1.387 . S
C6344 C6347 1.387 . S
H6345 C6341 0.950 . S
H6346 C6343 0.950 . S
C6347 C6338 1.390 . S
C6347 H6340 0.950 . S
C6347 C6344 1.387 . S
C6348 C6349 1.387 . S
C6348 H6352 0.950 . S
C6348 C6357 1.390 . S
C6349 C6348 1.387 . S
C6349 C6351 1.387 . S
H6350 C6357 0.950 . S
C6351 C6349 1.387 . S
C6351 C6353 1.390 . S
C6351 H6355 0.950 . S
H6352 C6348 0.950 . S
C6353 C6351 1.390 . S
C6353 C6354 1.387 . S
C6353 H6356 0.950 . S
C6354 C6353 1.387 . S
C6354 C6357 1.387 . S
H6355 C6351 0.950 . S
H6356 C6353 0.950 . S
C6357 C6348 1.390 . S
C6357 H6350 0.950 . S
C6357 C6354 1.387 . S
C6358 C6359 1.387 . S
C6358 H6362 0.950 . S
C6358 C6367 1.390 . S
C6359 C6358 1.387 . S
C6359 C6361 1.387 . S
H6360 C6367 0.950 . S
C6361 C6359 1.387 . S
C6361 C6363 1.390 . S
C6361 H6365 0.950 . S
H6362 C6358 0.950 . S
C6363 C6361 1.390 . S
C6363 C6364 1.387 . S
C6363 H6366 0.950 . S
C6364 C6363 1.387 . S
C6364 C6367 1.387 . S
H6365 C6361 0.950 . S
H6366 C6363 0.950 . S
C6367 C6358 1.390 . S
C6367 H6360 0.950 . S
C6367 C6364 1.387 . S
C6368 C6369 1.387 . S
C6368 H6372 0.950 . S
C6368 C6377 1.390 . S
C6369 C6368 1.387 . S
C6369 C6371 1.387 . S
H6370 C6377 0.950 . S
C6371 C6369 1.387 . S
C6371 C6373 1.390 . S
C6371 H6375 0.950 . S
H6372 C6368 0.950 . S
C6373 C6371 1.390 . S
C6373 C6374 1.387 . S
C6373 H6376 0.950 . S
C6374 C6373 1.387 . S
C6374 C6377 1.387 . S
H6375 C6371 0.950 . S
H6376 C6373 0.950 . S
C6377 C6368 1.390 . S
C6377 H6370 0.950 . S
C6377 C6374 1.387 . S
C6378 C6379 1.387 . S
C6378 H6382 0.950 . S
C6378 C6387 1.390 . S
C6379 C6378 1.387 . S
C6379 C6381 1.387 . S
H6380 C6387 0.950 . S
C6381 C6379 1.387 . S
C6381 C6383 1.390 . S
C6381 H6385 0.950 . S
H6382 C6378 0.950 . S
C6383 C6381 1.390 . S
C6383 C6384 1.387 . S
C6383 H6386 0.950 . S
C6384 C6383 1.387 . S
C6384 C6387 1.387 . S
H6385 C6381 0.950 . S
H6386 C6383 0.950 . S
C6387 C6378 1.390 . S
C6387 H6380 0.950 . S
C6387 C6384 1.387 . S
C6388 C6389 1.387 . S
C6388 H6392 0.950 . S
C6388 C6397 1.390 . S
C6389 C6388 1.387 . S
C6389 C6391 1.387 . S
H6390 C6397 0.950 . S
C6391 C6389 1.387 . S
C6391 C6393 1.390 . S
C6391 H6395 0.950 . S
H6392 C6388 0.950 . S
C6393 C6391 1.390 . S
C6393 C6394 1.387 . S
C6393 H6396 0.950 . S
C6394 C6393 1.387 . S
C6394 C6397 1.387 . S
H6395 C6391 0.950 . S
H6396 C6393 0.950 . S
C6397 C6388 1.390 . S
C6397 H6390 0.950 . S
C6397 C6394 1.387 . S
C6398 C6399 1.387 . S
C6398 H6402 0.950 . S
C6398 C6407 1.390 . S
C6399 C6398 1.387 . S
C6399 C6401 1.387 . S
H6400 C6407 0.950 . S
C6401 C6399 1.387 . S
C6401 C6403 1.390 . S
C6401 H6405 0.950 . S
H6402 C6398 0.950 . S
C6403 C6401 1.390 . S
C6403 C6404 1.387 . S
C6403 H6406 0.950 . S
C6404 C6403 1.387 . S
C6404 C6407 1.387 . S
H6405 C6401 0.950 . S
H6406 C6403 0.950 . S
C6407 C6398 1.390 . S
C6407 H6400 0.950 . S
C6407 C6404 1.387 . S
C6408 C6409 1.387 . S
C6408 H6412 0.950 . S
C6408 C6417 1.390 . S
C6409 C6408 1.387 . S
C6409 C6411 1.387 . S
H6410 C6417 0.950 . S
C6411 C6409 1.387 . S
C6411 C6413 1.390 . S
C6411 H6415 0.950 . S
H6412 C6408 0.950 . S
C6413 C6411 1.390 . S
C6413 C6414 1.387 . S
C6413 H6416 0.950 . S
C6414 C6413 1.387 . S
C6414 C6417 1.387 . S
H6415 C6411 0.950 . S
H6416 C6413 0.950 . S
C6417 C6408 1.390 . S
C6417 H6410 0.950 . S
C6417 C6414 1.387 . S
C6418 C6419 1.387 . S
C6418 H6422 0.950 . S
C6418 C6427 1.390 . S
C6419 C6418 1.387 . S
C6419 C6421 1.387 . S
H6420 C6427 0.950 . S
C6421 C6419 1.387 . S
C6421 C6423 1.390 . S
C6421 H6425 0.950 . S
H6422 C6418 0.950 . S
C6423 C6421 1.390 . S
C6423 C6424 1.387 . S
C6423 H6426 0.950 . S
C6424 C6423 1.387 . S
C6424 C6427 1.387 . S
H6425 C6421 0.950 . S
H6426 C6423 0.950 . S
C6427 C6418 1.390 . S
C6427 H6420 0.950 . S
C6427 C6424 1.387 . S
C6428 C6429 1.387 . S
C6428 H6432 0.950 . S
C6428 C6437 1.390 . S
C6429 C6428 1.387 . S
C6429 C6431 1.387 . S
H6430 C6437 0.950 . S
C6431 C6429 1.387 . S
C6431 C6433 1.390 . S
C6431 H6435 0.950 . S
H6432 C6428 0.950 . S
C6433 C6431 1.390 . S
C6433 C6434 1.387 . S
C6433 H6436 0.950 . S
C6434 C6433 1.387 . S
C6434 C6437 1.387 . S
H6435 C6431 0.950 . S
H6436 C6433 0.950 . S
C6437 C6428 1.390 . S
C6437 H6430 0.950 . S
C6437 C6434 1.387 . S
C6438 C6439 1.387 . S
C6438 H6442 0.950 . S
C6438 C6447 1.390 . S
C6439 C6438 1.387 . S
C6439 C6441 1.387 . S
H6440 C6447 0.950 . S
C6441 C6439 1.387 . S
C6441 C6443 1.390 . S
C6441 H6445 0.950 . S
H6442 C6438 0.950 . S
C6443 C6441 1.390 . S
C6443 C6444 1.387 . S
C6443 H6446 0.950 . S
C6444 C6443 1.387 . S
C6444 C6447 1.387 . S
H6445 C6441 0.950 . S
H6446 C6443 0.950 . S
C6447 C6438 1.390 . S
C6447 H6440 0.950 . S
C6447 C6444 1.387 . S
C6448 C6449 1.387 . S
C6448 H6452 0.950 . S
C6448 C6457 1.390 . S
C6449 C6448 1.387 . S
C6449 C6451 1.387 . S
H6450 C6457 0.950 . S
C6451 C6449 1.387 . S
C6451 C6453 1.390 . S
C6451 H6455 0.950 . S
H6452 C6448 0.950 . S
C6453 C6451 1.390 . S
C6453 C6454 1.387 . S
C6453 H6456 0.950 . S
C6454 C6453 1.387 . S
C6454 C6457 1.387 . S
H6455 C6451 0.950 . S
H6456 C6453 0.950 . S
C6457 C6448 1.390 . S
C6457 H6450 0.950 . S
C6457 C6454 1.387 . S
C6458 C6459 1.387 . S
C6458 H6462 0.950 . S
C6458 C6467 1.390 . S
C6459 C6458 1.387 . S
C6459 C6461 1.387 . S
H6460 C6467 0.950 . S
C6461 C6459 1.387 . S
C6461 C6463 1.390 . S
C6461 H6465 0.950 . S
H6462 C6458 0.950 . S
C6463 C6461 1.390 . S
C6463 C6464 1.387 . S
C6463 H6466 0.950 . S
C6464 C6463 1.387 . S
C6464 C6467 1.387 . S
H6465 C6461 0.950 . S
H6466 C6463 0.950 . S
C6467 C6458 1.390 . S
C6467 H6460 0.950 . S
C6467 C6464 1.387 . S
C6468 C6469 1.387 . S
C6468 H6472 0.950 . S
C6468 C6477 1.390 . S
C6469 C6468 1.387 . S
C6469 C6471 1.387 . S
H6470 C6477 0.950 . S
C6471 C6469 1.387 . S
C6471 C6473 1.390 . S
C6471 H6475 0.950 . S
H6472 C6468 0.950 . S
C6473 C6471 1.390 . S
C6473 C6474 1.387 . S
C6473 H6476 0.950 . S
C6474 C6473 1.387 . S
C6474 C6477 1.387 . S
H6475 C6471 0.950 . S
H6476 C6473 0.950 . S
C6477 C6468 1.390 . S
C6477 H6470 0.950 . S
C6477 C6474 1.387 . S
C6478 C6479 1.387 . S
C6478 H6482 0.950 . S
C6478 C6487 1.390 . S
C6479 C6478 1.387 . S
C6479 C6481 1.387 . S
H6480 C6487 0.950 . S
C6481 C6479 1.387 . S
C6481 C6483 1.390 . S
C6481 H6485 0.950 . S
H6482 C6478 0.950 . S
C6483 C6481 1.390 . S
C6483 C6484 1.387 . S
C6483 H6486 0.950 . S
C6484 C6483 1.387 . S
C6484 C6487 1.387 . S
H6485 C6481 0.950 . S
H6486 C6483 0.950 . S
C6487 C6478 1.390 . S
C6487 H6480 0.950 . S
C6487 C6484 1.387 . S
C6488 C6489 1.387 . S
C6488 H6492 0.950 . S
C6488 C6497 1.390 . S
C6489 C6488 1.387 . S
C6489 C6491 1.387 . S
H6490 C6497 0.950 . S
C6491 C6489 1.387 . S
C6491 C6493 1.390 . S
C6491 H6495 0.950 . S
H6492 C6488 0.950 . S
C6493 C6491 1.390 . S
C6493 C6494 1.387 . S
C6493 H6496 0.950 . S
C6494 C6493 1.387 . S
C6494 C6497 1.387 . S
H6495 C6491 0.950 . S
H6496 C6493 0.950 . S
C6497 C6488 1.390 . S
C6497 H6490 0.950 . S
C6497 C6494 1.387 . S
C6498 C6499 1.387 . S
C6498 H6502 0.950 . S
C6498 C6507 1.390 . S
C6499 C6498 1.387 . S
C6499 C6501 1.387 . S
H6500 C6507 0.950 . S
C6501 C6499 1.387 . S
C6501 C6503 1.390 . S
C6501 H6505 0.950 . S
H6502 C6498 0.950 . S
C6503 C6501 1.390 . S
C6503 C6504 1.387 . S
C6503 H6506 0.950 . S
C6504 C6503 1.387 . S
C6504 C6507 1.387 . S
H6505 C6501 0.950 . S
H6506 C6503 0.950 . S
C6507 C6498 1.390 . S
C6507 H6500 0.950 . S
C6507 C6504 1.387 . S
C6508 C6509 1.387 . S
C6508 H6512 0.950 . S
C6508 C6517 1.390 . S
C6509 C6508 1.387 . S
C6509 C6511 1.387 . S
H6510 C6517 0.950 . S
C6511 C6509 1.387 . S
C6511 C6513 1.390 . S
C6511 H6515 0.950 . S
H6512 C6508 0.950 . S
C6513 C6511 1.390 . S
C6513 C6514 1.387 . S
C6513 H6516 0.950 . S
C6514 C6513 1.387 . S
C6514 C6517 1.387 . S
H6515 C6511 0.950 . S
H6516 C6513 0.950 . S
C6517 C6508 1.390 . S
C6517 H6510 0.950 . S
C6517 C6514 1.387 . S
C6518 C6519 1.387 . S
C6518 H6522 0.950 . S
C6518 C6527 1.390 . S
C6519 C6518 1.387 . S
C6519 C6521 1.387 . S
H6520 C6527 0.950 . S
C6521 C6519 1.387 . S
C6521 C6523 1.390 . S
C6521 H6525 0.950 . S
H6522 C6518 0.950 . S
C6523 C6521 1.390 . S
C6523 C6524 1.387 . S
C6523 H6526 0.950 . S
C6524 C6523 1.387 . S
C6524 C6527 1.387 . S
H6525 C6521 0.950 . S
H6526 C6523 0.950 . S
C6527 C6518 1.390 . S
C6527 H6520 0.950 . S
C6527 C6524 1.387 . S
C2689 C1089 1.307 . S
C2694 C11 1.309 . S
C2699 C2447 1.307 . S
C2704 C25 1.309 . S
C2709 C1789 1.307 . S
C2714 C39 1.309 . S
C2719 C403 1.307 . S
C2724 C53 1.309 . S
C2729 C67 1.309 . S
C2734 C389 1.307 . S
C2739 C1019 1.307 . S
C2744 C81 1.309 . S
C2749 C2377 1.307 . S
C2754 C95 1.309 . S
C2759 C1719 1.309 . S
C2764 C109 1.307 . S
C2769 C2685 1.309 . S
C2774 C123 1.307 . S
C2779 C1313 1.307 . S
C2784 C137 1.309 . S
C2789 C151 1.309 . S
C2794 C655 1.307 . S
C2799 C571 1.307 . S
C2804 C165 1.309 . S
C2809 C1299 1.307 . S
C2814 C179 1.309 . S
C2819 C193 1.307 . S
C2824 C1929 1.309 . S
C2829 C599 1.309 . S
C2834 C207 1.307 . S
C2839 C221 1.309 . S
C2844 C1285 1.307 . S
C2849 C501 1.309 . S
C2854 C235 1.307 . S
C2859 C249 1.307 . S
C2864 C1873 1.309 . S
C2869 C263 1.307 . S
C2874 C543 1.309 . S
C2879 C1229 1.307 . S
C2884 C277 1.309 . S
C2889 C291 1.307 . S
C2894 C1187 1.309 . S
C2899 C1145 1.307 . S
C2904 C305 1.309 . S
C2909 C319 1.309 . S
C2914 C487 1.307 . S
C2919 C2475 1.307 . S
C2924 C333 1.309 . S
C2929 C347 1.309 . S
C2934 C753 1.307 . S
C2939 C361 1.309 . S
C2944 C2111 1.307 . S
C2949 C1453 1.307 . S
C2954 C375 1.309 . S
C2959 C417 1.309 . S
C2964 C683 1.307 . S
C2969 C431 1.307 . S
C2974 C2041 1.309 . S
C2979 C1383 1.307 . S
C2984 C445 1.309 . S
C2989 C459 1.307 . S
C2994 C2349 1.309 . S
C2999 C977 1.309 . S
C3004 C473 1.307 . S
C3009 C963 1.307 . S
C3014 C515 1.309 . S
C3019 C529 1.307 . S
C3024 C1593 1.309 . S
C3029 C949 1.307 . S
C3034 C557 1.309 . S
C3039 C1537 1.309 . S
C3044 C585 1.307 . S
C3049 C893 1.307 . S
C3054 C613 1.309 . S
C3059 C627 1.309 . S
C3064 C851 1.307 . S
C3069 C641 1.307 . S
C3074 C809 1.309 . S
C3079 C2139 1.309 . S
C3084 C669 1.307 . S
C3089 C1775 1.307 . S
C3094 C697 1.309 . S
C3099 C2461 1.307 . S
C3104 C711 1.309 . S
C3109 C1075 1.309 . S
C3114 C725 1.307 . S
C3119 C1061 1.309 . S
C3124 C739 1.307 . S
C3129 C1705 1.309 . S
C3134 C767 1.307 . S
C3139 C2391 1.307 . S
C3144 C781 1.309 . S
C3149 C795 1.309 . S
C3154 C2013 1.307 . S
C3159 C1327 1.307 . S
C3164 C823 1.309 . S
C3169 C1243 1.309 . S
C3174 C837 1.307 . S
C3179 C865 1.307 . S
C3184 C2601 1.309 . S
C3189 C879 1.309 . S
C3194 C1271 1.307 . S
C3199 C1173 1.307 . S
C3204 C907 1.309 . S
C3209 C921 1.309 . S
C3214 C2545 1.307 . S
C3219 C935 1.309 . S
C3224 C1215 1.307 . S
C3229 C991 1.309 . S
C3234 C1159 1.307 . S
C3239 C1803 1.309 . S
C3244 C1005 1.307 . S
C3249 C1439 1.307 . S
C3254 C1033 1.309 . S
C3259 C1047 1.309 . S
C3264 C2125 1.307 . S
C3269 C1103 1.309 . S
C3274 C1369 1.307 . S
C3279 C1117 1.309 . S
C3284 C2055 1.307 . S
C3289 C1677 1.307 . S
C3294 C1131 1.309 . S
C3299 C1201 1.307 . S
C3304 C2265 1.309 . S
C3309 C2209 1.307 . S
C3314 C1257 1.309 . S
C3319 C1467 1.309 . S
C3324 C1341 1.307 . S
C3329 C1355 1.309 . S
C3334 C2433 1.307 . S
C3339 C1747 1.307 . S
C3344 C1397 1.309 . S
C3349 C1733 1.307 . S
C3354 C1411 1.309 . S
C3359 C1425 1.307 . S
C3364 C2363 1.309 . S
C3369 C1481 1.307 . S
C3374 C2657 1.309 . S
C3379 C1495 1.309 . S
C3384 C1999 1.307 . S
C3389 C1915 1.307 . S
C3394 C1509 1.309 . S
C3399 C2643 1.307 . S
C3404 C1523 1.309 . S
C3409 C1943 1.309 . S
C3414 C1551 1.307 . S
C3419 C2629 1.307 . S
C3424 C1565 1.309 . S
C3429 C1845 1.309 . S
C3434 C1579 1.307 . S
C3439 C1607 1.307 . S
C3444 C1887 1.309 . S
C3449 C2573 1.309 . S
C3454 C1621 1.307 . S
C3459 C2531 1.307 . S
C3464 C1635 1.309 . S
C3469 C1649 1.309 . S
C3474 C2489 1.307 . S
C3479 C1663 1.309 . S
C3484 C1831 1.307 . S
C3489 C1691 1.307 . S
C3494 C2097 1.309 . S
C3499 C2027 1.307 . S
C3504 C1761 1.309 . S
C3509 C2321 1.307 . S
C3514 C1817 1.309 . S
C3519 C2307 1.309 . S
C3524 C1859 1.307 . S
C3529 C2293 1.307 . S
C3534 C1901 1.309 . S
C3539 C2237 1.309 . S
C3544 C1957 1.307 . S
C3549 C1971 1.309 . S
C3554 C2195 1.307 . S
C3559 C2153 1.309 . S
C3564 C1985 1.307 . S
C3569 C2419 1.309 . S
C3574 C2069 1.307 . S
C3579 C2405 1.309 . S
C3584 C2083 1.307 . S
C3589 C2167 1.307 . S
C3594 C2671 1.309 . S
C3599 C2181 1.307 . S
C3604 C2587 1.309 . S
C3609 C2615 1.307 . S
C3614 C2223 1.309 . S
C3619 C2251 1.309 . S
C3624 C2517 1.307 . S
C3629 C2559 1.307 . S
C3634 C2279 1.309 . S
C3639 C2503 1.307 . S
C3644 C2335 1.309 . S
C3649 C443 1.578 . S
C3654 C9 1.578 . S
C3659 C23 1.578 . S
C3664 C1073 1.578 . S
C3669 C2431 1.578 . S
C3674 C37 1.578 . S
C3679 C1773 1.578 . S
C3684 C51 1.578 . S
C3689 C65 1.578 . S
C3694 C1031 1.578 . S
C3699 C2389 1.578 . S
C3704 C79 1.578 . S
C3709 C93 1.578 . S
C3714 C1731 1.578 . S
C3719 C107 1.578 . S
C3724 C345 1.578 . S
C3729 C121 1.578 . S
C3734 C1297 1.578 . S
C3739 C135 1.578 . S
C3744 C1927 1.578 . S
C3749 C149 1.578 . S
C3754 C597 1.578 . S
C3759 C1283 1.578 . S
C3764 C163 1.578 . S
C3769 C177 1.578 . S
C3774 C2683 1.578 . S
C3779 C1311 1.578 . S
C3784 C191 1.578 . S
C3789 C205 1.578 . S
C3794 C653 1.578 . S
C3799 C569 1.578 . S
C3804 C219 1.578 . S
C3809 C233 1.578 . S
C3814 C555 1.578 . S
C3819 C247 1.578 . S
C3824 C1815 1.578 . S
C3829 C485 1.578 . S
C3834 C261 1.578 . S
C3839 C1171 1.578 . S
C3844 C275 1.578 . S
C3849 C289 1.578 . S
C3854 C1129 1.578 . S
C3859 C303 1.578 . S
C3864 C1199 1.578 . S
C3869 C317 1.578 . S
C3874 C541 1.578 . S
C3879 C2529 1.578 . S
C3884 C331 1.578 . S
C3889 C737 1.578 . S
C3894 C359 1.578 . S
C3899 C373 1.578 . S
C3904 C2095 1.578 . S
C3909 C1437 1.578 . S
C3914 C387 1.578 . S
C3919 C401 1.578 . S
C3924 C695 1.578 . S
C3929 C2053 1.578 . S
C3934 C415 1.578 . S
C3939 C429 1.578 . S
C3944 C1395 1.578 . S
C3949 C457 1.578 . S
C3954 C961 1.578 . S
C3959 C471 1.578 . S
C3964 C1591 1.578 . S
C3969 C499 1.578 . S
C3974 C947 1.578 . S
C3979 C2347 1.578 . S
C3984 C513 1.578 . S
C3989 C527 1.578 . S
C3994 C975 1.578 . S
C3999 C1479 1.578 . S
C4004 C583 1.578 . S
C4009 C835 1.578 . S
C4014 C611 1.578 . S
C4019 C625 1.578 . S
C4024 C793 1.578 . S
C4029 C863 1.578 . S
C4034 C639 1.578 . S
C4039 C667 1.578 . S
C4044 C2193 1.578 . S
C4049 C681 1.578 . S
C4054 C1115 1.578 . S
C4059 C709 1.578 . S
C4064 C1759 1.578 . S
C4069 C2445 1.578 . S
C4074 C723 1.578 . S
C4079 C751 1.578 . S
C4084 C1717 1.578 . S
C4089 C2403 1.578 . S
C4094 C765 1.578 . S
C4099 C779 1.578 . S
C4104 C1017 1.578 . S
C4109 C2599 1.578 . S
C4114 C807 1.578 . S
C4119 C821 1.578 . S
C4124 C1269 1.578 . S
C4129 C2011 1.578 . S
C4134 C849 1.578 . S
C4139 C1325 1.578 . S
C4144 C877 1.578 . S
C4149 C891 1.578 . S
C4154 C1241 1.578 . S
C4159 C905 1.578 . S
C4164 C1227 1.578 . S
C4169 C2487 1.578 . S
C4174 C919 1.578 . S
C4179 C1157 1.578 . S
C4184 C933 1.578 . S
C4189 C1213 1.578 . S
C4194 C989 1.578 . S
C4199 C1003 1.578 . S
C4204 C1857 1.578 . S
C4209 C1045 1.578 . S
C4214 C1423 1.578 . S
C4219 C1059 1.578 . S
C4224 C2109 1.578 . S
C4229 C1381 1.578 . S
C4234 C1087 1.578 . S
C4239 C1101 1.578 . S
C4244 C2067 1.578 . S
C4249 C2263 1.578 . S
C4254 C1143 1.578 . S
C4259 C1675 1.578 . S
C4264 C1185 1.578 . S
C4269 C2151 1.578 . S
C4274 C1255 1.578 . S
C4279 C1521 1.578 . S
C4284 C1339 1.578 . S
C4289 C1353 1.578 . S
C4294 C1787 1.578 . S
C4299 C1367 1.578 . S
C4304 C2417 1.578 . S
C4309 C2375 1.578 . S
C4314 C1409 1.578 . S
C4319 C1689 1.578 . S
C4324 C1451 1.578 . S
C4329 C1465 1.578 . S
C4334 C2641 1.578 . S
C4339 C1493 1.578 . S
C4344 C1941 1.578 . S
C4349 C2627 1.578 . S
C4354 C1507 1.578 . S
C4359 C2655 1.578 . S
C4364 C1535 1.578 . S
C4369 C1549 1.578 . S
C4374 C1997 1.578 . S
C4379 C1563 1.578 . S
C4384 C1913 1.578 . S
C4389 C1899 1.578 . S
C4394 C1577 1.578 . S
C4399 C1829 1.578 . S
C4404 C1605 1.578 . S
C4409 C1619 1.578 . S
C4414 C2515 1.578 . S
C4419 C1633 1.578 . S
C4424 C2473 1.578 . S
C4429 C2543 1.578 . S
C4434 C1647 1.578 . S
C4439 C1885 1.578 . S
C4444 C1661 1.578 . S
C4449 C2081 1.578 . S
C4454 C1703 1.578 . S
C4459 C1745 1.578 . S
C4464 C2039 1.578 . S
C4469 C1801 1.578 . S
C4474 C2305 1.578 . S
C4479 C1843 1.578 . S
C4484 C2291 1.578 . S
C4489 C1871 1.578 . S
C4494 C2319 1.578 . S
C4499 C1955 1.578 . S
C4504 C2179 1.578 . S
C4509 C1969 1.578 . S
C4514 C2137 1.578 . S
C4519 C1983 1.578 . S
C4524 C2207 1.578 . S
C4529 C2459 1.578 . S
C4534 C2025 1.578 . S
C4539 C2361 1.578 . S
C4544 C2123 1.578 . S
C4549 C2165 1.578 . S
C4554 C2613 1.578 . S
C4559 C2221 1.578 . S
C4564 C2669 1.578 . S
C4569 C2585 1.578 . S
C4574 C2235 1.578 . S
C4579 C2571 1.578 . S
C4584 C2249 1.578 . S
C4589 C2501 1.578 . S
C4594 C2277 1.578 . S
C4599 C2557 1.578 . S
C4604 C2333 1.578 . S
C4609 C2632 1.440 . S
C4614 C0 1.440 . S
C4619 C14 1.440 . S
C4624 C2590 1.440 . S
C4629 C28 1.440 . S
C4634 C1932 1.440 . S
C4639 C602 1.440 . S
C4644 C42 1.440 . S
C4649 C56 1.440 . S
C4654 C1330 1.440 . S
C4659 C630 1.440 . S
C4664 C70 1.440 . S
C4669 C1988 1.440 . S
C4674 C84 1.440 . S
C4679 C98 1.440 . S
C4684 C1232 1.440 . S
C4689 C112 1.440 . S
C4694 C2562 1.440 . S
C4699 C1848 1.440 . S
C4704 C126 1.440 . S
C4709 C140 1.440 . S
C4714 C518 1.440 . S
C4719 C154 1.440 . S
C4724 C1204 1.440 . S
C4729 C1806 1.440 . S
C4734 C168 1.440 . S
C4739 C182 1.440 . S
C4744 C476 1.440 . S
C4749 C1162 1.440 . S
C4754 C196 1.440 . S
C4759 C210 1.440 . S
C4764 C2464 1.440 . S
C4769 C224 1.440 . S
C4774 C1106 1.440 . S
C4779 C2366 1.440 . S
C4784 C238 1.440 . S
C4789 C1708 1.440 . S
C4794 C252 1.440 . S
C4799 C378 1.440 . S
C4804 C266 1.440 . S
C4809 C280 1.440 . S
C4814 C2352 1.440 . S
C4819 C294 1.440 . S
C4824 C406 1.440 . S
C4829 C308 1.440 . S
C4834 C1764 1.440 . S
C4839 C1064 1.440 . S
C4844 C322 1.440 . S
C4849 C336 1.440 . S
C4854 C2296 1.440 . S
C4859 C350 1.440 . S
C4864 C2254 1.440 . S
C4869 C364 1.440 . S
C4874 C1596 1.440 . S
C4879 C392 1.440 . S
C4884 C994 1.440 . S
C4889 C1652 1.440 . S
C4894 C420 1.440 . S
C4899 C434 1.440 . S
C4904 C896 1.440 . S
C4909 C2226 1.440 . S
C4914 C448 1.440 . S
C4919 C1512 1.440 . S
C4924 C462 1.440 . S
C4929 C490 1.440 . S
C4934 C868 1.440 . S
C4939 C1470 1.440 . S
C4944 C504 1.440 . S
C4949 C532 1.440 . S
C4954 C826 1.440 . S
C4959 C2128 1.440 . S
C4964 C546 1.440 . S
C4969 C770 1.440 . S
C4974 C560 1.440 . S
C4979 C574 1.440 . S
C4984 C2030 1.440 . S
C4989 C1372 1.440 . S
C4994 C588 1.440 . S
C4999 C2016 1.440 . S
C5004 C616 1.440 . S
C5009 C1428 1.440 . S
C5014 C644 1.440 . S
C5019 C658 1.440 . S
C5024 C728 1.440 . S
C5029 C1960 1.440 . S
C5034 C672 1.440 . S
C5039 C1918 1.440 . S
C5044 C686 1.440 . S
C5049 C700 1.440 . S
C5054 C2604 1.440 . S
C5059 C714 1.440 . S
C5064 C1274 1.440 . S
C5069 C1302 1.440 . S
C5074 C742 1.440 . S
C5079 C756 1.440 . S
C5084 C2660 1.440 . S
C5089 C784 1.440 . S
C5094 C1890 1.440 . S
C5099 C798 1.440 . S
C5104 C2520 1.440 . S
C5109 C1190 1.440 . S
C5114 C812 1.440 . S
C5119 C840 1.440 . S
C5124 C2478 1.440 . S
C5129 C1148 1.440 . S
C5134 C854 1.440 . S
C5139 C1792 1.440 . S
C5144 C882 1.440 . S
C5149 C1694 1.440 . S
C5154 C910 1.440 . S
C5159 C2380 1.440 . S
C5164 C924 1.440 . S
C5169 C938 1.440 . S
C5174 C1050 1.440 . S
C5179 C952 1.440 . S
C5184 C1680 1.440 . S
C5189 C966 1.440 . S
C5194 C1078 1.440 . S
C5199 C2436 1.440 . S
C5204 C980 1.440 . S
C5209 C1008 1.440 . S
C5214 C1624 1.440 . S
C5219 C1582 1.440 . S
C5224 C1022 1.440 . S
C5229 C1036 1.440 . S
C5234 C2268 1.440 . S
C5239 C1092 1.440 . S
C5244 C2324 1.440 . S
C5249 C1554 1.440 . S
C5254 C1120 1.440 . S
C5259 C1134 1.440 . S
C5264 C2184 1.440 . S
C5269 C1176 1.440 . S
C5274 C2142 1.440 . S
C5279 C1218 1.440 . S
C5284 C1456 1.440 . S
C5289 C1358 1.440 . S
C5294 C1246 1.440 . S
C5299 C2044 1.440 . S
C5304 C1260 1.440 . S
C5309 C1288 1.440 . S
C5314 C1344 1.440 . S
C5319 C1316 1.440 . S
C5324 C2100 1.440 . S
C5329 C1946 1.440 . S
C5334 C1386 1.440 . S
C5339 C2674 1.440 . S
C5344 C1400 1.440 . S
C5349 C1974 1.440 . S
C5354 C1414 1.440 . S
C5359 C2576 1.440 . S
C5364 C1442 1.440 . S
C5369 C1862 1.440 . S
C5374 C1484 1.440 . S
C5379 C1498 1.440 . S
C5384 C2548 1.440 . S
C5389 C1820 1.440 . S
C5394 C1526 1.440 . S
C5399 C1540 1.440 . S
C5404 C2506 1.440 . S
C5409 C1568 1.440 . S
C5414 C2450 1.440 . S
C5419 C1610 1.440 . S
C5424 C1722 1.440 . S
C5429 C1638 1.440 . S
C5434 C1750 1.440 . S
C5439 C1666 1.440 . S
C5444 C2408 1.440 . S
C5449 C1736 1.440 . S
C5454 C2338 1.440 . S
C5459 C1778 1.440 . S
C5464 C2240 1.440 . S
C5469 C1834 1.440 . S
C5474 C2212 1.440 . S
C5479 C1876 1.440 . S
C5484 C2170 1.440 . S
C5489 C2114 1.440 . S
C5494 C1904 1.440 . S
C5499 C2072 1.440 . S
C5504 C2002 1.440 . S
C5509 C2618 1.440 . S
C5514 C2058 1.440 . S
C5519 C2646 1.440 . S
C5524 C2086 1.440 . S
C5529 C2534 1.440 . S
C5534 C2156 1.440 . S
C5539 C2198 1.440 . S
C5544 C2492 1.440 . S
C5549 C2282 1.440 . S
C5554 C2394 1.440 . S
C5559 C2422 1.440 . S
C5564 C2310 1.440 . S
C5569 C887 1.444 . S
C5574 C5 1.444 . S
C5579 C19 1.445 . S
C5584 C1517 1.444 . S
C5589 C859 1.444 . S
C5594 C33 1.445 . S
C5599 C1545 1.444 . S
C5604 C47 1.445 . S
C5609 C61 1.444 . S
C5614 C803 1.444 . S
C5619 C1489 1.445 . S
C5624 C75 1.444 . S
C5629 C831 1.445 . S
C5634 C89 1.445 . S
C5639 C103 1.444 . S
C5644 C1461 1.445 . S
C5649 C1447 1.445 . S
C5654 C117 1.445 . S
C5659 C733 1.445 . S
C5664 C131 1.445 . S
C5669 C145 1.445 . S
C5674 C1419 1.444 . S
C5679 C159 1.444 . S
C5684 C761 1.445 . S
C5689 C1363 1.445 . S
C5694 C173 1.445 . S
C5699 C705 1.445 . S
C5704 C187 1.444 . S
C5709 C1391 1.445 . S
C5714 C201 1.445 . S
C5719 C215 1.445 . S
C5724 C677 1.445 . S
C5729 C1629 1.444 . S
C5734 C229 1.445 . S
C5739 C1671 1.444 . S
C5744 C243 1.445 . S
C5749 C257 1.445 . S
C5754 C1643 1.444 . S
C5759 C1657 1.445 . S
C5764 C271 1.445 . S
C5769 C285 1.444 . S
C5774 C1573 1.445 . S
C5779 C1601 1.445 . S
C5784 C299 1.445 . S
C5789 C1615 1.444 . S
C5794 C313 1.445 . S
C5799 C327 1.445 . S
C5804 C1587 1.444 . S
C5809 C1223 1.444 . S
C5814 C341 1.445 . S
C5819 C355 1.445 . S
C5824 C1853 1.444 . S
C5829 C1195 1.445 . S
C5834 C369 1.445 . S
C5839 C383 1.444 . S
C5844 C1881 1.445 . S
C5849 C397 1.444 . S
C5854 C1139 1.445 . S
C5859 C1825 1.444 . S
C5864 C411 1.445 . S
C5869 C425 1.445 . S
C5874 C1167 1.445 . S
C5879 C439 1.445 . S
C5884 C1797 1.444 . S
C5889 C1783 1.444 . S
C5894 C453 1.444 . S
C5899 C1069 1.445 . S
C5904 C467 1.444 . S
C5909 C481 1.445 . S
C5914 C1755 1.445 . S
C5919 C1097 1.444 . S
C5924 C495 1.445 . S
C5929 C509 1.444 . S
C5934 C1699 1.445 . S
C5939 C1041 1.444 . S
C5944 C523 1.445 . S
C5949 C1727 1.444 . S
C5954 C537 1.445 . S
C5959 C551 1.445 . S
C5964 C1013 1.444 . S
C5969 C1965 1.444 . S
C5974 C565 1.445 . S
C5979 C579 1.445 . S
C5984 C2007 1.444 . S
C5989 C1979 1.445 . S
C5994 C593 1.445 . S
C5999 C1993 1.445 . S
C6004 C607 1.444 . S
C6009 C1909 1.444 . S
C6014 C621 1.445 . S
C6019 C635 1.445 . S
C6024 C1937 1.445 . S
C6029 C649 1.445 . S
C6034 C1951 1.444 . S
C6039 C1923 1.444 . S
C6044 C663 1.445 . S
C6049 C2189 1.445 . S
C6054 C691 1.444 . S
C6059 C2217 1.445 . S
C6064 C719 1.445 . S
C6069 C747 1.445 . S
C6074 C2161 1.444 . S
C6079 C2133 1.444 . S
C6084 C775 1.445 . S
C6089 C789 1.445 . S
C6094 C2119 1.444 . S
C6099 C817 1.444 . S
C6104 C2091 1.445 . S
C6109 C2035 1.445 . S
C6114 C845 1.445 . S
C6119 C873 1.445 . S
C6124 C2063 1.445 . S
C6129 C901 1.444 . S
C6134 C2301 1.445 . S
C6139 C2343 1.444 . S
C6144 C915 1.445 . S
C6149 C929 1.444 . S
C6154 C2315 1.445 . S
C6159 C2329 1.444 . S
C6164 C943 1.445 . S
C6169 C2245 1.445 . S
C6174 C957 1.444 . S
C6179 C971 1.445 . S
C6184 C2273 1.445 . S
C6189 C985 1.445 . S
C6194 C2287 1.444 . S
C6199 C2259 1.445 . S
C6204 C999 1.444 . S
C6209 C2525 1.444 . S
C6214 C1027 1.445 . S
C6219 C2553 1.444 . S
C6224 C1055 1.445 . S
C6229 C2497 1.444 . S
C6234 C1083 1.445 . S
C6239 C2469 1.445 . S
C6244 C1111 1.445 . S
C6249 C1125 1.444 . S
C6254 C2455 1.445 . S
C6259 C2427 1.444 . S
C6264 C1153 1.445 . S
C6269 C2371 1.445 . S
C6274 C1181 1.444 . S
C6279 C2399 1.445 . S
C6284 C1209 1.444 . S
C6289 C1237 1.444 . S
C6294 C2637 1.444 . S
C6299 C2679 1.444 . S
C6304 C1251 1.445 . S
C6309 C1265 1.444 . S
C6314 C2651 1.445 . S
C6319 C2665 1.445 . S
C6324 C1279 1.444 . S
C6329 C1293 1.445 . S
C6334 C2581 1.445 . S
C6339 C1307 1.445 . S
C6344 C2609 1.444 . S
C6349 C2623 1.445 . S
C6354 C1321 1.444 . S
C6359 C2595 1.444 . S
C6364 C1335 1.444 . S
C6369 C2231 1.445 . S
C6374 C1349 1.445 . S
C6379 C1377 1.444 . S
C6384 C2203 1.444 . S
C6389 C2147 1.445 . S
C6394 C1405 1.445 . S
C6399 C1433 1.444 . S
C6404 C2175 1.445 . S
C6409 C1475 1.444 . S
C6414 C2077 1.445 . S
C6419 C1503 1.444 . S
C6424 C2105 1.444 . S
C6429 C2049 1.445 . S
C6434 C1531 1.445 . S
C6439 C1559 1.444 . S
C6444 C2021 1.444 . S
C6449 C2567 1.444 . S
C6454 C1685 1.445 . S
C6459 C2539 1.445 . S
C6464 C1713 1.445 . S
C6469 C2483 1.445 . S
C6474 C1741 1.444 . S
C6479 C2511 1.444 . S
C6484 C1769 1.445 . S
C6489 C2413 1.444 . S
C6494 C1811 1.444 . S
C6499 C1839 1.444 . S
C6504 C2441 1.445 . S
C6509 C1867 1.444 . S
C6514 C2385 1.445 . S
C6519 C2357 1.444 . S
C6524 C1895 1.445 . S
