# Generated by pormake.
# Topology smu, (6)-cn, num edge types: 1
# Building blocks:
#     Node 0, Type 0, BuildingBlock: PAMTUU_clean_sbu_0, # of connection points: 6
#     Node 1, Type 0, BuildingBlock: PAMTUU_clean_sbu_0, # of connection points: 6
#     Node 2, Type 0, BuildingBlock: PAMTUU_clean_sbu_0, # of connection points: 6
#     Node 3, Type 0, BuildingBlock: PAMTUU_clean_sbu_0, # of connection points: 6
#     Node 4, Type 0, BuildingBlock: PAMTUU_clean_sbu_0, # of connection points: 6
#     Node 5, Type 0, BuildingBlock: PAMTUU_clean_sbu_0, # of connection points: 6
#     Edge 6, Type (0, 0), BuildingBlock: MIFKUJ_clean_linker_0, # of connection points: 2
#     Edge 7, Type (0, 0), BuildingBlock: MIFKUJ_clean_linker_0, # of connection points: 2
#     Edge 8, Type (0, 0), BuildingBlock: MIFKUJ_clean_linker_0, # of connection points: 2
#     Edge 9, Type (0, 0), BuildingBlock: MIFKUJ_clean_linker_0, # of connection points: 2
#     Edge 10, Type (0, 0), BuildingBlock: MIFKUJ_clean_linker_0, # of connection points: 2
#     Edge 11, Type (0, 0), BuildingBlock: MIFKUJ_clean_linker_0, # of connection points: 2
#     Edge 12, Type (0, 0), BuildingBlock: MIFKUJ_clean_linker_0, # of connection points: 2
#     Edge 13, Type (0, 0), BuildingBlock: MIFKUJ_clean_linker_0, # of connection points: 2
#     Edge 14, Type (0, 0), BuildingBlock: MIFKUJ_clean_linker_0, # of connection points: 2
#     Edge 15, Type (0, 0), BuildingBlock: MIFKUJ_clean_linker_0, # of connection points: 2
#     Edge 16, Type (0, 0), BuildingBlock: MIFKUJ_clean_linker_0, # of connection points: 2
#     Edge 17, Type (0, 0), BuildingBlock: MIFKUJ_clean_linker_0, # of connection points: 2
#     Edge 18, Type (0, 0), BuildingBlock: MIFKUJ_clean_linker_0, # of connection points: 2
#     Edge 19, Type (0, 0), BuildingBlock: MIFKUJ_clean_linker_0, # of connection points: 2
#     Edge 20, Type (0, 0), BuildingBlock: MIFKUJ_clean_linker_0, # of connection points: 2
#     Edge 21, Type (0, 0), BuildingBlock: MIFKUJ_clean_linker_0, # of connection points: 2
#     Edge 22, Type (0, 0), BuildingBlock: MIFKUJ_clean_linker_0, # of connection points: 2
#     Edge 23, Type (0, 0), BuildingBlock: MIFKUJ_clean_linker_0, # of connection points: 2
# Relax obj value: 0.209
# Max RMSD: 0.298
# Mean RMSD: 0.298
data_MOF--net-smu--node1-PAMTUU_clean_sbu_0--edge1-MIFKUJ_clean_linker_0
_symmetry_space_group_name_H-M    P1
_symmetry_Int_Tables_number       1
_symmetry_cell_setting            triclinic
loop_
_symmetry_equiv_pos_as_xyz
'x, y, z'
_cell_length_a     47.938967
_cell_length_b     47.974895
_cell_length_c     36.438445
_cell_angle_alpha  90.439088
_cell_angle_beta   89.780828
_cell_angle_gamma 120.05453
loop_
_atom_site_label
_atom_site_type_symbol
_atom_site_fract_x
_atom_site_fract_y
_atom_site_fract_z
_atom_type_partial_charge
Tb0 Tb 0.31736 0.11056 0.25927 0.0
Tb1 Tb 0.37018 0.08575 0.26092 0.0
C2 C 0.33046 0.08078 0.19023 0.0
C3 C 0.25442 0.13918 0.26078 0.0
C4 C 0.2065 0.15649 0.26998 0.0
C5 C 0.2118 0.14657 0.23552 0.0
C6 C 0.23533 0.13791 0.23108 0.0
C7 C 0.24857 0.14784 0.29564 0.0
C8 C 0.22462 0.15621 0.30024 0.0
C9 C 0.28302 0.13636 0.25263 0.0
O10 O 0.29012 0.06179 0.2783 0.0
O11 O 0.32261 0.04163 0.25777 0.0
O12 O 0.35675 0.08317 0.31815 0.0
O13 O 0.32263 0.10457 0.31793 0.0
O14 O 0.40741 0.08639 0.23019 0.0
O15 O 0.39521 0.06386 0.28321 0.0
O16 O 0.39489 0.13653 0.27548 0.0
O17 O 0.36373 0.14669 0.23823 0.0
O18 O 0.30836 0.08226 0.20981 0.0
O19 O 0.35913 0.09004 0.20382 0.0
C20 C 0.29497 0.03769 0.27068 0.0
O21 O 0.30615 0.14576 0.27679 0.0
O22 O 0.27908 0.11174 0.2332 0.0
C23 C 0.33789 0.09182 0.33492 0.0
C24 C 0.45035 0.08921 0.26453 0.0
C25 C 0.51812 0.11734 0.27082 0.0
C26 C 0.49745 0.08422 0.27712 0.0
C27 C 0.464 0.07035 0.27386 0.0
C28 C 0.4707 0.12258 0.25998 0.0
C29 C 0.50423 0.13648 0.26303 0.0
C30 C 0.41552 0.07321 0.25595 0.0
C31 C 0.39029 0.157 0.25685 0.0
H32 H 0.19901 0.14708 0.21135 0.0
H33 H 0.2398 0.13187 0.20378 0.0
H34 H 0.26315 0.14923 0.31897 0.0
H35 H 0.22089 0.16323 0.32731 0.0
H36 H 0.50713 0.06882 0.28406 0.0
H37 H 0.44881 0.04462 0.27758 0.0
H38 H 0.46079 0.13774 0.25278 0.0
H39 H 0.51927 0.162 0.25782 0.0
Tb40 Tb 0.80397 0.70028 0.2577 0.0
Tb41 Tb 0.72651 0.648 0.26492 0.0
C42 C 0.75735 0.67972 0.19089 0.0
C43 C 0.89499 0.76393 0.25802 0.0
C44 C 0.96066 0.81072 0.26675 0.0
C45 C 0.94367 0.81052 0.23531 0.0
C46 C 0.9112 0.78729 0.23097 0.0
C47 C 0.91134 0.76547 0.2906 0.0
C48 C 0.94385 0.78869 0.29493 0.0
C49 C 0.86412 0.73491 0.2485 0.0
O50 O 0.78217 0.73024 0.25783 0.0
O51 O 0.72853 0.69433 0.27297 0.0
O52 O 0.74634 0.65917 0.32022 0.0
O53 O 0.79157 0.70905 0.31263 0.0
O54 O 0.68267 0.61803 0.2382 0.0
O55 O 0.6862 0.61714 0.297 0.0
O56 O 0.75073 0.62166 0.24796 0.0
O57 O 0.79786 0.655 0.27648 0.0
O58 O 0.78446 0.68223 0.20266 0.0
O59 O 0.73356 0.67246 0.21357 0.0
C60 C 0.75272 0.7236 0.2661 0.0
O61 O 0.85073 0.71197 0.27259 0.0
O62 O 0.8429 0.73797 0.22937 0.0
C63 C 0.76795 0.68761 0.33313 0.0
C64 C 0.65045 0.56748 0.26665 0.0
C65 C 0.61242 0.49939 0.26379 0.0
C66 C 0.62788 0.51531 0.29654 0.0
C67 C 0.64665 0.54895 0.29797 0.0
C68 C 0.63554 0.55155 0.23377 0.0
C69 C 0.61695 0.51798 0.23229 0.0
C70 C 0.66833 0.60321 0.26825 0.0
C71 C 0.77819 0.6271 0.2618 0.0
H72 H 0.95594 0.82698 0.21297 0.0
H73 H 0.89936 0.78636 0.20534 0.0
H74 H 0.89962 0.7477 0.31192 0.0
H75 H 0.95615 0.78861 0.31977 0.0
H76 H 0.6247 0.50188 0.32146 0.0
H77 H 0.65764 0.56041 0.32382 0.0
H78 H 0.63788 0.56509 0.20916 0.0
H79 H 0.60596 0.50661 0.20641 0.0
Tb80 Tb 0.91067 0.21353 0.26769 0.0
Tb81 Tb 0.93349 0.29054 0.26024 0.0
C82 C 0.93222 0.24864 0.19196 0.0
C83 C 0.8866 0.12334 0.26843 0.0
C84 C 0.87093 0.05826 0.2638 0.0
C85 C 0.859 0.07114 0.23773 0.0
C86 C 0.86671 0.1033 0.24006 0.0
C87 C 0.90027 0.11109 0.29298 0.0
C88 C 0.89263 0.07893 0.29059 0.0
C89 C 0.88724 0.15379 0.27726 0.0
O90 O 0.96248 0.23655 0.26395 0.0
O91 O 0.97889 0.29059 0.25337 0.0
O92 O 0.95214 0.28539 0.31203 0.0
O93 O 0.91357 0.23318 0.32283 0.0
O94 O 0.9414 0.32977 0.22738 0.0
O95 O 0.94584 0.33448 0.28619 0.0
O96 O 0.88325 0.26521 0.2781 0.0
O97 O 0.86996 0.2178 0.25024 0.0
O98 O 0.93119 0.22588 0.21287 0.0
O99 O 0.92481 0.26991 0.2048 0.0
C100 C 0.98469 0.26661 0.25744 0.0
O101 O 0.91105 0.17584 0.29655 0.0
O102 O 0.87697 0.16614 0.25269 0.0
C103 C 0.93738 0.26101 0.33433 0.0
C104 C 0.92705 0.36567 0.25666 0.0
C105 C 0.89665 0.40336 0.2578 0.0
C106 C 0.91831 0.40654 0.28567 0.0
C107 C 0.9334 0.38806 0.28498 0.0
C108 C 0.90464 0.36161 0.22933 0.0
C109 C 0.8896 0.38027 0.2299 0.0
C110 C 0.94512 0.34806 0.25573 0.0
C111 C 0.86141 0.23727 0.26488 0.0
H112 H 0.842 0.05589 0.21693 0.0
H113 H 0.85536 0.1118 0.22101 0.0
H114 H 0.91539 0.1258 0.3154 0.0
H115 H 0.90269 0.06992 0.3107 0.0
H116 H 0.9238 0.42348 0.30806 0.0
H117 H 0.95045 0.39159 0.30647 0.0
H118 H 0.89912 0.34447 0.20715 0.0
H119 H 0.87319 0.37724 0.20788 0.0
Tb120 Tb 0.08827 0.36865 0.76333 0.0
Tb121 Tb 0.10959 0.31315 0.76477 0.0
C122 C 0.08313 0.33084 0.83573 0.0
C123 C 0.09497 0.45056 0.76269 0.0
C124 C 0.12482 0.51865 0.76074 0.0
C125 C 0.11635 0.50223 0.79437 0.0
C126 C 0.10153 0.46864 0.79532 0.0
C127 C 0.10397 0.46696 0.72906 0.0
C128 C 0.11878 0.50059 0.72812 0.0
C129 C 0.07678 0.41481 0.76406 0.0
O130 O 0.13947 0.39216 0.77681 0.0
O131 O 0.1508 0.35753 0.74623 0.0
O132 O 0.08985 0.31015 0.71031 0.0
O133 O 0.09689 0.36099 0.70624 0.0
O134 O 0.13914 0.29756 0.78922 0.0
O135 O 0.10747 0.27131 0.74286 0.0
O136 O 0.0585 0.28706 0.77525 0.0
O137 O 0.04372 0.32298 0.75281 0.0
O138 O 0.07083 0.34446 0.81537 0.0
O139 O 0.10387 0.32301 0.82233 0.0
C140 C 0.16033 0.38572 0.76126 0.0
O141 O 0.0759 0.39886 0.73455 0.0
O142 O 0.08054 0.40167 0.79334 0.0
C143 C 0.08935 0.33301 0.69127 0.0
C144 C 0.13961 0.24967 0.76785 0.0
C145 C 0.16162 0.2051 0.77025 0.0
C146 C 0.15557 0.21511 0.73641 0.0
C147 C 0.14434 0.23691 0.73527 0.0
C148 C 0.14554 0.2399 0.80163 0.0
C149 C 0.15608 0.21755 0.80287 0.0
C150 C 0.12852 0.27312 0.76666 0.0
C151 C 0.03687 0.29389 0.76314 0.0
H152 H 0.12019 0.51523 0.82001 0.0
H153 H 0.09455 0.45677 0.82167 0.0
H154 H 0.09912 0.45382 0.70338 0.0
H155 H 0.12536 0.51245 0.70175 0.0
H156 H 0.16012 0.20669 0.71066 0.0
H157 H 0.14 0.24432 0.70889 0.0
H158 H 0.14167 0.24926 0.82711 0.0
H159 H 0.15969 0.20997 0.82946 0.0
Tb160 Tb 0.29704 0.93179 0.75777 0.0
Tb161 Tb 0.22001 0.90907 0.76035 0.0
C162 C 0.26391 0.93228 0.83226 0.0
C163 C 0.37212 0.92538 0.76162 0.0
C164 C 0.41166 0.89748 0.76933 0.0
C165 C 0.42218 0.92912 0.78168 0.0
C166 C 0.40271 0.94294 0.77763 0.0
C167 C 0.36069 0.89316 0.75114 0.0
C168 C 0.38031 0.87942 0.7548 0.0
C169 C 0.35405 0.942 0.75287 0.0
O170 O 0.26911 0.88146 0.7735 0.0
O171 O 0.22717 0.87133 0.73721 0.0
O172 O 0.23396 0.92937 0.70571 0.0
O173 O 0.28309 0.93174 0.70112 0.0
O174 O 0.17457 0.87074 0.77667 0.0
O175 O 0.17959 0.91367 0.74908 0.0
O176 O 0.24454 0.95949 0.77502 0.0
O177 O 0.29527 0.9762 0.75068 0.0
O178 O 0.29038 0.94407 0.81269 0.0
O179 O 0.23507 0.91353 0.81796 0.0
C180 C 0.24367 0.86092 0.75503 0.0
O181 O 0.33252 0.92911 0.72702 0.0
O182 O 0.34391 0.95229 0.78016 0.0
C183 C 0.25987 0.93533 0.68712 0.0
C184 C 0.12579 0.87338 0.76689 0.0
C185 C 0.05933 0.85108 0.77102 0.0
C186 C 0.07116 0.83576 0.74782 0.0
C187 C 0.10414 0.84687 0.74577 0.0
C188 C 0.11424 0.88837 0.79066 0.0
C189 C 0.08123 0.8774 0.79263 0.0
C190 C 0.16034 0.88554 0.76325 0.0
C191 C 0.27294 0.98207 0.76362 0.0
H192 H 0.44577 0.94353 0.79393 0.0
H193 H 0.41196 0.96774 0.78606 0.0
H194 H 0.33706 0.87891 0.73888 0.0
H195 H 0.37132 0.8551 0.74477 0.0
H196 H 0.05492 0.81505 0.73135 0.0
H197 H 0.11278 0.83496 0.72742 0.0
H198 H 0.1307 0.90857 0.80757 0.0
H199 H 0.07295 0.88985 0.8106 0.0
Tb200 Tb 0.65215 0.72435 0.76381 0.0
Tb201 Tb 0.70786 0.80212 0.76484 0.0
C202 C 0.68746 0.75981 0.83595 0.0
C203 C 0.57182 0.64733 0.76642 0.0
C204 C 0.50382 0.60847 0.76717 0.0
C205 C 0.52353 0.59601 0.77818 0.0
C206 C 0.5571 0.61521 0.77773 0.0
C207 C 0.55239 0.66033 0.75643 0.0
C208 C 0.51868 0.64107 0.75683 0.0
C209 C 0.60727 0.66597 0.76322 0.0
O210 O 0.62763 0.75098 0.75204 0.0
O211 O 0.66237 0.79655 0.78324 0.0
O212 O 0.70134 0.78931 0.70661 0.0
O213 O 0.67436 0.73359 0.70983 0.0
O214 O 0.74832 0.84074 0.78974 0.0
O215 O 0.72169 0.84897 0.74721 0.0
O216 O 0.73432 0.778 0.75117 0.0
O217 O 0.69838 0.7263 0.77169 0.0
O218 O 0.65913 0.74058 0.82107 0.0
O219 O 0.71088 0.78262 0.81694 0.0
C220 C 0.6345 0.77837 0.76751 0.0
O221 O 0.61881 0.68363 0.73409 0.0
O222 O 0.6235 0.68103 0.79245 0.0
C223 C 0.69026 0.76062 0.69149 0.0
C224 C 0.77474 0.89287 0.76209 0.0
C225 C 0.82189 0.95852 0.75616 0.0
C226 C 0.80083 0.94239 0.72676 0.0
C227 C 0.77726 0.90982 0.72979 0.0
C228 C 0.79736 0.90846 0.79022 0.0
C229 C 0.82067 0.94093 0.78733 0.0
C230 C 0.74551 0.86203 0.77059 0.0
C231 C 0.72732 0.74888 0.76107 0.0
H232 H 0.513 0.57127 0.78705 0.0
H233 H 0.57164 0.60476 0.78564 0.0
H234 H 0.56327 0.68511 0.74757 0.0
H235 H 0.50432 0.65146 0.74802 0.0
H236 H 0.8012 0.95542 0.70245 0.0
H237 H 0.75993 0.89854 0.7078 0.0
H238 H 0.79575 0.89611 0.81561 0.0
H239 H 0.83687 0.95266 0.81019 0.0
H240 H 0.21616 0.92349 0.8815 0.0
H241 H 0.22363 0.94714 0.94323 0.0
H242 H 0.32676 0.9926 0.93026 0.0
H243 H 0.31964 0.96841 0.87001 0.0
H244 H 0.31153 0.9679 0.99434 0.0
H245 H 0.28222 0.03376 0.92147 0.0
H246 H 0.24657 0.0432 0.88117 0.0
H247 H 0.17178 1.00338 0.9625 0.0
H248 H 0.20686 0.99336 1.00312 0.0
H249 H 0.37158 0.08342 0.13623 0.0
H250 H 0.35741 0.05749 0.07588 0.0
H251 H 0.25658 0.01892 0.10001 0.0
H252 H 0.27056 0.0459 0.15975 0.0
H253 H 0.26606 0.03644 0.03249 0.0
H254 H 0.29595 0.97199 0.10579 0.0
H255 H 0.33139 0.96199 0.14582 0.0
H256 H 0.40506 0.999 0.06302 0.0
H257 H 0.37013 0.00942 0.02264 0.0
C258 C 0.24038 0.93811 0.89211 0.0
C259 C 0.26725 0.94377 0.8708 0.0
C260 C 0.24463 0.95197 0.9272 0.0
C261 C 0.27581 0.97198 0.94131 0.0
C262 C 0.30247 0.97724 0.92015 0.0
C263 C 0.29829 0.96329 0.88551 0.0
C264 C 0.28138 0.98718 0.97831 0.0
C265 C 0.30178 0.98313 1.00247 0.0
C266 C 0.26799 1.00633 0.98952 0.0
C267 C 0.24701 0.01246 0.96512 0.0
C268 C 0.25809 0.0268 0.93063 0.0
C269 C 0.23801 0.03231 0.90775 0.0
C270 C 0.20691 0.02381 0.9192 0.0
C271 C 0.19585 0.0099 0.95362 0.0
C272 C 0.21582 1.00432 0.97659 0.0
C273 C 0.34639 0.06964 0.12857 0.0
C274 C 0.32224 0.06673 0.15282 0.0
C275 C 0.33827 0.05458 0.09415 0.0
C276 C 0.3058 0.03558 0.08365 0.0
C277 C 0.28172 0.03332 0.10751 0.0
C278 C 0.28982 0.04879 0.14168 0.0
C279 C 0.29686 0.01773 0.04807 0.0
C280 C 0.2757 0.02112 0.02435 0.0
C281 C 0.30958 0.99795 0.03711 0.0
C282 C 0.33054 0.99167 0.06136 0.0
C283 C 0.31977 0.97813 0.09624 0.0
C284 C 0.33975 0.97236 0.11895 0.0
C285 C 0.37048 0.97991 0.107 0.0
C286 C 0.38126 0.99317 0.07226 0.0
C287 C 0.36137 0.99896 0.04943 0.0
H288 H 0.38591 0.97544 0.12464 0.0
H289 H 0.1914 0.02808 0.90143 0.0
H290 H 0.65038 0.72897 0.63438 0.0
H291 H 0.6654 0.72 0.57303 0.0
H292 H 0.76595 0.7742 0.60342 0.0
H293 H 0.75075 0.7855 0.66372 0.0
H294 H 0.76278 0.78619 0.53719 0.0
H295 H 0.71491 0.68342 0.60064 0.0
H296 H 0.67174 0.63783 0.63472 0.0
H297 H 0.60579 0.61932 0.54605 0.0
H298 H 0.64853 0.66484 0.51156 0.0
H299 H 0.81298 0.72636 0.38466 0.0
H300 H 0.80256 0.74078 0.44593 0.0
H301 H 0.70021 0.68657 0.42455 0.0
H302 H 0.71059 0.67025 0.36506 0.0
H303 H 0.70699 0.6746 0.4881 0.0
H304 H 0.75327 0.7773 0.42478 0.0
H305 H 0.79555 0.82324 0.39024 0.0
H306 H 0.86321 0.84212 0.47706 0.0
H307 H 0.8214 0.79622 0.512 0.0
C308 C 0.67567 0.73947 0.62753 0.0
C309 C 0.69942 0.75821 0.65341 0.0
C310 C 0.68432 0.73389 0.59267 0.0
C311 C 0.71688 0.74543 0.58363 0.0
C312 C 0.74067 0.76484 0.60946 0.0
C313 C 0.73202 0.7714 0.6439 0.0
C314 C 0.72609 0.73709 0.54755 0.0
C315 C 0.75079 0.76168 0.52671 0.0
C316 C 0.71028 0.70526 0.53314 0.0
C317 C 0.68483 0.6776 0.55367 0.0
C318 C 0.69118 0.66964 0.58849 0.0
C319 C 0.66679 0.64381 0.60786 0.0
C320 C 0.63603 0.62573 0.59259 0.0
C321 C 0.62962 0.63333 0.55785 0.0
C322 C 0.65392 0.65906 0.53834 0.0
C323 C 0.78832 0.71739 0.39335 0.0
C324 C 0.76262 0.69675 0.37037 0.0
C325 C 0.78231 0.72597 0.42822 0.0
C326 C 0.75049 0.71524 0.4401 0.0
C327 C 0.72497 0.69506 0.41659 0.0
C328 C 0.73093 0.68566 0.38245 0.0
C329 C 0.74321 0.7238 0.4772 0.0
C330 C 0.719 0.69916 0.49844 0.0
C331 C 0.75933 0.75558 0.49176 0.0
C332 C 0.78432 0.78322 0.47082 0.0
C333 C 0.77721 0.79119 0.4364 0.0
C334 C 0.80107 0.81723 0.41678 0.0
C335 C 0.83205 0.83554 0.43141 0.0
C336 C 0.83922 0.82792 0.46575 0.0
C337 C 0.81545 0.80195 0.48549 0.0
H338 H 0.85049 0.85567 0.41616 0.0
H339 H 0.61717 0.60581 0.60767 0.0
H340 H 0.95873 0.21575 0.15856 0.0
H341 H 0.98531 0.22636 0.09867 0.0
H342 H 0.96212 0.30097 0.07925 0.0
H343 H 0.93586 0.29088 0.13922 0.0
H344 H 0.9495 0.2594 0.01889 0.0
H345 H 0.03677 0.32016 0.106 0.0
H346 H 0.06893 0.32444 0.16066 0.0
H347 H 0.09344 0.25757 0.11241 0.0
H348 H 0.061 0.25252 0.05766 0.0
H349 H 0.04631 0.34947 0.8742 0.0
H350 H 0.02131 0.33107 0.93395 0.0
H351 H 0.06446 0.27124 0.94329 0.0
H352 H 0.09022 0.29007 0.8831 0.0
H353 H 0.06667 0.29873 1.00833 0.0
H354 H 0.98433 0.23573 0.92473 0.0
H355 H 0.94928 0.22215 0.87067 0.0
H356 H 0.91293 0.28223 0.91093 0.0
H357 H 0.94781 0.29608 0.96559 0.0
C358 C 0.95899 0.23425 0.14148 0.0
C359 C 0.94505 0.25243 0.15388 0.0
C360 C 0.97442 0.24042 0.10729 0.0
C361 C 0.97603 0.2647 0.0846 0.0
C362 C 0.96127 0.28217 0.09633 0.0
C363 C 0.94616 0.27628 0.13065 0.0
C364 C 0.99299 0.27203 0.04856 0.0
C365 C 0.97519 0.26839 0.01666 0.0
C366 C 0.02621 0.28213 0.04535 0.0
C367 C 0.04622 0.28574 0.07791 0.0
C368 C 0.04885 0.30622 0.10715 0.0
C369 C 0.06716 0.30881 0.13812 0.0
C370 C 0.08318 0.29127 0.14001 0.0
C371 C 0.081 0.27114 0.1109 0.0
C372 C 0.06269 0.26843 0.07989 0.0
C373 C 0.0508 0.33257 0.88892 0.0
C374 C 0.0704 0.32134 0.8737 0.0
C375 C 0.03624 0.32188 0.92314 0.0
C376 C 0.04049 0.29933 0.94304 0.0
C377 C 0.06074 0.28861 0.92849 0.0
C378 C 0.07552 0.29946 0.89409 0.0
C379 C 0.0233 0.28706 0.97873 0.0
C380 C 0.04097 0.28966 1.01051 0.0
C381 C 0.9897 0.27497 0.98185 0.0
C382 C 0.9689 0.26717 0.94901 0.0
C383 C 0.96905 0.24625 0.92191 0.0
C384 C 0.94916 0.23846 0.89117 0.0
C385 C 0.92903 0.2515 0.88712 0.0
C386 C 0.9286 0.27221 0.91403 0.0
C387 C 0.94834 0.27995 0.94498 0.0
H388 H 0.91368 0.24545 0.86322 0.0
H389 H 0.09733 0.29332 0.164 0.0
H390 H 0.37855 0.09616 0.38963 0.0
H391 H 0.36385 0.0716 0.45029 0.0
H392 H 0.26335 0.03545 0.42565 0.0
H393 H 0.27862 0.06342 0.36685 0.0
H394 H 0.26818 0.04622 0.49147 0.0
H395 H 0.30847 0.98776 0.42005 0.0
H396 H 0.34826 0.98154 0.38295 0.0
H397 H 0.41729 0.02275 0.4704 0.0
H398 H 0.37796 0.02928 0.50791 0.0
H399 H 0.21494 0.92976 0.6362 0.0
H400 H 0.22551 0.95596 0.5761 0.0
H401 H 0.32783 1.00281 0.59694 0.0
H402 H 0.31742 0.97533 0.6554 0.0
H403 H 0.31881 0.98333 0.5316 0.0
H404 H 0.27739 0.04144 0.6029 0.0
H405 H 0.23598 0.04447 0.64042 0.0
H406 H 0.16737 1.00076 0.55299 0.0
H407 H 0.20831 0.99733 0.51505 0.0
C408 C 0.35342 0.08367 0.39769 0.0
C409 C 0.32974 0.08173 0.37359 0.0
C410 C 0.34487 0.06895 0.43211 0.0
C411 C 0.31225 0.05024 0.44236 0.0
C412 C 0.28868 0.04939 0.41868 0.0
C413 C 0.29739 0.06541 0.38495 0.0
C414 C 0.30267 0.03146 0.4774 0.0
C415 C 0.27906 0.03217 0.49985 0.0
C416 C 0.31683 0.0132 0.48917 0.0
C417 C 0.3404 0.00924 0.46659 0.0
C418 C 0.33219 0.9956 0.43125 0.0
C419 C 0.35464 0.99199 0.41019 0.0
C420 C 0.3853 1.00182 0.42427 0.0
C421 C 0.39355 0.01516 0.45951 0.0
C422 C 0.37118 0.01875 0.4807 0.0
C423 C 0.23964 0.94544 0.62766 0.0
C424 C 0.26532 0.95004 0.65026 0.0
C425 C 0.24571 0.96073 0.59348 0.0
C426 C 0.27755 0.98184 0.58192 0.0
C427 C 0.30306 0.98655 0.60484 0.0
C428 C 0.29705 0.97069 0.63835 0.0
C429 C 0.2849 0.99865 0.5458 0.0
C430 C 0.30795 0.99739 0.52308 0.0
C431 C 0.27008 0.01615 0.53377 0.0
C432 C 0.2458 0.01894 0.55629 0.0
C433 C 0.25344 0.03243 0.59175 0.0
C434 C 0.23007 0.0342 0.61308 0.0
C435 C 0.19905 0.02273 0.59916 0.0
C436 C 0.19139 0.00962 0.56376 0.0
C437 C 0.21468 0.00782 0.54231 0.0
H438 H 0.18097 0.02404 0.61577 0.0
H439 H 0.40266 0.99905 0.40791 0.0
H440 H 0.74684 0.78507 0.8673 0.0
H441 H 0.76077 0.77217 0.92651 0.0
H442 H 0.66016 0.70818 0.94956 0.0
H443 H 0.64576 0.72035 0.88943 0.0
H444 H 0.70119 0.75529 1.00903 0.0
H445 H 0.698 0.67364 0.92576 0.0
H446 H 0.71378 0.65705 0.86878 0.0
H447 H 0.8134 0.71223 0.90004 0.0
H448 H 0.79819 0.72943 0.95706 0.0
H449 H 0.70154 0.66757 0.15832 0.0
H450 H 0.69374 0.68331 0.09793 0.0
H451 H 0.79514 0.72476 0.07495 0.0
H452 H 0.80329 0.70858 0.13623 0.0
H453 H 0.75872 0.6934 0.01468 0.0
H454 H 0.76777 0.77531 0.09375 0.0
H455 H 0.75875 0.79709 0.15089 0.0
H456 H 0.65744 0.75085 0.12749 0.0
H457 H 0.66596 0.72871 0.0698 0.0
C458 C 0.72748 0.76842 0.88493 0.0
C459 C 0.69505 0.75377 0.87353 0.0
C460 C 0.73561 0.761 0.91877 0.0
C461 C 0.71154 0.73912 0.94226 0.0
C462 C 0.67908 0.72512 0.93167 0.0
C463 C 0.67089 0.73211 0.89738 0.0
C464 C 0.72052 0.73067 0.97767 0.0
C465 C 0.71329 0.74133 1.01031 0.0
C466 C 0.73794 0.71404 0.97922 0.0
C467 C 0.74699 0.70305 0.94546 0.0
C468 C 0.72328 0.68238 0.92036 0.0
C469 C 0.73212 0.67284 0.88809 0.0
C470 C 0.76458 0.68366 0.88074 0.0
C471 C 0.78826 0.70389 0.90576 0.0
C472 C 0.77954 0.7135 0.93808 0.0
C473 C 0.72234 0.67982 0.14053 0.0
C474 C 0.75315 0.68689 0.15233 0.0
C475 C 0.71778 0.68897 0.1059 0.0
C476 C 0.74389 0.70576 0.08204 0.0
C477 C 0.77462 0.71193 0.09298 0.0
C478 C 0.77925 0.70263 0.12794 0.0
C479 C 0.7385 0.71716 0.04624 0.0
C480 C 0.74658 0.70733 1.01349 0.0
C481 C 0.72274 0.73545 0.04444 0.0
C482 C 0.71744 0.74998 0.07782 0.0
C483 C 0.74354 0.76972 0.10082 0.0
C484 C 0.73852 0.78212 0.13331 0.0
C485 C 0.70746 0.77496 0.14317 0.0
C486 C 0.68145 0.75613 0.11995 0.0
C487 C 0.68639 0.74375 0.08724 0.0
H488 H 0.70358 0.78387 0.16886 0.0
H489 H 0.77138 0.67632 0.85569 0.0
H490 H 0.96167 0.31527 0.37596 0.0
H491 H 0.98676 0.32497 0.4363 0.0
H492 H 0.96826 0.22719 0.43828 0.0
H493 H 0.9414 0.21694 0.37834 0.0
H494 H 0.96025 0.24181 0.50321 0.0
H495 H 0.04651 0.29591 0.41842 0.0
H496 H 0.07694 0.33208 0.36743 0.0
H497 H 0.08342 0.41264 0.42723 0.0
H498 H 0.05272 0.37687 0.4784 0.0
H499 H 0.07091 0.27771 0.65145 0.0
H500 H 0.04468 0.26308 0.59151 0.0
H501 H 0.04999 0.35536 0.58535 0.0
H502 H 0.07685 0.37047 0.64505 0.0
H503 H 0.06614 0.34076 0.5217 0.0
H504 H 0.97859 0.28185 0.60812 0.0
H505 H 0.94927 0.24261 0.65715 0.0
H506 H 0.94846 0.16728 0.59195 0.0
H507 H 0.97822 0.20613 0.5428 0.0
C508 C 0.96256 0.2957 0.38948 0.0
C509 C 0.94939 0.26531 0.37255 0.0
C510 C 0.97731 0.30137 0.42386 0.0
C511 C 0.98039 0.27715 0.44167 0.0
C512 C 0.96643 0.2464 0.42519 0.0
C513 C 0.95092 0.24048 0.39101 0.0
C514 C 0.99816 0.28414 0.47735 0.0
C515 C 0.98364 0.26321 0.50701 0.0
C516 C 0.02867 0.31214 0.48277 0.0
C517 C 0.04712 0.3337 0.45208 0.0
C518 C 0.05426 0.32131 0.42058 0.0
C519 C 0.07159 0.34174 0.39167 0.0
C520 C 0.08206 0.37463 0.39407 0.0
C521 C 0.07529 0.38716 0.4254 0.0
C522 C 0.05797 0.36684 0.45438 0.0
C523 C 0.06687 0.29511 0.63724 0.0
C524 C 0.07628 0.32543 0.65316 0.0
C525 C 0.05147 0.28651 0.60303 0.0
C526 C 0.04475 0.30783 0.584 0.0
C527 C 0.05476 0.33837 0.59945 0.0
C528 C 0.07027 0.34706 0.63361 0.0
C529 C 0.02796 0.29878 0.54771 0.0
C530 C 0.04277 0.31932 0.51785 0.0
C531 C 0.99812 0.27003 0.54198 0.0
C532 C 0.98087 0.24696 0.57194 0.0
C533 C 0.97245 0.25699 0.60441 0.0
C534 C 0.95569 0.23481 0.63216 0.0
C535 C 0.947 0.20251 0.62758 0.0
C536 C 0.9552 0.19232 0.5954 0.0
C537 C 0.97201 0.2144 0.56761 0.0
H538 H 0.93381 0.18532 0.64887 0.0
H539 H 0.09547 0.39041 0.37166 0.0
H540 H 0.55261 0.09002 0.24442 0.0
H541 H 0.61078 0.11227 0.24481 0.0
H542 H 0.62354 0.19909 0.29638 0.0
H543 H 0.56507 0.17683 0.29641 0.0
H544 H 0.66762 0.21314 0.24305 0.0
H545 H 0.62963 0.14154 0.34595 0.0
H546 H 0.59572 0.09004 0.37758 0.0
H547 H 0.63273 0.04364 0.3076 0.0
H548 H 0.66653 0.09478 0.27519 0.0
H549 H 0.83275 0.27123 0.29009 0.0
H550 H 0.77496 0.25283 0.29273 0.0
H551 H 0.75367 0.16166 0.24508 0.0
H552 H 0.81091 0.17946 0.24313 0.0
H553 H 0.7141 0.15157 0.29929 0.0
H554 H 0.75032 0.22164 0.19479 0.0
H555 H 0.78486 0.27278 0.16277 0.0
H556 H 0.75167 0.32147 0.23462 0.0
H557 H 0.71722 0.27066 0.26739 0.0
C558 C 0.56764 0.11369 0.25635 0.0
C559 C 0.5539 0.13137 0.27089 0.0
C560 C 0.60103 0.12646 0.25639 0.0
C561 C 0.62163 0.15718 0.27117 0.0
C562 C 0.60817 0.17529 0.28493 0.0
C563 C 0.57468 0.16251 0.28487 0.0
C564 C 0.65714 0.17017 0.27244 0.0
C565 C 0.67781 0.1999 0.25585 0.0
C566 C 0.67054 0.15266 0.2884 0.0
C567 C 0.65039 0.12192 0.30796 0.0
C568 C 0.63036 0.1203 0.33714 0.0
C569 C 0.61119 0.09118 0.35523 0.0
C570 C 0.61202 0.06357 0.34455 0.0
C571 C 0.63209 0.06504 0.31581 0.0
C572 C 0.65128 0.09409 0.2976 0.0
C573 C 0.81574 0.24729 0.28018 0.0
C574 C 0.82657 0.22693 0.26627 0.0
C575 C 0.78269 0.23683 0.28153 0.0
C576 C 0.75985 0.20592 0.26873 0.0
C577 C 0.77069 0.18558 0.25511 0.0
C578 C 0.80358 0.19593 0.25385 0.0
C579 C 0.72461 0.19441 0.26964 0.0
C580 C 0.70396 0.16491 0.28663 0.0
C581 C 0.71127 0.21204 0.25387 0.0
C582 C 0.73145 0.24244 0.23375 0.0
C583 C 0.75053 0.2433 0.20388 0.0
C584 C 0.77007 0.27221 0.18559 0.0
C585 C 0.77053 0.30038 0.19672 0.0
C586 C 0.75132 0.29964 0.22606 0.0
C587 C 0.73176 0.27079 0.24448 0.0
H588 H 0.78573 0.32276 0.18258 0.0
H589 H 0.59715 0.04105 0.35859 0.0
H590 H 0.61981 0.45286 0.29887 0.0
H591 H 0.58282 0.39473 0.29869 0.0
H592 H 0.51944 0.40683 0.22511 0.0
H593 H 0.55526 0.46499 0.22682 0.0
H594 H 0.48546 0.36624 0.27616 0.0
H595 H 0.57113 0.37839 0.19646 0.0
H596 H 0.62741 0.39598 0.17961 0.0
H597 H 0.63314 0.33926 0.26672 0.0
H598 H 0.57704 0.32171 0.28442 0.0
H599 H 0.38759 0.20472 0.21968 0.0
H600 H 0.42615 0.26228 0.22129 0.0
H601 H 0.48582 0.24606 0.2965 0.0
H602 H 0.44761 0.18804 0.29424 0.0
H603 H 0.52187 0.28842 0.24646 0.0
H604 H 0.43578 0.27544 0.32539 0.0
H605 H 0.37936 0.25752 0.3419 0.0
H606 H 0.37421 0.31556 0.25601 0.0
H607 H 0.43046 0.33347 0.23864 0.0
C608 C 0.59788 0.44322 0.28289 0.0
C609 C 0.59067 0.46375 0.26274 0.0
C610 C 0.57691 0.40988 0.28246 0.0
C611 C 0.54851 0.39627 0.26146 0.0
C612 C 0.54125 0.41669 0.2414 0.0
C613 C 0.56201 0.45 0.24208 0.0
C614 C 0.52597 0.36086 0.26083 0.0
C615 C 0.49338 0.34927 0.26921 0.0
C616 C 0.53635 0.33856 0.25272 0.0
C617 C 0.57002 0.34903 0.242 0.0
C618 C 0.58448 0.36988 0.21219 0.0
C619 C 0.61633 0.37981 0.20246 0.0
C620 C 0.63387 0.36883 0.22215 0.0
C621 C 0.61956 0.34781 0.25154 0.0
C622 C 0.58773 0.33785 0.26142 0.0
C623 C 0.40898 0.2133 0.23647 0.0
C624 C 0.41448 0.19177 0.25696 0.0
C625 C 0.43091 0.24631 0.23756 0.0
C626 C 0.45859 0.25862 0.25959 0.0
C627 C 0.46452 0.23713 0.27948 0.0
C628 C 0.44265 0.20399 0.27821 0.0
C629 C 0.48141 0.29387 0.26162 0.0
C630 C 0.514 0.30542 0.25351 0.0
C631 C 0.47102 0.31614 0.26995 0.0
C632 C 0.43725 0.30557 0.28052 0.0
C633 C 0.42254 0.28421 0.30987 0.0
C634 C 0.3906 0.27408 0.3194 0.0
C635 C 0.37319 0.28534 0.29996 0.0
C636 C 0.38771 0.30683 0.27101 0.0
C637 C 0.41963 0.317 0.26134 0.0
H638 H 0.34846 0.27746 0.30738 0.0
H639 H 0.65853 0.37655 0.21457 0.0
H640 H 0.92625 0.46744 0.27574 0.0
H641 H 0.90329 0.50269 0.27627 0.0
H642 H 0.81241 0.4242 0.23845 0.0
H643 H 0.83512 0.38841 0.2383 0.0
H644 H 0.82877 0.47991 0.20213 0.0
H645 H 0.82208 0.44795 0.32794 0.0
H646 H 0.84316 0.43974 0.386 0.0
H647 H 0.91112 0.54109 0.39309 0.0
H648 H 0.89072 0.54984 0.33478 0.0
H649 H 0.74315 0.56399 0.23815 0.0
H650 H 0.76042 0.5237 0.23728 0.0
H651 H 0.85267 0.59395 0.28204 0.0
H652 H 0.8355 0.63378 0.28376 0.0
H653 H 0.83225 0.53933 0.31566 0.0
H654 H 0.84225 0.57173 0.18958 0.0
H655 H 0.82303 0.58132 0.13093 0.0
H656 H 0.75114 0.48113 0.12373 0.0
H657 H 0.76971 0.47104 0.1826 0.0
C658 C 0.90123 0.45743 0.26797 0.0
C659 C 0.88247 0.42488 0.2574 0.0
C660 C 0.88817 0.47773 0.26815 0.0
C661 C 0.85597 0.46602 0.25791 0.0
C662 C 0.8373 0.43376 0.24654 0.0
C663 C 0.85037 0.41335 0.24639 0.0
C664 C 0.84194 0.48755 0.25928 0.0
C665 C 0.82902 0.49249 0.22711 0.0
C666 C 0.84296 0.50461 0.29161 0.0
C667 C 0.85503 0.4995 0.32688 0.0
C668 C 0.84165 0.46845 0.34178 0.0
C669 C 0.85346 0.46371 0.37474 0.0
C670 C 0.87851 0.48987 0.39319 0.0
C671 C 0.89173 0.52085 0.37876 0.0
C672 C 0.88003 0.52572 0.34578 0.0
C673 C 0.76707 0.57078 0.24783 0.0
C674 C 0.78786 0.60213 0.26103 0.0
C675 C 0.777 0.54779 0.24718 0.0
C676 C 0.80801 0.55582 0.25932 0.0
C677 C 0.82863 0.58705 0.27264 0.0
C678 C 0.81872 0.60989 0.27349 0.0
C679 C 0.81923 0.53192 0.25842 0.0
C680 C 0.83172 0.52658 0.29071 0.0
C681 C 0.81807 0.51474 0.22614 0.0
C682 C 0.80713 0.52069 0.19062 0.0
C683 C 0.82221 0.55179 0.17559 0.0
C684 C 0.81146 0.55731 0.1423 0.0
C685 C 0.78582 0.53187 0.12366 0.0
C686 C 0.77096 0.50082 0.13822 0.0
C687 C 0.7816 0.49518 0.17152 0.0
H688 H 0.77751 0.53619 0.0979 0.0
H689 H 0.88763 0.48614 0.4187 0.0
H690 H 0.16967 0.56452 0.80714 0.0
H691 H 0.19057 0.62262 0.80667 0.0
H692 H 0.13231 0.61165 0.71179 0.0
H693 H 0.11124 0.55358 0.71214 0.0
H694 H 0.19043 0.66192 0.7033 0.0
H695 H 0.11105 0.62412 0.79863 0.0
H696 H 0.08426 0.5953 0.85537 0.0
H697 H 0.17053 0.65524 0.91679 0.0
H698 H 0.19797 0.68416 0.86028 0.0
H699 H 0.19684 0.81319 0.71275 0.0
H700 H 0.17807 0.75549 0.71434 0.0
H701 H 0.24614 0.77164 0.8004 0.0
H702 H 0.26526 0.82951 0.79885 0.0
H703 H 0.18416 0.71938 0.81406 0.0
H704 H 0.26259 0.75798 0.71712 0.0
H705 H 0.28748 0.78706 0.65988 0.0
H706 H 0.20027 0.72528 0.60088 0.0
H707 H 0.17469 0.69614 0.65793 0.0
C708 C 0.16115 0.57442 0.78628 0.0
C709 C 0.13868 0.55427 0.75972 0.0
C710 C 0.17314 0.6077 0.78605 0.0
C711 C 0.16273 0.62155 0.75947 0.0
C712 C 0.14075 0.60158 0.73256 0.0
C713 C 0.12882 0.56834 0.73271 0.0
C714 C 0.17475 0.65684 0.75958 0.0
C715 C 0.18867 0.67435 0.72743 0.0
C716 C 0.17308 0.67334 0.79119 0.0
C717 C 0.15665 0.65606 0.82519 0.0
C718 C 0.12438 0.63098 0.82419 0.0
C719 C 0.10907 0.61466 0.85631 0.0
C720 C 0.12571 0.62337 0.88965 0.0
C721 C 0.15769 0.64849 0.89094 0.0
C722 C 0.17312 0.66487 0.85889 0.0
C723 C 0.20793 0.80453 0.73195 0.0
C724 C 0.23271 0.82601 0.75551 0.0
C725 C 0.19717 0.77153 0.73279 0.0
C726 C 0.21084 0.75929 0.75733 0.0
C727 C 0.23529 0.78058 0.78123 0.0
C728 C 0.2463 0.81367 0.78015 0.0
C729 C 0.1997 0.72427 0.75781 0.0
C730 C 0.18595 0.70687 0.79003 0.0
C731 C 0.20126 0.7078 0.7262 0.0
C732 C 0.21665 0.72508 0.69183 0.0
C733 C 0.24865 0.75076 0.69199 0.0
C734 C 0.26289 0.76723 0.65958 0.0
C735 C 0.24544 0.75807 0.62678 0.0
C736 C 0.21374 0.73237 0.62631 0.0
C737 C 0.19937 0.71585 0.65867 0.0
H738 H 0.25651 0.77085 0.6017 0.0
H739 H 0.11382 0.61071 0.91449 0.0
H740 H 0.47697 0.92957 0.75744 0.0
H741 H 0.5133 0.90804 0.75764 0.0
H742 H 0.43336 0.8131 0.77941 0.0
H743 H 0.397 0.83493 0.78199 0.0
H744 H 0.48183 0.82149 0.81815 0.0
H745 H 0.46916 0.8373 0.69155 0.0
H746 H 0.46854 0.8669 0.63684 0.0
H747 H 0.56907 0.93526 0.65179 0.0
H748 H 0.57019 0.90628 0.70691 0.0
H749 H 0.56873 0.74162 0.76335 0.0
H750 H 0.52975 0.76064 0.76354 0.0
H751 H 0.60772 0.8589 0.77037 0.0
H752 H 0.64669 0.84011 0.77099 0.0
H753 H 0.55908 0.84653 0.7156 0.0
H754 H 0.56959 0.82918 0.84396 0.0
H755 H 0.56881 0.79693 0.89672 0.0
H756 H 0.46962 0.72767 0.87497 0.0
H757 H 0.46998 0.7593 0.82169 0.0
C758 C 0.46704 0.9042 0.76302 0.0
C759 C 0.43388 0.88409 0.76984 0.0
C760 C 0.48788 0.89178 0.76246 0.0
C761 C 0.47607 0.85877 0.76776 0.0
C762 C 0.44308 0.83862 0.77499 0.0
C763 C 0.42223 0.85113 0.7761 0.0
C764 C 0.49824 0.84544 0.76612 0.0
C765 C 0.49831 0.82658 0.79538 0.0
C766 C 0.52019 0.85235 0.73673 0.0
C767 C 0.51968 0.86978 0.70353 0.0
C768 C 0.49108 0.85877 0.68331 0.0
C769 C 0.49065 0.87542 0.65221 0.0
C770 C 0.51873 0.90299 0.64089 0.0
C771 C 0.54733 0.91392 0.66061 0.0
C772 C 0.54789 0.89737 0.69176 0.0
C773 C 0.5775 0.76725 0.76487 0.0
C774 C 0.61069 0.78937 0.76734 0.0
C775 C 0.55526 0.77806 0.76505 0.0
C776 C 0.56592 0.81116 0.76703 0.0
C777 C 0.59906 0.83328 0.76883 0.0
C778 C 0.62123 0.82248 0.7694 0.0
C779 C 0.54255 0.82282 0.76756 0.0
C780 C 0.54237 0.84137 0.73815 0.0
C781 C 0.52022 0.81526 0.79648 0.0
C782 C 0.51991 0.79641 0.82864 0.0
C783 C 0.5477 0.80693 0.85024 0.0
C784 C 0.54732 0.78879 0.88027 0.0
C785 C 0.51921 0.76022 0.88913 0.0
C786 C 0.49139 0.74978 0.86804 0.0
C787 C 0.49166 0.76781 0.83794 0.0
H788 H 0.51896 0.74621 0.9124 0.0
H789 H 0.51834 0.91585 0.61681 0.0
H790 H 0.18966 0.44879 0.78457 0.0
H791 H 0.24746 0.4881 0.78598 0.0
H792 H 0.26789 0.4172 0.73977 0.0
H793 H 0.21041 0.37777 0.73869 0.0
H794 H 0.30752 0.44806 0.79556 0.0
H795 H 0.27177 0.47901 0.68799 0.0
H796 H 0.23798 0.49528 0.65382 0.0
H797 H 0.27178 0.57933 0.72229 0.0
H798 H 0.30545 0.5633 0.75721 0.0
H799 H 0.46966 0.54584 0.74356 0.0
H800 H 0.41143 0.51008 0.74312 0.0
H801 H 0.39826 0.58663 0.78641 0.0
H802 H 0.4568 0.62277 0.78686 0.0
H803 H 0.35461 0.55441 0.73489 0.0
H804 H 0.39127 0.52475 0.84153 0.0
H805 H 0.42463 0.50859 0.87676 0.0
H806 H 0.3887 0.42237 0.81172 0.0
H807 H 0.35545 0.43824 0.77573 0.0
C808 C 0.20645 0.44157 0.77464 0.0
C809 C 0.19529 0.41009 0.76142 0.0
C810 C 0.23951 0.46414 0.77531 0.0
C811 C 0.26211 0.45575 0.76268 0.0
C812 C 0.251 0.42431 0.74964 0.0
C813 C 0.21802 0.40179 0.74889 0.0
C814 C 0.29737 0.47942 0.76345 0.0
C815 C 0.31783 0.47115 0.78191 0.0
C816 C 0.31085 0.51 0.7466 0.0
C817 C 0.29086 0.51979 0.72543 0.0
C818 C 0.27181 0.50084 0.69592 0.0
C819 C 0.25271 0.51003 0.67639 0.0
C820 C 0.25266 0.53827 0.68594 0.0
C821 C 0.2718 0.55743 0.71496 0.0
C822 C 0.29091 0.54832 0.73461 0.0
C823 C 0.45447 0.55509 0.75333 0.0
C824 C 0.46806 0.58714 0.76577 0.0
C825 C 0.42108 0.53455 0.75301 0.0
C826 C 0.40034 0.54537 0.76545 0.0
C827 C 0.41371 0.57762 0.77685 0.0
C828 C 0.44722 0.59829 0.77704 0.0
C829 C 0.3648 0.52288 0.76667 0.0
C830 C 0.3443 0.53137 0.74865 0.0
C831 C 0.35121 0.49251 0.78408 0.0
C832 C 0.37108 0.48283 0.80574 0.0
C833 C 0.39065 0.50245 0.83457 0.0
C834 C 0.40952 0.49333 0.8547 0.0
C835 C 0.40884 0.46451 0.84643 0.0
C836 C 0.38923 0.44471 0.81807 0.0
C837 C 0.37034 0.45374 0.79781 0.0
H838 H 0.42346 0.45749 0.86206 0.0
H839 H 0.23784 0.54535 0.6708 0.0
H840 H 0.14929 0.13623 0.23355 0.0
H841 H 0.1171 0.16268 0.23205 0.0
H842 H 0.1793 0.23158 0.31299 0.0
H843 H 0.2129 0.20657 0.31329 0.0
H844 H 0.10616 0.20087 0.32216 0.0
H845 H 0.19429 0.25722 0.23448 0.0
H846 H 0.2268 0.25908 0.18096 0.0
H847 H 0.14195 0.21599 0.11346 0.0
H848 H 0.10887 0.2134 0.16673 0.0
H849 H 0.03427 0.29555 0.30574 0.0
H850 H 0.07976 0.28566 0.30851 0.0
H851 H 0.05073 0.23566 0.20431 0.0
H852 H 1.00645 0.24671 0.20109 0.0
H853 H 0.11143 0.26082 0.20946 0.0
H854 H 0.02216 0.19593 0.28758 0.0
H855 H 0.98206 0.18577 0.33593 0.0
H856 H 0.05794 0.23305 0.41524 0.0
H857 H 0.09853 0.24381 0.3672 0.0
C858 C 0.15633 0.15708 0.25098 0.0
C859 C 0.18406 0.16943 0.27322 0.0
C860 C 0.13772 0.17199 0.25024 0.0
C861 C 0.14608 0.19916 0.27218 0.0
C862 C 0.17255 0.21057 0.29589 0.0
C863 C 0.19157 0.19603 0.2962 0.0
C864 C 0.128 0.2165 0.26902 0.0
C865 C 0.10771 0.21453 0.29788 0.0
C866 C 0.12912 0.2331 0.23666 0.0
C867 C 0.14909 0.2348 0.20468 0.0
C868 C 0.18254 0.24785 0.20832 0.0
C869 C 0.20107 0.24909 0.178 0.0
C870 C 0.18644 0.23757 0.14385 0.0
C871 C 0.15325 0.22485 0.13993 0.0
C872 C 0.13461 0.2235 0.17017 0.0
C873 C 0.03884 0.28403 0.28264 0.0
C874 C 0.01731 0.27206 0.25304 0.0
C875 C 0.0644 0.27787 0.28447 0.0
C876 C 0.06806 0.25906 0.25713 0.0
C877 C 0.04835 0.25002 0.22586 0.0
C878 C 0.02313 0.25646 0.22388 0.0
C879 C 0.08951 0.24544 0.26268 0.0
C880 C 0.11026 0.24778 0.23415 0.0
C881 C 0.08769 0.22794 0.29467 0.0
C882 C 0.06338 0.22101 0.32376 0.0
C883 C 0.03029 0.2043 0.31531 0.0
C884 C 1.00747 0.19842 0.34264 0.0
C885 C 0.01746 0.20885 0.37861 0.0
C886 C 0.05026 0.22504 0.38735 0.0
C887 C 0.07318 0.23102 0.36009 0.0
H888 H 0.99978 0.20429 0.39974 0.0
H889 H 0.20084 0.23857 0.12041 0.0
H890 H 1.00477 0.79467 0.29014 0.0
H891 H 0.06334 0.82811 0.29045 0.0
H892 H 0.05588 0.90753 0.24692 0.0
H893 H 0.99707 0.874 0.24631 0.0
H894 H 0.10265 0.90506 0.21367 0.0
H895 H 0.07282 0.90535 0.33672 0.0
H896 H 0.04637 0.88401 0.39623 0.0
H897 H 0.10011 0.83512 0.4092 0.0
H898 H 0.12648 0.85571 0.34935 0.0
H899 H 0.25235 0.01834 0.32578 0.0
H900 H 0.1975 0.97394 0.32451 0.0
H901 H 0.21733 0.93918 0.22359 0.0
H902 H 0.27259 0.98553 0.22392 0.0
H903 H 0.16445 0.91556 0.32681 0.0
H904 H 0.15021 0.90667 0.16885 0.0
H905 H 0.17402 0.93993 0.11368 0.0
H906 H 0.20643 0.02592 0.17834 0.0
H907 H 0.18248 0.99316 0.23374 0.0
C908 C 0.01553 0.8194 0.28112 0.0
C909 C 0.99622 0.8318 0.2686 0.0
C910 C 0.04906 0.83844 0.28111 0.0
C911 C 0.06404 0.87042 0.26898 0.0
C912 C 0.04487 0.88286 0.25625 0.0
C913 C 1.01127 0.86374 0.25605 0.0
C914 C 0.09969 0.89096 0.27016 0.0
C915 C 0.11621 0.90728 0.23836 0.0
C916 C 0.11736 0.89455 0.30257 0.0
C917 C 0.10125 0.88166 0.3383 0.0
C918 C 0.07871 0.88972 0.35204 0.0
C919 C 0.06379 0.87782 0.38587 0.0
C920 C 0.07146 0.85811 0.40642 0.0
C921 C 0.09412 0.8503 0.39319 0.0
C922 C 0.10904 0.86206 0.3593 0.0
C923 C 0.24531 1.0008 0.30379 0.0
C924 C 0.26654 1.00547 0.27483 0.0
C925 C 0.21383 0.97527 0.30307 0.0
C926 C 0.20283 0.95346 0.27351 0.0
C927 C 0.225 0.95615 0.24626 0.0
C928 C 0.25671 0.98224 0.24676 0.0
C929 C 0.16767 0.93014 0.27041 0.0
C930 C 0.15107 0.91303 0.30187 0.0
C931 C 0.14981 0.92756 0.23836 0.0
C932 C 0.16492 0.94747 0.20544 0.0
C933 C 0.16247 0.93268 0.17125 0.0
C934 C 0.17595 0.95143 0.13996 0.0
C935 C 0.19173 0.985 0.14253 0.0
C936 C 0.19425 0.99991 0.17642 0.0
C937 C 0.18076 0.98127 0.20777 0.0
H938 H 0.20177 0.99944 0.1182 0.0
H939 H 0.05993 0.84897 0.43265 0.0
H940 H 0.85441 0.02003 0.32452 0.0
H941 H 0.82956 0.96157 0.32676 0.0
H942 H 0.83249 0.95761 0.2086 0.0
H943 H 0.85784 0.01629 0.20609 0.0
H944 H 0.77397 0.91464 0.23502 0.0
H945 H 0.88358 0.94628 0.26134 0.0
H946 H 0.93555 0.97461 0.29395 0.0
H947 H 0.88941 0.92585 0.39362 0.0
H948 H 0.837 0.89772 0.36182 0.0
H949 H 0.75019 0.75737 0.20917 0.0
H950 H 0.76304 0.81354 0.21188 0.0
H951 H 0.76146 0.81014 0.33009 0.0
H952 H 0.7492 0.75396 0.32737 0.0
H953 H 0.81684 0.85676 0.30647 0.0
H954 H 0.70726 0.82228 0.27828 0.0
H955 H 0.65551 0.79487 0.24517 0.0
H956 H 0.70164 0.84864 0.14806 0.0
H957 H 0.75388 0.87572 0.18021 0.0
C958 C 0.85049 1.00687 0.299 0.0
C959 C 0.85834 0.02294 0.2651 0.0
C960 C 0.83609 0.97339 0.30035 0.0
C961 C 0.82932 0.95525 0.26787 0.0
C962 C 0.83744 0.97117 0.234 0.0
C963 C 0.8519 1.00469 0.23261 0.0
C964 C 0.81272 0.9196 0.26919 0.0
C965 C 0.78349 0.90188 0.25025 0.0
C966 C 0.82472 0.90312 0.29005 0.0
C967 C 0.85623 0.92025 0.30928 0.0
C968 C 0.88441 0.94189 0.29032 0.0
C969 C 0.91398 0.95787 0.30865 0.0
C970 C 0.91576 0.95215 0.34587 0.0
C971 C 0.88798 0.93036 0.36482 0.0
C972 C 0.85833 0.91442 0.34666 0.0
C973 C 0.751 0.76823 0.23565 0.0
C974 C 0.74805 0.75142 0.26806 0.0
C975 C 0.75844 0.80029 0.23716 0.0
C976 C 0.76308 0.81602 0.2711 0.0
C977 C 0.75785 0.79843 0.3036 0.0
C978 C 0.75039 0.76627 0.30209 0.0
C979 C 0.77788 0.85159 0.27232 0.0
C980 C 0.80701 0.86939 0.29154 0.0
C981 C 0.76583 0.8681 0.25153 0.0
C982 C 0.73459 0.85095 0.23169 0.0
C983 C 0.70649 0.82799 0.24973 0.0
C984 C 0.67703 0.81256 0.23115 0.0
C985 C 0.67525 0.82013 0.19459 0.0
C986 C 0.703 0.84296 0.17645 0.0
C987 C 0.73257 0.85826 0.19481 0.0
H988 H 0.65241 0.80817 0.18027 0.0
H989 H 0.93868 0.9645 0.36 0.0
H990 H 0.20362 0.20362 0.82036 0.0
H991 H 0.22555 0.16768 0.82132 0.0
H992 H 0.1734 0.12133 0.72217 0.0
H993 H 0.14865 0.15492 0.7231 0.0
H994 H 0.17279 0.07845 0.76196 0.0
H995 H 0.25737 0.18231 0.72492 0.0
H996 H 0.29331 0.24108 0.73007 0.0
H997 H 0.33195 0.22873 0.83082 0.0
H998 H 0.29588 0.16989 0.82652 0.0
H999 H 0.26512 0.01041 0.70443 0.0
H1000 H 0.25169 0.05345 0.70617 0.0
H1001 H 0.27375 0.06748 0.82171 0.0
H1002 H 0.28611 0.02358 0.82033 0.0
H1003 H 0.29128 0.12699 0.7749 0.0
H1004 H 0.20392 0.02045 0.80779 0.0
H1005 H 0.17008 0.96233 0.79625 0.0
H1006 H 0.13778 0.98123 0.69453 0.0
H1007 H 0.17244 0.03969 0.70498 0.0
C1008 C 0.19609 0.18531 0.79918 0.0
C1009 C 0.17446 0.18253 0.77143 0.0
C1010 C 0.2092 0.16509 0.79942 0.0
C1011 C 0.20197 0.1424 0.7712 0.0
C1012 C 0.1797 0.13888 0.74406 0.0
C1013 C 0.1659 0.15852 0.74433 0.0
C1014 C 0.21792 0.12266 0.76957 0.0
C1015 C 0.19873 0.08926 0.76436 0.0
C1016 C 0.25179 0.13648 0.77311 0.0
C1017 C 0.27377 0.17177 0.77555 0.0
C1018 C 0.27342 0.19217 0.74827 0.0
C1019 C 0.29381 0.22547 0.75103 0.0
C1020 C 0.31485 0.23864 0.78079 0.0
C1021 C 0.31562 0.2185 0.8078 0.0
C1022 C 0.29523 0.18517 0.80521 0.0
C1023 C 0.26862 0.02381 0.72973 0.0
C1024 C 0.27729 0.01441 0.76209 0.0
C1025 C 0.26066 0.04808 0.73077 0.0
C1026 C 0.26154 0.06332 0.76411 0.0
C1027 C 0.27306 0.05598 0.79578 0.0
C1028 C 0.2804 0.03121 0.79491 0.0
C1029 C 0.24613 0.08328 0.76691 0.0
C1030 C 0.26537 0.11649 0.77248 0.0
C1031 C 0.21243 0.06946 0.76284 0.0
C1032 C 0.19101 0.03439 0.75699 0.0
C1033 C 0.18983 0.01222 0.78281 0.0
C1034 C 0.17043 0.97918 0.77647 0.0
C1035 C 0.15167 0.968 0.74467 0.0
C1036 C 0.15231 0.9899 0.71914 0.0
C1037 C 0.17188 0.023 0.72523 0.0
H1038 H 0.13664 0.94241 0.73975 0.0
H1039 H 0.33062 0.26444 0.78289 0.0
H1040 H 0.02255 0.84553 0.8314 0.0
H1041 H 0.96453 0.82536 0.83339 0.0
H1042 H 0.95879 0.80934 0.71629 0.0
H1043 H 0.01686 0.83095 0.71378 0.0
H1044 H 0.92395 0.83623 0.73759 0.0
H1045 H 0.93829 0.74752 0.78068 0.0
H1046 H 0.96063 0.72396 0.82331 0.0
H1047 H 0.91595 0.74401 0.91421 0.0
H1048 H 0.89365 0.768 0.87215 0.0
H1049 H 0.76217 0.74395 0.70583 0.0
H1050 H 0.81773 0.75522 0.71118 0.0
H1051 H 0.8113 0.75876 0.82924 0.0
H1052 H 0.75501 0.74537 0.82375 0.0
H1053 H 0.85252 0.74062 0.81273 0.0
H1054 H 0.83782 0.82748 0.77693 0.0
H1055 H 0.81582 0.8551 0.74031 0.0
H1056 H 0.86185 0.84513 0.64377 0.0
H1057 H 0.88383 0.81712 0.67976 0.0
C1058 C 1.009 0.83811 0.80601 0.0
C1059 C 0.02429 0.83956 0.77246 0.0
C1060 C 0.9758 0.82627 0.80726 0.0
C1061 C 0.9573 0.81531 0.77508 0.0
C1062 C 0.9726 0.81745 0.7415 0.0
C1063 C 1.00575 0.8295 0.74017 0.0
C1064 C 0.92191 0.80137 0.77601 0.0
C1065 C 0.90831 0.81509 0.75366 0.0
C1066 C 0.90163 0.77474 0.79832 0.0
C1067 C 0.91455 0.75975 0.82334 0.0
C1068 C 0.93336 0.74701 0.80978 0.0
C1069 C 0.946 0.73358 0.83384 0.0
C1070 C 0.93977 0.73255 0.87146 0.0
C1071 C 0.92078 0.74484 0.88508 0.0
C1072 C 0.90811 0.75832 0.86115 0.0
C1073 C 0.77224 0.74552 0.73286 0.0
C1074 C 0.75467 0.74373 0.76439 0.0
C1075 C 0.80404 0.75245 0.73596 0.0
C1076 C 0.81899 0.75909 0.77054 0.0
C1077 C 0.80036 0.75409 0.80227 0.0
C1078 C 0.76821 0.74628 0.79917 0.0
C1079 C 0.85451 0.77473 0.7732 0.0
C1080 C 0.86814 0.76166 0.79651 0.0
C1081 C 0.87495 0.80263 0.75262 0.0
C1082 C 0.86226 0.81999 0.73098 0.0
C1083 C 0.84314 0.83107 0.74786 0.0
C1084 C 0.83067 0.84679 0.72723 0.0
C1085 C 0.83737 0.8518 0.68973 0.0
C1086 C 0.85666 0.84121 0.67282 0.0
C1087 C 0.86917 0.82545 0.69333 0.0
H1088 H 0.82767 0.86394 0.67378 0.0
H1089 H 0.94961 0.72218 0.89004 0.0
H1090 H 0.98745 0.26629 0.81174 0.0
H1091 H 0.94366 0.20987 0.80855 0.0
H1092 H 0.97516 0.20102 0.70035 0.0
H1093 H 0.01701 0.25771 0.7023 0.0
H1094 H 0.9119 0.16343 0.70625 0.0
H1095 H 1.0052 0.18412 0.77861 0.0
H1096 H 0.04444 0.21154 0.82854 0.0
H1097 H 0.96774 0.17268 0.90767 0.0
H1098 H 0.92803 0.14533 0.85812 0.0
H1099 H 0.86166 0.99665 0.70123 0.0
H1100 H 0.89479 0.05555 0.70115 0.0
H1101 H 0.86129 0.05921 0.81023 0.0
H1102 H 0.82893 1.00054 0.81074 0.0
H1103 H 0.92321 0.09992 0.80588 0.0
H1104 H 0.83073 0.07581 0.7296 0.0
H1105 H 0.79367 0.05049 0.67733 0.0
H1106 H 0.87295 0.09693 0.60213 0.0
H1107 H 0.91049 0.12214 0.65397 0.0
C1108 C 0.98365 0.25268 0.78655 0.0
C1109 C 1.00492 0.26617 0.75695 0.0
C1110 C 0.95922 0.22042 0.78506 0.0
C1111 C 0.95682 0.20111 0.75471 0.0
C1112 C 0.97647 0.21545 0.72399 0.0
C1113 C 1.00025 0.24785 0.72503 0.0
C1114 C 0.93651 0.16557 0.75625 0.0
C1115 C 0.91468 0.14951 0.72771 0.0
C1116 C 0.93969 0.14744 0.78476 0.0
C1117 C 0.96365 0.16289 0.81467 0.0
C1118 C 0.99673 0.18147 0.80667 0.0
C1119 C 0.01904 0.19702 0.83489 0.0
C1120 C 1.00858 0.19393 0.87126 0.0
C1121 C 0.97581 0.17506 0.8795 0.0
C1122 C 0.95339 0.1595 0.85137 0.0
C1123 C 0.86147 0.0101 0.72515 0.0
C1124 C 0.84285 0.99404 0.75601 0.0
C1125 C 0.88028 0.04372 0.72506 0.0
C1126 C 0.88017 0.06187 0.75551 0.0
C1127 C 0.86183 0.04577 0.78647 0.0
C1128 C 0.84341 0.01223 0.78675 0.0
C1129 C 0.89894 0.09763 0.75526 0.0
C1130 C 0.92049 0.11377 0.78421 0.0
C1131 C 0.89599 0.11584 0.72669 0.0
C1132 C 0.87339 0.10062 0.69564 0.0
C1133 C 0.84024 0.08042 0.70192 0.0
C1134 C 0.81917 0.06612 0.67237 0.0
C1135 C 0.83095 0.07204 0.63643 0.0
C1136 C 0.86384 0.09233 0.62996 0.0
C1137 C 0.88502 0.10664 0.6594 0.0
H1138 H 0.81459 0.06095 0.6136 0.0
H1139 H 0.02586 0.20612 0.89305 0.0
loop_
_geom_bond_atom_site_label_1
_geom_bond_atom_site_label_2
_geom_bond_distance
_geom_bond_site_symmetry_2
_ccdc_geom_bond_type
Tb0 C9 2.764 . S
Tb0 O10 2.325 . S
Tb0 O13 2.303 . S
Tb0 O17 2.322 . S
Tb0 O18 2.349 . S
Tb0 O21 2.415 . S
Tb0 O22 2.399 . S
Tb1 O11 2.322 . S
Tb1 O12 2.349 . S
Tb1 O14 2.415 . S
Tb1 O15 2.399 . S
Tb1 O16 2.325 . S
Tb1 O19 2.303 . S
Tb1 C30 2.764 . S
C2 O18 1.261 . S
C2 O19 1.257 . S
C3 C6 1.358 . S
C3 C7 1.332 . S
C3 C9 1.504 . S
C4 C5 1.373 . S
C4 C8 1.308 . S
C5 C4 1.373 . S
C5 C6 1.429 . S
C5 H32 0.932 . S
C6 C3 1.358 . S
C6 C5 1.429 . S
C6 H33 0.930 . S
C7 C3 1.332 . S
C7 C8 1.394 . S
C7 H34 0.932 . S
C8 C4 1.308 . S
C8 C7 1.394 . S
C8 H35 0.929 . S
C9 Tb0 2.764 . S
C9 C3 1.504 . S
C9 O21 1.239 . S
C9 O22 1.263 . S
O10 Tb0 2.325 . S
O10 C20 1.236 . S
O11 Tb1 2.322 . S
O11 C20 1.257 . S
O12 Tb1 2.349 . S
O12 C23 1.261 . S
O13 Tb0 2.303 . S
O13 C23 1.257 . S
O14 Tb1 2.415 . S
O14 C30 1.239 . S
O15 Tb1 2.399 . S
O15 C30 1.263 . S
O16 Tb1 2.325 . S
O16 C31 1.236 . S
O17 Tb0 2.322 . S
O17 C31 1.257 . S
O18 Tb0 2.349 . S
O18 C2 1.261 . S
O19 Tb1 2.303 . S
O19 C2 1.257 . S
C20 O10 1.236 . S
C20 O11 1.257 . S
O21 Tb0 2.415 . S
O21 C9 1.239 . S
O22 Tb0 2.399 . S
O22 C9 1.263 . S
C23 O12 1.261 . S
C23 O13 1.257 . S
C24 C27 1.358 . S
C24 C28 1.332 . S
C24 C30 1.504 . S
C25 C26 1.373 . S
C25 C29 1.308 . S
C26 C25 1.373 . S
C26 C27 1.429 . S
C26 H36 0.932 . S
C27 C24 1.358 . S
C27 C26 1.429 . S
C27 H37 0.930 . S
C28 C24 1.332 . S
C28 C29 1.394 . S
C28 H38 0.932 . S
C29 C25 1.308 . S
C29 C28 1.394 . S
C29 H39 0.929 . S
C30 Tb1 2.764 . S
C30 O14 1.239 . S
C30 O15 1.263 . S
C30 C24 1.504 . S
C31 O16 1.236 . S
C31 O17 1.257 . S
H32 C5 0.932 . S
H33 C6 0.930 . S
H34 C7 0.932 . S
H35 C8 0.929 . S
H36 C26 0.932 . S
H37 C27 0.930 . S
H38 C28 0.932 . S
H39 C29 0.929 . S
Tb40 C49 2.764 . S
Tb40 O50 2.325 . S
Tb40 O53 2.303 . S
Tb40 O57 2.322 . S
Tb40 O58 2.349 . S
Tb40 O61 2.415 . S
Tb40 O62 2.399 . S
Tb41 O51 2.322 . S
Tb41 O52 2.349 . S
Tb41 O54 2.415 . S
Tb41 O55 2.399 . S
Tb41 O56 2.325 . S
Tb41 O59 2.303 . S
Tb41 C70 2.764 . S
C42 O58 1.261 . S
C42 O59 1.257 . S
C43 C46 1.358 . S
C43 C47 1.332 . S
C43 C49 1.504 . S
C44 C45 1.373 . S
C44 C48 1.308 . S
C45 C44 1.373 . S
C45 C46 1.429 . S
C45 H72 0.932 . S
C46 C43 1.358 . S
C46 C45 1.429 . S
C46 H73 0.930 . S
C47 C43 1.332 . S
C47 C48 1.394 . S
C47 H74 0.932 . S
C48 C44 1.308 . S
C48 C47 1.394 . S
C48 H75 0.929 . S
C49 Tb40 2.764 . S
C49 C43 1.504 . S
C49 O61 1.239 . S
C49 O62 1.263 . S
O50 Tb40 2.325 . S
O50 C60 1.236 . S
O51 Tb41 2.322 . S
O51 C60 1.257 . S
O52 Tb41 2.349 . S
O52 C63 1.261 . S
O53 Tb40 2.303 . S
O53 C63 1.257 . S
O54 Tb41 2.415 . S
O54 C70 1.239 . S
O55 Tb41 2.399 . S
O55 C70 1.263 . S
O56 Tb41 2.325 . S
O56 C71 1.236 . S
O57 Tb40 2.322 . S
O57 C71 1.257 . S
O58 Tb40 2.349 . S
O58 C42 1.261 . S
O59 Tb41 2.303 . S
O59 C42 1.257 . S
C60 O50 1.236 . S
C60 O51 1.257 . S
O61 Tb40 2.415 . S
O61 C49 1.239 . S
O62 Tb40 2.399 . S
O62 C49 1.263 . S
C63 O52 1.261 . S
C63 O53 1.257 . S
C64 C67 1.358 . S
C64 C68 1.332 . S
C64 C70 1.504 . S
C65 C66 1.373 . S
C65 C69 1.308 . S
C66 C65 1.373 . S
C66 C67 1.429 . S
C66 H76 0.932 . S
C67 C64 1.358 . S
C67 C66 1.429 . S
C67 H77 0.930 . S
C68 C64 1.332 . S
C68 C69 1.394 . S
C68 H78 0.932 . S
C69 C65 1.308 . S
C69 C68 1.394 . S
C69 H79 0.929 . S
C70 Tb41 2.764 . S
C70 O54 1.239 . S
C70 O55 1.263 . S
C70 C64 1.504 . S
C71 O56 1.236 . S
C71 O57 1.257 . S
H72 C45 0.932 . S
H73 C46 0.930 . S
H74 C47 0.932 . S
H75 C48 0.929 . S
H76 C66 0.932 . S
H77 C67 0.930 . S
H78 C68 0.932 . S
H79 C69 0.929 . S
Tb80 C89 2.764 . S
Tb80 O90 2.325 . S
Tb80 O93 2.303 . S
Tb80 O97 2.322 . S
Tb80 O98 2.349 . S
Tb80 O101 2.415 . S
Tb80 O102 2.399 . S
Tb81 O91 2.322 . S
Tb81 O92 2.349 . S
Tb81 O94 2.415 . S
Tb81 O95 2.399 . S
Tb81 O96 2.325 . S
Tb81 O99 2.303 . S
Tb81 C110 2.764 . S
C82 O98 1.261 . S
C82 O99 1.257 . S
C83 C86 1.358 . S
C83 C87 1.332 . S
C83 C89 1.504 . S
C84 C85 1.373 . S
C84 C88 1.308 . S
C85 C84 1.373 . S
C85 C86 1.429 . S
C85 H112 0.932 . S
C86 C83 1.358 . S
C86 C85 1.429 . S
C86 H113 0.930 . S
C87 C83 1.332 . S
C87 C88 1.394 . S
C87 H114 0.932 . S
C88 C84 1.308 . S
C88 C87 1.394 . S
C88 H115 0.929 . S
C89 Tb80 2.764 . S
C89 C83 1.504 . S
C89 O101 1.239 . S
C89 O102 1.263 . S
O90 Tb80 2.325 . S
O90 C100 1.236 . S
O91 Tb81 2.322 . S
O91 C100 1.257 . S
O92 Tb81 2.349 . S
O92 C103 1.261 . S
O93 Tb80 2.303 . S
O93 C103 1.257 . S
O94 Tb81 2.415 . S
O94 C110 1.239 . S
O95 Tb81 2.399 . S
O95 C110 1.263 . S
O96 Tb81 2.325 . S
O96 C111 1.236 . S
O97 Tb80 2.322 . S
O97 C111 1.257 . S
O98 Tb80 2.349 . S
O98 C82 1.261 . S
O99 Tb81 2.303 . S
O99 C82 1.257 . S
C100 O90 1.236 . S
C100 O91 1.257 . S
O101 Tb80 2.415 . S
O101 C89 1.239 . S
O102 Tb80 2.399 . S
O102 C89 1.263 . S
C103 O92 1.261 . S
C103 O93 1.257 . S
C104 C107 1.358 . S
C104 C108 1.332 . S
C104 C110 1.504 . S
C105 C106 1.373 . S
C105 C109 1.308 . S
C106 C105 1.373 . S
C106 C107 1.429 . S
C106 H116 0.932 . S
C107 C104 1.358 . S
C107 C106 1.429 . S
C107 H117 0.930 . S
C108 C104 1.332 . S
C108 C109 1.394 . S
C108 H118 0.932 . S
C109 C105 1.308 . S
C109 C108 1.394 . S
C109 H119 0.929 . S
C110 Tb81 2.764 . S
C110 O94 1.239 . S
C110 O95 1.263 . S
C110 C104 1.504 . S
C111 O96 1.236 . S
C111 O97 1.257 . S
H112 C85 0.932 . S
H113 C86 0.930 . S
H114 C87 0.932 . S
H115 C88 0.929 . S
H116 C106 0.932 . S
H117 C107 0.930 . S
H118 C108 0.932 . S
H119 C109 0.929 . S
Tb120 C129 2.764 . S
Tb120 O130 2.325 . S
Tb120 O133 2.303 . S
Tb120 O137 2.322 . S
Tb120 O138 2.349 . S
Tb120 O141 2.415 . S
Tb120 O142 2.399 . S
Tb121 O131 2.322 . S
Tb121 O132 2.349 . S
Tb121 O134 2.415 . S
Tb121 O135 2.399 . S
Tb121 O136 2.325 . S
Tb121 O139 2.303 . S
Tb121 C150 2.764 . S
C122 O138 1.261 . S
C122 O139 1.257 . S
C123 C126 1.358 . S
C123 C127 1.332 . S
C123 C129 1.504 . S
C124 C125 1.373 . S
C124 C128 1.308 . S
C125 C124 1.373 . S
C125 C126 1.429 . S
C125 H152 0.932 . S
C126 C123 1.358 . S
C126 C125 1.429 . S
C126 H153 0.930 . S
C127 C123 1.332 . S
C127 C128 1.394 . S
C127 H154 0.932 . S
C128 C124 1.308 . S
C128 C127 1.394 . S
C128 H155 0.929 . S
C129 Tb120 2.764 . S
C129 C123 1.504 . S
C129 O141 1.239 . S
C129 O142 1.263 . S
O130 Tb120 2.325 . S
O130 C140 1.236 . S
O131 Tb121 2.322 . S
O131 C140 1.257 . S
O132 Tb121 2.349 . S
O132 C143 1.261 . S
O133 Tb120 2.303 . S
O133 C143 1.257 . S
O134 Tb121 2.415 . S
O134 C150 1.239 . S
O135 Tb121 2.399 . S
O135 C150 1.263 . S
O136 Tb121 2.325 . S
O136 C151 1.236 . S
O137 Tb120 2.322 . S
O137 C151 1.257 . S
O138 Tb120 2.349 . S
O138 C122 1.261 . S
O139 Tb121 2.303 . S
O139 C122 1.257 . S
C140 O130 1.236 . S
C140 O131 1.257 . S
O141 Tb120 2.415 . S
O141 C129 1.239 . S
O142 Tb120 2.399 . S
O142 C129 1.263 . S
C143 O132 1.261 . S
C143 O133 1.257 . S
C144 C147 1.358 . S
C144 C148 1.332 . S
C144 C150 1.504 . S
C145 C146 1.373 . S
C145 C149 1.308 . S
C146 C145 1.373 . S
C146 C147 1.429 . S
C146 H156 0.932 . S
C147 C144 1.358 . S
C147 C146 1.429 . S
C147 H157 0.930 . S
C148 C144 1.332 . S
C148 C149 1.394 . S
C148 H158 0.932 . S
C149 C145 1.308 . S
C149 C148 1.394 . S
C149 H159 0.929 . S
C150 Tb121 2.764 . S
C150 O134 1.239 . S
C150 O135 1.263 . S
C150 C144 1.504 . S
C151 O136 1.236 . S
C151 O137 1.257 . S
H152 C125 0.932 . S
H153 C126 0.930 . S
H154 C127 0.932 . S
H155 C128 0.929 . S
H156 C146 0.932 . S
H157 C147 0.930 . S
H158 C148 0.932 . S
H159 C149 0.929 . S
Tb160 C169 2.764 . S
Tb160 O170 2.325 . S
Tb160 O173 2.303 . S
Tb160 O177 2.322 . S
Tb160 O178 2.349 . S
Tb160 O181 2.415 . S
Tb160 O182 2.399 . S
Tb161 O171 2.322 . S
Tb161 O172 2.349 . S
Tb161 O174 2.415 . S
Tb161 O175 2.399 . S
Tb161 O176 2.325 . S
Tb161 O179 2.303 . S
Tb161 C190 2.764 . S
C162 O178 1.261 . S
C162 O179 1.257 . S
C163 C166 1.358 . S
C163 C167 1.332 . S
C163 C169 1.504 . S
C164 C165 1.373 . S
C164 C168 1.308 . S
C165 C164 1.373 . S
C165 C166 1.429 . S
C165 H192 0.932 . S
C166 C163 1.358 . S
C166 C165 1.429 . S
C166 H193 0.930 . S
C167 C163 1.332 . S
C167 C168 1.394 . S
C167 H194 0.932 . S
C168 C164 1.308 . S
C168 C167 1.394 . S
C168 H195 0.929 . S
C169 Tb160 2.764 . S
C169 C163 1.504 . S
C169 O181 1.239 . S
C169 O182 1.263 . S
O170 Tb160 2.325 . S
O170 C180 1.236 . S
O171 Tb161 2.322 . S
O171 C180 1.257 . S
O172 Tb161 2.349 . S
O172 C183 1.261 . S
O173 Tb160 2.303 . S
O173 C183 1.257 . S
O174 Tb161 2.415 . S
O174 C190 1.239 . S
O175 Tb161 2.399 . S
O175 C190 1.263 . S
O176 Tb161 2.325 . S
O176 C191 1.236 . S
O177 Tb160 2.322 . S
O177 C191 1.257 . S
O178 Tb160 2.349 . S
O178 C162 1.261 . S
O179 Tb161 2.303 . S
O179 C162 1.257 . S
C180 O170 1.236 . S
C180 O171 1.257 . S
O181 Tb160 2.415 . S
O181 C169 1.239 . S
O182 Tb160 2.399 . S
O182 C169 1.263 . S
C183 O172 1.261 . S
C183 O173 1.257 . S
C184 C187 1.358 . S
C184 C188 1.332 . S
C184 C190 1.504 . S
C185 C186 1.373 . S
C185 C189 1.308 . S
C186 C185 1.373 . S
C186 C187 1.429 . S
C186 H196 0.932 . S
C187 C184 1.358 . S
C187 C186 1.429 . S
C187 H197 0.930 . S
C188 C184 1.332 . S
C188 C189 1.394 . S
C188 H198 0.932 . S
C189 C185 1.308 . S
C189 C188 1.394 . S
C189 H199 0.929 . S
C190 Tb161 2.764 . S
C190 O174 1.239 . S
C190 O175 1.263 . S
C190 C184 1.504 . S
C191 O176 1.236 . S
C191 O177 1.257 . S
H192 C165 0.932 . S
H193 C166 0.930 . S
H194 C167 0.932 . S
H195 C168 0.929 . S
H196 C186 0.932 . S
H197 C187 0.930 . S
H198 C188 0.932 . S
H199 C189 0.929 . S
Tb200 C209 2.764 . S
Tb200 O210 2.325 . S
Tb200 O213 2.303 . S
Tb200 O217 2.322 . S
Tb200 O218 2.349 . S
Tb200 O221 2.415 . S
Tb200 O222 2.399 . S
Tb201 O211 2.322 . S
Tb201 O212 2.349 . S
Tb201 O214 2.415 . S
Tb201 O215 2.399 . S
Tb201 O216 2.325 . S
Tb201 O219 2.303 . S
Tb201 C230 2.764 . S
C202 O218 1.261 . S
C202 O219 1.257 . S
C203 C206 1.358 . S
C203 C207 1.332 . S
C203 C209 1.504 . S
C204 C205 1.373 . S
C204 C208 1.308 . S
C205 C204 1.373 . S
C205 C206 1.429 . S
C205 H232 0.932 . S
C206 C203 1.358 . S
C206 C205 1.429 . S
C206 H233 0.930 . S
C207 C203 1.332 . S
C207 C208 1.394 . S
C207 H234 0.932 . S
C208 C204 1.308 . S
C208 C207 1.394 . S
C208 H235 0.929 . S
C209 Tb200 2.764 . S
C209 C203 1.504 . S
C209 O221 1.239 . S
C209 O222 1.263 . S
O210 Tb200 2.325 . S
O210 C220 1.236 . S
O211 Tb201 2.322 . S
O211 C220 1.257 . S
O212 Tb201 2.349 . S
O212 C223 1.261 . S
O213 Tb200 2.303 . S
O213 C223 1.257 . S
O214 Tb201 2.415 . S
O214 C230 1.239 . S
O215 Tb201 2.399 . S
O215 C230 1.263 . S
O216 Tb201 2.325 . S
O216 C231 1.236 . S
O217 Tb200 2.322 . S
O217 C231 1.257 . S
O218 Tb200 2.349 . S
O218 C202 1.261 . S
O219 Tb201 2.303 . S
O219 C202 1.257 . S
C220 O210 1.236 . S
C220 O211 1.257 . S
O221 Tb200 2.415 . S
O221 C209 1.239 . S
O222 Tb200 2.399 . S
O222 C209 1.263 . S
C223 O212 1.261 . S
C223 O213 1.257 . S
C224 C227 1.358 . S
C224 C228 1.332 . S
C224 C230 1.504 . S
C225 C226 1.373 . S
C225 C229 1.308 . S
C226 C225 1.373 . S
C226 C227 1.429 . S
C226 H236 0.932 . S
C227 C224 1.358 . S
C227 C226 1.429 . S
C227 H237 0.930 . S
C228 C224 1.332 . S
C228 C229 1.394 . S
C228 H238 0.932 . S
C229 C225 1.308 . S
C229 C228 1.394 . S
C229 H239 0.929 . S
C230 Tb201 2.764 . S
C230 O214 1.239 . S
C230 O215 1.263 . S
C230 C224 1.504 . S
C231 O216 1.236 . S
C231 O217 1.257 . S
H232 C205 0.932 . S
H233 C206 0.930 . S
H234 C207 0.932 . S
H235 C208 0.929 . S
H236 C226 0.932 . S
H237 C227 0.930 . S
H238 C228 0.932 . S
H239 C229 0.929 . S
H240 C258 0.951 . S
H241 C260 0.951 . S
H242 C262 0.950 . S
H243 C263 0.950 . S
H244 C265 0.950 . S
H245 C268 0.950 . S
H246 C269 0.950 . S
H247 C271 0.950 . S
H248 C272 0.950 1_554 S
H249 C273 0.951 . S
H250 C275 0.951 . S
H251 C277 0.950 . S
H252 C278 0.950 . S
H253 C280 0.950 . S
H254 C283 0.950 . S
H255 C284 0.950 . S
H256 C286 0.950 . S
H257 C287 0.950 1_556 S
C258 H240 0.951 . S
C258 C259 1.366 . S
C258 C260 1.388 . S
C259 C258 1.366 . S
C259 C263 1.385 . S
C260 H241 0.951 . S
C260 C258 1.388 . S
C260 C261 1.366 . S
C261 C260 1.366 . S
C261 C262 1.414 . S
C261 C264 1.499 . S
C262 H242 0.950 . S
C262 C261 1.414 . S
C262 C263 1.374 . S
C263 H243 0.950 . S
C263 C259 1.385 . S
C263 C262 1.374 . S
C264 C261 1.499 . S
C264 C265 1.373 . S
C264 C266 1.389 . S
C265 H244 0.950 . S
C265 C264 1.373 . S
C265 C281 1.377 1_566 S
C266 C264 1.389 . S
C266 C267 1.524 . S
C266 C280 1.377 1_566 S
C267 C266 1.524 . S
C267 C268 1.397 1_565 S
C267 C272 1.363 . S
C268 H245 0.950 . S
C268 C267 1.397 1_545 S
C268 C269 1.334 . S
C269 H246 0.950 . S
C269 C268 1.334 . S
C269 C270 1.291 1_545 S
C270 C269 1.291 1_565 S
C270 C271 1.531 . S
C270 H289 0.904 . S
C271 H247 0.950 . S
C271 C270 1.531 . S
C271 C272 1.415 . S
C272 H248 0.950 1_556 S
C272 C267 1.363 . S
C272 C271 1.415 . S
C273 H249 0.951 . S
C273 C274 1.366 . S
C273 C275 1.388 . S
C274 C273 1.366 . S
C274 C278 1.385 . S
C275 H250 0.951 . S
C275 C273 1.388 . S
C275 C276 1.366 . S
C276 C275 1.366 . S
C276 C277 1.414 . S
C276 C279 1.499 . S
C277 H251 0.950 . S
C277 C276 1.414 . S
C277 C278 1.374 . S
C278 H252 0.950 . S
C278 C274 1.385 . S
C278 C277 1.374 . S
C279 C276 1.499 . S
C279 C280 1.373 . S
C279 C281 1.389 . S
C280 H253 0.950 . S
C280 C266 1.377 1_544 S
C280 C279 1.373 . S
C281 C265 1.377 1_544 S
C281 C279 1.389 . S
C281 C282 1.524 . S
C282 C281 1.524 . S
C282 C283 1.397 1_545 S
C282 C287 1.363 . S
C283 H254 0.950 . S
C283 C282 1.397 1_565 S
C283 C284 1.334 . S
C284 H255 0.950 . S
C284 C283 1.334 . S
C284 C285 1.287 1_565 S
C285 C284 1.287 1_545 S
C285 C286 1.524 . S
C285 H288 0.999 . S
C286 H256 0.950 . S
C286 C285 1.524 . S
C286 C287 1.415 . S
C287 H257 0.950 1_554 S
C287 C282 1.363 . S
C287 C286 1.415 . S
H288 C285 0.999 . S
H289 C270 0.904 . S
H290 C308 0.951 . S
H291 C310 0.951 . S
H292 C312 0.950 . S
H293 C313 0.950 . S
H294 C315 0.950 . S
H295 C318 0.950 . S
H296 C319 0.950 . S
H297 C321 0.950 . S
H298 C322 0.950 . S
H299 C323 0.951 . S
H300 C325 0.951 . S
H301 C327 0.950 . S
H302 C328 0.950 . S
H303 C330 0.950 . S
H304 C333 0.950 . S
H305 C334 0.950 . S
H306 C336 0.950 . S
H307 C337 0.950 . S
C308 H290 0.951 . S
C308 C309 1.366 . S
C308 C310 1.388 . S
C309 C308 1.366 . S
C309 C313 1.385 . S
C310 H291 0.951 . S
C310 C308 1.388 . S
C310 C311 1.366 . S
C311 C310 1.366 . S
C311 C312 1.414 . S
C311 C314 1.499 . S
C312 H292 0.950 . S
C312 C311 1.414 . S
C312 C313 1.374 . S
C313 H293 0.950 . S
C313 C309 1.385 . S
C313 C312 1.374 . S
C314 C311 1.499 . S
C314 C315 1.373 . S
C314 C316 1.389 . S
C315 H294 0.950 . S
C315 C314 1.373 . S
C315 C331 1.377 . S
C316 C314 1.389 . S
C316 C317 1.524 . S
C316 C330 1.377 . S
C317 C316 1.524 . S
C317 C318 1.397 . S
C317 C322 1.363 . S
C318 H295 0.950 . S
C318 C317 1.397 . S
C318 C319 1.334 . S
C319 H296 0.950 . S
C319 C318 1.334 . S
C319 C320 1.287 . S
C320 C319 1.287 . S
C320 C321 1.524 . S
C320 H339 0.913 . S
C321 H297 0.950 . S
C321 C320 1.524 . S
C321 C322 1.415 . S
C322 H298 0.950 . S
C322 C317 1.363 . S
C322 C321 1.415 . S
C323 H299 0.951 . S
C323 C324 1.366 . S
C323 C325 1.388 . S
C324 C323 1.366 . S
C324 C328 1.385 . S
C325 H300 0.951 . S
C325 C323 1.388 . S
C325 C326 1.366 . S
C326 C325 1.366 . S
C326 C327 1.414 . S
C326 C329 1.499 . S
C327 H301 0.950 . S
C327 C326 1.414 . S
C327 C328 1.374 . S
C328 H302 0.950 . S
C328 C324 1.385 . S
C328 C327 1.374 . S
C329 C326 1.499 . S
C329 C330 1.373 . S
C329 C331 1.389 . S
C330 H303 0.950 . S
C330 C316 1.377 . S
C330 C329 1.373 . S
C331 C315 1.377 . S
C331 C329 1.389 . S
C331 C332 1.524 . S
C332 C331 1.524 . S
C332 C333 1.397 . S
C332 C337 1.363 . S
C333 H304 0.950 . S
C333 C332 1.397 . S
C333 C334 1.334 . S
C334 H305 0.950 . S
C334 C333 1.334 . S
C334 C335 1.287 . S
C335 C334 1.287 . S
C335 C336 1.524 . S
C335 H338 0.999 . S
C336 H306 0.950 . S
C336 C335 1.524 . S
C336 C337 1.415 . S
C337 H307 0.950 . S
C337 C332 1.363 . S
C337 C336 1.415 . S
H338 C335 0.999 . S
H339 C320 0.913 . S
H340 C358 0.951 . S
H341 C360 0.951 . S
H342 C362 0.950 . S
H343 C363 0.950 . S
H344 C365 0.950 . S
H345 C368 0.950 . S
H346 C369 0.950 . S
H347 C371 0.950 . S
H348 C372 0.950 . S
H349 C373 0.951 . S
H350 C375 0.951 . S
H351 C377 0.950 . S
H352 C378 0.950 . S
H353 C380 0.950 . S
H354 C383 0.950 . S
H355 C384 0.950 . S
H356 C386 0.950 . S
H357 C387 0.950 . S
C358 H340 0.951 . S
C358 C359 1.366 . S
C358 C360 1.388 . S
C359 C358 1.366 . S
C359 C363 1.385 . S
C360 H341 0.951 . S
C360 C358 1.388 . S
C360 C361 1.366 . S
C361 C360 1.366 . S
C361 C362 1.414 . S
C361 C364 1.499 . S
C362 H342 0.950 . S
C362 C361 1.414 . S
C362 C363 1.374 . S
C363 H343 0.950 . S
C363 C359 1.385 . S
C363 C362 1.374 . S
C364 C361 1.499 . S
C364 C365 1.373 1_554 S
C364 C366 1.389 1_655 S
C365 H344 0.950 . S
C365 C364 1.373 1_556 S
C365 C381 1.377 . S
C366 C364 1.389 1_455 S
C366 C367 1.524 . S
C366 C380 1.377 . S
C367 C366 1.524 . S
C367 C368 1.397 . S
C367 C372 1.363 . S
C368 H345 0.950 . S
C368 C367 1.397 . S
C368 C369 1.334 . S
C369 H346 0.950 . S
C369 C368 1.334 . S
C369 C370 1.287 . S
C370 C369 1.287 . S
C370 C371 1.524 . S
C370 H389 0.913 . S
C371 H347 0.950 . S
C371 C370 1.524 . S
C371 C372 1.415 . S
C372 H348 0.950 . S
C372 C367 1.363 . S
C372 C371 1.415 . S
C373 H349 0.951 . S
C373 C374 1.366 . S
C373 C375 1.388 . S
C374 C373 1.366 . S
C374 C378 1.385 . S
C375 H350 0.951 . S
C375 C373 1.388 . S
C375 C376 1.366 . S
C376 C375 1.366 . S
C376 C377 1.414 . S
C376 C379 1.499 . S
C377 H351 0.950 . S
C377 C376 1.414 . S
C377 C378 1.374 . S
C378 H352 0.950 . S
C378 C374 1.385 . S
C378 C377 1.374 . S
C379 C376 1.499 . S
C379 C380 1.373 1_556 S
C379 C381 1.389 1_455 S
C380 H353 0.950 . S
C380 C366 1.377 . S
C380 C379 1.373 1_554 S
C381 C365 1.377 . S
C381 C379 1.389 1_655 S
C381 C382 1.524 . S
C382 C381 1.524 . S
C382 C383 1.397 . S
C382 C387 1.363 . S
C383 H354 0.950 . S
C383 C382 1.397 . S
C383 C384 1.334 . S
C384 H355 0.950 . S
C384 C383 1.334 . S
C384 C385 1.287 . S
C385 C384 1.287 . S
C385 C386 1.524 . S
C385 H388 0.999 . S
C386 H356 0.950 . S
C386 C385 1.524 . S
C386 C387 1.415 . S
C387 H357 0.950 . S
C387 C382 1.363 . S
C387 C386 1.415 . S
H388 C385 0.999 . S
H389 C370 0.913 . S
H390 C408 0.951 . S
H391 C410 0.951 . S
H392 C412 0.950 . S
H393 C413 0.950 . S
H394 C415 0.961 . S
H395 C418 0.952 . S
H396 C419 0.950 . S
H397 C421 0.950 . S
H398 C422 0.950 . S
H399 C423 0.951 . S
H400 C425 0.951 . S
H401 C427 0.950 . S
H402 C428 0.950 . S
H403 C430 0.950 . S
H404 C433 0.950 . S
H405 C434 0.950 . S
H406 C436 0.950 . S
H407 C437 0.950 . S
C408 H390 0.951 . S
C408 C409 1.366 . S
C408 C410 1.388 . S
C409 C408 1.366 . S
C409 C413 1.385 . S
C410 H391 0.951 . S
C410 C408 1.388 . S
C410 C411 1.366 . S
C411 C410 1.366 . S
C411 C412 1.414 . S
C411 C414 1.499 . S
C412 H392 0.950 . S
C412 C411 1.414 . S
C412 C413 1.374 . S
C413 H393 0.950 . S
C413 C409 1.385 . S
C413 C412 1.374 . S
C414 C411 1.499 . S
C414 C415 1.372 . S
C414 C416 1.389 . S
C415 H394 0.961 . S
C415 C414 1.372 . S
C415 C431 1.367 1_545 S
C416 C414 1.389 . S
C416 C417 1.524 . S
C416 C430 1.377 1_545 S
C417 C416 1.524 . S
C417 C418 1.397 . S
C417 C422 1.363 . S
C418 H395 0.952 . S
C418 C417 1.397 . S
C418 C419 1.334 . S
C419 H396 0.950 . S
C419 C418 1.334 . S
C419 C420 1.287 . S
C420 C419 1.287 . S
C420 C421 1.524 . S
C420 H439 0.913 . S
C421 H397 0.950 . S
C421 C420 1.524 . S
C421 C422 1.415 . S
C422 H398 0.950 . S
C422 C417 1.363 . S
C422 C421 1.415 . S
C423 H399 0.951 . S
C423 C424 1.366 . S
C423 C425 1.388 . S
C424 C423 1.366 . S
C424 C428 1.385 . S
C425 H400 0.951 . S
C425 C423 1.388 . S
C425 C426 1.366 . S
C426 C425 1.366 . S
C426 C427 1.414 . S
C426 C429 1.499 . S
C427 H401 0.950 . S
C427 C426 1.414 . S
C427 C428 1.374 . S
C428 H402 0.950 . S
C428 C424 1.385 . S
C428 C427 1.374 . S
C429 C426 1.499 . S
C429 C430 1.373 . S
C429 C431 1.389 . S
C430 H403 0.950 . S
C430 C416 1.377 1_565 S
C430 C429 1.373 . S
C431 C415 1.367 1_565 S
C431 C429 1.389 . S
C431 C432 1.524 . S
C432 C431 1.524 . S
C432 C433 1.397 . S
C432 C437 1.363 . S
C433 H404 0.950 . S
C433 C432 1.397 . S
C433 C434 1.334 . S
C434 H405 0.950 . S
C434 C433 1.334 . S
C434 C435 1.287 . S
C435 C434 1.287 . S
C435 C436 1.524 . S
C435 H438 0.999 . S
C436 H406 0.950 . S
C436 C435 1.524 . S
C436 C437 1.415 . S
C437 H407 0.950 . S
C437 C432 1.363 . S
C437 C436 1.415 . S
H438 C435 0.999 . S
H439 C420 0.913 . S
H440 C458 0.951 . S
H441 C460 0.951 . S
H442 C462 0.950 . S
H443 C463 0.950 . S
H444 C465 0.950 . S
H445 C468 0.950 . S
H446 C469 0.950 . S
H447 C471 0.950 . S
H448 C472 0.950 . S
H449 C473 0.951 . S
H450 C475 0.951 . S
H451 C477 0.950 . S
H452 C478 0.950 . S
H453 C480 0.950 . S
H454 C483 0.950 . S
H455 C484 0.950 . S
H456 C486 0.950 . S
H457 C487 0.950 . S
C458 H440 0.951 . S
C458 C459 1.366 . S
C458 C460 1.388 . S
C459 C458 1.366 . S
C459 C463 1.385 . S
C460 H441 0.951 . S
C460 C458 1.388 . S
C460 C461 1.366 . S
C461 C460 1.366 . S
C461 C462 1.414 . S
C461 C464 1.499 . S
C462 H442 0.950 . S
C462 C461 1.414 . S
C462 C463 1.374 . S
C463 H443 0.950 . S
C463 C459 1.385 . S
C463 C462 1.374 . S
C464 C461 1.499 . S
C464 C465 1.373 1_556 S
C464 C466 1.389 . S
C465 H444 0.950 . S
C465 C464 1.373 1_554 S
C465 C481 1.377 . S
C466 C464 1.389 . S
C466 C467 1.524 . S
C466 C480 1.377 . S
C467 C466 1.524 . S
C467 C468 1.397 . S
C467 C472 1.363 . S
C468 H445 0.950 . S
C468 C467 1.397 . S
C468 C469 1.334 . S
C469 H446 0.950 . S
C469 C468 1.334 . S
C469 C470 1.287 . S
C470 C469 1.287 . S
C470 C471 1.524 . S
C470 H489 0.913 . S
C471 H447 0.950 . S
C471 C470 1.524 . S
C471 C472 1.415 . S
C472 H448 0.950 . S
C472 C467 1.363 . S
C472 C471 1.415 . S
C473 H449 0.951 . S
C473 C474 1.366 . S
C473 C475 1.388 . S
C474 C473 1.366 . S
C474 C478 1.385 . S
C475 H450 0.951 . S
C475 C473 1.388 . S
C475 C476 1.366 . S
C476 C475 1.366 . S
C476 C477 1.414 . S
C476 C479 1.499 . S
C477 H451 0.950 . S
C477 C476 1.414 . S
C477 C478 1.374 . S
C478 H452 0.950 . S
C478 C474 1.385 . S
C478 C477 1.374 . S
C479 C476 1.499 . S
C479 C480 1.373 1_554 S
C479 C481 1.389 . S
C480 H453 0.950 . S
C480 C466 1.377 . S
C480 C479 1.373 1_556 S
C481 C465 1.377 . S
C481 C479 1.389 . S
C481 C482 1.524 . S
C482 C481 1.524 . S
C482 C483 1.397 . S
C482 C487 1.363 . S
C483 H454 0.950 . S
C483 C482 1.397 . S
C483 C484 1.334 . S
C484 H455 0.950 . S
C484 C483 1.334 . S
C484 C485 1.287 . S
C485 C484 1.287 . S
C485 C486 1.524 . S
C485 H488 0.999 . S
C486 H456 0.950 . S
C486 C485 1.524 . S
C486 C487 1.415 . S
C487 H457 0.950 . S
C487 C482 1.363 . S
C487 C486 1.415 . S
H488 C485 0.999 . S
H489 C470 0.913 . S
H490 C508 0.951 . S
H491 C510 0.951 . S
H492 C512 0.950 . S
H493 C513 0.950 . S
H494 C515 0.950 . S
H495 C518 0.950 . S
H496 C519 0.950 . S
H497 C521 0.950 . S
H498 C522 0.950 . S
H499 C523 0.951 . S
H500 C525 0.951 . S
H501 C527 0.950 . S
H502 C528 0.950 . S
H503 C530 0.950 . S
H504 C533 0.950 . S
H505 C534 0.950 . S
H506 C536 0.950 . S
H507 C537 0.950 . S
C508 H490 0.951 . S
C508 C509 1.366 . S
C508 C510 1.388 . S
C509 C508 1.366 . S
C509 C513 1.385 . S
C510 H491 0.951 . S
C510 C508 1.388 . S
C510 C511 1.366 . S
C511 C510 1.366 . S
C511 C512 1.414 . S
C511 C514 1.499 . S
C512 H492 0.950 . S
C512 C511 1.414 . S
C512 C513 1.374 . S
C513 H493 0.950 . S
C513 C509 1.385 . S
C513 C512 1.374 . S
C514 C511 1.499 . S
C514 C515 1.373 . S
C514 C516 1.389 1_655 S
C515 H494 0.950 . S
C515 C514 1.373 . S
C515 C531 1.377 . S
C516 C514 1.389 1_455 S
C516 C517 1.524 . S
C516 C530 1.377 . S
C517 C516 1.524 . S
C517 C518 1.397 . S
C517 C522 1.363 . S
C518 H495 0.950 . S
C518 C517 1.397 . S
C518 C519 1.334 . S
C519 H496 0.950 . S
C519 C518 1.334 . S
C519 C520 1.287 . S
C520 C519 1.287 . S
C520 C521 1.524 . S
C520 H539 0.913 . S
C521 H497 0.950 . S
C521 C520 1.524 . S
C521 C522 1.415 . S
C522 H498 0.950 . S
C522 C517 1.363 . S
C522 C521 1.415 . S
C523 H499 0.951 . S
C523 C524 1.366 . S
C523 C525 1.388 . S
C524 C523 1.366 . S
C524 C528 1.385 . S
C525 H500 0.951 . S
C525 C523 1.388 . S
C525 C526 1.366 . S
C526 C525 1.366 . S
C526 C527 1.414 . S
C526 C529 1.499 . S
C527 H501 0.950 . S
C527 C526 1.414 . S
C527 C528 1.374 . S
C528 H502 0.950 . S
C528 C524 1.385 . S
C528 C527 1.374 . S
C529 C526 1.499 . S
C529 C530 1.373 . S
C529 C531 1.389 1_455 S
C530 H503 0.950 . S
C530 C516 1.377 . S
C530 C529 1.373 . S
C531 C515 1.377 . S
C531 C529 1.389 1_655 S
C531 C532 1.524 . S
C532 C531 1.524 . S
C532 C533 1.397 . S
C532 C537 1.363 . S
C533 H504 0.950 . S
C533 C532 1.397 . S
C533 C534 1.334 . S
C534 H505 0.950 . S
C534 C533 1.334 . S
C534 C535 1.287 . S
C535 C534 1.287 . S
C535 C536 1.524 . S
C535 H538 0.999 . S
C536 H506 0.950 . S
C536 C535 1.524 . S
C536 C537 1.415 . S
C537 H507 0.950 . S
C537 C532 1.363 . S
C537 C536 1.415 . S
H538 C535 0.999 . S
H539 C520 0.913 . S
H540 C558 0.951 . S
H541 C560 0.951 . S
H542 C562 0.950 . S
H543 C563 0.950 . S
H544 C565 0.950 . S
H545 C568 0.950 . S
H546 C569 0.950 . S
H547 C571 0.950 . S
H548 C572 0.950 . S
H549 C573 0.951 . S
H550 C575 0.951 . S
H551 C577 0.950 . S
H552 C578 0.950 . S
H553 C580 0.950 . S
H554 C583 0.950 . S
H555 C584 0.950 . S
H556 C586 0.950 . S
H557 C587 0.950 . S
C558 H540 0.951 . S
C558 C559 1.366 . S
C558 C560 1.388 . S
C559 C558 1.366 . S
C559 C563 1.385 . S
C560 H541 0.951 . S
C560 C558 1.388 . S
C560 C561 1.366 . S
C561 C560 1.366 . S
C561 C562 1.414 . S
C561 C564 1.499 . S
C562 H542 0.950 . S
C562 C561 1.414 . S
C562 C563 1.374 . S
C563 H543 0.950 . S
C563 C559 1.385 . S
C563 C562 1.374 . S
C564 C561 1.499 . S
C564 C565 1.373 . S
C564 C566 1.389 . S
C565 H544 0.950 . S
C565 C564 1.373 . S
C565 C581 1.377 . S
C566 C564 1.389 . S
C566 C567 1.524 . S
C566 C580 1.377 . S
C567 C566 1.524 . S
C567 C568 1.397 . S
C567 C572 1.363 . S
C568 H545 0.950 . S
C568 C567 1.397 . S
C568 C569 1.334 . S
C569 H546 0.950 . S
C569 C568 1.334 . S
C569 C570 1.287 . S
C570 C569 1.287 . S
C570 C571 1.524 . S
C570 H589 0.913 . S
C571 H547 0.950 . S
C571 C570 1.524 . S
C571 C572 1.415 . S
C572 H548 0.950 . S
C572 C567 1.363 . S
C572 C571 1.415 . S
C573 H549 0.951 . S
C573 C574 1.366 . S
C573 C575 1.388 . S
C574 C573 1.366 . S
C574 C578 1.385 . S
C575 H550 0.951 . S
C575 C573 1.388 . S
C575 C576 1.366 . S
C576 C575 1.366 . S
C576 C577 1.414 . S
C576 C579 1.499 . S
C577 H551 0.950 . S
C577 C576 1.414 . S
C577 C578 1.374 . S
C578 H552 0.950 . S
C578 C574 1.385 . S
C578 C577 1.374 . S
C579 C576 1.499 . S
C579 C580 1.373 . S
C579 C581 1.389 . S
C580 H553 0.950 . S
C580 C566 1.377 . S
C580 C579 1.373 . S
C581 C565 1.377 . S
C581 C579 1.389 . S
C581 C582 1.524 . S
C582 C581 1.524 . S
C582 C583 1.397 . S
C582 C587 1.363 . S
C583 H554 0.950 . S
C583 C582 1.397 . S
C583 C584 1.334 . S
C584 H555 0.950 . S
C584 C583 1.334 . S
C584 C585 1.287 . S
C585 C584 1.287 . S
C585 C586 1.524 . S
C585 H588 0.999 . S
C586 H556 0.950 . S
C586 C585 1.524 . S
C586 C587 1.415 . S
C587 H557 0.950 . S
C587 C582 1.363 . S
C587 C586 1.415 . S
H588 C585 0.999 . S
H589 C570 0.913 . S
H590 C608 0.951 . S
H591 C610 0.951 . S
H592 C612 0.950 . S
H593 C613 0.950 . S
H594 C615 0.950 . S
H595 C618 0.950 . S
H596 C619 0.950 . S
H597 C621 0.950 . S
H598 C622 0.950 . S
H599 C623 0.951 . S
H600 C625 0.951 . S
H601 C627 0.950 . S
H602 C628 0.950 . S
H603 C630 0.950 . S
H604 C633 0.950 . S
H605 C634 0.950 . S
H606 C636 0.950 . S
H607 C637 0.950 . S
C608 H590 0.951 . S
C608 C609 1.366 . S
C608 C610 1.388 . S
C609 C608 1.366 . S
C609 C613 1.385 . S
C610 H591 0.951 . S
C610 C608 1.388 . S
C610 C611 1.366 . S
C611 C610 1.366 . S
C611 C612 1.414 . S
C611 C614 1.499 . S
C612 H592 0.950 . S
C612 C611 1.414 . S
C612 C613 1.374 . S
C613 H593 0.950 . S
C613 C609 1.385 . S
C613 C612 1.374 . S
C614 C611 1.499 . S
C614 C615 1.373 . S
C614 C616 1.389 . S
C615 H594 0.950 . S
C615 C614 1.373 . S
C615 C631 1.377 . S
C616 C614 1.389 . S
C616 C617 1.524 . S
C616 C630 1.377 . S
C617 C616 1.524 . S
C617 C618 1.397 . S
C617 C622 1.363 . S
C618 H595 0.950 . S
C618 C617 1.397 . S
C618 C619 1.334 . S
C619 H596 0.950 . S
C619 C618 1.334 . S
C619 C620 1.287 . S
C620 C619 1.287 . S
C620 C621 1.524 . S
C620 H639 0.913 . S
C621 H597 0.950 . S
C621 C620 1.524 . S
C621 C622 1.415 . S
C622 H598 0.950 . S
C622 C617 1.363 . S
C622 C621 1.415 . S
C623 H599 0.951 . S
C623 C624 1.366 . S
C623 C625 1.388 . S
C624 C623 1.366 . S
C624 C628 1.385 . S
C625 H600 0.951 . S
C625 C623 1.388 . S
C625 C626 1.366 . S
C626 C625 1.366 . S
C626 C627 1.414 . S
C626 C629 1.499 . S
C627 H601 0.950 . S
C627 C626 1.414 . S
C627 C628 1.374 . S
C628 H602 0.950 . S
C628 C624 1.385 . S
C628 C627 1.374 . S
C629 C626 1.499 . S
C629 C630 1.373 . S
C629 C631 1.389 . S
C630 H603 0.950 . S
C630 C616 1.377 . S
C630 C629 1.373 . S
C631 C615 1.377 . S
C631 C629 1.389 . S
C631 C632 1.524 . S
C632 C631 1.524 . S
C632 C633 1.397 . S
C632 C637 1.363 . S
C633 H604 0.950 . S
C633 C632 1.397 . S
C633 C634 1.334 . S
C634 H605 0.950 . S
C634 C633 1.334 . S
C634 C635 1.287 . S
C635 C634 1.287 . S
C635 C636 1.524 . S
C635 H638 0.999 . S
C636 H606 0.950 . S
C636 C635 1.524 . S
C636 C637 1.415 . S
C637 H607 0.950 . S
C637 C632 1.363 . S
C637 C636 1.415 . S
H638 C635 0.999 . S
H639 C620 0.913 . S
H640 C658 0.951 . S
H641 C660 0.951 . S
H642 C662 0.950 . S
H643 C663 0.950 . S
H644 C665 0.950 . S
H645 C668 0.950 . S
H646 C669 0.950 . S
H647 C671 0.950 . S
H648 C672 0.950 . S
H649 C673 0.951 . S
H650 C675 0.951 . S
H651 C677 0.950 . S
H652 C678 0.950 . S
H653 C680 0.950 . S
H654 C683 0.950 . S
H655 C684 0.950 . S
H656 C686 0.950 . S
H657 C687 0.950 . S
C658 H640 0.951 . S
C658 C659 1.366 . S
C658 C660 1.388 . S
C659 C658 1.366 . S
C659 C663 1.385 . S
C660 H641 0.951 . S
C660 C658 1.388 . S
C660 C661 1.366 . S
C661 C660 1.366 . S
C661 C662 1.414 . S
C661 C664 1.499 . S
C662 H642 0.950 . S
C662 C661 1.414 . S
C662 C663 1.374 . S
C663 H643 0.950 . S
C663 C659 1.385 . S
C663 C662 1.374 . S
C664 C661 1.499 . S
C664 C665 1.373 . S
C664 C666 1.389 . S
C665 H644 0.950 . S
C665 C664 1.373 . S
C665 C681 1.377 . S
C666 C664 1.389 . S
C666 C667 1.524 . S
C666 C680 1.377 . S
C667 C666 1.524 . S
C667 C668 1.397 . S
C667 C672 1.363 . S
C668 H645 0.950 . S
C668 C667 1.397 . S
C668 C669 1.334 . S
C669 H646 0.950 . S
C669 C668 1.334 . S
C669 C670 1.287 . S
C670 C669 1.287 . S
C670 C671 1.524 . S
C670 H689 0.913 . S
C671 H647 0.950 . S
C671 C670 1.524 . S
C671 C672 1.415 . S
C672 H648 0.950 . S
C672 C667 1.363 . S
C672 C671 1.415 . S
C673 H649 0.951 . S
C673 C674 1.366 . S
C673 C675 1.388 . S
C674 C673 1.366 . S
C674 C678 1.385 . S
C675 H650 0.951 . S
C675 C673 1.388 . S
C675 C676 1.366 . S
C676 C675 1.366 . S
C676 C677 1.414 . S
C676 C679 1.499 . S
C677 H651 0.950 . S
C677 C676 1.414 . S
C677 C678 1.374 . S
C678 H652 0.950 . S
C678 C674 1.385 . S
C678 C677 1.374 . S
C679 C676 1.499 . S
C679 C680 1.373 . S
C679 C681 1.389 . S
C680 H653 0.950 . S
C680 C666 1.377 . S
C680 C679 1.373 . S
C681 C665 1.377 . S
C681 C679 1.389 . S
C681 C682 1.524 . S
C682 C681 1.524 . S
C682 C683 1.397 . S
C682 C687 1.363 . S
C683 H654 0.950 . S
C683 C682 1.397 . S
C683 C684 1.334 . S
C684 H655 0.950 . S
C684 C683 1.334 . S
C684 C685 1.287 . S
C685 C684 1.287 . S
C685 C686 1.524 . S
C685 H688 0.999 . S
C686 H656 0.950 . S
C686 C685 1.524 . S
C686 C687 1.415 . S
C687 H657 0.950 . S
C687 C682 1.363 . S
C687 C686 1.415 . S
H688 C685 0.999 . S
H689 C670 0.913 . S
H690 C708 0.951 . S
H691 C710 0.951 . S
H692 C712 0.950 . S
H693 C713 0.950 . S
H694 C715 0.950 . S
H695 C718 0.950 . S
H696 C719 0.950 . S
H697 C721 0.950 . S
H698 C722 0.950 . S
H699 C723 0.951 . S
H700 C725 0.951 . S
H701 C727 0.950 . S
H702 C728 0.950 . S
H703 C730 0.950 . S
H704 C733 0.950 . S
H705 C734 0.950 . S
H706 C736 0.950 . S
H707 C737 0.950 . S
C708 H690 0.951 . S
C708 C709 1.366 . S
C708 C710 1.388 . S
C709 C708 1.366 . S
C709 C713 1.385 . S
C710 H691 0.951 . S
C710 C708 1.388 . S
C710 C711 1.366 . S
C711 C710 1.366 . S
C711 C712 1.414 . S
C711 C714 1.499 . S
C712 H692 0.950 . S
C712 C711 1.414 . S
C712 C713 1.374 . S
C713 H693 0.950 . S
C713 C709 1.385 . S
C713 C712 1.374 . S
C714 C711 1.499 . S
C714 C715 1.373 . S
C714 C716 1.389 . S
C715 H694 0.950 . S
C715 C714 1.373 . S
C715 C731 1.377 . S
C716 C714 1.389 . S
C716 C717 1.524 . S
C716 C730 1.377 . S
C717 C716 1.524 . S
C717 C718 1.397 . S
C717 C722 1.363 . S
C718 H695 0.950 . S
C718 C717 1.397 . S
C718 C719 1.334 . S
C719 H696 0.950 . S
C719 C718 1.334 . S
C719 C720 1.287 . S
C720 C719 1.287 . S
C720 C721 1.524 . S
C720 H739 0.913 . S
C721 H697 0.950 . S
C721 C720 1.524 . S
C721 C722 1.415 . S
C722 H698 0.950 . S
C722 C717 1.363 . S
C722 C721 1.415 . S
C723 H699 0.951 . S
C723 C724 1.366 . S
C723 C725 1.388 . S
C724 C723 1.366 . S
C724 C728 1.385 . S
C725 H700 0.951 . S
C725 C723 1.388 . S
C725 C726 1.366 . S
C726 C725 1.366 . S
C726 C727 1.414 . S
C726 C729 1.499 . S
C727 H701 0.950 . S
C727 C726 1.414 . S
C727 C728 1.374 . S
C728 H702 0.950 . S
C728 C724 1.385 . S
C728 C727 1.374 . S
C729 C726 1.499 . S
C729 C730 1.373 . S
C729 C731 1.389 . S
C730 H703 0.950 . S
C730 C716 1.377 . S
C730 C729 1.373 . S
C731 C715 1.377 . S
C731 C729 1.389 . S
C731 C732 1.524 . S
C732 C731 1.524 . S
C732 C733 1.397 . S
C732 C737 1.363 . S
C733 H704 0.950 . S
C733 C732 1.397 . S
C733 C734 1.334 . S
C734 H705 0.950 . S
C734 C733 1.334 . S
C734 C735 1.287 . S
C735 C734 1.287 . S
C735 C736 1.524 . S
C735 H738 0.999 . S
C736 H706 0.950 . S
C736 C735 1.524 . S
C736 C737 1.415 . S
C737 H707 0.950 . S
C737 C732 1.363 . S
C737 C736 1.415 . S
H738 C735 0.999 . S
H739 C720 0.913 . S
H740 C758 0.951 . S
H741 C760 0.951 . S
H742 C762 0.950 . S
H743 C763 0.950 . S
H744 C765 0.950 . S
H745 C768 0.950 . S
H746 C769 0.950 . S
H747 C771 0.950 . S
H748 C772 0.950 . S
H749 C773 0.951 . S
H750 C775 0.951 . S
H751 C777 0.950 . S
H752 C778 0.950 . S
H753 C780 0.950 . S
H754 C783 0.950 . S
H755 C784 0.950 . S
H756 C786 0.950 . S
H757 C787 0.950 . S
C758 H740 0.951 . S
C758 C759 1.366 . S
C758 C760 1.388 . S
C759 C758 1.366 . S
C759 C763 1.385 . S
C760 H741 0.951 . S
C760 C758 1.388 . S
C760 C761 1.366 . S
C761 C760 1.366 . S
C761 C762 1.414 . S
C761 C764 1.499 . S
C762 H742 0.950 . S
C762 C761 1.414 . S
C762 C763 1.374 . S
C763 H743 0.950 . S
C763 C759 1.385 . S
C763 C762 1.374 . S
C764 C761 1.499 . S
C764 C765 1.373 . S
C764 C766 1.389 . S
C765 H744 0.950 . S
C765 C764 1.373 . S
C765 C781 1.377 . S
C766 C764 1.389 . S
C766 C767 1.524 . S
C766 C780 1.377 . S
C767 C766 1.524 . S
C767 C768 1.397 . S
C767 C772 1.363 . S
C768 H745 0.950 . S
C768 C767 1.397 . S
C768 C769 1.334 . S
C769 H746 0.950 . S
C769 C768 1.334 . S
C769 C770 1.287 . S
C770 C769 1.287 . S
C770 C771 1.524 . S
C770 H789 0.913 . S
C771 H747 0.950 . S
C771 C770 1.524 . S
C771 C772 1.415 . S
C772 H748 0.950 . S
C772 C767 1.363 . S
C772 C771 1.415 . S
C773 H749 0.951 . S
C773 C774 1.366 . S
C773 C775 1.388 . S
C774 C773 1.366 . S
C774 C778 1.385 . S
C775 H750 0.951 . S
C775 C773 1.388 . S
C775 C776 1.366 . S
C776 C775 1.366 . S
C776 C777 1.414 . S
C776 C779 1.499 . S
C777 H751 0.950 . S
C777 C776 1.414 . S
C777 C778 1.374 . S
C778 H752 0.950 . S
C778 C774 1.385 . S
C778 C777 1.374 . S
C779 C776 1.499 . S
C779 C780 1.373 . S
C779 C781 1.389 . S
C780 H753 0.950 . S
C780 C766 1.377 . S
C780 C779 1.373 . S
C781 C765 1.377 . S
C781 C779 1.389 . S
C781 C782 1.524 . S
C782 C781 1.524 . S
C782 C783 1.397 . S
C782 C787 1.363 . S
C783 H754 0.950 . S
C783 C782 1.397 . S
C783 C784 1.334 . S
C784 H755 0.950 . S
C784 C783 1.334 . S
C784 C785 1.287 . S
C785 C784 1.287 . S
C785 C786 1.524 . S
C785 H788 0.999 . S
C786 H756 0.950 . S
C786 C785 1.524 . S
C786 C787 1.415 . S
C787 H757 0.950 . S
C787 C782 1.363 . S
C787 C786 1.415 . S
H788 C785 0.999 . S
H789 C770 0.913 . S
H790 C808 0.951 . S
H791 C810 0.951 . S
H792 C812 0.950 . S
H793 C813 0.950 . S
H794 C815 0.950 . S
H795 C818 0.950 . S
H796 C819 0.950 . S
H797 C821 0.950 . S
H798 C822 0.950 . S
H799 C823 0.951 . S
H800 C825 0.951 . S
H801 C827 0.950 . S
H802 C828 0.950 . S
H803 C830 0.950 . S
H804 C833 0.950 . S
H805 C834 0.950 . S
H806 C836 0.950 . S
H807 C837 0.950 . S
C808 H790 0.951 . S
C808 C809 1.366 . S
C808 C810 1.388 . S
C809 C808 1.366 . S
C809 C813 1.385 . S
C810 H791 0.951 . S
C810 C808 1.388 . S
C810 C811 1.366 . S
C811 C810 1.366 . S
C811 C812 1.414 . S
C811 C814 1.499 . S
C812 H792 0.950 . S
C812 C811 1.414 . S
C812 C813 1.374 . S
C813 H793 0.950 . S
C813 C809 1.385 . S
C813 C812 1.374 . S
C814 C811 1.499 . S
C814 C815 1.373 . S
C814 C816 1.389 . S
C815 H794 0.950 . S
C815 C814 1.373 . S
C815 C831 1.377 . S
C816 C814 1.389 . S
C816 C817 1.524 . S
C816 C830 1.377 . S
C817 C816 1.524 . S
C817 C818 1.397 . S
C817 C822 1.363 . S
C818 H795 0.950 . S
C818 C817 1.397 . S
C818 C819 1.334 . S
C819 H796 0.950 . S
C819 C818 1.334 . S
C819 C820 1.287 . S
C820 C819 1.287 . S
C820 C821 1.524 . S
C820 H839 0.913 . S
C821 H797 0.950 . S
C821 C820 1.524 . S
C821 C822 1.415 . S
C822 H798 0.950 . S
C822 C817 1.363 . S
C822 C821 1.415 . S
C823 H799 0.951 . S
C823 C824 1.366 . S
C823 C825 1.388 . S
C824 C823 1.366 . S
C824 C828 1.385 . S
C825 H800 0.951 . S
C825 C823 1.388 . S
C825 C826 1.366 . S
C826 C825 1.366 . S
C826 C827 1.414 . S
C826 C829 1.499 . S
C827 H801 0.950 . S
C827 C826 1.414 . S
C827 C828 1.374 . S
C828 H802 0.950 . S
C828 C824 1.385 . S
C828 C827 1.374 . S
C829 C826 1.499 . S
C829 C830 1.373 . S
C829 C831 1.389 . S
C830 H803 0.950 . S
C830 C816 1.377 . S
C830 C829 1.373 . S
C831 C815 1.377 . S
C831 C829 1.389 . S
C831 C832 1.524 . S
C832 C831 1.524 . S
C832 C833 1.397 . S
C832 C837 1.363 . S
C833 H804 0.950 . S
C833 C832 1.397 . S
C833 C834 1.334 . S
C834 H805 0.950 . S
C834 C833 1.334 . S
C834 C835 1.287 . S
C835 C834 1.287 . S
C835 C836 1.524 . S
C835 H838 0.999 . S
C836 H806 0.950 . S
C836 C835 1.524 . S
C836 C837 1.415 . S
C837 H807 0.950 . S
C837 C832 1.363 . S
C837 C836 1.415 . S
H838 C835 0.999 . S
H839 C820 0.913 . S
H840 C858 0.951 . S
H841 C860 0.951 . S
H842 C862 0.950 . S
H843 C863 0.950 . S
H844 C865 0.950 . S
H845 C868 0.950 . S
H846 C869 0.950 . S
H847 C871 0.950 . S
H848 C872 0.950 . S
H849 C873 0.951 . S
H850 C875 0.951 . S
H851 C877 0.950 . S
H852 C878 0.950 . S
H853 C880 0.950 . S
H854 C883 0.950 . S
H855 C884 0.950 . S
H856 C886 0.950 . S
H857 C887 0.950 . S
C858 H840 0.951 . S
C858 C859 1.366 . S
C858 C860 1.388 . S
C859 C858 1.366 . S
C859 C863 1.385 . S
C860 H841 0.951 . S
C860 C858 1.388 . S
C860 C861 1.366 . S
C861 C860 1.366 . S
C861 C862 1.414 . S
C861 C864 1.499 . S
C862 H842 0.950 . S
C862 C861 1.414 . S
C862 C863 1.374 . S
C863 H843 0.950 . S
C863 C859 1.385 . S
C863 C862 1.374 . S
C864 C861 1.499 . S
C864 C865 1.373 . S
C864 C866 1.389 . S
C865 H844 0.950 . S
C865 C864 1.373 . S
C865 C881 1.377 . S
C866 C864 1.389 . S
C866 C867 1.524 . S
C866 C880 1.377 . S
C867 C866 1.524 . S
C867 C868 1.397 . S
C867 C872 1.363 . S
C868 H845 0.950 . S
C868 C867 1.397 . S
C868 C869 1.334 . S
C869 H846 0.950 . S
C869 C868 1.334 . S
C869 C870 1.287 . S
C870 C869 1.287 . S
C870 C871 1.524 . S
C870 H889 0.913 . S
C871 H847 0.950 . S
C871 C870 1.524 . S
C871 C872 1.415 . S
C872 H848 0.950 . S
C872 C867 1.363 . S
C872 C871 1.415 . S
C873 H849 0.951 . S
C873 C874 1.366 . S
C873 C875 1.388 1_655 S
C874 C873 1.366 . S
C874 C878 1.385 . S
C875 H850 0.951 . S
C875 C873 1.388 1_455 S
C875 C876 1.366 . S
C876 C875 1.366 . S
C876 C877 1.414 1_455 S
C876 C879 1.499 . S
C877 H851 0.950 . S
C877 C876 1.414 1_655 S
C877 C878 1.374 . S
C878 H852 0.950 . S
C878 C874 1.385 . S
C878 C877 1.374 . S
C879 C876 1.499 . S
C879 C880 1.373 . S
C879 C881 1.389 . S
C880 H853 0.950 . S
C880 C866 1.377 . S
C880 C879 1.373 . S
C881 C865 1.377 . S
C881 C879 1.389 . S
C881 C882 1.524 . S
C882 C881 1.524 . S
C882 C883 1.397 1_455 S
C882 C887 1.363 . S
C883 H854 0.950 . S
C883 C882 1.397 1_655 S
C883 C884 1.334 . S
C884 H855 0.950 . S
C884 C883 1.334 . S
C884 C885 1.287 . S
C885 C884 1.287 . S
C885 C886 1.524 1_655 S
C885 H888 0.999 . S
C886 H856 0.950 . S
C886 C885 1.524 1_455 S
C886 C887 1.415 . S
C887 H857 0.950 . S
C887 C882 1.363 . S
C887 C886 1.415 . S
H888 C885 0.999 . S
H889 C870 0.913 . S
H890 C908 0.948 . S
H891 C910 0.951 . S
H892 C912 0.950 . S
H893 C913 0.950 . S
H894 C915 0.950 . S
H895 C918 0.950 . S
H896 C919 0.950 . S
H897 C921 0.950 . S
H898 C922 0.950 . S
H899 C923 0.951 . S
H900 C925 0.951 . S
H901 C927 0.950 . S
H902 C928 0.963 . S
H903 C930 0.950 . S
H904 C933 0.950 . S
H905 C934 0.950 . S
H906 C936 0.950 . S
H907 C937 0.950 1_545 S
C908 H890 0.948 . S
C908 C909 1.401 . S
C908 C910 1.356 1_655 S
C909 C908 1.401 . S
C909 C913 1.385 . S
C910 H891 0.951 . S
C910 C908 1.356 1_455 S
C910 C911 1.366 . S
C911 C910 1.366 . S
C911 C912 1.414 . S
C911 C914 1.499 . S
C912 H892 0.950 . S
C912 C911 1.414 . S
C912 C913 1.374 1_455 S
C913 H893 0.950 . S
C913 C909 1.385 . S
C913 C912 1.374 1_655 S
C914 C911 1.499 . S
C914 C915 1.373 . S
C914 C916 1.389 . S
C915 H894 0.950 . S
C915 C914 1.373 . S
C915 C931 1.377 . S
C916 C914 1.389 . S
C916 C917 1.524 . S
C916 C930 1.377 . S
C917 C916 1.524 . S
C917 C918 1.397 . S
C917 C922 1.363 . S
C918 H895 0.950 . S
C918 C917 1.397 . S
C918 C919 1.334 . S
C919 H896 0.950 . S
C919 C918 1.334 . S
C919 C920 1.287 . S
C920 C919 1.287 . S
C920 C921 1.524 . S
C920 H939 0.913 . S
C921 H897 0.950 . S
C921 C920 1.524 . S
C921 C922 1.415 . S
C922 H898 0.950 . S
C922 C917 1.363 . S
C922 C921 1.415 . S
C923 H899 0.951 . S
C923 C924 1.366 . S
C923 C925 1.388 . S
C924 C923 1.366 . S
C924 C928 1.369 1_545 S
C925 H900 0.951 . S
C925 C923 1.388 . S
C925 C926 1.366 1_545 S
C926 C925 1.366 1_565 S
C926 C927 1.414 . S
C926 C929 1.499 . S
C927 H901 0.950 . S
C927 C926 1.414 . S
C927 C928 1.376 . S
C928 H902 0.963 . S
C928 C924 1.369 1_565 S
C928 C927 1.376 . S
C929 C926 1.499 . S
C929 C930 1.373 . S
C929 C931 1.389 . S
C930 H903 0.950 . S
C930 C916 1.377 . S
C930 C929 1.373 . S
C931 C915 1.377 . S
C931 C929 1.389 . S
C931 C932 1.524 . S
C932 C931 1.524 . S
C932 C933 1.397 . S
C932 C937 1.363 . S
C933 H904 0.950 . S
C933 C932 1.397 . S
C933 C934 1.334 . S
C934 H905 0.950 . S
C934 C933 1.334 . S
C934 C935 1.296 . S
C935 C934 1.296 . S
C935 C936 1.516 1_565 S
C935 H938 0.996 1_565 S
C936 H906 0.950 . S
C936 C935 1.516 1_545 S
C936 C937 1.415 1_545 S
C937 H907 0.950 1_565 S
C937 C932 1.363 . S
C937 C936 1.415 1_565 S
H938 C935 0.996 1_545 S
H939 C920 0.913 . S
H940 C958 0.951 . S
H941 C960 0.951 . S
H942 C962 0.950 . S
H943 C963 0.950 . S
H944 C965 0.950 . S
H945 C968 0.950 . S
H946 C969 0.950 . S
H947 C971 0.950 . S
H948 C972 0.950 . S
H949 C973 0.951 . S
H950 C975 0.951 . S
H951 C977 0.950 . S
H952 C978 0.950 . S
H953 C980 0.950 . S
H954 C983 0.950 . S
H955 C984 0.950 . S
H956 C986 0.950 . S
H957 C987 0.950 . S
C958 H940 0.951 . S
C958 C959 1.366 . S
C958 C960 1.388 1_545 S
C959 C958 1.366 . S
C959 C963 1.385 . S
C960 H941 0.951 . S
C960 C958 1.388 1_565 S
C960 C961 1.366 . S
C961 C960 1.366 . S
C961 C962 1.414 . S
C961 C964 1.499 . S
C962 H942 0.950 . S
C962 C961 1.414 . S
C962 C963 1.374 1_565 S
C963 H943 0.950 . S
C963 C959 1.385 . S
C963 C962 1.374 1_545 S
C964 C961 1.499 . S
C964 C965 1.373 . S
C964 C966 1.389 . S
C965 H944 0.950 . S
C965 C964 1.373 . S
C965 C981 1.377 . S
C966 C964 1.389 . S
C966 C967 1.524 . S
C966 C980 1.377 . S
C967 C966 1.524 . S
C967 C968 1.397 . S
C967 C972 1.363 . S
C968 H945 0.950 . S
C968 C967 1.397 . S
C968 C969 1.334 . S
C969 H946 0.950 . S
C969 C968 1.334 . S
C969 C970 1.287 . S
C970 C969 1.287 . S
C970 C971 1.524 . S
C970 H989 0.913 . S
C971 H947 0.950 . S
C971 C970 1.524 . S
C971 C972 1.415 . S
C972 H948 0.950 . S
C972 C967 1.363 . S
C972 C971 1.415 . S
C973 H949 0.951 . S
C973 C974 1.366 . S
C973 C975 1.388 . S
C974 C973 1.366 . S
C974 C978 1.385 . S
C975 H950 0.951 . S
C975 C973 1.388 . S
C975 C976 1.366 . S
C976 C975 1.366 . S
C976 C977 1.414 . S
C976 C979 1.499 . S
C977 H951 0.950 . S
C977 C976 1.414 . S
C977 C978 1.374 . S
C978 H952 0.950 . S
C978 C974 1.385 . S
C978 C977 1.374 . S
C979 C976 1.499 . S
C979 C980 1.373 . S
C979 C981 1.389 . S
C980 H953 0.950 . S
C980 C966 1.377 . S
C980 C979 1.373 . S
C981 C965 1.377 . S
C981 C979 1.389 . S
C981 C982 1.524 . S
C982 C981 1.524 . S
C982 C983 1.397 . S
C982 C987 1.363 . S
C983 H954 0.950 . S
C983 C982 1.397 . S
C983 C984 1.334 . S
C984 H955 0.950 . S
C984 C983 1.334 . S
C984 C985 1.287 . S
C985 C984 1.287 . S
C985 C986 1.524 . S
C985 H988 0.999 . S
C986 H956 0.950 . S
C986 C985 1.524 . S
C986 C987 1.415 . S
C987 H957 0.950 . S
C987 C982 1.363 . S
C987 C986 1.415 . S
H988 C985 0.999 . S
H989 C970 0.913 . S
H990 C1008 0.951 . S
H991 C1010 0.951 . S
H992 C1012 0.950 . S
H993 C1013 0.950 . S
H994 C1015 0.950 . S
H995 C1018 0.950 . S
H996 C1019 0.950 . S
H997 C1021 0.950 . S
H998 C1022 0.950 . S
H999 C1023 0.951 . S
H1000 C1025 0.951 . S
H1001 C1027 0.950 . S
H1002 C1028 0.950 . S
H1003 C1030 0.950 . S
H1004 C1033 0.950 . S
H1005 C1034 0.950 . S
H1006 C1036 0.950 . S
H1007 C1037 0.950 . S
C1008 H990 0.951 . S
C1008 C1009 1.366 . S
C1008 C1010 1.388 . S
C1009 C1008 1.366 . S
C1009 C1013 1.385 . S
C1010 H991 0.951 . S
C1010 C1008 1.388 . S
C1010 C1011 1.366 . S
C1011 C1010 1.366 . S
C1011 C1012 1.414 . S
C1011 C1014 1.499 . S
C1012 H992 0.950 . S
C1012 C1011 1.414 . S
C1012 C1013 1.374 . S
C1013 H993 0.950 . S
C1013 C1009 1.385 . S
C1013 C1012 1.374 . S
C1014 C1011 1.499 . S
C1014 C1015 1.373 . S
C1014 C1016 1.389 . S
C1015 H994 0.950 . S
C1015 C1014 1.373 . S
C1015 C1031 1.377 . S
C1016 C1014 1.389 . S
C1016 C1017 1.524 . S
C1016 C1030 1.377 . S
C1017 C1016 1.524 . S
C1017 C1018 1.397 . S
C1017 C1022 1.363 . S
C1018 H995 0.950 . S
C1018 C1017 1.397 . S
C1018 C1019 1.334 . S
C1019 H996 0.950 . S
C1019 C1018 1.334 . S
C1019 C1020 1.287 . S
C1020 C1019 1.287 . S
C1020 C1021 1.524 . S
C1020 H1039 0.913 . S
C1021 H997 0.950 . S
C1021 C1020 1.524 . S
C1021 C1022 1.415 . S
C1022 H998 0.950 . S
C1022 C1017 1.363 . S
C1022 C1021 1.415 . S
C1023 H999 0.951 . S
C1023 C1024 1.366 . S
C1023 C1025 1.388 . S
C1024 C1023 1.366 . S
C1024 C1028 1.385 . S
C1025 H1000 0.951 . S
C1025 C1023 1.388 . S
C1025 C1026 1.366 1_565 S
C1026 C1025 1.366 1_545 S
C1026 C1027 1.414 . S
C1026 C1029 1.499 . S
C1027 H1001 0.950 . S
C1027 C1026 1.414 . S
C1027 C1028 1.374 1_545 S
C1028 H1002 0.950 . S
C1028 C1024 1.385 . S
C1028 C1027 1.374 1_565 S
C1029 C1026 1.499 . S
C1029 C1030 1.373 . S
C1029 C1031 1.389 . S
C1030 H1003 0.950 . S
C1030 C1016 1.377 . S
C1030 C1029 1.373 . S
C1031 C1015 1.377 . S
C1031 C1029 1.389 . S
C1031 C1032 1.524 1_545 S
C1032 C1031 1.524 1_565 S
C1032 C1033 1.397 . S
C1032 C1037 1.363 . S
C1033 H1004 0.950 . S
C1033 C1032 1.397 . S
C1033 C1034 1.334 . S
C1034 H1005 0.950 . S
C1034 C1033 1.334 . S
C1034 C1035 1.287 . S
C1035 C1034 1.287 . S
C1035 C1036 1.524 . S
C1035 H1038 0.999 . S
C1036 H1006 0.950 . S
C1036 C1035 1.524 . S
C1036 C1037 1.415 . S
C1037 H1007 0.950 . S
C1037 C1032 1.363 . S
C1037 C1036 1.415 . S
H1038 C1035 0.999 . S
H1039 C1020 0.913 . S
H1040 C1058 0.951 . S
H1041 C1060 0.951 . S
H1042 C1062 0.950 . S
H1043 C1063 0.950 . S
H1044 C1065 0.950 . S
H1045 C1068 0.950 . S
H1046 C1069 0.950 . S
H1047 C1071 0.950 . S
H1048 C1072 0.950 . S
H1049 C1073 0.951 . S
H1050 C1075 0.951 . S
H1051 C1077 0.950 . S
H1052 C1078 0.950 . S
H1053 C1080 0.950 . S
H1054 C1083 0.950 . S
H1055 C1084 0.950 . S
H1056 C1086 0.950 . S
H1057 C1087 0.950 . S
C1058 H1040 0.951 . S
C1058 C1059 1.366 . S
C1058 C1060 1.388 1_455 S
C1059 C1058 1.366 . S
C1059 C1063 1.385 . S
C1060 H1041 0.951 . S
C1060 C1058 1.388 1_655 S
C1060 C1061 1.366 . S
C1061 C1060 1.366 . S
C1061 C1062 1.414 . S
C1061 C1064 1.499 . S
C1062 H1042 0.950 . S
C1062 C1061 1.414 . S
C1062 C1063 1.374 1_655 S
C1063 H1043 0.950 . S
C1063 C1059 1.385 . S
C1063 C1062 1.374 1_455 S
C1064 C1061 1.499 . S
C1064 C1065 1.373 . S
C1064 C1066 1.389 . S
C1065 H1044 0.950 . S
C1065 C1064 1.373 . S
C1065 C1081 1.377 . S
C1066 C1064 1.389 . S
C1066 C1067 1.524 . S
C1066 C1080 1.377 . S
C1067 C1066 1.524 . S
C1067 C1068 1.397 . S
C1067 C1072 1.363 . S
C1068 H1045 0.950 . S
C1068 C1067 1.397 . S
C1068 C1069 1.334 . S
C1069 H1046 0.950 . S
C1069 C1068 1.334 . S
C1069 C1070 1.287 . S
C1070 C1069 1.287 . S
C1070 C1071 1.524 . S
C1070 H1089 0.913 . S
C1071 H1047 0.950 . S
C1071 C1070 1.524 . S
C1071 C1072 1.415 . S
C1072 H1048 0.950 . S
C1072 C1067 1.363 . S
C1072 C1071 1.415 . S
C1073 H1049 0.951 . S
C1073 C1074 1.366 . S
C1073 C1075 1.388 . S
C1074 C1073 1.366 . S
C1074 C1078 1.385 . S
C1075 H1050 0.951 . S
C1075 C1073 1.388 . S
C1075 C1076 1.366 . S
C1076 C1075 1.366 . S
C1076 C1077 1.414 . S
C1076 C1079 1.499 . S
C1077 H1051 0.950 . S
C1077 C1076 1.414 . S
C1077 C1078 1.374 . S
C1078 H1052 0.950 . S
C1078 C1074 1.385 . S
C1078 C1077 1.374 . S
C1079 C1076 1.499 . S
C1079 C1080 1.373 . S
C1079 C1081 1.389 . S
C1080 H1053 0.950 . S
C1080 C1066 1.377 . S
C1080 C1079 1.373 . S
C1081 C1065 1.377 . S
C1081 C1079 1.389 . S
C1081 C1082 1.524 . S
C1082 C1081 1.524 . S
C1082 C1083 1.397 . S
C1082 C1087 1.363 . S
C1083 H1054 0.950 . S
C1083 C1082 1.397 . S
C1083 C1084 1.334 . S
C1084 H1055 0.950 . S
C1084 C1083 1.334 . S
C1084 C1085 1.287 . S
C1085 C1084 1.287 . S
C1085 C1086 1.524 . S
C1085 H1088 0.999 . S
C1086 H1056 0.950 . S
C1086 C1085 1.524 . S
C1086 C1087 1.415 . S
C1087 H1057 0.950 . S
C1087 C1082 1.363 . S
C1087 C1086 1.415 . S
H1088 C1085 0.999 . S
H1089 C1070 0.913 . S
H1090 C1108 0.951 . S
H1091 C1110 0.951 . S
H1092 C1112 0.950 . S
H1093 C1113 0.950 . S
H1094 C1115 0.950 . S
H1095 C1118 0.950 . S
H1096 C1119 0.950 . S
H1097 C1121 0.950 . S
H1098 C1122 0.950 . S
H1099 C1123 0.951 . S
H1100 C1125 0.951 . S
H1101 C1127 0.950 . S
H1102 C1128 0.950 . S
H1103 C1130 0.950 . S
H1104 C1133 0.950 . S
H1105 C1134 0.950 . S
H1106 C1136 0.950 . S
H1107 C1137 0.950 . S
C1108 H1090 0.951 . S
C1108 C1109 1.366 . S
C1108 C1110 1.388 1_455 S
C1109 C1108 1.366 . S
C1109 C1113 1.385 . S
C1110 H1091 0.951 . S
C1110 C1108 1.388 1_655 S
C1110 C1111 1.366 . S
C1111 C1110 1.366 . S
C1111 C1112 1.414 1_655 S
C1111 C1114 1.499 . S
C1112 H1092 0.950 . S
C1112 C1111 1.414 1_455 S
C1112 C1113 1.374 . S
C1113 H1093 0.950 . S
C1113 C1109 1.385 . S
C1113 C1112 1.374 . S
C1114 C1111 1.499 . S
C1114 C1115 1.373 . S
C1114 C1116 1.389 . S
C1115 H1094 0.950 . S
C1115 C1114 1.373 . S
C1115 C1131 1.377 . S
C1116 C1114 1.389 . S
C1116 C1117 1.524 . S
C1116 C1130 1.377 . S
C1117 C1116 1.524 . S
C1117 C1118 1.397 1_655 S
C1117 C1122 1.363 . S
C1118 H1095 0.950 . S
C1118 C1117 1.397 1_455 S
C1118 C1119 1.334 . S
C1119 H1096 0.950 . S
C1119 C1118 1.334 . S
C1119 C1120 1.287 . S
C1120 C1119 1.287 . S
C1120 C1121 1.522 1_455 S
C1120 H1139 0.913 . S
C1121 H1097 0.950 . S
C1121 C1120 1.522 1_655 S
C1121 C1122 1.416 . S
C1122 H1098 0.950 . S
C1122 C1117 1.363 . S
C1122 C1121 1.416 . S
C1123 H1099 0.951 . S
C1123 C1124 1.366 . S
C1123 C1125 1.388 1_565 S
C1124 C1123 1.366 . S
C1124 C1128 1.385 . S
C1125 H1100 0.951 . S
C1125 C1123 1.388 1_545 S
C1125 C1126 1.366 . S
C1126 C1125 1.366 . S
C1126 C1127 1.414 . S
C1126 C1129 1.499 . S
C1127 H1101 0.950 . S
C1127 C1126 1.414 . S
C1127 C1128 1.374 1_545 S
C1128 H1102 0.950 . S
C1128 C1124 1.385 . S
C1128 C1127 1.374 1_565 S
C1129 C1126 1.499 . S
C1129 C1130 1.373 . S
C1129 C1131 1.389 . S
C1130 H1103 0.950 . S
C1130 C1116 1.377 . S
C1130 C1129 1.373 . S
C1131 C1115 1.377 . S
C1131 C1129 1.389 . S
C1131 C1132 1.524 . S
C1132 C1131 1.524 . S
C1132 C1133 1.397 . S
C1132 C1137 1.363 . S
C1133 H1104 0.950 . S
C1133 C1132 1.397 . S
C1133 C1134 1.334 . S
C1134 H1105 0.950 . S
C1134 C1133 1.334 . S
C1134 C1135 1.287 . S
C1135 C1134 1.287 . S
C1135 C1136 1.524 . S
C1135 H1138 0.999 . S
C1136 H1106 0.950 . S
C1136 C1135 1.524 . S
C1136 C1137 1.415 . S
C1137 H1107 0.950 . S
C1137 C1132 1.363 . S
C1137 C1136 1.415 . S
H1138 C1135 0.999 . S
H1139 C1120 0.913 . S
C259 C162 2.359 . S
C274 C2 2.409 . S
C309 C223 2.409 . S
C324 C63 2.358 . S
C359 C82 2.410 . S
C374 C122 2.359 . S
C409 C23 2.359 . S
C424 C183 2.410 . S
C459 C202 2.359 . S
C474 C42 2.410 . S
C509 C103 2.359 . S
C524 C143 2.410 . S
C559 C25 1.775 . S
C574 C111 1.777 . S
C609 C65 1.775 . S
C624 C31 1.778 . S
C659 C105 1.775 . S
C674 C71 1.778 . S
C709 C124 1.775 . S
C724 C180 1.777 . S
C759 C164 1.775 . S
C774 C220 1.778 . S
C809 C140 1.777 . S
C824 C204 1.775 . S
C859 C4 0.831 . S
C874 C100 0.830 . S
C909 C44 0.830 . S
C924 C20 0.830 . S
C959 C84 0.830 . S
C974 C60 0.829 . S
C1009 C145 0.831 . S
C1024 C191 0.830 . S
C1059 C185 0.831 . S
C1074 C231 0.830 . S
C1109 C151 0.830 . S
C1124 C225 0.831 . S
