# Generated by pormake.
# Topology zfd, (5)-cn, num edge types: 1
# Building blocks:
#     Node 0, Type 0, BuildingBlock: XOMCOT_clean_sbu_0, # of connection points: 5
#     Node 1, Type 0, BuildingBlock: XOMCOT_clean_sbu_0, # of connection points: 5
#     Node 2, Type 0, BuildingBlock: XOMCOT_clean_sbu_0, # of connection points: 5
#     Node 3, Type 0, BuildingBlock: XOMCOT_clean_sbu_0, # of connection points: 5
#     Node 4, Type 0, BuildingBlock: XOMCOT_clean_sbu_0, # of connection points: 5
#     Node 5, Type 0, BuildingBlock: XOMCOT_clean_sbu_0, # of connection points: 5
#     Node 6, Type 0, BuildingBlock: XOMCOT_clean_sbu_0, # of connection points: 5
#     Node 7, Type 0, BuildingBlock: XOMCOT_clean_sbu_0, # of connection points: 5
#     Node 8, Type 0, BuildingBlock: XOMCOT_clean_sbu_0, # of connection points: 5
#     Node 9, Type 0, BuildingBlock: XOMCOT_clean_sbu_0, # of connection points: 5
#     Node 10, Type 0, BuildingBlock: XOMCOT_clean_sbu_0, # of connection points: 5
#     Node 11, Type 0, BuildingBlock: XOMCOT_clean_sbu_0, # of connection points: 5
#     Node 12, Type 0, BuildingBlock: XOMCOT_clean_sbu_0, # of connection points: 5
#     Node 13, Type 0, BuildingBlock: XOMCOT_clean_sbu_0, # of connection points: 5
#     Node 14, Type 0, BuildingBlock: XOMCOT_clean_sbu_0, # of connection points: 5
#     Node 15, Type 0, BuildingBlock: XOMCOT_clean_sbu_0, # of connection points: 5
#     Edge 16, Type (0, 0), BuildingBlock: EZIPEK_clean_linker_0, # of connection points: 2
#     Edge 17, Type (0, 0), BuildingBlock: EZIPEK_clean_linker_0, # of connection points: 2
#     Edge 18, Type (0, 0), BuildingBlock: EZIPEK_clean_linker_0, # of connection points: 2
#     Edge 19, Type (0, 0), BuildingBlock: EZIPEK_clean_linker_0, # of connection points: 2
#     Edge 20, Type (0, 0), BuildingBlock: EZIPEK_clean_linker_0, # of connection points: 2
#     Edge 21, Type (0, 0), BuildingBlock: EZIPEK_clean_linker_0, # of connection points: 2
#     Edge 22, Type (0, 0), BuildingBlock: EZIPEK_clean_linker_0, # of connection points: 2
#     Edge 23, Type (0, 0), BuildingBlock: EZIPEK_clean_linker_0, # of connection points: 2
#     Edge 24, Type (0, 0), BuildingBlock: EZIPEK_clean_linker_0, # of connection points: 2
#     Edge 25, Type (0, 0), BuildingBlock: EZIPEK_clean_linker_0, # of connection points: 2
#     Edge 26, Type (0, 0), BuildingBlock: EZIPEK_clean_linker_0, # of connection points: 2
#     Edge 27, Type (0, 0), BuildingBlock: EZIPEK_clean_linker_0, # of connection points: 2
#     Edge 28, Type (0, 0), BuildingBlock: EZIPEK_clean_linker_0, # of connection points: 2
#     Edge 29, Type (0, 0), BuildingBlock: EZIPEK_clean_linker_0, # of connection points: 2
#     Edge 30, Type (0, 0), BuildingBlock: EZIPEK_clean_linker_0, # of connection points: 2
#     Edge 31, Type (0, 0), BuildingBlock: EZIPEK_clean_linker_0, # of connection points: 2
#     Edge 32, Type (0, 0), BuildingBlock: EZIPEK_clean_linker_0, # of connection points: 2
#     Edge 33, Type (0, 0), BuildingBlock: EZIPEK_clean_linker_0, # of connection points: 2
#     Edge 34, Type (0, 0), BuildingBlock: EZIPEK_clean_linker_0, # of connection points: 2
#     Edge 35, Type (0, 0), BuildingBlock: EZIPEK_clean_linker_0, # of connection points: 2
#     Edge 36, Type (0, 0), BuildingBlock: EZIPEK_clean_linker_0, # of connection points: 2
#     Edge 37, Type (0, 0), BuildingBlock: EZIPEK_clean_linker_0, # of connection points: 2
#     Edge 38, Type (0, 0), BuildingBlock: EZIPEK_clean_linker_0, # of connection points: 2
#     Edge 39, Type (0, 0), BuildingBlock: EZIPEK_clean_linker_0, # of connection points: 2
#     Edge 40, Type (0, 0), BuildingBlock: EZIPEK_clean_linker_0, # of connection points: 2
#     Edge 41, Type (0, 0), BuildingBlock: EZIPEK_clean_linker_0, # of connection points: 2
#     Edge 42, Type (0, 0), BuildingBlock: EZIPEK_clean_linker_0, # of connection points: 2
#     Edge 43, Type (0, 0), BuildingBlock: EZIPEK_clean_linker_0, # of connection points: 2
#     Edge 44, Type (0, 0), BuildingBlock: EZIPEK_clean_linker_0, # of connection points: 2
#     Edge 45, Type (0, 0), BuildingBlock: EZIPEK_clean_linker_0, # of connection points: 2
#     Edge 46, Type (0, 0), BuildingBlock: EZIPEK_clean_linker_0, # of connection points: 2
#     Edge 47, Type (0, 0), BuildingBlock: EZIPEK_clean_linker_0, # of connection points: 2
#     Edge 48, Type (0, 0), BuildingBlock: EZIPEK_clean_linker_0, # of connection points: 2
#     Edge 49, Type (0, 0), BuildingBlock: EZIPEK_clean_linker_0, # of connection points: 2
#     Edge 50, Type (0, 0), BuildingBlock: EZIPEK_clean_linker_0, # of connection points: 2
#     Edge 51, Type (0, 0), BuildingBlock: EZIPEK_clean_linker_0, # of connection points: 2
#     Edge 52, Type (0, 0), BuildingBlock: EZIPEK_clean_linker_0, # of connection points: 2
#     Edge 53, Type (0, 0), BuildingBlock: EZIPEK_clean_linker_0, # of connection points: 2
#     Edge 54, Type (0, 0), BuildingBlock: EZIPEK_clean_linker_0, # of connection points: 2
#     Edge 55, Type (0, 0), BuildingBlock: EZIPEK_clean_linker_0, # of connection points: 2
# Relax obj value: 0.314
# Max RMSD: 0.228
# Mean RMSD: 0.228
data_MOF--net-zfd--node1-XOMCOT_clean_sbu_0--edge1-EZIPEK_clean_linker_0
_symmetry_space_group_name_H-M    P1
_symmetry_Int_Tables_number       1
_symmetry_cell_setting            triclinic
loop_
_symmetry_equiv_pos_as_xyz
'x, y, z'
_cell_length_a     51.279446
_cell_length_b     51.295842
_cell_length_c     14.814037
_cell_angle_alpha  89.348414
_cell_angle_beta   89.815509
_cell_angle_gamma 89.810236
loop_
_atom_site_label
_atom_site_type_symbol
_atom_site_fract_x
_atom_site_fract_y
_atom_site_fract_z
_atom_type_partial_charge
Co0 Co 0.11178 0.22085 1.00499 0.0
C1 C 0.11946 0.21276 0.19671 0.0
C2 C 0.10839 0.17742 0.1326 0.0
C3 C 0.10584 0.17414 0.22459 0.0
N4 N 0.11704 0.20174 0.11533 0.0
N5 N 0.1122 0.19678 0.26463 0.0
H6 H 0.12519 0.23265 0.20723 0.0
H7 H 0.10242 0.16364 0.08216 0.0
C8 C 0.06339 0.23545 0.12816 0.0
O9 O 0.07938 0.24918 0.17722 0.0
N10 N 0.10637 0.24015 0.89507 0.0
C11 C 0.12388 0.25617 0.85476 0.0
C12 C 0.11218 0.26892 0.78373 0.0
C13 C 0.08429 0.2432 0.84843 0.0
N14 N 0.08747 0.26057 0.78049 0.0
C15 C 0.1503 0.25487 0.07393 0.0
C16 C 0.12432 0.30079 0.03359 0.0
C17 C 0.15168 0.30127 0.04049 0.0
C18 C 0.16436 0.27815 0.06589 0.0
C19 C 0.11087 0.27688 0.04159 0.0
N20 N 0.12411 0.25394 0.05641 0.0
H21 H 0.16105 0.23698 0.08544 0.0
H22 H 0.09041 0.27646 1.02425 0.0
H23 H 0.14335 0.25972 0.87923 0.0
H24 H 0.06605 0.23376 0.86561 0.0
O25 O 0.14624 0.20963 0.957 0.0
O26 O 0.11144 0.18743 0.93225 0.0
O27 O 0.07214 0.22549 0.05216 0.0
C28 C 0.13645 0.18995 0.91577 0.0
H29 H 0.09962 0.15649 0.25903 0.0
H30 H 0.12063 0.28375 0.74022 0.0
H31 H 0.11372 0.31832 1.01485 0.0
H32 H 0.18536 0.27773 0.07366 0.0
Co33 Co 0.82204 0.12157 0.04144 0.0
C34 C 0.8178 0.17284 0.12297 0.0
C35 C 0.84166 0.14674 0.20248 0.0
C36 C 0.83715 0.16897 0.25082 0.0
N37 N 0.82921 0.14912 0.1232 0.0
N38 N 0.82186 0.18513 0.20121 0.0
H39 H 0.80501 0.1798 0.07005 0.0
H40 H 0.85206 0.12956 0.22547 0.0
C41 C 0.80679 0.07755 0.18786 0.0
O42 O 0.78266 0.07856 0.15896 0.0
N43 N 0.81477 0.09381 0.95947 0.0
C44 C 0.83108 0.08251 0.89963 0.0
C45 C 0.81794 0.063 0.85652 0.0
C46 C 0.79211 0.0809 0.95248 0.0
N47 N 0.79362 0.06231 0.89032 0.0
C48 C 0.77284 0.13764 0.97459 0.0
C49 C 0.75036 0.15269 0.13513 0.0
C50 C 0.74026 0.16316 0.05376 0.0
C51 C 0.75122 0.1543 0.97317 0.0
C52 C 0.77255 0.1361 0.13375 0.0
N53 N 0.78438 0.12976 0.05372 0.0
H54 H 0.78184 0.13304 0.91067 0.0
H55 H 0.78174 0.1308 0.19696 0.0
H56 H 0.85122 0.08751 0.88866 0.0
H57 H 0.77489 0.08441 0.99272 0.0
O58 O 0.82745 0.14575 0.93818 0.0
O59 O 0.85936 0.12379 0.99558 0.0
O60 O 0.82388 0.09335 0.15048 0.0
C61 C 0.85208 0.14084 0.93389 0.0
H62 H 0.84401 0.17275 0.31846 0.0
H63 H 0.82569 0.04986 0.80634 0.0
H64 H 0.74238 0.15878 0.19929 0.0
H65 H 0.74405 0.16147 0.90877 0.0
Co66 Co 0.93145 0.82631 0.06237 0.0
C67 C 0.91297 0.82435 0.2492 0.0
C68 C 0.92963 0.86126 0.21295 0.0
C69 C 0.92709 0.85992 0.30498 0.0
N70 N 0.9206 0.83899 0.1776 0.0
N71 N 0.91683 0.83649 0.32762 0.0
H72 H 0.90617 0.80455 0.24649 0.0
H73 H 0.93923 0.87666 0.17534 0.0
C74 C 0.97735 0.80959 0.19735 0.0
O75 O 0.96107 0.79334 0.23678 0.0
N76 N 0.94325 0.81317 0.94856 0.0
C77 C 0.93331 0.8167 0.86483 0.0
C78 C 0.95144 0.80818 0.80289 0.0
C79 C 0.96621 0.80131 0.93658 0.0
N80 N 0.97203 0.79879 0.84906 0.0
C81 C 0.89069 0.78978 0.0924 0.0
C82 C 0.91824 0.74377 0.07819 0.0
C83 C 0.89073 0.74271 0.07823 0.0
C84 C 0.8772 0.76618 0.08763 0.0
C85 C 0.93122 0.76815 0.08299 0.0
N86 N 0.9174 0.791 0.08914 0.0
H87 H 0.8793 0.80743 0.09765 0.0
H88 H 0.95223 0.76855 0.07825 0.0
H89 H 0.91523 0.82651 0.84866 0.0
H90 H 0.97979 0.79695 0.98998 0.0
O91 O 0.89923 0.83987 1.00313 0.0
O92 O 0.93418 0.86313 1.01265 0.0
O93 O 0.96935 0.82166 0.12385 0.0
C94 C 0.9102 0.86185 0.98323 0.0
H95 H 0.93246 0.87512 0.35131 0.0
H96 H 0.95071 0.81096 0.73044 0.0
H97 H 0.92955 0.72605 0.07136 0.0
H98 H 0.85607 0.76637 0.08898 0.0
Co99 Co 0.2359 0.93469 1.01547 0.0
C100 C 0.23301 0.88064 0.07167 0.0
C101 C 0.22452 0.90597 0.18282 0.0
C102 C 0.22476 0.88066 0.21338 0.0
N103 N 0.22958 0.90578 0.0939 0.0
N104 N 0.22992 0.86472 0.14305 0.0
H105 H 0.23736 0.8739 1.00445 0.0
H106 H 0.22098 0.92313 0.22272 0.0
C107 C 0.25047 0.9785 0.15783 0.0
O108 O 0.27433 0.97845 0.12591 0.0
N109 N 0.24264 0.96356 0.93566 0.0
C110 C 0.2249 0.97709 0.88677 0.0
C111 C 0.2372 0.99772 0.84544 0.0
C112 C 0.26539 0.97619 0.92386 0.0
N113 N 0.26246 0.99689 0.86922 0.0
C114 C 0.2862 0.91849 0.9538 0.0
C115 C 0.30696 0.9058 0.12048 0.0
C116 C 0.31905 0.8957 0.04299 0.0
C117 C 0.30885 0.90309 0.9589 0.0
C118 C 0.28424 0.92131 0.11247 0.0
N119 N 0.27348 0.92682 0.02976 0.0
H120 H 0.27774 0.92213 0.88811 0.0
H121 H 0.27415 0.92693 0.17331 0.0
H122 H 0.20428 0.97303 0.88355 0.0
H123 H 0.28348 0.97135 0.95727 0.0
O124 O 0.23017 0.9119 0.90953 0.0
O125 O 0.19847 0.93282 0.97313 0.0
O126 O 0.23374 0.96178 0.12531 0.0
C127 C 0.20537 0.9165 0.90993 0.0
H128 H 0.21998 0.87446 0.28142 0.0
H129 H 0.22821 1.01281 0.80425 0.0
H130 H 0.31407 0.90043 0.1869 0.0
H131 H 0.31746 0.89568 0.8974 0.0
Co132 Co 0.12333 0.82256 0.54704 0.0
C133 C 0.14891 0.8237 0.36975 0.0
C134 C 0.14661 0.86217 0.42455 0.0
C135 C 0.16146 0.86306 0.347 0.0
N136 N 0.13953 0.83723 0.44037 0.0
N137 N 0.1629 0.83877 0.31397 0.0
H138 H 0.14747 0.80289 0.36155 0.0
H139 H 0.14281 0.87837 0.46874 0.0
C140 C 0.08122 0.81009 0.39508 0.0
O141 O 0.09869 0.79575 0.35381 0.0
N142 N 0.10743 0.80768 0.65118 0.0
C143 C 0.11833 0.7916 0.71339 0.0
C144 C 0.09897 0.78296 0.771 0.0
C145 C 0.08214 0.80901 0.67134 0.0
N146 N 0.07652 0.7939 0.74287 0.0
C147 C 0.16247 0.78453 0.51705 0.0
C148 C 0.1325 0.74008 0.51983 0.0
C149 C 0.15995 0.73738 0.51786 0.0
C150 C 0.17466 0.76026 0.51345 0.0
C151 C 0.12084 0.76523 0.51804 0.0
N152 N 0.13594 0.78724 0.51692 0.0
H153 H 0.17461 0.80146 0.52271 0.0
H154 H 0.09986 0.76698 0.52355 0.0
H155 H 0.13869 0.78604 0.71504 0.0
H156 H 0.06806 0.8207 0.63452 0.0
O157 O 0.15381 0.83211 0.62283 0.0
O158 O 0.12073 0.85802 0.60499 0.0
O159 O 0.0875 0.8204 0.47257 0.0
C160 C 0.14331 0.85413 0.64411 0.0
H161 H 0.17192 0.87979 0.3206 0.0
H162 H 0.10104 0.76984 0.82828 0.0
H163 H 0.12024 0.72299 0.52536 0.0
H164 H 0.19578 0.75942 0.51276 0.0
Co165 Co 0.23521 0.11814 0.52875 0.0
C166 C 0.20203 0.15263 0.42421 0.0
C167 C 0.19507 0.11279 0.39154 0.0
C168 C 0.17514 0.12769 0.35678 0.0
N169 N 0.21159 0.12858 0.43555 0.0
N170 N 0.17915 0.15257 0.38129 0.0
H171 H 0.20948 0.16947 0.45738 0.0
H172 H 0.19536 0.09173 0.39443 0.0
C173 C 0.2541 0.06256 0.43792 0.0
O174 O 0.27525 0.0595 0.48663 0.0
N175 N 0.25933 0.10831 0.6215 0.0
C176 C 0.27719 0.12438 0.65804 0.0
C177 C 0.29274 0.11035 0.71593 0.0
C178 C 0.26336 0.08503 0.6605 0.0
N179 N 0.28367 0.08585 0.71788 0.0
C180 C 0.26464 0.16361 0.47855 0.0
C181 C 0.31153 0.13932 0.4438 0.0
C182 C 0.31162 0.16629 0.46125 0.0
C183 C 0.28754 0.17837 0.4744 0.0
C184 C 0.28783 0.12507 0.44769 0.0
N185 N 0.26467 0.137 0.46924 0.0
H186 H 0.24766 0.17371 0.5017 0.0
H187 H 0.28875 0.10422 0.44198 0.0
H188 H 0.27902 0.14495 0.64324 0.0
H189 H 0.25177 0.06787 0.64747 0.0
O190 O 0.22311 0.14713 0.6084 0.0
O191 O 0.20412 0.10977 0.61019 0.0
O192 O 0.23958 0.08316 0.45124 0.0
C193 C 0.20437 0.13339 0.64289 0.0
H194 H 0.15724 0.12034 0.32814 0.0
H195 H 0.30898 0.11753 0.7549 0.0
H196 H 0.32974 0.1291 0.43275 0.0
H197 H 0.28658 0.19905 0.48839 0.0
Co198 Co 0.92832 0.22728 0.5245 0.0
C199 C 0.87695 0.2351 0.44341 0.0
C200 C 0.90231 0.21185 0.36039 0.0
C201 C 0.88053 0.21828 0.31173 0.0
N202 N 0.90021 0.22276 0.44209 0.0
N203 N 0.86482 0.23321 0.36347 0.0
H204 H 0.87005 0.24672 0.49913 0.0
H205 H 0.919 0.20101 0.33634 0.0
C206 C 0.97233 0.24145 0.3776 0.0
O207 O 0.97274 0.26536 0.40788 0.0
N208 N 0.95683 0.2318 0.60626 0.0
C209 C 0.96815 0.2134 0.65905 0.0
C210 C 0.99089 0.22318 0.69273 0.0
C211 C 0.97276 0.25256 0.60922 0.0
N212 N 0.99358 0.24764 0.66077 0.0
C213 C 0.91546 0.2765 0.59663 0.0
C214 C 0.90153 0.30165 0.43853 0.0
C215 C 0.89131 0.3112 0.52059 0.0
C216 C 0.89957 0.29872 0.60015 0.0
C217 C 0.91669 0.27849 0.43767 0.0
N218 N 0.92249 0.26543 0.51639 0.0
H219 H 0.91986 0.26659 0.65952 0.0
H220 H 0.92134 0.26976 0.37349 0.0
H221 H 0.96156 0.19364 0.6682 0.0
H222 H 0.97021 0.27038 0.57084 0.0
O223 O 0.90431 0.22202 0.62787 0.0
O224 O 0.92411 0.18967 0.56587 0.0
O225 O 0.95591 0.22494 0.41475 0.0
C226 C 0.90792 0.19712 0.62931 0.0
H227 H 0.87655 0.2125 0.24308 0.0
H228 H 1.00531 0.21264 0.73216 0.0
H229 H 0.89606 0.31077 0.37505 0.0
H230 H 0.89259 0.30523 0.66522 0.0
Co231 Co 0.82088 0.94386 0.60479 0.0
C232 C 0.86268 0.90996 0.54254 0.0
C233 C 0.84837 0.93296 0.43235 0.0
C234 C 0.86439 0.91383 0.39862 0.0
N235 N 0.84715 0.9305 0.52319 0.0
N236 N 0.87278 0.89929 0.46872 0.0
H237 H 0.8642 0.90029 0.60716 0.0
H238 H 0.83629 0.9453 0.39135 0.0
C239 C 0.80974 0.98644 0.4456 0.0
O240 O 0.79626 0.9693 0.40035 0.0
N241 N 0.79423 0.95507 0.68718 0.0
C242 C 0.77799 0.9383 0.72988 0.0
C243 C 0.75869 0.95203 0.77215 0.0
C244 C 0.78481 0.97888 0.7048 0.0
N245 N 0.76306 0.97753 0.75687 0.0
C246 C 0.79601 0.89897 0.53734 0.0
C247 C 0.74649 0.91977 0.52221 0.0
C248 C 0.74929 0.89253 0.52896 0.0
C249 C 0.77454 0.88229 0.53229 0.0
C250 C 0.7687 0.93595 0.52711 0.0
N251 N 0.79315 0.92549 0.53895 0.0
H252 H 0.8147 0.89024 0.55147 0.0
H253 H 0.76577 0.95676 0.53242 0.0
H254 H 0.7795 0.9173 0.72726 0.0
H255 H 0.79384 0.99679 0.68152 0.0
O256 O 0.82857 0.91516 0.69273 0.0
O257 O 0.84909 0.952 0.69509 0.0
O258 O 0.81905 0.97966 0.52527 0.0
C259 C 0.84657 0.92871 0.73123 0.0
H260 H 0.86697 0.90896 0.32821 0.0
H261 H 0.74264 0.94374 0.80991 0.0
H262 H 0.72725 0.92849 0.51978 0.0
H263 H 0.77758 0.86142 0.53766 0.0
Co264 Co 0.62677 0.73078 0.52696 0.0
C265 C 0.66813 0.69477 0.56782 0.0
C266 C 0.65587 0.7155 0.68453 0.0
C267 C 0.68171 0.70866 0.69445 0.0
N268 N 0.64774 0.7081 0.60212 0.0
N269 N 0.68945 0.69644 0.61871 0.0
H270 H 0.66881 0.68657 0.50201 0.0
H271 H 0.64533 0.72877 0.72773 0.0
C272 C 0.57551 0.744 0.65028 0.0
O273 O 0.56932 0.76393 0.59836 0.0
N274 N 0.60847 0.75464 0.45096 0.0
C275 C 0.61938 0.77537 0.40799 0.0
C276 C 0.60093 0.78748 0.35571 0.0
C277 C 0.58409 0.75349 0.42113 0.0
N278 N 0.579 0.77359 0.36509 0.0
C279 C 0.67223 0.76152 0.55066 0.0
C280 C 0.64886 0.8069 0.60865 0.0
C281 C 0.67499 0.80782 0.57892 0.0
C282 C 0.68678 0.78448 0.55322 0.0
C283 C 0.63489 0.78315 0.60631 0.0
N284 N 0.64632 0.76099 0.5735 0.0
H285 H 0.68154 0.74448 0.52326 0.0
H286 H 0.61445 0.78323 0.62335 0.0
H287 H 0.63969 0.78071 0.41115 0.0
H288 H 0.57062 0.73789 0.4374 0.0
O289 O 0.64962 0.72363 0.42046 0.0
O290 O 0.61583 0.7 0.4517 0.0
O291 O 0.59704 0.7309 0.63228 0.0
C292 C 0.63586 0.70357 0.39798 0.0
H293 H 0.69413 0.71361 0.75061 0.0
H294 H 0.60368 0.80387 0.31005 0.0
H295 H 0.63902 0.82456 0.62938 0.0
H296 H 0.70687 0.78423 0.53033 0.0
Co297 Co 0.31239 0.6054 0.47103 0.0
C298 C 0.31711 0.64985 0.58722 0.0
C299 C 0.33516 0.61564 0.64518 0.0
C300 C 0.3379 0.63576 0.70379 0.0
N301 N 0.32244 0.62474 0.57219 0.0
N302 N 0.32718 0.6573 0.66591 0.0
H303 H 0.30832 0.66292 0.53814 0.0
H304 H 0.34321 0.59625 0.65319 0.0
C305 C 0.29557 0.55821 0.60917 0.0
O306 O 0.27081 0.5643 0.60195 0.0
N307 N 0.3017 0.58541 0.37 0.0
C308 C 0.30835 0.58735 0.28177 0.0
C309 C 0.29564 0.56811 0.2357 0.0
C310 C 0.28446 0.56602 0.37564 0.0
N311 N 0.2808 0.55499 0.2956 0.0
C312 C 0.2632 0.62638 0.4212 0.0
C313 C 0.2426 0.63443 0.59078 0.0
C314 C 0.23118 0.64773 0.51689 0.0
C315 C 0.24147 0.6427 0.43115 0.0
C316 C 0.26522 0.61903 0.57833 0.0
N317 N 0.27564 0.61538 0.49401 0.0
H318 H 0.27151 0.62472 0.35447 0.0
H319 H 0.27537 0.61186 0.63741 0.0
H320 H 0.32176 0.60117 0.25227 0.0
H321 H 0.27595 0.55885 0.43755 0.0
O322 O 0.31987 0.63574 0.38839 0.0
O323 O 0.34952 0.60748 0.42075 0.0
O324 O 0.31267 0.57109 0.55936 0.0
C325 C 0.34391 0.629 0.37601 0.0
H326 H 0.34998 0.63555 0.76366 0.0
H327 H 0.29836 0.563 0.16557 0.0
H328 H 0.23536 0.63759 0.65853 0.0
H329 H 0.23358 0.65246 0.37197 0.0
Co330 Co 0.43085 0.32763 0.51436 0.0
C331 C 0.41931 0.32844 0.70223 0.0
C332 C 0.42463 0.3671 0.65118 0.0
C333 C 0.42847 0.3671 0.74324 0.0
N334 N 0.41899 0.34265 0.62512 0.0
N335 N 0.4261 0.34236 0.77441 0.0
H336 H 0.41691 0.30761 0.70595 0.0
H337 H 0.4286 0.3833 0.60603 0.0
C338 C 0.47813 0.31297 0.64983 0.0
O339 O 0.46406 0.29448 0.68732 0.0
N340 N 0.44395 0.31235 0.40729 0.0
C341 C 0.43165 0.29798 0.3446 0.0
C342 C 0.45005 0.2894 0.28331 0.0
C343 C 0.46911 0.31202 0.38545 0.0
N344 N 0.47339 0.29816 0.311 0.0
C345 C 0.39162 0.29131 0.56349 0.0
C346 C 0.41821 0.24594 0.5245 0.0
C347 C 0.39078 0.24501 0.53155 0.0
C348 C 0.37779 0.26797 0.5548 0.0
C349 C 0.43153 0.26994 0.5344 0.0
N350 N 0.41807 0.29259 0.5504 0.0
H351 H 0.38061 0.30899 0.57454 0.0
H352 H 0.45228 0.27064 0.52119 0.0
H353 H 0.41094 0.29405 0.34378 0.0
H354 H 0.48416 0.32206 0.42225 0.0
O355 O 0.39838 0.33737 0.44808 0.0
O356 O 0.43165 0.36305 0.45106 0.0
O357 O 0.46866 0.32549 0.57922 0.0
C358 C 0.4081 0.35919 0.42011 0.0
H359 H 0.43373 0.38379 0.78322 0.0
H360 H 0.4467 0.27796 0.22354 0.0
H361 H 0.42907 0.2286 0.50667 0.0
H362 H 0.35675 0.2682 0.56148 0.0
Co363 Co 0.73179 0.43821 0.50048 0.0
C364 C 0.68289 0.41274 0.55188 0.0
C365 C 0.70882 0.41466 0.66468 0.0
C366 C 0.68812 0.39882 0.68737 0.0
N367 N 0.70599 0.42234 0.57789 0.0
N368 N 0.67227 0.3975 0.61513 0.0
H369 H 0.67438 0.41489 0.48611 0.0
H370 H 0.72582 0.4183 0.70567 0.0
C371 C 0.74472 0.49025 0.62063 0.0
O372 O 0.76498 0.49646 0.57101 0.0
N373 N 0.75734 0.45354 0.42143 0.0
C374 C 0.77674 0.44023 0.38027 0.0
C375 C 0.79176 0.45738 0.33139 0.0
C376 C 0.75969 0.47827 0.39249 0.0
N377 N 0.78082 0.48108 0.33914 0.0
C378 C 0.75824 0.39277 0.56513 0.0
C379 C 0.80724 0.41454 0.57574 0.0
C380 C 0.8054 0.38719 0.56867 0.0
C381 C 0.78024 0.37651 0.57015 0.0
C382 C 0.78444 0.43021 0.57648 0.0
N383 N 0.76034 0.41938 0.56359 0.0
H384 H 0.73961 0.38377 0.55295 0.0
H385 H 0.78663 0.45112 0.57459 0.0
H386 H 0.78005 0.41946 0.38698 0.0
H387 H 0.74647 0.49389 0.41033 0.0
O388 O 0.72664 0.41095 0.40736 0.0
O389 O 0.70332 0.44592 0.40798 0.0
O390 O 0.73116 0.46971 0.59724 0.0
C391 C 0.70769 0.42336 0.36932 0.0
H392 H 0.68609 0.38726 0.74859 0.0
H393 H 0.80916 0.45296 0.29289 0.0
H394 H 0.82614 0.42389 0.57529 0.0
H395 H 0.77759 0.3556 0.56648 0.0
Co396 Co 0.62227 0.33135 1.00696 0.0
C397 C 0.63147 0.33464 0.81926 0.0
C398 C 0.62748 0.37225 0.87766 0.0
C399 C 0.61931 0.37371 0.79011 0.0
N400 N 0.63443 0.34747 0.89789 0.0
N401 N 0.62145 0.34983 0.75344 0.0
H402 H 0.63338 0.31378 0.81238 0.0
H403 H 0.62464 0.3877 0.92543 0.0
C404 C 0.5754 0.31133 0.87931 0.0
O405 O 0.58584 0.28799 0.87794 0.0
N406 N 0.60811 0.31552 0.11264 0.0
C407 C 0.61997 0.30354 0.18313 0.0
C408 C 0.60087 0.29468 0.24185 0.0
C409 C 0.58262 0.31331 0.12725 0.0
N410 N 0.57764 0.30077 0.20487 0.0
C411 C 0.66288 0.29653 0.95139 0.0
C412 C 0.64039 0.25071 1.0119 0.0
C413 C 0.66728 0.25061 0.99326 0.0
C414 C 0.67814 0.27379 0.95908 0.0
C415 C 0.62558 0.27377 1.00096 0.0
N416 N 0.63689 0.29679 0.97354 0.0
H417 H 0.67261 0.31458 0.93414 0.0
H418 H 0.60547 0.27338 1.02274 0.0
H419 H 0.64085 0.30171 0.1916 0.0
H420 H 0.56775 0.32148 0.08368 0.0
O421 O 0.65357 0.34211 0.07728 0.0
O422 O 0.61922 0.36651 0.06843 0.0
O423 O 0.58603 0.32856 0.93264 0.0
C424 C 0.64273 0.36374 0.10137 0.0
H425 H 0.61175 0.39105 0.75705 0.0
H426 H 0.60368 0.2851 0.30657 0.0
H427 H 0.63109 0.23338 0.03904 0.0
H428 H 0.6988 0.27478 0.94396 0.0
Co429 Co 0.73033 0.6181 0.04641 0.0
C430 C 0.73314 0.63222 0.86246 0.0
C431 C 0.69492 0.64276 0.91049 0.0
C432 C 0.69686 0.64884 0.81972 0.0
N433 N 0.71806 0.63286 0.93659 0.0
N434 N 0.72094 0.642 0.79093 0.0
H435 H 0.7529 0.62479 0.86061 0.0
H436 H 0.67804 0.64531 0.95334 0.0
C437 C 0.72268 0.57226 0.90784 0.0
O438 O 0.69982 0.58307 0.89311 0.0
N439 N 0.74449 0.60275 0.15451 0.0
C440 C 0.75395 0.61591 0.22539 0.0
C441 C 0.7722 0.60059 0.26866 0.0
C442 C 0.75683 0.57966 0.15671 0.0
N443 N 0.77497 0.57813 0.22255 0.0
C444 C 0.76514 0.66049 1.01667 0.0
C445 C 0.81223 0.63456 0.0283 0.0
C446 C 0.81226 0.66208 0.02916 0.0
C447 C 0.78828 0.67482 1.02049 0.0
C448 C 0.78832 0.62077 1.02406 0.0
N449 N 0.765 0.63379 1.02165 0.0
H450 H 0.74698 0.67116 1.01259 0.0
H451 H 0.78855 0.59982 1.0257 0.0
H452 H 0.74963 0.63603 0.24059 0.0
H453 H 0.75351 0.56466 0.10774 0.0
O454 O 0.71791 0.64836 0.11741 0.0
O455 O 0.69348 0.61487 0.09745 0.0
O456 O 0.73745 0.58308 0.9695 0.0
C457 C 0.69575 0.63783 0.135 0.0
H458 H 0.68211 0.65828 0.77869 0.0
H459 H 0.78281 0.60636 0.32776 0.0
H460 H 0.83041 0.62387 0.03354 0.0
H461 H 0.78733 0.69593 1.01928 0.0
Co462 Co 0.43597 0.72931 0.04107 0.0
C463 C 0.39273 0.72339 0.91127 0.0
C464 C 0.42533 0.7439 0.85557 0.0
C465 C 0.40566 0.74538 0.79447 0.0
N466 N 0.41706 0.73094 0.93013 0.0
N467 N 0.38575 0.73131 0.82776 0.0
H468 H 0.38118 0.71059 0.95388 0.0
H469 H 0.4448 0.75081 0.8431 0.0
C470 C 0.49037 0.74462 0.93545 0.0
O471 O 0.48937 0.76856 0.9654 0.0
N472 N 0.4556 0.72881 0.15008 0.0
C473 C 0.45903 0.7098 0.21308 0.0
C474 C 0.47719 0.71812 0.27409 0.0
C475 C 0.47154 0.74808 0.17318 0.0
N476 N 0.48484 0.74204 0.24761 0.0
C477 C 0.41656 0.77475 0.12674 0.0
C478 C 0.41812 0.80969 0.98454 0.0
C479 C 0.40067 0.8146 0.05564 0.0
C480 C 0.40121 0.79744 0.12955 0.0
C481 C 0.43335 0.78664 0.98466 0.0
N482 N 0.43074 0.76804 0.05165 0.0
H483 H 0.41517 0.7614 0.18333 0.0
H484 H 0.44603 0.78381 0.92809 0.0
H485 H 0.45055 0.69058 0.21255 0.0
H486 H 0.47522 0.76524 0.1321 0.0
O487 O 0.40372 0.72092 0.11234 0.0
O488 O 0.42832 0.69052 0.06227 0.0
O489 O 0.47183 0.72847 0.96158 0.0
C490 C 0.40818 0.69618 0.1134 0.0
H491 H 0.40746 0.75213 0.72519 0.0
H492 H 0.4861 0.70659 0.3274 0.0
H493 H 0.41908 0.82293 0.92718 0.0
H494 H 0.38865 0.80075 0.18726 0.0
Co495 Co 0.30939 0.42203 1.01481 0.0
C496 C 0.34374 0.384 0.93792 0.0
C497 C 0.35248 0.42203 0.88583 0.0
C498 C 0.37267 0.40548 0.86449 0.0
N499 N 0.33449 0.40835 0.93282 0.0
N500 N 0.36706 0.38177 0.89948 0.0
H501 H 0.33549 0.36884 0.97835 0.0
H502 H 0.35264 0.44298 0.87729 0.0
C503 C 0.29367 0.4762 0.90404 0.0
O504 O 0.27315 0.48151 0.95379 0.0
N505 N 0.28383 0.43427 0.09783 0.0
C506 C 0.26656 0.41878 0.14192 0.0
C507 C 0.25174 0.43369 0.1987 0.0
C508 C 0.27994 0.45812 0.1297 0.0
N509 N 0.2602 0.45827 0.18977 0.0
C510 C 0.27941 0.37681 0.97271 0.0
C511 C 0.23392 0.40257 0.92809 0.0
C512 C 0.23259 0.37614 0.95402 0.0
C513 C 0.25592 0.36312 0.97177 0.0
C514 C 0.25819 0.41566 0.92866 0.0
N515 N 0.28055 0.40312 0.95582 0.0
H516 H 0.29572 0.36644 0.99997 0.0
H517 H 0.25826 0.43637 0.91689 0.0
H518 H 0.26559 0.39784 0.13633 0.0
H519 H 0.29234 0.47465 0.11432 0.0
O520 O 0.31871 0.39476 0.10746 0.0
O521 O 0.33919 0.43125 0.09912 0.0
O522 O 0.30728 0.45514 0.92291 0.0
C523 C 0.33763 0.40842 0.13935 0.0
H524 H 0.39124 0.41106 0.83526 0.0
H525 H 0.23742 0.4269 0.24734 0.0
H526 H 0.21625 0.41337 0.91332 0.0
H527 H 0.25577 0.34276 0.99223 0.0
C528 C 0.17445 0.33005 0.92393 0.0
C529 C 0.16772 0.32497 1.01586 0.0
C530 C 0.19742 0.3602 0.06107 0.0
C531 C 0.20732 0.362 0.9714 0.0
N532 N 0.20573 0.34831 0.81693 0.0
N533 N 0.17277 0.33528 0.17281 0.0
C534 C 0.19572 0.34703 0.90246 0.0
C535 C 0.17905 0.34029 0.08461 0.0
N536 N 0.16033 0.31879 0.85698 0.0
N537 N 0.20545 0.37782 0.12346 0.0
H538 H 0.1584 0.32193 0.19183 0.0
H539 H 0.18256 0.34334 0.22717 0.0
H540 H 0.21832 0.39285 0.10732 0.0
H541 H 0.19756 0.37921 0.18805 0.0
H542 H 0.16257 0.32335 0.78876 0.0
H543 H 0.14446 0.30679 0.87037 0.0
H544 H 0.20055 0.33558 0.76582 0.0
H545 H 0.2204 0.36137 0.79827 0.0
C546 C 0.70533 0.22978 0.0783 0.0
C547 C 0.68448 0.22726 1.01572 0.0
C548 C 0.69643 0.1808 0.99952 0.0
C549 C 0.71972 0.18456 0.04985 0.0
N550 N 0.74829 0.21503 0.12365 0.0
N551 N 0.6627 0.20055 0.90637 0.0
C552 C 0.72463 0.20968 0.08612 0.0
C553 C 0.6806 0.20273 0.97392 0.0
N554 N 0.70639 0.25109 0.13265 0.0
N555 N 0.68911 0.15611 0.97747 0.0
H556 H 0.65129 0.21615 0.88384 0.0
H557 H 0.66096 0.18396 0.86697 0.0
H558 H 0.69981 0.13966 0.99701 0.0
H559 H 0.67119 0.1518 0.9484 0.0
H560 H 0.71967 0.25275 0.18537 0.0
H561 H 0.69223 0.26573 0.13164 0.0
H562 H 0.75389 0.23375 0.14194 0.0
H563 H 0.76332 0.20142 0.12855 0.0
C564 C 0.84938 0.68977 0.96581 0.0
C565 C 0.83665 0.67824 0.04178 0.0
C566 C 0.86295 0.70584 0.14279 0.0
C567 C 0.8753 0.71779 0.06676 0.0
N568 N 0.88393 0.7178 0.90702 0.0
N569 N 0.83466 0.6716 0.20262 0.0
C570 C 0.86974 0.70852 0.97865 0.0
C571 C 0.84465 0.68507 0.13031 0.0
N572 N 0.84119 0.68349 0.88107 0.0
N573 N 0.86808 0.71509 0.22706 0.0
H574 H 0.82098 0.65675 0.19591 0.0
H575 H 0.84122 0.67363 0.26853 0.0
H576 H 0.88234 0.7291 0.23897 0.0
H577 H 0.85761 0.70985 0.28469 0.0
H578 H 0.84709 0.69323 0.82256 0.0
H579 H 0.82733 0.66907 0.8694 0.0
H580 H 0.8829 0.71028 0.84222 0.0
H581 H 0.89836 0.73192 0.91365 0.0
C582 C 0.38658 0.86237 0.06739 0.0
C583 C 0.38019 0.8359 0.05027 0.0
C584 C 0.33368 0.84843 0.03893 0.0
C585 C 0.34026 0.87517 0.04894 0.0
N586 N 0.37333 0.90804 0.06205 0.0
N587 N 0.34814 0.80451 1.00414 0.0
C588 C 0.36685 0.88224 0.06029 0.0
C589 C 0.35384 0.8292 0.03176 0.0
N590 N 0.41138 0.86841 0.09309 0.0
N591 N 0.30801 0.84126 0.03883 0.0
H592 H 0.36221 0.78992 0.99768 0.0
H593 H 0.32994 0.79908 0.97982 0.0
H594 H 0.29271 0.85464 0.04333 0.0
H595 H 0.30184 0.82196 0.04223 0.0
H596 H 0.41684 0.88668 0.11615 0.0
H597 H 0.42625 0.85452 0.09738 0.0
H598 H 0.39245 0.91479 0.06013 0.0
H599 H 0.35943 0.92292 0.05924 0.0
C600 C 0.19377 0.70898 0.59549 0.0
C601 C 0.17428 0.71157 0.52777 0.0
C602 C 0.18734 0.66812 0.47325 0.0
C603 C 0.21023 0.66849 0.52771 0.0
N604 N 0.23739 0.69383 0.62731 0.0
N605 N 0.15498 0.69396 0.39307 0.0
C606 C 0.21394 0.69003 0.58604 0.0
C607 C 0.17152 0.6911 0.46453 0.0
N608 N 0.19306 0.72468 0.66928 0.0
N609 N 0.1804 0.6457 0.4309 0.0
H610 H 0.14367 0.7106 0.38236 0.0
H611 H 0.15432 0.68077 0.34014 0.0
H612 H 0.19088 0.62835 0.43865 0.0
H613 H 0.16282 0.64367 0.39667 0.0
H614 H 0.20564 0.7222 0.72389 0.0
H615 H 0.17803 0.73807 0.68016 0.0
H616 H 0.24156 0.71056 0.66382 0.0
H617 H 0.25365 0.68209 0.61621 0.0
C618 C 0.36631 0.20388 0.57947 0.0
C619 C 0.37489 0.22104 0.50946 0.0
C620 C 0.34511 0.19912 0.40308 0.0
C621 C 0.33625 0.1822 0.47339 0.0
N622 N 0.34211 0.16496 0.62377 0.0
N623 N 0.37633 0.23179 0.35103 0.0
C624 C 0.34818 0.18344 0.55998 0.0
C625 C 0.36554 0.21751 0.42001 0.0
N626 N 0.37478 0.20783 0.66563 0.0
N627 N 0.33326 0.19821 0.32068 0.0
H628 H 0.3909 0.24558 0.36124 0.0
H629 H 0.37244 0.22869 0.28312 0.0
H630 H 0.31937 0.18417 0.30485 0.0
H631 H 0.33621 0.2119 0.26935 0.0
H632 H 0.36708 0.19838 0.72218 0.0
H633 H 0.38883 0.22172 0.68131 0.0
H634 H 0.35167 0.163 0.68532 0.0
H635 H 0.32883 0.15005 0.61218 0.0
C636 C 0.8513 0.36969 0.60821 0.0
C637 C 0.82895 0.36968 0.55137 0.0
C638 C 0.84703 0.33094 0.47531 0.0
C639 C 0.87066 0.33261 0.52522 0.0
N640 N 0.8973 0.35913 0.62172 0.0
N641 N 0.81111 0.3551 0.40972 0.0
C642 C 0.87341 0.35376 0.58621 0.0
C643 C 0.82859 0.35182 0.47829 0.0
N644 N 0.85114 0.38373 0.68592 0.0
N645 N 0.8411 0.30882 0.42934 0.0
H646 H 0.79845 0.37103 0.40577 0.0
H647 H 0.81151 0.34378 0.35169 0.0
H648 H 0.85273 0.29215 0.43092 0.0
H649 H 0.82306 0.30599 0.39873 0.0
H650 H 0.86597 0.38241 0.73371 0.0
H651 H 0.83501 0.39445 0.70728 0.0
H652 H 0.90086 0.3756 0.66035 0.0
H653 H 0.91407 0.3488 0.60399 0.0
C654 C 0.71527 0.86188 0.46548 0.0
C655 C 0.72637 0.87444 0.54105 0.0
C656 C 0.70124 0.84537 0.64312 0.0
C657 C 0.69 0.83293 0.5675 0.0
N658 N 0.6815 0.83345 0.40774 0.0
N659 N 0.72545 0.88223 0.70102 0.0
C660 C 0.69553 0.84255 0.47895 0.0
C661 C 0.71782 0.86749 0.62963 0.0
N662 N 0.72422 0.86785 0.38078 0.0
N663 N 0.69714 0.83525 0.7277 0.0
H664 H 0.73751 0.89841 0.69347 0.0
H665 H 0.71801 0.87995 0.76608 0.0
H666 H 0.68481 0.81949 0.74029 0.0
H667 H 0.70721 0.84131 0.78461 0.0
H668 H 0.71943 0.85728 0.32365 0.0
H669 H 0.73776 0.88262 0.36831 0.0
H670 H 0.68269 0.84122 0.34265 0.0
H671 H 0.66674 0.81966 0.41555 0.0
C672 C 1.00965 0.21391 0.29959 0.0
C673 C 0.99162 0.23529 0.29822 0.0
C674 C 1.01755 0.25372 0.16764 0.0
C675 C 0.03541 0.23235 0.16852 0.0
N676 N 0.0431 0.18868 0.22056 0.0
N677 N 0.97494 0.27122 0.20943 0.0
C678 C 0.02962 0.21141 0.22995 0.0
C679 C 0.99463 0.25381 0.22551 0.0
N680 N 1.00881 0.19657 0.37005 0.0
N681 N 1.02282 0.27457 0.11256 0.0
H682 H 0.95761 0.27112 0.24655 0.0
H683 H 0.97447 0.28367 0.15344 0.0
H684 H 0.03817 0.27449 0.06608 0.0
H685 H 1.01286 0.29226 0.11618 0.0
H686 H 1.02306 0.18242 0.38142 0.0
H687 H 0.99483 0.19753 0.42108 0.0
H688 H 0.0391 0.17176 0.2575 0.0
H689 H 0.05613 0.18611 0.16728 0.0
C690 C 0.79533 0.03399 0.40461 0.0
C691 C 0.814 1.0134 0.39705 0.0
C692 C 0.83099 0.03661 0.25763 0.0
C693 C 0.81258 0.05747 0.26613 0.0
N694 N 0.78157 0.07828 0.36418 0.0
N695 N 0.85388 0.99959 0.32711 0.0
C696 C 0.79613 0.05671 0.34479 0.0
C697 C 0.83311 1.01624 0.32679 0.0
N698 N 0.77601 0.03149 0.46766 0.0
N699 N 0.84564 0.03525 0.18075 0.0
H700 H 0.85653 0.98578 0.37844 0.0
H701 H 0.86978 1.00146 0.28366 0.0
H702 H 0.84492 0.04951 0.13009 0.0
H703 H 0.85703 1.01915 0.16421 0.0
H704 H 0.75976 0.04369 0.47019 0.0
H705 H 0.77559 1.01616 0.51457 0.0
H706 H 0.7711 0.08043 0.42396 0.0
H707 H 0.7822 0.0952 0.32452 0.0
C708 C 0.0531 0.81918 0.25098 0.0
C709 C 0.05434 0.81386 0.3465 0.0
C710 C 1.00564 0.81359 0.34303 0.0
C711 C 1.00433 0.81398 0.24591 0.0
N712 N 0.02971 0.81515 0.10858 0.0
N713 N 0.02973 0.80118 0.47824 0.0
C714 C 0.02893 0.81638 0.20041 0.0
C715 C 0.03 0.80985 0.39081 0.0
N716 N 0.07498 0.82814 0.2082 0.0
N717 N 0.98362 0.81847 0.39158 0.0
H718 H 0.04669 0.79727 0.51445 0.0
H719 H 1.01271 0.79529 0.51125 0.0
H720 H 0.96591 0.82309 0.36135 0.0
H721 H 0.98412 0.82166 0.46087 0.0
H722 H 0.07511 0.83478 0.14149 0.0
H723 H 0.09227 0.83185 0.24255 0.0
H724 H 0.04699 0.81343 0.07192 0.0
H725 H 1.01303 0.81391 0.06938 0.0
C726 C 0.25011 1.01373 0.39292 0.0
C727 C 0.24762 0.04076 0.36783 0.0
C728 C 0.23792 1.02511 0.21085 0.0
C729 C 0.24449 0.99869 0.23336 0.0
N730 N 0.25873 0.96873 0.34875 0.0
N731 N 0.24133 0.07146 0.24541 0.0
C732 C 0.25098 0.99338 0.32544 0.0
C733 C 0.24172 0.04615 0.27485 0.0
N734 N 0.25061 1.00721 0.48258 0.0
N735 N 0.2277 0.03016 0.12752 0.0
H736 H 0.24426 0.08716 0.28817 0.0
H737 H 0.24028 0.07684 0.17754 0.0
H738 H 0.22471 1.01545 0.08051 0.0
H739 H 0.22004 0.04819 0.10824 0.0
H740 H 0.2499 0.98807 0.50663 0.0
H741 H 0.24877 1.021 0.53344 0.0
H742 H 0.26707 0.96396 0.4108 0.0
H743 H 0.25813 0.95328 0.30361 0.0
C744 C 0.0425 0.81356 0.83197 0.0
C745 C 0.05131 0.79212 0.78197 0.0
C746 C 1.00732 0.77444 0.77606 0.0
C747 C 0.99824 0.79737 0.8176 0.0
N748 N 1.00591 0.84117 0.86855 0.0
N749 N 0.04305 0.75337 0.6974 0.0
C750 C 1.01552 0.81768 0.84096 0.0
C751 C 0.03399 0.77271 0.75184 0.0
N752 N 0.06019 0.83004 0.86947 0.0
N753 N 0.99048 0.75438 0.76167 0.0
H754 H 0.06274 0.7515 0.68086 0.0
H755 H 0.03095 0.74012 0.66525 0.0
H756 H 0.97068 0.7557 0.7774 0.0
H757 H 0.99637 0.73611 0.73916 0.0
H758 H 0.05508 0.84491 0.91357 0.0
H759 H 0.08024 0.82715 0.86305 0.0
H760 H 1.01756 0.85742 0.87961 0.0
H761 H 0.98602 0.84525 0.87146 0.0
C762 C 0.28094 0.03895 0.90529 0.0
C763 C 0.28101 1.01677 0.85013 0.0
C764 C 0.30007 0.04175 0.72722 0.0
C765 C 0.29226 0.06451 0.77244 0.0
N766 N 0.27873 0.08596 0.90885 0.0
N767 N 0.29462 0.99488 0.71628 0.0
C768 C 0.28482 0.06358 0.86438 0.0
C769 C 0.29278 1.01735 0.76423 0.0
N770 N 0.27563 0.03629 0.99503 0.0
N771 N 0.3126 0.04404 0.64624 0.0
H772 H 0.28947 0.97688 0.7447 0.0
H773 H 0.30062 0.99412 0.64917 0.0
H774 H 0.31741 0.06232 0.61923 0.0
H775 H 0.31972 0.02826 0.61001 0.0
H776 H 0.27693 0.05145 0.04092 0.0
H777 H 0.27233 1.01809 1.02436 0.0
H778 H 0.26984 0.0863 0.9721 0.0
H779 H 0.28188 0.10443 0.88129 0.0
C780 C 0.03805 0.25391 0.60786 0.0
C781 C 1.01711 0.26218 0.66284 0.0
C782 C 0.04678 0.28388 0.7638 0.0
C783 C 0.06716 0.26966 0.72322 0.0
N784 N 0.08475 0.24621 0.598 0.0
N785 N 0.99985 0.2894 0.77872 0.0
C786 C 0.06372 0.25713 0.64002 0.0
C787 C 1.02099 0.27941 0.73475 0.0
N788 N 0.03291 0.24152 0.5289 0.0
N789 N 0.05241 0.29971 0.83447 0.0
H790 H 0.98088 0.28606 0.7563 0.0
H791 H 1.00091 0.30084 0.83609 0.0
H792 H 0.07159 0.3024 0.85591 0.0
H793 H 0.0387 0.31102 0.86816 0.0
H794 H 0.0471 0.23549 0.48329 0.0
H795 H 1.01388 0.2387 0.50668 0.0
H796 H 0.08367 0.23474 0.54071 0.0
H797 H 0.10369 0.24881 0.62166 0.0
C798 C 0.77097 1.02176 0.92864 0.0
C799 C 0.77418 0.04357 0.87066 0.0
C800 C 0.74935 1.0225 0.75315 0.0
C801 C 0.75184 0.99919 0.80338 0.0
N802 N 0.74818 0.98105 0.95302 0.0
N803 N 0.76037 0.06857 0.74152 0.0
C804 C 0.75657 1.00046 0.89679 0.0
C805 C 0.76069 0.04544 0.78782 0.0
N806 N 0.78332 1.02059 1.01009 0.0
N807 N 0.73891 1.02137 0.66887 0.0
H808 H 0.76892 0.08531 0.76763 0.0
H809 H 0.75087 0.0715 0.6803 0.0
H810 H 0.7314 1.00389 0.64453 0.0
H811 H 0.73736 0.03722 0.62479 0.0
H812 H 0.78383 1.00382 0.05043 0.0
H813 H 0.79441 0.0359 0.03481 0.0
H814 H 0.75031 0.98159 1.0229 0.0
H815 H 0.73598 0.96634 0.93036 0.0
C816 C 0.56081 0.74478 0.81988 0.0
C817 C 0.55572 0.73758 0.72888 0.0
C818 C 0.50958 0.72738 0.78019 0.0
C819 C 0.51361 0.73808 0.86821 0.0
N820 N 0.54491 0.75734 0.96877 0.0
N821 N 0.52361 0.72336 0.62264 0.0
C822 C 0.53985 0.74667 0.88668 0.0
C823 C 0.52964 0.72913 0.70989 0.0
N824 N 0.58603 0.7498 0.8432 0.0
N825 N 0.48657 0.71516 0.76291 0.0
H826 H 0.53765 0.72259 0.57158 0.0
H827 H 0.50464 0.72075 0.59971 0.0
H828 H 0.47183 0.71318 0.81078 0.0
H829 H 0.48304 0.70465 0.70455 0.0
H830 H 0.59223 0.75236 0.90931 0.0
H831 H 0.6013 0.74914 0.79659 0.0
H832 H 0.5618 0.76763 0.98333 0.0
H833 H 0.53164 0.75686 1.02201 0.0
C834 C 0.30102 0.48979 0.73303 0.0
C835 C 0.30053 0.49637 0.82685 0.0
C836 C 0.30153 0.54355 0.777 0.0
C837 C 0.30232 0.5371 0.68322 0.0
N838 N 0.30739 0.5032 0.5749 0.0
N839 N 0.3069 0.53032 0.93497 0.0
C840 C 0.30361 0.5099 0.66271 0.0
C841 C 0.30276 0.52352 0.84727 0.0
N842 N 0.29753 0.46433 0.71029 0.0
N843 N 0.29865 0.56913 0.79972 0.0
H844 H 0.30854 0.51654 0.98703 0.0
H845 H 0.3114 0.54916 0.95494 0.0
H846 H 0.29907 0.58422 0.752 0.0
H847 H 0.29434 0.5753 0.8648 0.0
H848 H 0.29457 0.45811 0.64451 0.0
H849 H 0.296 0.44943 0.75845 0.0
H850 H 0.31114 0.48427 0.55388 0.0
H851 H 0.30917 0.5173 0.52406 0.0
C852 C 0.55077 0.30244 0.72846 0.0
C853 C 0.552 0.31652 0.81209 0.0
C854 C 0.50898 0.3361 0.76447 0.0
C855 C 0.50552 0.31779 0.69316 0.0
N856 N 0.52425 0.28191 0.61291 0.0
N857 N 0.52944 0.34693 0.90817 0.0
C858 C 0.52678 0.30052 0.67736 0.0
C859 C 0.53035 0.3336 0.82909 0.0
N860 N 0.57315 0.29222 0.69331 0.0
N861 N 0.4922 0.35664 0.76853 0.0
H862 H 0.5438 0.34539 0.95731 0.0
H863 H 0.51352 0.35811 0.92814 0.0
H864 H 0.47841 0.35977 0.71813 0.0
H865 H 0.49423 0.37204 0.81315 0.0
H866 H 0.57416 0.28394 0.62949 0.0
H867 H 0.59136 0.29537 0.72192 0.0
H868 H 0.53757 0.26669 0.60517 0.0
H869 H 0.50801 0.28089 0.57079 0.0
C870 C 0.75527 0.54305 0.81067 0.0
C871 C 0.72986 0.54812 0.84681 0.0
C872 C 0.71332 0.51457 0.73657 0.0
C873 C 0.73892 0.50818 0.70484 0.0
N874 N 0.78462 0.51132 0.74316 0.0
N875 N 0.68663 0.52992 0.86148 0.0
C876 C 0.75991 0.52102 0.75126 0.0
C877 C 0.70956 0.53123 0.81462 0.0
N878 N 0.77521 0.55962 0.82951 0.0
N879 N 0.69211 0.50581 0.69079 0.0
H880 H 0.68375 0.53958 0.9223 0.0
H881 H 0.67204 0.51654 0.84679 0.0
H882 H 0.69352 0.49443 0.63328 0.0
H883 H 0.67319 0.5121 0.70486 0.0
H884 H 0.79328 0.5586 0.79728 0.0
H885 H 0.77307 0.57577 0.87075 0.0
H886 H 0.80025 0.51822 0.7807 0.0
H887 H 0.78876 0.49411 0.7091 0.0
C888 C 0.5398 0.27421 0.25024 0.0
C889 C 0.55208 0.29878 0.24193 0.0
C890 C 0.51027 0.3207 0.24742 0.0
C891 C 0.49825 0.29676 0.26869 0.0
N892 N 0.5016 0.2509 0.30332 0.0
N893 N 0.55004 0.3454 0.25571 0.0
C894 C 0.51296 0.2734 0.27334 0.0
C895 C 0.53753 0.32207 0.24822 0.0
N896 N 0.55343 0.25193 0.23295 0.0
N897 N 0.49532 0.3421 0.22833 0.0
H898 H 0.57031 0.34662 0.26033 0.0
H899 H 0.54027 0.36292 0.2669 0.0
H900 H 0.475 0.3411 0.22589 0.0
H901 H 0.5031 0.3598 0.20614 0.0
H902 H 0.54469 0.23366 0.22944 0.0
H903 H 0.57317 0.25203 0.21591 0.0
H904 H 0.51212 0.23391 0.317 0.0
H905 H 0.48185 0.24979 0.31983 0.0
C906 C 0.80136 0.55048 0.32693 0.0
C907 C 0.79186 0.55589 0.2395 0.0
C908 C 0.78812 0.50987 0.20801 0.0
C909 C 0.79019 0.50499 0.30171 0.0
N910 N 0.80595 0.51804 0.44677 0.0
N911 N 0.7966 0.54093 0.08754 0.0
C912 C 0.79947 0.52452 0.3602 0.0
C913 C 0.79225 0.53549 0.17642 0.0
N914 N 0.81429 0.5693 0.37264 0.0
N915 N 0.78015 0.49082 0.15089 0.0
H916 H 0.80106 0.55982 0.06618 0.0
H917 H 0.7986 0.52661 0.03863 0.0
H918 H 0.77627 0.47183 0.17247 0.0
H919 H 0.77577 0.49444 0.08323 0.0
H920 H 0.82255 0.56648 0.4361 0.0
H921 H 0.81976 0.58665 0.34046 0.0
H922 H 0.81028 0.53165 0.49607 0.0
H923 H 0.80669 0.49864 0.46874 0.0
C924 C 0.53358 0.78482 0.35487 0.0
C925 C 0.55622 0.77528 0.31246 0.0
C926 C 0.53146 0.74585 0.22072 0.0
C927 C 0.50886 0.7539 0.26801 0.0
N928 N 0.48634 0.78449 0.36211 0.0
N929 N 0.57706 0.75399 0.18863 0.0
C930 C 0.50921 0.77483 0.32881 0.0
C931 C 0.55506 0.75859 0.23814 0.0
N932 N 0.53602 0.80175 0.4247 0.0
N933 N 0.53046 0.72531 0.16282 0.0
H934 H 0.59464 0.7633 0.20222 0.0
H935 H 0.57743 0.74299 0.13005 0.0
H936 H 0.5132 0.71595 0.14584 0.0
H937 H 0.54687 0.71671 0.13419 0.0
H938 H 0.5206 0.8075 0.46587 0.0
H939 H 0.5541 0.80947 0.44237 0.0
H940 H 0.48514 0.80104 0.40197 0.0
H941 H 0.46827 0.77664 0.34516 0.0
C942 C 0.24695 0.52547 0.24296 0.0
C943 C 0.27118 0.52936 0.2854 0.0
C944 C 0.27591 0.48304 0.31243 0.0
C945 C 0.25591 0.47904 0.24992 0.0
N946 N 0.22 0.4947 0.16229 0.0
N947 N 0.31088 0.51196 0.35013 0.0
C948 C 0.24004 0.49978 0.21961 0.0
C949 C 0.28609 0.50822 0.31951 0.0
N950 N 0.2313 0.5463 0.22329 0.0
N951 N 0.28686 0.4622 0.35604 0.0
H952 H 0.31975 0.53019 0.35156 0.0
H953 H 0.32346 0.49666 0.36678 0.0
H954 H 0.27974 0.44334 0.34785 0.0
H955 H 0.30103 0.46401 0.40579 0.0
H956 H 0.21256 0.54454 0.19724 0.0
H957 H 0.23664 0.56535 0.23897 0.0
H958 H 0.20916 0.50911 0.12936 0.0
H959 H 0.21491 0.47559 0.14642 0.0
C960 C 0.16301 0.19828 0.37268 0.0
C961 C 0.15921 0.17161 0.39621 0.0
C962 C 0.11287 0.17997 0.41636 0.0
C963 C 0.11712 0.2014 0.35889 0.0
N964 N 0.14175 0.24077 0.37165 0.0
N965 N 0.13332 0.14256 0.4903 0.0
C966 C 0.1407 0.21434 0.37382 0.0
C967 C 0.13488 0.16405 0.43569 0.0
N968 N 0.18627 0.20744 0.34125 0.0
N969 N 0.088 0.17331 0.43836 0.0
H970 H 0.14995 0.13222 0.51008 0.0
H971 H 0.11615 0.13647 0.52152 0.0
H972 H 0.07244 0.18524 0.41829 0.0
H973 H 0.08304 0.15652 0.47451 0.0
H974 H 0.18853 0.22657 0.31792 0.0
H975 H 0.20248 0.19551 0.33173 0.0
H976 H 0.15904 0.25096 0.38201 0.0
H977 H 0.12467 0.25182 0.36539 0.0
C978 C 0.80454 0.21154 0.32132 0.0
C979 C 0.81228 0.21005 0.23002 0.0
C980 C 0.83694 0.24976 0.24652 0.0
C981 C 0.83939 0.24241 0.33794 0.0
N982 N 0.81399 0.23076 0.46762 0.0
N983 N 0.82293 0.23544 0.09799 0.0
C984 C 0.81831 0.22896 0.3773 0.0
C985 C 0.82333 0.23249 0.18935 0.0
N986 N 0.78728 0.19372 0.35433 0.0
N987 N 0.85133 0.27016 0.21487 0.0
H988 H 0.81226 0.22284 0.05766 0.0
H989 H 0.83179 0.2508 0.06338 0.0
H990 H 0.86253 0.2812 0.2591 0.0
H991 H 0.85161 0.27631 0.1477 0.0
H992 H 0.78188 0.19225 0.42197 0.0
H993 H 0.77837 0.18048 0.31115 0.0
H994 H 0.79907 0.221 0.50157 0.0
H995 H 0.82478 0.24364 0.50666 0.0
C996 C 0.86636 0.85311 0.42742 0.0
C997 C 0.88188 0.87304 0.46668 0.0
C998 C 0.91635 0.8414 0.48789 0.0
C999 C 0.90585 0.82875 0.4132 0.0
N1000 N 0.8657 0.80742 0.38229 0.0
N1001 N 0.91994 0.88391 0.55549 0.0
C1002 C 0.87861 0.82886 0.41099 0.0
C1003 C 0.9061 0.86629 0.50724 0.0
N1004 N 0.84114 0.85767 0.40328 0.0
N1005 N 0.93634 0.83031 0.53426 0.0
H1006 H 0.9133 0.90286 0.56574 0.0
H1007 H 0.93861 0.88002 0.5799 0.0
H1008 H 0.94281 0.8116 0.51803 0.0
H1009 H 0.94444 0.83865 0.5915 0.0
H1010 H 0.8299 0.84426 0.36842 0.0
H1011 H 0.83173 0.87523 0.41635 0.0
H1012 H 0.84544 0.80615 0.38036 0.0
H1013 H 0.87592 0.79039 0.36657 0.0
C1014 C 0.19878 0.83314 0.09929 0.0
C1015 C 0.22319 0.83763 0.13918 0.0
C1016 C 0.20754 0.82297 0.2828 0.0
C1017 C 0.18205 0.82956 0.25181 0.0
N1018 N 0.15201 0.83304 0.12814 0.0
N1019 N 0.25306 0.81695 0.23926 0.0
C1020 C 0.17702 0.83131 0.15819 0.0
C1021 C 0.22813 0.82384 0.21914 0.0
N1022 N 0.19659 0.83406 1.00786 0.0
N1023 N 0.21247 0.81982 0.37249 0.0
H1024 H 0.26809 0.82042 0.19284 0.0
H1025 H 0.25812 0.80641 0.29719 0.0
H1026 H 0.19797 0.82188 0.42094 0.0
H1027 H 0.23111 0.81709 0.39867 0.0
H1028 H 0.17915 0.83106 0.97374 0.0
H1029 H 0.21312 0.83624 0.96711 0.0
H1030 H 0.14707 0.83587 0.06065 0.0
H1031 H 0.13622 0.83159 0.17258 0.0
C1032 C 0.86922 0.88941 0.9465 0.0
C1033 C 0.89571 0.88294 0.92602 0.0
C1034 C 0.8919 0.91291 0.79145 0.0
C1035 C 0.86439 0.9161 0.80459 0.0
N1036 N 0.82699 0.90608 0.89709 0.0
N1037 N 0.93113 0.88707 0.81946 0.0
C1038 C 0.85323 0.90389 0.88288 0.0
C1039 C 0.90681 0.89464 0.84655 0.0
N1040 N 0.85951 0.88274 0.02962 0.0
N1041 N 0.90408 0.92729 0.72586 0.0
H1042 H 0.94265 0.87405 0.85622 0.0
H1043 H 0.93909 0.89198 0.75682 0.0
H1044 H 0.89418 0.93994 0.68244 0.0
H1045 H 0.92428 0.92834 0.71934 0.0
H1046 H 0.84144 0.88895 0.05352 0.0
H1047 H 0.87069 0.87332 0.07892 0.0
H1048 H 0.8168 0.8948 0.94416 0.0
H1049 H 0.81514 0.9185 0.85892 0.0
C1050 C 0.18169 0.88443 0.68652 0.0
C1051 C 0.15709 0.87308 0.70951 0.0
C1052 C 0.16321 0.89069 0.86561 0.0
C1053 C 0.18698 0.90348 0.84036 0.0
N1054 N 0.21431 0.91754 0.71668 0.0
N1055 N 0.1229 0.86904 0.8203 0.0
C1056 C 0.19483 0.90168 0.74791 0.0
C1057 C 0.14733 0.87763 0.79864 0.0
N1058 N 0.19308 0.87842 0.6059 0.0
N1059 N 0.15645 0.88948 0.95479 0.0
H1060 H 0.11139 0.85867 0.77536 0.0
H1061 H 0.11327 0.87387 0.87978 0.0
H1062 H 0.16758 0.89787 1.0054 0.0
H1063 H 0.14105 0.87836 0.97977 0.0
H1064 H 0.21228 0.88321 0.58974 0.0
H1065 H 0.18412 0.86688 0.55776 0.0
H1066 H 0.21923 0.91934 0.64863 0.0
H1067 H 0.22352 0.93122 0.75709 0.0
C1068 C 0.17762 0.17253 0.70184 0.0
C1069 C 0.18429 0.14563 0.71094 0.0
C1070 C 0.15539 0.14606 0.84919 0.0
C1071 C 0.15279 0.17398 0.84607 0.0
N1072 N 0.17017 0.21327 0.77486 0.0
N1073 N 0.18055 0.10736 0.80584 0.0
C1074 C 0.16675 0.18693 0.77492 0.0
C1075 C 0.17322 0.13246 0.78796 0.0
N1076 N 0.17939 0.18432 0.61963 0.0
N1077 N 0.14133 0.13239 0.91189 0.0
H1078 H 0.19344 0.09717 0.76465 0.0
H1079 H 0.17557 0.09743 0.86509 0.0
H1080 H 0.1296 0.1415 0.95977 0.0
H1081 H 0.14003 0.11213 0.91253 0.0
H1082 H 0.17289 0.20327 0.60628 0.0
H1083 H 0.18227 0.17325 0.56303 0.0
H1084 H 0.18223 0.22282 0.72836 0.0
H1085 H 0.16402 0.22521 0.82621 0.0
C1086 C 0.89122 0.14291 0.81574 0.0
C1087 C 0.86928 0.1546 0.86054 0.0
C1088 C 0.87014 0.18902 0.74046 0.0
C1089 C 0.89402 0.17982 0.70221 0.0
N1090 N 0.92853 0.14772 0.71425 0.0
N1091 N 0.84547 0.19499 0.87781 0.0
C1092 C 0.90485 0.15663 0.74282 0.0
C1093 C 0.8611 0.17945 0.82634 0.0
N1094 N 0.8989 0.11836 0.8402 0.0
N1095 N 0.85494 0.20618 0.69287 0.0
H1096 H 0.84067 0.19039 0.94452 0.0
H1097 H 0.84057 0.21401 0.8587 0.0
H1098 H 0.85897 0.21154 0.62617 0.0
H1099 H 0.8365 0.21196 0.71498 0.0
H1100 H 0.91199 0.10733 0.80254 0.0
H1101 H 0.89115 0.10831 0.89523 0.0
H1102 H 0.93919 0.13352 0.74903 0.0
H1103 H 0.93831 0.15537 0.65859 0.0
C1104 C 0.72238 0.64182 0.62856 0.0
C1105 C 0.73328 0.65048 0.70974 0.0
C1106 C 0.73547 0.69443 0.65085 0.0
C1107 C 0.71493 0.68683 0.59477 0.0
N1108 N 0.70856 0.65526 0.47826 0.0
N1109 N 0.76335 0.68069 0.77549 0.0
C1110 C 0.71576 0.661 0.56392 0.0
C1111 C 0.7453 0.67529 0.7113 0.0
N1112 N 0.71568 0.61637 0.61968 0.0
N1113 N 0.74188 0.7201 0.65481 0.0
H1114 H 0.7705 0.66612 0.81847 0.0
H1115 H 0.77225 0.69877 0.78204 0.0
H1116 H 0.73288 0.73367 0.61181 0.0
H1117 H 0.75578 0.72757 0.69843 0.0
H1118 H 0.70524 0.60945 0.56469 0.0
H1119 H 0.72034 0.60267 0.66995 0.0
H1120 H 0.70921 0.6364 0.45282 0.0
H1121 H 0.70432 0.67012 0.43169 0.0
C1122 C 0.36433 0.68539 0.65258 0.0
C1123 C 0.33813 0.68222 0.67917 0.0
C1124 C 0.34188 0.71817 0.78317 0.0
C1125 C 0.36919 0.71653 0.77197 0.0
N1126 N 0.40666 0.69314 0.71243 0.0
N1127 N 0.30068 0.69571 0.76365 0.0
C1128 C 0.38064 0.69913 0.70964 0.0
C1129 C 0.32626 0.69915 0.74131 0.0
N1130 N 0.37421 0.67273 0.57945 0.0
N1131 N 0.33139 0.73723 0.83561 0.0
H1132 H 0.28921 0.68182 0.73166 0.0
H1133 H 0.2913 0.70581 0.81502 0.0
H1134 H 0.343 0.751 0.86765 0.0
H1135 H 0.31141 0.74039 0.8421 0.0
H1136 H 0.39277 0.67655 0.5536 0.0
H1137 H 0.36326 0.66026 0.54001 0.0
H1138 H 0.41514 0.67872 0.67286 0.0
H1139 H 0.41922 0.69956 0.76234 0.0
C1140 C 0.41008 0.36794 0.95578 0.0
C1141 C 0.38516 0.36146 0.92059 0.0
C1142 C 0.40264 0.31916 0.88517 0.0
C1143 C 0.42569 0.33274 0.8665 0.0
N1144 N 0.45584 0.35418 0.96263 0.0
N1145 N 0.3564 0.32674 0.86952 0.0
C1146 C 0.43113 0.35144 0.93184 0.0
C1147 C 0.3804 0.33518 0.89487 0.0
N1148 N 0.41325 0.38962 1.00663 0.0
N1149 N 0.40154 0.29293 0.87518 0.0
H1150 H 0.33993 0.33861 0.86952 0.0
H1151 H 0.35343 0.3082 0.84338 0.0
H1152 H 0.41838 0.2823 0.8599 0.0
H1153 H 0.38458 0.28229 0.88772 0.0
H1154 H 0.43133 0.39592 0.02938 0.0
H1155 H 0.39726 0.40078 1.02702 0.0
H1156 H 0.46111 0.36765 1.01132 0.0
H1157 H 0.47046 0.34145 0.941 0.0
C1158 C 0.66182 0.35077 0.60488 0.0
C1159 C 0.65403 0.37734 0.59628 0.0
C1160 C 0.60908 0.36339 0.60513 0.0
C1161 C 0.61895 0.3431 0.65947 0.0
N1162 N 0.64595 0.3063 0.62568 0.0
N1163 N 0.61928 0.40777 0.55846 0.0
C1164 C 0.64207 0.33249 0.62517 0.0
C1165 C 0.6272 0.38328 0.58204 0.0
N1166 N 0.68741 0.34376 0.60039 0.0
N1167 N 0.58297 0.36554 0.59202 0.0
H1168 H 0.63245 0.42274 0.54495 0.0
H1169 H 0.59972 0.4132 0.55505 0.0
H1170 H 0.57034 0.3513 0.61769 0.0
H1171 H 0.57458 0.38019 0.5523 0.0
H1172 H 0.69396 0.32488 0.61396 0.0
H1173 H 0.70192 0.35725 0.58454 0.0
H1174 H 0.66279 0.29764 0.60001 0.0
H1175 H 0.63123 0.29363 0.64703 0.0
C1176 C 0.37048 0.37312 0.20052 0.0
C1177 C 0.35695 0.39741 0.21268 0.0
C1178 C 0.37847 0.39837 0.36558 0.0
C1179 C 0.39388 0.37575 0.34649 0.0
N1180 N 0.41043 0.34893 0.22785 0.0
N1181 N 0.35099 0.43432 0.31005 0.0
C1182 C 0.39178 0.36568 0.25812 0.0
C1183 C 0.36218 0.41055 0.29587 0.0
N1184 N 0.36201 0.35563 0.13891 0.0
N1185 N 0.37872 0.40782 0.45122 0.0
H1186 H 0.33791 0.44284 0.26465 0.0
H1187 H 0.35574 0.44615 0.3642 0.0
H1188 H 0.39078 0.39993 0.50123 0.0
H1189 H 0.36608 0.42229 0.47371 0.0
H1190 H 0.37077 0.33747 0.12998 0.0
H1191 H 0.34356 0.35681 0.11117 0.0
H1192 H 0.41107 0.34236 0.16149 0.0
H1193 H 0.42711 0.34492 0.26558 0.0
C1194 C 0.68383 0.42043 0.21258 0.0
C1195 C 0.68936 0.40963 0.30017 0.0
C1196 C 0.65838 0.37375 0.26188 0.0
C1197 C 0.65605 0.38203 0.17056 0.0
N1198 N 0.66972 0.41297 0.05712 0.0
N1199 N 0.68575 0.37029 0.39312 0.0
C1200 C 0.66956 0.40545 0.14566 0.0
C1201 C 0.67784 0.38465 0.3201 0.0
N1202 N 0.69268 0.44484 0.19197 0.0
N1203 N 0.64107 0.35598 0.29541 0.0
H1204 H 0.69999 0.37617 0.43789 0.0
H1205 H 0.67993 0.35104 0.40381 0.0
H1206 H 0.62527 0.3497 0.25747 0.0
H1207 H 0.64018 0.35071 0.36356 0.0
H1208 H 0.68729 0.45505 0.13377 0.0
H1209 H 0.70409 0.45556 0.23625 0.0
H1210 H 0.68127 0.42801 0.03159 0.0
H1211 H 0.6596 0.40276 1.00806 0.0
C1212 C 0.67002 0.67973 0.17749 0.0
C1213 C 0.67535 0.65259 0.19431 0.0
C1214 C 0.65055 0.6573 0.34026 0.0
C1215 C 0.64579 0.68456 0.32367 0.0
N1216 N 0.64538 0.71915 0.21348 0.0
N1217 N 0.66625 0.61495 0.28736 0.0
C1218 C 0.65402 0.69488 0.23847 0.0
C1219 C 0.66399 0.64124 0.27396 0.0
N1220 N 0.68054 0.69145 0.10259 0.0
N1221 N 0.64357 0.64682 0.42195 0.0
H1222 H 0.67687 0.60296 0.24449 0.0
H1223 H 0.65613 0.60461 0.33702 0.0
H1224 H 0.63286 0.65699 0.46986 0.0
H1225 H 0.64966 0.62859 0.44512 0.0
H1226 H 0.68127 0.71157 0.09301 0.0
H1227 H 0.68954 0.68115 0.05094 0.0
H1228 H 0.64784 0.72715 0.14915 0.0
H1229 H 0.6332 0.73034 0.25437 0.0
C1230 C 0.36502 0.67281 0.31982 0.0
C1231 C 0.36254 0.6451 0.3115 0.0
C1232 C 0.38906 0.6502 0.16775 0.0
C1233 C 0.3936 0.67745 0.1822 0.0
N1234 N 0.3928 0.71037 0.29813 0.0
N1235 N 0.37738 0.60736 0.22995 0.0
C1236 C 0.38344 0.68744 0.26544 0.0
C1237 C 0.37636 0.63384 0.23662 0.0
N1238 N 0.34986 0.68589 0.38026 0.0
N1239 N 0.39564 0.6399 0.08629 0.0
H1240 H 0.36819 0.5949 0.27587 0.0
H1241 H 0.3892 0.59778 0.18354 0.0
H1242 H 0.40408 0.65092 0.03453 0.0
H1243 H 0.39043 0.62117 0.06697 0.0
H1244 H 0.34858 0.70618 0.3809 0.0
H1245 H 0.3371 0.67682 0.42498 0.0
H1246 H 0.38802 0.71726 0.36205 0.0
H1247 H 0.40821 0.72048 0.26869 0.0
loop_
_geom_bond_atom_site_label_1
_geom_bond_atom_site_label_2
_geom_bond_distance
_geom_bond_site_symmetry_2
_ccdc_geom_bond_type
Co0 N4 2.148 1_556 S
Co0 N10 2.128 . S
Co0 N20 2.194 1_556 S
Co0 O25 2.351 . S
Co0 O26 2.155 . S
Co0 O27 2.096 1_556 S
C1 N4 1.301 . S
C1 N5 1.328 . S
C1 H6 0.930 . S
C2 C3 1.333 . S
C2 N4 1.317 . S
C2 H7 0.930 . S
C3 C2 1.333 . S
C3 N5 1.350 . S
C3 H29 0.931 . S
N4 Co0 2.148 1_554 S
N4 C1 1.301 . S
N4 C2 1.317 . S
N5 C1 1.328 . S
N5 C3 1.350 . S
H6 C1 0.930 . S
H7 C2 0.930 . S
C8 O9 1.224 . S
C8 O27 1.247 . S
O9 C8 1.224 . S
N10 Co0 2.128 . S
N10 C11 1.355 . S
N10 C13 1.311 . S
C11 N10 1.355 . S
C11 C12 1.363 . S
C11 H23 0.929 . S
C12 C11 1.363 . S
C12 N14 1.375 . S
C12 H30 0.931 . S
C13 N10 1.311 . S
C13 N14 1.347 . S
C13 H24 0.929 . S
N14 C12 1.375 . S
N14 C13 1.347 . S
C15 C18 1.365 . S
C15 N20 1.328 1_556 S
C15 H21 0.929 . S
C16 C17 1.362 . S
C16 C19 1.378 . S
C16 H31 0.929 . S
C17 C16 1.362 . S
C17 C18 1.366 1_554 S
C18 C15 1.365 . S
C18 C17 1.366 1_556 S
C18 H32 0.930 . S
C19 C16 1.378 . S
C19 N20 1.315 . S
C19 H22 0.930 . S
N20 Co0 2.194 1_554 S
N20 C15 1.328 1_554 S
N20 C19 1.315 . S
H21 C15 0.929 . S
H22 C19 0.930 . S
H23 C11 0.929 . S
H24 C13 0.929 . S
O25 Co0 2.351 . S
O25 C28 1.244 . S
O26 Co0 2.155 . S
O26 C28 1.240 . S
O27 Co0 2.096 1_554 S
O27 C8 1.247 . S
C28 O25 1.244 . S
C28 O26 1.240 . S
H29 C3 0.931 . S
H30 C12 0.931 . S
H31 C16 0.929 . S
H32 C18 0.930 . S
Co33 N37 2.148 1_556 S
Co33 N43 2.128 . S
Co33 N53 2.194 1_556 S
Co33 O58 2.351 . S
Co33 O59 2.155 . S
Co33 O60 2.096 1_556 S
C34 N37 1.301 . S
C34 N38 1.328 . S
C34 H39 0.930 . S
C35 C36 1.333 . S
C35 N37 1.317 . S
C35 H40 0.930 . S
C36 C35 1.333 . S
C36 N38 1.350 . S
C36 H62 0.931 . S
N37 Co33 2.148 1_554 S
N37 C34 1.301 . S
N37 C35 1.317 . S
N38 C34 1.328 . S
N38 C36 1.350 . S
H39 C34 0.930 . S
H40 C35 0.930 . S
C41 O42 1.224 . S
C41 O60 1.247 . S
O42 C41 1.224 . S
N43 Co33 2.128 . S
N43 C44 1.355 . S
N43 C46 1.311 . S
C44 N43 1.355 . S
C44 C45 1.363 . S
C44 H56 0.929 . S
C45 C44 1.363 . S
C45 N47 1.375 . S
C45 H63 0.931 . S
C46 N43 1.311 . S
C46 N47 1.347 . S
C46 H57 0.929 . S
N47 C45 1.375 . S
N47 C46 1.347 . S
C48 C51 1.365 . S
C48 N53 1.328 1_556 S
C48 H54 0.929 . S
C49 C50 1.362 . S
C49 C52 1.378 . S
C49 H64 0.929 . S
C50 C49 1.362 . S
C50 C51 1.366 1_554 S
C51 C48 1.365 . S
C51 C50 1.366 1_556 S
C51 H65 0.930 . S
C52 C49 1.378 . S
C52 N53 1.315 . S
C52 H55 0.930 . S
N53 Co33 2.194 1_554 S
N53 C48 1.328 1_554 S
N53 C52 1.315 . S
H54 C48 0.929 . S
H55 C52 0.930 . S
H56 C44 0.929 . S
H57 C46 0.929 . S
O58 Co33 2.351 . S
O58 C61 1.244 . S
O59 Co33 2.155 . S
O59 C61 1.240 . S
O60 Co33 2.096 1_554 S
O60 C41 1.247 . S
C61 O58 1.244 . S
C61 O59 1.240 . S
H62 C36 0.931 . S
H63 C45 0.931 . S
H64 C49 0.929 . S
H65 C51 0.930 . S
Co66 N70 2.148 1_556 S
Co66 N76 2.128 . S
Co66 N86 2.194 1_556 S
Co66 O91 2.351 . S
Co66 O92 2.155 . S
Co66 O93 2.096 1_556 S
C67 N70 1.301 . S
C67 N71 1.328 . S
C67 H72 0.930 . S
C68 C69 1.333 . S
C68 N70 1.317 . S
C68 H73 0.930 . S
C69 C68 1.333 . S
C69 N71 1.350 . S
C69 H95 0.931 . S
N70 Co66 2.148 1_554 S
N70 C67 1.301 . S
N70 C68 1.317 . S
N71 C67 1.328 . S
N71 C69 1.350 . S
H72 C67 0.930 . S
H73 C68 0.930 . S
C74 O75 1.224 . S
C74 O93 1.247 . S
O75 C74 1.224 . S
N76 Co66 2.128 . S
N76 C77 1.355 . S
N76 C79 1.311 . S
C77 N76 1.355 . S
C77 C78 1.363 . S
C77 H89 0.929 . S
C78 C77 1.363 . S
C78 N80 1.375 . S
C78 H96 0.931 . S
C79 N76 1.311 . S
C79 N80 1.347 . S
C79 H90 0.929 . S
N80 C78 1.375 . S
N80 C79 1.347 . S
C81 C84 1.365 . S
C81 N86 1.328 1_556 S
C81 H87 0.929 . S
C82 C83 1.362 . S
C82 C85 1.378 . S
C82 H97 0.929 . S
C83 C82 1.362 . S
C83 C84 1.366 1_554 S
C84 C81 1.365 . S
C84 C83 1.366 1_556 S
C84 H98 0.930 . S
C85 C82 1.378 . S
C85 N86 1.315 . S
C85 H88 0.930 . S
N86 Co66 2.194 1_554 S
N86 C81 1.328 1_554 S
N86 C85 1.315 . S
H87 C81 0.929 . S
H88 C85 0.930 . S
H89 C77 0.929 . S
H90 C79 0.929 . S
O91 Co66 2.351 . S
O91 C94 1.244 . S
O92 Co66 2.155 . S
O92 C94 1.240 . S
O93 Co66 2.096 1_554 S
O93 C74 1.247 . S
C94 O91 1.244 . S
C94 O92 1.240 . S
H95 C69 0.931 . S
H96 C78 0.931 . S
H97 C82 0.929 . S
H98 C84 0.930 . S
Co99 N103 2.148 1_556 S
Co99 N109 2.128 . S
Co99 N119 2.194 1_556 S
Co99 O124 2.351 . S
Co99 O125 2.155 . S
Co99 O126 2.096 1_556 S
C100 N103 1.301 . S
C100 N104 1.328 . S
C100 H105 0.930 . S
C101 C102 1.333 . S
C101 N103 1.317 . S
C101 H106 0.930 . S
C102 C101 1.333 . S
C102 N104 1.350 . S
C102 H128 0.931 . S
N103 Co99 2.148 1_554 S
N103 C100 1.301 . S
N103 C101 1.317 . S
N104 C100 1.328 . S
N104 C102 1.350 . S
H105 C100 0.930 . S
H106 C101 0.930 . S
C107 O108 1.224 . S
C107 O126 1.247 . S
O108 C107 1.224 . S
N109 Co99 2.128 . S
N109 C110 1.355 . S
N109 C112 1.311 . S
C110 N109 1.355 . S
C110 C111 1.363 . S
C110 H122 0.929 . S
C111 C110 1.363 . S
C111 N113 1.375 . S
C111 H129 0.931 . S
C112 N109 1.311 . S
C112 N113 1.347 . S
C112 H123 0.929 . S
N113 C111 1.375 . S
N113 C112 1.347 . S
C114 C117 1.365 . S
C114 N119 1.328 1_556 S
C114 H120 0.929 . S
C115 C116 1.362 . S
C115 C118 1.378 . S
C115 H130 0.929 . S
C116 C115 1.362 . S
C116 C117 1.366 1_554 S
C117 C114 1.365 . S
C117 C116 1.366 1_556 S
C117 H131 0.930 . S
C118 C115 1.378 . S
C118 N119 1.315 . S
C118 H121 0.930 . S
N119 Co99 2.194 1_554 S
N119 C114 1.328 1_554 S
N119 C118 1.315 . S
H120 C114 0.929 . S
H121 C118 0.930 . S
H122 C110 0.929 . S
H123 C112 0.929 . S
O124 Co99 2.351 . S
O124 C127 1.244 . S
O125 Co99 2.155 . S
O125 C127 1.240 . S
O126 Co99 2.096 1_554 S
O126 C107 1.247 . S
C127 O124 1.244 . S
C127 O125 1.240 . S
H128 C102 0.931 . S
H129 C111 0.931 . S
H130 C115 0.929 . S
H131 C117 0.930 . S
Co132 N136 2.148 . S
Co132 N142 2.128 . S
Co132 N152 2.194 . S
Co132 O157 2.351 . S
Co132 O158 2.155 . S
Co132 O159 2.096 . S
C133 N136 1.301 . S
C133 N137 1.328 . S
C133 H138 0.930 . S
C134 C135 1.333 . S
C134 N136 1.317 . S
C134 H139 0.930 . S
C135 C134 1.333 . S
C135 N137 1.350 . S
C135 H161 0.931 . S
N136 Co132 2.148 . S
N136 C133 1.301 . S
N136 C134 1.317 . S
N137 C133 1.328 . S
N137 C135 1.350 . S
H138 C133 0.930 . S
H139 C134 0.930 . S
C140 O141 1.224 . S
C140 O159 1.247 . S
O141 C140 1.224 . S
N142 Co132 2.128 . S
N142 C143 1.355 . S
N142 C145 1.311 . S
C143 N142 1.355 . S
C143 C144 1.363 . S
C143 H155 0.929 . S
C144 C143 1.363 . S
C144 N146 1.375 . S
C144 H162 0.931 . S
C145 N142 1.311 . S
C145 N146 1.347 . S
C145 H156 0.929 . S
N146 C144 1.375 . S
N146 C145 1.347 . S
C147 C150 1.365 . S
C147 N152 1.328 . S
C147 H153 0.929 . S
C148 C149 1.362 . S
C148 C151 1.378 . S
C148 H163 0.929 . S
C149 C148 1.362 . S
C149 C150 1.366 . S
C150 C147 1.365 . S
C150 C149 1.366 . S
C150 H164 0.930 . S
C151 C148 1.378 . S
C151 N152 1.315 . S
C151 H154 0.930 . S
N152 Co132 2.194 . S
N152 C147 1.328 . S
N152 C151 1.315 . S
H153 C147 0.929 . S
H154 C151 0.930 . S
H155 C143 0.929 . S
H156 C145 0.929 . S
O157 Co132 2.351 . S
O157 C160 1.244 . S
O158 Co132 2.155 . S
O158 C160 1.240 . S
O159 Co132 2.096 . S
O159 C140 1.247 . S
C160 O157 1.244 . S
C160 O158 1.240 . S
H161 C135 0.931 . S
H162 C144 0.931 . S
H163 C148 0.929 . S
H164 C150 0.930 . S
Co165 N169 2.148 . S
Co165 N175 2.128 . S
Co165 N185 2.194 . S
Co165 O190 2.351 . S
Co165 O191 2.155 . S
Co165 O192 2.096 . S
C166 N169 1.301 . S
C166 N170 1.328 . S
C166 H171 0.930 . S
C167 C168 1.333 . S
C167 N169 1.317 . S
C167 H172 0.930 . S
C168 C167 1.333 . S
C168 N170 1.350 . S
C168 H194 0.931 . S
N169 Co165 2.148 . S
N169 C166 1.301 . S
N169 C167 1.317 . S
N170 C166 1.328 . S
N170 C168 1.350 . S
H171 C166 0.930 . S
H172 C167 0.930 . S
C173 O174 1.224 . S
C173 O192 1.247 . S
O174 C173 1.224 . S
N175 Co165 2.128 . S
N175 C176 1.355 . S
N175 C178 1.311 . S
C176 N175 1.355 . S
C176 C177 1.363 . S
C176 H188 0.929 . S
C177 C176 1.363 . S
C177 N179 1.375 . S
C177 H195 0.931 . S
C178 N175 1.311 . S
C178 N179 1.347 . S
C178 H189 0.929 . S
N179 C177 1.375 . S
N179 C178 1.347 . S
C180 C183 1.365 . S
C180 N185 1.328 . S
C180 H186 0.929 . S
C181 C182 1.362 . S
C181 C184 1.378 . S
C181 H196 0.929 . S
C182 C181 1.362 . S
C182 C183 1.366 . S
C183 C180 1.365 . S
C183 C182 1.366 . S
C183 H197 0.930 . S
C184 C181 1.378 . S
C184 N185 1.315 . S
C184 H187 0.930 . S
N185 Co165 2.194 . S
N185 C180 1.328 . S
N185 C184 1.315 . S
H186 C180 0.929 . S
H187 C184 0.930 . S
H188 C176 0.929 . S
H189 C178 0.929 . S
O190 Co165 2.351 . S
O190 C193 1.244 . S
O191 Co165 2.155 . S
O191 C193 1.240 . S
O192 Co165 2.096 . S
O192 C173 1.247 . S
C193 O190 1.244 . S
C193 O191 1.240 . S
H194 C168 0.931 . S
H195 C177 0.931 . S
H196 C181 0.929 . S
H197 C183 0.930 . S
Co198 N202 2.148 . S
Co198 N208 2.128 . S
Co198 N218 2.194 . S
Co198 O223 2.351 . S
Co198 O224 2.155 . S
Co198 O225 2.096 . S
C199 N202 1.301 . S
C199 N203 1.328 . S
C199 H204 0.930 . S
C200 C201 1.333 . S
C200 N202 1.317 . S
C200 H205 0.930 . S
C201 C200 1.333 . S
C201 N203 1.350 . S
C201 H227 0.931 . S
N202 Co198 2.148 . S
N202 C199 1.301 . S
N202 C200 1.317 . S
N203 C199 1.328 . S
N203 C201 1.350 . S
H204 C199 0.930 . S
H205 C200 0.930 . S
C206 O207 1.224 . S
C206 O225 1.247 . S
O207 C206 1.224 . S
N208 Co198 2.128 . S
N208 C209 1.355 . S
N208 C211 1.311 . S
C209 N208 1.355 . S
C209 C210 1.363 . S
C209 H221 0.929 . S
C210 C209 1.363 . S
C210 N212 1.375 . S
C210 H228 0.931 . S
C211 N208 1.311 . S
C211 N212 1.347 . S
C211 H222 0.929 . S
N212 C210 1.375 . S
N212 C211 1.347 . S
C213 C216 1.365 . S
C213 N218 1.328 . S
C213 H219 0.929 . S
C214 C215 1.362 . S
C214 C217 1.378 . S
C214 H229 0.929 . S
C215 C214 1.362 . S
C215 C216 1.366 . S
C216 C213 1.365 . S
C216 C215 1.366 . S
C216 H230 0.930 . S
C217 C214 1.378 . S
C217 N218 1.315 . S
C217 H220 0.930 . S
N218 Co198 2.194 . S
N218 C213 1.328 . S
N218 C217 1.315 . S
H219 C213 0.929 . S
H220 C217 0.930 . S
H221 C209 0.929 . S
H222 C211 0.929 . S
O223 Co198 2.351 . S
O223 C226 1.244 . S
O224 Co198 2.155 . S
O224 C226 1.240 . S
O225 Co198 2.096 . S
O225 C206 1.247 . S
C226 O223 1.244 . S
C226 O224 1.240 . S
H227 C201 0.931 . S
H228 C210 0.931 . S
H229 C214 0.929 . S
H230 C216 0.930 . S
Co231 N235 2.148 . S
Co231 N241 2.128 . S
Co231 N251 2.194 . S
Co231 O256 2.351 . S
Co231 O257 2.155 . S
Co231 O258 2.096 . S
C232 N235 1.301 . S
C232 N236 1.328 . S
C232 H237 0.930 . S
C233 C234 1.333 . S
C233 N235 1.317 . S
C233 H238 0.930 . S
C234 C233 1.333 . S
C234 N236 1.350 . S
C234 H260 0.931 . S
N235 Co231 2.148 . S
N235 C232 1.301 . S
N235 C233 1.317 . S
N236 C232 1.328 . S
N236 C234 1.350 . S
H237 C232 0.930 . S
H238 C233 0.930 . S
C239 O240 1.224 . S
C239 O258 1.247 . S
O240 C239 1.224 . S
N241 Co231 2.128 . S
N241 C242 1.355 . S
N241 C244 1.311 . S
C242 N241 1.355 . S
C242 C243 1.363 . S
C242 H254 0.929 . S
C243 C242 1.363 . S
C243 N245 1.375 . S
C243 H261 0.931 . S
C244 N241 1.311 . S
C244 N245 1.347 . S
C244 H255 0.929 . S
N245 C243 1.375 . S
N245 C244 1.347 . S
C246 C249 1.365 . S
C246 N251 1.328 . S
C246 H252 0.929 . S
C247 C248 1.362 . S
C247 C250 1.378 . S
C247 H262 0.929 . S
C248 C247 1.362 . S
C248 C249 1.366 . S
C249 C246 1.365 . S
C249 C248 1.366 . S
C249 H263 0.930 . S
C250 C247 1.378 . S
C250 N251 1.315 . S
C250 H253 0.930 . S
N251 Co231 2.194 . S
N251 C246 1.328 . S
N251 C250 1.315 . S
H252 C246 0.929 . S
H253 C250 0.930 . S
H254 C242 0.929 . S
H255 C244 0.929 . S
O256 Co231 2.351 . S
O256 C259 1.244 . S
O257 Co231 2.155 . S
O257 C259 1.240 . S
O258 Co231 2.096 . S
O258 C239 1.247 . S
C259 O256 1.244 . S
C259 O257 1.240 . S
H260 C234 0.931 . S
H261 C243 0.931 . S
H262 C247 0.929 . S
H263 C249 0.930 . S
Co264 N268 2.148 . S
Co264 N274 2.128 . S
Co264 N284 2.194 . S
Co264 O289 2.351 . S
Co264 O290 2.155 . S
Co264 O291 2.096 . S
C265 N268 1.301 . S
C265 N269 1.328 . S
C265 H270 0.930 . S
C266 C267 1.333 . S
C266 N268 1.317 . S
C266 H271 0.930 . S
C267 C266 1.333 . S
C267 N269 1.350 . S
C267 H293 0.931 . S
N268 Co264 2.148 . S
N268 C265 1.301 . S
N268 C266 1.317 . S
N269 C265 1.328 . S
N269 C267 1.350 . S
H270 C265 0.930 . S
H271 C266 0.930 . S
C272 O273 1.224 . S
C272 O291 1.247 . S
O273 C272 1.224 . S
N274 Co264 2.128 . S
N274 C275 1.355 . S
N274 C277 1.311 . S
C275 N274 1.355 . S
C275 C276 1.363 . S
C275 H287 0.929 . S
C276 C275 1.363 . S
C276 N278 1.375 . S
C276 H294 0.931 . S
C277 N274 1.311 . S
C277 N278 1.347 . S
C277 H288 0.929 . S
N278 C276 1.375 . S
N278 C277 1.347 . S
C279 C282 1.365 . S
C279 N284 1.328 . S
C279 H285 0.929 . S
C280 C281 1.362 . S
C280 C283 1.378 . S
C280 H295 0.929 . S
C281 C280 1.362 . S
C281 C282 1.366 . S
C282 C279 1.365 . S
C282 C281 1.366 . S
C282 H296 0.930 . S
C283 C280 1.378 . S
C283 N284 1.315 . S
C283 H286 0.930 . S
N284 Co264 2.194 . S
N284 C279 1.328 . S
N284 C283 1.315 . S
H285 C279 0.929 . S
H286 C283 0.930 . S
H287 C275 0.929 . S
H288 C277 0.929 . S
O289 Co264 2.351 . S
O289 C292 1.244 . S
O290 Co264 2.155 . S
O290 C292 1.240 . S
O291 Co264 2.096 . S
O291 C272 1.247 . S
C292 O289 1.244 . S
C292 O290 1.240 . S
H293 C267 0.931 . S
H294 C276 0.931 . S
H295 C280 0.929 . S
H296 C282 0.930 . S
Co297 N301 2.148 . S
Co297 N307 2.128 . S
Co297 N317 2.194 . S
Co297 O322 2.351 . S
Co297 O323 2.155 . S
Co297 O324 2.096 . S
C298 N301 1.301 . S
C298 N302 1.328 . S
C298 H303 0.930 . S
C299 C300 1.333 . S
C299 N301 1.317 . S
C299 H304 0.930 . S
C300 C299 1.333 . S
C300 N302 1.350 . S
C300 H326 0.931 . S
N301 Co297 2.148 . S
N301 C298 1.301 . S
N301 C299 1.317 . S
N302 C298 1.328 . S
N302 C300 1.350 . S
H303 C298 0.930 . S
H304 C299 0.930 . S
C305 O306 1.224 . S
C305 O324 1.247 . S
O306 C305 1.224 . S
N307 Co297 2.128 . S
N307 C308 1.355 . S
N307 C310 1.311 . S
C308 N307 1.355 . S
C308 C309 1.363 . S
C308 H320 0.929 . S
C309 C308 1.363 . S
C309 N311 1.375 . S
C309 H327 0.931 . S
C310 N307 1.311 . S
C310 N311 1.347 . S
C310 H321 0.929 . S
N311 C309 1.375 . S
N311 C310 1.347 . S
C312 C315 1.365 . S
C312 N317 1.328 . S
C312 H318 0.929 . S
C313 C314 1.362 . S
C313 C316 1.378 . S
C313 H328 0.929 . S
C314 C313 1.362 . S
C314 C315 1.366 . S
C315 C312 1.365 . S
C315 C314 1.366 . S
C315 H329 0.930 . S
C316 C313 1.378 . S
C316 N317 1.315 . S
C316 H319 0.930 . S
N317 Co297 2.194 . S
N317 C312 1.328 . S
N317 C316 1.315 . S
H318 C312 0.929 . S
H319 C316 0.930 . S
H320 C308 0.929 . S
H321 C310 0.929 . S
O322 Co297 2.351 . S
O322 C325 1.244 . S
O323 Co297 2.155 . S
O323 C325 1.240 . S
O324 Co297 2.096 . S
O324 C305 1.247 . S
C325 O322 1.244 . S
C325 O323 1.240 . S
H326 C300 0.931 . S
H327 C309 0.931 . S
H328 C313 0.929 . S
H329 C315 0.930 . S
Co330 N334 2.148 . S
Co330 N340 2.128 . S
Co330 N350 2.194 . S
Co330 O355 2.351 . S
Co330 O356 2.155 . S
Co330 O357 2.096 . S
C331 N334 1.301 . S
C331 N335 1.328 . S
C331 H336 0.930 . S
C332 C333 1.333 . S
C332 N334 1.317 . S
C332 H337 0.930 . S
C333 C332 1.333 . S
C333 N335 1.350 . S
C333 H359 0.931 . S
N334 Co330 2.148 . S
N334 C331 1.301 . S
N334 C332 1.317 . S
N335 C331 1.328 . S
N335 C333 1.350 . S
H336 C331 0.930 . S
H337 C332 0.930 . S
C338 O339 1.224 . S
C338 O357 1.247 . S
O339 C338 1.224 . S
N340 Co330 2.128 . S
N340 C341 1.355 . S
N340 C343 1.311 . S
C341 N340 1.355 . S
C341 C342 1.363 . S
C341 H353 0.929 . S
C342 C341 1.363 . S
C342 N344 1.375 . S
C342 H360 0.931 . S
C343 N340 1.311 . S
C343 N344 1.347 . S
C343 H354 0.929 . S
N344 C342 1.375 . S
N344 C343 1.347 . S
C345 C348 1.365 . S
C345 N350 1.328 . S
C345 H351 0.929 . S
C346 C347 1.362 . S
C346 C349 1.378 . S
C346 H361 0.929 . S
C347 C346 1.362 . S
C347 C348 1.366 . S
C348 C345 1.365 . S
C348 C347 1.366 . S
C348 H362 0.930 . S
C349 C346 1.378 . S
C349 N350 1.315 . S
C349 H352 0.930 . S
N350 Co330 2.194 . S
N350 C345 1.328 . S
N350 C349 1.315 . S
H351 C345 0.929 . S
H352 C349 0.930 . S
H353 C341 0.929 . S
H354 C343 0.929 . S
O355 Co330 2.351 . S
O355 C358 1.244 . S
O356 Co330 2.155 . S
O356 C358 1.240 . S
O357 Co330 2.096 . S
O357 C338 1.247 . S
C358 O355 1.244 . S
C358 O356 1.240 . S
H359 C333 0.931 . S
H360 C342 0.931 . S
H361 C346 0.929 . S
H362 C348 0.930 . S
Co363 N367 2.148 . S
Co363 N373 2.128 . S
Co363 N383 2.194 . S
Co363 O388 2.351 . S
Co363 O389 2.155 . S
Co363 O390 2.096 . S
C364 N367 1.301 . S
C364 N368 1.328 . S
C364 H369 0.930 . S
C365 C366 1.333 . S
C365 N367 1.317 . S
C365 H370 0.930 . S
C366 C365 1.333 . S
C366 N368 1.350 . S
C366 H392 0.931 . S
N367 Co363 2.148 . S
N367 C364 1.301 . S
N367 C365 1.317 . S
N368 C364 1.328 . S
N368 C366 1.350 . S
H369 C364 0.930 . S
H370 C365 0.930 . S
C371 O372 1.224 . S
C371 O390 1.247 . S
O372 C371 1.224 . S
N373 Co363 2.128 . S
N373 C374 1.355 . S
N373 C376 1.311 . S
C374 N373 1.355 . S
C374 C375 1.363 . S
C374 H386 0.929 . S
C375 C374 1.363 . S
C375 N377 1.375 . S
C375 H393 0.931 . S
C376 N373 1.311 . S
C376 N377 1.347 . S
C376 H387 0.929 . S
N377 C375 1.375 . S
N377 C376 1.347 . S
C378 C381 1.365 . S
C378 N383 1.328 . S
C378 H384 0.929 . S
C379 C380 1.362 . S
C379 C382 1.378 . S
C379 H394 0.929 . S
C380 C379 1.362 . S
C380 C381 1.366 . S
C381 C378 1.365 . S
C381 C380 1.366 . S
C381 H395 0.930 . S
C382 C379 1.378 . S
C382 N383 1.315 . S
C382 H385 0.930 . S
N383 Co363 2.194 . S
N383 C378 1.328 . S
N383 C382 1.315 . S
H384 C378 0.929 . S
H385 C382 0.930 . S
H386 C374 0.929 . S
H387 C376 0.929 . S
O388 Co363 2.351 . S
O388 C391 1.244 . S
O389 Co363 2.155 . S
O389 C391 1.240 . S
O390 Co363 2.096 . S
O390 C371 1.247 . S
C391 O388 1.244 . S
C391 O389 1.240 . S
H392 C366 0.931 . S
H393 C375 0.931 . S
H394 C379 0.929 . S
H395 C381 0.930 . S
Co396 N400 2.148 1_554 S
Co396 N406 2.128 . S
Co396 N416 2.194 1_554 S
Co396 O421 2.351 . S
Co396 O422 2.155 . S
Co396 O423 2.096 1_554 S
C397 N400 1.301 . S
C397 N401 1.328 . S
C397 H402 0.930 . S
C398 C399 1.333 . S
C398 N400 1.317 . S
C398 H403 0.930 . S
C399 C398 1.333 . S
C399 N401 1.350 . S
C399 H425 0.931 . S
N400 Co396 2.148 1_556 S
N400 C397 1.301 . S
N400 C398 1.317 . S
N401 C397 1.328 . S
N401 C399 1.350 . S
H402 C397 0.930 . S
H403 C398 0.930 . S
C404 O405 1.224 . S
C404 O423 1.247 . S
O405 C404 1.224 . S
N406 Co396 2.128 . S
N406 C407 1.355 . S
N406 C409 1.311 . S
C407 N406 1.355 . S
C407 C408 1.363 . S
C407 H419 0.929 . S
C408 C407 1.363 . S
C408 N410 1.375 . S
C408 H426 0.931 . S
C409 N406 1.311 . S
C409 N410 1.347 . S
C409 H420 0.929 . S
N410 C408 1.375 . S
N410 C409 1.347 . S
C411 C414 1.365 . S
C411 N416 1.328 1_554 S
C411 H417 0.929 . S
C412 C413 1.362 . S
C412 C415 1.378 . S
C412 H427 0.929 . S
C413 C412 1.362 . S
C413 C414 1.366 1_556 S
C414 C411 1.365 . S
C414 C413 1.366 1_554 S
C414 H428 0.930 . S
C415 C412 1.378 . S
C415 N416 1.315 . S
C415 H418 0.930 . S
N416 Co396 2.194 1_556 S
N416 C411 1.328 1_556 S
N416 C415 1.315 . S
H417 C411 0.929 . S
H418 C415 0.930 . S
H419 C407 0.929 . S
H420 C409 0.929 . S
O421 Co396 2.351 . S
O421 C424 1.244 . S
O422 Co396 2.155 . S
O422 C424 1.240 . S
O423 Co396 2.096 1_556 S
O423 C404 1.247 . S
C424 O421 1.244 . S
C424 O422 1.240 . S
H425 C399 0.931 . S
H426 C408 0.931 . S
H427 C412 0.929 . S
H428 C414 0.930 . S
Co429 N433 2.148 1_554 S
Co429 N439 2.128 . S
Co429 N449 2.194 1_554 S
Co429 O454 2.351 . S
Co429 O455 2.155 . S
Co429 O456 2.096 1_554 S
C430 N433 1.301 . S
C430 N434 1.328 . S
C430 H435 0.930 . S
C431 C432 1.333 . S
C431 N433 1.317 . S
C431 H436 0.930 . S
C432 C431 1.333 . S
C432 N434 1.350 . S
C432 H458 0.931 . S
N433 Co429 2.148 1_556 S
N433 C430 1.301 . S
N433 C431 1.317 . S
N434 C430 1.328 . S
N434 C432 1.350 . S
H435 C430 0.930 . S
H436 C431 0.930 . S
C437 O438 1.224 . S
C437 O456 1.247 . S
O438 C437 1.224 . S
N439 Co429 2.128 . S
N439 C440 1.355 . S
N439 C442 1.311 . S
C440 N439 1.355 . S
C440 C441 1.363 . S
C440 H452 0.929 . S
C441 C440 1.363 . S
C441 N443 1.375 . S
C441 H459 0.931 . S
C442 N439 1.311 . S
C442 N443 1.347 . S
C442 H453 0.929 . S
N443 C441 1.375 . S
N443 C442 1.347 . S
C444 C447 1.365 . S
C444 N449 1.328 1_554 S
C444 H450 0.929 . S
C445 C446 1.362 . S
C445 C448 1.378 . S
C445 H460 0.929 . S
C446 C445 1.362 . S
C446 C447 1.366 1_556 S
C447 C444 1.365 . S
C447 C446 1.366 1_554 S
C447 H461 0.930 . S
C448 C445 1.378 . S
C448 N449 1.315 . S
C448 H451 0.930 . S
N449 Co429 2.194 1_556 S
N449 C444 1.328 1_556 S
N449 C448 1.315 . S
H450 C444 0.929 . S
H451 C448 0.930 . S
H452 C440 0.929 . S
H453 C442 0.929 . S
O454 Co429 2.351 . S
O454 C457 1.244 . S
O455 Co429 2.155 . S
O455 C457 1.240 . S
O456 Co429 2.096 1_556 S
O456 C437 1.247 . S
C457 O454 1.244 . S
C457 O455 1.240 . S
H458 C432 0.931 . S
H459 C441 0.931 . S
H460 C445 0.929 . S
H461 C447 0.930 . S
Co462 N466 2.148 1_554 S
Co462 N472 2.128 . S
Co462 N482 2.194 1_554 S
Co462 O487 2.351 . S
Co462 O488 2.155 . S
Co462 O489 2.096 1_554 S
C463 N466 1.301 . S
C463 N467 1.328 . S
C463 H468 0.930 . S
C464 C465 1.333 . S
C464 N466 1.317 . S
C464 H469 0.930 . S
C465 C464 1.333 . S
C465 N467 1.350 . S
C465 H491 0.931 . S
N466 Co462 2.148 1_556 S
N466 C463 1.301 . S
N466 C464 1.317 . S
N467 C463 1.328 . S
N467 C465 1.350 . S
H468 C463 0.930 . S
H469 C464 0.930 . S
C470 O471 1.224 . S
C470 O489 1.247 . S
O471 C470 1.224 . S
N472 Co462 2.128 . S
N472 C473 1.355 . S
N472 C475 1.311 . S
C473 N472 1.355 . S
C473 C474 1.363 . S
C473 H485 0.929 . S
C474 C473 1.363 . S
C474 N476 1.375 . S
C474 H492 0.931 . S
C475 N472 1.311 . S
C475 N476 1.347 . S
C475 H486 0.929 . S
N476 C474 1.375 . S
N476 C475 1.347 . S
C477 C480 1.365 . S
C477 N482 1.328 1_554 S
C477 H483 0.929 . S
C478 C479 1.362 . S
C478 C481 1.378 . S
C478 H493 0.929 . S
C479 C478 1.362 . S
C479 C480 1.366 1_556 S
C480 C477 1.365 . S
C480 C479 1.366 1_554 S
C480 H494 0.930 . S
C481 C478 1.378 . S
C481 N482 1.315 . S
C481 H484 0.930 . S
N482 Co462 2.194 1_556 S
N482 C477 1.328 1_556 S
N482 C481 1.315 . S
H483 C477 0.929 . S
H484 C481 0.930 . S
H485 C473 0.929 . S
H486 C475 0.929 . S
O487 Co462 2.351 . S
O487 C490 1.244 . S
O488 Co462 2.155 . S
O488 C490 1.240 . S
O489 Co462 2.096 1_556 S
O489 C470 1.247 . S
C490 O487 1.244 . S
C490 O488 1.240 . S
H491 C465 0.931 . S
H492 C474 0.931 . S
H493 C478 0.929 . S
H494 C480 0.930 . S
Co495 N499 2.148 1_554 S
Co495 N505 2.128 . S
Co495 N515 2.194 1_554 S
Co495 O520 2.351 . S
Co495 O521 2.155 . S
Co495 O522 2.096 1_554 S
C496 N499 1.301 . S
C496 N500 1.328 . S
C496 H501 0.930 . S
C497 C498 1.333 . S
C497 N499 1.317 . S
C497 H502 0.930 . S
C498 C497 1.333 . S
C498 N500 1.350 . S
C498 H524 0.931 . S
N499 Co495 2.148 1_556 S
N499 C496 1.301 . S
N499 C497 1.317 . S
N500 C496 1.328 . S
N500 C498 1.350 . S
H501 C496 0.930 . S
H502 C497 0.930 . S
C503 O504 1.224 . S
C503 O522 1.247 . S
O504 C503 1.224 . S
N505 Co495 2.128 . S
N505 C506 1.355 . S
N505 C508 1.311 . S
C506 N505 1.355 . S
C506 C507 1.363 . S
C506 H518 0.929 . S
C507 C506 1.363 . S
C507 N509 1.375 . S
C507 H525 0.931 . S
C508 N505 1.311 . S
C508 N509 1.347 . S
C508 H519 0.929 . S
N509 C507 1.375 . S
N509 C508 1.347 . S
C510 C513 1.365 . S
C510 N515 1.328 1_554 S
C510 H516 0.929 . S
C511 C512 1.362 . S
C511 C514 1.378 . S
C511 H526 0.929 . S
C512 C511 1.362 . S
C512 C513 1.366 1_556 S
C513 C510 1.365 . S
C513 C512 1.366 1_554 S
C513 H527 0.930 . S
C514 C511 1.378 . S
C514 N515 1.315 . S
C514 H517 0.930 . S
N515 Co495 2.194 1_556 S
N515 C510 1.328 1_556 S
N515 C514 1.315 . S
H516 C510 0.929 . S
H517 C514 0.930 . S
H518 C506 0.929 . S
H519 C508 0.929 . S
O520 Co495 2.351 . S
O520 C523 1.244 . S
O521 Co495 2.155 . S
O521 C523 1.240 . S
O522 Co495 2.096 1_556 S
O522 C503 1.247 . S
C523 O520 1.244 . S
C523 O521 1.240 . S
H524 C498 0.931 . S
H525 C507 0.931 . S
H526 C511 0.929 . S
H527 C513 0.930 . S
C528 C529 1.363 1_556 S
C528 C534 1.379 . S
C528 N536 1.356 . S
C529 C528 1.363 1_554 S
C529 C535 1.363 . S
C530 C531 1.363 1_554 S
C530 C535 1.379 . S
C530 N537 1.356 . S
C531 C530 1.363 1_556 S
C531 C534 1.363 . S
N532 C534 1.356 . S
N532 H544 0.984 . S
N532 H545 0.985 . S
N533 C535 1.356 . S
N533 H538 0.984 . S
N533 H539 0.985 . S
C534 C528 1.379 . S
C534 C531 1.363 . S
C534 N532 1.356 . S
C535 C529 1.363 . S
C535 C530 1.379 . S
C535 N533 1.356 . S
N536 C528 1.356 . S
N536 H542 0.984 . S
N536 H543 0.984 . S
N537 C530 1.356 . S
N537 H540 0.984 . S
N537 H541 0.985 . S
H538 N533 0.984 . S
H539 N533 0.985 . S
H540 N537 0.984 . S
H541 N537 0.985 . S
H542 N536 0.984 . S
H543 N536 0.984 . S
H544 N532 0.984 . S
H545 N532 0.985 . S
C546 C547 1.363 1_554 S
C546 C552 1.379 . S
C546 N554 1.356 . S
C547 C546 1.363 1_556 S
C547 C553 1.363 . S
C548 C549 1.363 1_556 S
C548 C553 1.379 . S
C548 N555 1.356 . S
C549 C548 1.363 1_554 S
C549 C552 1.363 . S
N550 C552 1.356 . S
N550 H562 0.984 . S
N550 H563 0.985 . S
N551 C553 1.356 . S
N551 H556 0.984 . S
N551 H557 0.985 . S
C552 C546 1.379 . S
C552 C549 1.363 . S
C552 N550 1.356 . S
C553 C547 1.363 . S
C553 C548 1.379 . S
C553 N551 1.356 . S
N554 C546 1.356 . S
N554 H560 0.984 . S
N554 H561 0.984 . S
N555 C548 1.356 . S
N555 H558 0.984 . S
N555 H559 0.985 . S
H556 N551 0.984 . S
H557 N551 0.985 . S
H558 N555 0.984 . S
H559 N555 0.985 . S
H560 N554 0.984 . S
H561 N554 0.984 . S
H562 N550 0.984 . S
H563 N550 0.985 . S
C564 C565 1.363 . S
C564 C570 1.379 . S
C564 N572 1.356 . S
C565 C564 1.363 . S
C565 C571 1.363 1_556 S
C566 C567 1.363 . S
C566 C571 1.379 . S
C566 N573 1.356 . S
C567 C566 1.363 . S
C567 C570 1.363 1_554 S
N568 C570 1.356 . S
N568 H580 0.984 . S
N568 H581 0.985 . S
N569 C571 1.356 . S
N569 H574 0.984 . S
N569 H575 0.985 . S
C570 C564 1.379 . S
C570 C567 1.363 1_556 S
C570 N568 1.356 . S
C571 C565 1.363 1_554 S
C571 C566 1.379 . S
C571 N569 1.356 . S
N572 C564 1.356 . S
N572 H578 0.984 . S
N572 H579 0.984 . S
N573 C566 1.356 . S
N573 H576 0.984 . S
N573 H577 0.985 . S
H574 N569 0.984 . S
H575 N569 0.985 . S
H576 N573 0.984 . S
H577 N573 0.985 . S
H578 N572 0.984 . S
H579 N572 0.984 . S
H580 N568 0.984 . S
H581 N568 0.985 . S
C582 C583 1.363 . S
C582 C588 1.379 . S
C582 N590 1.356 . S
C583 C582 1.363 . S
C583 C589 1.363 1_556 S
C584 C585 1.363 . S
C584 C589 1.379 . S
C584 N591 1.356 . S
C585 C584 1.363 . S
C585 C588 1.363 1_554 S
N586 C588 1.356 . S
N586 H598 0.984 . S
N586 H599 0.985 . S
N587 C589 1.356 . S
N587 H592 0.984 . S
N587 H593 0.985 . S
C588 C582 1.379 . S
C588 C585 1.363 1_556 S
C588 N586 1.356 . S
C589 C583 1.363 1_554 S
C589 C584 1.379 . S
C589 N587 1.356 . S
N590 C582 1.356 . S
N590 H596 0.984 . S
N590 H597 0.984 . S
N591 C584 1.356 . S
N591 H594 0.984 . S
N591 H595 0.985 . S
H592 N587 0.984 . S
H593 N587 0.985 . S
H594 N591 0.984 . S
H595 N591 0.985 . S
H596 N590 0.984 . S
H597 N590 0.984 . S
H598 N586 0.984 . S
H599 N586 0.985 . S
C600 C601 1.363 . S
C600 C606 1.379 . S
C600 N608 1.356 . S
C601 C600 1.363 . S
C601 C607 1.363 . S
C602 C603 1.363 . S
C602 C607 1.379 . S
C602 N609 1.356 . S
C603 C602 1.363 . S
C603 C606 1.363 . S
N604 C606 1.356 . S
N604 H616 0.984 . S
N604 H617 0.985 . S
N605 C607 1.356 . S
N605 H610 0.984 . S
N605 H611 0.985 . S
C606 C600 1.379 . S
C606 C603 1.363 . S
C606 N604 1.356 . S
C607 C601 1.363 . S
C607 C602 1.379 . S
C607 N605 1.356 . S
N608 C600 1.356 . S
N608 H614 0.984 . S
N608 H615 0.984 . S
N609 C602 1.356 . S
N609 H612 0.984 . S
N609 H613 0.985 . S
H610 N605 0.984 . S
H611 N605 0.985 . S
H612 N609 0.984 . S
H613 N609 0.985 . S
H614 N608 0.984 . S
H615 N608 0.984 . S
H616 N604 0.984 . S
H617 N604 0.985 . S
C618 C619 1.363 . S
C618 C624 1.379 . S
C618 N626 1.356 . S
C619 C618 1.363 . S
C619 C625 1.363 . S
C620 C621 1.363 . S
C620 C625 1.379 . S
C620 N627 1.356 . S
C621 C620 1.363 . S
C621 C624 1.363 . S
N622 C624 1.356 . S
N622 H634 0.984 . S
N622 H635 0.985 . S
N623 C625 1.356 . S
N623 H628 0.984 . S
N623 H629 0.985 . S
C624 C618 1.379 . S
C624 C621 1.363 . S
C624 N622 1.356 . S
C625 C619 1.363 . S
C625 C620 1.379 . S
C625 N623 1.356 . S
N626 C618 1.356 . S
N626 H632 0.984 . S
N626 H633 0.984 . S
N627 C620 1.356 . S
N627 H630 0.984 . S
N627 H631 0.985 . S
H628 N623 0.984 . S
H629 N623 0.985 . S
H630 N627 0.984 . S
H631 N627 0.985 . S
H632 N626 0.984 . S
H633 N626 0.984 . S
H634 N622 0.984 . S
H635 N622 0.985 . S
C636 C637 1.363 . S
C636 C642 1.379 . S
C636 N644 1.356 . S
C637 C636 1.363 . S
C637 C643 1.363 . S
C638 C639 1.363 . S
C638 C643 1.379 . S
C638 N645 1.356 . S
C639 C638 1.363 . S
C639 C642 1.363 . S
N640 C642 1.356 . S
N640 H652 0.984 . S
N640 H653 0.985 . S
N641 C643 1.356 . S
N641 H646 0.984 . S
N641 H647 0.985 . S
C642 C636 1.379 . S
C642 C639 1.363 . S
C642 N640 1.356 . S
C643 C637 1.363 . S
C643 C638 1.379 . S
C643 N641 1.356 . S
N644 C636 1.356 . S
N644 H650 0.984 . S
N644 H651 0.984 . S
N645 C638 1.356 . S
N645 H648 0.984 . S
N645 H649 0.985 . S
H646 N641 0.984 . S
H647 N641 0.985 . S
H648 N645 0.984 . S
H649 N645 0.985 . S
H650 N644 0.984 . S
H651 N644 0.984 . S
H652 N640 0.984 . S
H653 N640 0.985 . S
C654 C655 1.363 . S
C654 C660 1.379 . S
C654 N662 1.356 . S
C655 C654 1.363 . S
C655 C661 1.363 . S
C656 C657 1.363 . S
C656 C661 1.379 . S
C656 N663 1.356 . S
C657 C656 1.363 . S
C657 C660 1.363 . S
N658 C660 1.356 . S
N658 H670 0.984 . S
N658 H671 0.985 . S
N659 C661 1.356 . S
N659 H664 0.984 . S
N659 H665 0.985 . S
C660 C654 1.379 . S
C660 C657 1.363 . S
C660 N658 1.356 . S
C661 C655 1.363 . S
C661 C656 1.379 . S
C661 N659 1.356 . S
N662 C654 1.356 . S
N662 H668 0.984 . S
N662 H669 0.984 . S
N663 C656 1.356 . S
N663 H666 0.984 . S
N663 H667 0.985 . S
H664 N659 0.984 . S
H665 N659 0.985 . S
H666 N663 0.984 . S
H667 N663 0.985 . S
H668 N662 0.984 . S
H669 N662 0.984 . S
H670 N658 0.984 . S
H671 N658 0.985 . S
C672 C673 1.338 1_455 S
C672 C678 1.402 . S
C672 N680 1.350 1_455 S
C673 C672 1.338 1_655 S
C673 C679 1.363 . S
C674 C675 1.338 1_655 S
C674 C679 1.402 . S
C674 N681 1.350 1_655 S
C675 C674 1.338 1_455 S
C675 C678 1.363 . S
N676 C678 1.356 . S
N676 H688 0.984 . S
N676 H689 0.985 . S
N677 C679 1.356 . S
N677 H682 0.984 . S
N677 H683 0.985 . S
C678 C672 1.402 . S
C678 C675 1.363 . S
C678 N676 1.356 . S
C679 C673 1.363 . S
C679 C674 1.402 . S
C679 N677 1.356 . S
N680 C672 1.350 1_655 S
N680 H686 0.984 1_655 S
N680 H687 0.984 . S
N681 C674 1.350 1_455 S
N681 H684 0.984 . S
N681 H685 0.985 1_455 S
H682 N677 0.984 . S
H683 N677 0.985 . S
H684 N681 0.984 . S
H685 N681 0.985 1_655 S
H686 N680 0.984 1_455 S
H687 N680 0.984 . S
H688 N676 0.984 . S
H689 N676 0.985 . S
C690 C691 1.363 1_545 S
C690 C696 1.379 . S
C690 N698 1.356 . S
C691 C690 1.363 1_565 S
C691 C697 1.363 . S
C692 C693 1.363 1_565 S
C692 C697 1.379 . S
C692 N699 1.356 . S
C693 C692 1.363 1_545 S
C693 C696 1.363 . S
N694 C696 1.356 . S
N694 H706 0.984 . S
N694 H707 0.985 . S
N695 C697 1.356 . S
N695 H700 0.984 . S
N695 H701 0.985 . S
C696 C690 1.379 . S
C696 C693 1.363 . S
C696 N694 1.356 . S
C697 C691 1.363 . S
C697 C692 1.379 . S
C697 N695 1.356 . S
N698 C690 1.356 . S
N698 H704 0.984 . S
N698 H705 0.984 1_545 S
N699 C692 1.356 . S
N699 H702 0.984 1_565 S
N699 H703 0.985 . S
H700 N695 0.984 . S
H701 N695 0.985 . S
H702 N699 0.984 1_545 S
H703 N699 0.985 . S
H704 N698 0.984 . S
H705 N698 0.984 1_565 S
H706 N694 0.984 . S
H707 N694 0.985 . S
C708 C709 1.363 . S
C708 C714 1.402 . S
C708 N716 1.356 . S
C709 C708 1.363 . S
C709 C715 1.338 1_455 S
C710 C711 1.363 . S
C710 C715 1.402 . S
C710 N717 1.356 . S
C711 C710 1.363 . S
C711 C714 1.338 1_655 S
N712 C714 1.350 1_655 S
N712 H724 0.984 1_655 S
N712 H725 0.985 . S
N713 C715 1.350 1_455 S
N713 H718 0.984 . S
N713 H719 0.985 1_455 S
C714 C708 1.402 . S
C714 C711 1.338 1_455 S
C714 N712 1.350 1_455 S
C715 C709 1.338 1_655 S
C715 C710 1.402 . S
C715 N713 1.350 1_655 S
N716 C708 1.356 . S
N716 H722 0.984 . S
N716 H723 0.984 . S
N717 C710 1.356 . S
N717 H720 0.984 . S
N717 H721 0.985 . S
H718 N713 0.984 . S
H719 N713 0.985 1_655 S
H720 N717 0.984 . S
H721 N717 0.985 . S
H722 N716 0.984 . S
H723 N716 0.984 . S
H724 N712 0.984 1_455 S
H725 N712 0.985 . S
C726 C727 1.363 1_565 S
C726 C732 1.379 . S
C726 N734 1.356 . S
C727 C726 1.363 1_545 S
C727 C733 1.363 . S
C728 C729 1.363 1_545 S
C728 C733 1.379 . S
C728 N735 1.356 . S
C729 C728 1.363 1_565 S
C729 C732 1.363 . S
N730 C732 1.356 . S
N730 H742 0.984 . S
N730 H743 0.985 . S
N731 C733 1.356 . S
N731 H736 0.984 . S
N731 H737 0.985 . S
C732 C726 1.379 . S
C732 C729 1.363 . S
C732 N730 1.356 . S
C733 C727 1.363 . S
C733 C728 1.379 . S
C733 N731 1.356 . S
N734 C726 1.356 . S
N734 H740 0.984 . S
N734 H741 0.984 1_565 S
N735 C728 1.356 . S
N735 H738 0.984 1_545 S
N735 H739 0.985 . S
H736 N731 0.984 . S
H737 N731 0.985 . S
H738 N735 0.984 1_565 S
H739 N735 0.985 . S
H740 N734 0.984 . S
H741 N734 0.984 1_545 S
H742 N730 0.984 . S
H743 N730 0.985 . S
C744 C745 1.363 . S
C744 C750 1.379 1_455 S
C744 N752 1.356 . S
C745 C744 1.363 . S
C745 C751 1.363 . S
C746 C747 1.363 . S
C746 C751 1.379 1_655 S
C746 N753 1.356 . S
C747 C746 1.363 . S
C747 C750 1.363 . S
N748 C750 1.356 . S
N748 H760 0.984 . S
N748 H761 0.985 . S
N749 C751 1.356 . S
N749 H754 0.984 . S
N749 H755 0.985 . S
C750 C744 1.379 1_655 S
C750 C747 1.363 . S
C750 N748 1.356 . S
C751 C745 1.363 . S
C751 C746 1.379 1_455 S
C751 N749 1.356 . S
N752 C744 1.356 . S
N752 H758 0.984 . S
N752 H759 0.984 . S
N753 C746 1.356 . S
N753 H756 0.984 . S
N753 H757 0.985 . S
H754 N749 0.984 . S
H755 N749 0.985 . S
H756 N753 0.984 . S
H757 N753 0.985 . S
H758 N752 0.984 . S
H759 N752 0.984 . S
H760 N748 0.984 . S
H761 N748 0.985 . S
C762 C763 1.392 . S
C762 C768 1.350 1_565 S
C762 N770 1.367 . S
C763 C762 1.392 . S
C763 C769 1.363 . S
C764 C765 1.392 . S
C764 C769 1.350 1_545 S
C764 N771 1.367 . S
C765 C764 1.392 . S
C765 C768 1.363 . S
N766 C768 1.356 . S
N766 H778 0.984 . S
N766 H779 0.985 . S
N767 C769 1.356 . S
N767 H772 0.984 . S
N767 H773 0.985 . S
C768 C762 1.350 1_545 S
C768 C765 1.363 . S
C768 N766 1.356 . S
C769 C763 1.363 . S
C769 C764 1.350 1_565 S
C769 N767 1.356 . S
N770 C762 1.367 . S
N770 H776 0.984 1_565 S
N770 H777 0.984 . S
N771 C764 1.367 . S
N771 H774 0.984 . S
N771 H775 0.985 1_545 S
H772 N767 0.984 . S
H773 N767 0.985 . S
H774 N771 0.984 . S
H775 N771 0.985 1_565 S
H776 N770 0.984 1_545 S
H777 N770 0.984 . S
H778 N766 0.984 . S
H779 N766 0.985 . S
C780 C781 1.363 . S
C780 C786 1.379 1_655 S
C780 N788 1.356 . S
C781 C780 1.363 . S
C781 C787 1.363 . S
C782 C783 1.363 . S
C782 C787 1.379 1_455 S
C782 N789 1.356 . S
C783 C782 1.363 . S
C783 C786 1.363 . S
N784 C786 1.356 . S
N784 H796 0.984 . S
N784 H797 0.985 . S
N785 C787 1.356 . S
N785 H790 0.984 . S
N785 H791 0.985 . S
C786 C780 1.379 1_455 S
C786 C783 1.363 . S
C786 N784 1.356 . S
C787 C781 1.363 . S
C787 C782 1.379 1_655 S
C787 N785 1.356 . S
N788 C780 1.356 . S
N788 H794 0.984 . S
N788 H795 0.984 . S
N789 C782 1.356 . S
N789 H792 0.984 . S
N789 H793 0.985 . S
H790 N785 0.984 . S
H791 N785 0.985 . S
H792 N789 0.984 . S
H793 N789 0.985 . S
H794 N788 0.984 . S
H795 N788 0.984 . S
H796 N784 0.984 . S
H797 N784 0.985 . S
C798 C799 1.363 . S
C798 C804 1.379 1_545 S
C798 N806 1.356 . S
C799 C798 1.363 . S
C799 C805 1.363 . S
C800 C801 1.363 . S
C800 C805 1.379 1_565 S
C800 N807 1.356 . S
C801 C800 1.363 . S
C801 C804 1.363 . S
N802 C804 1.356 . S
N802 H814 0.984 . S
N802 H815 0.985 . S
N803 C805 1.356 . S
N803 H808 0.984 . S
N803 H809 0.985 . S
C804 C798 1.379 1_565 S
C804 C801 1.363 . S
C804 N802 1.356 . S
C805 C799 1.363 . S
C805 C800 1.379 1_545 S
C805 N803 1.356 . S
N806 C798 1.356 . S
N806 H812 0.965 1_545 S
N806 H813 0.984 . S
N807 C800 1.356 . S
N807 H810 0.984 . S
N807 H811 0.965 1_565 S
H808 N803 0.984 . S
H809 N803 0.985 . S
H810 N807 0.984 . S
H811 N807 0.965 1_545 S
H812 N806 0.965 1_565 S
H813 N806 0.984 . S
H814 N802 0.984 . S
H815 N802 0.985 . S
C816 C817 1.363 . S
C816 C822 1.379 . S
C816 N824 1.356 . S
C817 C816 1.363 . S
C817 C823 1.363 . S
C818 C819 1.363 . S
C818 C823 1.379 . S
C818 N825 1.356 . S
C819 C818 1.363 . S
C819 C822 1.363 . S
N820 C822 1.356 . S
N820 H832 0.984 . S
N820 H833 0.985 . S
N821 C823 1.356 . S
N821 H826 0.984 . S
N821 H827 0.985 . S
C822 C816 1.379 . S
C822 C819 1.363 . S
C822 N820 1.356 . S
C823 C817 1.363 . S
C823 C818 1.379 . S
C823 N821 1.356 . S
N824 C816 1.356 . S
N824 H830 0.984 . S
N824 H831 0.984 . S
N825 C818 1.356 . S
N825 H828 0.984 . S
N825 H829 0.985 . S
H826 N821 0.984 . S
H827 N821 0.985 . S
H828 N825 0.984 . S
H829 N825 0.985 . S
H830 N824 0.984 . S
H831 N824 0.984 . S
H832 N820 0.984 . S
H833 N820 0.985 . S
C834 C835 1.363 . S
C834 C840 1.379 . S
C834 N842 1.356 . S
C835 C834 1.363 . S
C835 C841 1.363 . S
C836 C837 1.363 . S
C836 C841 1.379 . S
C836 N843 1.356 . S
C837 C836 1.363 . S
C837 C840 1.363 . S
N838 C840 1.356 . S
N838 H850 0.984 . S
N838 H851 0.985 . S
N839 C841 1.356 . S
N839 H844 0.984 . S
N839 H845 0.985 . S
C840 C834 1.379 . S
C840 C837 1.363 . S
C840 N838 1.356 . S
C841 C835 1.363 . S
C841 C836 1.379 . S
C841 N839 1.356 . S
N842 C834 1.356 . S
N842 H848 0.984 . S
N842 H849 0.984 . S
N843 C836 1.356 . S
N843 H846 0.984 . S
N843 H847 0.985 . S
H844 N839 0.984 . S
H845 N839 0.985 . S
H846 N843 0.984 . S
H847 N843 0.985 . S
H848 N842 0.984 . S
H849 N842 0.984 . S
H850 N838 0.984 . S
H851 N838 0.985 . S
C852 C853 1.363 . S
C852 C858 1.379 . S
C852 N860 1.356 . S
C853 C852 1.363 . S
C853 C859 1.363 . S
C854 C855 1.363 . S
C854 C859 1.379 . S
C854 N861 1.356 . S
C855 C854 1.363 . S
C855 C858 1.363 . S
N856 C858 1.356 . S
N856 H868 0.984 . S
N856 H869 0.985 . S
N857 C859 1.356 . S
N857 H862 0.984 . S
N857 H863 0.985 . S
C858 C852 1.379 . S
C858 C855 1.363 . S
C858 N856 1.356 . S
C859 C853 1.363 . S
C859 C854 1.379 . S
C859 N857 1.356 . S
N860 C852 1.356 . S
N860 H866 0.984 . S
N860 H867 0.984 . S
N861 C854 1.356 . S
N861 H864 0.984 . S
N861 H865 0.985 . S
H862 N857 0.984 . S
H863 N857 0.985 . S
H864 N861 0.984 . S
H865 N861 0.985 . S
H866 N860 0.984 . S
H867 N860 0.984 . S
H868 N856 0.984 . S
H869 N856 0.985 . S
C870 C871 1.363 . S
C870 C876 1.379 . S
C870 N878 1.356 . S
C871 C870 1.363 . S
C871 C877 1.363 . S
C872 C873 1.363 . S
C872 C877 1.379 . S
C872 N879 1.356 . S
C873 C872 1.363 . S
C873 C876 1.363 . S
N874 C876 1.356 . S
N874 H886 0.984 . S
N874 H887 0.985 . S
N875 C877 1.356 . S
N875 H880 0.984 . S
N875 H881 0.985 . S
C876 C870 1.379 . S
C876 C873 1.363 . S
C876 N874 1.356 . S
C877 C871 1.363 . S
C877 C872 1.379 . S
C877 N875 1.356 . S
N878 C870 1.356 . S
N878 H884 0.984 . S
N878 H885 0.984 . S
N879 C872 1.356 . S
N879 H882 0.984 . S
N879 H883 0.985 . S
H880 N875 0.984 . S
H881 N875 0.985 . S
H882 N879 0.984 . S
H883 N879 0.985 . S
H884 N878 0.984 . S
H885 N878 0.984 . S
H886 N874 0.984 . S
H887 N874 0.985 . S
C888 C889 1.363 . S
C888 C894 1.379 . S
C888 N896 1.356 . S
C889 C888 1.363 . S
C889 C895 1.363 . S
C890 C891 1.363 . S
C890 C895 1.379 . S
C890 N897 1.356 . S
C891 C890 1.363 . S
C891 C894 1.363 . S
N892 C894 1.356 . S
N892 H904 0.984 . S
N892 H905 0.985 . S
N893 C895 1.356 . S
N893 H898 0.984 . S
N893 H899 0.985 . S
C894 C888 1.379 . S
C894 C891 1.363 . S
C894 N892 1.356 . S
C895 C889 1.363 . S
C895 C890 1.379 . S
C895 N893 1.356 . S
N896 C888 1.356 . S
N896 H902 0.984 . S
N896 H903 0.984 . S
N897 C890 1.356 . S
N897 H900 0.984 . S
N897 H901 0.985 . S
H898 N893 0.984 . S
H899 N893 0.985 . S
H900 N897 0.984 . S
H901 N897 0.985 . S
H902 N896 0.984 . S
H903 N896 0.984 . S
H904 N892 0.984 . S
H905 N892 0.985 . S
C906 C907 1.363 . S
C906 C912 1.379 . S
C906 N914 1.356 . S
C907 C906 1.363 . S
C907 C913 1.363 . S
C908 C909 1.363 . S
C908 C913 1.379 . S
C908 N915 1.356 . S
C909 C908 1.363 . S
C909 C912 1.363 . S
N910 C912 1.356 . S
N910 H922 0.984 . S
N910 H923 0.985 . S
N911 C913 1.356 . S
N911 H916 0.984 . S
N911 H917 0.985 . S
C912 C906 1.379 . S
C912 C909 1.363 . S
C912 N910 1.356 . S
C913 C907 1.363 . S
C913 C908 1.379 . S
C913 N911 1.356 . S
N914 C906 1.356 . S
N914 H920 0.984 . S
N914 H921 0.984 . S
N915 C908 1.356 . S
N915 H918 0.984 . S
N915 H919 0.985 . S
H916 N911 0.984 . S
H917 N911 0.985 . S
H918 N915 0.984 . S
H919 N915 0.985 . S
H920 N914 0.984 . S
H921 N914 0.984 . S
H922 N910 0.984 . S
H923 N910 0.985 . S
C924 C925 1.363 . S
C924 C930 1.379 . S
C924 N932 1.356 . S
C925 C924 1.363 . S
C925 C931 1.363 . S
C926 C927 1.363 . S
C926 C931 1.379 . S
C926 N933 1.356 . S
C927 C926 1.363 . S
C927 C930 1.363 . S
N928 C930 1.356 . S
N928 H940 0.984 . S
N928 H941 0.985 . S
N929 C931 1.356 . S
N929 H934 0.984 . S
N929 H935 0.985 . S
C930 C924 1.379 . S
C930 C927 1.363 . S
C930 N928 1.356 . S
C931 C925 1.363 . S
C931 C926 1.379 . S
C931 N929 1.356 . S
N932 C924 1.356 . S
N932 H938 0.984 . S
N932 H939 0.984 . S
N933 C926 1.356 . S
N933 H936 0.984 . S
N933 H937 0.985 . S
H934 N929 0.984 . S
H935 N929 0.985 . S
H936 N933 0.984 . S
H937 N933 0.985 . S
H938 N932 0.984 . S
H939 N932 0.984 . S
H940 N928 0.984 . S
H941 N928 0.985 . S
C942 C943 1.363 . S
C942 C948 1.379 . S
C942 N950 1.356 . S
C943 C942 1.363 . S
C943 C949 1.363 . S
C944 C945 1.363 . S
C944 C949 1.379 . S
C944 N951 1.356 . S
C945 C944 1.363 . S
C945 C948 1.363 . S
N946 C948 1.356 . S
N946 H958 0.984 . S
N946 H959 0.985 . S
N947 C949 1.356 . S
N947 H952 0.984 . S
N947 H953 0.985 . S
C948 C942 1.379 . S
C948 C945 1.363 . S
C948 N946 1.356 . S
C949 C943 1.363 . S
C949 C944 1.379 . S
C949 N947 1.356 . S
N950 C942 1.356 . S
N950 H956 0.984 . S
N950 H957 0.984 . S
N951 C944 1.356 . S
N951 H954 0.984 . S
N951 H955 0.985 . S
H952 N947 0.984 . S
H953 N947 0.985 . S
H954 N951 0.984 . S
H955 N951 0.985 . S
H956 N950 0.984 . S
H957 N950 0.984 . S
H958 N946 0.984 . S
H959 N946 0.985 . S
C960 C961 1.363 . S
C960 C966 1.379 . S
C960 N968 1.356 . S
C961 C960 1.363 . S
C961 C967 1.363 . S
C962 C963 1.363 . S
C962 C967 1.379 . S
C962 N969 1.356 . S
C963 C962 1.363 . S
C963 C966 1.363 . S
N964 C966 1.356 . S
N964 H976 0.984 . S
N964 H977 0.985 . S
N965 C967 1.356 . S
N965 H970 0.984 . S
N965 H971 0.985 . S
C966 C960 1.379 . S
C966 C963 1.363 . S
C966 N964 1.356 . S
C967 C961 1.363 . S
C967 C962 1.379 . S
C967 N965 1.356 . S
N968 C960 1.356 . S
N968 H974 0.984 . S
N968 H975 0.984 . S
N969 C962 1.356 . S
N969 H972 0.984 . S
N969 H973 0.985 . S
H970 N965 0.984 . S
H971 N965 0.985 . S
H972 N969 0.984 . S
H973 N969 0.985 . S
H974 N968 0.984 . S
H975 N968 0.984 . S
H976 N964 0.984 . S
H977 N964 0.985 . S
C978 C979 1.363 . S
C978 C984 1.379 . S
C978 N986 1.356 . S
C979 C978 1.363 . S
C979 C985 1.363 . S
C980 C981 1.363 . S
C980 C985 1.379 . S
C980 N987 1.356 . S
C981 C980 1.363 . S
C981 C984 1.363 . S
N982 C984 1.356 . S
N982 H994 0.984 . S
N982 H995 0.985 . S
N983 C985 1.356 . S
N983 H988 0.984 . S
N983 H989 0.985 . S
C984 C978 1.379 . S
C984 C981 1.363 . S
C984 N982 1.356 . S
C985 C979 1.363 . S
C985 C980 1.379 . S
C985 N983 1.356 . S
N986 C978 1.356 . S
N986 H992 0.984 . S
N986 H993 0.984 . S
N987 C980 1.356 . S
N987 H990 0.984 . S
N987 H991 0.985 . S
H988 N983 0.984 . S
H989 N983 0.985 . S
H990 N987 0.984 . S
H991 N987 0.985 . S
H992 N986 0.984 . S
H993 N986 0.984 . S
H994 N982 0.984 . S
H995 N982 0.985 . S
C996 C997 1.363 . S
C996 C1002 1.379 . S
C996 N1004 1.356 . S
C997 C996 1.363 . S
C997 C1003 1.363 . S
C998 C999 1.363 . S
C998 C1003 1.379 . S
C998 N1005 1.356 . S
C999 C998 1.363 . S
C999 C1002 1.363 . S
N1000 C1002 1.356 . S
N1000 H1012 0.984 . S
N1000 H1013 0.985 . S
N1001 C1003 1.356 . S
N1001 H1006 0.984 . S
N1001 H1007 0.985 . S
C1002 C996 1.379 . S
C1002 C999 1.363 . S
C1002 N1000 1.356 . S
C1003 C997 1.363 . S
C1003 C998 1.379 . S
C1003 N1001 1.356 . S
N1004 C996 1.356 . S
N1004 H1010 0.984 . S
N1004 H1011 0.984 . S
N1005 C998 1.356 . S
N1005 H1008 0.984 . S
N1005 H1009 0.985 . S
H1006 N1001 0.984 . S
H1007 N1001 0.985 . S
H1008 N1005 0.984 . S
H1009 N1005 0.985 . S
H1010 N1004 0.984 . S
H1011 N1004 0.984 . S
H1012 N1000 0.984 . S
H1013 N1000 0.985 . S
C1014 C1015 1.363 . S
C1014 C1020 1.379 . S
C1014 N1022 1.356 . S
C1015 C1014 1.363 . S
C1015 C1021 1.363 . S
C1016 C1017 1.363 . S
C1016 C1021 1.379 . S
C1016 N1023 1.356 . S
C1017 C1016 1.363 . S
C1017 C1020 1.363 . S
N1018 C1020 1.356 . S
N1018 H1030 0.984 . S
N1018 H1031 0.985 . S
N1019 C1021 1.356 . S
N1019 H1024 0.984 . S
N1019 H1025 0.985 . S
C1020 C1014 1.379 . S
C1020 C1017 1.363 . S
C1020 N1018 1.356 . S
C1021 C1015 1.363 . S
C1021 C1016 1.379 . S
C1021 N1019 1.356 . S
N1022 C1014 1.356 . S
N1022 H1028 0.984 . S
N1022 H1029 0.984 . S
N1023 C1016 1.356 . S
N1023 H1026 0.984 . S
N1023 H1027 0.985 . S
H1024 N1019 0.984 . S
H1025 N1019 0.985 . S
H1026 N1023 0.984 . S
H1027 N1023 0.985 . S
H1028 N1022 0.984 . S
H1029 N1022 0.984 . S
H1030 N1018 0.984 . S
H1031 N1018 0.985 . S
C1032 C1033 1.363 . S
C1032 C1038 1.379 . S
C1032 N1040 1.356 . S
C1033 C1032 1.363 . S
C1033 C1039 1.363 . S
C1034 C1035 1.363 . S
C1034 C1039 1.379 . S
C1034 N1041 1.356 . S
C1035 C1034 1.363 . S
C1035 C1038 1.363 . S
N1036 C1038 1.356 . S
N1036 H1048 0.984 . S
N1036 H1049 0.985 . S
N1037 C1039 1.356 . S
N1037 H1042 0.984 . S
N1037 H1043 0.985 . S
C1038 C1032 1.379 . S
C1038 C1035 1.363 . S
C1038 N1036 1.356 . S
C1039 C1033 1.363 . S
C1039 C1034 1.379 . S
C1039 N1037 1.356 . S
N1040 C1032 1.356 . S
N1040 H1046 0.984 . S
N1040 H1047 0.984 . S
N1041 C1034 1.356 . S
N1041 H1044 0.984 . S
N1041 H1045 0.985 . S
H1042 N1037 0.984 . S
H1043 N1037 0.985 . S
H1044 N1041 0.984 . S
H1045 N1041 0.985 . S
H1046 N1040 0.984 . S
H1047 N1040 0.984 . S
H1048 N1036 0.984 . S
H1049 N1036 0.985 . S
C1050 C1051 1.363 . S
C1050 C1056 1.379 . S
C1050 N1058 1.356 . S
C1051 C1050 1.363 . S
C1051 C1057 1.363 . S
C1052 C1053 1.363 . S
C1052 C1057 1.379 . S
C1052 N1059 1.356 . S
C1053 C1052 1.363 . S
C1053 C1056 1.363 . S
N1054 C1056 1.356 . S
N1054 H1066 0.984 . S
N1054 H1067 0.985 . S
N1055 C1057 1.356 . S
N1055 H1060 0.984 . S
N1055 H1061 0.985 . S
C1056 C1050 1.379 . S
C1056 C1053 1.363 . S
C1056 N1054 1.356 . S
C1057 C1051 1.363 . S
C1057 C1052 1.379 . S
C1057 N1055 1.356 . S
N1058 C1050 1.356 . S
N1058 H1064 0.984 . S
N1058 H1065 0.984 . S
N1059 C1052 1.356 . S
N1059 H1062 0.984 . S
N1059 H1063 0.985 . S
H1060 N1055 0.984 . S
H1061 N1055 0.985 . S
H1062 N1059 0.984 . S
H1063 N1059 0.985 . S
H1064 N1058 0.984 . S
H1065 N1058 0.984 . S
H1066 N1054 0.984 . S
H1067 N1054 0.985 . S
C1068 C1069 1.363 . S
C1068 C1074 1.379 . S
C1068 N1076 1.356 . S
C1069 C1068 1.363 . S
C1069 C1075 1.363 . S
C1070 C1071 1.363 . S
C1070 C1075 1.379 . S
C1070 N1077 1.356 . S
C1071 C1070 1.363 . S
C1071 C1074 1.363 . S
N1072 C1074 1.356 . S
N1072 H1084 0.984 . S
N1072 H1085 0.985 . S
N1073 C1075 1.356 . S
N1073 H1078 0.984 . S
N1073 H1079 0.985 . S
C1074 C1068 1.379 . S
C1074 C1071 1.363 . S
C1074 N1072 1.356 . S
C1075 C1069 1.363 . S
C1075 C1070 1.379 . S
C1075 N1073 1.356 . S
N1076 C1068 1.356 . S
N1076 H1082 0.984 . S
N1076 H1083 0.984 . S
N1077 C1070 1.356 . S
N1077 H1080 0.984 . S
N1077 H1081 0.985 . S
H1078 N1073 0.984 . S
H1079 N1073 0.985 . S
H1080 N1077 0.984 . S
H1081 N1077 0.985 . S
H1082 N1076 0.984 . S
H1083 N1076 0.984 . S
H1084 N1072 0.984 . S
H1085 N1072 0.985 . S
C1086 C1087 1.363 . S
C1086 C1092 1.379 . S
C1086 N1094 1.356 . S
C1087 C1086 1.363 . S
C1087 C1093 1.363 . S
C1088 C1089 1.363 . S
C1088 C1093 1.379 . S
C1088 N1095 1.356 . S
C1089 C1088 1.363 . S
C1089 C1092 1.363 . S
N1090 C1092 1.356 . S
N1090 H1102 0.984 . S
N1090 H1103 0.985 . S
N1091 C1093 1.356 . S
N1091 H1096 0.984 . S
N1091 H1097 0.985 . S
C1092 C1086 1.379 . S
C1092 C1089 1.363 . S
C1092 N1090 1.356 . S
C1093 C1087 1.363 . S
C1093 C1088 1.379 . S
C1093 N1091 1.356 . S
N1094 C1086 1.356 . S
N1094 H1100 0.984 . S
N1094 H1101 0.984 . S
N1095 C1088 1.356 . S
N1095 H1098 0.984 . S
N1095 H1099 0.985 . S
H1096 N1091 0.984 . S
H1097 N1091 0.985 . S
H1098 N1095 0.984 . S
H1099 N1095 0.985 . S
H1100 N1094 0.984 . S
H1101 N1094 0.984 . S
H1102 N1090 0.984 . S
H1103 N1090 0.985 . S
C1104 C1105 1.363 . S
C1104 C1110 1.379 . S
C1104 N1112 1.356 . S
C1105 C1104 1.363 . S
C1105 C1111 1.363 . S
C1106 C1107 1.363 . S
C1106 C1111 1.379 . S
C1106 N1113 1.356 . S
C1107 C1106 1.363 . S
C1107 C1110 1.363 . S
N1108 C1110 1.356 . S
N1108 H1120 0.984 . S
N1108 H1121 0.985 . S
N1109 C1111 1.356 . S
N1109 H1114 0.984 . S
N1109 H1115 0.985 . S
C1110 C1104 1.379 . S
C1110 C1107 1.363 . S
C1110 N1108 1.356 . S
C1111 C1105 1.363 . S
C1111 C1106 1.379 . S
C1111 N1109 1.356 . S
N1112 C1104 1.356 . S
N1112 H1118 0.984 . S
N1112 H1119 0.984 . S
N1113 C1106 1.356 . S
N1113 H1116 0.984 . S
N1113 H1117 0.985 . S
H1114 N1109 0.984 . S
H1115 N1109 0.985 . S
H1116 N1113 0.984 . S
H1117 N1113 0.985 . S
H1118 N1112 0.984 . S
H1119 N1112 0.984 . S
H1120 N1108 0.984 . S
H1121 N1108 0.985 . S
C1122 C1123 1.363 . S
C1122 C1128 1.379 . S
C1122 N1130 1.356 . S
C1123 C1122 1.363 . S
C1123 C1129 1.363 . S
C1124 C1125 1.363 . S
C1124 C1129 1.379 . S
C1124 N1131 1.356 . S
C1125 C1124 1.363 . S
C1125 C1128 1.363 . S
N1126 C1128 1.356 . S
N1126 H1138 0.984 . S
N1126 H1139 0.985 . S
N1127 C1129 1.356 . S
N1127 H1132 0.984 . S
N1127 H1133 0.985 . S
C1128 C1122 1.379 . S
C1128 C1125 1.363 . S
C1128 N1126 1.356 . S
C1129 C1123 1.363 . S
C1129 C1124 1.379 . S
C1129 N1127 1.356 . S
N1130 C1122 1.356 . S
N1130 H1136 0.984 . S
N1130 H1137 0.984 . S
N1131 C1124 1.356 . S
N1131 H1134 0.984 . S
N1131 H1135 0.985 . S
H1132 N1127 0.984 . S
H1133 N1127 0.985 . S
H1134 N1131 0.984 . S
H1135 N1131 0.985 . S
H1136 N1130 0.984 . S
H1137 N1130 0.984 . S
H1138 N1126 0.984 . S
H1139 N1126 0.985 . S
C1140 C1141 1.363 . S
C1140 C1146 1.379 . S
C1140 N1148 1.356 . S
C1141 C1140 1.363 . S
C1141 C1147 1.363 . S
C1142 C1143 1.363 . S
C1142 C1147 1.379 . S
C1142 N1149 1.356 . S
C1143 C1142 1.363 . S
C1143 C1146 1.363 . S
N1144 C1146 1.356 . S
N1144 H1156 0.984 . S
N1144 H1157 0.985 . S
N1145 C1147 1.356 . S
N1145 H1150 0.984 . S
N1145 H1151 0.985 . S
C1146 C1140 1.379 . S
C1146 C1143 1.363 . S
C1146 N1144 1.356 . S
C1147 C1141 1.363 . S
C1147 C1142 1.379 . S
C1147 N1145 1.356 . S
N1148 C1140 1.356 . S
N1148 H1154 0.984 . S
N1148 H1155 0.984 . S
N1149 C1142 1.356 . S
N1149 H1152 0.984 . S
N1149 H1153 0.985 . S
H1150 N1145 0.984 . S
H1151 N1145 0.985 . S
H1152 N1149 0.984 . S
H1153 N1149 0.985 . S
H1154 N1148 0.984 . S
H1155 N1148 0.984 . S
H1156 N1144 0.984 . S
H1157 N1144 0.985 . S
C1158 C1159 1.363 . S
C1158 C1164 1.379 . S
C1158 N1166 1.356 . S
C1159 C1158 1.363 . S
C1159 C1165 1.363 . S
C1160 C1161 1.363 . S
C1160 C1165 1.379 . S
C1160 N1167 1.356 . S
C1161 C1160 1.363 . S
C1161 C1164 1.363 . S
N1162 C1164 1.356 . S
N1162 H1174 0.984 . S
N1162 H1175 0.985 . S
N1163 C1165 1.356 . S
N1163 H1168 0.984 . S
N1163 H1169 0.985 . S
C1164 C1158 1.379 . S
C1164 C1161 1.363 . S
C1164 N1162 1.356 . S
C1165 C1159 1.363 . S
C1165 C1160 1.379 . S
C1165 N1163 1.356 . S
N1166 C1158 1.356 . S
N1166 H1172 0.984 . S
N1166 H1173 0.984 . S
N1167 C1160 1.356 . S
N1167 H1170 0.984 . S
N1167 H1171 0.985 . S
H1168 N1163 0.984 . S
H1169 N1163 0.985 . S
H1170 N1167 0.984 . S
H1171 N1167 0.985 . S
H1172 N1166 0.984 . S
H1173 N1166 0.984 . S
H1174 N1162 0.984 . S
H1175 N1162 0.985 . S
C1176 C1177 1.363 . S
C1176 C1182 1.379 . S
C1176 N1184 1.356 . S
C1177 C1176 1.363 . S
C1177 C1183 1.363 . S
C1178 C1179 1.363 . S
C1178 C1183 1.379 . S
C1178 N1185 1.356 . S
C1179 C1178 1.363 . S
C1179 C1182 1.363 . S
N1180 C1182 1.356 . S
N1180 H1192 0.984 . S
N1180 H1193 0.985 . S
N1181 C1183 1.356 . S
N1181 H1186 0.984 . S
N1181 H1187 0.985 . S
C1182 C1176 1.379 . S
C1182 C1179 1.363 . S
C1182 N1180 1.356 . S
C1183 C1177 1.363 . S
C1183 C1178 1.379 . S
C1183 N1181 1.356 . S
N1184 C1176 1.356 . S
N1184 H1190 0.984 . S
N1184 H1191 0.984 . S
N1185 C1178 1.356 . S
N1185 H1188 0.984 . S
N1185 H1189 0.985 . S
H1186 N1181 0.984 . S
H1187 N1181 0.985 . S
H1188 N1185 0.984 . S
H1189 N1185 0.985 . S
H1190 N1184 0.984 . S
H1191 N1184 0.984 . S
H1192 N1180 0.984 . S
H1193 N1180 0.985 . S
C1194 C1195 1.363 . S
C1194 C1200 1.379 . S
C1194 N1202 1.356 . S
C1195 C1194 1.363 . S
C1195 C1201 1.363 . S
C1196 C1197 1.363 . S
C1196 C1201 1.379 . S
C1196 N1203 1.356 . S
C1197 C1196 1.363 . S
C1197 C1200 1.363 . S
N1198 C1200 1.356 . S
N1198 H1210 0.984 . S
N1198 H1211 0.985 . S
N1199 C1201 1.356 . S
N1199 H1204 0.984 . S
N1199 H1205 0.985 . S
C1200 C1194 1.379 . S
C1200 C1197 1.363 . S
C1200 N1198 1.356 . S
C1201 C1195 1.363 . S
C1201 C1196 1.379 . S
C1201 N1199 1.356 . S
N1202 C1194 1.356 . S
N1202 H1208 0.984 . S
N1202 H1209 0.984 . S
N1203 C1196 1.356 . S
N1203 H1206 0.984 . S
N1203 H1207 0.985 . S
H1204 N1199 0.984 . S
H1205 N1199 0.985 . S
H1206 N1203 0.984 . S
H1207 N1203 0.985 . S
H1208 N1202 0.984 . S
H1209 N1202 0.984 . S
H1210 N1198 0.984 . S
H1211 N1198 0.985 . S
C1212 C1213 1.363 . S
C1212 C1218 1.379 . S
C1212 N1220 1.356 . S
C1213 C1212 1.363 . S
C1213 C1219 1.363 . S
C1214 C1215 1.363 . S
C1214 C1219 1.379 . S
C1214 N1221 1.356 . S
C1215 C1214 1.363 . S
C1215 C1218 1.363 . S
N1216 C1218 1.356 . S
N1216 H1228 0.984 . S
N1216 H1229 0.985 . S
N1217 C1219 1.356 . S
N1217 H1222 0.984 . S
N1217 H1223 0.985 . S
C1218 C1212 1.379 . S
C1218 C1215 1.363 . S
C1218 N1216 1.356 . S
C1219 C1213 1.363 . S
C1219 C1214 1.379 . S
C1219 N1217 1.356 . S
N1220 C1212 1.356 . S
N1220 H1226 0.984 . S
N1220 H1227 0.984 . S
N1221 C1214 1.356 . S
N1221 H1224 0.984 . S
N1221 H1225 0.985 . S
H1222 N1217 0.984 . S
H1223 N1217 0.985 . S
H1224 N1221 0.984 . S
H1225 N1221 0.985 . S
H1226 N1220 0.984 . S
H1227 N1220 0.984 . S
H1228 N1216 0.984 . S
H1229 N1216 0.985 . S
C1230 C1231 1.363 . S
C1230 C1236 1.379 . S
C1230 N1238 1.356 . S
C1231 C1230 1.363 . S
C1231 C1237 1.363 . S
C1232 C1233 1.363 . S
C1232 C1237 1.379 . S
C1232 N1239 1.356 . S
C1233 C1232 1.363 . S
C1233 C1236 1.363 . S
N1234 C1236 1.356 . S
N1234 H1246 0.984 . S
N1234 H1247 0.985 . S
N1235 C1237 1.356 . S
N1235 H1240 0.984 . S
N1235 H1241 0.985 . S
C1236 C1230 1.379 . S
C1236 C1233 1.363 . S
C1236 N1234 1.356 . S
C1237 C1231 1.363 . S
C1237 C1232 1.379 . S
C1237 N1235 1.356 . S
N1238 C1230 1.356 . S
N1238 H1244 0.984 . S
N1238 H1245 0.984 . S
N1239 C1232 1.356 . S
N1239 H1242 0.984 . S
N1239 H1243 0.985 . S
H1240 N1235 0.984 . S
H1241 N1235 0.985 . S
H1242 N1239 0.984 . S
H1243 N1239 0.985 . S
H1244 N1238 0.984 . S
H1245 N1238 0.984 . S
H1246 N1234 0.984 . S
H1247 N1234 0.985 . S
C529 C17 1.323 . S
C531 C512 1.323 . S
C547 C413 1.323 . S
C549 C50 1.323 . S
C565 C446 1.323 . S
C567 C83 1.323 . S
C583 C479 1.323 . S
C585 C116 1.323 . S
C601 C149 1.323 . S
C603 C314 1.323 . S
C619 C347 1.323 . S
C621 C182 1.323 . S
C637 C380 1.323 . S
C639 C215 1.323 . S
C655 C248 1.323 . S
C657 C281 1.323 . S
C673 C206 2.018 . S
C675 C8 2.018 . S
C691 C239 2.018 . S
C693 C41 2.018 . S
C709 C140 2.018 . S
C711 C74 2.018 . S
C727 C173 2.018 . S
C729 C107 2.018 . S
C745 N146 0.866 . S
C747 N80 0.866 . S
C763 N113 0.866 . S
C765 N179 0.866 . S
C781 N212 0.866 . S
C783 N14 0.866 . S
C799 N47 0.866 . S
C801 N245 0.866 . S
C817 C272 2.018 . S
C819 C470 2.018 . S
C835 C503 2.018 . S
C837 C305 2.018 . S
C853 C404 2.018 . S
C855 C338 2.018 . S
C871 C437 2.018 . S
C873 C371 2.018 . S
C889 N410 0.866 . S
C891 N344 0.866 . S
C907 N443 0.866 . S
C909 N377 0.866 . S
C925 N278 0.866 . S
C927 N476 0.866 . S
C943 N311 0.866 . S
C945 N509 0.866 . S
C961 N170 0.881 . S
C963 N5 0.881 . S
C979 N38 0.881 . S
C981 N203 0.881 . S
C997 N236 0.881 . S
C999 N71 0.881 . S
C1015 N104 0.881 . S
C1017 N137 0.881 . S
C1033 C94 2.307 . S
C1035 C259 2.307 . S
C1051 C160 2.307 . S
C1053 C127 2.307 . S
C1069 C193 2.307 . S
C1071 C28 2.307 . S
C1087 C61 2.307 . S
C1089 C226 2.307 . S
C1105 N434 0.881 . S
C1107 N269 0.881 . S
C1123 N302 0.881 . S
C1125 N467 0.881 . S
C1141 N500 0.881 . S
C1143 N335 0.881 . S
C1159 N368 0.881 . S
C1161 N401 0.881 . S
C1177 C523 2.307 . S
C1179 C358 2.307 . S
C1195 C391 2.307 . S
C1197 C424 2.307 . S
C1213 C457 2.307 . S
C1215 C292 2.307 . S
C1231 C325 2.307 . S
C1233 C490 2.307 . S
