# Generated by pormake.
# Topology wiu, (6)-cn, num edge types: 1
# Building blocks:
#     Node 0, Type 0, BuildingBlock: BETDEL_clean_sbu_0, # of connection points: 6
#     Node 1, Type 0, BuildingBlock: BETDEL_clean_sbu_0, # of connection points: 6
#     Node 2, Type 0, BuildingBlock: BETDEL_clean_sbu_0, # of connection points: 6
#     Node 3, Type 0, BuildingBlock: BETDEL_clean_sbu_0, # of connection points: 6
#     Node 4, Type 0, BuildingBlock: BETDEL_clean_sbu_0, # of connection points: 6
#     Node 5, Type 0, BuildingBlock: BETDEL_clean_sbu_0, # of connection points: 6
#     Node 6, Type 0, BuildingBlock: BETDEL_clean_sbu_0, # of connection points: 6
#     Node 7, Type 0, BuildingBlock: BETDEL_clean_sbu_0, # of connection points: 6
#     Node 8, Type 0, BuildingBlock: BETDEL_clean_sbu_0, # of connection points: 6
#     Node 9, Type 0, BuildingBlock: BETDEL_clean_sbu_0, # of connection points: 6
#     Node 10, Type 0, BuildingBlock: BETDEL_clean_sbu_0, # of connection points: 6
#     Node 11, Type 0, BuildingBlock: BETDEL_clean_sbu_0, # of connection points: 6
#     Node 12, Type 0, BuildingBlock: BETDEL_clean_sbu_0, # of connection points: 6
#     Node 13, Type 0, BuildingBlock: BETDEL_clean_sbu_0, # of connection points: 6
#     Node 14, Type 0, BuildingBlock: BETDEL_clean_sbu_0, # of connection points: 6
#     Node 15, Type 0, BuildingBlock: BETDEL_clean_sbu_0, # of connection points: 6
#     Edge 16, Type (0, 0), BuildingBlock: XUDNAN_clean_linker_2, # of connection points: 2
#     Edge 17, Type (0, 0), BuildingBlock: XUDNAN_clean_linker_2, # of connection points: 2
#     Edge 18, Type (0, 0), BuildingBlock: XUDNAN_clean_linker_2, # of connection points: 2
#     Edge 19, Type (0, 0), BuildingBlock: XUDNAN_clean_linker_2, # of connection points: 2
#     Edge 20, Type (0, 0), BuildingBlock: XUDNAN_clean_linker_2, # of connection points: 2
#     Edge 21, Type (0, 0), BuildingBlock: XUDNAN_clean_linker_2, # of connection points: 2
#     Edge 22, Type (0, 0), BuildingBlock: XUDNAN_clean_linker_2, # of connection points: 2
#     Edge 23, Type (0, 0), BuildingBlock: XUDNAN_clean_linker_2, # of connection points: 2
#     Edge 24, Type (0, 0), BuildingBlock: XUDNAN_clean_linker_2, # of connection points: 2
#     Edge 25, Type (0, 0), BuildingBlock: XUDNAN_clean_linker_2, # of connection points: 2
#     Edge 26, Type (0, 0), BuildingBlock: XUDNAN_clean_linker_2, # of connection points: 2
#     Edge 27, Type (0, 0), BuildingBlock: XUDNAN_clean_linker_2, # of connection points: 2
#     Edge 28, Type (0, 0), BuildingBlock: XUDNAN_clean_linker_2, # of connection points: 2
#     Edge 29, Type (0, 0), BuildingBlock: XUDNAN_clean_linker_2, # of connection points: 2
#     Edge 30, Type (0, 0), BuildingBlock: XUDNAN_clean_linker_2, # of connection points: 2
#     Edge 31, Type (0, 0), BuildingBlock: XUDNAN_clean_linker_2, # of connection points: 2
#     Edge 32, Type (0, 0), BuildingBlock: XUDNAN_clean_linker_2, # of connection points: 2
#     Edge 33, Type (0, 0), BuildingBlock: XUDNAN_clean_linker_2, # of connection points: 2
#     Edge 34, Type (0, 0), BuildingBlock: XUDNAN_clean_linker_2, # of connection points: 2
#     Edge 35, Type (0, 0), BuildingBlock: XUDNAN_clean_linker_2, # of connection points: 2
#     Edge 36, Type (0, 0), BuildingBlock: XUDNAN_clean_linker_2, # of connection points: 2
#     Edge 37, Type (0, 0), BuildingBlock: XUDNAN_clean_linker_2, # of connection points: 2
#     Edge 38, Type (0, 0), BuildingBlock: XUDNAN_clean_linker_2, # of connection points: 2
#     Edge 39, Type (0, 0), BuildingBlock: XUDNAN_clean_linker_2, # of connection points: 2
#     Edge 40, Type (0, 0), BuildingBlock: XUDNAN_clean_linker_2, # of connection points: 2
#     Edge 41, Type (0, 0), BuildingBlock: XUDNAN_clean_linker_2, # of connection points: 2
#     Edge 42, Type (0, 0), BuildingBlock: XUDNAN_clean_linker_2, # of connection points: 2
#     Edge 43, Type (0, 0), BuildingBlock: XUDNAN_clean_linker_2, # of connection points: 2
#     Edge 44, Type (0, 0), BuildingBlock: XUDNAN_clean_linker_2, # of connection points: 2
#     Edge 45, Type (0, 0), BuildingBlock: XUDNAN_clean_linker_2, # of connection points: 2
#     Edge 46, Type (0, 0), BuildingBlock: XUDNAN_clean_linker_2, # of connection points: 2
#     Edge 47, Type (0, 0), BuildingBlock: XUDNAN_clean_linker_2, # of connection points: 2
#     Edge 48, Type (0, 0), BuildingBlock: XUDNAN_clean_linker_2, # of connection points: 2
#     Edge 49, Type (0, 0), BuildingBlock: XUDNAN_clean_linker_2, # of connection points: 2
#     Edge 50, Type (0, 0), BuildingBlock: XUDNAN_clean_linker_2, # of connection points: 2
#     Edge 51, Type (0, 0), BuildingBlock: XUDNAN_clean_linker_2, # of connection points: 2
#     Edge 52, Type (0, 0), BuildingBlock: XUDNAN_clean_linker_2, # of connection points: 2
#     Edge 53, Type (0, 0), BuildingBlock: XUDNAN_clean_linker_2, # of connection points: 2
#     Edge 54, Type (0, 0), BuildingBlock: XUDNAN_clean_linker_2, # of connection points: 2
#     Edge 55, Type (0, 0), BuildingBlock: XUDNAN_clean_linker_2, # of connection points: 2
#     Edge 56, Type (0, 0), BuildingBlock: XUDNAN_clean_linker_2, # of connection points: 2
#     Edge 57, Type (0, 0), BuildingBlock: XUDNAN_clean_linker_2, # of connection points: 2
#     Edge 58, Type (0, 0), BuildingBlock: XUDNAN_clean_linker_2, # of connection points: 2
#     Edge 59, Type (0, 0), BuildingBlock: XUDNAN_clean_linker_2, # of connection points: 2
#     Edge 60, Type (0, 0), BuildingBlock: XUDNAN_clean_linker_2, # of connection points: 2
#     Edge 61, Type (0, 0), BuildingBlock: XUDNAN_clean_linker_2, # of connection points: 2
#     Edge 62, Type (0, 0), BuildingBlock: XUDNAN_clean_linker_2, # of connection points: 2
#     Edge 63, Type (0, 0), BuildingBlock: XUDNAN_clean_linker_2, # of connection points: 2
# Relax obj value: 0.304
# Max RMSD: 0.279
# Mean RMSD: 0.279
data_MOF--net-wiu--node1-BETDEL_clean_sbu_0--edge1-XUDNAN_clean_linker_2
_symmetry_space_group_name_H-M    P1
_symmetry_Int_Tables_number       1
_symmetry_cell_setting            triclinic
loop_
_symmetry_equiv_pos_as_xyz
'x, y, z'
_cell_length_a     31.150915
_cell_length_b     31.145935
_cell_length_c     57.825666
_cell_angle_alpha  90.116456
_cell_angle_beta   90.210906
_cell_angle_gamma 90.212663
loop_
_atom_site_label
_atom_site_type_symbol
_atom_site_fract_x
_atom_site_fract_y
_atom_site_fract_z
_atom_type_partial_charge
Dy0 Dy 0.27735 0.15391 0.12475 0.0
C1 C 0.36332 0.00833 0.09525 0.0
C2 C 0.237 0.22939 0.13366 0.0
Dy3 Dy 0.31291 0.07152 0.1121 0.0
O4 O 0.24453 0.20028 0.14927 0.0
O5 O 0.25074 0.21657 0.11383 0.0
O6 O 0.33102 0.18892 0.10752 0.0
O7 O 0.34458 0.13122 0.12373 0.0
C8 C 0.3605 0.16118 0.11174 0.0
C9 C 0.23131 0.06667 0.12627 0.0
O10 O 0.3265 0.06628 0.14986 0.0
O11 O 0.28289 0.12296 0.16055 0.0
O12 O 0.32172 0.00795 0.09442 0.0
O13 O 0.37698 0.04305 0.10525 0.0
O14 O 0.25918 0.03662 0.13036 0.0
O15 O 0.24736 0.09512 0.11369 0.0
O16 O 0.24562 0.14177 0.0901 0.0
O17 O 0.29766 0.09733 0.07622 0.0
C18 C 0.30725 0.08925 0.16598 0.0
C19 C 0.26395 0.1221 0.07234 0.0
Dy20 Dy 0.60401 0.53876 0.38116 0.0
C21 C 0.75426 0.62768 0.36027 0.0
C22 C 0.52893 0.50249 0.39483 0.0
Dy23 Dy 0.69143 0.5715 0.37176 0.0
O24 O 0.53353 0.54171 0.38794 0.0
O25 O 0.56555 0.48272 0.39447 0.0
O26 O 0.57828 0.59062 0.35865 0.0
O27 O 0.63057 0.60391 0.38027 0.0
C28 C 0.60446 0.62017 0.36588 0.0
C29 C 0.68952 0.49083 0.38639 0.0
O30 O 0.69551 0.58003 0.40989 0.0
O31 O 0.62881 0.5505 0.41792 0.0
O32 O 0.75201 0.58837 0.35265 0.0
O33 O 0.72222 0.63569 0.37375 0.0
O34 O 0.72192 0.51623 0.3907 0.0
O35 O 0.66352 0.50825 0.3728 0.0
O36 O 0.61114 0.51249 0.34513 0.0
O37 O 0.67036 0.55364 0.33515 0.0
C38 C 0.66599 0.56774 0.4248 0.0
C39 C 0.63897 0.5264 0.32944 0.0
Dy40 Dy 0.22768 0.85684 0.62502 0.0
C41 C 0.12277 0.98314 0.59144 0.0
C42 C 0.2701 0.78579 0.63956 0.0
Dy43 Dy 0.18101 0.93287 0.61318 0.0
O44 O 0.24401 0.78763 0.62222 0.0
O45 O 0.27422 0.82345 0.64906 0.0
O46 O 0.18502 0.82167 0.6004 0.0
O47 O 0.15809 0.86768 0.62156 0.0
C48 C 0.1493 0.83862 0.60695 0.0
C49 C 0.25666 0.94949 0.633 0.0
O50 O 0.16123 0.93466 0.65013 0.0
O51 O 0.20458 0.87766 0.66079 0.0
O52 O 0.16349 0.99188 0.5931 0.0
O53 O 0.11404 0.94813 0.60256 0.0
O54 O 0.22292 0.97299 0.63677 0.0
O55 O 0.24891 0.92126 0.61806 0.0
O56 O 0.26472 0.87464 0.59309 0.0
O57 O 0.20864 0.91311 0.57819 0.0
C58 C 0.17767 0.90932 0.66616 0.0
C59 C 0.24624 0.89396 0.57528 0.0
Dy60 Dy 0.89603 0.47157 0.88646 0.0
C61 C 0.76756 0.36107 0.85508 0.0
C62 C 0.96682 0.52276 0.88871 0.0
Dy63 Dy 0.8218 0.42351 0.87046 0.0
O64 O 0.93942 0.51833 0.90551 0.0
O65 O 0.95497 0.49977 0.8712 0.0
O66 O 0.9284 0.41094 0.89592 0.0
O67 O 0.89112 0.41171 0.86592 0.0
C68 C 0.91492 0.38842 0.87856 0.0
C69 C 0.80471 0.50616 0.87899 0.0
O70 O 0.81966 0.40705 0.90885 0.0
O71 O 0.8708 0.45596 0.92181 0.0
O72 O 0.75683 0.4006 0.85898 0.0
O73 O 0.80756 0.35541 0.86054 0.0
O74 O 0.78642 0.48478 0.86233 0.0
O75 O 0.82821 0.48186 0.89077 0.0
O76 O 0.8803 0.50469 0.85276 0.0
O77 O 0.84461 0.44816 0.83598 0.0
C78 C 0.84115 0.42618 0.926 0.0
C79 C 0.8636 0.48605 0.83419 0.0
Dy80 Dy 0.65701 0.90792 0.96827 0.0
C81 C 0.78365 0.79562 0.92999 0.0
C82 C 0.58219 0.93499 0.98632 0.0
Dy83 Dy 0.72171 0.84328 0.95111 0.0
O84 O 0.6194 0.95211 0.99105 0.0
O85 O 0.58606 0.90425 0.97142 0.0
O86 O 0.70134 0.96317 0.95939 0.0
O87 O 0.72582 0.90308 0.96971 0.0
C88 C 0.73545 0.9395 0.96217 0.0
C89 C 0.64126 0.81213 0.95606 0.0
O90 O 0.74173 0.84887 0.98887 0.0
O91 O 0.67552 0.87267 1.00116 0.0
O92 O 0.7684 0.78865 0.95049 0.0
O93 O 0.76595 0.82965 0.92136 0.0
O94 O 0.6753 0.78926 0.95938 0.0
O95 O 0.65229 0.84839 0.94865 0.0
O96 O 0.65144 0.92489 0.93115 0.0
O97 O 0.71071 0.8854 0.91916 0.0
C98 C 0.71401 0.85659 1.00585 0.0
C99 C 0.67939 0.9136 0.91511 0.0
Dy100 Dy 0.31236 0.40988 0.70581 0.0
C101 C 0.46941 0.49189 0.67997 0.0
C102 C 0.2594 0.34654 0.72072 0.0
Dy103 Dy 0.39747 0.45012 0.69393 0.0
O104 O 0.25926 0.38566 0.72872 0.0
O105 O 0.28707 0.34323 0.7042 0.0
O106 O 0.27545 0.46458 0.68932 0.0
O107 O 0.33626 0.47426 0.70421 0.0
C108 C 0.3075 0.49123 0.69225 0.0
C109 C 0.40351 0.37015 0.71052 0.0
O110 O 0.3875 0.47837 0.7294 0.0
O111 O 0.33708 0.42882 0.74174 0.0
O112 O 0.46821 0.4539 0.68892 0.0
O113 O 0.43088 0.50753 0.67828 0.0
O114 O 0.42993 0.40099 0.71557 0.0
O115 O 0.37528 0.3836 0.69651 0.0
O116 O 0.30695 0.40121 0.66754 0.0
O117 O 0.3714 0.43457 0.65796 0.0
C118 C 0.36403 0.46116 0.7462 0.0
C119 C 0.33496 0.41474 0.652 0.0
Dy120 Dy 0.8352 0.06474 0.46379 0.0
C121 C 0.72729 0.20889 0.45077 0.0
C122 C 0.90803 0.02113 0.47355 0.0
Dy123 Dy 0.77958 0.14108 0.45963 0.0
O124 O 0.8697 0.00857 0.47954 0.0
O125 O 0.90589 0.05661 0.462 0.0
O126 O 0.78632 0.0241 0.44421 0.0
O127 O 0.76729 0.07474 0.46576 0.0
C128 C 0.75438 0.0476 0.45137 0.0
C129 C 0.85913 0.1595 0.47467 0.0
O130 O 0.75709 0.11873 0.49477 0.0
O131 O 0.81561 0.07475 0.5013 0.0
O132 O 0.76209 0.20996 0.46296 0.0
O133 O 0.72032 0.17012 0.44326 0.0
O134 O 0.82436 0.17577 0.48296 0.0
O135 O 0.84985 0.13352 0.45845 0.0
O136 O 0.83918 0.06741 0.42563 0.0
O137 O 0.79291 0.12514 0.42144 0.0
C138 C 0.78065 0.09473 0.50893 0.0
C139 C 0.81738 0.09417 0.41246 0.0
Dy140 Dy 0.17096 0.59493 0.20776 0.0
C141 C 0.03309 0.48194 0.18437 0.0
C142 C 0.22364 0.65282 0.22848 0.0
Dy143 Dy 0.09801 0.53767 0.19555 0.0
O144 O 0.23234 0.61261 0.22537 0.0
O145 O 0.18675 0.66178 0.21923 0.0
O146 O 0.21687 0.5535 0.1885 0.0
O147 O 0.16394 0.52544 0.20562 0.0
C148 C 0.19547 0.51847 0.1926 0.0
C149 C 0.07399 0.61769 0.20897 0.0
O150 O 0.11423 0.51264 0.23123 0.0
O151 O 0.14461 0.57641 0.24266 0.0
O152 O 0.05195 0.48501 0.20424 0.0
O153 O 0.05162 0.50791 0.16992 0.0
O154 O 0.05198 0.58337 0.21299 0.0
O155 O 0.10554 0.60787 0.19662 0.0
O156 O 0.16581 0.61145 0.17033 0.0
O157 O 0.12903 0.54913 0.16021 0.0
C158 C 0.12825 0.53842 0.24786 0.0
C159 C 0.15152 0.58409 0.15443 0.0
Dy160 Dy 0.79768 0.66313 0.63268 0.0
C161 C 0.90581 0.5288 0.609 0.0
C162 C 0.75262 0.73098 0.64901 0.0
Dy163 Dy 0.84137 0.58118 0.62223 0.0
O164 O 0.77671 0.73155 0.63082 0.0
O165 O 0.752 0.69282 0.65797 0.0
O166 O 0.8466 0.6996 0.6126 0.0
O167 O 0.86579 0.64557 0.63126 0.0
C168 C 0.87845 0.67482 0.61766 0.0
C169 C 0.76122 0.57136 0.63715 0.0
O170 O 0.84945 0.57666 0.6605 0.0
O171 O 0.81369 0.63989 0.66901 0.0
O172 O 0.86598 0.52413 0.60253 0.0
O173 O 0.90977 0.56159 0.62261 0.0
O174 O 0.79035 0.54194 0.6403 0.0
O175 O 0.77513 0.60016 0.62408 0.0
O176 O 0.76638 0.64686 0.5985 0.0
O177 O 0.81979 0.60136 0.58602 0.0
C178 C 0.83407 0.60445 0.67562 0.0
C179 C 0.78479 0.62444 0.58164 0.0
Dy180 Dy 0.08112 0.0412 0.87382 0.0
C181 C 0.2208 0.13159 0.83851 0.0
C182 C 0.01337 0.00013 0.89342 0.0
Dy183 Dy 0.16401 0.07963 0.8604 0.0
O184 O 0.01113 0.0251 0.87559 0.0
O185 O 0.0529 0.99666 0.90029 0.0
O186 O 0.04553 0.08975 0.85326 0.0
O187 O 0.1021 0.10842 0.87022 0.0
C188 C 0.07206 0.12105 0.85704 0.0
C189 C 0.17023 0.00032 0.87734 0.0
O190 O 0.17171 0.09534 0.89784 0.0
O191 O 0.10877 0.06096 0.90886 0.0
O192 O 0.22188 0.08992 0.83816 0.0
O193 O 0.18983 0.1445 0.85169 0.0
O194 O 0.20081 0.02865 0.87981 0.0
O195 O 0.14155 0.01435 0.86417 0.0
O196 O 0.09165 0.00685 0.83981 0.0
O197 O 0.13702 0.05869 0.82556 0.0
C198 C 0.14489 0.08205 0.91402 0.0
C199 C 0.11266 0.02422 0.82215 0.0
Dy200 Dy 0.7178 0.33715 0.13581 0.0
C201 C 0.603 0.45175 0.09755 0.0
C202 C 0.76977 0.27414 0.15304 0.0
Dy203 Dy 0.66234 0.40425 0.12023 0.0
O204 O 0.73878 0.29243 0.16421 0.0
O205 O 0.77384 0.29247 0.13312 0.0
O206 O 0.681 0.28953 0.11472 0.0
O207 O 0.64699 0.33812 0.1308 0.0
C208 C 0.64341 0.30553 0.11786 0.0
C209 C 0.73592 0.43403 0.138 0.0
O210 O 0.6405 0.40304 0.15698 0.0
O211 O 0.70234 0.37053 0.17003 0.0
O212 O 0.64126 0.46475 0.10297 0.0
O213 O 0.59673 0.41306 0.10506 0.0
O214 O 0.69945 0.45318 0.14121 0.0
O215 O 0.73157 0.40199 0.12505 0.0
O216 O 0.75046 0.35252 0.10207 0.0
O217 O 0.69061 0.38266 0.08591 0.0
C218 C 0.66627 0.39196 0.1742 0.0
C219 C 0.72976 0.36684 0.08357 0.0
Dy220 Dy 0.40894 0.96232 0.36879 0.0
C221 C 0.2826 0.83838 0.35648 0.0
C222 C 0.4768 0.0152 0.37774 0.0
Dy223 Dy 0.33086 0.90888 0.36541 0.0
O224 O 0.47683 0.98347 0.36328 0.0
O225 O 0.43911 0.0188 0.38709 0.0
O226 O 0.44472 0.90957 0.35108 0.0
O227 O 0.39758 0.89378 0.37484 0.0
C228 C 0.42521 0.87825 0.36126 0.0
C229 C 0.31507 0.99098 0.37411 0.0
O230 O 0.33218 0.90828 0.40362 0.0
O231 O 0.39017 0.95494 0.40707 0.0
O232 O 0.27092 0.87752 0.35188 0.0
O233 O 0.32014 0.83833 0.36617 0.0
O234 O 0.28972 0.96041 0.38129 0.0
O235 O 0.34332 0.97643 0.36091 0.0
O236 O 0.38729 0.98178 0.33277 0.0
O237 O 0.34561 0.92131 0.32754 0.0
C238 C 0.35863 0.93149 0.41641 0.0
C239 C 0.36437 0.95623 0.31895 0.0
Dy240 Dy 0.15817 0.42665 0.46151 0.0
C241 C 0.23234 0.28051 0.41909 0.0
C242 C 0.10948 0.47864 0.48806 0.0
Dy243 Dy 0.19571 0.34786 0.44122 0.0
O244 O 0.15102 0.48048 0.48687 0.0
O245 O 0.09472 0.44964 0.47399 0.0
O246 O 0.20866 0.4678 0.44392 0.0
O247 O 0.22258 0.40546 0.45518 0.0
C248 C 0.23676 0.43693 0.4442 0.0
C249 C 0.12014 0.33459 0.462 0.0
O250 O 0.23012 0.34886 0.47601 0.0
O251 O 0.18026 0.39212 0.49378 0.0
O252 O 0.19413 0.28093 0.42769 0.0
O253 O 0.25105 0.3174 0.42224 0.0
O254 O 0.15225 0.30846 0.46296 0.0
O255 O 0.12928 0.36627 0.44916 0.0
O256 O 0.13706 0.43924 0.42556 0.0
O257 O 0.17803 0.38587 0.40858 0.0
C258 C 0.21412 0.36661 0.49511 0.0
C259 C 0.15299 0.42043 0.40696 0.0
Dy260 Dy 0.81306 0.90664 0.22054 0.0
C261 C 0.9417 0.00971 0.18218 0.0
C262 C 0.77621 0.84583 0.24742 0.0
Dy263 Dy 0.87843 0.96109 0.20136 0.0
O264 O 0.76532 0.886 0.24719 0.0
O265 O 0.80566 0.83881 0.23215 0.0
O266 O 0.761 0.94136 0.20075 0.0
O267 O 0.81498 0.97488 0.21374 0.0
C268 C 0.78149 0.9778 0.20184 0.0
C269 C 0.91057 0.88784 0.21966 0.0
O270 O 0.86377 -0.00113 0.23381 0.0
O271 O 0.84056 0.9389 0.25278 0.0
O272 O 0.94403 0.98902 0.20142 0.0
O273 O 0.90353 0.00529 0.17323 0.0
O274 O 0.92572 0.92586 0.22305 0.0
O275 O 0.87716 0.89089 0.20732 0.0
O276 O 0.80529 0.88275 0.18457 0.0
O277 O 0.8487 0.93442 0.16788 0.0
C278 C 0.85363 0.97944 0.25347 0.0
C279 C 0.82078 0.90199 0.16599 0.0
Dy280 Dy 0.335 0.5652 0.95777 0.0
C281 C 0.24041 0.71133 0.92884 0.0
C282 C 0.40572 0.52634 0.97459 0.0
Dy283 Dy 0.28377 0.64186 0.9449 0.0
O284 O 0.36687 0.51135 0.9771 0.0
O285 O 0.40535 0.56147 0.9627 0.0
O286 O 0.29008 0.52058 0.93899 0.0
O287 O 0.26736 0.57739 0.95499 0.0
C288 C 0.25749 0.54614 0.94223 0.0
C289 C 0.36315 0.65994 0.96127 0.0
O290 O 0.25735 0.63403 0.98063 0.0
O291 O 0.30792 0.58452 0.99304 0.0
O292 O 0.28101 0.70973 0.93331 0.0
O293 O 0.22263 0.67413 0.93267 0.0
O294 O 0.32832 0.67911 0.96763 0.0
O295 O 0.35294 0.63038 0.94723 0.0
O296 O 0.34513 0.55908 0.91963 0.0
O297 O 0.29832 0.61388 0.9094 0.0
C298 C 0.27518 0.61084 0.99732 0.0
C299 C 0.32461 0.58189 0.90379 0.0
Dy300 Dy 0.65911 0.09219 0.71524 0.0
C301 C 0.54171 0.95493 0.69704 0.0
C302 C 0.69073 0.169 0.72981 0.0
Dy303 Dy 0.59704 0.02032 0.70821 0.0
O304 O 0.71054 0.13257 0.73177 0.0
O305 O 0.65469 0.16345 0.71897 0.0
O306 O 0.7138 0.05114 0.70177 0.0
O307 O 0.66231 0.02397 0.72013 0.0
C308 C 0.69585 0.01592 0.7092 0.0
C309 C 0.5589 0.09666 0.71625 0.0
O310 O 0.61607 0.00625 0.74504 0.0
O311 O 0.6393 0.07535 0.75211 0.0
O312 O 0.5552 0.96426 0.71767 0.0
O313 O 0.56099 0.97974 0.68234 0.0
O314 O 0.5444 0.06001 0.72299 0.0
O315 O 0.59173 0.0905 0.70396 0.0
O316 O 0.65919 0.09341 0.67658 0.0
O317 O 0.63012 0.025 0.67319 0.0
C318 C 0.62789 0.03673 0.75985 0.0
C319 C 0.64959 0.05912 0.66395 0.0
H320 H 0.39378 0.24226 0.10714 0.0
H321 H 0.43119 0.10976 0.11794 0.0
H322 H 0.50754 0.13247 0.11965 0.0
H323 H 0.48464 0.2754 0.07235 0.0
H324 H 0.48852 0.32773 0.08557 0.0
H325 H 0.4373 0.30086 0.08374 0.0
H326 H 0.42825 0.30818 0.12805 0.0
H327 H 0.47941 0.3351 0.12999 0.0
H328 H 0.4694 0.28773 0.14703 0.0
H329 H 0.57965 0.1698 0.11955 0.0
H330 H 0.64205 0.21852 0.1205 0.0
H331 H 0.55768 0.3282 0.11303 0.0
C332 C 0.41803 0.21788 0.10966 0.0
C333 C 0.40654 0.174 0.11216 0.0
C334 C 0.43924 0.14336 0.11583 0.0
C335 C 0.48265 0.15605 0.11681 0.0
C336 C 0.49277 0.1996 0.11444 0.0
C337 C 0.46134 0.23011 0.11114 0.0
C338 C 0.48055 0.27507 0.11022 0.0
C339 C 0.47225 0.29598 0.08656 0.0
C340 C 0.46338 0.30317 0.13001 0.0
C341 C 0.52784 0.26519 0.11355 0.0
C342 C 0.53412 0.22137 0.11561 0.0
C343 C 0.575 0.20411 0.1181 0.0
C344 C 0.61031 0.23217 0.11855 0.0
C345 C 0.60481 0.27729 0.11694 0.0
C346 C 0.56287 0.29396 0.11451 0.0
H347 H 0.55998 0.66606 0.33354 0.0
H348 H 0.60821 0.67257 0.40388 0.0
H349 H 0.56544 0.73814 0.41063 0.0
H350 H 0.55977 0.78426 0.32406 0.0
H351 H 0.51197 0.78175 0.30644 0.0
H352 H 0.54845 0.73701 0.30701 0.0
H353 H 0.48556 0.68702 0.31869 0.0
H354 H 0.44911 0.73176 0.31876 0.0
H355 H 0.45496 0.69913 0.34428 0.0
H356 H 0.50994 0.7974 0.41114 0.0
H357 H 0.45781 0.85535 0.40304 0.0
H358 H 0.4504 0.81473 0.33143 0.0
C359 C 0.56248 0.6821 0.35013 0.0
C360 C 0.58764 0.66443 0.36814 0.0
C361 C 0.5897 0.68588 0.38973 0.0
C362 C 0.5651 0.72288 0.3938 0.0
C363 C 0.53928 0.73853 0.37595 0.0
C364 C 0.53887 0.71963 0.35431 0.0
C365 C 0.50876 0.74318 0.33802 0.0
C366 C 0.53373 0.76272 0.31768 0.0
C367 C 0.47246 0.71349 0.32944 0.0
C368 C 0.49163 0.77777 0.35399 0.0
C369 C 0.50909 0.77403 0.37591 0.0
C370 C 0.49658 0.80097 0.39395 0.0
C371 C 0.46659 0.83344 0.38928 0.0
C372 C 0.44994 0.83914 0.36669 0.0
C373 C 0.46249 0.81078 0.34888 0.0
H374 H 0.06358 0.85004 0.59515 0.0
H375 H 0.15241 0.76011 0.6264 0.0
H376 H 0.09375 0.70768 0.63144 0.0
H377 H 0.97243 0.82462 0.63132 0.0
H378 H 0.93352 0.82895 0.6083 0.0
H379 H 0.98245 0.85985 0.60721 0.0
H380 H -0.00015 0.82722 0.56709 0.0
H381 H 0.95082 0.79642 0.56808 0.0
H382 H 0.0014 0.7697 0.56373 0.0
H383 H 0.02555 0.66489 0.63371 0.0
H384 H 0.95167 0.63539 0.6334 0.0
H385 H 0.90674 0.75101 0.59942 0.0
C386 C 0.07041 0.81937 0.60313 0.0
C387 C 0.1125 0.80905 0.61036 0.0
C388 C 0.1204 0.76854 0.62064 0.0
C389 C 0.0873 0.73851 0.62358 0.0
C390 C 0.04625 0.7492 0.61605 0.0
C391 C 0.03757 0.78859 0.60601 0.0
C392 C 0.99049 0.79151 0.59931 0.0
C393 C 0.96843 0.82842 0.61232 0.0
C394 C 0.98535 0.7965 0.57299 0.0
C395 C 0.97422 0.74796 0.60739 0.0
C396 C 0.00695 0.72405 0.61696 0.0
C397 C -0.00036 0.68321 0.62613 0.0
C398 C 0.95761 0.66657 0.6258 0.0
C399 C 0.92345 0.69059 0.61625 0.0
C400 C 0.9322 0.73162 0.60669 0.0
H401 H 0.98963 0.14929 0.85141 0.0
H402 H 0.12026 0.19472 0.86108 0.0
H403 H 0.09378 0.2696 0.86221 0.0
H404 H 0.94844 0.24086 0.81709 0.0
H405 H 0.89729 0.24011 0.83157 0.0
H406 H 0.92695 0.19099 0.82792 0.0
H407 H 0.92409 0.17801 0.87212 0.0
H408 H 0.89446 0.22699 0.8758 0.0
H409 H 0.94383 0.21898 0.89154 0.0
H410 H 0.05275 0.33831 0.8656 0.0
H411 H 0.00066 0.39564 0.87384 0.0
H412 H 0.89552 0.30585 0.86387 0.0
C413 C 0.01285 0.17505 0.85321 0.0
C414 C 0.05724 0.16623 0.85581 0.0
C415 C 0.08631 0.20076 0.85881 0.0
C416 C 0.07149 0.24336 0.85941 0.0
C417 C 0.02744 0.25083 0.85719 0.0
C418 C -0.00151 0.2176 0.85426 0.0
C419 C 0.95249 0.23381 0.85477 0.0
C420 C 0.92998 0.22597 0.83144 0.0
C421 C 0.92726 0.21323 0.87475 0.0
C422 C 0.95996 0.28137 0.85894 0.0
C423 C 0.00351 0.29047 0.85984 0.0
C424 C 0.01868 0.33159 0.86469 0.0
C425 C 0.9888 0.36394 0.86934 0.0
C426 C 0.9441 0.3552 0.86929 0.0
C427 C 0.92944 0.31356 0.86353 0.0
H428 H 0.61102 0.73327 0.97094 0.0
H429 H 0.57144 0.85134 0.93745 0.0
H430 H 0.49716 0.82444 0.93534 0.0
H431 H 0.54207 0.66301 0.93657 0.0
H432 H 0.52996 0.62731 0.96017 0.0
H433 H 0.58036 0.65585 0.95969 0.0
H434 H 0.56427 0.68766 1.00014 0.0
H435 H 0.51391 0.65905 1.00068 0.0
H436 H 0.51491 0.71647 1.0047 0.0
H437 H 0.42767 0.7866 0.93724 0.0
H438 H 0.36553 0.73861 0.94225 0.0
H439 H 0.44796 0.64196 0.97284 0.0
C440 C 0.58661 0.75338 0.96322 0.0
C441 C 0.59686 0.7949 0.95482 0.0
C442 C 0.5642 0.82004 0.94458 0.0
C443 C 0.52193 0.80486 0.94311 0.0
C444 C 0.51276 0.76409 0.95166 0.0
C445 C 0.54402 0.73844 0.96139 0.0
C446 C 0.52507 0.69553 0.96891 0.0
C447 C 0.54559 0.65822 0.95553 0.0
C448 C 0.52982 0.68934 0.99517 0.0
C449 C 0.47828 0.70141 0.96202 0.0
C450 C 0.47221 0.74135 0.95214 0.0
C451 C 0.43201 0.75519 0.94484 0.0
C452 C 0.39689 0.7277 0.9478 0.0
C453 C 0.40198 0.68662 0.95787 0.0
C454 C 0.44332 0.67307 0.96491 0.0
H455 H 0.57575 0.18265 0.72301 0.0
H456 H 0.47496 0.09283 0.70405 0.0
H457 H 0.42327 0.15255 0.7013 0.0
H458 H 0.51027 0.24951 0.75881 0.0
H459 H 0.53628 0.29879 0.75034 0.0
H460 H 0.56562 0.2491 0.74987 0.0
H461 H 0.58389 0.26112 0.70641 0.0
H462 H 0.55508 0.3111 0.70726 0.0
H463 H 0.54095 0.27074 0.68615 0.0
H464 H 0.38276 0.22253 0.69971 0.0
H465 H 0.35667 0.29753 0.70027 0.0
H466 H 0.48261 0.34065 0.72288 0.0
C467 C 0.54307 0.17574 0.71789 0.0
C468 C 0.52946 0.13331 0.71343 0.0
C469 C 0.48601 0.12527 0.70745 0.0
C470 C 0.45642 0.15893 0.70585 0.0
C471 C 0.47064 0.20045 0.71057 0.0
C472 C 0.51289 0.20899 0.71656 0.0
C473 C 0.51954 0.25635 0.72141 0.0
C474 C 0.53376 0.26386 0.7466 0.0
C475 C 0.55177 0.27598 0.70429 0.0
C476 C 0.47453 0.27299 0.71716 0.0
C477 C 0.44683 0.24035 0.71075 0.0
C478 C 0.40406 0.24834 0.70492 0.0
C479 C 0.38941 0.29097 0.70537 0.0
C480 C 0.41731 0.32483 0.7119 0.0
C481 C 0.46022 0.31542 0.71815 0.0
H482 H 0.0766 0.27709 0.43523 0.0
H483 H 0.06782 0.35181 0.49827 0.0
H484 H 0.00185 0.31184 0.50904 0.0
H485 H 0.9596 0.2701 0.42423 0.0
H486 H 0.96306 0.21624 0.41294 0.0
H487 H 0.00773 0.25265 0.40983 0.0
H488 H 0.0571 0.19708 0.42981 0.0
H489 H 0.01236 0.16096 0.43352 0.0
H490 H 0.04359 0.17776 0.45825 0.0
H491 H 0.94101 0.26015 0.51429 0.0
H492 H 0.88161 0.20805 0.51129 0.0
H493 H 0.92775 0.167 0.44412 0.0
C494 C 0.05989 0.28576 0.45094 0.0
C495 C 0.07644 0.31802 0.46578 0.0
C496 C 0.05484 0.32787 0.48652 0.0
C497 C 0.01774 0.30501 0.49284 0.0
C498 C 0.00282 0.27249 0.47815 0.0
C499 C 0.02263 0.26344 0.45739 0.0
C500 C -8e-05 0.22689 0.44479 0.0
C501 C 0.98148 0.2424 0.42157 0.0
C502 C 0.03006 0.1884 0.4414 0.0
C503 C 0.96447 0.2164 0.46183 0.0
C504 C 0.96716 0.24293 0.48103 0.0
C505 C 0.93836 0.23955 0.49925 0.0
C506 C 0.90488 0.20962 0.49743 0.0
C507 C 0.90002 0.18347 0.4775 0.0
C508 C 0.9309 0.18619 0.45967 0.0
H509 H 0.99218 0.64262 0.22127 0.0
H510 H 0.11644 0.69247 0.20056 0.0
H511 H 0.08827 0.76626 0.20259 0.0
H512 H 0.92977 0.71595 0.18754 0.0
H513 H 0.88772 0.72185 0.20864 0.0
H514 H 0.91823 0.6729 0.20739 0.0
H515 H 0.93697 0.6818 0.25054 0.0
H516 H 0.9086 0.73212 0.25206 0.0
H517 H 0.96427 0.72969 0.26034 0.0
H518 H 0.04751 0.83407 0.20669 0.0
H519 H 0.99546 0.89271 0.21027 0.0
H520 H 0.89447 0.80059 0.22536 0.0
C521 C 0.01352 0.66916 0.21741 0.0
C522 C 0.05685 0.66187 0.21113 0.0
C523 C 0.0835 0.69732 0.2058 0.0
C524 C 0.0677 0.73935 0.20682 0.0
C525 C 0.02489 0.74548 0.21289 0.0
C526 C -0.00204 0.71148 0.21793 0.0
C527 C 0.95272 0.72725 0.22293 0.0
C528 C 0.9202 0.70836 0.20558 0.0
C529 C 0.9399 0.71704 0.24796 0.0
C530 C 0.95835 0.77531 0.21952 0.0
C531 C 0.00053 0.78493 0.21415 0.0
C532 C 0.01439 0.82693 0.21082 0.0
C533 C 0.98448 0.86006 0.21299 0.0
C534 C 0.94082 0.85127 0.21809 0.0
C535 C 0.92754 0.80821 0.2213 0.0
H536 H 0.44947 0.01131 0.09421 0.0
H537 H 0.33904 0.94592 0.06458 0.0
H538 H 0.38522 0.91566 1.03395 0.0
H539 H 0.48901 0.0471 0.04425 0.0
H540 H 0.54523 0.04136 0.05102 0.0
H541 H 0.50713 0.0491 0.07389 0.0
H542 H 0.53168 0.97899 0.09399 0.0
H543 H 0.57127 0.9718 0.07168 0.0
H544 H 0.53318 0.92961 0.0777 0.0
H545 H 0.44034 0.90316 1.00342 0.0
H546 H 0.503 0.90204 0.97731 0.0
H547 H 0.57513 0.97995 1.02625 0.0
C548 C 0.4354 0.98912 0.08185 0.0
C549 C 0.39105 0.98064 0.0816 0.0
C550 C 0.37325 0.95225 0.06503 0.0
C551 C 0.39913 0.93517 0.04757 0.0
C552 C 0.44238 0.94678 0.04729 0.0
C553 C 0.46056 0.97241 0.06428 0.0
C554 C 0.50636 0.98435 0.05874 0.0
C555 C 0.51222 0.03337 0.05686 0.0
C556 C 0.53746 0.96501 0.07658 0.0
C557 C 0.51062 0.96288 1.03553 0.0
C558 C 0.47365 0.94092 1.02932 0.0
C559 C 0.46966 0.9197 1.00822 0.0
C560 C 0.50509 0.9197 0.99344 0.0
C561 C 0.54341 0.94124 0.99987 0.0
C562 C 0.54594 0.96365 1.02092 0.0
H563 H 0.78689 0.62872 0.31692 0.0
H564 H 0.77103 0.70533 0.37891 0.0
H565 H 0.7798 0.77137 0.35612 0.0
H566 H 0.86277 0.70804 0.28545 0.0
H567 H 0.83723 0.69501 0.25824 0.0
H568 H 0.84271 0.65453 0.28027 0.0
H569 H 0.76083 0.64128 0.27794 0.0
H570 H 0.7544 0.68317 0.25692 0.0
H571 H 0.72455 0.68505 0.28354 0.0
H572 H 0.76821 0.82632 0.32636 0.0
H573 H 0.7589 0.87055 0.29136 0.0
H574 H 0.78433 0.75919 0.2484 0.0
C575 C 0.78825 0.65932 0.32584 0.0
C576 C 0.77839 0.66239 0.3495 0.0
C577 C 0.77887 0.70274 0.36072 0.0
C578 C 0.78346 0.74036 0.3479 0.0
C579 C 0.78839 0.73658 0.3241 0.0
C580 C 0.79265 0.69719 0.31321 0.0
C581 C 0.79274 0.70199 0.28718 0.0
C582 C 0.83649 0.68916 0.27719 0.0
C583 C 0.75594 0.67635 0.27576 0.0
C584 C 0.78531 0.74974 0.28524 0.0
C585 C 0.78272 0.76901 0.30672 0.0
C586 C 0.77159 0.81199 0.3094 0.0
C587 C 0.76543 0.83657 0.28949 0.0
C588 C 0.77086 0.81795 0.26738 0.0
C589 C 0.78008 0.77394 0.26521 0.0
H590 H 0.03854 0.96477 0.5855 0.0
H591 H 0.1452 0.0349 0.55544 0.0
H592 H 0.10349 0.04431 0.51936 0.0
H593 H 0.0088 0.90742 0.53566 0.0
H594 H 0.95177 0.91051 0.54054 0.0
H595 H 0.9884 0.91165 0.56471 0.0
H596 H 0.95701 0.98396 0.57891 0.0
H597 H 0.91898 0.98208 0.55543 0.0
H598 H 0.95327 0.02838 0.55906 0.0
H599 H 0.05229 0.04215 0.48622 0.0
H600 H 0.98868 0.04272 0.46074 0.0
H601 H 0.91619 0.97261 0.51236 0.0
C602 C 0.05263 0.98313 0.57154 0.0
C603 C 0.09484 -0.00073 0.57311 0.0
C604 C 0.1126 0.02278 0.55454 0.0
C605 C 0.08946 0.02765 0.53392 0.0
C606 C 0.04884 0.00895 0.53242 0.0
C607 C 0.03011 0.98821 0.55092 0.0
C608 C 0.98575 0.97166 0.545 0.0
C609 C 0.98359 0.92239 0.54657 0.0
C610 C 0.95175 0.9928 0.56051 0.0
C611 C 0.98227 0.98667 0.52024 0.0
C612 C 0.01933 0.00746 0.51323 0.0
C613 C 0.02312 0.02595 0.49146 0.0
C614 C 0.98702 0.02576 0.47706 0.0
C615 C 0.94788 0.00756 0.48468 0.0
C616 C 0.94606 0.98593 0.506 0.0
H617 H 0.79389 0.28396 0.8386 0.0
H618 H 0.68975 0.37588 0.83503 0.0
H619 H 0.66019 0.33794 0.8009 0.0
H620 H 0.812 0.27704 0.77968 0.0
H621 H 0.82356 0.22037 0.77919 0.0
H622 H 0.83371 0.25124 0.80499 0.0
H623 H 0.78539 0.19991 0.82886 0.0
H624 H 0.77614 0.16821 0.80323 0.0
H625 H 0.73127 0.18918 0.81922 0.0
H626 H 0.64682 0.29497 0.76493 0.0
H627 H 0.64292 0.24154 0.73338 0.0
H628 H 0.75652 0.17876 0.76044 0.0
C629 C 0.76406 0.29522 0.83111 0.0
C630 C 0.7439 0.33261 0.83936 0.0
C631 C 0.70535 0.34696 0.82898 0.0
C632 C 0.68862 0.32592 0.8095 0.0
C633 C 0.71081 0.29064 0.80089 0.0
C634 C 0.74708 0.27474 0.81167 0.0
C635 C 0.76568 0.2372 0.79856 0.0
C636 C 0.81144 0.24708 0.79011 0.0
C637 C 0.76452 0.1962 0.81334 0.0
C638 C 0.73442 0.2347 0.77858 0.0
C639 C 0.70321 0.26601 0.78014 0.0
C640 C 0.67088 0.27011 0.76361 0.0
C641 C 0.66918 0.23997 0.74565 0.0
C642 C 0.69946 0.20628 0.74457 0.0
C643 C 0.73323 0.20449 0.76079 0.0
H644 H 0.22652 0.34407 0.76442 0.0
H645 H 0.26303 0.26406 0.70623 0.0
H646 H 0.26218 0.20032 0.73135 0.0
H647 H 0.28984 0.29531 0.80543 0.0
H648 H 0.25205 0.2976 0.82892 0.0
H649 H 0.24974 0.33688 0.80616 0.0
H650 H 0.17025 0.31743 0.79751 0.0
H651 H 0.17171 0.27947 0.82095 0.0
H652 H 0.15561 0.26214 0.79245 0.0
H653 H 0.26699 0.14762 0.76335 0.0
H654 H 0.25922 0.10469 0.79891 0.0
H655 H 0.21855 0.21854 0.83616 0.0
C656 C 0.23254 0.31287 0.7568 0.0
C657 C 0.24483 0.30876 0.73349 0.0
C658 C 0.25333 0.26766 0.7241 0.0
C659 C 0.25342 0.23139 0.73825 0.0
C660 C 0.24432 0.23692 0.76158 0.0
C661 C 0.23255 0.27625 0.77068 0.0
C662 C 0.22486 0.27335 0.79643 0.0
C663 C 0.25599 0.30252 0.81002 0.0
C664 C 0.17781 0.28368 0.80217 0.0
C665 C 0.23483 0.22645 0.80035 0.0
C666 C 0.24654 0.2062 0.78007 0.0
C667 C 0.25743 0.16291 0.77933 0.0
C668 C 0.25354 0.13895 0.79966 0.0
C669 C 0.23838 0.1585 0.82014 0.0
C670 C 0.23058 0.20303 0.82071 0.0
H671 H 0.22259 0.83663 0.32237 0.0
H672 H 0.30739 0.75609 0.36301 0.0
H673 H 0.30161 0.69907 0.3336 0.0
H674 H 0.15495 0.74529 0.29714 0.0
H675 H 0.15055 0.7734 0.27002 0.0
H676 H 0.15386 0.80316 0.29673 0.0
H677 H 0.21871 0.84512 0.28006 0.0
H678 H 0.21729 0.81397 0.25384 0.0
H679 H 0.26573 0.81613 0.27096 0.0
H680 H 0.29996 0.65885 0.29679 0.0
H681 H 0.28551 0.62696 0.25849 0.0
H682 H 0.20132 0.7334 0.24183 0.0
C683 C 0.23798 0.8061 0.32564 0.0
C684 C 0.26554 0.80052 0.34472 0.0
C685 C 0.28603 0.76066 0.3484 0.0
C686 C 0.28327 0.72831 0.33172 0.0
C687 C 0.25925 0.7364 0.31191 0.0
C688 C 0.23553 0.77352 0.30915 0.0
C689 C 0.21484 0.77546 0.28549 0.0
C690 C 0.16563 0.77422 0.28747 0.0
C691 C 0.23008 0.81501 0.2718 0.0
C692 C 0.23206 0.7345 0.27515 0.0
C693 C 0.25781 0.71265 0.29062 0.0
C694 C 0.27901 0.67502 0.28467 0.0
C695 C 0.2712 0.65759 0.26278 0.0
C696 C 0.24216 0.67776 0.24743 0.0
C697 C 0.22372 0.71748 0.25331 0.0
H698 H 0.02369 0.47164 0.49402 0.0
H699 H 0.14071 0.51743 0.52693 0.0
H700 H 0.10185 0.52564 0.56384 0.0
H701 H 0.95063 0.54198 0.52447 0.0
H702 H 0.9093 0.50142 0.52588 0.0
H703 H 0.9469 0.50123 0.50235 0.0
H704 H 0.96636 0.42246 0.51253 0.0
H705 H 0.9301 0.42317 0.53673 0.0
H706 H 0.98584 0.41001 0.54112 0.0
H707 H 0.05138 0.52634 0.59696 0.0
H708 H 0.98882 0.53403 0.62259 0.0
H709 H 0.9054 0.48592 0.5681 0.0
C710 C 0.04084 0.48438 0.50887 0.0
C711 C 0.08495 0.49407 0.5078 0.0
C712 C 0.10666 0.51031 0.52749 0.0
C713 C 0.08509 0.5144 0.54855 0.0
C714 C 0.04208 0.50217 0.54935 0.0
C715 C 0.01992 0.48853 0.52994 0.0
C716 C 0.97356 0.47848 0.53526 0.0
C717 C 0.94333 0.50752 0.52117 0.0
C718 C 0.96339 0.43069 0.53117 0.0
C719 C 0.97287 0.48942 0.56069 0.0
C720 C 0.01295 0.50217 0.56856 0.0
C721 C 0.01988 0.51626 0.5911 0.0
C722 C 0.98429 0.52016 0.60555 0.0
C723 C 0.94266 0.51037 0.59718 0.0
C724 C 0.93711 0.49274 0.57496 0.0
H725 H 0.52257 0.42802 0.08402 0.0
H726 H 0.62482 0.51983 0.07092 0.0
H727 H 0.58722 0.54411 1.03574 0.0
H728 H 0.50292 0.39776 1.0263 0.0
H729 H 0.44534 0.39468 1.02889 0.0
H730 H 0.47886 0.38526 0.05379 0.0
H731 H 0.43973 0.44499 0.07666 0.0
H732 H 0.40515 0.45369 0.05211 0.0
H733 H 0.43523 0.49788 0.06429 0.0
H734 H 0.54273 0.55398 1.00092 0.0
H735 H 0.48509 0.56089 0.97203 0.0
H736 H 0.40964 0.46506 1.00837 0.0
C737 C 0.53645 0.45389 0.07398 0.0
C738 C 0.57642 0.47213 0.07996 0.0
C739 C 0.59399 0.50574 0.06655 0.0
C740 C 0.57318 0.51936 0.04646 0.0
C741 C 0.53478 0.49932 0.0404 0.0
C742 C 0.51586 0.46825 0.05404 0.0
C743 C 0.47375 0.4529 0.04383 0.0
C744 C 0.47535 0.40479 1.03785 0.0
C745 C 0.43625 0.463 0.06019 0.0
C746 C 0.47217 0.48012 1.02224 0.0
C747 C 0.50815 0.50603 1.02046 0.0
C748 C 0.51423 0.53416 1.00215 0.0
C749 C 0.48148 0.53759 0.98577 0.0
C750 C 0.44311 0.51355 0.98816 0.0
C751 C 0.43892 0.48343 1.00613 0.0
H752 H 0.20139 0.26534 0.1729 0.0
H753 H 0.24575 0.29419 0.10348 0.0
H754 H 0.23718 0.37111 0.11091 0.0
H755 H 0.11996 0.35473 0.1737 0.0
H756 H 0.12873 0.36528 0.20401 0.0
H757 H 0.13494 0.3116 0.19281 0.0
H758 H 0.2121 0.30929 0.20967 0.0
H759 H 0.20639 0.36312 0.22057 0.0
H760 H 0.25023 0.35022 0.20156 0.0
H761 H 0.23783 0.44311 0.12761 0.0
H762 H 0.23131 0.50969 0.15048 0.0
H763 H 0.17596 0.43738 0.20712 0.0
C764 C 0.20822 0.28795 0.15919 0.0
C765 C 0.22451 0.27404 0.13774 0.0
C766 C 0.23324 0.30425 0.12008 0.0
C767 C 0.22861 0.34805 0.1241 0.0
C768 C 0.21399 0.36099 0.14562 0.0
C769 C 0.20248 0.3321 0.16267 0.0
C770 C 0.18768 0.35535 0.18424 0.0
C771 C 0.13998 0.3462 0.18896 0.0
C772 C 0.21579 0.3438 0.20524 0.0
C773 C 0.19468 0.4015 0.17687 0.0
C774 C 0.2104 0.40377 0.1546 0.0
C775 C 0.22404 0.44216 0.14475 0.0
C776 C 0.22044 0.47963 0.15784 0.0
C777 C 0.20206 0.47837 0.1801 0.0
C778 C 0.18911 0.43894 0.18982 0.0
H779 H 0.45129 0.54183 0.39482 0.0
H780 H 0.51444 0.42143 0.41079 0.0
H781 H 0.44499 0.39093 0.4235 0.0
H782 H 0.38092 0.54267 0.44272 0.0
H783 H 0.33623 0.56527 0.4271 0.0
H784 H 0.39031 0.57691 0.41813 0.0
H785 H 0.37274 0.54871 0.37696 0.0
H786 H 0.31853 0.537 0.38579 0.0
H787 H 0.3512 0.49528 0.3734 0.0
H788 H 0.37096 0.37521 0.4361 0.0
H789 H 0.29552 0.37384 0.44793 0.0
H790 H 0.279 0.50429 0.42316 0.0
C791 C 0.45037 0.50895 0.40086 0.0
C792 C 0.4879 0.48377 0.4019 0.0
C793 C 0.48581 0.44101 0.40991 0.0
C794 C 0.44663 0.4235 0.41708 0.0
C795 C 0.41019 0.44927 0.41596 0.0
C796 C 0.41159 0.491 0.408 0.0
C797 C 0.36793 0.51214 0.40918 0.0
C798 C 0.36893 0.55157 0.42525 0.0
C799 C 0.35165 0.52397 0.38488 0.0
C800 C 0.34182 0.47593 0.41945 0.0
C801 C 0.36695 0.43999 0.42307 0.0
C802 C 0.35082 0.40291 0.43311 0.0
C803 C 0.30784 0.4025 0.43972 0.0
C804 C 0.28138 0.43886 0.4362 0.0
C805 C 0.2985 0.47601 0.42583 0.0
H806 H 0.24019 0.70697 0.62879 0.0
H807 H 0.33331 0.77348 0.67199 0.0
H808 H 0.35459 0.70384 0.68933 0.0
H809 H 0.20456 0.63557 0.67185 0.0
H810 H 0.19645 0.59096 0.6524 0.0
H811 H 0.19167 0.6451 0.64188 0.0
H812 H 0.24881 0.62968 0.61049 0.0
H813 H 0.25355 0.57535 0.62078 0.0
H814 H 0.30054 0.6091 0.61896 0.0
H815 H 0.3644 0.62794 0.70188 0.0
H816 H 0.36075 0.55098 0.7107 0.0
H817 H 0.25696 0.53475 0.66113 0.0
C818 C 0.26564 0.70681 0.64161 0.0
C819 C 0.28573 0.74518 0.64895 0.0
C820 C 0.31802 0.74412 0.66612 0.0
C821 C 0.33018 0.70487 0.67598 0.0
C822 C 0.3092 0.66759 0.66855 0.0
C823 C 0.27748 0.66828 0.65185 0.0
C824 C 0.25793 0.62427 0.64796 0.0
C825 C 0.20981 0.62398 0.65388 0.0
C826 C 0.26569 0.60869 0.62307 0.0
C827 C 0.28358 0.5985 0.66519 0.0
C828 C 0.31328 0.62409 0.67665 0.0
C829 C 0.3412 0.60765 0.69311 0.0
C830 C 0.33876 0.56387 0.698 0.0
C831 C 0.30822 0.53715 0.68672 0.0
C832 C 0.28021 0.55467 0.67014 0.0
H833 H 0.00589 0.55848 0.92682 0.0
H834 H 0.02606 0.5248 0.85484 0.0
H835 H 0.10389 0.53324 0.86002 0.0
H836 H 0.10143 0.63816 0.92976 0.0
H837 H 0.11252 0.6226 0.95918 0.0
H838 H 0.058 0.62281 0.94858 0.0
H839 H 0.05006 0.54336 0.96113 0.0
H840 H 0.1048 0.54236 0.97101 0.0
H841 H 0.08662 0.50387 0.94978 0.0
H842 H 0.17767 0.52587 0.87512 0.0
H843 H 0.24538 0.52141 0.89752 0.0
H844 H 0.17931 0.56738 0.95853 0.0
C845 C 0.02665 0.55493 0.91197 0.0
C846 C 0.01028 0.54066 0.89055 0.0
C847 C 0.03816 0.53562 0.87146 0.0
C848 C 0.08243 0.54029 0.8742 0.0
C849 C 0.09803 0.55134 0.89594 0.0
C850 C 0.07108 0.56041 0.9143 0.0
C851 C 0.09654 0.5689 0.93619 0.0
C852 C 0.09185 0.61592 0.94387 0.0
C853 C 0.08372 0.53775 0.95565 0.0
C854 C 0.14142 0.55999 0.92757 0.0
C855 C 0.14158 0.54989 0.90431 0.0
C856 C 0.17838 0.53527 0.89314 0.0
C857 C 0.21641 0.5322 0.906 0.0
C858 C 0.21707 0.54438 0.92951 0.0
C859 C 0.17931 0.55848 0.9404 0.0
H860 H 0.83069 0.55242 0.91609 0.0
H861 H 0.78301 0.56511 0.84594 0.0
H862 H 0.78905 0.64426 0.84911 0.0
H863 H 0.77096 0.63487 0.93887 0.0
H864 H 0.81131 0.65242 0.95926 0.0
H865 H 0.81046 0.59764 0.94959 0.0
H866 H 0.88963 0.60537 0.93631 0.0
H867 H 0.89028 0.6607 0.94558 0.0
H868 H 0.90398 0.64711 0.9162 0.0
H869 H 0.79395 0.72133 0.86123 0.0
H870 H 0.78394 0.78869 0.88305 0.0
H871 H 0.82505 0.72513 0.94588 0.0
C872 C 0.82209 0.57196 0.90131 0.0
C873 C 0.80654 0.55309 0.88077 0.0
C874 C 0.79483 0.5793 0.86187 0.0
C875 C 0.79878 0.62411 0.86341 0.0
C876 C 0.81432 0.64187 0.884 0.0
C877 C 0.82519 0.61654 0.90272 0.0
C878 C 0.83515 0.64326 0.92391 0.0
C879 C 0.80516 0.63136 0.94408 0.0
C880 C 0.88258 0.63885 0.93091 0.0
C881 C 0.82589 0.68761 0.9146 0.0
C882 C 0.81564 0.68633 0.8913 0.0
C883 C 0.80249 0.72286 0.87937 0.0
C884 C 0.79714 0.76105 0.89188 0.0
C885 C 0.80384 0.76182 0.91608 0.0
C886 C 0.8204 0.72535 0.92731 0.0
H887 H 0.54958 0.45994 0.68416 0.0
H888 H 0.47911 0.57178 0.66081 0.0
H889 H 0.54764 0.60633 0.64932 0.0
H890 H 0.64256 0.51722 0.70697 0.0
H891 H 0.67968 0.47654 0.69759 0.0
H892 H 0.62545 0.46197 0.70506 0.0
H893 H 0.61512 0.42671 0.66476 0.0
H894 H 0.66926 0.44109 0.65717 0.0
H895 H 0.62517 0.45792 0.6391 0.0
H896 H 0.62304 0.62665 0.63905 0.0
H897 H 0.7 0.63148 0.62977 0.0
H898 H 0.72082 0.50578 0.65999 0.0
C899 C 0.54857 0.49185 0.67677 0.0
C900 C 0.50935 0.51341 0.6733 0.0
C901 C 0.50906 0.55495 0.66354 0.0
C902 C 0.54771 0.57474 0.65707 0.0
C903 C 0.58593 0.55243 0.66066 0.0
C904 C 0.58662 0.51193 0.6703 0.0
C905 C 0.63165 0.49408 0.67155 0.0
C906 C 0.64565 0.48705 0.6968 0.0
C907 C 0.6355 0.4525 0.65729 0.0
C908 C 0.65628 0.53055 0.66064 0.0
C909 C 0.62935 0.56405 0.65468 0.0
C910 C 0.64445 0.60078 0.64375 0.0
C911 C 0.68816 0.60312 0.63852 0.0
C912 C 0.7161 0.56885 0.64414 0.0
C913 C 0.70007 0.53239 0.65559 0.0
H914 H 0.74854 0.28981 0.46248 0.0
H915 H 0.65862 0.21566 0.42104 0.0
H916 H 0.63237 0.28292 0.40306 0.0
H917 H 0.68281 0.38973 0.46897 0.0
H918 H 0.7299 0.42308 0.46609 0.0
H919 H 0.73407 0.37081 0.47923 0.0
H920 H 0.79309 0.35054 0.44971 0.0
H921 H 0.78858 0.40223 0.43622 0.0
H922 H 0.78162 0.35414 0.41919 0.0
H923 H 0.62371 0.35655 0.38604 0.0
H924 H 0.63303 0.43028 0.37114 0.0
H925 H 0.73239 0.45425 0.42233 0.0
C926 C 0.72224 0.28781 0.45022 0.0
C927 C 0.70519 0.24788 0.4432 0.0
C928 C 0.6716 0.24623 0.42675 0.0
C929 C 0.65659 0.28418 0.41651 0.0
C930 C 0.67563 0.32304 0.42305 0.0
C931 C 0.70755 0.32506 0.43968 0.0
C932 C 0.72692 0.36952 0.44155 0.0
C933 C 0.71786 0.38946 0.46537 0.0
C934 C 0.77539 0.36903 0.43635 0.0
C935 C 0.7021 0.39197 0.42274 0.0
C936 C 0.67202 0.36497 0.4126 0.0
C937 C 0.64672 0.37808 0.39405 0.0
C938 C 0.6524 0.41984 0.38565 0.0
C939 C 0.68359 0.44749 0.3956 0.0
C940 C 0.70846 0.43351 0.41443 0.0
H941 H 0.81442 0.42862 0.11835 0.0
H942 H 0.74931 0.46556 0.18137 0.0
H943 H 0.81966 0.47406 0.20114 0.0
H944 H 0.90267 0.37225 0.14269 0.0
H945 H 0.9419 0.39338 0.12285 0.0
H946 H 0.88665 0.38798 0.11395 0.0
H947 H 0.8839 0.46872 0.10342 0.0
H948 H 0.93938 0.47422 0.11179 0.0
H949 H 0.89936 0.50822 0.12474 0.0
H950 H 0.89622 0.47213 0.21439 0.0
H951 H 0.97454 0.47958 0.21855 0.0
H952 H 0.99032 0.45488 0.14519 0.0
C953 C 0.81518 0.43884 0.13627 0.0
C954 C 0.77693 0.44572 0.14867 0.0
C955 C 0.77859 0.45976 0.17187 0.0
C956 C 0.81824 0.46435 0.18317 0.0
C957 C 0.85552 0.45607 0.17064 0.0
C958 C 0.8544 0.44521 0.14749 0.0
C959 C 0.89913 0.4419 0.13747 0.0
C960 C 0.9081 0.39615 0.12873 0.0
C961 C 0.90583 0.47527 0.11822 0.0
C962 C 0.92574 0.45238 0.1587 0.0
C963 C 0.89985 0.45906 0.17777 0.0
C964 C 0.9168 0.46758 0.19956 0.0
C965 C 0.96135 0.47131 0.20175 0.0
C966 C 0.98825 0.46782 0.18214 0.0
C967 C 0.97033 0.45755 0.16041 0.0
H968 H 0.76458 0.8134 0.63512 0.0
H969 H 0.70941 0.73557 0.68974 0.0
H970 H 0.69523 0.8012 0.71252 0.0
H971 H 0.81724 0.88901 0.67251 0.0
H972 H 0.80726 0.93464 0.65416 0.0
H973 H 0.81238 0.88187 0.64166 0.0
H974 H 0.7371 0.8882 0.62222 0.0
H975 H 0.73424 0.94171 0.63375 0.0
H976 H 0.69182 0.9037 0.63967 0.0
H977 H 0.68936 0.87337 0.72954 0.0
H978 H 0.68161 0.95021 0.73808 0.0
H979 H 0.74011 0.98234 0.67231 0.0
C980 C 0.74884 0.8103 0.65172 0.0
C981 C 0.73782 0.76973 0.66077 0.0
C982 C 0.71775 0.76658 0.68256 0.0
C983 C 0.71001 0.80353 0.69566 0.0
C984 C 0.72272 0.84297 0.6866 0.0
C985 C 0.74108 0.84676 0.66502 0.0
C986 C 0.75127 0.89309 0.65929 0.0
C987 C 0.79993 0.90003 0.65676 0.0
C988 C 0.72707 0.90749 0.63744 0.0
C989 C 0.73446 0.91498 0.68078 0.0
C990 C 0.71907 0.88516 0.69646 0.0
C991 C 0.70115 0.89706 0.71743 0.0
C992 C 0.69697 0.94072 0.7221 0.0
C993 C 0.71028 0.97182 0.70578 0.0
C994 C 0.73048 0.95901 0.68517 0.0
H995 H 0.7658 0.989 0.92672 0.0
H996 H 0.80459 0.91441 0.98641 0.0
H997 H 0.88046 0.92222 0.97534 0.0
H998 H 0.83907 0.94271 0.88851 0.0
H999 H 0.85075 0.991 0.87256 0.0
H1000 H 0.79954 0.98468 0.88652 0.0
H1001 H 0.81137 0.0556 0.90919 0.0
H1002 H 0.86225 0.06269 0.89495 0.0
H1003 H 0.85965 0.06274 0.92609 0.0
H1004 H 0.95083 0.93301 0.95663 0.0
H1005 H 0.01343 0.95112 0.93233 0.0
H1006 H 0.92937 0.01648 0.88392 0.0
C1007 C 0.79052 0.97571 0.93778 0.0
C1008 C 0.77986 0.9517 0.95754 0.0
C1009 C 0.81255 0.93324 0.9713 0.0
C1010 C 0.85561 0.93739 0.96513 0.0
C1011 C 0.86523 0.95983 0.94507 0.0
C1012 C 0.83382 0.97907 0.93167 0.0
C1013 C 0.8529 -0.00096 0.91019 0.0
C1014 C 0.83447 0.97809 0.88815 0.0
C1015 C 0.84615 0.04792 0.91011 0.0
C1016 C 0.89973 0.98769 0.91363 0.0
C1017 C 0.90607 0.96513 0.93387 0.0
C1018 C 0.94647 0.95088 0.94077 0.0
C1019 C 0.9817 0.96102 0.92684 0.0
C1020 C 0.97597 0.98495 0.90634 0.0
C1021 C 0.93446 -0.00213 0.89949 0.0
H1022 H 0.76439 0.05404 0.22148 0.0
H1023 H 0.77967 0.99029 0.1554 0.0
H1024 H 0.7852 0.06106 0.13605 0.0
H1025 H 0.69832 0.14377 0.19906 0.0
H1026 H 0.72206 0.18129 0.2192 0.0
H1027 H 0.71699 0.12552 0.2269 0.0
H1028 H 0.7987 0.12364 0.2354 0.0
H1029 H 0.80445 0.17887 0.22676 0.0
H1030 H 0.83601 0.13789 0.2129 0.0
H1031 H 0.7981 0.13816 0.12519 0.0
H1032 H 0.79771 0.21692 0.12108 0.0
H1033 H 0.7678 0.23037 0.19395 0.0
C1034 C 0.76713 0.05521 0.20281 0.0
C1035 C 0.77082 0.01728 0.18971 0.0
C1036 C 0.77573 0.01935 0.16548 0.0
C1037 C 0.77957 0.05928 0.15448 0.0
C1038 C 0.7777 0.0963 0.16807 0.0
C1039 C 0.76998 0.09464 0.19156 0.0
C1040 C 0.76837 0.13905 0.20216 0.0
C1041 C 0.72378 0.14794 0.21242 0.0
C1042 C 0.80401 0.14519 0.22038 0.0
C1043 C 0.77671 0.1661 0.18096 0.0
C1044 C 0.7831 0.14075 0.16161 0.0
C1045 C 0.79251 0.15836 0.14012 0.0
C1046 C 0.79276 0.20313 0.13804 0.0
C1047 C 0.78263 0.22952 0.15723 0.0
C1048 C 0.77587 0.21082 0.17908 0.0
H1049 H 0.7222 0.00703 0.41235 0.0
H1050 H 0.68849 0.09308 0.46855 0.0
H1051 H 0.61686 0.10303 0.45178 0.0
H1052 H 0.66049 0.06227 0.36693 0.0
H1053 H 0.64324 0.01301 0.35331 0.0
H1054 H 0.69398 0.01527 0.36838 0.0
H1055 H 0.67099 0.95121 0.39412 0.0
H1056 H 0.62062 0.94834 0.37889 0.0
H1057 H 0.62127 0.95411 0.40991 0.0
H1058 H 0.54804 0.10061 0.4312 0.0
H1059 H 0.48266 0.07895 0.40985 0.0
H1060 H 0.55899 0.99471 0.3667 0.0
C1061 C 0.6996 0.02785 0.42103 0.0
C1062 C 0.71087 0.0495 0.44161 0.0
C1063 C 0.68058 0.07643 0.45263 0.0
C1064 C 0.63987 0.0826 0.44318 0.0
C1065 C 0.62978 0.06151 0.4227 0.0
C1066 C 0.6584 0.03426 0.41185 0.0
C1067 C 0.63779 0.01292 0.39103 0.0
C1068 C 0.66021 0.02671 0.36858 0.0
C1069 C 0.63764 0.96374 0.39366 0.0
C1070 C 0.59284 0.03133 0.39252 0.0
C1071 C 0.58931 0.06001 0.41065 0.0
C1072 C 0.55033 0.07869 0.41672 0.0
C1073 C 0.51344 0.06634 0.40451 0.0
C1074 C 0.51604 0.03553 0.38663 0.0
C1075 C 0.55638 0.019 0.38004 0.0
H1076 H 0.19999 0.20024 0.42075 0.0
H1077 H 0.30908 0.27405 0.39627 0.0
H1078 H 0.34214 0.20709 0.38141 0.0
H1079 H 0.26012 0.11066 0.44071 0.0
H1080 H 0.21987 0.07175 0.43249 0.0
H1081 H 0.20426 0.12556 0.44006 0.0
H1082 H 0.16544 0.13361 0.40057 0.0
H1083 H 0.18076 0.07975 0.39289 0.0
H1084 H 0.19469 0.12392 0.37423 0.0
H1085 H 0.36237 0.13231 0.36941 0.0
H1086 H 0.37008 0.05473 0.36198 0.0
H1087 H 0.24877 0.0304 0.39631 0.0
C1088 C 0.23068 0.2024 0.41207 0.0
C1089 C 0.25204 0.242 0.40937 0.0
C1090 C 0.29234 0.24375 0.39829 0.0
C1091 C 0.31122 0.20604 0.38986 0.0
C1092 C 0.28933 0.16731 0.39296 0.0
C1093 C 0.25005 0.16527 0.4039 0.0
C1094 C 0.2337 0.11969 0.40582 0.0
C1095 C 0.22925 0.10614 0.43128 0.0
C1096 C 0.19113 0.11392 0.39258 0.0
C1097 C 0.26988 0.0962 0.39412 0.0
C1098 C 0.30153 0.12424 0.38673 0.0
C1099 C 0.3379 0.11006 0.37518 0.0
C1100 C 0.34196 0.06602 0.37107 0.0
C1101 C 0.31 0.03689 0.37869 0.0
C1102 C 0.27365 0.05212 0.39041 0.0
H1103 H 0.0229 0.98782 0.19186 0.0
H1104 H 0.94678 0.06782 0.14625 0.0
H1105 H 0.01379 0.09264 0.12699 0.0
H1106 H 0.11419 0.05689 0.1986 0.0
H1107 H 0.15202 0.01325 0.198 0.0
H1108 H 0.09851 0.00442 0.20871 0.0
H1109 H 0.0877 0.9426 0.17914 0.0
H1110 H 0.14114 0.95124 0.16831 0.0
H1111 H 0.09591 0.95283 0.1488 0.0
H1112 H 0.08993 0.10923 0.1139 0.0
H1113 H 0.16757 0.11255 0.10571 0.0
H1114 H 0.19126 0.01584 0.15802 0.0
C1115 C 0.02023 0.01104 0.17801 0.0
C1116 C 0.98001 0.02665 0.17068 0.0
C1117 C 0.97758 0.05599 0.15214 0.0
C1118 C 0.01534 0.07012 0.1412 0.0
C1119 C 0.05463 0.05379 0.14887 0.0
C1120 C 0.05712 0.0245 0.1667 0.0
C1121 C 0.1026 0.00974 0.17099 0.0
C1122 C 0.1177 0.02182 0.19553 0.0
C1123 C 0.10708 0.96124 0.16653 0.0
C1124 C 0.12577 0.03565 0.15291 0.0
C1125 C 0.0977 0.06123 0.14048 0.0
C1126 C 0.11205 0.08908 0.12338 0.0
C1127 C 0.15617 0.09074 0.11889 0.0
C1128 C 0.18518 0.06419 0.13119 0.0
C1129 C 0.16971 0.03621 0.1483 0.0
H1130 H 0.23468 0.95992 0.90088 0.0
H1131 H 0.1069 0.94067 0.87256 0.0
H1132 H 0.10831 0.86491 0.88491 0.0
H1133 H 0.27667 0.8611 0.88285 0.0
H1134 H 0.3091 0.85286 0.90832 0.0
H1135 H 0.29627 0.9065 0.89922 0.0
H1136 H 0.26376 0.92264 0.93953 0.0
H1137 H 0.27665 0.86898 0.94879 0.0
H1138 H 0.22225 0.88811 0.95077 0.0
H1139 H 0.12542 0.78978 0.89861 0.0
H1140 H 0.15828 0.72143 0.91187 0.0
H1141 H 0.27475 0.79069 0.92999 0.0
C1142 C 0.20687 0.93983 0.89756 0.0
C1143 C 0.17074 0.95593 0.88584 0.0
C1144 C 0.13495 0.92879 0.88158 0.0
C1145 C 0.13536 0.88578 0.88857 0.0
C1146 C 0.17177 0.87055 0.89982 0.0
C1147 C 0.20683 0.89679 0.90432 0.0
C1148 C 0.24287 0.87209 0.91555 0.0
C1149 C 0.28361 0.8732 0.90058 0.0
C1150 C 0.2519 0.88896 0.94012 0.0
C1151 C 0.22305 0.82775 0.91608 0.0
C1152 C 0.18181 0.82743 0.90727 0.0
C1153 C 0.15764 0.78963 0.90566 0.0
C1154 C 0.17642 0.75108 0.91316 0.0
C1155 C 0.21892 0.75102 0.92175 0.0
C1156 C 0.24217 0.78985 0.92336 0.0
H1157 H 0.50674 0.93353 0.65524 0.0
H1158 H 0.47943 0.93879 0.72866 0.0
H1159 H 0.40196 0.93429 0.7203 0.0
H1160 H 0.42874 -0.00233 0.6367 0.0
H1161 H 0.41313 0.96862 0.611 0.0
H1162 H 0.46667 0.96326 0.62229 0.0
H1163 H 0.45771 0.88071 0.62517 0.0
H1164 H 0.40456 0.88556 0.61302 0.0
H1165 H 0.41219 0.85862 0.64028 0.0
H1166 H 0.32865 0.9477 0.70366 0.0
H1167 H 0.2632 0.95874 0.67984 0.0
H1168 H 0.33744 0.93757 0.61765 0.0
C1169 C 0.4845 0.93148 0.66955 0.0
C1170 C 0.49892 0.93652 0.69254 0.0
C1171 C 0.46902 0.93457 0.7109 0.0
C1172 C 0.42489 0.93238 0.70632 0.0
C1173 C 0.41144 0.93071 0.68336 0.0
C1174 C 0.44036 0.92825 0.66529 0.0
C1175 C 0.41751 0.92881 0.64214 0.0
C1176 C 0.43242 0.96686 0.62717 0.0
C1177 C 0.42333 0.88586 0.6294 0.0
C1178 C 0.37166 0.93453 0.65002 0.0
C1179 C 0.36876 0.93584 0.67385 0.0
C1180 C 0.33027 0.94539 0.685 0.0
C1181 C 0.2935 0.95227 0.67141 0.0
C1182 C 0.29573 0.94889 0.64709 0.0
C1183 C 0.33517 0.93998 0.63631 0.0
H1184 H 0.29407 0.0986 1.02849 0.0
H1185 H 0.18025 0.14237 0.06455 0.0
H1186 H 0.13838 0.13629 1.0286 0.0
H1187 H 0.27063 0.15689 0.97485 0.0
H1188 H 0.29126 0.11527 0.9563 0.0
H1189 H 0.31288 0.12222 0.98502 0.0
H1190 H 0.29569 0.0427 0.99419 0.0
H1191 H 0.27383 0.03557 0.96554 0.0
H1192 H 0.2416 0.02301 0.99047 0.0
H1193 H 0.10666 0.12056 0.98946 0.0
H1194 H 0.08976 0.10491 0.94844 0.0
H1195 H 0.22409 0.07812 0.9357 0.0
C1196 C 0.26042 0.10715 1.02876 0.0
C1197 C 0.24066 0.1209 0.04959 0.0
C1198 C 0.19648 0.13191 0.04901 0.0
C1199 C 0.17218 0.12838 1.0286 0.0
C1200 C 0.19234 0.11447 1.0085 0.0
C1201 C 0.23562 0.10475 1.00822 0.0
C1202 C 0.24934 0.09191 0.9839 0.0
C1203 C 0.28303 0.12346 0.97446 0.0
C1204 C 0.26611 0.04554 0.98351 0.0
C1205 C 0.207 0.09562 0.97074 0.0
C1206 C 0.17444 0.10804 0.98542 0.0
C1207 C 0.13204 0.11145 0.97772 0.0
C1208 C 0.12266 0.10237 0.95439 0.0
C1209 C 0.15555 0.09092 0.93876 0.0
C1210 C 0.19834 0.08761 0.94714 0.0
H1211 H 0.72082 0.41768 0.21016 0.0
H1212 H 0.58642 0.40288 0.19185 0.0
H1213 H 0.56568 0.43543 0.22906 0.0
H1214 H 0.71048 0.39977 0.27244 0.0
H1215 H 0.74884 0.44085 0.28021 0.0
H1216 H 0.75353 0.41315 0.25295 0.0
H1217 H 0.75236 0.48591 0.2315 0.0
H1218 H 0.74734 0.51388 0.25867 0.0
H1219 H 0.70826 0.52223 0.23607 0.0
H1220 H 0.55875 0.46953 0.26813 0.0
H1221 H 0.56608 0.50482 0.3062 0.0
H1222 H 0.7046 0.50505 0.29886 0.0
C1223 C 0.68706 0.42087 0.21412 0.0
C1224 C 0.65522 0.40733 0.19799 0.0
C1225 C 0.61142 0.4127 0.20383 0.0
C1226 C 0.59928 0.43129 0.22497 0.0
C1227 C 0.63124 0.4453 0.24018 0.0
C1228 C 0.67428 0.44061 0.23505 0.0
C1229 C 0.70192 0.46067 0.25409 0.0
C1230 C 0.73037 0.42657 0.2656 0.0
C1231 C 0.72908 0.49788 0.2445 0.0
C1232 C 0.66768 0.47702 0.27071 0.0
C1233 C 0.62717 0.46733 0.26233 0.0
C1234 C 0.59031 0.47755 0.27477 0.0
C1235 C 0.59479 0.4977 0.29641 0.0
C1236 C 0.63577 0.50836 0.30548 0.0
C1237 C 0.67274 0.49817 0.29224 0.0
H1238 H 0.21492 0.90723 0.53084 0.0
H1239 H 0.33331 0.8938 0.5698 0.0
H1240 H 0.37511 0.90621 0.53419 0.0
H1241 H 0.25255 0.8504 0.48031 0.0
H1242 H 0.22388 0.88389 0.46014 0.0
H1243 H 0.20342 0.87622 0.48893 0.0
H1244 H 0.20261 0.95861 0.49509 0.0
H1245 H 0.22343 0.96649 0.46637 0.0
H1246 H 0.25128 0.98908 0.49094 0.0
H1247 H 0.40467 0.92281 0.49379 0.0
H1248 H 0.41845 0.93212 0.45178 0.0
H1249 H 0.28141 0.92877 0.4387 0.0
C1250 C 0.24963 0.90695 0.53186 0.0
C1251 C 0.27071 0.8996 0.55325 0.0
C1252 C 0.31627 0.89908 0.5537 0.0
C1253 C 0.34039 0.90642 0.53353 0.0
C1254 C 0.31872 0.91369 0.51275 0.0
C1255 C 0.27432 0.91327 0.51171 0.0
C1256 C 0.25893 0.91948 0.48697 0.0
C1257 C 0.23318 0.88016 0.4786 0.0
C1258 C 0.2325 0.96088 0.48472 0.0
C1259 C 0.30148 0.92338 0.4743 0.0
C1260 C 0.33566 0.9208 0.4895 0.0
C1261 C 0.37805 0.92455 0.48176 0.0
C1262 C 0.38567 0.93011 0.45788 0.0
C1263 C 0.35115 0.93094 0.44191 0.0
C1264 C 0.30857 0.92792 0.45043 0.0
H1265 H 0.83646 0.52532 0.6969 0.0
H1266 H 0.84239 0.66186 0.71141 0.0
H1267 H 0.85221 0.64617 0.75307 0.0
H1268 H 0.77475 0.49819 0.74804 0.0
H1269 H 0.8011 0.44739 0.75235 0.0
H1270 H 0.79618 0.46931 0.72365 0.0
H1271 H 0.87855 0.46434 0.71851 0.0
H1272 H 0.88374 0.44255 0.74722 0.0
H1273 H 0.91349 0.49002 0.7393 0.0
H1274 H 0.8648 0.61534 0.79306 0.0
H1275 H 0.87139 0.57275 0.82875 0.0
H1276 H 0.85108 0.4557 0.78929 0.0
C1277 C 0.84007 0.55192 0.70884 0.0
C1278 C 0.83921 0.59495 0.70079 0.0
C1279 C 0.84309 0.62875 0.71709 0.0
C1280 C 0.84881 0.62009 0.7408 0.0
C1281 C 0.84973 0.57738 0.74814 0.0
C1282 C 0.84476 0.54383 0.73269 0.0
C1283 C 0.84491 0.5009 0.74526 0.0
C1284 C 0.80166 0.47758 0.74214 0.0
C1285 C 0.88241 0.4728 0.73708 0.0
C1286 C 0.85136 0.51545 0.77017 0.0
C1287 C 0.85454 0.55971 0.77135 0.0
C1288 C 0.86197 0.58072 0.7923 0.0
C1289 C 0.86585 0.5561 0.81255 0.0
C1290 C 0.86161 0.51072 0.81201 0.0
C1291 C 0.85422 0.49027 0.7904 0.0
H1292 H 0.84759 0.92238 0.12074 0.0
H1293 H 0.75113 0.85072 0.15889 0.0
H1294 H 0.71658 0.82947 0.12257 0.0
H1295 H 0.77732 0.96066 0.07588 0.0
H1296 H 0.81537 0.95437 0.05272 0.0
H1297 H 0.8341 0.96401 0.08179 0.0
H1298 H 0.88017 0.89513 0.07985 0.0
H1299 H 0.86149 0.88527 0.05077 0.0
H1300 H 0.85495 0.84463 0.07264 0.0
H1301 H 0.6879 0.81996 0.08271 0.0
H1302 H 0.67033 0.81908 0.04097 0.0
H1303 H 0.78668 0.89083 1.0267 0.0
C1304 C 0.81944 0.90194 0.12142 0.0
C1305 C 0.8025 0.8883 0.14301 0.0
C1306 C 0.76537 0.86161 0.14288 0.0
C1307 C 0.74518 0.84928 0.12221 0.0
C1308 C 0.76242 0.8632 0.10138 0.0
C1309 C 0.79895 0.88853 0.10066 0.0
C1310 C 0.81039 0.89864 0.07561 0.0
C1311 C 0.80922 0.94731 0.07125 0.0
C1312 C 0.85437 0.87979 0.06935 0.0
C1313 C 0.77427 0.87559 0.0626 0.0
C1314 C 0.74686 0.85565 0.07795 0.0
C1315 C 0.70958 0.83473 0.07047 0.0
C1316 C 0.69983 0.83429 0.04673 0.0
C1317 C 0.72759 0.85378 1.03052 0.0
C1318 C 0.76555 0.87442 1.03861 0.0
H1319 H 0.32477 0.50182 0.88304 0.0
H1320 H 0.33859 0.63758 0.86836 0.0
H1321 H 0.35233 0.62061 0.82721 0.0
H1322 H 0.4034 0.46116 0.84319 0.0
H1323 H 0.37183 0.41549 0.8341 0.0
H1324 H 0.36473 0.43774 0.86261 0.0
H1325 H 0.2836 0.44767 0.85451 0.0
H1326 H 0.29042 0.42515 0.82603 0.0
H1327 H 0.26672 0.47749 0.82941 0.0
H1328 H 0.36928 0.58891 0.78841 0.0
H1329 H 0.37759 0.54634 0.75293 0.0
H1330 H 0.3444 0.43044 0.79053 0.0
C1331 C 0.33079 0.52788 0.8711 0.0
C1332 C 0.33116 0.57113 0.87894 0.0
C1333 C 0.33828 0.60436 0.86276 0.0
C1334 C 0.34628 0.59495 0.83938 0.0
C1335 C 0.34595 0.5521 0.8322 0.0
C1336 C 0.33742 0.51909 0.84743 0.0
C1337 C 0.33643 0.47606 0.83477 0.0
C1338 C 0.37117 0.44583 0.84424 0.0
C1339 C 0.29163 0.45537 0.83627 0.0
C1340 C 0.34653 0.48999 0.81012 0.0
C1341 C 0.35256 0.53398 0.80926 0.0
C1342 C 0.3641 0.55455 0.78885 0.0
C1343 C 0.36901 0.52986 0.76872 0.0
C1344 C 0.3616 0.48487 0.76872 0.0
C1345 C 0.35009 0.46473 0.78984 0.0
H1346 H 0.67025 0.12588 0.6341 0.0
H1347 H 0.66639 0.98692 0.63874 0.0
H1348 H 0.70034 0.98165 0.60029 0.0
H1349 H 0.64433 0.12921 0.57194 0.0
H1350 H 0.6782 0.17514 0.56656 0.0
H1351 H 0.65372 0.1682 0.5945 0.0
H1352 H 0.72864 0.17283 0.61388 0.0
H1353 H 0.75338 0.17935 0.58599 0.0
H1354 H 0.77034 0.13656 0.60484 0.0
H1355 H 0.74195 0.99126 0.56332 0.0
H1356 H 0.7756 0.01456 0.52679 0.0
H1357 H 0.74551 0.147 0.54303 0.0
C1358 C 0.67631 0.09432 0.62696 0.0
C1359 C 0.66591 0.05672 0.63967 0.0
C1360 C 0.674 0.01615 0.62949 0.0
C1361 C 0.69358 0.01283 0.60768 0.0
C1362 C 0.70429 0.05037 0.59587 0.0
C1363 C 0.69492 0.09038 0.60483 0.0
C1364 C 0.70811 0.12554 0.58796 0.0
C1365 C 0.66874 0.15103 0.57975 0.0
C1366 C 0.74214 0.15533 0.59882 0.0
C1367 C 0.72704 0.09907 0.56833 0.0
C1368 C 0.72517 0.05579 0.57354 0.0
C1369 C 0.7429 0.025 0.5589 0.0
C1370 C 0.76227 0.03859 0.53825 0.0
C1371 C 0.76307 0.08251 0.53197 0.0
C1372 C 0.74506 0.11315 0.54727 0.0
H1373 H 0.16311 0.38957 0.36133 0.0
H1374 H 0.12513 0.50202 0.40083 0.0
H1375 H 0.11338 0.54173 0.36497 0.0
H1376 H 0.21821 0.44679 0.31584 0.0
H1377 H 0.1996 0.4125 0.29271 0.0
H1378 H 0.20519 0.39137 0.32154 0.0
H1379 H 0.12573 0.3669 0.32077 0.0
H1380 H 0.11992 0.38799 0.29193 0.0
H1381 H 0.08434 0.40553 0.31454 0.0
H1382 H 0.10966 0.57209 0.32569 0.0
H1383 H 0.10957 0.58976 0.28416 0.0
H1384 H 0.14434 0.45846 0.26776 0.0
C1385 C 0.15212 0.42244 0.36239 0.0
C1386 C 0.14497 0.44228 0.38422 0.0
C1387 C 0.13058 0.4855 0.38461 0.0
C1388 C 0.12388 0.50867 0.36422 0.0
C1389 C 0.1311 0.48846 0.34315 0.0
C1390 C 0.14446 0.44625 0.3419 0.0
C1391 C 0.14921 0.43278 0.31662 0.0
C1392 C 0.19583 0.42011 0.31137 0.0
C1393 C 0.11793 0.39612 0.31061 0.0
C1394 C 0.1369 0.47415 0.30412 0.0
C1395 C 0.12696 0.5058 0.31995 0.0
C1396 C 0.1168 0.54743 0.31308 0.0
C1397 C 0.11688 0.55722 0.28942 0.0
C1398 C 0.12627 0.5255 0.27266 0.0
C1399 C 0.13609 0.48318 0.28014 0.0
H1400 H 0.74461 0.56667 0.44685 0.0
H1401 H 0.60873 0.58434 0.45965 0.0
H1402 H 0.62487 0.60154 0.50063 0.0
H1403 H 0.76769 0.51526 0.50258 0.0
H1404 H 0.82008 0.53958 0.50521 0.0
H1405 H 0.79777 0.52863 0.47701 0.0
H1406 H 0.80814 0.60845 0.46587 0.0
H1407 H 0.83011 0.61972 0.4941 0.0
H1408 H 0.78465 0.6497 0.48365 0.0
H1409 H 0.65642 0.62226 0.53947 0.0
H1410 H 0.69912 0.63572 0.57464 0.0
H1411 H 0.81496 0.59906 0.5382 0.0
C1412 C 0.7182 0.57395 0.45832 0.0
C1413 C 0.67526 0.57443 0.44994 0.0
C1414 C 0.64172 0.58362 0.46561 0.0
C1415 C 0.65068 0.59365 0.48891 0.0
C1416 C 0.69334 0.59355 0.49651 0.0
C1417 C 0.72652 0.58306 0.4818 0.0
C1418 C 0.76942 0.58404 0.49458 0.0
C1419 C 0.78995 0.53921 0.49486 0.0
C1420 C 0.79987 0.61747 0.48391 0.0
C1421 C 0.75534 0.59755 0.51869 0.0
C1422 C 0.71133 0.60329 0.51927 0.0
C1423 C 0.6908 0.6174 0.53923 0.0
C1424 C 0.71555 0.62529 0.55916 0.0
C1425 C 0.76062 0.61857 0.55938 0.0
C1426 C 0.78065 0.6044 0.53873 0.0
H1427 H 0.17281 0.98744 0.68806 0.0
H1428 H 0.15803 0.85092 0.70001 0.0
H1429 H 0.13616 0.8658 0.74046 0.0
H1430 H 0.21976 0.01018 0.74449 0.0
H1431 H 0.19483 0.0621 0.74697 0.0
H1432 H 0.20731 0.04059 0.71886 0.0
H1433 H 0.12793 0.04979 0.70643 0.0
H1434 H 0.11514 0.07097 0.73458 0.0
H1435 H 0.0861 0.02522 0.7234 0.0
H1436 H 0.11213 0.89647 0.77928 0.0
H1437 H 0.09865 0.93853 0.81474 0.0
H1438 H 0.13585 0.05504 0.77892 0.0
C1439 C 0.16481 0.96071 0.69921 0.0
C1440 C 0.16654 0.91794 0.6908 0.0
C1441 C 0.1568 0.88383 0.70605 0.0
C1442 C 0.14415 0.89207 0.72902 0.0
C1443 C 0.14235 0.93462 0.73672 0.0
C1444 C 0.15336 0.96833 0.7224 0.0
C1445 C 0.15137 0.01089 0.73534 0.0
C1446 C 0.19597 0.03219 0.73649 0.0
C1447 C 0.11815 0.04099 0.72427 0.0
C1448 C 0.13688 0.99602 0.75911 0.0
C1449 C 0.13122 0.95196 0.75941 0.0
C1450 C 0.11683 0.93091 0.77922 0.0
C1451 C 0.10891 0.95522 0.7993 0.0
C1452 C 0.11603 0.00023 0.79976 0.0
C1453 C 0.13003 0.02075 0.77922 0.0
H1454 H 0.76232 0.40979 0.94661 0.0
H1455 H 0.89874 0.41785 0.96111 0.0
H1456 H 0.88502 0.40011 1.00208 0.0
H1457 H 0.73011 0.46122 0.99991 0.0
H1458 H 0.6824 0.42906 1.00356 0.0
H1459 H 0.70284 0.43925 0.97498 0.0
H1460 H 0.70618 0.35749 0.96713 0.0
H1461 H 0.68581 0.34706 0.99572 0.0
H1462 H 0.73579 0.32349 0.98666 0.0
H1463 H 0.85699 0.38022 0.04141 0.0
H1464 H 0.81649 0.36728 0.07724 0.0
H1465 H 0.6968 0.37808 1.03904 0.0
C1466 C 0.78926 0.40732 0.9584 0.0
C1467 C 0.8318 0.41464 0.95054 0.0
C1468 C 0.86603 0.4122 0.96666 0.0
C1469 C 0.85852 0.402 0.98998 0.0
C1470 C 0.81638 0.39511 0.99723 0.0
C1471 C 0.78218 0.39828 0.98203 0.0
C1472 C 0.73984 0.39216 0.9948 0.0
C1473 C 0.71217 0.43285 0.99322 0.0
C1474 C 0.71547 0.3527 0.98552 0.0
C1475 C 0.75563 0.38479 1.01946 0.0
C1476 C 0.79997 0.38602 1.0203 0.0
C1477 C 0.82227 0.37937 0.04093 0.0
C1478 C 0.79885 0.37179 0.06126 0.0
C1479 C 0.75331 0.37152 0.06115 0.0
C1480 C 0.73153 0.37808 0.03981 0.0
H1481 H 0.39294 0.02781 0.294 0.0
H1482 H 0.30817 0.91705 0.28915 0.0
H1483 H 0.28214 0.94233 0.25142 0.0
H1484 H 0.32186 0.10418 0.26706 0.0
H1485 H 0.36329 0.1317 0.25115 0.0
H1486 H 0.37606 0.10555 0.27808 0.0
H1487 H 0.43479 0.06084 0.25776 0.0
H1488 H 0.4226 0.08727 0.23085 0.0
H1489 H 0.42098 0.0295 0.23254 0.0
H1490 H 0.2629 0.97984 0.21474 0.0
H1491 H 0.25818 0.02285 0.17907 0.0
H1492 H 0.35638 0.10914 0.20525 0.0
C1493 C 0.36921 0.00865 0.28491 0.0
C1494 C 0.35273 0.97022 0.29486 0.0
C1495 C 0.3216 0.9464 0.28219 0.0
C1496 C 0.3063 0.96067 0.26066 0.0
C1497 C 0.32248 -0.00113 0.25161 0.0
C1498 C 0.35376 0.02227 0.26307 0.0
C1499 C 0.36638 0.06163 0.24887 0.0
C1500 C 0.3563 0.10323 0.26208 0.0
C1501 C 0.41402 0.05968 0.2421 0.0
C1502 C 0.33728 0.05659 0.22773 0.0
C1503 C 0.3119 0.02032 0.22996 0.0
C1504 C 0.28256 0.00833 0.21285 0.0
C1505 C 0.27978 0.03321 0.19269 0.0
C1506 C 0.30601 0.0699 0.18954 0.0
C1507 C 0.33506 0.08192 0.20742 0.0
H1508 H 0.256 0.41398 0.63029 0.0
H1509 H 0.39169 0.39624 0.61718 0.0
H1510 H 0.37519 0.37749 0.57641 0.0
H1511 H 0.21499 0.33017 0.59349 0.0
H1512 H 0.1698 0.36076 0.5832 0.0
H1513 H 0.19201 0.37145 0.61145 0.0
H1514 H 0.20317 0.45134 0.60059 0.0
H1515 H 0.18055 0.44098 0.57241 0.0
H1516 H 0.23321 0.4647 0.575 0.0
H1517 H 0.34288 0.35734 0.53703 0.0
H1518 H 0.29951 0.3483 0.50142 0.0
H1519 H 0.18527 0.3847 0.53926 0.0
C1520 C 0.28225 0.40612 0.61882 0.0
C1521 C 0.32523 0.40623 0.62705 0.0
C1522 C 0.35861 0.39645 0.61135 0.0
C1523 C 0.34946 0.38548 0.58816 0.0
C1524 C 0.30673 0.3852 0.58068 0.0
C1525 C 0.27374 0.39618 0.59546 0.0
C1526 C 0.23084 0.39582 0.58278 0.0
C1527 C 0.2001 0.36257 0.59336 0.0
C1528 C 0.21077 0.44088 0.58269 0.0
C1529 C 0.24469 0.38245 0.55862 0.0
C1530 C 0.28852 0.37585 0.55785 0.0
C1531 C 0.30859 0.36268 0.53748 0.0
C1532 C 0.28355 0.35724 0.51732 0.0
C1533 C 0.23881 0.36552 0.51739 0.0
C1534 C 0.2193 0.37789 0.53853 0.0
H1535 H 0.82248 0.01698 0.39013 0.0
H1536 H 0.81699 0.15376 0.37697 0.0
H1537 H 0.82673 0.13966 0.33497 0.0
H1538 H 0.90135 0.98913 0.3488 0.0
H1539 H 0.87608 0.93934 0.34033 0.0
H1540 H 0.86807 0.96034 0.36902 0.0
H1541 H 0.78568 0.95844 0.36283 0.0
H1542 H 0.79343 0.93699 0.33419 0.0
H1543 H 0.76265 0.98533 0.33819 0.0
H1544 H 0.84228 0.10956 0.2942 0.0
H1545 H 0.85354 0.06714 0.25857 0.0
H1546 H 0.8443 0.94952 0.29832 0.0
C1547 C 0.8232 0.04405 0.37841 0.0
C1548 C 0.81942 0.08664 0.38692 0.0
C1549 C 0.81978 0.12097 0.37092 0.0
C1550 C 0.82551 0.11317 0.34703 0.0
C1551 C 0.82995 0.07076 0.3393 0.0
C1552 C 0.82794 0.03675 0.35455 0.0
C1553 C 0.83226 0.99408 0.34193 0.0
C1554 C 0.8718 0.96928 0.35054 0.0
C1555 C 0.79106 0.96712 0.34443 0.0
C1556 C 0.83818 0.0092 0.31719 0.0
C1557 C 0.83698 0.05356 0.31601 0.0
C1558 C 0.84289 0.07485 0.29503 0.0
C1559 C 0.84958 0.05038 0.27482 0.0
C1560 C 0.84998 0.00481 0.27547 0.0
C1561 C 0.84421 0.98421 0.2971 0.0
H1562 H 0.18214 0.52883 0.12024 0.0
H1563 H 0.14813 0.66145 0.13344 0.0
H1564 H 0.17481 0.68168 0.09483 0.0
H1565 H 0.28223 0.55458 0.09269 0.0
H1566 H 0.27965 0.51144 0.0719 0.0
H1567 H 0.25352 0.5059 0.09948 0.0
H1568 H 0.18147 0.48955 0.07886 0.0
H1569 H 0.20739 0.49486 0.05119 0.0
H1570 H 0.16092 0.52689 0.05779 0.0
H1571 H 0.20587 0.68839 0.05525 0.0
H1572 H 0.2418 0.68183 1.01748 0.0
H1573 H 0.26402 0.54654 1.03033 0.0
C1574 C 0.17983 0.56196 0.11484 0.0
C1575 C 0.16259 0.59356 0.12987 0.0
C1576 C 0.16078 0.63668 0.12222 0.0
C1577 C 0.17599 0.6485 0.1003 0.0
C1578 C 0.19396 0.61703 0.0862 0.0
C1579 C 0.1963 0.57465 0.09313 0.0
C1580 C 0.22006 0.54803 0.07511 0.0
C1581 C 0.26131 0.52885 0.08541 0.0
C1582 C 0.1907 0.51274 0.06514 0.0
C1583 C 0.23037 0.58203 0.05698 0.0
C1584 C 0.21448 0.62147 0.06375 0.0
C1585 C 0.21866 0.65773 0.04984 0.0
C1586 C 0.2392 0.65369 1.02838 0.0
C1587 C 0.25625 0.61389 1.02097 0.0
C1588 C 0.25204 0.5776 1.03566 0.0
H1589 H 0.66954 0.8832 0.87007 0.0
H1590 H 0.68328 -0.00053 0.91075 0.0
H1591 H 0.6726 0.04327 0.87567 0.0
H1592 H 0.72111 0.92398 0.81692 0.0
H1593 H 0.68387 0.89682 0.79791 0.0
H1594 H 0.69633 0.87432 0.82582 0.0
H1595 H 0.6154 0.87315 0.83585 0.0
H1596 H 0.60275 0.89602 0.80807 0.0
H1597 H 0.58495 0.92216 0.83415 0.0
H1598 H 0.65793 0.07494 0.83662 0.0
H1599 H 0.64091 0.09234 0.79598 0.0
H1600 H 0.63288 0.95628 0.78002 0.0
C1601 C 0.6712 0.91785 0.87139 0.0
C1602 C 0.67784 0.93805 0.89308 0.0
C1603 C 0.6786 0.98345 0.89428 0.0
C1604 C 0.67249 0.00859 0.87444 0.0
C1605 C 0.66505 0.98798 0.8534 0.0
C1606 C 0.66441 0.94365 0.85164 0.0
C1607 C 0.6536 0.92997 0.82699 0.0
C1608 C 0.69096 0.90478 0.81628 0.0
C1609 C 0.61168 0.90378 0.82623 0.0
C1610 C 0.64806 0.97342 0.81533 0.0
C1611 C 0.65513 0.00639 0.83089 0.0
C1612 C 0.6523 0.04935 0.82427 0.0
C1613 C 0.64247 0.05896 0.80111 0.0
C1614 C 0.63512 0.02585 0.78471 0.0
C1615 C 0.63773 0.98246 0.79211 0.0
loop_
_geom_bond_atom_site_label_1
_geom_bond_atom_site_label_2
_geom_bond_distance
_geom_bond_site_symmetry_2
_ccdc_geom_bond_type
Dy0 O4 2.398 . S
Dy0 O5 2.491 . S
Dy0 O6 2.403 . S
Dy0 O7 2.664 . S
Dy0 O11 2.326 . S
Dy0 O15 2.310 . S
Dy0 O16 2.351 . S
C1 O12 1.185 . S
C1 O13 1.355 . S
C2 O4 1.185 . S
C2 O5 1.355 . S
Dy3 O7 2.310 . S
Dy3 O10 2.351 . S
Dy3 O12 2.398 . S
Dy3 O13 2.491 . S
Dy3 O14 2.403 . S
Dy3 O15 2.664 . S
Dy3 O17 2.326 . S
O4 Dy0 2.398 . S
O4 C2 1.185 . S
O5 Dy0 2.491 . S
O5 C2 1.355 . S
O6 Dy0 2.403 . S
O6 C8 1.254 . S
O7 Dy0 2.664 . S
O7 Dy3 2.310 . S
O7 C8 1.268 . S
C8 O6 1.254 . S
C8 O7 1.268 . S
C9 O14 1.254 . S
C9 O15 1.268 . S
O10 Dy3 2.351 . S
O10 C18 1.249 . S
O11 Dy0 2.326 . S
O11 C18 1.267 . S
O12 C1 1.185 . S
O12 Dy3 2.398 . S
O13 C1 1.355 . S
O13 Dy3 2.491 . S
O14 Dy3 2.403 . S
O14 C9 1.254 . S
O15 Dy0 2.310 . S
O15 Dy3 2.664 . S
O15 C9 1.268 . S
O16 Dy0 2.351 . S
O16 C19 1.249 . S
O17 Dy3 2.326 . S
O17 C19 1.267 . S
C18 O10 1.249 . S
C18 O11 1.267 . S
C19 O16 1.249 . S
C19 O17 1.267 . S
Dy20 O24 2.398 . S
Dy20 O25 2.491 . S
Dy20 O26 2.403 . S
Dy20 O27 2.664 . S
Dy20 O31 2.326 . S
Dy20 O35 2.310 . S
Dy20 O36 2.351 . S
C21 O32 1.185 . S
C21 O33 1.355 . S
C22 O24 1.185 . S
C22 O25 1.355 . S
Dy23 O27 2.310 . S
Dy23 O30 2.351 . S
Dy23 O32 2.398 . S
Dy23 O33 2.491 . S
Dy23 O34 2.403 . S
Dy23 O35 2.664 . S
Dy23 O37 2.326 . S
O24 Dy20 2.398 . S
O24 C22 1.185 . S
O25 Dy20 2.491 . S
O25 C22 1.355 . S
O26 Dy20 2.403 . S
O26 C28 1.254 . S
O27 Dy20 2.664 . S
O27 Dy23 2.310 . S
O27 C28 1.268 . S
C28 O26 1.254 . S
C28 O27 1.268 . S
C29 O34 1.254 . S
C29 O35 1.268 . S
O30 Dy23 2.351 . S
O30 C38 1.249 . S
O31 Dy20 2.326 . S
O31 C38 1.267 . S
O32 C21 1.185 . S
O32 Dy23 2.398 . S
O33 C21 1.355 . S
O33 Dy23 2.491 . S
O34 Dy23 2.403 . S
O34 C29 1.254 . S
O35 Dy20 2.310 . S
O35 Dy23 2.664 . S
O35 C29 1.268 . S
O36 Dy20 2.351 . S
O36 C39 1.249 . S
O37 Dy23 2.326 . S
O37 C39 1.267 . S
C38 O30 1.249 . S
C38 O31 1.267 . S
C39 O36 1.249 . S
C39 O37 1.267 . S
Dy40 O44 2.398 . S
Dy40 O45 2.491 . S
Dy40 O46 2.403 . S
Dy40 O47 2.664 . S
Dy40 O51 2.326 . S
Dy40 O55 2.310 . S
Dy40 O56 2.351 . S
C41 O52 1.185 . S
C41 O53 1.355 . S
C42 O44 1.185 . S
C42 O45 1.355 . S
Dy43 O47 2.310 . S
Dy43 O50 2.351 . S
Dy43 O52 2.398 . S
Dy43 O53 2.491 . S
Dy43 O54 2.403 . S
Dy43 O55 2.664 . S
Dy43 O57 2.326 . S
O44 Dy40 2.398 . S
O44 C42 1.185 . S
O45 Dy40 2.491 . S
O45 C42 1.355 . S
O46 Dy40 2.403 . S
O46 C48 1.254 . S
O47 Dy40 2.664 . S
O47 Dy43 2.310 . S
O47 C48 1.268 . S
C48 O46 1.254 . S
C48 O47 1.268 . S
C49 O54 1.254 . S
C49 O55 1.268 . S
O50 Dy43 2.351 . S
O50 C58 1.249 . S
O51 Dy40 2.326 . S
O51 C58 1.267 . S
O52 C41 1.185 . S
O52 Dy43 2.398 . S
O53 C41 1.355 . S
O53 Dy43 2.491 . S
O54 Dy43 2.403 . S
O54 C49 1.254 . S
O55 Dy40 2.310 . S
O55 Dy43 2.664 . S
O55 C49 1.268 . S
O56 Dy40 2.351 . S
O56 C59 1.249 . S
O57 Dy43 2.326 . S
O57 C59 1.267 . S
C58 O50 1.249 . S
C58 O51 1.267 . S
C59 O56 1.249 . S
C59 O57 1.267 . S
Dy60 O64 2.404 . S
Dy60 O65 2.491 . S
Dy60 O66 2.403 . S
Dy60 O67 2.664 . S
Dy60 O71 2.326 . S
Dy60 O75 2.310 . S
Dy60 O76 2.351 . S
C61 O72 1.185 . S
C61 O73 1.355 . S
C62 O64 1.187 . S
C62 O65 1.355 . S
Dy63 O67 2.310 . S
Dy63 O70 2.351 . S
Dy63 O72 2.398 . S
Dy63 O73 2.491 . S
Dy63 O74 2.403 . S
Dy63 O75 2.664 . S
Dy63 O77 2.326 . S
O64 Dy60 2.404 . S
O64 C62 1.187 . S
O65 Dy60 2.491 . S
O65 C62 1.355 . S
O66 Dy60 2.403 . S
O66 C68 1.254 . S
O67 Dy60 2.664 . S
O67 Dy63 2.310 . S
O67 C68 1.268 . S
C68 O66 1.254 . S
C68 O67 1.268 . S
C69 O74 1.254 . S
C69 O75 1.268 . S
O70 Dy63 2.351 . S
O70 C78 1.249 . S
O71 Dy60 2.326 . S
O71 C78 1.267 . S
O72 C61 1.185 . S
O72 Dy63 2.398 . S
O73 C61 1.355 . S
O73 Dy63 2.491 . S
O74 Dy63 2.403 . S
O74 C69 1.254 . S
O75 Dy60 2.310 . S
O75 Dy63 2.664 . S
O75 C69 1.268 . S
O76 Dy60 2.351 . S
O76 C79 1.249 . S
O77 Dy63 2.326 . S
O77 C79 1.267 . S
C78 O70 1.249 . S
C78 O71 1.267 . S
C79 O76 1.249 . S
C79 O77 1.267 . S
Dy80 O84 2.398 . S
Dy80 O85 2.491 . S
Dy80 O86 2.403 . S
Dy80 O87 2.664 . S
Dy80 O91 2.326 . S
Dy80 O95 2.310 . S
Dy80 O96 2.351 . S
C81 O92 1.185 . S
C81 O93 1.355 . S
C82 O84 1.185 . S
C82 O85 1.355 . S
Dy83 O87 2.310 . S
Dy83 O90 2.351 . S
Dy83 O92 2.398 . S
Dy83 O93 2.491 . S
Dy83 O94 2.403 . S
Dy83 O95 2.664 . S
Dy83 O97 2.326 . S
O84 Dy80 2.398 . S
O84 C82 1.185 . S
O85 Dy80 2.491 . S
O85 C82 1.355 . S
O86 Dy80 2.403 . S
O86 C88 1.254 . S
O87 Dy80 2.664 . S
O87 Dy83 2.310 . S
O87 C88 1.268 . S
C88 O86 1.254 . S
C88 O87 1.268 . S
C89 O94 1.254 . S
C89 O95 1.268 . S
O90 Dy83 2.351 . S
O90 C98 1.249 . S
O91 Dy80 2.326 . S
O91 C98 1.267 . S
O92 C81 1.185 . S
O92 Dy83 2.398 . S
O93 C81 1.355 . S
O93 Dy83 2.491 . S
O94 Dy83 2.403 . S
O94 C89 1.254 . S
O95 Dy80 2.310 . S
O95 Dy83 2.664 . S
O95 C89 1.268 . S
O96 Dy80 2.351 . S
O96 C99 1.249 . S
O97 Dy83 2.326 . S
O97 C99 1.267 . S
C98 O90 1.249 . S
C98 O91 1.267 . S
C99 O96 1.249 . S
C99 O97 1.267 . S
Dy100 O104 2.398 . S
Dy100 O105 2.491 . S
Dy100 O106 2.403 . S
Dy100 O107 2.664 . S
Dy100 O111 2.326 . S
Dy100 O115 2.310 . S
Dy100 O116 2.351 . S
C101 O112 1.185 . S
C101 O113 1.355 . S
C102 O104 1.185 . S
C102 O105 1.355 . S
Dy103 O107 2.310 . S
Dy103 O110 2.351 . S
Dy103 O112 2.398 . S
Dy103 O113 2.491 . S
Dy103 O114 2.403 . S
Dy103 O115 2.664 . S
Dy103 O117 2.326 . S
O104 Dy100 2.398 . S
O104 C102 1.185 . S
O105 Dy100 2.491 . S
O105 C102 1.355 . S
O106 Dy100 2.403 . S
O106 C108 1.254 . S
O107 Dy100 2.664 . S
O107 Dy103 2.310 . S
O107 C108 1.268 . S
C108 O106 1.254 . S
C108 O107 1.268 . S
C109 O114 1.254 . S
C109 O115 1.268 . S
O110 Dy103 2.351 . S
O110 C118 1.249 . S
O111 Dy100 2.326 . S
O111 C118 1.267 . S
O112 C101 1.185 . S
O112 Dy103 2.398 . S
O113 C101 1.355 . S
O113 Dy103 2.491 . S
O114 Dy103 2.403 . S
O114 C109 1.254 . S
O115 Dy100 2.310 . S
O115 Dy103 2.664 . S
O115 C109 1.268 . S
O116 Dy100 2.351 . S
O116 C119 1.249 . S
O117 Dy103 2.326 . S
O117 C119 1.267 . S
C118 O110 1.249 . S
C118 O111 1.267 . S
C119 O116 1.249 . S
C119 O117 1.267 . S
Dy120 O124 2.398 . S
Dy120 O125 2.491 . S
Dy120 O126 2.403 . S
Dy120 O127 2.664 . S
Dy120 O131 2.326 . S
Dy120 O135 2.310 . S
Dy120 O136 2.351 . S
C121 O132 1.185 . S
C121 O133 1.355 . S
C122 O124 1.185 . S
C122 O125 1.355 . S
Dy123 O127 2.310 . S
Dy123 O130 2.351 . S
Dy123 O132 2.398 . S
Dy123 O133 2.491 . S
Dy123 O134 2.403 . S
Dy123 O135 2.664 . S
Dy123 O137 2.326 . S
O124 Dy120 2.398 . S
O124 C122 1.185 . S
O125 Dy120 2.491 . S
O125 C122 1.355 . S
O126 Dy120 2.403 . S
O126 C128 1.254 . S
O127 Dy120 2.664 . S
O127 Dy123 2.310 . S
O127 C128 1.268 . S
C128 O126 1.254 . S
C128 O127 1.268 . S
C129 O134 1.254 . S
C129 O135 1.268 . S
O130 Dy123 2.351 . S
O130 C138 1.249 . S
O131 Dy120 2.326 . S
O131 C138 1.267 . S
O132 C121 1.185 . S
O132 Dy123 2.398 . S
O133 C121 1.355 . S
O133 Dy123 2.491 . S
O134 Dy123 2.403 . S
O134 C129 1.254 . S
O135 Dy120 2.310 . S
O135 Dy123 2.664 . S
O135 C129 1.268 . S
O136 Dy120 2.351 . S
O136 C139 1.249 . S
O137 Dy123 2.326 . S
O137 C139 1.267 . S
C138 O130 1.249 . S
C138 O131 1.267 . S
C139 O136 1.249 . S
C139 O137 1.267 . S
Dy140 O144 2.398 . S
Dy140 O145 2.491 . S
Dy140 O146 2.403 . S
Dy140 O147 2.664 . S
Dy140 O151 2.326 . S
Dy140 O155 2.310 . S
Dy140 O156 2.351 . S
C141 O152 1.187 . S
C141 O153 1.355 . S
C142 O144 1.185 . S
C142 O145 1.355 . S
Dy143 O147 2.310 . S
Dy143 O150 2.351 . S
Dy143 O152 2.404 . S
Dy143 O153 2.491 . S
Dy143 O154 2.403 . S
Dy143 O155 2.664 . S
Dy143 O157 2.326 . S
O144 Dy140 2.398 . S
O144 C142 1.185 . S
O145 Dy140 2.491 . S
O145 C142 1.355 . S
O146 Dy140 2.403 . S
O146 C148 1.254 . S
O147 Dy140 2.664 . S
O147 Dy143 2.310 . S
O147 C148 1.268 . S
C148 O146 1.254 . S
C148 O147 1.268 . S
C149 O154 1.254 . S
C149 O155 1.268 . S
O150 Dy143 2.351 . S
O150 C158 1.249 . S
O151 Dy140 2.326 . S
O151 C158 1.267 . S
O152 C141 1.187 . S
O152 Dy143 2.404 . S
O153 C141 1.355 . S
O153 Dy143 2.491 . S
O154 Dy143 2.403 . S
O154 C149 1.254 . S
O155 Dy140 2.310 . S
O155 Dy143 2.664 . S
O155 C149 1.268 . S
O156 Dy140 2.351 . S
O156 C159 1.249 . S
O157 Dy143 2.326 . S
O157 C159 1.267 . S
C158 O150 1.249 . S
C158 O151 1.267 . S
C159 O156 1.249 . S
C159 O157 1.267 . S
Dy160 O164 2.398 . S
Dy160 O165 2.491 . S
Dy160 O166 2.403 . S
Dy160 O167 2.664 . S
Dy160 O171 2.326 . S
Dy160 O175 2.310 . S
Dy160 O176 2.351 . S
C161 O172 1.185 . S
C161 O173 1.355 . S
C162 O164 1.185 . S
C162 O165 1.355 . S
Dy163 O167 2.310 . S
Dy163 O170 2.351 . S
Dy163 O172 2.398 . S
Dy163 O173 2.491 . S
Dy163 O174 2.403 . S
Dy163 O175 2.664 . S
Dy163 O177 2.326 . S
O164 Dy160 2.398 . S
O164 C162 1.185 . S
O165 Dy160 2.491 . S
O165 C162 1.355 . S
O166 Dy160 2.403 . S
O166 C168 1.254 . S
O167 Dy160 2.664 . S
O167 Dy163 2.310 . S
O167 C168 1.268 . S
C168 O166 1.254 . S
C168 O167 1.268 . S
C169 O174 1.254 . S
C169 O175 1.268 . S
O170 Dy163 2.351 . S
O170 C178 1.249 . S
O171 Dy160 2.326 . S
O171 C178 1.267 . S
O172 C161 1.185 . S
O172 Dy163 2.398 . S
O173 C161 1.355 . S
O173 Dy163 2.491 . S
O174 Dy163 2.403 . S
O174 C169 1.254 . S
O175 Dy160 2.310 . S
O175 Dy163 2.664 . S
O175 C169 1.268 . S
O176 Dy160 2.351 . S
O176 C179 1.249 . S
O177 Dy163 2.326 . S
O177 C179 1.267 . S
C178 O170 1.249 . S
C178 O171 1.267 . S
C179 O176 1.249 . S
C179 O177 1.267 . S
Dy180 O184 2.404 . S
Dy180 O185 2.491 1_545 S
Dy180 O186 2.403 . S
Dy180 O187 2.664 . S
Dy180 O191 2.326 . S
Dy180 O195 2.310 . S
Dy180 O196 2.351 . S
C181 O192 1.185 . S
C181 O193 1.355 . S
C182 O184 1.187 1_565 S
C182 O185 1.355 . S
Dy183 O187 2.310 . S
Dy183 O190 2.351 . S
Dy183 O192 2.398 . S
Dy183 O193 2.491 . S
Dy183 O194 2.403 . S
Dy183 O195 2.664 . S
Dy183 O197 2.326 . S
O184 Dy180 2.404 . S
O184 C182 1.187 1_545 S
O185 Dy180 2.491 1_565 S
O185 C182 1.355 . S
O186 Dy180 2.403 . S
O186 C188 1.254 . S
O187 Dy180 2.664 . S
O187 Dy183 2.310 . S
O187 C188 1.268 . S
C188 O186 1.254 . S
C188 O187 1.268 . S
C189 O194 1.242 1_565 S
C189 O195 1.257 1_565 S
O190 Dy183 2.351 . S
O190 C198 1.249 . S
O191 Dy180 2.326 . S
O191 C198 1.267 . S
O192 C181 1.185 . S
O192 Dy183 2.398 . S
O193 C181 1.355 . S
O193 Dy183 2.491 . S
O194 Dy183 2.403 . S
O194 C189 1.242 1_545 S
O195 Dy180 2.310 . S
O195 Dy183 2.664 . S
O195 C189 1.257 1_545 S
O196 Dy180 2.351 . S
O196 C199 1.249 . S
O197 Dy183 2.326 . S
O197 C199 1.267 . S
C198 O190 1.249 . S
C198 O191 1.267 . S
C199 O196 1.249 . S
C199 O197 1.267 . S
Dy200 O204 2.398 . S
Dy200 O205 2.491 . S
Dy200 O206 2.403 . S
Dy200 O207 2.664 . S
Dy200 O211 2.326 . S
Dy200 O215 2.310 . S
Dy200 O216 2.351 . S
C201 O212 1.185 . S
C201 O213 1.355 . S
C202 O204 1.185 . S
C202 O205 1.355 . S
Dy203 O207 2.310 . S
Dy203 O210 2.351 . S
Dy203 O212 2.398 . S
Dy203 O213 2.491 . S
Dy203 O214 2.403 . S
Dy203 O215 2.664 . S
Dy203 O217 2.326 . S
O204 Dy200 2.398 . S
O204 C202 1.185 . S
O205 Dy200 2.491 . S
O205 C202 1.355 . S
O206 Dy200 2.403 . S
O206 C208 1.254 . S
O207 Dy200 2.664 . S
O207 Dy203 2.310 . S
O207 C208 1.268 . S
C208 O206 1.254 . S
C208 O207 1.268 . S
C209 O214 1.254 . S
C209 O215 1.268 . S
O210 Dy203 2.351 . S
O210 C218 1.249 . S
O211 Dy200 2.326 . S
O211 C218 1.267 . S
O212 C201 1.185 . S
O212 Dy203 2.398 . S
O213 C201 1.355 . S
O213 Dy203 2.491 . S
O214 Dy203 2.403 . S
O214 C209 1.254 . S
O215 Dy200 2.310 . S
O215 Dy203 2.664 . S
O215 C209 1.268 . S
O216 Dy200 2.351 . S
O216 C219 1.249 . S
O217 Dy203 2.326 . S
O217 C219 1.267 . S
C218 O210 1.249 . S
C218 O211 1.267 . S
C219 O216 1.249 . S
C219 O217 1.267 . S
Dy220 O224 2.398 . S
Dy220 O225 2.491 1_565 S
Dy220 O226 2.403 . S
Dy220 O227 2.664 . S
Dy220 O231 2.326 . S
Dy220 O235 2.310 . S
Dy220 O236 2.351 . S
C221 O232 1.185 . S
C221 O233 1.355 . S
C222 O224 1.185 1_545 S
C222 O225 1.355 . S
Dy223 O227 2.310 . S
Dy223 O230 2.351 . S
Dy223 O232 2.398 . S
Dy223 O233 2.491 . S
Dy223 O234 2.403 . S
Dy223 O235 2.664 . S
Dy223 O237 2.326 . S
O224 Dy220 2.398 . S
O224 C222 1.185 1_565 S
O225 Dy220 2.491 1_545 S
O225 C222 1.355 . S
O226 Dy220 2.403 . S
O226 C228 1.254 . S
O227 Dy220 2.664 . S
O227 Dy223 2.310 . S
O227 C228 1.268 . S
C228 O226 1.254 . S
C228 O227 1.268 . S
C229 O234 1.242 1_545 S
C229 O235 1.257 1_545 S
O230 Dy223 2.351 . S
O230 C238 1.249 . S
O231 Dy220 2.326 . S
O231 C238 1.267 . S
O232 C221 1.185 . S
O232 Dy223 2.398 . S
O233 C221 1.355 . S
O233 Dy223 2.491 . S
O234 Dy223 2.403 . S
O234 C229 1.242 1_565 S
O235 Dy220 2.310 . S
O235 Dy223 2.664 . S
O235 C229 1.257 1_565 S
O236 Dy220 2.351 . S
O236 C239 1.249 . S
O237 Dy223 2.326 . S
O237 C239 1.267 . S
C238 O230 1.249 . S
C238 O231 1.267 . S
C239 O236 1.249 . S
C239 O237 1.267 . S
Dy240 O244 2.398 . S
Dy240 O245 2.491 . S
Dy240 O246 2.403 . S
Dy240 O247 2.664 . S
Dy240 O251 2.326 . S
Dy240 O255 2.310 . S
Dy240 O256 2.351 . S
C241 O252 1.185 . S
C241 O253 1.355 . S
C242 O244 1.185 . S
C242 O245 1.355 . S
Dy243 O247 2.310 . S
Dy243 O250 2.351 . S
Dy243 O252 2.398 . S
Dy243 O253 2.491 . S
Dy243 O254 2.403 . S
Dy243 O255 2.664 . S
Dy243 O257 2.326 . S
O244 Dy240 2.398 . S
O244 C242 1.185 . S
O245 Dy240 2.491 . S
O245 C242 1.355 . S
O246 Dy240 2.403 . S
O246 C248 1.254 . S
O247 Dy240 2.664 . S
O247 Dy243 2.310 . S
O247 C248 1.268 . S
C248 O246 1.254 . S
C248 O247 1.268 . S
C249 O254 1.254 . S
C249 O255 1.268 . S
O250 Dy243 2.351 . S
O250 C258 1.249 . S
O251 Dy240 2.326 . S
O251 C258 1.267 . S
O252 C241 1.185 . S
O252 Dy243 2.398 . S
O253 C241 1.355 . S
O253 Dy243 2.491 . S
O254 Dy243 2.403 . S
O254 C249 1.254 . S
O255 Dy240 2.310 . S
O255 Dy243 2.664 . S
O255 C249 1.268 . S
O256 Dy240 2.351 . S
O256 C259 1.249 . S
O257 Dy243 2.326 . S
O257 C259 1.267 . S
C258 O250 1.249 . S
C258 O251 1.267 . S
C259 O256 1.249 . S
C259 O257 1.267 . S
Dy260 O264 2.398 . S
Dy260 O265 2.491 . S
Dy260 O266 2.403 . S
Dy260 O267 2.664 . S
Dy260 O271 2.326 . S
Dy260 O275 2.310 . S
Dy260 O276 2.351 . S
C261 O272 1.187 1_545 S
C261 O273 1.355 . S
C262 O264 1.185 . S
C262 O265 1.355 . S
Dy263 O267 2.310 . S
Dy263 O270 2.351 . S
Dy263 O272 2.404 . S
Dy263 O273 2.491 1_565 S
Dy263 O274 2.403 . S
Dy263 O275 2.664 . S
Dy263 O277 2.326 . S
O264 Dy260 2.398 . S
O264 C262 1.185 . S
O265 Dy260 2.491 . S
O265 C262 1.355 . S
O266 Dy260 2.403 . S
O266 C268 1.242 1_565 S
O267 Dy260 2.664 . S
O267 Dy263 2.310 . S
O267 C268 1.257 1_565 S
C268 O266 1.242 1_545 S
C268 O267 1.257 1_545 S
C269 O274 1.254 . S
C269 O275 1.268 . S
O270 Dy263 2.351 . S
O270 C278 1.249 . S
O271 Dy260 2.326 . S
O271 C278 1.267 . S
O272 C261 1.187 1_565 S
O272 Dy263 2.404 . S
O273 C261 1.355 . S
O273 Dy263 2.491 1_545 S
O274 Dy263 2.403 . S
O274 C269 1.254 . S
O275 Dy260 2.310 . S
O275 Dy263 2.664 . S
O275 C269 1.268 . S
O276 Dy260 2.351 . S
O276 C279 1.249 . S
O277 Dy263 2.326 . S
O277 C279 1.267 . S
C278 O270 1.249 . S
C278 O271 1.267 . S
C279 O276 1.249 . S
C279 O277 1.267 . S
Dy280 O284 2.398 . S
Dy280 O285 2.491 . S
Dy280 O286 2.403 . S
Dy280 O287 2.664 . S
Dy280 O291 2.326 . S
Dy280 O295 2.310 . S
Dy280 O296 2.351 . S
C281 O292 1.185 . S
C281 O293 1.355 . S
C282 O284 1.185 . S
C282 O285 1.355 . S
Dy283 O287 2.310 . S
Dy283 O290 2.351 . S
Dy283 O292 2.398 . S
Dy283 O293 2.491 . S
Dy283 O294 2.403 . S
Dy283 O295 2.664 . S
Dy283 O297 2.326 . S
O284 Dy280 2.398 . S
O284 C282 1.185 . S
O285 Dy280 2.491 . S
O285 C282 1.355 . S
O286 Dy280 2.403 . S
O286 C288 1.254 . S
O287 Dy280 2.664 . S
O287 Dy283 2.310 . S
O287 C288 1.268 . S
C288 O286 1.254 . S
C288 O287 1.268 . S
C289 O294 1.254 . S
C289 O295 1.268 . S
O290 Dy283 2.351 . S
O290 C298 1.249 . S
O291 Dy280 2.326 . S
O291 C298 1.267 . S
O292 C281 1.185 . S
O292 Dy283 2.398 . S
O293 C281 1.355 . S
O293 Dy283 2.491 . S
O294 Dy283 2.403 . S
O294 C289 1.254 . S
O295 Dy280 2.310 . S
O295 Dy283 2.664 . S
O295 C289 1.268 . S
O296 Dy280 2.351 . S
O296 C299 1.249 . S
O297 Dy283 2.326 . S
O297 C299 1.267 . S
C298 O290 1.249 . S
C298 O291 1.267 . S
C299 O296 1.249 . S
C299 O297 1.267 . S
Dy300 O304 2.398 . S
Dy300 O305 2.491 . S
Dy300 O306 2.403 . S
Dy300 O307 2.664 . S
Dy300 O311 2.326 . S
Dy300 O315 2.310 . S
Dy300 O316 2.351 . S
C301 O312 1.185 1_565 S
C301 O313 1.355 . S
C302 O304 1.185 . S
C302 O305 1.355 . S
Dy303 O307 2.310 . S
Dy303 O310 2.351 . S
Dy303 O312 2.398 . S
Dy303 O313 2.491 1_545 S
Dy303 O314 2.403 . S
Dy303 O315 2.664 . S
Dy303 O317 2.326 . S
O304 Dy300 2.398 . S
O304 C302 1.185 . S
O305 Dy300 2.491 . S
O305 C302 1.355 . S
O306 Dy300 2.403 . S
O306 C308 1.242 1_545 S
O307 Dy300 2.664 . S
O307 Dy303 2.310 . S
O307 C308 1.257 1_545 S
C308 O306 1.242 1_565 S
C308 O307 1.257 1_565 S
C309 O314 1.254 . S
C309 O315 1.268 . S
O310 Dy303 2.351 . S
O310 C318 1.249 . S
O311 Dy300 2.326 . S
O311 C318 1.267 . S
O312 C301 1.185 1_545 S
O312 Dy303 2.398 . S
O313 C301 1.355 . S
O313 Dy303 2.491 1_565 S
O314 Dy303 2.403 . S
O314 C309 1.254 . S
O315 Dy300 2.310 . S
O315 Dy303 2.664 . S
O315 C309 1.268 . S
O316 Dy300 2.351 . S
O316 C319 1.249 . S
O317 Dy303 2.326 . S
O317 C319 1.267 . S
C318 O310 1.249 . S
C318 O311 1.267 . S
C319 O316 1.249 . S
C319 O317 1.267 . S
H320 C332 0.930 . S
H321 C334 0.930 . S
H322 C335 0.930 . S
H323 C339 0.959 . S
H324 C339 0.959 . S
H325 C339 0.961 . S
H326 C340 0.960 . S
H327 C340 0.961 . S
H328 C340 0.959 . S
H329 C343 0.929 . S
H330 C344 0.931 . S
H331 C346 0.930 . S
C332 H320 0.930 . S
C332 C333 1.399 . S
C332 C337 1.399 . S
C333 C332 1.399 . S
C333 C334 1.376 . S
C334 H321 0.930 . S
C334 C333 1.376 . S
C334 C335 1.388 . S
C335 H322 0.930 . S
C335 C334 1.388 . S
C335 C336 1.390 . S
C336 C335 1.390 . S
C336 C337 1.394 . S
C336 C342 1.465 . S
C337 C332 1.399 . S
C337 C336 1.394 . S
C337 C338 1.516 . S
C338 C337 1.516 . S
C338 C339 1.502 . S
C338 C340 1.561 . S
C338 C341 1.526 . S
C339 H323 0.959 . S
C339 H324 0.959 . S
C339 H325 0.961 . S
C339 C338 1.502 . S
C340 H326 0.960 . S
C340 H327 0.961 . S
C340 H328 0.959 . S
C340 C338 1.561 . S
C341 C338 1.526 . S
C341 C342 1.396 . S
C341 C346 1.390 . S
C342 C336 1.465 . S
C342 C341 1.396 . S
C342 C343 1.399 . S
C343 H329 0.929 . S
C343 C342 1.399 . S
C343 C344 1.385 . S
C344 H330 0.931 . S
C344 C343 1.385 . S
C344 C345 1.389 . S
C345 C344 1.389 . S
C345 C346 1.387 . S
C346 H331 0.930 . S
C346 C341 1.390 . S
C346 C345 1.387 . S
H347 C359 0.930 . S
H348 C361 0.930 . S
H349 C362 0.930 . S
H350 C366 0.959 . S
H351 C366 0.959 . S
H352 C366 0.961 . S
H353 C367 0.960 . S
H354 C367 0.961 . S
H355 C367 0.959 . S
H356 C370 0.929 . S
H357 C371 0.931 . S
H358 C373 0.930 . S
C359 H347 0.930 . S
C359 C360 1.399 . S
C359 C364 1.399 . S
C360 C359 1.399 . S
C360 C361 1.376 . S
C361 H348 0.930 . S
C361 C360 1.376 . S
C361 C362 1.388 . S
C362 H349 0.930 . S
C362 C361 1.388 . S
C362 C363 1.390 . S
C363 C362 1.390 . S
C363 C364 1.394 . S
C363 C369 1.465 . S
C364 C359 1.399 . S
C364 C363 1.394 . S
C364 C365 1.516 . S
C365 C364 1.516 . S
C365 C366 1.502 . S
C365 C367 1.561 . S
C365 C368 1.526 . S
C366 H350 0.959 . S
C366 H351 0.959 . S
C366 H352 0.961 . S
C366 C365 1.502 . S
C367 H353 0.960 . S
C367 H354 0.961 . S
C367 H355 0.959 . S
C367 C365 1.561 . S
C368 C365 1.526 . S
C368 C369 1.396 . S
C368 C373 1.390 . S
C369 C363 1.465 . S
C369 C368 1.396 . S
C369 C370 1.399 . S
C370 H356 0.929 . S
C370 C369 1.399 . S
C370 C371 1.385 . S
C371 H357 0.931 . S
C371 C370 1.385 . S
C371 C372 1.389 . S
C372 C371 1.389 . S
C372 C373 1.387 . S
C373 H358 0.930 . S
C373 C368 1.390 . S
C373 C372 1.387 . S
H374 C386 0.930 . S
H375 C388 0.930 . S
H376 C389 0.930 . S
H377 C393 0.959 . S
H378 C393 0.959 . S
H379 C393 0.961 . S
H380 C394 0.960 . S
H381 C394 0.961 1_655 S
H382 C394 0.959 . S
H383 C397 0.929 . S
H384 C398 0.931 . S
H385 C400 0.930 . S
C386 H374 0.930 . S
C386 C387 1.399 . S
C386 C391 1.399 . S
C387 C386 1.399 . S
C387 C388 1.376 . S
C388 H375 0.930 . S
C388 C387 1.376 . S
C388 C389 1.388 . S
C389 H376 0.930 . S
C389 C388 1.388 . S
C389 C390 1.390 . S
C390 C389 1.390 . S
C390 C391 1.394 . S
C390 C396 1.465 1_455 S
C391 C386 1.399 . S
C391 C390 1.394 . S
C391 C392 1.516 1_455 S
C392 C391 1.516 1_655 S
C392 C393 1.502 . S
C392 C394 1.561 1_655 S
C392 C395 1.526 . S
C393 H377 0.959 . S
C393 H378 0.959 . S
C393 H379 0.961 . S
C393 C392 1.502 . S
C394 H380 0.960 . S
C394 H381 0.961 1_455 S
C394 H382 0.959 . S
C394 C392 1.561 1_455 S
C395 C392 1.526 . S
C395 C396 1.396 . S
C395 C400 1.390 . S
C396 C390 1.465 1_655 S
C396 C395 1.396 . S
C396 C397 1.399 . S
C397 H383 0.929 . S
C397 C396 1.399 . S
C397 C398 1.385 . S
C398 H384 0.931 . S
C398 C397 1.385 . S
C398 C399 1.389 . S
C399 C398 1.389 . S
C399 C400 1.387 . S
C400 H385 0.930 . S
C400 C395 1.390 . S
C400 C399 1.387 . S
H401 C413 0.913 1_655 S
H402 C415 0.930 . S
H403 C416 0.930 . S
H404 C420 0.959 . S
H405 C420 0.959 . S
H406 C420 0.961 . S
H407 C421 0.960 . S
H408 C421 0.961 . S
H409 C421 0.959 . S
H410 C424 0.929 . S
H411 C425 0.931 . S
H412 C427 0.930 . S
C413 H401 0.913 1_455 S
C413 C414 1.399 . S
C413 C418 1.399 . S
C414 C413 1.399 . S
C414 C415 1.376 . S
C415 H402 0.930 . S
C415 C414 1.376 . S
C415 C416 1.388 . S
C416 H403 0.930 . S
C416 C415 1.388 . S
C416 C417 1.390 . S
C417 C416 1.390 . S
C417 C418 1.394 . S
C417 C423 1.465 . S
C418 C413 1.399 . S
C418 C417 1.394 . S
C418 C419 1.516 1_455 S
C419 C418 1.516 1_655 S
C419 C420 1.502 . S
C419 C421 1.561 . S
C419 C422 1.526 . S
C420 H404 0.959 . S
C420 H405 0.959 . S
C420 H406 0.961 . S
C420 C419 1.502 . S
C421 H407 0.960 . S
C421 H408 0.961 . S
C421 H409 0.959 . S
C421 C419 1.561 . S
C422 C419 1.526 . S
C422 C423 1.396 1_655 S
C422 C427 1.390 . S
C423 C417 1.465 . S
C423 C422 1.396 1_455 S
C423 C424 1.399 . S
C424 H410 0.929 . S
C424 C423 1.399 . S
C424 C425 1.385 1_455 S
C425 H411 0.931 . S
C425 C424 1.385 1_655 S
C425 C426 1.389 . S
C426 C425 1.389 . S
C426 C427 1.387 . S
C427 H412 0.930 . S
C427 C422 1.390 . S
C427 C426 1.387 . S
H428 C440 0.930 . S
H429 C442 0.930 . S
H430 C443 0.930 . S
H431 C447 0.959 . S
H432 C447 0.959 . S
H433 C447 0.961 . S
H434 C448 0.960 . S
H435 C448 0.961 . S
H436 C448 0.959 . S
H437 C451 0.929 . S
H438 C452 0.931 . S
H439 C454 0.930 . S
C440 H428 0.930 . S
C440 C441 1.399 . S
C440 C445 1.399 . S
C441 C440 1.399 . S
C441 C442 1.376 . S
C442 H429 0.930 . S
C442 C441 1.376 . S
C442 C443 1.388 . S
C443 H430 0.930 . S
C443 C442 1.388 . S
C443 C444 1.390 . S
C444 C443 1.390 . S
C444 C445 1.394 . S
C444 C450 1.465 . S
C445 C440 1.399 . S
C445 C444 1.394 . S
C445 C446 1.516 . S
C446 C445 1.516 . S
C446 C447 1.502 . S
C446 C448 1.561 . S
C446 C449 1.526 . S
C447 H431 0.959 . S
C447 H432 0.959 . S
C447 H433 0.961 . S
C447 C446 1.502 . S
C448 H434 0.960 . S
C448 H435 0.961 . S
C448 H436 0.959 . S
C448 C446 1.561 . S
C449 C446 1.526 . S
C449 C450 1.396 . S
C449 C454 1.390 . S
C450 C444 1.465 . S
C450 C449 1.396 . S
C450 C451 1.399 . S
C451 H437 0.929 . S
C451 C450 1.399 . S
C451 C452 1.385 . S
C452 H438 0.931 . S
C452 C451 1.385 . S
C452 C453 1.389 . S
C453 C452 1.389 . S
C453 C454 1.387 . S
C454 H439 0.930 . S
C454 C449 1.390 . S
C454 C453 1.387 . S
H455 C467 0.930 . S
H456 C469 0.930 . S
H457 C470 0.930 . S
H458 C474 0.959 . S
H459 C474 0.959 . S
H460 C474 0.961 . S
H461 C475 0.960 . S
H462 C475 0.961 . S
H463 C475 0.959 . S
H464 C478 0.929 . S
H465 C479 0.931 . S
H466 C481 0.930 . S
C467 H455 0.930 . S
C467 C468 1.399 . S
C467 C472 1.399 . S
C468 C467 1.399 . S
C468 C469 1.376 . S
C469 H456 0.930 . S
C469 C468 1.376 . S
C469 C470 1.388 . S
C470 H457 0.930 . S
C470 C469 1.388 . S
C470 C471 1.390 . S
C471 C470 1.390 . S
C471 C472 1.394 . S
C471 C477 1.465 . S
C472 C467 1.399 . S
C472 C471 1.394 . S
C472 C473 1.516 . S
C473 C472 1.516 . S
C473 C474 1.502 . S
C473 C475 1.561 . S
C473 C476 1.526 . S
C474 H458 0.959 . S
C474 H459 0.959 . S
C474 H460 0.961 . S
C474 C473 1.502 . S
C475 H461 0.960 . S
C475 H462 0.961 . S
C475 H463 0.959 . S
C475 C473 1.561 . S
C476 C473 1.526 . S
C476 C477 1.396 . S
C476 C481 1.390 . S
C477 C471 1.465 . S
C477 C476 1.396 . S
C477 C478 1.399 . S
C478 H464 0.929 . S
C478 C477 1.399 . S
C478 C479 1.385 . S
C479 H465 0.931 . S
C479 C478 1.385 . S
C479 C480 1.389 . S
C480 C479 1.389 . S
C480 C481 1.387 . S
C481 H466 0.930 . S
C481 C476 1.390 . S
C481 C480 1.387 . S
H482 C494 0.930 . S
H483 C496 0.930 . S
H484 C497 0.930 . S
H485 C501 0.959 . S
H486 C501 0.959 . S
H487 C501 0.961 . S
H488 C502 0.960 . S
H489 C502 0.961 1_655 S
H490 C502 0.959 . S
H491 C505 0.929 . S
H492 C506 0.931 . S
H493 C508 0.930 . S
C494 H482 0.930 . S
C494 C495 1.399 . S
C494 C499 1.399 . S
C495 C494 1.399 . S
C495 C496 1.376 . S
C496 H483 0.930 . S
C496 C495 1.376 . S
C496 C497 1.388 . S
C497 H484 0.930 . S
C497 C496 1.388 . S
C497 C498 1.390 . S
C498 C497 1.390 . S
C498 C499 1.394 . S
C498 C504 1.465 1_455 S
C499 C494 1.399 . S
C499 C498 1.394 . S
C499 C500 1.516 1_455 S
C500 C499 1.516 1_655 S
C500 C501 1.502 . S
C500 C502 1.561 1_655 S
C500 C503 1.526 . S
C501 H485 0.959 . S
C501 H486 0.959 . S
C501 H487 0.961 . S
C501 C500 1.502 . S
C502 H488 0.960 . S
C502 H489 0.961 1_455 S
C502 H490 0.959 . S
C502 C500 1.561 1_455 S
C503 C500 1.526 . S
C503 C504 1.396 . S
C503 C508 1.390 . S
C504 C498 1.465 1_655 S
C504 C503 1.396 . S
C504 C505 1.399 . S
C505 H491 0.929 . S
C505 C504 1.399 . S
C505 C506 1.385 . S
C506 H492 0.931 . S
C506 C505 1.385 . S
C506 C507 1.389 . S
C507 C506 1.389 . S
C507 C508 1.387 . S
C508 H493 0.930 . S
C508 C503 1.390 . S
C508 C507 1.387 . S
H509 C521 0.930 . S
H510 C523 0.930 . S
H511 C524 0.930 . S
H512 C528 0.959 . S
H513 C528 0.959 . S
H514 C528 0.961 . S
H515 C529 0.960 . S
H516 C529 0.961 1_655 S
H517 C529 0.959 . S
H518 C532 0.929 1_455 S
H519 C533 0.931 . S
H520 C535 0.930 . S
C521 H509 0.930 . S
C521 C522 1.399 . S
C521 C526 1.399 . S
C522 C521 1.399 . S
C522 C523 1.376 . S
C523 H510 0.930 . S
C523 C522 1.376 . S
C523 C524 1.388 . S
C524 H511 0.930 . S
C524 C523 1.388 . S
C524 C525 1.390 . S
C525 C524 1.390 . S
C525 C526 1.394 . S
C525 C531 1.465 1_455 S
C526 C521 1.399 . S
C526 C525 1.394 . S
C526 C527 1.516 1_455 S
C527 C526 1.516 1_655 S
C527 C528 1.502 . S
C527 C529 1.561 1_655 S
C527 C530 1.526 . S
C528 H512 0.959 . S
C528 H513 0.959 . S
C528 H514 0.961 . S
C528 C527 1.502 . S
C529 H515 0.960 . S
C529 H516 0.961 1_455 S
C529 H517 0.959 . S
C529 C527 1.561 1_455 S
C530 C527 1.526 . S
C530 C531 1.396 . S
C530 C535 1.390 . S
C531 C525 1.465 1_655 S
C531 C530 1.396 . S
C531 C532 1.399 . S
C532 H518 0.929 1_655 S
C532 C531 1.399 . S
C532 C533 1.385 . S
C533 H519 0.931 . S
C533 C532 1.385 . S
C533 C534 1.389 . S
C534 C533 1.389 . S
C534 C535 1.387 . S
C535 H520 0.930 . S
C535 C530 1.390 . S
C535 C534 1.387 . S
H536 C548 0.930 . S
H537 C550 0.930 . S
H538 C551 0.930 . S
H539 C555 0.959 . S
H540 C555 0.959 . S
H541 C555 0.961 . S
H542 C556 0.960 . S
H543 C556 0.961 1_556 S
H544 C556 0.959 . S
H545 C559 0.929 . S
H546 C560 0.931 . S
H547 C562 0.930 . S
C548 H536 0.930 . S
C548 C549 1.399 . S
C548 C553 1.399 . S
C549 C548 1.399 . S
C549 C550 1.376 1_545 S
C550 H537 0.930 . S
C550 C549 1.376 1_565 S
C550 C551 1.388 . S
C551 H538 0.930 . S
C551 C550 1.388 . S
C551 C552 1.390 . S
C552 C551 1.390 . S
C552 C553 1.394 1_565 S
C552 C558 1.465 . S
C553 C548 1.399 . S
C553 C552 1.394 1_545 S
C553 C554 1.516 1_554 S
C554 C553 1.516 1_556 S
C554 C555 1.502 . S
C554 C556 1.561 1_556 S
C554 C557 1.526 . S
C555 H539 0.959 . S
C555 H540 0.959 . S
C555 H541 0.961 . S
C555 C554 1.502 . S
C556 H542 0.960 . S
C556 H543 0.961 1_554 S
C556 H544 0.959 . S
C556 C554 1.561 1_554 S
C557 C554 1.526 . S
C557 C558 1.396 1_546 S
C557 C562 1.390 . S
C558 C552 1.465 . S
C558 C557 1.396 1_564 S
C558 C559 1.399 . S
C559 H545 0.929 . S
C559 C558 1.399 . S
C559 C560 1.385 1_554 S
C560 H546 0.931 . S
C560 C559 1.385 1_556 S
C560 C561 1.389 . S
C561 C560 1.389 . S
C561 C562 1.387 1_565 S
C562 H547 0.930 . S
C562 C557 1.390 . S
C562 C561 1.387 1_545 S
H563 C575 0.930 . S
H564 C577 0.930 . S
H565 C578 0.930 . S
H566 C582 0.959 . S
H567 C582 0.959 . S
H568 C582 0.961 . S
H569 C583 0.960 . S
H570 C583 0.961 . S
H571 C583 0.959 . S
H572 C586 0.929 . S
H573 C587 0.931 . S
H574 C589 0.930 . S
C575 H563 0.930 . S
C575 C576 1.399 . S
C575 C580 1.399 . S
C576 C575 1.399 . S
C576 C577 1.376 . S
C577 H564 0.930 . S
C577 C576 1.376 . S
C577 C578 1.388 . S
C578 H565 0.930 . S
C578 C577 1.388 . S
C578 C579 1.390 . S
C579 C578 1.390 . S
C579 C580 1.394 . S
C579 C585 1.465 . S
C580 C575 1.399 . S
C580 C579 1.394 . S
C580 C581 1.516 . S
C581 C580 1.516 . S
C581 C582 1.502 . S
C581 C583 1.561 . S
C581 C584 1.526 . S
C582 H566 0.959 . S
C582 H567 0.959 . S
C582 H568 0.961 . S
C582 C581 1.502 . S
C583 H569 0.960 . S
C583 H570 0.961 . S
C583 H571 0.959 . S
C583 C581 1.561 . S
C584 C581 1.526 . S
C584 C585 1.396 . S
C584 C589 1.390 . S
C585 C579 1.465 . S
C585 C584 1.396 . S
C585 C586 1.399 . S
C586 H572 0.929 . S
C586 C585 1.399 . S
C586 C587 1.385 . S
C587 H573 0.931 . S
C587 C586 1.385 . S
C587 C588 1.389 . S
C588 C587 1.389 . S
C588 C589 1.387 . S
C589 H574 0.930 . S
C589 C584 1.390 . S
C589 C588 1.387 . S
H590 C602 0.930 . S
H591 C604 0.930 . S
H592 C605 0.930 . S
H593 C609 0.959 . S
H594 C609 0.959 1_655 S
H595 C609 0.961 . S
H596 C610 0.960 . S
H597 C610 0.961 . S
H598 C610 0.959 . S
H599 C613 0.929 . S
H600 C614 0.931 . S
H601 C616 0.930 . S
C602 H590 0.930 . S
C602 C603 1.399 . S
C602 C607 1.399 . S
C603 C602 1.399 . S
C603 C604 1.376 1_565 S
C604 H591 0.930 . S
C604 C603 1.376 1_545 S
C604 C605 1.388 . S
C605 H592 0.930 . S
C605 C604 1.388 . S
C605 C606 1.390 . S
C606 C605 1.390 . S
C606 C607 1.394 1_545 S
C606 C612 1.465 1_455 S
C607 C602 1.399 . S
C607 C606 1.394 1_565 S
C607 C608 1.516 1_455 S
C608 C607 1.516 1_655 S
C608 C609 1.502 1_655 S
C608 C610 1.561 . S
C608 C611 1.526 . S
C609 H593 0.959 . S
C609 H594 0.959 1_455 S
C609 H595 0.961 . S
C609 C608 1.502 1_455 S
C610 H596 0.960 . S
C610 H597 0.961 . S
C610 H598 0.959 . S
C610 C608 1.561 . S
C611 C608 1.526 . S
C611 C612 1.396 1_565 S
C611 C616 1.390 . S
C612 C606 1.465 1_655 S
C612 C611 1.396 1_545 S
C612 C613 1.399 . S
C613 H599 0.929 . S
C613 C612 1.399 . S
C613 C614 1.385 . S
C614 H600 0.931 . S
C614 C613 1.385 . S
C614 C615 1.389 . S
C615 C614 1.389 . S
C615 C616 1.387 1_545 S
C616 H601 0.930 . S
C616 C611 1.390 . S
C616 C615 1.387 1_565 S
H617 C629 0.930 . S
H618 C631 0.930 . S
H619 C632 0.930 . S
H620 C636 0.959 . S
H621 C636 0.959 . S
H622 C636 0.961 . S
H623 C637 0.960 . S
H624 C637 0.961 . S
H625 C637 0.959 . S
H626 C640 0.929 . S
H627 C641 0.931 . S
H628 C643 0.930 . S
C629 H617 0.930 . S
C629 C630 1.399 . S
C629 C634 1.399 . S
C630 C629 1.399 . S
C630 C631 1.376 . S
C631 H618 0.930 . S
C631 C630 1.376 . S
C631 C632 1.388 . S
C632 H619 0.930 . S
C632 C631 1.388 . S
C632 C633 1.390 . S
C633 C632 1.390 . S
C633 C634 1.394 . S
C633 C639 1.465 . S
C634 C629 1.399 . S
C634 C633 1.394 . S
C634 C635 1.516 . S
C635 C634 1.516 . S
C635 C636 1.502 . S
C635 C637 1.561 . S
C635 C638 1.526 . S
C636 H620 0.959 . S
C636 H621 0.959 . S
C636 H622 0.961 . S
C636 C635 1.502 . S
C637 H623 0.960 . S
C637 H624 0.961 . S
C637 H625 0.959 . S
C637 C635 1.561 . S
C638 C635 1.526 . S
C638 C639 1.396 . S
C638 C643 1.390 . S
C639 C633 1.465 . S
C639 C638 1.396 . S
C639 C640 1.399 . S
C640 H626 0.929 . S
C640 C639 1.399 . S
C640 C641 1.385 . S
C641 H627 0.931 . S
C641 C640 1.385 . S
C641 C642 1.389 . S
C642 C641 1.389 . S
C642 C643 1.387 . S
C643 H628 0.930 . S
C643 C638 1.390 . S
C643 C642 1.387 . S
H644 C656 0.930 . S
H645 C658 0.930 . S
H646 C659 0.930 . S
H647 C663 0.959 . S
H648 C663 0.959 . S
H649 C663 0.961 . S
H650 C664 0.960 . S
H651 C664 0.961 . S
H652 C664 0.959 . S
H653 C667 0.929 . S
H654 C668 0.931 . S
H655 C670 0.930 . S
C656 H644 0.930 . S
C656 C657 1.399 . S
C656 C661 1.399 . S
C657 C656 1.399 . S
C657 C658 1.376 . S
C658 H645 0.930 . S
C658 C657 1.376 . S
C658 C659 1.388 . S
C659 H646 0.930 . S
C659 C658 1.388 . S
C659 C660 1.390 . S
C660 C659 1.390 . S
C660 C661 1.394 . S
C660 C666 1.465 . S
C661 C656 1.399 . S
C661 C660 1.394 . S
C661 C662 1.516 . S
C662 C661 1.516 . S
C662 C663 1.502 . S
C662 C664 1.561 . S
C662 C665 1.526 . S
C663 H647 0.959 . S
C663 H648 0.959 . S
C663 H649 0.961 . S
C663 C662 1.502 . S
C664 H650 0.960 . S
C664 H651 0.961 . S
C664 H652 0.959 . S
C664 C662 1.561 . S
C665 C662 1.526 . S
C665 C666 1.396 . S
C665 C670 1.390 . S
C666 C660 1.465 . S
C666 C665 1.396 . S
C666 C667 1.399 . S
C667 H653 0.929 . S
C667 C666 1.399 . S
C667 C668 1.385 . S
C668 H654 0.931 . S
C668 C667 1.385 . S
C668 C669 1.389 . S
C669 C668 1.389 . S
C669 C670 1.387 . S
C670 H655 0.930 . S
C670 C665 1.390 . S
C670 C669 1.387 . S
H671 C683 0.930 . S
H672 C685 0.930 . S
H673 C686 0.930 . S
H674 C690 0.959 . S
H675 C690 0.959 . S
H676 C690 0.961 . S
H677 C691 0.960 . S
H678 C691 0.961 . S
H679 C691 0.959 . S
H680 C694 0.929 . S
H681 C695 0.931 . S
H682 C697 0.930 . S
C683 H671 0.930 . S
C683 C684 1.399 . S
C683 C688 1.399 . S
C684 C683 1.399 . S
C684 C685 1.376 . S
C685 H672 0.930 . S
C685 C684 1.376 . S
C685 C686 1.388 . S
C686 H673 0.930 . S
C686 C685 1.388 . S
C686 C687 1.390 . S
C687 C686 1.390 . S
C687 C688 1.394 . S
C687 C693 1.465 . S
C688 C683 1.399 . S
C688 C687 1.394 . S
C688 C689 1.516 . S
C689 C688 1.516 . S
C689 C690 1.502 . S
C689 C691 1.561 . S
C689 C692 1.526 . S
C690 H674 0.959 . S
C690 H675 0.959 . S
C690 H676 0.961 . S
C690 C689 1.502 . S
C691 H677 0.960 . S
C691 H678 0.961 . S
C691 H679 0.959 . S
C691 C689 1.561 . S
C692 C689 1.526 . S
C692 C693 1.396 . S
C692 C697 1.390 . S
C693 C687 1.465 . S
C693 C692 1.396 . S
C693 C694 1.399 . S
C694 H680 0.929 . S
C694 C693 1.399 . S
C694 C695 1.385 . S
C695 H681 0.931 . S
C695 C694 1.385 . S
C695 C696 1.389 . S
C696 C695 1.389 . S
C696 C697 1.387 . S
C697 H682 0.930 . S
C697 C692 1.390 . S
C697 C696 1.387 . S
H698 C710 0.930 . S
H699 C712 0.930 . S
H700 C713 0.930 . S
H701 C717 0.959 . S
H702 C717 0.959 . S
H703 C717 0.961 . S
H704 C718 0.960 . S
H705 C718 0.961 1_655 S
H706 C718 0.959 . S
H707 C721 0.929 . S
H708 C722 0.931 . S
H709 C724 0.930 . S
C710 H698 0.930 . S
C710 C711 1.399 . S
C710 C715 1.399 . S
C711 C710 1.399 . S
C711 C712 1.376 . S
C712 H699 0.930 . S
C712 C711 1.376 . S
C712 C713 1.388 . S
C713 H700 0.930 . S
C713 C712 1.388 . S
C713 C714 1.390 . S
C714 C713 1.390 . S
C714 C715 1.394 . S
C714 C720 1.465 1_455 S
C715 C710 1.399 . S
C715 C714 1.394 . S
C715 C716 1.516 1_455 S
C716 C715 1.516 1_655 S
C716 C717 1.502 . S
C716 C718 1.561 1_655 S
C716 C719 1.526 . S
C717 H701 0.959 . S
C717 H702 0.959 . S
C717 H703 0.961 . S
C717 C716 1.502 . S
C718 H704 0.960 . S
C718 H705 0.961 1_455 S
C718 H706 0.959 . S
C718 C716 1.561 1_455 S
C719 C716 1.526 . S
C719 C720 1.396 . S
C719 C724 1.390 . S
C720 C714 1.465 1_655 S
C720 C719 1.396 . S
C720 C721 1.399 . S
C721 H707 0.929 . S
C721 C720 1.399 . S
C721 C722 1.385 . S
C722 H708 0.931 . S
C722 C721 1.385 . S
C722 C723 1.389 . S
C723 C722 1.389 . S
C723 C724 1.387 . S
C724 H709 0.930 . S
C724 C719 1.390 . S
C724 C723 1.387 . S
H725 C737 0.930 . S
H726 C739 0.930 . S
H727 C740 0.930 . S
H728 C744 0.959 . S
H729 C744 0.959 . S
H730 C744 0.961 . S
H731 C745 0.960 . S
H732 C745 0.961 1_556 S
H733 C745 0.959 . S
H734 C748 0.929 1_554 S
H735 C749 0.931 . S
H736 C751 0.930 . S
C737 H725 0.930 . S
C737 C738 1.399 . S
C737 C742 1.399 . S
C738 C737 1.399 . S
C738 C739 1.376 . S
C739 H726 0.930 . S
C739 C738 1.376 . S
C739 C740 1.388 . S
C740 H727 0.930 . S
C740 C739 1.388 . S
C740 C741 1.390 . S
C741 C740 1.390 . S
C741 C742 1.394 . S
C741 C747 1.468 1_554 S
C742 C737 1.399 . S
C742 C741 1.394 . S
C742 C743 1.516 1_554 S
C743 C742 1.516 1_556 S
C743 C744 1.502 . S
C743 C745 1.561 1_556 S
C743 C746 1.526 . S
C744 H728 0.959 . S
C744 H729 0.959 . S
C744 H730 0.961 . S
C744 C743 1.502 . S
C745 H731 0.960 . S
C745 H732 0.961 1_554 S
C745 H733 0.959 . S
C745 C743 1.561 1_554 S
C746 C743 1.526 . S
C746 C747 1.394 . S
C746 C751 1.390 . S
C747 C741 1.468 1_556 S
C747 C746 1.394 . S
C747 C748 1.398 . S
C748 H734 0.929 1_556 S
C748 C747 1.398 . S
C748 C749 1.385 . S
C749 H735 0.931 . S
C749 C748 1.385 . S
C749 C750 1.389 . S
C750 C749 1.389 . S
C750 C751 1.387 . S
C751 H736 0.930 . S
C751 C746 1.390 . S
C751 C750 1.387 . S
H752 C764 0.930 . S
H753 C766 0.930 . S
H754 C767 0.930 . S
H755 C771 0.959 . S
H756 C771 0.959 . S
H757 C771 0.961 . S
H758 C772 0.960 . S
H759 C772 0.961 . S
H760 C772 0.959 . S
H761 C775 0.929 . S
H762 C776 0.931 . S
H763 C778 0.930 . S
C764 H752 0.930 . S
C764 C765 1.399 . S
C764 C769 1.399 . S
C765 C764 1.399 . S
C765 C766 1.376 . S
C766 H753 0.930 . S
C766 C765 1.376 . S
C766 C767 1.388 . S
C767 H754 0.930 . S
C767 C766 1.388 . S
C767 C768 1.390 . S
C768 C767 1.390 . S
C768 C769 1.394 . S
C768 C774 1.465 . S
C769 C764 1.399 . S
C769 C768 1.394 . S
C769 C770 1.516 . S
C770 C769 1.516 . S
C770 C771 1.502 . S
C770 C772 1.561 . S
C770 C773 1.526 . S
C771 H755 0.959 . S
C771 H756 0.959 . S
C771 H757 0.961 . S
C771 C770 1.502 . S
C772 H758 0.960 . S
C772 H759 0.961 . S
C772 H760 0.959 . S
C772 C770 1.561 . S
C773 C770 1.526 . S
C773 C774 1.396 . S
C773 C778 1.390 . S
C774 C768 1.465 . S
C774 C773 1.396 . S
C774 C775 1.399 . S
C775 H761 0.929 . S
C775 C774 1.399 . S
C775 C776 1.385 . S
C776 H762 0.931 . S
C776 C775 1.385 . S
C776 C777 1.389 . S
C777 C776 1.389 . S
C777 C778 1.387 . S
C778 H763 0.930 . S
C778 C773 1.390 . S
C778 C777 1.387 . S
H779 C791 0.930 . S
H780 C793 0.930 . S
H781 C794 0.930 . S
H782 C798 0.959 . S
H783 C798 0.959 . S
H784 C798 0.961 . S
H785 C799 0.960 . S
H786 C799 0.961 . S
H787 C799 0.959 . S
H788 C802 0.929 . S
H789 C803 0.931 . S
H790 C805 0.930 . S
C791 H779 0.930 . S
C791 C792 1.399 . S
C791 C796 1.399 . S
C792 C791 1.399 . S
C792 C793 1.376 . S
C793 H780 0.930 . S
C793 C792 1.376 . S
C793 C794 1.388 . S
C794 H781 0.930 . S
C794 C793 1.388 . S
C794 C795 1.390 . S
C795 C794 1.390 . S
C795 C796 1.394 . S
C795 C801 1.465 . S
C796 C791 1.399 . S
C796 C795 1.394 . S
C796 C797 1.516 . S
C797 C796 1.516 . S
C797 C798 1.502 . S
C797 C799 1.561 . S
C797 C800 1.526 . S
C798 H782 0.959 . S
C798 H783 0.959 . S
C798 H784 0.961 . S
C798 C797 1.502 . S
C799 H785 0.960 . S
C799 H786 0.961 . S
C799 H787 0.959 . S
C799 C797 1.561 . S
C800 C797 1.526 . S
C800 C801 1.396 . S
C800 C805 1.390 . S
C801 C795 1.465 . S
C801 C800 1.396 . S
C801 C802 1.399 . S
C802 H788 0.929 . S
C802 C801 1.399 . S
C802 C803 1.385 . S
C803 H789 0.931 . S
C803 C802 1.385 . S
C803 C804 1.389 . S
C804 C803 1.389 . S
C804 C805 1.387 . S
C805 H790 0.930 . S
C805 C800 1.390 . S
C805 C804 1.387 . S
H806 C818 0.930 . S
H807 C820 0.930 . S
H808 C821 0.930 . S
H809 C825 0.959 . S
H810 C825 0.959 . S
H811 C825 0.961 . S
H812 C826 0.960 . S
H813 C826 0.961 . S
H814 C826 0.959 . S
H815 C829 0.929 . S
H816 C830 0.931 . S
H817 C832 0.930 . S
C818 H806 0.930 . S
C818 C819 1.399 . S
C818 C823 1.399 . S
C819 C818 1.399 . S
C819 C820 1.376 . S
C820 H807 0.930 . S
C820 C819 1.376 . S
C820 C821 1.388 . S
C821 H808 0.930 . S
C821 C820 1.388 . S
C821 C822 1.390 . S
C822 C821 1.390 . S
C822 C823 1.394 . S
C822 C828 1.465 . S
C823 C818 1.399 . S
C823 C822 1.394 . S
C823 C824 1.516 . S
C824 C823 1.516 . S
C824 C825 1.502 . S
C824 C826 1.561 . S
C824 C827 1.526 . S
C825 H809 0.959 . S
C825 H810 0.959 . S
C825 H811 0.961 . S
C825 C824 1.502 . S
C826 H812 0.960 . S
C826 H813 0.961 . S
C826 H814 0.959 . S
C826 C824 1.561 . S
C827 C824 1.526 . S
C827 C828 1.396 . S
C827 C832 1.390 . S
C828 C822 1.465 . S
C828 C827 1.396 . S
C828 C829 1.399 . S
C829 H815 0.929 . S
C829 C828 1.399 . S
C829 C830 1.385 . S
C830 H816 0.931 . S
C830 C829 1.385 . S
C830 C831 1.389 . S
C831 C830 1.389 . S
C831 C832 1.387 . S
C832 H817 0.930 . S
C832 C827 1.390 . S
C832 C831 1.387 . S
H833 C845 0.930 . S
H834 C847 0.930 . S
H835 C848 0.930 . S
H836 C852 0.959 . S
H837 C852 0.959 . S
H838 C852 0.961 . S
H839 C853 0.960 . S
H840 C853 0.961 . S
H841 C853 0.959 . S
H842 C856 0.929 . S
H843 C857 0.931 . S
H844 C859 0.930 . S
C845 H833 0.930 . S
C845 C846 1.399 . S
C845 C850 1.399 . S
C846 C845 1.399 . S
C846 C847 1.376 . S
C847 H834 0.930 . S
C847 C846 1.376 . S
C847 C848 1.388 . S
C848 H835 0.930 . S
C848 C847 1.388 . S
C848 C849 1.390 . S
C849 C848 1.390 . S
C849 C850 1.394 . S
C849 C855 1.465 . S
C850 C845 1.399 . S
C850 C849 1.394 . S
C850 C851 1.516 . S
C851 C850 1.516 . S
C851 C852 1.502 . S
C851 C853 1.561 . S
C851 C854 1.526 . S
C852 H836 0.959 . S
C852 H837 0.959 . S
C852 H838 0.961 . S
C852 C851 1.502 . S
C853 H839 0.960 . S
C853 H840 0.961 . S
C853 H841 0.959 . S
C853 C851 1.561 . S
C854 C851 1.526 . S
C854 C855 1.396 . S
C854 C859 1.390 . S
C855 C849 1.465 . S
C855 C854 1.396 . S
C855 C856 1.399 . S
C856 H842 0.929 . S
C856 C855 1.399 . S
C856 C857 1.385 . S
C857 H843 0.931 . S
C857 C856 1.385 . S
C857 C858 1.389 . S
C858 C857 1.389 . S
C858 C859 1.387 . S
C859 H844 0.930 . S
C859 C854 1.390 . S
C859 C858 1.387 . S
H860 C872 0.930 . S
H861 C874 0.930 . S
H862 C875 0.930 . S
H863 C879 0.959 . S
H864 C879 0.959 . S
H865 C879 0.961 . S
H866 C880 0.960 . S
H867 C880 0.961 . S
H868 C880 0.959 . S
H869 C883 0.929 . S
H870 C884 0.931 . S
H871 C886 0.930 . S
C872 H860 0.930 . S
C872 C873 1.399 . S
C872 C877 1.399 . S
C873 C872 1.399 . S
C873 C874 1.376 . S
C874 H861 0.930 . S
C874 C873 1.376 . S
C874 C875 1.388 . S
C875 H862 0.930 . S
C875 C874 1.388 . S
C875 C876 1.390 . S
C876 C875 1.390 . S
C876 C877 1.394 . S
C876 C882 1.465 . S
C877 C872 1.399 . S
C877 C876 1.394 . S
C877 C878 1.516 . S
C878 C877 1.516 . S
C878 C879 1.502 . S
C878 C880 1.561 . S
C878 C881 1.526 . S
C879 H863 0.959 . S
C879 H864 0.959 . S
C879 H865 0.961 . S
C879 C878 1.502 . S
C880 H866 0.960 . S
C880 H867 0.961 . S
C880 H868 0.959 . S
C880 C878 1.561 . S
C881 C878 1.526 . S
C881 C882 1.396 . S
C881 C886 1.390 . S
C882 C876 1.465 . S
C882 C881 1.396 . S
C882 C883 1.399 . S
C883 H869 0.929 . S
C883 C882 1.399 . S
C883 C884 1.385 . S
C884 H870 0.931 . S
C884 C883 1.385 . S
C884 C885 1.389 . S
C885 C884 1.389 . S
C885 C886 1.387 . S
C886 H871 0.930 . S
C886 C881 1.390 . S
C886 C885 1.387 . S
H887 C899 0.930 . S
H888 C901 0.930 . S
H889 C902 0.930 . S
H890 C906 0.959 . S
H891 C906 0.959 . S
H892 C906 0.961 . S
H893 C907 0.960 . S
H894 C907 0.961 . S
H895 C907 0.959 . S
H896 C910 0.929 . S
H897 C911 0.931 . S
H898 C913 0.930 . S
C899 H887 0.930 . S
C899 C900 1.399 . S
C899 C904 1.399 . S
C900 C899 1.399 . S
C900 C901 1.376 . S
C901 H888 0.930 . S
C901 C900 1.376 . S
C901 C902 1.388 . S
C902 H889 0.930 . S
C902 C901 1.388 . S
C902 C903 1.390 . S
C903 C902 1.390 . S
C903 C904 1.394 . S
C903 C909 1.465 . S
C904 C899 1.399 . S
C904 C903 1.394 . S
C904 C905 1.516 . S
C905 C904 1.516 . S
C905 C906 1.502 . S
C905 C907 1.561 . S
C905 C908 1.526 . S
C906 H890 0.959 . S
C906 H891 0.959 . S
C906 H892 0.961 . S
C906 C905 1.502 . S
C907 H893 0.960 . S
C907 H894 0.961 . S
C907 H895 0.959 . S
C907 C905 1.561 . S
C908 C905 1.526 . S
C908 C909 1.396 . S
C908 C913 1.390 . S
C909 C903 1.465 . S
C909 C908 1.396 . S
C909 C910 1.399 . S
C910 H896 0.929 . S
C910 C909 1.399 . S
C910 C911 1.385 . S
C911 H897 0.931 . S
C911 C910 1.385 . S
C911 C912 1.389 . S
C912 C911 1.389 . S
C912 C913 1.387 . S
C913 H898 0.930 . S
C913 C908 1.390 . S
C913 C912 1.387 . S
H914 C926 0.930 . S
H915 C928 0.930 . S
H916 C929 0.930 . S
H917 C933 0.959 . S
H918 C933 0.959 . S
H919 C933 0.961 . S
H920 C934 0.960 . S
H921 C934 0.961 . S
H922 C934 0.959 . S
H923 C937 0.929 . S
H924 C938 0.931 . S
H925 C940 0.930 . S
C926 H914 0.930 . S
C926 C927 1.399 . S
C926 C931 1.399 . S
C927 C926 1.399 . S
C927 C928 1.376 . S
C928 H915 0.930 . S
C928 C927 1.376 . S
C928 C929 1.388 . S
C929 H916 0.930 . S
C929 C928 1.388 . S
C929 C930 1.390 . S
C930 C929 1.390 . S
C930 C931 1.394 . S
C930 C936 1.465 . S
C931 C926 1.399 . S
C931 C930 1.394 . S
C931 C932 1.516 . S
C932 C931 1.516 . S
C932 C933 1.502 . S
C932 C934 1.561 . S
C932 C935 1.526 . S
C933 H917 0.959 . S
C933 H918 0.959 . S
C933 H919 0.961 . S
C933 C932 1.502 . S
C934 H920 0.960 . S
C934 H921 0.961 . S
C934 H922 0.959 . S
C934 C932 1.561 . S
C935 C932 1.526 . S
C935 C936 1.396 . S
C935 C940 1.390 . S
C936 C930 1.465 . S
C936 C935 1.396 . S
C936 C937 1.399 . S
C937 H923 0.929 . S
C937 C936 1.399 . S
C937 C938 1.385 . S
C938 H924 0.931 . S
C938 C937 1.385 . S
C938 C939 1.389 . S
C939 C938 1.389 . S
C939 C940 1.387 . S
C940 H925 0.930 . S
C940 C935 1.390 . S
C940 C939 1.387 . S
H941 C953 0.930 . S
H942 C955 0.930 . S
H943 C956 0.930 . S
H944 C960 0.959 . S
H945 C960 0.959 . S
H946 C960 0.961 . S
H947 C961 0.960 . S
H948 C961 0.961 . S
H949 C961 0.959 . S
H950 C964 0.929 . S
H951 C965 0.931 . S
H952 C967 0.930 . S
C953 H941 0.930 . S
C953 C954 1.399 . S
C953 C958 1.399 . S
C954 C953 1.399 . S
C954 C955 1.376 . S
C955 H942 0.930 . S
C955 C954 1.376 . S
C955 C956 1.388 . S
C956 H943 0.930 . S
C956 C955 1.388 . S
C956 C957 1.390 . S
C957 C956 1.390 . S
C957 C958 1.394 . S
C957 C963 1.465 . S
C958 C953 1.399 . S
C958 C957 1.394 . S
C958 C959 1.516 . S
C959 C958 1.516 . S
C959 C960 1.502 . S
C959 C961 1.561 . S
C959 C962 1.526 . S
C960 H944 0.959 . S
C960 H945 0.959 . S
C960 H946 0.961 . S
C960 C959 1.502 . S
C961 H947 0.960 . S
C961 H948 0.961 . S
C961 H949 0.959 . S
C961 C959 1.561 . S
C962 C959 1.526 . S
C962 C963 1.396 . S
C962 C967 1.390 . S
C963 C957 1.465 . S
C963 C962 1.396 . S
C963 C964 1.399 . S
C964 H950 0.929 . S
C964 C963 1.399 . S
C964 C965 1.385 . S
C965 H951 0.931 . S
C965 C964 1.385 . S
C965 C966 1.389 . S
C966 C965 1.389 . S
C966 C967 1.387 . S
C967 H952 0.930 . S
C967 C962 1.390 . S
C967 C966 1.387 . S
H968 C980 0.930 . S
H969 C982 0.930 . S
H970 C983 0.930 . S
H971 C987 0.959 . S
H972 C987 0.959 . S
H973 C987 0.961 . S
H974 C988 0.960 . S
H975 C988 0.961 . S
H976 C988 0.959 . S
H977 C991 0.929 . S
H978 C992 0.931 . S
H979 C994 0.930 . S
C980 H968 0.930 . S
C980 C981 1.399 . S
C980 C985 1.399 . S
C981 C980 1.399 . S
C981 C982 1.376 . S
C982 H969 0.930 . S
C982 C981 1.376 . S
C982 C983 1.388 . S
C983 H970 0.930 . S
C983 C982 1.388 . S
C983 C984 1.390 . S
C984 C983 1.390 . S
C984 C985 1.394 . S
C984 C990 1.465 . S
C985 C980 1.399 . S
C985 C984 1.394 . S
C985 C986 1.516 . S
C986 C985 1.516 . S
C986 C987 1.502 . S
C986 C988 1.561 . S
C986 C989 1.526 . S
C987 H971 0.959 . S
C987 H972 0.959 . S
C987 H973 0.961 . S
C987 C986 1.502 . S
C988 H974 0.960 . S
C988 H975 0.961 . S
C988 H976 0.959 . S
C988 C986 1.561 . S
C989 C986 1.526 . S
C989 C990 1.396 . S
C989 C994 1.390 . S
C990 C984 1.465 . S
C990 C989 1.396 . S
C990 C991 1.399 . S
C991 H977 0.929 . S
C991 C990 1.399 . S
C991 C992 1.385 . S
C992 H978 0.931 . S
C992 C991 1.385 . S
C992 C993 1.389 . S
C993 C992 1.389 . S
C993 C994 1.387 . S
C994 H979 0.930 . S
C994 C989 1.390 . S
C994 C993 1.387 . S
H995 C1007 0.930 . S
H996 C1009 0.930 . S
H997 C1010 0.930 1_545 S
H998 C1014 0.959 . S
H999 C1014 0.959 . S
H1000 C1014 0.961 . S
H1001 C1015 0.960 . S
H1002 C1015 0.961 . S
H1003 C1015 0.959 . S
H1004 C1018 0.929 . S
H1005 C1019 0.931 . S
H1006 C1021 0.930 . S
C1007 H995 0.930 . S
C1007 C1008 1.399 . S
C1007 C1012 1.399 . S
C1008 C1007 1.399 . S
C1008 C1009 1.376 . S
C1009 H996 0.930 . S
C1009 C1008 1.376 . S
C1009 C1010 1.388 . S
C1010 H997 0.930 1_565 S
C1010 C1009 1.388 . S
C1010 C1011 1.390 . S
C1011 C1010 1.390 . S
C1011 C1012 1.394 . S
C1011 C1017 1.465 . S
C1012 C1007 1.399 . S
C1012 C1011 1.394 . S
C1012 C1013 1.516 . S
C1013 C1012 1.516 . S
C1013 C1014 1.502 . S
C1013 C1015 1.561 . S
C1013 C1016 1.526 . S
C1014 H998 0.959 . S
C1014 H999 0.959 . S
C1014 H1000 0.961 . S
C1014 C1013 1.502 . S
C1015 H1001 0.960 . S
C1015 H1002 0.961 . S
C1015 H1003 0.959 . S
C1015 C1013 1.561 . S
C1016 C1013 1.526 . S
C1016 C1017 1.396 . S
C1016 C1021 1.390 . S
C1017 C1011 1.465 . S
C1017 C1016 1.396 . S
C1017 C1018 1.399 1_565 S
C1018 H1004 0.929 . S
C1018 C1017 1.399 1_545 S
C1018 C1019 1.385 . S
C1019 H1005 0.931 . S
C1019 C1018 1.385 . S
C1019 C1020 1.389 1_545 S
C1020 C1019 1.389 1_565 S
C1020 C1021 1.387 . S
C1021 H1006 0.930 . S
C1021 C1016 1.390 . S
C1021 C1020 1.387 . S
H1022 C1034 0.930 . S
H1023 C1036 0.930 . S
H1024 C1037 0.930 . S
H1025 C1041 0.959 . S
H1026 C1041 0.959 . S
H1027 C1041 0.961 . S
H1028 C1042 0.960 . S
H1029 C1042 0.961 . S
H1030 C1042 0.959 . S
H1031 C1045 0.929 . S
H1032 C1046 0.931 . S
H1033 C1048 0.930 . S
C1034 H1022 0.930 . S
C1034 C1035 1.399 . S
C1034 C1039 1.399 . S
C1035 C1034 1.399 . S
C1035 C1036 1.376 . S
C1036 H1023 0.930 . S
C1036 C1035 1.376 . S
C1036 C1037 1.388 . S
C1037 H1024 0.930 . S
C1037 C1036 1.388 . S
C1037 C1038 1.390 . S
C1038 C1037 1.390 . S
C1038 C1039 1.394 . S
C1038 C1044 1.465 . S
C1039 C1034 1.399 . S
C1039 C1038 1.394 . S
C1039 C1040 1.516 . S
C1040 C1039 1.516 . S
C1040 C1041 1.502 . S
C1040 C1042 1.561 . S
C1040 C1043 1.526 . S
C1041 H1025 0.959 . S
C1041 H1026 0.959 . S
C1041 H1027 0.961 . S
C1041 C1040 1.502 . S
C1042 H1028 0.960 . S
C1042 H1029 0.961 . S
C1042 H1030 0.959 . S
C1042 C1040 1.561 . S
C1043 C1040 1.526 . S
C1043 C1044 1.396 . S
C1043 C1048 1.390 . S
C1044 C1038 1.465 . S
C1044 C1043 1.396 . S
C1044 C1045 1.399 . S
C1045 H1031 0.929 . S
C1045 C1044 1.399 . S
C1045 C1046 1.385 . S
C1046 H1032 0.931 . S
C1046 C1045 1.385 . S
C1046 C1047 1.389 . S
C1047 C1046 1.389 . S
C1047 C1048 1.387 . S
C1048 H1033 0.930 . S
C1048 C1043 1.390 . S
C1048 C1047 1.387 . S
H1049 C1061 0.930 . S
H1050 C1063 0.930 . S
H1051 C1064 0.930 1_565 S
H1052 C1068 0.959 . S
H1053 C1068 0.959 . S
H1054 C1068 0.961 . S
H1055 C1069 0.960 . S
H1056 C1069 0.961 . S
H1057 C1069 0.959 . S
H1058 C1072 0.929 . S
H1059 C1073 0.931 . S
H1060 C1075 0.930 . S
C1061 H1049 0.930 . S
C1061 C1062 1.399 . S
C1061 C1066 1.399 . S
C1062 C1061 1.399 . S
C1062 C1063 1.376 . S
C1063 H1050 0.930 . S
C1063 C1062 1.376 . S
C1063 C1064 1.388 . S
C1064 H1051 0.930 1_545 S
C1064 C1063 1.388 . S
C1064 C1065 1.390 . S
C1065 C1064 1.390 . S
C1065 C1066 1.394 . S
C1065 C1071 1.465 . S
C1066 C1061 1.399 . S
C1066 C1065 1.394 . S
C1066 C1067 1.516 . S
C1067 C1066 1.516 . S
C1067 C1068 1.502 . S
C1067 C1069 1.561 . S
C1067 C1070 1.526 . S
C1068 H1052 0.959 . S
C1068 H1053 0.959 . S
C1068 H1054 0.961 . S
C1068 C1067 1.502 . S
C1069 H1055 0.960 . S
C1069 H1056 0.961 . S
C1069 H1057 0.959 . S
C1069 C1067 1.561 . S
C1070 C1067 1.526 . S
C1070 C1071 1.396 . S
C1070 C1075 1.390 . S
C1071 C1065 1.465 . S
C1071 C1070 1.396 . S
C1071 C1072 1.399 1_545 S
C1072 H1058 0.929 . S
C1072 C1071 1.399 1_565 S
C1072 C1073 1.385 . S
C1073 H1059 0.931 . S
C1073 C1072 1.385 . S
C1073 C1074 1.389 1_565 S
C1074 C1073 1.389 1_545 S
C1074 C1075 1.387 . S
C1075 H1060 0.930 . S
C1075 C1070 1.390 . S
C1075 C1074 1.387 . S
H1076 C1088 0.930 . S
H1077 C1090 0.930 . S
H1078 C1091 0.930 . S
H1079 C1095 0.959 . S
H1080 C1095 0.959 . S
H1081 C1095 0.961 . S
H1082 C1096 0.960 . S
H1083 C1096 0.961 . S
H1084 C1096 0.959 . S
H1085 C1099 0.929 . S
H1086 C1100 0.931 . S
H1087 C1102 0.930 . S
C1088 H1076 0.930 . S
C1088 C1089 1.399 . S
C1088 C1093 1.399 . S
C1089 C1088 1.399 . S
C1089 C1090 1.376 . S
C1090 H1077 0.930 . S
C1090 C1089 1.376 . S
C1090 C1091 1.388 . S
C1091 H1078 0.930 . S
C1091 C1090 1.388 . S
C1091 C1092 1.390 . S
C1092 C1091 1.390 . S
C1092 C1093 1.394 . S
C1092 C1098 1.465 . S
C1093 C1088 1.399 . S
C1093 C1092 1.394 . S
C1093 C1094 1.516 . S
C1094 C1093 1.516 . S
C1094 C1095 1.502 . S
C1094 C1096 1.561 . S
C1094 C1097 1.526 . S
C1095 H1079 0.959 . S
C1095 H1080 0.959 . S
C1095 H1081 0.961 . S
C1095 C1094 1.502 . S
C1096 H1082 0.960 . S
C1096 H1083 0.961 . S
C1096 H1084 0.959 . S
C1096 C1094 1.561 . S
C1097 C1094 1.526 . S
C1097 C1098 1.396 . S
C1097 C1102 1.390 . S
C1098 C1092 1.465 . S
C1098 C1097 1.396 . S
C1098 C1099 1.399 . S
C1099 H1085 0.929 . S
C1099 C1098 1.399 . S
C1099 C1100 1.385 . S
C1100 H1086 0.931 . S
C1100 C1099 1.385 . S
C1100 C1101 1.389 . S
C1101 C1100 1.389 . S
C1101 C1102 1.387 . S
C1102 H1087 0.930 . S
C1102 C1097 1.390 . S
C1102 C1101 1.387 . S
H1103 C1115 0.930 . S
H1104 C1117 0.930 1_655 S
H1105 C1118 0.930 . S
H1106 C1122 0.959 . S
H1107 C1122 0.959 . S
H1108 C1122 0.961 . S
H1109 C1123 0.960 . S
H1110 C1123 0.961 . S
H1111 C1123 0.959 . S
H1112 C1126 0.929 . S
H1113 C1127 0.931 . S
H1114 C1129 0.930 . S
C1115 H1103 0.930 . S
C1115 C1116 1.399 1_565 S
C1115 C1120 1.399 1_565 S
C1116 C1115 1.399 1_545 S
C1116 C1117 1.376 . S
C1117 H1104 0.930 1_455 S
C1117 C1116 1.376 . S
C1117 C1118 1.388 . S
C1118 H1105 0.930 . S
C1118 C1117 1.388 . S
C1118 C1119 1.390 . S
C1119 C1118 1.390 . S
C1119 C1120 1.394 . S
C1119 C1125 1.465 . S
C1120 C1115 1.399 1_545 S
C1120 C1119 1.394 . S
C1120 C1121 1.516 1_545 S
C1121 C1120 1.516 1_565 S
C1121 C1122 1.502 . S
C1121 C1123 1.561 . S
C1121 C1124 1.526 1_565 S
C1122 H1106 0.959 . S
C1122 H1107 0.959 . S
C1122 H1108 0.961 . S
C1122 C1121 1.502 . S
C1123 H1109 0.960 . S
C1123 H1110 0.961 . S
C1123 H1111 0.959 . S
C1123 C1121 1.561 . S
C1124 C1121 1.526 1_545 S
C1124 C1125 1.396 . S
C1124 C1129 1.390 . S
C1125 C1119 1.465 . S
C1125 C1124 1.396 . S
C1125 C1126 1.399 . S
C1126 H1112 0.929 . S
C1126 C1125 1.399 . S
C1126 C1127 1.385 . S
C1127 H1113 0.931 . S
C1127 C1126 1.385 . S
C1127 C1128 1.389 . S
C1128 C1127 1.389 . S
C1128 C1129 1.387 . S
C1129 H1114 0.930 . S
C1129 C1124 1.390 . S
C1129 C1128 1.387 . S
H1130 C1142 0.930 . S
H1131 C1144 0.930 . S
H1132 C1145 0.930 . S
H1133 C1149 0.959 . S
H1134 C1149 0.959 . S
H1135 C1149 0.961 . S
H1136 C1150 0.960 . S
H1137 C1150 0.961 . S
H1138 C1150 0.959 . S
H1139 C1153 0.929 . S
H1140 C1154 0.931 . S
H1141 C1156 0.930 . S
C1142 H1130 0.930 . S
C1142 C1143 1.399 . S
C1142 C1147 1.399 . S
C1143 C1142 1.399 . S
C1143 C1144 1.376 . S
C1144 H1131 0.930 . S
C1144 C1143 1.376 . S
C1144 C1145 1.388 . S
C1145 H1132 0.930 . S
C1145 C1144 1.388 . S
C1145 C1146 1.390 . S
C1146 C1145 1.390 . S
C1146 C1147 1.394 . S
C1146 C1152 1.465 . S
C1147 C1142 1.399 . S
C1147 C1146 1.394 . S
C1147 C1148 1.516 . S
C1148 C1147 1.516 . S
C1148 C1149 1.502 . S
C1148 C1150 1.561 . S
C1148 C1151 1.526 . S
C1149 H1133 0.959 . S
C1149 H1134 0.959 . S
C1149 H1135 0.961 . S
C1149 C1148 1.502 . S
C1150 H1136 0.960 . S
C1150 H1137 0.961 . S
C1150 H1138 0.959 . S
C1150 C1148 1.561 . S
C1151 C1148 1.526 . S
C1151 C1152 1.396 . S
C1151 C1156 1.390 . S
C1152 C1146 1.465 . S
C1152 C1151 1.396 . S
C1152 C1153 1.399 . S
C1153 H1139 0.929 . S
C1153 C1152 1.399 . S
C1153 C1154 1.385 . S
C1154 H1140 0.931 . S
C1154 C1153 1.385 . S
C1154 C1155 1.389 . S
C1155 C1154 1.389 . S
C1155 C1156 1.387 . S
C1156 H1141 0.930 . S
C1156 C1151 1.390 . S
C1156 C1155 1.387 . S
H1157 C1169 0.930 . S
H1158 C1171 0.930 . S
H1159 C1172 0.930 . S
H1160 C1176 0.959 . S
H1161 C1176 0.959 . S
H1162 C1176 0.961 . S
H1163 C1177 0.960 . S
H1164 C1177 0.961 . S
H1165 C1177 0.959 . S
H1166 C1180 0.929 1_545 S
H1167 C1181 0.931 . S
H1168 C1183 0.930 . S
C1169 H1157 0.930 . S
C1169 C1170 1.399 . S
C1169 C1174 1.399 . S
C1170 C1169 1.399 . S
C1170 C1171 1.376 1_565 S
C1171 H1158 0.930 . S
C1171 C1170 1.376 1_545 S
C1171 C1172 1.388 . S
C1172 H1159 0.930 . S
C1172 C1171 1.388 . S
C1172 C1173 1.390 1_545 S
C1173 C1172 1.390 1_565 S
C1173 C1174 1.394 . S
C1173 C1179 1.465 . S
C1174 C1169 1.399 . S
C1174 C1173 1.394 . S
C1174 C1175 1.516 . S
C1175 C1174 1.516 . S
C1175 C1176 1.502 . S
C1175 C1177 1.561 . S
C1175 C1178 1.526 . S
C1176 H1160 0.959 . S
C1176 H1161 0.959 . S
C1176 H1162 0.961 . S
C1176 C1175 1.502 . S
C1177 H1163 0.960 . S
C1177 H1164 0.961 . S
C1177 H1165 0.959 . S
C1177 C1175 1.561 . S
C1178 C1175 1.526 . S
C1178 C1179 1.396 . S
C1178 C1183 1.390 . S
C1179 C1173 1.465 . S
C1179 C1178 1.396 . S
C1179 C1180 1.399 . S
C1180 H1166 0.929 1_565 S
C1180 C1179 1.399 . S
C1180 C1181 1.385 . S
C1181 H1167 0.931 . S
C1181 C1180 1.385 . S
C1181 C1182 1.389 . S
C1182 C1181 1.389 . S
C1182 C1183 1.387 . S
C1183 H1168 0.930 . S
C1183 C1178 1.390 . S
C1183 C1182 1.387 . S
H1184 C1196 0.930 . S
H1185 C1198 0.930 1_554 S
H1186 C1199 0.930 . S
H1187 C1203 0.959 . S
H1188 C1203 0.959 . S
H1189 C1203 0.961 . S
H1190 C1204 0.960 . S
H1191 C1204 0.961 . S
H1192 C1204 0.959 . S
H1193 C1207 0.929 . S
H1194 C1208 0.931 . S
H1195 C1210 0.930 . S
C1196 H1184 0.930 . S
C1196 C1197 1.399 1_556 S
C1196 C1201 1.399 . S
C1197 C1196 1.399 1_554 S
C1197 C1198 1.376 1_554 S
C1198 H1185 0.930 1_556 S
C1198 C1197 1.376 1_556 S
C1198 C1199 1.388 . S
C1199 H1186 0.930 . S
C1199 C1198 1.388 . S
C1199 C1200 1.390 . S
C1200 C1199 1.390 . S
C1200 C1201 1.394 . S
C1200 C1206 1.465 . S
C1201 C1196 1.399 . S
C1201 C1200 1.394 . S
C1201 C1202 1.516 . S
C1202 C1201 1.516 . S
C1202 C1203 1.502 . S
C1202 C1204 1.561 . S
C1202 C1205 1.526 . S
C1203 H1187 0.959 . S
C1203 H1188 0.959 . S
C1203 H1189 0.961 . S
C1203 C1202 1.502 . S
C1204 H1190 0.960 . S
C1204 H1191 0.961 . S
C1204 H1192 0.959 . S
C1204 C1202 1.561 . S
C1205 C1202 1.526 . S
C1205 C1206 1.396 . S
C1205 C1210 1.390 . S
C1206 C1200 1.465 . S
C1206 C1205 1.396 . S
C1206 C1207 1.399 . S
C1207 H1193 0.929 . S
C1207 C1206 1.399 . S
C1207 C1208 1.385 . S
C1208 H1194 0.931 . S
C1208 C1207 1.385 . S
C1208 C1209 1.389 . S
C1209 C1208 1.389 . S
C1209 C1210 1.387 . S
C1210 H1195 0.930 . S
C1210 C1205 1.390 . S
C1210 C1209 1.387 . S
H1211 C1223 0.930 . S
H1212 C1225 0.930 . S
H1213 C1226 0.930 . S
H1214 C1230 0.959 . S
H1215 C1230 0.959 . S
H1216 C1230 0.961 . S
H1217 C1231 0.960 . S
H1218 C1231 0.961 . S
H1219 C1231 0.959 . S
H1220 C1234 0.929 . S
H1221 C1235 0.931 . S
H1222 C1237 0.930 . S
C1223 H1211 0.930 . S
C1223 C1224 1.399 . S
C1223 C1228 1.399 . S
C1224 C1223 1.399 . S
C1224 C1225 1.376 . S
C1225 H1212 0.930 . S
C1225 C1224 1.376 . S
C1225 C1226 1.388 . S
C1226 H1213 0.930 . S
C1226 C1225 1.388 . S
C1226 C1227 1.390 . S
C1227 C1226 1.390 . S
C1227 C1228 1.394 . S
C1227 C1233 1.465 . S
C1228 C1223 1.399 . S
C1228 C1227 1.394 . S
C1228 C1229 1.516 . S
C1229 C1228 1.516 . S
C1229 C1230 1.502 . S
C1229 C1231 1.561 . S
C1229 C1232 1.526 . S
C1230 H1214 0.959 . S
C1230 H1215 0.959 . S
C1230 H1216 0.961 . S
C1230 C1229 1.502 . S
C1231 H1217 0.960 . S
C1231 H1218 0.961 . S
C1231 H1219 0.959 . S
C1231 C1229 1.561 . S
C1232 C1229 1.526 . S
C1232 C1233 1.396 . S
C1232 C1237 1.390 . S
C1233 C1227 1.465 . S
C1233 C1232 1.396 . S
C1233 C1234 1.399 . S
C1234 H1220 0.929 . S
C1234 C1233 1.399 . S
C1234 C1235 1.385 . S
C1235 H1221 0.931 . S
C1235 C1234 1.385 . S
C1235 C1236 1.389 . S
C1236 C1235 1.389 . S
C1236 C1237 1.387 . S
C1237 H1222 0.930 . S
C1237 C1232 1.390 . S
C1237 C1236 1.387 . S
H1238 C1250 0.930 . S
H1239 C1252 0.930 . S
H1240 C1253 0.930 . S
H1241 C1257 0.959 . S
H1242 C1257 0.959 . S
H1243 C1257 0.961 . S
H1244 C1258 0.960 . S
H1245 C1258 0.961 . S
H1246 C1258 0.959 . S
H1247 C1261 0.929 . S
H1248 C1262 0.931 . S
H1249 C1264 0.930 . S
C1250 H1238 0.930 . S
C1250 C1251 1.399 . S
C1250 C1255 1.399 . S
C1251 C1250 1.399 . S
C1251 C1252 1.376 . S
C1252 H1239 0.930 . S
C1252 C1251 1.376 . S
C1252 C1253 1.388 . S
C1253 H1240 0.930 . S
C1253 C1252 1.388 . S
C1253 C1254 1.390 . S
C1254 C1253 1.390 . S
C1254 C1255 1.394 . S
C1254 C1260 1.465 . S
C1255 C1250 1.399 . S
C1255 C1254 1.394 . S
C1255 C1256 1.516 . S
C1256 C1255 1.516 . S
C1256 C1257 1.502 . S
C1256 C1258 1.561 . S
C1256 C1259 1.526 . S
C1257 H1241 0.959 . S
C1257 H1242 0.959 . S
C1257 H1243 0.961 . S
C1257 C1256 1.502 . S
C1258 H1244 0.960 . S
C1258 H1245 0.961 . S
C1258 H1246 0.959 . S
C1258 C1256 1.561 . S
C1259 C1256 1.526 . S
C1259 C1260 1.396 . S
C1259 C1264 1.390 . S
C1260 C1254 1.465 . S
C1260 C1259 1.396 . S
C1260 C1261 1.399 . S
C1261 H1247 0.929 . S
C1261 C1260 1.399 . S
C1261 C1262 1.385 . S
C1262 H1248 0.931 . S
C1262 C1261 1.385 . S
C1262 C1263 1.389 . S
C1263 C1262 1.389 . S
C1263 C1264 1.387 . S
C1264 H1249 0.930 . S
C1264 C1259 1.390 . S
C1264 C1263 1.387 . S
H1265 C1277 0.930 . S
H1266 C1279 0.930 . S
H1267 C1280 0.930 . S
H1268 C1284 0.959 . S
H1269 C1284 0.959 . S
H1270 C1284 0.961 . S
H1271 C1285 0.960 . S
H1272 C1285 0.961 . S
H1273 C1285 0.959 . S
H1274 C1288 0.929 . S
H1275 C1289 0.931 . S
H1276 C1291 0.930 . S
C1277 H1265 0.930 . S
C1277 C1278 1.399 . S
C1277 C1282 1.399 . S
C1278 C1277 1.399 . S
C1278 C1279 1.376 . S
C1279 H1266 0.930 . S
C1279 C1278 1.376 . S
C1279 C1280 1.388 . S
C1280 H1267 0.930 . S
C1280 C1279 1.388 . S
C1280 C1281 1.390 . S
C1281 C1280 1.390 . S
C1281 C1282 1.394 . S
C1281 C1287 1.465 . S
C1282 C1277 1.399 . S
C1282 C1281 1.394 . S
C1282 C1283 1.516 . S
C1283 C1282 1.516 . S
C1283 C1284 1.502 . S
C1283 C1285 1.561 . S
C1283 C1286 1.526 . S
C1284 H1268 0.959 . S
C1284 H1269 0.959 . S
C1284 H1270 0.961 . S
C1284 C1283 1.502 . S
C1285 H1271 0.960 . S
C1285 H1272 0.961 . S
C1285 H1273 0.959 . S
C1285 C1283 1.561 . S
C1286 C1283 1.526 . S
C1286 C1287 1.396 . S
C1286 C1291 1.390 . S
C1287 C1281 1.465 . S
C1287 C1286 1.396 . S
C1287 C1288 1.399 . S
C1288 H1274 0.929 . S
C1288 C1287 1.399 . S
C1288 C1289 1.385 . S
C1289 H1275 0.931 . S
C1289 C1288 1.385 . S
C1289 C1290 1.389 . S
C1290 C1289 1.389 . S
C1290 C1291 1.387 . S
C1291 H1276 0.930 . S
C1291 C1286 1.390 . S
C1291 C1290 1.387 . S
H1292 C1304 0.930 . S
H1293 C1306 0.930 . S
H1294 C1307 0.930 . S
H1295 C1311 0.959 . S
H1296 C1311 0.959 . S
H1297 C1311 0.961 . S
H1298 C1312 0.960 . S
H1299 C1312 0.961 . S
H1300 C1312 0.959 . S
H1301 C1315 0.929 . S
H1302 C1316 0.911 1_556 S
H1303 C1318 0.930 . S
C1304 H1292 0.930 . S
C1304 C1305 1.399 . S
C1304 C1309 1.399 . S
C1305 C1304 1.399 . S
C1305 C1306 1.376 . S
C1306 H1293 0.930 . S
C1306 C1305 1.376 . S
C1306 C1307 1.388 . S
C1307 H1294 0.930 . S
C1307 C1306 1.388 . S
C1307 C1308 1.390 . S
C1308 C1307 1.390 . S
C1308 C1309 1.394 . S
C1308 C1314 1.465 . S
C1309 C1304 1.399 . S
C1309 C1308 1.394 . S
C1309 C1310 1.516 . S
C1310 C1309 1.516 . S
C1310 C1311 1.502 . S
C1310 C1312 1.561 . S
C1310 C1313 1.526 . S
C1311 H1295 0.959 . S
C1311 H1296 0.959 . S
C1311 H1297 0.961 . S
C1311 C1310 1.502 . S
C1312 H1298 0.960 . S
C1312 H1299 0.961 . S
C1312 H1300 0.959 . S
C1312 C1310 1.561 . S
C1313 C1310 1.526 . S
C1313 C1314 1.396 . S
C1313 C1318 1.390 . S
C1314 C1308 1.465 . S
C1314 C1313 1.396 . S
C1314 C1315 1.399 . S
C1315 H1301 0.929 . S
C1315 C1314 1.399 . S
C1315 C1316 1.385 . S
C1316 H1302 0.911 1_554 S
C1316 C1315 1.385 . S
C1316 C1317 1.389 1_554 S
C1317 C1316 1.389 1_556 S
C1317 C1318 1.387 1_556 S
C1318 H1303 0.930 . S
C1318 C1313 1.390 . S
C1318 C1317 1.387 1_554 S
H1319 C1331 0.930 . S
H1320 C1333 0.930 . S
H1321 C1334 0.930 . S
H1322 C1338 0.959 . S
H1323 C1338 0.959 . S
H1324 C1338 0.961 . S
H1325 C1339 0.960 . S
H1326 C1339 0.961 . S
H1327 C1339 0.959 . S
H1328 C1342 0.929 . S
H1329 C1343 0.931 . S
H1330 C1345 0.930 . S
C1331 H1319 0.930 . S
C1331 C1332 1.399 . S
C1331 C1336 1.399 . S
C1332 C1331 1.399 . S
C1332 C1333 1.376 . S
C1333 H1320 0.930 . S
C1333 C1332 1.376 . S
C1333 C1334 1.388 . S
C1334 H1321 0.930 . S
C1334 C1333 1.388 . S
C1334 C1335 1.390 . S
C1335 C1334 1.390 . S
C1335 C1336 1.394 . S
C1335 C1341 1.465 . S
C1336 C1331 1.399 . S
C1336 C1335 1.394 . S
C1336 C1337 1.516 . S
C1337 C1336 1.516 . S
C1337 C1338 1.502 . S
C1337 C1339 1.561 . S
C1337 C1340 1.526 . S
C1338 H1322 0.959 . S
C1338 H1323 0.959 . S
C1338 H1324 0.961 . S
C1338 C1337 1.502 . S
C1339 H1325 0.960 . S
C1339 H1326 0.961 . S
C1339 H1327 0.959 . S
C1339 C1337 1.561 . S
C1340 C1337 1.526 . S
C1340 C1341 1.396 . S
C1340 C1345 1.390 . S
C1341 C1335 1.465 . S
C1341 C1340 1.396 . S
C1341 C1342 1.399 . S
C1342 H1328 0.929 . S
C1342 C1341 1.399 . S
C1342 C1343 1.385 . S
C1343 H1329 0.931 . S
C1343 C1342 1.385 . S
C1343 C1344 1.389 . S
C1344 C1343 1.389 . S
C1344 C1345 1.387 . S
C1345 H1330 0.930 . S
C1345 C1340 1.390 . S
C1345 C1344 1.387 . S
H1346 C1358 0.930 . S
H1347 C1360 0.930 . S
H1348 C1361 0.930 . S
H1349 C1365 0.959 . S
H1350 C1365 0.959 . S
H1351 C1365 0.961 . S
H1352 C1366 0.960 . S
H1353 C1366 0.961 . S
H1354 C1366 0.959 . S
H1355 C1369 0.929 . S
H1356 C1370 0.931 . S
H1357 C1372 0.930 . S
C1358 H1346 0.930 . S
C1358 C1359 1.399 . S
C1358 C1363 1.399 . S
C1359 C1358 1.399 . S
C1359 C1360 1.376 . S
C1360 H1347 0.930 . S
C1360 C1359 1.376 . S
C1360 C1361 1.388 . S
C1361 H1348 0.930 . S
C1361 C1360 1.388 . S
C1361 C1362 1.390 . S
C1362 C1361 1.390 . S
C1362 C1363 1.394 . S
C1362 C1368 1.465 . S
C1363 C1358 1.399 . S
C1363 C1362 1.394 . S
C1363 C1364 1.516 . S
C1364 C1363 1.516 . S
C1364 C1365 1.502 . S
C1364 C1366 1.561 . S
C1364 C1367 1.526 . S
C1365 H1349 0.959 . S
C1365 H1350 0.959 . S
C1365 H1351 0.961 . S
C1365 C1364 1.502 . S
C1366 H1352 0.960 . S
C1366 H1353 0.961 . S
C1366 H1354 0.959 . S
C1366 C1364 1.561 . S
C1367 C1364 1.526 . S
C1367 C1368 1.396 . S
C1367 C1372 1.390 . S
C1368 C1362 1.465 . S
C1368 C1367 1.396 . S
C1368 C1369 1.399 . S
C1369 H1355 0.929 . S
C1369 C1368 1.399 . S
C1369 C1370 1.385 . S
C1370 H1356 0.931 . S
C1370 C1369 1.385 . S
C1370 C1371 1.389 . S
C1371 C1370 1.389 . S
C1371 C1372 1.387 . S
C1372 H1357 0.930 . S
C1372 C1367 1.390 . S
C1372 C1371 1.387 . S
H1373 C1385 0.930 . S
H1374 C1387 0.930 . S
H1375 C1388 0.930 . S
H1376 C1392 0.959 . S
H1377 C1392 0.959 . S
H1378 C1392 0.961 . S
H1379 C1393 0.960 . S
H1380 C1393 0.961 . S
H1381 C1393 0.959 . S
H1382 C1396 0.929 . S
H1383 C1397 0.931 . S
H1384 C1399 0.930 . S
C1385 H1373 0.930 . S
C1385 C1386 1.399 . S
C1385 C1390 1.399 . S
C1386 C1385 1.399 . S
C1386 C1387 1.376 . S
C1387 H1374 0.930 . S
C1387 C1386 1.376 . S
C1387 C1388 1.388 . S
C1388 H1375 0.930 . S
C1388 C1387 1.388 . S
C1388 C1389 1.390 . S
C1389 C1388 1.390 . S
C1389 C1390 1.394 . S
C1389 C1395 1.465 . S
C1390 C1385 1.399 . S
C1390 C1389 1.394 . S
C1390 C1391 1.516 . S
C1391 C1390 1.516 . S
C1391 C1392 1.502 . S
C1391 C1393 1.561 . S
C1391 C1394 1.526 . S
C1392 H1376 0.959 . S
C1392 H1377 0.959 . S
C1392 H1378 0.961 . S
C1392 C1391 1.502 . S
C1393 H1379 0.960 . S
C1393 H1380 0.961 . S
C1393 H1381 0.959 . S
C1393 C1391 1.561 . S
C1394 C1391 1.526 . S
C1394 C1395 1.396 . S
C1394 C1399 1.390 . S
C1395 C1389 1.465 . S
C1395 C1394 1.396 . S
C1395 C1396 1.399 . S
C1396 H1382 0.929 . S
C1396 C1395 1.399 . S
C1396 C1397 1.385 . S
C1397 H1383 0.931 . S
C1397 C1396 1.385 . S
C1397 C1398 1.389 . S
C1398 C1397 1.389 . S
C1398 C1399 1.387 . S
C1399 H1384 0.930 . S
C1399 C1394 1.390 . S
C1399 C1398 1.387 . S
H1400 C1412 0.930 . S
H1401 C1414 0.930 . S
H1402 C1415 0.930 . S
H1403 C1419 0.959 . S
H1404 C1419 0.959 . S
H1405 C1419 0.961 . S
H1406 C1420 0.960 . S
H1407 C1420 0.961 . S
H1408 C1420 0.959 . S
H1409 C1423 0.929 . S
H1410 C1424 0.931 . S
H1411 C1426 0.930 . S
C1412 H1400 0.930 . S
C1412 C1413 1.399 . S
C1412 C1417 1.399 . S
C1413 C1412 1.399 . S
C1413 C1414 1.376 . S
C1414 H1401 0.930 . S
C1414 C1413 1.376 . S
C1414 C1415 1.388 . S
C1415 H1402 0.930 . S
C1415 C1414 1.388 . S
C1415 C1416 1.390 . S
C1416 C1415 1.390 . S
C1416 C1417 1.394 . S
C1416 C1422 1.465 . S
C1417 C1412 1.399 . S
C1417 C1416 1.394 . S
C1417 C1418 1.516 . S
C1418 C1417 1.516 . S
C1418 C1419 1.502 . S
C1418 C1420 1.561 . S
C1418 C1421 1.526 . S
C1419 H1403 0.959 . S
C1419 H1404 0.959 . S
C1419 H1405 0.961 . S
C1419 C1418 1.502 . S
C1420 H1406 0.960 . S
C1420 H1407 0.961 . S
C1420 H1408 0.959 . S
C1420 C1418 1.561 . S
C1421 C1418 1.526 . S
C1421 C1422 1.396 . S
C1421 C1426 1.390 . S
C1422 C1416 1.465 . S
C1422 C1421 1.396 . S
C1422 C1423 1.399 . S
C1423 H1409 0.929 . S
C1423 C1422 1.399 . S
C1423 C1424 1.385 . S
C1424 H1410 0.931 . S
C1424 C1423 1.385 . S
C1424 C1425 1.389 . S
C1425 C1424 1.389 . S
C1425 C1426 1.387 . S
C1426 H1411 0.930 . S
C1426 C1421 1.390 . S
C1426 C1425 1.387 . S
H1427 C1439 0.930 . S
H1428 C1441 0.930 . S
H1429 C1442 0.930 . S
H1430 C1446 0.959 . S
H1431 C1446 0.959 . S
H1432 C1446 0.961 . S
H1433 C1447 0.960 . S
H1434 C1447 0.961 . S
H1435 C1447 0.959 . S
H1436 C1450 0.929 . S
H1437 C1451 0.931 . S
H1438 C1453 0.930 . S
C1439 H1427 0.930 . S
C1439 C1440 1.399 . S
C1439 C1444 1.399 . S
C1440 C1439 1.399 . S
C1440 C1441 1.376 . S
C1441 H1428 0.930 . S
C1441 C1440 1.376 . S
C1441 C1442 1.388 . S
C1442 H1429 0.930 . S
C1442 C1441 1.388 . S
C1442 C1443 1.390 . S
C1443 C1442 1.390 . S
C1443 C1444 1.394 . S
C1443 C1449 1.465 . S
C1444 C1439 1.399 . S
C1444 C1443 1.394 . S
C1444 C1445 1.516 1_565 S
C1445 C1444 1.516 1_545 S
C1445 C1446 1.502 . S
C1445 C1447 1.561 . S
C1445 C1448 1.526 1_545 S
C1446 H1430 0.959 . S
C1446 H1431 0.959 . S
C1446 H1432 0.961 . S
C1446 C1445 1.502 . S
C1447 H1433 0.960 . S
C1447 H1434 0.961 . S
C1447 H1435 0.959 . S
C1447 C1445 1.561 . S
C1448 C1445 1.526 1_565 S
C1448 C1449 1.396 . S
C1448 C1453 1.390 1_565 S
C1449 C1443 1.465 . S
C1449 C1448 1.396 . S
C1449 C1450 1.399 . S
C1450 H1436 0.929 . S
C1450 C1449 1.399 . S
C1450 C1451 1.385 . S
C1451 H1437 0.931 . S
C1451 C1450 1.385 . S
C1451 C1452 1.389 1_565 S
C1452 C1451 1.389 1_545 S
C1452 C1453 1.387 . S
C1453 H1438 0.930 . S
C1453 C1448 1.390 1_545 S
C1453 C1452 1.387 . S
H1454 C1466 0.930 . S
H1455 C1468 0.930 . S
H1456 C1469 0.930 . S
H1457 C1473 0.959 . S
H1458 C1473 0.959 . S
H1459 C1473 0.961 . S
H1460 C1474 0.960 . S
H1461 C1474 0.961 . S
H1462 C1474 0.959 . S
H1463 C1477 0.929 . S
H1464 C1478 0.931 . S
H1465 C1480 0.930 . S
C1466 H1454 0.930 . S
C1466 C1467 1.399 . S
C1466 C1471 1.399 . S
C1467 C1466 1.399 . S
C1467 C1468 1.376 . S
C1468 H1455 0.930 . S
C1468 C1467 1.376 . S
C1468 C1469 1.388 . S
C1469 H1456 0.930 . S
C1469 C1468 1.388 . S
C1469 C1470 1.390 . S
C1470 C1469 1.390 . S
C1470 C1471 1.394 . S
C1470 C1476 1.465 . S
C1471 C1466 1.399 . S
C1471 C1470 1.394 . S
C1471 C1472 1.516 . S
C1472 C1471 1.516 . S
C1472 C1473 1.502 . S
C1472 C1474 1.561 . S
C1472 C1475 1.526 . S
C1473 H1457 0.959 . S
C1473 H1458 0.959 . S
C1473 H1459 0.961 . S
C1473 C1472 1.502 . S
C1474 H1460 0.960 . S
C1474 H1461 0.961 . S
C1474 H1462 0.959 . S
C1474 C1472 1.561 . S
C1475 C1472 1.526 . S
C1475 C1476 1.396 . S
C1475 C1480 1.390 . S
C1476 C1470 1.465 . S
C1476 C1475 1.396 . S
C1476 C1477 1.399 . S
C1477 H1463 0.929 . S
C1477 C1476 1.399 . S
C1477 C1478 1.385 1_556 S
C1478 H1464 0.931 . S
C1478 C1477 1.385 1_554 S
C1478 C1479 1.389 . S
C1479 C1478 1.389 . S
C1479 C1480 1.387 1_554 S
C1480 H1465 0.930 . S
C1480 C1475 1.390 . S
C1480 C1479 1.387 1_556 S
H1481 C1493 0.930 . S
H1482 C1495 0.930 . S
H1483 C1496 0.930 . S
H1484 C1500 0.959 . S
H1485 C1500 0.959 . S
H1486 C1500 0.961 . S
H1487 C1501 0.960 . S
H1488 C1501 0.961 . S
H1489 C1501 0.959 . S
H1490 C1504 0.929 . S
H1491 C1505 0.931 . S
H1492 C1507 0.930 . S
C1493 H1481 0.930 . S
C1493 C1494 1.399 1_545 S
C1493 C1498 1.399 . S
C1494 C1493 1.399 1_565 S
C1494 C1495 1.376 . S
C1495 H1482 0.930 . S
C1495 C1494 1.376 . S
C1495 C1496 1.388 . S
C1496 H1483 0.930 . S
C1496 C1495 1.388 . S
C1496 C1497 1.390 1_565 S
C1497 C1496 1.390 1_545 S
C1497 C1498 1.394 . S
C1497 C1503 1.465 . S
C1498 C1493 1.399 . S
C1498 C1497 1.394 . S
C1498 C1499 1.516 . S
C1499 C1498 1.516 . S
C1499 C1500 1.502 . S
C1499 C1501 1.561 . S
C1499 C1502 1.526 . S
C1500 H1484 0.959 . S
C1500 H1485 0.959 . S
C1500 H1486 0.961 . S
C1500 C1499 1.502 . S
C1501 H1487 0.960 . S
C1501 H1488 0.961 . S
C1501 H1489 0.959 . S
C1501 C1499 1.561 . S
C1502 C1499 1.526 . S
C1502 C1503 1.396 . S
C1502 C1507 1.390 . S
C1503 C1497 1.465 . S
C1503 C1502 1.396 . S
C1503 C1504 1.399 . S
C1504 H1490 0.929 . S
C1504 C1503 1.399 . S
C1504 C1505 1.385 . S
C1505 H1491 0.931 . S
C1505 C1504 1.385 . S
C1505 C1506 1.389 . S
C1506 C1505 1.389 . S
C1506 C1507 1.387 . S
C1507 H1492 0.930 . S
C1507 C1502 1.390 . S
C1507 C1506 1.387 . S
H1508 C1520 0.930 . S
H1509 C1522 0.930 . S
H1510 C1523 0.930 . S
H1511 C1527 0.959 . S
H1512 C1527 0.959 . S
H1513 C1527 0.961 . S
H1514 C1528 0.960 . S
H1515 C1528 0.961 . S
H1516 C1528 0.959 . S
H1517 C1531 0.929 . S
H1518 C1532 0.931 . S
H1519 C1534 0.930 . S
C1520 H1508 0.930 . S
C1520 C1521 1.399 . S
C1520 C1525 1.399 . S
C1521 C1520 1.399 . S
C1521 C1522 1.376 . S
C1522 H1509 0.930 . S
C1522 C1521 1.376 . S
C1522 C1523 1.388 . S
C1523 H1510 0.930 . S
C1523 C1522 1.388 . S
C1523 C1524 1.390 . S
C1524 C1523 1.390 . S
C1524 C1525 1.394 . S
C1524 C1530 1.465 . S
C1525 C1520 1.399 . S
C1525 C1524 1.394 . S
C1525 C1526 1.516 . S
C1526 C1525 1.516 . S
C1526 C1527 1.502 . S
C1526 C1528 1.561 . S
C1526 C1529 1.526 . S
C1527 H1511 0.959 . S
C1527 H1512 0.959 . S
C1527 H1513 0.961 . S
C1527 C1526 1.502 . S
C1528 H1514 0.960 . S
C1528 H1515 0.961 . S
C1528 H1516 0.959 . S
C1528 C1526 1.561 . S
C1529 C1526 1.526 . S
C1529 C1530 1.396 . S
C1529 C1534 1.390 . S
C1530 C1524 1.465 . S
C1530 C1529 1.396 . S
C1530 C1531 1.399 . S
C1531 H1517 0.929 . S
C1531 C1530 1.399 . S
C1531 C1532 1.385 . S
C1532 H1518 0.931 . S
C1532 C1531 1.385 . S
C1532 C1533 1.389 . S
C1533 C1532 1.389 . S
C1533 C1534 1.387 . S
C1534 H1519 0.930 . S
C1534 C1529 1.390 . S
C1534 C1533 1.387 . S
H1535 C1547 0.930 . S
H1536 C1549 0.930 . S
H1537 C1550 0.930 . S
H1538 C1554 0.959 . S
H1539 C1554 0.959 . S
H1540 C1554 0.961 . S
H1541 C1555 0.960 . S
H1542 C1555 0.961 . S
H1543 C1555 0.959 . S
H1544 C1558 0.929 . S
H1545 C1559 0.931 . S
H1546 C1561 0.930 . S
C1547 H1535 0.930 . S
C1547 C1548 1.399 . S
C1547 C1552 1.399 . S
C1548 C1547 1.399 . S
C1548 C1549 1.376 . S
C1549 H1536 0.930 . S
C1549 C1548 1.376 . S
C1549 C1550 1.388 . S
C1550 H1537 0.930 . S
C1550 C1549 1.388 . S
C1550 C1551 1.390 . S
C1551 C1550 1.390 . S
C1551 C1552 1.394 . S
C1551 C1557 1.465 . S
C1552 C1547 1.399 . S
C1552 C1551 1.394 . S
C1552 C1553 1.516 1_545 S
C1553 C1552 1.516 1_565 S
C1553 C1554 1.502 . S
C1553 C1555 1.561 . S
C1553 C1556 1.526 1_565 S
C1554 H1538 0.959 . S
C1554 H1539 0.959 . S
C1554 H1540 0.961 . S
C1554 C1553 1.502 . S
C1555 H1541 0.960 . S
C1555 H1542 0.961 . S
C1555 H1543 0.959 . S
C1555 C1553 1.561 . S
C1556 C1553 1.526 1_545 S
C1556 C1557 1.396 . S
C1556 C1561 1.390 1_545 S
C1557 C1551 1.465 . S
C1557 C1556 1.396 . S
C1557 C1558 1.399 . S
C1558 H1544 0.929 . S
C1558 C1557 1.399 . S
C1558 C1559 1.385 . S
C1559 H1545 0.931 . S
C1559 C1558 1.385 . S
C1559 C1560 1.389 1_545 S
C1560 C1559 1.389 1_565 S
C1560 C1561 1.387 . S
C1561 H1546 0.930 . S
C1561 C1556 1.390 1_565 S
C1561 C1560 1.387 . S
H1562 C1574 0.930 . S
H1563 C1576 0.930 . S
H1564 C1577 0.930 . S
H1565 C1581 0.959 . S
H1566 C1581 0.959 . S
H1567 C1581 0.961 . S
H1568 C1582 0.960 . S
H1569 C1582 0.961 . S
H1570 C1582 0.959 . S
H1571 C1585 0.929 . S
H1572 C1586 0.931 1_556 S
H1573 C1588 0.930 . S
C1574 H1562 0.930 . S
C1574 C1575 1.399 . S
C1574 C1579 1.399 . S
C1575 C1574 1.399 . S
C1575 C1576 1.376 . S
C1576 H1563 0.930 . S
C1576 C1575 1.376 . S
C1576 C1577 1.388 . S
C1577 H1564 0.930 . S
C1577 C1576 1.388 . S
C1577 C1578 1.390 . S
C1578 C1577 1.390 . S
C1578 C1579 1.394 . S
C1578 C1584 1.465 . S
C1579 C1574 1.399 . S
C1579 C1578 1.394 . S
C1579 C1580 1.516 . S
C1580 C1579 1.516 . S
C1580 C1581 1.502 . S
C1580 C1582 1.561 . S
C1580 C1583 1.526 . S
C1581 H1565 0.959 . S
C1581 H1566 0.959 . S
C1581 H1567 0.961 . S
C1581 C1580 1.502 . S
C1582 H1568 0.960 . S
C1582 H1569 0.961 . S
C1582 H1570 0.959 . S
C1582 C1580 1.561 . S
C1583 C1580 1.526 . S
C1583 C1584 1.396 . S
C1583 C1588 1.390 . S
C1584 C1578 1.465 . S
C1584 C1583 1.396 . S
C1584 C1585 1.399 . S
C1585 H1571 0.929 . S
C1585 C1584 1.399 . S
C1585 C1586 1.385 . S
C1586 H1572 0.931 1_554 S
C1586 C1585 1.385 . S
C1586 C1587 1.389 1_554 S
C1587 C1586 1.389 1_556 S
C1587 C1588 1.387 1_556 S
C1588 H1573 0.930 . S
C1588 C1583 1.390 . S
C1588 C1587 1.387 1_554 S
H1589 C1601 0.930 . S
H1590 C1603 0.930 . S
H1591 C1604 0.930 1_545 S
H1592 C1608 0.959 . S
H1593 C1608 0.959 . S
H1594 C1608 0.961 . S
H1595 C1609 0.960 . S
H1596 C1609 0.961 . S
H1597 C1609 0.959 . S
H1598 C1612 0.929 . S
H1599 C1613 0.931 . S
H1600 C1615 0.930 . S
C1601 H1589 0.930 . S
C1601 C1602 1.399 . S
C1601 C1606 1.399 . S
C1602 C1601 1.399 . S
C1602 C1603 1.376 . S
C1603 H1590 0.930 . S
C1603 C1602 1.376 . S
C1603 C1604 1.388 . S
C1604 H1591 0.930 1_565 S
C1604 C1603 1.388 . S
C1604 C1605 1.390 . S
C1605 C1604 1.390 . S
C1605 C1606 1.394 . S
C1605 C1611 1.465 . S
C1606 C1601 1.399 . S
C1606 C1605 1.394 . S
C1606 C1607 1.516 . S
C1607 C1606 1.516 . S
C1607 C1608 1.502 . S
C1607 C1609 1.561 . S
C1607 C1610 1.526 . S
C1608 H1592 0.959 . S
C1608 H1593 0.959 . S
C1608 H1594 0.961 . S
C1608 C1607 1.502 . S
C1609 H1595 0.960 . S
C1609 H1596 0.961 . S
C1609 H1597 0.959 . S
C1609 C1607 1.561 . S
C1610 C1607 1.526 . S
C1610 C1611 1.396 . S
C1610 C1615 1.390 . S
C1611 C1605 1.465 . S
C1611 C1610 1.396 . S
C1611 C1612 1.399 1_565 S
C1612 H1598 0.929 . S
C1612 C1611 1.399 1_545 S
C1612 C1613 1.385 . S
C1613 H1599 0.931 . S
C1613 C1612 1.385 . S
C1613 C1614 1.389 . S
C1614 C1613 1.389 . S
C1614 C1615 1.387 1_545 S
C1615 H1600 0.930 . S
C1615 C1610 1.390 . S
C1615 C1614 1.387 1_565 S
C333 C8 0.983 . S
C345 C208 1.030 . S
C360 C28 1.008 . S
C372 C228 0.998 . S
C387 C48 0.979 . S
C399 C168 1.039 . S
C414 C188 1.069 . S
C426 C68 0.984 . S
C441 C89 1.039 . S
C453 C289 0.997 . S
C468 C309 1.002 . S
C480 C109 1.064 . S
C495 C249 1.012 . S
C507 C129 1.058 . S
C522 C149 1.050 . S
C534 C269 0.988 . S
C549 C1 1.403 . S
C561 C82 1.418 . S
C576 C21 1.424 . S
C588 C262 1.429 . S
C603 C41 1.416 . S
C615 C122 1.405 . S
C630 C61 1.466 . S
C642 C302 1.367 . S
C657 C102 1.406 . S
C669 C181 1.445 . S
C684 C221 1.367 . S
C696 C142 1.463 . S
C711 C242 1.466 . S
C723 C161 1.380 . S
C738 C201 1.410 . S
C750 C282 1.410 . S
C765 C2 0.978 . S
C777 C148 1.082 . S
C792 C22 1.108 . S
C804 C248 1.112 . S
C819 C42 1.104 . S
C831 C108 1.114 . S
C846 C62 0.971 1_455 S
C858 C288 1.091 . S
C873 C69 1.116 . S
C885 C81 1.109 . S
C900 C101 1.054 . S
C912 C169 1.090 . S
C927 C121 1.074 . S
C939 C29 1.097 . S
C954 C209 1.077 . S
C966 C141 0.988 1_655 S
C981 C162 1.093 . S
C993 C308 1.143 . S
C1008 C88 1.083 . S
C1020 C182 1.068 1_655 S
C1035 C268 1.124 . S
C1047 C202 0.980 . S
C1062 C128 1.083 . S
C1074 C222 1.067 . S
C1089 C241 1.026 . S
C1101 C229 1.129 . S
C1116 C261 1.100 1_455 S
C1128 C9 1.119 . S
C1143 C189 1.145 . S
C1155 C281 1.104 . S
C1170 C301 0.997 . S
C1182 C49 1.078 . S
C1197 C19 2.468 . S
C1209 C198 2.501 . S
C1224 C218 2.478 . S
C1236 C39 2.485 . S
C1251 C59 2.432 . S
C1263 C238 2.518 . S
C1278 C178 2.499 . S
C1290 C79 2.449 . S
C1305 C279 2.490 . S
C1317 C98 2.465 . S
C1332 C299 2.517 . S
C1344 C118 2.435 . S
C1359 C319 2.494 . S
C1371 C138 2.461 . S
C1386 C259 2.483 . S
C1398 C158 2.482 . S
C1413 C38 2.522 . S
C1425 C179 2.434 . S
C1440 C58 2.511 . S
C1452 C199 2.437 . S
C1467 C78 2.519 . S
C1479 C219 2.442 . S
C1494 C239 2.481 . S
C1506 C18 2.479 . S
C1521 C119 2.506 . S
C1533 C258 2.457 . S
C1548 C139 2.521 . S
C1560 C278 2.432 . S
C1575 C159 2.505 . S
C1587 C298 2.459 . S
C1602 C99 2.478 . S
C1614 C318 2.485 . S
