# Generated by pormake.
# Topology soi, (5)-cn, num edge types: 1
# Building blocks:
#     Node 0, Type 0, BuildingBlock: BEQFEK_clean_sbu_0, # of connection points: 5
#     Node 1, Type 0, BuildingBlock: BEQFEK_clean_sbu_0, # of connection points: 5
#     Node 2, Type 0, BuildingBlock: BEQFEK_clean_sbu_0, # of connection points: 5
#     Node 3, Type 0, BuildingBlock: BEQFEK_clean_sbu_0, # of connection points: 5
#     Node 4, Type 0, BuildingBlock: BEQFEK_clean_sbu_0, # of connection points: 5
#     Node 5, Type 0, BuildingBlock: BEQFEK_clean_sbu_0, # of connection points: 5
#     Node 6, Type 0, BuildingBlock: BEQFEK_clean_sbu_0, # of connection points: 5
#     Node 7, Type 0, BuildingBlock: BEQFEK_clean_sbu_0, # of connection points: 5
#     Node 8, Type 0, BuildingBlock: BEQFEK_clean_sbu_0, # of connection points: 5
#     Node 9, Type 0, BuildingBlock: BEQFEK_clean_sbu_0, # of connection points: 5
#     Node 10, Type 0, BuildingBlock: BEQFEK_clean_sbu_0, # of connection points: 5
#     Node 11, Type 0, BuildingBlock: BEQFEK_clean_sbu_0, # of connection points: 5
#     Node 12, Type 0, BuildingBlock: BEQFEK_clean_sbu_0, # of connection points: 5
#     Node 13, Type 0, BuildingBlock: BEQFEK_clean_sbu_0, # of connection points: 5
#     Node 14, Type 0, BuildingBlock: BEQFEK_clean_sbu_0, # of connection points: 5
#     Node 15, Type 0, BuildingBlock: BEQFEK_clean_sbu_0, # of connection points: 5
#     Edge 16, Type (0, 0), BuildingBlock: CIFDUS_clean_linker_0, # of connection points: 2
#     Edge 17, Type (0, 0), BuildingBlock: CIFDUS_clean_linker_0, # of connection points: 2
#     Edge 18, Type (0, 0), BuildingBlock: CIFDUS_clean_linker_0, # of connection points: 2
#     Edge 19, Type (0, 0), BuildingBlock: CIFDUS_clean_linker_0, # of connection points: 2
#     Edge 20, Type (0, 0), BuildingBlock: CIFDUS_clean_linker_0, # of connection points: 2
#     Edge 21, Type (0, 0), BuildingBlock: CIFDUS_clean_linker_0, # of connection points: 2
#     Edge 22, Type (0, 0), BuildingBlock: CIFDUS_clean_linker_0, # of connection points: 2
#     Edge 23, Type (0, 0), BuildingBlock: CIFDUS_clean_linker_0, # of connection points: 2
#     Edge 24, Type (0, 0), BuildingBlock: CIFDUS_clean_linker_0, # of connection points: 2
#     Edge 25, Type (0, 0), BuildingBlock: CIFDUS_clean_linker_0, # of connection points: 2
#     Edge 26, Type (0, 0), BuildingBlock: CIFDUS_clean_linker_0, # of connection points: 2
#     Edge 27, Type (0, 0), BuildingBlock: CIFDUS_clean_linker_0, # of connection points: 2
#     Edge 28, Type (0, 0), BuildingBlock: CIFDUS_clean_linker_0, # of connection points: 2
#     Edge 29, Type (0, 0), BuildingBlock: CIFDUS_clean_linker_0, # of connection points: 2
#     Edge 30, Type (0, 0), BuildingBlock: CIFDUS_clean_linker_0, # of connection points: 2
#     Edge 31, Type (0, 0), BuildingBlock: CIFDUS_clean_linker_0, # of connection points: 2
#     Edge 32, Type (0, 0), BuildingBlock: CIFDUS_clean_linker_0, # of connection points: 2
#     Edge 33, Type (0, 0), BuildingBlock: CIFDUS_clean_linker_0, # of connection points: 2
#     Edge 34, Type (0, 0), BuildingBlock: CIFDUS_clean_linker_0, # of connection points: 2
#     Edge 35, Type (0, 0), BuildingBlock: CIFDUS_clean_linker_0, # of connection points: 2
#     Edge 36, Type (0, 0), BuildingBlock: CIFDUS_clean_linker_0, # of connection points: 2
#     Edge 37, Type (0, 0), BuildingBlock: CIFDUS_clean_linker_0, # of connection points: 2
#     Edge 38, Type (0, 0), BuildingBlock: CIFDUS_clean_linker_0, # of connection points: 2
#     Edge 39, Type (0, 0), BuildingBlock: CIFDUS_clean_linker_0, # of connection points: 2
#     Edge 40, Type (0, 0), BuildingBlock: CIFDUS_clean_linker_0, # of connection points: 2
#     Edge 41, Type (0, 0), BuildingBlock: CIFDUS_clean_linker_0, # of connection points: 2
#     Edge 42, Type (0, 0), BuildingBlock: CIFDUS_clean_linker_0, # of connection points: 2
#     Edge 43, Type (0, 0), BuildingBlock: CIFDUS_clean_linker_0, # of connection points: 2
#     Edge 44, Type (0, 0), BuildingBlock: CIFDUS_clean_linker_0, # of connection points: 2
#     Edge 45, Type (0, 0), BuildingBlock: CIFDUS_clean_linker_0, # of connection points: 2
#     Edge 46, Type (0, 0), BuildingBlock: CIFDUS_clean_linker_0, # of connection points: 2
#     Edge 47, Type (0, 0), BuildingBlock: CIFDUS_clean_linker_0, # of connection points: 2
#     Edge 48, Type (0, 0), BuildingBlock: CIFDUS_clean_linker_0, # of connection points: 2
#     Edge 49, Type (0, 0), BuildingBlock: CIFDUS_clean_linker_0, # of connection points: 2
#     Edge 50, Type (0, 0), BuildingBlock: CIFDUS_clean_linker_0, # of connection points: 2
#     Edge 51, Type (0, 0), BuildingBlock: CIFDUS_clean_linker_0, # of connection points: 2
#     Edge 52, Type (0, 0), BuildingBlock: CIFDUS_clean_linker_0, # of connection points: 2
#     Edge 53, Type (0, 0), BuildingBlock: CIFDUS_clean_linker_0, # of connection points: 2
#     Edge 54, Type (0, 0), BuildingBlock: CIFDUS_clean_linker_0, # of connection points: 2
#     Edge 55, Type (0, 0), BuildingBlock: CIFDUS_clean_linker_0, # of connection points: 2
# Relax obj value: 0.116
# Max RMSD: 0.195
# Mean RMSD: 0.178
data_MOF--net-soi--node1-BEQFEK_clean_sbu_0--edge1-CIFDUS_clean_linker_0
_symmetry_space_group_name_H-M    P1
_symmetry_Int_Tables_number       1
_symmetry_cell_setting            triclinic
loop_
_symmetry_equiv_pos_as_xyz
'x, y, z'
_cell_length_a     31.496161
_cell_length_b     24.566824
_cell_length_c     67.380303
_cell_angle_alpha  90.214203
_cell_angle_beta   90.027807
_cell_angle_gamma 90.745597
loop_
_atom_site_label
_atom_site_type_symbol
_atom_site_fract_x
_atom_site_fract_y
_atom_site_fract_z
_atom_type_partial_charge
Co0 Co 0.36293 0.07877 0.16456 0.0
Co1 Co 0.34478 0.08391 0.11835 0.0
C2 C 0.29952 0.15543 0.14658 0.0
O3 O 0.32045 0.13704 0.16119 0.0
O4 O 0.30466 0.13716 0.12908 0.0
C5 C 0.33474 0.06889 0.20404 0.0
O6 O 0.3001 0.08731 0.1957 0.0
C7 C 0.29479 0.07991 0.08135 0.0
C8 C 0.34159 0.05118 0.05942 0.0
C9 C 0.29932 0.06513 0.06155 0.0
N10 N 0.33243 0.07398 0.09056 0.0
N11 N 0.3603 0.05708 0.07732 0.0
C12 C 0.25632 0.10283 0.09119 0.0
H13 H 0.24967 0.08059 0.10518 0.0
H14 H 0.22797 0.10153 0.08147 0.0
H15 H 0.26302 0.14598 0.09509 0.0
C16 C 0.33964 0.96408 0.15781 0.0
N17 N 0.34743 0.01452 0.15093 0.0
N18 N 0.33815 0.01625 0.13191 0.0
C19 C 0.32262 0.96709 0.12625 0.0
C20 C 0.32302 0.9324 0.14255 0.0
C21 C 0.3482 0.94639 0.17867 0.0
H22 H 0.37878 0.96416 0.18388 0.0
H23 H 0.32246 0.96099 0.18848 0.0
H24 H 0.34969 0.90138 0.17972 0.0
O25 O 0.41635 0.10769 0.15435 0.0
O26 O 0.40356 0.11702 0.122 0.0
H27 H 0.32769 0.95935 0.09473 0.0
H28 H 0.28754 0.91535 0.10549 0.0
C29 C 0.30295 0.95605 0.10638 0.0
H30 H 0.27855 0.98698 0.10339 0.0
H31 H 0.39199 0.04886 0.08056 0.0
O32 O 0.36774 0.06295 0.19344 0.0
C33 C 0.42775 0.1233 0.13713 0.0
Co34 Co 0.66441 0.41434 0.15743 0.0
Co35 Co 0.67586 0.41784 0.11026 0.0
C36 C 0.73424 0.3542 0.13582 0.0
O37 O 0.71483 0.36837 0.1516 0.0
O38 O 0.72302 0.3717 0.11888 0.0
C39 C 0.69669 0.4348 0.19609 0.0
O40 O 0.73181 0.43494 0.18558 0.0
C41 C 0.71099 0.41801 0.06925 0.0
C42 C 0.66386 0.46728 0.05337 0.0
C43 C 0.70193 0.44042 0.05081 0.0
N44 N 0.68034 0.43232 0.08216 0.0
N45 N 0.65204 0.46121 0.07244 0.0
C46 C 0.74527 0.37873 0.07411 0.0
H47 H 0.7693 0.39914 0.08373 0.0
H48 H 0.7608 0.36247 0.06062 0.0
H49 H 0.73119 0.344 0.08237 0.0
C50 C 0.66543 0.53399 0.15119 0.0
N51 N 0.66755 0.48255 0.14421 0.0
N52 N 0.67535 0.48393 0.12502 0.0
C53 C 0.68041 0.53618 0.1194 0.0
C54 C 0.67339 0.56977 0.13567 0.0
C55 C 0.65458 0.54844 0.17216 0.0
H56 H 0.63053 0.51935 0.17803 0.0
H57 H 0.68358 0.5459 0.18144 0.0
H58 H 0.64207 0.59038 0.17318 0.0
O59 O 0.61515 0.37098 0.14767 0.0
O60 O 0.62257 0.37482 0.11475 0.0
H61 H 0.67011 0.56044 0.08934 0.0
H62 H 0.71592 0.59179 0.10074 0.0
C63 C 0.69711 0.55342 0.09954 0.0
H64 H 0.71776 0.52158 0.09322 0.0
H65 H 0.6248 0.47729 0.07891 0.0
O66 O 0.6616 0.42607 0.18715 0.0
C67 C 0.60289 0.35817 0.13018 0.0
Co68 Co 0.34227 0.90526 0.4136 0.0
Co69 Co 0.34246 0.8896 0.36688 0.0
C70 C 0.41191 0.84566 0.39224 0.0
O71 O 0.39552 0.86519 0.40806 0.0
O72 O 0.39517 0.85304 0.37521 0.0
C73 C 0.33039 0.89052 0.45537 0.0
O74 O 0.33594 0.83912 0.45072 0.0
C75 C 0.36112 0.90652 0.32385 0.0
C76 C 0.29625 0.89426 0.312 0.0
C77 C 0.33688 0.91059 0.30667 0.0
N78 N 0.33535 0.89036 0.33873 0.0
N79 N 0.29702 0.88152 0.33133 0.0
C80 C 0.40666 0.92296 0.32656 0.0
H81 H 0.41441 0.92738 0.34257 0.0
H82 H 0.41355 0.96162 0.31864 0.0
H83 H 0.42708 0.89107 0.32004 0.0
C84 C 0.32566 0.01785 0.40159 0.0
N85 N 0.33637 0.96648 0.39703 0.0
N86 N 0.33856 0.96106 0.37762 0.0
C87 C 0.3306 0.0096 0.36922 0.0
C88 C 0.3218 0.04707 0.38408 0.0
C89 C 0.31266 0.03515 0.42203 0.0
H90 H 0.29019 0.00449 0.42819 0.0
H91 H 0.34108 0.03673 0.43176 0.0
H92 H 0.29701 0.07524 0.42222 0.0
O93 O 0.29577 0.85372 0.409 0.0
O94 O 0.29445 0.84379 0.3763 0.0
H95 H 0.3047 -0.00401 0.34019 0.0
H96 H 0.32686 0.06365 0.34384 0.0
C97 C 0.33061 0.01993 0.34734 0.0
H98 H 0.3613 0.00717 0.3411 0.0
H99 H 0.27061 0.87009 0.33976 0.0
O100 O 0.3356 0.9265 0.44203 0.0
C101 C 0.27988 0.83275 0.39341 0.0
Co102 Co 0.63666 0.55129 0.41595 0.0
Co103 Co 0.66168 0.55619 0.37022 0.0
C104 C 0.58195 0.60836 0.38774 0.0
O105 O 0.58867 0.59116 0.40529 0.0
O106 O 0.60665 0.59682 0.37326 0.0
C107 C 0.63391 0.57956 0.45678 0.0
O108 O 0.62435 0.62729 0.4494 0.0
C109 C 0.65555 0.52325 0.32725 0.0
C110 C 0.71693 0.55541 0.31631 0.0
C111 C 0.68088 0.52693 0.31024 0.0
N112 N 0.67605 0.54819 0.34244 0.0
N113 N 0.71256 0.56752 0.33566 0.0
C114 C 0.61403 0.49379 0.32954 0.0
H115 H 0.60767 0.4851 0.34542 0.0
H116 H 0.614 0.45529 0.32086 0.0
H117 H 0.58823 0.51982 0.32385 0.0
C118 C 0.64711 0.43574 0.40895 0.0
N119 N 0.64565 0.4866 0.4019 0.0
N120 N 0.65963 0.48753 0.38351 0.0
C121 C 0.67238 0.43698 0.37858 0.0
C122 C 0.66484 0.40239 0.39461 0.0
C123 C 0.63263 0.42025 0.42936 0.0
H124 H 0.60371 0.44325 0.43329 0.0
H125 H 0.62567 0.37593 0.43031 0.0
H126 H 0.6578 0.4312 0.44025 0.0
O127 O 0.68506 0.60072 0.41351 0.0
O128 O 0.70638 0.60421 0.38225 0.0
H129 H 0.71899 0.39012 0.36258 0.0
H130 H 0.67408 0.41176 0.34824 0.0
C131 C 0.69671 0.42402 0.36011 0.0
H132 H 0.71495 0.46027 0.35507 0.0
H133 H 0.73493 0.58838 0.34434 0.0
O134 O 0.63567 0.53877 0.44514 0.0
C135 C 0.70998 0.61904 0.4003 0.0
Co136 Co 0.65141 0.91862 0.92215 0.0
Co137 Co 0.648 0.92645 0.87532 0.0
C138 C 0.58081 0.86812 0.90109 0.0
O139 O 0.59721 0.87974 0.91789 0.0
O140 O 0.59783 0.8841 0.88489 0.0
C141 C 0.66275 0.8895 0.96338 0.0
O142 O 0.64235 0.84454 0.95835 0.0
C143 C 0.61799 0.97191 0.83656 0.0
C144 C 0.65303 0.91887 0.81589 0.0
C145 C 0.62468 0.96132 0.81652 0.0
N146 N 0.64157 0.93719 0.84726 0.0
N147 N 0.66209 0.90545 0.83472 0.0
C148 C 0.58706 0.01098 0.84527 0.0
H149 H 0.58686 0.00834 0.86171 0.0
H150 H 0.59517 0.05309 0.84065 0.0
H151 H 0.55482 0.00148 0.83945 0.0
C152 C 0.65689 0.03683 0.91786 0.0
N153 N 0.6515 0.9874 0.90965 0.0
N154 N 0.655 0.99122 0.89025 0.0
C155 C 0.66556 0.0429 0.88557 0.0
C156 C 0.66665 0.07382 0.90295 0.0
C157 C 0.65338 0.04751 0.93969 0.0
H158 H 0.62783 0.02151 0.9461 0.0
H159 H 0.64641 0.09094 0.9427 0.0
H160 H 0.68368 0.03684 0.94703 0.0
O161 O 0.69654 0.87187 0.91131 0.0
O162 O 0.69807 0.881 0.8786 0.0
H163 H 0.71106 0.08562 0.86737 0.0
H164 H 0.65794 0.08392 0.85785 0.0
C165 C 0.68217 0.05966 0.86565 0.0
H166 H 0.69005 0.02357 0.85652 0.0
H167 H 0.6825 0.87452 0.83903 0.0
O168 O 0.66746 0.92703 0.95061 0.0
C169 C 0.71259 0.86074 0.89447 0.0
Co170 Co 0.31698 0.58857 0.92056 0.0
Co171 Co 0.34463 0.58895 0.87521 0.0
C172 C 0.39798 0.64173 0.9066 0.0
O173 O 0.37328 0.62836 0.92085 0.0
O174 O 0.39023 0.62738 0.88881 0.0
C175 C 0.29964 0.55813 0.96401 0.0
O176 O 0.32778 0.51916 0.96417 0.0
C177 C 0.39195 0.56131 0.83826 0.0
C178 C 0.34597 0.58894 0.81581 0.0
C179 C 0.38501 0.56449 0.81794 0.0
N180 N 0.35816 0.58243 0.84766 0.0
N181 N 0.33123 0.59965 0.83408 0.0
C182 C 0.43075 0.54107 0.84854 0.0
H183 H 0.42571 0.53961 0.86484 0.0
H184 H 0.43922 0.50015 0.84294 0.0
H185 H 0.45784 0.56891 0.84524 0.0
C186 C 0.30402 0.47016 0.9102 0.0
N187 N 0.31866 0.52082 0.90613 0.0
N188 N 0.33145 0.52187 0.88746 0.0
C189 C 0.32603 0.47223 0.8793 0.0
C190 C 0.30858 0.43797 0.89338 0.0
C191 C 0.28021 0.45494 0.9286 0.0
H192 H 0.26308 0.49059 0.93451 0.0
H193 H 0.30307 0.44072 0.93991 0.0
H194 H 0.25714 0.42134 0.92564 0.0
O195 O 0.27602 0.63677 0.90747 0.0
O196 O 0.29523 0.63607 0.87589 0.0
H197 H 0.31705 0.48638 0.8482 0.0
H198 H 0.3264 0.41591 0.85427 0.0
C199 C 0.33484 0.45864 0.85802 0.0
H200 H 0.36916 0.46395 0.85519 0.0
H201 H 0.30216 0.61754 0.83728 0.0
O202 O 0.29353 0.58544 0.94827 0.0
C203 C 0.27091 0.65212 0.88965 0.0
Co204 Co 0.68226 0.08461 0.60225 0.0
Co205 Co 0.65419 0.08046 0.64757 0.0
C206 C 0.60447 0.14279 0.61806 0.0
O207 O 0.6289 0.12922 0.60373 0.0
O208 O 0.61002 0.12566 0.63574 0.0
C209 C 0.68312 0.06087 0.55888 0.0
O210 O 0.64271 0.04747 0.56021 0.0
C211 C 0.61535 0.05891 0.68804 0.0
C212 C 0.67415 0.06533 0.70585 0.0
C213 C 0.63093 0.05634 0.70734 0.0
N214 N 0.64823 0.06922 0.6757 0.0
N215 N 0.68308 0.07309 0.6866 0.0
C216 C 0.56997 0.05428 0.6817 0.0
H217 H 0.56687 0.06134 0.6655 0.0
H218 H 0.55729 0.01322 0.68541 0.0
H219 H 0.55085 0.0844 0.69001 0.0
C220 C 0.68132 0.96461 0.60871 0.0
N221 N 0.67467 0.01596 0.61497 0.0
N222 N 0.66027 0.01453 0.63331 0.0
C223 C 0.65554 0.96237 0.63898 0.0
C224 C 0.66904 0.92872 0.62367 0.0
C225 C 0.70355 0.95091 0.58973 0.0
H226 H 0.72675 0.98348 0.5859 0.0
H227 H 0.67979 0.94738 0.57761 0.0
H228 H 0.72069 0.9119 0.59089 0.0
O229 O 0.72782 0.12755 0.61514 0.0
O230 O 0.7062 0.12504 0.64628 0.0
H231 H 0.65996 0.95369 0.67049 0.0
H232 H 0.62744 0.90178 0.65847 0.0
C233 C 0.63673 0.94547 0.65842 0.0
H234 H 0.60807 0.96974 0.66131 0.0
H235 H 0.71334 0.08065 0.68087 0.0
O236 O 0.703 0.07654 0.57434 0.0
C237 C 0.73243 0.14107 0.63322 0.0
Co238 Co 0.35415 0.42068 0.60753 0.0
Co239 Co 0.366 0.4189 0.65413 0.0
C240 C 0.43164 0.37442 0.62563 0.0
O241 O 0.41157 0.38669 0.60979 0.0
O242 O 0.41687 0.38532 0.64278 0.0
C243 C 0.32352 0.39588 0.56824 0.0
O244 O 0.32892 0.34535 0.57394 0.0
C245 C 0.40412 0.44757 0.69316 0.0
C246 C 0.35315 0.4193 0.71328 0.0
C247 C 0.39272 0.44444 0.71303 0.0
N248 N 0.37245 0.42562 0.6822 0.0
N249 N 0.34243 0.40812 0.69438 0.0
C250 C 0.44519 0.46838 0.68477 0.0
H251 H 0.44338 0.47097 0.66835 0.0
H252 H 0.45346 0.50885 0.6911 0.0
H253 H 0.47091 0.44013 0.68892 0.0
C254 C 0.33899 0.53687 0.61674 0.0
N255 N 0.35014 0.48658 0.62247 0.0
N256 N 0.35565 0.48639 0.64183 0.0
C257 C 0.34893 0.53682 0.64902 0.0
C258 C 0.33806 0.5706 0.63336 0.0
C259 C 0.32369 0.54957 0.59626 0.0
H260 H 0.2972 0.52124 0.59248 0.0
H261 H 0.34974 0.54282 0.58548 0.0
H262 H 0.31208 0.5917 0.59484 0.0
O263 O 0.31303 0.36627 0.61724 0.0
O264 O 0.31746 0.36828 0.65009 0.0
H265 H 0.33201 0.52585 0.67958 0.0
H266 H 0.34618 0.59551 0.67331 0.0
C267 C 0.3532 0.55213 0.67048 0.0
H268 H 0.38629 0.54547 0.67521 0.0
H269 H 0.31406 0.3896 0.68977 0.0
O270 O 0.33574 0.43446 0.57963 0.0
C271 C 0.30086 0.34996 0.63419 0.0
Co272 Co 0.84267 0.58068 0.65468 0.0
Co273 Co 0.82416 0.58224 0.60815 0.0
C274 C 0.76896 0.64086 0.63635 0.0
O275 O 0.79141 0.62558 0.65097 0.0
O276 O 0.77729 0.6257 0.61873 0.0
C277 C 0.81265 0.55474 0.69242 0.0
O278 O 0.77813 0.55141 0.6815 0.0
C279 C 0.7788 0.57086 0.56977 0.0
C280 C 0.83094 0.54881 0.54951 0.0
C281 C 0.7875 0.55704 0.55017 0.0
N282 N 0.81542 0.57077 0.58015 0.0
N283 N 0.84646 0.55795 0.56787 0.0
C284 C 0.73602 0.57852 0.57894 0.0
H285 H 0.73586 0.56314 0.5944 0.0
H286 H 0.71093 0.557 0.57028 0.0
H287 H 0.72885 0.62261 0.57929 0.0
C288 C 0.84592 0.46293 0.64622 0.0
N289 N 0.83985 0.51454 0.64037 0.0
N290 N 0.82911 0.51472 0.6215 0.0
C291 C 0.82608 0.46293 0.61497 0.0
C292 C 0.83727 0.42824 0.63035 0.0
C293 C 0.8616 0.44768 0.6664 0.0
H294 H 0.88485 0.47863 0.67181 0.0
H295 H 0.83446 0.44642 0.67688 0.0
H296 H 0.8768 0.40718 0.66614 0.0
O297 O 0.88968 0.62578 0.64469 0.0
O298 O 0.87699 0.62735 0.61207 0.0
H299 H 0.83373 0.44993 0.58378 0.0
H300 H 0.79473 0.40537 0.59511 0.0
C301 C 0.80826 0.44723 0.5951 0.0
H302 H 0.78261 0.47536 0.59099 0.0
H303 H 0.87816 0.55428 0.57213 0.0
O304 O 0.84761 0.56676 0.68395 0.0
C305 C 0.89881 0.64201 0.62722 0.0
Co306 Co 0.14798 0.92317 0.66028 0.0
Co307 Co 0.15689 0.90518 0.61368 0.0
C308 C 0.20787 0.84253 0.6437 0.0
O309 O 0.1911 0.86581 0.65861 0.0
O310 O 0.19787 0.85477 0.62596 0.0
C311 C 0.14418 0.90985 0.70197 0.0
O312 O 0.14971 0.85909 0.69644 0.0
C313 C 0.20423 0.89723 0.57614 0.0
C314 C 0.15504 0.91343 0.55366 0.0
C315 C 0.19776 0.90218 0.55588 0.0
N316 N 0.16711 0.90524 0.58553 0.0
N317 N 0.13776 0.91453 0.57196 0.0
C318 C 0.24552 0.88816 0.58649 0.0
H319 H 0.24615 0.91025 0.60089 0.0
H320 H 0.27267 0.90185 0.57719 0.0
H321 H 0.24879 0.84402 0.58944 0.0
C322 C 0.17793 0.03295 0.64835 0.0
N323 N 0.16365 0.98247 0.64389 0.0
N324 N 0.16371 0.97602 0.6245 0.0
C325 C 0.17598 0.02302 0.61595 0.0
C326 C 0.18626 0.06053 0.63074 0.0
C327 C 0.18856 0.0512 0.66901 0.0
H328 H 0.19814 0.01594 0.67813 0.0
H329 H 0.21474 0.08183 0.66908 0.0
H330 H 0.16003 0.06951 0.67585 0.0
O331 O 0.0937 0.88905 0.65163 0.0
O332 O 0.09968 0.87511 0.61911 0.0
H333 H 0.14826 0.01337 0.58713 0.0
H334 H 0.17773 0.07594 0.59032 0.0
C335 C 0.17696 0.03195 0.59398 0.0
H336 H 0.20539 0.01226 0.58761 0.0
H337 H 0.10599 0.92227 0.57521 0.0
O338 O 0.1417 0.94633 0.68869 0.0
C339 C 0.07885 0.87085 0.63525 0.0
Co340 Co 0.84593 0.42195 0.91241 0.0
Co341 Co 0.83464 0.42672 0.86558 0.0
C342 C 0.90831 0.36953 0.88641 0.0
O343 O 0.89635 0.38289 0.90385 0.0
O344 O 0.88805 0.38444 0.87089 0.0
C345 C 0.85888 0.42654 0.95738 0.0
O346 O 0.89982 0.41741 0.95638 0.0
C347 C 0.84723 0.46586 0.82347 0.0
C348 C 0.78871 0.43107 0.81021 0.0
C349 C 0.8242 0.4625 0.80576 0.0
N350 N 0.82577 0.43796 0.83759 0.0
N351 N 0.79108 0.41709 0.82938 0.0
C352 C 0.88725 0.49748 0.82734 0.0
H353 H 0.89153 0.50452 0.84351 0.0
H354 H 0.88669 0.53692 0.81936 0.0
H355 H 0.91462 0.47388 0.82179 0.0
C356 C 0.8393 0.53888 0.90802 0.0
N357 N 0.84237 0.48952 0.89967 0.0
N358 N 0.83339 0.49255 0.88064 0.0
C359 C 0.82181 0.54399 0.87652 0.0
C360 C 0.82514 0.57513 0.89383 0.0
C361 C 0.84895 0.55027 0.92941 0.0
H362 H 0.82156 0.53722 0.93867 0.0
H363 H 0.877 0.5266 0.93407 0.0
H364 H 0.8554 0.59427 0.93196 0.0
O365 O 0.79746 0.37496 0.90574 0.0
O366 O 0.78662 0.37943 0.87341 0.0
H367 H 0.78618 0.52511 0.85007 0.0
H368 H 0.77775 0.59258 0.85978 0.0
C369 C 0.80175 0.56059 0.85736 0.0
H370 H 0.82668 0.57705 0.84733 0.0
H371 H 0.76838 0.39385 0.83694 0.0
O372 O 0.83715 0.42976 0.94154 0.0
C373 C 0.77657 0.36132 0.89038 0.0
Co374 Co 0.1551 0.08277 0.91746 0.0
Co375 Co 0.14437 0.0778 0.87059 0.0
C376 C 0.08328 0.13869 0.89473 0.0
O377 O 0.10357 0.12625 0.91056 0.0
O378 O 0.09435 0.12127 0.87759 0.0
C379 C 0.1561 0.0644 0.96334 0.0
O380 O 0.11875 0.04068 0.96536 0.0
C381 C 0.12726 0.05382 0.82694 0.0
C382 C 0.19206 0.02761 0.81911 0.0
C383 C 0.15169 0.0333 0.81143 0.0
N384 N 0.15235 0.05924 0.84311 0.0
N385 N 0.19104 0.0442 0.83809 0.0
C386 C 0.08057 0.06375 0.82683 0.0
H387 H 0.06818 0.06625 0.84222 0.0
H388 H 0.06378 0.03089 0.81848 0.0
H389 H 0.07447 0.10282 0.8192 0.0
C390 C 0.15714 0.96342 0.91176 0.0
N391 N 0.15276 0.01444 0.90496 0.0
N392 N 0.14455 0.01273 0.88583 0.0
C393 C 0.14087 0.9604 0.88008 0.0
C394 C 0.14943 0.9272 0.89621 0.0
C395 C 0.17356 0.9505 0.93205 0.0
H396 H 0.19429 0.98409 0.93752 0.0
H397 H 0.14636 0.94552 0.94237 0.0
H398 H 0.19213 0.91247 0.932 0.0
O399 O 0.20415 0.1236 0.90838 0.0
O400 O 0.19378 0.12657 0.87601 0.0
H401 H 0.15497 0.94458 0.84955 0.0
H402 H 0.11459 0.9003 0.85987 0.0
C403 C 0.12737 0.94262 0.85973 0.0
H404 H 0.10257 0.97017 0.85408 0.0
H405 H 0.21665 0.04362 0.84792 0.0
O406 O 0.16879 0.07941 0.94628 0.0
C407 C 0.21481 0.14023 0.89136 0.0
Co408 Co 0.15935 0.38805 0.42845 0.0
Co409 Co 0.14443 0.39722 0.38182 0.0
C410 C 0.08327 0.33845 0.41005 0.0
O411 O 0.10442 0.34921 0.42576 0.0
O412 O 0.09536 0.35536 0.39302 0.0
C413 C 0.17072 0.40123 0.47358 0.0
O414 O 0.13291 0.4214 0.47671 0.0
C415 C 0.11337 0.44783 0.34376 0.0
C416 C 0.14551 0.39427 0.32224 0.0
C417 C 0.11967 0.43919 0.32352 0.0
N418 N 0.13509 0.40991 0.35389 0.0
N419 N 0.15368 0.37781 0.34082 0.0
C420 C 0.08429 0.4881 0.35315 0.0
H421 H 0.08594 0.48565 0.36957 0.0
H422 H 0.09233 0.52995 0.34824 0.0
H423 H 0.05127 0.47928 0.34823 0.0
C424 C 0.16643 0.50705 0.42413 0.0
N425 N 0.15779 0.4577 0.41637 0.0
N426 N 0.15708 0.46121 0.39686 0.0
C427 C 0.16865 0.51217 0.39161 0.0
C428 C 0.17425 0.54322 0.40874 0.0
C429 C 0.16663 0.51893 0.4459 0.0
H430 H 0.13879 0.49864 0.45279 0.0
H431 H 0.16481 0.56325 0.44895 0.0
H432 H 0.19591 0.50255 0.45266 0.0
O433 O 0.20296 0.34329 0.41535 0.0
O434 O 0.19301 0.34899 0.38289 0.0
H435 H 0.21244 0.55241 0.37181 0.0
H436 H 0.15818 0.55247 0.36394 0.0
C437 C 0.1828 0.52751 0.37112 0.0
H438 H 0.1887 0.49079 0.362 0.0
H439 H 0.17267 0.34491 0.34459 0.0
O440 O 0.18244 0.38845 0.45615 0.0
C441 C 0.21323 0.33097 0.3977 0.0
Co442 Co 0.83236 0.05588 0.41968 0.0
Co443 Co 0.83659 0.04833 0.37287 0.0
C444 C 0.90183 0.11093 0.39788 0.0
O445 O 0.88523 0.09807 0.41455 0.0
O446 O 0.88611 0.09407 0.38143 0.0
C447 C 0.83447 0.06962 0.46332 0.0
O448 O 0.86968 0.09811 0.46095 0.0
C449 C 0.87269 0.02477 0.33308 0.0
C450 C 0.81369 0.00985 0.31602 0.0
C451 C 0.85745 0.01006 0.31449 0.0
N452 N 0.83925 0.03186 0.34521 0.0
N453 N 0.80415 0.02354 0.3348 0.0
C454 C 0.91803 0.03072 0.33931 0.0
H455 H 0.92148 0.02034 0.35525 0.0
H456 H 0.93869 0.00448 0.3301 0.0
H457 H 0.92828 0.07371 0.33726 0.0
C458 C 0.83504 0.93634 0.41497 0.0
N459 N 0.83492 0.98681 0.40731 0.0
N460 N 0.83403 0.98341 0.38785 0.0
C461 C 0.832 0.93061 0.38245 0.0
C462 C 0.83304 0.89869 0.39948 0.0
C463 C 0.83727 0.925 0.43675 0.0
H464 H 0.85945 0.95441 0.44398 0.0
H465 H 0.84798 0.88288 0.43961 0.0
H466 H 0.80538 0.93056 0.4434 0.0
O467 O 0.78596 0.1005 0.40904 0.0
O468 O 0.78552 0.09238 0.37633 0.0
H469 H 0.79702 0.93627 0.35543 0.0
H470 H 0.81357 0.8688 0.3606 0.0
C471 C 0.82328 0.91213 0.3616 0.0
H472 H 0.852 0.91909 0.35239 0.0
H473 H 0.77358 0.02647 0.34064 0.0
O474 O 0.81662 0.04797 0.44827 0.0
C475 C 0.77026 0.11199 0.3922 0.0
Co476 Co 0.15154 0.57359 0.10805 0.0
Co477 Co 0.14132 0.57883 0.15509 0.0
C478 C 0.07497 0.6231 0.12774 0.0
O479 O 0.09537 0.61097 0.11194 0.0
O480 O 0.08911 0.61129 0.14492 0.0
C481 C 0.17669 0.5915 0.06729 0.0
O482 O 0.17769 0.64283 0.07284 0.0
C483 C 0.11048 0.55566 0.19647 0.0
C484 C 0.16832 0.57726 0.21345 0.0
C485 C 0.12734 0.55718 0.2156 0.0
N486 N 0.14052 0.57334 0.18366 0.0
N487 N 0.17473 0.58676 0.19404 0.0
C488 C 0.06605 0.5402 0.19064 0.0
H489 H 0.05953 0.55236 0.17512 0.0
H490 H 0.06124 0.4956 0.1919 0.0
H491 H 0.04319 0.55989 0.20085 0.0
C492 C 0.16664 0.4583 0.11794 0.0
N493 N 0.15563 0.50899 0.1234 0.0
N494 N 0.15069 0.5106 0.1428 0.0
C495 C 0.15747 0.46062 0.15024 0.0
C496 C 0.16792 0.42575 0.13476 0.0
C497 C 0.18143 0.44403 0.09748 0.0
H498 H 0.20573 0.47429 0.09269 0.0
H499 H 0.15423 0.44605 0.08705 0.0
H500 H 0.19559 0.40305 0.09668 0.0
O501 O 0.19663 0.62539 0.11605 0.0
O502 O 0.18803 0.63068 0.1487 0.0
H503 H 0.1783 0.46981 0.18033 0.0
H504 H 0.15735 0.4025 0.1745 0.0
C505 C 0.15391 0.44668 0.17178 0.0
H506 H 0.12228 0.45858 0.17718 0.0
H507 H 0.20296 0.60142 0.18779 0.0
O508 O 0.16354 0.55571 0.07953 0.0
C509 C 0.20696 0.6452 0.13284 0.0
Co510 Co 0.82183 0.90782 0.10069 0.0
Co511 Co 0.85628 0.9253 0.14422 0.0
C512 C 0.9026 0.85482 0.11649 0.0
O513 O 0.87627 0.86451 0.10246 0.0
O514 O 0.89931 0.87674 0.13362 0.0
C515 C 0.81432 0.92965 0.05781 0.0
O516 O 0.85072 0.95612 0.05926 0.0
C517 C 0.88968 0.93139 0.1857 0.0
C518 C 0.85351 0.00192 0.1966 0.0
C519 C 0.88279 0.96368 0.20236 0.0
N520 N 0.86642 0.95106 0.17063 0.0
N521 N 0.84448 0.99265 0.17743 0.0
C522 C 0.91555 0.88093 0.1844 0.0
H523 H 0.93576 0.88252 0.17093 0.0
H524 H 0.93571 0.87605 0.19778 0.0
H525 H 0.89392 0.84513 0.18289 0.0
C526 C 0.81993 0.02994 0.10341 0.0
N527 N 0.82948 0.98015 0.11042 0.0
N528 N 0.85017 0.98606 0.12724 0.0
C529 C 0.85793 0.03935 0.13051 0.0
C530 C 0.83773 0.06921 0.11598 0.0
C531 C 0.79035 0.03961 0.08644 0.0
H532 H 0.80917 0.04842 0.07288 0.0
H533 H 0.77001 0.07522 0.08949 0.0
H534 H 0.76987 0.00329 0.08375 0.0
O535 O 0.77929 0.86798 0.11641 0.0
O536 O 0.8043 0.87945 0.14683 0.0
H537 H 0.87265 0.07959 0.15823 0.0
H538 H 0.90882 0.09409 0.13856 0.0
C539 C 0.88924 0.06129 0.14541 0.0
H540 H 0.91031 0.02856 0.15072 0.0
H541 H 0.82185 0.0134 0.16917 0.0
O542 O 0.79857 0.90708 0.07312 0.0
C543 C 0.77711 0.85893 0.13493 0.0
H544 H 0.33239 0.84329 0.11887 0.0
H545 H 0.2664 0.90141 0.1707 0.0
H546 H 0.22945 0.81419 0.1739 0.0
H547 H 0.21126 0.72469 0.16046 0.0
H548 H 0.27032 0.66928 0.10642 0.0
H549 H 0.31448 0.75202 0.10548 0.0
C550 C 0.30983 0.83664 0.1308 0.0
C551 C 0.30218 0.87846 0.14455 0.0
C552 C 0.28738 0.78701 0.1321 0.0
C553 C 0.27328 0.86946 0.16011 0.0
C554 C 0.25191 0.81976 0.16187 0.0
C555 C 0.23434 0.73022 0.14867 0.0
C556 C 0.2377 0.69095 0.13359 0.0
C557 C 0.25822 0.7786 0.14779 0.0
C558 C 0.26724 0.69906 0.11821 0.0
C559 C 0.29234 0.74638 0.11763 0.0
H560 H 0.71522 0.63153 0.16317 0.0
H561 H 0.64162 0.64246 0.10941 0.0
H562 H 0.66159 0.73843 0.10612 0.0
H563 H 0.70934 0.8138 0.11566 0.0
H564 H 0.78206 0.80301 0.1698 0.0
H565 H 0.7513 0.71336 0.17634 0.0
C566 C 0.70237 0.65538 0.15113 0.0
C567 C 0.67787 0.62981 0.13628 0.0
C568 C 0.71389 0.71055 0.14938 0.0
C569 C 0.66154 0.66112 0.12071 0.0
C570 C 0.6728 0.71597 0.11887 0.0
C571 C 0.71757 0.79251 0.12917 0.0
C572 C 0.74874 0.81453 0.14193 0.0
C573 C 0.70045 0.74042 0.13266 0.0
C574 C 0.75845 0.78687 0.15959 0.0
C575 C 0.74119 0.73525 0.16327 0.0
H576 H 0.34297 0.14028 0.40357 0.0
H577 H 0.25688 0.07395 0.35965 0.0
H578 H 0.22135 0.16105 0.3572 0.0
H579 H 0.20892 0.25168 0.37047 0.0
H580 H 0.28589 0.31329 0.41868 0.0
H581 H 0.33084 0.23265 0.41672 0.0
C582 C 0.31656 0.14528 0.39342 0.0
C583 C 0.30284 0.10122 0.38164 0.0
C584 C 0.29451 0.19446 0.39303 0.0
C585 C 0.26866 0.10776 0.36852 0.0
C586 C 0.24803 0.15735 0.36726 0.0
C587 C 0.23617 0.24798 0.38022 0.0
C588 C 0.2445 0.28811 0.39458 0.0
C589 C 0.26002 0.20045 0.37979 0.0
C590 C 0.27918 0.28262 0.40747 0.0
C591 C 0.30465 0.23656 0.40641 0.0
H592 H 0.75606 0.18832 0.41999 0.0
H593 H 0.71767 0.13802 0.36117 0.0
H594 H 0.67815 0.22264 0.35721 0.0
H595 H 0.66041 0.31492 0.36953 0.0
H596 H 0.70871 0.36701 0.42656 0.0
H597 H 0.73802 0.27763 0.43224 0.0
C598 C 0.73832 0.19513 0.40643 0.0
C599 C 0.73969 0.1569 0.39092 0.0
C600 C 0.7177 0.24463 0.4039 0.0
C601 C 0.717 0.16687 0.37335 0.0
C602 C 0.69469 0.21537 0.37104 0.0
C603 C 0.67726 0.30639 0.38318 0.0
C604 C 0.68157 0.34714 0.39777 0.0
C605 C 0.69588 0.25528 0.38601 0.0
C606 C 0.70363 0.33587 0.41538 0.0
C607 C 0.72085 0.28487 0.41857 0.0
H608 H 0.65159 0.16196 0.87979 0.0
H609 H 0.72238 0.11011 0.93109 0.0
H610 H 0.75563 0.1993 0.93381 0.0
H611 H 0.77179 0.28706 0.91937 0.0
H612 H 0.71166 0.33507 0.86471 0.0
H613 H 0.66742 0.25218 0.86532 0.0
C614 C 0.67431 0.17031 0.89153 0.0
C615 C 0.68397 0.12962 0.90536 0.0
C616 C 0.69557 0.2208 0.89225 0.0
C617 C 0.71313 0.14108 0.92064 0.0
C618 C 0.73274 0.19195 0.92205 0.0
C619 C 0.74841 0.28008 0.90776 0.0
C620 C 0.74491 0.31699 0.89203 0.0
C621 C 0.725 0.2315 0.90766 0.0
C622 C 0.71489 0.30702 0.87697 0.0
C623 C 0.68979 0.25963 0.87728 0.0
H624 H 0.32726 0.34397 0.91198 0.0
H625 H 0.24822 0.41204 0.8664 0.0
H626 H 0.21832 0.32207 0.85891 0.0
H627 H 0.21076 0.22601 0.86705 0.0
H628 H 0.28422 0.15836 0.91477 0.0
H629 H 0.32153 0.2456 0.91931 0.0
C630 C 0.30353 0.33866 0.90044 0.0
C631 C 0.28999 0.38379 0.88961 0.0
C632 C 0.28614 0.28694 0.89641 0.0
C633 C 0.25917 0.37727 0.87473 0.0
C634 C 0.24224 0.32601 0.87042 0.0
C635 C 0.23591 0.2299 0.878 0.0
C636 C 0.24512 0.18601 0.89044 0.0
C637 C 0.25525 0.28068 0.88126 0.0
C638 C 0.27699 0.19176 0.90493 0.0
C639 C 0.29787 0.2417 0.90769 0.0
H640 H 0.70022 0.87051 0.65429 0.0
H641 H 0.65289 0.85347 0.59449 0.0
H642 H 0.67408 0.75792 0.59403 0.0
H643 H 0.71422 0.68373 0.60938 0.0
H644 H 0.75738 0.70097 0.66999 0.0
H645 H 0.72672 0.79115 0.67182 0.0
C646 C 0.69296 0.84553 0.6414 0.0
C647 C 0.67553 0.86917 0.62435 0.0
C648 C 0.70418 0.79061 0.64145 0.0
C649 C 0.66725 0.83638 0.60764 0.0
C650 C 0.67905 0.78173 0.60743 0.0
C651 C 0.71598 0.70659 0.62316 0.0
C652 C 0.73915 0.68617 0.63931 0.0
C653 C 0.6988 0.75896 0.62406 0.0
C654 C 0.7403 0.71588 0.6572 0.0
C655 C 0.7231 0.76778 0.65823 0.0
H656 H 0.27606 0.81128 0.62209 0.0
H657 H 0.19829 0.76612 0.67221 0.0
H658 H 0.23265 0.67771 0.67375 0.0
H659 H 0.27882 0.61 0.65843 0.0
H660 H 0.36205 0.65713 0.61055 0.0
H661 H 0.33065 0.74789 0.61008 0.0
C662 C 0.26723 0.78229 0.63351 0.0
C663 C 0.23452 0.79467 0.64687 0.0
C664 C 0.2874 0.73178 0.63442 0.0
C665 C 0.22359 0.75739 0.66182 0.0
C666 C 0.24291 0.70671 0.6626 0.0
C667 C 0.29101 0.64065 0.64831 0.0
C668 C 0.32244 0.62702 0.63446 0.0
C669 C 0.27403 0.69301 0.64865 0.0
C670 C 0.33734 0.66669 0.62114 0.0
C671 C 0.3196 0.71852 0.62094 0.0
H672 H 0.80325 0.36529 0.65925 0.0
H673 H 0.86319 0.35646 0.60184 0.0
H674 H 0.84151 0.26078 0.59873 0.0
H675 H 0.79479 0.18591 0.61011 0.0
H676 H 0.73874 0.19496 0.66854 0.0
H677 H 0.77195 0.28355 0.67393 0.0
C678 C 0.81318 0.34203 0.64641 0.0
C679 C 0.83367 0.36817 0.63054 0.0
C680 C 0.80122 0.28713 0.64489 0.0
C681 C 0.8461 0.33741 0.61396 0.0
C682 C 0.83389 0.28274 0.61222 0.0
C683 C 0.79081 0.20657 0.62423 0.0
C684 C 0.76311 0.1847 0.63859 0.0
C685 C 0.80967 0.258 0.62722 0.0
C686 C 0.75916 0.2113 0.65702 0.0
C687 C 0.77794 0.26224 0.66011 0.0
H688 H 0.30293 0.26244 0.61079 0.0
H689 H 0.23571 0.33144 0.66035 0.0
H690 H 0.1913 0.24865 0.66272 0.0
H691 H 0.17389 0.15518 0.65114 0.0
H692 H 0.25087 0.08317 0.60528 0.0
H693 H 0.28857 0.16899 0.60063 0.0
C694 C 0.27811 0.25958 0.62193 0.0
C695 C 0.27187 0.30284 0.63517 0.0
C696 C 0.25449 0.21138 0.62377 0.0
C697 C 0.24061 0.29844 0.64992 0.0
C698 C 0.21542 0.25122 0.65129 0.0
C699 C 0.19907 0.15835 0.64023 0.0
C700 C 0.20878 0.11326 0.62822 0.0
C701 C 0.22248 0.20713 0.63842 0.0
C702 C 0.24156 0.11779 0.61417 0.0
C703 C 0.26358 0.16668 0.61166 0.0
H704 H 0.8325 0.66736 0.87158 0.0
H705 H 0.7738 0.60246 0.92448 0.0
H706 H 0.74084 0.68913 0.93113 0.0
H707 H 0.72259 0.77965 0.92045 0.0
H708 H 0.77079 0.84206 0.865 0.0
H709 H 0.81383 0.76033 0.86072 0.0
C710 C 0.81258 0.67251 0.88456 0.0
C711 C 0.80652 0.62898 0.89777 0.0
C712 C 0.79162 0.7219 0.88777 0.0
C713 C 0.78044 0.63585 0.91448 0.0
C714 C 0.76104 0.68527 0.91819 0.0
C715 C 0.74318 0.776 0.90761 0.0
C716 C 0.74375 0.81676 0.89311 0.0
C717 C 0.76586 0.72817 0.90479 0.0
C718 C 0.76997 0.81104 0.87638 0.0
C719 C 0.79434 0.76429 0.87389 0.0
H720 H 0.19185 0.87329 0.86769 0.0
H721 H 0.12873 0.84971 0.92384 0.0
H722 H 0.15701 0.75744 0.92582 0.0
H723 H 0.20755 0.68942 0.91342 0.0
H724 H 0.26675 0.71343 0.8562 0.0
H725 H 0.22981 0.79892 0.85228 0.0
C726 C 0.18265 0.84741 0.87998 0.0
C727 C 0.15875 0.86844 0.89573 0.0
C728 C 0.19832 0.79459 0.88081 0.0
C729 C 0.14798 0.8346 0.91175 0.0
C730 C 0.16397 0.7819 0.91284 0.0
C731 C 0.21164 0.71281 0.89991 0.0
C732 C 0.24069 0.69583 0.88538 0.0
C733 C 0.1905 0.7623 0.89777 0.0
C734 C 0.245 0.72588 0.86776 0.0
C735 C 0.22409 0.775 0.86553 0.0
H736 H 0.15643 0.63096 0.38588 0.0
H737 H 0.23556 0.57882 0.43438 0.0
H738 H 0.26879 0.66837 0.43614 0.0
H739 H 0.28112 0.75754 0.42177 0.0
H740 H 0.21309 0.80498 0.36921 0.0
H741 H 0.17004 0.721 0.37084 0.0
C742 C 0.18105 0.63925 0.39676 0.0
C743 C 0.19286 0.5986 0.41022 0.0
C744 C 0.20218 0.68984 0.39682 0.0
C745 C 0.22464 0.6099 0.42433 0.0
C746 C 0.24416 0.66093 0.42518 0.0
C747 C 0.25622 0.75002 0.41092 0.0
C748 C 0.24969 0.78726 0.39555 0.0
C749 C 0.23372 0.70074 0.41128 0.0
C750 C 0.21825 0.77668 0.38124 0.0
C751 C 0.19391 0.72873 0.38213 0.0
H752 H 0.77827 0.84823 0.42433 0.0
H753 H 0.86759 0.81648 0.3774 0.0
H754 H 0.83938 0.72343 0.37401 0.0
H755 H 0.7821 0.65618 0.38164 0.0
H756 H 0.69903 0.68749 0.4313 0.0
H757 H 0.73335 0.77501 0.43688 0.0
C758 C 0.79287 0.82049 0.4139 0.0
C759 C 0.82405 0.83954 0.40074 0.0
C760 C 0.77738 0.76705 0.41243 0.0
C761 C 0.84248 0.80296 0.38727 0.0
C762 C 0.82644 0.74985 0.38535 0.0
C763 C 0.77224 0.68174 0.39391 0.0
C764 C 0.73752 0.6658 0.40572 0.0
C765 C 0.79263 0.73218 0.39735 0.0
C766 C 0.72548 0.69881 0.42184 0.0
C767 C 0.74493 0.74916 0.42504 0.0
H768 H 0.23041 0.18469 0.12519 0.0
H769 H 0.30989 0.2349 0.1743 0.0
H770 H 0.27484 0.32284 0.17543 0.0
H771 H 0.22744 0.38864 0.16004 0.0
H772 H 0.14417 0.33752 0.11253 0.0
H773 H 0.17575 0.24686 0.11275 0.0
C774 C 0.23966 0.21472 0.13626 0.0
C775 C 0.27304 0.20378 0.14943 0.0
C776 C 0.21932 0.26515 0.13685 0.0
C777 C 0.28423 0.24244 0.164 0.0
C778 C 0.26447 0.29288 0.16455 0.0
C779 C 0.21538 0.3572 0.15011 0.0
C780 C 0.18378 0.36957 0.13621 0.0
C781 C 0.2328 0.30512 0.15072 0.0
C782 C 0.16896 0.32887 0.12317 0.0
C783 C 0.18683 0.27713 0.12336 0.0
H784 H 0.78119 0.31193 0.10553 0.0
H785 H 0.75499 0.29252 0.16802 0.0
H786 H 0.78845 0.2037 0.16747 0.0
H787 H 0.81363 0.12623 0.14822 0.0
H788 H 0.83913 0.14345 0.0857 0.0
H789 H 0.81546 0.23815 0.08705 0.0
C790 C 0.78321 0.28872 0.11909 0.0
C791 C 0.76446 0.30846 0.13665 0.0
C792 C 0.80125 0.2368 0.11853 0.0
C793 C 0.76864 0.2783 0.15422 0.0
C794 C 0.78745 0.22718 0.15389 0.0
C795 C 0.81563 0.15119 0.13503 0.0
C796 C 0.82834 0.12806 0.1169 0.0
C797 C 0.80217 0.20521 0.13598 0.0
C798 C 0.82908 0.16036 0.09977 0.0
C799 C 0.81577 0.21446 0.10058 0.0
H800 H 0.30625 0.10364 0.02426 0.0
H801 H 0.22022 0.01792 0.06316 0.0
H802 H 0.16724 0.01169 0.03658 0.0
H803 H 0.14608 0.02898 1.00178 0.0
H804 H 0.2337 0.1143 0.96317 0.0
H805 H 0.28493 0.12219 0.98999 0.0
C806 C 0.27578 0.08385 0.0269 0.0
C807 C 0.26671 0.06243 0.04571 0.0
C808 C 0.24568 0.08017 1.01153 0.0
C809 C 0.22737 0.03627 0.04894 0.0
C810 C 0.19723 0.03227 0.03369 0.0
C811 C 0.17625 0.04957 0.99928 0.0
C812 C 0.1858 0.07083 0.98039 0.0
C813 C 0.20603 0.05405 0.01487 0.0
C814 C 0.22526 0.09731 0.97747 0.0
C815 C 0.25479 0.1019 0.99283 0.0
H816 H 0.7739 0.42887 0.96361 0.0
H817 H 0.89362 0.43299 0.99482 0.0
H818 H 0.85584 0.4382 0.02656 0.0
H819 H 0.78845 0.44234 0.04534 0.0
H820 H 0.66945 0.43447 0.01364 0.0
H821 H 0.70745 0.43115 0.98213 0.0
C822 C 0.79193 0.43101 0.97731 0.0
C823 C 0.83665 0.43061 0.97677 0.0
C824 C 0.77007 0.43337 0.99543 0.0
C825 C 0.85923 0.43318 0.99476 0.0
C826 C 0.83762 0.43616 0.01292 0.0
C827 C 0.77085 0.43851 0.03158 0.0
C828 C 0.72607 0.43717 0.03191 0.0
C829 C 0.793 0.43604 0.01344 0.0
C830 C 0.70385 0.43503 0.01384 0.0
C831 C 0.72556 0.43306 0.9958 0.0
H832 H 0.32439 0.82856 0.48875 0.0
H833 H 0.28988 0.98476 0.46497 0.0
H834 H 0.24644 0.00265 0.49417 0.0
H835 H 0.21359 0.97083 0.52536 0.0
H836 H 0.25074 0.81709 0.55002 0.0
H837 H 0.29772 0.80125 0.52168 0.0
C838 C 0.30783 0.86684 0.49008 0.0
C839 C 0.31007 0.90492 0.47454 0.0
C840 C 0.28301 0.87707 0.50702 0.0
C841 C 0.28874 0.95459 0.47662 0.0
C842 C 0.26362 0.96478 0.4933 0.0
C843 C 0.23232 0.93414 0.52454 0.0
C844 C 0.22872 0.89504 0.53962 0.0
C845 C 0.25975 0.92581 0.50837 0.0
C846 C 0.25329 0.84784 0.53859 0.0
C847 C 0.27999 0.83872 0.52237 0.0
H848 H 0.72032 0.62054 0.54 0.0
H849 H 0.78924 0.47823 0.52192 0.0
H850 H 0.74404 0.46842 0.4926 0.0
H851 H 0.68847 0.50402 0.47088 0.0
H852 H 0.62247 0.64982 0.48774 0.0
H853 H 0.66202 0.65367 0.51898 0.0
C854 C 0.72481 0.58675 0.52986 0.0
C855 C 0.7578 0.54982 0.53324 0.0
C856 C 0.69914 0.58196 0.51281 0.0
C857 C 0.76406 0.50718 0.51964 0.0
C858 C 0.73817 0.50148 0.50289 0.0
C859 C 0.68206 0.536 0.48156 0.0
C860 C 0.6524 0.57648 0.477 0.0
C861 C 0.70602 0.53908 0.49916 0.0
C862 C 0.64505 0.61812 0.4909 0.0
C863 C 0.66784 0.62051 0.50872 0.0
H864 H 0.72915 0.95611 0.97338 0.0
H865 H 0.64623 0.83094 0.9969 0.0
H866 H 0.68543 0.83287 0.02824 0.0
H867 H 0.74443 0.8682 0.0486 0.0
H868 H 0.82948 0.99024 0.02451 0.0
H869 H 0.78848 0.99108 0.99371 0.0
C870 C 0.71938 0.92963 0.98544 0.0
C871 C 0.68462 0.89361 0.98284 0.0
C872 C 0.74273 0.92998 1.00324 0.0
C873 C 0.6728 0.85906 0.99851 0.0
C874 C 0.69527 0.86005 0.01642 0.0
C875 C 0.75404 0.89503 0.03663 0.0
C876 C 0.79009 0.92907 0.0389 0.0
C877 C 0.73053 0.89497 0.01888 0.0
C878 C 0.80208 0.96338 0.02316 0.0
C879 C 0.77853 0.96405 1.00556 0.0
H880 H 0.19696 0.65638 0.03597 0.0
H881 H 0.20087 0.48952 0.05555 0.0
H882 H 0.2401 0.46442 0.02569 0.0
H883 H 0.27581 0.49062 0.99434 0.0
H884 H 0.26789 0.65657 0.97412 0.0
H885 H 0.22809 0.68115 1.00382 0.0
C886 C 0.2061 0.61441 0.03366 0.0
C887 C 0.1962 0.57507 0.04812 0.0
C888 C 0.22836 0.60012 0.01634 0.0
C889 C 0.20802 0.52077 0.04473 0.0
C890 C 0.23068 0.50637 0.02766 0.0
C891 C 0.26541 0.53213 0.9965 0.0
C892 C 0.27518 0.5718 0.98213 0.0
C893 C 0.24154 0.54583 0.01347 0.0
C894 C 0.26085 0.62525 0.98495 0.0
C895 C 0.23807 0.63939 1.00195 0.0
H896 H 0.7659 0.08731 0.55129 0.0
H897 H 0.6519 0.02558 0.52306 0.0
H898 H 0.68927 0.02018 0.49136 0.0
H899 H 0.75371 0.03521 0.47144 0.0
H900 H 0.86709 0.09942 0.49947 0.0
H901 H 0.83061 0.10109 0.53147 0.0
C902 C 0.74915 0.07257 0.53823 0.0
C903 C 0.70599 0.05703 0.53962 0.0
C904 C 0.77078 0.06987 0.51999 0.0
C905 C 0.68499 0.03798 0.52248 0.0
C906 C 0.70639 0.03481 0.50432 0.0
C907 C 0.77062 0.04919 0.48456 0.0
C908 C 0.81318 0.06718 0.483 0.0
C909 C 0.74922 0.05089 0.50288 0.0
C910 C 0.83437 0.08545 0.50019 0.0
C911 C 0.81348 0.0865 0.51851 0.0
H912 H 0.30405 0.32737 0.53765 0.0
H913 H 0.28286 0.49038 0.55915 0.0
H914 H 0.23205 0.50567 0.53248 0.0
H915 H 0.19151 0.47158 0.50341 0.0
H916 H 0.2174 0.31161 0.48034 0.0
H917 H 0.268 0.29603 0.50723 0.0
C918 C 0.28859 0.36641 0.53641 0.0
C919 C 0.29706 0.40743 0.55054 0.0
C920 C 0.25975 0.37522 0.52083 0.0
C921 C 0.27702 0.45799 0.54855 0.0
C922 C 0.24769 0.46671 0.53333 0.0
C923 C 0.20811 0.43328 0.50443 0.0
C924 C 0.20034 0.39239 0.49021 0.0
C925 C 0.23833 0.42537 0.51953 0.0
C926 C 0.22274 0.34343 0.49128 0.0
C927 C 0.25171 0.33457 0.5066 0.0
H928 H 0.39259 0.00602 0.22353 0.0
H929 H 0.27273 0.08717 0.231 0.0
H930 H 0.26451 0.04719 0.26374 0.0
H931 H 0.28846 0.98505 0.28924 0.0
H932 H 0.40738 0.9021 0.28269 0.0
H933 H 0.41923 0.94742 0.25065 0.0
C934 C 0.365 0.01549 0.23245 0.0
C935 C 0.33314 0.04922 0.22474 0.0
C936 C 0.36018 0.99183 0.25133 0.0
C937 C 0.29754 0.06103 0.23647 0.0
C938 C 0.29275 0.03816 0.25521 0.0
C939 C 0.31705 0.97689 0.28081 0.0
C940 C 0.34683 0.93998 0.28813 0.0
C941 C 0.32337 0.00272 0.26258 0.0
C942 C 0.3841 0.93054 0.27731 0.0
C943 C 0.39071 0.95624 0.25899 0.0
H944 H 0.6311 0.4551 0.22224 0.0
H945 H 0.76758 0.44243 0.21881 0.0
H946 H 0.77386 0.46684 0.25365 0.0
H947 H 0.74178 0.495 0.28482 0.0
H948 H 0.60593 0.51137 0.28901 0.0
H949 H 0.59832 0.48144 0.2545 0.0
C950 C 0.66215 0.45728 0.22918 0.0
C951 C 0.69881 0.44704 0.21776 0.0
C952 C 0.66575 0.47184 0.24946 0.0
C953 C 0.73877 0.4503 0.22706 0.0
C954 C 0.74249 0.46425 0.24707 0.0
C955 C 0.71036 0.49185 0.27828 0.0
C956 C 0.67451 0.50491 0.28974 0.0
C957 C 0.70632 0.47564 0.25834 0.0
C958 C 0.63413 0.50035 0.28088 0.0
C959 C 0.62978 0.48379 0.26098 0.0
H960 H 0.5897 0.92184 0.7827 0.0
H961 H 0.63419 0.0701 0.81056 0.0
H962 H 0.63216 0.11698 0.77866 0.0
H963 H 0.63104 0.11019 0.74219 0.0
H964 H 0.58762 0.96182 0.71414 0.0
H965 H 0.5749 0.92076 0.74668 0.0
C966 C 0.5975 0.96492 0.78182 0.0
C967 C 0.61184 0.99265 0.7989 0.0
C968 C 0.59685 0.99132 0.76335 0.0
C969 C 0.62221 0.04826 0.79769 0.0
C970 C 0.62161 0.07486 0.77939 0.0
C971 C 0.61721 0.06963 0.74328 0.0
C972 C 0.61007 0.03904 0.7259 0.0
C973 C 0.61079 0.04612 0.76203 0.0
C974 C 0.5926 0.98638 0.72734 0.0
C975 C 0.58594 0.96267 0.74596 0.0
H976 H 0.40983 0.40212 0.74894 0.0
H977 H 0.41219 0.5521 0.71601 0.0
H978 H 0.41979 0.60404 0.74676 0.0
H979 H 0.4097 0.60683 0.78296 0.0
H980 H 0.40334 0.45693 0.81585 0.0
H981 H 0.41449 0.40489 0.78542 0.0
C982 C 0.41375 0.44605 0.74854 0.0
C983 C 0.41091 0.47329 0.73031 0.0
C984 C 0.41685 0.47568 0.76635 0.0
C985 C 0.41541 0.53019 0.72983 0.0
C986 C 0.41905 0.55997 0.74746 0.0
C987 C 0.41258 0.56289 0.78349 0.0
C988 C 0.40616 0.53571 0.80156 0.0
C989 C 0.41762 0.53323 0.76582 0.0
C990 C 0.4093 0.4788 0.80219 0.0
C991 C 0.41492 0.44896 0.78471 0.0
H992 H 0.76464 0.49692 0.7805 0.0
H993 H 0.90035 0.4819 0.78609 0.0
H994 H 0.90935 0.51258 0.75173 0.0
H995 H 0.87753 0.5372 0.7191 0.0
H996 H 0.74105 0.54748 0.71442 0.0
H997 H 0.73364 0.52461 0.74926 0.0
C998 C 0.79633 0.50064 0.7743 0.0
C999 C 0.83173 0.48729 0.78595 0.0
C1000 C 0.8011 0.5169 0.75452 0.0
C1001 C 0.87252 0.49283 0.77766 0.0
C1002 C 0.87763 0.50979 0.7579 0.0
C1003 C 0.84626 0.53484 0.72579 0.0
C1004 C 0.80989 0.54368 0.71404 0.0
C1005 C 0.84202 0.52103 0.74604 0.0
C1006 C 0.7696 0.5404 0.72295 0.0
C1007 C 0.76525 0.52743 0.74295 0.0
H1008 H 0.1716 0.93887 0.79402 0.0
H1009 H 0.10566 0.08847 0.78345 0.0
H1010 H 0.09656 0.06338 0.74833 0.0
H1011 H 0.11246 0.00104 0.72012 0.0
H1012 H 0.17645 0.85021 0.73199 0.0
H1013 H 0.1814 0.87369 0.76703 0.0
C1014 C 0.15472 0.96565 0.78406 0.0
C1015 C 0.13937 0.01542 0.79122 0.0
C1016 C 0.14976 0.95095 0.76406 0.0
C1017 C 0.11732 0.04966 0.77828 0.0
C1018 C 0.11253 0.03552 0.75818 0.0
C1019 C 0.12726 0.9733 0.73043 0.0
C1020 C 0.14442 0.92414 0.72338 0.0
C1021 C 0.12944 0.98669 0.7508 0.0
C1022 C 0.16302 0.88828 0.73696 0.0
C1023 C 0.16593 0.90167 0.75704 0.0
H1024 H 0.08745 0.40655 0.28823 0.0
H1025 H 0.13281 0.54866 0.3198 0.0
H1026 H 0.13321 0.60083 0.28901 0.0
H1027 H 0.1315 0.60152 0.25238 0.0
H1028 H 0.08873 0.45811 0.22079 0.0
H1029 H 0.07582 0.41136 0.25212 0.0
C1030 C 0.09611 0.44944 0.28841 0.0
C1031 C 0.10942 0.47394 0.30631 0.0
C1032 C 0.0972 0.4788 0.27054 0.0
C1033 C 0.12116 0.52928 0.30637 0.0
C1034 C 0.12208 0.55891 0.28867 0.0
C1035 C 0.11822 0.56055 0.25243 0.0
C1036 C 0.11054 0.53363 0.23428 0.0
C1037 C 0.11166 0.53351 0.27057 0.0
C1038 C 0.09374 0.48039 0.23449 0.0
C1039 C 0.08696 0.45329 0.25245 0.0
H1040 H 0.85557 0.92014 0.29156 0.0
H1041 H 0.9091 0.082 0.29552 0.0
H1042 H 0.92996 0.0778 0.26052 0.0
H1043 H 0.91947 0.03479 0.22772 0.0
H1044 H 0.86637 0.87265 0.22385 0.0
H1045 H 0.85988 0.86916 0.26002 0.0
C1046 C 0.87313 0.95361 0.28485 0.0
C1047 C 0.88063 0.00144 0.29583 0.0
C1048 C 0.88475 0.95085 0.26477 0.0
C1049 C 0.90331 0.04477 0.28723 0.0
C1050 C 0.91486 0.04249 0.26722 0.0
C1051 C 0.90816 -0.00206 0.23493 0.0
C1052 C 0.89335 0.95407 0.22331 0.0
C1053 C 0.90391 -0.00327 0.25566 0.0
C1054 C 0.87841 0.90656 0.23261 0.0
C1055 C 0.87416 0.90491 0.25325 0.0
H1056 H 0.58577 0.27366 0.15421 0.0
H1057 H 0.54416 0.35006 0.10024 0.0
H1058 H 0.48839 0.28013 0.09622 0.0
H1059 H 0.44938 0.19957 0.10924 0.0
H1060 H 0.49429 0.12263 0.16267 0.0
H1061 H 0.55155 0.18961 0.16539 0.0
C1062 C 0.56425 0.27525 0.14165 0.0
C1063 C 0.56828 0.31755 0.12781 0.0
C1064 C 0.5333 0.23431 0.13917 0.0
C1065 C 0.54116 0.3182 0.11125 0.0
C1066 C 0.50948 0.27812 0.1089 0.0
C1067 C 0.4723 0.19674 0.12119 0.0
C1068 C 0.46729 0.15634 0.13581 0.0
C1069 C 0.50509 0.23606 0.12286 0.0
C1070 C 0.49718 0.15348 0.15129 0.0
C1071 C 0.52982 0.192 0.15295 0.0
H1072 H 0.44783 0.78451 0.36293 0.0
H1073 H 0.45563 0.81927 0.42577 0.0
H1074 H 0.50703 0.74699 0.42982 0.0
H1075 H 0.54784 0.67246 0.41595 0.0
H1076 H 0.54254 0.6381 0.35313 0.0
H1077 H 0.49131 0.71139 0.34872 0.0
C1078 C 0.46113 0.7768 0.37748 0.0
C1079 C 0.44766 0.80737 0.39403 0.0
C1080 C 0.49045 0.73466 0.37978 0.0
C1081 C 0.4653 0.79657 0.41276 0.0
C1082 C 0.49452 0.75494 0.41513 0.0
C1083 C 0.53514 0.68041 0.40129 0.0
C1084 C 0.54844 0.64925 0.38493 0.0
C1085 C 0.50674 0.72324 0.39883 0.0
C1086 C 0.53245 0.66115 0.36599 0.0
C1087 C 0.50338 0.70321 0.36346 0.0
H1088 H 0.54352 0.80915 0.93103 0.0
H1089 H 0.53454 0.8432 0.86824 0.0
H1090 H 0.47885 0.77477 0.86474 0.0
H1091 H 0.43455 0.70426 0.87879 0.0
H1092 H 0.43914 0.66977 0.94152 0.0
H1093 H 0.49526 0.73941 0.94571 0.0
C1094 C 0.529 0.80202 0.91664 0.0
C1095 C 0.54348 0.83116 0.89991 0.0
C1096 C 0.49678 0.76217 0.91464 0.0
C1097 C 0.52432 0.82132 0.88137 0.0
C1098 C 0.49251 0.78201 0.8793 0.0
C1099 C 0.44795 0.71133 0.89343 0.0
C1100 C 0.43318 0.68119 0.90978 0.0
C1101 C 0.47903 0.75179 0.89573 0.0
C1102 C 0.45031 0.69208 0.92866 0.0
C1103 C 0.4822 0.73199 0.93105 0.0
H1104 H 0.45867 0.3068 0.59575 0.0
H1105 H 0.4918 0.36728 0.6541 0.0
H1106 H 0.54794 0.30082 0.65662 0.0
H1107 H 0.58379 0.22128 0.64374 0.0
H1108 H 0.55459 0.16054 0.58516 0.0
H1109 H 0.50058 0.23118 0.58123 0.0
C1110 C 0.47883 0.30615 0.60879 0.0
C1111 C 0.47069 0.34162 0.6248 0.0
C1112 C 0.51112 0.26714 0.61029 0.0
C1113 C 0.49703 0.34014 0.64165 0.0
C1114 C 0.52907 0.30197 0.64317 0.0
C1115 C 0.56548 0.22331 0.63012 0.0
C1116 C 0.57228 0.18509 0.61495 0.0
C1117 C 0.53552 0.26435 0.62786 0.0
C1118 C 0.54938 0.18921 0.59714 0.0
C1119 C 0.51867 0.22963 0.5949 0.0
H1120 H 0.92681 0.71282 0.65505 0.0
H1121 H 0.94573 0.66545 0.594 0.0
H1122 H 0.00084 0.73613 0.59047 0.0
H1123 H 0.04543 0.80857 0.60533 0.0
H1124 H 0.02464 0.85594 0.66637 0.0
H1125 H 0.96761 0.78859 0.66912 0.0
C1126 C 0.94319 0.71762 0.64099 0.0
C1127 C 0.93285 0.68334 0.62491 0.0
C1128 C 0.97405 0.75872 0.639 0.0
C1129 C 0.95351 0.69104 0.60665 0.0
C1130 C 0.98485 0.73152 0.60462 0.0
C1131 C 0.028 0.80483 0.61915 0.0
C1132 C 0.03962 0.83708 0.63566 0.0
C1133 C 0.99552 0.7654 0.62075 0.0
C1134 C 0.01659 0.83158 0.65343 0.0
C1135 C 0.98411 0.79282 0.65508 0.0
H1136 H 0.0462 0.19478 0.86464 0.0
H1137 H 0.04312 0.17336 0.92824 0.0
H1138 H 0.99072 0.24502 0.9312 0.0
H1139 H 0.94643 0.31384 0.91597 0.0
H1140 H 0.94827 0.33565 0.8524 0.0
H1141 H 0.00123 0.26417 0.84928 0.0
C1142 C 0.03377 0.20536 0.87914 0.0
C1143 C 0.04855 0.17852 0.89619 0.0
C1144 C 0.00395 0.24716 0.88079 0.0
C1145 C 0.03234 0.19323 0.91486 0.0
C1146 C 0.00249 0.23439 0.91659 0.0
C1147 C 0.95863 0.30352 0.9014 0.0
C1148 C 0.94347 0.33039 0.88445 0.0
C1149 C 0.98837 0.26188 0.89969 0.0
C1150 C 0.95946 0.31585 0.86571 0.0
C1151 C 0.98958 0.27476 0.86391 0.0
H1152 H 0.04774 0.28123 0.37978 0.0
H1153 H 0.03773 0.30805 0.44295 0.0
H1154 H 0.98165 0.23843 0.44494 0.0
H1155 H 0.93613 0.16922 0.4287 0.0
H1156 H 0.94826 0.14182 0.36558 0.0
H1157 H 0.00335 0.21194 0.36374 0.0
C1158 C 0.03301 0.27241 0.39398 0.0
C1159 C 0.04669 0.30017 0.41116 0.0
C1160 C 0.00157 0.23166 0.39508 0.0
C1161 C 0.02766 0.28746 0.42947 0.0
C1162 C 0.99574 0.24748 0.43063 0.0
C1163 C 0.95106 0.17821 0.41457 0.0
C1164 C 0.93796 0.15011 0.39732 0.0
C1165 C 0.98269 0.21899 0.41355 0.0
C1166 C 0.9576 0.16264 0.37912 0.0
C1167 C 0.98904 0.20297 0.37801 0.0
H1168 H 0.92578 0.78334 0.14412 0.0
H1169 H 0.94904 0.82792 0.08326 0.0
H1170 H 0.00261 0.75619 0.08055 0.0
H1171 H 0.04568 0.68424 0.09655 0.0
H1172 H 0.01791 0.63944 0.1572 0.0
H1173 H 0.96266 0.70721 0.15875 0.0
C1174 C 0.94269 0.77754 0.13025 0.0
C1175 C 0.93434 0.81155 0.11405 0.0
C1176 C 0.97235 0.73586 0.12873 0.0
C1177 C 0.95543 0.80254 0.096 0.0
C1178 C 0.98591 0.76153 0.09446 0.0
C1179 C 0.02697 0.68861 0.10995 0.0
C1180 C 0.03646 0.65712 0.12681 0.0
C1181 C 0.99499 0.72823 0.11085 0.0
C1182 C 0.01179 0.66339 0.14406 0.0
C1183 C 0.98019 0.70234 0.14502 0.0
loop_
_geom_bond_atom_site_label_1
_geom_bond_atom_site_label_2
_geom_bond_distance
_geom_bond_site_symmetry_2
_ccdc_geom_bond_type
Co0 O3 1.970 . S
Co0 N17 1.989 . S
Co0 O25 1.967 . S
Co0 O32 1.920 . S
Co1 O4 1.966 . S
Co1 N10 2.022 . S
Co1 N18 1.993 . S
Co1 O26 1.941 . S
C2 O3 1.258 . S
C2 O4 1.263 . S
O3 Co0 1.970 . S
O3 C2 1.258 . S
O4 Co1 1.966 . S
O4 C2 1.263 . S
C5 O6 1.235 . S
C5 O32 1.289 . S
O6 C5 1.235 . S
C7 C9 1.400 . S
C7 N10 1.351 . S
C7 C12 1.501 . S
C8 C9 1.387 . S
C8 N11 1.341 . S
C9 C7 1.400 . S
C9 C8 1.387 . S
N10 Co1 2.022 . S
N10 C7 1.351 . S
N10 N11 1.365 . S
N11 C8 1.341 . S
N11 N10 1.365 . S
N11 H31 0.862 . S
C12 C7 1.501 . S
C12 H13 0.961 . S
C12 H14 0.961 . S
C12 H15 0.960 . S
H13 C12 0.961 . S
H14 C12 0.961 . S
H15 C12 0.960 . S
C16 N17 1.342 1_565 S
C16 C20 1.401 . S
C16 C21 1.499 . S
N17 Co0 1.989 . S
N17 C16 1.342 1_545 S
N17 N18 1.388 . S
N18 Co1 1.993 . S
N18 N17 1.388 . S
N18 C19 1.346 1_545 S
C19 N18 1.346 1_565 S
C19 C20 1.396 . S
C19 C29 1.510 . S
C20 C16 1.401 . S
C20 C19 1.396 . S
C21 C16 1.499 . S
C21 H22 0.959 . S
C21 H23 0.960 . S
C21 H24 0.961 . S
H22 C21 0.959 . S
H23 C21 0.960 . S
H24 C21 0.961 . S
O25 Co0 1.967 . S
O25 C33 1.258 . S
O26 Co1 1.941 . S
O26 C33 1.266 . S
H27 C29 0.959 . S
H28 C29 0.961 . S
C29 C19 1.510 . S
C29 H27 0.959 . S
C29 H28 0.961 . S
C29 H30 0.960 1_565 S
H30 C29 0.960 1_545 S
H31 N11 0.862 . S
O32 Co0 1.920 . S
O32 C5 1.289 . S
C33 O25 1.258 . S
C33 O26 1.266 . S
Co34 O37 1.970 . S
Co34 N51 1.989 . S
Co34 O59 1.967 . S
Co34 O66 1.920 . S
Co35 O38 1.966 . S
Co35 N44 2.022 . S
Co35 N52 1.993 . S
Co35 O60 1.941 . S
C36 O37 1.258 . S
C36 O38 1.263 . S
O37 Co34 1.970 . S
O37 C36 1.258 . S
O38 Co35 1.966 . S
O38 C36 1.263 . S
C39 O40 1.235 . S
C39 O66 1.289 . S
O40 C39 1.235 . S
C41 C43 1.400 . S
C41 N44 1.351 . S
C41 C46 1.501 . S
C42 C43 1.387 . S
C42 N45 1.341 . S
C43 C41 1.400 . S
C43 C42 1.387 . S
N44 Co35 2.022 . S
N44 C41 1.351 . S
N44 N45 1.365 . S
N45 C42 1.341 . S
N45 N44 1.365 . S
N45 H65 0.862 . S
C46 C41 1.501 . S
C46 H47 0.961 . S
C46 H48 0.961 . S
C46 H49 0.960 . S
H47 C46 0.961 . S
H48 C46 0.961 . S
H49 C46 0.960 . S
C50 N51 1.342 . S
C50 C54 1.401 . S
C50 C55 1.499 . S
N51 Co34 1.989 . S
N51 C50 1.342 . S
N51 N52 1.388 . S
N52 Co35 1.993 . S
N52 N51 1.388 . S
N52 C53 1.346 . S
C53 N52 1.346 . S
C53 C54 1.396 . S
C53 C63 1.510 . S
C54 C50 1.401 . S
C54 C53 1.396 . S
C55 C50 1.499 . S
C55 H56 0.959 . S
C55 H57 0.960 . S
C55 H58 0.961 . S
H56 C55 0.959 . S
H57 C55 0.960 . S
H58 C55 0.961 . S
O59 Co34 1.967 . S
O59 C67 1.258 . S
O60 Co35 1.941 . S
O60 C67 1.266 . S
H61 C63 0.959 . S
H62 C63 0.961 . S
C63 C53 1.510 . S
C63 H61 0.959 . S
C63 H62 0.961 . S
C63 H64 0.960 . S
H64 C63 0.960 . S
H65 N45 0.862 . S
O66 Co34 1.920 . S
O66 C39 1.289 . S
C67 O59 1.258 . S
C67 O60 1.266 . S
Co68 O71 1.970 . S
Co68 N85 1.989 . S
Co68 O93 1.967 . S
Co68 O100 1.920 . S
Co69 O72 1.966 . S
Co69 N78 2.022 . S
Co69 N86 1.993 . S
Co69 O94 1.941 . S
C70 O71 1.258 . S
C70 O72 1.263 . S
O71 Co68 1.970 . S
O71 C70 1.258 . S
O72 Co69 1.966 . S
O72 C70 1.263 . S
C73 O74 1.235 . S
C73 O100 1.289 . S
O74 C73 1.235 . S
C75 C77 1.400 . S
C75 N78 1.351 . S
C75 C80 1.501 . S
C76 C77 1.387 . S
C76 N79 1.341 . S
C77 C75 1.400 . S
C77 C76 1.387 . S
N78 Co69 2.022 . S
N78 C75 1.351 . S
N78 N79 1.365 . S
N79 C76 1.341 . S
N79 N78 1.365 . S
N79 H99 0.862 . S
C80 C75 1.501 . S
C80 H81 0.961 . S
C80 H82 0.961 . S
C80 H83 0.960 . S
H81 C80 0.961 . S
H82 C80 0.961 . S
H83 C80 0.960 . S
C84 N85 1.342 1_545 S
C84 C88 1.401 . S
C84 C89 1.499 . S
N85 Co68 1.989 . S
N85 C84 1.342 1_565 S
N85 N86 1.388 . S
N86 Co69 1.993 . S
N86 N85 1.388 . S
N86 C87 1.346 1_565 S
C87 N86 1.346 1_545 S
C87 C88 1.396 . S
C87 C97 1.510 . S
C88 C84 1.401 . S
C88 C87 1.396 . S
C89 C84 1.499 . S
C89 H90 0.959 . S
C89 H91 0.960 . S
C89 H92 0.961 . S
H90 C89 0.959 . S
H91 C89 0.960 . S
H92 C89 0.961 . S
O93 Co68 1.967 . S
O93 C101 1.258 . S
O94 Co69 1.941 . S
O94 C101 1.266 . S
H95 C97 0.959 . S
H96 C97 0.961 . S
C97 C87 1.510 . S
C97 H95 0.959 . S
C97 H96 0.961 . S
C97 H98 0.960 . S
H98 C97 0.960 . S
H99 N79 0.862 . S
O100 Co68 1.920 . S
O100 C73 1.289 . S
C101 O93 1.258 . S
C101 O94 1.266 . S
Co102 O105 1.970 . S
Co102 N119 1.989 . S
Co102 O127 1.967 . S
Co102 O134 1.920 . S
Co103 O106 1.966 . S
Co103 N112 2.022 . S
Co103 N120 1.993 . S
Co103 O128 1.941 . S
C104 O105 1.258 . S
C104 O106 1.263 . S
O105 Co102 1.970 . S
O105 C104 1.258 . S
O106 Co103 1.966 . S
O106 C104 1.263 . S
C107 O108 1.235 . S
C107 O134 1.289 . S
O108 C107 1.235 . S
C109 C111 1.400 . S
C109 N112 1.351 . S
C109 C114 1.501 . S
C110 C111 1.387 . S
C110 N113 1.341 . S
C111 C109 1.400 . S
C111 C110 1.387 . S
N112 Co103 2.022 . S
N112 C109 1.351 . S
N112 N113 1.365 . S
N113 C110 1.341 . S
N113 N112 1.365 . S
N113 H133 0.862 . S
C114 C109 1.501 . S
C114 H115 0.961 . S
C114 H116 0.961 . S
C114 H117 0.960 . S
H115 C114 0.961 . S
H116 C114 0.961 . S
H117 C114 0.960 . S
C118 N119 1.342 . S
C118 C122 1.401 . S
C118 C123 1.499 . S
N119 Co102 1.989 . S
N119 C118 1.342 . S
N119 N120 1.388 . S
N120 Co103 1.993 . S
N120 N119 1.388 . S
N120 C121 1.346 . S
C121 N120 1.346 . S
C121 C122 1.396 . S
C121 C131 1.510 . S
C122 C118 1.401 . S
C122 C121 1.396 . S
C123 C118 1.499 . S
C123 H124 0.959 . S
C123 H125 0.960 . S
C123 H126 0.961 . S
H124 C123 0.959 . S
H125 C123 0.960 . S
H126 C123 0.961 . S
O127 Co102 1.967 . S
O127 C135 1.258 . S
O128 Co103 1.941 . S
O128 C135 1.266 . S
H129 C131 0.959 . S
H130 C131 0.961 . S
C131 C121 1.510 . S
C131 H129 0.959 . S
C131 H130 0.961 . S
C131 H132 0.960 . S
H132 C131 0.960 . S
H133 N113 0.862 . S
O134 Co102 1.920 . S
O134 C107 1.289 . S
C135 O127 1.258 . S
C135 O128 1.266 . S
Co136 O139 1.970 . S
Co136 N153 1.989 . S
Co136 O161 1.967 . S
Co136 O168 1.920 . S
Co137 O140 1.966 . S
Co137 N146 2.022 . S
Co137 N154 1.993 . S
Co137 O162 1.941 . S
C138 O139 1.258 . S
C138 O140 1.263 . S
O139 Co136 1.970 . S
O139 C138 1.258 . S
O140 Co137 1.966 . S
O140 C138 1.263 . S
C141 O142 1.235 . S
C141 O168 1.289 . S
O142 C141 1.235 . S
C143 C145 1.400 . S
C143 N146 1.351 . S
C143 C148 1.501 . S
C144 C145 1.387 . S
C144 N147 1.341 . S
C145 C143 1.400 . S
C145 C144 1.387 . S
N146 Co137 2.022 . S
N146 C143 1.351 . S
N146 N147 1.365 . S
N147 C144 1.341 . S
N147 N146 1.365 . S
N147 H167 0.862 . S
C148 C143 1.501 . S
C148 H149 0.961 . S
C148 H150 0.961 . S
C148 H151 0.960 . S
H149 C148 0.961 . S
H150 C148 0.961 . S
H151 C148 0.960 . S
C152 N153 1.342 1_545 S
C152 C156 1.401 . S
C152 C157 1.499 . S
N153 Co136 1.989 . S
N153 C152 1.342 1_565 S
N153 N154 1.388 . S
N154 Co137 1.993 . S
N154 N153 1.388 . S
N154 C155 1.346 1_565 S
C155 N154 1.346 1_545 S
C155 C156 1.396 . S
C155 C165 1.510 . S
C156 C152 1.401 . S
C156 C155 1.396 . S
C157 C152 1.499 . S
C157 H158 0.959 1_545 S
C157 H159 0.960 . S
C157 H160 0.961 . S
H158 C157 0.959 1_565 S
H159 C157 0.960 . S
H160 C157 0.961 . S
O161 Co136 1.967 . S
O161 C169 1.258 . S
O162 Co137 1.941 . S
O162 C169 1.266 . S
H163 C165 0.959 . S
H164 C165 0.961 . S
C165 C155 1.510 . S
C165 H163 0.959 . S
C165 H164 0.961 . S
C165 H166 0.960 . S
H166 C165 0.960 . S
H167 N147 0.862 . S
O168 Co136 1.920 . S
O168 C141 1.289 . S
C169 O161 1.258 . S
C169 O162 1.266 . S
Co170 O173 1.970 . S
Co170 N187 1.989 . S
Co170 O195 1.967 . S
Co170 O202 1.920 . S
Co171 O174 1.966 . S
Co171 N180 2.022 . S
Co171 N188 1.993 . S
Co171 O196 1.941 . S
C172 O173 1.258 . S
C172 O174 1.263 . S
O173 Co170 1.970 . S
O173 C172 1.258 . S
O174 Co171 1.966 . S
O174 C172 1.263 . S
C175 O176 1.235 . S
C175 O202 1.289 . S
O176 C175 1.235 . S
C177 C179 1.400 . S
C177 N180 1.351 . S
C177 C182 1.501 . S
C178 C179 1.387 . S
C178 N181 1.341 . S
C179 C177 1.400 . S
C179 C178 1.387 . S
N180 Co171 2.022 . S
N180 C177 1.351 . S
N180 N181 1.365 . S
N181 C178 1.341 . S
N181 N180 1.365 . S
N181 H201 0.862 . S
C182 C177 1.501 . S
C182 H183 0.961 . S
C182 H184 0.961 . S
C182 H185 0.960 . S
H183 C182 0.961 . S
H184 C182 0.961 . S
H185 C182 0.960 . S
C186 N187 1.342 . S
C186 C190 1.401 . S
C186 C191 1.499 . S
N187 Co170 1.989 . S
N187 C186 1.342 . S
N187 N188 1.388 . S
N188 Co171 1.993 . S
N188 N187 1.388 . S
N188 C189 1.346 . S
C189 N188 1.346 . S
C189 C190 1.396 . S
C189 C199 1.510 . S
C190 C186 1.401 . S
C190 C189 1.396 . S
C191 C186 1.499 . S
C191 H192 0.959 . S
C191 H193 0.960 . S
C191 H194 0.961 . S
H192 C191 0.959 . S
H193 C191 0.960 . S
H194 C191 0.961 . S
O195 Co170 1.967 . S
O195 C203 1.258 . S
O196 Co171 1.941 . S
O196 C203 1.266 . S
H197 C199 0.959 . S
H198 C199 0.961 . S
C199 C189 1.510 . S
C199 H197 0.959 . S
C199 H198 0.961 . S
C199 H200 0.960 . S
H200 C199 0.960 . S
H201 N181 0.862 . S
O202 Co170 1.920 . S
O202 C175 1.289 . S
C203 O195 1.258 . S
C203 O196 1.266 . S
Co204 O207 1.970 . S
Co204 N221 1.989 . S
Co204 O229 1.967 . S
Co204 O236 1.920 . S
Co205 O208 1.966 . S
Co205 N214 2.022 . S
Co205 N222 1.993 . S
Co205 O230 1.941 . S
C206 O207 1.258 . S
C206 O208 1.263 . S
O207 Co204 1.970 . S
O207 C206 1.258 . S
O208 Co205 1.966 . S
O208 C206 1.263 . S
C209 O210 1.235 . S
C209 O236 1.289 . S
O210 C209 1.235 . S
C211 C213 1.400 . S
C211 N214 1.351 . S
C211 C216 1.501 . S
C212 C213 1.387 . S
C212 N215 1.341 . S
C213 C211 1.400 . S
C213 C212 1.387 . S
N214 Co205 2.022 . S
N214 C211 1.351 . S
N214 N215 1.365 . S
N215 C212 1.341 . S
N215 N214 1.365 . S
N215 H235 0.862 . S
C216 C211 1.501 . S
C216 H217 0.961 . S
C216 H218 0.961 . S
C216 H219 0.960 . S
H217 C216 0.961 . S
H218 C216 0.961 . S
H219 C216 0.960 . S
C220 N221 1.342 . S
C220 C224 1.401 1_545 S
C220 C225 1.499 1_545 S
N221 Co204 1.989 . S
N221 C220 1.342 . S
N221 N222 1.388 . S
N222 Co205 1.993 . S
N222 N221 1.388 . S
N222 C223 1.346 1_545 S
C223 N222 1.346 1_565 S
C223 C224 1.396 . S
C223 C233 1.510 . S
C224 C220 1.401 1_565 S
C224 C223 1.396 . S
C225 C220 1.499 1_565 S
C225 H226 0.959 1_565 S
C225 H227 0.960 . S
C225 H228 0.961 . S
H226 C225 0.959 1_545 S
H227 C225 0.960 . S
H228 C225 0.961 . S
O229 Co204 1.967 . S
O229 C237 1.258 . S
O230 Co205 1.941 . S
O230 C237 1.266 . S
H231 C233 0.959 . S
H232 C233 0.961 . S
C233 C223 1.510 . S
C233 H231 0.959 . S
C233 H232 0.961 . S
C233 H234 0.960 1_565 S
H234 C233 0.960 1_545 S
H235 N215 0.862 . S
O236 Co204 1.920 . S
O236 C209 1.289 . S
C237 O229 1.258 . S
C237 O230 1.266 . S
Co238 O241 1.970 . S
Co238 N255 1.989 . S
Co238 O263 1.967 . S
Co238 O270 1.920 . S
Co239 O242 1.966 . S
Co239 N248 2.022 . S
Co239 N256 1.993 . S
Co239 O264 1.941 . S
C240 O241 1.258 . S
C240 O242 1.263 . S
O241 Co238 1.970 . S
O241 C240 1.258 . S
O242 Co239 1.966 . S
O242 C240 1.263 . S
C243 O244 1.235 . S
C243 O270 1.289 . S
O244 C243 1.235 . S
C245 C247 1.400 . S
C245 N248 1.351 . S
C245 C250 1.501 . S
C246 C247 1.387 . S
C246 N249 1.341 . S
C247 C245 1.400 . S
C247 C246 1.387 . S
N248 Co239 2.022 . S
N248 C245 1.351 . S
N248 N249 1.365 . S
N249 C246 1.341 . S
N249 N248 1.365 . S
N249 H269 0.862 . S
C250 C245 1.501 . S
C250 H251 0.961 . S
C250 H252 0.961 . S
C250 H253 0.960 . S
H251 C250 0.961 . S
H252 C250 0.961 . S
H253 C250 0.960 . S
C254 N255 1.342 . S
C254 C258 1.401 . S
C254 C259 1.499 . S
N255 Co238 1.989 . S
N255 C254 1.342 . S
N255 N256 1.388 . S
N256 Co239 1.993 . S
N256 N255 1.388 . S
N256 C257 1.346 . S
C257 N256 1.346 . S
C257 C258 1.396 . S
C257 C267 1.510 . S
C258 C254 1.401 . S
C258 C257 1.396 . S
C259 C254 1.499 . S
C259 H260 0.959 . S
C259 H261 0.960 . S
C259 H262 0.961 . S
H260 C259 0.959 . S
H261 C259 0.960 . S
H262 C259 0.961 . S
O263 Co238 1.967 . S
O263 C271 1.258 . S
O264 Co239 1.941 . S
O264 C271 1.266 . S
H265 C267 0.959 . S
H266 C267 0.961 . S
C267 C257 1.510 . S
C267 H265 0.959 . S
C267 H266 0.961 . S
C267 H268 0.960 . S
H268 C267 0.960 . S
H269 N249 0.862 . S
O270 Co238 1.920 . S
O270 C243 1.289 . S
C271 O263 1.258 . S
C271 O264 1.266 . S
Co272 O275 1.970 . S
Co272 N289 1.989 . S
Co272 O297 1.967 . S
Co272 O304 1.920 . S
Co273 O276 1.966 . S
Co273 N282 2.022 . S
Co273 N290 1.993 . S
Co273 O298 1.941 . S
C274 O275 1.258 . S
C274 O276 1.263 . S
O275 Co272 1.970 . S
O275 C274 1.258 . S
O276 Co273 1.966 . S
O276 C274 1.263 . S
C277 O278 1.235 . S
C277 O304 1.289 . S
O278 C277 1.235 . S
C279 C281 1.400 . S
C279 N282 1.351 . S
C279 C284 1.501 . S
C280 C281 1.387 . S
C280 N283 1.341 . S
C281 C279 1.400 . S
C281 C280 1.387 . S
N282 Co273 2.022 . S
N282 C279 1.351 . S
N282 N283 1.365 . S
N283 C280 1.341 . S
N283 N282 1.365 . S
N283 H303 0.862 . S
C284 C279 1.501 . S
C284 H285 0.961 . S
C284 H286 0.961 . S
C284 H287 0.960 . S
H285 C284 0.961 . S
H286 C284 0.961 . S
H287 C284 0.960 . S
C288 N289 1.342 . S
C288 C292 1.401 . S
C288 C293 1.499 . S
N289 Co272 1.989 . S
N289 C288 1.342 . S
N289 N290 1.388 . S
N290 Co273 1.993 . S
N290 N289 1.388 . S
N290 C291 1.346 . S
C291 N290 1.346 . S
C291 C292 1.396 . S
C291 C301 1.510 . S
C292 C288 1.401 . S
C292 C291 1.396 . S
C293 C288 1.499 . S
C293 H294 0.959 . S
C293 H295 0.960 . S
C293 H296 0.961 . S
H294 C293 0.959 . S
H295 C293 0.960 . S
H296 C293 0.961 . S
O297 Co272 1.967 . S
O297 C305 1.258 . S
O298 Co273 1.941 . S
O298 C305 1.266 . S
H299 C301 0.959 . S
H300 C301 0.961 . S
C301 C291 1.510 . S
C301 H299 0.959 . S
C301 H300 0.961 . S
C301 H302 0.960 . S
H302 C301 0.960 . S
H303 N283 0.862 . S
O304 Co272 1.920 . S
O304 C277 1.289 . S
C305 O297 1.258 . S
C305 O298 1.266 . S
Co306 O309 1.970 . S
Co306 N323 1.989 . S
Co306 O331 1.967 . S
Co306 O338 1.920 . S
Co307 O310 1.966 . S
Co307 N316 2.022 . S
Co307 N324 1.993 . S
Co307 O332 1.941 . S
C308 O309 1.258 . S
C308 O310 1.263 . S
O309 Co306 1.970 . S
O309 C308 1.258 . S
O310 Co307 1.966 . S
O310 C308 1.263 . S
C311 O312 1.235 . S
C311 O338 1.289 . S
O312 C311 1.235 . S
C313 C315 1.400 . S
C313 N316 1.351 . S
C313 C318 1.501 . S
C314 C315 1.387 . S
C314 N317 1.341 . S
C315 C313 1.400 . S
C315 C314 1.387 . S
N316 Co307 2.022 . S
N316 C313 1.351 . S
N316 N317 1.365 . S
N317 C314 1.341 . S
N317 N316 1.365 . S
N317 H337 0.862 . S
C318 C313 1.501 . S
C318 H319 0.961 . S
C318 H320 0.961 . S
C318 H321 0.960 . S
H319 C318 0.961 . S
H320 C318 0.961 . S
H321 C318 0.960 . S
C322 N323 1.342 1_545 S
C322 C326 1.401 . S
C322 C327 1.499 . S
N323 Co306 1.989 . S
N323 C322 1.342 1_565 S
N323 N324 1.388 . S
N324 Co307 1.993 . S
N324 N323 1.388 . S
N324 C325 1.346 1_565 S
C325 N324 1.346 1_545 S
C325 C326 1.396 . S
C325 C335 1.510 . S
C326 C322 1.401 . S
C326 C325 1.396 . S
C327 C322 1.499 . S
C327 H328 0.959 . S
C327 H329 0.960 . S
C327 H330 0.961 . S
H328 C327 0.959 . S
H329 C327 0.960 . S
H330 C327 0.961 . S
O331 Co306 1.967 . S
O331 C339 1.258 . S
O332 Co307 1.941 . S
O332 C339 1.266 . S
H333 C335 0.959 . S
H334 C335 0.961 . S
C335 C325 1.510 . S
C335 H333 0.959 . S
C335 H334 0.961 . S
C335 H336 0.960 1_545 S
H336 C335 0.960 1_565 S
H337 N317 0.862 . S
O338 Co306 1.920 . S
O338 C311 1.289 . S
C339 O331 1.258 . S
C339 O332 1.266 . S
Co340 O343 1.970 . S
Co340 N357 1.989 . S
Co340 O365 1.967 . S
Co340 O372 1.920 . S
Co341 O344 1.966 . S
Co341 N350 2.022 . S
Co341 N358 1.993 . S
Co341 O366 1.941 . S
C342 O343 1.258 . S
C342 O344 1.263 . S
O343 Co340 1.970 . S
O343 C342 1.258 . S
O344 Co341 1.966 . S
O344 C342 1.263 . S
C345 O346 1.235 . S
C345 O372 1.289 . S
O346 C345 1.235 . S
C347 C349 1.400 . S
C347 N350 1.351 . S
C347 C352 1.501 . S
C348 C349 1.387 . S
C348 N351 1.341 . S
C349 C347 1.400 . S
C349 C348 1.387 . S
N350 Co341 2.022 . S
N350 C347 1.351 . S
N350 N351 1.365 . S
N351 C348 1.341 . S
N351 N350 1.365 . S
N351 H371 0.862 . S
C352 C347 1.501 . S
C352 H353 0.961 . S
C352 H354 0.961 . S
C352 H355 0.960 . S
H353 C352 0.961 . S
H354 C352 0.961 . S
H355 C352 0.960 . S
C356 N357 1.342 . S
C356 C360 1.401 . S
C356 C361 1.499 . S
N357 Co340 1.989 . S
N357 C356 1.342 . S
N357 N358 1.388 . S
N358 Co341 1.993 . S
N358 N357 1.388 . S
N358 C359 1.346 . S
C359 N358 1.346 . S
C359 C360 1.396 . S
C359 C369 1.510 . S
C360 C356 1.401 . S
C360 C359 1.396 . S
C361 C356 1.499 . S
C361 H362 0.959 . S
C361 H363 0.960 . S
C361 H364 0.961 . S
H362 C361 0.959 . S
H363 C361 0.960 . S
H364 C361 0.961 . S
O365 Co340 1.967 . S
O365 C373 1.258 . S
O366 Co341 1.941 . S
O366 C373 1.266 . S
H367 C369 0.959 . S
H368 C369 0.961 . S
C369 C359 1.510 . S
C369 H367 0.959 . S
C369 H368 0.961 . S
C369 H370 0.960 . S
H370 C369 0.960 . S
H371 N351 0.862 . S
O372 Co340 1.920 . S
O372 C345 1.289 . S
C373 O365 1.258 . S
C373 O366 1.266 . S
Co374 O377 1.970 . S
Co374 N391 1.989 . S
Co374 O399 1.967 . S
Co374 O406 1.920 . S
Co375 O378 1.966 . S
Co375 N384 2.022 . S
Co375 N392 1.993 . S
Co375 O400 1.941 . S
C376 O377 1.258 . S
C376 O378 1.263 . S
O377 Co374 1.970 . S
O377 C376 1.258 . S
O378 Co375 1.966 . S
O378 C376 1.263 . S
C379 O380 1.235 . S
C379 O406 1.289 . S
O380 C379 1.235 . S
C381 C383 1.400 . S
C381 N384 1.351 . S
C381 C386 1.501 . S
C382 C383 1.387 . S
C382 N385 1.341 . S
C383 C381 1.400 . S
C383 C382 1.387 . S
N384 Co375 2.022 . S
N384 C381 1.351 . S
N384 N385 1.365 . S
N385 C382 1.341 . S
N385 N384 1.365 . S
N385 H405 0.862 . S
C386 C381 1.501 . S
C386 H387 0.961 . S
C386 H388 0.961 . S
C386 H389 0.960 . S
H387 C386 0.961 . S
H388 C386 0.961 . S
H389 C386 0.960 . S
C390 N391 1.342 1_565 S
C390 C394 1.401 . S
C390 C395 1.499 . S
N391 Co374 1.989 . S
N391 C390 1.342 1_545 S
N391 N392 1.388 . S
N392 Co375 1.993 . S
N392 N391 1.388 . S
N392 C393 1.346 1_545 S
C393 N392 1.346 1_565 S
C393 C394 1.396 . S
C393 C403 1.510 . S
C394 C390 1.401 . S
C394 C393 1.396 . S
C395 C390 1.499 . S
C395 H396 0.959 . S
C395 H397 0.960 . S
C395 H398 0.961 . S
H396 C395 0.959 . S
H397 C395 0.960 . S
H398 C395 0.961 . S
O399 Co374 1.967 . S
O399 C407 1.258 . S
O400 Co375 1.941 . S
O400 C407 1.266 . S
H401 C403 0.959 . S
H402 C403 0.961 . S
C403 C393 1.510 . S
C403 H401 0.959 . S
C403 H402 0.961 . S
C403 H404 0.960 . S
H404 C403 0.960 . S
H405 N385 0.862 . S
O406 Co374 1.920 . S
O406 C379 1.289 . S
C407 O399 1.258 . S
C407 O400 1.266 . S
Co408 O411 1.970 . S
Co408 N425 1.989 . S
Co408 O433 1.967 . S
Co408 O440 1.920 . S
Co409 O412 1.966 . S
Co409 N418 2.022 . S
Co409 N426 1.993 . S
Co409 O434 1.941 . S
C410 O411 1.258 . S
C410 O412 1.263 . S
O411 Co408 1.970 . S
O411 C410 1.258 . S
O412 Co409 1.966 . S
O412 C410 1.263 . S
C413 O414 1.235 . S
C413 O440 1.289 . S
O414 C413 1.235 . S
C415 C417 1.400 . S
C415 N418 1.351 . S
C415 C420 1.501 . S
C416 C417 1.387 . S
C416 N419 1.341 . S
C417 C415 1.400 . S
C417 C416 1.387 . S
N418 Co409 2.022 . S
N418 C415 1.351 . S
N418 N419 1.365 . S
N419 C416 1.341 . S
N419 N418 1.365 . S
N419 H439 0.862 . S
C420 C415 1.501 . S
C420 H421 0.961 . S
C420 H422 0.961 . S
C420 H423 0.960 . S
H421 C420 0.961 . S
H422 C420 0.961 . S
H423 C420 0.960 . S
C424 N425 1.342 . S
C424 C428 1.401 . S
C424 C429 1.499 . S
N425 Co408 1.989 . S
N425 C424 1.342 . S
N425 N426 1.388 . S
N426 Co409 1.993 . S
N426 N425 1.388 . S
N426 C427 1.346 . S
C427 N426 1.346 . S
C427 C428 1.396 . S
C427 C437 1.510 . S
C428 C424 1.401 . S
C428 C427 1.396 . S
C429 C424 1.499 . S
C429 H430 0.959 . S
C429 H431 0.960 . S
C429 H432 0.961 . S
H430 C429 0.959 . S
H431 C429 0.960 . S
H432 C429 0.961 . S
O433 Co408 1.967 . S
O433 C441 1.258 . S
O434 Co409 1.941 . S
O434 C441 1.266 . S
H435 C437 0.959 . S
H436 C437 0.961 . S
C437 C427 1.510 . S
C437 H435 0.959 . S
C437 H436 0.961 . S
C437 H438 0.960 . S
H438 C437 0.960 . S
H439 N419 0.862 . S
O440 Co408 1.920 . S
O440 C413 1.289 . S
C441 O433 1.258 . S
C441 O434 1.266 . S
Co442 O445 1.970 . S
Co442 N459 1.989 . S
Co442 O467 1.967 . S
Co442 O474 1.920 . S
Co443 O446 1.966 . S
Co443 N452 2.022 . S
Co443 N460 1.993 . S
Co443 O468 1.941 . S
C444 O445 1.258 . S
C444 O446 1.263 . S
O445 Co442 1.970 . S
O445 C444 1.258 . S
O446 Co443 1.966 . S
O446 C444 1.263 . S
C447 O448 1.235 . S
C447 O474 1.289 . S
O448 C447 1.235 . S
C449 C451 1.400 . S
C449 N452 1.351 . S
C449 C454 1.501 . S
C450 C451 1.387 . S
C450 N453 1.341 . S
C451 C449 1.400 . S
C451 C450 1.387 . S
N452 Co443 2.022 . S
N452 C449 1.351 . S
N452 N453 1.365 . S
N453 C450 1.341 . S
N453 N452 1.365 . S
N453 H473 0.862 . S
C454 C449 1.501 . S
C454 H455 0.961 . S
C454 H456 0.961 . S
C454 H457 0.960 . S
H455 C454 0.961 . S
H456 C454 0.961 . S
H457 C454 0.960 . S
C458 N459 1.342 1_565 S
C458 C462 1.401 . S
C458 C463 1.499 . S
N459 Co442 1.989 . S
N459 C458 1.342 1_545 S
N459 N460 1.388 . S
N460 Co443 1.993 . S
N460 N459 1.388 . S
N460 C461 1.346 1_545 S
C461 N460 1.346 1_565 S
C461 C462 1.396 . S
C461 C471 1.510 . S
C462 C458 1.401 . S
C462 C461 1.396 . S
C463 C458 1.499 . S
C463 H464 0.959 1_565 S
C463 H465 0.960 . S
C463 H466 0.961 . S
H464 C463 0.959 1_545 S
H465 C463 0.960 . S
H466 C463 0.961 . S
O467 Co442 1.967 . S
O467 C475 1.258 . S
O468 Co443 1.941 . S
O468 C475 1.266 . S
H469 C471 0.959 . S
H470 C471 0.961 . S
C471 C461 1.510 . S
C471 H469 0.959 . S
C471 H470 0.961 . S
C471 H472 0.960 . S
H472 C471 0.960 . S
H473 N453 0.862 . S
O474 Co442 1.920 . S
O474 C447 1.289 . S
C475 O467 1.258 . S
C475 O468 1.266 . S
Co476 O479 1.970 . S
Co476 N493 1.989 . S
Co476 O501 1.967 . S
Co476 O508 1.920 . S
Co477 O480 1.966 . S
Co477 N486 2.022 . S
Co477 N494 1.993 . S
Co477 O502 1.941 . S
C478 O479 1.258 . S
C478 O480 1.263 . S
O479 Co476 1.970 . S
O479 C478 1.258 . S
O480 Co477 1.966 . S
O480 C478 1.263 . S
C481 O482 1.235 . S
C481 O508 1.289 . S
O482 C481 1.235 . S
C483 C485 1.400 . S
C483 N486 1.351 . S
C483 C488 1.501 . S
C484 C485 1.387 . S
C484 N487 1.341 . S
C485 C483 1.400 . S
C485 C484 1.387 . S
N486 Co477 2.022 . S
N486 C483 1.351 . S
N486 N487 1.365 . S
N487 C484 1.341 . S
N487 N486 1.365 . S
N487 H507 0.862 . S
C488 C483 1.501 . S
C488 H489 0.961 . S
C488 H490 0.961 . S
C488 H491 0.960 . S
H489 C488 0.961 . S
H490 C488 0.961 . S
H491 C488 0.960 . S
C492 N493 1.342 . S
C492 C496 1.401 . S
C492 C497 1.499 . S
N493 Co476 1.989 . S
N493 C492 1.342 . S
N493 N494 1.388 . S
N494 Co477 1.993 . S
N494 N493 1.388 . S
N494 C495 1.346 . S
C495 N494 1.346 . S
C495 C496 1.396 . S
C495 C505 1.510 . S
C496 C492 1.401 . S
C496 C495 1.396 . S
C497 C492 1.499 . S
C497 H498 0.959 . S
C497 H499 0.960 . S
C497 H500 0.961 . S
H498 C497 0.959 . S
H499 C497 0.960 . S
H500 C497 0.961 . S
O501 Co476 1.967 . S
O501 C509 1.258 . S
O502 Co477 1.941 . S
O502 C509 1.266 . S
H503 C505 0.959 . S
H504 C505 0.961 . S
C505 C495 1.510 . S
C505 H503 0.959 . S
C505 H504 0.961 . S
C505 H506 0.960 . S
H506 C505 0.960 . S
H507 N487 0.862 . S
O508 Co476 1.920 . S
O508 C481 1.289 . S
C509 O501 1.258 . S
C509 O502 1.266 . S
Co510 O513 1.970 . S
Co510 N527 1.989 . S
Co510 O535 1.967 . S
Co510 O542 1.920 . S
Co511 O514 1.966 . S
Co511 N520 2.022 . S
Co511 N528 1.993 . S
Co511 O536 1.941 . S
C512 O513 1.258 . S
C512 O514 1.263 . S
O513 Co510 1.970 . S
O513 C512 1.258 . S
O514 Co511 1.966 . S
O514 C512 1.263 . S
C515 O516 1.235 . S
C515 O542 1.289 . S
O516 C515 1.235 . S
C517 C519 1.400 . S
C517 N520 1.351 . S
C517 C522 1.501 . S
C518 C519 1.387 . S
C518 N521 1.341 . S
C519 C517 1.400 . S
C519 C518 1.387 . S
N520 Co511 2.022 . S
N520 C517 1.351 . S
N520 N521 1.365 . S
N521 C518 1.341 . S
N521 N520 1.365 . S
N521 H541 0.862 . S
C522 C517 1.501 . S
C522 H523 0.961 . S
C522 H524 0.961 . S
C522 H525 0.960 . S
H523 C522 0.961 . S
H524 C522 0.961 . S
H525 C522 0.960 . S
C526 N527 1.342 . S
C526 C530 1.401 1_565 S
C526 C531 1.499 1_565 S
N527 Co510 1.989 . S
N527 C526 1.342 . S
N527 N528 1.388 . S
N528 Co511 1.993 . S
N528 N527 1.388 . S
N528 C529 1.346 1_565 S
C529 N528 1.346 1_545 S
C529 C530 1.396 . S
C529 C539 1.510 . S
C530 C526 1.401 1_545 S
C530 C529 1.396 . S
C531 C526 1.499 1_545 S
C531 H532 0.959 1_545 S
C531 H533 0.960 . S
C531 H534 0.961 . S
H532 C531 0.959 1_565 S
H533 C531 0.960 . S
H534 C531 0.961 . S
O535 Co510 1.967 . S
O535 C543 1.258 . S
O536 Co511 1.941 . S
O536 C543 1.266 . S
H537 C539 0.959 . S
H538 C539 0.961 . S
C539 C529 1.510 . S
C539 H537 0.959 . S
C539 H538 0.961 . S
C539 H540 0.960 1_545 S
H540 C539 0.960 1_565 S
H541 N521 0.862 . S
O542 Co510 1.920 . S
O542 C515 1.289 . S
C543 O535 1.258 . S
C543 O536 1.266 . S
H544 C550 0.930 . S
H545 C553 0.930 . S
H546 C554 0.930 . S
H547 C555 0.930 . S
H548 C558 0.930 . S
H549 C559 0.930 . S
C550 H544 0.930 . S
C550 C551 1.355 . S
C550 C552 1.415 . S
C551 C550 1.355 . S
C551 C553 1.419 . S
C552 C550 1.415 . S
C552 C557 1.425 . S
C552 C559 1.409 . S
C553 H545 0.930 . S
C553 C551 1.419 . S
C553 C554 1.362 . S
C554 H546 0.930 . S
C554 C553 1.362 . S
C554 C557 1.409 . S
C555 H547 0.930 . S
C555 C556 1.355 . S
C555 C557 1.415 . S
C556 C555 1.355 . S
C556 C558 1.419 . S
C557 C552 1.425 . S
C557 C554 1.409 . S
C557 C555 1.415 . S
C558 H548 0.930 . S
C558 C556 1.419 . S
C558 C559 1.362 . S
C559 H549 0.930 . S
C559 C552 1.409 . S
C559 C558 1.362 . S
H560 C566 0.930 . S
H561 C569 0.930 . S
H562 C570 0.930 . S
H563 C571 0.930 . S
H564 C574 0.930 . S
H565 C575 0.930 . S
C566 H560 0.930 . S
C566 C567 1.355 . S
C566 C568 1.415 . S
C567 C566 1.355 . S
C567 C569 1.419 . S
C568 C566 1.415 . S
C568 C573 1.425 . S
C568 C575 1.409 . S
C569 H561 0.930 . S
C569 C567 1.419 . S
C569 C570 1.362 . S
C570 H562 0.930 . S
C570 C569 1.362 . S
C570 C573 1.409 . S
C571 H563 0.930 . S
C571 C572 1.355 . S
C571 C573 1.415 . S
C572 C571 1.355 . S
C572 C574 1.419 . S
C573 C568 1.425 . S
C573 C570 1.409 . S
C573 C571 1.415 . S
C574 H564 0.930 . S
C574 C572 1.419 . S
C574 C575 1.362 . S
C575 H565 0.930 . S
C575 C568 1.409 . S
C575 C574 1.362 . S
H576 C582 0.930 . S
H577 C585 0.930 . S
H578 C586 0.930 . S
H579 C587 0.930 . S
H580 C590 0.930 . S
H581 C591 0.930 . S
C582 H576 0.930 . S
C582 C583 1.355 . S
C582 C584 1.415 . S
C583 C582 1.355 . S
C583 C585 1.419 . S
C584 C582 1.415 . S
C584 C589 1.425 . S
C584 C591 1.409 . S
C585 H577 0.930 . S
C585 C583 1.419 . S
C585 C586 1.362 . S
C586 H578 0.930 . S
C586 C585 1.362 . S
C586 C589 1.409 . S
C587 H579 0.930 . S
C587 C588 1.355 . S
C587 C589 1.415 . S
C588 C587 1.355 . S
C588 C590 1.419 . S
C589 C584 1.425 . S
C589 C586 1.409 . S
C589 C587 1.415 . S
C590 H580 0.930 . S
C590 C588 1.419 . S
C590 C591 1.362 . S
C591 H581 0.930 . S
C591 C584 1.409 . S
C591 C590 1.362 . S
H592 C598 0.930 . S
H593 C601 0.930 . S
H594 C602 0.930 . S
H595 C603 0.930 . S
H596 C606 0.930 . S
H597 C607 0.930 . S
C598 H592 0.930 . S
C598 C599 1.355 . S
C598 C600 1.415 . S
C599 C598 1.355 . S
C599 C601 1.419 . S
C600 C598 1.415 . S
C600 C605 1.425 . S
C600 C607 1.409 . S
C601 H593 0.930 . S
C601 C599 1.419 . S
C601 C602 1.362 . S
C602 H594 0.930 . S
C602 C601 1.362 . S
C602 C605 1.409 . S
C603 H595 0.930 . S
C603 C604 1.355 . S
C603 C605 1.415 . S
C604 C603 1.355 . S
C604 C606 1.419 . S
C605 C600 1.425 . S
C605 C602 1.409 . S
C605 C603 1.415 . S
C606 H596 0.930 . S
C606 C604 1.419 . S
C606 C607 1.362 . S
C607 H597 0.930 . S
C607 C600 1.409 . S
C607 C606 1.362 . S
H608 C614 0.930 . S
H609 C617 0.930 . S
H610 C618 0.930 . S
H611 C619 0.930 . S
H612 C622 0.930 . S
H613 C623 0.930 . S
C614 H608 0.930 . S
C614 C615 1.355 . S
C614 C616 1.415 . S
C615 C614 1.355 . S
C615 C617 1.419 . S
C616 C614 1.415 . S
C616 C621 1.425 . S
C616 C623 1.409 . S
C617 H609 0.930 . S
C617 C615 1.419 . S
C617 C618 1.362 . S
C618 H610 0.930 . S
C618 C617 1.362 . S
C618 C621 1.409 . S
C619 H611 0.930 . S
C619 C620 1.355 . S
C619 C621 1.415 . S
C620 C619 1.355 . S
C620 C622 1.419 . S
C621 C616 1.425 . S
C621 C618 1.409 . S
C621 C619 1.415 . S
C622 H612 0.930 . S
C622 C620 1.419 . S
C622 C623 1.362 . S
C623 H613 0.930 . S
C623 C616 1.409 . S
C623 C622 1.362 . S
H624 C630 0.930 . S
H625 C633 0.930 . S
H626 C634 0.930 . S
H627 C635 0.930 . S
H628 C638 0.930 . S
H629 C639 0.930 . S
C630 H624 0.930 . S
C630 C631 1.355 . S
C630 C632 1.415 . S
C631 C630 1.355 . S
C631 C633 1.419 . S
C632 C630 1.415 . S
C632 C637 1.425 . S
C632 C639 1.409 . S
C633 H625 0.930 . S
C633 C631 1.419 . S
C633 C634 1.362 . S
C634 H626 0.930 . S
C634 C633 1.362 . S
C634 C637 1.409 . S
C635 H627 0.930 . S
C635 C636 1.355 . S
C635 C637 1.415 . S
C636 C635 1.355 . S
C636 C638 1.419 . S
C637 C632 1.425 . S
C637 C634 1.409 . S
C637 C635 1.415 . S
C638 H628 0.930 . S
C638 C636 1.419 . S
C638 C639 1.362 . S
C639 H629 0.930 . S
C639 C632 1.409 . S
C639 C638 1.362 . S
H640 C646 0.930 . S
H641 C649 0.930 . S
H642 C650 0.930 . S
H643 C651 0.930 . S
H644 C654 0.930 . S
H645 C655 0.930 . S
C646 H640 0.930 . S
C646 C647 1.355 . S
C646 C648 1.415 . S
C647 C646 1.355 . S
C647 C649 1.419 . S
C648 C646 1.415 . S
C648 C653 1.425 . S
C648 C655 1.409 . S
C649 H641 0.930 . S
C649 C647 1.419 . S
C649 C650 1.362 . S
C650 H642 0.930 . S
C650 C649 1.362 . S
C650 C653 1.409 . S
C651 H643 0.930 . S
C651 C652 1.355 . S
C651 C653 1.415 . S
C652 C651 1.355 . S
C652 C654 1.419 . S
C653 C648 1.425 . S
C653 C650 1.409 . S
C653 C651 1.415 . S
C654 H644 0.930 . S
C654 C652 1.419 . S
C654 C655 1.362 . S
C655 H645 0.930 . S
C655 C648 1.409 . S
C655 C654 1.362 . S
H656 C662 0.930 . S
H657 C665 0.930 . S
H658 C666 0.930 . S
H659 C667 0.930 . S
H660 C670 0.930 . S
H661 C671 0.930 . S
C662 H656 0.930 . S
C662 C663 1.355 . S
C662 C664 1.415 . S
C663 C662 1.355 . S
C663 C665 1.419 . S
C664 C662 1.415 . S
C664 C669 1.425 . S
C664 C671 1.409 . S
C665 H657 0.930 . S
C665 C663 1.419 . S
C665 C666 1.362 . S
C666 H658 0.930 . S
C666 C665 1.362 . S
C666 C669 1.409 . S
C667 H659 0.930 . S
C667 C668 1.355 . S
C667 C669 1.415 . S
C668 C667 1.355 . S
C668 C670 1.419 . S
C669 C664 1.425 . S
C669 C666 1.409 . S
C669 C667 1.415 . S
C670 H660 0.930 . S
C670 C668 1.419 . S
C670 C671 1.362 . S
C671 H661 0.930 . S
C671 C664 1.409 . S
C671 C670 1.362 . S
H672 C678 0.930 . S
H673 C681 0.930 . S
H674 C682 0.930 . S
H675 C683 0.930 . S
H676 C686 0.930 . S
H677 C687 0.930 . S
C678 H672 0.930 . S
C678 C679 1.355 . S
C678 C680 1.415 . S
C679 C678 1.355 . S
C679 C681 1.419 . S
C680 C678 1.415 . S
C680 C685 1.425 . S
C680 C687 1.409 . S
C681 H673 0.930 . S
C681 C679 1.419 . S
C681 C682 1.362 . S
C682 H674 0.930 . S
C682 C681 1.362 . S
C682 C685 1.409 . S
C683 H675 0.930 . S
C683 C684 1.355 . S
C683 C685 1.415 . S
C684 C683 1.355 . S
C684 C686 1.419 . S
C685 C680 1.425 . S
C685 C682 1.409 . S
C685 C683 1.415 . S
C686 H676 0.930 . S
C686 C684 1.419 . S
C686 C687 1.362 . S
C687 H677 0.930 . S
C687 C680 1.409 . S
C687 C686 1.362 . S
H688 C694 0.930 . S
H689 C697 0.930 . S
H690 C698 0.930 . S
H691 C699 0.930 . S
H692 C702 0.930 . S
H693 C703 0.930 . S
C694 H688 0.930 . S
C694 C695 1.355 . S
C694 C696 1.415 . S
C695 C694 1.355 . S
C695 C697 1.419 . S
C696 C694 1.415 . S
C696 C701 1.425 . S
C696 C703 1.409 . S
C697 H689 0.930 . S
C697 C695 1.419 . S
C697 C698 1.362 . S
C698 H690 0.930 . S
C698 C697 1.362 . S
C698 C701 1.409 . S
C699 H691 0.930 . S
C699 C700 1.355 . S
C699 C701 1.415 . S
C700 C699 1.355 . S
C700 C702 1.419 . S
C701 C696 1.425 . S
C701 C698 1.409 . S
C701 C699 1.415 . S
C702 H692 0.930 . S
C702 C700 1.419 . S
C702 C703 1.362 . S
C703 H693 0.930 . S
C703 C696 1.409 . S
C703 C702 1.362 . S
H704 C710 0.930 . S
H705 C713 0.930 . S
H706 C714 0.930 . S
H707 C715 0.930 . S
H708 C718 0.930 . S
H709 C719 0.930 . S
C710 H704 0.930 . S
C710 C711 1.355 . S
C710 C712 1.415 . S
C711 C710 1.355 . S
C711 C713 1.419 . S
C712 C710 1.415 . S
C712 C717 1.425 . S
C712 C719 1.409 . S
C713 H705 0.930 . S
C713 C711 1.419 . S
C713 C714 1.362 . S
C714 H706 0.930 . S
C714 C713 1.362 . S
C714 C717 1.409 . S
C715 H707 0.930 . S
C715 C716 1.355 . S
C715 C717 1.415 . S
C716 C715 1.355 . S
C716 C718 1.419 . S
C717 C712 1.425 . S
C717 C714 1.409 . S
C717 C715 1.415 . S
C718 H708 0.930 . S
C718 C716 1.419 . S
C718 C719 1.362 . S
C719 H709 0.930 . S
C719 C712 1.409 . S
C719 C718 1.362 . S
H720 C726 0.930 . S
H721 C729 0.930 . S
H722 C730 0.930 . S
H723 C731 0.930 . S
H724 C734 0.930 . S
H725 C735 0.930 . S
C726 H720 0.930 . S
C726 C727 1.355 . S
C726 C728 1.415 . S
C727 C726 1.355 . S
C727 C729 1.419 . S
C728 C726 1.415 . S
C728 C733 1.425 . S
C728 C735 1.409 . S
C729 H721 0.930 . S
C729 C727 1.419 . S
C729 C730 1.362 . S
C730 H722 0.930 . S
C730 C729 1.362 . S
C730 C733 1.409 . S
C731 H723 0.930 . S
C731 C732 1.355 . S
C731 C733 1.415 . S
C732 C731 1.355 . S
C732 C734 1.419 . S
C733 C728 1.425 . S
C733 C730 1.409 . S
C733 C731 1.415 . S
C734 H724 0.930 . S
C734 C732 1.419 . S
C734 C735 1.362 . S
C735 H725 0.930 . S
C735 C728 1.409 . S
C735 C734 1.362 . S
H736 C742 0.930 . S
H737 C745 0.930 . S
H738 C746 0.930 . S
H739 C747 0.930 . S
H740 C750 0.930 . S
H741 C751 0.930 . S
C742 H736 0.930 . S
C742 C743 1.355 . S
C742 C744 1.415 . S
C743 C742 1.355 . S
C743 C745 1.419 . S
C744 C742 1.415 . S
C744 C749 1.425 . S
C744 C751 1.409 . S
C745 H737 0.930 . S
C745 C743 1.419 . S
C745 C746 1.362 . S
C746 H738 0.930 . S
C746 C745 1.362 . S
C746 C749 1.409 . S
C747 H739 0.930 . S
C747 C748 1.355 . S
C747 C749 1.415 . S
C748 C747 1.355 . S
C748 C750 1.419 . S
C749 C744 1.425 . S
C749 C746 1.409 . S
C749 C747 1.415 . S
C750 H740 0.930 . S
C750 C748 1.419 . S
C750 C751 1.362 . S
C751 H741 0.930 . S
C751 C744 1.409 . S
C751 C750 1.362 . S
H752 C758 0.930 . S
H753 C761 0.930 . S
H754 C762 0.930 . S
H755 C763 0.930 . S
H756 C766 0.930 . S
H757 C767 0.930 . S
C758 H752 0.930 . S
C758 C759 1.355 . S
C758 C760 1.415 . S
C759 C758 1.355 . S
C759 C761 1.419 . S
C760 C758 1.415 . S
C760 C765 1.425 . S
C760 C767 1.409 . S
C761 H753 0.930 . S
C761 C759 1.419 . S
C761 C762 1.362 . S
C762 H754 0.930 . S
C762 C761 1.362 . S
C762 C765 1.409 . S
C763 H755 0.930 . S
C763 C764 1.355 . S
C763 C765 1.415 . S
C764 C763 1.355 . S
C764 C766 1.419 . S
C765 C760 1.425 . S
C765 C762 1.409 . S
C765 C763 1.415 . S
C766 H756 0.930 . S
C766 C764 1.419 . S
C766 C767 1.362 . S
C767 H757 0.930 . S
C767 C760 1.409 . S
C767 C766 1.362 . S
H768 C774 0.930 . S
H769 C777 0.930 . S
H770 C778 0.930 . S
H771 C779 0.930 . S
H772 C782 0.930 . S
H773 C783 0.930 . S
C774 H768 0.930 . S
C774 C775 1.355 . S
C774 C776 1.415 . S
C775 C774 1.355 . S
C775 C777 1.419 . S
C776 C774 1.415 . S
C776 C781 1.425 . S
C776 C783 1.409 . S
C777 H769 0.930 . S
C777 C775 1.419 . S
C777 C778 1.362 . S
C778 H770 0.930 . S
C778 C777 1.362 . S
C778 C781 1.409 . S
C779 H771 0.930 . S
C779 C780 1.355 . S
C779 C781 1.415 . S
C780 C779 1.355 . S
C780 C782 1.419 . S
C781 C776 1.425 . S
C781 C778 1.409 . S
C781 C779 1.415 . S
C782 H772 0.930 . S
C782 C780 1.419 . S
C782 C783 1.362 . S
C783 H773 0.930 . S
C783 C776 1.409 . S
C783 C782 1.362 . S
H784 C790 0.930 . S
H785 C793 0.930 . S
H786 C794 0.930 . S
H787 C795 0.930 . S
H788 C798 0.930 . S
H789 C799 0.930 . S
C790 H784 0.930 . S
C790 C791 1.355 . S
C790 C792 1.415 . S
C791 C790 1.355 . S
C791 C793 1.419 . S
C792 C790 1.415 . S
C792 C797 1.425 . S
C792 C799 1.409 . S
C793 H785 0.930 . S
C793 C791 1.419 . S
C793 C794 1.362 . S
C794 H786 0.930 . S
C794 C793 1.362 . S
C794 C797 1.409 . S
C795 H787 0.930 . S
C795 C796 1.355 . S
C795 C797 1.415 . S
C796 C795 1.355 . S
C796 C798 1.419 . S
C797 C792 1.425 . S
C797 C794 1.409 . S
C797 C795 1.415 . S
C798 H788 0.930 . S
C798 C796 1.419 . S
C798 C799 1.362 . S
C799 H789 0.930 . S
C799 C792 1.409 . S
C799 C798 1.362 . S
H800 C806 0.930 . S
H801 C809 0.930 . S
H802 C810 0.930 1_565 S
H803 C811 0.930 . S
H804 C814 0.930 . S
H805 C815 0.930 . S
C806 H800 0.930 . S
C806 C807 1.355 . S
C806 C808 1.415 1_554 S
C807 C806 1.355 . S
C807 C809 1.419 . S
C808 C806 1.415 1_556 S
C808 C813 1.425 . S
C808 C815 1.409 . S
C809 H801 0.930 . S
C809 C807 1.419 . S
C809 C810 1.362 . S
C810 H802 0.930 1_545 S
C810 C809 1.362 . S
C810 C813 1.409 1_554 S
C811 H803 0.930 . S
C811 C812 1.355 . S
C811 C813 1.415 . S
C812 C811 1.355 . S
C812 C814 1.419 . S
C813 C808 1.425 . S
C813 C810 1.409 1_556 S
C813 C811 1.415 . S
C814 H804 0.930 . S
C814 C812 1.419 . S
C814 C815 1.362 . S
C815 H805 0.930 . S
C815 C808 1.409 . S
C815 C814 1.362 . S
H816 C822 0.930 . S
H817 C825 0.930 . S
H818 C826 0.930 . S
H819 C827 0.930 . S
H820 C830 0.930 . S
H821 C831 0.930 . S
C822 H816 0.930 . S
C822 C823 1.355 . S
C822 C824 1.415 . S
C823 C822 1.355 . S
C823 C825 1.419 . S
C824 C822 1.415 . S
C824 C829 1.425 . S
C824 C831 1.409 . S
C825 H817 0.930 . S
C825 C823 1.419 . S
C825 C826 1.362 . S
C826 H818 0.930 . S
C826 C825 1.362 . S
C826 C829 1.409 . S
C827 H819 0.930 . S
C827 C828 1.355 . S
C827 C829 1.415 1_554 S
C828 C827 1.355 . S
C828 C830 1.419 . S
C829 C824 1.425 . S
C829 C826 1.409 . S
C829 C827 1.415 1_556 S
C830 H820 0.930 . S
C830 C828 1.419 . S
C830 C831 1.362 1_554 S
C831 H821 0.930 . S
C831 C824 1.409 . S
C831 C830 1.362 1_556 S
H832 C838 0.930 . S
H833 C841 0.930 . S
H834 C842 0.930 . S
H835 C843 0.930 . S
H836 C846 0.930 . S
H837 C847 0.930 . S
C838 H832 0.930 . S
C838 C839 1.355 . S
C838 C840 1.415 . S
C839 C838 1.355 . S
C839 C841 1.419 . S
C840 C838 1.415 . S
C840 C845 1.425 . S
C840 C847 1.409 . S
C841 H833 0.930 . S
C841 C839 1.419 . S
C841 C842 1.362 . S
C842 H834 0.930 . S
C842 C841 1.362 . S
C842 C845 1.409 . S
C843 H835 0.930 . S
C843 C844 1.355 . S
C843 C845 1.415 . S
C844 C843 1.355 . S
C844 C846 1.419 . S
C845 C840 1.425 . S
C845 C842 1.409 . S
C845 C843 1.415 . S
C846 H836 0.930 . S
C846 C844 1.419 . S
C846 C847 1.362 . S
C847 H837 0.930 . S
C847 C840 1.409 . S
C847 C846 1.362 . S
H848 C854 0.930 . S
H849 C857 0.930 . S
H850 C858 0.930 . S
H851 C859 0.930 . S
H852 C862 0.930 . S
H853 C863 0.930 . S
C854 H848 0.930 . S
C854 C855 1.355 . S
C854 C856 1.415 . S
C855 C854 1.355 . S
C855 C857 1.419 . S
C856 C854 1.415 . S
C856 C861 1.425 . S
C856 C863 1.409 . S
C857 H849 0.930 . S
C857 C855 1.419 . S
C857 C858 1.362 . S
C858 H850 0.930 . S
C858 C857 1.362 . S
C858 C861 1.409 . S
C859 H851 0.930 . S
C859 C860 1.355 . S
C859 C861 1.415 . S
C860 C859 1.355 . S
C860 C862 1.419 . S
C861 C856 1.425 . S
C861 C858 1.409 . S
C861 C859 1.415 . S
C862 H852 0.930 . S
C862 C860 1.419 . S
C862 C863 1.362 . S
C863 H853 0.930 . S
C863 C856 1.409 . S
C863 C862 1.362 . S
H864 C870 0.930 . S
H865 C873 0.930 . S
H866 C874 0.930 . S
H867 C875 0.930 . S
H868 C878 0.930 . S
H869 C879 0.930 . S
C870 H864 0.930 . S
C870 C871 1.355 . S
C870 C872 1.415 . S
C871 C870 1.355 . S
C871 C873 1.419 . S
C872 C870 1.415 . S
C872 C877 1.425 1_556 S
C872 C879 1.409 . S
C873 H865 0.930 . S
C873 C871 1.419 . S
C873 C874 1.362 1_556 S
C874 H866 0.930 . S
C874 C873 1.362 1_554 S
C874 C877 1.409 . S
C875 H867 0.930 . S
C875 C876 1.355 . S
C875 C877 1.415 . S
C876 C875 1.355 . S
C876 C878 1.419 . S
C877 C872 1.425 1_554 S
C877 C874 1.409 . S
C877 C875 1.415 . S
C878 H868 0.930 . S
C878 C876 1.419 . S
C878 C879 1.362 1_554 S
C879 H869 0.930 . S
C879 C872 1.409 . S
C879 C878 1.362 1_556 S
H880 C886 0.930 . S
H881 C889 0.930 . S
H882 C890 0.930 . S
H883 C891 0.930 . S
H884 C894 0.930 . S
H885 C895 0.930 . S
C886 H880 0.930 . S
C886 C887 1.355 . S
C886 C888 1.415 . S
C887 C886 1.355 . S
C887 C889 1.419 . S
C888 C886 1.415 . S
C888 C893 1.425 . S
C888 C895 1.409 1_554 S
C889 H881 0.930 . S
C889 C887 1.419 . S
C889 C890 1.362 . S
C890 H882 0.930 . S
C890 C889 1.362 . S
C890 C893 1.409 . S
C891 H883 0.930 . S
C891 C892 1.355 . S
C891 C893 1.415 1_556 S
C892 C891 1.355 . S
C892 C894 1.419 . S
C893 C888 1.425 . S
C893 C890 1.409 . S
C893 C891 1.415 1_554 S
C894 H884 0.930 . S
C894 C892 1.419 . S
C894 C895 1.362 . S
C895 H885 0.930 . S
C895 C888 1.409 1_556 S
C895 C894 1.362 . S
H896 C902 0.930 . S
H897 C905 0.930 . S
H898 C906 0.930 . S
H899 C907 0.930 . S
H900 C910 0.930 . S
H901 C911 0.930 . S
C902 H896 0.930 . S
C902 C903 1.355 . S
C902 C904 1.415 . S
C903 C902 1.355 . S
C903 C905 1.419 . S
C904 C902 1.415 . S
C904 C909 1.425 . S
C904 C911 1.409 . S
C905 H897 0.930 . S
C905 C903 1.419 . S
C905 C906 1.362 . S
C906 H898 0.930 . S
C906 C905 1.362 . S
C906 C909 1.409 . S
C907 H899 0.930 . S
C907 C908 1.355 . S
C907 C909 1.415 . S
C908 C907 1.355 . S
C908 C910 1.419 . S
C909 C904 1.425 . S
C909 C906 1.409 . S
C909 C907 1.415 . S
C910 H900 0.930 . S
C910 C908 1.419 . S
C910 C911 1.362 . S
C911 H901 0.930 . S
C911 C904 1.409 . S
C911 C910 1.362 . S
H912 C918 0.930 . S
H913 C921 0.930 . S
H914 C922 0.930 . S
H915 C923 0.930 . S
H916 C926 0.930 . S
H917 C927 0.930 . S
C918 H912 0.930 . S
C918 C919 1.355 . S
C918 C920 1.415 . S
C919 C918 1.355 . S
C919 C921 1.419 . S
C920 C918 1.415 . S
C920 C925 1.425 . S
C920 C927 1.409 . S
C921 H913 0.930 . S
C921 C919 1.419 . S
C921 C922 1.362 . S
C922 H914 0.930 . S
C922 C921 1.362 . S
C922 C925 1.409 . S
C923 H915 0.930 . S
C923 C924 1.355 . S
C923 C925 1.415 . S
C924 C923 1.355 . S
C924 C926 1.419 . S
C925 C920 1.425 . S
C925 C922 1.409 . S
C925 C923 1.415 . S
C926 H916 0.930 . S
C926 C924 1.419 . S
C926 C927 1.362 . S
C927 H917 0.930 . S
C927 C920 1.409 . S
C927 C926 1.362 . S
H928 C934 0.930 . S
H929 C937 0.930 . S
H930 C938 0.930 . S
H931 C939 0.930 . S
H932 C942 0.930 . S
H933 C943 0.930 . S
C934 H928 0.930 . S
C934 C935 1.355 . S
C934 C936 1.415 . S
C935 C934 1.355 . S
C935 C937 1.419 . S
C936 C934 1.415 . S
C936 C941 1.425 . S
C936 C943 1.409 . S
C937 H929 0.930 . S
C937 C935 1.419 . S
C937 C938 1.362 . S
C938 H930 0.930 . S
C938 C937 1.362 . S
C938 C941 1.409 . S
C939 H931 0.930 . S
C939 C940 1.355 . S
C939 C941 1.415 . S
C940 C939 1.355 . S
C940 C942 1.419 . S
C941 C936 1.425 . S
C941 C938 1.409 . S
C941 C939 1.415 . S
C942 H932 0.930 . S
C942 C940 1.419 . S
C942 C943 1.362 . S
C943 H933 0.930 . S
C943 C936 1.409 . S
C943 C942 1.362 . S
H944 C950 0.930 . S
H945 C953 0.930 . S
H946 C954 0.930 . S
H947 C955 0.930 . S
H948 C958 0.930 . S
H949 C959 0.930 . S
C950 H944 0.930 . S
C950 C951 1.355 . S
C950 C952 1.415 . S
C951 C950 1.355 . S
C951 C953 1.419 . S
C952 C950 1.415 . S
C952 C957 1.425 . S
C952 C959 1.409 . S
C953 H945 0.930 . S
C953 C951 1.419 . S
C953 C954 1.362 . S
C954 H946 0.930 . S
C954 C953 1.362 . S
C954 C957 1.409 . S
C955 H947 0.930 . S
C955 C956 1.355 . S
C955 C957 1.415 . S
C956 C955 1.355 . S
C956 C958 1.419 . S
C957 C952 1.425 . S
C957 C954 1.409 . S
C957 C955 1.415 . S
C958 H948 0.930 . S
C958 C956 1.419 . S
C958 C959 1.362 . S
C959 H949 0.930 . S
C959 C952 1.409 . S
C959 C958 1.362 . S
H960 C966 0.930 . S
H961 C969 0.930 . S
H962 C970 0.930 . S
H963 C971 0.930 . S
H964 C974 0.930 . S
H965 C975 0.926 1_565 S
C966 H960 0.930 . S
C966 C967 1.355 . S
C966 C968 1.415 . S
C967 C966 1.355 . S
C967 C969 1.419 . S
C968 C966 1.415 . S
C968 C973 1.425 1_565 S
C968 C975 1.408 1_565 S
C969 H961 0.930 . S
C969 C967 1.419 . S
C969 C970 1.362 1_565 S
C970 H962 0.930 . S
C970 C969 1.362 1_545 S
C970 C973 1.409 . S
C971 H963 0.930 . S
C971 C972 1.355 . S
C971 C973 1.415 . S
C972 C971 1.355 . S
C972 C974 1.419 . S
C973 C968 1.425 1_545 S
C973 C970 1.409 . S
C973 C971 1.415 . S
C974 H964 0.930 . S
C974 C972 1.419 . S
C974 C975 1.367 . S
C975 H965 0.926 1_545 S
C975 C968 1.408 1_545 S
C975 C974 1.367 . S
H976 C982 0.930 . S
H977 C985 0.930 . S
H978 C986 0.930 . S
H979 C987 0.930 . S
H980 C990 0.930 . S
H981 C991 0.930 . S
C982 H976 0.930 . S
C982 C983 1.355 . S
C982 C984 1.415 . S
C983 C982 1.355 . S
C983 C985 1.419 . S
C984 C982 1.415 . S
C984 C989 1.425 . S
C984 C991 1.409 . S
C985 H977 0.930 . S
C985 C983 1.419 . S
C985 C986 1.362 . S
C986 H978 0.930 . S
C986 C985 1.362 . S
C986 C989 1.409 . S
C987 H979 0.930 . S
C987 C988 1.355 . S
C987 C989 1.415 . S
C988 C987 1.355 . S
C988 C990 1.419 . S
C989 C984 1.425 . S
C989 C986 1.409 . S
C989 C987 1.415 . S
C990 H980 0.930 . S
C990 C988 1.419 . S
C990 C991 1.362 . S
C991 H981 0.930 . S
C991 C984 1.409 . S
C991 C990 1.362 . S
H992 C998 0.930 . S
H993 C1001 0.930 . S
H994 C1002 0.930 . S
H995 C1003 0.930 . S
H996 C1006 0.930 . S
H997 C1007 0.930 . S
C998 H992 0.930 . S
C998 C999 1.355 . S
C998 C1000 1.415 . S
C999 C998 1.355 . S
C999 C1001 1.419 . S
C1000 C998 1.415 . S
C1000 C1005 1.425 . S
C1000 C1007 1.409 . S
C1001 H993 0.930 . S
C1001 C999 1.419 . S
C1001 C1002 1.362 . S
C1002 H994 0.930 . S
C1002 C1001 1.362 . S
C1002 C1005 1.409 . S
C1003 H995 0.930 . S
C1003 C1004 1.355 . S
C1003 C1005 1.415 . S
C1004 C1003 1.355 . S
C1004 C1006 1.419 . S
C1005 C1000 1.425 . S
C1005 C1002 1.409 . S
C1005 C1003 1.415 . S
C1006 H996 0.930 . S
C1006 C1004 1.419 . S
C1006 C1007 1.362 . S
C1007 H997 0.930 . S
C1007 C1000 1.409 . S
C1007 C1006 1.362 . S
H1008 C1014 0.930 . S
H1009 C1017 0.930 . S
H1010 C1018 0.930 . S
H1011 C1019 0.930 . S
H1012 C1022 0.930 . S
H1013 C1023 0.930 . S
C1014 H1008 0.930 . S
C1014 C1015 1.358 . S
C1014 C1016 1.415 . S
C1015 C1014 1.358 . S
C1015 C1017 1.421 . S
C1016 C1014 1.415 . S
C1016 C1021 1.425 . S
C1016 C1023 1.409 . S
C1017 H1009 0.930 . S
C1017 C1015 1.421 . S
C1017 C1018 1.362 . S
C1018 H1010 0.930 . S
C1018 C1017 1.362 . S
C1018 C1021 1.409 . S
C1019 H1011 0.930 . S
C1019 C1020 1.355 . S
C1019 C1021 1.415 . S
C1020 C1019 1.355 . S
C1020 C1022 1.419 . S
C1021 C1016 1.425 . S
C1021 C1018 1.409 . S
C1021 C1019 1.415 . S
C1022 H1012 0.930 . S
C1022 C1020 1.419 . S
C1022 C1023 1.362 . S
C1023 H1013 0.930 . S
C1023 C1016 1.409 . S
C1023 C1022 1.362 . S
H1024 C1030 0.930 . S
H1025 C1033 0.930 . S
H1026 C1034 0.930 . S
H1027 C1035 0.930 . S
H1028 C1038 0.930 . S
H1029 C1039 0.930 . S
C1030 H1024 0.930 . S
C1030 C1031 1.355 . S
C1030 C1032 1.415 . S
C1031 C1030 1.355 . S
C1031 C1033 1.419 . S
C1032 C1030 1.415 . S
C1032 C1037 1.425 . S
C1032 C1039 1.409 . S
C1033 H1025 0.930 . S
C1033 C1031 1.419 . S
C1033 C1034 1.362 . S
C1034 H1026 0.930 . S
C1034 C1033 1.362 . S
C1034 C1037 1.409 . S
C1035 H1027 0.930 . S
C1035 C1036 1.355 . S
C1035 C1037 1.415 . S
C1036 C1035 1.355 . S
C1036 C1038 1.419 . S
C1037 C1032 1.425 . S
C1037 C1034 1.409 . S
C1037 C1035 1.415 . S
C1038 H1028 0.930 . S
C1038 C1036 1.419 . S
C1038 C1039 1.362 . S
C1039 H1029 0.930 . S
C1039 C1032 1.409 . S
C1039 C1038 1.362 . S
H1040 C1046 0.930 . S
H1041 C1049 0.930 . S
H1042 C1050 0.930 . S
H1043 C1051 0.930 . S
H1044 C1054 0.930 . S
H1045 C1055 0.930 . S
C1046 H1040 0.930 . S
C1046 C1047 1.355 1_565 S
C1046 C1048 1.415 . S
C1047 C1046 1.355 1_545 S
C1047 C1049 1.419 . S
C1048 C1046 1.415 . S
C1048 C1053 1.425 1_565 S
C1048 C1055 1.409 . S
C1049 H1041 0.930 . S
C1049 C1047 1.419 . S
C1049 C1050 1.362 . S
C1050 H1042 0.930 . S
C1050 C1049 1.362 . S
C1050 C1053 1.409 . S
C1051 H1043 0.930 . S
C1051 C1052 1.355 1_545 S
C1051 C1053 1.415 . S
C1052 C1051 1.355 1_565 S
C1052 C1054 1.419 . S
C1053 C1048 1.425 1_545 S
C1053 C1050 1.409 . S
C1053 C1051 1.415 . S
C1054 H1044 0.930 . S
C1054 C1052 1.419 . S
C1054 C1055 1.362 . S
C1055 H1045 0.930 . S
C1055 C1048 1.409 . S
C1055 C1054 1.362 . S
H1056 C1062 0.930 . S
H1057 C1065 0.930 . S
H1058 C1066 0.930 . S
H1059 C1067 0.930 . S
H1060 C1070 0.930 . S
H1061 C1071 0.930 . S
C1062 H1056 0.930 . S
C1062 C1063 1.355 . S
C1062 C1064 1.415 . S
C1063 C1062 1.355 . S
C1063 C1065 1.419 . S
C1064 C1062 1.415 . S
C1064 C1069 1.425 . S
C1064 C1071 1.409 . S
C1065 H1057 0.930 . S
C1065 C1063 1.419 . S
C1065 C1066 1.362 . S
C1066 H1058 0.930 . S
C1066 C1065 1.362 . S
C1066 C1069 1.409 . S
C1067 H1059 0.930 . S
C1067 C1068 1.355 . S
C1067 C1069 1.415 . S
C1068 C1067 1.355 . S
C1068 C1070 1.419 . S
C1069 C1064 1.425 . S
C1069 C1066 1.409 . S
C1069 C1067 1.415 . S
C1070 H1060 0.930 . S
C1070 C1068 1.419 . S
C1070 C1071 1.362 . S
C1071 H1061 0.930 . S
C1071 C1064 1.409 . S
C1071 C1070 1.362 . S
H1072 C1078 0.930 . S
H1073 C1081 0.930 . S
H1074 C1082 0.930 . S
H1075 C1083 0.930 . S
H1076 C1086 0.930 . S
H1077 C1087 0.930 . S
C1078 H1072 0.930 . S
C1078 C1079 1.355 . S
C1078 C1080 1.415 . S
C1079 C1078 1.355 . S
C1079 C1081 1.419 . S
C1080 C1078 1.415 . S
C1080 C1085 1.425 . S
C1080 C1087 1.409 . S
C1081 H1073 0.930 . S
C1081 C1079 1.419 . S
C1081 C1082 1.362 . S
C1082 H1074 0.930 . S
C1082 C1081 1.362 . S
C1082 C1085 1.409 . S
C1083 H1075 0.930 . S
C1083 C1084 1.355 . S
C1083 C1085 1.415 . S
C1084 C1083 1.355 . S
C1084 C1086 1.419 . S
C1085 C1080 1.425 . S
C1085 C1082 1.409 . S
C1085 C1083 1.415 . S
C1086 H1076 0.930 . S
C1086 C1084 1.419 . S
C1086 C1087 1.362 . S
C1087 H1077 0.930 . S
C1087 C1080 1.409 . S
C1087 C1086 1.362 . S
H1088 C1094 0.930 . S
H1089 C1097 0.930 . S
H1090 C1098 0.930 . S
H1091 C1099 0.930 . S
H1092 C1102 0.930 . S
H1093 C1103 0.930 . S
C1094 H1088 0.930 . S
C1094 C1095 1.355 . S
C1094 C1096 1.415 . S
C1095 C1094 1.355 . S
C1095 C1097 1.419 . S
C1096 C1094 1.415 . S
C1096 C1101 1.425 . S
C1096 C1103 1.409 . S
C1097 H1089 0.930 . S
C1097 C1095 1.419 . S
C1097 C1098 1.362 . S
C1098 H1090 0.930 . S
C1098 C1097 1.362 . S
C1098 C1101 1.409 . S
C1099 H1091 0.930 . S
C1099 C1100 1.355 . S
C1099 C1101 1.415 . S
C1100 C1099 1.355 . S
C1100 C1102 1.419 . S
C1101 C1096 1.425 . S
C1101 C1098 1.409 . S
C1101 C1099 1.415 . S
C1102 H1092 0.930 . S
C1102 C1100 1.419 . S
C1102 C1103 1.362 . S
C1103 H1093 0.930 . S
C1103 C1096 1.409 . S
C1103 C1102 1.362 . S
H1104 C1110 0.930 . S
H1105 C1113 0.930 . S
H1106 C1114 0.930 . S
H1107 C1115 0.930 . S
H1108 C1118 0.930 . S
H1109 C1119 0.930 . S
C1110 H1104 0.930 . S
C1110 C1111 1.355 . S
C1110 C1112 1.415 . S
C1111 C1110 1.355 . S
C1111 C1113 1.419 . S
C1112 C1110 1.415 . S
C1112 C1117 1.425 . S
C1112 C1119 1.409 . S
C1113 H1105 0.930 . S
C1113 C1111 1.419 . S
C1113 C1114 1.362 . S
C1114 H1106 0.930 . S
C1114 C1113 1.362 . S
C1114 C1117 1.409 . S
C1115 H1107 0.930 . S
C1115 C1116 1.355 . S
C1115 C1117 1.415 . S
C1116 C1115 1.355 . S
C1116 C1118 1.419 . S
C1117 C1112 1.425 . S
C1117 C1114 1.409 . S
C1117 C1115 1.415 . S
C1118 H1108 0.930 . S
C1118 C1116 1.419 . S
C1118 C1119 1.362 . S
C1119 H1109 0.930 . S
C1119 C1112 1.409 . S
C1119 C1118 1.362 . S
H1120 C1126 0.930 . S
H1121 C1129 0.930 . S
H1122 C1130 0.930 . S
H1123 C1131 0.930 . S
H1124 C1134 0.930 . S
H1125 C1135 0.930 . S
C1126 H1120 0.930 . S
C1126 C1127 1.355 . S
C1126 C1128 1.415 . S
C1127 C1126 1.355 . S
C1127 C1129 1.419 . S
C1128 C1126 1.415 . S
C1128 C1133 1.425 1_655 S
C1128 C1135 1.409 . S
C1129 H1121 0.930 . S
C1129 C1127 1.419 . S
C1129 C1130 1.362 1_655 S
C1130 H1122 0.930 . S
C1130 C1129 1.362 1_455 S
C1130 C1133 1.409 . S
C1131 H1123 0.930 . S
C1131 C1132 1.355 . S
C1131 C1133 1.415 . S
C1132 C1131 1.355 . S
C1132 C1134 1.419 . S
C1133 C1128 1.425 1_455 S
C1133 C1130 1.409 . S
C1133 C1131 1.415 . S
C1134 H1124 0.930 . S
C1134 C1132 1.419 . S
C1134 C1135 1.362 1_455 S
C1135 H1125 0.930 . S
C1135 C1128 1.409 . S
C1135 C1134 1.362 1_655 S
H1136 C1142 0.930 1_655 S
H1137 C1145 0.930 . S
H1138 C1146 0.930 . S
H1139 C1147 0.930 1_455 S
H1140 C1150 0.930 . S
H1141 C1151 0.930 . S
C1142 H1136 0.930 1_455 S
C1142 C1143 1.355 . S
C1142 C1144 1.415 1_455 S
C1143 C1142 1.355 . S
C1143 C1145 1.419 . S
C1144 C1142 1.415 1_655 S
C1144 C1149 1.425 1_655 S
C1144 C1151 1.409 . S
C1145 H1137 0.930 . S
C1145 C1143 1.419 . S
C1145 C1146 1.362 . S
C1146 H1138 0.930 . S
C1146 C1145 1.362 . S
C1146 C1149 1.409 . S
C1147 H1139 0.930 1_655 S
C1147 C1148 1.355 . S
C1147 C1149 1.415 1_655 S
C1148 C1147 1.355 . S
C1148 C1150 1.419 . S
C1149 C1144 1.425 1_455 S
C1149 C1146 1.409 . S
C1149 C1147 1.415 1_455 S
C1150 H1140 0.930 . S
C1150 C1148 1.419 . S
C1150 C1151 1.362 . S
C1151 H1141 0.930 . S
C1151 C1144 1.409 . S
C1151 C1150 1.362 . S
H1152 C1158 0.930 . S
H1153 C1161 0.930 . S
H1154 C1162 0.930 . S
H1155 C1163 0.930 . S
H1156 C1166 0.930 . S
H1157 C1167 0.930 . S
C1158 H1152 0.930 . S
C1158 C1159 1.355 . S
C1158 C1160 1.415 1_455 S
C1159 C1158 1.355 . S
C1159 C1161 1.419 . S
C1160 C1158 1.415 1_655 S
C1160 C1165 1.425 1_655 S
C1160 C1167 1.409 . S
C1161 H1153 0.930 . S
C1161 C1159 1.419 . S
C1161 C1162 1.362 . S
C1162 H1154 0.930 . S
C1162 C1161 1.362 . S
C1162 C1165 1.409 . S
C1163 H1155 0.930 . S
C1163 C1164 1.355 . S
C1163 C1165 1.415 1_655 S
C1164 C1163 1.355 . S
C1164 C1166 1.419 . S
C1165 C1160 1.425 1_455 S
C1165 C1162 1.409 . S
C1165 C1163 1.415 1_455 S
C1166 H1156 0.930 . S
C1166 C1164 1.419 . S
C1166 C1167 1.362 . S
C1167 H1157 0.930 . S
C1167 C1160 1.409 . S
C1167 C1166 1.362 . S
H1168 C1174 0.930 . S
H1169 C1177 0.930 . S
H1170 C1178 0.930 . S
H1171 C1179 0.930 . S
H1172 C1182 0.930 . S
H1173 C1183 0.930 . S
C1174 H1168 0.930 . S
C1174 C1175 1.355 . S
C1174 C1176 1.415 1_655 S
C1175 C1174 1.355 . S
C1175 C1177 1.419 . S
C1176 C1174 1.415 1_455 S
C1176 C1181 1.425 1_455 S
C1176 C1183 1.409 . S
C1177 H1169 0.930 . S
C1177 C1175 1.419 . S
C1177 C1178 1.362 . S
C1178 H1170 0.930 . S
C1178 C1177 1.362 . S
C1178 C1181 1.409 . S
C1179 H1171 0.930 . S
C1179 C1180 1.355 . S
C1179 C1181 1.415 1_455 S
C1180 C1179 1.355 . S
C1180 C1182 1.419 . S
C1181 C1176 1.425 1_655 S
C1181 C1178 1.409 . S
C1181 C1179 1.415 1_655 S
C1182 H1172 0.930 . S
C1182 C1180 1.419 . S
C1182 C1183 1.362 . S
C1183 H1173 0.930 . S
C1183 C1176 1.409 . S
C1183 C1182 1.362 . S
C551 C20 0.822 . S
C556 C509 0.883 . S
C567 C54 0.891 . S
C572 C543 0.837 . S
C583 C88 0.942 . S
C588 C441 0.940 . S
C599 C475 0.949 . S
C604 C122 0.943 . S
C615 C156 1.194 . S
C620 C373 1.193 . S
C631 C190 1.161 . S
C636 C407 1.153 . S
C647 C224 0.975 . S
C652 C274 0.991 . S
C663 C308 1.012 . S
C668 C258 0.997 . S
C679 C292 0.896 . S
C684 C237 0.846 . S
C695 C271 0.887 . S
C700 C326 0.827 . S
C711 C360 0.945 . S
C716 C169 0.951 . S
C727 C394 0.920 . S
C732 C203 0.907 . S
C743 C428 1.193 . S
C748 C101 1.193 . S
C759 C462 1.148 . S
C764 C135 1.132 . S
C775 C2 1.000 . S
C780 C496 0.982 . S
C791 C36 0.990 . S
C796 C530 0.985 . S
C807 C9 1.695 . S
C812 C379 1.687 . S
C823 C345 1.686 . S
C828 C43 1.711 . S
C839 C73 1.670 . S
C844 C315 1.714 . S
C855 C281 1.685 . S
C860 C107 1.700 . S
C871 C141 2.096 . S
C876 C515 2.080 . S
C887 C481 2.049 . S
C892 C175 2.075 . S
C903 C209 2.086 . S
C908 C447 2.085 . S
C919 C243 2.046 . S
C924 C413 2.071 . S
C935 C5 1.925 . S
C940 C77 1.804 1_545 S
C951 C39 1.920 . S
C956 C111 1.795 . S
C967 C145 1.361 . S
C972 C213 1.475 . S
C983 C247 1.395 . S
C988 C179 1.455 . S
C999 C349 1.790 . S
C1004 C277 1.939 . S
C1015 C383 1.792 1_565 S
C1020 C311 1.936 . S
C1031 C417 1.380 . S
C1036 C485 1.477 . S
C1047 C451 1.419 . S
C1052 C519 1.405 . S
C1063 C67 1.298 . S
C1068 C33 1.300 . S
C1079 C70 1.530 . S
C1084 C104 1.532 . S
C1095 C138 1.687 . S
C1100 C172 1.687 . S
C1111 C240 1.683 . S
C1116 C206 1.681 . S
C1127 C305 1.353 . S
C1132 C339 1.354 . S
C1143 C376 1.472 . S
C1148 C342 1.472 . S
C1159 C410 1.659 . S
C1164 C444 1.660 . S
C1175 C512 1.670 . S
C1180 C478 1.671 . S
