# Generated by pormake.
# Topology qtz-x, (6)-cn, num edge types: 1
# Building blocks:
#     Node 0, Type 0, BuildingBlock: KUMJIN_clean_sbu_1, # of connection points: 6
#     Node 1, Type 0, BuildingBlock: KUMJIN_clean_sbu_1, # of connection points: 6
#     Node 2, Type 0, BuildingBlock: KUMJIN_clean_sbu_1, # of connection points: 6
#     Edge 3, Type (0, 0), BuildingBlock: EZIPEK_clean_linker_0, # of connection points: 2
#     Edge 4, Type (0, 0), BuildingBlock: EZIPEK_clean_linker_0, # of connection points: 2
#     Edge 5, Type (0, 0), BuildingBlock: EZIPEK_clean_linker_0, # of connection points: 2
#     Edge 6, Type (0, 0), BuildingBlock: EZIPEK_clean_linker_0, # of connection points: 2
#     Edge 7, Type (0, 0), BuildingBlock: EZIPEK_clean_linker_0, # of connection points: 2
#     Edge 8, Type (0, 0), BuildingBlock: EZIPEK_clean_linker_0, # of connection points: 2
#     Edge 9, Type (0, 0), BuildingBlock: EZIPEK_clean_linker_0, # of connection points: 2
#     Edge 10, Type (0, 0), BuildingBlock: EZIPEK_clean_linker_0, # of connection points: 2
#     Edge 11, Type (0, 0), BuildingBlock: EZIPEK_clean_linker_0, # of connection points: 2
# Relax obj value: 0.207
# Max RMSD: 0.286
# Mean RMSD: 0.286
data_MOF--net-qtz-x--node1-KUMJIN_clean_sbu_1--edge1-EZIPEK_clean_linker_0
_symmetry_space_group_name_H-M    P1
_symmetry_Int_Tables_number       1
_symmetry_cell_setting            triclinic
loop_
_symmetry_equiv_pos_as_xyz
'x, y, z'
_cell_length_a     11.759299
_cell_length_b     11.672592
_cell_length_c     42.288231
_cell_angle_alpha  88.842952
_cell_angle_beta   90.357933
_cell_angle_gamma 120.47809
loop_
_atom_site_label
_atom_site_type_symbol
_atom_site_fract_x
_atom_site_fract_y
_atom_site_fract_z
_atom_type_partial_charge
Eu0 Eu 0.86735 0.2849 0.14484 0.0
C1 C 0.47211 0.49573 0.18884 0.0
N2 N 0.35993 0.40609 0.20385 0.0
C3 C 0.45481 0.27855 0.22035 0.0
C4 C 0.58093 0.47879 0.18875 0.0
C5 C 0.34991 0.29955 0.21993 0.0
C6 C 0.57205 0.37015 0.20515 0.0
C7 C 0.58686 0.68864 0.15413 0.0
C8 C 0.47641 0.60202 0.17265 0.0
C9 C 0.6914 0.66516 0.15199 0.0
C10 C 0.69049 0.5639 0.17033 0.0
Eu11 Eu 0.18631 0.44259 0.19992 0.0
N12 N 0.36946 0.61628 0.17369 0.0
C13 C 0.58682 0.7933 0.13765 0.0
C14 C 0.37286 0.72432 0.16014 0.0
C15 C 0.4802 0.81264 0.14128 0.0
H16 H 0.25983 0.22909 0.23202 0.0
H17 H 0.47927 0.89445 0.12951 0.0
H18 H 0.80355 0.47979 0.09897 0.0
H19 H 0.55419 0.88185 0.22778 0.0
H20 H 0.29196 0.74151 0.16303 0.0
H21 H 0.66924 0.86061 0.1227 0.0
H22 H 0.76059 0.03237 0.1991 0.0
H23 H 0.44088 0.1881 0.23125 0.0
H24 H 0.76959 0.72089 0.13528 0.0
H25 H 0.76988 0.54532 0.16866 0.0
H26 H 0.60959 0.49758 0.08355 0.0
H27 H 0.65287 0.35306 0.20456 0.0
H28 H 0.3518 0.88969 0.21595 0.0
N29 N 0.69481 0.3187 0.13129 0.0
C30 C 0.57602 0.22996 0.14387 0.0
C31 C 0.59896 0.42191 0.10047 0.0
C32 C 0.46303 0.23534 0.13546 0.0
C33 C 0.70832 0.41243 0.10944 0.0
C34 C 0.47617 0.33414 0.11393 0.0
N35 N 0.67745 0.12941 0.17266 0.0
C36 C 0.67331 0.03741 0.19391 0.0
C37 C 0.44659 0.04503 0.18 0.0
C38 C 0.56738 0.13382 0.1654 0.0
C39 C 0.44285 0.957 0.20357 0.0
C40 C 0.55669 0.95216 0.21031 0.0
H41 H 0.39306 0.34475 0.10779 0.0
H42 H 0.25439 0.14696 0.14309 0.0
H43 H 0.24267 0.98166 0.18251 0.0
O44 O 0.77535 0.11819 0.11265 0.0
O45 O 0.83008 0.32143 0.19562 0.0
O46 O -0.01638 0.27901 0.21161 0.0
O47 O 0.89212 0.3171 0.09354 0.0
O48 O 0.93253 0.13399 0.15761 0.0
O49 O 0.11935 0.2211 0.18904 0.0
O50 O 0.28694 0.6005 0.23589 0.0
O51 O 0.23137 0.42065 0.14836 0.0
O52 O 0.06863 0.45111 0.13257 0.0
O53 O 0.18933 0.39399 0.24905 0.0
O54 O 0.09821 0.58196 0.19188 0.0
O55 O 0.93831 0.50613 0.15215 0.0
C56 C 0.89192 0.30339 0.21919 0.0
C57 C 0.70344 0.17062 0.06491 0.0
C58 C 0.63894 0.21815 0.01387 0.0
C59 C 0.50788 0.15922 0.0246 0.0
C60 C 0.57084 0.10673 0.07468 0.0
C61 C 0.47391 0.10215 0.05478 0.0
C62 C 0.7365 0.22338 0.03408 0.0
C63 C 0.02399 0.121 0.17289 0.0
C64 C 0.80913 0.19344 0.08729 0.0
C65 C 0.34164 0.14337 0.14906 0.0
C66 C 0.3341 0.04901 0.17126 0.0
C67 C 0.16426 0.43229 0.12504 0.0
C68 C 0.35324 0.53756 0.28487 0.0
C69 C 0.46063 0.654 0.33361 0.0
C70 C 0.48442 0.55092 0.34186 0.0
C71 C 0.37953 0.43644 0.29397 0.0
C72 C 0.39786 0.64868 0.30453 0.0
C73 C 0.44604 0.44427 0.32193 0.0
C74 C 0.01815 0.59927 0.17226 0.0
C75 C 0.25809 0.51446 0.25895 0.0
H76 H 0.43159 0.1549 0.00929 0.0
H77 H 0.54231 0.06382 0.09799 0.0
H78 H 0.37255 0.05503 0.06286 0.0
H79 H 0.83803 0.27034 0.02598 0.0
H80 H 0.53269 0.55302 0.36391 0.0
H81 H 0.3431 0.34727 0.28049 0.0
H82 H 0.37657 0.72641 0.29831 0.0
H83 H 0.46434 0.36506 0.32866 0.0
Eu84 Eu 0.75428 0.26681 0.46888 0.0
C85 C 0.38557 0.62382 0.49985 0.0
N86 N 0.39282 0.71502 0.52041 0.0
C87 C 0.17689 0.55978 0.54033 0.0
C88 C 0.26998 0.49955 0.49742 0.0
C89 C 0.29036 0.68551 0.54041 0.0
C90 C 0.16561 0.46797 0.51816 0.0
C91 C 0.48361 0.56791 0.45686 0.0
C92 C 0.49281 0.65559 0.48061 0.0
C93 C 0.36445 0.44969 0.45245 0.0
C94 C 0.25852 0.41595 0.47274 0.0
Eu95 Eu 0.58948 0.92204 0.51963 0.0
N96 N 0.60661 0.77173 0.4853 0.0
C97 C 0.59415 0.6022 0.43813 0.0
C98 C 0.71739 0.79904 0.46885 0.0
C99 C 0.71208 0.71804 0.44448 0.0
H100 H 0.29431 0.75907 0.55615 0.0
H101 H 0.79919 0.74711 0.43045 0.0
H102 H 0.04535 0.41588 0.43103 0.0
H103 H 0.52718 0.51281 0.52866 0.0
H104 H 0.81014 0.88356 0.47363 0.0
H105 H 0.59036 0.53857 0.41938 0.0
H106 H 0.52574 0.35289 0.49322 0.0
H107 H 0.09528 0.53659 0.55603 0.0
H108 H 0.35292 0.3846 0.43329 0.0
H109 H 0.16505 0.33088 0.46747 0.0
H110 H 0.25273 0.6325 0.43192 0.0
H111 H 0.07389 0.37571 0.51631 0.0
H112 H 0.73983 0.69742 0.54855 0.0
N113 N 0.95368 0.46844 0.46648 0.0
C114 C 0.96223 0.56475 0.48536 0.0
C115 C 0.17095 0.61544 0.44673 0.0
C116 C 0.08043 0.68559 0.48807 0.0
C117 C 0.05407 0.49239 0.44653 0.0
C118 C 0.18549 0.71073 0.46839 0.0
N119 N 0.73466 0.4336 0.49487 0.0
C120 C 0.61944 0.42998 0.50151 0.0
C121 C 0.85632 0.64404 0.52035 0.0
C122 C 0.8506 0.54525 0.50078 0.0
C123 C 0.73888 0.62809 0.53208 0.0
C124 C 0.6197 0.52444 0.52116 0.0
H125 H 0.27801 0.80237 0.47025 0.0
H126 H 0.18484 0.85656 0.517 0.0
H127 H -0.0133 0.82931 0.54351 0.0
O128 O 0.67162 0.34905 0.43486 0.0
O129 O 0.82609 0.30028 0.51974 0.0
O130 O 0.63565 0.12477 0.53044 0.0
O131 O 0.80318 0.28366 0.41925 0.0
O132 O 0.52809 0.16725 0.478 0.0
O133 O 0.43278 -0.01148 0.51372 0.0
O134 O 0.67385 0.85442 0.55643 0.0
O135 O 0.52327 0.90423 0.46771 0.0
O136 O 0.72002 0.06935 0.45348 0.0
O137 O 0.52209 0.89481 0.56923 0.0
O138 O 0.8201 0.0216 0.51364 0.0
O139 O 0.91117 0.20025 0.47693 0.0
C140 C 0.74936 0.21389 0.54098 0.0
C141 C 0.807 0.45505 0.38993 0.0
C142 C 0.89846 0.52502 0.33752 0.0
C143 C 0.9689 0.6579 0.34678 0.0
C144 C 0.88001 0.58689 0.39993 0.0
C145 C 0.95813 0.6888 0.3781 0.0
C146 C 0.81443 0.42583 0.35876 0.0
C147 C 0.42516 0.07942 0.49531 0.0
C148 C 0.73752 0.34117 0.41134 0.0
C149 C 0.0905 0.77515 0.51094 0.0
C150 C -0.02154 0.75592 0.52693 0.0
C151 C 0.60418 0.97651 0.44472 0.0
C152 C 0.54097 0.73386 0.60079 0.0
C153 C 0.5153 0.63581 0.65407 0.0
C154 C 0.4458 0.50872 0.64086 0.0
C155 C 0.46908 0.60565 0.58864 0.0
C156 C 0.56177 0.74889 0.63378 0.0
C157 C 0.4214 0.49404 0.60851 0.0
C158 C 0.92203 0.11296 0.49619 0.0
C159 C 0.59838 0.85144 0.57914 0.0
H160 H 0.03315 0.73584 0.33022 0.0
H161 H 0.87965 0.60987 0.42452 0.0
H162 H 0.01413 0.79071 0.38575 0.0
H163 H 0.75997 0.32304 0.35128 0.0
H164 H 0.40876 0.42031 0.65575 0.0
H165 H 0.45025 0.59157 0.56375 0.0
H166 H 0.61543 0.84761 0.64356 0.0
H167 H 0.36631 0.39562 0.59874 0.0
Eu168 Eu 0.7315 0.41668 0.80783 0.0
C169 C 0.55805 0.83233 0.86128 0.0
N170 N 0.63746 0.79421 0.87532 0.0
C171 C 0.76644 0.00761 0.89855 0.0
C172 C 0.58325 0.96227 0.8643 0.0
C173 C 0.74057 0.87889 0.89389 0.0
C174 C 0.68962 0.05039 0.88295 0.0
C175 C 0.36996 0.7789 0.82779 0.0
C176 C 0.45189 0.7414 0.8435 0.0
C177 C 0.39994 0.91018 0.82917 0.0
C178 C 0.50569 0.00121 0.84733 0.0
Eu179 Eu 0.58936 0.57882 0.86454 0.0
N180 N 0.42874 0.61605 0.84158 0.0
C181 C 0.26272 0.68434 0.81045 0.0
C182 C 0.31811 0.52015 0.8272 0.0
C183 C 0.23588 0.55365 0.81043 0.0
H184 H 0.80378 0.84739 0.90485 0.0
H185 H 0.151 0.47831 0.79792 0.0
H186 H 0.52731 0.15156 0.76484 0.0
H187 H 0.12871 0.49604 0.8888 0.0
H188 H 0.29406 0.41813 0.82798 0.0
H189 H 0.19853 0.71034 0.79769 0.0
H190 H -0.00889 0.56217 0.85939 0.0
H191 H 0.84909 0.07552 0.9129 0.0
H192 H 0.34622 0.94303 0.81489 0.0
H193 H 0.53117 0.10284 0.84658 0.0
H194 H 0.50123 0.93406 0.75202 0.0
H195 H 0.71715 0.15298 0.88459 0.0
H196 H 0.11309 0.28115 0.87843 0.0
N197 N 0.69339 0.20736 0.7945 0.0
C198 C 0.77895 0.17415 0.80744 0.0
C199 C 0.58028 0.00128 0.76733 0.0
C200 C 0.76626 0.05055 0.80098 0.0
C201 C 0.59506 0.12399 0.77467 0.0
C202 C 0.66488 0.96369 0.78099 0.0
N203 N 0.88823 0.38156 0.83404 0.0
C204 C -0.01977 0.46696 0.85483 0.0
C205 C 0.9606 0.22512 0.84306 0.0
C206 C 0.87761 0.26262 0.82783 0.0
C207 C 0.05018 0.30879 0.86564 0.0
C208 C 0.05927 0.42995 0.87166 0.0
H209 H 0.6481 0.86584 0.77676 0.0
H210 H 0.8399 0.91929 0.81215 0.0
H211 H 0.00439 0.07059 0.84957 0.0
O212 O 0.8178 0.37733 0.76665 0.0
O213 O 0.69495 0.33807 0.85895 0.0
O214 O 0.74557 0.53367 0.87822 0.0
O215 O 0.79274 0.54698 0.7662 0.0
O216 O 0.89122 0.62937 0.82076 0.0
O217 O 0.80892 0.72925 0.85335 0.0
O218 O 0.43008 0.45595 0.89721 0.0
O219 O 0.60233 0.64477 0.81242 0.0
O220 O 0.5644 0.44955 0.79372 0.0
O221 O 0.60814 0.61917 0.91544 0.0
O222 O 0.4396 0.35737 0.8528 0.0
O223 O 0.50851 0.26796 0.814 0.0
C224 C 0.71365 0.41133 0.8836 0.0
C225 C 0.73615 0.41857 0.72069 0.0
C226 C 0.71599 0.34686 0.66685 0.0
C227 C 0.57778 0.28425 0.66925 0.0
C228 C 0.59804 0.35718 0.72257 0.0
C229 C 0.51932 0.29081 0.69698 0.0
C230 C 0.79558 0.4154 0.6925 0.0
C231 C 0.90536 0.7338 0.83602 0.0
C232 C 0.81464 0.46831 0.74932 0.0
C233 C 0.85103 0.01532 0.81573 0.0
C234 C 0.94657 0.10194 0.83674 0.0
C235 C 0.57973 0.56704 0.78832 0.0
C236 C 0.40898 0.55957 0.94177 0.0
C237 C 0.30532 0.54577 0.9924 0.0
C238 C 0.24197 0.60906 0.97853 0.0
C239 C 0.34718 0.62495 0.9285 0.0
C240 C 0.3896 0.52175 0.97389 0.0
C241 C 0.26409 0.64959 0.94682 0.0
C242 C 0.41697 0.25738 0.83418 0.0
C243 C 0.48873 0.52517 0.92198 0.0
H244 H 0.51536 0.23171 0.64941 0.0
H245 H 0.54971 0.35476 0.74418 0.0
H246 H 0.41299 0.24275 0.69883 0.0
H247 H 0.90203 0.46245 0.69074 0.0
H248 H 0.17719 0.6291 0.99247 0.0
H249 H 0.36093 0.65455 0.90386 0.0
H250 H 0.439 0.47323 0.98441 0.0
H251 H 0.21647 0.69974 0.93635 0.0
C252 C 0.02237 0.80213 0.14391 0.0
C253 C 0.01718 0.73204 0.17259 0.0
C254 C 0.01207 0.91457 0.20182 0.0
C255 C 0.01402 0.98269 0.173 0.0
N256 N -0.02543 0.95662 0.11655 0.0
N257 N -0.0272 0.7104 0.22858 0.0
C258 C 0.00676 0.91705 0.14414 0.0
C259 C 0.00283 0.78574 0.20144 0.0
N260 N 0.04057 0.75929 0.11565 0.0
N261 N 0.02104 0.97345 0.22995 0.0
H262 H 0.9614 0.61595 0.2293 0.0
H263 H 0.9461 0.73521 0.24966 0.0
H264 H 0.01796 0.06039 0.23155 0.0
H265 H 0.03971 0.94083 0.2514 0.0
H266 H 0.07135 0.81915 0.09524 0.0
H267 H 0.03037 0.6668 0.11252 0.0
H268 H 0.95166 0.90302 0.09576 0.0
H269 H 0.95299 0.03212 0.11477 0.0
C270 C 0.23441 0.09848 0.46705 0.0
C271 C 0.29852 0.09302 0.4956 0.0
C272 C 0.12981 0.126 0.52399 0.0
C273 C 0.05284 0.10639 0.49613 0.0
N274 N 0.03094 0.0502 0.44111 0.0
N275 N 0.28596 0.08631 0.55292 0.0
C276 C 0.10467 0.08395 0.46787 0.0
C277 C 0.23948 0.10197 0.52448 0.0
N278 N 0.2985 0.12533 0.43868 0.0
N279 N 0.10523 0.17781 0.54981 0.0
H280 H 0.36549 0.07137 0.55526 0.0
H281 H 0.23741 0.07613 0.57424 0.0
H282 H 0.03706 0.20918 0.54907 0.0
H283 H 0.16469 0.20741 0.56984 0.0
H284 H 0.26059 0.14099 0.41776 0.0
H285 H 0.39644 0.15146 0.43633 0.0
H286 H 0.05431 0.01628 0.42093 0.0
H287 H 0.94008 0.04403 0.44045 0.0
C288 C 0.10204 0.92715 0.86404 0.0
C289 C 0.04073 0.8635 0.83535 0.0
C290 C 0.21903 0.06147 0.8062 0.0
C291 C 0.28098 0.12621 0.83502 0.0
N292 N 0.24344 0.12862 0.8915 0.0
N293 N 0.07074 0.85927 0.77894 0.0
C294 C 0.21316 0.06071 0.86396 0.0
C295 C 0.10711 0.92797 0.80644 0.0
N296 N 0.05612 0.8589 0.89203 0.0
N297 N 0.26383 0.12863 0.778 0.0
H298 H -0.00615 0.7623 0.7773 0.0
H299 H 0.1265 0.89251 0.75821 0.0
H300 H 0.34721 0.22208 0.77575 0.0
H301 H 0.21126 0.09706 0.75696 0.0
H302 H 0.10823 0.88954 0.91317 0.0
H303 H -0.02848 0.76594 0.89367 0.0
H304 H 0.18329 0.09424 0.91155 0.0
H305 H 0.32108 0.22393 0.89414 0.0
C306 C 0.32762 0.62039 0.04782 0.0
C307 C 0.28899 0.51454 0.0269 0.0
C308 C 0.19945 0.35794 0.07201 0.0
C309 C 0.21681 0.46264 0.09178 0.0
N310 N 0.26259 0.68962 0.09349 0.0
N311 N 0.17288 0.27803 0.01838 0.0
C312 C 0.27188 0.59307 0.07841 0.0
C313 C 0.22161 0.38158 0.03877 0.0
N314 N 0.41656 0.7478 0.03842 0.0
N315 N 0.16079 0.23579 0.08491 0.0
H316 H 0.18591 0.2914 0.99395 0.0
H317 H 0.11065 0.17942 0.02549 0.0
H318 H 0.14699 0.21806 0.10917 0.0
H319 H 0.15824 0.15873 0.07232 0.0
H320 H 0.45607 0.82674 0.05405 0.0
H321 H 0.46133 0.7714 0.01614 0.0
H322 H 0.28969 0.78178 0.08305 0.0
H323 H 0.21513 0.67252 0.11498 0.0
C324 C -0.02478 0.40694 0.30407 0.0
C325 C 0.90914 0.48014 0.30613 0.0
C326 C 0.77964 0.36144 0.26105 0.0
C327 C 0.87639 0.33278 0.25256 0.0
N328 N 0.97011 0.2181 0.27922 0.0
N329 N 0.73407 0.51435 0.28674 0.0
C330 C 0.94897 0.3225 0.27789 0.0
C331 C 0.81003 0.4576 0.28397 0.0
N332 N 0.05674 0.41592 0.32806 0.0
N333 N 0.65283 0.26243 0.25871 0.0
H334 H 0.7512 0.58445 0.30387 0.0
H335 H 0.65939 0.49504 0.27049 0.0
H336 H 0.6278 0.17665 0.2462 0.0
H337 H 0.579 0.26115 0.27264 0.0
H338 H 0.11331 0.3702 0.32822 0.0
H339 H 0.11331 0.3702 0.32822 0.0
H340 H 0.01155 0.19598 0.29851 0.0
H341 H 0.93002 0.14486 0.26218 0.0
C342 C 0.43517 0.53947 0.74041 0.0
C343 C 0.56106 0.60537 0.75516 0.0
C344 C 0.66085 0.70464 0.7032 0.0
C345 C 0.53368 0.64517 0.6893 0.0
N346 N 0.29955 0.54436 0.69774 0.0
N347 N 0.7893 0.77918 0.75105 0.0
C348 C 0.42091 0.57582 0.70902 0.0
C349 C 0.67212 0.69809 0.73671 0.0
N350 N 0.32961 0.43689 0.75545 0.0
N351 N 0.77125 0.75951 0.68456 0.0
H352 H 0.80165 0.77343 0.77526 0.0
H353 H 0.86897 0.85866 0.73941 0.0
H354 H 0.76846 0.76448 0.65998 0.0
H355 H 0.86498 0.78957 0.69342 0.0
H356 H 0.23939 0.37681 0.74443 0.0
H357 H 0.33652 0.4036 0.77784 0.0
H358 H 0.21548 0.50379 0.71202 0.0
H359 H 0.28633 0.57271 0.67507 0.0
C360 C 0.60301 0.22794 0.92589 0.0
C361 C 0.7033 0.35901 0.917 0.0
C362 C 0.76049 0.40223 0.97318 0.0
C363 C 0.67071 0.2668 0.98071 0.0
N364 N 0.54138 0.04265 0.96189 0.0
N365 N 0.90678 0.55269 0.93297 0.0
C366 C 0.60403 0.17682 0.95626 0.0
C367 C 0.79074 0.44156 0.94089 0.0
N368 N 0.50145 0.15377 0.90626 0.0
N369 N 0.81454 0.49395 0.99647 0.0
H370 H 0.94018 0.57358 0.90976 0.0
H371 H -0.02286 0.61144 0.9496 0.0
H372 H 0.7924 0.46967 0.02038 0.0
H373 H 0.87135 0.59578 0.99164 0.0
H374 H 0.42164 0.06091 0.91264 0.0
H375 H 0.49067 0.19292 0.88519 0.0
H376 H 0.50085 0.97369 0.94384 0.0
H377 H 0.54319 0.00132 0.98387 0.0
C378 C 0.40534 0.77771 0.37359 0.0
C379 C 0.50138 0.76458 0.35644 0.0
C380 C 0.67489 0.93283 0.39011 0.0
C381 C 0.57623 0.92612 0.411 0.0
N382 N 0.35994 0.89812 0.41255 0.0
N383 N 0.72939 0.83385 0.34724 0.0
C384 C 0.44491 0.86498 0.39965 0.0
C385 C 0.63669 0.84457 0.36423 0.0
N386 N 0.27476 0.69989 0.36657 0.0
N387 N 0.80355 0.03078 0.39262 0.0
H388 H 0.70793 0.78242 0.3261 0.0
H389 H 0.82585 0.87007 0.35494 0.0
H390 H 0.83641 0.10752 0.40832 0.0
H391 H 0.87616 0.04812 0.37611 0.0
H392 H 0.19916 0.69153 0.38083 0.0
H393 H 0.24085 0.63714 0.34742 0.0
H394 H 0.26828 0.87224 0.40302 0.0
H395 H 0.38731 0.96217 0.43142 0.0
C396 C 0.81123 0.25065 0.63034 0.0
C397 C 0.77262 0.3453 0.63612 0.0
C398 C 0.70452 0.33572 0.58231 0.0
C399 C 0.75833 0.25622 0.57423 0.0
N400 N 0.85915 0.13062 0.5917 0.0
N401 N 0.72487 0.50944 0.6155 0.0
C402 C 0.81348 0.21344 0.59854 0.0
C403 C 0.73954 0.40235 0.61092 0.0
N404 N 0.83592 0.18993 0.65519 0.0
N405 N 0.60075 0.32747 0.56617 0.0
H406 H 0.7475 0.55838 0.63703 0.0
H407 H 0.70099 0.55405 0.59706 0.0
H408 H 0.55793 0.2643 0.54733 0.0
H409 H 0.54663 0.36897 0.57459 0.0
H410 H 0.84869 0.10851 0.65292 0.0
H411 H 0.83794 0.21794 0.67854 0.0
H412 H 0.91334 0.10721 0.60738 0.0
H413 H 0.84437 0.08774 0.5697 0.0
loop_
_geom_bond_atom_site_label_1
_geom_bond_atom_site_label_2
_geom_bond_distance
_geom_bond_site_symmetry_2
_ccdc_geom_bond_type
Eu0 N29 2.600 . S
Eu0 N35 2.562 . S
Eu0 O44 2.462 . S
Eu0 O45 2.373 . S
Eu0 O47 2.432 . S
Eu0 O48 2.291 . S
Eu0 O52 2.335 1_655 S
Eu0 O55 2.372 . S
Eu0 C64 2.787 . S
C1 N2 1.365 . S
C1 C4 1.405 . S
C1 C8 1.448 . S
N2 C1 1.365 . S
N2 C5 1.319 . S
N2 Eu11 2.600 . S
C3 C5 1.397 . S
C3 C6 1.367 . S
C3 H23 0.931 . S
C4 C1 1.405 . S
C4 C6 1.403 . S
C4 C10 1.439 . S
C5 N2 1.319 . S
C5 C3 1.397 . S
C5 H16 0.930 . S
C6 C3 1.367 . S
C6 C4 1.403 . S
C6 H27 0.929 . S
C7 C8 1.430 . S
C7 C9 1.387 . S
C7 C13 1.404 . S
C8 C1 1.448 . S
C8 C7 1.430 . S
C8 N12 1.351 . S
C9 C7 1.387 . S
C9 C10 1.374 . S
C9 H24 0.931 . S
C10 C4 1.439 . S
C10 C9 1.374 . S
C10 H25 0.931 . S
Eu11 N2 2.600 . S
Eu11 N12 2.562 . S
Eu11 O46 2.335 1_455 S
Eu11 O49 2.372 . S
Eu11 O50 2.462 . S
Eu11 O51 2.373 . S
Eu11 O53 2.432 . S
Eu11 O54 2.291 . S
Eu11 C75 2.787 . S
N12 C8 1.351 . S
N12 Eu11 2.562 . S
N12 C14 1.325 . S
C13 C7 1.404 . S
C13 C15 1.366 . S
C13 H21 0.930 . S
C14 N12 1.325 . S
C14 C15 1.416 . S
C14 H20 0.929 . S
C15 C13 1.366 . S
C15 C14 1.416 . S
C15 H17 0.930 1_565 S
H16 C5 0.930 . S
H17 C15 0.930 1_545 S
H18 C33 0.930 . S
H19 C40 0.930 . S
H20 C14 0.929 . S
H21 C13 0.930 . S
H22 C36 0.929 . S
H23 C3 0.931 . S
H24 C9 0.931 . S
H25 C10 0.931 . S
H26 C31 0.931 . S
H27 C6 0.929 . S
H28 C39 0.930 . S
N29 Eu0 2.600 . S
N29 C30 1.365 . S
N29 C33 1.319 . S
C30 N29 1.365 . S
C30 C32 1.405 . S
C30 C38 1.448 . S
C31 H26 0.931 . S
C31 C33 1.397 . S
C31 C34 1.367 . S
C32 C30 1.405 . S
C32 C34 1.403 . S
C32 C65 1.439 . S
C33 H18 0.930 . S
C33 N29 1.319 . S
C33 C31 1.397 . S
C34 C31 1.367 . S
C34 C32 1.403 . S
C34 H41 0.929 . S
N35 Eu0 2.562 . S
N35 C36 1.325 . S
N35 C38 1.351 . S
C36 H22 0.929 . S
C36 N35 1.325 . S
C36 C40 1.416 1_545 S
C37 C38 1.430 . S
C37 C39 1.404 1_545 S
C37 C66 1.387 . S
C38 C30 1.448 . S
C38 N35 1.351 . S
C38 C37 1.430 . S
C39 H28 0.930 . S
C39 C37 1.404 1_565 S
C39 C40 1.366 . S
C40 H19 0.930 . S
C40 C36 1.416 1_565 S
C40 C39 1.366 . S
H41 C34 0.929 . S
H42 C65 0.931 . S
H43 C66 0.931 . S
O44 Eu0 2.462 . S
O44 C64 1.252 . S
O45 Eu0 2.373 . S
O45 C56 1.249 . S
O46 Eu11 2.335 1_655 S
O46 C56 1.264 . S
O47 Eu0 2.432 . S
O47 C64 1.268 . S
O48 Eu0 2.291 . S
O48 C63 1.255 . S
O49 Eu11 2.372 . S
O49 C63 1.257 1_455 S
O50 Eu11 2.462 . S
O50 C75 1.252 . S
O51 Eu11 2.373 . S
O51 C67 1.249 . S
O52 Eu0 2.335 1_455 S
O52 C67 1.264 . S
O53 Eu11 2.432 . S
O53 C75 1.268 . S
O54 Eu11 2.291 . S
O54 C74 1.255 . S
O55 Eu0 2.372 . S
O55 C74 1.257 1_655 S
C56 O45 1.249 . S
C56 O46 1.264 . S
C57 C60 1.382 . S
C57 C62 1.390 . S
C57 C64 1.506 . S
C58 C59 1.398 1_554 S
C58 C62 1.392 . S
C59 C58 1.398 1_556 S
C59 C61 1.372 1_556 S
C59 H76 0.931 . S
C60 C57 1.382 . S
C60 C61 1.390 . S
C60 H77 0.931 . S
C61 C59 1.372 1_554 S
C61 C60 1.390 . S
C61 H78 0.929 1_554 S
C62 C57 1.390 . S
C62 C58 1.392 . S
C62 H79 0.930 . S
C63 O48 1.255 . S
C63 O49 1.257 1_655 S
C64 Eu0 2.787 . S
C64 O44 1.252 . S
C64 O47 1.268 . S
C64 C57 1.506 . S
C65 C32 1.439 . S
C65 H42 0.931 . S
C65 C66 1.374 . S
C66 C37 1.387 . S
C66 H43 0.931 . S
C66 C65 1.374 . S
C67 O51 1.249 . S
C67 O52 1.264 . S
C68 C71 1.382 . S
C68 C72 1.390 . S
C68 C75 1.506 . S
C69 C70 1.398 . S
C69 C72 1.392 . S
C70 C69 1.398 . S
C70 C73 1.372 . S
C70 H80 0.931 . S
C71 C68 1.382 . S
C71 C73 1.390 . S
C71 H81 0.931 . S
C72 C68 1.390 . S
C72 C69 1.392 . S
C72 H82 0.930 . S
C73 C70 1.372 . S
C73 C71 1.390 . S
C73 H83 0.929 . S
C74 O54 1.255 . S
C74 O55 1.257 1_455 S
C75 Eu11 2.787 . S
C75 O50 1.252 . S
C75 O53 1.268 . S
C75 C68 1.506 . S
H76 C59 0.931 . S
H77 C60 0.931 . S
H78 C61 0.929 1_556 S
H79 C62 0.930 . S
H80 C70 0.931 . S
H81 C71 0.931 . S
H82 C72 0.930 . S
H83 C73 0.929 . S
Eu84 N113 2.600 1_655 S
Eu84 N119 2.562 . S
Eu84 O128 2.462 . S
Eu84 O129 2.373 . S
Eu84 O131 2.432 . S
Eu84 O132 2.291 . S
Eu84 O136 2.335 . S
Eu84 O139 2.372 . S
Eu84 C148 2.787 . S
C85 N86 1.365 . S
C85 C88 1.405 . S
C85 C92 1.448 . S
N86 C85 1.365 . S
N86 C89 1.319 . S
N86 Eu95 2.600 . S
C87 C89 1.397 . S
C87 C90 1.367 . S
C87 H107 0.931 . S
C88 C85 1.405 . S
C88 C90 1.403 . S
C88 C94 1.439 . S
C89 N86 1.319 . S
C89 C87 1.397 . S
C89 H100 0.930 . S
C90 C87 1.367 . S
C90 C88 1.403 . S
C90 H111 0.929 1_455 S
C91 C92 1.430 . S
C91 C93 1.387 . S
C91 C97 1.404 . S
C92 C85 1.448 . S
C92 C91 1.430 . S
C92 N96 1.351 . S
C93 C91 1.387 . S
C93 C94 1.374 . S
C93 H108 0.931 . S
C94 C88 1.439 . S
C94 C93 1.374 . S
C94 H109 0.931 . S
Eu95 N86 2.600 . S
Eu95 N96 2.562 . S
Eu95 O130 2.335 1_565 S
Eu95 O133 2.372 1_565 S
Eu95 O134 2.462 . S
Eu95 O135 2.373 . S
Eu95 O137 2.432 . S
Eu95 O138 2.291 1_565 S
Eu95 C159 2.787 . S
N96 C92 1.351 . S
N96 Eu95 2.562 . S
N96 C98 1.325 . S
C97 C91 1.404 . S
C97 C99 1.366 . S
C97 H105 0.930 . S
C98 N96 1.325 . S
C98 C99 1.416 . S
C98 H104 0.929 . S
C99 C97 1.366 . S
C99 C98 1.416 . S
C99 H101 0.930 . S
H100 C89 0.930 . S
H101 C99 0.930 . S
H102 C117 0.930 . S
H103 C124 0.930 . S
H104 C98 0.929 . S
H105 C97 0.930 . S
H106 C120 0.929 . S
H107 C87 0.931 . S
H108 C93 0.931 . S
H109 C94 0.931 . S
H110 C115 0.931 . S
H111 C90 0.929 1_655 S
H112 C123 0.930 . S
N113 Eu84 2.600 1_455 S
N113 C114 1.365 . S
N113 C117 1.319 . S
C114 N113 1.365 . S
C114 C116 1.405 . S
C114 C122 1.448 1_455 S
C115 H110 0.931 . S
C115 C117 1.397 . S
C115 C118 1.367 . S
C116 C114 1.405 . S
C116 C118 1.403 . S
C116 C149 1.439 . S
C117 H102 0.930 . S
C117 N113 1.319 . S
C117 C115 1.397 . S
C118 C115 1.367 . S
C118 C116 1.403 . S
C118 H125 0.929 . S
N119 Eu84 2.562 . S
N119 C120 1.325 . S
N119 C122 1.351 . S
C120 H106 0.929 . S
C120 N119 1.325 . S
C120 C124 1.416 . S
C121 C122 1.430 . S
C121 C123 1.404 . S
C121 C150 1.387 1_655 S
C122 C114 1.448 1_655 S
C122 N119 1.351 . S
C122 C121 1.430 . S
C123 H112 0.930 . S
C123 C121 1.404 . S
C123 C124 1.366 . S
C124 H103 0.930 . S
C124 C120 1.416 . S
C124 C123 1.366 . S
H125 C118 0.929 . S
H126 C149 0.931 . S
H127 C150 0.931 . S
O128 Eu84 2.462 . S
O128 C148 1.252 . S
O129 Eu84 2.373 . S
O129 C140 1.249 . S
O130 Eu95 2.335 1_545 S
O130 C140 1.264 . S
O131 Eu84 2.432 . S
O131 C148 1.268 . S
O132 Eu84 2.291 . S
O132 C147 1.255 . S
O133 Eu95 2.372 1_545 S
O133 C147 1.257 . S
O134 Eu95 2.462 . S
O134 C159 1.252 . S
O135 Eu95 2.373 . S
O135 C151 1.249 . S
O136 Eu84 2.335 . S
O136 C151 1.264 1_545 S
O137 Eu95 2.432 . S
O137 C159 1.268 . S
O138 Eu95 2.291 1_545 S
O138 C158 1.255 . S
O139 Eu84 2.372 . S
O139 C158 1.257 . S
C140 O129 1.249 . S
C140 O130 1.264 . S
C141 C144 1.382 . S
C141 C146 1.390 . S
C141 C148 1.506 . S
C142 C143 1.398 . S
C142 C146 1.392 . S
C143 C142 1.398 . S
C143 C145 1.372 . S
C143 H160 0.931 . S
C144 C141 1.382 . S
C144 C145 1.390 . S
C144 H161 0.931 1_655 S
C145 C143 1.372 . S
C145 C144 1.390 . S
C145 H162 0.929 1_655 S
C146 C141 1.390 . S
C146 C142 1.392 . S
C146 H163 0.930 . S
C147 O132 1.255 . S
C147 O133 1.257 . S
C148 Eu84 2.787 . S
C148 O128 1.252 . S
C148 O131 1.268 . S
C148 C141 1.506 . S
C149 C116 1.439 . S
C149 H126 0.931 . S
C149 C150 1.374 . S
C150 C121 1.387 1_455 S
C150 H127 0.931 . S
C150 C149 1.374 . S
C151 O135 1.249 . S
C151 O136 1.264 1_565 S
C152 C155 1.382 . S
C152 C156 1.390 . S
C152 C159 1.506 . S
C153 C154 1.398 . S
C153 C156 1.392 . S
C154 C153 1.398 . S
C154 C157 1.372 . S
C154 H164 0.931 . S
C155 C152 1.382 . S
C155 C157 1.390 . S
C155 H165 0.931 . S
C156 C152 1.390 . S
C156 C153 1.392 . S
C156 H166 0.930 . S
C157 C154 1.372 . S
C157 C155 1.390 . S
C157 H167 0.929 . S
C158 O138 1.255 . S
C158 O139 1.257 . S
C159 Eu95 2.787 . S
C159 O134 1.252 . S
C159 O137 1.268 . S
C159 C152 1.506 . S
H160 C143 0.931 . S
H161 C144 0.931 1_455 S
H162 C145 0.929 1_455 S
H163 C146 0.930 . S
H164 C154 0.931 . S
H165 C155 0.931 . S
H166 C156 0.930 . S
H167 C157 0.929 . S
Eu168 N197 2.600 . S
Eu168 N203 2.562 . S
Eu168 O212 2.462 . S
Eu168 O213 2.373 . S
Eu168 O215 2.432 . S
Eu168 O216 2.291 . S
Eu168 O220 2.335 . S
Eu168 O223 2.372 . S
Eu168 C232 2.787 . S
C169 N170 1.365 . S
C169 C172 1.405 . S
C169 C176 1.448 . S
N170 C169 1.365 . S
N170 C173 1.319 . S
N170 Eu179 2.600 . S
C171 C173 1.397 1_545 S
C171 C174 1.367 . S
C171 H191 0.931 . S
C172 C169 1.405 . S
C172 C174 1.403 1_565 S
C172 C178 1.439 . S
C173 N170 1.319 . S
C173 C171 1.397 1_565 S
C173 H184 0.930 . S
C174 C171 1.367 . S
C174 C172 1.403 1_545 S
C174 H195 0.929 . S
C175 C176 1.430 . S
C175 C177 1.387 . S
C175 C181 1.404 . S
C176 C169 1.448 . S
C176 C175 1.430 . S
C176 N180 1.351 . S
C177 C175 1.387 . S
C177 C178 1.374 . S
C177 H192 0.931 . S
C178 C172 1.439 . S
C178 C177 1.374 . S
C178 H193 0.931 1_565 S
Eu179 N170 2.600 . S
Eu179 N180 2.562 . S
Eu179 O214 2.335 . S
Eu179 O217 2.372 . S
Eu179 O218 2.462 . S
Eu179 O219 2.373 . S
Eu179 O221 2.432 . S
Eu179 O222 2.291 . S
Eu179 C243 2.787 . S
N180 C176 1.351 . S
N180 Eu179 2.562 . S
N180 C182 1.325 . S
C181 C175 1.404 . S
C181 C183 1.366 . S
C181 H189 0.930 . S
C182 N180 1.325 . S
C182 C183 1.416 . S
C182 H188 0.929 . S
C183 C181 1.366 . S
C183 C182 1.416 . S
C183 H185 0.930 . S
H184 C173 0.930 . S
H185 C183 0.930 . S
H186 C201 0.930 . S
H187 C208 0.930 . S
H188 C182 0.929 . S
H189 C181 0.930 . S
H190 C204 0.929 . S
H191 C171 0.931 . S
H192 C177 0.931 . S
H193 C178 0.931 1_545 S
H194 C199 0.931 . S
H195 C174 0.929 . S
H196 C207 0.930 . S
N197 Eu168 2.600 . S
N197 C198 1.365 . S
N197 C201 1.319 1_545 S
C198 N197 1.365 . S
C198 C200 1.405 1_545 S
C198 C206 1.448 . S
C199 H194 0.931 . S
C199 C201 1.397 . S
C199 C202 1.367 . S
C200 C198 1.405 1_565 S
C200 C202 1.403 . S
C200 C233 1.439 . S
C201 H186 0.930 . S
C201 N197 1.319 1_565 S
C201 C199 1.397 . S
C202 C199 1.367 . S
C202 C200 1.403 . S
C202 H209 0.929 . S
N203 Eu168 2.562 . S
N203 C204 1.325 1_655 S
N203 C206 1.351 . S
C204 H190 0.929 . S
C204 N203 1.325 1_455 S
C204 C208 1.416 . S
C205 C206 1.430 1_455 S
C205 C207 1.404 . S
C205 C234 1.387 . S
C206 C198 1.448 . S
C206 N203 1.351 . S
C206 C205 1.430 1_655 S
C207 H196 0.930 . S
C207 C205 1.404 . S
C207 C208 1.366 . S
C208 H187 0.930 . S
C208 C204 1.416 . S
C208 C207 1.366 . S
H209 C202 0.929 . S
H210 C233 0.931 . S
H211 C234 0.931 . S
O212 Eu168 2.462 . S
O212 C232 1.252 . S
O213 Eu168 2.373 . S
O213 C224 1.249 . S
O214 Eu179 2.335 . S
O214 C224 1.264 . S
O215 Eu168 2.432 . S
O215 C232 1.268 . S
O216 Eu168 2.291 . S
O216 C231 1.255 . S
O217 Eu179 2.372 . S
O217 C231 1.257 . S
O218 Eu179 2.462 . S
O218 C243 1.252 . S
O219 Eu179 2.373 . S
O219 C235 1.249 . S
O220 Eu168 2.335 . S
O220 C235 1.264 . S
O221 Eu179 2.432 . S
O221 C243 1.268 . S
O222 Eu179 2.291 . S
O222 C242 1.255 . S
O223 Eu168 2.372 . S
O223 C242 1.257 . S
C224 O213 1.249 . S
C224 O214 1.264 . S
C225 C228 1.382 . S
C225 C230 1.390 1_655 S
C225 C232 1.506 . S
C226 C227 1.398 1_455 S
C226 C230 1.392 . S
C227 C226 1.398 1_655 S
C227 C229 1.372 . S
C227 H244 0.931 1_655 S
C228 C225 1.382 . S
C228 C229 1.390 . S
C228 H245 0.931 . S
C229 C227 1.372 . S
C229 C228 1.390 . S
C229 H246 0.929 . S
C230 C225 1.390 1_455 S
C230 C226 1.392 . S
C230 H247 0.930 . S
C231 O216 1.255 . S
C231 O217 1.257 . S
C232 Eu168 2.787 . S
C232 O212 1.252 . S
C232 O215 1.268 . S
C232 C225 1.506 . S
C233 C200 1.439 . S
C233 H210 0.931 . S
C233 C234 1.374 1_665 S
C234 C205 1.387 . S
C234 H211 0.931 . S
C234 C233 1.374 1_445 S
C235 O219 1.249 . S
C235 O220 1.264 . S
C236 C239 1.382 . S
C236 C240 1.390 . S
C236 C243 1.506 . S
C237 C238 1.398 1_556 S
C237 C240 1.392 . S
C238 C237 1.398 1_554 S
C238 C241 1.372 1_554 S
C238 H248 0.931 . S
C239 C236 1.382 . S
C239 C241 1.390 . S
C239 H249 0.931 . S
C240 C236 1.390 . S
C240 C237 1.392 . S
C240 H250 0.930 . S
C241 C238 1.372 1_556 S
C241 C239 1.390 . S
C241 H251 0.929 1_556 S
C242 O222 1.255 . S
C242 O223 1.257 . S
C243 Eu179 2.787 . S
C243 O218 1.252 . S
C243 O221 1.268 . S
C243 C236 1.506 . S
H244 C227 0.931 1_455 S
H245 C228 0.931 . S
H246 C229 0.929 . S
H247 C230 0.930 . S
H248 C238 0.931 . S
H249 C239 0.931 . S
H250 C240 0.930 . S
H251 C241 0.929 1_554 S
C252 C253 1.363 1_655 S
C252 C258 1.379 . S
C252 N260 1.356 . S
C253 C252 1.363 1_455 S
C253 C259 1.363 . S
C254 C255 1.363 1_455 S
C254 C259 1.379 1_545 S
C254 N261 1.356 . S
C255 C254 1.363 1_655 S
C255 C258 1.363 1_545 S
N256 C258 1.356 . S
N256 H268 0.984 . S
N256 H269 0.985 1_565 S
N257 C259 1.356 . S
N257 H262 0.984 . S
N257 H263 0.985 . S
C258 C252 1.379 . S
C258 C255 1.363 1_565 S
C258 N256 1.356 . S
C259 C253 1.363 . S
C259 C254 1.379 1_565 S
C259 N257 1.356 . S
N260 C252 1.356 . S
N260 H266 0.984 . S
N260 H267 0.984 . S
N261 C254 1.356 . S
N261 H264 0.984 . S
N261 H265 0.985 . S
H262 N257 0.984 . S
H263 N257 0.985 . S
H264 N261 0.984 . S
H265 N261 0.985 . S
H266 N260 0.984 . S
H267 N260 0.984 . S
H268 N256 0.984 . S
H269 N256 0.985 1_545 S
C270 C271 1.363 . S
C270 C276 1.379 . S
C270 N278 1.356 . S
C271 C270 1.363 . S
C271 C277 1.363 . S
C272 C273 1.363 . S
C272 C277 1.379 . S
C272 N279 1.356 . S
C273 C272 1.363 . S
C273 C276 1.363 . S
N274 C276 1.356 1_665 S
N274 H286 0.984 . S
N274 H287 0.985 . S
N275 C277 1.356 . S
N275 H280 0.984 . S
N275 H281 0.985 . S
C276 C270 1.379 . S
C276 C273 1.363 . S
C276 N274 1.356 1_445 S
C277 C271 1.363 . S
C277 C272 1.379 . S
C277 N275 1.356 . S
N278 C270 1.356 . S
N278 H284 0.984 1_545 S
N278 H285 0.984 . S
N279 C272 1.356 . S
N279 H282 0.984 . S
N279 H283 0.985 . S
H280 N275 0.984 . S
H281 N275 0.985 . S
H282 N279 0.984 . S
H283 N279 0.985 . S
H284 N278 0.984 1_565 S
H285 N278 0.984 . S
H286 N274 0.984 . S
H287 N274 0.985 . S
C288 C289 1.363 . S
C288 C294 1.379 1_565 S
C288 N296 1.356 1_455 S
C289 C288 1.363 . S
C289 C295 1.363 . S
C290 C291 1.363 1_565 S
C290 C295 1.379 . S
C290 N297 1.356 1_565 S
C291 C290 1.363 1_545 S
C291 C294 1.363 . S
N292 C294 1.356 . S
N292 H304 0.984 . S
N292 H305 0.985 . S
N293 C295 1.356 . S
N293 H298 0.984 . S
N293 H299 0.985 . S
C294 C288 1.379 1_545 S
C294 C291 1.363 . S
C294 N292 1.356 . S
C295 C289 1.363 . S
C295 C290 1.379 . S
C295 N293 1.356 . S
N296 C288 1.356 1_655 S
N296 H302 0.984 . S
N296 H303 0.984 . S
N297 C290 1.356 1_545 S
N297 H300 0.984 . S
N297 H301 0.985 . S
H298 N293 0.984 . S
H299 N293 0.985 . S
H300 N297 0.984 . S
H301 N297 0.985 . S
H302 N296 0.984 . S
H303 N296 0.984 . S
H304 N292 0.984 . S
H305 N292 0.985 . S
C306 C307 1.363 . S
C306 C312 1.379 . S
C306 N314 1.356 . S
C307 C306 1.363 . S
C307 C313 1.363 . S
C308 C309 1.363 . S
C308 C313 1.379 . S
C308 N315 1.356 1_455 S
C309 C308 1.363 . S
C309 C312 1.363 . S
N310 C312 1.356 . S
N310 H322 0.984 . S
N310 H323 0.985 . S
N311 C313 1.356 . S
N311 H316 0.984 1_554 S
N311 H317 0.985 1_455 S
C312 C306 1.379 . S
C312 C309 1.363 . S
C312 N310 1.356 . S
C313 C307 1.363 . S
C313 C308 1.379 . S
C313 N311 1.356 . S
N314 C306 1.356 . S
N314 H320 0.984 . S
N314 H321 0.984 1_554 S
N315 C308 1.356 1_655 S
N315 H318 0.984 1_655 S
N315 H319 0.985 . S
H316 N311 0.984 1_556 S
H317 N311 0.985 1_655 S
H318 N315 0.984 1_455 S
H319 N315 0.985 . S
H320 N314 0.984 . S
H321 N314 0.984 1_556 S
H322 N310 0.984 . S
H323 N310 0.985 . S
C324 C325 1.363 . S
C324 C330 1.379 . S
C324 N332 1.356 . S
C325 C324 1.363 . S
C325 C331 1.363 . S
C326 C327 1.363 . S
C326 C331 1.379 . S
C326 N333 1.356 . S
C327 C326 1.363 . S
C327 C330 1.363 . S
N328 C330 1.356 . S
N328 H340 0.984 . S
N328 H341 0.985 . S
N329 C331 1.356 . S
N329 H334 0.984 . S
N329 H335 0.985 . S
C330 C324 1.379 . S
C330 C327 1.363 . S
C330 N328 1.356 . S
C331 C325 1.363 . S
C331 C326 1.379 . S
C331 N329 1.356 . S
N332 C324 1.356 . S
N332 H338 0.984 . S
N332 H339 0.984 . S
N333 C326 1.356 . S
N333 H336 0.984 . S
N333 H337 0.985 . S
H334 N329 0.984 . S
H335 N329 0.985 . S
H336 N333 0.984 . S
H337 N333 0.985 . S
H338 N332 0.984 . S
H339 N332 0.984 . S
H340 N328 0.984 . S
H341 N328 0.985 . S
C342 C343 1.363 . S
C342 C348 1.379 . S
C342 N350 1.356 . S
C343 C342 1.363 . S
C343 C349 1.363 . S
C344 C345 1.363 . S
C344 C349 1.379 . S
C344 N351 1.356 . S
C345 C344 1.363 . S
C345 C348 1.363 . S
N346 C348 1.356 . S
N346 H358 0.984 . S
N346 H359 0.985 . S
N347 C349 1.356 . S
N347 H352 0.984 . S
N347 H353 0.985 . S
C348 C342 1.379 . S
C348 C345 1.363 . S
C348 N346 1.356 . S
C349 C343 1.363 . S
C349 C344 1.379 . S
C349 N347 1.356 . S
N350 C342 1.356 . S
N350 H356 0.984 . S
N350 H357 0.984 . S
N351 C344 1.356 . S
N351 H354 0.984 . S
N351 H355 0.985 . S
H352 N347 0.984 . S
H353 N347 0.985 . S
H354 N351 0.984 . S
H355 N351 0.985 . S
H356 N350 0.984 . S
H357 N350 0.984 . S
H358 N346 0.984 . S
H359 N346 0.985 . S
C360 C361 1.363 . S
C360 C366 1.379 . S
C360 N368 1.356 . S
C361 C360 1.363 . S
C361 C367 1.363 . S
C362 C363 1.363 . S
C362 C367 1.379 . S
C362 N369 1.356 1_556 S
C363 C362 1.363 . S
C363 C366 1.363 . S
N364 C366 1.356 1_565 S
N364 H376 0.984 . S
N364 H377 0.985 . S
N365 C367 1.356 . S
N365 H370 0.984 . S
N365 H371 0.985 . S
C366 C360 1.379 . S
C366 C363 1.363 . S
C366 N364 1.356 1_545 S
C367 C361 1.363 . S
C367 C362 1.379 . S
C367 N365 1.356 . S
N368 C360 1.356 . S
N368 H374 0.984 . S
N368 H375 0.984 . S
N369 C362 1.356 1_554 S
N369 H372 0.984 . S
N369 H373 0.985 . S
H370 N365 0.984 . S
H371 N365 0.985 . S
H372 N369 0.984 . S
H373 N369 0.985 . S
H374 N368 0.984 . S
H375 N368 0.984 . S
H376 N364 0.984 . S
H377 N364 0.985 . S
C378 C379 1.363 . S
C378 C384 1.379 . S
C378 N386 1.356 . S
C379 C378 1.363 . S
C379 C385 1.363 . S
C380 C381 1.363 1_545 S
C380 C385 1.379 1_545 S
C380 N387 1.356 . S
C381 C380 1.363 1_565 S
C381 C384 1.363 . S
N382 C384 1.356 . S
N382 H394 0.984 . S
N382 H395 0.985 . S
N383 C385 1.356 1_545 S
N383 H388 0.984 1_545 S
N383 H389 0.985 . S
C384 C378 1.379 . S
C384 C381 1.363 . S
C384 N382 1.356 . S
C385 C379 1.363 . S
C385 C380 1.379 1_565 S
C385 N383 1.356 1_565 S
N386 C378 1.356 . S
N386 H392 0.984 . S
N386 H393 0.984 . S
N387 C380 1.356 . S
N387 H390 0.984 . S
N387 H391 0.985 . S
H388 N383 0.984 1_565 S
H389 N383 0.985 . S
H390 N387 0.984 . S
H391 N387 0.985 . S
H392 N386 0.984 . S
H393 N386 0.984 . S
H394 N382 0.984 . S
H395 N382 0.985 . S
C396 C397 1.363 . S
C396 C402 1.379 1_455 S
C396 N404 1.356 . S
C397 C396 1.363 . S
C397 C403 1.363 . S
C398 C399 1.363 . S
C398 C403 1.379 1_655 S
C398 N405 1.356 . S
C399 C398 1.363 . S
C399 C402 1.363 . S
N400 C402 1.356 . S
N400 H412 0.984 . S
N400 H413 0.985 . S
N401 C403 1.356 . S
N401 H406 0.984 . S
N401 H407 0.985 . S
C402 C396 1.379 1_655 S
C402 C399 1.363 . S
C402 N400 1.356 . S
C403 C397 1.363 . S
C403 C398 1.379 1_455 S
C403 N401 1.356 . S
N404 C396 1.356 . S
N404 H410 0.984 . S
N404 H411 0.984 . S
N405 C398 1.356 . S
N405 H408 0.984 . S
N405 H409 0.985 . S
H406 N401 0.984 . S
H407 N401 0.985 . S
H408 N405 0.984 . S
H409 N405 0.985 . S
H410 N404 0.984 . S
H411 N404 0.984 . S
H412 N400 0.984 . S
H413 N400 0.985 . S
C253 C74 1.667 . S
C255 C63 1.667 . S
C271 C147 1.667 . S
C273 C158 1.667 1_455 S
C289 C231 1.667 1_455 S
C291 C242 1.667 . S
C307 C237 1.333 1_554 S
C309 C67 1.504 . S
C325 C142 1.365 . S
C327 C56 1.853 . S
C343 C235 1.504 . S
C345 C153 1.333 . S
C361 C224 1.854 . S
C363 C58 1.366 1_556 S
C379 C69 1.332 . S
C381 C151 1.504 . S
C397 C226 1.365 . S
C399 C140 1.854 . S
