# Generated by pormake.
# Topology ukh, (4)-cn, num edge types: 1
# Building blocks:
#     Node 0, Type 0, BuildingBlock: AZAVOO_clean_sbu_0, # of connection points: 4
#     Node 1, Type 0, BuildingBlock: AZAVOO_clean_sbu_0, # of connection points: 4
#     Node 2, Type 0, BuildingBlock: AZAVOO_clean_sbu_0, # of connection points: 4
#     Node 3, Type 0, BuildingBlock: AZAVOO_clean_sbu_0, # of connection points: 4
#     Node 4, Type 0, BuildingBlock: AZAVOO_clean_sbu_0, # of connection points: 4
#     Node 5, Type 0, BuildingBlock: AZAVOO_clean_sbu_0, # of connection points: 4
#     Node 6, Type 0, BuildingBlock: AZAVOO_clean_sbu_0, # of connection points: 4
#     Node 7, Type 0, BuildingBlock: AZAVOO_clean_sbu_0, # of connection points: 4
#     Node 8, Type 0, BuildingBlock: AZAVOO_clean_sbu_0, # of connection points: 4
#     Node 9, Type 0, BuildingBlock: AZAVOO_clean_sbu_0, # of connection points: 4
#     Node 10, Type 0, BuildingBlock: AZAVOO_clean_sbu_0, # of connection points: 4
#     Node 11, Type 0, BuildingBlock: AZAVOO_clean_sbu_0, # of connection points: 4
#     Edge 12, Type (0, 0), BuildingBlock: ZUJKAS_clean_linker_0, # of connection points: 2
#     Edge 13, Type (0, 0), BuildingBlock: ZUJKAS_clean_linker_0, # of connection points: 2
#     Edge 14, Type (0, 0), BuildingBlock: ZUJKAS_clean_linker_0, # of connection points: 2
#     Edge 15, Type (0, 0), BuildingBlock: ZUJKAS_clean_linker_0, # of connection points: 2
#     Edge 16, Type (0, 0), BuildingBlock: ZUJKAS_clean_linker_0, # of connection points: 2
#     Edge 17, Type (0, 0), BuildingBlock: ZUJKAS_clean_linker_0, # of connection points: 2
#     Edge 18, Type (0, 0), BuildingBlock: ZUJKAS_clean_linker_0, # of connection points: 2
#     Edge 19, Type (0, 0), BuildingBlock: ZUJKAS_clean_linker_0, # of connection points: 2
#     Edge 20, Type (0, 0), BuildingBlock: ZUJKAS_clean_linker_0, # of connection points: 2
#     Edge 21, Type (0, 0), BuildingBlock: ZUJKAS_clean_linker_0, # of connection points: 2
#     Edge 22, Type (0, 0), BuildingBlock: ZUJKAS_clean_linker_0, # of connection points: 2
#     Edge 23, Type (0, 0), BuildingBlock: ZUJKAS_clean_linker_0, # of connection points: 2
#     Edge 24, Type (0, 0), BuildingBlock: ZUJKAS_clean_linker_0, # of connection points: 2
#     Edge 25, Type (0, 0), BuildingBlock: ZUJKAS_clean_linker_0, # of connection points: 2
#     Edge 26, Type (0, 0), BuildingBlock: ZUJKAS_clean_linker_0, # of connection points: 2
#     Edge 27, Type (0, 0), BuildingBlock: ZUJKAS_clean_linker_0, # of connection points: 2
#     Edge 28, Type (0, 0), BuildingBlock: ZUJKAS_clean_linker_0, # of connection points: 2
#     Edge 29, Type (0, 0), BuildingBlock: ZUJKAS_clean_linker_0, # of connection points: 2
#     Edge 30, Type (0, 0), BuildingBlock: ZUJKAS_clean_linker_0, # of connection points: 2
#     Edge 31, Type (0, 0), BuildingBlock: ZUJKAS_clean_linker_0, # of connection points: 2
#     Edge 32, Type (0, 0), BuildingBlock: ZUJKAS_clean_linker_0, # of connection points: 2
#     Edge 33, Type (0, 0), BuildingBlock: ZUJKAS_clean_linker_0, # of connection points: 2
#     Edge 34, Type (0, 0), BuildingBlock: ZUJKAS_clean_linker_0, # of connection points: 2
#     Edge 35, Type (0, 0), BuildingBlock: ZUJKAS_clean_linker_0, # of connection points: 2
# Relax obj value: 0.220
# Max RMSD: 0.236
# Mean RMSD: 0.236
data_MOF--net-ukh--node1-AZAVOO_clean_sbu_0--edge1-ZUJKAS_clean_linker_0
_symmetry_space_group_name_H-M    P1
_symmetry_Int_Tables_number       1
_symmetry_cell_setting            triclinic
loop_
_symmetry_equiv_pos_as_xyz
'x, y, z'
_cell_length_a     40.892879
_cell_length_b     40.953823
_cell_length_c     78.399029
_cell_angle_alpha  90.099442
_cell_angle_beta   89.995293
_cell_angle_gamma 120.14045
loop_
_atom_site_label
_atom_site_type_symbol
_atom_site_fract_x
_atom_site_fract_y
_atom_site_fract_z
_atom_type_partial_charge
Mg0 Mg 0.30879 0.24021 0.05039 0.0
O1 O 0.25531 0.23286 0.03694 0.0
O2 O 0.20965 0.17324 0.04125 0.0
Mg3 Mg 0.23354 0.14197 0.05612 0.0
C4 C 0.22121 0.20604 0.03505 0.0
C5 C 0.34628 0.31957 0.03361 0.0
O6 O 0.33559 0.29812 0.01992 0.0
O7 O 0.28497 0.23987 0.07673 0.0
O8 O 0.24269 0.17844 0.07977 0.0
O9 O 0.326 0.22131 0.02691 0.0
O10 O 0.29058 0.1835 0.04755 0.0
C11 C 0.26073 0.21211 0.08564 0.0
C12 C 0.30668 0.18749 0.03304 0.0
O13 O 0.33762 0.30406 0.04821 0.0
Mg14 Mg 0.05821 0.29855 0.39264 0.0
O15 O -0.00023 0.24637 0.38693 0.0
O16 O 0.99698 0.19865 0.40186 0.0
Mg17 Mg 0.05302 0.21804 0.41558 0.0
C18 C 0.98221 0.21179 0.3916 0.0
C19 C 0.05941 0.37267 0.3882 0.0
O20 O 0.08983 0.38131 0.39719 0.0
O21 O 0.04301 0.30551 0.41987 0.0
O22 O 0.04648 0.2591 0.4331 0.0
O23 O 0.08443 0.2841 0.37067 0.0
O24 O 0.08099 0.26404 0.39699 0.0
C25 C 0.04294 0.28835 0.43346 0.0
C26 C 0.09136 0.26449 0.38152 0.0
O27 O 0.03882 0.33876 0.38315 0.0
Mg28 Mg 0.76633 0.14374 0.68038 0.0
O29 O 0.78338 0.09927 0.68586 0.0
O30 O 0.84572 0.12553 0.68211 0.0
Mg31 Mg 0.86895 0.18823 0.67622 0.0
C32 C 0.81338 0.09695 0.68541 0.0
C33 C 0.68379 0.11489 0.69137 0.0
O34 O 0.6941 0.14938 0.68643 0.0
O35 O 0.78832 0.17068 0.70649 0.0
O36 O 0.85075 0.19793 0.70248 0.0
O37 O 0.76258 0.1265 0.65318 0.0
O38 O 0.81384 0.17335 0.66515 0.0
C39 C 0.8223 0.19071 0.71181 0.0
C40 C 0.79848 0.15057 0.6525 0.0
O41 O 0.70788 0.10398 0.69095 0.0
Mg42 Mg 0.71607 0.77522 0.04392 0.0
O43 O 0.76994 0.77349 0.03639 0.0
O44 O 0.81866 0.82835 0.04524 0.0
Mg45 Mg 0.79773 0.86537 0.057 0.0
C46 C 0.8055 0.79613 0.03809 0.0
C47 C 0.64741 0.70387 0.03172 0.0
O48 O 0.64217 0.73145 0.02661 0.0
O49 O 0.72288 0.76707 0.07222 0.0
O50 O 0.77032 0.82446 0.07922 0.0
O51 O 0.71696 0.80216 0.01899 0.0
O52 O 0.74519 0.83346 0.04246 0.0
C53 C 0.74491 0.79099 0.08327 0.0
C54 C 0.73771 0.83419 0.02661 0.0
O55 O 0.67792 0.71216 0.03949 0.0
Mg56 Mg 0.91293 0.70103 0.4004 0.0
O57 O 0.9599 0.75526 0.38737 0.0
O58 O 0.94557 0.8003 0.39249 0.0
Mg59 Mg 0.89164 0.77714 0.40804 0.0
C60 C 0.96693 0.7893 0.3859 0.0
C61 C 0.92768 0.63812 0.3896 0.0
O62 O 0.89247 0.62603 0.38511 0.0
O63 O 0.93782 0.72316 0.42702 0.0
O64 O 0.92062 0.76679 0.43042 0.0
O65 O 0.87484 0.68613 0.3773 0.0
O66 O 0.87505 0.72053 0.39894 0.0
C67 C 0.93591 0.74831 0.43599 0.0
C68 C 0.86136 0.70541 0.38443 0.0
O69 O 0.94637 0.6705 0.39656 0.0
Mg70 Mg 0.20453 0.81787 0.6806 0.0
O71 O 0.20109 0.86472 0.66595 0.0
O72 O 0.1413 0.85217 0.66738 0.0
Mg73 Mg 0.10557 0.79545 0.68075 0.0
C74 C 0.17564 0.87324 0.66277 0.0
C75 C 0.28609 0.85516 0.69515 0.0
O76 O 0.26688 0.83367 0.70807 0.0
O77 O 0.19742 0.84113 0.70602 0.0
O78 O 0.13568 0.82229 0.70578 0.0
O79 O 0.18998 0.78085 0.65698 0.0
O80 O 0.14896 0.78056 0.67541 0.0
C81 C 0.16785 0.83788 0.7132 0.0
C82 C 0.15524 0.76781 0.66164 0.0
O83 O 0.2685 0.85464 0.6817 0.0
Mg84 Mg 0.77003 0.66675 0.63638 0.0
O85 O 0.77915 0.72071 0.65039 0.0
O86 O 0.84174 0.75762 0.65342 0.0
Mg87 Mg 0.87252 0.72829 0.64324 0.0
C88 C 0.80812 0.75156 0.65529 0.0
C89 C 0.68851 0.6099 0.63123 0.0
O90 O 0.70671 0.59133 0.63333 0.0
O91 O 0.79114 0.69965 0.61117 0.0
O92 O 0.85345 0.7323 0.61644 0.0
O93 O 0.76988 0.63634 0.6607 0.0
O94 O 0.82031 0.67486 0.64578 0.0
C95 C 0.82525 0.72225 0.60647 0.0
C96 C 0.80612 0.65311 0.65866 0.0
O97 O 0.70752 0.64581 0.63127 0.0
Mg98 Mg 0.17327 0.79922 0.9282 0.0
O99 O 0.12519 0.80428 0.94056 0.0
O100 O 0.13769 0.86376 0.93877 0.0
Mg101 Mg 0.194 0.8969 0.92455 0.0
C102 C 0.11647 0.8296 0.94348 0.0
C103 C 0.12473 0.72064 0.94431 0.0
O104 O 0.13532 0.74232 0.95792 0.0
O105 O 0.15173 0.8015 0.90161 0.0
O106 O 0.16701 0.86216 0.90044 0.0
O107 O 0.2052 0.81701 0.95295 0.0
O108 O 0.21094 0.85581 0.93208 0.0
C109 C 0.15316 0.82944 0.89367 0.0
C110 C 0.21983 0.85113 0.9472 0.0
O111 O 0.13604 0.73564 0.92973 0.0
Mg112 Mg 0.3628 0.15998 0.29166 0.0
O113 O 0.30422 0.11085 0.29934 0.0
O114 O 0.2675 0.13521 0.30551 0.0
Mg115 Mg 0.30064 0.19848 0.30005 0.0
C116 C 0.27283 0.10712 0.30442 0.0
C117 C 0.4154 0.12927 0.28477 0.0
O118 O 0.43811 0.16404 0.28999 0.0
O119 O 0.34076 0.16254 0.26507 0.0
O120 O 0.3036 0.18614 0.27191 0.0
O121 O 0.37641 0.16825 0.31957 0.0
O122 O 0.35317 0.19812 0.30489 0.0
C123 C 0.31786 0.17389 0.2609 0.0
C124 C 0.36208 0.19014 0.31936 0.0
O125 O 0.38033 0.11781 0.28334 0.0
Mg126 Mg 0.21368 0.28923 0.61239 0.0
O127 O 0.22808 0.24206 0.60796 0.0
O128 O 0.18203 0.19787 0.59172 0.0
Mg129 Mg 0.13704 0.21409 0.58698 0.0
C130 C 0.21302 0.21059 0.59994 0.0
C131 C 0.28709 0.3657 0.61822 0.0
O132 O 0.26401 0.3766 0.61234 0.0
O133 O 0.22695 0.31098 0.58487 0.0
O134 O 0.17731 0.26496 0.57107 0.0
O135 O 0.18065 0.25878 0.63604 0.0
O136 O 0.15696 0.24928 0.61001 0.0
C137 C 0.20769 0.29697 0.57127 0.0
C138 C 0.15239 0.23997 0.6258 0.0
O139 O 0.27465 0.33059 0.62032 0.0
Mg140 Mg 0.86958 0.23893 0.92856 0.0
O141 O 0.92055 0.23231 0.93553 0.0
O142 O 0.90703 0.17391 0.92871 0.0
Mg143 Mg 0.84806 0.14377 0.91666 0.0
C144 C 0.92936 0.2065 0.93497 0.0
C145 C 0.89568 0.31864 0.94299 0.0
O146 O 0.86372 0.29887 0.95129 0.0
O147 O 0.88413 0.24418 0.90023 0.0
O148 O 0.86823 0.18471 0.89409 0.0
O149 O 0.84531 0.21549 0.95416 0.0
O150 O 0.8336 0.18133 0.93067 0.0
C151 C 0.88024 0.21884 0.88958 0.0
C152 C 0.83008 0.18263 0.9469 0.0
O153 O 0.90605 0.30197 0.93249 0.0
Mg154 Mg 0.6111 0.84063 0.28398 0.0
O155 O 0.66541 0.88954 0.29567 0.0
O156 O 0.70822 0.87131 0.29813 0.0
Mg157 Mg 0.68226 0.81158 0.28715 0.0
C158 C 0.69811 0.8959 0.30018 0.0
C159 C 0.55668 0.87216 0.28673 0.0
O160 O 0.5379 0.84035 0.29521 0.0
O161 O 0.63745 0.85253 0.2573 0.0
O162 O 0.6796 0.83334 0.26071 0.0
O163 O 0.59302 0.81574 0.31034 0.0
O164 O 0.62509 0.80139 0.29207 0.0
C165 C 0.66344 0.84685 0.25152 0.0
C166 C 0.61015 0.79718 0.30684 0.0
O167 O 0.58853 0.88079 0.28031 0.0
H168 H 0.64479 0.63991 0.04398 0.0
H169 H 0.59176 0.57502 0.04218 0.0
H170 H 0.52813 0.61329 0.01292 0.0
H171 H 0.58062 0.67814 0.01483 0.0
H172 H 0.4877 0.56773 0.03978 0.0
H173 H 0.55382 0.50175 0.00185 0.0
H174 H 0.58054 0.52655 0.02042 0.0
H175 H 0.57411 0.55227 0.00344 0.0
C176 C 0.61969 0.63444 0.03699 0.0
C177 C 0.61691 0.66419 0.02956 0.0
C178 C 0.58948 0.59733 0.03591 0.0
C179 C 0.55618 0.58932 0.02726 0.0
C180 C 0.55361 0.61887 0.01961 0.0
H181 H 0.37408 0.36118 0.00447 0.0
H182 H 0.42245 0.42791 0.00224 0.0
C183 C 0.58369 0.65592 0.02071 0.0
C184 C 0.5232 0.5505 0.02697 0.0
H185 H 0.49496 0.4599 0.01516 0.0
C186 C 0.48918 0.54417 0.0343 0.0
C187 C 0.52507 0.51996 0.01959 0.0
C188 C 0.56022 0.52542 0.01073 0.0
C189 C 0.45721 0.50789 0.03486 0.0
C190 C 0.4596 0.47708 0.02815 0.0
C191 C 0.4933 0.48356 0.02041 0.0
C192 C 0.42791 0.43771 0.02949 0.0
C193 C 0.42114 0.50291 0.04252 0.0
C194 C 0.41469 0.42124 0.04554 0.0
C195 C 0.38698 0.38319 0.04687 0.0
C196 C 0.37223 0.36079 0.03215 0.0
C197 C 0.38483 0.37763 0.01606 0.0
C198 C 0.41253 0.41573 0.01475 0.0
H199 H 0.42059 0.52976 0.04243 0.0
H200 H 0.39597 0.48108 0.03554 0.0
H201 H 0.41907 0.49373 0.05598 0.0
H202 H 0.42668 0.43751 0.05708 0.0
H203 H 0.37804 0.37109 0.05946 0.0
H204 H 0.09721 0.44658 0.39807 0.0
H205 H 0.07594 0.49249 0.39603 0.0
H206 H 0.97474 0.41019 0.3701 0.0
H207 H 0.99555 0.36369 0.37229 0.0
H208 H 0.05659 0.5222 0.36805 0.0
H209 H 0.9343 0.44111 0.41128 0.0
H210 H 0.9721 0.43075 0.40909 0.0
H211 H 0.93583 0.41521 0.39308 0.0
C212 C 0.0705 0.4382 0.39183 0.0
C213 C 0.04789 0.4013 0.38549 0.0
C214 C 0.05844 0.46456 0.39066 0.0
C215 C 0.0235 0.45457 0.38318 0.0
C216 C 0.00149 0.41824 0.37622 0.0
H217 H 0.89468 0.56889 0.37441 0.0
H218 H 0.91966 0.52612 0.37182 0.0
C219 C 0.01352 0.39178 0.3774 0.0
C220 C 0.00974 0.48189 0.38319 0.0
H221 H 0.93979 0.496 0.39872 0.0
C222 C 0.03105 0.51653 0.37474 0.0
C223 C 0.97655 0.47447 0.39203 0.0
C224 C 0.95348 0.43854 0.40203 0.0
C225 C 0.01969 0.54373 0.37466 0.0
C226 C 0.98649 0.53626 0.3835 0.0
C227 C 0.9652 0.50161 0.39192 0.0
C228 C 0.97294 0.56374 0.38413 0.0
C229 C 0.0429 0.57989 0.36487 0.0
C230 C 0.99468 0.59925 0.3919 0.0
C231 C 0.98046 0.62394 0.3934 0.0
C232 C 0.94414 0.61337 0.38726 0.0
C233 C 0.92274 0.57797 0.3793 0.0
C234 C 0.93695 0.55342 0.3778 0.0
H235 H 0.06173 0.5773 0.35542 0.0
H236 H 0.0244 0.58825 0.35809 0.0
H237 H 0.06091 0.60283 0.37392 0.0
H238 H 0.02225 0.60751 0.39717 0.0
H239 H -0.00241 0.65091 0.39966 0.0
H240 H 0.3339 0.90326 0.67087 0.0
H241 H 0.40224 0.94515 0.67304 0.0
H242 H 0.40062 0.90583 0.72419 0.0
H243 H 0.33206 0.86402 0.72224 0.0
H244 H 0.4428 0.98487 0.7208 0.0
H245 H 0.48276 0.91327 0.67186 0.0
H246 H 0.44869 0.92546 0.66449 0.0
H247 H 0.43624 0.89143 0.68131 0.0
C248 C 0.34804 0.90335 0.68257 0.0
C249 C 0.32756 0.88014 0.69636 0.0
C250 C 0.38713 0.92719 0.68375 0.0
C251 C 0.40649 0.92812 0.69868 0.0
C252 C 0.38616 0.90531 0.71253 0.0
H253 H 0.65272 0.04097 0.70093 0.0
H254 H 0.58574 0.99505 0.7052 0.0
C255 C 0.34702 0.88142 0.71137 0.0
C256 C 0.44789 0.95353 0.69988 0.0
H257 H 0.53104 0.9745 0.6807 0.0
C258 C 0.4622 0.98245 0.71215 0.0
C259 C 0.4731 0.94989 0.68876 0.0
C260 C 0.45952 0.91812 0.67597 0.0
C261 C 0.50104 0.00876 0.71316 0.0
C262 C 0.52599 0.00628 0.70144 0.0
C263 C 0.5118 0.97652 0.68959 0.0
C264 C 0.56671 0.03496 0.70071 0.0
C265 C 0.51498 0.03894 0.72675 0.0
C266 C 0.5782 0.07268 0.69692 0.0
C267 C 0.61644 0.09901 0.69449 0.0
C268 C 0.64385 0.08799 0.69567 0.0
C269 C 0.63233 0.05038 0.69992 0.0
C270 C 0.59408 0.02409 0.70236 0.0
H271 H 0.49485 0.03041 0.73759 0.0
H272 H 0.54306 0.04539 0.7317 0.0
H273 H 0.51783 0.06516 0.72121 0.0
H274 H 0.55749 0.0815 0.69523 0.0
H275 H 0.62434 0.12771 0.69118 0.0
H276 H 0.64198 0.53372 0.63199 0.0
H277 H 0.57319 0.49813 0.63059 0.0
H278 H 0.57085 0.60181 0.62591 0.0
H279 H 0.64029 0.63805 0.62726 0.0
H280 H 0.52219 0.5059 0.6535 0.0
H281 H 0.50409 0.53394 0.58566 0.0
H282 H 0.54842 0.54081 0.59382 0.0
H283 H 0.53354 0.57408 0.59891 0.0
C284 C 0.62701 0.54913 0.63057 0.0
C285 C 0.64671 0.58881 0.62971 0.0
C286 C 0.58762 0.52866 0.62981 0.0
C287 C 0.56696 0.54729 0.62806 0.0
C288 C 0.58636 0.58689 0.62707 0.0
H289 H 0.32179 0.44254 0.61547 0.0
H290 H 0.38892 0.48872 0.61917 0.0
C291 C 0.62598 0.60753 0.62789 0.0
C292 C 0.52509 0.52477 0.62764 0.0
H293 H 0.44891 0.49447 0.60119 0.0
C294 C 0.50608 0.50358 0.64211 0.0
C295 C 0.50422 0.522 0.6128 0.0
C296 C 0.52343 0.54367 0.59683 0.0
C297 C 0.46676 0.4792 0.64207 0.0
C298 C 0.446 0.47527 0.62701 0.0
C299 C 0.46488 0.49738 0.6127 0.0
C300 C 0.40499 0.44734 0.62559 0.0
C301 C 0.44783 0.45801 0.65818 0.0
C302 C 0.39169 0.40867 0.62792 0.0
C303 C 0.35329 0.38217 0.62589 0.0
C304 C 0.32746 0.39381 0.62131 0.0
C305 C 0.34087 0.43259 0.61904 0.0
C306 C 0.37926 0.45906 0.62112 0.0
H307 H 0.46498 0.47255 0.66965 0.0
H308 H 0.41932 0.45472 0.65968 0.0
H309 H 0.44463 0.42947 0.6576 0.0
H310 H 0.41114 0.39886 0.63098 0.0
H311 H 0.34399 0.35254 0.62761 0.0
H312 H 0.96435 0.36671 0.92881 0.0
H313 H 0.00206 0.4351 0.93236 0.0
H314 H 0.91802 0.43238 0.96648 0.0
H315 H 0.87981 0.36381 0.96294 0.0
H316 H 0.94044 0.48638 0.94013 0.0
H317 H 0.06405 0.4962 0.97411 0.0
H318 H 0.05145 0.46808 0.95504 0.0
H319 H 0.01911 0.45285 0.97271 0.0
C320 C 0.95394 0.38056 0.93717 0.0
C321 C 0.91907 0.35984 0.94559 0.0
C322 C 0.97567 0.41961 0.93926 0.0
C323 C 0.96302 0.4386 0.94987 0.0
C324 C 0.92831 0.41808 0.95834 0.0
H325 H 0.10024 0.67921 0.97362 0.0
H326 H 0.05898 0.61077 0.97619 0.0
C327 C 0.90656 0.37896 0.95629 0.0
C328 C 0.98514 0.48015 0.95127 0.0
H329 H 0.07219 0.55338 0.96198 0.0
C330 C 0.96909 0.50108 0.94508 0.0
C331 C 0.02232 0.49912 0.95791 0.0
C332 C 0.04019 0.47795 0.96548 0.0
C333 C 0.98989 0.54063 0.94471 0.0
C334 C 0.02772 0.55951 0.95052 0.0
C335 C 0.04326 0.53867 0.95737 0.0
C336 C 0.05208 0.60082 0.94899 0.0
C337 C 0.97138 0.56193 0.93798 0.0
C338 C 0.06207 0.61761 0.93283 0.0
C339 C 0.08571 0.65657 0.9313 0.0
C340 C 0.09978 0.67939 0.94593 0.0
C341 C 0.08978 0.66241 0.96211 0.0
C342 C 0.06626 0.62337 0.96362 0.0
H343 H 0.94004 0.54427 0.93809 0.0
H344 H 0.97988 0.58784 0.94562 0.0
H345 H 0.98053 0.57056 0.92462 0.0
H346 H 0.05182 0.60048 0.92139 0.0
H347 H 0.09293 0.66876 0.91865 0.0
H348 H 0.48821 0.1449 0.28832 0.0
H349 H 0.5119 0.1009 0.28632 0.0
H350 H 0.40002 0.0107 0.27357 0.0
H351 H 0.37595 0.05461 0.27546 0.0
H352 H 0.485 0.03531 0.30677 0.0
H353 H 0.46947 0.00166 0.23748 0.0
H354 H 0.46984 0.04284 0.24604 0.0
H355 H 0.42818 0.99715 0.24786 0.0
C356 C 0.46866 0.11583 0.28488 0.0
C357 C 0.43015 0.10324 0.28209 0.0
C358 C 0.48228 0.09074 0.28376 0.0
C359 C 0.45777 0.05269 0.27969 0.0
C360 C 0.41949 0.04012 0.27648 0.0
H361 H 0.49206 0.86433 0.30088 0.0
H362 H 0.46764 0.9078 0.29874 0.0
C363 C 0.40577 0.06521 0.27764 0.0
C364 C 0.47188 0.02577 0.27999 0.0
H365 H 0.48649 0.96561 0.25522 0.0
C366 C 0.48539 0.02009 0.29551 0.0
C367 C 0.47255 0.00625 0.26523 0.0
C368 C 0.45954 0.01238 0.24815 0.0
C369 C 0.49922 0.99505 0.29671 0.0
C370 C 0.49919 0.97494 0.28203 0.0
C371 C 0.48615 0.98092 0.26645 0.0
C372 C 0.51307 0.94788 0.28267 0.0
C373 C 0.51424 0.99061 0.3136 0.0
C374 C 0.54628 0.95578 0.27405 0.0
C375 C 0.56039 0.93106 0.27527 0.0
C376 C 0.5413 0.89788 0.28502 0.0
C377 C 0.50754 0.8897 0.29333 0.0
C378 C 0.49357 0.91452 0.29216 0.0
H379 H 0.51954 0.01369 0.32265 0.0
H380 H 0.49323 0.9634 0.31947 0.0
H381 H 0.54094 0.99015 0.31181 0.0
H382 H 0.56164 0.98141 0.26664 0.0
H383 H 0.58637 0.9381 0.26866 0.0
H384 H 0.259 0.1799 0.24858 0.0
H385 H 0.24577 0.18762 0.21906 0.0
H386 H 0.34187 0.17911 0.20259 0.0
H387 H 0.35512 0.17071 0.23229 0.0
H388 H 0.29224 0.24506 0.1975 0.0
H389 H 0.25763 0.10551 0.17093 0.0
H390 H 0.2599 0.11448 0.19357 0.0
H391 H 0.30262 0.13023 0.18152 0.0
C392 C 0.27721 0.17928 0.2387 0.0
C393 C 0.30823 0.17478 0.24279 0.0
C394 C 0.26958 0.18378 0.22183 0.0
C395 C 0.29273 0.18384 0.20866 0.0
C396 C 0.32331 0.17859 0.21258 0.0
H397 H 0.31371 0.26755 0.10611 0.0
H398 H 0.31859 0.26388 0.137 0.0
C399 C 0.33088 0.17382 0.22953 0.0
C400 C 0.28536 0.19082 0.19095 0.0
H401 H 0.26359 0.15194 0.15117 0.0
C402 C 0.28584 0.22467 0.18736 0.0
C403 C 0.27653 0.16395 0.17784 0.0
C404 C 0.27375 0.12634 0.18113 0.0
C405 C 0.27813 0.23257 0.17092 0.0
C406 C 0.27036 0.20616 0.15771 0.0
C407 C 0.26954 0.17217 0.16135 0.0
C408 C 0.264 0.21323 0.13984 0.0
C409 C 0.27786 0.2688 0.1679 0.0
C410 C 0.23113 0.18676 0.13128 0.0
C411 C 0.22839 0.18862 0.11361 0.0
C412 C 0.25853 0.21698 0.10421 0.0
C413 C 0.28989 0.24551 0.11299 0.0
C414 C 0.29275 0.24344 0.13068 0.0
H415 H 0.2732 0.28023 0.17994 0.0
H416 H 0.30564 0.29026 0.16264 0.0
H417 H 0.25557 0.26457 0.15861 0.0
H418 H 0.20854 0.16335 0.13814 0.0
H419 H 0.20375 0.16636 0.10721 0.0
H420 H 0.07655 0.36442 0.43921 0.0
H421 H 0.11314 0.39598 0.4648 0.0
H422 H 0.06466 0.28862 0.49048 0.0
H423 H 0.02782 0.25707 0.46514 0.0
H424 H 0.08503 0.35061 0.51277 0.0
H425 H 0.20127 0.37449 0.4681 0.0
H426 H 0.17276 0.39527 0.46313 0.0
H427 H 0.1523 0.34491 0.46228 0.0
C428 C 0.07215 0.34776 0.45059 0.0
C429 C 0.05005 0.30808 0.45004 0.0
C430 C 0.09347 0.36586 0.46516 0.0
C431 C 0.09262 0.34445 0.47928 0.0
C432 C 0.06613 0.30566 0.47962 0.0
H433 H 0.19997 0.27545 0.53817 0.0
H434 H 0.18394 0.30477 0.51513 0.0
C435 C 0.04496 0.28759 0.46512 0.0
C436 C 0.12332 0.35973 0.49217 0.0
H437 H 0.21286 0.37475 0.49717 0.0
C438 C 0.11348 0.35731 0.50944 0.0
C439 C 0.16041 0.36831 0.4877 0.0
C440 C 0.17255 0.37083 0.46933 0.0
C441 C 0.1384 0.35954 0.52231 0.0
C442 C 0.17424 0.36474 0.51772 0.0
C443 C 0.18545 0.37094 0.50059 0.0
C444 C 0.19564 0.35446 0.52969 0.0
C445 C 0.1247 0.35243 0.54054 0.0
C446 C 0.21057 0.37416 0.54503 0.0
C447 C 0.22025 0.35751 0.55822 0.0
C448 C 0.2147 0.32092 0.55616 0.0
C449 C 0.20447 0.30364 0.54006 0.0
C450 C 0.19514 0.32035 0.52691 0.0
H451 H 0.09508 0.34631 0.54174 0.0
H452 H 0.12641 0.32819 0.54585 0.0
H453 H 0.14303 0.37765 0.54842 0.0
H454 H 0.21172 0.40081 0.5473 0.0
H455 H 0.22786 0.37133 0.57055 0.0
H456 H 0.88531 0.25234 0.72412 0.0
H457 H 0.90128 0.2711 0.75392 0.0
H458 H 0.79287 0.1788 0.76946 0.0
H459 H 0.7761 0.16071 0.73955 0.0
H460 H 0.81423 0.24176 0.78873 0.0
H461 H 0.93216 0.21162 0.78406 0.0
H462 H 0.93585 0.24724 0.76962 0.0
H463 H 0.89769 0.19938 0.76733 0.0
C464 C 0.86468 0.23631 0.73388 0.0
C465 C 0.82966 0.2047 0.72956 0.0
C466 C 0.87393 0.24698 0.7509 0.0
C467 C 0.84872 0.22571 0.76392 0.0
C468 C 0.81286 0.19545 0.75959 0.0
H469 H 0.87809 0.17303 0.86386 0.0
H470 H 0.87548 0.18217 0.83341 0.0
C471 C 0.8033 0.18512 0.74252 0.0
C472 C 0.86048 0.23329 0.78205 0.0
H473 H 0.92339 0.23292 0.81055 0.0
C474 C 0.83828 0.24017 0.79352 0.0
C475 C 0.89177 0.23092 0.78823 0.0
C476 C 0.91557 0.22156 0.77672 0.0
C477 C 0.84574 0.24352 0.81111 0.0
C478 C 0.87683 0.24082 0.81729 0.0
C479 C 0.89984 0.23537 0.80573 0.0
C480 C 0.88277 0.23812 0.83575 0.0
C481 C 0.81905 0.24779 0.82298 0.0
C482 C 0.88919 0.26718 0.84719 0.0
C483 C 0.89044 0.26192 0.86478 0.0
C484 C 0.88552 0.22759 0.87112 0.0
C485 C 0.8816 0.19967 0.85948 0.0
C486 C 0.88017 0.20487 0.84202 0.0
H487 H 0.79267 0.24228 0.81643 0.0
H488 H 0.81134 0.22818 0.83396 0.0
H489 H 0.83317 0.27706 0.82805 0.0
H490 H 0.89219 0.29344 0.84256 0.0
H491 H 0.89376 0.2841 0.87338 0.0
H492 H 0.79402 0.81928 0.1099 0.0
H493 H 0.77745 0.82455 0.1393 0.0
H494 H 0.65912 0.75459 0.12704 0.0
H495 H 0.67563 0.74814 0.09779 0.0
H496 H 0.7389 0.86049 0.145 0.0
H497 H 0.66162 0.7183 0.1744 0.0
H498 H 0.68978 0.72771 0.15537 0.0
H499 H 0.64281 0.72085 0.15409 0.0
C500 C 0.76457 0.80366 0.11369 0.0
C501 C 0.73611 0.78344 0.10157 0.0
C502 C 0.75511 0.8069 0.13045 0.0
C503 C 0.71705 0.79021 0.13535 0.0
C504 C 0.68869 0.76725 0.12365 0.0
H505 H 0.61448 0.83089 0.22497 0.0
H506 H 0.62578 0.82043 0.19519 0.0
C507 C 0.69819 0.76351 0.10691 0.0
C508 C 0.70723 0.80146 0.15168 0.0
H509 H 0.65835 0.76781 0.18889 0.0
C510 C 0.72142 0.84017 0.15462 0.0
C511 C 0.68397 0.77493 0.1641 0.0
C512 C 0.66893 0.73316 0.16193 0.0
C513 C 0.7134 0.85308 0.16973 0.0
C514 C 0.69055 0.82664 0.18217 0.0
C515 C 0.6756 0.78791 0.17915 0.0
C516 C 0.68488 0.83872 0.19911 0.0
C517 C 0.72956 0.89489 0.1724 0.0
C518 C 0.71472 0.85356 0.21087 0.0
C519 C 0.70833 0.8593 0.22778 0.0
C520 C 0.67206 0.85057 0.23316 0.0
C521 C 0.64281 0.83833 0.22108 0.0
C522 C 0.64911 0.83202 0.20415 0.0
H523 H 0.74045 0.91102 0.16035 0.0
H524 H 0.70781 0.90059 0.17782 0.0
H525 H 0.75328 0.9054 0.18166 0.0
H526 H 0.74244 0.85868 0.20718 0.0
H527 H 0.73129 0.86862 0.23687 0.0
H528 H 0.88789 0.78345 0.59398 0.0
H529 H 0.91133 0.79242 0.56477 0.0
H530 H 0.80765 0.69412 0.54881 0.0
H531 H 0.78382 0.68481 0.57817 0.0
H532 H 0.91942 0.73315 0.54864 0.0
H533 H 0.83109 0.7755 0.51122 0.0
H534 H 0.83641 0.78131 0.53409 0.0
H535 H 0.80621 0.73543 0.52508 0.0
C536 C 0.86958 0.7643 0.58418 0.0
C537 C 0.8341 0.73322 0.58839 0.0
C538 C 0.88312 0.7694 0.56752 0.0
C539 C 0.86136 0.74376 0.55473 0.0
C540 C 0.82475 0.71434 0.55855 0.0
H541 H 0.92503 0.69215 0.45798 0.0
H542 H 0.91343 0.69248 0.48861 0.0
C543 C 0.81108 0.70918 0.57529 0.0
C544 C 0.8786 0.74589 0.5379 0.0
H545 H 0.87301 0.76264 0.49576 0.0
C546 C 0.9094 0.73968 0.53705 0.0
C547 C 0.86547 0.75455 0.52291 0.0
C548 C 0.83315 0.76238 0.52326 0.0
C549 C 0.9273 0.74167 0.52149 0.0
C550 C 0.9139 0.74996 0.50648 0.0
C551 C 0.88324 0.75636 0.50736 0.0
C552 C 0.93067 0.7518 0.48955 0.0
C553 C 0.96058 0.73535 0.52121 0.0
C554 C 0.94618 0.78547 0.48023 0.0
C555 C 0.95289 0.78536 0.46281 0.0
C556 C 0.94393 0.75149 0.45443 0.0
C557 C 0.93256 0.71872 0.46415 0.0
C558 C 0.92568 0.71882 0.48163 0.0
H559 H 0.97214 0.73683 0.53419 0.0
H560 H 0.95149 0.70697 0.51583 0.0
H561 H 0.98343 0.75656 0.51295 0.0
H562 H 0.95037 0.81122 0.48616 0.0
H563 H 0.96176 0.81103 0.45561 0.0
H564 H 0.13769 0.87596 0.87493 0.0
H565 H 0.13458 0.87833 0.84393 0.0
H566 H 0.14454 0.77863 0.8399 0.0
H567 H 0.14722 0.77572 0.871 0.0
H568 H 0.19456 0.88846 0.82389 0.0
H569 H 0.06217 0.75884 0.80494 0.0
H570 H 0.07074 0.77718 0.82645 0.0
H571 H 0.09186 0.75046 0.819 0.0
C572 C 0.13831 0.85397 0.86748 0.0
C573 C 0.14305 0.82582 0.87541 0.0
C574 C 0.13658 0.85543 0.84977 0.0
C575 C 0.13941 0.82873 0.83965 0.0
C576 C 0.1418 0.79922 0.84751 0.0
H577 H 0.22237 0.85016 0.73678 0.0
H578 H 0.21691 0.85247 0.76778 0.0
C579 C 0.14334 0.7976 0.86529 0.0
C580 C 0.14396 0.83425 0.821 0.0
H581 H 0.10634 0.79236 0.78279 0.0
C582 C 0.17511 0.8676 0.81488 0.0
C583 C 0.11844 0.80708 0.80934 0.0
C584 C 0.08371 0.77152 0.81522 0.0
C585 C 0.18181 0.87425 0.79735 0.0
C586 C 0.15698 0.84654 0.7857 0.0
C587 C 0.12544 0.81348 0.79181 0.0
C588 C 0.16319 0.85085 0.76708 0.0
C589 C 0.21518 0.91092 0.79144 0.0
C590 C 0.1352 0.84998 0.75647 0.0
C591 C 0.13816 0.84853 0.73881 0.0
C592 C 0.16911 0.84771 0.73143 0.0
C593 C 0.19831 0.85097 0.74206 0.0
C594 C 0.19523 0.85229 0.75977 0.0
H595 H 0.22533 0.9329 0.80157 0.0
H596 H 0.23878 0.90609 0.78809 0.0
H597 H 0.2079 0.92176 0.77994 0.0
H598 H 0.11034 0.849 0.76189 0.0
H599 H 0.11529 0.84631 0.73098 0.0
H600 H 0.2125 0.85816 0.98152 0.0
H601 H 0.23779 0.91811 -0.00278 0.0
H602 H 0.30051 0.97878 0.95262 0.0
H603 H 0.27497 0.91945 0.93689 0.0
H604 H 0.31531 0.98613 0.00278 0.0
H605 H 0.21885 0.01034 0.96144 0.0
H606 H 0.21472 0.96457 0.96367 0.0
H607 H 0.25104 -0.00013 0.95041 0.0
C608 C 0.23262 0.88422 0.97531 0.0
C609 C 0.24151 0.88449 0.958 0.0
C610 C 0.24694 0.91833 0.98423 0.0
C611 C 0.27038 0.95266 0.9759 0.0
C612 C 0.28205 0.95251 0.95913 0.0
H613 H 0.33053 0.18403 0.00073 0.0
H614 H 0.32617 0.12841 0.98659 0.0
C615 C 0.26749 0.91867 0.95021 0.0
C616 C 0.27868 0.98867 0.98378 0.0
H617 H 0.25804 0.05939 0.9803 0.0
C618 C 0.30291 0.00226 -0.00209 0.0
C619 C 0.26236 0.00945 0.97728 0.0
C620 C 0.23504 0.99529 0.96245 0.0
C621 C 0.3114 0.03648 0.00572 0.0
C622 C 0.29473 0.05702 -0.00069 0.0
C623 C 0.27094 0.04362 0.98505 0.0
C624 C 0.29918 0.09099 0.00796 0.0
C625 C 0.3382 0.05048 0.0207 0.0
C626 C 0.28479 0.08793 0.02444 0.0
C627 C 0.28695 0.11931 0.03244 0.0
C628 C 0.30337 0.15434 0.02405 0.0
C629 C 0.31766 0.15737 0.00747 0.0
C630 C 0.31534 0.12577 -0.00057 0.0
H631 H 0.35645 0.03755 0.02097 0.0
H632 H 0.35649 0.08168 0.02037 0.0
H633 H 0.3216 0.04276 0.0327 0.0
H634 H 0.27145 0.0611 0.03106 0.0
H635 H 0.27596 0.11607 0.04527 0.0
H636 H 0.10934 0.22242 0.40225 0.0
H637 H 0.15437 0.20137 0.39668 0.0
H638 H 0.17039 0.24524 0.34553 0.0
H639 H 0.12466 0.26618 0.35091 0.0
H640 H 0.16592 0.17176 0.34945 0.0
H641 H 0.26884 0.28286 0.39342 0.0
H642 H 0.22251 0.25147 0.40184 0.0
H643 H 0.2281 0.2836 0.38504 0.0
C644 C 0.12167 0.22694 0.38967 0.0
C645 C 0.11349 0.24619 0.37703 0.0
C646 C 0.14766 0.21508 0.38658 0.0
C647 C 0.16612 0.22241 0.37084 0.0
C648 C 0.15647 0.23956 0.35782 0.0
H649 H 0.36433 0.25498 0.32768 0.0
H650 H 0.31755 0.25954 0.34525 0.0
C651 C 0.13032 0.25142 0.36089 0.0
C652 C 0.19719 0.21439 0.36831 0.0
H653 H 0.28883 0.24502 0.37951 0.0
C654 C 0.19264 0.18731 0.35617 0.0
C655 C 0.23194 0.23495 0.37713 0.0
C656 C 0.23848 0.26506 0.39002 0.0
C657 C 0.22247 0.18104 0.35216 0.0
C658 C 0.25757 0.20224 0.36069 0.0
C659 C 0.26169 0.22845 0.37324 0.0
C660 C 0.2917 0.20216 0.35456 0.0
C661 C 0.21694 0.15346 0.33812 0.0
C662 C 0.29436 0.16929 0.35503 0.0
C663 C 0.32153 0.16684 0.34512 0.0
C664 C 0.34596 0.19721 0.33467 0.0
C665 C 0.34594 0.23137 0.33577 0.0
C666 C 0.31909 0.2339 0.34573 0.0
H667 H 0.18942 0.14268 0.33146 0.0
H668 H 0.23999 0.16704 0.32858 0.0
H669 H 0.2179 0.12899 0.3436 0.0
H670 H 0.27363 0.14466 0.36194 0.0
H671 H 0.32066 0.14001 0.34423 0.0
H672 H 0.86103 0.2038 0.63655 0.0
H673 H 0.91437 0.1966 0.62786 0.0
H674 H 0.84797 0.07664 0.63674 0.0
H675 H 0.79405 0.08372 0.64507 0.0
H676 H 0.91451 0.11631 0.65718 0.0
H677 H 0.94677 0.15104 0.58888 0.0
H678 H 0.93607 0.18326 0.59966 0.0
H679 H 0.90017 0.13432 0.59772 0.0
C680 C 0.85718 0.17566 0.63569 0.0
C681 C 0.82348 0.1443 0.64126 0.0
C682 C 0.88767 0.17154 0.63081 0.0
C683 C 0.88503 0.13606 0.63161 0.0
C684 C 0.85036 0.10416 0.63586 0.0
H685 H 0.10868 0.17112 0.61143 0.0
H686 H 0.04014 0.13195 0.61451 0.0
C687 C 0.8195 0.10819 0.64042 0.0
C688 C 0.92016 0.13421 0.63096 0.0
H689 H 6e-05 0.16563 0.60725 0.0
C690 C 0.93292 0.12601 0.64612 0.0
C691 C 0.9439 0.14653 0.61652 0.0
C692 C 0.93088 0.15393 0.59972 0.0
C693 C 0.9701 0.13299 0.64761 0.0
C694 C 0.995 0.1488 0.63364 0.0
C695 C 0.9811 0.15381 0.61805 0.0
C696 C 0.0364 0.16482 0.63526 0.0
C697 C 0.98274 0.12476 0.66432 0.0
C698 C 0.05731 0.19506 0.64653 0.0
C699 C 0.09657 0.21741 0.64481 0.0
C700 C 0.11514 0.21004 0.63163 0.0
C701 C 0.09476 0.17765 0.6215 0.0
C702 C 0.05566 0.15518 0.6233 0.0
H703 H 0.95862 0.10124 0.67115 0.0
H704 H 0.00516 0.11738 0.66238 0.0
H705 H 0.99419 0.15017 0.6726 0.0
H706 H 0.04303 0.2035 0.65565 0.0
H707 H 0.1117 0.24252 0.65262 0.0
H708 H 0.77819 0.90461 0.04034 0.0
H709 H 0.79345 0.96435 0.02716 0.0
H710 H 0.74065 0.90633 0.98035 0.0
H711 H 0.72564 0.84597 0.9934 0.0
H712 H 0.81242 0.97534 0.97673 0.0
H713 H 0.71118 0.99277 0.01767 0.0
H714 H 0.74437 0.98425 0.02899 0.0
H715 H 0.70976 0.94819 0.01533 0.0
C716 C 0.77031 0.90443 0.02715 0.0
C717 C 0.75065 0.87051 0.0179 0.0
C718 C 0.77875 0.93862 0.01972 0.0
C719 C 0.76744 0.93947 0.00296 0.0
C720 C 0.74926 0.906 0.99339 0.0
H721 H 0.78355 0.11164 0.93543 0.0
H722 H 0.76685 0.05268 0.94997 0.0
C723 C 0.74081 0.87165 0.00083 0.0
C724 C 0.77418 0.97537 -0.00443 0.0
H725 H 0.75148 0.04458 3e-05 0.0
C726 C 0.79903 0.99044 0.98174 0.0
C727 C 0.75668 0.9949 0.00228 0.0
C728 C 0.72874 0.97913 0.0168 0.0
C729 C 0.80725 0.02498 0.97452 0.0
C730 C 0.7896 0.04441 0.98117 0.0
C731 C 0.76491 0.02948 0.99505 0.0
C732 C 0.79573 0.07972 0.9734 0.0
C733 C 0.83506 0.0407 0.95996 0.0
C734 C 0.81583 0.11414 0.98217 0.0
C735 C 0.82531 0.14801 0.97391 0.0
C736 C 0.81476 0.14756 0.95682 0.0
C737 C 0.79253 0.1128 0.94853 0.0
C738 C 0.78303 0.07914 0.95677 0.0
H739 H 0.85255 0.02699 0.95901 0.0
H740 H 0.81935 0.03569 0.94779 0.0
H741 H 0.85413 0.07163 0.96144 0.0
H742 H 0.82555 0.1149 -0.0049 0.0
H743 H 0.84247 0.17445 0.98057 0.0
H744 H 0.60425 0.72967 0.30212 0.0
H745 H 0.63727 0.70426 0.31843 0.0
H746 H 0.66997 0.7928 0.35575 0.0
H747 H 0.63654 0.81839 0.33938 0.0
H748 H 0.72115 0.76598 0.32342 0.0
H749 H 0.64337 0.68666 0.38148 0.0
H750 H 0.61887 0.68748 0.36242 0.0
H751 H 0.64257 0.72881 0.37553 0.0
C752 C 0.617 0.74266 0.31422 0.0
C753 C 0.61796 0.77585 0.31958 0.0
C754 C 0.63586 0.72818 0.32348 0.0
C755 C 0.65597 0.74674 0.3382 0.0
C756 C 0.6541 0.77792 0.34448 0.0
H757 H 0.82613 0.74026 0.39841 0.0
H758 H 0.77595 0.74806 0.38632 0.0
C759 C 0.63492 0.79238 0.33521 0.0
C760 C 0.68456 0.73818 0.34477 0.0
H761 H 0.70466 0.69591 0.37723 0.0
C762 C 0.71762 0.75052 0.33515 0.0
C763 C 0.67957 0.71818 0.36004 0.0
C764 C 0.64418 0.70427 0.37054 0.0
C765 C 0.74647 0.74406 0.34061 0.0
C766 C 0.74156 0.72383 0.35589 0.0
C767 C 0.70818 0.71114 0.36543 0.0
C768 C 0.77196 0.71825 0.36291 0.0
C769 C 0.78246 0.76018 0.33031 0.0
C770 C 0.78647 0.69878 0.35374 0.0
C771 C 0.81606 0.69494 0.36051 0.0
C772 C 0.8312 0.71021 0.3766 0.0
C773 C 0.81595 0.72898 0.3858 0.0
C774 C 0.78681 0.73307 0.37901 0.0
H775 H 0.78514 0.78234 0.32131 0.0
H776 H 0.80767 0.77255 0.33876 0.0
H777 H 0.7824 0.73728 0.3227 0.0
H778 H 0.77482 0.68646 0.34142 0.0
H779 H 0.82683 0.67984 0.35325 0.0
H780 H 0.10485 0.77677 0.64327 0.0
H781 H 0.03784 0.72922 0.64218 0.0
H782 H 0.06317 0.64523 0.66065 0.0
H783 H 0.13055 0.69308 0.66169 0.0
H784 H 0.98557 0.65154 0.63109 0.0
H785 H 0.01223 0.66967 0.70123 0.0
H786 H 0.04721 0.70078 0.6861 0.0
H787 H 0.03789 0.6533 0.68858 0.0
C788 C 0.09638 0.74762 0.64596 0.0
C789 C 0.12264 0.73838 0.65243 0.0
C790 C 0.05804 0.7205 0.64552 0.0
C791 C 0.04557 0.68397 0.65171 0.0
C792 C 0.07229 0.67339 0.65597 0.0
H793 H 0.80093 0.58495 0.662 0.0
H794 H 0.85677 0.57766 0.66425 0.0
C795 C 0.11079 0.70059 0.65631 0.0
C796 C 0.00556 0.66087 0.65696 0.0
H797 H 0.9501 0.64583 0.69201 0.0
C798 C 0.97746 0.64888 0.64441 0.0
C799 C 0.99534 0.65795 0.67441 0.0
C800 C 0.02459 0.67117 0.68843 0.0
C801 C 0.93981 0.63692 0.64876 0.0
C802 C 0.93014 0.63671 0.66614 0.0
C803 C 0.95763 0.64569 0.67876 0.0
C804 C 0.89482 0.63613 0.67086 0.0
C805 C 0.91146 0.62815 0.63463 0.0
C806 C 0.89724 0.67042 0.67543 0.0
C807 C 0.86549 0.67452 0.67425 0.0
C808 C 0.83094 0.64429 0.66865 0.0
C809 C 0.82723 0.60851 0.6666 0.0
C810 C 0.8592 0.60445 0.66763 0.0
H811 H 0.92434 0.63224 0.62177 0.0
H812 H 0.88832 0.59837 0.63568 0.0
H813 H 0.89874 0.64647 0.63577 0.0
H814 H 0.92446 0.69519 0.67803 0.0
H815 H 0.869 0.70243 0.67572 0.0
H816 H 0.98021 0.26865 0.95326 0.0
H817 H 0.03565 0.27707 0.96895 0.0
H818 H 0.01465 0.16854 0.95118 0.0
H819 H 0.95937 0.15985 0.93538 0.0
H820 H 0.03345 0.22916 0.995 0.0
H821 H 0.1286 0.23758 0.94268 0.0
H822 H 0.08894 0.24473 0.93927 0.0
H823 H 0.08157 0.19773 0.94103 0.0
C824 C 0.98768 0.24679 0.95244 0.0
C825 C 0.96522 0.21353 0.94303 0.0
C826 C 0.01937 0.25166 0.96145 0.0
C827 C 0.0295 0.22363 0.96109 0.0
C828 C 0.00777 0.19086 0.95138 0.0
H829 H 0.14491 0.15908 0.03188 0.0
H830 H 0.10076 0.16788 0.0143 0.0
C831 C 0.976 0.18586 0.94242 0.0
C832 C 0.0609 0.22713 0.9719 0.0
H833 H 0.1436 0.22556 0.97066 0.0
C834 C 0.05777 0.22885 0.98967 0.0
C835 C 0.09278 0.22709 0.96493 0.0
C836 C 0.09848 0.22705 0.94592 0.0
C837 C 0.08488 0.22892 0.00068 0.0
C838 C 0.11573 0.2269 0.99373 0.0
C839 C 0.11975 0.22683 0.97595 0.0
C840 C 0.14281 0.22259 0.00473 0.0
C841 C 0.08009 0.23071 0.01968 0.0
C842 C 0.18127 0.25031 0.00504 0.0
C843 C 0.20677 0.24545 0.01515 0.0
C844 C 0.19425 0.21248 0.02494 0.0
C845 C 0.15562 0.18485 0.02455 0.0
C846 C 0.13023 0.18987 0.01456 0.0
H847 H 0.06123 0.24214 0.02276 0.0
H848 H 0.06722 0.20181 0.02505 0.0
H849 H 0.10782 0.24851 0.02602 0.0
H850 H 0.19155 0.27569 -0.00255 0.0
H851 H 0.23631 0.26719 0.01506 0.0
H852 H 0.68608 0.95419 0.30869 0.0
H853 H 0.72984 0.01349 0.32309 0.0
H854 H 0.81389 0.9795 0.32516 0.0
H855 H 0.77072 0.92049 0.31069 0.0
H856 H 0.76308 0.02343 0.35524 0.0
H857 H 0.87256 0.08579 0.30494 0.0
H858 H 0.82565 0.04661 0.30091 0.0
H859 H 0.86097 0.03872 0.3106 0.0
C860 C 0.71399 0.95943 0.31207 0.0
C861 C 0.72486 0.93251 0.30844 0.0
C862 C 0.73894 0.99334 0.32033 0.0
C863 C 0.77533 0.00119 0.32497 0.0
C864 C 0.78624 0.97443 0.32138 0.0
H865 H 0.93366 0.13852 0.40062 0.0
H866 H 0.87978 0.09094 0.3845 0.0
C867 C 0.76137 0.94053 0.31317 0.0
C868 C 0.80154 0.03658 0.33419 0.0
H869 H 0.89095 0.11277 0.33289 0.0
C870 C 0.79086 0.04325 0.35027 0.0
C871 C 0.83753 0.06279 0.32758 0.0
C872 C 0.84977 0.05839 0.30998 0.0
C873 C 0.81595 0.0744 0.36027 0.0
C874 C 0.85284 0.09923 0.35411 0.0
C875 C 0.86279 0.0936 0.33768 0.0
C876 C 0.88252 0.12943 0.36493 0.0
C877 C 0.80283 0.0802 0.3774 0.0
C878 C 0.90208 0.16711 0.35937 0.0
C879 C 0.93319 0.19457 0.36858 0.0
C880 C 0.94563 0.18472 0.38342 0.0
C881 C 0.92496 0.14722 0.38928 0.0
C882 C 0.89389 0.11992 0.38011 0.0
H883 H 0.77156 0.06712 0.37779 0.0
H884 H 0.81111 0.06658 0.3874 0.0
H885 H 0.81586 0.11068 0.38052 0.0
H886 H 0.89393 0.17505 0.34763 0.0
H887 H 0.94851 0.22309 0.36363 0.0
H888 H 0.86321 0.81925 0.66785 0.0
H889 H 0.85742 0.87287 0.67688 0.0
H890 H 0.73709 0.80894 0.66814 0.0
H891 H 0.74268 0.75483 0.65863 0.0
H892 H 0.76974 0.8781 0.65327 0.0
H893 H 0.81884 0.89491 0.72008 0.0
H894 H 0.85205 0.8933 0.70567 0.0
H895 H 0.80552 0.85258 0.70789 0.0
C896 C 0.83532 0.81618 0.66803 0.0
C897 C 0.80338 0.78256 0.66246 0.0
C898 C 0.83205 0.84692 0.67337 0.0
C899 C 0.79675 0.8448 0.6735 0.0
C900 C 0.7646 0.8111 0.66828 0.0
H901 H 0.7487 0.02859 0.68971 0.0
H902 H 0.74201 0.96588 0.68831 0.0
C903 C 0.76784 0.78018 0.66288 0.0
C904 C 0.79436 0.87895 0.67767 0.0
H905 H 0.82189 0.94978 0.70707 0.0
C906 C 0.78047 0.89338 0.66516 0.0
C907 C 0.80847 0.89899 0.69318 0.0
C908 C 0.82169 0.88392 0.70753 0.0
C909 C 0.78193 0.92811 0.66743 0.0
C910 C 0.79742 0.94878 0.68265 0.0
C911 C 0.81027 0.93391 0.69537 0.0
C912 C 0.80178 0.9866 0.68518 0.0
C913 C 0.7683 0.94329 0.65329 0.0
C914 C 0.83777 0.01895 0.68438 0.0
C915 C 0.84177 0.05491 0.68515 0.0
C916 C 0.80982 0.05914 0.68684 0.0
C917 C 0.77394 0.0265 0.68839 0.0
C918 C 0.76999 0.99059 0.68754 0.0
H919 H 0.7621 0.92644 0.64138 0.0
H920 H 0.74205 0.94272 0.6574 0.0
H921 H 0.78978 0.97308 0.65047 0.0
H922 H 0.86264 0.01637 0.68257 0.0
H923 H 0.86982 0.07933 0.6839 0.0
H924 H 0.79223 0.74262 0.01363 0.0
H925 H 0.83977 0.73514 -0.00228 0.0
H926 H 0.92809 0.82242 0.02835 0.0
H927 H 0.88116 0.82979 0.04432 0.0
H928 H 0.8964 0.79199 0.97854 0.0
H929 H 0.95947 0.74264 0.0272 0.0
H930 H 0.91428 0.73977 0.03016 0.0
H931 H 0.95753 0.78331 0.03427 0.0
C932 C 0.82171 0.75953 0.01725 0.0
C933 C 0.83288 0.7869 0.03022 0.0
C934 C 0.84883 0.75531 0.00811 0.0
C935 C 0.88746 0.77796 0.01196 0.0
C936 C 0.89844 0.8041 0.02536 0.0
H937 H 0.08684 0.87474 0.95138 0.0
H938 H 0.02869 0.85744 0.96697 0.0
C939 C 0.87151 0.80848 0.03441 0.0
C940 C 0.91679 0.77749 0.00097 0.0
H941 H -0.0018 0.77356 0.00257 0.0
C942 C 0.91829 0.78729 0.98372 0.0
C943 C 0.94515 0.77098 0.00766 0.0
C944 C 0.94386 0.7582 0.0258 0.0
C945 C 0.9485 0.79282 0.97324 0.0
C946 C 0.97826 0.789 0.98028 0.0
C947 C 0.97567 0.77706 -0.00275 0.0
C948 C 0.01312 0.79899 0.97049 0.0
C949 C 0.94853 0.8032 0.95479 0.0
C950 C 0.02417 0.77209 0.96761 0.0
C951 C 0.05757 0.78192 0.95875 0.0
C952 C 0.08077 0.819 0.95271 0.0
C953 C 0.06965 0.84591 0.95574 0.0
C954 C 0.03624 0.83601 0.96457 0.0
H955 H 0.91946 0.79399 0.95019 0.0
H956 H 0.96558 0.83435 0.95344 0.0
H957 H 0.96113 0.79038 0.94651 0.0
H958 H 0.00688 0.74344 0.97219 0.0
H959 H 0.06526 0.76047 0.95672 0.0
H960 H 0.98691 0.86206 0.37872 0.0
H961 H 0.04254 0.90937 0.36371 0.0
H962 H 0.08024 0.82912 0.35642 0.0
H963 H 0.02384 0.78081 0.37142 0.0
H964 H 0.11799 0.93652 0.37323 0.0
H965 H 0.08742 0.87314 0.30812 0.0
H966 H 0.05139 0.85805 0.32436 0.0
H967 H 0.08635 0.8439 0.32547 0.0
C968 C 0.00679 0.85414 0.37391 0.0
C969 C 0.00078 0.81747 0.37633 0.0
C970 C 0.03867 0.88136 0.36531 0.0
C971 C 0.0654 0.87274 0.35884 0.0
C972 C 0.05965 0.83619 0.3611 0.0
H973 H 0.27486 0.0412 0.30735 0.0
H974 H 0.22665 0.98158 0.3201 0.0
C975 C 0.0275 0.8087 0.36974 0.0
C976 C 0.09963 0.90294 0.35031 0.0
H977 H 0.14186 0.93304 0.31138 0.0
C978 C 0.12346 0.93555 0.35975 0.0
C979 C 0.10678 0.90155 0.33273 0.0
C980 C 0.08161 0.86745 0.32197 0.0
C981 C 0.1534 0.9673 0.35198 0.0
C982 C 0.15948 0.96656 0.33428 0.0
C983 C 0.1369 0.93342 0.32495 0.0
C984 C 0.18733 0.00109 0.32519 0.0
C985 C 0.17783 0.00183 0.36267 0.0
C986 C 0.1806 0.03127 0.32345 0.0
C987 C 0.20782 0.06517 0.31613 0.0
C988 C 0.2425 0.06969 0.31045 0.0
C989 C 0.24855 0.03878 0.31162 0.0
C990 C 0.22108 0.0047 0.3189 0.0
H991 H 0.17511 0.99512 0.3765 0.0
H992 H 0.20803 0.01471 0.35896 0.0
H993 H 0.16906 0.02312 0.36053 0.0
H994 H 0.15449 0.02882 0.32808 0.0
H995 H 0.20192 0.08809 0.31526 0.0
H996 H 0.13583 0.91025 0.66163 0.0
H997 H 0.15335 0.96989 0.64768 0.0
H998 H 0.25666 0.97755 0.62969 0.0
H999 H 0.23991 0.91821 0.64425 0.0
H1000 H 0.27011 0.0444 0.64077 0.0
H1001 H 0.14622 0.98681 0.59812 0.0
H1002 H 0.13118 0.97634 0.61986 0.0
H1003 H 0.15775 0.95673 0.61037 0.0
C1004 C 0.16218 0.9244 0.65461 0.0
C1005 C 0.18627 0.9092 0.65391 0.0
C1006 C 0.17208 0.95848 0.64654 0.0
C1007 C 0.20585 0.97778 0.63722 0.0
C1008 C 0.23029 0.963 0.63667 0.0
H1009 H 0.21329 0.16014 0.5773 0.0
H1010 H 0.22188 0.10663 0.58403 0.0
C1011 C 0.22064 0.92906 0.64497 0.0
C1012 C 0.2157 0.01378 0.62848 0.0
H1013 H 0.17784 0.05392 0.60316 0.0
C1014 C 0.25024 0.04643 0.63231 0.0
C1015 C 0.19039 0.01641 0.61703 0.0
C1016 C 0.15455 0.98207 0.61096 0.0
C1017 C 0.25907 0.08193 0.62579 0.0
C1018 C 0.23209 0.08504 0.61564 0.0
C1019 C 0.19853 0.05197 0.61108 0.0
C1020 C 0.23625 0.12202 0.61057 0.0
C1021 C 0.29722 0.11555 0.62989 0.0
C1022 C 0.24333 0.1497 0.62295 0.0
C1023 C 0.23965 0.18098 0.61894 0.0
C1024 C 0.22762 0.18452 0.60262 0.0
C1025 C 0.2227 0.15811 0.58997 0.0
C1026 C 0.22739 0.12741 0.59385 0.0
H1027 H 0.3189 0.10698 0.63131 0.0
H1028 H 0.30671 0.13758 0.61987 0.0
H1029 H 0.29556 0.12795 0.64223 0.0
H1030 H 0.24908 0.1459 0.63605 0.0
H1031 H 0.24295 0.20052 0.62903 0.0
loop_
_geom_bond_atom_site_label_1
_geom_bond_atom_site_label_2
_geom_bond_distance
_geom_bond_site_symmetry_2
_ccdc_geom_bond_type
Mg0 O1 2.028 . S
Mg0 O7 1.986 . S
Mg0 O9 2.114 . S
Mg0 O10 2.251 . S
Mg0 O13 2.010 . S
O1 Mg0 2.028 . S
O1 C4 1.250 . S
O2 Mg3 2.028 . S
O2 C4 1.248 . S
Mg3 O2 2.028 . S
Mg3 O8 2.032 . S
Mg3 O10 2.079 . S
C4 O1 1.250 . S
C4 O2 1.248 . S
C5 O6 1.264 . S
C5 O13 1.249 . S
O6 C5 1.264 . S
O7 Mg0 1.986 . S
O7 C11 1.246 . S
O8 Mg3 2.032 . S
O8 C11 1.259 . S
O9 Mg0 2.114 . S
O9 C12 1.252 . S
O10 Mg0 2.251 . S
O10 Mg3 2.079 . S
O10 C12 1.273 . S
C11 O7 1.246 . S
C11 O8 1.259 . S
C12 O9 1.252 . S
C12 O10 1.273 . S
O13 Mg0 2.010 . S
O13 C5 1.249 . S
Mg14 O15 2.028 . S
Mg14 O21 1.986 . S
Mg14 O23 2.114 . S
Mg14 O24 2.251 . S
Mg14 O27 2.010 . S
O15 Mg14 2.028 . S
O15 C18 1.250 . S
O16 Mg17 2.028 . S
O16 C18 1.248 . S
Mg17 O16 2.028 . S
Mg17 O22 2.032 . S
Mg17 O24 2.079 . S
C18 O15 1.250 . S
C18 O16 1.248 . S
C19 O20 1.264 . S
C19 O27 1.249 . S
O20 C19 1.264 . S
O21 Mg14 1.986 . S
O21 C25 1.246 . S
O22 Mg17 2.032 . S
O22 C25 1.259 . S
O23 Mg14 2.114 . S
O23 C26 1.252 . S
O24 Mg14 2.251 . S
O24 Mg17 2.079 . S
O24 C26 1.273 . S
C25 O21 1.246 . S
C25 O22 1.259 . S
C26 O23 1.252 . S
C26 O24 1.273 . S
O27 Mg14 2.010 . S
O27 C19 1.249 . S
Mg28 O29 2.028 . S
Mg28 O35 1.986 . S
Mg28 O37 2.114 . S
Mg28 O38 2.251 . S
Mg28 O41 2.010 . S
O29 Mg28 2.028 . S
O29 C32 1.250 . S
O30 Mg31 2.028 . S
O30 C32 1.248 . S
Mg31 O30 2.028 . S
Mg31 O36 2.032 . S
Mg31 O38 2.079 . S
C32 O29 1.250 . S
C32 O30 1.248 . S
C33 O34 1.264 . S
C33 O41 1.249 . S
O34 C33 1.264 . S
O35 Mg28 1.986 . S
O35 C39 1.246 . S
O36 Mg31 2.032 . S
O36 C39 1.259 . S
O37 Mg28 2.114 . S
O37 C40 1.252 . S
O38 Mg28 2.251 . S
O38 Mg31 2.079 . S
O38 C40 1.273 . S
C39 O35 1.246 . S
C39 O36 1.259 . S
C40 O37 1.252 . S
C40 O38 1.273 . S
O41 Mg28 2.010 . S
O41 C33 1.249 . S
Mg42 O43 2.028 . S
Mg42 O49 1.986 . S
Mg42 O51 2.114 . S
Mg42 O52 2.251 . S
Mg42 O55 2.010 . S
O43 Mg42 2.028 . S
O43 C46 1.250 . S
O44 Mg45 2.028 . S
O44 C46 1.248 . S
Mg45 O44 2.028 . S
Mg45 O50 2.032 . S
Mg45 O52 2.079 . S
C46 O43 1.250 . S
C46 O44 1.248 . S
C47 O48 1.264 . S
C47 O55 1.249 . S
O48 C47 1.264 . S
O49 Mg42 1.986 . S
O49 C53 1.246 . S
O50 Mg45 2.032 . S
O50 C53 1.259 . S
O51 Mg42 2.114 . S
O51 C54 1.252 . S
O52 Mg42 2.251 . S
O52 Mg45 2.079 . S
O52 C54 1.273 . S
C53 O49 1.246 . S
C53 O50 1.259 . S
C54 O51 1.252 . S
C54 O52 1.273 . S
O55 Mg42 2.010 . S
O55 C47 1.249 . S
Mg56 O57 2.028 . S
Mg56 O63 1.986 . S
Mg56 O65 2.114 . S
Mg56 O66 2.251 . S
Mg56 O69 2.010 . S
O57 Mg56 2.028 . S
O57 C60 1.250 . S
O58 Mg59 2.028 . S
O58 C60 1.248 . S
Mg59 O58 2.028 . S
Mg59 O64 2.032 . S
Mg59 O66 2.079 . S
C60 O57 1.250 . S
C60 O58 1.248 . S
C61 O62 1.264 . S
C61 O69 1.249 . S
O62 C61 1.264 . S
O63 Mg56 1.986 . S
O63 C67 1.246 . S
O64 Mg59 2.032 . S
O64 C67 1.259 . S
O65 Mg56 2.114 . S
O65 C68 1.252 . S
O66 Mg56 2.251 . S
O66 Mg59 2.079 . S
O66 C68 1.273 . S
C67 O63 1.246 . S
C67 O64 1.259 . S
C68 O65 1.252 . S
C68 O66 1.273 . S
O69 Mg56 2.010 . S
O69 C61 1.249 . S
Mg70 O71 2.028 . S
Mg70 O77 1.986 . S
Mg70 O79 2.114 . S
Mg70 O80 2.251 . S
Mg70 O83 2.010 . S
O71 Mg70 2.028 . S
O71 C74 1.250 . S
O72 Mg73 2.028 . S
O72 C74 1.248 . S
Mg73 O72 2.028 . S
Mg73 O78 2.032 . S
Mg73 O80 2.079 . S
C74 O71 1.250 . S
C74 O72 1.248 . S
C75 O76 1.264 . S
C75 O83 1.249 . S
O76 C75 1.264 . S
O77 Mg70 1.986 . S
O77 C81 1.246 . S
O78 Mg73 2.032 . S
O78 C81 1.259 . S
O79 Mg70 2.114 . S
O79 C82 1.252 . S
O80 Mg70 2.251 . S
O80 Mg73 2.079 . S
O80 C82 1.273 . S
C81 O77 1.246 . S
C81 O78 1.259 . S
C82 O79 1.252 . S
C82 O80 1.273 . S
O83 Mg70 2.010 . S
O83 C75 1.249 . S
Mg84 O85 2.028 . S
Mg84 O91 1.986 . S
Mg84 O93 2.114 . S
Mg84 O94 2.251 . S
Mg84 O97 2.010 . S
O85 Mg84 2.028 . S
O85 C88 1.250 . S
O86 Mg87 2.028 . S
O86 C88 1.248 . S
Mg87 O86 2.028 . S
Mg87 O92 2.032 . S
Mg87 O94 2.079 . S
C88 O85 1.250 . S
C88 O86 1.248 . S
C89 O90 1.264 . S
C89 O97 1.249 . S
O90 C89 1.264 . S
O91 Mg84 1.986 . S
O91 C95 1.246 . S
O92 Mg87 2.032 . S
O92 C95 1.259 . S
O93 Mg84 2.114 . S
O93 C96 1.252 . S
O94 Mg84 2.251 . S
O94 Mg87 2.079 . S
O94 C96 1.273 . S
C95 O91 1.246 . S
C95 O92 1.259 . S
C96 O93 1.252 . S
C96 O94 1.273 . S
O97 Mg84 2.010 . S
O97 C89 1.249 . S
Mg98 O99 2.028 . S
Mg98 O105 1.986 . S
Mg98 O107 2.114 . S
Mg98 O108 2.251 . S
Mg98 O111 2.010 . S
O99 Mg98 2.028 . S
O99 C102 1.250 . S
O100 Mg101 2.028 . S
O100 C102 1.248 . S
Mg101 O100 2.028 . S
Mg101 O106 2.032 . S
Mg101 O108 2.079 . S
C102 O99 1.250 . S
C102 O100 1.248 . S
C103 O104 1.264 . S
C103 O111 1.249 . S
O104 C103 1.264 . S
O105 Mg98 1.986 . S
O105 C109 1.246 . S
O106 Mg101 2.032 . S
O106 C109 1.259 . S
O107 Mg98 2.114 . S
O107 C110 1.252 . S
O108 Mg98 2.251 . S
O108 Mg101 2.079 . S
O108 C110 1.273 . S
C109 O105 1.246 . S
C109 O106 1.259 . S
C110 O107 1.252 . S
C110 O108 1.273 . S
O111 Mg98 2.010 . S
O111 C103 1.249 . S
Mg112 O113 2.028 . S
Mg112 O119 1.986 . S
Mg112 O121 2.114 . S
Mg112 O122 2.251 . S
Mg112 O125 2.010 . S
O113 Mg112 2.028 . S
O113 C116 1.250 . S
O114 Mg115 2.028 . S
O114 C116 1.248 . S
Mg115 O114 2.028 . S
Mg115 O120 2.032 . S
Mg115 O122 2.079 . S
C116 O113 1.250 . S
C116 O114 1.248 . S
C117 O118 1.264 . S
C117 O125 1.249 . S
O118 C117 1.264 . S
O119 Mg112 1.986 . S
O119 C123 1.246 . S
O120 Mg115 2.032 . S
O120 C123 1.259 . S
O121 Mg112 2.114 . S
O121 C124 1.252 . S
O122 Mg112 2.251 . S
O122 Mg115 2.079 . S
O122 C124 1.273 . S
C123 O119 1.246 . S
C123 O120 1.259 . S
C124 O121 1.252 . S
C124 O122 1.273 . S
O125 Mg112 2.010 . S
O125 C117 1.249 . S
Mg126 O127 2.028 . S
Mg126 O133 1.986 . S
Mg126 O135 2.114 . S
Mg126 O136 2.251 . S
Mg126 O139 2.010 . S
O127 Mg126 2.028 . S
O127 C130 1.250 . S
O128 Mg129 2.028 . S
O128 C130 1.248 . S
Mg129 O128 2.028 . S
Mg129 O134 2.032 . S
Mg129 O136 2.079 . S
C130 O127 1.250 . S
C130 O128 1.248 . S
C131 O132 1.264 . S
C131 O139 1.249 . S
O132 C131 1.264 . S
O133 Mg126 1.986 . S
O133 C137 1.246 . S
O134 Mg129 2.032 . S
O134 C137 1.259 . S
O135 Mg126 2.114 . S
O135 C138 1.252 . S
O136 Mg126 2.251 . S
O136 Mg129 2.079 . S
O136 C138 1.273 . S
C137 O133 1.246 . S
C137 O134 1.259 . S
C138 O135 1.252 . S
C138 O136 1.273 . S
O139 Mg126 2.010 . S
O139 C131 1.249 . S
Mg140 O141 2.028 . S
Mg140 O147 1.986 . S
Mg140 O149 2.114 . S
Mg140 O150 2.251 . S
Mg140 O153 2.010 . S
O141 Mg140 2.028 . S
O141 C144 1.250 . S
O142 Mg143 2.028 . S
O142 C144 1.248 . S
Mg143 O142 2.028 . S
Mg143 O148 2.032 . S
Mg143 O150 2.079 . S
C144 O141 1.250 . S
C144 O142 1.248 . S
C145 O146 1.264 . S
C145 O153 1.249 . S
O146 C145 1.264 . S
O147 Mg140 1.986 . S
O147 C151 1.246 . S
O148 Mg143 2.032 . S
O148 C151 1.259 . S
O149 Mg140 2.114 . S
O149 C152 1.252 . S
O150 Mg140 2.251 . S
O150 Mg143 2.079 . S
O150 C152 1.273 . S
C151 O147 1.246 . S
C151 O148 1.259 . S
C152 O149 1.252 . S
C152 O150 1.273 . S
O153 Mg140 2.010 . S
O153 C145 1.249 . S
Mg154 O155 2.028 . S
Mg154 O161 1.986 . S
Mg154 O163 2.114 . S
Mg154 O164 2.251 . S
Mg154 O167 2.010 . S
O155 Mg154 2.028 . S
O155 C158 1.250 . S
O156 Mg157 2.028 . S
O156 C158 1.248 . S
Mg157 O156 2.028 . S
Mg157 O162 2.032 . S
Mg157 O164 2.079 . S
C158 O155 1.250 . S
C158 O156 1.248 . S
C159 O160 1.264 . S
C159 O167 1.249 . S
O160 C159 1.264 . S
O161 Mg154 1.986 . S
O161 C165 1.246 . S
O162 Mg157 2.032 . S
O162 C165 1.259 . S
O163 Mg154 2.114 . S
O163 C166 1.252 . S
O164 Mg154 2.251 . S
O164 Mg157 2.079 . S
O164 C166 1.273 . S
C165 O161 1.246 . S
C165 O162 1.259 . S
C166 O163 1.252 . S
C166 O164 1.273 . S
O167 Mg154 2.010 . S
O167 C159 1.249 . S
H168 C176 0.929 . S
H169 C178 0.930 . S
H170 C180 0.930 . S
H171 C183 0.929 . S
H172 C186 0.930 . S
H173 C188 0.960 . S
H174 C188 0.960 . S
H175 C188 0.960 . S
C176 H168 0.929 . S
C176 C177 1.377 . S
C176 C178 1.384 . S
C177 C176 1.377 . S
C177 C183 1.390 . S
C178 H169 0.930 . S
C178 C176 1.384 . S
C178 C179 1.372 . S
C179 C178 1.372 . S
C179 C180 1.400 . S
C179 C184 1.490 . S
C180 H170 0.930 . S
C180 C179 1.400 . S
C180 C183 1.386 . S
H181 C197 0.930 . S
H182 C198 0.931 . S
C183 H171 0.929 . S
C183 C177 1.390 . S
C183 C180 1.386 . S
C184 C179 1.490 . S
C184 C186 1.395 . S
C184 C187 1.403 . S
H185 C191 0.930 . S
C186 H172 0.930 . S
C186 C184 1.395 . S
C186 C189 1.403 . S
C187 C184 1.403 . S
C187 C188 1.524 . S
C187 C191 1.400 . S
C188 H173 0.960 . S
C188 H174 0.960 . S
C188 H175 0.960 . S
C188 C187 1.524 . S
C189 C186 1.403 . S
C189 C190 1.392 . S
C189 C193 1.495 . S
C190 C189 1.392 . S
C190 C191 1.385 . S
C190 C192 1.478 . S
C191 H185 0.930 . S
C191 C187 1.400 . S
C191 C190 1.385 . S
C192 C190 1.478 . S
C192 C194 1.381 . S
C192 C198 1.383 . S
C193 C189 1.495 . S
C193 H199 0.959 . S
C193 H200 0.961 . S
C193 H201 0.960 . S
C194 C192 1.381 . S
C194 C195 1.394 . S
C194 H202 0.930 . S
C195 C194 1.394 . S
C195 C196 1.383 . S
C195 H203 0.929 . S
C196 C195 1.383 . S
C196 C197 1.377 . S
C197 H181 0.930 . S
C197 C196 1.377 . S
C197 C198 1.379 . S
C198 H182 0.931 . S
C198 C192 1.383 . S
C198 C197 1.379 . S
H199 C193 0.959 . S
H200 C193 0.961 . S
H201 C193 0.960 . S
H202 C194 0.930 . S
H203 C195 0.929 . S
H204 C212 0.929 . S
H205 C214 0.930 . S
H206 C216 0.953 . S
H207 C219 0.929 . S
H208 C222 0.930 . S
H209 C224 0.960 . S
H210 C224 0.960 . S
H211 C224 0.960 . S
C212 H204 0.929 . S
C212 C213 1.377 . S
C212 C214 1.384 . S
C213 C212 1.377 . S
C213 C219 1.390 . S
C214 H205 0.930 . S
C214 C212 1.384 . S
C214 C215 1.372 . S
C215 C214 1.372 . S
C215 C216 1.400 . S
C215 C220 1.490 . S
C216 H206 0.953 . S
C216 C215 1.400 . S
C216 C219 1.386 . S
H217 C233 0.930 . S
H218 C234 0.931 . S
C219 H207 0.929 . S
C219 C213 1.390 . S
C219 C216 1.386 . S
C220 C215 1.490 . S
C220 C222 1.395 . S
C220 C223 1.403 1_455 S
H221 C227 0.930 . S
C222 H208 0.930 . S
C222 C220 1.395 . S
C222 C225 1.403 . S
C223 C220 1.403 1_655 S
C223 C224 1.524 . S
C223 C227 1.400 . S
C224 H209 0.960 . S
C224 H210 0.960 . S
C224 H211 0.960 . S
C224 C223 1.524 . S
C225 C222 1.403 . S
C225 C226 1.392 1_455 S
C225 C229 1.495 . S
C226 C225 1.392 1_655 S
C226 C227 1.385 . S
C226 C228 1.478 . S
C227 H221 0.930 . S
C227 C223 1.400 . S
C227 C226 1.385 . S
C228 C226 1.478 . S
C228 C230 1.381 . S
C228 C234 1.383 . S
C229 C225 1.495 . S
C229 H235 0.959 . S
C229 H236 0.961 . S
C229 H237 0.960 . S
C230 C228 1.381 . S
C230 C231 1.394 . S
C230 H238 0.904 1_655 S
C231 C230 1.394 . S
C231 C232 1.383 . S
C231 H239 0.929 . S
C232 C231 1.383 . S
C232 C233 1.377 . S
C233 H217 0.930 . S
C233 C232 1.377 . S
C233 C234 1.379 . S
C234 H218 0.931 . S
C234 C228 1.383 . S
C234 C233 1.379 . S
H235 C229 0.959 . S
H236 C229 0.961 . S
H237 C229 0.960 . S
H238 C230 0.904 1_455 S
H239 C231 0.929 . S
H240 C248 0.929 . S
H241 C250 0.930 1_545 S
H242 C252 0.930 . S
H243 C255 0.929 . S
H244 C258 0.930 . S
H245 C260 0.960 . S
H246 C260 0.960 . S
H247 C260 0.960 . S
C248 H240 0.929 . S
C248 C249 1.377 . S
C248 C250 1.384 . S
C249 C248 1.377 . S
C249 C255 1.390 . S
C250 H241 0.930 1_565 S
C250 C248 1.384 . S
C250 C251 1.372 . S
C251 C250 1.372 . S
C251 C252 1.400 . S
C251 C256 1.490 . S
C252 H242 0.930 . S
C252 C251 1.400 . S
C252 C255 1.386 . S
H253 C269 0.930 . S
H254 C270 0.931 . S
C255 H243 0.929 . S
C255 C249 1.390 . S
C255 C252 1.386 . S
C256 C251 1.490 . S
C256 C258 1.395 1_565 S
C256 C259 1.403 . S
H257 C263 0.930 . S
C258 H244 0.930 . S
C258 C256 1.395 1_545 S
C258 C261 1.403 . S
C259 C256 1.403 . S
C259 C260 1.524 . S
C259 C263 1.400 . S
C260 H245 0.960 . S
C260 H246 0.960 . S
C260 H247 0.960 . S
C260 C259 1.524 . S
C261 C258 1.403 . S
C261 C262 1.392 . S
C261 C265 1.495 . S
C262 C261 1.392 . S
C262 C263 1.385 1_545 S
C262 C264 1.478 . S
C263 H257 0.930 . S
C263 C259 1.400 . S
C263 C262 1.385 1_565 S
C264 C262 1.478 . S
C264 C266 1.381 . S
C264 C270 1.383 . S
C265 C261 1.495 . S
C265 H271 0.959 . S
C265 H272 0.961 . S
C265 H273 0.960 . S
C266 C264 1.381 . S
C266 C267 1.394 . S
C266 H274 0.930 . S
C267 C266 1.394 . S
C267 C268 1.383 . S
C267 H275 0.929 . S
C268 C267 1.383 . S
C268 C269 1.377 . S
C269 H253 0.930 . S
C269 C268 1.377 . S
C269 C270 1.379 . S
C270 H254 0.931 . S
C270 C264 1.383 . S
C270 C269 1.379 . S
H271 C265 0.959 . S
H272 C265 0.961 . S
H273 C265 0.960 . S
H274 C266 0.930 . S
H275 C267 0.929 . S
H276 C284 0.929 . S
H277 C286 0.930 . S
H278 C288 0.930 . S
H279 C291 0.929 . S
H280 C294 0.930 . S
H281 C296 0.960 . S
H282 C296 0.960 . S
H283 C296 0.960 . S
C284 H276 0.929 . S
C284 C285 1.377 . S
C284 C286 1.384 . S
C285 C284 1.377 . S
C285 C291 1.390 . S
C286 H277 0.930 . S
C286 C284 1.384 . S
C286 C287 1.372 . S
C287 C286 1.372 . S
C287 C288 1.400 . S
C287 C292 1.490 . S
C288 H278 0.930 . S
C288 C287 1.400 . S
C288 C291 1.386 . S
H289 C305 0.930 . S
H290 C306 0.931 . S
C291 H279 0.929 . S
C291 C285 1.390 . S
C291 C288 1.386 . S
C292 C287 1.490 . S
C292 C294 1.395 . S
C292 C295 1.403 . S
H293 C299 0.930 . S
C294 H280 0.930 . S
C294 C292 1.395 . S
C294 C297 1.403 . S
C295 C292 1.403 . S
C295 C296 1.524 . S
C295 C299 1.400 . S
C296 H281 0.960 . S
C296 H282 0.960 . S
C296 H283 0.960 . S
C296 C295 1.524 . S
C297 C294 1.403 . S
C297 C298 1.392 . S
C297 C301 1.495 . S
C298 C297 1.392 . S
C298 C299 1.385 . S
C298 C300 1.478 . S
C299 H293 0.930 . S
C299 C295 1.400 . S
C299 C298 1.385 . S
C300 C298 1.478 . S
C300 C302 1.381 . S
C300 C306 1.383 . S
C301 C297 1.495 . S
C301 H307 0.959 . S
C301 H308 0.961 . S
C301 H309 0.960 . S
C302 C300 1.381 . S
C302 C303 1.394 . S
C302 H310 0.930 . S
C303 C302 1.394 . S
C303 C304 1.383 . S
C303 H311 0.929 . S
C304 C303 1.383 . S
C304 C305 1.377 . S
C305 H289 0.930 . S
C305 C304 1.377 . S
C305 C306 1.379 . S
C306 H290 0.931 . S
C306 C300 1.383 . S
C306 C305 1.379 . S
H307 C301 0.959 . S
H308 C301 0.961 . S
H309 C301 0.960 . S
H310 C302 0.930 . S
H311 C303 0.929 . S
H312 C320 0.929 . S
H313 C322 0.930 . S
H314 C324 0.930 . S
H315 C327 0.929 . S
H316 C330 0.930 . S
H317 C332 0.960 . S
H318 C332 0.960 . S
H319 C332 0.960 . S
C320 H312 0.929 . S
C320 C321 1.377 . S
C320 C322 1.384 . S
C321 C320 1.377 . S
C321 C327 1.390 . S
C322 H313 0.930 . S
C322 C320 1.384 . S
C322 C323 1.372 . S
C323 C322 1.372 . S
C323 C324 1.400 . S
C323 C328 1.490 . S
C324 H314 0.930 . S
C324 C323 1.400 . S
C324 C327 1.386 . S
H325 C341 0.930 . S
H326 C342 0.931 . S
C327 H315 0.929 . S
C327 C321 1.390 . S
C327 C324 1.386 . S
C328 C323 1.490 . S
C328 C330 1.395 . S
C328 C331 1.403 1_655 S
H329 C335 0.930 . S
C330 H316 0.930 . S
C330 C328 1.395 . S
C330 C333 1.403 . S
C331 C328 1.403 1_455 S
C331 C332 1.524 . S
C331 C335 1.400 . S
C332 H317 0.960 . S
C332 H318 0.960 . S
C332 H319 0.960 . S
C332 C331 1.524 . S
C333 C330 1.403 . S
C333 C334 1.392 1_655 S
C333 C337 1.495 . S
C334 C333 1.392 1_455 S
C334 C335 1.385 . S
C334 C336 1.478 . S
C335 H329 0.930 . S
C335 C331 1.400 . S
C335 C334 1.385 . S
C336 C334 1.478 . S
C336 C338 1.381 . S
C336 C342 1.383 . S
C337 C333 1.495 . S
C337 H343 0.959 . S
C337 H344 0.961 . S
C337 H345 0.960 . S
C338 C336 1.381 . S
C338 C339 1.394 . S
C338 H346 0.930 . S
C339 C338 1.394 . S
C339 C340 1.383 . S
C339 H347 0.929 . S
C340 C339 1.383 . S
C340 C341 1.377 . S
C341 H325 0.930 . S
C341 C340 1.377 . S
C341 C342 1.379 . S
C342 H326 0.931 . S
C342 C336 1.383 . S
C342 C341 1.379 . S
H343 C337 0.959 . S
H344 C337 0.961 . S
H345 C337 0.960 . S
H346 C338 0.930 . S
H347 C339 0.929 . S
H348 C356 0.929 . S
H349 C358 0.930 . S
H350 C360 0.930 1_565 S
H351 C363 0.929 . S
H352 C366 0.930 . S
H353 C368 0.960 . S
H354 C368 0.960 . S
H355 C368 0.960 . S
C356 H348 0.929 . S
C356 C357 1.377 . S
C356 C358 1.384 . S
C357 C356 1.377 . S
C357 C363 1.390 . S
C358 H349 0.930 . S
C358 C356 1.384 . S
C358 C359 1.372 . S
C359 C358 1.372 . S
C359 C360 1.400 . S
C359 C364 1.490 . S
C360 H350 0.930 1_545 S
C360 C359 1.400 . S
C360 C363 1.386 . S
H361 C377 0.930 . S
H362 C378 0.931 . S
C363 H351 0.929 . S
C363 C357 1.390 . S
C363 C360 1.386 . S
C364 C359 1.490 . S
C364 C366 1.395 . S
C364 C367 1.403 . S
H365 C371 0.930 . S
C366 H352 0.930 . S
C366 C364 1.395 . S
C366 C369 1.403 1_545 S
C367 C364 1.403 . S
C367 C368 1.524 . S
C367 C371 1.400 1_545 S
C368 H353 0.960 . S
C368 H354 0.960 . S
C368 H355 0.960 . S
C368 C367 1.524 . S
C369 C366 1.403 1_565 S
C369 C370 1.392 . S
C369 C373 1.495 . S
C370 C369 1.392 . S
C370 C371 1.385 . S
C370 C372 1.478 . S
C371 H365 0.930 . S
C371 C367 1.400 1_565 S
C371 C370 1.385 . S
C372 C370 1.478 . S
C372 C374 1.381 . S
C372 C378 1.383 . S
C373 C369 1.495 . S
C373 H379 0.959 1_565 S
C373 H380 0.961 . S
C373 H381 0.960 1_565 S
C374 C372 1.381 . S
C374 C375 1.394 . S
C374 H382 0.930 1_565 S
C375 C374 1.394 . S
C375 C376 1.383 . S
C375 H383 0.929 . S
C376 C375 1.383 . S
C376 C377 1.377 . S
C377 H361 0.930 . S
C377 C376 1.377 . S
C377 C378 1.379 . S
C378 H362 0.931 . S
C378 C372 1.383 . S
C378 C377 1.379 . S
H379 C373 0.959 1_545 S
H380 C373 0.961 . S
H381 C373 0.960 1_545 S
H382 C374 0.930 1_545 S
H383 C375 0.929 . S
H384 C392 0.929 . S
H385 C394 0.930 . S
H386 C396 0.930 . S
H387 C399 0.929 . S
H388 C402 0.930 . S
H389 C404 0.960 . S
H390 C404 0.960 . S
H391 C404 0.960 . S
C392 H384 0.929 . S
C392 C393 1.377 . S
C392 C394 1.384 . S
C393 C392 1.377 . S
C393 C399 1.390 . S
C394 H385 0.930 . S
C394 C392 1.384 . S
C394 C395 1.372 . S
C395 C394 1.372 . S
C395 C396 1.400 . S
C395 C400 1.490 . S
C396 H386 0.930 . S
C396 C395 1.400 . S
C396 C399 1.386 . S
H397 C413 0.930 . S
H398 C414 0.931 . S
C399 H387 0.929 . S
C399 C393 1.390 . S
C399 C396 1.386 . S
C400 C395 1.490 . S
C400 C402 1.395 . S
C400 C403 1.403 . S
H401 C407 0.930 . S
C402 H388 0.930 . S
C402 C400 1.395 . S
C402 C405 1.403 . S
C403 C400 1.403 . S
C403 C404 1.524 . S
C403 C407 1.400 . S
C404 H389 0.960 . S
C404 H390 0.960 . S
C404 H391 0.960 . S
C404 C403 1.524 . S
C405 C402 1.403 . S
C405 C406 1.392 . S
C405 C409 1.495 . S
C406 C405 1.392 . S
C406 C407 1.385 . S
C406 C408 1.478 . S
C407 H401 0.930 . S
C407 C403 1.400 . S
C407 C406 1.385 . S
C408 C406 1.478 . S
C408 C410 1.381 . S
C408 C414 1.383 . S
C409 C405 1.495 . S
C409 H415 0.959 . S
C409 H416 0.961 . S
C409 H417 0.960 . S
C410 C408 1.381 . S
C410 C411 1.394 . S
C410 H418 0.930 . S
C411 C410 1.394 . S
C411 C412 1.383 . S
C411 H419 0.929 . S
C412 C411 1.383 . S
C412 C413 1.377 . S
C413 H397 0.930 . S
C413 C412 1.377 . S
C413 C414 1.379 . S
C414 H398 0.931 . S
C414 C408 1.383 . S
C414 C413 1.379 . S
H415 C409 0.959 . S
H416 C409 0.961 . S
H417 C409 0.960 . S
H418 C410 0.930 . S
H419 C411 0.929 . S
H420 C428 0.929 . S
H421 C430 0.930 . S
H422 C432 0.930 . S
H423 C435 0.929 . S
H424 C438 0.930 . S
H425 C440 0.960 . S
H426 C440 0.960 . S
H427 C440 0.960 . S
C428 H420 0.929 . S
C428 C429 1.377 . S
C428 C430 1.384 . S
C429 C428 1.377 . S
C429 C435 1.390 . S
C430 H421 0.930 . S
C430 C428 1.384 . S
C430 C431 1.372 . S
C431 C430 1.372 . S
C431 C432 1.400 . S
C431 C436 1.490 . S
C432 H422 0.930 . S
C432 C431 1.400 . S
C432 C435 1.386 . S
H433 C449 0.930 . S
H434 C450 0.931 . S
C435 H423 0.929 . S
C435 C429 1.390 . S
C435 C432 1.386 . S
C436 C431 1.490 . S
C436 C438 1.395 . S
C436 C439 1.403 . S
H437 C443 0.930 . S
C438 H424 0.930 . S
C438 C436 1.395 . S
C438 C441 1.403 . S
C439 C436 1.403 . S
C439 C440 1.524 . S
C439 C443 1.400 . S
C440 H425 0.960 . S
C440 H426 0.960 . S
C440 H427 0.960 . S
C440 C439 1.524 . S
C441 C438 1.403 . S
C441 C442 1.392 . S
C441 C445 1.495 . S
C442 C441 1.392 . S
C442 C443 1.385 . S
C442 C444 1.478 . S
C443 H437 0.930 . S
C443 C439 1.400 . S
C443 C442 1.385 . S
C444 C442 1.478 . S
C444 C446 1.381 . S
C444 C450 1.383 . S
C445 C441 1.495 . S
C445 H451 0.959 . S
C445 H452 0.961 . S
C445 H453 0.960 . S
C446 C444 1.381 . S
C446 C447 1.394 . S
C446 H454 0.930 . S
C447 C446 1.394 . S
C447 C448 1.383 . S
C447 H455 0.929 . S
C448 C447 1.383 . S
C448 C449 1.377 . S
C449 H433 0.930 . S
C449 C448 1.377 . S
C449 C450 1.379 . S
C450 H434 0.931 . S
C450 C444 1.383 . S
C450 C449 1.379 . S
H451 C445 0.959 . S
H452 C445 0.961 . S
H453 C445 0.960 . S
H454 C446 0.930 . S
H455 C447 0.929 . S
H456 C464 0.929 . S
H457 C466 0.930 . S
H458 C468 0.930 . S
H459 C471 0.929 . S
H460 C474 0.930 . S
H461 C476 0.960 . S
H462 C476 0.960 . S
H463 C476 0.960 . S
C464 H456 0.929 . S
C464 C465 1.377 . S
C464 C466 1.384 . S
C465 C464 1.377 . S
C465 C471 1.390 . S
C466 H457 0.930 . S
C466 C464 1.384 . S
C466 C467 1.372 . S
C467 C466 1.372 . S
C467 C468 1.400 . S
C467 C472 1.490 . S
C468 H458 0.930 . S
C468 C467 1.400 . S
C468 C471 1.386 . S
H469 C485 0.930 . S
H470 C486 0.931 . S
C471 H459 0.929 . S
C471 C465 1.390 . S
C471 C468 1.386 . S
C472 C467 1.490 . S
C472 C474 1.395 . S
C472 C475 1.403 . S
H473 C479 0.930 . S
C474 H460 0.930 . S
C474 C472 1.395 . S
C474 C477 1.403 . S
C475 C472 1.403 . S
C475 C476 1.524 . S
C475 C479 1.400 . S
C476 H461 0.960 . S
C476 H462 0.960 . S
C476 H463 0.960 . S
C476 C475 1.524 . S
C477 C474 1.403 . S
C477 C478 1.392 . S
C477 C481 1.495 . S
C478 C477 1.392 . S
C478 C479 1.385 . S
C478 C480 1.478 . S
C479 H473 0.930 . S
C479 C475 1.400 . S
C479 C478 1.385 . S
C480 C478 1.478 . S
C480 C482 1.381 . S
C480 C486 1.383 . S
C481 C477 1.495 . S
C481 H487 0.959 . S
C481 H488 0.961 . S
C481 H489 0.960 . S
C482 C480 1.381 . S
C482 C483 1.394 . S
C482 H490 0.930 . S
C483 C482 1.394 . S
C483 C484 1.383 . S
C483 H491 0.929 . S
C484 C483 1.383 . S
C484 C485 1.377 . S
C485 H469 0.930 . S
C485 C484 1.377 . S
C485 C486 1.379 . S
C486 H470 0.931 . S
C486 C480 1.383 . S
C486 C485 1.379 . S
H487 C481 0.959 . S
H488 C481 0.961 . S
H489 C481 0.960 . S
H490 C482 0.930 . S
H491 C483 0.929 . S
H492 C500 0.929 . S
H493 C502 0.930 . S
H494 C504 0.930 . S
H495 C507 0.929 . S
H496 C510 0.930 . S
H497 C512 0.960 . S
H498 C512 0.960 . S
H499 C512 0.960 . S
C500 H492 0.929 . S
C500 C501 1.377 . S
C500 C502 1.384 . S
C501 C500 1.377 . S
C501 C507 1.390 . S
C502 H493 0.930 . S
C502 C500 1.384 . S
C502 C503 1.372 . S
C503 C502 1.372 . S
C503 C504 1.400 . S
C503 C508 1.490 . S
C504 H494 0.930 . S
C504 C503 1.400 . S
C504 C507 1.386 . S
H505 C521 0.930 . S
H506 C522 0.931 . S
C507 H495 0.929 . S
C507 C501 1.390 . S
C507 C504 1.386 . S
C508 C503 1.490 . S
C508 C510 1.395 . S
C508 C511 1.403 . S
H509 C515 0.930 . S
C510 H496 0.930 . S
C510 C508 1.395 . S
C510 C513 1.403 . S
C511 C508 1.403 . S
C511 C512 1.524 . S
C511 C515 1.400 . S
C512 H497 0.960 . S
C512 H498 0.960 . S
C512 H499 0.960 . S
C512 C511 1.524 . S
C513 C510 1.403 . S
C513 C514 1.392 . S
C513 C517 1.495 . S
C514 C513 1.392 . S
C514 C515 1.385 . S
C514 C516 1.478 . S
C515 H509 0.930 . S
C515 C511 1.400 . S
C515 C514 1.385 . S
C516 C514 1.478 . S
C516 C518 1.381 . S
C516 C522 1.383 . S
C517 C513 1.495 . S
C517 H523 0.959 . S
C517 H524 0.961 . S
C517 H525 0.960 . S
C518 C516 1.381 . S
C518 C519 1.394 . S
C518 H526 0.930 . S
C519 C518 1.394 . S
C519 C520 1.383 . S
C519 H527 0.929 . S
C520 C519 1.383 . S
C520 C521 1.377 . S
C521 H505 0.930 . S
C521 C520 1.377 . S
C521 C522 1.379 . S
C522 H506 0.931 . S
C522 C516 1.383 . S
C522 C521 1.379 . S
H523 C517 0.959 . S
H524 C517 0.961 . S
H525 C517 0.960 . S
H526 C518 0.930 . S
H527 C519 0.929 . S
H528 C536 0.929 . S
H529 C538 0.930 . S
H530 C540 0.930 . S
H531 C543 0.929 . S
H532 C546 0.930 . S
H533 C548 0.960 . S
H534 C548 0.960 . S
H535 C548 0.960 . S
C536 H528 0.929 . S
C536 C537 1.377 . S
C536 C538 1.384 . S
C537 C536 1.377 . S
C537 C543 1.390 . S
C538 H529 0.930 . S
C538 C536 1.384 . S
C538 C539 1.372 . S
C539 C538 1.372 . S
C539 C540 1.400 . S
C539 C544 1.490 . S
C540 H530 0.930 . S
C540 C539 1.400 . S
C540 C543 1.386 . S
H541 C557 0.930 . S
H542 C558 0.931 . S
C543 H531 0.929 . S
C543 C537 1.390 . S
C543 C540 1.386 . S
C544 C539 1.490 . S
C544 C546 1.395 . S
C544 C547 1.403 . S
H545 C551 0.930 . S
C546 H532 0.930 . S
C546 C544 1.395 . S
C546 C549 1.403 . S
C547 C544 1.403 . S
C547 C548 1.524 . S
C547 C551 1.400 . S
C548 H533 0.960 . S
C548 H534 0.960 . S
C548 H535 0.960 . S
C548 C547 1.524 . S
C549 C546 1.403 . S
C549 C550 1.392 . S
C549 C553 1.495 . S
C550 C549 1.392 . S
C550 C551 1.385 . S
C550 C552 1.478 . S
C551 H545 0.930 . S
C551 C547 1.400 . S
C551 C550 1.385 . S
C552 C550 1.478 . S
C552 C554 1.381 . S
C552 C558 1.383 . S
C553 C549 1.495 . S
C553 H559 0.959 . S
C553 H560 0.961 . S
C553 H561 0.960 . S
C554 C552 1.381 . S
C554 C555 1.394 . S
C554 H562 0.930 . S
C555 C554 1.394 . S
C555 C556 1.383 . S
C555 H563 0.929 . S
C556 C555 1.383 . S
C556 C557 1.377 . S
C557 H541 0.930 . S
C557 C556 1.377 . S
C557 C558 1.379 . S
C558 H542 0.931 . S
C558 C552 1.383 . S
C558 C557 1.379 . S
H559 C553 0.959 . S
H560 C553 0.961 . S
H561 C553 0.960 . S
H562 C554 0.930 . S
H563 C555 0.929 . S
H564 C572 0.929 . S
H565 C574 0.930 . S
H566 C576 0.930 . S
H567 C579 0.929 . S
H568 C582 0.930 . S
H569 C584 0.960 . S
H570 C584 0.960 . S
H571 C584 0.960 . S
C572 H564 0.929 . S
C572 C573 1.377 . S
C572 C574 1.384 . S
C573 C572 1.377 . S
C573 C579 1.390 . S
C574 H565 0.930 . S
C574 C572 1.384 . S
C574 C575 1.372 . S
C575 C574 1.372 . S
C575 C576 1.400 . S
C575 C580 1.490 . S
C576 H566 0.930 . S
C576 C575 1.400 . S
C576 C579 1.386 . S
H577 C593 0.930 . S
H578 C594 0.931 . S
C579 H567 0.929 . S
C579 C573 1.390 . S
C579 C576 1.386 . S
C580 C575 1.490 . S
C580 C582 1.395 . S
C580 C583 1.403 . S
H581 C587 0.930 . S
C582 H568 0.930 . S
C582 C580 1.395 . S
C582 C585 1.403 . S
C583 C580 1.403 . S
C583 C584 1.524 . S
C583 C587 1.400 . S
C584 H569 0.960 . S
C584 H570 0.960 . S
C584 H571 0.960 . S
C584 C583 1.524 . S
C585 C582 1.403 . S
C585 C586 1.392 . S
C585 C589 1.495 . S
C586 C585 1.392 . S
C586 C587 1.385 . S
C586 C588 1.478 . S
C587 H581 0.930 . S
C587 C583 1.400 . S
C587 C586 1.385 . S
C588 C586 1.478 . S
C588 C590 1.381 . S
C588 C594 1.383 . S
C589 C585 1.495 . S
C589 H595 0.959 . S
C589 H596 0.961 . S
C589 H597 0.960 . S
C590 C588 1.381 . S
C590 C591 1.394 . S
C590 H598 0.930 . S
C591 C590 1.394 . S
C591 C592 1.383 . S
C591 H599 0.929 . S
C592 C591 1.383 . S
C592 C593 1.377 . S
C593 H577 0.930 . S
C593 C592 1.377 . S
C593 C594 1.379 . S
C594 H578 0.931 . S
C594 C588 1.383 . S
C594 C593 1.379 . S
H595 C589 0.959 . S
H596 C589 0.961 . S
H597 C589 0.960 . S
H598 C590 0.930 . S
H599 C591 0.929 . S
H600 C608 0.929 1_554 S
H601 C610 0.930 . S
H602 C612 0.930 . S
H603 C615 0.929 . S
H604 C618 0.930 . S
H605 C620 0.960 . S
H606 C620 0.960 . S
H607 C620 0.960 . S
C608 H600 0.929 1_556 S
C608 C609 1.377 . S
C608 C610 1.384 1_556 S
C609 C608 1.377 . S
C609 C615 1.390 . S
C610 H601 0.930 . S
C610 C608 1.384 1_554 S
C610 C611 1.372 1_554 S
C611 C610 1.372 1_556 S
C611 C612 1.400 . S
C611 C616 1.490 . S
C612 H602 0.930 . S
C612 C611 1.400 . S
C612 C615 1.386 . S
H613 C629 0.930 1_556 S
H614 C630 0.931 . S
C615 H603 0.929 . S
C615 C609 1.390 . S
C615 C612 1.386 . S
C616 C611 1.490 . S
C616 C618 1.395 1_556 S
C616 C619 1.403 . S
H617 C623 0.930 . S
C618 H604 0.930 . S
C618 C616 1.395 1_554 S
C618 C621 1.403 1_565 S
C619 C616 1.403 . S
C619 C620 1.524 . S
C619 C623 1.400 1_565 S
C620 H605 0.960 . S
C620 H606 0.960 . S
C620 H607 0.960 . S
C620 C619 1.524 . S
C621 C618 1.403 1_545 S
C621 C622 1.392 . S
C621 C625 1.495 . S
C622 C621 1.392 . S
C622 C623 1.385 1_554 S
C622 C624 1.478 . S
C623 H617 0.930 . S
C623 C619 1.400 1_545 S
C623 C622 1.385 1_556 S
C624 C622 1.478 . S
C624 C626 1.381 . S
C624 C630 1.383 1_554 S
C625 C621 1.495 . S
C625 H631 0.959 . S
C625 H632 0.961 . S
C625 H633 0.960 . S
C626 C624 1.381 . S
C626 C627 1.394 . S
C626 H634 0.930 . S
C627 C626 1.394 . S
C627 C628 1.383 . S
C627 H635 0.929 . S
C628 C627 1.383 . S
C628 C629 1.377 . S
C629 H613 0.930 1_554 S
C629 C628 1.377 . S
C629 C630 1.379 1_554 S
C630 H614 0.931 . S
C630 C624 1.383 1_556 S
C630 C629 1.379 1_556 S
H631 C625 0.959 . S
H632 C625 0.961 . S
H633 C625 0.960 . S
H634 C626 0.930 . S
H635 C627 0.929 . S
H636 C644 0.929 . S
H637 C646 0.930 . S
H638 C648 0.930 . S
H639 C651 0.929 . S
H640 C654 0.930 . S
H641 C656 0.960 . S
H642 C656 0.960 . S
H643 C656 0.960 . S
C644 H636 0.929 . S
C644 C645 1.377 . S
C644 C646 1.384 . S
C645 C644 1.377 . S
C645 C651 1.390 . S
C646 H637 0.930 . S
C646 C644 1.384 . S
C646 C647 1.372 . S
C647 C646 1.372 . S
C647 C648 1.400 . S
C647 C652 1.490 . S
C648 H638 0.930 . S
C648 C647 1.400 . S
C648 C651 1.386 . S
H649 C665 0.930 . S
H650 C666 0.931 . S
C651 H639 0.929 . S
C651 C645 1.390 . S
C651 C648 1.386 . S
C652 C647 1.490 . S
C652 C654 1.395 . S
C652 C655 1.403 . S
H653 C659 0.930 . S
C654 H640 0.930 . S
C654 C652 1.395 . S
C654 C657 1.403 . S
C655 C652 1.403 . S
C655 C656 1.524 . S
C655 C659 1.400 . S
C656 H641 0.960 . S
C656 H642 0.960 . S
C656 H643 0.960 . S
C656 C655 1.524 . S
C657 C654 1.403 . S
C657 C658 1.392 . S
C657 C661 1.495 . S
C658 C657 1.392 . S
C658 C659 1.385 . S
C658 C660 1.478 . S
C659 H653 0.930 . S
C659 C655 1.400 . S
C659 C658 1.385 . S
C660 C658 1.478 . S
C660 C662 1.381 . S
C660 C666 1.383 . S
C661 C657 1.495 . S
C661 H667 0.959 . S
C661 H668 0.961 . S
C661 H669 0.960 . S
C662 C660 1.381 . S
C662 C663 1.394 . S
C662 H670 0.930 . S
C663 C662 1.394 . S
C663 C664 1.383 . S
C663 H671 0.929 . S
C664 C663 1.383 . S
C664 C665 1.377 . S
C665 H649 0.930 . S
C665 C664 1.377 . S
C665 C666 1.379 . S
C666 H650 0.931 . S
C666 C660 1.383 . S
C666 C665 1.379 . S
H667 C661 0.959 . S
H668 C661 0.961 . S
H669 C661 0.960 . S
H670 C662 0.930 . S
H671 C663 0.929 . S
H672 C680 0.929 . S
H673 C682 0.930 . S
H674 C684 0.930 . S
H675 C687 0.929 . S
H676 C690 0.930 . S
H677 C692 0.960 . S
H678 C692 0.960 . S
H679 C692 0.960 . S
C680 H672 0.929 . S
C680 C681 1.377 . S
C680 C682 1.384 . S
C681 C680 1.377 . S
C681 C687 1.390 . S
C682 H673 0.930 . S
C682 C680 1.384 . S
C682 C683 1.372 . S
C683 C682 1.372 . S
C683 C684 1.400 . S
C683 C688 1.490 . S
C684 H674 0.930 . S
C684 C683 1.400 . S
C684 C687 1.386 . S
H685 C701 0.930 . S
H686 C702 0.931 . S
C687 H675 0.929 . S
C687 C681 1.390 . S
C687 C684 1.386 . S
C688 C683 1.490 . S
C688 C690 1.395 . S
C688 C691 1.403 . S
H689 C695 0.930 . S
C690 H676 0.930 . S
C690 C688 1.395 . S
C690 C693 1.403 1_655 S
C691 C688 1.403 . S
C691 C692 1.524 . S
C691 C695 1.400 1_655 S
C692 H677 0.960 . S
C692 H678 0.960 . S
C692 H679 0.960 . S
C692 C691 1.524 . S
C693 C690 1.403 1_455 S
C693 C694 1.392 . S
C693 C697 1.495 . S
C694 C693 1.392 . S
C694 C695 1.385 . S
C694 C696 1.478 . S
C695 H689 0.930 . S
C695 C691 1.400 1_455 S
C695 C694 1.385 . S
C696 C694 1.478 . S
C696 C698 1.381 . S
C696 C702 1.383 . S
C697 C693 1.495 . S
C697 H703 0.959 . S
C697 H704 0.961 . S
C697 H705 0.960 . S
C698 C696 1.381 . S
C698 C699 1.394 . S
C698 H706 0.930 . S
C699 C698 1.394 . S
C699 C700 1.383 . S
C699 H707 0.929 . S
C700 C699 1.383 . S
C700 C701 1.377 . S
C701 H685 0.930 . S
C701 C700 1.377 . S
C701 C702 1.379 . S
C702 H686 0.931 . S
C702 C696 1.383 . S
C702 C701 1.379 . S
H703 C697 0.959 . S
H704 C697 0.961 . S
H705 C697 0.960 . S
H706 C698 0.930 . S
H707 C699 0.929 . S
H708 C716 0.929 . S
H709 C718 0.930 . S
H710 C720 0.930 . S
H711 C723 0.929 1_556 S
H712 C726 0.930 . S
H713 C728 0.975 . S
H714 C728 0.921 1_554 S
H715 C728 0.987 . S
C716 H708 0.929 . S
C716 C717 1.377 . S
C716 C718 1.384 . S
C717 C716 1.377 . S
C717 C723 1.390 . S
C718 H709 0.930 . S
C718 C716 1.384 . S
C718 C719 1.372 . S
C719 C718 1.372 . S
C719 C720 1.400 1_554 S
C719 C724 1.490 . S
C720 H710 0.930 . S
C720 C719 1.400 1_556 S
C720 C723 1.386 1_556 S
H721 C737 0.930 . S
H722 C738 0.931 . S
C723 H711 0.929 1_554 S
C723 C717 1.390 . S
C723 C720 1.386 1_554 S
C724 C719 1.490 . S
C724 C726 1.395 . S
C724 C727 1.403 . S
H725 C731 0.930 . S
C726 H712 0.930 . S
C726 C724 1.395 . S
C726 C729 1.403 1_565 S
C727 C724 1.403 . S
C727 C728 1.523 1_554 S
C727 C731 1.400 1_564 S
C728 H713 0.975 . S
C728 H714 0.921 1_556 S
C728 H715 0.987 . S
C728 C727 1.523 1_556 S
C729 C726 1.403 1_545 S
C729 C730 1.392 1_554 S
C729 C733 1.495 . S
C730 C729 1.392 1_556 S
C730 C731 1.385 . S
C730 C732 1.478 . S
C731 H725 0.930 . S
C731 C727 1.400 1_546 S
C731 C730 1.385 . S
C732 C730 1.478 . S
C732 C734 1.381 1_556 S
C732 C738 1.383 . S
C733 C729 1.495 . S
C733 H739 0.959 . S
C733 H740 0.961 1_554 S
C733 H741 0.960 . S
C734 C732 1.381 1_554 S
C734 C735 1.394 1_554 S
C734 H742 0.930 . S
C735 C734 1.394 1_556 S
C735 C736 1.383 . S
C735 H743 0.929 1_556 S
C736 C735 1.383 . S
C736 C737 1.377 . S
C737 H721 0.930 . S
C737 C736 1.377 . S
C737 C738 1.379 . S
C738 H722 0.931 . S
C738 C732 1.383 . S
C738 C737 1.379 . S
H739 C733 0.959 . S
H740 C733 0.961 1_556 S
H741 C733 0.960 . S
H742 C734 0.930 . S
H743 C735 0.929 1_554 S
H744 C752 0.929 . S
H745 C754 0.930 . S
H746 C756 0.930 . S
H747 C759 0.929 . S
H748 C762 0.930 . S
H749 C764 0.960 . S
H750 C764 0.960 . S
H751 C764 0.960 . S
C752 H744 0.929 . S
C752 C753 1.377 . S
C752 C754 1.384 . S
C753 C752 1.377 . S
C753 C759 1.390 . S
C754 H745 0.930 . S
C754 C752 1.384 . S
C754 C755 1.372 . S
C755 C754 1.372 . S
C755 C756 1.400 . S
C755 C760 1.490 . S
C756 H746 0.930 . S
C756 C755 1.400 . S
C756 C759 1.386 . S
H757 C773 0.930 . S
H758 C774 0.931 . S
C759 H747 0.929 . S
C759 C753 1.390 . S
C759 C756 1.386 . S
C760 C755 1.490 . S
C760 C762 1.395 . S
C760 C763 1.403 . S
H761 C767 0.930 . S
C762 H748 0.930 . S
C762 C760 1.395 . S
C762 C765 1.403 . S
C763 C760 1.403 . S
C763 C764 1.524 . S
C763 C767 1.400 . S
C764 H749 0.960 . S
C764 H750 0.960 . S
C764 H751 0.960 . S
C764 C763 1.524 . S
C765 C762 1.403 . S
C765 C766 1.392 . S
C765 C769 1.495 . S
C766 C765 1.392 . S
C766 C767 1.385 . S
C766 C768 1.478 . S
C767 H761 0.930 . S
C767 C763 1.400 . S
C767 C766 1.385 . S
C768 C766 1.478 . S
C768 C770 1.381 . S
C768 C774 1.383 . S
C769 C765 1.495 . S
C769 H775 0.959 . S
C769 H776 0.961 . S
C769 H777 0.960 . S
C770 C768 1.381 . S
C770 C771 1.394 . S
C770 H778 0.930 . S
C771 C770 1.394 . S
C771 C772 1.383 . S
C771 H779 0.929 . S
C772 C771 1.383 . S
C772 C773 1.377 . S
C773 H757 0.930 . S
C773 C772 1.377 . S
C773 C774 1.379 . S
C774 H758 0.931 . S
C774 C768 1.383 . S
C774 C773 1.379 . S
H775 C769 0.959 . S
H776 C769 0.961 . S
H777 C769 0.960 . S
H778 C770 0.930 . S
H779 C771 0.929 . S
H780 C788 0.929 . S
H781 C790 0.930 . S
H782 C792 0.930 . S
H783 C795 0.929 . S
H784 C798 0.930 . S
H785 C800 0.960 1_655 S
H786 C800 0.960 . S
H787 C800 0.960 . S
C788 H780 0.929 . S
C788 C789 1.377 . S
C788 C790 1.384 . S
C789 C788 1.377 . S
C789 C795 1.390 . S
C790 H781 0.930 . S
C790 C788 1.384 . S
C790 C791 1.372 . S
C791 C790 1.372 . S
C791 C792 1.400 . S
C791 C796 1.490 . S
C792 H782 0.930 . S
C792 C791 1.400 . S
C792 C795 1.386 . S
H793 C809 0.930 . S
H794 C810 0.931 . S
C795 H783 0.929 . S
C795 C789 1.390 . S
C795 C792 1.386 . S
C796 C791 1.490 . S
C796 C798 1.395 . S
C796 C799 1.403 . S
H797 C803 0.930 . S
C798 H784 0.930 . S
C798 C796 1.395 . S
C798 C801 1.403 1_455 S
C799 C796 1.403 . S
C799 C800 1.524 . S
C799 C803 1.400 1_455 S
C800 H785 0.960 1_455 S
C800 H786 0.960 . S
C800 H787 0.960 . S
C800 C799 1.524 . S
C801 C798 1.403 1_655 S
C801 C802 1.392 . S
C801 C805 1.495 . S
C802 C801 1.392 . S
C802 C803 1.385 . S
C802 C804 1.478 . S
C803 H797 0.930 . S
C803 C799 1.400 1_655 S
C803 C802 1.385 . S
C804 C802 1.478 . S
C804 C806 1.381 . S
C804 C810 1.383 . S
C805 C801 1.495 . S
C805 H811 0.959 1_655 S
C805 H812 0.961 . S
C805 H813 0.960 . S
C806 C804 1.381 . S
C806 C807 1.394 . S
C806 H814 0.930 . S
C807 C806 1.394 . S
C807 C808 1.383 . S
C807 H815 0.929 . S
C808 C807 1.383 . S
C808 C809 1.377 . S
C809 H793 0.930 . S
C809 C808 1.377 . S
C809 C810 1.379 . S
C810 H794 0.931 . S
C810 C804 1.383 . S
C810 C809 1.379 . S
H811 C805 0.959 1_455 S
H812 C805 0.961 . S
H813 C805 0.960 . S
H814 C806 0.930 . S
H815 C807 0.929 . S
H816 C824 0.929 . S
H817 C826 0.925 . S
H818 C828 0.930 . S
H819 C831 0.929 1_655 S
H820 C834 0.930 . S
H821 C836 0.960 . S
H822 C836 0.960 . S
H823 C836 0.960 . S
C824 H816 0.929 . S
C824 C825 1.377 1_455 S
C824 C826 1.384 . S
C825 C824 1.377 1_655 S
C825 C831 1.390 1_655 S
C826 H817 0.925 . S
C826 C824 1.384 . S
C826 C827 1.372 . S
C827 C826 1.372 . S
C827 C828 1.400 . S
C827 C832 1.490 . S
C828 H818 0.930 . S
C828 C827 1.400 . S
C828 C831 1.386 . S
H829 C845 0.930 . S
H830 C846 0.931 . S
C831 H819 0.929 1_455 S
C831 C825 1.390 1_455 S
C831 C828 1.386 . S
C832 C827 1.490 . S
C832 C834 1.395 1_556 S
C832 C835 1.403 . S
H833 C839 0.930 . S
C834 H820 0.930 . S
C834 C832 1.395 1_554 S
C834 C837 1.403 . S
C835 C832 1.403 . S
C835 C836 1.524 . S
C835 C839 1.400 . S
C836 H821 0.960 . S
C836 H822 0.960 . S
C836 H823 0.960 . S
C836 C835 1.524 . S
C837 C834 1.403 . S
C837 C838 1.392 . S
C837 C841 1.495 . S
C838 C837 1.392 . S
C838 C839 1.385 1_554 S
C838 C840 1.478 . S
C839 H833 0.930 . S
C839 C835 1.400 . S
C839 C838 1.385 1_556 S
C840 C838 1.478 . S
C840 C842 1.381 . S
C840 C846 1.383 . S
C841 C837 1.495 . S
C841 H847 0.959 . S
C841 H848 0.961 . S
C841 H849 0.960 . S
C842 C840 1.381 . S
C842 C843 1.394 . S
C842 H850 0.930 . S
C843 C842 1.394 . S
C843 C844 1.383 . S
C843 H851 0.929 . S
C844 C843 1.383 . S
C844 C845 1.377 . S
C845 H829 0.930 . S
C845 C844 1.377 . S
C845 C846 1.379 . S
C846 H830 0.931 . S
C846 C840 1.383 . S
C846 C845 1.379 . S
H847 C841 0.959 . S
H848 C841 0.961 . S
H849 C841 0.960 . S
H850 C842 0.930 . S
H851 C843 0.929 . S
H852 C860 0.929 . S
H853 C862 0.930 . S
H854 C864 0.930 . S
H855 C867 0.929 . S
H856 C870 0.930 . S
H857 C872 0.960 . S
H858 C872 0.960 . S
H859 C872 0.960 . S
C860 H852 0.929 . S
C860 C861 1.377 1_545 S
C860 C862 1.384 . S
C861 C860 1.377 1_565 S
C861 C867 1.390 . S
C862 H853 0.930 . S
C862 C860 1.384 . S
C862 C863 1.372 . S
C863 C862 1.372 . S
C863 C864 1.400 . S
C863 C868 1.490 . S
C864 H854 0.930 . S
C864 C863 1.400 . S
C864 C867 1.386 1_545 S
H865 C881 0.930 . S
H866 C882 0.931 . S
C867 H855 0.929 . S
C867 C861 1.390 . S
C867 C864 1.386 1_565 S
C868 C863 1.490 . S
C868 C870 1.395 . S
C868 C871 1.403 . S
H869 C875 0.930 . S
C870 H856 0.930 . S
C870 C868 1.395 . S
C870 C873 1.403 . S
C871 C868 1.403 . S
C871 C872 1.524 . S
C871 C875 1.400 . S
C872 H857 0.960 . S
C872 H858 0.960 . S
C872 H859 0.960 . S
C872 C871 1.524 . S
C873 C870 1.403 . S
C873 C874 1.392 . S
C873 C877 1.495 . S
C874 C873 1.392 . S
C874 C875 1.385 . S
C874 C876 1.478 . S
C875 H869 0.930 . S
C875 C871 1.400 . S
C875 C874 1.385 . S
C876 C874 1.478 . S
C876 C878 1.381 . S
C876 C882 1.383 . S
C877 C873 1.495 . S
C877 H883 0.959 . S
C877 H884 0.961 . S
C877 H885 0.960 . S
C878 C876 1.381 . S
C878 C879 1.394 . S
C878 H886 0.930 . S
C879 C878 1.394 . S
C879 C880 1.383 1_655 S
C879 H887 0.929 . S
C880 C879 1.383 1_455 S
C880 C881 1.377 . S
C881 H865 0.930 . S
C881 C880 1.377 . S
C881 C882 1.379 1_455 S
C882 H866 0.931 . S
C882 C876 1.383 . S
C882 C881 1.379 1_655 S
H883 C877 0.959 . S
H884 C877 0.961 . S
H885 C877 0.960 . S
H886 C878 0.930 . S
H887 C879 0.929 . S
H888 C896 0.929 . S
H889 C898 0.930 . S
H890 C900 0.930 . S
H891 C903 0.929 . S
H892 C906 0.930 . S
H893 C908 0.960 . S
H894 C908 0.960 . S
H895 C908 0.960 . S
C896 H888 0.929 . S
C896 C897 1.377 . S
C896 C898 1.384 . S
C897 C896 1.377 . S
C897 C903 1.390 . S
C898 H889 0.930 . S
C898 C896 1.384 . S
C898 C899 1.372 . S
C899 C898 1.372 . S
C899 C900 1.400 . S
C899 C904 1.490 . S
C900 H890 0.930 . S
C900 C899 1.400 . S
C900 C903 1.386 . S
H901 C917 0.930 . S
H902 C918 0.931 . S
C903 H891 0.929 . S
C903 C897 1.390 . S
C903 C900 1.386 . S
C904 C899 1.490 . S
C904 C906 1.395 . S
C904 C907 1.403 . S
H905 C911 0.930 . S
C906 H892 0.930 . S
C906 C904 1.395 . S
C906 C909 1.403 . S
C907 C904 1.403 . S
C907 C908 1.524 . S
C907 C911 1.400 . S
C908 H893 0.960 . S
C908 H894 0.960 . S
C908 H895 0.960 . S
C908 C907 1.524 . S
C909 C906 1.403 . S
C909 C910 1.392 . S
C909 C913 1.495 . S
C910 C909 1.392 . S
C910 C911 1.385 . S
C910 C912 1.478 . S
C911 H905 0.930 . S
C911 C907 1.400 . S
C911 C910 1.385 . S
C912 C910 1.478 . S
C912 C914 1.381 . S
C912 C918 1.383 . S
C913 C909 1.495 . S
C913 H919 0.959 . S
C913 H920 0.961 . S
C913 H921 0.960 . S
C914 C912 1.381 . S
C914 C915 1.394 1_565 S
C914 H922 0.930 . S
C915 C914 1.394 1_545 S
C915 C916 1.383 . S
C915 H923 0.929 . S
C916 C915 1.383 . S
C916 C917 1.377 1_545 S
C917 H901 0.930 . S
C917 C916 1.377 1_565 S
C917 C918 1.379 . S
C918 H902 0.931 . S
C918 C912 1.383 . S
C918 C917 1.379 . S
H919 C913 0.959 . S
H920 C913 0.961 . S
H921 C913 0.960 . S
H922 C914 0.930 . S
H923 C915 0.929 . S
H924 C932 0.929 . S
H925 C934 0.930 . S
H926 C936 0.930 . S
H927 C939 0.929 . S
H928 C942 0.930 . S
H929 C944 0.960 . S
H930 C944 0.960 . S
H931 C944 0.960 . S
C932 H924 0.929 . S
C932 C933 1.377 . S
C932 C934 1.384 . S
C933 C932 1.377 . S
C933 C939 1.390 . S
C934 H925 0.930 . S
C934 C932 1.384 . S
C934 C935 1.372 . S
C935 C934 1.372 . S
C935 C936 1.400 . S
C935 C940 1.490 . S
C936 H926 0.930 . S
C936 C935 1.400 . S
C936 C939 1.386 . S
H937 C953 0.930 . S
H938 C954 0.931 . S
C939 H927 0.929 . S
C939 C933 1.390 . S
C939 C936 1.386 . S
C940 C935 1.490 . S
C940 C942 1.395 1_554 S
C940 C943 1.403 . S
H941 C947 0.930 . S
C942 H928 0.930 . S
C942 C940 1.395 1_556 S
C942 C945 1.403 . S
C943 C940 1.403 . S
C943 C944 1.524 . S
C943 C947 1.400 . S
C944 H929 0.960 . S
C944 H930 0.960 . S
C944 H931 0.960 . S
C944 C943 1.524 . S
C945 C942 1.403 . S
C945 C946 1.392 . S
C945 C949 1.495 . S
C946 C945 1.392 . S
C946 C947 1.385 1_556 S
C946 C948 1.478 . S
C947 H941 0.930 . S
C947 C943 1.400 . S
C947 C946 1.385 1_554 S
C948 C946 1.478 . S
C948 C950 1.381 . S
C948 C954 1.383 . S
C949 C945 1.495 . S
C949 H955 0.959 . S
C949 H956 0.961 . S
C949 H957 0.960 . S
C950 C948 1.381 . S
C950 C951 1.394 . S
C950 H958 0.930 . S
C951 C950 1.394 . S
C951 C952 1.383 1_655 S
C951 H959 0.929 . S
C952 C951 1.383 1_455 S
C952 C953 1.377 . S
C953 H937 0.930 . S
C953 C952 1.377 . S
C953 C954 1.379 1_455 S
C954 H938 0.931 . S
C954 C948 1.383 . S
C954 C953 1.379 1_655 S
H955 C949 0.959 . S
H956 C949 0.961 . S
H957 C949 0.960 . S
H958 C950 0.930 . S
H959 C951 0.929 . S
H960 C968 0.929 . S
H961 C970 0.930 . S
H962 C972 0.930 . S
H963 C975 0.929 . S
H964 C978 0.930 . S
H965 C980 0.960 . S
H966 C980 0.960 . S
H967 C980 0.960 . S
C968 H960 0.929 . S
C968 C969 1.377 . S
C968 C970 1.384 1_655 S
C969 C968 1.377 . S
C969 C975 1.390 1_655 S
C970 H961 0.930 . S
C970 C968 1.384 1_455 S
C970 C971 1.372 . S
C971 C970 1.372 . S
C971 C972 1.400 . S
C971 C976 1.490 . S
C972 H962 0.930 . S
C972 C971 1.400 . S
C972 C975 1.386 . S
H973 C989 0.930 . S
H974 C990 0.931 . S
C975 H963 0.929 . S
C975 C969 1.390 1_455 S
C975 C972 1.386 . S
C976 C971 1.490 . S
C976 C978 1.395 . S
C976 C979 1.403 . S
H977 C983 0.930 . S
C978 H964 0.930 . S
C978 C976 1.395 . S
C978 C981 1.403 . S
C979 C976 1.403 . S
C979 C980 1.524 . S
C979 C983 1.400 . S
C980 H965 0.960 . S
C980 H966 0.960 . S
C980 H967 0.960 . S
C980 C979 1.524 . S
C981 C978 1.403 . S
C981 C982 1.392 . S
C981 C985 1.495 . S
C982 C981 1.392 . S
C982 C983 1.385 . S
C982 C984 1.478 . S
C983 H977 0.930 . S
C983 C979 1.400 . S
C983 C982 1.385 . S
C984 C982 1.478 . S
C984 C986 1.381 . S
C984 C990 1.383 . S
C985 C981 1.495 . S
C985 H991 0.959 . S
C985 H992 0.961 . S
C985 H993 0.960 . S
C986 C984 1.381 . S
C986 C987 1.394 1_565 S
C986 H994 0.930 . S
C987 C986 1.394 1_545 S
C987 C988 1.383 . S
C987 H995 0.929 . S
C988 C987 1.383 . S
C988 C989 1.377 1_545 S
C989 H973 0.930 . S
C989 C988 1.377 1_565 S
C989 C990 1.379 . S
C990 H974 0.931 . S
C990 C984 1.383 . S
C990 C989 1.379 . S
H991 C985 0.959 . S
H992 C985 0.961 . S
H993 C985 0.960 . S
H994 C986 0.930 . S
H995 C987 0.929 . S
H996 C1004 0.929 . S
H997 C1006 0.930 . S
H998 C1008 0.930 . S
H999 C1011 0.929 . S
H1000 C1014 0.930 . S
H1001 C1016 0.960 . S
H1002 C1016 0.960 . S
H1003 C1016 0.960 . S
C1004 H996 0.929 . S
C1004 C1005 1.377 1_545 S
C1004 C1006 1.384 . S
C1005 C1004 1.377 1_565 S
C1005 C1011 1.390 . S
C1006 H997 0.930 . S
C1006 C1004 1.384 . S
C1006 C1007 1.372 . S
C1007 C1006 1.372 . S
C1007 C1008 1.400 . S
C1007 C1012 1.490 . S
C1008 H998 0.930 . S
C1008 C1007 1.400 . S
C1008 C1011 1.386 1_545 S
H1009 C1025 0.930 . S
H1010 C1026 0.931 . S
C1011 H999 0.929 . S
C1011 C1005 1.390 . S
C1011 C1008 1.386 1_565 S
C1012 C1007 1.490 . S
C1012 C1014 1.395 . S
C1012 C1015 1.403 . S
H1013 C1019 0.930 . S
C1014 H1000 0.930 . S
C1014 C1012 1.395 . S
C1014 C1017 1.403 . S
C1015 C1012 1.403 . S
C1015 C1016 1.524 . S
C1015 C1019 1.400 . S
C1016 H1001 0.960 . S
C1016 H1002 0.960 . S
C1016 H1003 0.960 . S
C1016 C1015 1.524 . S
C1017 C1014 1.403 . S
C1017 C1018 1.392 . S
C1017 C1021 1.495 . S
C1018 C1017 1.392 . S
C1018 C1019 1.385 . S
C1018 C1020 1.478 . S
C1019 H1013 0.930 . S
C1019 C1015 1.400 . S
C1019 C1018 1.385 . S
C1020 C1018 1.478 . S
C1020 C1022 1.381 . S
C1020 C1026 1.383 . S
C1021 C1017 1.495 . S
C1021 H1027 0.959 . S
C1021 H1028 0.961 . S
C1021 H1029 0.960 . S
C1022 C1020 1.381 . S
C1022 C1023 1.394 . S
C1022 H1030 0.930 . S
C1023 C1022 1.394 . S
C1023 C1024 1.383 . S
C1023 H1031 0.929 . S
C1024 C1023 1.383 . S
C1024 C1025 1.377 . S
C1025 H1009 0.930 . S
C1025 C1024 1.377 . S
C1025 C1026 1.379 . S
C1026 H1010 0.931 . S
C1026 C1020 1.383 . S
C1026 C1025 1.379 . S
H1027 C1021 0.959 . S
H1028 C1021 0.961 . S
H1029 C1021 0.960 . S
H1030 C1022 0.930 . S
H1031 C1023 0.929 . S
C177 C47 1.198 . S
C196 C5 1.214 . S
C213 C19 1.188 . S
C232 C61 1.238 . S
C249 C75 1.198 . S
C268 C33 1.142 . S
C285 C89 1.187 . S
C304 C131 1.238 . S
C321 C145 1.199 . S
C340 C103 1.213 . S
C357 C117 1.182 . S
C376 C159 1.212 . S
C393 C123 1.527 . S
C412 C11 1.542 . S
C429 C25 1.531 . S
C448 C137 1.512 . S
C465 C39 1.526 . S
C484 C151 1.542 . S
C501 C53 1.532 . S
C520 C165 1.523 . S
C537 C95 1.527 . S
C556 C67 1.542 . S
C573 C109 1.533 . S
C592 C81 1.515 . S
C609 C110 0.686 . S
C628 C12 0.711 . S
C645 C26 0.681 . S
C664 C124 0.644 . S
C681 C40 0.691 . S
C700 C138 0.689 . S
C717 C54 0.684 . S
C736 C152 0.655 . S
C753 C166 0.685 . S
C772 C68 0.661 . S
C789 C82 0.676 . S
C808 C96 0.655 . S
C825 C144 1.244 . S
C844 C4 1.227 . S
C861 C158 1.243 . S
C880 C18 1.244 . S
C897 C88 1.233 . S
C916 C32 1.260 . S
C933 C46 1.244 . S
C952 C102 1.231 . S
C969 C60 1.235 . S
C988 C116 1.221 . S
C1005 C74 1.234 . S
C1024 C130 1.261 . S
