# Generated by pormake.
# Topology rkf, (6)-cn, num edge types: 1
# Building blocks:
#     Node 0, Type 0, BuildingBlock: BETDAH_clean_sbu_0, # of connection points: 6
#     Node 1, Type 0, BuildingBlock: BETDAH_clean_sbu_0, # of connection points: 6
#     Node 2, Type 0, BuildingBlock: BETDAH_clean_sbu_0, # of connection points: 6
#     Node 3, Type 0, BuildingBlock: BETDAH_clean_sbu_0, # of connection points: 6
#     Node 4, Type 0, BuildingBlock: BETDAH_clean_sbu_0, # of connection points: 6
#     Node 5, Type 0, BuildingBlock: BETDAH_clean_sbu_0, # of connection points: 6
#     Edge 6, Type (0, 0), BuildingBlock: FUNLAD_clean_linker_0, # of connection points: 2
#     Edge 7, Type (0, 0), BuildingBlock: FUNLAD_clean_linker_0, # of connection points: 2
#     Edge 8, Type (0, 0), BuildingBlock: FUNLAD_clean_linker_0, # of connection points: 2
#     Edge 9, Type (0, 0), BuildingBlock: FUNLAD_clean_linker_0, # of connection points: 2
#     Edge 10, Type (0, 0), BuildingBlock: FUNLAD_clean_linker_0, # of connection points: 2
#     Edge 11, Type (0, 0), BuildingBlock: FUNLAD_clean_linker_0, # of connection points: 2
#     Edge 12, Type (0, 0), BuildingBlock: FUNLAD_clean_linker_0, # of connection points: 2
#     Edge 13, Type (0, 0), BuildingBlock: FUNLAD_clean_linker_0, # of connection points: 2
#     Edge 14, Type (0, 0), BuildingBlock: FUNLAD_clean_linker_0, # of connection points: 2
#     Edge 15, Type (0, 0), BuildingBlock: FUNLAD_clean_linker_0, # of connection points: 2
#     Edge 16, Type (0, 0), BuildingBlock: FUNLAD_clean_linker_0, # of connection points: 2
#     Edge 17, Type (0, 0), BuildingBlock: FUNLAD_clean_linker_0, # of connection points: 2
#     Edge 18, Type (0, 0), BuildingBlock: FUNLAD_clean_linker_0, # of connection points: 2
#     Edge 19, Type (0, 0), BuildingBlock: FUNLAD_clean_linker_0, # of connection points: 2
#     Edge 20, Type (0, 0), BuildingBlock: FUNLAD_clean_linker_0, # of connection points: 2
#     Edge 21, Type (0, 0), BuildingBlock: FUNLAD_clean_linker_0, # of connection points: 2
#     Edge 22, Type (0, 0), BuildingBlock: FUNLAD_clean_linker_0, # of connection points: 2
#     Edge 23, Type (0, 0), BuildingBlock: FUNLAD_clean_linker_0, # of connection points: 2
# Relax obj value: 0.599
# Max RMSD: 0.247
# Mean RMSD: 0.247
data_MOF--net-rkf--node1-BETDAH_clean_sbu_0--edge1-FUNLAD_clean_linker_0
_symmetry_space_group_name_H-M    P1
_symmetry_Int_Tables_number       1
_symmetry_cell_setting            triclinic
loop_
_symmetry_equiv_pos_as_xyz
'x, y, z'
_cell_length_a     29.309838
_cell_length_b     28.988953
_cell_length_c     51.428688
_cell_angle_alpha  90.370286
_cell_angle_beta   89.774572
_cell_angle_gamma 119.88821
loop_
_atom_site_label
_atom_site_type_symbol
_atom_site_fract_x
_atom_site_fract_y
_atom_site_fract_z
_atom_type_partial_charge
Ho0 Ho 0.27889 0.01074 0.13024 0.0
Ho1 Ho 0.28729 0.11767 1.11614 0.0
C2 C 0.28695 0.09354 0.17658 0.0
C3 C 0.30243 0.94009 0.1451 0.0
C4 C 0.30848 0.91993 0.17013 0.0
C5 C 0.30493 0.87 0.17136 0.0
C6 C 0.30189 0.84657 0.19545 0.0
C7 C 0.30196 0.87273 0.21861 0.0
C8 C 0.30922 0.92446 0.21716 0.0
C9 C 0.31241 0.94778 0.19313 0.0
C10 C 0.18612 0.00834 0.12599 0.0
C11 C 0.25237 0.02504 1.07129 0.0
C12 C 0.28291 0.19998 1.10042 0.0
C13 C 0.31589 0.24828 1.08499 0.0
C14 C 0.31707 0.24605 1.05773 0.0
C15 C 0.34611 0.29245 1.04335 0.0
C16 C 0.37462 0.34215 1.05588 0.0
C17 C 0.37426 0.34419 1.08317 0.0
C18 C 0.34503 0.29775 1.09757 0.0
C19 C 0.3784 0.11522 1.11648 0.0
O20 O 0.29726 0.05534 0.16949 0.0
O21 O 0.27175 0.11635 0.15906 0.0
O22 O 0.25448 0.92927 0.13976 0.0
O23 O 0.33773 -0.01075 0.13959 0.0
O24 O 0.19188 0.96713 1.12224 0.0
O25 O 0.22821 0.04547 0.13539 0.0
O26 O 0.25255 0.06888 1.07923 0.0
O27 O 0.26921 -0.00018 1.0866 0.0
O28 O 0.3016 0.19737 1.12302 0.0
O29 O 0.26048 0.1543 1.08813 0.0
O30 O 0.37501 0.15608 1.12377 0.0
O31 O 0.33485 0.08005 1.10803 0.0
H32 H 0.30204 0.84809 0.15371 0.0
H33 H 0.2969 0.80696 0.19592 0.0
H34 H 0.30861 0.94555 0.2345 0.0
H35 H 0.31518 -0.01363 0.19253 0.0
H36 H 0.29471 0.20868 1.0474 0.0
H37 H 0.34452 0.2895 1.02234 0.0
H38 H 0.39598 0.38175 1.09341 0.0
H39 H 0.34461 0.3007 1.11857 0.0
Ho40 Ho 0.33972 0.3064 0.45951 0.0
Ho41 Ho 0.22557 0.28242 0.45162 0.0
C42 C 0.26614 0.2974 0.51023 0.0
C43 C 0.43842 0.35258 0.47135 0.0
C44 C 0.46573 0.35729 0.496 0.0
C45 C 0.50541 0.34371 0.4968 0.0
C46 C 0.52251 0.33502 0.52065 0.0
C47 C 0.49986 0.33952 0.54402 0.0
C48 C 0.46386 0.3582 0.54314 0.0
C49 C 0.44693 0.36696 0.51935 0.0
C50 C 0.26698 0.2022 0.4595 0.0
C51 C 0.28888 0.2669 0.40281 0.0
C52 C 0.12802 0.25054 0.44122 0.0
C53 C 0.09996 0.27459 0.42873 0.0
C54 C 0.12202 0.30909 0.40756 0.0
C55 C 0.09511 0.33219 0.39617 0.0
C56 C 0.04591 0.3217 0.40591 0.0
C57 C 0.0246 0.28802 0.42753 0.0
C58 C 0.0514 0.26462 0.43879 0.0
C59 C 0.30142 0.38606 0.44796 0.0
O60 O 0.31464 0.31805 0.50051 0.0
O61 O 0.22465 0.27205 0.49491 0.0
O62 O 0.41219 0.30419 0.462 0.0
O63 O 0.41187 0.37782 0.46997 0.0
O64 O 0.31614 0.2205 0.45365 0.0
O65 O 0.26182 0.2397 0.46883 0.0
O66 O 0.24288 0.2534 0.41383 0.0
O67 O 0.33397 0.29569 0.41557 0.0
O68 O 0.15012 0.2719 0.46339 0.0
O69 O 0.15819 0.24034 0.4263 0.0
O70 O 0.25502 0.37063 0.45719 0.0
O71 O 0.3035 0.34649 0.43969 0.0
H72 H 0.52056 0.33629 0.47896 0.0
H73 H 0.55087 0.32141 0.52072 0.0
H74 H 0.44512 0.36161 0.56067 0.0
H75 H 0.41644 0.37767 0.51931 0.0
H76 H 0.15985 0.31789 0.3997 0.0
H77 H 0.11231 0.35715 0.37929 0.0
H78 H -0.01287 0.27961 0.4357 0.0
H79 H 0.0342 0.23871 0.45539 0.0
Ho80 Ho 0.13428 0.33418 0.80174 0.0
Ho81 Ho 0.02972 0.23412 0.78704 0.0
C82 C 0.05527 0.25663 0.84778 0.0
C83 C 0.20277 0.42911 0.81699 0.0
C84 C 0.23005 0.45495 0.84119 0.0
C85 C 0.27812 0.50277 0.84011 0.0
C86 C 0.30657 0.52584 0.86287 0.0
C87 C 0.28713 0.50137 0.88704 0.0
C88 C 0.23813 0.4541 0.88802 0.0
C89 C 0.2099 0.43101 0.86528 0.0
C90 C 0.14187 0.24566 0.79615 0.0
C91 C 0.11846 0.29381 0.74209 0.0
C92 C 0.95008 0.14571 0.77135 0.0
C93 C 0.89808 0.12793 0.75949 0.0
C94 C 0.8934 0.13993 0.73357 0.0
C95 C 0.84383 0.12017 0.7223 0.0
C96 C 0.79781 0.08807 0.73668 0.0
C97 C 0.80259 0.07722 0.76281 0.0
C98 C 0.85222 0.09677 0.77404 0.0
C99 C 0.02806 0.32696 0.78931 0.0
O100 O 0.09253 0.30576 0.84144 0.0
O101 O 0.03268 0.21949 0.82963 0.0
O102 O 0.2154 0.39554 0.80684 0.0
O103 O 0.15203 0.41128 0.81652 0.0
O104 O 0.18149 0.29375 0.79443 0.0
O105 O 0.10298 0.24819 0.80512 0.0
O106 O 0.078 0.24882 0.75054 0.0
O107 O 0.14204 0.33656 0.75747 0.0
O108 O 0.95592 0.16305 0.79527 0.0
O109 O -0.0082 0.17422 0.75707 0.0
O110 O -0.01155 0.28143 0.79555 0.0
O111 O 0.06403 0.31996 0.78054 0.0
H112 H 0.29418 0.52167 0.8216 0.0
H113 H 0.34407 0.56233 0.86153 0.0
H114 H 0.22253 0.43368 0.90626 0.0
H115 H 0.17301 0.39384 0.86646 0.0
H116 H 0.92795 0.16363 0.72177 0.0
H117 H 0.84175 0.12843 0.70197 0.0
H118 H 0.768 0.05299 0.77448 0.0
H119 H 0.85476 0.08684 0.79406 0.0
Ho120 Ho 0.87212 0.14954 0.13821 0.0
Ho121 Ho 0.84333 0.03493 1.12335 0.0
C122 C 0.85425 0.06316 0.18367 0.0
C123 C 0.869 0.23277 0.15409 0.0
C124 C 0.8566 0.25125 0.17825 0.0
C125 C 0.86091 0.30158 0.17925 0.0
C126 C 0.85396 0.32163 0.20282 0.0
C127 C 0.84273 0.29157 0.22572 0.0
C128 C 0.8362 0.24008 0.22425 0.0
C129 C 0.84301 0.22012 0.20071 0.0
C130 C 0.95404 0.13398 0.1286 0.0
C131 C 0.88322 0.12662 1.07782 0.0
C132 C 0.83348 0.94555 1.10741 0.0
C133 C 0.79495 0.89653 1.09379 0.0
C134 C 0.78608 0.8963 1.06697 0.0
C135 C 0.75346 0.84857 1.05401 0.0
C136 C 0.72898 0.80002 1.06755 0.0
C137 C 0.73637 0.80063 1.09455 0.0
C138 C 0.76919 0.84838 1.10751 0.0
C139 C 0.76166 0.05275 0.12923 0.0
O140 O 0.8492 0.10485 0.17719 0.0
O141 O 0.86381 0.03648 0.16555 0.0
O142 O 0.91153 0.22872 0.15466 0.0
O143 O 0.82944 0.1921 0.14267 0.0
O144 O 0.95515 0.17877 1.12455 0.0
O145 O 0.91201 0.10301 0.14028 0.0
O146 O 0.87524 0.07912 1.08504 0.0
O147 O 0.87742 0.1586 1.09447 0.0
O148 O 0.82044 0.95293 0.13072 0.0
O149 O 0.85713 -0.01046 1.09397 0.0
O150 O 0.75897 0.00807 0.13475 0.0
O151 O 0.80514 0.08303 1.11891 0.0
H152 H 0.87109 0.32594 0.16197 0.0
H153 H 0.85876 0.36117 0.20324 0.0
H154 H 0.82852 0.21612 0.24152 0.0
H155 H 0.83944 0.18115 0.20023 0.0
H156 H 0.80555 0.93267 1.0558 0.0
H157 H 0.74954 0.84955 1.03312 0.0
H158 H 0.71779 0.76405 1.10558 0.0
H159 H 0.77553 0.84744 0.12819 0.0
Ho160 Ho 0.79244 0.8849 0.46953 0.0
Ho161 Ho 0.84422 0.81805 0.45722 0.0
C162 C 0.84037 0.84595 0.51717 0.0
C163 C 0.72814 0.91572 0.48518 0.0
C164 C 0.69597 0.90742 0.50852 0.0
C165 C 0.67213 0.85855 0.52163 0.0
C166 C 0.64497 0.8527 0.54487 0.0
C167 C 0.64177 0.89581 0.55557 0.0
C168 C 0.66421 0.94407 0.54181 0.0
C169 C 0.69094 0.94971 0.51847 0.0
C170 C 0.89449 0.94024 0.45582 0.0
C171 C 0.81584 0.87481 0.40945 0.0
C172 C 0.89666 0.77196 0.4435 0.0
C173 C 0.93323 0.77279 0.42392 0.0
C174 C 0.95006 0.80851 0.4031 0.0
C175 C -0.0147 0.8081 0.38482 0.0
C176 C 0.00422 0.77219 0.38732 0.0
C177 C -0.01258 0.73695 0.4084 0.0
C178 C 0.95214 0.73725 0.42653 0.0
C179 C 0.7421 0.76303 0.47199 0.0
O180 O 0.80752 0.86299 0.51022 0.0
O181 O 0.8639 0.83144 0.49963 0.0
O182 O 0.77915 0.94404 0.48849 0.0
O183 O 0.71411 0.87387 0.47036 0.0
O184 O 0.86089 0.95578 0.45062 0.0
O185 O 0.87291 0.8995 0.46981 0.0
O186 O 0.84448 0.85362 0.41757 0.0
O187 O 0.78639 0.88432 0.42583 0.0
O188 O 0.84844 0.75581 0.43588 0.0
O189 O 0.91504 0.81298 0.45919 0.0
O190 O 0.77742 0.75101 0.47847 0.0
O191 O 0.76222 0.80227 0.45691 0.0
H192 H 0.67553 0.82528 0.51427 0.0
H193 H 0.62768 0.81485 0.5548 0.0
H194 H 0.66344 0.97843 0.54965 0.0
H195 H 0.70918 -0.01229 0.50862 0.0
H196 H 0.93602 0.83653 0.40104 0.0
H197 H -0.00191 0.83606 0.36888 0.0
H198 H 0.00084 0.7085 0.41064 0.0
H199 H 0.93946 0.70955 0.4426 0.0
Ho200 Ho -0.03431 0.79884 0.80479 0.0
Ho201 Ho 0.08014 0.86272 0.78692 0.0
C202 C 0.05885 0.86431 0.84792 0.0
C203 C 0.87595 0.7262 0.82272 0.0
C204 C 0.85258 0.69824 0.84704 0.0
C205 C 0.80435 0.65057 0.84628 0.0
C206 C 0.77924 0.6253 0.86934 0.0
C207 C 0.80204 0.6475 0.89353 0.0
C208 C 0.85154 0.69435 0.89409 0.0
C209 C 0.87666 0.71945 0.87102 0.0
C210 C -0.00481 0.89816 0.78873 0.0
C211 C -0.01234 0.81864 0.74329 0.0
C212 C 0.17471 0.92095 0.76946 0.0
C213 C 0.20751 0.95679 0.74891 0.0
C214 C 0.18699 0.97534 0.72968 0.0
C215 C 0.22044 0.01057 0.71074 0.0
C216 C 0.27462 0.02742 0.71092 0.0
C217 C 0.29449 0.00815 0.73021 0.0
C218 C 0.26119 0.97321 0.74904 0.0
C219 C 0.04638 0.76129 0.80233 0.0
O220 O 0.01056 0.82354 0.8437 0.0
O221 O 0.09077 0.88987 0.82837 0.0
O222 O 0.89058 0.77685 0.82226 0.0
O223 O 0.91009 0.71577 0.81169 0.0
O224 O 0.94758 0.85827 0.78675 0.0
O225 O 0.02281 0.88391 0.80141 0.0
O226 O 0.03659 0.85546 0.74928 0.0
O227 O 0.9549 0.78599 0.76121 0.0
O228 O 0.14481 0.87083 0.76324 0.0
O229 O 0.15181 0.93865 0.78526 0.0
O230 O 0.09206 0.8013 0.80779 0.0
O231 O 0.02148 0.777 0.78862 0.0
H232 H 0.78551 0.63352 0.82784 0.0
H233 H 0.74153 0.58901 0.86823 0.0
H234 H 0.86989 0.71303 0.91236 0.0
H235 H 0.91404 0.7562 0.87193 0.0
H236 H 0.14545 0.96277 0.72938 0.0
H237 H 0.20411 0.02507 0.69619 0.0
H238 H 0.33575 0.01956 0.73059 0.0
H239 H 0.27744 0.95895 0.76378 0.0
C240 C -0.03129 0.06124 1.11326 0.0
C241 C -0.02094 0.11368 1.1106 0.0
C242 C -0.01728 0.03746 1.09358 0.0
C243 C 0.00825 0.06602 1.07112 0.0
C244 C 0.02017 0.11912 1.06876 0.0
C245 C 0.00576 0.14285 1.08842 0.0
C246 C 0.02902 0.04201 1.05252 0.0
C247 C 0.08139 0.06643 1.05029 0.0
C248 C 0.10825 0.0504 1.0693 0.0
C249 C 0.10174 -0.00091 1.06901 0.0
C250 C 0.12384 -0.01647 1.08871 0.0
C251 C 0.1524 0.01908 1.10895 0.0
H252 H 0.13871 0.12411 1.09106 0.0
C253 C 0.15623 0.06921 1.1099 0.0
C254 C 0.1349 0.08498 1.09006 0.0
H255 H 0.17786 0.0972 0.12534 0.0
H256 H 0.94807 0.03792 0.13016 0.0
H257 H -0.02553 -0.00306 1.09614 0.0
H258 H 0.04047 0.14212 1.05174 0.0
H259 H 0.01366 0.18321 1.08575 0.0
H260 H 0.00834 -0.00128 1.05295 0.0
H261 H 0.10167 0.10906 1.04677 0.0
H262 H 0.0802 0.97147 1.05343 0.0
H263 H 0.12057 0.94469 1.08745 0.0
C264 C -0.02314 0.93798 0.44799 0.0
C265 C 0.94103 0.95362 0.43989 0.0
C266 C 0.02055 0.94923 0.43275 0.0
C267 C 0.02943 0.97682 0.40925 0.0
C268 C -0.00851 -0.01077 0.40029 0.0
C269 C 0.94799 0.97836 0.4157 0.0
C270 C 0.08277 0.00104 0.39771 0.0
C271 C 0.10694 0.05275 0.39152 0.0
C272 C 0.14878 0.08945 0.40915 0.0
C273 C 0.19947 0.0962 0.40819 0.0
C274 C 0.23761 0.13057 0.42585 0.0
C275 C 0.22503 0.15781 0.44479 0.0
H276 H 0.09617 0.10884 0.43003 0.0
C277 C 0.17335 0.14823 0.44659 0.0
C278 C 0.13572 0.11491 0.42866 0.0
H279 H 0.16264 0.16841 0.46111 0.0
H280 H -0.0281 0.91839 0.4665 0.0
H281 H 0.04912 0.93928 0.44015 0.0
H282 H -0.00359 0.00921 0.38192 0.0
H283 H 0.9199 -0.01069 0.40868 0.0
H284 H 0.10745 -0.01436 0.40492 0.0
H285 H 0.0835 0.069 0.38379 0.0
H286 H 0.2097 0.07588 0.39354 0.0
H287 H 0.27733 0.13741 0.42403 0.0
C288 C -0.01358 0.94114 0.74879 0.0
C289 C 0.01693 0.94243 0.7701 0.0
C290 C 0.0091 0.97791 0.72873 0.0
C291 C 0.06218 0.01728 0.72998 0.0
C292 C 0.09239 0.01977 0.75166 0.0
C293 C 0.06979 -0.01732 0.77165 0.0
C294 C 0.08594 0.0543 0.70799 0.0
C295 C 0.11558 0.10738 0.71054 0.0
C296 C 0.12324 0.13732 0.73514 0.0
C297 C 0.17261 0.18162 0.74023 0.0
C298 C 0.17976 0.21431 0.76164 0.0
C299 C 0.1373 0.20379 0.77812 0.0
H300 H 0.04214 0.09254 0.74843 0.0
C301 C 0.08855 0.15778 0.77393 0.0
C302 C 0.08125 0.12533 0.75232 0.0
H303 H 0.05522 0.14894 0.7863 0.0
H304 H 0.94562 0.91022 0.74699 0.0
H305 H -0.01467 0.97527 0.71209 0.0
H306 H 0.13373 0.04947 0.75281 0.0
H307 H 0.09391 -0.01537 0.78796 0.0
H308 H 0.07942 0.0373 0.68854 0.0
H309 H 0.13473 0.13023 0.69321 0.0
H310 H 0.20536 0.19188 0.72716 0.0
H311 H 0.21783 0.24962 0.76434 0.0
C312 C 0.42501 0.39303 1.01655 0.0
C313 C 0.40036 0.39165 1.04024 0.0
C314 C 0.43884 0.43475 0.99918 0.0
C315 C 0.42813 0.47578 1.00507 0.0
C316 C 0.40941 0.4777 1.03008 0.0
C317 C 0.39526 0.43577 1.04741 0.0
C318 C 0.42891 0.50979 0.98335 0.0
C319 C 0.39624 0.53001 0.98263 0.0
C320 C 0.3747 0.53725 0.95784 0.0
C321 C 0.32307 0.52851 0.95805 0.0
C322 C 0.2956 0.52062 0.93485 0.0
C323 C 0.31942 0.52178 0.91094 0.0
H324 H 0.44099 0.55347 0.9328 0.0
C325 C 0.37296 0.53651 0.91055 0.0
C326 C 0.40051 0.54447 0.93381 0.0
H327 H 0.39262 0.53828 0.8924 0.0
H328 H 0.43104 0.36044 1.01081 0.0
H329 H 0.45423 0.43268 0.98028 0.0
H330 H 0.40289 0.50986 1.0359 0.0
H331 H 0.37698 0.43635 1.06566 0.0
H332 H 0.44768 0.50755 0.96554 0.0
H333 H 0.37543 0.52988 1.00014 0.0
H334 H 0.30242 0.52366 0.97625 0.0
H335 H 0.25478 0.51074 0.93569 0.0
C336 C 0.04111 0.39364 0.38112 0.0
C337 C 0.01549 0.34271 0.3923 0.0
C338 C 0.01395 0.40951 0.3645 0.0
C339 C 0.96057 0.37512 0.35888 0.0
C340 C 0.934 0.32575 0.37167 0.0
C341 C 0.9612 0.30983 0.38819 0.0
C342 C 0.93734 0.38698 0.33604 0.0
C343 C 0.88542 0.36088 0.33066 0.0
C344 C 0.86584 0.3514 0.30346 0.0
C345 C 0.89482 0.38565 0.283 0.0
C346 C 0.88437 0.36769 0.25727 0.0
C347 C 0.84431 0.31555 0.25155 0.0
H348 H 0.79794 0.27529 0.31279 0.0
C349 C 0.81097 0.28423 0.27172 0.0
C350 C 0.82162 0.30209 0.29744 0.0
H351 H 0.77875 0.24449 0.26783 0.0
H352 H 0.08272 0.4204 0.38433 0.0
H353 H 0.03549 0.44764 0.35488 0.0
H354 H 0.8933 0.29727 0.36752 0.0
H355 H 0.94029 0.27013 0.39624 0.0
H356 H -0.03473 0.41179 0.3213 0.0
H357 H 0.85762 0.33693 0.34565 0.0
H358 H 0.92771 0.42498 0.28679 0.0
H359 H 0.91049 0.39321 0.2422 0.0
C360 C 0.73475 0.08933 0.7042 0.0
C361 C 0.74573 0.06228 0.72356 0.0
C362 C 0.6913 0.06179 0.68792 0.0
C363 C 0.65802 0.00666 0.69059 0.0
C364 C 0.66527 -0.01902 0.712 0.0
C365 C 0.709 0.00846 0.72818 0.0
C366 C 0.62292 0.97701 0.66841 0.0
C367 C 0.61071 0.92679 0.66234 0.0
C368 C 0.60448 0.90808 0.63496 0.0
C369 C 0.6251 0.87516 0.62811 0.0
C370 C 0.63377 0.86801 0.6021 0.0
C371 C 0.6212 0.89304 0.58232 0.0
H372 H 0.56847 0.95213 0.61971 0.0
C373 C 0.59491 0.92091 0.58904 0.0
C374 C 0.58655 0.92836 0.61515 0.0
H375 H 0.58315 0.9392 0.57419 0.0
H376 H 0.76133 0.13123 0.7007 0.0
H377 H 0.68616 0.08296 0.67194 0.0
H378 H 0.63914 0.93908 0.71554 0.0
H379 H 0.71581 -0.01357 0.74312 0.0
H380 H 0.61801 0.001 0.65377 0.0
H381 H 0.61803 0.90351 0.67639 0.0
H382 H 0.63881 0.85859 0.64295 0.0
H383 H 0.65413 0.84633 0.59776 0.0
C384 C 0.67115 0.74464 1.03079 0.0
C385 C 0.70104 0.74901 1.05291 0.0
C386 C 0.65572 0.70209 1.01353 0.0
C387 C 0.67003 0.66321 1.01796 0.0
C388 C 0.69387 0.66392 1.04178 0.0
C389 C 0.70964 0.7067 1.05898 0.0
C390 C 0.66761 0.62923 0.99562 0.0
C391 C 0.70244 0.61193 0.9927 0.0
C392 C 0.72174 0.60622 0.96676 0.0
C393 C 0.77378 0.61637 0.96496 0.0
C394 C 0.79896 0.62599 0.9409 0.0
C395 C 0.77248 0.62538 0.91809 0.0
H396 H 0.65247 0.58914 0.94407 0.0
C397 C 0.71863 0.60924 0.91958 0.0
C398 C 0.69333 0.59933 0.94367 0.0
H399 H 0.69681 0.6078 0.90236 0.0
H400 H 0.66238 0.77573 1.026 0.0
H401 H 0.63634 0.70205 0.99562 0.0
H402 H 0.70331 0.63337 1.04659 0.0
H403 H 0.732 0.70837 1.07602 0.0
H404 H 0.64525 0.62951 0.97893 0.0
H405 H 0.72629 0.61368 1.00915 0.0
H406 H 0.79643 0.62092 0.98236 0.0
H407 H 0.84003 0.63671 0.94031 0.0
C408 C 0.08447 0.76673 0.3755 0.0
C409 C 0.04047 0.77049 0.36776 0.0
C410 C 0.11827 0.76446 0.35695 0.0
C411 C 0.10854 0.76588 0.33031 0.0
C412 C 0.06395 0.76849 0.32265 0.0
C413 C 0.03044 0.77112 0.34116 0.0
C414 C 0.14425 0.76621 0.30977 0.0
C415 C 0.1963 0.78592 0.31318 0.0
C416 C 0.23191 0.79995 0.29046 0.0
C417 C 0.21574 0.76984 0.26738 0.0
C418 C 0.2421 0.79165 0.24412 0.0
C419 C 0.28541 0.84365 0.24363 0.0
H420 H 0.29305 0.87211 0.30831 0.0
C421 C 0.3058 0.87048 0.26734 0.0
C422 C 0.27922 0.84867 0.29062 0.0
H423 H 0.33997 0.91002 0.26766 0.0
H424 H 0.09303 0.76608 0.39592 0.0
H425 H 0.1516 0.76129 0.36357 0.0
H426 H 0.05541 0.76938 0.30224 0.0
H427 H -0.00368 0.77304 0.33465 0.0
H428 H 0.12812 0.75645 0.29021 0.0
H429 H 0.21396 0.80083 0.33212 0.0
H430 H 0.18044 0.73113 0.2669 0.0
H431 H 0.22543 0.76956 0.2263 0.0
C432 C 0.36097 0.10566 0.69789 0.0
C433 C 0.31058 0.06435 0.69094 0.0
C434 C 0.39579 0.13919 0.67896 0.0
C435 C 0.38071 0.13223 0.65267 0.0
C436 C 0.33048 0.09076 0.64576 0.0
C437 C 0.29566 0.05731 0.66468 0.0
C438 C 0.41571 0.16708 0.6318 0.0
C439 C 0.45548 0.21716 0.63572 0.0
C440 C 0.48138 0.25323 0.6135 0.0
C441 C 0.48909 0.23401 0.5897 0.0
C442 C 0.50059 0.26465 0.5673 0.0
C443 C 0.50501 0.31522 0.56834 0.0
H444 H 0.48776 0.32213 0.63346 0.0
C445 C 0.50399 0.3369 0.59274 0.0
C446 C 0.4924 0.3061 0.61519 0.0
H447 H 0.50843 0.37622 0.59423 0.0
H448 H 0.3735 0.11215 0.71801 0.0
H449 H 0.43451 0.16986 0.68504 0.0
H450 H 0.31795 0.08434 0.62563 0.0
H451 H 0.25746 0.02532 0.65869 0.0
H452 H 0.40473 0.15251 0.61199 0.0
H453 H 0.46379 0.23443 0.6551 0.0
H454 H 0.48284 0.19399 0.58804 0.0
H455 H 0.50128 0.24664 0.54889 0.0
C456 C 0.46772 0.14183 0.13366 0.0
C457 C 0.42645 0.1113 1.11637 0.0
C458 C 0.51277 0.13679 0.13381 0.0
C459 C 0.5175 0.10207 1.11623 0.0
C460 C 0.47665 0.07247 1.09862 0.0
C461 C 0.43107 0.07634 1.09898 0.0
C462 C 0.56524 0.09713 1.11535 0.0
C463 C 0.58861 0.09317 0.13697 0.0
C464 C 0.63415 0.08448 0.13552 0.0
C465 C 0.63597 0.04666 0.1517 0.0
C466 C 0.6774 0.03598 0.14956 0.0
C467 C 0.71833 0.06421 0.13177 0.0
H468 H 0.67537 0.14318 1.10554 0.0
C469 C 0.71746 0.10338 1.11623 0.0
C470 C 0.67546 0.11313 1.11792 0.0
H471 H 0.74877 0.1258 1.10244 0.0
H472 H 0.46484 0.16897 0.14725 0.0
H473 H 0.5442 0.16063 0.14732 0.0
H474 H 0.47969 0.04569 1.08484 0.0
H475 H 0.3997 0.0525 1.08543 0.0
H476 H 0.57901 0.09236 1.09639 0.0
H477 H 0.57144 0.0919 0.15591 0.0
H478 H 0.60462 0.02439 0.16549 0.0
H479 H 0.67758 0.00589 0.16188 0.0
C480 C 0.3938 0.45224 0.43668 0.0
C481 C 0.34629 0.44077 0.44871 0.0
C482 C 0.43837 0.50218 0.43971 0.0
C483 C 0.43605 0.54189 0.4545 0.0
C484 C 0.3877 0.53175 0.465 0.0
C485 C 0.34309 0.48126 0.46231 0.0
C486 C 0.4846 0.59289 0.45991 0.0
C487 C 0.52854 0.59296 0.46738 0.0
C488 C 0.58021 0.64135 0.4717 0.0
C489 C 0.61691 0.63692 0.48733 0.0
C490 C 0.66884 0.67821 0.48864 0.0
C491 C 0.68541 0.7246 0.47403 0.0
H492 H 0.56869 0.69368 0.44584 0.0
C493 C 0.6482 0.73065 0.45955 0.0
C494 C 0.59583 0.68924 0.45837 0.0
H495 H 0.66009 0.76609 0.4481 0.0
H496 H 0.39698 0.42207 0.42557 0.0
H497 H 0.47496 0.50951 0.43084 0.0
H498 H 0.38502 0.56206 0.47623 0.0
H499 H 0.30663 0.47346 0.4715 0.0
H500 H 0.48345 0.6297 0.45893 0.0
H501 H 0.5266 0.55495 0.47063 0.0
H502 H 0.60585 0.60052 0.49782 0.0
H503 H 0.69662 0.67268 0.50015 0.0
C504 C -0.00994 0.38382 0.80347 0.0
C505 C 0.03058 0.37905 0.79137 0.0
C506 C -0.00624 0.43375 0.80611 0.0
C507 C 0.03819 0.47981 0.79666 0.0
C508 C 0.07839 0.47467 0.78446 0.0
C509 C 0.07442 0.42486 0.78161 0.0
C510 C 0.04539 0.53407 0.80001 0.0
C511 C 0.0055 0.54439 0.80243 0.0
C512 C 0.01467 0.59965 0.80427 0.0
C513 C -0.02201 0.61161 0.7933 0.0
C514 C -0.01251 0.66399 0.7932 0.0
C515 C 0.03346 0.70522 0.8045 0.0
H516 H 0.08788 0.63263 0.82593 0.0
C517 C 0.06887 0.69286 0.8166 0.0
C518 C 0.05963 0.64067 0.8165 0.0
H519 H 0.10438 0.72376 0.8257 0.0
H520 H 0.95588 0.34909 0.81123 0.0
H521 H 0.96249 0.43619 0.81612 0.0
H522 H 0.11309 0.5094 0.77705 0.0
H523 H 0.10605 0.42233 0.77198 0.0
H524 H 0.08546 0.5672 0.79887 0.0
H525 H -0.0349 0.51209 0.801 0.0
H526 H 0.94277 0.58068 0.784 0.0
H527 H 0.95954 0.67236 0.78368 0.0
C528 C 0.27296 0.14606 0.21211 0.0
C529 C 0.29066 0.11072 0.20457 0.0
C530 C 0.27762 0.1642 0.23793 0.0
C531 C 0.3003 0.14773 0.25728 0.0
C532 C 0.31826 0.1126 0.24975 0.0
C533 C 0.3132 0.09405 0.22388 0.0
C534 C 0.30763 0.16799 0.28502 0.0
C535 C 0.27761 0.1861 0.29644 0.0
C536 C 0.28275 0.20602 0.32408 0.0
C537 C 0.23896 0.20558 0.33564 0.0
C538 C 0.24144 0.22536 0.36087 0.0
C539 C 0.28823 0.24741 0.37551 0.0
H540 H 0.36475 0.22972 0.33045 0.0
C541 C 0.33249 0.24832 0.36401 0.0
C542 C 0.32977 0.22769 0.33868 0.0
H543 H 0.36915 0.2646 0.37465 0.0
H544 H 0.25568 0.16031 0.19795 0.0
H545 H 0.26449 0.19223 0.2424 0.0
H546 H 0.33631 0.09931 0.26397 0.0
H547 H 0.3277 0.06729 0.21896 0.0
H548 H 0.33733 0.16577 0.29663 0.0
H549 H 0.24518 0.18399 0.28534 0.0
H550 H 0.2022 0.18957 0.32508 0.0
H551 H 0.20632 0.22354 0.36883 0.0
C552 C 0.20511 0.27719 0.54875 0.0
C553 C 0.25689 0.30147 0.53883 0.0
C554 C 0.19508 0.28206 0.5751 0.0
C555 C 0.23652 0.31133 0.59273 0.0
C556 C 0.28834 0.33578 0.58283 0.0
C557 C 0.29843 0.33074 0.55637 0.0
C558 C 0.22696 0.31872 0.62107 0.0
C559 C 0.18224 0.28527 0.6342 0.0
C560 C 0.16984 0.29011 0.66234 0.0
C561 C 0.12756 0.24541 0.674 0.0
C562 C 0.11171 0.24721 0.69955 0.0
C563 C 0.1372 0.29405 0.71469 0.0
H564 H 0.22853 0.37284 0.66927 0.0
C565 C 0.18003 0.33906 0.70327 0.0
C566 C 0.19617 0.33717 0.67743 0.0
H567 H 0.2009 0.37583 0.71421 0.0
H568 H 0.17177 0.25467 0.53603 0.0
H569 H 0.15448 0.26374 0.58129 0.0
H570 H 0.32135 0.35899 0.59565 0.0
H571 H 0.33879 0.35036 0.54965 0.0
H572 H 0.2586 0.35179 0.6315 0.0
H573 H 0.15268 0.25024 0.624 0.0
H574 H 0.10621 0.20845 0.66321 0.0
H575 H 0.07894 0.21132 0.70736 0.0
C576 C 0.05023 0.27752 0.89603 0.0
C577 C 0.03837 0.24053 0.87557 0.0
C578 C 0.03068 0.26032 0.92152 0.0
C579 C -0.00098 0.20554 0.92726 0.0
C580 C -0.0116 0.1691 0.90683 0.0
C581 C 0.0073 0.18611 0.8816 0.0
C582 C -0.02315 0.1834 0.95388 0.0
C583 C -0.02735 0.21095 0.97435 0.0
C584 C 0.94802 0.18689 1.00042 0.0
C585 C 0.93581 0.21682 1.01793 0.0
C586 C 0.91385 0.19696 1.04257 0.0
C587 C 0.90328 0.14627 1.05075 0.0
H588 H 0.94688 0.11149 0.9964 0.0
C589 C 0.91526 0.11607 1.03328 0.0
C590 C 0.93736 0.13599 1.00861 0.0
H591 H 0.90856 0.0772 1.03883 0.0
H592 H 0.07396 0.31975 0.89228 0.0
H593 H 0.04082 0.29002 0.93661 0.0
H594 H -0.03534 0.12674 0.91031 0.0
H595 H -0.0028 0.156 0.86669 0.0
H596 H 0.9608 0.1409 0.95606 0.0
H597 H -0.01399 0.25292 0.97178 0.0
H598 H 0.9435 0.25614 1.01257 0.0
H599 H 0.90573 0.22185 1.05534 0.0
C600 C 0.85636 0.00196 0.21807 0.0
C601 C 0.84968 0.04548 0.21155 0.0
C602 C 0.85056 -0.01643 0.24382 0.0
C603 C 0.83795 0.00816 0.26417 0.0
C604 C 0.83134 0.05173 0.25763 0.0
C605 C 0.83722 0.07019 0.23183 0.0
C606 C 0.82944 -0.01118 0.29207 0.0
C607 C 0.84368 0.95436 0.30201 0.0
C608 C 0.83518 0.9345 0.32978 0.0
C609 C 0.86181 0.9083 0.33863 0.0
C610 C 0.855 0.88833 0.3641 0.0
C611 C 0.82086 0.89341 0.38172 0.0
H612 H 0.77833 0.95799 0.34157 0.0
C613 C 0.79371 0.91913 0.37287 0.0
C614 C 0.80063 0.93926 0.34736 0.0
H615 H 0.76711 0.92409 0.38573 0.0
H616 H 0.86562 -0.01862 0.20314 0.0
H617 H 0.85502 0.94934 0.24739 0.0
H618 H 0.82132 0.07166 0.2726 0.0
H619 H 0.83146 0.10354 0.22778 0.0
H620 H 0.81165 0.00509 0.30502 0.0
H621 H 0.86432 0.94064 0.28945 0.0
H622 H 0.88854 0.90349 0.32577 0.0
H623 H 0.87704 0.8693 0.37002 0.0
C624 C 0.87309 0.81121 0.55331 0.0
C625 C 0.85324 0.8443 0.54529 0.0
C626 C 0.88883 0.81167 0.57916 0.0
C627 C 0.88604 0.84592 0.59784 0.0
C628 C 0.86598 0.87884 0.58988 0.0
C629 C 0.8491 0.87752 0.56409 0.0
C630 C 0.90688 0.85062 0.62508 0.0
C631 C 0.90579 0.80967 0.63826 0.0
C632 C 0.92686 0.81389 0.66537 0.0
C633 C 0.90209 0.76985 0.68209 0.0
C634 C 0.92163 0.7714 0.70722 0.0
C635 C -0.03231 0.8165 0.71618 0.0
H636 H -0.00631 0.89358 0.66186 0.0
C637 C -0.00673 0.86024 0.69921 0.0
C638 C -0.02721 0.85927 0.67431 0.0
H639 H 0.02892 0.89566 0.70528 0.0
H640 H 0.87701 0.78508 0.53945 0.0
H641 H 0.9049 0.78643 0.58423 0.0
H642 H 0.86358 0.90597 0.60366 0.0
H643 H 0.83445 0.90383 0.5587 0.0
H644 H 0.92185 0.88872 0.63492 0.0
H645 H 0.88626 0.77037 0.62936 0.0
H646 H 0.86703 0.73407 0.67576 0.0
H647 H 0.90081 0.73689 0.71956 0.0
C648 C 0.05901 0.85313 0.89736 0.0
C649 C 0.07862 0.88478 0.87489 0.0
C650 C 0.08096 0.87372 0.92216 0.0
C651 C 0.12241 0.92678 0.92507 0.0
C652 C 0.14078 0.95826 0.90264 0.0
C653 C 0.11979 0.93762 0.87807 0.0
C654 C 0.14669 0.95231 0.95083 0.0
C655 C 0.14945 0.92637 0.9721 0.0
C656 C 0.17745 0.95374 0.99701 0.0
C657 C 0.19491 0.92766 1.01389 0.0
C658 C 0.22042 0.95123 1.03747 0.0
C659 C 0.22886 0.00161 1.04519 0.0
H660 H 0.17211 0.02547 0.99285 0.0
C661 C 0.2112 0.02772 1.02837 0.0
C662 C 0.18597 0.00427 1.0047 0.0
H663 H 0.21606 0.06614 1.03367 0.0
H664 H 0.02735 0.81232 0.89575 0.0
H665 H 0.06487 0.84834 0.93898 0.0
H666 H 0.17217 -0.00073 0.90403 0.0
H667 H 0.13589 0.96364 0.86144 0.0
H668 H 0.16664 -0.00454 0.95149 0.0
H669 H 0.13329 0.88361 0.97081 0.0
H670 H 0.18881 0.88865 1.00882 0.0
H671 H 0.23269 0.92937 1.04988 0.0
loop_
_geom_bond_atom_site_label_1
_geom_bond_atom_site_label_2
_geom_bond_distance
_geom_bond_site_symmetry_2
_ccdc_geom_bond_type
Ho0 C3 2.811 . S
Ho0 O20 2.322 . S
Ho0 O22 2.378 . S
Ho0 O23 2.524 . S
Ho0 O24 2.381 . S
Ho0 O25 2.669 1_554 S
Ho0 O27 2.346 1_554 S
Ho0 O31 2.305 . S
Ho1 C12 2.811 . S
Ho1 O21 2.346 1_556 S
Ho1 O25 2.305 . S
Ho1 O26 2.322 . S
Ho1 O28 2.378 . S
Ho1 O29 2.524 . S
Ho1 O30 2.381 . S
Ho1 O31 2.669 1_556 S
C2 O20 1.259 . S
C2 O21 1.268 . S
C3 Ho0 2.811 . S
C3 C4 1.488 . S
C3 O22 1.215 . S
C3 O23 1.289 . S
C4 C3 1.488 . S
C4 C5 1.348 . S
C4 C9 1.413 . S
C5 C4 1.348 . S
C5 C6 1.442 . S
C5 H32 0.930 . S
C6 C5 1.442 . S
C6 C7 1.381 . S
C6 H33 0.931 . S
C7 C6 1.381 . S
C7 C8 1.321 . S
C8 C7 1.321 . S
C8 C9 1.403 . S
C8 H34 0.934 1_545 S
C9 C4 1.413 . S
C9 C8 1.403 . S
C9 H35 0.930 . S
C10 O24 1.275 . S
C10 O25 1.256 1_554 S
C11 O26 1.259 . S
C11 O27 1.268 . S
C12 Ho1 2.811 . S
C12 C13 1.488 . S
C12 O28 1.215 . S
C12 O29 1.289 . S
C13 C12 1.488 . S
C13 C14 1.348 . S
C13 C18 1.413 . S
C14 C13 1.348 . S
C14 C15 1.442 . S
C14 H36 0.930 . S
C15 C14 1.442 . S
C15 C16 1.381 . S
C15 H37 0.931 . S
C16 C15 1.381 . S
C16 C17 1.321 . S
C17 C16 1.321 . S
C17 C18 1.403 . S
C17 H38 0.934 . S
C18 C13 1.413 . S
C18 C17 1.403 . S
C18 H39 0.930 . S
C19 O30 1.275 1_554 S
C19 O31 1.256 . S
O20 Ho0 2.322 . S
O20 C2 1.259 . S
O21 Ho1 2.346 1_554 S
O21 C2 1.268 . S
O22 Ho0 2.378 . S
O22 C3 1.215 . S
O23 Ho0 2.524 . S
O23 C3 1.289 . S
O24 Ho0 2.381 . S
O24 C10 1.275 . S
O25 Ho0 2.669 1_556 S
O25 Ho1 2.305 . S
O25 C10 1.256 1_556 S
O26 Ho1 2.322 . S
O26 C11 1.259 . S
O27 Ho0 2.346 1_556 S
O27 C11 1.268 . S
O28 Ho1 2.378 . S
O28 C12 1.215 . S
O29 Ho1 2.524 . S
O29 C12 1.289 . S
O30 Ho1 2.381 . S
O30 C19 1.275 1_556 S
O31 Ho0 2.305 . S
O31 Ho1 2.669 1_554 S
O31 C19 1.256 . S
H32 C5 0.930 . S
H33 C6 0.931 . S
H34 C8 0.934 1_565 S
H35 C9 0.930 . S
H36 C14 0.930 . S
H37 C15 0.931 . S
H38 C17 0.934 . S
H39 C18 0.930 . S
Ho40 C43 2.811 . S
Ho40 O60 2.322 . S
Ho40 O62 2.378 . S
Ho40 O63 2.524 . S
Ho40 O64 2.381 . S
Ho40 O65 2.669 . S
Ho40 O67 2.346 . S
Ho40 O71 2.305 . S
Ho41 C52 2.811 . S
Ho41 O61 2.346 . S
Ho41 O65 2.305 . S
Ho41 O66 2.322 . S
Ho41 O68 2.378 . S
Ho41 O69 2.524 . S
Ho41 O70 2.381 . S
Ho41 O71 2.669 . S
C42 O60 1.259 . S
C42 O61 1.268 . S
C43 Ho40 2.811 . S
C43 C44 1.488 . S
C43 O62 1.215 . S
C43 O63 1.289 . S
C44 C43 1.488 . S
C44 C45 1.348 . S
C44 C49 1.413 . S
C45 C44 1.348 . S
C45 C46 1.442 . S
C45 H72 0.930 . S
C46 C45 1.442 . S
C46 C47 1.381 . S
C46 H73 0.931 . S
C47 C46 1.381 . S
C47 C48 1.321 . S
C48 C47 1.321 . S
C48 C49 1.403 . S
C48 H74 0.934 . S
C49 C44 1.413 . S
C49 C48 1.403 . S
C49 H75 0.930 . S
C50 O64 1.275 . S
C50 O65 1.256 . S
C51 O66 1.259 . S
C51 O67 1.268 . S
C52 Ho41 2.811 . S
C52 C53 1.488 . S
C52 O68 1.215 . S
C52 O69 1.289 . S
C53 C52 1.488 . S
C53 C54 1.348 . S
C53 C58 1.413 . S
C54 C53 1.348 . S
C54 C55 1.442 . S
C54 H76 0.930 . S
C55 C54 1.442 . S
C55 C56 1.381 . S
C55 H77 0.931 . S
C56 C55 1.381 . S
C56 C57 1.321 . S
C57 C56 1.321 . S
C57 C58 1.403 . S
C57 H78 0.934 . S
C58 C53 1.413 . S
C58 C57 1.403 . S
C58 H79 0.930 . S
C59 O70 1.275 . S
C59 O71 1.256 . S
O60 Ho40 2.322 . S
O60 C42 1.259 . S
O61 Ho41 2.346 . S
O61 C42 1.268 . S
O62 Ho40 2.378 . S
O62 C43 1.215 . S
O63 Ho40 2.524 . S
O63 C43 1.289 . S
O64 Ho40 2.381 . S
O64 C50 1.275 . S
O65 Ho40 2.669 . S
O65 Ho41 2.305 . S
O65 C50 1.256 . S
O66 Ho41 2.322 . S
O66 C51 1.259 . S
O67 Ho40 2.346 . S
O67 C51 1.268 . S
O68 Ho41 2.378 . S
O68 C52 1.215 . S
O69 Ho41 2.524 . S
O69 C52 1.289 . S
O70 Ho41 2.381 . S
O70 C59 1.275 . S
O71 Ho40 2.305 . S
O71 Ho41 2.669 . S
O71 C59 1.256 . S
H72 C45 0.930 . S
H73 C46 0.931 . S
H74 C48 0.934 . S
H75 C49 0.930 . S
H76 C54 0.930 . S
H77 C55 0.931 . S
H78 C57 0.934 . S
H79 C58 0.930 . S
Ho80 C83 2.811 . S
Ho80 O100 2.322 1_455 S
Ho80 O102 2.378 . S
Ho80 O103 2.524 . S
Ho80 O104 2.381 . S
Ho80 O105 2.669 1_455 S
Ho80 O107 2.346 . S
Ho80 O111 2.305 . S
Ho81 C92 2.811 . S
Ho81 O101 2.346 . S
Ho81 O105 2.305 . S
Ho81 O106 2.322 1_655 S
Ho81 O108 2.378 . S
Ho81 O109 2.524 . S
Ho81 O110 2.381 . S
Ho81 O111 2.669 1_655 S
C82 O100 1.259 . S
C82 O101 1.268 . S
C83 Ho80 2.811 . S
C83 C84 1.488 . S
C83 O102 1.215 . S
C83 O103 1.289 . S
C84 C83 1.488 . S
C84 C85 1.348 . S
C84 C89 1.413 . S
C85 C84 1.348 . S
C85 C86 1.442 . S
C85 H112 0.930 . S
C86 C85 1.442 . S
C86 C87 1.381 . S
C86 H113 0.931 . S
C87 C86 1.381 . S
C87 C88 1.321 . S
C88 C87 1.321 . S
C88 C89 1.403 . S
C88 H114 0.934 . S
C89 C84 1.413 . S
C89 C88 1.403 . S
C89 H115 0.930 . S
C90 O104 1.275 . S
C90 O105 1.256 1_455 S
C91 O106 1.259 . S
C91 O107 1.268 . S
C92 Ho81 2.811 . S
C92 C93 1.488 . S
C92 O108 1.215 . S
C92 O109 1.289 . S
C93 C92 1.488 . S
C93 C94 1.348 . S
C93 C98 1.413 . S
C94 C93 1.348 . S
C94 C95 1.442 . S
C94 H116 0.930 . S
C95 C94 1.442 . S
C95 C96 1.381 . S
C95 H117 0.931 . S
C96 C95 1.381 . S
C96 C97 1.321 . S
C97 C96 1.321 . S
C97 C98 1.403 . S
C97 H118 0.934 . S
C98 C93 1.413 . S
C98 C97 1.403 . S
C98 H119 0.930 . S
C99 O110 1.275 . S
C99 O111 1.256 1_655 S
O100 Ho80 2.322 1_655 S
O100 C82 1.259 . S
O101 Ho81 2.346 . S
O101 C82 1.268 . S
O102 Ho80 2.378 . S
O102 C83 1.215 . S
O103 Ho80 2.524 . S
O103 C83 1.289 . S
O104 Ho80 2.381 . S
O104 C90 1.275 . S
O105 Ho80 2.669 1_655 S
O105 Ho81 2.305 . S
O105 C90 1.256 1_655 S
O106 Ho81 2.322 1_455 S
O106 C91 1.259 . S
O107 Ho80 2.346 . S
O107 C91 1.268 . S
O108 Ho81 2.378 . S
O108 C92 1.215 . S
O109 Ho81 2.524 . S
O109 C92 1.289 . S
O110 Ho81 2.381 . S
O110 C99 1.275 . S
O111 Ho80 2.305 . S
O111 Ho81 2.669 1_455 S
O111 C99 1.256 1_455 S
H112 C85 0.930 . S
H113 C86 0.931 . S
H114 C88 0.934 . S
H115 C89 0.930 . S
H116 C94 0.930 . S
H117 C95 0.931 . S
H118 C97 0.934 . S
H119 C98 0.930 . S
Ho120 C123 2.811 . S
Ho120 O140 2.308 1_545 S
Ho120 O142 2.378 . S
Ho120 O143 2.524 . S
Ho120 O144 2.381 . S
Ho120 O145 2.669 1_544 S
Ho120 O147 2.346 1_554 S
Ho120 O151 2.305 . S
Ho121 C132 2.811 . S
Ho121 O141 2.346 1_556 S
Ho121 O145 2.305 . S
Ho121 O146 2.322 1_565 S
Ho121 O148 2.378 . S
Ho121 O149 2.524 . S
Ho121 O150 2.381 . S
Ho121 O151 2.669 1_566 S
C122 O140 1.271 . S
C122 O141 1.268 . S
C123 Ho120 2.811 . S
C123 C124 1.488 . S
C123 O142 1.215 . S
C123 O143 1.289 . S
C124 C123 1.488 . S
C124 C125 1.348 . S
C124 C129 1.413 . S
C125 C124 1.348 . S
C125 C126 1.442 . S
C125 H152 0.930 . S
C126 C125 1.442 . S
C126 C127 1.381 . S
C126 H153 0.931 . S
C127 C126 1.381 . S
C127 C128 1.321 . S
C128 C127 1.321 . S
C128 C129 1.403 . S
C128 H154 0.934 . S
C129 C124 1.413 . S
C129 C128 1.403 . S
C129 H155 0.930 . S
C130 O144 1.275 . S
C130 O145 1.256 1_544 S
C131 O146 1.259 . S
C131 O147 1.268 . S
C132 Ho121 2.811 . S
C132 C133 1.488 . S
C132 O148 1.215 . S
C132 O149 1.289 . S
C133 C132 1.488 . S
C133 C134 1.348 . S
C133 C138 1.413 . S
C134 C133 1.348 . S
C134 C135 1.442 . S
C134 H156 0.930 . S
C135 C134 1.442 . S
C135 C136 1.381 . S
C135 H157 0.931 . S
C136 C135 1.381 . S
C136 C137 1.321 . S
C137 C136 1.321 . S
C137 C138 1.403 . S
C137 H158 0.934 . S
C138 C133 1.413 . S
C138 C137 1.403 . S
C138 H159 0.930 . S
C139 O150 1.275 1_554 S
C139 O151 1.256 1_565 S
O140 Ho120 2.308 1_565 S
O140 C122 1.271 . S
O141 Ho121 2.346 1_554 S
O141 C122 1.268 . S
O142 Ho120 2.378 . S
O142 C123 1.215 . S
O143 Ho120 2.524 . S
O143 C123 1.289 . S
O144 Ho120 2.381 . S
O144 C130 1.275 . S
O145 Ho120 2.669 1_566 S
O145 Ho121 2.305 . S
O145 C130 1.256 1_566 S
O146 Ho121 2.322 1_545 S
O146 C131 1.259 . S
O147 Ho120 2.346 1_556 S
O147 C131 1.268 . S
O148 Ho121 2.378 . S
O148 C132 1.215 . S
O149 Ho121 2.524 . S
O149 C132 1.289 . S
O150 Ho121 2.381 . S
O150 C139 1.275 1_556 S
O151 Ho120 2.305 . S
O151 Ho121 2.669 1_544 S
O151 C139 1.256 1_545 S
H152 C125 0.930 . S
H153 C126 0.931 . S
H154 C128 0.934 . S
H155 C129 0.930 . S
H156 C134 0.930 . S
H157 C135 0.931 . S
H158 C137 0.934 . S
H159 C138 0.930 . S
Ho160 C163 2.811 . S
Ho160 O180 2.322 . S
Ho160 O182 2.378 . S
Ho160 O183 2.524 . S
Ho160 O184 2.381 . S
Ho160 O185 2.669 . S
Ho160 O187 2.346 . S
Ho160 O191 2.305 . S
Ho161 C172 2.811 . S
Ho161 O181 2.346 . S
Ho161 O185 2.305 . S
Ho161 O186 2.322 . S
Ho161 O188 2.378 . S
Ho161 O189 2.524 . S
Ho161 O190 2.381 . S
Ho161 O191 2.669 . S
C162 O180 1.259 . S
C162 O181 1.268 . S
C163 Ho160 2.811 . S
C163 C164 1.488 . S
C163 O182 1.215 . S
C163 O183 1.289 . S
C164 C163 1.488 . S
C164 C165 1.348 . S
C164 C169 1.413 . S
C165 C164 1.348 . S
C165 C166 1.442 . S
C165 H192 0.930 . S
C166 C165 1.442 . S
C166 C167 1.381 . S
C166 H193 0.931 . S
C167 C166 1.381 . S
C167 C168 1.321 . S
C168 C167 1.321 . S
C168 C169 1.403 . S
C168 H194 0.934 . S
C169 C164 1.413 . S
C169 C168 1.403 . S
C169 H195 0.930 . S
C170 O184 1.275 . S
C170 O185 1.256 . S
C171 O186 1.259 . S
C171 O187 1.268 . S
C172 Ho161 2.811 . S
C172 C173 1.488 . S
C172 O188 1.215 . S
C172 O189 1.289 . S
C173 C172 1.488 . S
C173 C174 1.348 1_655 S
C173 C178 1.413 . S
C174 C173 1.348 1_455 S
C174 C175 1.442 . S
C174 H196 0.930 . S
C175 C174 1.442 . S
C175 C176 1.381 . S
C175 H197 0.931 . S
C176 C175 1.381 . S
C176 C177 1.321 1_455 S
C177 C176 1.321 1_655 S
C177 C178 1.403 . S
C177 H198 0.934 . S
C178 C173 1.413 . S
C178 C177 1.403 . S
C178 H199 0.930 . S
C179 O190 1.275 . S
C179 O191 1.256 . S
O180 Ho160 2.322 . S
O180 C162 1.259 . S
O181 Ho161 2.346 . S
O181 C162 1.268 . S
O182 Ho160 2.378 . S
O182 C163 1.215 . S
O183 Ho160 2.524 . S
O183 C163 1.289 . S
O184 Ho160 2.381 . S
O184 C170 1.275 . S
O185 Ho160 2.669 . S
O185 Ho161 2.305 . S
O185 C170 1.256 . S
O186 Ho161 2.322 . S
O186 C171 1.259 . S
O187 Ho160 2.346 . S
O187 C171 1.268 . S
O188 Ho161 2.378 . S
O188 C172 1.215 . S
O189 Ho161 2.524 . S
O189 C172 1.289 . S
O190 Ho161 2.381 . S
O190 C179 1.275 . S
O191 Ho160 2.305 . S
O191 Ho161 2.669 . S
O191 C179 1.256 . S
H192 C165 0.930 . S
H193 C166 0.931 . S
H194 C168 0.934 . S
H195 C169 0.930 . S
H196 C174 0.930 . S
H197 C175 0.931 . S
H198 C177 0.934 . S
H199 C178 0.930 . S
Ho200 C203 2.811 . S
Ho200 O220 2.322 . S
Ho200 O222 2.378 . S
Ho200 O223 2.524 . S
Ho200 O224 2.381 . S
Ho200 O225 2.669 . S
Ho200 O227 2.346 . S
Ho200 O231 2.305 . S
Ho201 C212 2.811 . S
Ho201 O221 2.346 . S
Ho201 O225 2.305 . S
Ho201 O226 2.322 . S
Ho201 O228 2.378 . S
Ho201 O229 2.524 . S
Ho201 O230 2.381 . S
Ho201 O231 2.669 . S
C202 O220 1.259 . S
C202 O221 1.268 . S
C203 Ho200 2.811 . S
C203 C204 1.488 . S
C203 O222 1.215 . S
C203 O223 1.289 . S
C204 C203 1.488 . S
C204 C205 1.348 . S
C204 C209 1.413 . S
C205 C204 1.348 . S
C205 C206 1.442 . S
C205 H232 0.930 . S
C206 C205 1.442 . S
C206 C207 1.381 . S
C206 H233 0.931 . S
C207 C206 1.381 . S
C207 C208 1.321 . S
C208 C207 1.321 . S
C208 C209 1.403 . S
C208 H234 0.934 1_455 S
C209 C204 1.413 . S
C209 C208 1.403 . S
C209 H235 0.930 . S
C210 O224 1.275 . S
C210 O225 1.256 . S
C211 O226 1.259 . S
C211 O227 1.268 . S
C212 Ho201 2.811 . S
C212 C213 1.488 . S
C212 O228 1.215 . S
C212 O229 1.289 . S
C213 C212 1.488 . S
C213 C214 1.348 1_565 S
C213 C218 1.413 . S
C214 C213 1.348 1_545 S
C214 C215 1.442 . S
C214 H236 0.930 . S
C215 C214 1.442 . S
C215 C216 1.381 . S
C215 H237 0.931 . S
C216 C215 1.381 . S
C216 C217 1.321 1_545 S
C217 C216 1.321 1_565 S
C217 C218 1.403 . S
C217 H238 0.934 . S
C218 C213 1.413 . S
C218 C217 1.403 . S
C218 H239 0.930 . S
C219 O230 1.275 . S
C219 O231 1.256 . S
O220 Ho200 2.322 . S
O220 C202 1.259 . S
O221 Ho201 2.346 . S
O221 C202 1.268 . S
O222 Ho200 2.378 . S
O222 C203 1.215 . S
O223 Ho200 2.524 . S
O223 C203 1.289 . S
O224 Ho200 2.381 . S
O224 C210 1.275 . S
O225 Ho200 2.669 . S
O225 Ho201 2.305 . S
O225 C210 1.256 . S
O226 Ho201 2.322 . S
O226 C211 1.259 . S
O227 Ho200 2.346 . S
O227 C211 1.268 . S
O228 Ho201 2.378 . S
O228 C212 1.215 . S
O229 Ho201 2.524 . S
O229 C212 1.289 . S
O230 Ho201 2.381 . S
O230 C219 1.275 . S
O231 Ho200 2.305 . S
O231 Ho201 2.669 . S
O231 C219 1.256 . S
H232 C205 0.930 . S
H233 C206 0.931 . S
H234 C208 0.934 1_655 S
H235 C209 0.930 . S
H236 C214 0.930 . S
H237 C215 0.931 . S
H238 C217 0.934 . S
H239 C218 0.930 . S
C240 C241 1.387 . S
C240 C242 1.383 1_565 S
C240 H256 0.951 . S
C241 C240 1.387 . S
C241 C245 1.383 1_565 S
C242 C240 1.383 1_545 S
C242 C243 1.402 1_655 S
C242 H257 0.951 1_645 S
C243 C242 1.402 1_455 S
C243 C244 1.375 1_455 S
C243 C246 1.481 . S
C244 C243 1.375 1_655 S
C244 C245 1.367 . S
C244 H258 0.954 . S
C245 C241 1.383 1_545 S
C245 C244 1.367 . S
C245 H259 0.950 1_556 S
C246 C243 1.481 . S
C246 C247 1.297 . S
C246 H260 0.950 . S
C247 C246 1.297 . S
C247 C248 1.479 . S
C247 H261 0.950 . S
C248 C247 1.479 . S
C248 C249 1.375 . S
C248 C254 1.404 . S
C249 C248 1.375 . S
C249 C250 1.369 . S
C249 H262 0.950 . S
C250 C249 1.369 . S
C250 C251 1.392 . S
C250 H263 0.951 . S
C251 C250 1.392 . S
C251 C253 1.384 . S
H252 C254 0.949 . S
C253 C251 1.384 . S
C253 C254 1.385 . S
C253 H255 0.950 . S
C254 C248 1.404 . S
C254 H252 0.949 . S
C254 C253 1.385 . S
H255 C253 0.950 . S
H256 C240 0.951 . S
H257 C242 0.951 1_465 S
H258 C244 0.954 . S
H259 C245 0.950 1_554 S
H260 C246 0.950 . S
H261 C247 0.950 . S
H262 C249 0.950 . S
H263 C250 0.951 . S
C264 C265 1.386 1_455 S
C264 C266 1.383 . S
C264 H280 0.951 . S
C265 C264 1.386 1_655 S
C265 C269 1.383 . S
C266 C264 1.383 . S
C266 C267 1.402 1_565 S
C266 H281 0.951 1_565 S
C267 C266 1.402 1_545 S
C267 C268 1.375 1_445 S
C267 C270 1.481 . S
C268 C267 1.375 1_665 S
C268 C269 1.367 . S
C268 H282 0.951 . S
C269 C265 1.383 . S
C269 C268 1.367 . S
C269 H283 0.950 . S
C270 C267 1.481 . S
C270 C271 1.297 . S
C270 H284 0.950 . S
C271 C270 1.297 . S
C271 C272 1.479 . S
C271 H285 0.950 . S
C272 C271 1.479 . S
C272 C273 1.375 . S
C272 C278 1.404 . S
C273 C272 1.375 . S
C273 C274 1.369 . S
C273 H286 0.950 . S
C274 C273 1.369 . S
C274 C275 1.392 . S
C274 H287 0.951 . S
C275 C274 1.392 . S
C275 C277 1.384 . S
H276 C278 0.949 . S
C277 C275 1.384 . S
C277 C278 1.385 . S
C277 H279 0.950 . S
C278 C272 1.404 . S
C278 H276 0.949 . S
C278 C277 1.385 . S
H279 C277 0.950 . S
H280 C264 0.951 . S
H281 C266 0.951 1_545 S
H282 C268 0.951 . S
H283 C269 0.950 . S
H284 C270 0.950 . S
H285 C271 0.950 . S
H286 C273 0.950 . S
H287 C274 0.951 . S
C288 C289 1.385 . S
C288 C290 1.383 1_565 S
C288 H304 0.951 . S
C289 C288 1.385 . S
C289 C293 1.377 1_565 S
C290 C288 1.383 1_545 S
C290 C291 1.402 . S
C290 H305 0.951 . S
C291 C290 1.402 . S
C291 C292 1.375 . S
C291 C294 1.481 . S
C292 C291 1.375 . S
C292 C293 1.367 . S
C292 H306 0.951 . S
C293 C289 1.377 1_545 S
C293 C292 1.367 . S
C293 H307 0.950 . S
C294 C291 1.481 . S
C294 C295 1.297 . S
C294 H308 0.950 . S
C295 C294 1.297 . S
C295 C296 1.479 . S
C295 H309 0.950 . S
C296 C295 1.479 . S
C296 C297 1.375 1_455 S
C296 C302 1.404 . S
C297 C296 1.375 1_655 S
C297 C298 1.369 . S
C297 H310 0.950 . S
C298 C297 1.369 . S
C298 C299 1.392 . S
C298 H311 0.951 . S
C299 C298 1.392 . S
C299 C301 1.384 1_655 S
H300 C302 0.949 . S
C301 C299 1.384 1_455 S
C301 C302 1.385 . S
C301 H303 0.950 . S
C302 C296 1.404 . S
C302 H300 0.949 . S
C302 C301 1.385 . S
H303 C301 0.950 . S
H304 C288 0.951 . S
H305 C290 0.951 . S
H306 C292 0.951 . S
H307 C293 0.950 . S
H308 C294 0.950 . S
H309 C295 0.950 . S
H310 C297 0.950 . S
H311 C298 0.951 . S
C312 C313 1.386 . S
C312 C314 1.383 . S
C312 H328 0.951 . S
C313 C312 1.386 . S
C313 C317 1.383 . S
C314 C312 1.383 . S
C314 C315 1.402 . S
C314 H329 0.951 . S
C315 C314 1.402 . S
C315 C316 1.375 . S
C315 C318 1.481 . S
C316 C315 1.375 . S
C316 C317 1.367 . S
C316 H330 0.951 . S
C317 C313 1.383 . S
C317 C316 1.367 . S
C317 H331 0.950 . S
C318 C315 1.481 . S
C318 C319 1.297 . S
C318 H332 0.950 . S
C319 C318 1.297 . S
C319 C320 1.479 . S
C319 H333 0.950 . S
C320 C319 1.479 . S
C320 C321 1.375 . S
C320 C326 1.404 . S
C321 C320 1.375 . S
C321 C322 1.369 . S
C321 H334 0.950 . S
C322 C321 1.369 . S
C322 C323 1.392 . S
C322 H335 0.951 . S
C323 C322 1.392 . S
C323 C325 1.384 . S
H324 C326 0.949 . S
C325 C323 1.384 . S
C325 C326 1.385 . S
C325 H327 0.950 . S
C326 C320 1.404 . S
C326 H324 0.949 . S
C326 C325 1.385 . S
H327 C325 0.950 . S
H328 C312 0.951 . S
H329 C314 0.951 . S
H330 C316 0.951 . S
H331 C317 0.950 . S
H332 C318 0.950 . S
H333 C319 0.950 . S
H334 C321 0.950 . S
H335 C322 0.951 . S
C336 C337 1.386 . S
C336 C338 1.383 . S
C336 H352 0.951 . S
C337 C336 1.386 . S
C337 C341 1.383 . S
C338 C336 1.383 . S
C338 C339 1.402 . S
C338 H353 0.951 . S
C339 C338 1.402 . S
C339 C340 1.375 . S
C339 C342 1.481 . S
C340 C339 1.375 . S
C340 C341 1.367 . S
C340 H354 0.951 . S
C341 C337 1.383 . S
C341 C340 1.367 . S
C341 H355 0.950 . S
C342 C339 1.481 . S
C342 C343 1.297 . S
C342 H356 0.950 1_455 S
C343 C342 1.297 . S
C343 C344 1.479 1_455 S
C343 H357 0.950 . S
C344 C343 1.479 1_655 S
C344 C345 1.375 . S
C344 C350 1.404 . S
C345 C344 1.375 . S
C345 C346 1.369 . S
C345 H358 0.950 1_655 S
C346 C345 1.369 . S
C346 C347 1.392 . S
C346 H359 0.951 . S
C347 C346 1.392 . S
C347 C349 1.384 . S
H348 C350 0.949 . S
C349 C347 1.384 . S
C349 C350 1.385 . S
C349 H351 0.950 . S
C350 C344 1.404 . S
C350 H348 0.949 . S
C350 C349 1.385 . S
H351 C349 0.950 . S
H352 C336 0.951 . S
H353 C338 0.951 . S
H354 C340 0.951 . S
H355 C341 0.950 . S
H356 C342 0.950 1_655 S
H357 C343 0.950 . S
H358 C345 0.950 1_455 S
H359 C346 0.951 . S
C360 C361 1.386 . S
C360 C362 1.383 . S
C360 H376 0.951 . S
C361 C360 1.386 . S
C361 C365 1.383 . S
C362 C360 1.383 . S
C362 C363 1.402 . S
C362 H377 0.951 . S
C363 C362 1.402 . S
C363 C364 1.375 . S
C363 C366 1.481 . S
C364 C363 1.375 . S
C364 C365 1.367 . S
C364 H378 0.951 . S
C365 C361 1.383 . S
C365 C364 1.367 . S
C365 H379 0.950 . S
C366 C363 1.481 . S
C366 C367 1.297 . S
C366 H380 0.950 1_545 S
C367 C366 1.297 . S
C367 C368 1.479 1_545 S
C367 H381 0.950 . S
C368 C367 1.479 1_565 S
C368 C369 1.375 . S
C368 C374 1.404 . S
C369 C368 1.375 . S
C369 C370 1.369 . S
C369 H382 0.950 1_565 S
C370 C369 1.369 . S
C370 C371 1.392 . S
C370 H383 0.951 . S
C371 C370 1.392 . S
C371 C373 1.384 . S
H372 C374 0.949 . S
C373 C371 1.384 . S
C373 C374 1.385 . S
C373 H375 0.950 . S
C374 C368 1.404 . S
C374 H372 0.949 . S
C374 C373 1.385 . S
H375 C373 0.950 . S
H376 C360 0.951 . S
H377 C362 0.951 . S
H378 C364 0.951 . S
H379 C365 0.950 . S
H380 C366 0.950 1_565 S
H381 C367 0.950 . S
H382 C369 0.950 1_545 S
H383 C370 0.951 . S
C384 C385 1.386 . S
C384 C386 1.383 . S
C384 H400 0.951 . S
C385 C384 1.386 . S
C385 C389 1.383 . S
C386 C384 1.383 . S
C386 C387 1.402 . S
C386 H401 0.951 . S
C387 C386 1.402 . S
C387 C388 1.375 . S
C387 C390 1.481 . S
C388 C387 1.375 . S
C388 C389 1.367 . S
C388 H402 0.951 . S
C389 C385 1.383 . S
C389 C388 1.367 . S
C389 H403 0.950 . S
C390 C387 1.481 . S
C390 C391 1.297 . S
C390 H404 0.950 . S
C391 C390 1.297 . S
C391 C392 1.479 . S
C391 H405 0.950 . S
C392 C391 1.479 . S
C392 C393 1.375 . S
C392 C398 1.404 . S
C393 C392 1.375 . S
C393 C394 1.369 1_655 S
C393 H406 0.950 1_655 S
C394 C393 1.369 1_455 S
C394 C395 1.392 . S
C394 H407 0.951 . S
C395 C394 1.392 . S
C395 C397 1.384 1_455 S
H396 C398 0.949 . S
C397 C395 1.384 1_655 S
C397 C398 1.385 . S
C397 H399 0.950 . S
C398 C392 1.404 . S
C398 H396 0.949 . S
C398 C397 1.385 . S
H399 C397 0.950 . S
H400 C384 0.951 . S
H401 C386 0.951 . S
H402 C388 0.951 . S
H403 C389 0.950 . S
H404 C390 0.950 . S
H405 C391 0.950 . S
H406 C393 0.950 1_455 S
H407 C394 0.951 . S
C408 C409 1.386 . S
C408 C410 1.383 . S
C408 H424 0.951 . S
C409 C408 1.386 . S
C409 C413 1.388 . S
C410 C408 1.383 . S
C410 C411 1.402 . S
C410 H425 0.951 . S
C411 C410 1.402 . S
C411 C412 1.375 . S
C411 C414 1.481 . S
C412 C411 1.375 . S
C412 C413 1.370 . S
C412 H426 0.951 . S
C413 C409 1.388 . S
C413 C412 1.370 . S
C413 H427 0.941 1_455 S
C414 C411 1.481 . S
C414 C415 1.297 . S
C414 H428 0.950 . S
C415 C414 1.297 . S
C415 C416 1.479 . S
C415 H429 0.950 . S
C416 C415 1.479 . S
C416 C417 1.375 . S
C416 C422 1.404 . S
C417 C416 1.375 . S
C417 C418 1.369 . S
C417 H430 0.950 . S
C418 C417 1.369 . S
C418 C419 1.392 1_565 S
C418 H431 0.951 . S
C419 C418 1.392 1_545 S
C419 C421 1.384 . S
H420 C422 0.949 . S
C421 C419 1.384 . S
C421 C422 1.385 1_545 S
C421 H423 0.950 . S
C422 C416 1.404 . S
C422 H420 0.949 . S
C422 C421 1.385 1_565 S
H423 C421 0.950 . S
H424 C408 0.951 . S
H425 C410 0.951 . S
H426 C412 0.951 . S
H427 C413 0.941 1_655 S
H428 C414 0.950 . S
H429 C415 0.950 . S
H430 C417 0.950 . S
H431 C418 0.951 . S
C432 C433 1.386 . S
C432 C434 1.383 . S
C432 H448 0.951 . S
C433 C432 1.386 . S
C433 C437 1.383 1_545 S
C434 C432 1.383 . S
C434 C435 1.402 . S
C434 H449 0.951 . S
C435 C434 1.402 . S
C435 C436 1.375 . S
C435 C438 1.481 . S
C436 C435 1.375 . S
C436 C437 1.367 1_545 S
C436 H450 0.951 . S
C437 C433 1.383 1_565 S
C437 C436 1.367 1_565 S
C437 H451 0.950 . S
C438 C435 1.481 . S
C438 C439 1.297 . S
C438 H452 0.950 . S
C439 C438 1.297 . S
C439 C440 1.479 . S
C439 H453 0.950 . S
C440 C439 1.479 . S
C440 C441 1.375 . S
C440 C446 1.404 . S
C441 C440 1.375 . S
C441 C442 1.369 . S
C441 H454 0.950 . S
C442 C441 1.369 . S
C442 C443 1.392 . S
C442 H455 0.951 . S
C443 C442 1.392 . S
C443 C445 1.384 . S
H444 C446 0.949 . S
C445 C443 1.384 . S
C445 C446 1.385 . S
C445 H447 0.950 . S
C446 C440 1.404 . S
C446 H444 0.949 . S
C446 C445 1.385 . S
H447 C445 0.950 . S
H448 C432 0.951 . S
H449 C434 0.951 . S
H450 C436 0.951 . S
H451 C437 0.950 . S
H452 C438 0.950 . S
H453 C439 0.950 . S
H454 C441 0.950 . S
H455 C442 0.951 . S
C456 C457 1.386 . S
C456 C458 1.383 . S
C456 H472 0.951 . S
C457 C456 1.386 . S
C457 C461 1.383 1_554 S
C458 C456 1.383 . S
C458 C459 1.402 . S
C458 H473 0.951 . S
C459 C458 1.402 . S
C459 C460 1.375 1_554 S
C459 C462 1.482 . S
C460 C459 1.375 1_556 S
C460 C461 1.367 . S
C460 H474 0.951 . S
C461 C457 1.383 1_556 S
C461 C460 1.367 . S
C461 H475 0.950 . S
C462 C459 1.482 . S
C462 C463 1.304 . S
C462 H476 0.942 1_554 S
C463 C462 1.304 . S
C463 C464 1.479 . S
C463 H477 0.950 . S
C464 C463 1.479 . S
C464 C465 1.375 . S
C464 C470 1.404 1_554 S
C465 C464 1.375 . S
C465 C466 1.369 . S
C465 H478 0.950 . S
C466 C465 1.369 . S
C466 C467 1.392 1_545 S
C466 H479 0.951 . S
C467 C466 1.392 1_565 S
C467 C469 1.384 1_554 S
H468 C470 0.947 . S
C469 C467 1.384 1_556 S
C469 C470 1.385 1_565 S
C469 H471 0.950 . S
C470 C464 1.404 1_556 S
C470 H468 0.947 . S
C470 C469 1.385 1_545 S
H471 C469 0.950 . S
H472 C456 0.951 . S
H473 C458 0.951 . S
H474 C460 0.951 . S
H475 C461 0.950 . S
H476 C462 0.942 1_556 S
H477 C463 0.950 . S
H478 C465 0.950 . S
H479 C466 0.951 . S
C480 C481 1.386 . S
C480 C482 1.383 . S
C480 H496 0.951 . S
C481 C480 1.386 . S
C481 C485 1.383 . S
C482 C480 1.383 . S
C482 C483 1.402 . S
C482 H497 0.951 . S
C483 C482 1.402 . S
C483 C484 1.375 . S
C483 C486 1.481 . S
C484 C483 1.375 . S
C484 C485 1.367 . S
C484 H498 0.951 . S
C485 C481 1.383 . S
C485 C484 1.367 . S
C485 H499 0.950 . S
C486 C483 1.481 . S
C486 C487 1.297 . S
C486 H500 0.950 . S
C487 C486 1.297 . S
C487 C488 1.479 . S
C487 H501 0.950 . S
C488 C487 1.479 . S
C488 C489 1.375 . S
C488 C494 1.404 . S
C489 C488 1.375 . S
C489 C490 1.369 . S
C489 H502 0.950 . S
C490 C489 1.369 . S
C490 C491 1.392 . S
C490 H503 0.951 . S
C491 C490 1.392 . S
C491 C493 1.384 . S
H492 C494 0.949 . S
C493 C491 1.384 . S
C493 C494 1.385 . S
C493 H495 0.950 . S
C494 C488 1.404 . S
C494 H492 0.949 . S
C494 C493 1.385 . S
H495 C493 0.950 . S
H496 C480 0.951 . S
H497 C482 0.951 . S
H498 C484 0.951 . S
H499 C485 0.950 . S
H500 C486 0.950 . S
H501 C487 0.950 . S
H502 C489 0.950 . S
H503 C490 0.951 . S
C504 C505 1.386 . S
C504 C506 1.383 1_655 S
C504 H520 0.951 . S
C505 C504 1.386 . S
C505 C509 1.383 1_655 S
C506 C504 1.383 1_455 S
C506 C507 1.402 . S
C506 H521 0.944 1_455 S
C507 C506 1.402 . S
C507 C508 1.375 . S
C507 C510 1.481 . S
C508 C507 1.375 . S
C508 C509 1.367 . S
C508 H522 0.951 . S
C509 C505 1.383 1_455 S
C509 C508 1.367 . S
C509 H523 0.950 . S
C510 C507 1.481 . S
C510 C511 1.297 . S
C510 H524 0.950 . S
C511 C510 1.297 . S
C511 C512 1.479 . S
C511 H525 0.950 . S
C512 C511 1.479 . S
C512 C513 1.375 . S
C512 C518 1.404 . S
C513 C512 1.375 . S
C513 C514 1.369 . S
C513 H526 0.950 . S
C514 C513 1.369 . S
C514 C515 1.392 . S
C514 H527 0.951 . S
C515 C514 1.392 . S
C515 C517 1.384 . S
H516 C518 0.949 . S
C517 C515 1.384 . S
C517 C518 1.385 . S
C517 H519 0.950 . S
C518 C512 1.404 . S
C518 H516 0.949 . S
C518 C517 1.385 . S
H519 C517 0.950 . S
H520 C504 0.951 . S
H521 C506 0.944 1_655 S
H522 C508 0.951 . S
H523 C509 0.950 . S
H524 C510 0.950 . S
H525 C511 0.950 . S
H526 C513 0.950 . S
H527 C514 0.951 . S
C528 C529 1.386 . S
C528 C530 1.383 . S
C528 H544 0.951 . S
C529 C528 1.386 . S
C529 C533 1.383 . S
C530 C528 1.383 . S
C530 C531 1.402 . S
C530 H545 0.951 . S
C531 C530 1.402 . S
C531 C532 1.375 . S
C531 C534 1.481 . S
C532 C531 1.375 . S
C532 C533 1.367 . S
C532 H546 0.951 . S
C533 C529 1.383 . S
C533 C532 1.367 . S
C533 H547 0.950 . S
C534 C531 1.481 . S
C534 C535 1.297 . S
C534 H548 0.950 . S
C535 C534 1.297 . S
C535 C536 1.479 . S
C535 H549 0.950 . S
C536 C535 1.479 . S
C536 C537 1.375 . S
C536 C542 1.404 . S
C537 C536 1.375 . S
C537 C538 1.369 . S
C537 H550 0.950 . S
C538 C537 1.369 . S
C538 C539 1.392 . S
C538 H551 0.951 . S
C539 C538 1.392 . S
C539 C541 1.384 . S
H540 C542 0.949 . S
C541 C539 1.384 . S
C541 C542 1.385 . S
C541 H543 0.950 . S
C542 C536 1.404 . S
C542 H540 0.949 . S
C542 C541 1.385 . S
H543 C541 0.950 . S
H544 C528 0.951 . S
H545 C530 0.951 . S
H546 C532 0.951 . S
H547 C533 0.950 . S
H548 C534 0.950 . S
H549 C535 0.950 . S
H550 C537 0.950 . S
H551 C538 0.951 . S
C552 C553 1.386 . S
C552 C554 1.383 . S
C552 H568 0.951 . S
C553 C552 1.386 . S
C553 C557 1.383 . S
C554 C552 1.383 . S
C554 C555 1.402 . S
C554 H569 0.951 . S
C555 C554 1.402 . S
C555 C556 1.375 . S
C555 C558 1.481 . S
C556 C555 1.375 . S
C556 C557 1.367 . S
C556 H570 0.951 . S
C557 C553 1.383 . S
C557 C556 1.367 . S
C557 H571 0.950 . S
C558 C555 1.481 . S
C558 C559 1.297 . S
C558 H572 0.950 . S
C559 C558 1.297 . S
C559 C560 1.479 . S
C559 H573 0.950 . S
C560 C559 1.479 . S
C560 C561 1.375 . S
C560 C566 1.404 . S
C561 C560 1.375 . S
C561 C562 1.369 . S
C561 H574 0.950 . S
C562 C561 1.369 . S
C562 C563 1.392 . S
C562 H575 0.951 . S
C563 C562 1.392 . S
C563 C565 1.384 . S
H564 C566 0.949 . S
C565 C563 1.384 . S
C565 C566 1.385 . S
C565 H567 0.950 . S
C566 C560 1.404 . S
C566 H564 0.949 . S
C566 C565 1.385 . S
H567 C565 0.950 . S
H568 C552 0.951 . S
H569 C554 0.951 . S
H570 C556 0.951 . S
H571 C557 0.950 . S
H572 C558 0.950 . S
H573 C559 0.950 . S
H574 C561 0.950 . S
H575 C562 0.951 . S
C576 C577 1.386 . S
C576 C578 1.383 . S
C576 H592 0.951 . S
C577 C576 1.386 . S
C577 C581 1.383 . S
C578 C576 1.383 . S
C578 C579 1.402 . S
C578 H593 0.951 . S
C579 C578 1.402 . S
C579 C580 1.375 . S
C579 C582 1.481 . S
C580 C579 1.375 . S
C580 C581 1.367 . S
C580 H594 0.951 . S
C581 C577 1.383 . S
C581 C580 1.367 . S
C581 H595 0.950 . S
C582 C579 1.481 . S
C582 C583 1.297 . S
C582 H596 0.950 . S
C583 C582 1.297 . S
C583 C584 1.479 . S
C583 H597 0.950 . S
C584 C583 1.479 . S
C584 C585 1.375 . S
C584 C590 1.404 . S
C585 C584 1.375 . S
C585 C586 1.369 . S
C585 H598 0.950 . S
C586 C585 1.369 . S
C586 C587 1.392 . S
C586 H599 0.951 . S
C587 C586 1.392 . S
C587 C589 1.384 . S
H588 C590 0.949 . S
C589 C587 1.384 . S
C589 C590 1.385 . S
C589 H591 0.950 . S
C590 C584 1.404 . S
C590 H588 0.949 . S
C590 C589 1.385 . S
H591 C589 0.950 . S
H592 C576 0.951 . S
H593 C578 0.951 . S
H594 C580 0.951 . S
H595 C581 0.950 . S
H596 C582 0.950 . S
H597 C583 0.950 . S
H598 C585 0.950 . S
H599 C586 0.951 . S
C600 C601 1.386 . S
C600 C602 1.383 . S
C600 H616 0.951 . S
C601 C600 1.386 . S
C601 C605 1.383 . S
C602 C600 1.383 . S
C602 C603 1.402 . S
C602 H617 0.951 . S
C603 C602 1.402 . S
C603 C604 1.375 . S
C603 C606 1.481 . S
C604 C603 1.375 . S
C604 C605 1.367 . S
C604 H618 0.951 . S
C605 C601 1.383 . S
C605 C604 1.367 . S
C605 H619 0.950 . S
C606 C603 1.481 . S
C606 C607 1.297 . S
C606 H620 0.950 . S
C607 C606 1.297 . S
C607 C608 1.479 . S
C607 H621 0.950 . S
C608 C607 1.479 . S
C608 C609 1.375 . S
C608 C614 1.404 . S
C609 C608 1.375 . S
C609 C610 1.369 . S
C609 H622 0.950 . S
C610 C609 1.369 . S
C610 C611 1.392 . S
C610 H623 0.951 . S
C611 C610 1.392 . S
C611 C613 1.384 . S
H612 C614 0.949 . S
C613 C611 1.384 . S
C613 C614 1.385 . S
C613 H615 0.950 . S
C614 C608 1.404 . S
C614 H612 0.949 . S
C614 C613 1.385 . S
H615 C613 0.950 . S
H616 C600 0.951 . S
H617 C602 0.951 . S
H618 C604 0.951 . S
H619 C605 0.950 . S
H620 C606 0.950 . S
H621 C607 0.950 . S
H622 C609 0.950 . S
H623 C610 0.951 . S
C624 C625 1.386 . S
C624 C626 1.383 1_655 S
C624 H640 0.951 . S
C625 C624 1.386 . S
C625 C629 1.383 . S
C626 C624 1.383 1_455 S
C626 C627 1.402 . S
C626 H641 0.951 . S
C627 C626 1.402 . S
C627 C628 1.375 . S
C627 C630 1.481 . S
C628 C627 1.375 . S
C628 C629 1.367 1_455 S
C628 H642 0.951 . S
C629 C625 1.383 . S
C629 C628 1.367 1_655 S
C629 H643 0.950 . S
C630 C627 1.481 . S
C630 C631 1.297 . S
C630 H644 0.950 . S
C631 C630 1.297 . S
C631 C632 1.479 . S
C631 H645 0.950 . S
C632 C631 1.479 . S
C632 C633 1.375 . S
C632 C638 1.404 . S
C633 C632 1.375 . S
C633 C634 1.369 . S
C633 H646 0.950 . S
C634 C633 1.369 . S
C634 C635 1.392 . S
C634 H647 0.951 . S
C635 C634 1.392 . S
C635 C637 1.384 . S
H636 C638 0.949 . S
C637 C635 1.384 . S
C637 C638 1.385 . S
C637 H639 0.950 . S
C638 C632 1.404 . S
C638 H636 0.949 . S
C638 C637 1.385 . S
H639 C637 0.950 . S
H640 C624 0.951 . S
H641 C626 0.951 . S
H642 C628 0.951 . S
H643 C629 0.950 . S
H644 C630 0.950 . S
H645 C631 0.950 . S
H646 C633 0.950 . S
H647 C634 0.951 . S
C648 C649 1.386 . S
C648 C650 1.383 . S
C648 H664 0.951 . S
C649 C648 1.386 . S
C649 C653 1.383 1_565 S
C650 C648 1.383 . S
C650 C651 1.402 1_565 S
C650 H665 0.951 . S
C651 C650 1.402 1_545 S
C651 C652 1.375 . S
C651 C654 1.481 . S
C652 C651 1.375 . S
C652 C653 1.367 . S
C652 H666 0.951 . S
C653 C649 1.383 1_545 S
C653 C652 1.367 . S
C653 H667 0.950 . S
C654 C651 1.481 . S
C654 C655 1.297 . S
C654 H668 0.950 . S
C655 C654 1.297 . S
C655 C656 1.479 . S
C655 H669 0.950 1_545 S
C656 C655 1.479 . S
C656 C657 1.375 . S
C656 C662 1.404 . S
C657 C656 1.375 . S
C657 C658 1.369 . S
C657 H670 0.950 1_545 S
C658 C657 1.369 . S
C658 C659 1.392 . S
C658 H671 0.951 . S
C659 C658 1.392 . S
C659 C661 1.384 . S
H660 C662 0.949 . S
C661 C659 1.384 . S
C661 C662 1.385 . S
C661 H663 0.950 . S
C662 C656 1.404 . S
C662 H660 0.949 . S
C662 C661 1.385 . S
H663 C661 0.950 . S
H664 C648 0.951 . S
H665 C650 0.951 . S
H666 C652 0.951 . S
H667 C653 0.950 . S
H668 C654 0.950 . S
H669 C655 0.950 1_565 S
H670 C657 0.950 1_565 S
H671 C658 0.951 . S
C241 C130 0.724 1_566 S
C251 C10 0.843 1_556 S
C265 C170 0.763 . S
C275 C50 0.786 . S
C289 C210 0.839 . S
C299 C90 0.711 1_655 S
C313 C16 0.569 . S
C323 C87 0.689 . S
C337 C56 0.532 . S
C347 C127 0.573 . S
C361 C96 0.548 . S
C371 C167 0.648 . S
C385 C136 0.655 . S
C395 C207 0.765 . S
C409 C176 0.688 . S
C419 C7 0.523 . S
C433 C216 0.721 . S
C443 C47 0.602 . S
C457 C19 1.070 . S
C467 C139 1.124 . S
C481 C59 1.098 . S
C491 C179 1.052 . S
C505 C99 1.114 . S
C515 C219 1.099 . S
C529 C2 3.971 . S
C539 C51 4.022 . S
C553 C42 3.971 . S
C563 C91 4.022 . S
C577 C82 3.971 . S
C587 C131 4.010 . S
C601 C122 3.970 . S
C611 C171 4.021 . S
C625 C162 3.965 . S
C635 C211 4.013 . S
C649 C202 3.973 . S
C659 C11 4.010 . S
