# Generated by pormake.
# Topology uol, (4)-cn, num edge types: 1
# Building blocks:
#     Node 0, Type 0, BuildingBlock: CEKHIL_clean_sbu_0, # of connection points: 4
#     Node 1, Type 0, BuildingBlock: CEKHIL_clean_sbu_0, # of connection points: 4
#     Node 2, Type 0, BuildingBlock: CEKHIL_clean_sbu_0, # of connection points: 4
#     Node 3, Type 0, BuildingBlock: CEKHIL_clean_sbu_0, # of connection points: 4
#     Node 4, Type 0, BuildingBlock: CEKHIL_clean_sbu_0, # of connection points: 4
#     Node 5, Type 0, BuildingBlock: CEKHIL_clean_sbu_0, # of connection points: 4
#     Node 6, Type 0, BuildingBlock: CEKHIL_clean_sbu_0, # of connection points: 4
#     Node 7, Type 0, BuildingBlock: CEKHIL_clean_sbu_0, # of connection points: 4
#     Node 8, Type 0, BuildingBlock: CEKHIL_clean_sbu_0, # of connection points: 4
#     Node 9, Type 0, BuildingBlock: CEKHIL_clean_sbu_0, # of connection points: 4
#     Node 10, Type 0, BuildingBlock: CEKHIL_clean_sbu_0, # of connection points: 4
#     Node 11, Type 0, BuildingBlock: CEKHIL_clean_sbu_0, # of connection points: 4
#     Edge 12, Type (0, 0), BuildingBlock: CIFDUS_clean_linker_0, # of connection points: 2
#     Edge 13, Type (0, 0), BuildingBlock: CIFDUS_clean_linker_0, # of connection points: 2
#     Edge 14, Type (0, 0), BuildingBlock: CIFDUS_clean_linker_0, # of connection points: 2
#     Edge 15, Type (0, 0), BuildingBlock: CIFDUS_clean_linker_0, # of connection points: 2
#     Edge 16, Type (0, 0), BuildingBlock: CIFDUS_clean_linker_0, # of connection points: 2
#     Edge 17, Type (0, 0), BuildingBlock: CIFDUS_clean_linker_0, # of connection points: 2
#     Edge 18, Type (0, 0), BuildingBlock: CIFDUS_clean_linker_0, # of connection points: 2
#     Edge 19, Type (0, 0), BuildingBlock: CIFDUS_clean_linker_0, # of connection points: 2
#     Edge 20, Type (0, 0), BuildingBlock: CIFDUS_clean_linker_0, # of connection points: 2
#     Edge 21, Type (0, 0), BuildingBlock: CIFDUS_clean_linker_0, # of connection points: 2
#     Edge 22, Type (0, 0), BuildingBlock: CIFDUS_clean_linker_0, # of connection points: 2
#     Edge 23, Type (0, 0), BuildingBlock: CIFDUS_clean_linker_0, # of connection points: 2
#     Edge 24, Type (0, 0), BuildingBlock: CIFDUS_clean_linker_0, # of connection points: 2
#     Edge 25, Type (0, 0), BuildingBlock: CIFDUS_clean_linker_0, # of connection points: 2
#     Edge 26, Type (0, 0), BuildingBlock: CIFDUS_clean_linker_0, # of connection points: 2
#     Edge 27, Type (0, 0), BuildingBlock: CIFDUS_clean_linker_0, # of connection points: 2
#     Edge 28, Type (0, 0), BuildingBlock: CIFDUS_clean_linker_0, # of connection points: 2
#     Edge 29, Type (0, 0), BuildingBlock: CIFDUS_clean_linker_0, # of connection points: 2
#     Edge 30, Type (0, 0), BuildingBlock: CIFDUS_clean_linker_0, # of connection points: 2
#     Edge 31, Type (0, 0), BuildingBlock: CIFDUS_clean_linker_0, # of connection points: 2
#     Edge 32, Type (0, 0), BuildingBlock: CIFDUS_clean_linker_0, # of connection points: 2
#     Edge 33, Type (0, 0), BuildingBlock: CIFDUS_clean_linker_0, # of connection points: 2
#     Edge 34, Type (0, 0), BuildingBlock: CIFDUS_clean_linker_0, # of connection points: 2
#     Edge 35, Type (0, 0), BuildingBlock: CIFDUS_clean_linker_0, # of connection points: 2
# Relax obj value: 0.131
# Max RMSD: 0.171
# Mean RMSD: 0.171
data_MOF--net-uol--node1-CEKHIL_clean_sbu_0--edge1-CIFDUS_clean_linker_0
_symmetry_space_group_name_H-M    P1
_symmetry_Int_Tables_number       1
_symmetry_cell_setting            triclinic
loop_
_symmetry_equiv_pos_as_xyz
'x, y, z'
_cell_length_a     28.649475
_cell_length_b     28.636883
_cell_length_c     56.442271
_cell_angle_alpha  90.012511
_cell_angle_beta   90.063793
_cell_angle_gamma 120.15165
loop_
_atom_site_label
_atom_site_type_symbol
_atom_site_fract_x
_atom_site_fract_y
_atom_site_fract_z
_atom_type_partial_charge
Co0 Co 0.15629 0.36507 0.09408 0.0
O1 O 0.12972 0.40914 0.0808 0.0
O2 O 0.18517 0.43202 0.11158 0.0
C3 C 0.17673 0.34257 0.05879 0.0
O4 O 0.19419 0.33181 0.11214 0.0
Co5 Co 0.10403 0.24301 0.08282 0.0
O6 O 0.17173 0.25122 0.09635 0.0
C7 C 0.05441 0.28011 0.11892 0.0
C8 C 0.15838 0.44464 0.09681 0.0
C9 C 0.20034 0.2904 0.11027 0.0
O10 O 0.09272 0.32936 0.1164 0.0
O11 O 0.05052 0.24098 0.10639 0.0
O12 O 0.21039 0.38816 0.06884 0.0
O13 O 0.13125 0.31418 0.06954 0.0
Co14 Co 0.78123 0.12887 0.2551 0.0
O15 O 0.71763 0.10168 0.23552 0.0
O16 O 0.73326 0.15185 0.26766 0.0
C17 C 0.83949 0.15719 0.22421 0.0
O18 O 0.84188 0.16577 0.27936 0.0
Co19 Co 0.86088 0.08559 0.25188 0.0
O20 O 0.90957 0.15044 0.27087 0.0
C21 C 0.76053 0.02669 0.28066 0.0
C22 C 0.70199 0.1267 0.24976 0.0
C23 C 0.88983 0.17403 0.2829 0.0
O24 O 0.74676 0.06209 0.27572 0.0
O25 O 0.80227 0.02778 0.27181 0.0
O26 O 0.82125 0.18745 0.23231 0.0
O27 O 0.82013 0.11049 0.23408 0.0
Co28 Co 0.63108 0.76949 0.42281 0.0
O29 O 0.59388 0.70179 0.4062 0.0
O30 O 0.56009 0.72425 0.43653 0.0
C31 C 0.66029 0.82026 0.38949 0.0
O32 O 0.65696 0.83664 0.44362 0.0
Co33 Co 0.75471 0.8453 0.41751 0.0
O34 O 0.73917 0.90001 0.43104 0.0
C35 C 0.71258 0.75179 0.45039 0.0
C36 C 0.55369 0.68909 0.42035 0.0
C37 C 0.69709 0.88547 0.44354 0.0
O38 O 0.66361 0.73951 0.44585 0.0
O39 O 0.75358 0.79026 0.43993 0.0
O40 O 0.612 0.80401 0.39747 0.0
O41 O 0.68743 0.80269 0.40089 0.0
Co42 Co 0.84425 0.62893 0.59357 0.0
O43 O 0.86959 0.58594 0.57782 0.0
O44 O 0.81705 0.56086 0.60961 0.0
C45 C 0.82085 0.65509 0.55983 0.0
O46 O 0.80796 0.65902 0.61451 0.0
Co47 Co 0.89182 0.75164 0.58561 0.0
O48 O 0.82848 0.74256 0.60378 0.0
C49 C 0.94601 0.7127 0.61878 0.0
C50 C 0.84238 0.54933 0.59368 0.0
C51 C 0.80223 0.70055 0.61649 0.0
O52 O 0.90952 0.66304 0.61518 0.0
O53 O 0.94717 0.75236 0.60772 0.0
O54 O 0.78808 0.60839 0.56923 0.0
O55 O 0.86683 0.68273 0.57031 0.0
Co56 Co 0.21569 0.86683 0.75673 0.0
O57 O 0.27908 0.8947 0.73715 0.0
O58 O 0.26493 0.84593 0.76967 0.0
C59 C 0.15694 0.83657 0.7259 0.0
O60 O 0.15563 0.82984 0.78111 0.0
Co61 Co 0.1347 0.90832 0.75321 0.0
O62 O 0.08715 0.84403 0.77268 0.0
C63 C 0.23542 0.96952 0.78159 0.0
C64 C 0.2959 0.87137 0.75178 0.0
C65 C 0.10761 0.82119 0.78476 0.0
O66 O 0.24946 0.93422 0.77697 0.0
O67 O 0.19328 0.9676 0.7727 0.0
O68 O 0.17619 0.80731 0.73418 0.0
O69 O 0.17568 0.88345 0.73557 0.0
Co70 Co 0.367 0.23612 0.92078 0.0
O71 O 0.40264 0.30194 0.90265 0.0
O72 O 0.4376 0.28393 0.93401 0.0
C73 C 0.33731 0.1812 0.88865 0.0
O74 O 0.34407 0.17316 0.94362 0.0
Co75 Co 0.24397 0.15529 0.9171 0.0
O76 O 0.26045 0.10583 0.93515 0.0
C77 C 0.28454 0.25342 0.94727 0.0
C78 C 0.44295 0.31714 0.91712 0.0
C79 C 0.30437 0.12495 0.94681 0.0
O80 O 0.33387 0.26733 0.94263 0.0
O81 O 0.244 0.21257 0.93768 0.0
O82 O 0.38612 0.19928 0.8965 0.0
O83 O 0.30969 0.19875 0.89959 0.0
Co84 Co 0.64688 0.86141 0.74833 0.0
O85 O 0.61311 0.89254 0.76689 0.0
O86 O 0.58009 0.847 0.73345 0.0
C87 C 0.66534 0.82458 0.77988 0.0
O88 O 0.66857 0.82215 0.7247 0.0
Co89 Co 0.76601 0.89267 0.75558 0.0
O90 O 0.74711 0.82873 0.73544 0.0
C91 C 0.73946 0.96174 0.7257 0.0
C92 C 0.57448 0.87236 0.75136 0.0
C93 C 0.70558 0.80971 0.72216 0.0
O94 O 0.68859 0.92965 0.72911 0.0
O95 O 0.77606 0.95547 0.73579 0.0
O96 O 0.61815 0.79947 0.76986 0.0
O97 O 0.69862 0.87172 0.77143 0.0
Co98 Co 0.79936 0.67498 0.91883 0.0
O99 O 0.73232 0.64074 0.93618 0.0
O100 O 0.74967 0.60647 0.90444 0.0
C101 C 0.85206 0.69875 0.95171 0.0
O102 O 0.86252 0.69566 0.89654 0.0
Co103 Co 0.88735 0.79535 0.92458 0.0
O104 O 0.93384 0.77624 0.90572 0.0
C105 C 0.79085 0.76465 0.89419 0.0
C106 C 0.71636 0.60106 0.92125 0.0
C107 C 0.91191 0.7329 0.89357 0.0
O108 O 0.77325 0.71388 0.8974 0.0
O109 O 0.83265 0.80192 0.90478 0.0
O110 O 0.83196 0.65042 0.94294 0.0
O111 O 0.83826 0.72975 0.94103 0.0
Co112 Co 0.1738 0.80622 0.07714 0.0
O113 O 0.1498 0.73967 0.09422 0.0
O114 O 0.19355 0.76052 0.05997 0.0
C115 C 0.20812 0.86037 0.10933 0.0
O116 O 0.20662 0.86995 0.05437 0.0
Co117 Co 0.13146 0.88431 0.08708 0.0
O118 O 0.19152 0.93579 0.06647 0.0
C119 C 0.06733 0.78772 0.05677 0.0
C120 C 0.17081 0.72604 0.07709 0.0
C121 C 0.21361 0.91778 0.05247 0.0
O122 O 0.10368 0.77416 0.05894 0.0
O123 O 0.06984 0.82834 0.06754 0.0
O124 O 0.23638 0.84324 0.09822 0.0
O125 O 0.1596 0.8422 0.10155 0.0
Co126 Co 0.35835 0.15223 0.24479 0.0
O127 O 0.39344 0.12084 0.26206 0.0
O128 O 0.42548 0.16883 0.22922 0.0
C129 C 0.34067 0.18647 0.27746 0.0
O130 O 0.33382 0.19264 0.2229 0.0
Co131 Co 0.2386 0.11597 0.25423 0.0
O132 O 0.25761 0.18472 0.238 0.0
C133 C 0.26597 0.05078 0.22226 0.0
C134 C 0.4319 0.1427 0.24662 0.0
C135 C 0.29713 0.20604 0.22361 0.0
O136 O 0.31676 0.08476 0.22483 0.0
O137 O 0.22926 0.05476 0.2335 0.0
O138 O 0.38729 0.21285 0.26711 0.0
O139 O 0.30784 0.13939 0.26877 0.0
Co140 Co 0.20022 0.32713 0.41728 0.0
O141 O 0.26622 0.3629 0.43547 0.0
O142 O 0.24879 0.3971 0.40375 0.0
C143 C 0.14566 0.30006 0.44953 0.0
O144 O 0.13765 0.30484 0.39428 0.0
Co145 Co 0.11551 0.20521 0.42191 0.0
O146 O 0.06792 0.22288 0.40302 0.0
C147 C 0.21446 0.24087 0.39265 0.0
C148 C 0.28156 0.40318 0.42097 0.0
C149 C 0.08883 0.26642 0.39104 0.0
O150 O 0.2298 0.29116 0.39598 0.0
O151 O 0.17305 0.20225 0.40282 0.0
O152 O 0.16446 0.34854 0.44117 0.0
O153 O 0.16182 0.27096 0.43889 0.0
Co154 Co 0.82236 0.18608 0.57496 0.0
O155 O 0.84828 0.25499 0.58991 0.0
O156 O 0.8003 0.22908 0.55674 0.0
C157 C 0.79189 0.1379 0.6088 0.0
O158 O 0.7868 0.11737 0.55484 0.0
Co159 Co 0.86978 0.11346 0.58741 0.0
O160 O 0.8039 0.05632 0.57151 0.0
C161 C 0.92826 0.20409 0.55387 0.0
C162 C 0.82508 0.26604 0.57284 0.0
C163 C 0.77888 0.06905 0.55655 0.0
O164 O 0.89035 0.21553 0.55549 0.0
O165 O 0.9288 0.16648 0.56596 0.0
O166 O 0.76234 0.15295 0.59732 0.0
O167 O 0.83984 0.15531 0.60046 0.0
H168 H 0.17267 0.66902 0.11503 0.0
H169 H 0.16361 0.66565 0.03874 0.0
H170 H 0.15687 0.57702 0.03823 0.0
H171 H 0.15346 0.5006 0.05951 0.0
H172 H 0.17136 0.5073 0.13547 0.0
H173 H 0.17487 0.59466 0.13622 0.0
C174 C 0.16917 0.6487 0.09834 0.0
C175 C 0.16822 0.67335 0.07695 0.0
C176 C 0.16694 0.59855 0.09818 0.0
C177 C 0.16451 0.6473 0.05539 0.0
C178 C 0.16052 0.59667 0.05511 0.0
C179 C 0.15799 0.52122 0.07621 0.0
C180 C 0.16159 0.4976 0.09743 0.0
C181 C 0.16164 0.57192 0.07638 0.0
C182 C 0.16847 0.52492 0.11894 0.0
C183 C 0.17037 0.5747 0.11936 0.0
H184 H 0.63936 0.14013 0.2818 0.0
H185 H 0.65284 0.11653 0.20724 0.0
H186 H 0.57181 0.12208 0.19915 0.0
H187 H 0.49645 0.13362 0.21348 0.0
H188 H 0.47939 0.14869 0.28854 0.0
H189 H 0.5622 0.14678 0.29624 0.0
C190 C 0.62449 0.13623 0.2638 0.0
C191 C 0.65203 0.12823 0.24515 0.0
C192 C 0.57719 0.13806 0.25937 0.0
C193 C 0.63208 0.12254 0.22192 0.0
C194 C 0.58588 0.1259 0.21727 0.0
C195 C 0.51117 0.13664 0.23145 0.0
C196 C 0.48224 0.14158 0.2504 0.0
C197 C 0.55806 0.13372 0.23585 0.0
C198 C 0.50105 0.14469 0.27368 0.0
C199 C 0.54841 0.14368 0.27811 0.0
H200 H 0.48991 0.6178 0.4542 0.0
H201 H 0.50405 0.64581 0.37886 0.0
H202 H 0.42028 0.56046 0.37223 0.0
H203 H 0.34324 0.47723 0.38783 0.0
H204 H 0.33361 0.44435 0.46274 0.0
H205 H 0.41524 0.53157 0.46963 0.0
C206 C 0.47426 0.60513 0.43641 0.0
C207 C 0.50246 0.63801 0.41705 0.0
C208 C 0.42711 0.55494 0.43266 0.0
C209 C 0.4827 0.62098 0.394 0.0
C210 C 0.43489 0.57225 0.3902 0.0
C211 C 0.35916 0.48923 0.40563 0.0
C212 C 0.33245 0.45465 0.42475 0.0
C213 C 0.40684 0.53878 0.40938 0.0
C214 C 0.35371 0.47027 0.44772 0.0
C215 C 0.40022 0.52023 0.45168 0.0
H216 H 0.84305 0.49237 0.55539 0.0
H217 H 0.83424 0.48796 0.63169 0.0
H218 H 0.82895 0.40003 0.63188 0.0
H219 H 0.82692 0.32465 0.61041 0.0
H220 H 0.82718 0.32415 0.53405 0.0
H221 H 0.83537 0.4137 0.53368 0.0
C222 C 0.84023 0.4721 0.57201 0.0
C223 C 0.83963 0.49658 0.59352 0.0
C224 C 0.83538 0.42075 0.57193 0.0
C225 C 0.83488 0.46974 0.61495 0.0
C226 C 0.83187 0.41958 0.61506 0.0
C227 C 0.82871 0.34421 0.59369 0.0
C228 C 0.82685 0.31834 0.57228 0.0
C229 C 0.83206 0.39474 0.59368 0.0
C230 C 0.82838 0.34346 0.55073 0.0
C231 C 0.83329 0.39463 0.55054 0.0
H232 H 0.50544 0.87089 0.71787 0.0
H233 H 0.53258 0.87929 0.79331 0.0
H234 H 0.44793 0.87821 0.80027 0.0
H235 H 0.36512 0.8732 0.78494 0.0
H236 H 0.34167 0.8731 0.7095 0.0
H237 H 0.4257 0.87261 0.70243 0.0
C238 C 0.49274 0.87263 0.73578 0.0
C239 C 0.52484 0.87484 0.75504 0.0
C240 C 0.44463 0.87333 0.73965 0.0
C241 C 0.5085 0.87777 0.77819 0.0
C242 C 0.46003 0.87692 0.78221 0.0
C243 C 0.37855 0.87304 0.76699 0.0
C244 C 0.34731 0.87266 0.74777 0.0
C245 C 0.42761 0.87439 0.76308 0.0
C246 C 0.3653 0.8734 0.72456 0.0
C247 C 0.41321 0.87301 0.72051 0.0
H248 H 0.50536 0.38689 0.95146 0.0
H249 H 0.49147 0.36432 0.87576 0.0
H250 H 0.57546 0.45016 0.87015 0.0
H251 H 0.65364 0.53123 0.88693 0.0
H252 H 0.66271 0.55812 0.96237 0.0
H253 H 0.57976 0.47148 0.96801 0.0
C254 C 0.52095 0.40093 0.93379 0.0
C255 C 0.49295 0.36939 0.91405 0.0
C256 C 0.5682 0.45116 0.93068 0.0
C257 C 0.51265 0.38814 0.89118 0.0
C258 C 0.5606 0.4371 0.88798 0.0
C259 C 0.63721 0.51809 0.90456 0.0
C260 C 0.66425 0.55065 0.92422 0.0
C261 C 0.58881 0.4689 0.9076 0.0
C262 C 0.64238 0.5337 0.94697 0.0
C263 C 0.59513 0.48409 0.95022 0.0
H264 H 0.31276 0.2008 0.17671 0.0
H265 H 0.2726 0.28561 0.22847 0.0
H266 H 0.24789 0.32764 0.19686 0.0
H267 H 0.22414 0.32861 0.15518 0.0
H268 H 0.2537 0.23482 0.1039 0.0
H269 H 0.29669 0.20848 0.13442 0.0
C270 C 0.30021 0.22982 0.18096 0.0
C271 C 0.29472 0.24046 0.20479 0.0
C272 C 0.28334 0.2515 0.16274 0.0
C273 C 0.27724 0.27708 0.21019 0.0
C274 C 0.26282 0.3008 0.19215 0.0
C275 C 0.2413 0.3036 0.15056 0.0
C276 C 0.23564 0.28355 0.12735 0.0
C277 C 0.26368 0.28664 0.16842 0.0
C278 C 0.25735 0.25052 0.12169 0.0
C279 C 0.28179 0.23533 0.13915 0.0
H280 H 0.99769 0.24211 0.2883 0.0
H281 H 0.84692 0.1679 0.32632 0.0
H282 H 0.89544 0.19503 0.36401 0.0
H283 H 0.9809 0.22775 0.38604 0.0
H284 H 0.13167 0.30705 0.348 0.0
H285 H 0.08324 0.29096 0.31054 0.0
C286 C 0.97562 0.23328 0.30485 0.0
C287 C 0.91897 0.20267 0.3046 0.0
C288 C 0.00378 0.2494 0.32646 0.0
C289 C 0.89061 0.19168 0.32608 0.0
C290 C 0.91833 0.20673 0.34766 0.0
C291 C 0.00303 0.24265 0.36958 0.0
C292 C 0.05964 0.26793 0.36972 0.0
C293 C 0.97491 0.23378 0.34808 0.0
C294 C 0.08803 0.28758 0.34835 0.0
C295 C 0.06037 0.27802 0.32688 0.0
H296 H 0.77074 0.08578 0.50984 0.0
H297 H 0.71519 0.9606 0.56273 0.0
H298 H 0.67529 0.89142 0.53188 0.0
H299 H 0.66843 0.86688 0.48972 0.0
H300 H 0.73417 0.99244 0.43694 0.0
H301 H 0.75695 0.06097 0.46764 0.0
C302 C 0.74858 0.04336 0.5146 0.0
C303 C 0.7458 0.02823 0.53849 0.0
C304 C 0.72801 0.00383 0.49668 0.0
C305 C 0.71789 0.97313 0.54443 0.0
C306 C 0.69525 0.93359 0.5268 0.0
C307 C 0.68622 0.90913 0.48493 0.0
C308 C 0.69935 0.92472 0.46115 0.0
C309 C 0.70175 0.94845 0.50282 0.0
C310 C 0.72358 0.97964 0.45516 0.0
C311 C 0.73688 0.01879 0.47272 0.0
H312 H 0.74491 0.75274 0.61996 0.0
H313 H 0.79459 0.65648 0.65976 0.0
H314 H 0.76363 0.67718 0.69639 0.0
H315 H 0.73429 0.7331 0.71768 0.0
H316 H 0.67909 0.82465 0.6779 0.0
H317 H 0.69944 0.79477 0.64074 0.0
C318 C 0.74775 0.73538 0.6366 0.0
C319 C 0.77255 0.70375 0.63721 0.0
C320 C 0.72928 0.74694 0.65764 0.0
C321 C 0.77553 0.68091 0.65882 0.0
C322 C 0.75822 0.69304 0.67983 0.0
C323 C 0.72549 0.74528 0.70083 0.0
C324 C 0.70575 0.78127 0.70044 0.0
C325 C 0.73677 0.72751 0.67954 0.0
C326 C 0.69407 0.79665 0.67858 0.0
C327 C 0.70614 0.77999 0.65734 0.0
H328 H 0.01986 0.77171 0.88829 0.0
H329 H 0.86803 0.68975 0.8509 0.0
H330 H 0.91541 0.70408 0.81336 0.0
H331 H 0.00017 0.75241 0.79072 0.0
H332 H 0.15207 0.82955 0.82805 0.0
H333 H 0.10473 0.80382 0.86599 0.0
C334 C 0.99727 0.75586 0.87197 0.0
C335 C 0.94066 0.73041 0.87232 0.0
C336 C 0.02479 0.76378 0.8504 0.0
C337 C 0.91169 0.70946 0.85111 0.0
C338 C 0.93875 0.718 0.82958 0.0
C339 C 0.02277 0.76216 0.80718 0.0
C340 C 0.07935 0.7932 0.80666 0.0
C341 C 0.99529 0.74691 0.82893 0.0
C342 C 0.10841 0.8054 0.82803 0.0
C343 C 0.08136 0.79117 0.84975 0.0
H344 H 0.27918 0.02666 0.04826 0.0
H345 H 0.20444 0.87858 0.00802 0.0
H346 H 0.23049 0.9297 0.97105 0.0
H347 H 0.26417 0.01665 0.95033 0.0
H348 H 0.34458 0.16486 0.99033 0.0
H349 H 0.32764 0.11384 0.02712 0.0
C350 C 0.26976 0.00576 0.03137 0.0
C351 C 0.23955 0.94907 0.03082 0.0
C352 C 0.28557 0.03544 0.01013 0.0
C353 C 0.22789 0.92226 0.00888 0.0
C354 C 0.24241 0.95145 0.98771 0.0
C355 C 0.2791 0.03763 0.96706 0.0
C356 C 0.30514 0.09428 0.96769 0.0
C357 C 0.26976 0.00805 0.98813 0.0
C358 C 0.32467 0.12121 0.98941 0.0
C359 C 0.31457 0.09206 0.01049 0.0
H360 H 0.27377 0.38368 0.03583 0.0
H361 H 0.10668 0.25734 0.03219 0.0
H362 H 0.12471 0.22215 0.9963 0.0
H363 H 0.18766 0.22412 0.96714 0.0
H364 H 0.3562 0.34662 0.97089 0.0
H365 H 0.33763 0.3868 0.00532 0.0
C366 C 0.24139 0.34862 0.02708 0.0
C367 C 0.18902 0.32305 0.03674 0.0
C368 C 0.25216 0.32794 0.00645 0.0
C369 C 0.14743 0.2776 0.02525 0.0
C370 C 0.15762 0.25746 0.00466 0.0
C371 C 0.22048 0.26002 0.9752 0.0
C372 C 0.2733 0.2822 0.96633 0.0
C373 C 0.20984 0.28196 0.99525 0.0
C374 C 0.3151 0.32859 0.97728 0.0
C375 C 0.30456 0.35149 0.99705 0.0
H376 H 0.89793 0.25677 0.20332 0.0
H377 H 0.86876 0.09351 0.2008 0.0
H378 H 0.93062 0.11689 0.16764 0.0
H379 H 0.99306 0.18281 0.13952 0.0
H380 H 0.02738 0.34766 0.14226 0.0
H381 H 0.96344 0.32454 0.17508 0.0
C382 C 0.90526 0.22646 0.19549 0.0
C383 C 0.87865 0.17345 0.20452 0.0
C384 C 0.94162 0.24034 0.17642 0.0
C385 C 0.88873 0.13464 0.19427 0.0
C386 C 0.92404 0.14789 0.17524 0.0
C387 C 0.98634 0.21375 0.1471 0.0
C388 C 0.01461 0.26677 0.13825 0.0
C389 C 0.95058 0.20047 0.16616 0.0
C390 C 0.00602 0.30646 0.14867 0.0
C391 C 0.9695 0.29325 0.16746 0.0
H392 H 0.79252 0.964 0.30305 0.0
H393 H 0.662 0.9982 0.30087 0.0
H394 H 0.61827 0.93623 0.33413 0.0
H395 H 0.61931 0.87458 0.36493 0.0
H396 H 0.75366 0.84608 0.36719 0.0
H397 H 0.79366 0.90386 0.33288 0.0
C398 C 0.75414 0.95764 0.30955 0.0
C399 C 0.73051 0.98563 0.29927 0.0
C400 C 0.73011 0.92326 0.32893 0.0
C401 C 0.68109 0.97711 0.30833 0.0
C402 C 0.65616 0.94181 0.32742 0.0
C403 C 0.65727 0.88104 0.35784 0.0
C404 C 0.68345 0.85604 0.36866 0.0
C405 C 0.68065 0.91509 0.33807 0.0
C406 C 0.7327 0.86491 0.35933 0.0
C407 C 0.75562 0.89787 0.33962 0.0
H408 H 0.7227 0.6166 0.53752 0.0
H409 H 0.88996 0.74276 0.53448 0.0
H410 H 0.87151 0.78119 0.49985 0.0
H411 H 0.8087 0.78121 0.47112 0.0
H412 H 0.64012 0.65887 0.47398 0.0
H413 H 0.65839 0.61668 0.50781 0.0
C414 C 0.75499 0.65238 0.5292 0.0
C415 C 0.80762 0.67676 0.53865 0.0
C416 C 0.744 0.67499 0.50922 0.0
C417 C 0.84903 0.72324 0.52771 0.0
C418 C 0.83861 0.74529 0.50782 0.0
C419 C 0.77578 0.74499 0.47889 0.0
C420 C 0.72311 0.72323 0.46985 0.0
C421 C 0.78633 0.72172 0.49851 0.0
C422 C 0.68112 0.67656 0.4805 0.0
C423 C 0.69153 0.65245 0.4999 0.0
H424 H 0.10293 0.73764 0.70368 0.0
H425 H 0.12359 0.89782 0.70332 0.0
H426 H 0.06273 0.87395 0.66976 0.0
H427 H 0.00366 0.80881 0.64073 0.0
H428 H 0.9771 0.64656 0.64097 0.0
H429 H 0.04038 0.67011 0.67425 0.0
C430 C 0.09393 0.76714 0.69624 0.0
C431 C 0.11795 0.8195 0.70602 0.0
C432 C 0.05812 0.75297 0.67685 0.0
C433 C 0.10573 0.85724 0.69624 0.0
C434 C 0.07097 0.84372 0.67696 0.0
C435 C 0.01195 0.77849 0.6478 0.0
C436 C 0.98609 0.72613 0.6381 0.0
C437 C 0.04713 0.7919 0.66711 0.0
C438 C 0.99669 0.68729 0.64797 0.0
C439 C 0.03277 0.70073 0.66704 0.0
H440 H 0.37845 0.12602 0.86466 0.0
H441 H 0.24351 0.15368 0.86643 0.0
H442 H 0.20302 0.09436 0.83263 0.0
H443 H 0.20371 0.03303 0.80336 0.0
H444 H 0.33457 0.99935 0.80162 0.0
H445 H 0.37898 0.06294 0.83437 0.0
C446 C 0.34025 0.119 0.85758 0.0
C447 C 0.31407 0.14425 0.86814 0.0
C448 C 0.31649 0.08397 0.83807 0.0
C449 C 0.26451 0.13466 0.85879 0.0
C450 C 0.24127 0.10081 0.83937 0.0
C451 C 0.2423 0.03985 0.80985 0.0
C452 C 0.2658 0.01153 0.79985 0.0
C453 C 0.26672 0.07515 0.82894 0.0
C454 C 0.31554 0.02068 0.80887 0.0
C455 C 0.34087 0.05691 0.82768 0.0
H456 H 0.73517 0.88234 0.8144 0.0
H457 H 0.62594 0.71869 0.79236 0.0
H458 H 0.65234 0.68458 0.82679 0.0
H459 H 0.71034 0.70229 0.86227 0.0
H460 H 0.81534 0.86758 0.88443 0.0
H461 H 0.78596 0.89971 0.85112 0.0
C462 C 0.71716 0.83917 0.81712 0.0
C463 C 0.6794 0.80304 0.80075 0.0
C464 C 0.73155 0.82011 0.83709 0.0
C465 C 0.65543 0.74724 0.80472 0.0
C466 C 0.6705 0.7278 0.82439 0.0
C467 C 0.7262 0.74527 0.86001 0.0
C468 C 0.76564 0.78227 0.87583 0.0
C469 C 0.70896 0.76395 0.84063 0.0
C470 C 0.78542 0.83789 0.87257 0.0
C471 C 0.76878 0.85655 0.85341 0.0
H472 H 0.90687 0.65414 0.97322 0.0
H473 H 0.87755 0.78782 0.97745 0.0
H474 H 0.93721 0.82374 0.01148 0.0
H475 H 0.00079 0.82044 0.03883 0.0
H476 H 0.03628 0.691 0.03423 0.0
H477 H 0.97086 0.65003 1.00188 0.0
C478 C 0.91347 0.69095 0.98171 0.0
C479 C 0.88794 0.71833 0.9727 0.0
C480 C 0.94887 0.7122 1.00126 0.0
C481 C 0.89696 0.76609 0.98384 0.0
C482 C 0.931 0.78669 0.0034 0.0
C483 C 0.99387 0.78283 0.03105 0.0
C484 C 0.02345 0.75887 0.03909 0.0
C485 C 0.95753 0.76044 0.01211 0.0
C486 C 0.01409 0.71041 0.02846 0.0
C487 C 0.9768 0.68704 0.00988 0.0
H488 H 0.14924 0.87432 0.14286 0.0
H489 H 0.31346 0.92776 0.12252 0.0
H490 H 0.34655 0.98964 0.1565 0.0
H491 H 0.32819 0.03106 0.19119 0.0
H492 H 0.16264 0.9734 0.21159 0.0
H493 H 0.13103 0.91035 0.17865 0.0
C494 C 0.19231 0.89953 0.14584 0.0
C495 C 0.22886 0.89699 0.13006 0.0
C496 C 0.21087 0.93414 0.16555 0.0
C497 C 0.28452 0.9292 0.13438 0.0
C498 C 0.30341 0.96454 0.15381 0.0
C499 C 0.28522 0.00428 0.18862 0.0
C500 C 0.24806 0.00766 0.20391 0.0
C501 C 0.26691 0.96766 0.16945 0.0
C502 C 0.19247 0.97227 0.2002 0.0
C503 C 0.17413 0.93613 0.18125 0.0
H504 H 0.2772 0.12789 0.31347 0.0
H505 H 0.37366 0.29158 0.28879 0.0
H506 H 0.34649 0.32444 0.32338 0.0
H507 H 0.29064 0.30514 0.35963 0.0
H508 H 0.1989 0.14038 0.38452 0.0
H509 H 0.22978 0.10982 0.35118 0.0
C510 C 0.2923 0.17078 0.3157 0.0
C511 C 0.32657 0.20725 0.29854 0.0
C512 C 0.2776 0.18925 0.33577 0.0
C513 C 0.34689 0.26279 0.3018 0.0
C514 C 0.33138 0.28151 0.32155 0.0
C515 C 0.27815 0.26272 0.35798 0.0
C516 C 0.24173 0.22521 0.37451 0.0
C517 C 0.29622 0.24497 0.33858 0.0
C518 C 0.22629 0.17034 0.37204 0.0
C519 C 0.24379 0.15257 0.35288 0.0
H520 H 0.08843 0.34163 0.47118 0.0
H521 H 0.11945 0.20894 0.47385 0.0
H522 H 0.0584 0.17016 0.50724 0.0
H523 H 0.99396 0.17149 0.53486 0.0
H524 H 0.95757 0.30041 0.5317 0.0
H525 H 0.02301 0.3431 0.4996 0.0
C526 C 0.08185 0.30436 0.47916 0.0
C527 C 0.10841 0.27823 0.46996 0.0
C528 C 0.04577 0.28153 0.49834 0.0
C529 C 0.09934 0.22981 0.48044 0.0
C530 C 0.06449 0.20756 0.49962 0.0
C531 C 0.00071 0.20929 0.5274 0.0
C532 C 0.97102 0.23275 0.53581 0.0
C533 C 0.03726 0.23282 0.50862 0.0
C534 C 0.97988 0.2814 0.5256 0.0
C535 C 0.01724 0.3058 0.50719 0.0
H536 H 0.67644 0.97986 0.69471 0.0
H537 H 0.84267 0.03867 0.71438 0.0
H538 H 0.87306 0.09787 0.68005 0.0
H539 H 0.85313 0.12887 0.64297 0.0
H540 H 0.68781 0.07305 0.62344 0.0
H541 H 0.65652 0.01664 0.65905 0.0
C542 C 0.71931 0.00623 0.69174 0.0
C543 C 0.75704 0.00418 0.70714 0.0
C544 C 0.73681 0.04019 0.67174 0.0
C545 C 0.81249 0.03889 0.70288 0.0
C546 C 0.83008 0.07271 0.68313 0.0
C547 C 0.81024 0.10433 0.64652 0.0
C548 C 0.7728 0.10454 0.63048 0.0
C549 C 0.79266 0.0728 0.66716 0.0
C550 C 0.7174 0.07331 0.63549 0.0
C551 C 0.69952 0.04113 0.65585 0.0
loop_
_geom_bond_atom_site_label_1
_geom_bond_atom_site_label_2
_geom_bond_distance
_geom_bond_site_symmetry_2
_ccdc_geom_bond_type
Co0 O1 2.216 . S
Co0 O2 2.091 . S
Co0 O4 2.004 . S
Co0 O10 2.021 . S
Co0 O12 2.137 . S
Co0 O13 2.244 . S
O1 Co0 2.216 . S
O1 C8 1.247 . S
O2 Co0 2.091 . S
O2 C8 1.261 . S
C3 O12 1.247 . S
C3 O13 1.272 . S
O4 Co0 2.004 . S
O4 C9 1.259 . S
Co5 O6 2.061 . S
Co5 O11 2.052 . S
Co5 O13 2.135 . S
O6 Co5 2.061 . S
O6 C9 1.235 . S
C7 O10 1.238 . S
C7 O11 1.241 . S
C8 O1 1.247 . S
C8 O2 1.261 . S
C9 O4 1.259 . S
C9 O6 1.235 . S
O10 Co0 2.021 . S
O10 C7 1.238 . S
O11 Co5 2.052 . S
O11 C7 1.241 . S
O12 Co0 2.137 . S
O12 C3 1.247 . S
O13 Co0 2.244 . S
O13 C3 1.272 . S
O13 Co5 2.135 . S
Co14 O15 2.216 . S
Co14 O16 2.091 . S
Co14 O18 2.004 . S
Co14 O24 2.021 . S
Co14 O26 2.137 . S
Co14 O27 2.244 . S
O15 Co14 2.216 . S
O15 C22 1.247 . S
O16 Co14 2.091 . S
O16 C22 1.261 . S
C17 O26 1.247 . S
C17 O27 1.272 . S
O18 Co14 2.004 . S
O18 C23 1.259 . S
Co19 O20 2.061 . S
Co19 O25 2.052 . S
Co19 O27 2.135 . S
O20 Co19 2.061 . S
O20 C23 1.235 . S
C21 O24 1.238 . S
C21 O25 1.241 . S
C22 O15 1.247 . S
C22 O16 1.261 . S
C23 O18 1.259 . S
C23 O20 1.235 . S
O24 Co14 2.021 . S
O24 C21 1.238 . S
O25 Co19 2.052 . S
O25 C21 1.241 . S
O26 Co14 2.137 . S
O26 C17 1.247 . S
O27 Co14 2.244 . S
O27 C17 1.272 . S
O27 Co19 2.135 . S
Co28 O29 2.216 . S
Co28 O30 2.091 . S
Co28 O32 2.004 . S
Co28 O38 2.021 . S
Co28 O40 2.137 . S
Co28 O41 2.244 . S
O29 Co28 2.216 . S
O29 C36 1.247 . S
O30 Co28 2.091 . S
O30 C36 1.261 . S
C31 O40 1.247 . S
C31 O41 1.272 . S
O32 Co28 2.004 . S
O32 C37 1.259 . S
Co33 O34 2.061 . S
Co33 O39 2.052 . S
Co33 O41 2.135 . S
O34 Co33 2.061 . S
O34 C37 1.235 . S
C35 O38 1.238 . S
C35 O39 1.241 . S
C36 O29 1.247 . S
C36 O30 1.261 . S
C37 O32 1.259 . S
C37 O34 1.235 . S
O38 Co28 2.021 . S
O38 C35 1.238 . S
O39 Co33 2.052 . S
O39 C35 1.241 . S
O40 Co28 2.137 . S
O40 C31 1.247 . S
O41 Co28 2.244 . S
O41 C31 1.272 . S
O41 Co33 2.135 . S
Co42 O43 2.216 . S
Co42 O44 2.091 . S
Co42 O46 2.004 . S
Co42 O52 2.021 . S
Co42 O54 2.137 . S
Co42 O55 2.244 . S
O43 Co42 2.216 . S
O43 C50 1.247 . S
O44 Co42 2.091 . S
O44 C50 1.261 . S
C45 O54 1.247 . S
C45 O55 1.272 . S
O46 Co42 2.004 . S
O46 C51 1.259 . S
Co47 O48 2.061 . S
Co47 O53 2.052 . S
Co47 O55 2.135 . S
O48 Co47 2.061 . S
O48 C51 1.235 . S
C49 O52 1.238 . S
C49 O53 1.241 . S
C50 O43 1.247 . S
C50 O44 1.261 . S
C51 O46 1.259 . S
C51 O48 1.235 . S
O52 Co42 2.021 . S
O52 C49 1.238 . S
O53 Co47 2.052 . S
O53 C49 1.241 . S
O54 Co42 2.137 . S
O54 C45 1.247 . S
O55 Co42 2.244 . S
O55 C45 1.272 . S
O55 Co47 2.135 . S
Co56 O57 2.216 . S
Co56 O58 2.091 . S
Co56 O60 2.004 . S
Co56 O66 2.021 . S
Co56 O68 2.137 . S
Co56 O69 2.244 . S
O57 Co56 2.216 . S
O57 C64 1.247 . S
O58 Co56 2.091 . S
O58 C64 1.261 . S
C59 O68 1.247 . S
C59 O69 1.272 . S
O60 Co56 2.004 . S
O60 C65 1.259 . S
Co61 O62 2.061 . S
Co61 O67 2.052 . S
Co61 O69 2.135 . S
O62 Co61 2.061 . S
O62 C65 1.235 . S
C63 O66 1.238 . S
C63 O67 1.241 . S
C64 O57 1.247 . S
C64 O58 1.261 . S
C65 O60 1.259 . S
C65 O62 1.235 . S
O66 Co56 2.021 . S
O66 C63 1.238 . S
O67 Co61 2.052 . S
O67 C63 1.241 . S
O68 Co56 2.137 . S
O68 C59 1.247 . S
O69 Co56 2.244 . S
O69 C59 1.272 . S
O69 Co61 2.135 . S
Co70 O71 2.216 . S
Co70 O72 2.091 . S
Co70 O74 2.004 . S
Co70 O80 2.021 . S
Co70 O82 2.137 . S
Co70 O83 2.244 . S
O71 Co70 2.216 . S
O71 C78 1.247 . S
O72 Co70 2.091 . S
O72 C78 1.261 . S
C73 O82 1.247 . S
C73 O83 1.272 . S
O74 Co70 2.004 . S
O74 C79 1.259 . S
Co75 O76 2.061 . S
Co75 O81 2.052 . S
Co75 O83 2.135 . S
O76 Co75 2.061 . S
O76 C79 1.235 . S
C77 O80 1.238 . S
C77 O81 1.241 . S
C78 O71 1.247 . S
C78 O72 1.261 . S
C79 O74 1.259 . S
C79 O76 1.235 . S
O80 Co70 2.021 . S
O80 C77 1.238 . S
O81 Co75 2.052 . S
O81 C77 1.241 . S
O82 Co70 2.137 . S
O82 C73 1.247 . S
O83 Co70 2.244 . S
O83 C73 1.272 . S
O83 Co75 2.135 . S
Co84 O85 2.216 . S
Co84 O86 2.091 . S
Co84 O88 2.004 . S
Co84 O94 2.021 . S
Co84 O96 2.137 . S
Co84 O97 2.244 . S
O85 Co84 2.216 . S
O85 C92 1.247 . S
O86 Co84 2.091 . S
O86 C92 1.261 . S
C87 O96 1.247 . S
C87 O97 1.272 . S
O88 Co84 2.004 . S
O88 C93 1.259 . S
Co89 O90 2.061 . S
Co89 O95 2.052 . S
Co89 O97 2.135 . S
O90 Co89 2.061 . S
O90 C93 1.235 . S
C91 O94 1.238 . S
C91 O95 1.241 . S
C92 O85 1.247 . S
C92 O86 1.261 . S
C93 O88 1.259 . S
C93 O90 1.235 . S
O94 Co84 2.021 . S
O94 C91 1.238 . S
O95 Co89 2.052 . S
O95 C91 1.241 . S
O96 Co84 2.137 . S
O96 C87 1.247 . S
O97 Co84 2.244 . S
O97 C87 1.272 . S
O97 Co89 2.135 . S
Co98 O99 2.216 . S
Co98 O100 2.091 . S
Co98 O102 2.004 . S
Co98 O108 2.021 . S
Co98 O110 2.137 . S
Co98 O111 2.244 . S
O99 Co98 2.216 . S
O99 C106 1.247 . S
O100 Co98 2.091 . S
O100 C106 1.261 . S
C101 O110 1.247 . S
C101 O111 1.272 . S
O102 Co98 2.004 . S
O102 C107 1.259 . S
Co103 O104 2.061 . S
Co103 O109 2.052 . S
Co103 O111 2.135 . S
O104 Co103 2.061 . S
O104 C107 1.235 . S
C105 O108 1.238 . S
C105 O109 1.241 . S
C106 O99 1.247 . S
C106 O100 1.261 . S
C107 O102 1.259 . S
C107 O104 1.235 . S
O108 Co98 2.021 . S
O108 C105 1.238 . S
O109 Co103 2.052 . S
O109 C105 1.241 . S
O110 Co98 2.137 . S
O110 C101 1.247 . S
O111 Co98 2.244 . S
O111 C101 1.272 . S
O111 Co103 2.135 . S
Co112 O113 2.216 . S
Co112 O114 2.091 . S
Co112 O116 2.004 . S
Co112 O122 2.021 . S
Co112 O124 2.137 . S
Co112 O125 2.244 . S
O113 Co112 2.216 . S
O113 C120 1.247 . S
O114 Co112 2.091 . S
O114 C120 1.261 . S
C115 O124 1.247 . S
C115 O125 1.272 . S
O116 Co112 2.004 . S
O116 C121 1.259 . S
Co117 O118 2.061 . S
Co117 O123 2.052 . S
Co117 O125 2.135 . S
O118 Co117 2.061 . S
O118 C121 1.235 . S
C119 O122 1.238 . S
C119 O123 1.241 . S
C120 O113 1.247 . S
C120 O114 1.261 . S
C121 O116 1.259 . S
C121 O118 1.235 . S
O122 Co112 2.021 . S
O122 C119 1.238 . S
O123 Co117 2.052 . S
O123 C119 1.241 . S
O124 Co112 2.137 . S
O124 C115 1.247 . S
O125 Co112 2.244 . S
O125 C115 1.272 . S
O125 Co117 2.135 . S
Co126 O127 2.216 . S
Co126 O128 2.091 . S
Co126 O130 2.004 . S
Co126 O136 2.021 . S
Co126 O138 2.137 . S
Co126 O139 2.244 . S
O127 Co126 2.216 . S
O127 C134 1.247 . S
O128 Co126 2.091 . S
O128 C134 1.261 . S
C129 O138 1.247 . S
C129 O139 1.272 . S
O130 Co126 2.004 . S
O130 C135 1.259 . S
Co131 O132 2.061 . S
Co131 O137 2.052 . S
Co131 O139 2.135 . S
O132 Co131 2.061 . S
O132 C135 1.235 . S
C133 O136 1.238 . S
C133 O137 1.241 . S
C134 O127 1.247 . S
C134 O128 1.261 . S
C135 O130 1.259 . S
C135 O132 1.235 . S
O136 Co126 2.021 . S
O136 C133 1.238 . S
O137 Co131 2.052 . S
O137 C133 1.241 . S
O138 Co126 2.137 . S
O138 C129 1.247 . S
O139 Co126 2.244 . S
O139 C129 1.272 . S
O139 Co131 2.135 . S
Co140 O141 2.216 . S
Co140 O142 2.091 . S
Co140 O144 2.004 . S
Co140 O150 2.021 . S
Co140 O152 2.137 . S
Co140 O153 2.244 . S
O141 Co140 2.216 . S
O141 C148 1.247 . S
O142 Co140 2.091 . S
O142 C148 1.261 . S
C143 O152 1.247 . S
C143 O153 1.272 . S
O144 Co140 2.004 . S
O144 C149 1.259 . S
Co145 O146 2.061 . S
Co145 O151 2.052 . S
Co145 O153 2.135 . S
O146 Co145 2.061 . S
O146 C149 1.235 . S
C147 O150 1.238 . S
C147 O151 1.241 . S
C148 O141 1.247 . S
C148 O142 1.261 . S
C149 O144 1.259 . S
C149 O146 1.235 . S
O150 Co140 2.021 . S
O150 C147 1.238 . S
O151 Co145 2.052 . S
O151 C147 1.241 . S
O152 Co140 2.137 . S
O152 C143 1.247 . S
O153 Co140 2.244 . S
O153 C143 1.272 . S
O153 Co145 2.135 . S
Co154 O155 2.216 . S
Co154 O156 2.091 . S
Co154 O158 2.004 . S
Co154 O164 2.021 . S
Co154 O166 2.137 . S
Co154 O167 2.244 . S
O155 Co154 2.216 . S
O155 C162 1.247 . S
O156 Co154 2.091 . S
O156 C162 1.261 . S
C157 O166 1.247 . S
C157 O167 1.272 . S
O158 Co154 2.004 . S
O158 C163 1.259 . S
Co159 O160 2.061 . S
Co159 O165 2.052 . S
Co159 O167 2.135 . S
O160 Co159 2.061 . S
O160 C163 1.235 . S
C161 O164 1.238 . S
C161 O165 1.241 . S
C162 O155 1.247 . S
C162 O156 1.261 . S
C163 O158 1.259 . S
C163 O160 1.235 . S
O164 Co154 2.021 . S
O164 C161 1.238 . S
O165 Co159 2.052 . S
O165 C161 1.241 . S
O166 Co154 2.137 . S
O166 C157 1.247 . S
O167 Co154 2.244 . S
O167 C157 1.272 . S
O167 Co159 2.135 . S
H168 C174 0.930 . S
H169 C177 0.930 . S
H170 C178 0.930 . S
H171 C179 0.930 . S
H172 C182 0.930 . S
H173 C183 0.930 . S
C174 H168 0.930 . S
C174 C175 1.355 . S
C174 C176 1.415 . S
C175 C174 1.355 . S
C175 C177 1.419 . S
C176 C174 1.415 . S
C176 C181 1.425 . S
C176 C183 1.409 . S
C177 H169 0.930 . S
C177 C175 1.419 . S
C177 C178 1.362 . S
C178 H170 0.930 . S
C178 C177 1.362 . S
C178 C181 1.409 . S
C179 H171 0.930 . S
C179 C180 1.355 . S
C179 C181 1.415 . S
C180 C179 1.355 . S
C180 C182 1.419 . S
C181 C176 1.425 . S
C181 C178 1.409 . S
C181 C179 1.415 . S
C182 H172 0.930 . S
C182 C180 1.419 . S
C182 C183 1.362 . S
C183 H173 0.930 . S
C183 C176 1.409 . S
C183 C182 1.362 . S
H184 C190 0.930 . S
H185 C193 0.930 . S
H186 C194 0.930 . S
H187 C195 0.930 . S
H188 C198 0.930 . S
H189 C199 0.930 . S
C190 H184 0.930 . S
C190 C191 1.355 . S
C190 C192 1.415 . S
C191 C190 1.355 . S
C191 C193 1.419 . S
C192 C190 1.415 . S
C192 C197 1.425 . S
C192 C199 1.409 . S
C193 H185 0.930 . S
C193 C191 1.419 . S
C193 C194 1.362 . S
C194 H186 0.930 . S
C194 C193 1.362 . S
C194 C197 1.409 . S
C195 H187 0.930 . S
C195 C196 1.355 . S
C195 C197 1.415 . S
C196 C195 1.355 . S
C196 C198 1.419 . S
C197 C192 1.425 . S
C197 C194 1.409 . S
C197 C195 1.415 . S
C198 H188 0.930 . S
C198 C196 1.419 . S
C198 C199 1.362 . S
C199 H189 0.930 . S
C199 C192 1.409 . S
C199 C198 1.362 . S
H200 C206 0.930 . S
H201 C209 0.930 . S
H202 C210 0.930 . S
H203 C211 0.930 . S
H204 C214 0.930 . S
H205 C215 0.930 . S
C206 H200 0.930 . S
C206 C207 1.355 . S
C206 C208 1.415 . S
C207 C206 1.355 . S
C207 C209 1.419 . S
C208 C206 1.415 . S
C208 C213 1.425 . S
C208 C215 1.409 . S
C209 H201 0.930 . S
C209 C207 1.419 . S
C209 C210 1.362 . S
C210 H202 0.930 . S
C210 C209 1.362 . S
C210 C213 1.409 . S
C211 H203 0.930 . S
C211 C212 1.355 . S
C211 C213 1.415 . S
C212 C211 1.355 . S
C212 C214 1.419 . S
C213 C208 1.425 . S
C213 C210 1.409 . S
C213 C211 1.415 . S
C214 H204 0.930 . S
C214 C212 1.419 . S
C214 C215 1.362 . S
C215 H205 0.930 . S
C215 C208 1.409 . S
C215 C214 1.362 . S
H216 C222 0.930 . S
H217 C225 0.930 . S
H218 C226 0.930 . S
H219 C227 0.930 . S
H220 C230 0.930 . S
H221 C231 0.930 . S
C222 H216 0.930 . S
C222 C223 1.355 . S
C222 C224 1.415 . S
C223 C222 1.355 . S
C223 C225 1.419 . S
C224 C222 1.415 . S
C224 C229 1.425 . S
C224 C231 1.409 . S
C225 H217 0.930 . S
C225 C223 1.419 . S
C225 C226 1.362 . S
C226 H218 0.930 . S
C226 C225 1.362 . S
C226 C229 1.409 . S
C227 H219 0.930 . S
C227 C228 1.355 . S
C227 C229 1.415 . S
C228 C227 1.355 . S
C228 C230 1.419 . S
C229 C224 1.425 . S
C229 C226 1.409 . S
C229 C227 1.415 . S
C230 H220 0.930 . S
C230 C228 1.419 . S
C230 C231 1.362 . S
C231 H221 0.930 . S
C231 C224 1.409 . S
C231 C230 1.362 . S
H232 C238 0.930 . S
H233 C241 0.930 . S
H234 C242 0.930 . S
H235 C243 0.930 . S
H236 C246 0.930 . S
H237 C247 0.930 . S
C238 H232 0.930 . S
C238 C239 1.355 . S
C238 C240 1.415 . S
C239 C238 1.355 . S
C239 C241 1.419 . S
C240 C238 1.415 . S
C240 C245 1.425 . S
C240 C247 1.409 . S
C241 H233 0.930 . S
C241 C239 1.419 . S
C241 C242 1.362 . S
C242 H234 0.930 . S
C242 C241 1.362 . S
C242 C245 1.409 . S
C243 H235 0.930 . S
C243 C244 1.355 . S
C243 C245 1.415 . S
C244 C243 1.355 . S
C244 C246 1.419 . S
C245 C240 1.425 . S
C245 C242 1.409 . S
C245 C243 1.415 . S
C246 H236 0.930 . S
C246 C244 1.419 . S
C246 C247 1.362 . S
C247 H237 0.930 . S
C247 C240 1.409 . S
C247 C246 1.362 . S
H248 C254 0.930 . S
H249 C257 0.930 . S
H250 C258 0.930 . S
H251 C259 0.930 . S
H252 C262 0.930 . S
H253 C263 0.930 . S
C254 H248 0.930 . S
C254 C255 1.355 . S
C254 C256 1.415 . S
C255 C254 1.355 . S
C255 C257 1.419 . S
C256 C254 1.415 . S
C256 C261 1.425 . S
C256 C263 1.409 . S
C257 H249 0.930 . S
C257 C255 1.419 . S
C257 C258 1.362 . S
C258 H250 0.930 . S
C258 C257 1.362 . S
C258 C261 1.409 . S
C259 H251 0.930 . S
C259 C260 1.355 . S
C259 C261 1.415 . S
C260 C259 1.355 . S
C260 C262 1.419 . S
C261 C256 1.425 . S
C261 C258 1.409 . S
C261 C259 1.415 . S
C262 H252 0.930 . S
C262 C260 1.419 . S
C262 C263 1.362 . S
C263 H253 0.930 . S
C263 C256 1.409 . S
C263 C262 1.362 . S
H264 C270 0.930 . S
H265 C273 0.930 . S
H266 C274 0.930 . S
H267 C275 0.930 . S
H268 C278 0.930 . S
H269 C279 0.930 . S
C270 H264 0.930 . S
C270 C271 1.355 . S
C270 C272 1.415 . S
C271 C270 1.355 . S
C271 C273 1.419 . S
C272 C270 1.415 . S
C272 C277 1.425 . S
C272 C279 1.409 . S
C273 H265 0.930 . S
C273 C271 1.419 . S
C273 C274 1.362 . S
C274 H266 0.930 . S
C274 C273 1.362 . S
C274 C277 1.409 . S
C275 H267 0.930 . S
C275 C276 1.355 . S
C275 C277 1.415 . S
C276 C275 1.355 . S
C276 C278 1.419 . S
C277 C272 1.425 . S
C277 C274 1.409 . S
C277 C275 1.415 . S
C278 H268 0.930 . S
C278 C276 1.419 . S
C278 C279 1.362 . S
C279 H269 0.930 . S
C279 C272 1.409 . S
C279 C278 1.362 . S
H280 C286 0.930 . S
H281 C289 0.930 . S
H282 C290 0.930 . S
H283 C291 0.930 . S
H284 C294 0.930 . S
H285 C295 0.930 . S
C286 H280 0.930 . S
C286 C287 1.355 . S
C286 C288 1.415 1_655 S
C287 C286 1.355 . S
C287 C289 1.419 . S
C288 C286 1.415 1_455 S
C288 C293 1.425 1_455 S
C288 C295 1.409 . S
C289 H281 0.930 . S
C289 C287 1.419 . S
C289 C290 1.362 . S
C290 H282 0.930 . S
C290 C289 1.362 . S
C290 C293 1.409 . S
C291 H283 0.930 . S
C291 C292 1.355 . S
C291 C293 1.415 1_455 S
C292 C291 1.355 . S
C292 C294 1.419 . S
C293 C288 1.425 1_655 S
C293 C290 1.409 . S
C293 C291 1.415 1_655 S
C294 H284 0.930 . S
C294 C292 1.419 . S
C294 C295 1.362 . S
C295 H285 0.930 . S
C295 C288 1.409 . S
C295 C294 1.362 . S
H296 C302 0.930 . S
H297 C305 0.930 . S
H298 C306 0.930 1_565 S
H299 C307 0.930 . S
H300 C310 0.930 . S
H301 C311 0.930 1_545 S
C302 H296 0.930 . S
C302 C303 1.355 . S
C302 C304 1.415 . S
C303 C302 1.355 . S
C303 C305 1.419 . S
C304 C302 1.415 . S
C304 C309 1.425 1_545 S
C304 C311 1.409 1_545 S
C305 H297 0.930 . S
C305 C303 1.419 . S
C305 C306 1.362 . S
C306 H298 0.930 1_545 S
C306 C305 1.362 . S
C306 C309 1.409 1_545 S
C307 H299 0.930 . S
C307 C308 1.355 . S
C307 C309 1.415 . S
C308 C307 1.355 . S
C308 C310 1.419 . S
C309 C304 1.425 1_565 S
C309 C306 1.409 1_565 S
C309 C307 1.415 . S
C310 H300 0.930 . S
C310 C308 1.419 . S
C310 C311 1.362 . S
C311 H301 0.930 1_565 S
C311 C304 1.409 1_565 S
C311 C310 1.362 . S
H312 C318 0.930 . S
H313 C321 0.930 . S
H314 C322 0.930 . S
H315 C323 0.930 . S
H316 C326 0.930 . S
H317 C327 0.930 . S
C318 H312 0.930 . S
C318 C319 1.355 . S
C318 C320 1.415 . S
C319 C318 1.355 . S
C319 C321 1.419 . S
C320 C318 1.415 . S
C320 C325 1.425 . S
C320 C327 1.409 . S
C321 H313 0.930 . S
C321 C319 1.419 . S
C321 C322 1.362 . S
C322 H314 0.930 . S
C322 C321 1.362 . S
C322 C325 1.409 . S
C323 H315 0.930 . S
C323 C324 1.355 . S
C323 C325 1.415 . S
C324 C323 1.355 . S
C324 C326 1.419 . S
C325 C320 1.425 . S
C325 C322 1.409 . S
C325 C323 1.415 . S
C326 H316 0.930 . S
C326 C324 1.419 . S
C326 C327 1.362 . S
C327 H317 0.930 . S
C327 C320 1.409 . S
C327 C326 1.362 . S
H328 C334 0.930 . S
H329 C337 0.930 . S
H330 C338 0.930 . S
H331 C339 0.930 . S
H332 C342 0.930 . S
H333 C343 0.930 . S
C334 H328 0.930 . S
C334 C335 1.355 . S
C334 C336 1.415 . S
C335 C334 1.355 . S
C335 C337 1.419 . S
C336 C334 1.415 . S
C336 C341 1.425 1_655 S
C336 C343 1.409 1_655 S
C337 H329 0.930 . S
C337 C335 1.419 . S
C337 C338 1.362 . S
C338 H330 0.930 . S
C338 C337 1.362 . S
C338 C341 1.409 1_655 S
C339 H331 0.930 . S
C339 C340 1.355 . S
C339 C341 1.415 . S
C340 C339 1.355 . S
C340 C342 1.419 . S
C341 C336 1.425 1_455 S
C341 C338 1.409 1_455 S
C341 C339 1.415 . S
C342 H332 0.930 . S
C342 C340 1.419 . S
C342 C343 1.362 . S
C343 H333 0.930 . S
C343 C336 1.409 1_455 S
C343 C342 1.362 . S
H344 C350 0.930 . S
H345 C353 0.930 . S
H346 C354 0.930 . S
H347 C355 0.930 . S
H348 C358 0.930 . S
H349 C359 0.930 . S
C350 H344 0.930 . S
C350 C351 1.355 . S
C350 C352 1.415 . S
C351 C350 1.355 . S
C351 C353 1.419 . S
C352 C350 1.415 . S
C352 C357 1.425 1_564 S
C352 C359 1.409 1_565 S
C353 H345 0.930 . S
C353 C351 1.419 . S
C353 C354 1.362 1_554 S
C354 H346 0.930 . S
C354 C353 1.362 1_556 S
C354 C357 1.409 1_565 S
C355 H347 0.930 . S
C355 C356 1.355 . S
C355 C357 1.415 . S
C356 C355 1.355 . S
C356 C358 1.419 . S
C357 C352 1.425 1_546 S
C357 C354 1.409 1_545 S
C357 C355 1.415 . S
C358 H348 0.930 . S
C358 C356 1.419 . S
C358 C359 1.362 1_556 S
C359 H349 0.930 . S
C359 C352 1.409 1_545 S
C359 C358 1.362 1_554 S
H360 C366 0.930 . S
H361 C369 0.930 . S
H362 C370 0.902 1_556 S
H363 C371 0.930 . S
H364 C374 0.930 . S
H365 C375 0.930 . S
C366 H360 0.930 . S
C366 C367 1.355 . S
C366 C368 1.415 . S
C367 C366 1.355 . S
C367 C369 1.419 . S
C368 C366 1.415 . S
C368 C373 1.439 . S
C368 C375 1.409 . S
C369 H361 0.930 . S
C369 C367 1.419 . S
C369 C370 1.391 . S
C370 H362 0.902 1_554 S
C370 C369 1.391 . S
C370 C373 1.409 . S
C371 H363 0.930 . S
C371 C372 1.355 . S
C371 C373 1.402 1_556 S
C372 C371 1.355 . S
C372 C374 1.419 1_556 S
C373 C368 1.439 . S
C373 C370 1.409 . S
C373 C371 1.402 1_554 S
C374 H364 0.930 . S
C374 C372 1.419 1_554 S
C374 C375 1.362 . S
C375 H365 0.930 . S
C375 C368 1.409 . S
C375 C374 1.362 . S
H376 C382 0.930 . S
H377 C385 0.930 . S
H378 C386 0.930 . S
H379 C387 0.930 . S
H380 C390 0.930 . S
H381 C391 0.930 . S
C382 H376 0.930 . S
C382 C383 1.355 . S
C382 C384 1.415 . S
C383 C382 1.355 . S
C383 C385 1.419 . S
C384 C382 1.415 . S
C384 C389 1.425 . S
C384 C391 1.409 . S
C385 H377 0.930 . S
C385 C383 1.419 . S
C385 C386 1.362 . S
C386 H378 0.930 . S
C386 C385 1.362 . S
C386 C389 1.409 . S
C387 H379 0.930 . S
C387 C388 1.355 1_655 S
C387 C389 1.415 . S
C388 C387 1.355 1_455 S
C388 C390 1.419 . S
C389 C384 1.425 . S
C389 C386 1.409 . S
C389 C387 1.415 . S
C390 H380 0.930 . S
C390 C388 1.419 . S
C390 C391 1.362 1_455 S
C391 H381 0.930 . S
C391 C384 1.409 . S
C391 C390 1.362 1_655 S
H392 C398 0.930 . S
H393 C401 0.930 . S
H394 C402 0.930 . S
H395 C403 0.930 . S
H396 C406 0.930 . S
H397 C407 0.930 . S
C398 H392 0.930 . S
C398 C399 1.355 . S
C398 C400 1.415 . S
C399 C398 1.355 . S
C399 C401 1.419 . S
C400 C398 1.415 . S
C400 C405 1.425 . S
C400 C407 1.409 . S
C401 H393 0.930 . S
C401 C399 1.419 . S
C401 C402 1.362 . S
C402 H394 0.930 . S
C402 C401 1.362 . S
C402 C405 1.409 . S
C403 H395 0.930 . S
C403 C404 1.355 . S
C403 C405 1.415 . S
C404 C403 1.355 . S
C404 C406 1.419 . S
C405 C400 1.425 . S
C405 C402 1.409 . S
C405 C403 1.415 . S
C406 H396 0.930 . S
C406 C404 1.419 . S
C406 C407 1.362 . S
C407 H397 0.930 . S
C407 C400 1.409 . S
C407 C406 1.362 . S
H408 C414 0.930 . S
H409 C417 0.930 . S
H410 C418 0.930 . S
H411 C419 0.930 . S
H412 C422 0.930 . S
H413 C423 0.930 . S
C414 H408 0.930 . S
C414 C415 1.355 . S
C414 C416 1.415 . S
C415 C414 1.355 . S
C415 C417 1.419 . S
C416 C414 1.415 . S
C416 C421 1.425 . S
C416 C423 1.409 . S
C417 H409 0.930 . S
C417 C415 1.419 . S
C417 C418 1.362 . S
C418 H410 0.930 . S
C418 C417 1.362 . S
C418 C421 1.409 . S
C419 H411 0.930 . S
C419 C420 1.355 . S
C419 C421 1.415 . S
C420 C419 1.355 . S
C420 C422 1.419 . S
C421 C416 1.425 . S
C421 C418 1.409 . S
C421 C419 1.415 . S
C422 H412 0.930 . S
C422 C420 1.419 . S
C422 C423 1.362 . S
C423 H413 0.930 . S
C423 C416 1.409 . S
C423 C422 1.362 . S
H424 C430 0.930 . S
H425 C433 0.930 . S
H426 C434 0.930 . S
H427 C435 0.930 1_655 S
H428 C438 0.930 . S
H429 C439 0.930 . S
C430 H424 0.930 . S
C430 C431 1.355 . S
C430 C432 1.415 . S
C431 C430 1.355 . S
C431 C433 1.419 . S
C432 C430 1.415 . S
C432 C437 1.425 . S
C432 C439 1.409 . S
C433 H425 0.930 . S
C433 C431 1.419 . S
C433 C434 1.362 . S
C434 H426 0.930 . S
C434 C433 1.362 . S
C434 C437 1.409 . S
C435 H427 0.930 1_455 S
C435 C436 1.355 . S
C435 C437 1.415 . S
C436 C435 1.355 . S
C436 C438 1.419 . S
C437 C432 1.425 . S
C437 C434 1.409 . S
C437 C435 1.415 . S
C438 H428 0.930 . S
C438 C436 1.419 . S
C438 C439 1.362 . S
C439 H429 0.930 . S
C439 C432 1.409 . S
C439 C438 1.362 . S
H440 C446 0.930 . S
H441 C449 0.930 . S
H442 C450 0.930 . S
H443 C451 0.930 1_565 S
H444 C454 0.930 . S
H445 C455 0.930 . S
C446 H440 0.930 . S
C446 C447 1.355 . S
C446 C448 1.415 . S
C447 C446 1.355 . S
C447 C449 1.419 . S
C448 C446 1.415 . S
C448 C453 1.425 . S
C448 C455 1.409 . S
C449 H441 0.930 . S
C449 C447 1.419 . S
C449 C450 1.362 . S
C450 H442 0.930 . S
C450 C449 1.362 . S
C450 C453 1.409 . S
C451 H443 0.930 1_545 S
C451 C452 1.355 . S
C451 C453 1.415 . S
C452 C451 1.355 . S
C452 C454 1.419 . S
C453 C448 1.425 . S
C453 C450 1.409 . S
C453 C451 1.415 . S
C454 H444 0.930 . S
C454 C452 1.419 . S
C454 C455 1.362 . S
C455 H445 0.930 . S
C455 C448 1.409 . S
C455 C454 1.362 . S
H456 C462 0.930 . S
H457 C465 0.930 . S
H458 C466 0.930 . S
H459 C467 0.930 . S
H460 C470 0.930 . S
H461 C471 0.930 . S
C462 H456 0.930 . S
C462 C463 1.355 . S
C462 C464 1.415 . S
C463 C462 1.355 . S
C463 C465 1.419 . S
C464 C462 1.415 . S
C464 C469 1.425 . S
C464 C471 1.409 . S
C465 H457 0.930 . S
C465 C463 1.419 . S
C465 C466 1.362 . S
C466 H458 0.930 . S
C466 C465 1.362 . S
C466 C469 1.409 . S
C467 H459 0.930 . S
C467 C468 1.355 . S
C467 C469 1.415 . S
C468 C467 1.355 . S
C468 C470 1.419 . S
C469 C464 1.425 . S
C469 C466 1.409 . S
C469 C467 1.415 . S
C470 H460 0.930 . S
C470 C468 1.419 . S
C470 C471 1.362 . S
C471 H461 0.930 . S
C471 C464 1.409 . S
C471 C470 1.362 . S
H472 C478 0.930 . S
H473 C481 0.930 . S
H474 C482 0.930 1_554 S
H475 C483 0.930 . S
H476 C486 0.930 . S
H477 C487 0.930 . S
C478 H472 0.930 . S
C478 C479 1.355 . S
C478 C480 1.415 . S
C479 C478 1.355 . S
C479 C481 1.419 . S
C480 C478 1.415 . S
C480 C485 1.447 . S
C480 C487 1.409 1_655 S
C481 H473 0.930 . S
C481 C479 1.419 . S
C481 C482 1.362 . S
C482 H474 0.930 1_556 S
C482 C481 1.362 . S
C482 C485 1.410 . S
C483 H475 0.930 . S
C483 C484 1.355 1_655 S
C483 C485 1.393 1_554 S
C484 C483 1.355 1_455 S
C484 C486 1.388 1_554 S
C485 C480 1.447 . S
C485 C482 1.410 . S
C485 C483 1.393 1_556 S
C486 H476 0.930 . S
C486 C484 1.388 1_556 S
C486 C487 1.394 . S
C487 H477 0.930 . S
C487 C480 1.409 1_455 S
C487 C486 1.394 . S
H488 C494 0.930 . S
H489 C497 0.930 . S
H490 C498 0.930 . S
H491 C499 0.930 1_545 S
H492 C502 0.930 . S
H493 C503 0.930 . S
C494 H488 0.930 . S
C494 C495 1.355 . S
C494 C496 1.415 . S
C495 C494 1.355 . S
C495 C497 1.419 . S
C496 C494 1.415 . S
C496 C501 1.425 . S
C496 C503 1.409 . S
C497 H489 0.930 . S
C497 C495 1.419 . S
C497 C498 1.362 . S
C498 H490 0.930 . S
C498 C497 1.362 . S
C498 C501 1.409 . S
C499 H491 0.930 1_565 S
C499 C500 1.355 . S
C499 C501 1.415 . S
C500 C499 1.355 . S
C500 C502 1.419 . S
C501 C496 1.425 . S
C501 C498 1.409 . S
C501 C499 1.415 . S
C502 H492 0.930 . S
C502 C500 1.419 . S
C502 C503 1.362 . S
C503 H493 0.930 . S
C503 C496 1.409 . S
C503 C502 1.362 . S
H504 C510 0.930 . S
H505 C513 0.930 . S
H506 C514 0.930 . S
H507 C515 0.930 . S
H508 C518 0.930 . S
H509 C519 0.930 . S
C510 H504 0.930 . S
C510 C511 1.355 . S
C510 C512 1.415 . S
C511 C510 1.355 . S
C511 C513 1.419 . S
C512 C510 1.415 . S
C512 C517 1.425 . S
C512 C519 1.409 . S
C513 H505 0.930 . S
C513 C511 1.419 . S
C513 C514 1.362 . S
C514 H506 0.930 . S
C514 C513 1.362 . S
C514 C517 1.409 . S
C515 H507 0.930 . S
C515 C516 1.355 . S
C515 C517 1.415 . S
C516 C515 1.355 . S
C516 C518 1.419 . S
C517 C512 1.425 . S
C517 C514 1.409 . S
C517 C515 1.415 . S
C518 H508 0.930 . S
C518 C516 1.419 . S
C518 C519 1.362 . S
C519 H509 0.930 . S
C519 C512 1.409 . S
C519 C518 1.362 . S
H520 C526 0.930 . S
H521 C529 0.930 . S
H522 C530 0.930 1_655 S
H523 C531 0.930 . S
H524 C534 0.930 . S
H525 C535 0.930 . S
C526 H520 0.930 . S
C526 C527 1.355 . S
C526 C528 1.415 . S
C527 C526 1.355 . S
C527 C529 1.419 . S
C528 C526 1.415 . S
C528 C533 1.425 . S
C528 C535 1.409 . S
C529 H521 0.930 . S
C529 C527 1.419 . S
C529 C530 1.362 . S
C530 H522 0.930 1_455 S
C530 C529 1.362 . S
C530 C533 1.409 . S
C531 H523 0.930 . S
C531 C532 1.355 1_655 S
C531 C533 1.415 1_655 S
C532 C531 1.355 1_455 S
C532 C534 1.419 . S
C533 C528 1.425 . S
C533 C530 1.409 . S
C533 C531 1.415 1_455 S
C534 H524 0.930 . S
C534 C532 1.419 . S
C534 C535 1.362 . S
C535 H525 0.930 . S
C535 C528 1.409 . S
C535 C534 1.362 . S
H536 C542 0.930 . S
H537 C545 0.930 . S
H538 C546 0.930 . S
H539 C547 0.930 . S
H540 C550 0.930 . S
H541 C551 0.930 . S
C542 H536 0.930 . S
C542 C543 1.355 1_545 S
C542 C544 1.415 . S
C543 C542 1.355 1_565 S
C543 C545 1.419 . S
C544 C542 1.415 . S
C544 C549 1.425 . S
C544 C551 1.409 . S
C545 H537 0.930 . S
C545 C543 1.419 . S
C545 C546 1.362 . S
C546 H538 0.930 . S
C546 C545 1.362 . S
C546 C549 1.409 1_565 S
C547 H539 0.930 . S
C547 C548 1.355 . S
C547 C549 1.415 . S
C548 C547 1.355 . S
C548 C550 1.419 . S
C549 C544 1.425 . S
C549 C546 1.409 1_545 S
C549 C547 1.415 . S
C550 H540 0.930 . S
C550 C548 1.419 . S
C550 C551 1.362 . S
C551 H541 0.930 . S
C551 C544 1.409 . S
C551 C550 1.362 . S
C175 C120 1.317 . S
C180 C8 1.321 . S
C191 C22 1.324 . S
C196 C134 1.320 . S
C207 C36 1.323 . S
C212 C148 1.319 . S
C223 C50 1.321 . S
C228 C162 1.324 . S
C239 C92 1.323 . S
C244 C64 1.323 . S
C255 C78 1.321 . S
C260 C106 1.324 . S
C271 C135 0.995 . S
C276 C9 1.024 . S
C287 C23 1.043 . S
C292 C149 1.045 . S
C303 C163 1.064 . S
C308 C37 0.984 . S
C319 C51 1.035 . S
C324 C93 1.053 . S
C335 C107 0.982 . S
C340 C65 1.054 . S
C351 C121 1.067 . S
C356 C79 1.011 . S
C367 C3 1.468 . S
C372 C77 1.393 . S
C383 C17 1.479 . S
C388 C7 1.416 . S
C399 C21 1.456 1_565 S
C404 C31 1.474 . S
C415 C45 1.481 . S
C420 C35 1.449 . S
C431 C59 1.474 . S
C436 C49 1.456 1_455 S
C447 C73 1.479 . S
C452 C63 1.452 1_545 S
C463 C87 1.446 . S
C468 C105 1.440 . S
C479 C101 1.462 . S
C484 C119 1.385 . S
C495 C115 1.435 . S
C500 C133 1.421 1_565 S
C511 C129 1.442 . S
C516 C147 1.434 . S
C527 C143 1.457 . S
C532 C161 1.451 1_455 S
C543 C91 1.395 . S
C548 C157 1.469 . S
