# Generated by pormake.
# Topology umh, (4)-cn, num edge types: 1
# Building blocks:
#     Node 0, Type 0, BuildingBlock: KOZSID_clean_sbu_0, # of connection points: 4
#     Node 1, Type 0, BuildingBlock: KOZSID_clean_sbu_0, # of connection points: 4
#     Node 2, Type 0, BuildingBlock: KOZSID_clean_sbu_0, # of connection points: 4
#     Node 3, Type 0, BuildingBlock: KOZSID_clean_sbu_0, # of connection points: 4
#     Node 4, Type 0, BuildingBlock: KOZSID_clean_sbu_0, # of connection points: 4
#     Node 5, Type 0, BuildingBlock: KOZSID_clean_sbu_0, # of connection points: 4
#     Node 6, Type 0, BuildingBlock: KOZSID_clean_sbu_0, # of connection points: 4
#     Node 7, Type 0, BuildingBlock: KOZSID_clean_sbu_0, # of connection points: 4
#     Node 8, Type 0, BuildingBlock: KOZSID_clean_sbu_0, # of connection points: 4
#     Node 9, Type 0, BuildingBlock: KOZSID_clean_sbu_0, # of connection points: 4
#     Node 10, Type 0, BuildingBlock: KOZSID_clean_sbu_0, # of connection points: 4
#     Node 11, Type 0, BuildingBlock: KOZSID_clean_sbu_0, # of connection points: 4
#     Node 12, Type 0, BuildingBlock: KOZSID_clean_sbu_0, # of connection points: 4
#     Node 13, Type 0, BuildingBlock: KOZSID_clean_sbu_0, # of connection points: 4
#     Node 14, Type 0, BuildingBlock: KOZSID_clean_sbu_0, # of connection points: 4
#     Node 15, Type 0, BuildingBlock: KOZSID_clean_sbu_0, # of connection points: 4
#     Edge 16, Type (0, 0), BuildingBlock: ZUJKAS_clean_linker_0, # of connection points: 2
#     Edge 17, Type (0, 0), BuildingBlock: ZUJKAS_clean_linker_0, # of connection points: 2
#     Edge 18, Type (0, 0), BuildingBlock: ZUJKAS_clean_linker_0, # of connection points: 2
#     Edge 19, Type (0, 0), BuildingBlock: ZUJKAS_clean_linker_0, # of connection points: 2
#     Edge 20, Type (0, 0), BuildingBlock: ZUJKAS_clean_linker_0, # of connection points: 2
#     Edge 21, Type (0, 0), BuildingBlock: ZUJKAS_clean_linker_0, # of connection points: 2
#     Edge 22, Type (0, 0), BuildingBlock: ZUJKAS_clean_linker_0, # of connection points: 2
#     Edge 23, Type (0, 0), BuildingBlock: ZUJKAS_clean_linker_0, # of connection points: 2
#     Edge 24, Type (0, 0), BuildingBlock: ZUJKAS_clean_linker_0, # of connection points: 2
#     Edge 25, Type (0, 0), BuildingBlock: ZUJKAS_clean_linker_0, # of connection points: 2
#     Edge 26, Type (0, 0), BuildingBlock: ZUJKAS_clean_linker_0, # of connection points: 2
#     Edge 27, Type (0, 0), BuildingBlock: ZUJKAS_clean_linker_0, # of connection points: 2
#     Edge 28, Type (0, 0), BuildingBlock: ZUJKAS_clean_linker_0, # of connection points: 2
#     Edge 29, Type (0, 0), BuildingBlock: ZUJKAS_clean_linker_0, # of connection points: 2
#     Edge 30, Type (0, 0), BuildingBlock: ZUJKAS_clean_linker_0, # of connection points: 2
#     Edge 31, Type (0, 0), BuildingBlock: ZUJKAS_clean_linker_0, # of connection points: 2
#     Edge 32, Type (0, 0), BuildingBlock: ZUJKAS_clean_linker_0, # of connection points: 2
#     Edge 33, Type (0, 0), BuildingBlock: ZUJKAS_clean_linker_0, # of connection points: 2
#     Edge 34, Type (0, 0), BuildingBlock: ZUJKAS_clean_linker_0, # of connection points: 2
#     Edge 35, Type (0, 0), BuildingBlock: ZUJKAS_clean_linker_0, # of connection points: 2
#     Edge 36, Type (0, 0), BuildingBlock: ZUJKAS_clean_linker_0, # of connection points: 2
#     Edge 37, Type (0, 0), BuildingBlock: ZUJKAS_clean_linker_0, # of connection points: 2
#     Edge 38, Type (0, 0), BuildingBlock: ZUJKAS_clean_linker_0, # of connection points: 2
#     Edge 39, Type (0, 0), BuildingBlock: ZUJKAS_clean_linker_0, # of connection points: 2
#     Edge 40, Type (0, 0), BuildingBlock: ZUJKAS_clean_linker_0, # of connection points: 2
#     Edge 41, Type (0, 0), BuildingBlock: ZUJKAS_clean_linker_0, # of connection points: 2
#     Edge 42, Type (0, 0), BuildingBlock: ZUJKAS_clean_linker_0, # of connection points: 2
#     Edge 43, Type (0, 0), BuildingBlock: ZUJKAS_clean_linker_0, # of connection points: 2
#     Edge 44, Type (0, 0), BuildingBlock: ZUJKAS_clean_linker_0, # of connection points: 2
#     Edge 45, Type (0, 0), BuildingBlock: ZUJKAS_clean_linker_0, # of connection points: 2
#     Edge 46, Type (0, 0), BuildingBlock: ZUJKAS_clean_linker_0, # of connection points: 2
#     Edge 47, Type (0, 0), BuildingBlock: ZUJKAS_clean_linker_0, # of connection points: 2
# Relax obj value: 0.070
# Max RMSD: 0.153
# Mean RMSD: 0.153
data_MOF--net-umh--node1-KOZSID_clean_sbu_0--edge1-ZUJKAS_clean_linker_0
_symmetry_space_group_name_H-M    P1
_symmetry_Int_Tables_number       1
_symmetry_cell_setting            triclinic
loop_
_symmetry_equiv_pos_as_xyz
'x, y, z'
_cell_length_a     66.889299
_cell_length_b     66.838667
_cell_length_c     75.846945
_cell_angle_alpha  89.99309
_cell_angle_beta   89.988746
_cell_angle_gamma 90.00014
loop_
_atom_site_label
_atom_site_type_symbol
_atom_site_fract_x
_atom_site_fract_y
_atom_site_fract_z
_atom_type_partial_charge
C0 C 0.31499 0.08926 0.1647 0.0
C1 C 0.29907 0.07618 0.16689 0.0
C2 C 0.29734 0.06565 0.15142 0.0
C3 C 0.31227 0.07284 0.14071 0.0
N4 N 0.32322 0.0872 0.14851 0.0
Co5 Co 0.34604 0.10166 0.1379 0.0
N6 N 0.3372 0.09475 0.11374 0.0
C7 C 0.32467 0.07976 0.10944 0.0
C8 C 0.32158 0.07824 0.0916 0.0
C9 C 0.33303 0.09308 0.08424 0.0
C10 C 0.34249 0.10289 0.09808 0.0
N11 N 0.36898 0.11602 0.12726 0.0
C12 C 0.3718 0.12224 0.11042 0.0
C13 C 0.39026 0.1315 0.10862 0.0
C14 C 0.39932 0.13072 0.12488 0.0
C15 C 0.38593 0.12112 0.1357 0.0
N16 N 0.35464 0.10844 0.16217 0.0
C17 C 0.37307 0.11428 0.16702 0.0
C18 C 0.37428 0.11842 0.18475 0.0
C19 C 0.35544 0.11492 0.19136 0.0
C20 C 0.34376 0.10877 0.17726 0.0
N21 N 0.36236 0.07706 0.13872 0.0
C22 C 0.38878 0.0441 0.14058 0.0
C23 C 0.37641 0.0492 0.15489 0.0
C24 C 0.36328 0.0656 0.15366 0.0
C25 C 0.38714 0.05567 0.12521 0.0
C26 C 0.37396 0.07192 0.12454 0.0
N27 N 0.33018 0.12638 0.13709 0.0
C28 C 0.32795 0.16189 0.14232 0.0
C29 C 0.30817 0.16231 0.13625 0.0
C30 C 0.29968 0.1442 0.13049 0.0
C31 C 0.31091 0.12644 0.13105 0.0
C32 C 0.3386 0.14392 0.14265 0.0
H33 H 0.30401 0.11273 0.12663 0.0
H34 H 0.35376 0.14429 0.14739 0.0
H35 H 0.35413 0.06922 0.16494 0.0
H36 H 0.37356 0.08063 0.1126 0.0
C37 C 0.31394 0.06955 0.12253 0.0
C38 C 0.32271 0.10255 0.17849 0.0
C39 C 0.35793 0.11831 0.09574 0.0
C40 C 0.38727 0.11945 0.15415 0.0
H41 H 0.2897 0.07446 0.17843 0.0
H42 H 0.28596 0.05477 0.14811 0.0
H43 H 0.31179 0.06794 0.08477 0.0
H44 H 0.33451 0.09608 0.07028 0.0
H45 H 0.39659 0.13799 0.0968 0.0
H46 H 0.41366 0.13701 0.12847 0.0
H47 H 0.38701 0.12429 0.19187 0.0
H48 H 0.35082 0.11681 0.20493 0.0
H49 H 0.37681 0.04061 0.16698 0.0
H50 H 0.39645 0.05263 0.11384 0.0
H51 H 0.33538 0.17544 0.1466 0.0
H52 H 0.2844 0.14367 0.12581 0.0
C53 C 0.42623 0.31505 0.66382 0.0
C54 C 0.43908 0.29884 0.66544 0.0
C55 C 0.44926 0.29736 0.64978 0.0
C56 C 0.44202 0.31262 0.63947 0.0
N57 N 0.42792 0.32354 0.64768 0.0
Co58 Co 0.41327 0.34657 0.63752 0.0
N59 N 0.41993 0.33825 0.61315 0.0
C60 C 0.43484 0.32579 0.6085 0.0
C61 C 0.43616 0.32307 0.59061 0.0
C62 C 0.42126 0.33467 0.58357 0.0
C63 C 0.41162 0.34385 0.59764 0.0
N64 N 0.39873 0.36969 0.62736 0.0
C65 C 0.3923 0.37282 0.61063 0.0
C66 C 0.38297 0.3913 0.6092 0.0
C67 C 0.38391 0.40004 0.62558 0.0
C68 C 0.39368 0.38647 0.63611 0.0
N69 N 0.40675 0.35469 0.66197 0.0
C70 C 0.401 0.37304 0.66715 0.0
C71 C 0.39727 0.37399 0.68497 0.0
C72 C 0.40096 0.35505 0.69129 0.0
C73 C 0.40671 0.34357 0.67693 0.0
N74 N 0.43785 0.36297 0.63837 0.0
C75 C 0.47077 0.38946 0.64034 0.0
C76 C 0.46591 0.37669 0.65446 0.0
C77 C 0.44953 0.36356 0.65319 0.0
C78 C 0.45895 0.38818 0.62509 0.0
C79 C 0.44274 0.37494 0.62437 0.0
N80 N 0.38857 0.33066 0.63666 0.0
C81 C 0.35309 0.32841 0.64195 0.0
C82 C 0.35242 0.30902 0.63491 0.0
C83 C 0.3705 0.3006 0.629 0.0
C84 C 0.38837 0.31164 0.63 0.0
C85 C 0.37113 0.3389 0.64264 0.0
H86 H 0.40199 0.30487 0.62526 0.0
H87 H 0.3709 0.3538 0.64802 0.0
H88 H 0.4461 0.35413 0.66433 0.0
H89 H 0.43386 0.3748 0.61252 0.0
C90 C 0.44508 0.31469 0.6213 0.0
C91 C 0.4133 0.32262 0.67798 0.0
C92 C 0.39611 0.35926 0.59569 0.0
C93 C 0.39562 0.38748 0.65455 0.0
H94 H 0.44087 0.28901 0.67666 0.0
H95 H 0.45989 0.28591 0.64607 0.0
H96 H 0.44635 0.31337 0.58353 0.0
H97 H 0.41809 0.33642 0.56967 0.0
H98 H 0.37633 0.39784 0.59754 0.0
H99 H 0.37764 0.41431 0.62945 0.0
H100 H 0.39164 0.38664 0.69236 0.0
H101 H 0.3996 0.35022 0.70486 0.0
H102 H 0.47469 0.37678 0.66644 0.0
H103 H 0.46178 0.39779 0.61387 0.0
H104 H 0.33976 0.3355 0.64709 0.0
H105 H 0.37085 0.28573 0.62335 0.0
C106 C 0.19893 0.42695 0.16427 0.0
C107 C 0.21481 0.4401 0.16632 0.0
C108 C 0.21647 0.45048 0.15076 0.0
C109 C 0.20154 0.44313 0.14013 0.0
N110 N 0.19065 0.42883 0.14808 0.0
Co111 Co 0.16789 0.41413 0.13763 0.0
N112 N 0.17669 0.42076 0.1134 0.0
C113 C 0.18914 0.43577 0.10894 0.0
C114 C 0.19219 0.43711 0.09109 0.0
C115 C 0.1808 0.42214 0.08388 0.0
C116 C 0.1714 0.41244 0.09781 0.0
N117 N 0.14504 0.39948 0.12716 0.0
C118 C 0.14224 0.39302 0.11039 0.0
C119 C 0.12383 0.38362 0.10872 0.0
C120 C 0.11478 0.38456 0.12497 0.0
C121 C 0.12812 0.39439 0.13567 0.0
N122 N 0.15931 0.40768 0.16198 0.0
C123 C 0.14092 0.40184 0.1669 0.0
C124 C 0.13975 0.39788 0.18467 0.0
C125 C 0.15858 0.40152 0.19122 0.0
C126 C 0.17022 0.40755 0.17705 0.0
N127 N 0.15142 0.43866 0.13816 0.0
C128 C 0.12442 0.47111 0.1398 0.0
C129 C 0.13737 0.46683 0.1539 0.0
C130 C 0.15069 0.45057 0.15284 0.0
C131 C 0.12595 0.4592 0.12465 0.0
C132 C 0.1395 0.44326 0.12405 0.0
N133 N 0.18387 0.38948 0.13708 0.0
C134 C 0.18623 0.35403 0.1426 0.0
C135 C 0.20595 0.35359 0.13636 0.0
C136 C 0.21436 0.37166 0.13042 0.0
C137 C 0.2031 0.38941 0.13092 0.0
C138 C 0.17555 0.37198 0.14286 0.0
H139 H 0.20992 0.40309 0.12634 0.0
H140 H 0.16042 0.37163 0.14771 0.0
H141 H 0.16004 0.44731 0.16408 0.0
H142 H 0.13994 0.43436 0.11222 0.0
C143 C 0.19984 0.44618 0.12192 0.0
C144 C 0.19128 0.41377 0.17817 0.0
C145 C 0.15602 0.39693 0.09563 0.0
C146 C 0.12676 0.39636 0.1541 0.0
H147 H 0.2242 0.44196 0.17783 0.0
H148 H 0.22783 0.46134 0.14733 0.0
H149 H 0.20192 0.44738 0.08415 0.0
H150 H 0.1793 0.41899 0.06995 0.0
H151 H 0.11753 0.37694 0.09697 0.0
H152 H 0.10048 0.37825 0.12864 0.0
H153 H 0.12705 0.39202 0.19186 0.0
H154 H 0.16323 0.39975 0.2048 0.0
H155 H 0.1368 0.47557 0.16591 0.0
H156 H 0.11663 0.46209 0.11325 0.0
H157 H 0.17886 0.34051 0.14703 0.0
H158 H 0.22959 0.37218 0.12561 0.0
C159 C 0.08868 0.19893 0.66464 0.0
C160 C 0.0756 0.21487 0.66675 0.0
C161 C 0.06507 0.21649 0.65127 0.0
C162 C 0.07227 0.20149 0.64063 0.0
N163 N 0.08664 0.1906 0.64849 0.0
Co164 Co 0.10113 0.16773 0.63799 0.0
N165 N 0.09419 0.1764 0.61379 0.0
C166 C 0.07916 0.18886 0.60943 0.0
C167 C 0.07762 0.19183 0.59158 0.0
C168 C 0.09249 0.18039 0.58428 0.0
C169 C 0.10233 0.17104 0.59815 0.0
N170 N 0.11556 0.14476 0.62746 0.0
C171 C 0.12181 0.14189 0.61064 0.0
C172 C 0.13112 0.12343 0.60892 0.0
C173 C 0.13036 0.11444 0.62521 0.0
C174 C 0.12071 0.12786 0.63597 0.0
N175 N 0.10788 0.15925 0.6623 0.0
C176 C 0.11373 0.14084 0.66723 0.0
C177 C 0.11784 0.13972 0.68498 0.0
C178 C 0.11429 0.15861 0.69151 0.0
C179 C 0.10816 0.17021 0.67735 0.0
N180 N 0.07656 0.15132 0.63887 0.0
C181 C 0.04358 0.12489 0.64085 0.0
C182 C 0.0486 0.13749 0.65504 0.0
C183 C 0.06501 0.15059 0.65376 0.0
C184 C 0.05528 0.12631 0.62553 0.0
C185 C 0.07151 0.13952 0.6248 0.0
N186 N 0.12581 0.18366 0.63712 0.0
C187 C 0.16122 0.18617 0.64267 0.0
C188 C 0.16165 0.20579 0.63618 0.0
C189 C 0.14362 0.21406 0.63005 0.0
C190 C 0.12588 0.2028 0.63071 0.0
C191 C 0.14331 0.17543 0.64298 0.0
H192 H 0.11221 0.20957 0.62607 0.0
H193 H 0.14367 0.16035 0.64796 0.0
H194 H 0.06856 0.15989 0.66497 0.0
H195 H 0.08028 0.13979 0.61289 0.0
C196 C 0.06896 0.19968 0.62247 0.0
C197 C 0.10194 0.19128 0.67848 0.0
C198 C 0.11784 0.15568 0.5959 0.0
C199 C 0.11899 0.12659 0.65442 0.0
H200 H 0.07387 0.22431 0.67824 0.0
H201 H 0.05419 0.22785 0.64791 0.0
H202 H 0.0673 0.20156 0.5847 0.0
H203 H 0.0955 0.17884 0.57032 0.0
H204 H 0.13763 0.11707 0.59712 0.0
H205 H 0.13668 0.10012 0.62886 0.0
H206 H 0.12372 0.12703 0.69216 0.0
H207 H 0.11616 0.1633 0.70506 0.0
H208 H 0.03992 0.1373 0.66709 0.0
H209 H 0.05233 0.11684 0.61425 0.0
H210 H 0.17474 0.17895 0.64728 0.0
H211 H 0.14313 0.22922 0.62502 0.0
C212 C 0.31513 0.42644 0.34322 0.0
C213 C 0.29895 0.43932 0.34155 0.0
C214 C 0.29741 0.44948 0.35721 0.0
C215 C 0.3126 0.44222 0.36757 0.0
N216 N 0.32353 0.4281 0.3594 0.0
Co217 Co 0.34649 0.41343 0.36963 0.0
N218 N 0.33808 0.4201 0.39397 0.0
C219 C 0.32562 0.43502 0.39858 0.0
C220 C 0.32282 0.43635 0.41647 0.0
C221 C 0.33438 0.42143 0.42354 0.0
C222 C 0.34361 0.41178 0.4095 0.0
N223 N 0.36955 0.39887 0.37986 0.0
C224 C 0.37261 0.39243 0.39661 0.0
C225 C 0.39106 0.38309 0.3981 0.0
C226 C 0.39987 0.38403 0.38175 0.0
C227 C 0.38635 0.3938 0.37117 0.0
N228 N 0.35471 0.4069 0.3452 0.0
C229 C 0.37307 0.40113 0.34008 0.0
C230 C 0.3741 0.39741 0.32227 0.0
C231 C 0.35521 0.40114 0.31588 0.0
C232 C 0.34368 0.40689 0.3302 0.0
N233 N 0.3629 0.43802 0.36882 0.0
C234 C 0.38931 0.47102 0.36696 0.0
C235 C 0.37666 0.46612 0.35279 0.0
C236 C 0.36357 0.4497 0.354 0.0
C237 C 0.38797 0.45918 0.3822 0.0
C238 C 0.37478 0.44292 0.38287 0.0
N239 N 0.33058 0.38871 0.37045 0.0
C240 C 0.32836 0.35319 0.36524 0.0
C241 C 0.30896 0.35254 0.37224 0.0
C242 C 0.30053 0.37065 0.37809 0.0
C243 C 0.31156 0.38852 0.37707 0.0
C244 C 0.33884 0.37125 0.36452 0.0
H245 H 0.30478 0.40217 0.38177 0.0
H246 H 0.35375 0.37101 0.35918 0.0
H247 H 0.35421 0.44626 0.34282 0.0
H248 H 0.37459 0.43404 0.39472 0.0
C249 C 0.31459 0.44527 0.38574 0.0
C250 C 0.32276 0.41352 0.32908 0.0
C251 C 0.359 0.39626 0.4115 0.0
C252 C 0.38744 0.39574 0.35274 0.0
H253 H 0.2892 0.44113 0.33029 0.0
H254 H 0.28595 0.46014 0.36088 0.0
H255 H 0.31311 0.44654 0.42351 0.0
H256 H 0.33607 0.41826 0.43745 0.0
H257 H 0.39755 0.37645 0.40979 0.0
H258 H 0.41414 0.37775 0.37792 0.0
H259 H 0.38678 0.39178 0.31492 0.0
H260 H 0.35046 0.3998 0.30229 0.0
H261 H 0.37681 0.47492 0.3408 0.0
H262 H 0.39749 0.46204 0.39347 0.0
H263 H 0.33547 0.33983 0.36015 0.0
H264 H 0.28565 0.371 0.38371 0.0
C265 C 0.08786 0.31547 0.84371 0.0
C266 C 0.07492 0.29931 0.84222 0.0
C267 C 0.06482 0.29797 0.85793 0.0
C268 C 0.07219 0.31324 0.86814 0.0
N269 N 0.0863 0.32404 0.85983 0.0
Co270 Co 0.10119 0.34699 0.86985 0.0
N271 N 0.09462 0.33882 0.89427 0.0
C272 C 0.07963 0.3265 0.89903 0.0
C273 C 0.07839 0.32386 0.91694 0.0
C274 C 0.09344 0.33537 0.92386 0.0
C275 C 0.10308 0.34441 0.90971 0.0
N276 N 0.11602 0.37001 0.87986 0.0
C277 C 0.12263 0.37311 0.89655 0.0
C278 C 0.13212 0.39152 0.89788 0.0
C279 C 0.1311 0.40025 0.8815 0.0
C280 C 0.12113 0.38674 0.87106 0.0
N281 N 0.10757 0.35501 0.84535 0.0
C282 C 0.11339 0.37332 0.84009 0.0
C283 C 0.11699 0.37419 0.82225 0.0
C284 C 0.11313 0.35526 0.816 0.0
C285 C 0.10743 0.34386 0.83042 0.0
N286 N 0.07675 0.36359 0.8691 0.0
C287 C 0.04439 0.39063 0.86703 0.0
C288 C 0.04838 0.37712 0.85329 0.0
C289 C 0.06465 0.36383 0.85453 0.0
C290 C 0.05656 0.38972 0.88206 0.0
C291 C 0.07241 0.37607 0.88289 0.0
N292 N 0.12577 0.3309 0.8706 0.0
C293 C 0.16122 0.32845 0.86526 0.0
C294 C 0.16179 0.30908 0.87235 0.0
C295 C 0.14368 0.30076 0.87829 0.0
C296 C 0.12588 0.3119 0.87731 0.0
C297 C 0.14323 0.33902 0.86455 0.0
H298 H 0.11223 0.30523 0.88212 0.0
H299 H 0.14353 0.3539 0.85912 0.0
H300 H 0.06771 0.35407 0.84352 0.0
H301 H 0.08145 0.37601 0.89464 0.0
C302 C 0.06924 0.31542 0.88631 0.0
C303 C 0.10074 0.32294 0.82947 0.0
C304 C 0.11877 0.35964 0.91153 0.0
C305 C 0.11901 0.38774 0.85263 0.0
H306 H 0.07303 0.28943 0.83105 0.0
H307 H 0.05416 0.28658 0.86173 0.0
H308 H 0.06818 0.31427 0.92409 0.0
H309 H 0.09672 0.33712 0.93774 0.0
H310 H 0.13888 0.39803 0.9095 0.0
H311 H 0.13744 0.41447 0.87757 0.0
H312 H 0.12265 0.38679 0.8148 0.0
H313 H 0.11437 0.35039 0.80243 0.0
H314 H 0.0394 0.37723 0.84141 0.0
H315 H 0.05388 0.39954 0.89316 0.0
H316 H 0.17459 0.33545 0.8601 0.0
H317 H 0.14328 0.2859 0.88397 0.0
C318 C 0.19861 0.08803 0.34369 0.0
C319 C 0.21475 0.07508 0.34214 0.0
C320 C 0.21613 0.06495 0.35783 0.0
C321 C 0.20091 0.07232 0.36809 0.0
N322 N 0.1901 0.08646 0.35982 0.0
Co323 Co 0.1672 0.10136 0.36992 0.0
N324 N 0.17548 0.0948 0.39431 0.0
C325 C 0.18782 0.0798 0.39903 0.0
C326 C 0.19052 0.07856 0.41693 0.0
C327 C 0.17904 0.0936 0.4239 0.0
C328 C 0.16994 0.10324 0.40978 0.0
N329 N 0.14422 0.11616 0.38001 0.0
C330 C 0.14114 0.12272 0.39671 0.0
C331 C 0.12274 0.1322 0.39809 0.0
C332 C 0.11399 0.13122 0.38172 0.0
C333 C 0.12749 0.12128 0.37124 0.0
N334 N 0.15913 0.10779 0.34544 0.0
C335 C 0.14083 0.11365 0.34023 0.0
C336 C 0.13993 0.11731 0.3224 0.0
C337 C 0.15884 0.11346 0.31611 0.0
C338 C 0.17025 0.1077 0.33049 0.0
N339 N 0.15064 0.07688 0.3692 0.0
C340 C 0.12418 0.04391 0.3675 0.0
C341 C 0.13689 0.04866 0.35332 0.0
C342 C 0.15 0.06508 0.35446 0.0
C343 C 0.12546 0.05589 0.38265 0.0
C344 C 0.13868 0.07213 0.38325 0.0
N345 N 0.1833 0.12596 0.37062 0.0
C346 C 0.18609 0.1613 0.36467 0.0
C347 C 0.20559 0.16172 0.37142 0.0
C348 C 0.21365 0.14373 0.37786 0.0
C349 C 0.20232 0.12602 0.37726 0.0
C350 C 0.17527 0.14342 0.36444 0.0
H351 H 0.20893 0.11238 0.38215 0.0
H352 H 0.16029 0.1438 0.35927 0.0
H353 H 0.15942 0.0684 0.34328 0.0
H354 H 0.13884 0.08112 0.39503 0.0
C355 C 0.19882 0.06939 0.38628 0.0
C356 C 0.19114 0.10098 0.32949 0.0
C357 C 0.15464 0.11887 0.41167 0.0
C358 C 0.12645 0.11922 0.35281 0.0
H359 H 0.22461 0.07321 0.33096 0.0
H360 H 0.22753 0.05428 0.3616 0.0
H361 H 0.20012 0.06833 0.42405 0.0
H362 H 0.1773 0.09686 0.43779 0.0
H363 H 0.11626 0.13897 0.40972 0.0
H364 H 0.09978 0.13758 0.37782 0.0
H365 H 0.12733 0.12301 0.31499 0.0
H366 H 0.16368 0.11475 0.30254 0.0
H367 H 0.13678 0.03976 0.3414 0.0
H368 H 0.11589 0.05315 0.39391 0.0
H369 H 0.17903 0.1748 0.35982 0.0
H370 H 0.2287 0.14324 0.38309 0.0
C371 C 0.42539 0.19854 0.843 0.0
C372 C 0.43852 0.21446 0.841 0.0
C373 C 0.44895 0.21599 0.85654 0.0
C374 C 0.44164 0.20096 0.8671 0.0
N375 N 0.42731 0.19014 0.85913 0.0
Co376 Co 0.41268 0.16727 0.8695 0.0
N377 N 0.41946 0.17584 0.89376 0.0
C378 C 0.43451 0.18823 0.89823 0.0
C379 C 0.43596 0.19111 0.9161 0.0
C380 C 0.42101 0.17968 0.9233 0.0
C381 C 0.41121 0.17044 0.90934 0.0
N382 N 0.39809 0.14432 0.87989 0.0
C383 C 0.3917 0.14141 0.89667 0.0
C384 C 0.38227 0.12299 0.89827 0.0
C385 C 0.38312 0.11406 0.88196 0.0
C386 C 0.39293 0.12747 0.8713 0.0
N387 N 0.40609 0.15889 0.84513 0.0
C388 C 0.40023 0.14052 0.84011 0.0
C389 C 0.39626 0.13947 0.82234 0.0
C390 C 0.39991 0.15837 0.81588 0.0
C391 C 0.40595 0.16991 0.83011 0.0
N392 N 0.4372 0.15079 0.86873 0.0
C393 C 0.47021 0.12439 0.86697 0.0
C394 C 0.46529 0.13697 0.85274 0.0
C395 C 0.44887 0.15006 0.85391 0.0
C396 C 0.45837 0.12578 0.8822 0.0
C397 C 0.44212 0.13897 0.88282 0.0
N398 N 0.38804 0.18328 0.87027 0.0
C399 C 0.3527 0.18595 0.86448 0.0
C400 C 0.35228 0.2055 0.87114 0.0
C401 C 0.37027 0.21366 0.87745 0.0
C402 C 0.38798 0.20236 0.87681 0.0
C403 C 0.37058 0.17515 0.86423 0.0
H404 H 0.40163 0.20904 0.88158 0.0
H405 H 0.3702 0.16012 0.85914 0.0
H406 H 0.44542 0.15938 0.84269 0.0
H407 H 0.43324 0.13921 0.89468 0.0
C408 C 0.44483 0.19907 0.88528 0.0
C409 C 0.41221 0.19097 0.82907 0.0
C410 C 0.39564 0.15511 0.91148 0.0
C411 C 0.3948 0.12625 0.85286 0.0
H412 H 0.44034 0.22394 0.82954 0.0
H413 H 0.45983 0.22731 0.85999 0.0
H414 H 0.44628 0.20077 0.92305 0.0
H415 H 0.41794 0.17806 0.93723 0.0
H416 H 0.37563 0.11661 0.91 0.0
H417 H 0.37676 0.09979 0.87823 0.0
H418 H 0.3904 0.12682 0.81509 0.0
H419 H 0.39816 0.16311 0.80233 0.0
H420 H 0.47408 0.13678 0.84076 0.0
H421 H 0.46124 0.11632 0.89351 0.0
H422 H 0.33919 0.17884 0.85971 0.0
H423 H 0.37074 0.22875 0.88261 0.0
C424 C 0.66939 0.90573 0.83055 0.0
C425 C 0.6578 0.8995 0.81642 0.0
C426 C 0.63896 0.8959 0.82297 0.0
C427 C 0.64008 0.90006 0.8407 0.0
N428 N 0.65845 0.906 0.84561 0.0
Co429 Co 0.66693 0.91281 0.86991 0.0
N430 N 0.64402 0.89834 0.88048 0.0
C431 C 0.62713 0.89314 0.87198 0.0
C432 C 0.61374 0.88347 0.88276 0.0
C433 C 0.62272 0.88276 0.89904 0.0
C434 C 0.64115 0.89211 0.89731 0.0
N435 N 0.67563 0.91976 0.8941 0.0
C436 C 0.67029 0.91164 0.90975 0.0
C437 C 0.67963 0.92152 0.92361 0.0
C438 C 0.69106 0.93639 0.91628 0.0
C439 C 0.68808 0.93481 0.89843 0.0
N440 N 0.68973 0.92737 0.85936 0.0
C441 C 0.70058 0.94178 0.8672 0.0
C442 C 0.71552 0.94904 0.85653 0.0
C443 C 0.7139 0.93851 0.84105 0.0
C444 C 0.69803 0.92535 0.8432 0.0
N445 N 0.65049 0.93736 0.86904 0.0
C446 C 0.62401 0.9703 0.86709 0.0
C447 C 0.6255 0.95863 0.88243 0.0
C448 C 0.63874 0.94241 0.88314 0.0
C449 C 0.63655 0.96527 0.85287 0.0
C450 C 0.64968 0.94888 0.85413 0.0
N451 N 0.68292 0.88814 0.87076 0.0
C452 C 0.71349 0.87047 0.87744 0.0
C453 C 0.70515 0.85232 0.87162 0.0
C454 C 0.68538 0.85265 0.86547 0.0
C455 C 0.67462 0.87056 0.86515 0.0
C456 C 0.70216 0.88818 0.87688 0.0
H457 H 0.65948 0.87013 0.86035 0.0
H458 H 0.70896 0.90191 0.88134 0.0
H459 H 0.63906 0.93366 0.89507 0.0
H460 H 0.65894 0.94533 0.84291 0.0
C461 C 0.62585 0.89481 0.85353 0.0
C462 C 0.69042 0.91205 0.82938 0.0
C463 C 0.6549 0.89616 0.91205 0.0
C464 C 0.69882 0.94506 0.88537 0.0
H465 H 0.66248 0.89761 0.80286 0.0
H466 H 0.62628 0.88996 0.81582 0.0
H467 H 0.59944 0.87711 0.87912 0.0
H468 H 0.61637 0.87625 0.91085 0.0
H469 H 0.67808 0.91855 0.93757 0.0
H470 H 0.70077 0.94674 0.92313 0.0
H471 H 0.72684 0.95997 0.85987 0.0
H472 H 0.72329 0.94028 0.82954 0.0
H473 H 0.61607 0.96159 0.89373 0.0
H474 H 0.6363 0.97394 0.84081 0.0
H475 H 0.72874 0.87108 0.88218 0.0
H476 H 0.67805 0.83907 0.86113 0.0
C477 C 0.60841 0.67009 0.33036 0.0
C478 C 0.61499 0.65854 0.31632 0.0
C479 C 0.61853 0.63969 0.32289 0.0
C480 C 0.61406 0.64076 0.34056 0.0
N481 N 0.60798 0.65913 0.34542 0.0
Co482 Co 0.60105 0.66759 0.36971 0.0
N483 N 0.61547 0.64467 0.38035 0.0
C484 C 0.62075 0.62779 0.37187 0.0
C485 C 0.63041 0.61443 0.38268 0.0
C486 C 0.63103 0.62343 0.39897 0.0
C487 C 0.62163 0.64183 0.3972 0.0
N488 N 0.59395 0.67627 0.39387 0.0
C489 C 0.602 0.67095 0.40956 0.0
C490 C 0.59201 0.68026 0.42338 0.0
C491 C 0.57715 0.69163 0.416 0.0
C492 C 0.57884 0.68867 0.39815 0.0
N493 N 0.58656 0.69041 0.35912 0.0
C494 C 0.57204 0.70118 0.3669 0.0
C495 C 0.56468 0.71602 0.35619 0.0
C496 C 0.57525 0.71442 0.34073 0.0
C497 C 0.58855 0.69868 0.34294 0.0
N498 N 0.57653 0.65112 0.36874 0.0
C499 C 0.54359 0.62465 0.36672 0.0
C500 C 0.5552 0.62614 0.38208 0.0
C501 C 0.57142 0.63937 0.38283 0.0
C502 C 0.54869 0.63718 0.3525 0.0
C503 C 0.56508 0.65029 0.35379 0.0
N504 N 0.6257 0.68357 0.37071 0.0
C505 C 0.64354 0.71383 0.37818 0.0
C506 C 0.66175 0.70534 0.37267 0.0
C507 C 0.66127 0.68581 0.36592 0.0
C508 C 0.64327 0.67527 0.36511 0.0
C509 C 0.62573 0.70272 0.37709 0.0
H510 H 0.64364 0.66027 0.35995 0.0
H511 H 0.61199 0.70953 0.38153 0.0
H512 H 0.58012 0.63969 0.39477 0.0
H513 H 0.56869 0.65955 0.34257 0.0
C514 C 0.61924 0.62654 0.35342 0.0
C515 C 0.60192 0.69112 0.32912 0.0
C516 C 0.61752 0.65562 0.41191 0.0
C517 C 0.56864 0.69939 0.38506 0.0
H518 H 0.61723 0.66321 0.30281 0.0
H519 H 0.6247 0.62706 0.31581 0.0
H520 H 0.63685 0.60015 0.37906 0.0
H521 H 0.63753 0.61711 0.41078 0.0
H522 H 0.5949 0.6787 0.43735 0.0
H523 H 0.56672 0.70131 0.42281 0.0
H524 H 0.55362 0.72724 0.35946 0.0
H525 H 0.57338 0.72373 0.32917 0.0
H526 H 0.5522 0.61672 0.39338 0.0
H527 H 0.54008 0.63691 0.34042 0.0
H528 H 0.64306 0.7288 0.38359 0.0
H529 H 0.67472 0.67865 0.36109 0.0
C530 C 0.84458 0.60884 0.83003 0.0
C531 C 0.85631 0.61528 0.81606 0.0
C532 C 0.87513 0.61861 0.82276 0.0
C533 C 0.87385 0.61409 0.84042 0.0
N534 N 0.85541 0.60817 0.84515 0.0
Co535 Co 0.84671 0.60092 0.86931 0.0
N536 N 0.86973 0.6149 0.88021 0.0
C537 C 0.88671 0.6201 0.87186 0.0
C538 C 0.90022 0.62926 0.88285 0.0
C539 C 0.89122 0.62963 0.89913 0.0
C540 C 0.87267 0.62059 0.89718 0.0
N541 N 0.83771 0.59364 0.89336 0.0
C542 C 0.84306 0.60137 0.90918 0.0
C543 C 0.83339 0.59142 0.92282 0.0
C544 C 0.82178 0.57689 0.91521 0.0
C545 C 0.82497 0.57873 0.89741 0.0
N546 N 0.82388 0.58675 0.85841 0.0
C547 C 0.81282 0.57231 0.86599 0.0
C548 C 0.79794 0.56533 0.85512 0.0
C549 C 0.79981 0.57609 0.83978 0.0
C550 C 0.81576 0.58908 0.84221 0.0
N551 N 0.86293 0.57623 0.86818 0.0
C552 C 0.88915 0.5432 0.86601 0.0
C553 C 0.88686 0.55393 0.88176 0.0
C554 C 0.87391 0.57036 0.88252 0.0
C555 C 0.8776 0.54912 0.85146 0.0
C556 C 0.86442 0.56545 0.85287 0.0
N557 N 0.83096 0.62572 0.87043 0.0
C558 C 0.80039 0.6435 0.87692 0.0
C559 C 0.80896 0.66169 0.87147 0.0
C560 C 0.82885 0.66133 0.86563 0.0
C561 C 0.83949 0.64335 0.86521 0.0
C562 C 0.81161 0.62572 0.87627 0.0
H563 H 0.85471 0.64376 0.86062 0.0
H564 H 0.80462 0.61196 0.88044 0.0
H565 H 0.87318 0.5786 0.89471 0.0
H566 H 0.85572 0.56958 0.84146 0.0
C567 C 0.88806 0.61888 0.85339 0.0
C568 C 0.82354 0.60261 0.82863 0.0
C569 C 0.85885 0.61636 0.91183 0.0
C570 C 0.81429 0.56879 0.88414 0.0
H571 H 0.85174 0.61746 0.80251 0.0
H572 H 0.8879 0.6246 0.81576 0.0
H573 H 0.91462 0.6355 0.87937 0.0
H574 H 0.89764 0.6357 0.91108 0.0
H575 H 0.83488 0.59409 0.93684 0.0
H576 H 0.81185 0.56656 0.92185 0.0
H577 H 0.78648 0.55446 0.85825 0.0
H578 H 0.79051 0.57459 0.82818 0.0
H579 H 0.89554 0.55004 0.89332 0.0
H580 H 0.87869 0.54115 0.83906 0.0
H581 H 0.78504 0.6429 0.88142 0.0
H582 H 0.83635 0.67494 0.86158 0.0
C583 C 0.90593 0.8442 0.33124 0.0
C584 C 0.89977 0.85569 0.31702 0.0
C585 C 0.89618 0.87461 0.32345 0.0
C586 C 0.90027 0.87362 0.3412 0.0
N587 N 0.90617 0.85527 0.34623 0.0
Co588 Co 0.91283 0.84694 0.3706 0.0
N589 N 0.89828 0.86991 0.38098 0.0
C590 C 0.89312 0.88675 0.37238 0.0
C591 C 0.88338 0.9002 0.38306 0.0
C592 C 0.88257 0.89129 0.39938 0.0
C593 C 0.89195 0.87286 0.39777 0.0
N594 N 0.91968 0.8384 0.39485 0.0
C595 C 0.91145 0.84382 0.41044 0.0
C596 C 0.92127 0.83458 0.42439 0.0
C597 C 0.93621 0.82315 0.41718 0.0
C598 C 0.93473 0.82602 0.39931 0.0
N599 N 0.92743 0.82406 0.36025 0.0
C600 C 0.94182 0.81327 0.36818 0.0
C601 C 0.9491 0.79824 0.35763 0.0
C602 C 0.93861 0.79973 0.34212 0.0
C603 C 0.92545 0.81562 0.34414 0.0
N604 N 0.93735 0.86341 0.36974 0.0
C605 C 0.97024 0.88994 0.36777 0.0
C606 C 0.95849 0.88855 0.38306 0.0
C607 C 0.9423 0.87529 0.38379 0.0
C608 C 0.96533 0.87726 0.35361 0.0
C609 C 0.94896 0.86411 0.35488 0.0
N610 N 0.88818 0.83094 0.37144 0.0
C611 C 0.8704 0.80054 0.37855 0.0
C612 C 0.85241 0.80871 0.37225 0.0
C613 C 0.85283 0.8283 0.36566 0.0
C614 C 0.87071 0.83909 0.36544 0.0
C615 C 0.88812 0.81184 0.37794 0.0
H616 H 0.87033 0.85414 0.36038 0.0
H617 H 0.90178 0.80515 0.38269 0.0
H618 H 0.93348 0.87506 0.39567 0.0
H619 H 0.94548 0.85475 0.3437 0.0
C620 C 0.89492 0.88793 0.35393 0.0
C621 C 0.91218 0.82312 0.33025 0.0
C622 C 0.8959 0.85916 0.41258 0.0
C623 C 0.94504 0.81518 0.38635 0.0
H624 H 0.8979 0.8509 0.3035 0.0
H625 H 0.89025 0.88723 0.3162 0.0
H626 H 0.87704 0.91448 0.37932 0.0
H627 H 0.876 0.8977 0.41113 0.0
H628 H 0.9182 0.83619 0.43832 0.0
H629 H 0.94653 0.81349 0.42413 0.0
H630 H 0.96002 0.78694 0.36106 0.0
H631 H 0.9404 0.79023 0.33067 0.0
H632 H 0.96136 0.89808 0.39432 0.0
H633 H 0.97406 0.87743 0.34159 0.0
H634 H 0.87088 0.78542 0.38366 0.0
H635 H 0.83932 0.83543 0.36092 0.0
C636 C 0.67052 0.60749 0.6773 0.0
C637 C 0.65908 0.61318 0.6917 0.0
C638 C 0.64013 0.61689 0.68542 0.0
C639 C 0.64104 0.61323 0.6676 0.0
N640 N 0.65937 0.6075 0.66237 0.0
Co641 Co 0.66746 0.6011 0.63789 0.0
N642 N 0.64437 0.61576 0.62782 0.0
C643 C 0.62762 0.62079 0.6366 0.0
C644 C 0.61405 0.63062 0.62612 0.0
C645 C 0.62278 0.63164 0.60973 0.0
C646 C 0.64124 0.62229 0.61111 0.0
N647 N 0.67572 0.59455 0.61348 0.0
C648 C 0.67013 0.60296 0.59802 0.0
C649 C 0.67928 0.59338 0.5839 0.0
C650 C 0.69085 0.5784 0.59086 0.0
C651 C 0.68814 0.57963 0.60876 0.0
N652 N 0.69047 0.58637 0.64796 0.0
C653 C 0.70134 0.57228 0.63969 0.0
C654 C 0.71661 0.56501 0.64995 0.0
C655 C 0.71519 0.57514 0.66564 0.0
C656 C 0.69899 0.58801 0.66408 0.0
N657 N 0.65103 0.57653 0.63865 0.0
C658 C 0.62467 0.54348 0.64044 0.0
C659 C 0.62589 0.55544 0.62527 0.0
C660 C 0.63906 0.57172 0.62464 0.0
C661 C 0.6374 0.54829 0.65459 0.0
C662 C 0.65047 0.56473 0.65341 0.0
N663 N 0.68339 0.62581 0.6371 0.0
C664 C 0.71331 0.64393 0.62917 0.0
C665 C 0.7051 0.66197 0.63544 0.0
C666 C 0.68585 0.66122 0.64278 0.0
C667 C 0.6753 0.6432 0.64337 0.0
C668 C 0.70227 0.62606 0.63018 0.0
H669 H 0.66049 0.6434 0.64891 0.0
H670 H 0.70893 0.61247 0.62522 0.0
H671 H 0.63917 0.58069 0.61284 0.0
H672 H 0.65989 0.56811 0.66457 0.0
C673 C 0.62661 0.61872 0.65503 0.0
C674 C 0.69147 0.60094 0.67827 0.0
C675 C 0.65477 0.61853 0.59615 0.0
C676 C 0.69923 0.56931 0.62152 0.0
H677 H 0.66393 0.6145 0.70526 0.0
H678 H 0.62751 0.6225 0.69286 0.0
H679 H 0.5998 0.63688 0.63002 0.0
H680 H 0.61624 0.63834 0.59809 0.0
H681 H 0.67755 0.59666 0.57001 0.0
H682 H 0.70052 0.56825 0.58373 0.0
H683 H 0.72805 0.55438 0.64619 0.0
H684 H 0.72504 0.57333 0.67683 0.0
H685 H 0.61631 0.55267 0.61404 0.0
H686 H 0.63733 0.5394 0.66652 0.0
H687 H 0.72802 0.64359 0.62323 0.0
H688 H 0.67889 0.67447 0.64823 0.0
C689 C 0.90315 0.66983 0.17886 0.0
C690 C 0.89357 0.65997 0.19256 0.0
C691 C 0.8857 0.64284 0.1856 0.0
C692 C 0.89087 0.6432 0.1681 0.0
N693 N 0.90195 0.65933 0.16354 0.0
Co694 Co 0.91095 0.6668 0.13915 0.0
N695 N 0.89665 0.6434 0.12835 0.0
C696 C 0.88728 0.62846 0.13709 0.0
C697 C 0.87871 0.61455 0.12615 0.0
C698 C 0.88277 0.62105 0.10944 0.0
C699 C 0.89363 0.63862 0.11114 0.0
N700 N 0.9192 0.6749 0.11474 0.0
C701 C 0.91362 0.6675 0.09883 0.0
C702 C 0.92237 0.67804 0.08506 0.0
C703 C 0.93361 0.6928 0.09251 0.0
C704 C 0.93112 0.69044 0.11032 0.0
N705 N 0.92562 0.68993 0.14995 0.0
C706 C 0.93776 0.70296 0.14151 0.0
C707 C 0.94525 0.71769 0.15218 0.0
C708 C 0.93722 0.71403 0.16839 0.0
C709 C 0.92528 0.69714 0.16668 0.0
N710 N 0.93558 0.64963 0.14152 0.0
C711 C 0.96896 0.62312 0.14203 0.0
C712 C 0.97032 0.64215 0.1344 0.0
C713 C 0.95364 0.65501 0.13427 0.0
C714 C 0.95086 0.61804 0.15004 0.0
C715 C 0.9347 0.63136 0.14978 0.0
N716 N 0.88645 0.68346 0.13673 0.0
C717 C 0.86989 0.71494 0.13038 0.0
C718 C 0.85108 0.70643 0.13363 0.0
C719 C 0.85044 0.68631 0.13854 0.0
C720 C 0.86806 0.67527 0.14005 0.0
C721 C 0.88729 0.70321 0.13187 0.0
H722 H 0.86641 0.66007 0.14403 0.0
H723 H 0.90129 0.71031 0.12903 0.0
H724 H 0.95572 0.66911 0.12801 0.0
H725 H 0.92164 0.62628 0.15628 0.0
C726 C 0.88473 0.62925 0.15541 0.0
C727 C 0.91296 0.68924 0.18101 0.0
C728 C 0.90012 0.65063 0.09608 0.0
C729 C 0.93948 0.70273 0.1232 0.0
H730 H 0.89217 0.66484 0.20612 0.0
H731 H 0.87678 0.63172 0.19238 0.0
H732 H 0.86989 0.60164 0.12987 0.0
H733 H 0.8779 0.61391 0.09738 0.0
H734 H 0.9207 0.6754 0.07105 0.0
H735 H 0.94236 0.70406 0.08575 0.0
H736 H 0.95456 0.73023 0.14842 0.0
H737 H 0.93938 0.72325 0.17994 0.0
H738 H 0.98404 0.64695 0.1281 0.0
H739 H 0.9491 0.60375 0.1566 0.0
H740 H 0.87118 0.73047 0.12647 0.0
H741 H 0.83634 0.67907 0.14152 0.0
C742 C 0.84338 0.90731 0.67789 0.0
C743 C 0.8548 0.9016 0.69229 0.0
C744 C 0.87374 0.89786 0.686 0.0
C745 C 0.87283 0.90152 0.66818 0.0
N746 N 0.85451 0.90729 0.66296 0.0
Co747 Co 0.84645 0.91373 0.63848 0.0
N748 N 0.86952 0.89906 0.6284 0.0
C749 C 0.88626 0.89399 0.63718 0.0
C750 C 0.8998 0.88412 0.6267 0.0
C751 C 0.89108 0.88312 0.61032 0.0
C752 C 0.87264 0.89253 0.61169 0.0
N753 N 0.8382 0.92032 0.61408 0.0
C754 C 0.84379 0.91192 0.59861 0.0
C755 C 0.83468 0.92155 0.5845 0.0
C756 C 0.82312 0.93653 0.59147 0.0
C757 C 0.8258 0.93527 0.60937 0.0
N758 N 0.82345 0.92847 0.64856 0.0
C759 C 0.8126 0.94259 0.64031 0.0
C760 C 0.79734 0.94988 0.65057 0.0
C761 C 0.79875 0.93973 0.66626 0.0
C762 C 0.81493 0.92684 0.66469 0.0
N763 N 0.8629 0.93828 0.63926 0.0
C764 C 0.88929 0.9713 0.64105 0.0
C765 C 0.88804 0.95936 0.62587 0.0
C766 C 0.87486 0.9431 0.62524 0.0
C767 C 0.87657 0.96649 0.65521 0.0
C768 C 0.86348 0.95006 0.65403 0.0
N769 N 0.83049 0.88904 0.63767 0.0
C770 C 0.80057 0.87096 0.62967 0.0
C771 C 0.80882 0.85288 0.63581 0.0
C772 C 0.82806 0.85358 0.64315 0.0
C773 C 0.83858 0.87162 0.64385 0.0
C774 C 0.8116 0.88883 0.63077 0.0
H775 H 0.8534 0.87139 0.64939 0.0
H776 H 0.80493 0.90245 0.62588 0.0
H777 H 0.87474 0.93413 0.61344 0.0
H778 H 0.85406 0.94668 0.66519 0.0
C779 C 0.88727 0.89603 0.65561 0.0
C780 C 0.82244 0.91391 0.67888 0.0
C781 C 0.85913 0.89633 0.59673 0.0
C782 C 0.81472 0.94559 0.62213 0.0
H783 H 0.84995 0.90028 0.70585 0.0
H784 H 0.88636 0.89223 0.69343 0.0
H785 H 0.91404 0.87782 0.6306 0.0
H786 H 0.8976 0.8764 0.59869 0.0
H787 H 0.83643 0.91831 0.5706 0.0
H788 H 0.81348 0.94672 0.58435 0.0
H789 H 0.78591 0.96053 0.64682 0.0
H790 H 0.7889 0.94156 0.67746 0.0
H791 H 0.89762 0.96215 0.61463 0.0
H792 H 0.87666 0.97536 0.66715 0.0
H793 H 0.78585 0.87132 0.62376 0.0
H794 H 0.83503 0.84029 0.64849 0.0
C795 C 0.60797 0.84579 0.17798 0.0
C796 C 0.61456 0.85748 0.19193 0.0
C797 C 0.61802 0.87629 0.18522 0.0
C798 C 0.61348 0.87506 0.16758 0.0
N799 N 0.60745 0.85663 0.16285 0.0
Co800 Co 0.60052 0.84793 0.13863 0.0
N801 N 0.61483 0.8708 0.12782 0.0
C802 C 0.62004 0.88779 0.13617 0.0
C803 C 0.62963 0.90109 0.12525 0.0
C804 C 0.6303 0.89193 0.10904 0.0
C805 C 0.62099 0.87349 0.11095 0.0
N806 N 0.59345 0.83898 0.11454 0.0
C807 C 0.60152 0.84416 0.09882 0.0
C808 C 0.5916 0.83465 0.08507 0.0
C809 C 0.57675 0.82331 0.09254 0.0
C810 C 0.57839 0.82649 0.11036 0.0
N811 N 0.58609 0.82517 0.1494 0.0
C812 C 0.5716 0.81429 0.14172 0.0
C813 C 0.56432 0.79951 0.15255 0.0
C814 C 0.57491 0.80128 0.16797 0.0
C815 C 0.58815 0.81704 0.16563 0.0
N816 N 0.57596 0.8643 0.13951 0.0
C817 C 0.54291 0.8906 0.14137 0.0
C818 C 0.55446 0.88898 0.12599 0.0
C819 C 0.57075 0.87584 0.12532 0.0
C820 C 0.54812 0.8783 0.1557 0.0
C821 C 0.56456 0.86525 0.15449 0.0
N822 N 0.62519 0.83202 0.13776 0.0
C823 C 0.64294 0.80151 0.13101 0.0
C824 C 0.66107 0.81001 0.13666 0.0
C825 C 0.66071 0.82979 0.14277 0.0
C826 C 0.64276 0.84044 0.14321 0.0
C827 C 0.62519 0.81274 0.13171 0.0
H828 H 0.64317 0.85562 0.14795 0.0
H829 H 0.61145 0.80584 0.12738 0.0
H830 H 0.57942 0.87542 0.11336 0.0
H831 H 0.56825 0.85615 0.16579 0.0
C832 C 0.61856 0.8892 0.15461 0.0
C833 C 0.60156 0.82474 0.17936 0.0
C834 C 0.61698 0.85952 0.09636 0.0
C835 C 0.56821 0.81588 0.12354 0.0
H836 H 0.61688 0.85293 0.20545 0.0
H837 H 0.62417 0.889 0.1922 0.0
H838 H 0.63601 0.91543 0.12876 0.0
H839 H 0.63678 0.89815 0.09717 0.0
H840 H 0.59452 0.83605 0.07109 0.0
H841 H 0.56638 0.81351 0.0858 0.0
H842 H 0.5533 0.78822 0.14936 0.0
H843 H 0.5731 0.79205 0.17959 0.0
H844 H 0.55136 0.89823 0.1146 0.0
H845 H 0.53955 0.8787 0.16781 0.0
H846 H 0.64238 0.78623 0.1263 0.0
H847 H 0.67429 0.8372 0.14698 0.0
H848 H 0.36844 0.17474 0.9319 0.0
H849 H 0.36129 0.16919 0.96338 0.0
H850 H 0.40211 0.11926 0.96369 0.0
H851 H 0.40923 0.12482 0.93228 0.0
H852 H 0.34753 0.1327 0.98205 0.0
H853 H 0.42298 0.15842 1.00271 0.0
H854 H 0.41266 0.16394 0.98124 0.0
H855 H 0.42252 0.13951 0.98585 0.0
C856 C 0.37552 0.16236 0.93867 0.0
C857 C 0.3891 0.14999 0.9297 0.0
C858 C 0.37153 0.15925 0.95662 0.0
C859 C 0.38133 0.14394 0.96593 0.0
C860 C 0.39453 0.13127 0.95682 0.0
H861 H 0.38767 0.10412 0.07466 0.0
H862 H 0.39306 0.11116 0.04324 0.0
C863 C 0.39843 0.1343 0.93888 0.0
C864 C 0.37822 0.14155 0.98525 0.0
H865 H 0.40222 0.14478 0.02494 0.0
C866 C 0.35943 0.13544 0.99146 0.0
C867 C 0.39379 0.14509 0.99749 0.0
C868 C 0.4141 0.15226 0.99158 0.0
C869 C 0.35593 0.13226 0.00956 0.0
C870 C 0.37151 0.13582 0.02185 0.0
C871 C 0.39026 0.14209 0.01558 0.0
C872 C 0.36886 0.13255 0.04118 0.0
C873 C 0.33576 0.12444 0.01525 0.0
C874 C 0.35384 0.14262 0.05067 0.0
C875 C 0.35078 0.13858 0.06861 0.0
C876 C 0.36293 0.12471 0.07745 0.0
C877 C 0.37836 0.11514 0.06815 0.0
C878 C 0.38135 0.11908 0.05021 0.0
H879 H 0.32762 0.11732 0.00414 0.0
H880 H 0.33728 0.11334 0.02606 0.0
H881 H 0.32653 0.13708 0.02011 0.0
H882 H 0.3443 0.15341 0.04416 0.0
H883 H 0.33866 0.14595 0.07552 0.0
H884 H 0.38898 0.41022 0.43241 0.0
H885 H 0.3946 0.40301 0.46379 0.0
H886 H 0.34534 0.36139 0.4632 0.0
H887 H 0.33975 0.36865 0.43178 0.0
H888 H 0.36487 0.40887 0.49098 0.0
H889 H 0.39138 0.33011 0.48797 0.0
H890 H 0.39215 0.34663 0.46912 0.0
H891 H 0.36891 0.33563 0.4759 0.0
C892 C 0.37973 0.39916 0.43892 0.0
C893 C 0.36423 0.38963 0.42968 0.0
C894 C 0.38282 0.39517 0.45684 0.0
C895 C 0.37053 0.3815 0.46583 0.0
C896 C 0.35524 0.37171 0.45649 0.0
H897 H 0.36857 0.34005 0.57535 0.0
H898 H 0.36088 0.34613 0.54409 0.0
C899 C 0.35206 0.37581 0.43857 0.0
C900 C 0.37299 0.37843 0.48516 0.0
H901 H 0.38557 0.34366 0.51627 0.0
C902 C 0.36943 0.39462 0.49653 0.0
C903 C 0.37875 0.3598 0.49239 0.0
C904 C 0.38318 0.34204 0.48076 0.0
C905 C 0.37133 0.39267 0.51493 0.0
C906 C 0.37747 0.37412 0.52219 0.0
C907 C 0.38085 0.35787 0.51078 0.0
C908 C 0.38099 0.37136 0.54148 0.0
C909 C 0.36629 0.41041 0.5264 0.0
C910 C 0.39478 0.38351 0.55051 0.0
C911 C 0.39892 0.38019 0.56837 0.0
C912 C 0.38947 0.36458 0.57754 0.0
C913 C 0.37568 0.35244 0.56861 0.0
C914 C 0.37143 0.35583 0.55075 0.0
H915 H 0.35595 0.42088 0.51959 0.0
H916 H 0.35931 0.40563 0.539 0.0
H917 H 0.38021 0.41874 0.52947 0.0
H918 H 0.40283 0.39518 0.54361 0.0
H919 H 0.41005 0.38935 0.57489 0.0
H920 H 0.10508 0.3898 0.9324 0.0
H921 H 0.11244 0.39547 0.96375 0.0
H922 H 0.15384 0.34601 0.9631 0.0
H923 H 0.14642 0.34036 0.93171 0.0
H924 H 0.1066 0.36557 0.99098 0.0
H925 H 0.18527 0.39219 0.98772 0.0
H926 H 0.16867 0.39304 0.96895 0.0
H927 H 0.17965 0.36974 0.97561 0.0
C928 C 0.11613 0.38052 0.93889 0.0
C929 C 0.12556 0.36495 0.92964 0.0
C930 C 0.12021 0.38364 0.95679 0.0
C931 C 0.13385 0.3713 0.96574 0.0
C932 C 0.14354 0.35594 0.9564 0.0
H933 H 0.17541 0.36951 0.07525 0.0
H934 H 0.1694 0.36182 0.04397 0.0
C935 C 0.13936 0.35274 0.93851 0.0
C936 C 0.13698 0.37377 0.98506 0.0
H937 H 0.1718 0.38649 0.01606 0.0
C938 C 0.12084 0.37018 0.99648 0.0
C939 C 0.15561 0.37958 0.99223 0.0
C940 C 0.17331 0.38402 0.98054 0.0
C941 C 0.12285 0.37212 0.01487 0.0
C942 C 0.14139 0.37833 0.02206 0.0
C943 C 0.15759 0.38173 0.01061 0.0
C944 C 0.14418 0.38192 0.04134 0.0
C945 C 0.10518 0.36705 0.0264 0.0
C946 C 0.13204 0.39574 0.05034 0.0
C947 C 0.13532 0.3999 0.0682 0.0
C948 C 0.15089 0.39043 0.0774 0.0
C949 C 0.16305 0.37664 0.06848 0.0
C950 C 0.1597 0.37238 0.05062 0.0
H951 H 0.09472 0.35666 0.01964 0.0
H952 H 0.11001 0.3601 0.03899 0.0
H953 H 0.09682 0.38096 0.02948 0.0
H954 H 0.12038 0.40377 0.04343 0.0
H955 H 0.12613 0.41101 0.07471 0.0
H956 H 0.10353 0.12604 0.57479 0.0
H957 H 0.11066 0.12063 0.54335 0.0
H958 H 0.15263 0.16959 0.54422 0.0
H959 H 0.14545 0.17499 0.57569 0.0
H960 H 0.10516 0.15077 0.51626 0.0
H961 H 0.18348 0.12314 0.51939 0.0
H962 H 0.16686 0.12238 0.53815 0.0
H963 H 0.17814 0.14558 0.5316 0.0
C964 C 0.11463 0.13528 0.56831 0.0
C965 C 0.1243 0.15064 0.57764 0.0
C966 C 0.11858 0.1323 0.55037 0.0
C967 C 0.13233 0.14456 0.54146 0.0
C968 C 0.14223 0.15973 0.55088 0.0
H969 H 0.17411 0.14621 0.43204 0.0
H970 H 0.16803 0.15399 0.46329 0.0
C971 C 0.13818 0.16279 0.56881 0.0
C972 C 0.13543 0.14217 0.52213 0.0
H973 H 0.17009 0.12915 0.49107 0.0
C974 C 0.11934 0.14602 0.51073 0.0
C975 C 0.15398 0.13615 0.51494 0.0
C976 C 0.17162 0.13141 0.5266 0.0
C977 C 0.12133 0.14415 0.49234 0.0
C978 C 0.13979 0.13774 0.48511 0.0
C979 C 0.15594 0.13407 0.49654 0.0
C980 C 0.14255 0.1342 0.46582 0.0
C981 C 0.10372 0.14949 0.48083 0.0
C982 C 0.13026 0.12057 0.45677 0.0
C983 C 0.13358 0.11636 0.43892 0.0
C984 C 0.14934 0.12561 0.42979 0.0
C985 C 0.16161 0.13926 0.43875 0.0
C986 C 0.15822 0.14356 0.4566 0.0
H987 H 0.09339 0.15997 0.48763 0.0
H988 H 0.10864 0.15643 0.46826 0.0
H989 H 0.0952 0.13569 0.4777 0.0
H990 H 0.11847 0.11267 0.46364 0.0
H991 H 0.12431 0.10533 0.43239 0.0
H992 H 0.60326 0.88937 0.07513 0.0
H993 H 0.61049 0.89457 0.04372 0.0
H994 H 0.65192 0.84511 0.04485 0.0
H995 H 0.64429 0.83969 0.07621 0.0
H996 H 0.64443 0.90317 0.02558 0.0
H997 H 0.61576 0.829 0.00467 0.0
H998 H 0.61181 0.83877 0.02657 0.0
H999 H 0.63537 0.82759 0.02076 0.0
C1000 C 0.61413 0.87986 0.06867 0.0
C1001 C 0.62344 0.86431 0.07804 0.0
C1002 C 0.61819 0.88274 0.05074 0.0
C1003 C 0.6315 0.87002 0.04178 0.0
C1004 C 0.64127 0.85484 0.05132 0.0
H1005 H 0.67414 0.86878 0.9326 0.0
H1006 H 0.66842 0.8618 0.96409 0.0
C1007 C 0.63712 0.8519 0.06926 0.0
C1008 C 0.63492 0.8726 0.02246 0.0
H1009 H 0.6316 0.84865 0.98265 0.0
C1010 C 0.64157 0.89125 0.01622 0.0
C1011 C 0.63115 0.85707 0.01015 0.0
C1012 C 0.62295 0.83704 0.01582 0.0
C1013 C 0.64474 0.89471 0.99813 0.0
C1014 C 0.64099 0.8792 0.98588 0.0
C1015 C 0.6345 0.86051 0.99207 0.0
C1016 C 0.64352 0.88227 0.96657 0.0
C1017 C 0.65232 0.91491 0.99226 0.0
C1018 C 0.6311 0.89567 0.95742 0.0
C1019 C 0.63422 0.89947 0.93948 0.0
C1020 C 0.64975 0.88985 0.93034 0.0
C1021 C 0.66188 0.8761 0.93935 0.0
C1022 C 0.65868 0.8722 0.9573 0.0
H1023 H 0.65856 0.92368 1.00341 0.0
H1024 H 0.66403 0.91324 0.98198 0.0
H1025 H 0.63977 0.92355 0.98646 0.0
H1026 H 0.61921 0.90347 0.96426 0.0
H1027 H 0.62492 0.9104 0.93284 0.0
H1028 H 0.62486 0.60458 0.57516 0.0
H1029 H 0.61938 0.61184 0.54379 0.0
H1030 H 0.66786 0.65441 0.5449 0.0
H1031 H 0.67361 0.64671 0.57619 0.0
H1032 H 0.61004 0.64531 0.52544 0.0
H1033 H 0.68503 0.61856 0.50494 0.0
H1034 H 0.6753 0.61452 0.52684 0.0
H1035 H 0.68586 0.63835 0.5209 0.0
C1036 C 0.63407 0.61574 0.56871 0.0
C1037 C 0.64948 0.6253 0.57804 0.0
C1038 C 0.63103 0.61981 0.5508 0.0
C1039 C 0.64344 0.6334 0.54183 0.0
C1040 C 0.65838 0.64352 0.55137 0.0
H1041 H 0.64442 0.67544 0.43249 0.0
H1042 H 0.6513 0.67001 0.46403 0.0
C1043 C 0.66151 0.63934 0.56928 0.0
C1044 C 0.64087 0.63667 0.52248 0.0
H1045 H 0.66512 0.6338 0.48279 0.0
C1046 C 0.62209 0.64274 0.51614 0.0
C1047 C 0.65656 0.63326 0.51026 0.0
C1048 C 0.67676 0.62563 0.51602 0.0
C1049 C 0.61864 0.6457 0.49802 0.0
C1050 C 0.63432 0.64233 0.48585 0.0
C1051 C 0.65314 0.63642 0.49215 0.0
C1052 C 0.63133 0.6447 0.46651 0.0
C1053 C 0.59829 0.65267 0.49203 0.0
C1054 C 0.61825 0.63196 0.45734 0.0
C1055 C 0.6145 0.63493 0.43937 0.0
C1056 C 0.62386 0.65061 0.43022 0.0
C1057 C 0.63731 0.66306 0.43925 0.0
C1058 C 0.64115 0.66002 0.45723 0.0
H1059 H 0.58931 0.65878 0.50312 0.0
H1060 H 0.59967 0.66432 0.48167 0.0
H1061 H 0.59002 0.63982 0.48632 0.0
H1062 H 0.61065 0.61993 0.46419 0.0
H1063 H 0.6038 0.62538 0.43272 0.0
H1064 H 0.88826 0.60026 0.93216 0.0
H1065 H 0.8946 0.6062 0.96362 0.0
H1066 H 0.84756 0.65036 0.96445 0.0
H1067 H 0.84095 0.64401 0.93304 0.0
H1068 H 0.90558 0.63908 0.98224 0.0
H1069 H 0.83057 0.61408 0.00426 0.0
H1070 H 0.83947 0.61018 0.98207 0.0
H1071 H 0.82977 0.63417 0.98859 0.0
C1072 C 0.8795 0.61142 0.93907 0.0
C1073 C 0.86428 0.62186 0.93025 0.0
C1074 C 0.88305 0.61475 0.95703 0.0
C1075 C 0.87133 0.62848 0.96655 0.0
C1076 C 0.8565 0.63936 0.95754 0.0
H1077 H 0.87265 0.66967 0.07563 0.0
H1078 H 0.86537 0.66385 0.04425 0.0
C1079 C 0.85288 0.63594 0.93959 0.0
C1080 C 0.87463 0.63123 0.98586 0.0
H1081 H 0.8515 0.62862 0.02607 0.0
C1082 C 0.89376 0.63671 0.99181 0.0
C1083 C 0.85925 0.62808 0.99842 0.0
C1084 C 0.83866 0.62111 0.99307 0.0
C1085 C 0.89782 0.63944 0.00986 0.0
C1086 C 0.88242 0.63639 0.02238 0.0
C1087 C 0.86329 0.63097 0.01647 0.0
C1088 C 0.88588 0.63898 0.04164 0.0
C1089 C 0.91849 0.64598 0.01537 0.0
C1090 C 0.89941 0.62661 0.05073 0.0
C1091 C 0.90344 0.62985 0.06864 0.0
C1092 C 0.89393 0.64544 0.07777 0.0
C1093 C 0.87998 0.65744 0.06884 0.0
C1094 C 0.8759 0.65416 0.05096 0.0
H1095 H 0.9272 0.65207 0.00411 0.0
H1096 H 0.91769 0.65753 0.02587 0.0
H1097 H 0.92673 0.63291 0.02073 0.0
H1098 H 0.90707 0.61463 0.04389 0.0
H1099 H 0.91437 0.62054 0.07526 0.0
H1100 H 0.86837 0.8398 0.43283 0.0
H1101 H 0.86116 0.84528 0.46429 0.0
H1102 H 0.90283 0.89451 0.46499 0.0
H1103 H 0.90998 0.88901 0.43357 0.0
H1104 H 0.90857 0.86446 0.49212 0.0
H1105 H 0.83006 0.89159 0.48909 0.0
H1106 H 0.83552 0.86915 0.4769 0.0
H1107 H 0.84664 0.89241 0.47029 0.0
C1108 C 0.87556 0.85208 0.43967 0.0
C1109 C 0.88936 0.86428 0.4308 0.0
C1110 C 0.87149 0.85519 0.4576 0.0
C1111 C 0.8813 0.87045 0.46696 0.0
C1112 C 0.89497 0.88276 0.45801 0.0
H1113 H 0.88935 0.90997 0.57594 0.0
H1114 H 0.89516 0.90259 0.5447 0.0
C1115 C 0.89893 0.87974 0.44008 0.0
C1116 C 0.87823 0.87286 0.48629 0.0
H1117 H 0.84356 0.88573 0.51739 0.0
C1118 C 0.89437 0.86915 0.49767 0.0
C1119 C 0.85966 0.87878 0.49351 0.0
C1120 C 0.84196 0.88338 0.48187 0.0
C1121 C 0.89241 0.87104 0.51606 0.0
C1122 C 0.87393 0.87735 0.52331 0.0
C1123 C 0.85773 0.88089 0.5119 0.0
C1124 C 0.8712 0.88092 0.54259 0.0
C1125 C 0.91008 0.86584 0.52755 0.0
C1126 C 0.85559 0.8715 0.55186 0.0
C1127 C 0.85222 0.87583 0.56971 0.0
C1128 C 0.86444 0.88957 0.57862 0.0
C1129 C 0.88012 0.89888 0.56945 0.0
C1130 C 0.88343 0.89465 0.5516 0.0
H1131 H 0.92046 0.85539 0.52075 0.0
H1132 H 0.91854 0.87969 0.53063 0.0
H1133 H 0.90524 0.8589 0.54014 0.0
H1134 H 0.84583 0.86101 0.54521 0.0
H1135 H 0.83976 0.86884 0.57645 0.0
H1136 H 0.23209 0.33984 0.11097 0.0
H1137 H 0.24926 0.30744 0.10989 0.0
H1138 H 0.22284 0.29116 0.15969 0.0
H1139 H 0.20588 0.32348 0.16101 0.0
H1140 H 0.27645 0.28956 0.13327 0.0
H1141 H 0.20744 0.24406 0.12783 0.0
H1142 H 0.20765 0.27077 0.1243 0.0
H1143 H 0.2075 0.26083 0.14633 0.0
C1144 C 0.23007 0.32947 0.12179 0.0
C1145 C 0.21737 0.33429 0.13599 0.0
C1146 C 0.23982 0.31087 0.1211 0.0
C1147 C 0.23702 0.29664 0.13452 0.0
C1148 C 0.22484 0.30163 0.14893 0.0
H1149 H 0.30854 0.19255 0.16076 0.0
H1150 H 0.29155 0.22485 0.15947 0.0
C1151 C 0.21512 0.32018 0.14965 0.0
C1152 C 0.24698 0.27666 0.13362 0.0
H1153 H 0.23762 0.22631 0.1336 0.0
C1154 C 0.26795 0.27574 0.13325 0.0
C1155 C 0.23593 0.25857 0.13334 0.0
C1156 C 0.21338 0.25852 0.1328 0.0
C1157 C 0.27814 0.2573 0.13312 0.0
C1158 C 0.26709 0.23921 0.13359 0.0
C1159 C 0.24612 0.24013 0.13343 0.0
C1160 C 0.27706 0.21924 0.13447 0.0
C1161 C 0.30068 0.25735 0.13233 0.0
C1162 C 0.27411 0.20494 0.12113 0.0
C1163 C 0.28388 0.18636 0.1218 0.0
C1164 C 0.29675 0.18161 0.13589 0.0
C1165 C 0.29916 0.19579 0.14948 0.0
C1166 C 0.28943 0.21433 0.14878 0.0
H1167 H 0.30656 0.27179 0.12725 0.0
H1168 H 0.30674 0.2551 0.1458 0.0
H1169 H 0.30629 0.24506 0.12381 0.0
H1170 H 0.26453 0.20832 0.11 0.0
H1171 H 0.28173 0.17593 0.11104 0.0
H1172 H 0.31514 0.32407 0.62732 0.0
H1173 H 0.28311 0.30658 0.62734 0.0
H1174 H 0.31305 0.25119 0.63942 0.0
H1175 H 0.34528 0.26867 0.63989 0.0
H1176 H 0.28272 0.24887 0.61169 0.0
H1177 H 0.25461 0.28546 0.67259 0.0
H1178 H 0.26394 0.3022 0.65595 0.0
H1179 H 0.28077 0.28519 0.66669 0.0
C1180 C 0.31501 0.30821 0.63019 0.0
C1181 C 0.33295 0.29791 0.63384 0.0
C1182 C 0.29661 0.2982 0.63012 0.0
C1183 C 0.29559 0.27762 0.63363 0.0
C1184 C 0.31344 0.2671 0.63673 0.0
H1185 H 0.19076 0.20732 0.66161 0.0
H1186 H 0.22301 0.22452 0.66047 0.0
C1187 C 0.33191 0.27713 0.6369 0.0
C1188 C 0.27586 0.2672 0.6342 0.0
H1189 H 0.23153 0.26556 0.6567 0.0
C1190 C 0.27153 0.25249 0.62153 0.0
C1191 C 0.2613 0.27179 0.64714 0.0
C1192 C 0.26535 0.28689 0.66148 0.0
C1193 C 0.25296 0.24251 0.62131 0.0
C1194 C 0.23823 0.24743 0.63401 0.0
C1195 C 0.2427 0.26191 0.64685 0.0
C1196 C 0.21835 0.23726 0.63459 0.0
C1197 C 0.24938 0.2265 0.60765 0.0
C1198 C 0.20471 0.23895 0.62056 0.0
C1199 C 0.18617 0.2291 0.62116 0.0
C1200 C 0.18087 0.21728 0.63582 0.0
C1201 C 0.19443 0.21599 0.64999 0.0
C1202 C 0.21287 0.22592 0.64941 0.0
H1203 H 0.26355 0.22136 0.60149 0.0
H1204 H 0.24168 0.2134 0.61356 0.0
H1205 H 0.23965 0.2326 0.59709 0.0
H1206 H 0.20842 0.24788 0.6091 0.0
H1207 H 0.17618 0.23038 0.60999 0.0
H1208 H 0.32399 0.31528 0.38002 0.0
H1209 H 0.30652 0.28321 0.3801 0.0
H1210 H 0.25122 0.31309 0.3677 0.0
H1211 H 0.26868 0.34536 0.36716 0.0
H1212 H 0.24858 0.28301 0.3954 0.0
H1213 H 0.28584 0.25429 0.33505 0.0
H1214 H 0.30242 0.26363 0.35178 0.0
H1215 H 0.28563 0.28051 0.34081 0.0
C1216 C 0.30815 0.31512 0.3771 0.0
C1217 C 0.29787 0.33305 0.37334 0.0
C1218 C 0.29816 0.2967 0.37722 0.0
C1219 C 0.2776 0.29565 0.37364 0.0
C1220 C 0.26711 0.3135 0.37044 0.0
H1221 H 0.20767 0.19054 0.34573 0.0
H1222 H 0.22492 0.22278 0.34679 0.0
C1223 C 0.27712 0.33198 0.37023 0.0
C1224 C 0.26719 0.2759 0.37313 0.0
H1225 H 0.26579 0.23133 0.35097 0.0
C1226 C 0.25232 0.27171 0.38568 0.0
C1227 C 0.27193 0.2612 0.36035 0.0
C1228 C 0.2872 0.2651 0.34612 0.0
C1229 C 0.24231 0.25315 0.38596 0.0
C1230 C 0.24738 0.23827 0.37342 0.0
C1231 C 0.26203 0.2426 0.3607 0.0
C1232 C 0.23719 0.21838 0.37288 0.0
C1233 C 0.22612 0.24973 0.39947 0.0
C1234 C 0.2386 0.2049 0.38706 0.0
C1235 C 0.22872 0.18636 0.3865 0.0
C1236 C 0.21715 0.18092 0.37175 0.0
C1237 C 0.21615 0.19432 0.35743 0.0
C1238 C 0.22611 0.21276 0.35797 0.0
H1239 H 0.2209 0.26399 0.40544 0.0
H1240 H 0.21311 0.24196 0.39348 0.0
H1241 H 0.23205 0.24012 0.41019 0.0
H1242 H 0.24734 0.20871 0.3986 0.0
H1243 H 0.22977 0.1765 0.39779 0.0
H1244 H 0.33742 0.22942 0.89763 0.0
H1245 H 0.30518 0.24694 0.8985 0.0
H1246 H 0.29136 0.22501 0.84648 0.0
H1247 H 0.32359 0.20773 0.8454 0.0
H1248 H 0.28307 0.26632 0.8513 0.0
H1249 H 0.24972 0.21992 0.90448 0.0
H1250 H 0.27368 0.23071 0.90948 0.0
H1251 H 0.27167 0.21228 0.89235 0.0
C1252 C 0.32759 0.22846 0.88631 0.0
C1253 C 0.33309 0.21702 0.87149 0.0
C1254 C 0.30906 0.23832 0.8869 0.0
C1255 C 0.29566 0.23705 0.87267 0.0
C1256 C 0.30134 0.22609 0.85769 0.0
H1257 H 0.16884 0.26882 0.86699 0.0
H1258 H 0.20106 0.25127 0.86741 0.0
C1259 C 0.31976 0.21613 0.85714 0.0
C1260 C 0.2758 0.24724 0.87322 0.0
H1261 H 0.23082 0.24782 0.89479 0.0
C1262 C 0.27166 0.26228 0.86082 0.0
C1263 C 0.26077 0.24179 0.88548 0.0
C1264 C 0.26402 0.22518 0.89864 0.0
C1265 C 0.2531 0.27223 0.86052 0.0
C1266 C 0.23824 0.26712 0.87305 0.0
C1267 C 0.24224 0.25184 0.88527 0.0
C1268 C 0.21852 0.27757 0.87364 0.0
C1269 C 0.24943 0.28793 0.84661 0.0
C1270 C 0.2175 0.29809 0.87743 0.0
C1271 C 0.19912 0.30813 0.87735 0.0
C1272 C 0.18121 0.29792 0.87345 0.0
C1273 C 0.18222 0.27719 0.87016 0.0
C1274 C 0.20067 0.26713 0.8703 0.0
H1275 H 0.26025 0.28673 0.83554 0.0
H1276 H 0.23404 0.28671 0.84124 0.0
H1277 H 0.2511 0.30299 0.85259 0.0
H1278 H 0.23098 0.3064 0.88044 0.0
H1279 H 0.19897 0.32395 0.8804 0.0
H1280 H 0.70509 0.82214 0.84703 0.0
H1281 H 0.72236 0.78998 0.84825 0.0
H1282 H 0.74903 0.80652 0.89786 0.0
H1283 H 0.73158 0.83877 0.89687 0.0
H1284 H 0.77621 0.78887 0.87466 0.0
H1285 H 0.70767 0.74264 0.87987 0.0
H1286 H 0.70759 0.75935 0.86133 0.0
H1287 H 0.70756 0.76936 0.88334 0.0
C1288 C 0.71445 0.81893 0.85833 0.0
C1289 C 0.71669 0.83308 0.87196 0.0
C1290 C 0.72434 0.80046 0.85899 0.0
C1291 C 0.7367 0.79558 0.87333 0.0
C1292 C 0.73947 0.80986 0.88672 0.0
H1293 H 0.78202 0.67496 0.89642 0.0
H1294 H 0.76463 0.70724 0.89748 0.0
C1295 C 0.72955 0.82837 0.88607 0.0
C1296 C 0.74686 0.77568 0.87417 0.0
H1297 H 0.73803 0.72522 0.87401 0.0
C1298 C 0.76785 0.77496 0.87461 0.0
C1299 C 0.73601 0.75746 0.87436 0.0
C1300 C 0.71346 0.75716 0.87488 0.0
C1301 C 0.77823 0.75662 0.87472 0.0
C1302 C 0.76738 0.73841 0.87416 0.0
C1303 C 0.74639 0.73912 0.87424 0.0
C1304 C 0.77756 0.71852 0.87329 0.0
C1305 C 0.80076 0.75692 0.87563 0.0
C1306 C 0.79025 0.71382 0.85914 0.0
C1307 C 0.80011 0.69534 0.85844 0.0
C1308 C 0.79751 0.68098 0.87186 0.0
C1309 C 0.78433 0.68552 0.88579 0.0
C1310 C 0.77445 0.70405 0.88647 0.0
H1311 H 0.80643 0.77136 0.88088 0.0
H1312 H 0.80647 0.74459 0.88406 0.0
H1313 H 0.80694 0.75492 0.86217 0.0
H1314 H 0.7925 0.72445 0.84855 0.0
H1315 H 0.80972 0.69227 0.84727 0.0
H1316 H 0.66894 0.74556 0.36704 0.0
H1317 H 0.70116 0.76308 0.36764 0.0
H1318 H 0.73088 0.70805 0.38133 0.0
H1319 H 0.69886 0.69053 0.38119 0.0
H1320 H 0.73091 0.76628 0.39566 0.0
H1321 H 0.76031 0.7278 0.33616 0.0
H1322 H 0.73404 0.72815 0.34166 0.0
H1323 H 0.75074 0.71155 0.35306 0.0
C1324 C 0.68227 0.73719 0.3704 0.0
C1325 C 0.68118 0.7165 0.37386 0.0
C1326 C 0.70072 0.74724 0.37065 0.0
C1327 C 0.71852 0.73682 0.37423 0.0
C1328 C 0.71744 0.71634 0.37816 0.0
H1329 H 0.83753 0.78455 0.39859 0.0
H1330 H 0.80528 0.76705 0.39935 0.0
C1331 C 0.69905 0.70632 0.37801 0.0
C1332 C 0.73826 0.74723 0.37374 0.0
H1333 H 0.78307 0.74818 0.35196 0.0
C1334 C 0.74231 0.76235 0.3861 0.0
C1335 C 0.7531 0.74224 0.36116 0.0
C1336 C 0.74937 0.72667 0.34714 0.0
C1337 C 0.76087 0.77234 0.3864 0.0
C1338 C 0.77587 0.76702 0.37407 0.0
C1339 C 0.77169 0.75213 0.36153 0.0
C1340 C 0.79576 0.77718 0.37358 0.0
C1341 C 0.76417 0.78877 0.39972 0.0
C1342 C 0.80145 0.78825 0.35868 0.0
C1343 C 0.81988 0.7982 0.35818 0.0
C1344 C 0.83322 0.79718 0.37253 0.0
C1345 C 0.82771 0.78562 0.38728 0.0
C1346 C 0.80917 0.77577 0.38781 0.0
H1347 H 0.7499 0.79401 0.40561 0.0
H1348 H 0.77381 0.78306 0.41051 0.0
H1349 H 0.77187 0.80173 0.39356 0.0
H1350 H 0.79148 0.78944 0.34747 0.0
H1351 H 0.82372 0.80669 0.3465 0.0
H1352 H 0.82406 0.81528 0.62946 0.0
H1353 H 0.80637 0.78335 0.629 0.0
H1354 H 0.75061 0.81382 0.63818 0.0
H1355 H 0.76825 0.84594 0.63935 0.0
H1356 H 0.77937 0.76784 0.65831 0.0
H1357 H 0.74253 0.77636 0.59296 0.0
H1358 H 0.76488 0.79002 0.59881 0.0
H1359 H 0.74125 0.79716 0.60801 0.0
C1360 C 0.80806 0.81532 0.6316 0.0
C1361 C 0.7977 0.83339 0.63459 0.0
C1362 C 0.79795 0.79697 0.63119 0.0
C1363 C 0.77717 0.79617 0.63348 0.0
C1364 C 0.76665 0.8141 0.63621 0.0
H1365 H 0.68994 0.69974 0.62966 0.0
H1366 H 0.70761 0.73159 0.6298 0.0
C1367 C 0.77678 0.8325 0.63679 0.0
C1368 C 0.76664 0.7765 0.63343 0.0
H1369 H 0.7349 0.74732 0.60922 0.0
C1370 C 0.76965 0.7633 0.64758 0.0
C1371 C 0.75391 0.77066 0.61948 0.0
C1372 C 0.75043 0.78416 0.60385 0.0
C1373 C 0.76001 0.74457 0.64832 0.0
C1374 C 0.74748 0.73851 0.6342 0.0
C1375 C 0.74452 0.75179 0.62003 0.0
C1376 C 0.7369 0.71874 0.63405 0.0
C1377 C 0.76289 0.73181 0.66454 0.0
C1378 C 0.74738 0.70063 0.63609 0.0
C1379 C 0.7372 0.68225 0.63641 0.0
C1380 C 0.71627 0.68145 0.63442 0.0
C1381 C 0.70595 0.69961 0.63174 0.0
C1382 C 0.7161 0.71794 0.63162 0.0
H1383 H 0.76764 0.74091 0.67605 0.0
H1384 H 0.74894 0.72374 0.66806 0.0
H1385 H 0.77478 0.72061 0.66195 0.0
H1386 H 0.76349 0.70067 0.63747 0.0
H1387 H 0.74576 0.66872 0.63855 0.0
H1388 H 0.84329 0.7446 0.14546 0.0
H1389 H 0.81109 0.76225 0.14541 0.0
H1390 H 0.78388 0.71252 0.11832 0.0
H1391 H 0.81584 0.69481 0.11847 0.0
H1392 H 0.78545 0.77459 0.11901 0.0
H1393 H 0.74783 0.71805 0.16098 0.0
H1394 H 0.77458 0.71852 0.1579 0.0
H1395 H 0.75864 0.70765 0.14137 0.0
C1396 C 0.83049 0.73752 0.13934 0.0
C1397 C 0.83212 0.71816 0.13218 0.0
C1398 C 0.81206 0.74759 0.13938 0.0
C1399 C 0.79487 0.73853 0.13226 0.0
C1400 C 0.79671 0.71961 0.12439 0.0
H1401 H 0.67466 0.78409 0.11105 0.0
H1402 H 0.70698 0.76672 0.10985 0.0
C1403 C 0.81505 0.70951 0.12443 0.0
C1404 C 0.775 0.7487 0.13317 0.0
H1405 H 0.72699 0.74289 0.14805 0.0
C1406 C 0.77271 0.76766 0.1254 0.0
C1407 C 0.75832 0.73977 0.14164 0.0
C1408 C 0.75995 0.71997 0.1511 0.0
C1409 C 0.75418 0.77767 0.12558 0.0
C1410 C 0.7375 0.76854 0.13371 0.0
C1411 C 0.73977 0.74974 0.14165 0.0
C1412 C 0.71773 0.77866 0.13457 0.0
C1413 C 0.7524 0.79801 0.11714 0.0
C1414 C 0.71297 0.7909 0.14898 0.0
C1415 C 0.69451 0.80075 0.14977 0.0
C1416 C 0.68033 0.79859 0.13615 0.0
C1417 C 0.68507 0.78599 0.12185 0.0
C1418 C 0.70359 0.77614 0.12107 0.0
H1419 H 0.76672 0.8031 0.11123 0.0
H1420 H 0.74078 0.79761 0.10669 0.0
H1421 H 0.74755 0.80912 0.12715 0.0
H1422 H 0.72362 0.79292 0.15959 0.0
H1423 H 0.69133 0.81004 0.16112 0.0
H1424 H 0.19719 0.0733 0.30359 0.0
H1425 H 0.21954 0.07584 0.278 0.0
H1426 H 0.23355 0.13673 0.29231 0.0
H1427 H 0.21163 0.13387 0.31824 0.0
H1428 H 0.22053 0.09902 0.24938 0.0
H1429 H 0.28883 0.11326 0.2888 0.0
H1430 H 0.26554 0.10563 0.29871 0.0
H1431 H 0.26943 0.13132 0.29249 0.0
C1432 C 0.20503 0.08722 0.30117 0.0
C1433 C 0.20295 0.10332 0.31293 0.0
C1434 C 0.21779 0.08869 0.28657 0.0
C1435 C 0.22869 0.10632 0.28337 0.0
C1436 C 0.22582 0.12276 0.29471 0.0
H1437 H 0.29059 0.127 0.18262 0.0
H1438 H 0.26802 0.12927 0.2081 0.0
C1439 C 0.21315 0.12123 0.30941 0.0
C1440 C 0.24307 0.1073 0.26827 0.0
H1441 H 0.29215 0.1157 0.25776 0.0
C1442 C 0.23618 0.10271 0.25124 0.0
C1443 C 0.26362 0.11176 0.27063 0.0
C1444 C 0.27238 0.11558 0.28866 0.0
C1445 C 0.24913 0.10253 0.23659 0.0
C1446 C 0.26956 0.10759 0.23887 0.0
C1447 C 0.27648 0.11207 0.25591 0.0
C1448 C 0.2841 0.10756 0.22387 0.0
C1449 C 0.24088 0.09627 0.21891 0.0
C1450 C 0.30122 0.09534 0.22445 0.0
C1451 C 0.3143 0.09435 0.21002 0.0
C1452 C 0.3106 0.10567 0.19477 0.0
C1453 C 0.29383 0.11828 0.19432 0.0
C1454 C 0.28082 0.11939 0.20879 0.0
H1455 H 0.22681 0.08758 0.22032 0.0
H1456 H 0.23749 0.10981 0.211 0.0
H1457 H 0.25185 0.08705 0.21151 0.0
H1458 H 0.30415 0.08609 0.23589 0.0
H1459 H 0.32695 0.08424 0.21052 0.0
H1460 H 0.44071 0.31737 0.7042 0.0
H1461 H 0.43835 0.29505 0.72984 0.0
H1462 H 0.37809 0.27946 0.71488 0.0
H1463 H 0.38078 0.30138 0.68893 0.0
H1464 H 0.41472 0.29355 0.75823 0.0
H1465 H 0.40296 0.22477 0.71875 0.0
H1466 H 0.41014 0.24826 0.7089 0.0
H1467 H 0.38448 0.2437 0.71478 0.0
C1468 C 0.42696 0.30922 0.70651 0.0
C1469 C 0.41099 0.31087 0.69457 0.0
C1470 C 0.42559 0.29647 0.72113 0.0
C1471 C 0.4082 0.28513 0.72416 0.0
C1472 C 0.39188 0.28755 0.71263 0.0
H1473 H 0.38737 0.22278 0.82474 0.0
H1474 H 0.38509 0.24539 0.79926 0.0
C1475 C 0.39331 0.30022 0.69791 0.0
C1476 C 0.40736 0.27075 0.73928 0.0
H1477 H 0.40004 0.22145 0.74976 0.0
C1478 C 0.41148 0.27779 0.75636 0.0
C1479 C 0.40348 0.25006 0.73689 0.0
C1480 C 0.40021 0.24117 0.71883 0.0
C1481 C 0.41173 0.26486 0.77103 0.0
C1482 C 0.40724 0.24429 0.76872 0.0
C1483 C 0.40324 0.23722 0.75163 0.0
C1484 C 0.40736 0.22976 0.78375 0.0
C1485 C 0.41746 0.27332 0.78878 0.0
C1486 C 0.4199 0.21286 0.7833 0.0
C1487 C 0.4209 0.19975 0.79772 0.0
C1488 C 0.40926 0.2032 0.81283 0.0
C1489 C 0.39635 0.21975 0.81315 0.0
C1490 C 0.39524 0.23279 0.79869 0.0
H1491 H 0.42584 0.28759 0.78746 0.0
H1492 H 0.4037 0.27642 0.79648 0.0
H1493 H 0.42678 0.26258 0.79634 0.0
H1494 H 0.42938 0.21012 0.77197 0.0
H1495 H 0.43121 0.18727 0.79731 0.0
H1496 H 0.2237 0.38964 0.18183 0.0
H1497 H 0.24611 0.38669 0.20737 0.0
H1498 H 0.20986 0.42925 0.23578 0.0
H1499 H 0.18726 0.43177 0.21038 0.0
H1500 H 0.26904 0.41425 0.22233 0.0
H1501 H 0.21598 0.38671 0.27274 0.0
H1502 H 0.20993 0.38714 0.24956 0.0
H1503 H 0.20763 0.40949 0.26266 0.0
C1504 C 0.22034 0.39798 0.19372 0.0
C1505 C 0.20352 0.41052 0.19436 0.0
C1506 C 0.23319 0.3964 0.20827 0.0
C1507 C 0.22957 0.40745 0.22374 0.0
C1508 C 0.21273 0.42008 0.2243 0.0
H1509 H 0.31752 0.44111 0.30297 0.0
H1510 H 0.29564 0.4387 0.2771 0.0
C1511 C 0.19982 0.42155 0.20978 0.0
C1512 C 0.24397 0.4066 0.23884 0.0
H1513 H 0.24723 0.3992 0.28339 0.0
C1514 C 0.26426 0.4108 0.23566 0.0
C1515 C 0.23793 0.40181 0.25625 0.0
C1516 C 0.21673 0.39583 0.2605 0.0
C1517 C 0.27847 0.41084 0.24936 0.0
C1518 C 0.27225 0.40705 0.26691 0.0
C1519 C 0.25206 0.40233 0.27002 0.0
C1520 C 0.28629 0.40822 0.28225 0.0
C1521 C 0.3001 0.41467 0.24479 0.0
C1522 C 0.28819 0.39207 0.29406 0.0
C1523 C 0.30054 0.39357 0.30897 0.0
C1524 C 0.31114 0.41126 0.31241 0.0
C1525 C 0.30957 0.42727 0.3005 0.0
C1526 C 0.29715 0.42583 0.28566 0.0
H1527 H 0.30332 0.4108 0.23083 0.0
H1528 H 0.30341 0.43081 0.24657 0.0
H1529 H 0.31029 0.40594 0.25341 0.0
H1530 H 0.27996 0.37835 0.29182 0.0
H1531 H 0.30147 0.38108 0.31804 0.0
H1532 H 0.08349 0.18722 0.71045 0.0
H1533 H 0.08537 0.21006 0.73579 0.0
H1534 H 0.12876 0.24598 0.70805 0.0
H1535 H 0.12646 0.22337 0.68259 0.0
H1536 H 0.11497 0.22187 0.75768 0.0
H1537 H 0.08737 0.28748 0.72024 0.0
H1538 H 0.0867 0.26244 0.71141 0.0
H1539 H 0.10954 0.27666 0.71096 0.0
C1540 C 0.09364 0.19984 0.70995 0.0
C1541 C 0.10502 0.20346 0.69472 0.0
C1542 C 0.09465 0.21294 0.72437 0.0
C1543 C 0.10695 0.23001 0.72379 0.0
C1544 C 0.11882 0.23322 0.70873 0.0
H1545 H 0.13351 0.30229 0.81822 0.0
H1546 H 0.13627 0.28038 0.79227 0.0
C1547 C 0.11769 0.22019 0.69427 0.0
C1548 C 0.10704 0.24455 0.7388 0.0
H1549 H 0.09874 0.29365 0.74934 0.0
C1550 C 0.11144 0.23757 0.75584 0.0
C1551 C 0.10211 0.26502 0.73653 0.0
C1552 C 0.09596 0.27334 0.71884 0.0
C1553 C 0.11117 0.25042 0.77057 0.0
C1554 C 0.10684 0.27102 0.76822 0.0
C1555 C 0.10233 0.27797 0.75119 0.0
C1556 C 0.10591 0.28539 0.78334 0.0
C1557 C 0.1149 0.24161 0.7886 0.0
C1558 C 0.08833 0.29636 0.78655 0.0
C1559 C 0.08691 0.3091 0.80116 0.0
C1560 C 0.10301 0.31111 0.81292 0.0
C1561 C 0.12086 0.30084 0.80938 0.0
C1562 C 0.12235 0.28817 0.79468 0.0
H1563 H 0.11251 0.22516 0.78873 0.0
H1564 H 0.13063 0.24449 0.79247 0.0
H1565 H 0.10497 0.24849 0.79864 0.0
H1566 H 0.07549 0.29467 0.77798 0.0
H1567 H 0.07303 0.31699 0.80359 0.0
H1568 H 0.68617 0.93 0.79719 0.0
H1569 H 0.70881 0.92778 0.77179 0.0
H1570 H 0.74547 0.8855 0.80011 0.0
H1571 H 0.723 0.88814 0.82565 0.0
H1572 H 0.76809 0.91347 0.78534 0.0
H1573 H 0.7156 0.88549 0.73468 0.0
H1574 H 0.70691 0.90811 0.74484 0.0
H1575 H 0.70945 0.88571 0.75785 0.0
C1576 C 0.69881 0.91989 0.79776 0.0
C1577 C 0.70262 0.90886 0.81316 0.0
C1578 C 0.71176 0.91859 0.78325 0.0
C1579 C 0.72873 0.90615 0.7838 0.0
C1580 C 0.73244 0.89507 0.79923 0.0
H1581 H 0.80153 0.88115 0.68973 0.0
H1582 H 0.77987 0.87803 0.71583 0.0
C1583 C 0.71956 0.89647 0.81377 0.0
C1584 C 0.74319 0.90557 0.76874 0.0
H1585 H 0.74672 0.89844 0.72416 0.0
C1586 C 0.76341 0.91002 0.77199 0.0
C1587 C 0.73729 0.90079 0.75129 0.0
C1588 C 0.71617 0.89455 0.74696 0.0
C1589 C 0.77767 0.91034 0.75832 0.0
C1590 C 0.77156 0.90656 0.74074 0.0
C1591 C 0.75146 0.90157 0.73756 0.0
C1592 C 0.78565 0.90799 0.72545 0.0
C1593 C 0.79922 0.91445 0.76296 0.0
C1594 C 0.79623 0.92579 0.72211 0.0
C1595 C 0.80873 0.92745 0.70735 0.0
C1596 C 0.81065 0.91148 0.69543 0.0
C1597 C 0.80031 0.89361 0.6988 0.0
C1598 C 0.78788 0.8919 0.71364 0.0
H1599 H 0.80244 0.91059 0.77692 0.0
H1600 H 0.80957 0.90588 0.75436 0.0
H1601 H 0.80232 0.93064 0.76122 0.0
H1602 H 0.79447 0.93861 0.7307 0.0
H1603 H 0.81649 0.94141 0.70494 0.0
H1604 H 0.62262 0.72597 0.32642 0.0
H1605 H 0.6243 0.74884 0.30109 0.0
H1606 H 0.58931 0.70738 0.27033 0.0
H1607 H 0.58715 0.68484 0.29582 0.0
H1608 H 0.63876 0.74544 0.26737 0.0
H1609 H 0.55694 0.75836 0.26586 0.0
H1610 H 0.56917 0.74579 0.28393 0.0
H1611 H 0.56366 0.73246 0.2639 0.0
C1612 C 0.61555 0.72167 0.31414 0.0
C1613 C 0.60509 0.70349 0.31295 0.0
C1614 C 0.61646 0.73474 0.29969 0.0
C1615 C 0.6067 0.73003 0.28381 0.0
C1616 C 0.59669 0.71157 0.28248 0.0
H1617 H 0.62209 0.78981 0.18203 0.0
H1618 H 0.62425 0.76726 0.2075 0.0
C1619 C 0.59572 0.69853 0.29696 0.0
C1620 C 0.60664 0.74461 0.26884 0.0
H1621 H 0.57566 0.77165 0.24198 0.0
C1622 C 0.62496 0.75119 0.26184 0.0
C1623 C 0.58866 0.75247 0.26178 0.0
C1624 C 0.5685 0.74709 0.26935 0.0
C1625 C 0.62579 0.76504 0.24784 0.0
C1626 C 0.60779 0.77233 0.24035 0.0
C1627 C 0.58949 0.766 0.24756 0.0
C1628 C 0.6075 0.78652 0.22508 0.0
C1629 C 0.64598 0.77204 0.24146 0.0
C1630 C 0.59707 0.80476 0.22623 0.0
C1631 C 0.59573 0.81757 0.21163 0.0
C1632 C 0.60491 0.81249 0.19557 0.0
C1633 C 0.61534 0.7943 0.1944 0.0
C1634 C 0.61662 0.78144 0.20897 0.0
H1635 H 0.65769 0.76989 0.25168 0.0
H1636 H 0.65036 0.76318 0.22971 0.0
H1637 H 0.64561 0.78809 0.23769 0.0
H1638 H 0.58969 0.80896 0.2384 0.0
H1639 H 0.58702 0.83118 0.21272 0.0
H1640 H 0.828 0.58504 0.7963 0.0
H1641 H 0.8054 0.5874 0.77089 0.0
H1642 H 0.76867 0.62947 0.79938 0.0
H1643 H 0.79108 0.62667 0.82493 0.0
H1644 H 0.74609 0.60156 0.7846 0.0
H1645 H 0.79839 0.62968 0.73384 0.0
H1646 H 0.80715 0.60705 0.74393 0.0
H1647 H 0.80462 0.62941 0.75699 0.0
C1648 C 0.81536 0.59515 0.7969 0.0
C1649 C 0.8115 0.60606 0.81236 0.0
C1650 C 0.80244 0.59653 0.78238 0.0
C1651 C 0.78544 0.60894 0.78298 0.0
C1652 C 0.78171 0.61993 0.79846 0.0
H1653 H 0.71235 0.63375 0.68904 0.0
H1654 H 0.73408 0.63694 0.71508 0.0
C1655 C 0.79457 0.61845 0.81301 0.0
C1656 C 0.77093 0.60952 0.76795 0.0
H1657 H 0.76728 0.61664 0.72338 0.0
C1658 C 0.75074 0.60502 0.77124 0.0
C1659 C 0.77679 0.61431 0.75049 0.0
C1660 C 0.79787 0.62059 0.7461 0.0
C1661 C 0.73644 0.60468 0.75761 0.0
C1662 C 0.74249 0.60847 0.74002 0.0
C1663 C 0.76258 0.6135 0.73678 0.0
C1664 C 0.72837 0.60699 0.72476 0.0
C1665 C 0.71491 0.60052 0.7623 0.0
C1666 C 0.7178 0.58917 0.72147 0.0
C1667 C 0.70526 0.58747 0.70674 0.0
C1668 C 0.70329 0.60342 0.6948 0.0
C1669 C 0.71361 0.6213 0.69812 0.0
C1670 C 0.72608 0.62306 0.71293 0.0
H1671 H 0.71171 0.6044 0.77627 0.0
H1672 H 0.70452 0.60906 0.75372 0.0
H1673 H 0.71184 0.58433 0.76059 0.0
H1674 H 0.7196 0.57637 0.73006 0.0
H1675 H 0.69752 0.57349 0.70437 0.0
H1676 H 0.92982 0.82698 0.29789 0.0
H1677 H 0.92748 0.80392 0.27278 0.0
H1678 H 0.8856 0.76752 0.30183 0.0
H1679 H 0.88835 0.79042 0.32706 0.0
H1680 H 0.91365 0.74479 0.28715 0.0
H1681 H 0.88484 0.79638 0.23609 0.0
H1682 H 0.90747 0.80535 0.24599 0.0
H1683 H 0.88522 0.80286 0.25918 0.0
C1684 C 0.91976 0.81431 0.29868 0.0
C1685 C 0.90888 0.81069 0.31419 0.0
C1686 C 0.91841 0.80112 0.28434 0.0
C1687 C 0.90605 0.7841 0.28518 0.0
C1688 C 0.89511 0.78059 0.30073 0.0
H1689 H 0.88021 0.70992 0.19227 0.0
H1690 H 0.87737 0.73177 0.21825 0.0
C1691 C 0.89657 0.79371 0.31509 0.0
C1692 C 0.9054 0.76939 0.27031 0.0
H1693 H 0.89777 0.76512 0.22586 0.0
C1694 C 0.91002 0.74924 0.27377 0.0
C1695 C 0.90039 0.775 0.25284 0.0
C1696 C 0.894 0.79603 0.24831 0.0
C1697 C 0.91026 0.73475 0.26029 0.0
C1698 C 0.90622 0.74057 0.24267 0.0
C1699 C 0.90109 0.76061 0.23928 0.0
C1700 C 0.90748 0.72624 0.22755 0.0
C1701 C 0.91456 0.71329 0.26514 0.0
C1702 C 0.92526 0.71569 0.2241 0.0
C1703 C 0.92677 0.70307 0.20939 0.0
C1704 C 0.91066 0.70098 0.19766 0.0
C1705 C 0.89279 0.71124 0.20119 0.0
C1706 C 0.89123 0.72379 0.21596 0.0
H1707 H 0.91095 0.71027 0.27919 0.0
H1708 H 0.90592 0.70275 0.25678 0.0
H1709 H 0.93073 0.71025 0.26323 0.0
H1710 H 0.93819 0.71761 0.23251 0.0
H1711 H 0.94074 0.69539 0.20686 0.0
H1712 H 0.4122 0.03269 0.16882 0.0
H1713 H 0.43769 1.00637 0.16983 0.0
H1714 H 0.42466 0.99092 0.11589 0.0
H1715 H 0.39914 0.01703 0.11478 0.0
H1716 H 0.43601 0.96526 0.16468 0.0
H1717 H 0.48471 0.99983 0.11404 0.0
H1718 H 0.46432 0.01317 0.12426 0.0
H1719 H 0.45956 0.99582 0.10661 0.0
C1720 C 0.41458 0.02358 0.1572 0.0
C1721 C 0.40362 0.02724 0.14165 0.0
C1722 C 0.42928 0.00856 0.15778 0.0
C1723 C 0.4335 0.99685 0.14283 0.0
C1724 C 0.42217 1.00005 0.12748 0.0
H1725 H 0.51595 0.90097 0.11547 0.0
H1726 H 0.48959 0.92625 0.11663 0.0
C1727 C 0.4075 0.01505 0.12687 0.0
C1728 C 0.44966 0.98131 0.14323 0.0
H1729 H 0.49286 0.96666 0.12271 0.0
C1730 C 0.4485 0.96565 0.15557 0.0
C1731 C 0.46607 0.98173 0.13139 0.0
C1732 C 0.46891 0.99863 0.11844 0.0
C1733 C 0.46289 0.95019 0.15606 0.0
C1734 C 0.47915 0.9505 0.14407 0.0
C1735 C 0.4804 0.96628 0.13186 0.0
C1736 C 0.49494 0.93456 0.14378 0.0
C1737 C 0.46018 0.93335 0.16908 0.0
C1738 C 0.50694 0.9307 0.15863 0.0
C1739 C 0.52217 0.91622 0.15799 0.0
C1740 C 0.52594 0.90531 0.14243 0.0
C1741 C 0.51378 0.90917 0.12763 0.0
C1742 C 0.49857 0.92362 0.12829 0.0
H1743 H 0.44455 0.93246 0.17396 0.0
H1744 H 0.46426 0.91875 0.1631 0.0
H1745 H 0.47008 0.93593 0.1806 0.0
H1746 H 0.50483 0.9392 0.17064 0.0
H1747 H 0.53138 0.91401 0.16957 0.0
H1748 H 0.60221 0.531 0.66896 0.0
H1749 H 0.57744 0.50403 0.67017 0.0
H1750 H 0.58811 0.49096 0.61534 0.0
H1751 H 0.61333 0.51733 0.61417 0.0
H1752 H 0.54235 0.49959 0.65173 0.0
H1753 H 0.59223 0.43571 0.63676 0.0
H1754 H 0.60171 0.46007 0.64269 0.0
H1755 H 0.59346 0.45519 0.62052 0.0
C1756 C 0.5996 0.52217 0.65722 0.0
C1757 C 0.60997 0.52645 0.64148 0.0
C1758 C 0.58525 0.50681 0.6579 0.0
C1759 C 0.58099 0.49515 0.64293 0.0
C1760 C 0.59131 0.49937 0.62721 0.0
H1761 H 0.49708 0.40106 0.61426 0.0
H1762 H 0.52319 0.42658 0.61565 0.0
C1763 C 0.60563 0.51471 0.62651 0.0
C1764 C 0.56533 0.47907 0.64353 0.0
H1765 H 0.55723 0.42928 0.63547 0.0
C1766 C 0.54567 0.48418 0.64833 0.0
C1767 C 0.56951 0.45889 0.63906 0.0
C1768 C 0.59041 0.45205 0.63463 0.0
C1769 C 0.53008 0.46994 0.64828 0.0
C1770 C 0.53423 0.4498 0.64363 0.0
C1771 C 0.55393 0.44465 0.63901 0.0
C1772 C 0.51831 0.43397 0.64307 0.0
C1773 C 0.50916 0.47679 0.65263 0.0
C1774 C 0.50692 0.42919 0.65809 0.0
C1775 C 0.49178 0.41461 0.65732 0.0
C1776 C 0.48765 0.40432 0.6415 0.0
C1777 C 0.49945 0.40883 0.62661 0.0
C1778 C 0.51456 0.42339 0.6274 0.0
H1779 H 0.50753 0.49326 0.65125 0.0
H1780 H 0.49799 0.46939 0.64397 0.0
H1781 H 0.50569 0.4728 0.66649 0.0
H1782 H 0.50972 0.43674 0.67048 0.0
H1783 H 0.48303 0.41173 0.66906 0.0
H1784 H 0.12838 0.50924 0.15338 0.0
H1785 H 0.10303 0.53586 0.15453 0.0
H1786 H 0.06035 0.49663 0.12976 0.0
H1787 H 0.08543 0.47002 0.12864 0.0
H1788 H 0.08004 0.55281 0.1243 0.0
H1789 H 0.03164 0.51787 0.1752 0.0
H1790 H 0.0575 0.51086 0.17217 0.0
H1791 H 0.03875 0.5019 0.15719 0.0
C1792 C 0.11355 0.50622 0.1483 0.0
C1793 C 0.10903 0.48742 0.14089 0.0
C1794 C 0.0991 0.52151 0.14888 0.0
C1795 C 0.07969 0.51825 0.14234 0.0
C1796 C 0.07513 0.4995 0.13502 0.0
H1797 H 0.96738 0.58283 0.13539 0.0
H1798 H 0.9947 0.55858 0.13536 0.0
C1799 C 0.08958 0.48432 0.13428 0.0
C1800 C 0.06423 0.53442 0.14291 0.0
H1801 H 0.01872 0.54637 0.16063 0.0
C1802 C 0.06669 0.55151 0.13234 0.0
C1803 C 0.04673 0.53268 0.1533 0.0
C1804 C 0.04345 0.51494 0.16524 0.0
C1805 C 0.05192 0.56657 0.13147 0.0
C1806 C 0.03434 0.56485 0.14187 0.0
C1807 C 0.03208 0.54783 0.15262 0.0
C1808 C 0.01784 0.58011 0.14148 0.0
C1809 C 0.05498 0.58375 0.11886 0.0
C1810 C 0.02149 0.60049 0.14497 0.0
C1811 C 1.0058 0.61451 0.14484 0.0
C1812 C 0.98598 0.60847 0.14156 0.0
C1813 C 0.98238 0.58806 0.13816 0.0
C1814 C 0.99806 0.57412 0.13811 0.0
H1815 H 0.06587 0.5799 0.10832 0.0
H1816 H 0.04069 0.58826 0.11256 0.0
H1817 H 0.06102 0.59678 0.12619 0.0
H1818 H 0.03644 0.60556 0.14811 0.0
H1819 H 0.00913 0.63002 0.14776 0.0
H1820 H 0.91184 0.98366 0.66953 0.0
H1821 H 0.93669 0.01057 0.67072 0.0
H1822 H 0.92584 0.02384 0.61596 0.0
H1823 H 0.90057 0.99752 0.6148 0.0
H1824 H 0.97172 0.01493 0.6521 0.0
H1825 H 0.92196 0.07904 0.63757 0.0
H1826 H 0.91244 0.05469 0.64349 0.0
H1827 H 0.92058 0.05961 0.62129 0.0
C1828 C 0.91444 0.99252 0.6578 0.0
C1829 C 0.90401 0.98831 0.64208 0.0
C1830 C 0.92882 0.00785 0.65847 0.0
C1831 C 0.93305 0.01954 0.64351 0.0
C1832 C 0.92266 0.01539 0.62781 0.0
H1833 H 0.01706 0.11359 0.61485 0.0
H1834 H 0.99087 0.08814 0.61624 0.0
C1835 C 0.90832 1.00008 0.62712 0.0
C1836 C 0.94877 0.03557 0.64409 0.0
H1837 H 0.95698 0.08537 0.63618 0.0
C1838 C 0.96844 0.03036 0.64877 0.0
C1839 C 0.94463 0.05577 0.63971 0.0
C1840 C 0.92372 0.0627 0.6354 0.0
C1841 C 0.98407 0.04456 0.64869 0.0
C1842 C 0.97996 0.06473 0.64415 0.0
C1843 C 0.96025 0.06996 0.63964 0.0
C1844 C 0.99593 0.08051 0.64359 0.0
C1845 C 1.00499 0.03761 0.65291 0.0
C1846 C 0.00743 0.08514 0.65857 0.0
C1847 C 0.02262 0.09967 0.65779 0.0
C1848 C 0.02667 0.11008 0.64202 0.0
C1849 C 0.01475 0.10572 0.62716 0.0
C1850 C 0.9996 0.09121 0.62796 0.0
H1851 H 1.00656 0.02115 0.65142 0.0
H1852 H 0.01614 0.04504 0.64425 0.0
H1853 H 0.00855 0.04147 0.66678 0.0
H1854 H 1.00469 0.0775 0.67093 0.0
H1855 H 0.03146 0.10242 0.6695 0.0
H1856 H 0.51694 0.61352 0.39268 0.0
H1857 H 0.49077 0.58805 0.39136 0.0
H1858 H 0.50483 0.57706 0.33677 0.0
H1859 H 0.53158 0.602 0.33814 0.0
H1860 H 0.45697 0.58511 0.37136 0.0
H1861 H 0.50665 0.52083 0.35655 0.0
H1862 H 0.51619 0.54478 0.36362 0.0
H1863 H 0.50867 0.54106 0.34109 0.0
C1864 C 0.51469 0.60557 0.38041 0.0
C1865 C 0.52668 0.60983 0.36557 0.0
C1866 C 0.49955 0.59104 0.37964 0.0
C1867 C 0.49595 0.58024 0.36406 0.0
C1868 C 0.50752 0.58478 0.34909 0.0
H1869 H 0.41199 0.48317 0.33848 0.0
H1870 H 0.43684 0.51007 0.3372 0.0
C1871 C 0.52269 0.59932 0.34983 0.0
C1872 C 0.48 0.56444 0.36355 0.0
H1873 H 0.47182 0.51458 0.35586 0.0
C1874 C 0.46027 0.56969 0.36799 0.0
C1875 C 0.48413 0.54424 0.35912 0.0
C1876 C 0.50507 0.53729 0.35498 0.0
C1877 C 0.44466 0.55549 0.36798 0.0
C1878 C 0.44883 0.53525 0.36372 0.0
C1879 C 0.46851 0.53004 0.3591 0.0
C1880 C 0.43312 0.51922 0.36436 0.0
C1881 C 0.42374 0.56242 0.37222 0.0
C1882 C 0.42268 0.51518 0.38005 0.0
C1883 C 0.40832 0.49987 0.38079 0.0
C1884 C 0.40406 0.488 0.36589 0.0
C1885 C 0.41455 0.4921 0.35017 0.0
C1886 C 0.42894 0.50743 0.34945 0.0
H1887 H 0.42197 0.57875 0.36996 0.0
H1888 H 0.41248 0.55435 0.36415 0.0
H1889 H 0.42056 0.55943 0.38633 0.0
H1890 H 0.42582 0.5237 0.39187 0.0
H1891 H 0.40053 0.49739 0.39311 0.0
H1892 H 0.04624 0.43046 0.87529 0.0
H1893 H 0.01959 0.45542 0.87407 0.0
H1894 H 0.97862 0.41054 0.85503 0.0
H1895 H 1.00557 0.38561 0.85564 0.0
H1896 H 0.972 0.44389 0.8381 0.0
H1897 H 0.97609 0.46332 0.90878 0.0
H1898 H 0.99956 0.46753 0.89803 0.0
H1899 H 0.98968 0.4425 0.89961 0.0
C1900 C 0.03152 0.42585 0.87092 0.0
C1901 C 0.02803 0.40592 0.86576 0.0
C1902 C 0.0162 0.44017 0.87033 0.0
C1903 C 0.99676 0.4349 0.86496 0.0
C1904 C 0.99336 0.41508 0.85937 0.0
H1905 H 0.89433 0.51204 0.88908 0.0
H1906 H 0.91928 0.48528 0.88797 0.0
C1907 C 0.00881 0.4008 0.85971 0.0
C1908 C 0.98014 0.45006 0.86502 0.0
H1909 H 0.95719 0.48546 0.89062 0.0
C1910 C 0.9687 0.45287 0.84965 0.0
C1911 C 0.97538 0.46166 0.88012 0.0
C1912 C 0.98568 0.45846 0.89761 0.0
C1913 C 0.95306 0.46704 0.84886 0.0
C1914 C 0.94902 0.47939 0.86368 0.0
C1915 C 0.96026 0.47632 0.87912 0.0
C1916 C 0.93308 0.4953 0.86368 0.0
C1917 C 0.94071 0.46816 0.83224 0.0
C1918 C 0.93224 0.51006 0.85044 0.0
C1919 C 0.91764 0.52519 0.85089 0.0
C1920 C 0.90382 0.52631 0.86485 0.0
C1921 C 0.90476 0.51167 0.87816 0.0
C1922 C 0.91909 0.49634 0.87753 0.0
H1923 H 0.94111 0.45379 0.82487 0.0
H1924 H 0.92488 0.47188 0.83516 0.0
H1925 H 0.94696 0.4799 0.82348 0.0
H1926 H 0.94315 0.51019 0.8399 0.0
H1927 H 0.91759 0.53642 0.84059 0.0
H1928 H 0.99664 0.90142 0.39381 0.0
H1929 H 0.02274 0.92695 0.39243 0.0
H1930 H 0.00909 0.93735 0.33767 0.0
H1931 H 0.9824 0.91235 0.33909 0.0
H1932 H 0.05671 0.92975 0.37255 0.0
H1933 H 0.00697 0.99377 0.35704 0.0
H1934 H 0.99744 0.96988 0.36426 0.0
H1935 H 1.00509 0.97338 0.34173 0.0
C1936 C 0.99896 0.90926 0.38149 0.0
C1937 C 0.98711 0.90481 0.36661 0.0
C1938 C 0.01407 0.92381 0.38069 0.0
C1939 C 0.01776 0.93447 0.36505 0.0
C1940 C 1.00633 0.92974 0.35004 0.0
H1941 H 0.10164 0.03147 0.33904 0.0
H1942 H 0.07684 1.00451 0.33789 0.0
C1943 C 0.99119 0.91517 0.35082 0.0
C1944 C 0.03368 0.9503 0.36449 0.0
H1945 H 0.04179 1.0001 0.35644 0.0
C1946 C 0.0534 0.94513 0.36905 0.0
C1947 C 0.02952 0.97044 0.35989 0.0
C1948 C 0.00859 0.97731 0.3556 0.0
C1949 C 0.06897 0.95937 0.36898 0.0
C1950 C 0.06478 0.97955 0.36455 0.0
C1951 C 0.04511 0.98468 0.35982 0.0
C1952 C 0.08045 0.99563 0.36513 0.0
C1953 C 0.08989 0.95252 0.37335 0.0
C1954 C 0.09081 0.99984 0.38082 0.0
C1955 C 0.10513 0.01518 0.38149 0.0
C1956 C 0.10945 0.02691 0.36651 0.0
C1957 C 0.09904 0.02264 0.35079 0.0
C1958 C 0.08468 0.00728 0.35014 0.0
H1959 H 0.0917 0.93618 0.37122 0.0
H1960 H 0.10117 0.96054 0.36526 0.0
H1961 H 0.09299 0.95566 0.38746 0.0
H1962 H 0.08763 0.99143 0.3927 0.0
H1963 H 0.11286 0.01779 0.39382 0.0
H1964 H 0.61278 0.9969 0.89307 0.0
H1965 H 0.58729 0.02305 0.89173 0.0
H1966 H 0.57642 0.00901 0.83712 0.0
H1967 H 0.60139 0.98229 0.83851 0.0
H1968 H 0.58434 0.05691 0.87167 0.0
H1969 H 0.52021 1.00705 0.85692 0.0
H1970 H 0.54414 0.99756 0.86403 0.0
H1971 H 0.54045 1.00503 0.84148 0.0
C1972 C 0.60485 0.99915 0.88079 0.0
C1973 C 0.60916 0.98719 0.86595 0.0
C1974 C 0.59032 0.01429 0.88002 0.0
C1975 C 0.57954 0.01788 0.86442 0.0
C1976 C 0.58412 1.00633 0.84945 0.0
H1977 H 0.48241 0.1016 0.83857 0.0
H1978 H 0.50935 0.07679 0.83739 0.0
C1979 C 0.59868 0.99117 0.8502 0.0
C1980 C 0.56373 0.03382 0.86389 0.0
H1981 H 0.5139 0.0419 0.85614 0.0
C1982 C 0.56894 0.05358 0.8683 0.0
C1983 C 0.54356 0.02963 0.85946 0.0
C1984 C 0.53665 0.00865 0.85536 0.0
C1985 C 0.55472 0.06918 0.86823 0.0
C1986 C 0.53451 0.06496 0.86396 0.0
C1987 C 0.52934 0.04524 0.85939 0.0
C1988 C 0.51847 0.08065 0.86454 0.0
C1989 C 0.56161 0.09013 0.87242 0.0
C1990 C 0.5144 0.09116 0.88019 0.0
C1991 C 0.49907 0.10549 0.88088 0.0
C1992 C 0.48721 0.10967 0.86595 0.0
C1993 C 0.49134 0.09912 0.85027 0.0
C1994 C 0.50668 0.08475 0.84961 0.0
H1995 H 0.57793 0.09193 0.87016 0.0
H1996 H 0.55354 0.10136 0.86432 0.0
H1997 H 0.55861 0.09336 0.88653 0.0
H1998 H 0.52291 0.08809 0.89203 0.0
H1999 H 0.49657 0.11334 0.89317 0.0
loop_
_geom_bond_atom_site_label_1
_geom_bond_atom_site_label_2
_geom_bond_distance
_geom_bond_site_symmetry_2
_ccdc_geom_bond_type
C0 C1 1.443 . S
C0 N4 1.376 . S
C0 C38 1.389 . S
C1 C0 1.443 . S
C1 C2 1.340 . S
C1 H41 0.951 . S
C2 C1 1.340 . S
C2 C3 1.439 . S
C2 H42 0.950 . S
C3 C2 1.439 . S
C3 N4 1.374 . S
C3 C37 1.395 . S
N4 C0 1.376 . S
N4 C3 1.374 . S
N4 Co5 2.008 . S
Co5 N4 2.008 . S
Co5 N6 1.995 . S
Co5 N11 2.008 . S
Co5 N16 1.995 . S
Co5 N21 2.282 . S
Co5 N27 2.282 . S
N6 Co5 1.995 . S
N6 C7 1.376 . S
N6 C10 1.383 . S
C7 N6 1.376 . S
C7 C8 1.446 . S
C7 C37 1.391 . S
C8 C7 1.446 . S
C8 C9 1.339 . S
C8 H43 0.949 . S
C9 C8 1.339 . S
C9 C10 1.439 . S
C9 H44 0.950 . S
C10 N6 1.383 . S
C10 C9 1.439 . S
C10 C39 1.392 . S
N11 Co5 2.008 . S
N11 C12 1.376 . S
N11 C15 1.374 . S
C12 N11 1.376 . S
C12 C13 1.443 . S
C12 C39 1.389 . S
C13 C12 1.443 . S
C13 C14 1.340 . S
C13 H45 0.951 . S
C14 C13 1.340 . S
C14 C15 1.439 . S
C14 H46 0.950 . S
C15 N11 1.374 . S
C15 C14 1.439 . S
C15 C40 1.395 . S
N16 Co5 1.995 . S
N16 C17 1.376 . S
N16 C20 1.383 . S
C17 N16 1.376 . S
C17 C18 1.446 . S
C17 C40 1.391 . S
C18 C17 1.446 . S
C18 C19 1.339 . S
C18 H47 0.949 . S
C19 C18 1.339 . S
C19 C20 1.439 . S
C19 H48 0.950 . S
C20 N16 1.383 . S
C20 C19 1.439 . S
C20 C38 1.392 . S
N21 Co5 2.282 . S
N21 C24 1.332 . S
N21 C26 1.332 . S
C22 C23 1.386 . S
C22 C25 1.388 . S
C23 C22 1.386 . S
C23 C24 1.382 . S
C23 H49 0.950 . S
C24 N21 1.332 . S
C24 C23 1.382 . S
C24 H35 0.952 . S
C25 C22 1.388 . S
C25 C26 1.382 . S
C25 H50 0.950 . S
C26 N21 1.332 . S
C26 C25 1.382 . S
C26 H36 0.948 . S
N27 Co5 2.282 . S
N27 C31 1.332 . S
N27 C32 1.332 . S
C28 C29 1.388 . S
C28 C32 1.382 . S
C28 H51 0.950 . S
C29 C28 1.388 . S
C29 C30 1.386 . S
C30 C29 1.386 . S
C30 C31 1.382 . S
C30 H52 0.950 . S
C31 N27 1.332 . S
C31 C30 1.382 . S
C31 H33 0.952 . S
C32 N27 1.332 . S
C32 C28 1.382 . S
C32 H34 0.948 . S
H33 C31 0.952 . S
H34 C32 0.948 . S
H35 C24 0.952 . S
H36 C26 0.948 . S
C37 C3 1.395 . S
C37 C7 1.391 . S
C38 C0 1.389 . S
C38 C20 1.392 . S
C39 C10 1.392 . S
C39 C12 1.389 . S
C40 C15 1.395 . S
C40 C17 1.391 . S
H41 C1 0.951 . S
H42 C2 0.950 . S
H43 C8 0.949 . S
H44 C9 0.950 . S
H45 C13 0.951 . S
H46 C14 0.950 . S
H47 C18 0.949 . S
H48 C19 0.950 . S
H49 C23 0.950 . S
H50 C25 0.950 . S
H51 C28 0.950 . S
H52 C30 0.950 . S
C53 C54 1.443 . S
C53 N57 1.376 . S
C53 C91 1.389 . S
C54 C53 1.443 . S
C54 C55 1.340 . S
C54 H94 0.951 . S
C55 C54 1.340 . S
C55 C56 1.439 . S
C55 H95 0.950 . S
C56 C55 1.439 . S
C56 N57 1.374 . S
C56 C90 1.395 . S
N57 C53 1.376 . S
N57 C56 1.374 . S
N57 Co58 2.008 . S
Co58 N57 2.008 . S
Co58 N59 1.995 . S
Co58 N64 2.008 . S
Co58 N69 1.995 . S
Co58 N74 2.282 . S
Co58 N80 2.282 . S
N59 Co58 1.995 . S
N59 C60 1.376 . S
N59 C63 1.383 . S
C60 N59 1.376 . S
C60 C61 1.446 . S
C60 C90 1.391 . S
C61 C60 1.446 . S
C61 C62 1.339 . S
C61 H96 0.949 . S
C62 C61 1.339 . S
C62 C63 1.439 . S
C62 H97 0.950 . S
C63 N59 1.383 . S
C63 C62 1.439 . S
C63 C92 1.392 . S
N64 Co58 2.008 . S
N64 C65 1.376 . S
N64 C68 1.374 . S
C65 N64 1.376 . S
C65 C66 1.443 . S
C65 C92 1.389 . S
C66 C65 1.443 . S
C66 C67 1.340 . S
C66 H98 0.951 . S
C67 C66 1.340 . S
C67 C68 1.439 . S
C67 H99 0.950 . S
C68 N64 1.374 . S
C68 C67 1.439 . S
C68 C93 1.395 . S
N69 Co58 1.995 . S
N69 C70 1.376 . S
N69 C73 1.383 . S
C70 N69 1.376 . S
C70 C71 1.446 . S
C70 C93 1.391 . S
C71 C70 1.446 . S
C71 C72 1.339 . S
C71 H100 0.949 . S
C72 C71 1.339 . S
C72 C73 1.439 . S
C72 H101 0.950 . S
C73 N69 1.383 . S
C73 C72 1.439 . S
C73 C91 1.392 . S
N74 Co58 2.282 . S
N74 C77 1.332 . S
N74 C79 1.332 . S
C75 C76 1.386 . S
C75 C78 1.388 . S
C76 C75 1.386 . S
C76 C77 1.382 . S
C76 H102 0.950 . S
C77 N74 1.332 . S
C77 C76 1.382 . S
C77 H88 0.952 . S
C78 C75 1.388 . S
C78 C79 1.382 . S
C78 H103 0.950 . S
C79 N74 1.332 . S
C79 C78 1.382 . S
C79 H89 0.948 . S
N80 Co58 2.282 . S
N80 C84 1.332 . S
N80 C85 1.332 . S
C81 C82 1.388 . S
C81 C85 1.382 . S
C81 H104 0.950 . S
C82 C81 1.388 . S
C82 C83 1.386 . S
C83 C82 1.386 . S
C83 C84 1.382 . S
C83 H105 0.950 . S
C84 N80 1.332 . S
C84 C83 1.382 . S
C84 H86 0.952 . S
C85 N80 1.332 . S
C85 C81 1.382 . S
C85 H87 0.948 . S
H86 C84 0.952 . S
H87 C85 0.948 . S
H88 C77 0.952 . S
H89 C79 0.948 . S
C90 C56 1.395 . S
C90 C60 1.391 . S
C91 C53 1.389 . S
C91 C73 1.392 . S
C92 C63 1.392 . S
C92 C65 1.389 . S
C93 C68 1.395 . S
C93 C70 1.391 . S
H94 C54 0.951 . S
H95 C55 0.950 . S
H96 C61 0.949 . S
H97 C62 0.950 . S
H98 C66 0.951 . S
H99 C67 0.950 . S
H100 C71 0.949 . S
H101 C72 0.950 . S
H102 C76 0.950 . S
H103 C78 0.950 . S
H104 C81 0.950 . S
H105 C83 0.950 . S
C106 C107 1.443 . S
C106 N110 1.376 . S
C106 C144 1.389 . S
C107 C106 1.443 . S
C107 C108 1.340 . S
C107 H147 0.951 . S
C108 C107 1.340 . S
C108 C109 1.439 . S
C108 H148 0.950 . S
C109 C108 1.439 . S
C109 N110 1.374 . S
C109 C143 1.395 . S
N110 C106 1.376 . S
N110 C109 1.374 . S
N110 Co111 2.008 . S
Co111 N110 2.008 . S
Co111 N112 1.995 . S
Co111 N117 2.008 . S
Co111 N122 1.995 . S
Co111 N127 2.282 . S
Co111 N133 2.282 . S
N112 Co111 1.995 . S
N112 C113 1.376 . S
N112 C116 1.383 . S
C113 N112 1.376 . S
C113 C114 1.446 . S
C113 C143 1.391 . S
C114 C113 1.446 . S
C114 C115 1.339 . S
C114 H149 0.949 . S
C115 C114 1.339 . S
C115 C116 1.439 . S
C115 H150 0.950 . S
C116 N112 1.383 . S
C116 C115 1.439 . S
C116 C145 1.392 . S
N117 Co111 2.008 . S
N117 C118 1.376 . S
N117 C121 1.374 . S
C118 N117 1.376 . S
C118 C119 1.443 . S
C118 C145 1.389 . S
C119 C118 1.443 . S
C119 C120 1.340 . S
C119 H151 0.951 . S
C120 C119 1.340 . S
C120 C121 1.439 . S
C120 H152 0.950 . S
C121 N117 1.374 . S
C121 C120 1.439 . S
C121 C146 1.395 . S
N122 Co111 1.995 . S
N122 C123 1.376 . S
N122 C126 1.383 . S
C123 N122 1.376 . S
C123 C124 1.446 . S
C123 C146 1.391 . S
C124 C123 1.446 . S
C124 C125 1.339 . S
C124 H153 0.949 . S
C125 C124 1.339 . S
C125 C126 1.439 . S
C125 H154 0.950 . S
C126 N122 1.383 . S
C126 C125 1.439 . S
C126 C144 1.392 . S
N127 Co111 2.282 . S
N127 C130 1.332 . S
N127 C132 1.332 . S
C128 C129 1.386 . S
C128 C131 1.388 . S
C129 C128 1.386 . S
C129 C130 1.382 . S
C129 H155 0.950 . S
C130 N127 1.332 . S
C130 C129 1.382 . S
C130 H141 0.952 . S
C131 C128 1.388 . S
C131 C132 1.382 . S
C131 H156 0.950 . S
C132 N127 1.332 . S
C132 C131 1.382 . S
C132 H142 0.948 . S
N133 Co111 2.282 . S
N133 C137 1.332 . S
N133 C138 1.332 . S
C134 C135 1.388 . S
C134 C138 1.382 . S
C134 H157 0.950 . S
C135 C134 1.388 . S
C135 C136 1.386 . S
C136 C135 1.386 . S
C136 C137 1.382 . S
C136 H158 0.950 . S
C137 N133 1.332 . S
C137 C136 1.382 . S
C137 H139 0.952 . S
C138 N133 1.332 . S
C138 C134 1.382 . S
C138 H140 0.948 . S
H139 C137 0.952 . S
H140 C138 0.948 . S
H141 C130 0.952 . S
H142 C132 0.948 . S
C143 C109 1.395 . S
C143 C113 1.391 . S
C144 C106 1.389 . S
C144 C126 1.392 . S
C145 C116 1.392 . S
C145 C118 1.389 . S
C146 C121 1.395 . S
C146 C123 1.391 . S
H147 C107 0.951 . S
H148 C108 0.950 . S
H149 C114 0.949 . S
H150 C115 0.950 . S
H151 C119 0.951 . S
H152 C120 0.950 . S
H153 C124 0.949 . S
H154 C125 0.950 . S
H155 C129 0.950 . S
H156 C131 0.950 . S
H157 C134 0.950 . S
H158 C136 0.950 . S
C159 C160 1.443 . S
C159 N163 1.376 . S
C159 C197 1.389 . S
C160 C159 1.443 . S
C160 C161 1.340 . S
C160 H200 0.951 . S
C161 C160 1.340 . S
C161 C162 1.439 . S
C161 H201 0.950 . S
C162 C161 1.439 . S
C162 N163 1.374 . S
C162 C196 1.395 . S
N163 C159 1.376 . S
N163 C162 1.374 . S
N163 Co164 2.008 . S
Co164 N163 2.008 . S
Co164 N165 1.995 . S
Co164 N170 2.008 . S
Co164 N175 1.995 . S
Co164 N180 2.282 . S
Co164 N186 2.282 . S
N165 Co164 1.995 . S
N165 C166 1.376 . S
N165 C169 1.383 . S
C166 N165 1.376 . S
C166 C167 1.446 . S
C166 C196 1.391 . S
C167 C166 1.446 . S
C167 C168 1.339 . S
C167 H202 0.949 . S
C168 C167 1.339 . S
C168 C169 1.439 . S
C168 H203 0.950 . S
C169 N165 1.383 . S
C169 C168 1.439 . S
C169 C198 1.392 . S
N170 Co164 2.008 . S
N170 C171 1.376 . S
N170 C174 1.374 . S
C171 N170 1.376 . S
C171 C172 1.443 . S
C171 C198 1.389 . S
C172 C171 1.443 . S
C172 C173 1.340 . S
C172 H204 0.951 . S
C173 C172 1.340 . S
C173 C174 1.439 . S
C173 H205 0.950 . S
C174 N170 1.374 . S
C174 C173 1.439 . S
C174 C199 1.395 . S
N175 Co164 1.995 . S
N175 C176 1.376 . S
N175 C179 1.383 . S
C176 N175 1.376 . S
C176 C177 1.446 . S
C176 C199 1.391 . S
C177 C176 1.446 . S
C177 C178 1.339 . S
C177 H206 0.949 . S
C178 C177 1.339 . S
C178 C179 1.439 . S
C178 H207 0.950 . S
C179 N175 1.383 . S
C179 C178 1.439 . S
C179 C197 1.392 . S
N180 Co164 2.282 . S
N180 C183 1.332 . S
N180 C185 1.332 . S
C181 C182 1.386 . S
C181 C184 1.388 . S
C182 C181 1.386 . S
C182 C183 1.382 . S
C182 H208 0.950 . S
C183 N180 1.332 . S
C183 C182 1.382 . S
C183 H194 0.952 . S
C184 C181 1.388 . S
C184 C185 1.382 . S
C184 H209 0.950 . S
C185 N180 1.332 . S
C185 C184 1.382 . S
C185 H195 0.948 . S
N186 Co164 2.282 . S
N186 C190 1.332 . S
N186 C191 1.332 . S
C187 C188 1.388 . S
C187 C191 1.382 . S
C187 H210 0.950 . S
C188 C187 1.388 . S
C188 C189 1.386 . S
C189 C188 1.386 . S
C189 C190 1.382 . S
C189 H211 0.950 . S
C190 N186 1.332 . S
C190 C189 1.382 . S
C190 H192 0.952 . S
C191 N186 1.332 . S
C191 C187 1.382 . S
C191 H193 0.948 . S
H192 C190 0.952 . S
H193 C191 0.948 . S
H194 C183 0.952 . S
H195 C185 0.948 . S
C196 C162 1.395 . S
C196 C166 1.391 . S
C197 C159 1.389 . S
C197 C179 1.392 . S
C198 C169 1.392 . S
C198 C171 1.389 . S
C199 C174 1.395 . S
C199 C176 1.391 . S
H200 C160 0.951 . S
H201 C161 0.950 . S
H202 C167 0.949 . S
H203 C168 0.950 . S
H204 C172 0.951 . S
H205 C173 0.950 . S
H206 C177 0.949 . S
H207 C178 0.950 . S
H208 C182 0.950 . S
H209 C184 0.950 . S
H210 C187 0.950 . S
H211 C189 0.950 . S
C212 C213 1.443 . S
C212 N216 1.376 . S
C212 C250 1.389 . S
C213 C212 1.443 . S
C213 C214 1.340 . S
C213 H253 0.951 . S
C214 C213 1.340 . S
C214 C215 1.439 . S
C214 H254 0.950 . S
C215 C214 1.439 . S
C215 N216 1.374 . S
C215 C249 1.395 . S
N216 C212 1.376 . S
N216 C215 1.374 . S
N216 Co217 2.008 . S
Co217 N216 2.008 . S
Co217 N218 1.995 . S
Co217 N223 2.008 . S
Co217 N228 1.995 . S
Co217 N233 2.282 . S
Co217 N239 2.282 . S
N218 Co217 1.995 . S
N218 C219 1.376 . S
N218 C222 1.383 . S
C219 N218 1.376 . S
C219 C220 1.446 . S
C219 C249 1.391 . S
C220 C219 1.446 . S
C220 C221 1.339 . S
C220 H255 0.949 . S
C221 C220 1.339 . S
C221 C222 1.439 . S
C221 H256 0.950 . S
C222 N218 1.383 . S
C222 C221 1.439 . S
C222 C251 1.392 . S
N223 Co217 2.008 . S
N223 C224 1.376 . S
N223 C227 1.374 . S
C224 N223 1.376 . S
C224 C225 1.443 . S
C224 C251 1.389 . S
C225 C224 1.443 . S
C225 C226 1.340 . S
C225 H257 0.951 . S
C226 C225 1.340 . S
C226 C227 1.439 . S
C226 H258 0.950 . S
C227 N223 1.374 . S
C227 C226 1.439 . S
C227 C252 1.395 . S
N228 Co217 1.995 . S
N228 C229 1.376 . S
N228 C232 1.383 . S
C229 N228 1.376 . S
C229 C230 1.446 . S
C229 C252 1.391 . S
C230 C229 1.446 . S
C230 C231 1.339 . S
C230 H259 0.949 . S
C231 C230 1.339 . S
C231 C232 1.439 . S
C231 H260 0.950 . S
C232 N228 1.383 . S
C232 C231 1.439 . S
C232 C250 1.392 . S
N233 Co217 2.282 . S
N233 C236 1.332 . S
N233 C238 1.332 . S
C234 C235 1.386 . S
C234 C237 1.388 . S
C235 C234 1.386 . S
C235 C236 1.382 . S
C235 H261 0.950 . S
C236 N233 1.332 . S
C236 C235 1.382 . S
C236 H247 0.952 . S
C237 C234 1.388 . S
C237 C238 1.382 . S
C237 H262 0.950 . S
C238 N233 1.332 . S
C238 C237 1.382 . S
C238 H248 0.948 . S
N239 Co217 2.282 . S
N239 C243 1.332 . S
N239 C244 1.332 . S
C240 C241 1.388 . S
C240 C244 1.382 . S
C240 H263 0.950 . S
C241 C240 1.388 . S
C241 C242 1.386 . S
C242 C241 1.386 . S
C242 C243 1.382 . S
C242 H264 0.950 . S
C243 N239 1.332 . S
C243 C242 1.382 . S
C243 H245 0.952 . S
C244 N239 1.332 . S
C244 C240 1.382 . S
C244 H246 0.948 . S
H245 C243 0.952 . S
H246 C244 0.948 . S
H247 C236 0.952 . S
H248 C238 0.948 . S
C249 C215 1.395 . S
C249 C219 1.391 . S
C250 C212 1.389 . S
C250 C232 1.392 . S
C251 C222 1.392 . S
C251 C224 1.389 . S
C252 C227 1.395 . S
C252 C229 1.391 . S
H253 C213 0.951 . S
H254 C214 0.950 . S
H255 C220 0.949 . S
H256 C221 0.950 . S
H257 C225 0.951 . S
H258 C226 0.950 . S
H259 C230 0.949 . S
H260 C231 0.950 . S
H261 C235 0.950 . S
H262 C237 0.950 . S
H263 C240 0.950 . S
H264 C242 0.950 . S
C265 C266 1.443 . S
C265 N269 1.376 . S
C265 C303 1.389 . S
C266 C265 1.443 . S
C266 C267 1.340 . S
C266 H306 0.951 . S
C267 C266 1.340 . S
C267 C268 1.439 . S
C267 H307 0.950 . S
C268 C267 1.439 . S
C268 N269 1.374 . S
C268 C302 1.395 . S
N269 C265 1.376 . S
N269 C268 1.374 . S
N269 Co270 2.008 . S
Co270 N269 2.008 . S
Co270 N271 1.995 . S
Co270 N276 2.008 . S
Co270 N281 1.995 . S
Co270 N286 2.282 . S
Co270 N292 2.282 . S
N271 Co270 1.995 . S
N271 C272 1.376 . S
N271 C275 1.383 . S
C272 N271 1.376 . S
C272 C273 1.446 . S
C272 C302 1.391 . S
C273 C272 1.446 . S
C273 C274 1.339 . S
C273 H308 0.949 . S
C274 C273 1.339 . S
C274 C275 1.439 . S
C274 H309 0.950 . S
C275 N271 1.383 . S
C275 C274 1.439 . S
C275 C304 1.392 . S
N276 Co270 2.008 . S
N276 C277 1.376 . S
N276 C280 1.374 . S
C277 N276 1.376 . S
C277 C278 1.443 . S
C277 C304 1.389 . S
C278 C277 1.443 . S
C278 C279 1.340 . S
C278 H310 0.951 . S
C279 C278 1.340 . S
C279 C280 1.439 . S
C279 H311 0.950 . S
C280 N276 1.374 . S
C280 C279 1.439 . S
C280 C305 1.395 . S
N281 Co270 1.995 . S
N281 C282 1.376 . S
N281 C285 1.383 . S
C282 N281 1.376 . S
C282 C283 1.446 . S
C282 C305 1.391 . S
C283 C282 1.446 . S
C283 C284 1.339 . S
C283 H312 0.949 . S
C284 C283 1.339 . S
C284 C285 1.439 . S
C284 H313 0.950 . S
C285 N281 1.383 . S
C285 C284 1.439 . S
C285 C303 1.392 . S
N286 Co270 2.282 . S
N286 C289 1.332 . S
N286 C291 1.332 . S
C287 C288 1.386 . S
C287 C290 1.388 . S
C288 C287 1.386 . S
C288 C289 1.382 . S
C288 H314 0.950 . S
C289 N286 1.332 . S
C289 C288 1.382 . S
C289 H300 0.952 . S
C290 C287 1.388 . S
C290 C291 1.382 . S
C290 H315 0.950 . S
C291 N286 1.332 . S
C291 C290 1.382 . S
C291 H301 0.948 . S
N292 Co270 2.282 . S
N292 C296 1.332 . S
N292 C297 1.332 . S
C293 C294 1.388 . S
C293 C297 1.382 . S
C293 H316 0.950 . S
C294 C293 1.388 . S
C294 C295 1.386 . S
C295 C294 1.386 . S
C295 C296 1.382 . S
C295 H317 0.950 . S
C296 N292 1.332 . S
C296 C295 1.382 . S
C296 H298 0.952 . S
C297 N292 1.332 . S
C297 C293 1.382 . S
C297 H299 0.948 . S
H298 C296 0.952 . S
H299 C297 0.948 . S
H300 C289 0.952 . S
H301 C291 0.948 . S
C302 C268 1.395 . S
C302 C272 1.391 . S
C303 C265 1.389 . S
C303 C285 1.392 . S
C304 C275 1.392 . S
C304 C277 1.389 . S
C305 C280 1.395 . S
C305 C282 1.391 . S
H306 C266 0.951 . S
H307 C267 0.950 . S
H308 C273 0.949 . S
H309 C274 0.950 . S
H310 C278 0.951 . S
H311 C279 0.950 . S
H312 C283 0.949 . S
H313 C284 0.950 . S
H314 C288 0.950 . S
H315 C290 0.950 . S
H316 C293 0.950 . S
H317 C295 0.950 . S
C318 C319 1.443 . S
C318 N322 1.376 . S
C318 C356 1.389 . S
C319 C318 1.443 . S
C319 C320 1.340 . S
C319 H359 0.951 . S
C320 C319 1.340 . S
C320 C321 1.439 . S
C320 H360 0.950 . S
C321 C320 1.439 . S
C321 N322 1.374 . S
C321 C355 1.395 . S
N322 C318 1.376 . S
N322 C321 1.374 . S
N322 Co323 2.008 . S
Co323 N322 2.008 . S
Co323 N324 1.995 . S
Co323 N329 2.008 . S
Co323 N334 1.995 . S
Co323 N339 2.282 . S
Co323 N345 2.282 . S
N324 Co323 1.995 . S
N324 C325 1.376 . S
N324 C328 1.383 . S
C325 N324 1.376 . S
C325 C326 1.446 . S
C325 C355 1.391 . S
C326 C325 1.446 . S
C326 C327 1.339 . S
C326 H361 0.949 . S
C327 C326 1.339 . S
C327 C328 1.439 . S
C327 H362 0.950 . S
C328 N324 1.383 . S
C328 C327 1.439 . S
C328 C357 1.392 . S
N329 Co323 2.008 . S
N329 C330 1.376 . S
N329 C333 1.374 . S
C330 N329 1.376 . S
C330 C331 1.443 . S
C330 C357 1.389 . S
C331 C330 1.443 . S
C331 C332 1.340 . S
C331 H363 0.951 . S
C332 C331 1.340 . S
C332 C333 1.439 . S
C332 H364 0.950 . S
C333 N329 1.374 . S
C333 C332 1.439 . S
C333 C358 1.395 . S
N334 Co323 1.995 . S
N334 C335 1.376 . S
N334 C338 1.383 . S
C335 N334 1.376 . S
C335 C336 1.446 . S
C335 C358 1.391 . S
C336 C335 1.446 . S
C336 C337 1.339 . S
C336 H365 0.949 . S
C337 C336 1.339 . S
C337 C338 1.439 . S
C337 H366 0.950 . S
C338 N334 1.383 . S
C338 C337 1.439 . S
C338 C356 1.392 . S
N339 Co323 2.282 . S
N339 C342 1.332 . S
N339 C344 1.332 . S
C340 C341 1.386 . S
C340 C343 1.388 . S
C341 C340 1.386 . S
C341 C342 1.382 . S
C341 H367 0.950 . S
C342 N339 1.332 . S
C342 C341 1.382 . S
C342 H353 0.952 . S
C343 C340 1.388 . S
C343 C344 1.382 . S
C343 H368 0.950 . S
C344 N339 1.332 . S
C344 C343 1.382 . S
C344 H354 0.948 . S
N345 Co323 2.282 . S
N345 C349 1.332 . S
N345 C350 1.332 . S
C346 C347 1.388 . S
C346 C350 1.382 . S
C346 H369 0.950 . S
C347 C346 1.388 . S
C347 C348 1.386 . S
C348 C347 1.386 . S
C348 C349 1.382 . S
C348 H370 0.950 . S
C349 N345 1.332 . S
C349 C348 1.382 . S
C349 H351 0.952 . S
C350 N345 1.332 . S
C350 C346 1.382 . S
C350 H352 0.948 . S
H351 C349 0.952 . S
H352 C350 0.948 . S
H353 C342 0.952 . S
H354 C344 0.948 . S
C355 C321 1.395 . S
C355 C325 1.391 . S
C356 C318 1.389 . S
C356 C338 1.392 . S
C357 C328 1.392 . S
C357 C330 1.389 . S
C358 C333 1.395 . S
C358 C335 1.391 . S
H359 C319 0.951 . S
H360 C320 0.950 . S
H361 C326 0.949 . S
H362 C327 0.950 . S
H363 C331 0.951 . S
H364 C332 0.950 . S
H365 C336 0.949 . S
H366 C337 0.950 . S
H367 C341 0.950 . S
H368 C343 0.950 . S
H369 C346 0.950 . S
H370 C348 0.950 . S
C371 C372 1.443 . S
C371 N375 1.376 . S
C371 C409 1.389 . S
C372 C371 1.443 . S
C372 C373 1.340 . S
C372 H412 0.951 . S
C373 C372 1.340 . S
C373 C374 1.439 . S
C373 H413 0.950 . S
C374 C373 1.439 . S
C374 N375 1.374 . S
C374 C408 1.395 . S
N375 C371 1.376 . S
N375 C374 1.374 . S
N375 Co376 2.008 . S
Co376 N375 2.008 . S
Co376 N377 1.995 . S
Co376 N382 2.008 . S
Co376 N387 1.995 . S
Co376 N392 2.282 . S
Co376 N398 2.282 . S
N377 Co376 1.995 . S
N377 C378 1.376 . S
N377 C381 1.383 . S
C378 N377 1.376 . S
C378 C379 1.446 . S
C378 C408 1.391 . S
C379 C378 1.446 . S
C379 C380 1.339 . S
C379 H414 0.949 . S
C380 C379 1.339 . S
C380 C381 1.439 . S
C380 H415 0.950 . S
C381 N377 1.383 . S
C381 C380 1.439 . S
C381 C410 1.392 . S
N382 Co376 2.008 . S
N382 C383 1.376 . S
N382 C386 1.374 . S
C383 N382 1.376 . S
C383 C384 1.443 . S
C383 C410 1.389 . S
C384 C383 1.443 . S
C384 C385 1.340 . S
C384 H416 0.951 . S
C385 C384 1.340 . S
C385 C386 1.439 . S
C385 H417 0.950 . S
C386 N382 1.374 . S
C386 C385 1.439 . S
C386 C411 1.395 . S
N387 Co376 1.995 . S
N387 C388 1.376 . S
N387 C391 1.383 . S
C388 N387 1.376 . S
C388 C389 1.446 . S
C388 C411 1.391 . S
C389 C388 1.446 . S
C389 C390 1.339 . S
C389 H418 0.949 . S
C390 C389 1.339 . S
C390 C391 1.439 . S
C390 H419 0.950 . S
C391 N387 1.383 . S
C391 C390 1.439 . S
C391 C409 1.392 . S
N392 Co376 2.282 . S
N392 C395 1.332 . S
N392 C397 1.332 . S
C393 C394 1.386 . S
C393 C396 1.388 . S
C394 C393 1.386 . S
C394 C395 1.382 . S
C394 H420 0.950 . S
C395 N392 1.332 . S
C395 C394 1.382 . S
C395 H406 0.952 . S
C396 C393 1.388 . S
C396 C397 1.382 . S
C396 H421 0.950 . S
C397 N392 1.332 . S
C397 C396 1.382 . S
C397 H407 0.948 . S
N398 Co376 2.282 . S
N398 C402 1.332 . S
N398 C403 1.332 . S
C399 C400 1.388 . S
C399 C403 1.382 . S
C399 H422 0.950 . S
C400 C399 1.388 . S
C400 C401 1.386 . S
C401 C400 1.386 . S
C401 C402 1.382 . S
C401 H423 0.950 . S
C402 N398 1.332 . S
C402 C401 1.382 . S
C402 H404 0.952 . S
C403 N398 1.332 . S
C403 C399 1.382 . S
C403 H405 0.948 . S
H404 C402 0.952 . S
H405 C403 0.948 . S
H406 C395 0.952 . S
H407 C397 0.948 . S
C408 C374 1.395 . S
C408 C378 1.391 . S
C409 C371 1.389 . S
C409 C391 1.392 . S
C410 C381 1.392 . S
C410 C383 1.389 . S
C411 C386 1.395 . S
C411 C388 1.391 . S
H412 C372 0.951 . S
H413 C373 0.950 . S
H414 C379 0.949 . S
H415 C380 0.950 . S
H416 C384 0.951 . S
H417 C385 0.950 . S
H418 C389 0.949 . S
H419 C390 0.950 . S
H420 C394 0.950 . S
H421 C396 0.950 . S
H422 C399 0.950 . S
H423 C401 0.950 . S
C424 C425 1.443 . S
C424 N428 1.376 . S
C424 C462 1.389 . S
C425 C424 1.443 . S
C425 C426 1.340 . S
C425 H465 0.951 . S
C426 C425 1.340 . S
C426 C427 1.439 . S
C426 H466 0.950 . S
C427 C426 1.439 . S
C427 N428 1.374 . S
C427 C461 1.395 . S
N428 C424 1.376 . S
N428 C427 1.374 . S
N428 Co429 2.008 . S
Co429 N428 2.008 . S
Co429 N430 1.995 . S
Co429 N435 2.008 . S
Co429 N440 1.995 . S
Co429 N445 2.282 . S
Co429 N451 2.282 . S
N430 Co429 1.995 . S
N430 C431 1.376 . S
N430 C434 1.383 . S
C431 N430 1.376 . S
C431 C432 1.446 . S
C431 C461 1.391 . S
C432 C431 1.446 . S
C432 C433 1.339 . S
C432 H467 0.949 . S
C433 C432 1.339 . S
C433 C434 1.439 . S
C433 H468 0.950 . S
C434 N430 1.383 . S
C434 C433 1.439 . S
C434 C463 1.392 . S
N435 Co429 2.008 . S
N435 C436 1.376 . S
N435 C439 1.374 . S
C436 N435 1.376 . S
C436 C437 1.443 . S
C436 C463 1.389 . S
C437 C436 1.443 . S
C437 C438 1.340 . S
C437 H469 0.951 . S
C438 C437 1.340 . S
C438 C439 1.439 . S
C438 H470 0.950 . S
C439 N435 1.374 . S
C439 C438 1.439 . S
C439 C464 1.395 . S
N440 Co429 1.995 . S
N440 C441 1.376 . S
N440 C444 1.383 . S
C441 N440 1.376 . S
C441 C442 1.446 . S
C441 C464 1.391 . S
C442 C441 1.446 . S
C442 C443 1.339 . S
C442 H471 0.949 . S
C443 C442 1.339 . S
C443 C444 1.439 . S
C443 H472 0.950 . S
C444 N440 1.383 . S
C444 C443 1.439 . S
C444 C462 1.392 . S
N445 Co429 2.282 . S
N445 C448 1.332 . S
N445 C450 1.332 . S
C446 C447 1.386 . S
C446 C449 1.388 . S
C447 C446 1.386 . S
C447 C448 1.382 . S
C447 H473 0.950 . S
C448 N445 1.332 . S
C448 C447 1.382 . S
C448 H459 0.952 . S
C449 C446 1.388 . S
C449 C450 1.382 . S
C449 H474 0.950 . S
C450 N445 1.332 . S
C450 C449 1.382 . S
C450 H460 0.948 . S
N451 Co429 2.282 . S
N451 C455 1.332 . S
N451 C456 1.332 . S
C452 C453 1.388 . S
C452 C456 1.382 . S
C452 H475 0.950 . S
C453 C452 1.388 . S
C453 C454 1.386 . S
C454 C453 1.386 . S
C454 C455 1.382 . S
C454 H476 0.950 . S
C455 N451 1.332 . S
C455 C454 1.382 . S
C455 H457 0.952 . S
C456 N451 1.332 . S
C456 C452 1.382 . S
C456 H458 0.948 . S
H457 C455 0.952 . S
H458 C456 0.948 . S
H459 C448 0.952 . S
H460 C450 0.948 . S
C461 C427 1.395 . S
C461 C431 1.391 . S
C462 C424 1.389 . S
C462 C444 1.392 . S
C463 C434 1.392 . S
C463 C436 1.389 . S
C464 C439 1.395 . S
C464 C441 1.391 . S
H465 C425 0.951 . S
H466 C426 0.950 . S
H467 C432 0.949 . S
H468 C433 0.950 . S
H469 C437 0.951 . S
H470 C438 0.950 . S
H471 C442 0.949 . S
H472 C443 0.950 . S
H473 C447 0.950 . S
H474 C449 0.950 . S
H475 C452 0.950 . S
H476 C454 0.950 . S
C477 C478 1.443 . S
C477 N481 1.376 . S
C477 C515 1.389 . S
C478 C477 1.443 . S
C478 C479 1.340 . S
C478 H518 0.951 . S
C479 C478 1.340 . S
C479 C480 1.439 . S
C479 H519 0.950 . S
C480 C479 1.439 . S
C480 N481 1.374 . S
C480 C514 1.395 . S
N481 C477 1.376 . S
N481 C480 1.374 . S
N481 Co482 2.008 . S
Co482 N481 2.008 . S
Co482 N483 1.995 . S
Co482 N488 2.008 . S
Co482 N493 1.995 . S
Co482 N498 2.282 . S
Co482 N504 2.282 . S
N483 Co482 1.995 . S
N483 C484 1.376 . S
N483 C487 1.383 . S
C484 N483 1.376 . S
C484 C485 1.446 . S
C484 C514 1.391 . S
C485 C484 1.446 . S
C485 C486 1.339 . S
C485 H520 0.949 . S
C486 C485 1.339 . S
C486 C487 1.439 . S
C486 H521 0.950 . S
C487 N483 1.383 . S
C487 C486 1.439 . S
C487 C516 1.392 . S
N488 Co482 2.008 . S
N488 C489 1.376 . S
N488 C492 1.374 . S
C489 N488 1.376 . S
C489 C490 1.443 . S
C489 C516 1.389 . S
C490 C489 1.443 . S
C490 C491 1.340 . S
C490 H522 0.951 . S
C491 C490 1.340 . S
C491 C492 1.439 . S
C491 H523 0.950 . S
C492 N488 1.374 . S
C492 C491 1.439 . S
C492 C517 1.395 . S
N493 Co482 1.995 . S
N493 C494 1.376 . S
N493 C497 1.383 . S
C494 N493 1.376 . S
C494 C495 1.446 . S
C494 C517 1.391 . S
C495 C494 1.446 . S
C495 C496 1.339 . S
C495 H524 0.949 . S
C496 C495 1.339 . S
C496 C497 1.439 . S
C496 H525 0.950 . S
C497 N493 1.383 . S
C497 C496 1.439 . S
C497 C515 1.392 . S
N498 Co482 2.282 . S
N498 C501 1.332 . S
N498 C503 1.332 . S
C499 C500 1.386 . S
C499 C502 1.388 . S
C500 C499 1.386 . S
C500 C501 1.382 . S
C500 H526 0.950 . S
C501 N498 1.332 . S
C501 C500 1.382 . S
C501 H512 0.952 . S
C502 C499 1.388 . S
C502 C503 1.382 . S
C502 H527 0.950 . S
C503 N498 1.332 . S
C503 C502 1.382 . S
C503 H513 0.948 . S
N504 Co482 2.282 . S
N504 C508 1.332 . S
N504 C509 1.332 . S
C505 C506 1.388 . S
C505 C509 1.382 . S
C505 H528 0.950 . S
C506 C505 1.388 . S
C506 C507 1.386 . S
C507 C506 1.386 . S
C507 C508 1.382 . S
C507 H529 0.950 . S
C508 N504 1.332 . S
C508 C507 1.382 . S
C508 H510 0.952 . S
C509 N504 1.332 . S
C509 C505 1.382 . S
C509 H511 0.948 . S
H510 C508 0.952 . S
H511 C509 0.948 . S
H512 C501 0.952 . S
H513 C503 0.948 . S
C514 C480 1.395 . S
C514 C484 1.391 . S
C515 C477 1.389 . S
C515 C497 1.392 . S
C516 C487 1.392 . S
C516 C489 1.389 . S
C517 C492 1.395 . S
C517 C494 1.391 . S
H518 C478 0.951 . S
H519 C479 0.950 . S
H520 C485 0.949 . S
H521 C486 0.950 . S
H522 C490 0.951 . S
H523 C491 0.950 . S
H524 C495 0.949 . S
H525 C496 0.950 . S
H526 C500 0.950 . S
H527 C502 0.950 . S
H528 C505 0.950 . S
H529 C507 0.950 . S
C530 C531 1.443 . S
C530 N534 1.376 . S
C530 C568 1.389 . S
C531 C530 1.443 . S
C531 C532 1.340 . S
C531 H571 0.951 . S
C532 C531 1.340 . S
C532 C533 1.439 . S
C532 H572 0.950 . S
C533 C532 1.439 . S
C533 N534 1.374 . S
C533 C567 1.395 . S
N534 C530 1.376 . S
N534 C533 1.374 . S
N534 Co535 2.008 . S
Co535 N534 2.008 . S
Co535 N536 1.995 . S
Co535 N541 2.008 . S
Co535 N546 1.995 . S
Co535 N551 2.282 . S
Co535 N557 2.282 . S
N536 Co535 1.995 . S
N536 C537 1.376 . S
N536 C540 1.383 . S
C537 N536 1.376 . S
C537 C538 1.446 . S
C537 C567 1.391 . S
C538 C537 1.446 . S
C538 C539 1.339 . S
C538 H573 0.949 . S
C539 C538 1.339 . S
C539 C540 1.439 . S
C539 H574 0.950 . S
C540 N536 1.383 . S
C540 C539 1.439 . S
C540 C569 1.392 . S
N541 Co535 2.008 . S
N541 C542 1.376 . S
N541 C545 1.374 . S
C542 N541 1.376 . S
C542 C543 1.443 . S
C542 C569 1.389 . S
C543 C542 1.443 . S
C543 C544 1.340 . S
C543 H575 0.951 . S
C544 C543 1.340 . S
C544 C545 1.439 . S
C544 H576 0.950 . S
C545 N541 1.374 . S
C545 C544 1.439 . S
C545 C570 1.395 . S
N546 Co535 1.995 . S
N546 C547 1.376 . S
N546 C550 1.383 . S
C547 N546 1.376 . S
C547 C548 1.446 . S
C547 C570 1.391 . S
C548 C547 1.446 . S
C548 C549 1.339 . S
C548 H577 0.949 . S
C549 C548 1.339 . S
C549 C550 1.439 . S
C549 H578 0.950 . S
C550 N546 1.383 . S
C550 C549 1.439 . S
C550 C568 1.392 . S
N551 Co535 2.282 . S
N551 C554 1.332 . S
N551 C556 1.332 . S
C552 C553 1.386 . S
C552 C555 1.388 . S
C553 C552 1.386 . S
C553 C554 1.382 . S
C553 H579 0.950 . S
C554 N551 1.332 . S
C554 C553 1.382 . S
C554 H565 0.952 . S
C555 C552 1.388 . S
C555 C556 1.382 . S
C555 H580 0.950 . S
C556 N551 1.332 . S
C556 C555 1.382 . S
C556 H566 0.948 . S
N557 Co535 2.282 . S
N557 C561 1.332 . S
N557 C562 1.332 . S
C558 C559 1.388 . S
C558 C562 1.382 . S
C558 H581 0.950 . S
C559 C558 1.388 . S
C559 C560 1.386 . S
C560 C559 1.386 . S
C560 C561 1.382 . S
C560 H582 0.950 . S
C561 N557 1.332 . S
C561 C560 1.382 . S
C561 H563 0.952 . S
C562 N557 1.332 . S
C562 C558 1.382 . S
C562 H564 0.948 . S
H563 C561 0.952 . S
H564 C562 0.948 . S
H565 C554 0.952 . S
H566 C556 0.948 . S
C567 C533 1.395 . S
C567 C537 1.391 . S
C568 C530 1.389 . S
C568 C550 1.392 . S
C569 C540 1.392 . S
C569 C542 1.389 . S
C570 C545 1.395 . S
C570 C547 1.391 . S
H571 C531 0.951 . S
H572 C532 0.950 . S
H573 C538 0.949 . S
H574 C539 0.950 . S
H575 C543 0.951 . S
H576 C544 0.950 . S
H577 C548 0.949 . S
H578 C549 0.950 . S
H579 C553 0.950 . S
H580 C555 0.950 . S
H581 C558 0.950 . S
H582 C560 0.950 . S
C583 C584 1.443 . S
C583 N587 1.376 . S
C583 C621 1.389 . S
C584 C583 1.443 . S
C584 C585 1.340 . S
C584 H624 0.951 . S
C585 C584 1.340 . S
C585 C586 1.439 . S
C585 H625 0.950 . S
C586 C585 1.439 . S
C586 N587 1.374 . S
C586 C620 1.395 . S
N587 C583 1.376 . S
N587 C586 1.374 . S
N587 Co588 2.008 . S
Co588 N587 2.008 . S
Co588 N589 1.995 . S
Co588 N594 2.008 . S
Co588 N599 1.995 . S
Co588 N604 2.282 . S
Co588 N610 2.282 . S
N589 Co588 1.995 . S
N589 C590 1.376 . S
N589 C593 1.383 . S
C590 N589 1.376 . S
C590 C591 1.446 . S
C590 C620 1.391 . S
C591 C590 1.446 . S
C591 C592 1.339 . S
C591 H626 0.949 . S
C592 C591 1.339 . S
C592 C593 1.439 . S
C592 H627 0.950 . S
C593 N589 1.383 . S
C593 C592 1.439 . S
C593 C622 1.392 . S
N594 Co588 2.008 . S
N594 C595 1.376 . S
N594 C598 1.374 . S
C595 N594 1.376 . S
C595 C596 1.443 . S
C595 C622 1.389 . S
C596 C595 1.443 . S
C596 C597 1.340 . S
C596 H628 0.951 . S
C597 C596 1.340 . S
C597 C598 1.439 . S
C597 H629 0.950 . S
C598 N594 1.374 . S
C598 C597 1.439 . S
C598 C623 1.395 . S
N599 Co588 1.995 . S
N599 C600 1.376 . S
N599 C603 1.383 . S
C600 N599 1.376 . S
C600 C601 1.446 . S
C600 C623 1.391 . S
C601 C600 1.446 . S
C601 C602 1.339 . S
C601 H630 0.949 . S
C602 C601 1.339 . S
C602 C603 1.439 . S
C602 H631 0.950 . S
C603 N599 1.383 . S
C603 C602 1.439 . S
C603 C621 1.392 . S
N604 Co588 2.282 . S
N604 C607 1.332 . S
N604 C609 1.332 . S
C605 C606 1.386 . S
C605 C608 1.388 . S
C606 C605 1.386 . S
C606 C607 1.382 . S
C606 H632 0.950 . S
C607 N604 1.332 . S
C607 C606 1.382 . S
C607 H618 0.952 . S
C608 C605 1.388 . S
C608 C609 1.382 . S
C608 H633 0.950 . S
C609 N604 1.332 . S
C609 C608 1.382 . S
C609 H619 0.948 . S
N610 Co588 2.282 . S
N610 C614 1.332 . S
N610 C615 1.332 . S
C611 C612 1.388 . S
C611 C615 1.382 . S
C611 H634 0.950 . S
C612 C611 1.388 . S
C612 C613 1.386 . S
C613 C612 1.386 . S
C613 C614 1.382 . S
C613 H635 0.950 . S
C614 N610 1.332 . S
C614 C613 1.382 . S
C614 H616 0.952 . S
C615 N610 1.332 . S
C615 C611 1.382 . S
C615 H617 0.948 . S
H616 C614 0.952 . S
H617 C615 0.948 . S
H618 C607 0.952 . S
H619 C609 0.948 . S
C620 C586 1.395 . S
C620 C590 1.391 . S
C621 C583 1.389 . S
C621 C603 1.392 . S
C622 C593 1.392 . S
C622 C595 1.389 . S
C623 C598 1.395 . S
C623 C600 1.391 . S
H624 C584 0.951 . S
H625 C585 0.950 . S
H626 C591 0.949 . S
H627 C592 0.950 . S
H628 C596 0.951 . S
H629 C597 0.950 . S
H630 C601 0.949 . S
H631 C602 0.950 . S
H632 C606 0.950 . S
H633 C608 0.950 . S
H634 C611 0.950 . S
H635 C613 0.950 . S
C636 C637 1.443 . S
C636 N640 1.376 . S
C636 C674 1.389 . S
C637 C636 1.443 . S
C637 C638 1.340 . S
C637 H677 0.951 . S
C638 C637 1.340 . S
C638 C639 1.439 . S
C638 H678 0.950 . S
C639 C638 1.439 . S
C639 N640 1.374 . S
C639 C673 1.395 . S
N640 C636 1.376 . S
N640 C639 1.374 . S
N640 Co641 2.008 . S
Co641 N640 2.008 . S
Co641 N642 1.995 . S
Co641 N647 2.008 . S
Co641 N652 1.995 . S
Co641 N657 2.282 . S
Co641 N663 2.282 . S
N642 Co641 1.995 . S
N642 C643 1.376 . S
N642 C646 1.383 . S
C643 N642 1.376 . S
C643 C644 1.446 . S
C643 C673 1.391 . S
C644 C643 1.446 . S
C644 C645 1.339 . S
C644 H679 0.949 . S
C645 C644 1.339 . S
C645 C646 1.439 . S
C645 H680 0.950 . S
C646 N642 1.383 . S
C646 C645 1.439 . S
C646 C675 1.392 . S
N647 Co641 2.008 . S
N647 C648 1.376 . S
N647 C651 1.374 . S
C648 N647 1.376 . S
C648 C649 1.443 . S
C648 C675 1.389 . S
C649 C648 1.443 . S
C649 C650 1.340 . S
C649 H681 0.951 . S
C650 C649 1.340 . S
C650 C651 1.439 . S
C650 H682 0.950 . S
C651 N647 1.374 . S
C651 C650 1.439 . S
C651 C676 1.395 . S
N652 Co641 1.995 . S
N652 C653 1.376 . S
N652 C656 1.383 . S
C653 N652 1.376 . S
C653 C654 1.446 . S
C653 C676 1.391 . S
C654 C653 1.446 . S
C654 C655 1.339 . S
C654 H683 0.949 . S
C655 C654 1.339 . S
C655 C656 1.439 . S
C655 H684 0.950 . S
C656 N652 1.383 . S
C656 C655 1.439 . S
C656 C674 1.392 . S
N657 Co641 2.282 . S
N657 C660 1.332 . S
N657 C662 1.332 . S
C658 C659 1.386 . S
C658 C661 1.388 . S
C659 C658 1.386 . S
C659 C660 1.382 . S
C659 H685 0.950 . S
C660 N657 1.332 . S
C660 C659 1.382 . S
C660 H671 0.952 . S
C661 C658 1.388 . S
C661 C662 1.382 . S
C661 H686 0.950 . S
C662 N657 1.332 . S
C662 C661 1.382 . S
C662 H672 0.948 . S
N663 Co641 2.282 . S
N663 C667 1.332 . S
N663 C668 1.332 . S
C664 C665 1.388 . S
C664 C668 1.382 . S
C664 H687 0.950 . S
C665 C664 1.388 . S
C665 C666 1.386 . S
C666 C665 1.386 . S
C666 C667 1.382 . S
C666 H688 0.950 . S
C667 N663 1.332 . S
C667 C666 1.382 . S
C667 H669 0.952 . S
C668 N663 1.332 . S
C668 C664 1.382 . S
C668 H670 0.948 . S
H669 C667 0.952 . S
H670 C668 0.948 . S
H671 C660 0.952 . S
H672 C662 0.948 . S
C673 C639 1.395 . S
C673 C643 1.391 . S
C674 C636 1.389 . S
C674 C656 1.392 . S
C675 C646 1.392 . S
C675 C648 1.389 . S
C676 C651 1.395 . S
C676 C653 1.391 . S
H677 C637 0.951 . S
H678 C638 0.950 . S
H679 C644 0.949 . S
H680 C645 0.950 . S
H681 C649 0.951 . S
H682 C650 0.950 . S
H683 C654 0.949 . S
H684 C655 0.950 . S
H685 C659 0.950 . S
H686 C661 0.950 . S
H687 C664 0.950 . S
H688 C666 0.950 . S
C689 C690 1.443 . S
C689 N693 1.376 . S
C689 C727 1.389 . S
C690 C689 1.443 . S
C690 C691 1.340 . S
C690 H730 0.951 . S
C691 C690 1.340 . S
C691 C692 1.439 . S
C691 H731 0.950 . S
C692 C691 1.439 . S
C692 N693 1.374 . S
C692 C726 1.395 . S
N693 C689 1.376 . S
N693 C692 1.374 . S
N693 Co694 2.008 . S
Co694 N693 2.008 . S
Co694 N695 1.995 . S
Co694 N700 2.008 . S
Co694 N705 1.995 . S
Co694 N710 2.282 . S
Co694 N716 2.282 . S
N695 Co694 1.995 . S
N695 C696 1.376 . S
N695 C699 1.383 . S
C696 N695 1.376 . S
C696 C697 1.446 . S
C696 C726 1.391 . S
C697 C696 1.446 . S
C697 C698 1.339 . S
C697 H732 0.949 . S
C698 C697 1.339 . S
C698 C699 1.439 . S
C698 H733 0.950 . S
C699 N695 1.383 . S
C699 C698 1.439 . S
C699 C728 1.392 . S
N700 Co694 2.008 . S
N700 C701 1.376 . S
N700 C704 1.374 . S
C701 N700 1.376 . S
C701 C702 1.443 . S
C701 C728 1.389 . S
C702 C701 1.443 . S
C702 C703 1.340 . S
C702 H734 0.951 . S
C703 C702 1.340 . S
C703 C704 1.439 . S
C703 H735 0.950 . S
C704 N700 1.374 . S
C704 C703 1.439 . S
C704 C729 1.395 . S
N705 Co694 1.995 . S
N705 C706 1.376 . S
N705 C709 1.383 . S
C706 N705 1.376 . S
C706 C707 1.446 . S
C706 C729 1.391 . S
C707 C706 1.446 . S
C707 C708 1.339 . S
C707 H736 0.949 . S
C708 C707 1.339 . S
C708 C709 1.439 . S
C708 H737 0.950 . S
C709 N705 1.383 . S
C709 C708 1.439 . S
C709 C727 1.392 . S
N710 Co694 2.282 . S
N710 C713 1.332 . S
N710 C715 1.332 . S
C711 C712 1.386 . S
C711 C714 1.388 . S
C712 C711 1.386 . S
C712 C713 1.382 . S
C712 H738 0.950 . S
C713 N710 1.332 . S
C713 C712 1.382 . S
C713 H724 0.952 . S
C714 C711 1.388 . S
C714 C715 1.382 . S
C714 H739 0.950 . S
C715 N710 1.332 . S
C715 C714 1.382 . S
C715 H725 0.948 . S
N716 Co694 2.282 . S
N716 C720 1.332 . S
N716 C721 1.332 . S
C717 C718 1.388 . S
C717 C721 1.382 . S
C717 H740 0.950 . S
C718 C717 1.388 . S
C718 C719 1.386 . S
C719 C718 1.386 . S
C719 C720 1.382 . S
C719 H741 0.950 . S
C720 N716 1.332 . S
C720 C719 1.382 . S
C720 H722 0.952 . S
C721 N716 1.332 . S
C721 C717 1.382 . S
C721 H723 0.948 . S
H722 C720 0.952 . S
H723 C721 0.948 . S
H724 C713 0.952 . S
H725 C715 0.948 . S
C726 C692 1.395 . S
C726 C696 1.391 . S
C727 C689 1.389 . S
C727 C709 1.392 . S
C728 C699 1.392 . S
C728 C701 1.389 . S
C729 C704 1.395 . S
C729 C706 1.391 . S
H730 C690 0.951 . S
H731 C691 0.950 . S
H732 C697 0.949 . S
H733 C698 0.950 . S
H734 C702 0.951 . S
H735 C703 0.950 . S
H736 C707 0.949 . S
H737 C708 0.950 . S
H738 C712 0.950 . S
H739 C714 0.950 . S
H740 C717 0.950 . S
H741 C719 0.950 . S
C742 C743 1.443 . S
C742 N746 1.376 . S
C742 C780 1.389 . S
C743 C742 1.443 . S
C743 C744 1.340 . S
C743 H783 0.951 . S
C744 C743 1.340 . S
C744 C745 1.439 . S
C744 H784 0.950 . S
C745 C744 1.439 . S
C745 N746 1.374 . S
C745 C779 1.395 . S
N746 C742 1.376 . S
N746 C745 1.374 . S
N746 Co747 2.008 . S
Co747 N746 2.008 . S
Co747 N748 1.995 . S
Co747 N753 2.008 . S
Co747 N758 1.995 . S
Co747 N763 2.282 . S
Co747 N769 2.282 . S
N748 Co747 1.995 . S
N748 C749 1.376 . S
N748 C752 1.383 . S
C749 N748 1.376 . S
C749 C750 1.446 . S
C749 C779 1.391 . S
C750 C749 1.446 . S
C750 C751 1.339 . S
C750 H785 0.949 . S
C751 C750 1.339 . S
C751 C752 1.439 . S
C751 H786 0.950 . S
C752 N748 1.383 . S
C752 C751 1.439 . S
C752 C781 1.392 . S
N753 Co747 2.008 . S
N753 C754 1.376 . S
N753 C757 1.374 . S
C754 N753 1.376 . S
C754 C755 1.443 . S
C754 C781 1.389 . S
C755 C754 1.443 . S
C755 C756 1.340 . S
C755 H787 0.951 . S
C756 C755 1.340 . S
C756 C757 1.439 . S
C756 H788 0.950 . S
C757 N753 1.374 . S
C757 C756 1.439 . S
C757 C782 1.395 . S
N758 Co747 1.995 . S
N758 C759 1.376 . S
N758 C762 1.383 . S
C759 N758 1.376 . S
C759 C760 1.446 . S
C759 C782 1.391 . S
C760 C759 1.446 . S
C760 C761 1.339 . S
C760 H789 0.949 . S
C761 C760 1.339 . S
C761 C762 1.439 . S
C761 H790 0.950 . S
C762 N758 1.383 . S
C762 C761 1.439 . S
C762 C780 1.392 . S
N763 Co747 2.282 . S
N763 C766 1.332 . S
N763 C768 1.332 . S
C764 C765 1.386 . S
C764 C767 1.388 . S
C765 C764 1.386 . S
C765 C766 1.382 . S
C765 H791 0.950 . S
C766 N763 1.332 . S
C766 C765 1.382 . S
C766 H777 0.952 . S
C767 C764 1.388 . S
C767 C768 1.382 . S
C767 H792 0.950 . S
C768 N763 1.332 . S
C768 C767 1.382 . S
C768 H778 0.948 . S
N769 Co747 2.282 . S
N769 C773 1.332 . S
N769 C774 1.332 . S
C770 C771 1.388 . S
C770 C774 1.382 . S
C770 H793 0.950 . S
C771 C770 1.388 . S
C771 C772 1.386 . S
C772 C771 1.386 . S
C772 C773 1.382 . S
C772 H794 0.950 . S
C773 N769 1.332 . S
C773 C772 1.382 . S
C773 H775 0.952 . S
C774 N769 1.332 . S
C774 C770 1.382 . S
C774 H776 0.948 . S
H775 C773 0.952 . S
H776 C774 0.948 . S
H777 C766 0.952 . S
H778 C768 0.948 . S
C779 C745 1.395 . S
C779 C749 1.391 . S
C780 C742 1.389 . S
C780 C762 1.392 . S
C781 C752 1.392 . S
C781 C754 1.389 . S
C782 C757 1.395 . S
C782 C759 1.391 . S
H783 C743 0.951 . S
H784 C744 0.950 . S
H785 C750 0.949 . S
H786 C751 0.950 . S
H787 C755 0.951 . S
H788 C756 0.950 . S
H789 C760 0.949 . S
H790 C761 0.950 . S
H791 C765 0.950 . S
H792 C767 0.950 . S
H793 C770 0.950 . S
H794 C772 0.950 . S
C795 C796 1.443 . S
C795 N799 1.376 . S
C795 C833 1.389 . S
C796 C795 1.443 . S
C796 C797 1.340 . S
C796 H836 0.951 . S
C797 C796 1.340 . S
C797 C798 1.439 . S
C797 H837 0.950 . S
C798 C797 1.439 . S
C798 N799 1.374 . S
C798 C832 1.395 . S
N799 C795 1.376 . S
N799 C798 1.374 . S
N799 Co800 2.008 . S
Co800 N799 2.008 . S
Co800 N801 1.995 . S
Co800 N806 2.008 . S
Co800 N811 1.995 . S
Co800 N816 2.282 . S
Co800 N822 2.282 . S
N801 Co800 1.995 . S
N801 C802 1.376 . S
N801 C805 1.383 . S
C802 N801 1.376 . S
C802 C803 1.446 . S
C802 C832 1.391 . S
C803 C802 1.446 . S
C803 C804 1.339 . S
C803 H838 0.949 . S
C804 C803 1.339 . S
C804 C805 1.439 . S
C804 H839 0.950 . S
C805 N801 1.383 . S
C805 C804 1.439 . S
C805 C834 1.392 . S
N806 Co800 2.008 . S
N806 C807 1.376 . S
N806 C810 1.374 . S
C807 N806 1.376 . S
C807 C808 1.443 . S
C807 C834 1.389 . S
C808 C807 1.443 . S
C808 C809 1.340 . S
C808 H840 0.951 . S
C809 C808 1.340 . S
C809 C810 1.439 . S
C809 H841 0.950 . S
C810 N806 1.374 . S
C810 C809 1.439 . S
C810 C835 1.395 . S
N811 Co800 1.995 . S
N811 C812 1.376 . S
N811 C815 1.383 . S
C812 N811 1.376 . S
C812 C813 1.446 . S
C812 C835 1.391 . S
C813 C812 1.446 . S
C813 C814 1.339 . S
C813 H842 0.949 . S
C814 C813 1.339 . S
C814 C815 1.439 . S
C814 H843 0.950 . S
C815 N811 1.383 . S
C815 C814 1.439 . S
C815 C833 1.392 . S
N816 Co800 2.282 . S
N816 C819 1.332 . S
N816 C821 1.332 . S
C817 C818 1.386 . S
C817 C820 1.388 . S
C818 C817 1.386 . S
C818 C819 1.382 . S
C818 H844 0.950 . S
C819 N816 1.332 . S
C819 C818 1.382 . S
C819 H830 0.952 . S
C820 C817 1.388 . S
C820 C821 1.382 . S
C820 H845 0.950 . S
C821 N816 1.332 . S
C821 C820 1.382 . S
C821 H831 0.948 . S
N822 Co800 2.282 . S
N822 C826 1.332 . S
N822 C827 1.332 . S
C823 C824 1.388 . S
C823 C827 1.382 . S
C823 H846 0.950 . S
C824 C823 1.388 . S
C824 C825 1.386 . S
C825 C824 1.386 . S
C825 C826 1.382 . S
C825 H847 0.950 . S
C826 N822 1.332 . S
C826 C825 1.382 . S
C826 H828 0.952 . S
C827 N822 1.332 . S
C827 C823 1.382 . S
C827 H829 0.948 . S
H828 C826 0.952 . S
H829 C827 0.948 . S
H830 C819 0.952 . S
H831 C821 0.948 . S
C832 C798 1.395 . S
C832 C802 1.391 . S
C833 C795 1.389 . S
C833 C815 1.392 . S
C834 C805 1.392 . S
C834 C807 1.389 . S
C835 C810 1.395 . S
C835 C812 1.391 . S
H836 C796 0.951 . S
H837 C797 0.950 . S
H838 C803 0.949 . S
H839 C804 0.950 . S
H840 C808 0.951 . S
H841 C809 0.950 . S
H842 C813 0.949 . S
H843 C814 0.950 . S
H844 C818 0.950 . S
H845 C820 0.950 . S
H846 C823 0.950 . S
H847 C825 0.950 . S
H848 C856 0.929 . S
H849 C858 0.930 . S
H850 C860 0.930 . S
H851 C863 0.929 . S
H852 C866 0.930 . S
H853 C868 1.015 . S
H854 C868 0.960 . S
H855 C868 0.960 . S
C856 H848 0.929 . S
C856 C857 1.377 . S
C856 C858 1.384 . S
C857 C856 1.377 . S
C857 C863 1.390 . S
C858 H849 0.930 . S
C858 C856 1.384 . S
C858 C859 1.372 . S
C859 C858 1.372 . S
C859 C860 1.400 . S
C859 C864 1.490 . S
C860 H850 0.930 . S
C860 C859 1.400 . S
C860 C863 1.386 . S
H861 C877 0.930 . S
H862 C878 0.931 . S
C863 H851 0.929 . S
C863 C857 1.390 . S
C863 C860 1.386 . S
C864 C859 1.490 . S
C864 C866 1.395 . S
C864 C867 1.403 . S
H865 C871 0.930 . S
C866 H852 0.930 . S
C866 C864 1.395 . S
C866 C869 1.403 1_556 S
C867 C864 1.403 . S
C867 C868 1.524 . S
C867 C871 1.400 1_556 S
C868 H853 1.015 . S
C868 H854 0.960 . S
C868 H855 0.960 . S
C868 C867 1.524 . S
C869 C866 1.403 1_554 S
C869 C870 1.392 . S
C869 C873 1.495 . S
C870 C869 1.392 . S
C870 C871 1.385 . S
C870 C872 1.478 . S
C871 H865 0.930 . S
C871 C867 1.400 1_554 S
C871 C870 1.385 . S
C872 C870 1.478 . S
C872 C874 1.381 . S
C872 C878 1.383 . S
C873 C869 1.495 . S
C873 H879 0.959 . S
C873 H880 0.961 . S
C873 H881 0.960 . S
C874 C872 1.381 . S
C874 C875 1.394 . S
C874 H882 0.930 . S
C875 C874 1.394 . S
C875 C876 1.383 . S
C875 H883 0.929 . S
C876 C875 1.383 . S
C876 C877 1.377 . S
C877 H861 0.930 . S
C877 C876 1.377 . S
C877 C878 1.379 . S
C878 H862 0.931 . S
C878 C872 1.383 . S
C878 C877 1.379 . S
H879 C873 0.959 . S
H880 C873 0.961 . S
H881 C873 0.960 . S
H882 C874 0.930 . S
H883 C875 0.929 . S
H884 C892 0.929 . S
H885 C894 0.930 . S
H886 C896 0.930 . S
H887 C899 0.929 . S
H888 C902 0.930 . S
H889 C904 0.960 . S
H890 C904 0.960 . S
H891 C904 0.960 . S
C892 H884 0.929 . S
C892 C893 1.377 . S
C892 C894 1.384 . S
C893 C892 1.377 . S
C893 C899 1.390 . S
C894 H885 0.930 . S
C894 C892 1.384 . S
C894 C895 1.372 . S
C895 C894 1.372 . S
C895 C896 1.400 . S
C895 C900 1.490 . S
C896 H886 0.930 . S
C896 C895 1.400 . S
C896 C899 1.386 . S
H897 C913 0.930 . S
H898 C914 0.931 . S
C899 H887 0.929 . S
C899 C893 1.390 . S
C899 C896 1.386 . S
C900 C895 1.490 . S
C900 C902 1.395 . S
C900 C903 1.403 . S
H901 C907 0.930 . S
C902 H888 0.930 . S
C902 C900 1.395 . S
C902 C905 1.403 . S
C903 C900 1.403 . S
C903 C904 1.524 . S
C903 C907 1.400 . S
C904 H889 0.960 . S
C904 H890 0.960 . S
C904 H891 0.960 . S
C904 C903 1.524 . S
C905 C902 1.403 . S
C905 C906 1.392 . S
C905 C909 1.495 . S
C906 C905 1.392 . S
C906 C907 1.385 . S
C906 C908 1.478 . S
C907 H901 0.930 . S
C907 C903 1.400 . S
C907 C906 1.385 . S
C908 C906 1.478 . S
C908 C910 1.381 . S
C908 C914 1.383 . S
C909 C905 1.495 . S
C909 H915 0.959 . S
C909 H916 0.961 . S
C909 H917 0.960 . S
C910 C908 1.381 . S
C910 C911 1.394 . S
C910 H918 0.930 . S
C911 C910 1.394 . S
C911 C912 1.383 . S
C911 H919 0.929 . S
C912 C911 1.383 . S
C912 C913 1.377 . S
C913 H897 0.930 . S
C913 C912 1.377 . S
C913 C914 1.379 . S
C914 H898 0.931 . S
C914 C908 1.383 . S
C914 C913 1.379 . S
H915 C909 0.959 . S
H916 C909 0.961 . S
H917 C909 0.960 . S
H918 C910 0.930 . S
H919 C911 0.929 . S
H920 C928 0.929 . S
H921 C930 0.930 . S
H922 C932 0.930 . S
H923 C935 0.929 . S
H924 C938 0.930 . S
H925 C940 0.960 . S
H926 C940 0.960 . S
H927 C940 0.960 . S
C928 H920 0.929 . S
C928 C929 1.377 . S
C928 C930 1.384 . S
C929 C928 1.377 . S
C929 C935 1.390 . S
C930 H921 0.930 . S
C930 C928 1.384 . S
C930 C931 1.372 . S
C931 C930 1.372 . S
C931 C932 1.400 . S
C931 C936 1.490 . S
C932 H922 0.930 . S
C932 C931 1.400 . S
C932 C935 1.386 . S
H933 C949 0.930 . S
H934 C950 0.931 . S
C935 H923 0.929 . S
C935 C929 1.390 . S
C935 C932 1.386 . S
C936 C931 1.490 . S
C936 C938 1.395 . S
C936 C939 1.403 . S
H937 C943 0.930 . S
C938 H924 0.930 . S
C938 C936 1.395 . S
C938 C941 1.403 1_556 S
C939 C936 1.403 . S
C939 C940 1.524 . S
C939 C943 1.400 1_556 S
C940 H925 0.960 . S
C940 H926 0.960 . S
C940 H927 0.960 . S
C940 C939 1.524 . S
C941 C938 1.403 1_554 S
C941 C942 1.392 . S
C941 C945 1.495 . S
C942 C941 1.392 . S
C942 C943 1.385 . S
C942 C944 1.478 . S
C943 H937 0.930 . S
C943 C939 1.400 1_554 S
C943 C942 1.385 . S
C944 C942 1.478 . S
C944 C946 1.381 . S
C944 C950 1.383 . S
C945 C941 1.495 . S
C945 H951 0.959 . S
C945 H952 0.961 . S
C945 H953 0.960 . S
C946 C944 1.381 . S
C946 C947 1.394 . S
C946 H954 0.930 . S
C947 C946 1.394 . S
C947 C948 1.383 . S
C947 H955 0.929 . S
C948 C947 1.383 . S
C948 C949 1.377 . S
C949 H933 0.930 . S
C949 C948 1.377 . S
C949 C950 1.379 . S
C950 H934 0.931 . S
C950 C944 1.383 . S
C950 C949 1.379 . S
H951 C945 0.959 . S
H952 C945 0.961 . S
H953 C945 0.960 . S
H954 C946 0.930 . S
H955 C947 0.929 . S
H956 C964 0.929 . S
H957 C966 0.930 . S
H958 C968 0.930 . S
H959 C971 0.929 . S
H960 C974 0.930 . S
H961 C976 0.960 . S
H962 C976 0.960 . S
H963 C976 0.960 . S
C964 H956 0.929 . S
C964 C965 1.377 . S
C964 C966 1.384 . S
C965 C964 1.377 . S
C965 C971 1.390 . S
C966 H957 0.930 . S
C966 C964 1.384 . S
C966 C967 1.372 . S
C967 C966 1.372 . S
C967 C968 1.400 . S
C967 C972 1.490 . S
C968 H958 0.930 . S
C968 C967 1.400 . S
C968 C971 1.386 . S
H969 C985 0.930 . S
H970 C986 0.931 . S
C971 H959 0.929 . S
C971 C965 1.390 . S
C971 C968 1.386 . S
C972 C967 1.490 . S
C972 C974 1.395 . S
C972 C975 1.403 . S
H973 C979 0.930 . S
C974 H960 0.930 . S
C974 C972 1.395 . S
C974 C977 1.403 . S
C975 C972 1.403 . S
C975 C976 1.524 . S
C975 C979 1.400 . S
C976 H961 0.960 . S
C976 H962 0.960 . S
C976 H963 0.960 . S
C976 C975 1.524 . S
C977 C974 1.403 . S
C977 C978 1.392 . S
C977 C981 1.495 . S
C978 C977 1.392 . S
C978 C979 1.385 . S
C978 C980 1.478 . S
C979 H973 0.930 . S
C979 C975 1.400 . S
C979 C978 1.385 . S
C980 C978 1.478 . S
C980 C982 1.381 . S
C980 C986 1.383 . S
C981 C977 1.495 . S
C981 H987 0.959 . S
C981 H988 0.961 . S
C981 H989 0.960 . S
C982 C980 1.381 . S
C982 C983 1.394 . S
C982 H990 0.930 . S
C983 C982 1.394 . S
C983 C984 1.383 . S
C983 H991 0.929 . S
C984 C983 1.383 . S
C984 C985 1.377 . S
C985 H969 0.930 . S
C985 C984 1.377 . S
C985 C986 1.379 . S
C986 H970 0.931 . S
C986 C980 1.383 . S
C986 C985 1.379 . S
H987 C981 0.959 . S
H988 C981 0.961 . S
H989 C981 0.960 . S
H990 C982 0.930 . S
H991 C983 0.929 . S
H992 C1000 0.929 . S
H993 C1002 0.930 . S
H994 C1004 0.930 . S
H995 C1007 0.929 . S
H996 C1010 0.930 . S
H997 C1012 0.927 1_556 S
H998 C1012 0.960 . S
H999 C1012 0.960 . S
C1000 H992 0.929 . S
C1000 C1001 1.377 . S
C1000 C1002 1.384 . S
C1001 C1000 1.377 . S
C1001 C1007 1.390 . S
C1002 H993 0.930 . S
C1002 C1000 1.384 . S
C1002 C1003 1.372 . S
C1003 C1002 1.372 . S
C1003 C1004 1.400 . S
C1003 C1008 1.490 . S
C1004 H994 0.930 . S
C1004 C1003 1.400 . S
C1004 C1007 1.386 . S
H1005 C1021 0.930 . S
H1006 C1022 0.931 . S
C1007 H995 0.929 . S
C1007 C1001 1.390 . S
C1007 C1004 1.386 . S
C1008 C1003 1.490 . S
C1008 C1010 1.395 . S
C1008 C1011 1.403 . S
H1009 C1015 0.930 . S
C1010 H996 0.930 . S
C1010 C1008 1.395 . S
C1010 C1013 1.403 1_554 S
C1011 C1008 1.403 . S
C1011 C1012 1.524 . S
C1011 C1015 1.400 1_554 S
C1012 H997 0.927 1_554 S
C1012 H998 0.960 . S
C1012 H999 0.960 . S
C1012 C1011 1.524 . S
C1013 C1010 1.403 1_556 S
C1013 C1014 1.392 . S
C1013 C1017 1.495 . S
C1014 C1013 1.392 . S
C1014 C1015 1.385 . S
C1014 C1016 1.478 . S
C1015 H1009 0.930 . S
C1015 C1011 1.400 1_556 S
C1015 C1014 1.385 . S
C1016 C1014 1.478 . S
C1016 C1018 1.381 . S
C1016 C1022 1.383 . S
C1017 C1013 1.495 . S
C1017 H1023 0.929 1_556 S
C1017 H1024 0.961 . S
C1017 H1025 0.960 . S
C1018 C1016 1.381 . S
C1018 C1019 1.394 . S
C1018 H1026 0.930 . S
C1019 C1018 1.394 . S
C1019 C1020 1.383 . S
C1019 H1027 0.929 . S
C1020 C1019 1.383 . S
C1020 C1021 1.377 . S
C1021 H1005 0.930 . S
C1021 C1020 1.377 . S
C1021 C1022 1.379 . S
C1022 H1006 0.931 . S
C1022 C1016 1.383 . S
C1022 C1021 1.379 . S
H1023 C1017 0.929 1_554 S
H1024 C1017 0.961 . S
H1025 C1017 0.960 . S
H1026 C1018 0.930 . S
H1027 C1019 0.929 . S
H1028 C1036 0.929 . S
H1029 C1038 0.930 . S
H1030 C1040 0.930 . S
H1031 C1043 0.929 . S
H1032 C1046 0.930 . S
H1033 C1048 0.960 . S
H1034 C1048 0.960 . S
H1035 C1048 0.960 . S
C1036 H1028 0.929 . S
C1036 C1037 1.377 . S
C1036 C1038 1.384 . S
C1037 C1036 1.377 . S
C1037 C1043 1.390 . S
C1038 H1029 0.930 . S
C1038 C1036 1.384 . S
C1038 C1039 1.372 . S
C1039 C1038 1.372 . S
C1039 C1040 1.400 . S
C1039 C1044 1.490 . S
C1040 H1030 0.930 . S
C1040 C1039 1.400 . S
C1040 C1043 1.386 . S
H1041 C1057 0.930 . S
H1042 C1058 0.931 . S
C1043 H1031 0.929 . S
C1043 C1037 1.390 . S
C1043 C1040 1.386 . S
C1044 C1039 1.490 . S
C1044 C1046 1.395 . S
C1044 C1047 1.403 . S
H1045 C1051 0.930 . S
C1046 H1032 0.930 . S
C1046 C1044 1.395 . S
C1046 C1049 1.403 . S
C1047 C1044 1.403 . S
C1047 C1048 1.524 . S
C1047 C1051 1.400 . S
C1048 H1033 0.960 . S
C1048 H1034 0.960 . S
C1048 H1035 0.960 . S
C1048 C1047 1.524 . S
C1049 C1046 1.403 . S
C1049 C1050 1.392 . S
C1049 C1053 1.495 . S
C1050 C1049 1.392 . S
C1050 C1051 1.385 . S
C1050 C1052 1.478 . S
C1051 H1045 0.930 . S
C1051 C1047 1.400 . S
C1051 C1050 1.385 . S
C1052 C1050 1.478 . S
C1052 C1054 1.381 . S
C1052 C1058 1.383 . S
C1053 C1049 1.495 . S
C1053 H1059 0.959 . S
C1053 H1060 0.961 . S
C1053 H1061 0.960 . S
C1054 C1052 1.381 . S
C1054 C1055 1.394 . S
C1054 H1062 0.930 . S
C1055 C1054 1.394 . S
C1055 C1056 1.383 . S
C1055 H1063 0.929 . S
C1056 C1055 1.383 . S
C1056 C1057 1.377 . S
C1057 H1041 0.930 . S
C1057 C1056 1.377 . S
C1057 C1058 1.379 . S
C1058 H1042 0.931 . S
C1058 C1052 1.383 . S
C1058 C1057 1.379 . S
H1059 C1053 0.959 . S
H1060 C1053 0.961 . S
H1061 C1053 0.960 . S
H1062 C1054 0.930 . S
H1063 C1055 0.929 . S
H1064 C1072 0.929 . S
H1065 C1074 0.930 . S
H1066 C1076 0.930 . S
H1067 C1079 0.929 . S
H1068 C1082 0.930 . S
H1069 C1084 0.960 . S
H1070 C1084 0.960 . S
H1071 C1084 0.960 . S
C1072 H1064 0.929 . S
C1072 C1073 1.377 . S
C1072 C1074 1.384 . S
C1073 C1072 1.377 . S
C1073 C1079 1.390 . S
C1074 H1065 0.930 . S
C1074 C1072 1.384 . S
C1074 C1075 1.372 . S
C1075 C1074 1.372 . S
C1075 C1076 1.400 . S
C1075 C1080 1.490 . S
C1076 H1066 0.930 . S
C1076 C1075 1.400 . S
C1076 C1079 1.386 . S
H1077 C1093 0.930 . S
H1078 C1094 0.931 . S
C1079 H1067 0.929 . S
C1079 C1073 1.390 . S
C1079 C1076 1.386 . S
C1080 C1075 1.490 . S
C1080 C1082 1.395 . S
C1080 C1083 1.403 . S
H1081 C1087 0.930 . S
C1082 H1068 0.930 . S
C1082 C1080 1.395 . S
C1082 C1085 1.403 1_556 S
C1083 C1080 1.403 . S
C1083 C1084 1.524 . S
C1083 C1087 1.400 1_556 S
C1084 H1069 0.960 . S
C1084 H1070 0.960 . S
C1084 H1071 0.960 . S
C1084 C1083 1.524 . S
C1085 C1082 1.403 1_554 S
C1085 C1086 1.392 . S
C1085 C1089 1.495 . S
C1086 C1085 1.392 . S
C1086 C1087 1.385 . S
C1086 C1088 1.478 . S
C1087 H1081 0.930 . S
C1087 C1083 1.400 1_554 S
C1087 C1086 1.385 . S
C1088 C1086 1.478 . S
C1088 C1090 1.381 . S
C1088 C1094 1.383 . S
C1089 C1085 1.495 . S
C1089 H1095 0.959 . S
C1089 H1096 0.961 . S
C1089 H1097 0.960 . S
C1090 C1088 1.381 . S
C1090 C1091 1.394 . S
C1090 H1098 0.930 . S
C1091 C1090 1.394 . S
C1091 C1092 1.383 . S
C1091 H1099 0.929 . S
C1092 C1091 1.383 . S
C1092 C1093 1.377 . S
C1093 H1077 0.930 . S
C1093 C1092 1.377 . S
C1093 C1094 1.379 . S
C1094 H1078 0.931 . S
C1094 C1088 1.383 . S
C1094 C1093 1.379 . S
H1095 C1089 0.959 . S
H1096 C1089 0.961 . S
H1097 C1089 0.960 . S
H1098 C1090 0.930 . S
H1099 C1091 0.929 . S
H1100 C1108 0.929 . S
H1101 C1110 0.930 . S
H1102 C1112 0.930 . S
H1103 C1115 0.929 . S
H1104 C1118 0.930 . S
H1105 C1120 0.960 . S
H1106 C1120 0.960 . S
H1107 C1120 0.960 . S
C1108 H1100 0.929 . S
C1108 C1109 1.377 . S
C1108 C1110 1.384 . S
C1109 C1108 1.377 . S
C1109 C1115 1.390 . S
C1110 H1101 0.930 . S
C1110 C1108 1.384 . S
C1110 C1111 1.372 . S
C1111 C1110 1.372 . S
C1111 C1112 1.400 . S
C1111 C1116 1.490 . S
C1112 H1102 0.930 . S
C1112 C1111 1.400 . S
C1112 C1115 1.386 . S
H1113 C1129 0.930 . S
H1114 C1130 0.931 . S
C1115 H1103 0.929 . S
C1115 C1109 1.390 . S
C1115 C1112 1.386 . S
C1116 C1111 1.490 . S
C1116 C1118 1.395 . S
C1116 C1119 1.403 . S
H1117 C1123 0.930 . S
C1118 H1104 0.930 . S
C1118 C1116 1.395 . S
C1118 C1121 1.403 . S
C1119 C1116 1.403 . S
C1119 C1120 1.524 . S
C1119 C1123 1.400 . S
C1120 H1105 0.960 . S
C1120 H1106 0.960 . S
C1120 H1107 0.960 . S
C1120 C1119 1.524 . S
C1121 C1118 1.403 . S
C1121 C1122 1.392 . S
C1121 C1125 1.495 . S
C1122 C1121 1.392 . S
C1122 C1123 1.385 . S
C1122 C1124 1.478 . S
C1123 H1117 0.930 . S
C1123 C1119 1.400 . S
C1123 C1122 1.385 . S
C1124 C1122 1.478 . S
C1124 C1126 1.381 . S
C1124 C1130 1.383 . S
C1125 C1121 1.495 . S
C1125 H1131 0.959 . S
C1125 H1132 0.961 . S
C1125 H1133 0.960 . S
C1126 C1124 1.381 . S
C1126 C1127 1.394 . S
C1126 H1134 0.930 . S
C1127 C1126 1.394 . S
C1127 C1128 1.383 . S
C1127 H1135 0.929 . S
C1128 C1127 1.383 . S
C1128 C1129 1.377 . S
C1129 H1113 0.930 . S
C1129 C1128 1.377 . S
C1129 C1130 1.379 . S
C1130 H1114 0.931 . S
C1130 C1124 1.383 . S
C1130 C1129 1.379 . S
H1131 C1125 0.959 . S
H1132 C1125 0.961 . S
H1133 C1125 0.960 . S
H1134 C1126 0.930 . S
H1135 C1127 0.929 . S
H1136 C1144 0.929 . S
H1137 C1146 0.930 . S
H1138 C1148 0.930 . S
H1139 C1151 0.929 . S
H1140 C1154 0.930 . S
H1141 C1156 0.960 . S
H1142 C1156 0.960 . S
H1143 C1156 0.960 . S
C1144 H1136 0.929 . S
C1144 C1145 1.377 . S
C1144 C1146 1.384 . S
C1145 C1144 1.377 . S
C1145 C1151 1.390 . S
C1146 H1137 0.930 . S
C1146 C1144 1.384 . S
C1146 C1147 1.372 . S
C1147 C1146 1.372 . S
C1147 C1148 1.400 . S
C1147 C1152 1.490 . S
C1148 H1138 0.930 . S
C1148 C1147 1.400 . S
C1148 C1151 1.386 . S
H1149 C1165 0.930 . S
H1150 C1166 0.931 . S
C1151 H1139 0.929 . S
C1151 C1145 1.390 . S
C1151 C1148 1.386 . S
C1152 C1147 1.490 . S
C1152 C1154 1.395 . S
C1152 C1155 1.403 . S
H1153 C1159 0.930 . S
C1154 H1140 0.930 . S
C1154 C1152 1.395 . S
C1154 C1157 1.403 . S
C1155 C1152 1.403 . S
C1155 C1156 1.524 . S
C1155 C1159 1.400 . S
C1156 H1141 0.960 . S
C1156 H1142 0.960 . S
C1156 H1143 0.960 . S
C1156 C1155 1.524 . S
C1157 C1154 1.403 . S
C1157 C1158 1.392 . S
C1157 C1161 1.495 . S
C1158 C1157 1.392 . S
C1158 C1159 1.385 . S
C1158 C1160 1.478 . S
C1159 H1153 0.930 . S
C1159 C1155 1.400 . S
C1159 C1158 1.385 . S
C1160 C1158 1.478 . S
C1160 C1162 1.381 . S
C1160 C1166 1.383 . S
C1161 C1157 1.495 . S
C1161 H1167 0.959 . S
C1161 H1168 0.961 . S
C1161 H1169 0.960 . S
C1162 C1160 1.381 . S
C1162 C1163 1.394 . S
C1162 H1170 0.930 . S
C1163 C1162 1.394 . S
C1163 C1164 1.383 . S
C1163 H1171 0.929 . S
C1164 C1163 1.383 . S
C1164 C1165 1.377 . S
C1165 H1149 0.930 . S
C1165 C1164 1.377 . S
C1165 C1166 1.379 . S
C1166 H1150 0.931 . S
C1166 C1160 1.383 . S
C1166 C1165 1.379 . S
H1167 C1161 0.959 . S
H1168 C1161 0.961 . S
H1169 C1161 0.960 . S
H1170 C1162 0.930 . S
H1171 C1163 0.929 . S
H1172 C1180 0.929 . S
H1173 C1182 0.930 . S
H1174 C1184 0.930 . S
H1175 C1187 0.929 . S
H1176 C1190 0.930 . S
H1177 C1192 0.960 . S
H1178 C1192 0.960 . S
H1179 C1192 0.960 . S
C1180 H1172 0.929 . S
C1180 C1181 1.377 . S
C1180 C1182 1.384 . S
C1181 C1180 1.377 . S
C1181 C1187 1.390 . S
C1182 H1173 0.930 . S
C1182 C1180 1.384 . S
C1182 C1183 1.372 . S
C1183 C1182 1.372 . S
C1183 C1184 1.400 . S
C1183 C1188 1.490 . S
C1184 H1174 0.930 . S
C1184 C1183 1.400 . S
C1184 C1187 1.386 . S
H1185 C1201 0.930 . S
H1186 C1202 0.931 . S
C1187 H1175 0.929 . S
C1187 C1181 1.390 . S
C1187 C1184 1.386 . S
C1188 C1183 1.490 . S
C1188 C1190 1.395 . S
C1188 C1191 1.403 . S
H1189 C1195 0.930 . S
C1190 H1176 0.930 . S
C1190 C1188 1.395 . S
C1190 C1193 1.403 . S
C1191 C1188 1.403 . S
C1191 C1192 1.524 . S
C1191 C1195 1.400 . S
C1192 H1177 0.960 . S
C1192 H1178 0.960 . S
C1192 H1179 0.960 . S
C1192 C1191 1.524 . S
C1193 C1190 1.403 . S
C1193 C1194 1.392 . S
C1193 C1197 1.495 . S
C1194 C1193 1.392 . S
C1194 C1195 1.385 . S
C1194 C1196 1.478 . S
C1195 H1189 0.930 . S
C1195 C1191 1.400 . S
C1195 C1194 1.385 . S
C1196 C1194 1.478 . S
C1196 C1198 1.381 . S
C1196 C1202 1.383 . S
C1197 C1193 1.495 . S
C1197 H1203 0.959 . S
C1197 H1204 0.961 . S
C1197 H1205 0.960 . S
C1198 C1196 1.381 . S
C1198 C1199 1.394 . S
C1198 H1206 0.930 . S
C1199 C1198 1.394 . S
C1199 C1200 1.383 . S
C1199 H1207 0.929 . S
C1200 C1199 1.383 . S
C1200 C1201 1.377 . S
C1201 H1185 0.930 . S
C1201 C1200 1.377 . S
C1201 C1202 1.379 . S
C1202 H1186 0.931 . S
C1202 C1196 1.383 . S
C1202 C1201 1.379 . S
H1203 C1197 0.959 . S
H1204 C1197 0.961 . S
H1205 C1197 0.960 . S
H1206 C1198 0.930 . S
H1207 C1199 0.929 . S
H1208 C1216 0.929 . S
H1209 C1218 0.930 . S
H1210 C1220 0.930 . S
H1211 C1223 0.929 . S
H1212 C1226 0.930 . S
H1213 C1228 0.960 . S
H1214 C1228 0.960 . S
H1215 C1228 0.960 . S
C1216 H1208 0.929 . S
C1216 C1217 1.377 . S
C1216 C1218 1.384 . S
C1217 C1216 1.377 . S
C1217 C1223 1.390 . S
C1218 H1209 0.930 . S
C1218 C1216 1.384 . S
C1218 C1219 1.372 . S
C1219 C1218 1.372 . S
C1219 C1220 1.400 . S
C1219 C1224 1.490 . S
C1220 H1210 0.930 . S
C1220 C1219 1.400 . S
C1220 C1223 1.386 . S
H1221 C1237 0.930 . S
H1222 C1238 0.931 . S
C1223 H1211 0.929 . S
C1223 C1217 1.390 . S
C1223 C1220 1.386 . S
C1224 C1219 1.490 . S
C1224 C1226 1.395 . S
C1224 C1227 1.403 . S
H1225 C1231 0.930 . S
C1226 H1212 0.930 . S
C1226 C1224 1.395 . S
C1226 C1229 1.403 . S
C1227 C1224 1.403 . S
C1227 C1228 1.524 . S
C1227 C1231 1.400 . S
C1228 H1213 0.960 . S
C1228 H1214 0.960 . S
C1228 H1215 0.960 . S
C1228 C1227 1.524 . S
C1229 C1226 1.403 . S
C1229 C1230 1.392 . S
C1229 C1233 1.495 . S
C1230 C1229 1.392 . S
C1230 C1231 1.385 . S
C1230 C1232 1.478 . S
C1231 H1225 0.930 . S
C1231 C1227 1.400 . S
C1231 C1230 1.385 . S
C1232 C1230 1.478 . S
C1232 C1234 1.381 . S
C1232 C1238 1.383 . S
C1233 C1229 1.495 . S
C1233 H1239 0.959 . S
C1233 H1240 0.961 . S
C1233 H1241 0.960 . S
C1234 C1232 1.381 . S
C1234 C1235 1.394 . S
C1234 H1242 0.930 . S
C1235 C1234 1.394 . S
C1235 C1236 1.383 . S
C1235 H1243 0.929 . S
C1236 C1235 1.383 . S
C1236 C1237 1.377 . S
C1237 H1221 0.930 . S
C1237 C1236 1.377 . S
C1237 C1238 1.379 . S
C1238 H1222 0.931 . S
C1238 C1232 1.383 . S
C1238 C1237 1.379 . S
H1239 C1233 0.959 . S
H1240 C1233 0.961 . S
H1241 C1233 0.960 . S
H1242 C1234 0.930 . S
H1243 C1235 0.929 . S
H1244 C1252 0.929 . S
H1245 C1254 0.930 . S
H1246 C1256 0.930 . S
H1247 C1259 0.929 . S
H1248 C1262 0.930 . S
H1249 C1264 0.960 . S
H1250 C1264 0.960 . S
H1251 C1264 0.960 . S
C1252 H1244 0.929 . S
C1252 C1253 1.377 . S
C1252 C1254 1.384 . S
C1253 C1252 1.377 . S
C1253 C1259 1.390 . S
C1254 H1245 0.930 . S
C1254 C1252 1.384 . S
C1254 C1255 1.372 . S
C1255 C1254 1.372 . S
C1255 C1256 1.400 . S
C1255 C1260 1.490 . S
C1256 H1246 0.930 . S
C1256 C1255 1.400 . S
C1256 C1259 1.386 . S
H1257 C1273 0.930 . S
H1258 C1274 0.931 . S
C1259 H1247 0.929 . S
C1259 C1253 1.390 . S
C1259 C1256 1.386 . S
C1260 C1255 1.490 . S
C1260 C1262 1.395 . S
C1260 C1263 1.403 . S
H1261 C1267 0.930 . S
C1262 H1248 0.930 . S
C1262 C1260 1.395 . S
C1262 C1265 1.403 . S
C1263 C1260 1.403 . S
C1263 C1264 1.524 . S
C1263 C1267 1.400 . S
C1264 H1249 0.960 . S
C1264 H1250 0.960 . S
C1264 H1251 0.960 . S
C1264 C1263 1.524 . S
C1265 C1262 1.403 . S
C1265 C1266 1.392 . S
C1265 C1269 1.495 . S
C1266 C1265 1.392 . S
C1266 C1267 1.385 . S
C1266 C1268 1.478 . S
C1267 H1261 0.930 . S
C1267 C1263 1.400 . S
C1267 C1266 1.385 . S
C1268 C1266 1.478 . S
C1268 C1270 1.381 . S
C1268 C1274 1.383 . S
C1269 C1265 1.495 . S
C1269 H1275 0.959 . S
C1269 H1276 0.961 . S
C1269 H1277 0.960 . S
C1270 C1268 1.381 . S
C1270 C1271 1.394 . S
C1270 H1278 0.930 . S
C1271 C1270 1.394 . S
C1271 C1272 1.383 . S
C1271 H1279 0.929 . S
C1272 C1271 1.383 . S
C1272 C1273 1.377 . S
C1273 H1257 0.930 . S
C1273 C1272 1.377 . S
C1273 C1274 1.379 . S
C1274 H1258 0.931 . S
C1274 C1268 1.383 . S
C1274 C1273 1.379 . S
H1275 C1269 0.959 . S
H1276 C1269 0.961 . S
H1277 C1269 0.960 . S
H1278 C1270 0.930 . S
H1279 C1271 0.929 . S
H1280 C1288 0.929 . S
H1281 C1290 0.930 . S
H1282 C1292 0.930 . S
H1283 C1295 0.929 . S
H1284 C1298 0.930 . S
H1285 C1300 0.960 . S
H1286 C1300 0.960 . S
H1287 C1300 0.960 . S
C1288 H1280 0.929 . S
C1288 C1289 1.377 . S
C1288 C1290 1.384 . S
C1289 C1288 1.377 . S
C1289 C1295 1.390 . S
C1290 H1281 0.930 . S
C1290 C1288 1.384 . S
C1290 C1291 1.372 . S
C1291 C1290 1.372 . S
C1291 C1292 1.400 . S
C1291 C1296 1.490 . S
C1292 H1282 0.930 . S
C1292 C1291 1.400 . S
C1292 C1295 1.386 . S
H1293 C1309 0.930 . S
H1294 C1310 0.931 . S
C1295 H1283 0.929 . S
C1295 C1289 1.390 . S
C1295 C1292 1.386 . S
C1296 C1291 1.490 . S
C1296 C1298 1.395 . S
C1296 C1299 1.403 . S
H1297 C1303 0.930 . S
C1298 H1284 0.930 . S
C1298 C1296 1.395 . S
C1298 C1301 1.403 . S
C1299 C1296 1.403 . S
C1299 C1300 1.524 . S
C1299 C1303 1.400 . S
C1300 H1285 0.960 . S
C1300 H1286 0.960 . S
C1300 H1287 0.960 . S
C1300 C1299 1.524 . S
C1301 C1298 1.403 . S
C1301 C1302 1.392 . S
C1301 C1305 1.495 . S
C1302 C1301 1.392 . S
C1302 C1303 1.385 . S
C1302 C1304 1.478 . S
C1303 H1297 0.930 . S
C1303 C1299 1.400 . S
C1303 C1302 1.385 . S
C1304 C1302 1.478 . S
C1304 C1306 1.381 . S
C1304 C1310 1.383 . S
C1305 C1301 1.495 . S
C1305 H1311 0.959 . S
C1305 H1312 0.961 . S
C1305 H1313 0.960 . S
C1306 C1304 1.381 . S
C1306 C1307 1.394 . S
C1306 H1314 0.930 . S
C1307 C1306 1.394 . S
C1307 C1308 1.383 . S
C1307 H1315 0.929 . S
C1308 C1307 1.383 . S
C1308 C1309 1.377 . S
C1309 H1293 0.930 . S
C1309 C1308 1.377 . S
C1309 C1310 1.379 . S
C1310 H1294 0.931 . S
C1310 C1304 1.383 . S
C1310 C1309 1.379 . S
H1311 C1305 0.959 . S
H1312 C1305 0.961 . S
H1313 C1305 0.960 . S
H1314 C1306 0.930 . S
H1315 C1307 0.929 . S
H1316 C1324 0.929 . S
H1317 C1326 0.930 . S
H1318 C1328 0.930 . S
H1319 C1331 0.929 . S
H1320 C1334 0.930 . S
H1321 C1336 0.960 . S
H1322 C1336 0.960 . S
H1323 C1336 0.960 . S
C1324 H1316 0.929 . S
C1324 C1325 1.377 . S
C1324 C1326 1.384 . S
C1325 C1324 1.377 . S
C1325 C1331 1.390 . S
C1326 H1317 0.930 . S
C1326 C1324 1.384 . S
C1326 C1327 1.372 . S
C1327 C1326 1.372 . S
C1327 C1328 1.400 . S
C1327 C1332 1.490 . S
C1328 H1318 0.930 . S
C1328 C1327 1.400 . S
C1328 C1331 1.386 . S
H1329 C1345 0.930 . S
H1330 C1346 0.931 . S
C1331 H1319 0.929 . S
C1331 C1325 1.390 . S
C1331 C1328 1.386 . S
C1332 C1327 1.490 . S
C1332 C1334 1.395 . S
C1332 C1335 1.403 . S
H1333 C1339 0.930 . S
C1334 H1320 0.930 . S
C1334 C1332 1.395 . S
C1334 C1337 1.403 . S
C1335 C1332 1.403 . S
C1335 C1336 1.524 . S
C1335 C1339 1.400 . S
C1336 H1321 0.960 . S
C1336 H1322 0.960 . S
C1336 H1323 0.960 . S
C1336 C1335 1.524 . S
C1337 C1334 1.403 . S
C1337 C1338 1.392 . S
C1337 C1341 1.495 . S
C1338 C1337 1.392 . S
C1338 C1339 1.385 . S
C1338 C1340 1.478 . S
C1339 H1333 0.930 . S
C1339 C1335 1.400 . S
C1339 C1338 1.385 . S
C1340 C1338 1.478 . S
C1340 C1342 1.381 . S
C1340 C1346 1.383 . S
C1341 C1337 1.495 . S
C1341 H1347 0.959 . S
C1341 H1348 0.961 . S
C1341 H1349 0.960 . S
C1342 C1340 1.381 . S
C1342 C1343 1.394 . S
C1342 H1350 0.930 . S
C1343 C1342 1.394 . S
C1343 C1344 1.383 . S
C1343 H1351 0.929 . S
C1344 C1343 1.383 . S
C1344 C1345 1.377 . S
C1345 H1329 0.930 . S
C1345 C1344 1.377 . S
C1345 C1346 1.379 . S
C1346 H1330 0.931 . S
C1346 C1340 1.383 . S
C1346 C1345 1.379 . S
H1347 C1341 0.959 . S
H1348 C1341 0.961 . S
H1349 C1341 0.960 . S
H1350 C1342 0.930 . S
H1351 C1343 0.929 . S
H1352 C1360 0.929 . S
H1353 C1362 0.930 . S
H1354 C1364 0.930 . S
H1355 C1367 0.929 . S
H1356 C1370 0.930 . S
H1357 C1372 0.960 . S
H1358 C1372 0.960 . S
H1359 C1372 0.960 . S
C1360 H1352 0.929 . S
C1360 C1361 1.377 . S
C1360 C1362 1.384 . S
C1361 C1360 1.377 . S
C1361 C1367 1.390 . S
C1362 H1353 0.930 . S
C1362 C1360 1.384 . S
C1362 C1363 1.372 . S
C1363 C1362 1.372 . S
C1363 C1364 1.400 . S
C1363 C1368 1.490 . S
C1364 H1354 0.930 . S
C1364 C1363 1.400 . S
C1364 C1367 1.386 . S
H1365 C1381 0.930 . S
H1366 C1382 0.931 . S
C1367 H1355 0.929 . S
C1367 C1361 1.390 . S
C1367 C1364 1.386 . S
C1368 C1363 1.490 . S
C1368 C1370 1.395 . S
C1368 C1371 1.403 . S
H1369 C1375 0.930 . S
C1370 H1356 0.930 . S
C1370 C1368 1.395 . S
C1370 C1373 1.403 . S
C1371 C1368 1.403 . S
C1371 C1372 1.524 . S
C1371 C1375 1.400 . S
C1372 H1357 0.960 . S
C1372 H1358 0.960 . S
C1372 H1359 0.960 . S
C1372 C1371 1.524 . S
C1373 C1370 1.403 . S
C1373 C1374 1.392 . S
C1373 C1377 1.495 . S
C1374 C1373 1.392 . S
C1374 C1375 1.385 . S
C1374 C1376 1.478 . S
C1375 H1369 0.930 . S
C1375 C1371 1.400 . S
C1375 C1374 1.385 . S
C1376 C1374 1.478 . S
C1376 C1378 1.381 . S
C1376 C1382 1.383 . S
C1377 C1373 1.495 . S
C1377 H1383 0.959 . S
C1377 H1384 0.961 . S
C1377 H1385 0.960 . S
C1378 C1376 1.381 . S
C1378 C1379 1.394 . S
C1378 H1386 0.930 . S
C1379 C1378 1.394 . S
C1379 C1380 1.383 . S
C1379 H1387 0.929 . S
C1380 C1379 1.383 . S
C1380 C1381 1.377 . S
C1381 H1365 0.930 . S
C1381 C1380 1.377 . S
C1381 C1382 1.379 . S
C1382 H1366 0.931 . S
C1382 C1376 1.383 . S
C1382 C1381 1.379 . S
H1383 C1377 0.959 . S
H1384 C1377 0.961 . S
H1385 C1377 0.960 . S
H1386 C1378 0.930 . S
H1387 C1379 0.929 . S
H1388 C1396 0.929 . S
H1389 C1398 0.930 . S
H1390 C1400 0.930 . S
H1391 C1403 0.929 . S
H1392 C1406 0.930 . S
H1393 C1408 0.960 . S
H1394 C1408 0.960 . S
H1395 C1408 0.960 . S
C1396 H1388 0.929 . S
C1396 C1397 1.377 . S
C1396 C1398 1.384 . S
C1397 C1396 1.377 . S
C1397 C1403 1.390 . S
C1398 H1389 0.930 . S
C1398 C1396 1.384 . S
C1398 C1399 1.372 . S
C1399 C1398 1.372 . S
C1399 C1400 1.400 . S
C1399 C1404 1.490 . S
C1400 H1390 0.930 . S
C1400 C1399 1.400 . S
C1400 C1403 1.386 . S
H1401 C1417 0.930 . S
H1402 C1418 0.931 . S
C1403 H1391 0.929 . S
C1403 C1397 1.390 . S
C1403 C1400 1.386 . S
C1404 C1399 1.490 . S
C1404 C1406 1.395 . S
C1404 C1407 1.403 . S
H1405 C1411 0.930 . S
C1406 H1392 0.930 . S
C1406 C1404 1.395 . S
C1406 C1409 1.403 . S
C1407 C1404 1.403 . S
C1407 C1408 1.524 . S
C1407 C1411 1.400 . S
C1408 H1393 0.960 . S
C1408 H1394 0.960 . S
C1408 H1395 0.960 . S
C1408 C1407 1.524 . S
C1409 C1406 1.403 . S
C1409 C1410 1.392 . S
C1409 C1413 1.495 . S
C1410 C1409 1.392 . S
C1410 C1411 1.385 . S
C1410 C1412 1.478 . S
C1411 H1405 0.930 . S
C1411 C1407 1.400 . S
C1411 C1410 1.385 . S
C1412 C1410 1.478 . S
C1412 C1414 1.381 . S
C1412 C1418 1.383 . S
C1413 C1409 1.495 . S
C1413 H1419 0.959 . S
C1413 H1420 0.961 . S
C1413 H1421 0.960 . S
C1414 C1412 1.381 . S
C1414 C1415 1.394 . S
C1414 H1422 0.930 . S
C1415 C1414 1.394 . S
C1415 C1416 1.383 . S
C1415 H1423 0.929 . S
C1416 C1415 1.383 . S
C1416 C1417 1.377 . S
C1417 H1401 0.930 . S
C1417 C1416 1.377 . S
C1417 C1418 1.379 . S
C1418 H1402 0.931 . S
C1418 C1412 1.383 . S
C1418 C1417 1.379 . S
H1419 C1413 0.959 . S
H1420 C1413 0.961 . S
H1421 C1413 0.960 . S
H1422 C1414 0.930 . S
H1423 C1415 0.929 . S
H1424 C1432 0.929 . S
H1425 C1434 0.930 . S
H1426 C1436 0.930 . S
H1427 C1439 0.929 . S
H1428 C1442 0.930 . S
H1429 C1444 0.960 . S
H1430 C1444 0.960 . S
H1431 C1444 0.960 . S
C1432 H1424 0.929 . S
C1432 C1433 1.377 . S
C1432 C1434 1.384 . S
C1433 C1432 1.377 . S
C1433 C1439 1.390 . S
C1434 H1425 0.930 . S
C1434 C1432 1.384 . S
C1434 C1435 1.372 . S
C1435 C1434 1.372 . S
C1435 C1436 1.400 . S
C1435 C1440 1.490 . S
C1436 H1426 0.930 . S
C1436 C1435 1.400 . S
C1436 C1439 1.386 . S
H1437 C1453 0.930 . S
H1438 C1454 0.931 . S
C1439 H1427 0.929 . S
C1439 C1433 1.390 . S
C1439 C1436 1.386 . S
C1440 C1435 1.490 . S
C1440 C1442 1.395 . S
C1440 C1443 1.403 . S
H1441 C1447 0.930 . S
C1442 H1428 0.930 . S
C1442 C1440 1.395 . S
C1442 C1445 1.403 . S
C1443 C1440 1.403 . S
C1443 C1444 1.524 . S
C1443 C1447 1.400 . S
C1444 H1429 0.960 . S
C1444 H1430 0.960 . S
C1444 H1431 0.960 . S
C1444 C1443 1.524 . S
C1445 C1442 1.403 . S
C1445 C1446 1.392 . S
C1445 C1449 1.495 . S
C1446 C1445 1.392 . S
C1446 C1447 1.385 . S
C1446 C1448 1.478 . S
C1447 H1441 0.930 . S
C1447 C1443 1.400 . S
C1447 C1446 1.385 . S
C1448 C1446 1.478 . S
C1448 C1450 1.381 . S
C1448 C1454 1.383 . S
C1449 C1445 1.495 . S
C1449 H1455 0.959 . S
C1449 H1456 0.961 . S
C1449 H1457 0.960 . S
C1450 C1448 1.381 . S
C1450 C1451 1.394 . S
C1450 H1458 0.930 . S
C1451 C1450 1.394 . S
C1451 C1452 1.383 . S
C1451 H1459 0.929 . S
C1452 C1451 1.383 . S
C1452 C1453 1.377 . S
C1453 H1437 0.930 . S
C1453 C1452 1.377 . S
C1453 C1454 1.379 . S
C1454 H1438 0.931 . S
C1454 C1448 1.383 . S
C1454 C1453 1.379 . S
H1455 C1449 0.959 . S
H1456 C1449 0.961 . S
H1457 C1449 0.960 . S
H1458 C1450 0.930 . S
H1459 C1451 0.929 . S
H1460 C1468 0.929 . S
H1461 C1470 0.930 . S
H1462 C1472 0.930 . S
H1463 C1475 0.929 . S
H1464 C1478 0.930 . S
H1465 C1480 0.960 . S
H1466 C1480 0.960 . S
H1467 C1480 0.960 . S
C1468 H1460 0.929 . S
C1468 C1469 1.377 . S
C1468 C1470 1.384 . S
C1469 C1468 1.377 . S
C1469 C1475 1.390 . S
C1470 H1461 0.930 . S
C1470 C1468 1.384 . S
C1470 C1471 1.372 . S
C1471 C1470 1.372 . S
C1471 C1472 1.400 . S
C1471 C1476 1.490 . S
C1472 H1462 0.930 . S
C1472 C1471 1.400 . S
C1472 C1475 1.386 . S
H1473 C1489 0.930 . S
H1474 C1490 0.931 . S
C1475 H1463 0.929 . S
C1475 C1469 1.390 . S
C1475 C1472 1.386 . S
C1476 C1471 1.490 . S
C1476 C1478 1.395 . S
C1476 C1479 1.403 . S
H1477 C1483 0.930 . S
C1478 H1464 0.930 . S
C1478 C1476 1.395 . S
C1478 C1481 1.403 . S
C1479 C1476 1.403 . S
C1479 C1480 1.524 . S
C1479 C1483 1.400 . S
C1480 H1465 0.960 . S
C1480 H1466 0.960 . S
C1480 H1467 0.960 . S
C1480 C1479 1.524 . S
C1481 C1478 1.403 . S
C1481 C1482 1.392 . S
C1481 C1485 1.495 . S
C1482 C1481 1.392 . S
C1482 C1483 1.385 . S
C1482 C1484 1.478 . S
C1483 H1477 0.930 . S
C1483 C1479 1.400 . S
C1483 C1482 1.385 . S
C1484 C1482 1.478 . S
C1484 C1486 1.381 . S
C1484 C1490 1.383 . S
C1485 C1481 1.495 . S
C1485 H1491 0.959 . S
C1485 H1492 0.961 . S
C1485 H1493 0.960 . S
C1486 C1484 1.381 . S
C1486 C1487 1.394 . S
C1486 H1494 0.930 . S
C1487 C1486 1.394 . S
C1487 C1488 1.383 . S
C1487 H1495 0.929 . S
C1488 C1487 1.383 . S
C1488 C1489 1.377 . S
C1489 H1473 0.930 . S
C1489 C1488 1.377 . S
C1489 C1490 1.379 . S
C1490 H1474 0.931 . S
C1490 C1484 1.383 . S
C1490 C1489 1.379 . S
H1491 C1485 0.959 . S
H1492 C1485 0.961 . S
H1493 C1485 0.960 . S
H1494 C1486 0.930 . S
H1495 C1487 0.929 . S
H1496 C1504 0.929 . S
H1497 C1506 0.930 . S
H1498 C1508 0.930 . S
H1499 C1511 0.929 . S
H1500 C1514 0.930 . S
H1501 C1516 0.960 . S
H1502 C1516 0.960 . S
H1503 C1516 0.960 . S
C1504 H1496 0.929 . S
C1504 C1505 1.377 . S
C1504 C1506 1.384 . S
C1505 C1504 1.377 . S
C1505 C1511 1.390 . S
C1506 H1497 0.930 . S
C1506 C1504 1.384 . S
C1506 C1507 1.372 . S
C1507 C1506 1.372 . S
C1507 C1508 1.400 . S
C1507 C1512 1.490 . S
C1508 H1498 0.930 . S
C1508 C1507 1.400 . S
C1508 C1511 1.386 . S
H1509 C1525 0.930 . S
H1510 C1526 0.931 . S
C1511 H1499 0.929 . S
C1511 C1505 1.390 . S
C1511 C1508 1.386 . S
C1512 C1507 1.490 . S
C1512 C1514 1.395 . S
C1512 C1515 1.403 . S
H1513 C1519 0.930 . S
C1514 H1500 0.930 . S
C1514 C1512 1.395 . S
C1514 C1517 1.403 . S
C1515 C1512 1.403 . S
C1515 C1516 1.524 . S
C1515 C1519 1.400 . S
C1516 H1501 0.960 . S
C1516 H1502 0.960 . S
C1516 H1503 0.960 . S
C1516 C1515 1.524 . S
C1517 C1514 1.403 . S
C1517 C1518 1.392 . S
C1517 C1521 1.495 . S
C1518 C1517 1.392 . S
C1518 C1519 1.385 . S
C1518 C1520 1.478 . S
C1519 H1513 0.930 . S
C1519 C1515 1.400 . S
C1519 C1518 1.385 . S
C1520 C1518 1.478 . S
C1520 C1522 1.381 . S
C1520 C1526 1.383 . S
C1521 C1517 1.495 . S
C1521 H1527 0.959 . S
C1521 H1528 0.961 . S
C1521 H1529 0.960 . S
C1522 C1520 1.381 . S
C1522 C1523 1.394 . S
C1522 H1530 0.930 . S
C1523 C1522 1.394 . S
C1523 C1524 1.383 . S
C1523 H1531 0.929 . S
C1524 C1523 1.383 . S
C1524 C1525 1.377 . S
C1525 H1509 0.930 . S
C1525 C1524 1.377 . S
C1525 C1526 1.379 . S
C1526 H1510 0.931 . S
C1526 C1520 1.383 . S
C1526 C1525 1.379 . S
H1527 C1521 0.959 . S
H1528 C1521 0.961 . S
H1529 C1521 0.960 . S
H1530 C1522 0.930 . S
H1531 C1523 0.929 . S
H1532 C1540 0.929 . S
H1533 C1542 0.930 . S
H1534 C1544 0.930 . S
H1535 C1547 0.929 . S
H1536 C1550 0.930 . S
H1537 C1552 0.960 . S
H1538 C1552 0.960 . S
H1539 C1552 0.960 . S
C1540 H1532 0.929 . S
C1540 C1541 1.377 . S
C1540 C1542 1.384 . S
C1541 C1540 1.377 . S
C1541 C1547 1.390 . S
C1542 H1533 0.930 . S
C1542 C1540 1.384 . S
C1542 C1543 1.372 . S
C1543 C1542 1.372 . S
C1543 C1544 1.400 . S
C1543 C1548 1.490 . S
C1544 H1534 0.930 . S
C1544 C1543 1.400 . S
C1544 C1547 1.386 . S
H1545 C1561 0.930 . S
H1546 C1562 0.931 . S
C1547 H1535 0.929 . S
C1547 C1541 1.390 . S
C1547 C1544 1.386 . S
C1548 C1543 1.490 . S
C1548 C1550 1.395 . S
C1548 C1551 1.403 . S
H1549 C1555 0.930 . S
C1550 H1536 0.930 . S
C1550 C1548 1.395 . S
C1550 C1553 1.403 . S
C1551 C1548 1.403 . S
C1551 C1552 1.524 . S
C1551 C1555 1.400 . S
C1552 H1537 0.960 . S
C1552 H1538 0.960 . S
C1552 H1539 0.960 . S
C1552 C1551 1.524 . S
C1553 C1550 1.403 . S
C1553 C1554 1.392 . S
C1553 C1557 1.495 . S
C1554 C1553 1.392 . S
C1554 C1555 1.385 . S
C1554 C1556 1.478 . S
C1555 H1549 0.930 . S
C1555 C1551 1.400 . S
C1555 C1554 1.385 . S
C1556 C1554 1.478 . S
C1556 C1558 1.381 . S
C1556 C1562 1.383 . S
C1557 C1553 1.495 . S
C1557 H1563 0.959 . S
C1557 H1564 0.961 . S
C1557 H1565 0.960 . S
C1558 C1556 1.381 . S
C1558 C1559 1.394 . S
C1558 H1566 0.930 . S
C1559 C1558 1.394 . S
C1559 C1560 1.383 . S
C1559 H1567 0.929 . S
C1560 C1559 1.383 . S
C1560 C1561 1.377 . S
C1561 H1545 0.930 . S
C1561 C1560 1.377 . S
C1561 C1562 1.379 . S
C1562 H1546 0.931 . S
C1562 C1556 1.383 . S
C1562 C1561 1.379 . S
H1563 C1557 0.959 . S
H1564 C1557 0.961 . S
H1565 C1557 0.960 . S
H1566 C1558 0.930 . S
H1567 C1559 0.929 . S
H1568 C1576 0.929 . S
H1569 C1578 0.930 . S
H1570 C1580 0.930 . S
H1571 C1583 0.929 . S
H1572 C1586 0.930 . S
H1573 C1588 0.960 . S
H1574 C1588 0.960 . S
H1575 C1588 0.960 . S
C1576 H1568 0.929 . S
C1576 C1577 1.377 . S
C1576 C1578 1.384 . S
C1577 C1576 1.377 . S
C1577 C1583 1.390 . S
C1578 H1569 0.930 . S
C1578 C1576 1.384 . S
C1578 C1579 1.372 . S
C1579 C1578 1.372 . S
C1579 C1580 1.400 . S
C1579 C1584 1.490 . S
C1580 H1570 0.930 . S
C1580 C1579 1.400 . S
C1580 C1583 1.386 . S
H1581 C1597 0.930 . S
H1582 C1598 0.931 . S
C1583 H1571 0.929 . S
C1583 C1577 1.390 . S
C1583 C1580 1.386 . S
C1584 C1579 1.490 . S
C1584 C1586 1.395 . S
C1584 C1587 1.403 . S
H1585 C1591 0.930 . S
C1586 H1572 0.930 . S
C1586 C1584 1.395 . S
C1586 C1589 1.403 . S
C1587 C1584 1.403 . S
C1587 C1588 1.524 . S
C1587 C1591 1.400 . S
C1588 H1573 0.960 . S
C1588 H1574 0.960 . S
C1588 H1575 0.960 . S
C1588 C1587 1.524 . S
C1589 C1586 1.403 . S
C1589 C1590 1.392 . S
C1589 C1593 1.495 . S
C1590 C1589 1.392 . S
C1590 C1591 1.385 . S
C1590 C1592 1.478 . S
C1591 H1585 0.930 . S
C1591 C1587 1.400 . S
C1591 C1590 1.385 . S
C1592 C1590 1.478 . S
C1592 C1594 1.381 . S
C1592 C1598 1.383 . S
C1593 C1589 1.495 . S
C1593 H1599 0.959 . S
C1593 H1600 0.961 . S
C1593 H1601 0.960 . S
C1594 C1592 1.381 . S
C1594 C1595 1.394 . S
C1594 H1602 0.930 . S
C1595 C1594 1.394 . S
C1595 C1596 1.383 . S
C1595 H1603 0.929 . S
C1596 C1595 1.383 . S
C1596 C1597 1.377 . S
C1597 H1581 0.930 . S
C1597 C1596 1.377 . S
C1597 C1598 1.379 . S
C1598 H1582 0.931 . S
C1598 C1592 1.383 . S
C1598 C1597 1.379 . S
H1599 C1593 0.959 . S
H1600 C1593 0.961 . S
H1601 C1593 0.960 . S
H1602 C1594 0.930 . S
H1603 C1595 0.929 . S
H1604 C1612 0.929 . S
H1605 C1614 0.930 . S
H1606 C1616 0.930 . S
H1607 C1619 0.929 . S
H1608 C1622 0.930 . S
H1609 C1624 0.960 . S
H1610 C1624 0.960 . S
H1611 C1624 0.960 . S
C1612 H1604 0.929 . S
C1612 C1613 1.377 . S
C1612 C1614 1.384 . S
C1613 C1612 1.377 . S
C1613 C1619 1.390 . S
C1614 H1605 0.930 . S
C1614 C1612 1.384 . S
C1614 C1615 1.372 . S
C1615 C1614 1.372 . S
C1615 C1616 1.400 . S
C1615 C1620 1.490 . S
C1616 H1606 0.930 . S
C1616 C1615 1.400 . S
C1616 C1619 1.386 . S
H1617 C1633 0.930 . S
H1618 C1634 0.931 . S
C1619 H1607 0.929 . S
C1619 C1613 1.390 . S
C1619 C1616 1.386 . S
C1620 C1615 1.490 . S
C1620 C1622 1.395 . S
C1620 C1623 1.403 . S
H1621 C1627 0.930 . S
C1622 H1608 0.930 . S
C1622 C1620 1.395 . S
C1622 C1625 1.403 . S
C1623 C1620 1.403 . S
C1623 C1624 1.524 . S
C1623 C1627 1.400 . S
C1624 H1609 0.960 . S
C1624 H1610 0.960 . S
C1624 H1611 0.960 . S
C1624 C1623 1.524 . S
C1625 C1622 1.403 . S
C1625 C1626 1.392 . S
C1625 C1629 1.495 . S
C1626 C1625 1.392 . S
C1626 C1627 1.385 . S
C1626 C1628 1.478 . S
C1627 H1621 0.930 . S
C1627 C1623 1.400 . S
C1627 C1626 1.385 . S
C1628 C1626 1.478 . S
C1628 C1630 1.381 . S
C1628 C1634 1.383 . S
C1629 C1625 1.495 . S
C1629 H1635 0.959 . S
C1629 H1636 0.961 . S
C1629 H1637 0.960 . S
C1630 C1628 1.381 . S
C1630 C1631 1.394 . S
C1630 H1638 0.930 . S
C1631 C1630 1.394 . S
C1631 C1632 1.383 . S
C1631 H1639 0.929 . S
C1632 C1631 1.383 . S
C1632 C1633 1.377 . S
C1633 H1617 0.930 . S
C1633 C1632 1.377 . S
C1633 C1634 1.379 . S
C1634 H1618 0.931 . S
C1634 C1628 1.383 . S
C1634 C1633 1.379 . S
H1635 C1629 0.959 . S
H1636 C1629 0.961 . S
H1637 C1629 0.960 . S
H1638 C1630 0.930 . S
H1639 C1631 0.929 . S
H1640 C1648 0.929 . S
H1641 C1650 0.930 . S
H1642 C1652 0.930 . S
H1643 C1655 0.929 . S
H1644 C1658 0.930 . S
H1645 C1660 0.960 . S
H1646 C1660 0.960 . S
H1647 C1660 0.960 . S
C1648 H1640 0.929 . S
C1648 C1649 1.377 . S
C1648 C1650 1.384 . S
C1649 C1648 1.377 . S
C1649 C1655 1.390 . S
C1650 H1641 0.930 . S
C1650 C1648 1.384 . S
C1650 C1651 1.372 . S
C1651 C1650 1.372 . S
C1651 C1652 1.400 . S
C1651 C1656 1.490 . S
C1652 H1642 0.930 . S
C1652 C1651 1.400 . S
C1652 C1655 1.386 . S
H1653 C1669 0.930 . S
H1654 C1670 0.931 . S
C1655 H1643 0.929 . S
C1655 C1649 1.390 . S
C1655 C1652 1.386 . S
C1656 C1651 1.490 . S
C1656 C1658 1.395 . S
C1656 C1659 1.403 . S
H1657 C1663 0.930 . S
C1658 H1644 0.930 . S
C1658 C1656 1.395 . S
C1658 C1661 1.403 . S
C1659 C1656 1.403 . S
C1659 C1660 1.524 . S
C1659 C1663 1.400 . S
C1660 H1645 0.960 . S
C1660 H1646 0.960 . S
C1660 H1647 0.960 . S
C1660 C1659 1.524 . S
C1661 C1658 1.403 . S
C1661 C1662 1.392 . S
C1661 C1665 1.495 . S
C1662 C1661 1.392 . S
C1662 C1663 1.385 . S
C1662 C1664 1.478 . S
C1663 H1657 0.930 . S
C1663 C1659 1.400 . S
C1663 C1662 1.385 . S
C1664 C1662 1.478 . S
C1664 C1666 1.381 . S
C1664 C1670 1.383 . S
C1665 C1661 1.495 . S
C1665 H1671 0.959 . S
C1665 H1672 0.961 . S
C1665 H1673 0.960 . S
C1666 C1664 1.381 . S
C1666 C1667 1.394 . S
C1666 H1674 0.930 . S
C1667 C1666 1.394 . S
C1667 C1668 1.383 . S
C1667 H1675 0.929 . S
C1668 C1667 1.383 . S
C1668 C1669 1.377 . S
C1669 H1653 0.930 . S
C1669 C1668 1.377 . S
C1669 C1670 1.379 . S
C1670 H1654 0.931 . S
C1670 C1664 1.383 . S
C1670 C1669 1.379 . S
H1671 C1665 0.959 . S
H1672 C1665 0.961 . S
H1673 C1665 0.960 . S
H1674 C1666 0.930 . S
H1675 C1667 0.929 . S
H1676 C1684 0.929 . S
H1677 C1686 0.930 . S
H1678 C1688 0.930 . S
H1679 C1691 0.929 . S
H1680 C1694 0.930 . S
H1681 C1696 0.960 . S
H1682 C1696 0.960 . S
H1683 C1696 0.960 . S
C1684 H1676 0.929 . S
C1684 C1685 1.377 . S
C1684 C1686 1.384 . S
C1685 C1684 1.377 . S
C1685 C1691 1.390 . S
C1686 H1677 0.930 . S
C1686 C1684 1.384 . S
C1686 C1687 1.372 . S
C1687 C1686 1.372 . S
C1687 C1688 1.400 . S
C1687 C1692 1.490 . S
C1688 H1678 0.930 . S
C1688 C1687 1.400 . S
C1688 C1691 1.386 . S
H1689 C1705 0.930 . S
H1690 C1706 0.931 . S
C1691 H1679 0.929 . S
C1691 C1685 1.390 . S
C1691 C1688 1.386 . S
C1692 C1687 1.490 . S
C1692 C1694 1.395 . S
C1692 C1695 1.403 . S
H1693 C1699 0.930 . S
C1694 H1680 0.930 . S
C1694 C1692 1.395 . S
C1694 C1697 1.403 . S
C1695 C1692 1.403 . S
C1695 C1696 1.524 . S
C1695 C1699 1.400 . S
C1696 H1681 0.960 . S
C1696 H1682 0.960 . S
C1696 H1683 0.960 . S
C1696 C1695 1.524 . S
C1697 C1694 1.403 . S
C1697 C1698 1.392 . S
C1697 C1701 1.495 . S
C1698 C1697 1.392 . S
C1698 C1699 1.385 . S
C1698 C1700 1.478 . S
C1699 H1693 0.930 . S
C1699 C1695 1.400 . S
C1699 C1698 1.385 . S
C1700 C1698 1.478 . S
C1700 C1702 1.381 . S
C1700 C1706 1.383 . S
C1701 C1697 1.495 . S
C1701 H1707 0.959 . S
C1701 H1708 0.961 . S
C1701 H1709 0.960 . S
C1702 C1700 1.381 . S
C1702 C1703 1.394 . S
C1702 H1710 0.930 . S
C1703 C1702 1.394 . S
C1703 C1704 1.383 . S
C1703 H1711 0.929 . S
C1704 C1703 1.383 . S
C1704 C1705 1.377 . S
C1705 H1689 0.930 . S
C1705 C1704 1.377 . S
C1705 C1706 1.379 . S
C1706 H1690 0.931 . S
C1706 C1700 1.383 . S
C1706 C1705 1.379 . S
H1707 C1701 0.959 . S
H1708 C1701 0.961 . S
H1709 C1701 0.960 . S
H1710 C1702 0.930 . S
H1711 C1703 0.929 . S
H1712 C1720 0.929 . S
H1713 C1722 0.930 . S
H1714 C1724 0.930 1_565 S
H1715 C1727 0.929 . S
H1716 C1730 0.930 . S
H1717 C1732 0.953 1_565 S
H1718 C1732 0.960 . S
H1719 C1732 0.960 . S
C1720 H1712 0.929 . S
C1720 C1721 1.377 . S
C1720 C1722 1.384 . S
C1721 C1720 1.377 . S
C1721 C1727 1.390 . S
C1722 H1713 0.930 . S
C1722 C1720 1.384 . S
C1722 C1723 1.372 1_545 S
C1723 C1722 1.372 1_565 S
C1723 C1724 1.400 1_565 S
C1723 C1728 1.490 . S
C1724 H1714 0.930 1_545 S
C1724 C1723 1.400 1_545 S
C1724 C1727 1.386 . S
H1725 C1741 0.930 . S
H1726 C1742 0.931 . S
C1727 H1715 0.929 . S
C1727 C1721 1.390 . S
C1727 C1724 1.386 . S
C1728 C1723 1.490 . S
C1728 C1730 1.395 . S
C1728 C1731 1.403 . S
H1729 C1735 0.930 . S
C1730 H1716 0.930 . S
C1730 C1728 1.395 . S
C1730 C1733 1.403 . S
C1731 C1728 1.403 . S
C1731 C1732 1.524 1_565 S
C1731 C1735 1.400 . S
C1732 H1717 0.953 1_545 S
C1732 H1718 0.960 . S
C1732 H1719 0.960 . S
C1732 C1731 1.524 1_545 S
C1733 C1730 1.403 . S
C1733 C1734 1.392 . S
C1733 C1737 1.495 . S
C1734 C1733 1.392 . S
C1734 C1735 1.385 . S
C1734 C1736 1.478 . S
C1735 H1729 0.930 . S
C1735 C1731 1.400 . S
C1735 C1734 1.385 . S
C1736 C1734 1.478 . S
C1736 C1738 1.381 . S
C1736 C1742 1.383 . S
C1737 C1733 1.495 . S
C1737 H1743 0.959 . S
C1737 H1744 0.961 . S
C1737 H1745 0.960 . S
C1738 C1736 1.381 . S
C1738 C1739 1.394 . S
C1738 H1746 0.930 . S
C1739 C1738 1.394 . S
C1739 C1740 1.383 . S
C1739 H1747 0.929 . S
C1740 C1739 1.383 . S
C1740 C1741 1.377 . S
C1741 H1725 0.930 . S
C1741 C1740 1.377 . S
C1741 C1742 1.379 . S
C1742 H1726 0.931 . S
C1742 C1736 1.383 . S
C1742 C1741 1.379 . S
H1743 C1737 0.959 . S
H1744 C1737 0.961 . S
H1745 C1737 0.960 . S
H1746 C1738 0.930 . S
H1747 C1739 0.929 . S
H1748 C1756 0.929 . S
H1749 C1758 0.930 . S
H1750 C1760 0.930 . S
H1751 C1763 0.929 . S
H1752 C1766 0.930 . S
H1753 C1768 0.960 . S
H1754 C1768 0.960 . S
H1755 C1768 0.960 . S
C1756 H1748 0.929 . S
C1756 C1757 1.377 . S
C1756 C1758 1.384 . S
C1757 C1756 1.377 . S
C1757 C1763 1.390 . S
C1758 H1749 0.930 . S
C1758 C1756 1.384 . S
C1758 C1759 1.372 . S
C1759 C1758 1.372 . S
C1759 C1760 1.400 . S
C1759 C1764 1.490 . S
C1760 H1750 0.930 . S
C1760 C1759 1.400 . S
C1760 C1763 1.386 . S
H1761 C1777 0.930 . S
H1762 C1778 0.931 . S
C1763 H1751 0.929 . S
C1763 C1757 1.390 . S
C1763 C1760 1.386 . S
C1764 C1759 1.490 . S
C1764 C1766 1.395 . S
C1764 C1767 1.403 . S
H1765 C1771 0.930 . S
C1766 H1752 0.930 . S
C1766 C1764 1.395 . S
C1766 C1769 1.403 . S
C1767 C1764 1.403 . S
C1767 C1768 1.524 . S
C1767 C1771 1.400 . S
C1768 H1753 0.960 . S
C1768 H1754 0.960 . S
C1768 H1755 0.960 . S
C1768 C1767 1.524 . S
C1769 C1766 1.403 . S
C1769 C1770 1.392 . S
C1769 C1773 1.495 . S
C1770 C1769 1.392 . S
C1770 C1771 1.385 . S
C1770 C1772 1.478 . S
C1771 H1765 0.930 . S
C1771 C1767 1.400 . S
C1771 C1770 1.385 . S
C1772 C1770 1.478 . S
C1772 C1774 1.381 . S
C1772 C1778 1.383 . S
C1773 C1769 1.495 . S
C1773 H1779 0.959 . S
C1773 H1780 0.961 . S
C1773 H1781 0.960 . S
C1774 C1772 1.381 . S
C1774 C1775 1.394 . S
C1774 H1782 0.930 . S
C1775 C1774 1.394 . S
C1775 C1776 1.383 . S
C1775 H1783 0.929 . S
C1776 C1775 1.383 . S
C1776 C1777 1.377 . S
C1777 H1761 0.930 . S
C1777 C1776 1.377 . S
C1777 C1778 1.379 . S
C1778 H1762 0.931 . S
C1778 C1772 1.383 . S
C1778 C1777 1.379 . S
H1779 C1773 0.959 . S
H1780 C1773 0.961 . S
H1781 C1773 0.960 . S
H1782 C1774 0.930 . S
H1783 C1775 0.929 . S
H1784 C1792 0.929 . S
H1785 C1794 0.930 . S
H1786 C1796 0.930 . S
H1787 C1799 0.929 . S
H1788 C1802 0.930 . S
H1789 C1804 0.960 . S
H1790 C1804 0.960 . S
H1791 C1804 0.960 . S
C1792 H1784 0.929 . S
C1792 C1793 1.377 . S
C1792 C1794 1.384 . S
C1793 C1792 1.377 . S
C1793 C1799 1.390 . S
C1794 H1785 0.930 . S
C1794 C1792 1.384 . S
C1794 C1795 1.372 . S
C1795 C1794 1.372 . S
C1795 C1796 1.400 . S
C1795 C1800 1.490 . S
C1796 H1786 0.930 . S
C1796 C1795 1.400 . S
C1796 C1799 1.386 . S
H1797 C1813 0.930 . S
H1798 C1814 0.931 . S
C1799 H1787 0.929 . S
C1799 C1793 1.390 . S
C1799 C1796 1.386 . S
C1800 C1795 1.490 . S
C1800 C1802 1.395 . S
C1800 C1803 1.403 . S
H1801 C1807 0.930 . S
C1802 H1788 0.930 . S
C1802 C1800 1.395 . S
C1802 C1805 1.403 . S
C1803 C1800 1.403 . S
C1803 C1804 1.524 . S
C1803 C1807 1.400 . S
C1804 H1789 0.960 . S
C1804 H1790 0.960 . S
C1804 H1791 0.960 . S
C1804 C1803 1.524 . S
C1805 C1802 1.403 . S
C1805 C1806 1.392 . S
C1805 C1809 1.495 . S
C1806 C1805 1.392 . S
C1806 C1807 1.385 . S
C1806 C1808 1.478 . S
C1807 H1801 0.930 . S
C1807 C1803 1.400 . S
C1807 C1806 1.385 . S
C1808 C1806 1.478 . S
C1808 C1810 1.381 . S
C1808 C1814 1.383 1_455 S
C1809 C1805 1.495 . S
C1809 H1815 0.959 . S
C1809 H1816 0.961 . S
C1809 H1817 0.960 . S
C1810 C1808 1.381 . S
C1810 C1811 1.394 1_455 S
C1810 H1818 0.930 . S
C1811 C1810 1.394 1_655 S
C1811 C1812 1.383 . S
C1811 H1819 0.929 . S
C1812 C1811 1.383 . S
C1812 C1813 1.377 . S
C1813 H1797 0.930 . S
C1813 C1812 1.377 . S
C1813 C1814 1.379 . S
C1814 H1798 0.931 . S
C1814 C1808 1.383 1_655 S
C1814 C1813 1.379 . S
H1815 C1809 0.959 . S
H1816 C1809 0.961 . S
H1817 C1809 0.960 . S
H1818 C1810 0.930 . S
H1819 C1811 0.929 . S
H1820 C1828 0.929 . S
H1821 C1830 0.930 . S
H1822 C1832 0.930 1_545 S
H1823 C1835 0.929 . S
H1824 C1838 0.930 1_565 S
H1825 C1840 0.960 . S
H1826 C1840 0.960 . S
H1827 C1840 0.960 . S
C1828 H1820 0.929 . S
C1828 C1829 1.377 . S
C1828 C1830 1.384 . S
C1829 C1828 1.377 . S
C1829 C1835 1.390 . S
C1830 H1821 0.930 . S
C1830 C1828 1.384 . S
C1830 C1831 1.372 1_565 S
C1831 C1830 1.372 1_545 S
C1831 C1832 1.400 1_545 S
C1831 C1836 1.490 . S
C1832 H1822 0.930 1_565 S
C1832 C1831 1.400 1_565 S
C1832 C1835 1.386 . S
H1833 C1849 0.930 . S
H1834 C1850 0.928 1_655 S
C1835 H1823 0.929 . S
C1835 C1829 1.390 . S
C1835 C1832 1.386 . S
C1836 C1831 1.490 . S
C1836 C1838 1.395 . S
C1836 C1839 1.403 . S
H1837 C1843 0.930 . S
C1838 H1824 0.930 1_545 S
C1838 C1836 1.395 . S
C1838 C1841 1.403 . S
C1839 C1836 1.403 . S
C1839 C1840 1.524 . S
C1839 C1843 1.400 . S
C1840 H1825 0.960 . S
C1840 H1826 0.960 . S
C1840 H1827 0.960 . S
C1840 C1839 1.524 . S
C1841 C1838 1.403 . S
C1841 C1842 1.392 . S
C1841 C1845 1.495 1_655 S
C1842 C1841 1.392 . S
C1842 C1843 1.385 . S
C1842 C1844 1.469 1_655 S
C1843 H1837 0.930 . S
C1843 C1839 1.400 . S
C1843 C1842 1.385 . S
C1844 C1842 1.469 1_455 S
C1844 C1846 1.386 . S
C1844 C1850 1.386 . S
C1845 C1841 1.495 1_455 S
C1845 H1851 0.959 . S
C1845 H1852 0.961 . S
C1845 H1853 0.960 . S
C1846 C1844 1.386 . S
C1846 C1847 1.394 . S
C1846 H1854 0.930 . S
C1847 C1846 1.394 . S
C1847 C1848 1.383 . S
C1847 H1855 0.929 . S
C1848 C1847 1.383 . S
C1848 C1849 1.377 . S
C1849 H1833 0.930 . S
C1849 C1848 1.377 . S
C1849 C1850 1.379 . S
C1850 H1834 0.928 1_455 S
C1850 C1844 1.386 . S
C1850 C1849 1.379 . S
H1851 C1845 0.959 . S
H1852 C1845 0.961 . S
H1853 C1845 0.960 . S
H1854 C1846 0.930 . S
H1855 C1847 0.929 . S
H1856 C1864 0.929 . S
H1857 C1866 0.930 . S
H1858 C1868 0.930 . S
H1859 C1871 0.929 . S
H1860 C1874 0.930 . S
H1861 C1876 0.960 . S
H1862 C1876 0.960 . S
H1863 C1876 0.960 . S
C1864 H1856 0.929 . S
C1864 C1865 1.377 . S
C1864 C1866 1.384 . S
C1865 C1864 1.377 . S
C1865 C1871 1.390 . S
C1866 H1857 0.930 . S
C1866 C1864 1.384 . S
C1866 C1867 1.372 . S
C1867 C1866 1.372 . S
C1867 C1868 1.400 . S
C1867 C1872 1.490 . S
C1868 H1858 0.930 . S
C1868 C1867 1.400 . S
C1868 C1871 1.386 . S
H1869 C1885 0.930 . S
H1870 C1886 0.931 . S
C1871 H1859 0.929 . S
C1871 C1865 1.390 . S
C1871 C1868 1.386 . S
C1872 C1867 1.490 . S
C1872 C1874 1.395 . S
C1872 C1875 1.403 . S
H1873 C1879 0.930 . S
C1874 H1860 0.930 . S
C1874 C1872 1.395 . S
C1874 C1877 1.403 . S
C1875 C1872 1.403 . S
C1875 C1876 1.524 . S
C1875 C1879 1.400 . S
C1876 H1861 0.960 . S
C1876 H1862 0.960 . S
C1876 H1863 0.960 . S
C1876 C1875 1.524 . S
C1877 C1874 1.403 . S
C1877 C1878 1.392 . S
C1877 C1881 1.495 . S
C1878 C1877 1.392 . S
C1878 C1879 1.385 . S
C1878 C1880 1.478 . S
C1879 H1873 0.930 . S
C1879 C1875 1.400 . S
C1879 C1878 1.385 . S
C1880 C1878 1.478 . S
C1880 C1882 1.381 . S
C1880 C1886 1.383 . S
C1881 C1877 1.495 . S
C1881 H1887 0.959 . S
C1881 H1888 0.961 . S
C1881 H1889 0.960 . S
C1882 C1880 1.381 . S
C1882 C1883 1.394 . S
C1882 H1890 0.930 . S
C1883 C1882 1.394 . S
C1883 C1884 1.383 . S
C1883 H1891 0.929 . S
C1884 C1883 1.383 . S
C1884 C1885 1.377 . S
C1885 H1869 0.930 . S
C1885 C1884 1.377 . S
C1885 C1886 1.379 . S
C1886 H1870 0.931 . S
C1886 C1880 1.383 . S
C1886 C1885 1.379 . S
H1887 C1881 0.959 . S
H1888 C1881 0.961 . S
H1889 C1881 0.960 . S
H1890 C1882 0.930 . S
H1891 C1883 0.929 . S
H1892 C1900 0.929 . S
H1893 C1902 0.930 . S
H1894 C1904 0.930 . S
H1895 C1907 0.929 . S
H1896 C1910 0.930 . S
H1897 C1912 0.960 . S
H1898 C1912 0.960 . S
H1899 C1912 0.960 . S
C1900 H1892 0.929 . S
C1900 C1901 1.377 . S
C1900 C1902 1.384 . S
C1901 C1900 1.377 . S
C1901 C1907 1.390 . S
C1902 H1893 0.930 . S
C1902 C1900 1.384 . S
C1902 C1903 1.372 1_455 S
C1903 C1902 1.372 1_655 S
C1903 C1904 1.400 . S
C1903 C1908 1.490 . S
C1904 H1894 0.930 . S
C1904 C1903 1.400 . S
C1904 C1907 1.386 1_655 S
H1905 C1921 0.930 . S
H1906 C1922 0.931 . S
C1907 H1895 0.929 . S
C1907 C1901 1.390 . S
C1907 C1904 1.386 1_455 S
C1908 C1903 1.490 . S
C1908 C1910 1.395 . S
C1908 C1911 1.403 . S
H1909 C1915 0.930 . S
C1910 H1896 0.930 . S
C1910 C1908 1.395 . S
C1910 C1913 1.403 . S
C1911 C1908 1.403 . S
C1911 C1912 1.524 . S
C1911 C1915 1.400 . S
C1912 H1897 0.960 . S
C1912 H1898 0.960 . S
C1912 H1899 0.960 . S
C1912 C1911 1.524 . S
C1913 C1910 1.403 . S
C1913 C1914 1.392 . S
C1913 C1917 1.495 . S
C1914 C1913 1.392 . S
C1914 C1915 1.385 . S
C1914 C1916 1.478 . S
C1915 H1909 0.930 . S
C1915 C1911 1.400 . S
C1915 C1914 1.385 . S
C1916 C1914 1.478 . S
C1916 C1918 1.381 . S
C1916 C1922 1.383 . S
C1917 C1913 1.495 . S
C1917 H1923 0.959 . S
C1917 H1924 0.961 . S
C1917 H1925 0.960 . S
C1918 C1916 1.381 . S
C1918 C1919 1.394 . S
C1918 H1926 0.930 . S
C1919 C1918 1.394 . S
C1919 C1920 1.383 . S
C1919 H1927 0.929 . S
C1920 C1919 1.383 . S
C1920 C1921 1.377 . S
C1921 H1905 0.930 . S
C1921 C1920 1.377 . S
C1921 C1922 1.379 . S
C1922 H1906 0.931 . S
C1922 C1916 1.383 . S
C1922 C1921 1.379 . S
H1923 C1917 0.959 . S
H1924 C1917 0.961 . S
H1925 C1917 0.960 . S
H1926 C1918 0.930 . S
H1927 C1919 0.929 . S
H1928 C1936 0.929 . S
H1929 C1938 0.930 . S
H1930 C1940 0.930 . S
H1931 C1943 0.929 . S
H1932 C1946 0.930 . S
H1933 C1948 0.960 . S
H1934 C1948 0.960 . S
H1935 C1948 0.960 . S
C1936 H1928 0.929 . S
C1936 C1937 1.377 . S
C1936 C1938 1.384 1_655 S
C1937 C1936 1.377 . S
C1937 C1943 1.390 . S
C1938 H1929 0.930 . S
C1938 C1936 1.384 1_455 S
C1938 C1939 1.372 . S
C1939 C1938 1.372 . S
C1939 C1940 1.400 1_455 S
C1939 C1944 1.490 . S
C1940 H1930 0.930 . S
C1940 C1939 1.400 1_655 S
C1940 C1943 1.386 . S
H1941 C1957 0.930 . S
H1942 C1958 0.931 . S
C1943 H1931 0.929 . S
C1943 C1937 1.390 . S
C1943 C1940 1.386 . S
C1944 C1939 1.490 . S
C1944 C1946 1.395 . S
C1944 C1947 1.403 . S
H1945 C1951 0.930 . S
C1946 H1932 0.930 . S
C1946 C1944 1.395 . S
C1946 C1949 1.403 . S
C1947 C1944 1.403 . S
C1947 C1948 1.524 1_455 S
C1947 C1951 1.400 . S
C1948 H1933 0.960 . S
C1948 H1934 0.960 . S
C1948 H1935 0.960 . S
C1948 C1947 1.524 1_655 S
C1949 C1946 1.403 . S
C1949 C1950 1.392 . S
C1949 C1953 1.495 . S
C1950 C1949 1.392 . S
C1950 C1951 1.385 . S
C1950 C1952 1.478 . S
C1951 H1945 0.930 . S
C1951 C1947 1.400 . S
C1951 C1950 1.385 . S
C1952 C1950 1.478 . S
C1952 C1954 1.381 . S
C1952 C1958 1.383 1_565 S
C1953 C1949 1.495 . S
C1953 H1959 0.959 . S
C1953 H1960 0.961 . S
C1953 H1961 0.960 . S
C1954 C1952 1.381 . S
C1954 C1955 1.394 1_565 S
C1954 H1962 0.930 . S
C1955 C1954 1.394 1_545 S
C1955 C1956 1.383 . S
C1955 H1963 0.929 . S
C1956 C1955 1.383 . S
C1956 C1957 1.377 . S
C1957 H1941 0.930 . S
C1957 C1956 1.377 . S
C1957 C1958 1.379 . S
C1958 H1942 0.931 . S
C1958 C1952 1.383 1_545 S
C1958 C1957 1.379 . S
H1959 C1953 0.959 . S
H1960 C1953 0.961 . S
H1961 C1953 0.960 . S
H1962 C1954 0.930 . S
H1963 C1955 0.929 . S
H1964 C1972 0.929 . S
H1965 C1974 0.930 . S
H1966 C1976 0.930 . S
H1967 C1979 0.929 . S
H1968 C1982 0.930 . S
H1969 C1984 0.960 . S
H1970 C1984 0.960 . S
H1971 C1984 0.960 . S
C1972 H1964 0.929 . S
C1972 C1973 1.377 . S
C1972 C1974 1.384 1_565 S
C1973 C1972 1.377 . S
C1973 C1979 1.390 . S
C1974 H1965 0.930 . S
C1974 C1972 1.384 1_545 S
C1974 C1975 1.372 . S
C1975 C1974 1.372 . S
C1975 C1976 1.400 1_545 S
C1975 C1980 1.490 . S
C1976 H1966 0.930 . S
C1976 C1975 1.400 1_565 S
C1976 C1979 1.386 . S
H1977 C1993 0.930 . S
H1978 C1994 0.931 . S
C1979 H1967 0.929 . S
C1979 C1973 1.390 . S
C1979 C1976 1.386 . S
C1980 C1975 1.490 . S
C1980 C1982 1.395 . S
C1980 C1983 1.403 . S
H1981 C1987 0.930 . S
C1982 H1968 0.930 . S
C1982 C1980 1.395 . S
C1982 C1985 1.403 . S
C1983 C1980 1.403 . S
C1983 C1984 1.524 1_545 S
C1983 C1987 1.400 . S
C1984 H1969 0.960 . S
C1984 H1970 0.960 . S
C1984 H1971 0.960 . S
C1984 C1983 1.524 1_565 S
C1985 C1982 1.403 . S
C1985 C1986 1.392 . S
C1985 C1989 1.495 . S
C1986 C1985 1.392 . S
C1986 C1987 1.385 . S
C1986 C1988 1.478 . S
C1987 H1981 0.930 . S
C1987 C1983 1.400 . S
C1987 C1986 1.385 . S
C1988 C1986 1.478 . S
C1988 C1990 1.381 . S
C1988 C1994 1.383 . S
C1989 C1985 1.495 . S
C1989 H1995 0.959 . S
C1989 H1996 0.961 . S
C1989 H1997 0.960 . S
C1990 C1988 1.381 . S
C1990 C1991 1.394 . S
C1990 H1998 0.930 . S
C1991 C1990 1.394 . S
C1991 C1992 1.383 . S
C1991 H1999 0.929 . S
C1992 C1991 1.383 . S
C1992 C1993 1.377 . S
C1993 H1977 0.930 . S
C1993 C1992 1.377 . S
C1993 C1994 1.379 . S
C1994 H1978 0.931 . S
C1994 C1988 1.383 . S
C1994 C1993 1.379 . S
H1995 C1989 0.959 . S
H1996 C1989 0.961 . S
H1997 C1989 0.960 . S
H1998 C1990 0.930 . S
H1999 C1991 0.929 . S
C857 C410 1.847 . S
C876 C39 1.833 . S
C893 C251 1.852 . S
C912 C92 1.855 . S
C929 C304 1.852 . S
C948 C145 1.854 . S
C965 C198 1.852 . S
C984 C357 1.847 . S
C1001 C834 1.847 . S
C1020 C463 1.832 . S
C1037 C675 1.843 . S
C1056 C516 1.852 . S
C1073 C569 1.842 . S
C1092 C728 1.856 . S
C1109 C622 1.842 . S
C1128 C781 1.854 . S
C1145 C135 1.381 . S
C1164 C29 1.366 . S
C1181 C82 1.381 . S
C1200 C188 1.369 . S
C1217 C241 1.381 . S
C1236 C347 1.368 . S
C1253 C400 1.382 . S
C1272 C294 1.370 . S
C1289 C453 1.385 . S
C1308 C559 1.374 . S
C1325 C506 1.388 . S
C1344 C612 1.371 . S
C1361 C771 1.384 . S
C1380 C665 1.393 . S
C1397 C718 1.387 . S
C1416 C824 1.370 . S
C1433 C356 1.876 . S
C1452 C38 1.862 . S
C1469 C91 1.877 . S
C1488 C409 1.862 . S
C1505 C144 1.879 . S
C1524 C250 1.885 . S
C1541 C197 1.877 . S
C1560 C303 1.863 . S
C1577 C462 1.885 . S
C1596 C780 1.886 . S
C1613 C515 1.881 . S
C1632 C833 1.879 . S
C1649 C568 1.885 . S
C1668 C674 1.885 . S
C1685 C621 1.885 . S
C1704 C727 1.887 . S
C1721 C22 1.514 . S
C1740 C817 1.511 . S
C1757 C658 1.513 . S
C1776 C75 1.509 . S
C1793 C128 1.514 . S
C1812 C711 1.516 . S
C1829 C764 1.513 . S
C1848 C181 1.508 . S
C1865 C499 1.514 . S
C1884 C234 1.516 . S
C1901 C287 1.516 . S
C1920 C552 1.503 . S
C1937 C605 1.514 . S
C1956 C340 1.514 . S
C1973 C446 1.514 . S
C1992 C393 1.514 . S
