# Generated by pormake.
# Topology snp, (6)-cn, num edge types: 1
# Building blocks:
#     Node 0, Type 0, BuildingBlock: UKALOJ_clean_sbu_0, # of connection points: 6
#     Node 1, Type 0, BuildingBlock: UKALOJ_clean_sbu_0, # of connection points: 6
#     Node 2, Type 0, BuildingBlock: UKALOJ_clean_sbu_0, # of connection points: 6
#     Node 3, Type 0, BuildingBlock: UKALOJ_clean_sbu_0, # of connection points: 6
#     Edge 4, Type (0, 0), BuildingBlock: XUDNAN_clean_linker_2, # of connection points: 2
#     Edge 5, Type (0, 0), BuildingBlock: XUDNAN_clean_linker_2, # of connection points: 2
#     Edge 6, Type (0, 0), BuildingBlock: XUDNAN_clean_linker_2, # of connection points: 2
#     Edge 7, Type (0, 0), BuildingBlock: XUDNAN_clean_linker_2, # of connection points: 2
#     Edge 8, Type (0, 0), BuildingBlock: XUDNAN_clean_linker_2, # of connection points: 2
#     Edge 9, Type (0, 0), BuildingBlock: XUDNAN_clean_linker_2, # of connection points: 2
#     Edge 10, Type (0, 0), BuildingBlock: XUDNAN_clean_linker_2, # of connection points: 2
#     Edge 11, Type (0, 0), BuildingBlock: XUDNAN_clean_linker_2, # of connection points: 2
#     Edge 12, Type (0, 0), BuildingBlock: XUDNAN_clean_linker_2, # of connection points: 2
#     Edge 13, Type (0, 0), BuildingBlock: XUDNAN_clean_linker_2, # of connection points: 2
#     Edge 14, Type (0, 0), BuildingBlock: XUDNAN_clean_linker_2, # of connection points: 2
#     Edge 15, Type (0, 0), BuildingBlock: XUDNAN_clean_linker_2, # of connection points: 2
# Relax obj value: 0.886
# Max RMSD: 0.249
# Mean RMSD: 0.247
data_MOF--net-snp--node1-UKALOJ_clean_sbu_0--edge1-XUDNAN_clean_linker_2
_symmetry_space_group_name_H-M    P1
_symmetry_Int_Tables_number       1
_symmetry_cell_setting            triclinic
loop_
_symmetry_equiv_pos_as_xyz
'x, y, z'
_cell_length_a     32.751673
_cell_length_b     32.791939
_cell_length_c     22.11539
_cell_angle_alpha  96.85829
_cell_angle_beta   96.829161
_cell_angle_gamma 90.71139
loop_
_atom_site_label
_atom_site_type_symbol
_atom_site_fract_x
_atom_site_fract_y
_atom_site_fract_z
_atom_type_partial_charge
Zn0 Zn 0.28829 0.04099 0.10228 0.0
O1 O 0.27012 0.99659 0.01991 0.0
C2 C 0.23423 0.10419 0.04263 0.0
Zn3 Zn 0.22196 0.0371 0.11457 0.0
C4 C 0.23239 0.98667 1.00057 0.0
O5 O 0.2042 1.00025 0.03197 0.0
C6 C 0.27398 0.09059 0.2158 0.0
O7 O 0.23693 0.98535 0.1578 0.0
O8 O 0.30355 0.99154 0.15843 0.0
N9 N 0.1659 0.03637 0.14715 0.0
C10 C 0.14927 1.00393 0.16806 0.0
C11 C 0.12958 0.0575 0.21981 0.0
N12 N 0.15349 0.06971 0.17926 0.0
N13 N 0.1279 0.01619 0.21554 0.0
C14 C 0.38032 0.02218 0.07682 0.0
C15 C 0.40161 0.08261 0.06842 0.0
N16 N 0.34826 0.04737 0.08278 0.0
N17 N 0.36177 0.08481 0.07743 0.0
N18 N 0.41446 0.04369 0.06807 0.0
H19 H 0.38555 0.96885 0.12365 0.0
H20 H 0.39796 0.96084 0.04581 0.0
H21 H 0.3449 0.96544 0.06096 0.0
C22 C 0.377 0.97659 0.07639 0.0
C23 C 0.15074 0.96073 0.13744 0.0
H24 H 0.16057 0.96012 0.09119 0.0
H25 H 0.12001 0.94549 0.13308 0.0
H26 H 0.17272 0.9432 0.16544 0.0
O27 O 0.23962 0.0734 0.19586 0.0
O28 O 0.30371 0.08525 0.18394 0.0
C29 C 0.27252 0.97282 0.17315 0.0
O30 O 0.27061 0.09046 0.04792 0.0
O31 O 0.20702 0.08857 0.07003 0.0
Zn32 Zn 0.05706 0.26031 0.58591 0.0
O33 O 0.10839 0.24523 0.5347 0.0
C34 C 1.00571 0.22107 0.47029 0.0
Zn35 Zn 0.04925 0.19267 0.58295 0.0
C36 C 0.12159 0.20889 0.52442 0.0
O37 O 0.10286 0.1792 0.54242 0.0
C38 C 0.98492 0.24159 0.64515 0.0
O39 O 0.08223 0.19521 0.66972 0.0
O40 O 0.09814 0.26059 0.67135 0.0
N41 N 0.0359 0.1318 0.58602 0.0
C42 C 1.00335 0.11246 0.55056 0.0
C43 C 0.97367 0.13046 0.63489 0.0
N44 N 0.99557 0.12166 0.58505 0.0
N45 N 0.96802 0.11581 0.57412 0.0
C46 C 0.0479 0.35425 0.56918 0.0
C47 C 0.10885 0.37725 0.60056 0.0
N48 N 0.07029 0.32221 0.58601 0.0
N49 N 0.10808 0.33671 0.60548 0.0
N50 N 0.07149 0.38925 0.57802 0.0
H51 H 1.00488 0.33569 0.49026 0.0
H52 H 0.98923 0.37961 0.53709 0.0
H53 H 0.98643 0.32893 0.56161 0.0
C54 C 1.00451 0.34979 0.53834 0.0
C55 C 1.00972 0.08753 0.48625 0.0
H56 H 0.04143 0.07577 0.48814 0.0
H57 H 1.00626 0.10837 0.45011 0.0
H58 H 0.9872 0.0614 0.4747 0.0
O59 O 0.9965 0.20718 0.62275 0.0
O60 O 1.00572 0.27371 0.63968 0.0
C61 C 0.10119 0.22754 0.69644 0.0
O62 O 0.01612 0.25666 0.49858 0.0
O63 O 0.0164 0.18945 0.49527 0.0
Zn64 Zn 0.89877 1.01002 0.97284 0.0
O65 O 0.88297 0.97246 0.8909 0.0
C66 C 0.87055 0.07633 0.90699 0.0
Zn67 Zn 0.8321 0.01452 0.98326 0.0
C68 C 0.84743 0.9569 0.87373 0.0
O69 O 0.81811 0.96744 0.90469 0.0
C70 C 0.88601 0.06847 0.08359 0.0
O71 O 0.83042 0.96673 0.04503 0.0
O72 O 0.89355 0.95994 0.02385 0.0
N73 N 0.76955 0.02409 0.98235 0.0
C74 C 0.74189 0.01997 0.02221 0.0
C75 C 0.70868 0.03556 0.93979 0.0
N76 N 0.74867 0.03385 0.93134 0.0
N77 N 0.70319 0.02673 0.99634 0.0
C78 C 0.97278 0.95609 0.96157 0.0
C79 C 0.02103 0.99373 1.0098 0.0
N80 N 0.95919 0.99489 0.96627 0.0
N81 N 0.99028 0.01874 0.99381 0.0
N82 N 1.00964 0.95349 0.99502 0.0
H83 H 0.91808 0.91661 0.94043 0.0
H84 H 0.96582 0.89048 0.93515 0.0
H85 H 0.94611 0.92203 0.87753 0.0
C86 C 0.94931 0.91911 0.92734 0.0
C87 C 0.75352 1.01166 0.08705 0.0
H88 H 0.78529 0.02328 0.10385 0.0
H89 H 0.75245 0.97801 0.08891 0.0
H90 H 0.73191 0.0264 0.11747 0.0
O91 O 0.84843 0.06033 0.06186 0.0
O92 O 0.91434 0.05028 0.05674 0.0
C93 C 0.86424 0.94803 0.05065 0.0
O94 O 0.90363 0.05916 0.92452 0.0
O95 O 0.83643 0.06313 0.92138 0.0
Zn96 Zn 0.04038 0.8714 0.49257 0.0
O97 O 0.08943 0.88111 0.44283 0.0
C98 C 0.99152 0.82199 0.38374 0.0
Zn99 Zn 0.05203 0.80444 0.48888 0.0
C100 C 0.11191 0.85177 0.42526 0.0
O101 O 0.10375 0.81545 0.43683 0.0
C102 C 0.98071 0.8289 0.5573 0.0
O103 O 0.09334 0.81941 0.57468 0.0
O104 O 0.07976 0.88496 0.57475 0.0
N105 N 0.06441 0.74238 0.48492 0.0
C106 C 0.05778 0.71393 0.52242 0.0
C107 C 0.07937 0.6824 0.44303 0.0
N108 N 0.07798 0.72262 0.43577 0.0
N109 N 0.06653 0.67585 0.49686 0.0
C110 C 0.99749 0.94365 0.44999 0.0
C111 C 0.97668 0.96688 0.53444 0.0
N112 N 0.02365 0.93094 0.49527 0.0
N113 N 1.01146 0.94674 0.54785 0.0
N114 N 0.96658 0.96433 0.47319 0.0
H115 H 0.03039 0.91838 0.37537 0.0
H116 H 1.00714 0.96684 0.36677 0.0
H117 H 0.97477 0.92136 0.35728 0.0
C118 C 1.00287 0.93669 0.38338 0.0
C119 C 0.04508 0.72402 0.58526 0.0
H120 H 0.05583 0.75549 0.60512 0.0
H121 H 0.05777 0.70175 0.61612 0.0
H122 H 1.01103 0.72257 0.58216 0.0
O123 O 1.00003 0.79655 0.54173 0.0
O124 O 0.99243 0.86261 0.54204 0.0
C125 C 0.09826 0.85652 0.60028 0.0
O126 O 0.99927 0.85717 0.41287 0.0
O127 O 1.01064 0.7915 0.40281 0.0
H128 H 0.96155 0.96343 0.0806 0.0
H129 H 0.06349 0.8935 0.02564 0.0
H130 H 0.07805 0.87432 0.13054 0.0
H131 H 1.00326 0.02209 0.15544 0.0
H132 H 0.98044 0.03394 0.22596 0.0
H133 H 0.94955 1.01104 0.15868 0.0
H134 H 0.92764 0.95395 0.21067 0.0
H135 H 0.95666 0.97554 0.28113 0.0
H136 H 0.96348 0.92254 0.25112 0.0
H137 H 0.09989 0.88768 0.24445 0.0
H138 H 0.15027 0.94578 0.26464 0.0
H139 H 0.05249 0.03041 0.24629 0.0
C140 C 0.98487 0.94154 0.09028 0.0
C141 C 1.01094 0.92966 0.04574 0.0
C142 C 0.04291 0.90281 0.05928 0.0
C143 C 0.05092 0.8917 0.11911 0.0
C144 C 0.02921 0.91076 0.16577 0.0
C145 C 0.99662 0.93593 0.15079 0.0
C146 C 0.99157 0.96836 0.2034 0.0
C147 C 0.98082 1.01138 0.18449 0.0
C148 C 0.95799 0.95408 0.23888 0.0
C149 C 0.03356 0.96627 0.23958 0.0
C150 C 0.04871 0.92681 0.22737 0.0
C151 C 0.08936 0.91886 0.2482 0.0
C152 C 0.11772 0.95185 0.25915 0.0
C153 C 0.10412 0.99117 0.24848 0.0
C154 C 0.06234 0.99948 0.25054 0.0
H155 H 0.94832 1.00589 0.37735 0.0
H156 H 0.89431 0.93872 0.50333 0.0
H157 H 0.8337 0.98099 0.49596 0.0
H158 H 0.95519 0.07322 0.3791 0.0
H159 H 0.92591 0.11158 0.34519 0.0
H160 H 0.9271 0.06087 0.30434 0.0
H161 H 0.85001 0.05754 0.2886 0.0
H162 H 0.84839 0.1084 0.32941 0.0
H163 H 0.8201 0.06659 0.35166 0.0
H164 H 0.84264 0.04684 0.55836 0.0
H165 H 0.9011 0.0846 0.61925 0.0
H166 H 0.9377 0.12722 0.45679 0.0
C167 C 0.92159 0.99829 0.39816 0.0
C168 C 0.92639 0.97172 0.44357 0.0
C169 C 0.89185 0.96104 0.47097 0.0
C170 C 0.85683 0.98457 0.46572 0.0
C171 C 0.85859 0.01988 0.43625 0.0
C172 C 0.88607 0.02232 0.39267 0.0
C173 C 0.88768 0.06624 0.37852 0.0
C174 C 0.92634 0.07852 0.35034 0.0
C175 C 0.84926 0.07513 0.33465 0.0
C176 C 0.88404 0.08663 0.44264 0.0
C177 C 0.8599 0.06105 0.47151 0.0
C178 C 0.86183 0.06582 0.53576 0.0
C179 C 0.89575 0.08681 0.57051 0.0
C180 C 0.92545 0.10537 0.541 0.0
C181 C 0.91626 0.11029 0.47851 0.0
H182 H 0.63699 0.07216 0.96786 0.0
H183 H 0.67777 0.97269 0.07093 0.0
H184 H 0.60798 0.96549 0.10104 0.0
H185 H 0.56638 0.11688 0.0694 0.0
H186 H 0.52928 0.12857 1.00732 0.0
H187 H 0.5831 0.1271 0.99776 0.0
H188 H 0.56647 0.07365 0.9014 0.0
H189 H 0.51265 0.07462 0.91107 0.0
H190 H 0.53899 0.02661 0.90741 0.0
H191 H 0.5317 0.96947 0.1192 0.0
H192 H 0.45833 0.98472 0.12406 0.0
H193 H 0.46716 0.07768 1.00207 0.0
C194 C 0.6314 0.04915 0.9974 0.0
C195 C 0.66348 0.02395 0.01858 0.0
C196 C 0.65452 0.99368 0.05623 0.0
C197 C 0.61464 0.98894 0.07283 0.0
C198 C 0.58376 0.01429 0.0508 0.0
C199 C 0.59184 0.0438 1.01382 0.0
C200 C 0.55337 0.06649 0.99455 0.0
C201 C 0.55834 0.11248 0.01872 0.0
C202 C 0.54223 0.05993 0.92445 0.0
C203 C 0.52222 0.04526 0.02644 0.0
C204 C 0.54016 0.01526 0.05881 0.0
C205 C 0.51732 0.99251 0.0932 0.0
C206 C 0.47532 1.00095 0.09497 0.0
C207 C 0.45632 0.03155 0.06188 0.0
C208 C 0.48046 0.0537 0.02718 0.0
H209 H 0.11543 0.44061 0.52217 0.0
H210 H 1.00741 0.43308 0.61603 0.0
H211 H 0.99364 0.50613 0.6049 0.0
H212 H 0.1483 0.54134 0.59209 0.0
H213 H 0.16681 0.55674 0.52444 0.0
H214 H 0.16656 0.50338 0.53643 0.0
H215 H 0.12296 0.48438 0.43089 0.0
H216 H 0.12337 0.53764 0.41833 0.0
H217 H 0.07515 0.50974 0.41407 0.0
H218 H 0.99234 0.58068 0.58362 0.0
H219 H 1.00342 0.64992 0.55448 0.0
H220 H 0.11486 0.61001 0.48005 0.0
C221 C 0.08857 0.45431 0.53952 0.0
C222 C 0.06154 0.43083 0.56784 0.0
C223 C 0.02734 0.44999 0.59161 0.0
C224 C 0.01965 0.49159 0.5862 0.0
C225 C 0.04683 0.51382 0.55766 0.0
C226 C 0.08063 0.4958 0.53474 0.0
C227 C 0.10576 0.52662 0.50762 0.0
C228 C 0.14944 0.53235 0.54223 0.0
C229 C 0.10686 0.51383 0.43863 0.0
C230 C 0.08091 0.56489 0.51891 0.0
C231 C 0.04701 0.55689 0.54776 0.0
C232 C 0.01914 0.58736 0.56185 0.0
C233 C 0.02603 0.62691 0.54594 0.0
C234 C 0.06085 0.63597 0.51695 0.0
C235 C 0.08837 0.60424 0.50307 0.0
H236 H 0.15554 0.13469 0.49369 0.0
H237 H 0.16735 0.26419 0.47395 0.0
H238 H 0.22208 0.24868 0.40724 0.0
H239 H 0.26594 0.10854 0.48783 0.0
H240 H 0.25192 0.05952 0.44362 0.0
H241 H 0.21932 0.08184 0.49825 0.0
H242 H 0.1574 0.07637 0.41284 0.0
H243 H 0.18948 0.05402 0.35806 0.0
H244 H 0.1616 0.09969 0.34401 0.0
H245 H 0.26707 0.21727 0.32888 0.0
H246 H 0.293 0.17293 0.24353 0.0
H247 H 0.25396 0.0651 0.31861 0.0
C248 C 0.17034 0.16002 0.47677 0.0
C249 C 0.15725 0.2007 0.48944 0.0
C250 C 0.17698 0.23277 0.46526 0.0
C251 C 0.2083 0.22427 0.42756 0.0
C252 C 0.21996 0.18362 0.41505 0.0
C253 C 0.20157 0.15207 0.4393 0.0
C254 C 0.21565 0.11055 0.41341 0.0
C255 C 0.23965 0.08885 0.4638 0.0
C256 C 0.17889 0.0836 0.38009 0.0
C257 C 0.24368 0.12343 0.36899 0.0
C258 C 0.24647 0.1657 0.37106 0.0
C259 C 0.26621 0.18422 0.32817 0.0
C260 C 0.28141 0.15889 0.28024 0.0
C261 C 0.27655 0.11574 0.27586 0.0
C262 C 0.25945 0.09804 0.32256 0.0
H263 H 1.00116 0.23477 0.76442 0.0
H264 H 0.90126 0.23581 0.61856 0.0
H265 H 0.85512 0.20201 0.67974 0.0
H266 H 0.98144 0.13593 0.78323 0.0
H267 H 0.99838 0.14127 0.86451 0.0
H268 H 0.01826 0.17564 0.81729 0.0
H269 H 0.9949 0.23785 0.8879 0.0
H270 H 0.97434 0.20308 0.9346 0.0
H271 H 0.94169 0.24051 0.90135 0.0
H272 H 0.82399 0.15554 0.74985 0.0
H273 H 0.81282 0.10258 0.81843 0.0
H274 H 0.93563 0.1288 0.91278 0.0
C275 C 0.96873 0.23076 0.74757 0.0
C276 C 0.95409 0.24023 0.6884 0.0
C277 C 0.91241 0.23102 0.66522 0.0
C278 C 0.88618 0.21122 0.69945 0.0
C279 C 0.90228 0.20018 0.75648 0.0
C280 C 0.94274 0.20994 0.78033 0.0
C281 C 0.95536 0.18822 0.83605 0.0
C282 C 0.99039 0.15846 0.82456 0.0
C283 C 0.96725 0.21928 0.89338 0.0
C284 C 0.91603 0.16476 0.84018 0.0
C285 C 0.88542 0.17202 0.79442 0.0
C286 C 0.84764 0.15035 0.78645 0.0
C287 C 0.84148 0.1203 0.82556 0.0
C288 C 0.8733 0.11161 0.87102 0.0
C289 C 0.91054 0.13487 0.87875 0.0
H290 H 0.91596 0.85609 0.3632 0.0
H291 H 1.00724 0.78596 0.2723 0.0
H292 H 0.9727 0.80036 0.17202 0.0
H293 H 0.82833 0.82243 0.21697 0.0
H294 H 0.80314 0.87017 0.23462 0.0
H295 H 0.82689 0.84333 0.29571 0.0
H296 H 0.86286 0.90922 0.33826 0.0
H297 H 0.84951 0.9379 0.27479 0.0
H298 H 0.90248 0.92988 0.30196 0.0
H299 H 0.93922 0.83337 0.08704 0.0
H300 H 0.90946 0.88246 0.02097 0.0
H301 H 0.83797 0.93376 0.16329 0.0
C302 C 0.92706 0.84175 0.32177 0.0
C303 C 0.96389 0.81918 0.32521 0.0
C304 C 0.97859 0.8022 0.27054 0.0
C305 C 0.95911 0.81034 0.21338 0.0
C306 C 0.92393 0.83408 0.21151 0.0
C307 C 0.90681 0.8482 0.26399 0.0
C308 C 0.8704 0.87549 0.24862 0.0
C309 C 0.82981 0.85142 0.24899 0.0
C310 C 0.87145 0.91554 0.29308 0.0
C311 C 0.876 0.88178 0.1827 0.0
C312 C 0.90478 0.85475 0.16138 0.0
C313 C 0.91623 0.85413 0.10284 0.0
C314 C 0.8992 0.88256 0.06557 0.0
C315 C 0.87177 0.91256 0.08679 0.0
C316 C 0.8586 0.91106 0.1455 0.0
H317 H 0.08483 0.91683 0.69086 0.0
H318 H 0.16989 0.8211 0.64496 0.0
H319 H 0.21479 0.84389 0.74223 0.0
H320 H 0.15749 0.99453 0.76084 0.0
H321 H 0.12694 1.01333 0.82037 0.0
H322 H 0.10218 0.98936 0.74755 0.0
H323 H 0.06475 0.93705 0.80251 0.0
H324 H 0.0892 0.96108 0.87553 0.0
H325 H 0.09444 0.90682 0.8539 0.0
H326 H 0.25296 0.88206 0.84301 0.0
H327 H 0.27567 0.92528 0.94181 0.0
H328 H 0.16181 0.99114 0.92342 0.0
C329 C 0.11287 0.90054 0.70134 0.0
C330 C 0.12413 0.8674 0.66014 0.0
C331 C 0.16071 0.84652 0.67592 0.0
C332 C 0.18643 0.85942 0.73092 0.0
C333 C 0.17465 0.89267 0.77022 0.0
C334 C 0.13821 0.91233 0.75646 0.0
C335 C 0.13149 0.94629 0.8068 0.0
C336 C 0.12942 0.98835 0.78242 0.0
C337 C 0.09268 0.93725 0.83643 0.0
C338 C 0.17014 0.94327 0.85081 0.0
C339 C 0.19504 0.91258 0.82887 0.0
C340 C 0.23333 0.90573 0.86084 0.0
C341 C 0.24611 0.9305 0.91676 0.0
C342 C 0.22034 0.96119 0.94068 0.0
C343 C 0.18195 0.96746 0.9069 0.0
H344 H 0.84205 0.96529 0.75319 0.0
H345 H 0.85138 0.87537 0.88145 0.0
H346 H 0.87524 0.82422 0.80268 0.0
H347 H 0.81371 0.88739 0.6075 0.0
H348 H 0.84375 0.91674 0.56415 0.0
H349 H 0.81709 0.94261 0.6238 0.0
H350 H 0.88472 0.97833 0.67688 0.0
H351 H 0.9123 0.95351 0.61829 0.0
H352 H 0.92837 0.94763 0.69749 0.0
H353 H 0.91556 0.79011 0.71994 0.0
H354 H 0.96274 0.77602 0.64032 0.0
H355 H 0.92329 0.88684 0.56434 0.0
C356 C 0.84632 0.93393 0.76295 0.0
C357 C 0.84347 0.92367 0.82234 0.0
C358 C 0.85175 0.88316 0.83525 0.0
C359 C 0.86574 0.85405 0.79088 0.0
C360 C 0.87051 0.86575 0.73341 0.0
C361 C 0.85982 0.9045 0.71885 0.0
C362 C 0.87259 0.91163 0.65734 0.0
C363 C 0.83454 0.91478 0.61043 0.0
C364 C 0.90119 0.94999 0.66292 0.0
C365 C 0.89517 0.87242 0.642 0.0
C366 C 0.89306 0.84577 0.68548 0.0
C367 C 0.91627 0.81012 0.68453 0.0
C368 C 0.94297 0.80221 0.63909 0.0
C369 C 0.94648 0.83014 0.59585 0.0
C370 C 0.92094 0.86462 0.5963 0.0
H371 H 0.24215 0.89384 0.16193 0.0
H372 H 0.30338 0.99129 0.2912 0.0
H373 H 0.27744 0.96085 0.37607 0.0
H374 H 0.16012 0.88266 0.20269 0.0
H375 H 0.14957 0.82923 0.20764 0.0
H376 H 0.18561 0.84394 0.15845 0.0
H377 H 0.24513 0.80686 0.20796 0.0
H378 H 0.21004 0.78612 0.25421 0.0
H379 H 0.25699 0.81228 0.2902 0.0
H380 H 0.22872 0.93475 0.4387 0.0
H381 H 0.16898 0.90747 0.48016 0.0
H382 H 0.14052 0.82209 0.31467 0.0
C383 C 0.25283 0.90663 0.20863 0.0
C384 C 0.27569 0.94435 0.22026 0.0
C385 C 0.28729 0.96172 0.28153 0.0
C386 C 0.27225 0.94475 0.33007 0.0
C387 C 0.24724 0.90927 0.31685 0.0
C388 C 0.2395 0.88883 0.25807 0.0
C389 C 0.20897 0.85301 0.25637 0.0
C390 C 0.17392 0.85221 0.20334 0.0
C391 C 0.23163 0.81216 0.25195 0.0
C392 C 0.19454 0.8621 0.31953 0.0
C393 C 0.21894 0.89316 0.35456 0.0
C394 C 0.21042 0.90945 0.41264 0.0
C395 C 0.17622 0.89392 0.43569 0.0
C396 C 0.15056 0.86234 0.40109 0.0
C397 C 0.16029 0.84556 0.3426 0.0
H398 H 0.07974 0.18907 0.78872 0.0
H399 H 0.18029 0.25741 0.73512 0.0
H400 H 0.22579 0.23888 0.82556 0.0
H401 H 0.10889 0.21532 0.96022 0.0
H402 H 0.09064 0.16535 0.97302 0.0
H403 H 0.06651 0.18997 0.91 0.0
H404 H 0.08011 0.12474 0.83572 0.0
H405 H 0.10521 0.1012 0.89891 0.0
H406 H 0.13208 0.10758 0.83399 0.0
H407 H 0.26228 0.20177 0.91281 0.0
H408 H 0.28392 0.15679 0.99289 0.0
H409 H 0.15672 0.11819 0.99193 0.0
C410 C 0.11083 0.20149 0.79762 0.0
C411 C 0.12639 0.22505 0.75585 0.0
C412 C 0.16764 0.23994 0.76743 0.0
C413 C 0.19365 0.22934 0.81846 0.0
C414 C 0.17745 0.20484 0.85801 0.0
C415 C 0.13653 0.19213 0.84884 0.0
C416 C 0.1266 0.1645 0.89549 0.0
C417 C 0.09637 0.185 0.93712 0.0
C418 C 0.11005 0.12202 0.86414 0.0
C419 C 0.16871 0.16179 0.93073 0.0
C420 C 0.1978 0.18527 0.90892 0.0
C421 C 0.23949 0.18421 0.9312 0.0
C422 C 0.25155 0.15851 0.97656 0.0
C423 C 0.22197 0.13451 0.9995 0.0
C424 C 0.18005 0.1369 0.97665 0.0
H425 H 0.96323 0.09582 0.13988 0.0
H426 H 0.83311 0.11076 0.15414 0.0
H427 H 0.85021 0.16102 0.24638 0.0
H428 H 0.99811 0.09751 0.29482 0.0
H429 H 0.04437 0.1275 0.29428 0.0
H430 H 0.0221 0.09694 0.22529 0.0
H431 H 0.01941 0.16071 0.16786 0.0
H432 H 0.04153 0.19183 0.23705 0.0
H433 H 0.99343 0.20564 0.19717 0.0
H434 H 0.88132 0.20461 0.34356 0.0
H435 H 0.92393 0.23316 0.43997 0.0
H436 H 0.03337 0.18948 0.36404 0.0
C437 C 0.93827 0.10989 0.16205 0.0
C438 C 0.89668 0.09923 0.13918 0.0
C439 C 0.86515 0.11839 0.17013 0.0
C440 C 0.87458 0.14727 0.22252 0.0
C441 C 0.91578 0.15717 0.24369 0.0
C442 C 0.94717 0.13883 0.21458 0.0
C443 C 0.98892 0.15299 0.24885 0.0
C444 C 1.01479 0.11652 0.26692 0.0
C445 C 1.01218 0.17936 0.21044 0.0
C446 C 0.976 0.17908 0.30452 0.0
C447 C 0.93373 0.18267 0.29943 0.0
C448 C 0.91449 0.20307 0.34712 0.0
C449 C 0.93888 0.2194 0.40167 0.0
C450 C 0.98195 0.21471 0.4085 0.0
C451 C 1.00063 0.19476 0.35895 0.0
loop_
_geom_bond_atom_site_label_1
_geom_bond_atom_site_label_2
_geom_bond_distance
_geom_bond_site_symmetry_2
_ccdc_geom_bond_type
Zn0 O1 2.055 1_544 S
Zn0 O8 2.046 1_545 S
Zn0 N16 2.036 . S
Zn0 O28 2.053 . S
Zn0 O30 2.066 . S
O1 Zn0 2.055 1_566 S
O1 C4 1.259 . S
C2 O30 1.256 1_556 S
C2 O31 1.244 . S
Zn3 O5 2.046 1_544 S
Zn3 O7 2.055 1_545 S
Zn3 N9 2.036 . S
Zn3 O27 2.066 . S
Zn3 O31 2.053 1_554 S
C4 O1 1.259 . S
C4 O5 1.254 . S
O5 Zn3 2.046 1_566 S
O5 C4 1.254 . S
C6 O27 1.256 . S
C6 O28 1.244 . S
O7 Zn3 2.055 1_565 S
O7 C29 1.259 . S
O8 Zn0 2.046 1_565 S
O8 C29 1.254 . S
N9 Zn3 2.036 . S
N9 C10 1.298 . S
N9 N12 1.398 1_554 S
C10 N9 1.298 . S
C10 N13 1.367 . S
C10 C23 1.481 1_545 S
C11 N12 1.299 . S
C11 N13 1.379 1_556 S
N12 N9 1.398 1_556 S
N12 C11 1.299 . S
N13 C10 1.367 . S
N13 C11 1.379 1_554 S
C14 N16 1.298 . S
C14 N18 1.367 . S
C14 C22 1.481 1_544 S
C15 N17 1.299 . S
C15 N18 1.379 . S
N16 Zn0 2.036 . S
N16 C14 1.298 . S
N16 N17 1.398 . S
N17 C15 1.299 . S
N17 N16 1.398 . S
N18 C14 1.367 . S
N18 C15 1.379 . S
H19 C22 0.980 . S
H20 C22 0.981 . S
H21 C22 0.981 1_545 S
C22 C14 1.481 1_566 S
C22 H19 0.980 . S
C22 H20 0.981 . S
C22 H21 0.981 1_565 S
C23 C10 1.481 1_565 S
C23 H24 0.980 . S
C23 H25 0.981 . S
C23 H26 0.981 1_565 S
H24 C23 0.980 . S
H25 C23 0.981 . S
H26 C23 0.981 1_545 S
O27 Zn3 2.066 . S
O27 C6 1.256 . S
O28 Zn0 2.053 . S
O28 C6 1.244 . S
C29 O7 1.259 . S
C29 O8 1.254 . S
O30 Zn0 2.066 . S
O30 C2 1.256 1_554 S
O31 C2 1.244 . S
O31 Zn3 2.053 1_556 S
Zn32 O33 2.055 . S
Zn32 O40 2.046 . S
Zn32 N48 2.036 . S
Zn32 O60 2.053 1_455 S
Zn32 O62 2.066 1_455 S
O33 Zn32 2.055 . S
O33 C36 1.259 . S
C34 O62 1.256 . S
C34 O63 1.244 . S
Zn35 O37 2.046 . S
Zn35 O39 2.055 . S
Zn35 N41 2.036 . S
Zn35 O59 2.066 1_455 S
Zn35 O63 2.053 1_455 S
C36 O33 1.259 . S
C36 O37 1.254 . S
O37 Zn35 2.046 . S
O37 C36 1.254 . S
C38 O59 1.256 . S
C38 O60 1.244 . S
O39 Zn35 2.055 . S
O39 C61 1.259 . S
O40 Zn32 2.046 . S
O40 C61 1.254 . S
N41 Zn35 2.036 . S
N41 C42 1.298 . S
N41 N44 1.398 . S
C42 N41 1.298 . S
C42 N45 1.367 . S
C42 C55 1.481 . S
C43 N44 1.299 . S
C43 N45 1.379 . S
N44 N41 1.398 . S
N44 C43 1.299 . S
N45 C42 1.367 . S
N45 C43 1.379 . S
C46 N48 1.298 . S
C46 N50 1.367 . S
C46 C54 1.481 . S
C47 N49 1.299 . S
C47 N50 1.379 . S
N48 Zn32 2.036 . S
N48 C46 1.298 . S
N48 N49 1.398 . S
N49 C47 1.299 . S
N49 N48 1.398 . S
N50 C46 1.367 . S
N50 C47 1.379 . S
H51 C54 0.980 . S
H52 C54 0.981 . S
H53 C54 0.981 . S
C54 C46 1.481 . S
C54 H51 0.980 . S
C54 H52 0.981 . S
C54 H53 0.981 . S
C55 C42 1.481 . S
C55 H56 0.980 . S
C55 H57 0.981 . S
C55 H58 0.981 . S
H56 C55 0.980 . S
H57 C55 0.981 . S
H58 C55 0.981 . S
O59 Zn35 2.066 1_655 S
O59 C38 1.256 . S
O60 Zn32 2.053 1_655 S
O60 C38 1.244 . S
C61 O39 1.259 . S
C61 O40 1.254 . S
O62 Zn32 2.066 1_655 S
O62 C34 1.256 . S
O63 C34 1.244 . S
O63 Zn35 2.053 1_655 S
Zn64 O65 2.063 1_554 S
Zn64 O72 2.058 . S
Zn64 N80 2.035 1_565 S
Zn64 O92 2.044 1_565 S
Zn64 O94 2.054 1_564 S
O65 Zn64 2.063 1_556 S
O65 C68 1.259 . S
C66 O94 1.256 . S
C66 O95 1.244 . S
Zn67 O69 2.046 . S
Zn67 O71 2.055 1_556 S
Zn67 N73 2.036 1_565 S
Zn67 O91 2.066 1_566 S
Zn67 O95 2.053 1_565 S
C68 O65 1.259 . S
C68 O69 1.254 . S
O69 Zn67 2.046 . S
O69 C68 1.254 . S
C70 O91 1.256 . S
C70 O92 1.244 . S
O71 Zn67 2.055 1_554 S
O71 C93 1.259 . S
O72 Zn64 2.058 . S
O72 C93 1.254 . S
N73 Zn67 2.036 1_545 S
N73 C74 1.299 1_556 S
N73 N76 1.398 . S
C74 N73 1.299 1_554 S
C74 N77 1.370 1_554 S
C74 C87 1.477 1_545 S
C75 N76 1.299 . S
C75 N77 1.379 . S
N76 N73 1.398 . S
N76 C75 1.299 . S
N77 C74 1.370 1_556 S
N77 C75 1.379 . S
C78 N80 1.298 1_556 S
C78 N82 1.367 1_556 S
C78 C86 1.481 1_545 S
C79 N81 1.299 . S
C79 N82 1.379 . S
N80 Zn64 2.035 1_545 S
N80 C78 1.298 1_554 S
N80 N81 1.398 . S
N81 C79 1.299 . S
N81 N80 1.398 . S
N82 C78 1.367 1_554 S
N82 C79 1.379 . S
H83 C86 0.980 . S
H84 C86 0.981 . S
H85 C86 0.981 1_545 S
C86 C78 1.481 1_565 S
C86 H83 0.980 . S
C86 H84 0.981 . S
C86 H85 0.981 1_565 S
C87 C74 1.477 1_565 S
C87 H88 0.980 . S
C87 H89 0.981 . S
C87 H90 0.981 1_565 S
H88 C87 0.980 . S
H89 C87 0.981 . S
H90 C87 0.981 1_545 S
O91 Zn67 2.066 1_544 S
O91 C70 1.256 . S
O92 Zn64 2.044 1_545 S
O92 C70 1.244 . S
C93 O71 1.259 . S
C93 O72 1.254 . S
O94 Zn64 2.054 1_546 S
O94 C66 1.256 . S
O95 C66 1.244 . S
O95 Zn67 2.053 1_545 S
Zn96 O97 2.055 . S
Zn96 O104 2.046 . S
Zn96 N112 2.036 . S
Zn96 O124 2.053 1_455 S
Zn96 O126 2.066 1_455 S
O97 Zn96 2.055 . S
O97 C100 1.259 . S
C98 O126 1.256 . S
C98 O127 1.244 . S
Zn99 O101 2.046 . S
Zn99 O103 2.055 . S
Zn99 N105 2.036 . S
Zn99 O123 2.066 1_455 S
Zn99 O127 2.053 1_455 S
C100 O97 1.259 . S
C100 O101 1.254 . S
O101 Zn99 2.046 . S
O101 C100 1.254 . S
C102 O123 1.256 . S
C102 O124 1.244 . S
O103 Zn99 2.055 . S
O103 C125 1.259 . S
O104 Zn96 2.046 . S
O104 C125 1.254 . S
N105 Zn99 2.036 . S
N105 C106 1.298 . S
N105 N108 1.398 . S
C106 N105 1.298 . S
C106 N109 1.367 . S
C106 C119 1.481 . S
C107 N108 1.300 1_655 S
C107 N109 1.379 1_655 S
N108 N105 1.398 . S
N108 C107 1.300 1_455 S
N109 C106 1.367 . S
N109 C107 1.379 1_455 S
C110 N112 1.298 . S
C110 N114 1.367 . S
C110 C118 1.481 . S
C111 N113 1.297 1_655 S
C111 N114 1.374 1_655 S
N112 Zn96 2.036 . S
N112 C110 1.298 . S
N112 N113 1.398 . S
N113 C111 1.297 1_455 S
N113 N112 1.398 . S
N114 C110 1.367 . S
N114 C111 1.374 1_455 S
H115 C118 0.980 . S
H116 C118 0.981 . S
H117 C118 0.981 . S
C118 C110 1.481 . S
C118 H115 0.980 . S
C118 H116 0.981 . S
C118 H117 0.981 . S
C119 C106 1.481 . S
C119 H120 0.980 . S
C119 H121 0.981 . S
C119 H122 0.981 . S
H120 C119 0.980 . S
H121 C119 0.981 . S
H122 C119 0.981 . S
O123 Zn99 2.066 1_655 S
O123 C102 1.256 . S
O124 Zn96 2.053 1_655 S
O124 C102 1.244 . S
C125 O103 1.259 . S
C125 O104 1.254 . S
O126 Zn96 2.066 1_655 S
O126 C98 1.256 . S
O127 C98 1.244 . S
O127 Zn99 2.053 1_655 S
H128 C140 0.930 . S
H129 C142 0.930 . S
H130 C143 0.930 . S
H131 C147 0.959 . S
H132 C147 0.959 . S
H133 C147 0.961 . S
H134 C148 0.960 . S
H135 C148 0.961 . S
H136 C148 0.959 . S
H137 C151 0.929 . S
H138 C152 0.931 . S
H139 C154 0.930 . S
C140 H128 0.930 . S
C140 C141 1.399 . S
C140 C145 1.400 . S
C141 C140 1.399 . S
C141 C142 1.376 1_545 S
C142 H129 0.930 . S
C142 C141 1.376 1_565 S
C142 C143 1.388 1_655 S
C143 H130 0.930 . S
C143 C142 1.388 1_455 S
C143 C144 1.375 1_566 S
C144 C143 1.375 1_544 S
C144 C145 1.413 1_454 S
C144 C150 1.465 . S
C145 C140 1.400 . S
C145 C144 1.413 1_656 S
C145 C146 1.516 1_656 S
C146 C145 1.516 1_454 S
C146 C147 1.502 . S
C146 C148 1.561 1_455 S
C146 C149 1.526 . S
C147 H131 0.959 . S
C147 H132 0.959 . S
C147 H133 0.961 . S
C147 C146 1.502 . S
C148 H134 0.960 . S
C148 H135 0.961 . S
C148 H136 0.959 . S
C148 C146 1.561 1_655 S
C149 C146 1.526 . S
C149 C150 1.396 . S
C149 C154 1.390 . S
C150 C144 1.465 . S
C150 C149 1.396 . S
C150 C151 1.399 1_545 S
C151 H137 0.929 . S
C151 C150 1.399 1_565 S
C151 C152 1.385 . S
C152 H138 0.931 . S
C152 C151 1.385 . S
C152 C153 1.389 1_565 S
C153 C152 1.389 1_545 S
C153 C154 1.387 . S
C154 H139 0.930 . S
C154 C149 1.390 . S
C154 C153 1.387 . S
H155 C167 0.930 . S
H156 C169 0.930 . S
H157 C170 0.930 . S
H158 C174 0.959 . S
H159 C174 0.959 . S
H160 C174 0.961 . S
H161 C175 0.960 . S
H162 C175 0.961 1_455 S
H163 C175 0.959 . S
H164 C178 0.929 1_565 S
H165 C179 0.931 1_655 S
H166 C181 0.930 . S
C167 H155 0.930 . S
C167 C168 1.399 1_455 S
C167 C172 1.399 . S
C168 C167 1.399 1_655 S
C168 C169 1.376 . S
C169 H156 0.930 . S
C169 C168 1.376 . S
C169 C170 1.388 . S
C170 H157 0.930 . S
C170 C169 1.388 . S
C170 C171 1.390 . S
C171 C170 1.390 . S
C171 C172 1.394 1_655 S
C171 C177 1.465 1_665 S
C172 C167 1.399 . S
C172 C171 1.394 1_455 S
C172 C173 1.516 1_565 S
C173 C172 1.516 1_545 S
C173 C174 1.502 . S
C173 C175 1.561 1_455 S
C173 C176 1.526 . S
C174 H158 0.959 . S
C174 H159 0.959 . S
C174 H160 0.961 . S
C174 C173 1.502 . S
C175 H161 0.960 . S
C175 H162 0.961 1_655 S
C175 H163 0.959 . S
C175 C173 1.561 1_655 S
C176 C173 1.526 . S
C176 C177 1.396 . S
C176 C181 1.390 . S
C177 C171 1.465 1_445 S
C177 C176 1.396 . S
C177 C178 1.399 1_455 S
C178 H164 0.929 1_545 S
C178 C177 1.399 1_655 S
C178 C179 1.385 1_655 S
C179 H165 0.931 1_455 S
C179 C178 1.385 1_455 S
C179 C180 1.389 . S
C180 C179 1.389 . S
C180 C181 1.387 . S
C181 H166 0.930 . S
C181 C176 1.390 . S
C181 C180 1.387 . S
H182 C194 0.930 . S
H183 C196 0.930 . S
H184 C197 0.930 . S
H185 C201 0.959 . S
H186 C201 0.959 . S
H187 C201 0.961 . S
H188 C202 0.960 . S
H189 C202 0.961 . S
H190 C202 0.959 . S
H191 C205 0.929 . S
H192 C206 0.931 . S
H193 C208 0.930 . S
C194 H182 0.930 . S
C194 C195 1.399 . S
C194 C199 1.399 . S
C195 C194 1.399 . S
C195 C196 1.376 1_545 S
C196 H183 0.930 . S
C196 C195 1.376 1_565 S
C196 C197 1.388 . S
C197 H184 0.930 . S
C197 C196 1.388 . S
C197 C198 1.413 . S
C198 C197 1.413 . S
C198 C199 1.365 1_565 S
C198 C204 1.465 1_565 S
C199 C194 1.399 . S
C199 C198 1.365 1_545 S
C199 C200 1.516 . S
C200 C199 1.516 . S
C200 C201 1.502 . S
C200 C202 1.561 1_554 S
C200 C203 1.526 . S
C201 H185 0.959 . S
C201 H186 0.959 . S
C201 H187 0.961 . S
C201 C200 1.502 . S
C202 H188 0.960 . S
C202 H189 0.961 . S
C202 H190 0.959 . S
C202 C200 1.561 1_556 S
C203 C200 1.526 . S
C203 C204 1.403 . S
C203 C208 1.390 . S
C204 C198 1.465 1_545 S
C204 C203 1.403 . S
C204 C205 1.393 1_545 S
C205 H191 0.929 . S
C205 C204 1.393 1_565 S
C205 C206 1.385 . S
C206 H192 0.931 . S
C206 C205 1.385 . S
C206 C207 1.389 1_565 S
C207 C206 1.389 1_545 S
C207 C208 1.387 . S
C208 H193 0.930 . S
C208 C203 1.390 . S
C208 C207 1.387 . S
H209 C221 0.930 . S
H210 C223 0.930 . S
H211 C224 0.930 . S
H212 C228 0.959 . S
H213 C228 0.959 . S
H214 C228 0.961 . S
H215 C229 0.960 1_455 S
H216 C229 0.961 1_455 S
H217 C229 0.959 . S
H218 C232 0.929 . S
H219 C233 0.931 . S
H220 C235 0.930 . S
C221 H209 0.930 . S
C221 C222 1.399 . S
C221 C226 1.399 . S
C222 C221 1.399 . S
C222 C223 1.376 1_455 S
C223 H210 0.930 . S
C223 C222 1.376 1_655 S
C223 C224 1.388 . S
C224 H211 0.930 . S
C224 C223 1.388 . S
C224 C225 1.390 1_655 S
C225 C224 1.390 1_455 S
C225 C226 1.394 . S
C225 C231 1.465 . S
C226 C221 1.399 . S
C226 C225 1.394 . S
C226 C227 1.516 . S
C227 C226 1.516 . S
C227 C228 1.502 . S
C227 C229 1.561 1_455 S
C227 C230 1.526 . S
C228 H212 0.959 . S
C228 H213 0.959 . S
C228 H214 0.961 . S
C228 C227 1.502 . S
C229 H215 0.960 1_655 S
C229 H216 0.961 1_655 S
C229 H217 0.959 . S
C229 C227 1.561 1_655 S
C230 C227 1.526 . S
C230 C231 1.396 . S
C230 C235 1.390 . S
C231 C225 1.465 . S
C231 C230 1.396 . S
C231 C232 1.399 1_455 S
C232 H218 0.929 . S
C232 C231 1.399 1_655 S
C232 C233 1.385 . S
C233 H219 0.931 . S
C233 C232 1.385 . S
C233 C234 1.389 1_655 S
C234 C233 1.389 1_455 S
C234 C235 1.387 . S
C235 H220 0.930 . S
C235 C230 1.390 . S
C235 C234 1.387 . S
H236 C248 0.930 . S
H237 C250 0.930 . S
H238 C251 0.930 . S
H239 C255 0.959 . S
H240 C255 0.959 . S
H241 C255 0.961 . S
H242 C256 0.960 . S
H243 C256 0.961 . S
H244 C256 0.959 . S
H245 C259 0.929 . S
H246 C260 0.931 . S
H247 C262 0.930 . S
C248 H236 0.930 . S
C248 C249 1.399 . S
C248 C253 1.399 . S
C249 C248 1.399 . S
C249 C250 1.376 . S
C250 H237 0.930 . S
C250 C249 1.376 . S
C250 C251 1.388 . S
C251 H238 0.930 . S
C251 C250 1.388 . S
C251 C252 1.390 . S
C252 C251 1.390 . S
C252 C253 1.394 . S
C252 C258 1.465 . S
C253 C248 1.399 . S
C253 C252 1.394 . S
C253 C254 1.516 . S
C254 C253 1.516 . S
C254 C255 1.502 . S
C254 C256 1.561 . S
C254 C257 1.526 . S
C255 H239 0.959 . S
C255 H240 0.959 . S
C255 H241 0.961 . S
C255 C254 1.502 . S
C256 H242 0.960 . S
C256 H243 0.961 . S
C256 H244 0.959 . S
C256 C254 1.561 . S
C257 C254 1.526 . S
C257 C258 1.396 . S
C257 C262 1.390 . S
C258 C252 1.465 . S
C258 C257 1.396 . S
C258 C259 1.399 . S
C259 H245 0.929 . S
C259 C258 1.399 . S
C259 C260 1.385 . S
C260 H246 0.931 . S
C260 C259 1.385 . S
C260 C261 1.389 . S
C261 C260 1.389 . S
C261 C262 1.387 . S
C262 H247 0.930 . S
C262 C257 1.390 . S
C262 C261 1.387 . S
H263 C275 0.930 . S
H264 C277 0.930 . S
H265 C278 0.930 . S
H266 C282 0.959 . S
H267 C282 0.959 . S
H268 C282 0.961 . S
H269 C283 0.960 . S
H270 C283 0.961 . S
H271 C283 0.959 . S
H272 C286 0.929 . S
H273 C287 0.931 . S
H274 C289 0.930 . S
C275 H263 0.930 . S
C275 C276 1.399 . S
C275 C280 1.399 . S
C276 C275 1.399 . S
C276 C277 1.376 . S
C277 H264 0.930 . S
C277 C276 1.376 . S
C277 C278 1.388 . S
C278 H265 0.930 . S
C278 C277 1.388 . S
C278 C279 1.390 . S
C279 C278 1.390 . S
C279 C280 1.394 . S
C279 C285 1.465 . S
C280 C275 1.399 . S
C280 C279 1.394 . S
C280 C281 1.516 . S
C281 C280 1.516 . S
C281 C282 1.502 . S
C281 C283 1.561 . S
C281 C284 1.526 . S
C282 H266 0.959 . S
C282 H267 0.959 . S
C282 H268 0.961 . S
C282 C281 1.502 . S
C283 H269 0.960 . S
C283 H270 0.961 . S
C283 H271 0.959 . S
C283 C281 1.561 . S
C284 C281 1.526 . S
C284 C285 1.396 . S
C284 C289 1.390 . S
C285 C279 1.465 . S
C285 C284 1.396 . S
C285 C286 1.399 . S
C286 H272 0.929 . S
C286 C285 1.399 . S
C286 C287 1.385 . S
C287 H273 0.931 . S
C287 C286 1.385 . S
C287 C288 1.389 . S
C288 C287 1.389 . S
C288 C289 1.387 . S
C289 H274 0.930 . S
C289 C284 1.390 . S
C289 C288 1.387 . S
H290 C302 0.930 . S
H291 C304 0.930 . S
H292 C305 0.930 . S
H293 C309 0.959 . S
H294 C309 0.959 . S
H295 C309 0.961 . S
H296 C310 0.960 . S
H297 C310 0.961 . S
H298 C310 0.959 . S
H299 C313 0.929 . S
H300 C314 0.931 . S
H301 C316 0.930 . S
C302 H290 0.930 . S
C302 C303 1.399 . S
C302 C307 1.399 . S
C303 C302 1.399 . S
C303 C304 1.376 . S
C304 H291 0.930 . S
C304 C303 1.376 . S
C304 C305 1.388 . S
C305 H292 0.930 . S
C305 C304 1.388 . S
C305 C306 1.390 . S
C306 C305 1.390 . S
C306 C307 1.394 . S
C306 C312 1.465 . S
C307 C302 1.399 . S
C307 C306 1.394 . S
C307 C308 1.516 . S
C308 C307 1.516 . S
C308 C309 1.502 . S
C308 C310 1.561 . S
C308 C311 1.526 . S
C309 H293 0.959 . S
C309 H294 0.959 . S
C309 H295 0.961 . S
C309 C308 1.502 . S
C310 H296 0.960 . S
C310 H297 0.961 . S
C310 H298 0.959 . S
C310 C308 1.561 . S
C311 C308 1.526 . S
C311 C312 1.396 . S
C311 C316 1.390 . S
C312 C306 1.465 . S
C312 C311 1.396 . S
C312 C313 1.399 . S
C313 H299 0.929 . S
C313 C312 1.399 . S
C313 C314 1.385 . S
C314 H300 0.931 . S
C314 C313 1.385 . S
C314 C315 1.389 . S
C315 C314 1.389 . S
C315 C316 1.387 . S
C316 H301 0.930 . S
C316 C311 1.390 . S
C316 C315 1.387 . S
H317 C329 0.930 . S
H318 C331 0.930 . S
H319 C332 0.930 . S
H320 C336 0.959 . S
H321 C336 0.959 . S
H322 C336 0.961 . S
H323 C337 0.960 . S
H324 C337 0.961 . S
H325 C337 0.959 . S
H326 C340 0.929 . S
H327 C341 0.931 . S
H328 C343 0.930 . S
C329 H317 0.930 . S
C329 C330 1.399 . S
C329 C334 1.399 . S
C330 C329 1.399 . S
C330 C331 1.376 . S
C331 H318 0.930 . S
C331 C330 1.376 . S
C331 C332 1.388 . S
C332 H319 0.930 . S
C332 C331 1.388 . S
C332 C333 1.390 . S
C333 C332 1.390 . S
C333 C334 1.394 . S
C333 C339 1.465 . S
C334 C329 1.399 . S
C334 C333 1.394 . S
C334 C335 1.516 . S
C335 C334 1.516 . S
C335 C336 1.502 . S
C335 C337 1.561 . S
C335 C338 1.526 . S
C336 H320 0.959 . S
C336 H321 0.959 . S
C336 H322 0.961 . S
C336 C335 1.502 . S
C337 H323 0.960 . S
C337 H324 0.961 . S
C337 H325 0.959 . S
C337 C335 1.561 . S
C338 C335 1.526 . S
C338 C339 1.396 . S
C338 C343 1.390 . S
C339 C333 1.465 . S
C339 C338 1.396 . S
C339 C340 1.399 . S
C340 H326 0.929 . S
C340 C339 1.399 . S
C340 C341 1.385 . S
C341 H327 0.931 . S
C341 C340 1.385 . S
C341 C342 1.389 . S
C342 C341 1.389 . S
C342 C343 1.387 . S
C343 H328 0.930 . S
C343 C338 1.390 . S
C343 C342 1.387 . S
H344 C356 0.930 . S
H345 C358 0.930 . S
H346 C359 0.930 . S
H347 C363 0.959 . S
H348 C363 0.959 . S
H349 C363 0.961 . S
H350 C364 0.960 . S
H351 C364 0.961 . S
H352 C364 0.959 . S
H353 C367 0.929 . S
H354 C368 0.931 . S
H355 C370 0.930 . S
C356 H344 0.930 . S
C356 C357 1.399 . S
C356 C361 1.399 . S
C357 C356 1.399 . S
C357 C358 1.376 . S
C358 H345 0.930 . S
C358 C357 1.376 . S
C358 C359 1.388 . S
C359 H346 0.930 . S
C359 C358 1.388 . S
C359 C360 1.390 . S
C360 C359 1.390 . S
C360 C361 1.394 . S
C360 C366 1.465 . S
C361 C356 1.399 . S
C361 C360 1.394 . S
C361 C362 1.516 . S
C362 C361 1.516 . S
C362 C363 1.502 . S
C362 C364 1.561 . S
C362 C365 1.526 . S
C363 H347 0.959 . S
C363 H348 0.959 . S
C363 H349 0.961 . S
C363 C362 1.502 . S
C364 H350 0.960 . S
C364 H351 0.961 . S
C364 H352 0.959 . S
C364 C362 1.561 . S
C365 C362 1.526 . S
C365 C366 1.396 . S
C365 C370 1.390 . S
C366 C360 1.465 . S
C366 C365 1.396 . S
C366 C367 1.399 . S
C367 H353 0.929 . S
C367 C366 1.399 . S
C367 C368 1.385 . S
C368 H354 0.931 . S
C368 C367 1.385 . S
C368 C369 1.389 . S
C369 C368 1.389 . S
C369 C370 1.387 . S
C370 H355 0.930 . S
C370 C365 1.390 . S
C370 C369 1.387 . S
H371 C383 0.930 . S
H372 C385 0.930 . S
H373 C386 0.930 . S
H374 C390 0.959 . S
H375 C390 0.959 . S
H376 C390 0.961 . S
H377 C391 0.960 . S
H378 C391 0.961 . S
H379 C391 0.959 . S
H380 C394 0.929 . S
H381 C395 0.931 . S
H382 C397 0.930 . S
C383 H371 0.930 . S
C383 C384 1.399 . S
C383 C388 1.399 . S
C384 C383 1.399 . S
C384 C385 1.376 . S
C385 H372 0.930 . S
C385 C384 1.376 . S
C385 C386 1.388 . S
C386 H373 0.930 . S
C386 C385 1.388 . S
C386 C387 1.390 . S
C387 C386 1.390 . S
C387 C388 1.394 . S
C387 C393 1.465 . S
C388 C383 1.399 . S
C388 C387 1.394 . S
C388 C389 1.516 . S
C389 C388 1.516 . S
C389 C390 1.502 . S
C389 C391 1.561 . S
C389 C392 1.526 . S
C390 H374 0.959 . S
C390 H375 0.959 . S
C390 H376 0.961 . S
C390 C389 1.502 . S
C391 H377 0.960 . S
C391 H378 0.961 . S
C391 H379 0.959 . S
C391 C389 1.561 . S
C392 C389 1.526 . S
C392 C393 1.396 . S
C392 C397 1.390 . S
C393 C387 1.465 . S
C393 C392 1.396 . S
C393 C394 1.399 . S
C394 H380 0.929 . S
C394 C393 1.399 . S
C394 C395 1.385 . S
C395 H381 0.931 . S
C395 C394 1.385 . S
C395 C396 1.389 . S
C396 C395 1.389 . S
C396 C397 1.387 . S
C397 H382 0.930 . S
C397 C392 1.390 . S
C397 C396 1.387 . S
H398 C410 0.930 . S
H399 C412 0.930 . S
H400 C413 0.930 . S
H401 C417 0.959 . S
H402 C417 0.959 . S
H403 C417 0.961 . S
H404 C418 0.960 . S
H405 C418 0.961 . S
H406 C418 0.959 . S
H407 C421 0.929 . S
H408 C422 0.931 . S
H409 C424 0.930 . S
C410 H398 0.930 . S
C410 C411 1.399 . S
C410 C415 1.399 . S
C411 C410 1.399 . S
C411 C412 1.376 . S
C412 H399 0.930 . S
C412 C411 1.376 . S
C412 C413 1.388 . S
C413 H400 0.930 . S
C413 C412 1.388 . S
C413 C414 1.390 . S
C414 C413 1.390 . S
C414 C415 1.394 . S
C414 C420 1.465 . S
C415 C410 1.399 . S
C415 C414 1.394 . S
C415 C416 1.516 . S
C416 C415 1.516 . S
C416 C417 1.502 . S
C416 C418 1.561 . S
C416 C419 1.526 . S
C417 H401 0.959 . S
C417 H402 0.959 . S
C417 H403 0.961 . S
C417 C416 1.502 . S
C418 H404 0.960 . S
C418 H405 0.961 . S
C418 H406 0.959 . S
C418 C416 1.561 . S
C419 C416 1.526 . S
C419 C420 1.396 . S
C419 C424 1.390 . S
C420 C414 1.465 . S
C420 C419 1.396 . S
C420 C421 1.399 . S
C421 H407 0.929 . S
C421 C420 1.399 . S
C421 C422 1.385 . S
C422 H408 0.931 . S
C422 C421 1.385 . S
C422 C423 1.389 . S
C423 C422 1.389 . S
C423 C424 1.387 . S
C424 H409 0.930 . S
C424 C419 1.390 . S
C424 C423 1.387 . S
H425 C437 0.930 . S
H426 C439 0.930 . S
H427 C440 0.930 . S
H428 C444 0.959 . S
H429 C444 0.959 . S
H430 C444 0.961 . S
H431 C445 0.960 . S
H432 C445 0.961 . S
H433 C445 0.959 . S
H434 C448 0.929 . S
H435 C449 0.931 . S
H436 C451 0.930 . S
C437 H425 0.930 . S
C437 C438 1.399 . S
C437 C442 1.399 . S
C438 C437 1.399 . S
C438 C439 1.376 . S
C439 H426 0.930 . S
C439 C438 1.376 . S
C439 C440 1.388 . S
C440 H427 0.930 . S
C440 C439 1.388 . S
C440 C441 1.390 . S
C441 C440 1.390 . S
C441 C442 1.394 . S
C441 C447 1.465 . S
C442 C437 1.399 . S
C442 C441 1.394 . S
C442 C443 1.516 . S
C443 C442 1.516 . S
C443 C444 1.502 . S
C443 C445 1.561 . S
C443 C446 1.526 . S
C444 H428 0.959 . S
C444 H429 0.959 . S
C444 H430 0.961 . S
C444 C443 1.502 . S
C445 H431 0.960 . S
C445 H432 0.961 . S
C445 H433 0.959 . S
C445 C443 1.561 . S
C446 C443 1.526 . S
C446 C447 1.396 . S
C446 C451 1.390 . S
C447 C441 1.465 . S
C447 C446 1.396 . S
C447 C448 1.399 . S
C448 H434 0.929 . S
C448 C447 1.399 . S
C448 C449 1.385 . S
C449 H435 0.931 . S
C449 C448 1.385 . S
C449 C450 1.389 . S
C450 C449 1.389 . S
C450 C451 1.387 . S
C451 H436 0.930 . S
C451 C446 1.390 . S
C451 C450 1.387 . S
C141 N82 2.604 1_556 S
C153 N13 2.612 . S
C168 N114 2.603 1_655 S
C180 N45 2.647 . S
C195 N77 1.054 1_554 S
C207 N18 1.058 . S
C222 N50 1.052 . S
C234 N109 1.105 . S
C249 C36 1.779 . S
C261 C6 1.744 . S
C276 C38 2.091 . S
C288 C66 2.110 . S
C303 C98 1.791 . S
C315 C93 1.775 . S
C330 C125 1.465 . S
C342 C4 1.502 . S
C357 C68 1.867 . S
C369 C102 1.907 . S
C384 C29 2.051 . S
C396 C100 2.011 . S
C411 C61 1.840 . S
C423 C2 1.878 . S
C438 C70 1.758 . S
C450 C34 1.713 . S
