# Generated by pormake.
# Topology vbi, (5)-cn, num edge types: 1
# Building blocks:
#     Node 0, Type 0, BuildingBlock: XOMCOT_clean_sbu_0, # of connection points: 5
#     Node 1, Type 0, BuildingBlock: XOMCOT_clean_sbu_0, # of connection points: 5
#     Node 2, Type 0, BuildingBlock: XOMCOT_clean_sbu_0, # of connection points: 5
#     Node 3, Type 0, BuildingBlock: XOMCOT_clean_sbu_0, # of connection points: 5
#     Node 4, Type 0, BuildingBlock: XOMCOT_clean_sbu_0, # of connection points: 5
#     Node 5, Type 0, BuildingBlock: XOMCOT_clean_sbu_0, # of connection points: 5
#     Node 6, Type 0, BuildingBlock: XOMCOT_clean_sbu_0, # of connection points: 5
#     Node 7, Type 0, BuildingBlock: XOMCOT_clean_sbu_0, # of connection points: 5
#     Node 8, Type 0, BuildingBlock: XOMCOT_clean_sbu_0, # of connection points: 5
#     Node 9, Type 0, BuildingBlock: XOMCOT_clean_sbu_0, # of connection points: 5
#     Node 10, Type 0, BuildingBlock: XOMCOT_clean_sbu_0, # of connection points: 5
#     Node 11, Type 0, BuildingBlock: XOMCOT_clean_sbu_0, # of connection points: 5
#     Node 12, Type 0, BuildingBlock: XOMCOT_clean_sbu_0, # of connection points: 5
#     Node 13, Type 0, BuildingBlock: XOMCOT_clean_sbu_0, # of connection points: 5
#     Node 14, Type 0, BuildingBlock: XOMCOT_clean_sbu_0, # of connection points: 5
#     Node 15, Type 0, BuildingBlock: XOMCOT_clean_sbu_0, # of connection points: 5
#     Node 16, Type 0, BuildingBlock: XOMCOT_clean_sbu_0, # of connection points: 5
#     Node 17, Type 0, BuildingBlock: XOMCOT_clean_sbu_0, # of connection points: 5
#     Node 18, Type 0, BuildingBlock: XOMCOT_clean_sbu_0, # of connection points: 5
#     Node 19, Type 0, BuildingBlock: XOMCOT_clean_sbu_0, # of connection points: 5
#     Node 20, Type 0, BuildingBlock: XOMCOT_clean_sbu_0, # of connection points: 5
#     Node 21, Type 0, BuildingBlock: XOMCOT_clean_sbu_0, # of connection points: 5
#     Node 22, Type 0, BuildingBlock: XOMCOT_clean_sbu_0, # of connection points: 5
#     Node 23, Type 0, BuildingBlock: XOMCOT_clean_sbu_0, # of connection points: 5
#     Node 24, Type 0, BuildingBlock: XOMCOT_clean_sbu_0, # of connection points: 5
#     Node 25, Type 0, BuildingBlock: XOMCOT_clean_sbu_0, # of connection points: 5
#     Node 26, Type 0, BuildingBlock: XOMCOT_clean_sbu_0, # of connection points: 5
#     Node 27, Type 0, BuildingBlock: XOMCOT_clean_sbu_0, # of connection points: 5
#     Node 28, Type 0, BuildingBlock: XOMCOT_clean_sbu_0, # of connection points: 5
#     Node 29, Type 0, BuildingBlock: XOMCOT_clean_sbu_0, # of connection points: 5
#     Node 30, Type 0, BuildingBlock: XOMCOT_clean_sbu_0, # of connection points: 5
#     Node 31, Type 0, BuildingBlock: XOMCOT_clean_sbu_0, # of connection points: 5
#     Edge 32, Type (0, 0), BuildingBlock: AJUNOK_clean_linker_0, # of connection points: 2
#     Edge 33, Type (0, 0), BuildingBlock: AJUNOK_clean_linker_0, # of connection points: 2
#     Edge 34, Type (0, 0), BuildingBlock: AJUNOK_clean_linker_0, # of connection points: 2
#     Edge 35, Type (0, 0), BuildingBlock: AJUNOK_clean_linker_0, # of connection points: 2
#     Edge 36, Type (0, 0), BuildingBlock: AJUNOK_clean_linker_0, # of connection points: 2
#     Edge 37, Type (0, 0), BuildingBlock: AJUNOK_clean_linker_0, # of connection points: 2
#     Edge 38, Type (0, 0), BuildingBlock: AJUNOK_clean_linker_0, # of connection points: 2
#     Edge 39, Type (0, 0), BuildingBlock: AJUNOK_clean_linker_0, # of connection points: 2
#     Edge 40, Type (0, 0), BuildingBlock: AJUNOK_clean_linker_0, # of connection points: 2
#     Edge 41, Type (0, 0), BuildingBlock: AJUNOK_clean_linker_0, # of connection points: 2
#     Edge 42, Type (0, 0), BuildingBlock: AJUNOK_clean_linker_0, # of connection points: 2
#     Edge 43, Type (0, 0), BuildingBlock: AJUNOK_clean_linker_0, # of connection points: 2
#     Edge 44, Type (0, 0), BuildingBlock: AJUNOK_clean_linker_0, # of connection points: 2
#     Edge 45, Type (0, 0), BuildingBlock: AJUNOK_clean_linker_0, # of connection points: 2
#     Edge 46, Type (0, 0), BuildingBlock: AJUNOK_clean_linker_0, # of connection points: 2
#     Edge 47, Type (0, 0), BuildingBlock: AJUNOK_clean_linker_0, # of connection points: 2
#     Edge 48, Type (0, 0), BuildingBlock: AJUNOK_clean_linker_0, # of connection points: 2
#     Edge 49, Type (0, 0), BuildingBlock: AJUNOK_clean_linker_0, # of connection points: 2
#     Edge 50, Type (0, 0), BuildingBlock: AJUNOK_clean_linker_0, # of connection points: 2
#     Edge 51, Type (0, 0), BuildingBlock: AJUNOK_clean_linker_0, # of connection points: 2
#     Edge 52, Type (0, 0), BuildingBlock: AJUNOK_clean_linker_0, # of connection points: 2
#     Edge 53, Type (0, 0), BuildingBlock: AJUNOK_clean_linker_0, # of connection points: 2
#     Edge 54, Type (0, 0), BuildingBlock: AJUNOK_clean_linker_0, # of connection points: 2
#     Edge 55, Type (0, 0), BuildingBlock: AJUNOK_clean_linker_0, # of connection points: 2
#     Edge 56, Type (0, 0), BuildingBlock: AJUNOK_clean_linker_0, # of connection points: 2
#     Edge 57, Type (0, 0), BuildingBlock: AJUNOK_clean_linker_0, # of connection points: 2
#     Edge 58, Type (0, 0), BuildingBlock: AJUNOK_clean_linker_0, # of connection points: 2
#     Edge 59, Type (0, 0), BuildingBlock: AJUNOK_clean_linker_0, # of connection points: 2
#     Edge 60, Type (0, 0), BuildingBlock: AJUNOK_clean_linker_0, # of connection points: 2
#     Edge 61, Type (0, 0), BuildingBlock: AJUNOK_clean_linker_0, # of connection points: 2
#     Edge 62, Type (0, 0), BuildingBlock: AJUNOK_clean_linker_0, # of connection points: 2
#     Edge 63, Type (0, 0), BuildingBlock: AJUNOK_clean_linker_0, # of connection points: 2
#     Edge 64, Type (0, 0), BuildingBlock: AJUNOK_clean_linker_0, # of connection points: 2
#     Edge 65, Type (0, 0), BuildingBlock: AJUNOK_clean_linker_0, # of connection points: 2
#     Edge 66, Type (0, 0), BuildingBlock: AJUNOK_clean_linker_0, # of connection points: 2
#     Edge 67, Type (0, 0), BuildingBlock: AJUNOK_clean_linker_0, # of connection points: 2
#     Edge 68, Type (0, 0), BuildingBlock: AJUNOK_clean_linker_0, # of connection points: 2
#     Edge 69, Type (0, 0), BuildingBlock: AJUNOK_clean_linker_0, # of connection points: 2
#     Edge 70, Type (0, 0), BuildingBlock: AJUNOK_clean_linker_0, # of connection points: 2
#     Edge 71, Type (0, 0), BuildingBlock: AJUNOK_clean_linker_0, # of connection points: 2
#     Edge 72, Type (0, 0), BuildingBlock: AJUNOK_clean_linker_0, # of connection points: 2
#     Edge 73, Type (0, 0), BuildingBlock: AJUNOK_clean_linker_0, # of connection points: 2
#     Edge 74, Type (0, 0), BuildingBlock: AJUNOK_clean_linker_0, # of connection points: 2
#     Edge 75, Type (0, 0), BuildingBlock: AJUNOK_clean_linker_0, # of connection points: 2
#     Edge 76, Type (0, 0), BuildingBlock: AJUNOK_clean_linker_0, # of connection points: 2
#     Edge 77, Type (0, 0), BuildingBlock: AJUNOK_clean_linker_0, # of connection points: 2
#     Edge 78, Type (0, 0), BuildingBlock: AJUNOK_clean_linker_0, # of connection points: 2
#     Edge 79, Type (0, 0), BuildingBlock: AJUNOK_clean_linker_0, # of connection points: 2
#     Edge 80, Type (0, 0), BuildingBlock: AJUNOK_clean_linker_0, # of connection points: 2
#     Edge 81, Type (0, 0), BuildingBlock: AJUNOK_clean_linker_0, # of connection points: 2
#     Edge 82, Type (0, 0), BuildingBlock: AJUNOK_clean_linker_0, # of connection points: 2
#     Edge 83, Type (0, 0), BuildingBlock: AJUNOK_clean_linker_0, # of connection points: 2
#     Edge 84, Type (0, 0), BuildingBlock: AJUNOK_clean_linker_0, # of connection points: 2
#     Edge 85, Type (0, 0), BuildingBlock: AJUNOK_clean_linker_0, # of connection points: 2
#     Edge 86, Type (0, 0), BuildingBlock: AJUNOK_clean_linker_0, # of connection points: 2
#     Edge 87, Type (0, 0), BuildingBlock: AJUNOK_clean_linker_0, # of connection points: 2
#     Edge 88, Type (0, 0), BuildingBlock: AJUNOK_clean_linker_0, # of connection points: 2
#     Edge 89, Type (0, 0), BuildingBlock: AJUNOK_clean_linker_0, # of connection points: 2
#     Edge 90, Type (0, 0), BuildingBlock: AJUNOK_clean_linker_0, # of connection points: 2
#     Edge 91, Type (0, 0), BuildingBlock: AJUNOK_clean_linker_0, # of connection points: 2
#     Edge 92, Type (0, 0), BuildingBlock: AJUNOK_clean_linker_0, # of connection points: 2
#     Edge 93, Type (0, 0), BuildingBlock: AJUNOK_clean_linker_0, # of connection points: 2
#     Edge 94, Type (0, 0), BuildingBlock: AJUNOK_clean_linker_0, # of connection points: 2
#     Edge 95, Type (0, 0), BuildingBlock: AJUNOK_clean_linker_0, # of connection points: 2
#     Edge 96, Type (0, 0), BuildingBlock: AJUNOK_clean_linker_0, # of connection points: 2
#     Edge 97, Type (0, 0), BuildingBlock: AJUNOK_clean_linker_0, # of connection points: 2
#     Edge 98, Type (0, 0), BuildingBlock: AJUNOK_clean_linker_0, # of connection points: 2
#     Edge 99, Type (0, 0), BuildingBlock: AJUNOK_clean_linker_0, # of connection points: 2
#     Edge 100, Type (0, 0), BuildingBlock: AJUNOK_clean_linker_0, # of connection points: 2
#     Edge 101, Type (0, 0), BuildingBlock: AJUNOK_clean_linker_0, # of connection points: 2
#     Edge 102, Type (0, 0), BuildingBlock: AJUNOK_clean_linker_0, # of connection points: 2
#     Edge 103, Type (0, 0), BuildingBlock: AJUNOK_clean_linker_0, # of connection points: 2
#     Edge 104, Type (0, 0), BuildingBlock: AJUNOK_clean_linker_0, # of connection points: 2
#     Edge 105, Type (0, 0), BuildingBlock: AJUNOK_clean_linker_0, # of connection points: 2
#     Edge 106, Type (0, 0), BuildingBlock: AJUNOK_clean_linker_0, # of connection points: 2
#     Edge 107, Type (0, 0), BuildingBlock: AJUNOK_clean_linker_0, # of connection points: 2
#     Edge 108, Type (0, 0), BuildingBlock: AJUNOK_clean_linker_0, # of connection points: 2
#     Edge 109, Type (0, 0), BuildingBlock: AJUNOK_clean_linker_0, # of connection points: 2
#     Edge 110, Type (0, 0), BuildingBlock: AJUNOK_clean_linker_0, # of connection points: 2
#     Edge 111, Type (0, 0), BuildingBlock: AJUNOK_clean_linker_0, # of connection points: 2
# Relax obj value: 0.361
# Max RMSD: 0.173
# Mean RMSD: 0.173
data_MOF--net-vbi--node1-XOMCOT_clean_sbu_0--edge1-AJUNOK_clean_linker_0
_symmetry_space_group_name_H-M    P1
_symmetry_Int_Tables_number       1
_symmetry_cell_setting            triclinic
loop_
_symmetry_equiv_pos_as_xyz
'x, y, z'
_cell_length_a     35.545345
_cell_length_b     27.742213
_cell_length_c     75.313933
_cell_angle_alpha  90.211303
_cell_angle_beta   90.058359
_cell_angle_gamma 90.024733
loop_
_atom_site_label
_atom_site_type_symbol
_atom_site_fract_x
_atom_site_fract_y
_atom_site_fract_z
_atom_type_partial_charge
Co0 Co 0.46085 0.15401 0.05298 0.0
C1 C 0.3866 0.12582 0.03762 0.0
C2 C 0.39781 0.20022 0.03228 0.0
C3 C 0.36418 0.18704 1.02415 0.0
N4 N 0.41203 0.16169 0.04081 0.0
N5 N 0.35694 0.14017 0.02764 0.0
H6 H 0.3903 0.08902 0.04191 0.0
H7 H 0.41128 0.23509 0.03154 0.0
C8 C 0.48149 0.26625 0.0513 0.0
O9 O 0.45968 0.28271 0.06401 0.0
N10 N 0.50792 0.14239 0.06506 0.0
C11 C 0.51171 0.1109 0.07854 0.0
C12 C 0.54884 0.10816 0.08316 0.0
C13 C 0.543 0.15803 0.06144 0.0
N14 N 0.56843 0.13806 0.07256 0.0
C15 C 0.40981 0.14034 0.08191 0.0
C16 C 0.45215 0.19047 0.1066 0.0
C17 C 0.42505 0.15766 0.11272 0.0
C18 C 0.40241 0.13443 0.10008 0.0
C19 C 0.45834 0.19587 0.08831 0.0
N20 N 0.43856 0.16912 0.07616 0.0
H21 H 0.39486 0.11768 0.07265 0.0
H22 H 0.48234 0.21679 0.08414 0.0
H23 H 0.48895 0.09047 0.08436 0.0
H24 H 0.54985 0.18282 0.05087 0.0
O25 O 0.45435 0.08446 0.05283 0.0
O26 O 0.48161 0.12787 0.03179 0.0
O27 O 0.48012 0.22162 0.0469 0.0
C28 C 0.47319 0.08576 0.03795 0.0
H29 H 0.3467 0.21012 1.01603 0.0
H30 H 0.56067 0.08464 0.09315 0.0
H31 H 0.47012 0.20948 0.1159 0.0
H32 H 0.38122 0.10872 0.10418 0.0
Co33 Co 0.8348 0.12589 0.05274 0.0
C34 C 0.90962 0.15152 0.03752 0.0
C35 C 0.89431 0.08005 0.0295 0.0
C36 C 0.92772 0.093 1.02118 0.0
N37 N 0.88281 0.1168 0.03989 0.0
N38 N 0.93754 0.13811 1.02628 0.0
H39 H 0.90779 0.18728 0.04314 0.0
H40 H 0.87892 0.04691 0.02744 0.0
C41 C 0.81617 0.01361 0.0484 0.0
O42 O 0.84563 0.99668 0.05687 0.0
N43 N 0.78902 0.13947 0.06561 0.0
C44 C 0.78742 0.16868 0.07994 0.0
C45 C 0.75057 0.17549 0.08452 0.0
C46 C 0.75298 0.12952 0.06144 0.0
N47 N 0.72894 0.15051 0.07302 0.0
C48 C 0.88622 0.13547 0.08178 0.0
C49 C 0.84437 0.08087 0.10518 0.0
C50 C 0.87103 0.11331 0.11208 0.0
C51 C 0.89352 0.13874 0.10006 0.0
C52 C 0.83837 0.07801 0.08676 0.0
N53 N 0.85769 0.10724 0.07536 0.0
H54 H 0.90093 0.15971 0.07306 0.0
H55 H 0.81493 0.05685 0.08198 0.0
H56 H 0.8115 0.18533 0.08627 0.0
H57 H 0.74448 0.10851 0.05003 0.0
O58 O 0.8439 0.19499 0.05352 0.0
O59 O 0.81393 0.15518 0.03216 0.0
O60 O 0.8125 0.05932 0.04646 0.0
C61 C 0.82458 0.19612 0.03878 0.0
H62 H 0.94305 0.07113 1.01172 0.0
H63 H 0.74049 0.19864 0.09509 0.0
H64 H 0.82658 0.06021 0.114 0.0
H65 H 0.91438 0.16419 0.1048 0.0
Co66 Co 0.45815 0.11234 0.24731 0.0
C67 C 0.38458 0.14734 0.26201 0.0
C68 C 0.39625 0.07557 0.27075 0.0
C69 C 0.3631 0.09133 0.27856 0.0
N70 N 0.40992 0.11069 0.26029 0.0
N71 N 0.35541 0.13665 0.27303 0.0
H72 H 0.38783 0.18188 0.25563 0.0
H73 H 0.40997 0.04144 0.27314 0.0
C74 C 0.4972 0.01422 0.24715 0.0
O75 O 0.51247 0.02372 0.23171 0.0
N76 N 0.5054 0.11808 0.23435 0.0
C77 C 0.50944 0.13209 0.21731 0.0
C78 C 0.54688 0.13852 0.21374 0.0
C79 C 0.54078 0.11788 0.24105 0.0
N80 N 0.56664 0.12977 0.22865 0.0
C81 C 0.41216 0.13891 0.21796 0.0
C82 C 0.43202 0.06392 0.19573 0.0
C83 C 0.41739 0.10629 0.1882 0.0
C84 C 0.40502 0.14258 0.19974 0.0
C85 C 0.43793 0.06128 0.21421 0.0
N86 N 0.43127 0.10041 0.22484 0.0
H87 H 0.40564 0.16963 0.22618 0.0
H88 H 0.45017 0.02908 0.21955 0.0
H89 H 0.48695 0.13951 0.20812 0.0
H90 H 0.54722 0.11122 0.25486 0.0
O91 O 0.45669 0.18206 0.24729 0.0
O92 O 0.48272 0.13703 0.26815 0.0
O93 O 0.47028 0.04103 0.25324 0.0
C94 C 0.47633 0.17975 0.26186 0.0
H95 H 0.3472 0.07143 0.28832 0.0
H96 H 0.55859 0.14984 0.20116 0.0
H97 H 0.44059 0.0341 0.18735 0.0
H98 H 0.39297 0.17557 0.1946 0.0
Co99 Co 0.83549 0.15371 0.24726 0.0
C100 C 0.9072 0.11798 0.26396 0.0
C101 C 0.90152 0.19449 0.26701 0.0
C102 C 0.93481 0.17983 0.27493 0.0
N103 N 0.88388 0.15571 0.26015 0.0
N104 N 0.93867 0.13161 0.27299 0.0
H105 H 0.90092 0.08097 0.26056 0.0
H106 H 0.89107 0.23103 0.26637 0.0
C107 C 0.79673 0.25188 0.24611 0.0
O108 O 0.78407 0.2422 0.23011 0.0
N109 N 0.78817 0.14795 0.23444 0.0
C110 C 0.78324 0.13503 0.21727 0.0
C111 C 0.74538 0.13203 0.21376 0.0
C112 C 0.75307 0.15066 0.2413 0.0
N113 N 0.72671 0.14162 0.22887 0.0
C114 C 0.88087 0.12562 0.21791 0.0
C115 C 0.86336 0.20162 0.19589 0.0
C116 C 0.87687 0.15867 0.18825 0.0
C117 C 0.88812 0.12174 0.19969 0.0
C118 C 0.85731 0.20436 0.21434 0.0
N119 N 0.86243 0.16473 0.22481 0.0
H120 H 0.88717 0.09501 0.22619 0.0
H121 H 0.84684 0.23745 0.21985 0.0
H122 H 0.80532 0.12712 0.2079 0.0
H123 H 0.7469 0.15952 0.255 0.0
O124 O 0.83683 0.08406 0.24723 0.0
O125 O 0.81091 0.12953 0.26811 0.0
O126 O 0.82287 0.22525 0.25303 0.0
C127 C 0.81707 0.08672 0.26173 0.0
H128 H 0.9548 0.20318 0.28158 0.0
H129 H 0.73247 0.12247 0.2012 0.0
H130 H 0.85604 0.23204 0.18761 0.0
H131 H 0.89963 0.08844 0.19447 0.0
Co132 Co 0.58848 0.86826 0.99751 0.0
C133 C 0.66138 0.89997 1.01404 0.0
C134 C 0.64893 0.82721 1.02128 0.0
C135 C 0.68224 0.84147 0.02947 0.0
N136 N 0.63572 0.86386 1.01143 0.0
N137 N 0.69055 0.88743 1.02482 0.0
H138 H 0.65863 0.93536 1.00829 0.0
H139 H 0.63505 0.79279 1.02281 0.0
C140 C 0.54664 0.77276 0.99416 0.0
O141 O 0.53526 0.78498 0.97821 0.0
N142 N 0.54284 0.87855 0.98362 0.0
C143 C 0.5419 0.90504 0.96866 0.0
C144 C 0.5053 0.91405 0.96416 0.0
C145 C 0.50621 0.8734 0.98834 0.0
N146 N 0.48261 0.89314 0.97623 0.0
C147 C 0.63961 0.89653 0.97002 0.0
C148 C 0.61671 0.82989 0.94506 0.0
C149 C 0.63564 0.87145 0.93902 0.0
C150 C 0.65021 0.90226 0.95223 0.0
C151 C 0.60923 0.82363 0.96326 0.0
N152 N 0.61709 0.85926 0.97527 0.0
H153 H 0.64725 0.92458 0.97923 0.0
H154 H 0.59563 0.79109 0.96733 0.0
H155 H 0.56617 0.9199 0.96204 0.0
H156 H 0.49715 0.85565 1.00038 0.0
O157 O 0.59091 0.93758 0.99913 0.0
O158 O 0.56206 0.8896 1.01828 0.0
O159 O 0.57431 0.7961 1.00146 0.0
C160 C 0.56907 0.93304 1.01292 0.0
H161 H 0.69807 0.81967 0.03869 0.0
H162 H 0.4964 0.93667 0.95328 0.0
H163 H 0.60607 0.80309 0.93589 0.0
H164 H 0.66842 0.93212 0.94901 0.0
Co165 Co 0.21361 0.90727 0.99638 0.0
C166 C 0.14304 0.87171 1.01384 0.0
C167 C 0.14806 0.94837 1.0165 0.0
C168 C 0.11459 0.93353 1.02424 0.0
N169 N 0.16621 0.90955 1.01 0.0
N170 N 0.11115 0.88521 1.02247 0.0
H171 H 0.14951 0.83469 1.01057 0.0
H172 H 0.15804 0.98508 1.01555 0.0
C173 C 0.25135 1.00644 0.99439 0.0
O174 O 0.26439 0.99608 0.97853 0.0
N175 N 0.25961 0.90038 0.9826 0.0
C176 C 0.26171 0.87643 0.96704 0.0
C177 C 0.29871 0.87028 0.96258 0.0
C178 C 0.29586 0.90707 0.98768 0.0
N179 N 0.32038 0.89043 0.97532 0.0
C180 C 0.16444 0.87876 0.96843 0.0
C181 C 0.18268 0.9514 0.94504 0.0
C182 C 0.16663 0.90884 0.93837 0.0
C183 C 0.15531 0.87358 0.95044 0.0
C184 C 0.19057 0.95554 0.96327 0.0
N185 N 0.18485 0.91744 0.9744 0.0
H186 H 0.15817 0.84919 0.9772 0.0
H187 H 0.20271 0.98845 0.96805 0.0
H188 H 0.2381 0.86154 0.95987 0.0
H189 H 0.30402 0.92359 1.00015 0.0
O190 O 0.21203 0.83776 0.99672 0.0
O191 O 0.24007 0.88381 1.01685 0.0
O192 O 0.226 0.97916 1.00157 0.0
C193 C 0.23282 0.84078 1.0109 0.0
H194 H 0.09406 0.95685 0.03049 0.0
H195 H 0.30866 0.85007 0.95122 0.0
H196 H 0.19063 0.98023 0.93614 0.0
H197 H 0.14224 0.84054 0.94583 0.0
Co198 Co 0.58744 0.91131 0.80287 0.0
C199 C 0.65807 0.88013 0.7841 0.0
C200 C 0.65632 0.95685 0.78717 0.0
C201 C 0.69081 0.94368 0.77998 0.0
N202 N 0.63539 0.91703 0.7897 0.0
N203 N 0.69211 0.89518 0.77796 0.0
H204 H 0.65035 0.84254 0.78491 0.0
H205 H 0.64797 0.99284 0.79107 0.0
C206 C 0.54529 1.00643 0.80666 0.0
O207 O 0.53408 0.99291 0.82249 0.0
N208 N 0.54134 0.90007 0.81625 0.0
C209 C 0.54001 0.87369 0.83123 0.0
C210 C 0.5033 0.86449 0.83544 0.0
C211 C 0.50487 0.90505 0.81122 0.0
N212 N 0.48098 0.88517 0.82315 0.0
C213 C 0.63663 0.88265 0.8311 0.0
C214 C 0.61615 0.95376 0.85485 0.0
C215 C 0.63459 0.91268 0.86162 0.0
C216 C 0.64686 0.87837 0.84906 0.0
C217 C 0.60855 0.95785 0.83663 0.0
N218 N 0.61521 0.92038 0.8253 0.0
H219 H 0.64376 0.85367 0.82211 0.0
H220 H 0.59603 0.99053 0.83199 0.0
H221 H 0.56409 0.85926 0.83813 0.0
H222 H 0.4961 0.9229 0.79915 0.0
O223 O 0.59028 0.84193 0.8011 0.0
O224 O 0.56205 0.88997 0.78178 0.0
O225 O 0.57271 0.98342 0.79903 0.0
C226 C 0.56905 0.84646 0.78707 0.0
H227 H 0.71383 0.96815 0.77737 0.0
H228 H 0.49404 0.84216 0.84633 0.0
H229 H 0.60551 0.98186 0.86341 0.0
H230 H 0.66277 0.84702 0.85308 0.0
Co231 Co 0.21137 0.86925 0.80353 0.0
C232 C 0.13459 0.896 0.79066 0.0
C233 C 0.15595 0.83474 0.77657 0.0
C234 C 0.12226 0.84893 0.76892 0.0
N235 N 0.16378 0.86411 0.79031 0.0
N236 N 0.10838 0.88757 0.77782 0.0
H237 H 0.13339 0.92632 0.79963 0.0
H238 H 0.1745 0.80678 0.7717 0.0
C239 C 0.24863 0.7709 0.80796 0.0
O240 O 0.26026 0.78354 0.82387 0.0
N241 N 0.25795 0.87887 0.81674 0.0
C242 C 0.26091 0.90649 0.83144 0.0
C243 C 0.29806 0.91267 0.83555 0.0
C244 C 0.29398 0.86995 0.81178 0.0
N245 N 0.31901 0.88891 0.82346 0.0
C246 C 0.16771 0.90252 0.8331 0.0
C247 C 0.178 0.82343 0.85462 0.0
C248 C 0.16614 0.86698 0.86233 0.0
C249 C 0.15875 0.90583 0.85113 0.0
C250 C 0.18553 0.82122 0.8363 0.0
N251 N 0.18381 0.86182 0.82609 0.0
H252 H 0.16525 0.93486 0.82535 0.0
H253 H 0.19404 0.78732 0.83069 0.0
H254 H 0.23796 0.92388 0.83823 0.0
H255 H 0.30163 0.85027 0.79989 0.0
O256 O 0.20905 0.93853 0.80142 0.0
O257 O 0.23694 0.88947 0.78231 0.0
O258 O 0.22408 0.7971 0.79978 0.0
C259 C 0.22981 0.9333 0.78732 0.0
H260 H 0.11061 0.83357 0.75692 0.0
H261 H 0.30873 0.93512 0.8462 0.0
H262 H 0.18269 0.79193 0.86278 0.0
H263 H 0.14914 0.93994 0.85652 0.0
Co264 Co 0.46016 0.65261 0.5568 0.0
C265 C 0.38287 0.63079 0.54386 0.0
C266 C 0.40601 0.69157 0.53028 0.0
C267 C 0.37276 0.67794 0.52203 0.0
N268 N 0.41245 0.66209 0.54409 0.0
N269 N 0.35787 0.63947 0.53055 0.0
H270 H 0.38088 0.60016 0.55258 0.0
H271 H 0.42555 0.71857 0.52561 0.0
C272 C 0.50503 0.74535 0.56121 0.0
O273 O 0.5148 0.73171 0.57724 0.0
N274 N 0.50663 0.63821 0.56932 0.0
C275 C 0.50943 0.61139 0.58416 0.0
C276 C 0.54658 0.60248 0.58762 0.0
C277 C 0.54243 0.6435 0.56355 0.0
N278 N 0.5674 0.62344 0.57486 0.0
C279 C 0.41661 0.62183 0.5867 0.0
C280 C 0.43334 0.69834 0.6088 0.0
C281 C 0.42008 0.65534 0.61638 0.0
C282 C 0.40935 0.61807 0.6049 0.0
C283 C 0.43926 0.70105 0.59034 0.0
N284 N 0.43432 0.66138 0.57977 0.0
H285 H 0.41157 0.59036 0.57864 0.0
H286 H 0.44922 0.7344 0.58487 0.0
H287 H 0.48626 0.59695 0.59165 0.0
H288 H 0.55001 0.66206 0.55146 0.0
O289 O 0.45424 0.58354 0.55414 0.0
O290 O 0.48331 0.63147 0.53516 0.0
O291 O 0.47705 0.72399 0.55343 0.0
C292 C 0.47431 0.588 0.53979 0.0
H293 H 0.36237 0.6931 0.50977 0.0
H294 H 0.55729 0.58084 0.59842 0.0
H295 H 0.44034 0.72897 0.61713 0.0
H296 H 0.39842 0.5845 0.61009 0.0
Co297 Co 0.83628 0.62397 0.55334 0.0
C298 C 0.90518 0.64663 0.53198 0.0
C299 C 0.91339 0.58316 0.54751 0.0
C300 C 0.94787 0.59782 0.54067 0.0
N301 N 0.8863 0.61411 0.54226 0.0
N302 N 0.94273 0.63813 0.53099 0.0
H303 H 0.89249 0.67819 0.52617 0.0
H304 H 0.90904 0.55397 0.55677 0.0
C305 C 0.81406 0.51239 0.5511 0.0
O306 O 0.83565 0.49585 0.56385 0.0
N307 N 0.78835 0.63753 0.5645 0.0
C308 C 0.78401 0.67092 0.57739 0.0
C309 C 0.7468 0.67382 0.58179 0.0
C310 C 0.75343 0.6206 0.56111 0.0
N311 N 0.72763 0.64181 0.57177 0.0
C312 C 0.88418 0.63727 0.58331 0.0
C313 C 0.84042 0.58659 0.6071 0.0
C314 C 0.86741 0.61887 0.61389 0.0
C315 C 0.89028 0.6431 0.60161 0.0
C316 C 0.83505 0.58202 0.58868 0.0
N317 N 0.85596 0.60844 0.57698 0.0
H318 H 0.89985 0.65972 0.57423 0.0
H319 H 0.81119 0.56144 0.58403 0.0
H320 H 0.80651 0.69221 0.58309 0.0
H321 H 0.74698 0.5935 0.55121 0.0
O322 O 0.84521 0.69293 0.55374 0.0
O323 O 0.81777 0.65159 0.53197 0.0
O324 O 0.81596 0.55696 0.54671 0.0
C325 C 0.82674 0.69305 0.53875 0.0
H326 H 0.97475 0.58074 0.54307 0.0
H327 H 0.73466 0.69839 0.59139 0.0
H328 H 0.822 0.56702 0.61597 0.0
H329 H 0.91085 0.66934 0.606 0.0
Co330 Co 0.45948 0.6195 0.75191 0.0
C331 C 0.38632 0.65004 0.76793 0.0
C332 C 0.39351 0.5737 0.77042 0.0
C333 C 0.3598 0.58703 0.77836 0.0
N334 N 0.41039 0.61333 0.76388 0.0
N335 N 0.3553 0.63522 0.77681 0.0
H336 H 0.39148 0.68742 0.76476 0.0
H337 H 0.40481 0.53761 0.76964 0.0
C338 C 0.47742 0.50778 0.75533 0.0
O339 O 0.4526 0.49186 0.74379 0.0
N340 N 0.50709 0.62908 0.74014 0.0
C341 C 0.51236 0.65673 0.72565 0.0
C342 C 0.55024 0.66308 0.72313 0.0
C343 C 0.54176 0.61957 0.74642 0.0
N344 N 0.56852 0.63971 0.73618 0.0
C345 C 0.40878 0.6285 0.72274 0.0
C346 C 0.45205 0.57659 0.69896 0.0
C347 C 0.42495 0.60859 0.69228 0.0
C348 C 0.40177 0.63262 0.70447 0.0
C349 C 0.45781 0.57296 0.71735 0.0
N350 N 0.43772 0.60086 0.72898 0.0
H351 H 0.39343 0.6517 0.73169 0.0
H352 H 0.48172 0.55249 0.72197 0.0
H353 H 0.49009 0.67303 0.71793 0.0
H354 H 0.54721 0.60134 0.7588 0.0
O355 O 0.45293 0.6887 0.75031 0.0
O356 O 0.47969 0.64959 0.77262 0.0
O357 O 0.47858 0.55275 0.75922 0.0
C358 C 0.47203 0.69042 0.76512 0.0
H359 H 0.34008 0.56287 0.7847 0.0
H360 H 0.5634 0.68416 0.71278 0.0
H361 H 0.47037 0.55699 0.69001 0.0
H362 H 0.38052 0.65766 0.6999 0.0
Co363 Co 0.83707 0.65987 0.75087 0.0
C364 C 0.91397 0.63338 0.76381 0.0
C365 C 0.8984 0.70329 0.7733 0.0
C366 C 0.93231 0.6899 0.78102 0.0
N367 N 0.88678 0.66793 0.76232 0.0
N368 N 0.94253 0.64568 0.77502 0.0
H369 H 0.91225 0.59879 0.75727 0.0
H370 H 0.88247 0.73547 0.77632 0.0
C371 C 0.8179 0.77194 0.75322 0.0
O372 O 0.84277 0.78706 0.74163 0.0
N373 N 0.78902 0.64819 0.73977 0.0
C374 C 0.7833 0.61711 0.7262 0.0
C375 C 0.74537 0.60962 0.72429 0.0
C376 C 0.75457 0.65921 0.746 0.0
N377 N 0.72765 0.63591 0.73677 0.0
C378 C 0.88457 0.64704 0.72054 0.0
C379 C 0.84166 0.70099 0.69741 0.0
C380 C 0.86804 0.66858 0.69022 0.0
C381 C 0.89046 0.64267 0.70219 0.0
C382 C 0.83653 0.70416 0.71589 0.0
N383 N 0.85703 0.67617 0.7273 0.0
H384 H 0.89966 0.62287 0.7291 0.0
H385 H 0.81308 0.72503 0.72078 0.0
H386 H 0.80535 0.59927 0.71879 0.0
H387 H 0.74938 0.68135 0.7576 0.0
O388 O 0.84433 0.59047 0.7502 0.0
O389 O 0.81829 0.63173 0.77217 0.0
O390 O 0.81723 0.72728 0.75757 0.0
C391 C 0.82585 0.5901 0.76517 0.0
H392 H 0.94676 0.7105 0.79114 0.0
H393 H 0.73178 0.586 0.71477 0.0
H394 H 0.82351 0.72175 0.68878 0.0
H395 H 0.91043 0.6161 0.69749 0.0
Co396 Co 0.5859 0.36471 0.49899 0.0
C397 C 0.6564 0.40319 0.51631 0.0
C398 C 0.65528 0.326 0.51654 0.0
C399 C 0.68892 0.3418 0.52391 0.0
N400 N 0.63454 0.36445 0.5118 0.0
N401 N 0.68999 0.39055 0.52371 0.0
H402 H 0.64783 0.44008 0.51426 0.0
H403 H 0.64706 0.28888 0.51446 0.0
C404 C 0.54937 0.26518 0.49733 0.0
O405 O 0.53656 0.275 0.4814 0.0
N406 N 0.53838 0.36885 0.48619 0.0
C407 C 0.53324 0.38195 0.46909 0.0
C408 C 0.49532 0.38553 0.46575 0.0
C409 C 0.50334 0.36632 0.49316 0.0
N410 N 0.47683 0.376 0.48089 0.0
C411 C 0.6309 0.39485 0.46992 0.0
C412 C 0.61795 0.31773 0.44755 0.0
C413 C 0.63145 0.36098 0.44016 0.0
C414 C 0.63964 0.39892 0.45188 0.0
C415 C 0.60975 0.31511 0.46584 0.0
N416 N 0.61315 0.35493 0.47648 0.0
H417 H 0.63583 0.42578 0.47832 0.0
H418 H 0.59943 0.2817 0.47108 0.0
H419 H 0.55523 0.38993 0.45969 0.0
H420 H 0.49733 0.35778 0.50688 0.0
O421 O 0.58563 0.43421 0.49908 0.0
O422 O 0.56076 0.38824 0.51993 0.0
O423 O 0.57473 0.2927 0.50453 0.0
C424 C 0.56559 0.43111 0.51345 0.0
H425 H 0.71137 0.31881 0.52863 0.0
H426 H 0.48227 0.3957 0.45333 0.0
H427 H 0.61256 0.28668 0.43917 0.0
H428 H 0.65021 0.43303 0.44703 0.0
Co429 Co 0.20893 0.41129 0.4998 0.0
C430 C 0.13869 0.37405 0.5173 0.0
C431 C 0.14223 0.45091 0.51964 0.0
C432 C 0.10932 0.43519 0.52769 0.0
N433 N 0.16095 0.41254 0.5131 0.0
N434 N 0.10681 0.38676 0.52607 0.0
H435 H 0.14577 0.3371 0.51418 0.0
H436 H 0.15159 0.48788 0.51861 0.0
C437 C 0.24744 0.51001 0.49936 0.0
O438 O 0.26382 0.49952 0.48425 0.0
N439 N 0.25584 0.40538 0.48658 0.0
C440 C 0.25929 0.38722 0.47001 0.0
C441 C 0.29661 0.37975 0.46639 0.0
C442 C 0.29143 0.40667 0.49305 0.0
N443 N 0.31689 0.39179 0.48087 0.0
C444 C 0.15682 0.38588 0.47257 0.0
C445 C 0.18184 0.44997 0.44732 0.0
C446 C 0.16099 0.40954 0.44157 0.0
C447 C 0.1456 0.3801 0.45487 0.0
C448 C 0.19046 0.45619 0.46542 0.0
N449 N 0.18108 0.42168 0.47754 0.0
H450 H 0.14812 0.35902 0.48203 0.0
H451 H 0.20727 0.48654 0.46919 0.0
H452 H 0.23629 0.37697 0.46142 0.0
H453 H 0.29824 0.41583 0.50664 0.0
O454 O 0.20835 0.34152 0.5 0.0
O455 O 0.23424 0.38854 0.52051 0.0
O456 O 0.2204 0.48323 0.50534 0.0
C457 C 0.22834 0.34534 0.51447 0.0
H458 H 0.08859 0.45789 0.5341 0.0
H459 H 0.30785 0.365 0.45418 0.0
H460 H 0.19357 0.47522 0.43792 0.0
H461 H 0.12641 0.35108 0.4517 0.0
Co462 Co 0.58465 0.40374 0.305 0.0
C463 C 0.65663 0.36847 0.28871 0.0
C464 C 0.64895 0.44395 0.28393 0.0
C465 C 0.68225 0.42905 0.27606 0.0
N466 N 0.6326 0.40592 0.29186 0.0
N467 N 0.68736 0.38149 0.2791 0.0
H468 H 0.65127 0.33192 0.29292 0.0
H469 H 0.63751 0.48004 0.28371 0.0
C470 C 0.54765 0.50277 0.308 0.0
O471 O 0.53562 0.49298 0.32406 0.0
N472 N 0.53802 0.39726 0.31818 0.0
C473 C 0.53428 0.37375 0.3337 0.0
C474 C 0.49685 0.36866 0.33745 0.0
C475 C 0.50244 0.40493 0.31245 0.0
N476 N 0.47665 0.38841 0.32417 0.0
C477 C 0.63006 0.36953 0.33349 0.0
C478 C 0.61733 0.44434 0.35696 0.0
C479 C 0.63041 0.40019 0.36361 0.0
C480 C 0.63857 0.36343 0.35149 0.0
C481 C 0.60912 0.44894 0.33873 0.0
N482 N 0.61255 0.41033 0.3275 0.0
H483 H 0.63448 0.33932 0.32469 0.0
H484 H 0.59867 0.48283 0.33399 0.0
H485 H 0.55696 0.3589 0.34147 0.0
H486 H 0.49592 0.4225 0.30004 0.0
O487 O 0.58432 0.33414 0.30317 0.0
O488 O 0.55859 0.38406 0.28384 0.0
O489 O 0.57354 0.47624 0.30082 0.0
C490 C 0.56394 0.34005 0.28898 0.0
H491 H 0.70128 0.45173 0.2686 0.0
H492 H 0.48542 0.35014 0.34886 0.0
H493 H 0.61176 0.47419 0.36588 0.0
H494 H 0.64943 0.32915 0.35604 0.0
Co495 Co 0.2073 0.36539 0.30606 0.0
C496 C 0.14229 0.39843 0.28382 0.0
C497 C 0.13036 0.33095 0.29622 0.0
C498 C 0.0975 0.3486 0.28862 0.0
N499 N 0.15875 0.36223 0.29327 0.0
N500 N 0.10504 0.39114 0.28077 0.0
H501 H 0.15647 0.43134 0.28016 0.0
H502 H 0.13269 0.29903 0.30436 0.0
C503 C 0.24825 0.26823 0.30617 0.0
O504 O 0.26531 0.27966 0.32104 0.0
N505 N 0.25411 0.37385 0.31915 0.0
C506 C 0.25689 0.39596 0.33508 0.0
C507 C 0.29393 0.40559 0.33858 0.0
C508 C 0.28974 0.37248 0.31288 0.0
N509 N 0.31482 0.39058 0.32469 0.0
C510 C 0.15706 0.39117 0.33406 0.0
C511 C 0.18272 0.32469 0.35839 0.0
C512 C 0.16134 0.36393 0.36473 0.0
C513 C 0.1468 0.39586 0.35197 0.0
C514 C 0.19084 0.32015 0.34024 0.0
N515 N 0.18065 0.35525 0.32855 0.0
H516 H 0.14818 0.41857 0.32479 0.0
H517 H 0.20785 0.29041 0.33603 0.0
H518 H 0.23353 0.40728 0.34324 0.0
H519 H 0.29671 0.35907 0.29987 0.0
O520 O 0.20596 0.43533 0.30521 0.0
O521 O 0.23194 0.38715 0.28514 0.0
O522 O 0.21959 0.29328 0.30079 0.0
C523 C 0.22653 0.43063 0.29093 0.0
H524 H 0.07001 0.33188 0.28919 0.0
H525 H 0.30444 0.42398 0.35027 0.0
H526 H 0.19557 0.29915 0.36732 0.0
H527 H 0.12915 0.42588 0.35585 0.0
Co528 Co 0.96088 0.15544 0.55717 0.0
C529 C 0.89359 0.12291 0.53596 0.0
C530 C 0.88618 0.19415 0.54635 0.0
C531 C 0.85224 0.17828 0.5393 0.0
N532 N 0.91243 0.15948 0.54432 0.0
N533 N 0.85676 0.13318 0.53286 0.0
H534 H 0.90574 0.08806 0.53306 0.0
H535 H 0.89072 0.22764 0.55344 0.0
C536 C 1.0005 0.25374 0.55906 0.0
O537 O 1.01455 0.24311 0.57468 0.0
N538 N 1.00751 0.14686 0.57031 0.0
C539 C 1.00995 0.12128 0.58544 0.0
C540 C 0.04702 0.11441 0.58959 0.0
C541 C 0.04361 0.15371 0.56512 0.0
N542 N 0.06837 0.1358 0.57709 0.0
C543 C 0.91206 0.12764 0.5853 0.0
C544 C 0.93357 0.19748 0.60945 0.0
C545 C 0.91552 0.15593 0.61574 0.0
C546 C 0.90278 0.12212 0.60328 0.0
C547 C 0.94144 0.20214 0.59125 0.0
N548 N 0.93377 0.16536 0.57967 0.0
H549 H 0.9044 0.09924 0.57614 0.0
H550 H 0.9549 0.23441 0.58682 0.0
H551 H 0.98643 0.10595 0.59251 0.0
H552 H 0.05151 0.17148 0.55291 0.0
O553 O 0.95837 0.08587 0.55625 0.0
O554 O 0.98589 0.13229 0.53622 0.0
O555 O 0.97403 0.22728 0.55223 0.0
C556 C 0.97894 0.08916 0.542 0.0
H557 H 0.82611 0.19826 0.53921 0.0
H558 H 0.05724 0.09317 0.60059 0.0
H559 H 0.94266 0.22535 0.6186 0.0
H560 H 0.88818 0.08988 0.60753 0.0
Co561 Co 0.3361 0.1206 0.5554 0.0
C562 C 0.40702 0.15113 0.53707 0.0
C563 C 0.40165 0.07421 0.53678 0.0
C564 C 0.43558 0.08697 0.52894 0.0
N565 N 0.38338 0.11452 0.54181 0.0
N566 N 0.43906 0.13554 0.5291 0.0
H567 H 0.40123 0.18884 0.53945 0.0
H568 H 0.39161 0.03794 0.53902 0.0
C569 C 0.29353 0.02589 0.5591 0.0
O570 O 0.28421 0.03802 0.57537 0.0
N571 N 0.29055 0.13186 0.56909 0.0
C572 C 0.28925 0.15815 0.58416 0.0
C573 C 0.25246 0.16621 0.58862 0.0
C574 C 0.25412 0.12602 0.56422 0.0
N575 N 0.23021 0.14497 0.57635 0.0
C576 C 0.38643 0.14959 0.58278 0.0
C577 C 0.36425 0.08294 0.60773 0.0
C578 C 0.38082 0.12618 0.6137 0.0
C579 C 0.39502 0.15743 0.6007 0.0
C580 C 0.35751 0.07566 0.5895 0.0
N581 N 0.36463 0.11146 0.57756 0.0
H582 H 0.39453 0.17682 0.57334 0.0
H583 H 0.34544 0.04213 0.5853 0.0
H584 H 0.31332 0.17303 0.59099 0.0
H585 H 0.2454 0.1081 0.55211 0.0
O586 O 0.33982 0.18976 0.55407 0.0
O587 O 0.3102 0.14328 0.53461 0.0
O588 O 0.32067 0.0488 0.55129 0.0
C589 C 0.31827 0.18645 0.54015 0.0
H590 H 0.45654 0.06205 0.524 0.0
H591 H 0.24307 0.18801 0.59969 0.0
H592 H 0.35466 0.05599 0.61705 0.0
H593 H 0.41083 0.18932 0.60434 0.0
Co594 Co 0.95743 0.11558 0.75036 0.0
C595 C 0.89227 0.15449 0.77136 0.0
C596 C 0.88163 0.08248 0.76238 0.0
C597 C 0.84908 0.10084 0.77003 0.0
N598 N 0.90902 0.11605 0.76322 0.0
N599 N 0.85573 0.14625 0.77575 0.0
H600 H 0.90575 0.18906 0.77314 0.0
H601 H 0.88447 0.04787 0.75586 0.0
C602 C 0.99429 0.01621 0.74983 0.0
O603 O 1.00904 0.02563 0.73427 0.0
N604 N 1.00452 0.11951 0.73737 0.0
C605 C 1.00903 0.13869 0.72105 0.0
C606 C 0.04661 0.14706 0.71819 0.0
C607 C 0.03957 0.11743 0.7443 0.0
N608 N 0.06564 0.13365 0.73281 0.0
C609 C 0.90989 0.14305 0.72176 0.0
C610 C 0.92925 0.06985 0.69861 0.0
C611 C 0.91294 0.11189 0.69171 0.0
C612 C 0.90117 0.14748 0.70369 0.0
C613 C 0.93657 0.06635 0.71691 0.0
N614 N 0.9301 0.10465 0.72797 0.0
H615 H 0.90313 0.17269 0.73053 0.0
H616 H 0.94903 0.03387 0.7218 0.0
H617 H 0.98656 0.14927 0.71223 0.0
H618 H 0.04562 0.10727 0.75786 0.0
O619 O 0.95792 0.18511 0.75 0.0
O620 O 0.98304 0.13978 0.7711 0.0
O621 O 0.96816 0.04378 0.75631 0.0
C622 C 0.97869 0.18227 0.76422 0.0
H623 H 0.82235 0.08234 0.77104 0.0
H624 H 0.05893 0.1634 0.70652 0.0
H625 H 0.93762 0.04077 0.68983 0.0
H626 H 0.88795 0.18019 0.69896 0.0
Co627 Co 0.33443 0.16334 0.74974 0.0
C628 C 0.40296 0.13148 0.76972 0.0
C629 C 0.41101 0.20183 0.75882 0.0
C630 C 0.44509 0.18539 0.76557 0.0
N631 N 0.38436 0.16784 0.76129 0.0
N632 N 0.44004 0.14085 0.77235 0.0
H633 H 0.39038 0.09728 0.77308 0.0
H634 H 0.40662 0.23511 0.75168 0.0
C635 C 0.31679 0.27487 0.75195 0.0
O636 O 0.33853 0.28831 0.73879 0.0
N637 N 0.286 0.15559 0.73833 0.0
C638 C 0.27977 0.12705 0.72406 0.0
C639 C 0.24175 0.12229 0.72159 0.0
C640 C 0.2516 0.16729 0.74455 0.0
N641 N 0.22433 0.14752 0.73443 0.0
C642 C 0.38598 0.15367 0.72085 0.0
C643 C 0.34332 0.20328 0.69631 0.0
C644 C 0.37274 0.1739 0.69003 0.0
C645 C 0.39506 0.15048 0.70276 0.0
C646 C 0.3358 0.20654 0.71456 0.0
N647 N 0.35603 0.18036 0.72661 0.0
H648 H 0.40126 0.13125 0.73008 0.0
H649 H 0.31078 0.2256 0.71868 0.0
H650 H 0.30149 0.10892 0.71652 0.0
H651 H 0.24663 0.18712 0.75672 0.0
O652 O 0.33948 0.09388 0.74803 0.0
O653 O 0.3139 0.13413 0.77049 0.0
O654 O 0.3177 0.23113 0.75739 0.0
C655 C 0.32033 0.09298 0.76283 0.0
H656 H 0.47158 0.20461 0.76529 0.0
H657 H 0.22783 0.1004 0.71162 0.0
H658 H 0.32414 0.22075 0.68722 0.0
H659 H 0.41824 0.12762 0.69874 0.0
Co660 Co 0.08574 0.86471 0.49776 0.0
C661 C 0.15085 0.90245 0.519 0.0
C662 C 0.16111 0.83041 0.51004 0.0
C663 C 0.19376 0.84851 0.51776 0.0
N664 N 0.13388 0.86417 0.51086 0.0
N665 N 0.18729 0.89395 0.52347 0.0
H666 H 0.13764 0.93718 0.52074 0.0
H667 H 0.15813 0.79587 0.50347 0.0
C668 C 0.04941 0.7665 0.49442 0.0
O669 O 0.03951 0.77707 0.47809 0.0
N670 N 0.03885 0.86946 0.48442 0.0
C671 C 0.03501 0.88297 0.46731 0.0
C672 C 0.99762 0.88938 0.46361 0.0
C673 C 1.00337 0.86871 0.49094 0.0
N674 N 0.97773 0.88079 0.47848 0.0
C675 C 0.13015 0.8998 0.46925 0.0
C676 C 0.12304 0.82194 0.44666 0.0
C677 C 0.13435 0.86651 0.43947 0.0
C678 C 0.13956 0.90501 0.45134 0.0
C679 C 0.11366 0.81838 0.46479 0.0
N680 N 0.11415 0.85832 0.47546 0.0
H681 H 0.13291 0.9309 0.47778 0.0
H682 H 0.10466 0.78411 0.46987 0.0
H683 H 0.05755 0.8899 0.45811 0.0
H684 H 0.99669 0.86196 0.50472 0.0
O685 O 0.08414 0.93439 0.49926 0.0
O686 O 0.05939 0.88446 0.51886 0.0
O687 O 0.07554 0.79185 0.50204 0.0
C688 C 0.06386 0.92843 0.51347 0.0
H689 H 0.2204 0.82984 0.51882 0.0
H690 H 0.98603 0.90088 0.45102 0.0
H691 H 0.12008 0.79049 0.43821 0.0
H692 H 0.14812 0.94022 0.44672 0.0
Co693 Co 0.71028 0.91087 0.4991 0.0
C694 C 0.64616 0.87057 0.5204 0.0
C695 C 0.63475 0.94282 0.51214 0.0
C696 C 0.60276 0.92394 0.52013 0.0
N697 N 0.66229 0.90944 0.51234 0.0
N698 N 0.60988 0.87836 0.5254 0.0
H699 H 0.65989 0.83606 0.52174 0.0
H700 H 0.63711 0.97776 0.50591 0.0
C701 C 0.74578 1.00944 0.49663 0.0
O702 O 0.75462 1.00086 0.47999 0.0
N703 N 0.75719 0.90799 0.48573 0.0
C704 C 0.7616 0.89554 0.46848 0.0
C705 C 0.7993 0.89258 0.46472 0.0
C706 C 0.79256 0.91088 0.49232 0.0
N707 N 0.81846 0.9019 0.47972 0.0
C708 C 0.66635 0.87622 0.47017 0.0
C709 C 0.67451 0.95437 0.44804 0.0
C710 C 0.66507 0.90942 0.44041 0.0
C711 C 0.65851 0.87102 0.45205 0.0
C712 C 0.68223 0.95793 0.46637 0.0
N713 N 0.68171 0.91778 0.47682 0.0
H714 H 0.66304 0.84504 0.47853 0.0
H715 H 0.69001 0.99239 0.47181 0.0
H716 H 0.73934 0.88745 0.45922 0.0
H717 H 0.79927 0.91891 0.50604 0.0
O718 O 0.71274 0.8416 0.4996 0.0
O719 O 0.73721 0.89037 0.51994 0.0
O720 O 0.71981 0.98362 0.50409 0.0
C721 C 0.73364 0.847 0.51365 0.0
H722 H 0.57609 0.94228 0.5217 0.0
H723 H 0.81176 0.88267 0.45211 0.0
H724 H 0.6773 0.98614 0.43984 0.0
H725 H 0.65006 0.83596 0.44709 0.0
Co726 Co 0.08773 0.90859 0.30421 0.0
C727 C 0.15421 0.87317 0.28318 0.0
C728 C 0.16415 0.94297 0.29446 0.0
C729 C 0.19761 0.92556 0.28747 0.0
N730 N 0.13665 0.91016 0.29185 0.0
N731 N 0.19145 0.88143 0.28046 0.0
H732 H 0.14075 0.83943 0.27979 0.0
H733 H 0.1607 0.97612 0.30189 0.0
C734 C 0.0507 1.00694 0.30657 0.0
O735 O 0.03836 0.99722 0.32259 0.0
N736 N 0.04012 0.90333 0.31683 0.0
C737 C 0.03539 0.88773 0.33364 0.0
C738 C 0.99777 0.88148 0.33681 0.0
C739 C 1.00498 0.90532 0.30991 0.0
N740 N 0.97866 0.89224 0.32189 0.0
C741 C 0.13195 0.87468 0.33295 0.0
C742 C 0.12046 0.95032 0.35621 0.0
C743 C 0.13305 0.90599 0.36294 0.0
C744 C 0.14056 0.86879 0.35092 0.0
C745 C 0.11182 0.95457 0.338 0.0
N746 N 0.11464 0.91553 0.32693 0.0
H747 H 0.13661 0.84456 0.32412 0.0
H748 H 0.10147 0.98845 0.33317 0.0
H749 H 0.05751 0.87914 0.3429 0.0
H750 H 0.99903 0.91382 0.29619 0.0
O751 O 0.087 0.83898 0.30282 0.0
O752 O 0.06279 0.88831 0.28283 0.0
O753 O 0.07718 0.98088 0.29963 0.0
C754 C 0.06706 0.84454 0.28846 0.0
H755 H 0.22455 0.94374 0.28782 0.0
H756 H 0.98546 0.86872 0.34906 0.0
H757 H 0.11539 0.98047 0.36506 0.0
H758 H 0.15128 0.83447 0.35552 0.0
Co759 Co 0.70962 0.86407 0.3043 0.0
C760 C 0.63327 0.8933 0.29125 0.0
C761 C 0.65228 0.8284 0.27869 0.0
C762 C 0.61922 0.84321 0.27066 0.0
N763 N 0.66123 0.85964 0.29171 0.0
N764 N 0.60678 0.88416 0.27857 0.0
H765 H 0.6333 0.92526 0.29946 0.0
H766 H 0.66984 0.7987 0.27445 0.0
C767 C 0.74756 0.76632 0.30816 0.0
O768 O 0.75959 0.77823 0.32407 0.0
N769 N 0.75744 0.87202 0.31657 0.0
C770 C 0.76324 0.88838 0.33328 0.0
C771 C 0.80123 0.89311 0.33613 0.0
C772 C 0.79217 0.86831 0.30935 0.0
N773 N 0.81908 0.88087 0.32106 0.0
C774 C 0.66873 0.90096 0.33396 0.0
C775 C 0.67747 0.82358 0.35648 0.0
C776 C 0.66721 0.86849 0.3637 0.0
C777 C 0.66098 0.9066 0.35202 0.0
C778 C 0.68502 0.81939 0.33812 0.0
N779 N 0.68341 0.85894 0.32732 0.0
H780 H 0.666 0.93236 0.32573 0.0
H781 H 0.69372 0.78499 0.33294 0.0
H782 H 0.74174 0.89728 0.34281 0.0
H783 H 0.79771 0.8565 0.2959 0.0
O784 O 0.7086 0.93337 0.30184 0.0
O785 O 0.73382 0.88269 0.28254 0.0
O786 O 0.72128 0.79151 0.30072 0.0
C787 C 0.72818 0.92695 0.28746 0.0
H788 H 0.60717 0.82655 0.25899 0.0
H789 H 0.81479 0.90527 0.34822 0.0
H790 H 0.68167 0.79278 0.36505 0.0
H791 H 0.65235 0.94159 0.35699 0.0
Co792 Co 0.95954 0.66028 0.05291 0.0
C793 C 0.88648 0.6275 0.037 0.0
C794 C 0.89466 0.70316 0.03283 0.0
C795 C 0.86079 0.68926 1.02518 0.0
N796 N 0.91104 0.66436 0.04024 0.0
N797 N 0.8554 0.6416 0.02788 0.0
H798 H 0.89162 0.59059 0.04083 0.0
H799 H 0.90643 0.7391 0.03285 0.0
C800 C 1.00081 0.75687 0.05474 0.0
O801 O 1.01555 0.74509 0.0701 0.0
N802 N 1.00674 0.65185 0.06557 0.0
C803 C 1.01084 0.6346 0.08218 0.0
C804 C 0.04826 0.62635 0.08534 0.0
C805 C 0.04187 0.65227 0.05867 0.0
N806 N 0.06776 0.6373 0.07056 0.0
C807 C 0.91148 0.63275 0.08153 0.0
C808 C 0.9334 0.70355 0.10514 0.0
C809 C 0.91425 0.66303 0.11194 0.0
C810 C 0.90131 0.62897 0.09945 0.0
C811 C 0.94093 0.70733 0.08688 0.0
N812 N 0.93308 0.67011 0.07557 0.0
H813 H 0.90401 0.60363 0.07267 0.0
H814 H 0.95514 0.7389 0.08228 0.0
H815 H 0.98829 0.62618 0.09123 0.0
H816 H 0.04803 0.66134 0.04502 0.0
O817 O 0.95762 0.59043 0.05165 0.0
O818 O 0.98337 0.63829 0.03163 0.0
O819 O 0.97307 0.73203 0.0482 0.0
C820 C 0.97732 0.59479 0.03714 0.0
H821 H 0.84154 0.71265 1.01814 0.0
H822 H 0.06011 0.61233 0.09752 0.0
H823 H 0.94485 0.73116 0.1137 0.0
H824 H 0.88495 0.59804 0.10352 0.0
Co825 Co 0.33716 0.61406 0.05336 0.0
C826 C 0.40432 0.65007 0.03306 0.0
C827 C 0.41398 0.57992 0.04387 0.0
C828 C 0.44752 0.59738 0.03699 0.0
N829 N 0.3866 0.6129 0.04145 0.0
N830 N 0.44154 0.64178 0.03028 0.0
H831 H 0.39093 0.68389 0.02982 0.0
H832 H 0.41035 0.54644 0.05098 0.0
C833 C 0.30054 0.51513 0.05524 0.0
O834 O 0.28834 0.52466 0.07131 0.0
N835 N 0.289 0.61881 0.06545 0.0
C836 C 0.28296 0.63247 0.08246 0.0
C837 C 0.24492 0.63523 0.0854 0.0
C838 C 0.25434 0.615 0.05814 0.0
N839 N 0.22725 0.62454 0.07011 0.0
C840 C 0.37942 0.64791 0.0829 0.0
C841 C 0.36929 0.57053 0.10522 0.0
C842 C 0.38129 0.61468 0.11265 0.0
C843 C 0.38782 0.65294 0.10095 0.0
C844 C 0.36091 0.56717 0.08695 0.0
N845 N 0.3631 0.6069 0.07632 0.0
H846 H 0.38358 0.67879 0.07448 0.0
H847 H 0.35162 0.53315 0.08167 0.0
H848 H 0.30439 0.64107 0.09211 0.0
H849 H 0.249 0.60537 0.04443 0.0
O850 O 0.33651 0.68367 0.05234 0.0
O851 O 0.31309 0.63484 0.03183 0.0
O852 O 0.32673 0.54167 0.04832 0.0
C853 C 0.31733 0.67849 0.03774 0.0
H854 H 0.47433 0.5789 0.03712 0.0
H855 H 0.23118 0.64536 0.09768 0.0
H856 H 0.36525 0.53922 0.11355 0.0
H857 H 0.39691 0.68786 0.10575 0.0
Co858 Co 0.95895 0.61914 0.24767 0.0
C859 C 0.8868 0.65054 0.26469 0.0
C860 C 0.89703 0.57577 0.26981 0.0
C861 C 0.8641 0.58974 0.27833 0.0
N862 N 0.91149 0.61399 0.26119 0.0
N863 N 0.85741 0.63685 0.27502 0.0
H864 H 0.89084 0.68722 0.26032 0.0
H865 H 0.90971 0.54037 0.27018 0.0
C866 C 1.00181 0.52474 0.24433 0.0
O867 O 1.01184 0.53774 0.2283 0.0
N868 N 1.00521 0.6293 0.23436 0.0
C869 C 1.00818 0.64725 0.2178 0.0
C870 C 0.04545 0.65555 0.21412 0.0
C871 C 0.04085 0.62858 0.24072 0.0
N872 N 0.06596 0.64443 0.22861 0.0
C873 C 0.90819 0.64605 0.22011 0.0
C874 C 0.93069 0.5789 0.1953 0.0
C875 C 0.91227 0.6208 0.18919 0.0
C876 C 0.89769 0.65175 0.20233 0.0
C877 C 0.93814 0.57277 0.21352 0.0
N878 N 0.93084 0.60895 0.22537 0.0
H879 H 0.90005 0.67372 0.22942 0.0
H880 H 0.95117 0.53994 0.21771 0.0
H881 H 0.98498 0.65536 0.20906 0.0
H882 H 0.04815 0.61768 0.25407 0.0
O883 O 0.95549 0.68856 0.24875 0.0
O884 O 0.98403 0.6425 0.26857 0.0
O885 O 0.97429 0.5474 0.25203 0.0
C886 C 0.97626 0.68556 0.26295 0.0
H887 H 0.84652 0.56685 0.28646 0.0
H888 H 0.05644 0.66865 0.20165 0.0
H889 H 0.94101 0.55184 0.18616 0.0
H890 H 0.87956 0.68164 0.19902 0.0
Co891 Co 0.33525 0.65324 0.24824 0.0
C892 C 0.40742 0.61815 0.26445 0.0
C893 C 0.39981 0.69372 0.26927 0.0
C894 C 0.43287 0.67874 0.27735 0.0
N895 N 0.38355 0.65569 0.26118 0.0
N896 N 0.43792 0.63107 0.27433 0.0
H897 H 0.40199 0.58157 0.2602 0.0
H898 H 0.38835 0.7298 0.26954 0.0
C899 C 0.29758 0.75068 0.24466 0.0
O900 O 0.28786 0.7394 0.22834 0.0
N901 N 0.28788 0.64669 0.23539 0.0
C902 C 0.28292 0.63205 0.2184 0.0
C903 C 0.24504 0.63021 0.21477 0.0
C904 C 0.25271 0.65184 0.24201 0.0
N905 N 0.22635 0.64248 0.22961 0.0
C906 C 0.37853 0.61877 0.21909 0.0
C907 C 0.36982 0.69665 0.19681 0.0
C908 C 0.38052 0.65204 0.18949 0.0
C909 C 0.38676 0.61364 0.20104 0.0
C910 C 0.36157 0.70015 0.21509 0.0
N911 N 0.36272 0.66015 0.22566 0.0
H912 H 0.38218 0.58765 0.22742 0.0
H913 H 0.35303 0.73445 0.22041 0.0
H914 H 0.30494 0.62291 0.20916 0.0
H915 H 0.24652 0.66314 0.25547 0.0
O916 O 0.3357 0.58407 0.24958 0.0
O917 O 0.30994 0.63236 0.26954 0.0
O918 O 0.32362 0.72582 0.25247 0.0
C919 C 0.31591 0.58868 0.26396 0.0
H920 H 0.45171 0.70143 0.28498 0.0
H921 H 0.23211 0.62039 0.20225 0.0
H922 H 0.366 0.72776 0.18835 0.0
H923 H 0.39615 0.57904 0.19602 0.0
Co924 Co 0.08499 0.36831 0.99593 0.0
C925 C 0.15765 0.40284 1.01217 0.0
C926 C 0.15 0.32707 1.01631 0.0
C927 C 0.18345 0.34149 1.02422 0.0
N928 N 0.13349 0.36556 1.00876 0.0
N929 N 0.18856 0.38926 1.0216 0.0
H930 H 0.15227 0.43964 1.00827 0.0
H931 H 0.13855 0.29096 1.01625 0.0
C932 C 0.04546 0.2706 0.99392 0.0
O933 O 0.03225 0.28199 0.9782 0.0
N934 N 0.03769 0.37524 0.98314 0.0
C935 C 0.03328 0.39066 0.96629 0.0
C936 C 0.99576 0.39792 0.96305 0.0
C937 C 1.00253 0.37461 0.99003 0.0
N938 N 0.97641 0.38806 0.97798 0.0
C939 C 0.13059 0.39702 0.96674 0.0
C940 C 0.11225 0.32226 0.9441 0.0
C941 C 0.12625 0.36527 0.93679 0.0
C942 C 0.13787 0.40153 0.94855 0.0
C943 C 0.10613 0.31887 0.96252 0.0
N944 N 0.11177 0.35791 0.97334 0.0
H945 H 0.1371 0.42726 0.97525 0.0
H946 H 0.09516 0.28579 0.96773 0.0
H947 H 0.05562 0.39839 0.95705 0.0
H948 H 0.9965 0.36661 1.00378 0.0
O949 O 0.08675 0.43785 0.99648 0.0
O950 O 0.06061 0.39211 1.01703 0.0
O951 O 0.07194 0.2965 1.00104 0.0
C952 C 0.06694 0.43508 1.01095 0.0
H953 H 0.20259 0.3183 0.0314 0.0
H954 H 0.98372 0.41064 0.95072 0.0
H955 H 0.1046 0.2923 0.93557 0.0
H956 H 0.14969 0.43488 0.9436 0.0
Co957 Co 0.70829 0.41425 0.9991 0.0
C958 C 0.63827 0.37556 1.01644 0.0
C959 C 0.63993 0.4527 1.01752 0.0
C960 C 0.60647 0.43686 1.02494 0.0
N961 N 0.66019 0.4143 1.0122 0.0
N962 N 0.60506 0.38816 1.02422 0.0
H963 H 0.64656 0.33873 1.01392 0.0
H964 H 0.64834 0.48985 1.01581 0.0
C965 C 0.74278 0.51403 0.99608 0.0
O966 O 0.75357 0.50439 0.97979 0.0
N967 N 0.75539 0.4106 0.98593 0.0
C968 C 0.76 0.39701 0.96881 0.0
C969 C 0.79776 0.39411 0.96514 0.0
C970 C 0.79071 0.41432 0.99255 0.0
N971 N 0.81678 0.40469 0.98007 0.0
C972 C 0.66472 0.37856 0.97023 0.0
C973 C 0.67182 0.45635 0.94778 0.0
C974 C 0.66168 0.41136 0.94054 0.0
C975 C 0.65628 0.37296 0.95221 0.0
C976 C 0.68046 0.46027 0.96603 0.0
N977 N 0.68002 0.42042 0.97668 0.0
H978 H 0.66171 0.34751 0.97868 0.0
H979 H 0.6889 0.49476 0.97122 0.0
H980 H 0.73784 0.38824 0.95958 0.0
H981 H 0.79724 0.42351 1.00619 0.0
O982 O 0.71033 0.34497 1.00013 0.0
O983 O 0.73484 0.39429 1.02021 0.0
O984 O 0.71794 0.48687 1.00368 0.0
C985 C 0.73099 0.35064 1.01423 0.0
H986 H 0.58437 0.45982 0.03007 0.0
H987 H 0.81038 0.38362 0.95263 0.0
H988 H 0.67509 0.48745 0.93927 0.0
H989 H 0.64729 0.33805 0.94729 0.0
Co990 Co 0.08571 0.4076 0.80128 0.0
C991 C 0.15826 0.3806 0.78352 0.0
C992 C 0.15527 0.45695 0.78739 0.0
C993 C 0.19019 0.44521 0.7803 0.0
N994 N 0.1349 0.41638 0.78939 0.0
N995 N 0.19219 0.39695 0.77785 0.0
H996 H 0.15111 0.34277 0.78369 0.0
H997 H 0.1462 0.49249 0.79139 0.0
C998 C 0.0671 0.51983 0.79894 0.0
O999 O 0.09248 0.53521 0.81031 0.0
N1000 N 0.03849 0.39489 0.8132 0.0
C1001 C 0.03506 0.36455 0.82705 0.0
C1002 C 0.99774 0.35914 0.83098 0.0
C1003 C 1.003 0.40703 0.8087 0.0
N1004 N 0.97749 0.38577 0.81948 0.0
C1005 C 0.13653 0.39693 0.83037 0.0
C1006 C 0.093 0.44689 0.85462 0.0
C1007 C 0.12039 0.41487 0.86103 0.0
C1008 C 0.14366 0.3918 0.84861 0.0
C1009 C 0.08706 0.45148 0.83627 0.0
N1010 N 0.10734 0.42459 0.8244 0.0
H1011 H 0.15208 0.37467 0.82115 0.0
H1012 H 0.06305 0.47202 0.83182 0.0
H1013 H 0.05824 0.3466 0.83358 0.0
H1014 H 0.99613 0.43041 0.79778 0.0
O1015 O 0.0937 0.33843 0.80182 0.0
O1016 O 0.06575 0.37917 0.7802 0.0
O1017 O 0.06543 0.47486 0.79497 0.0
C1018 C 0.07473 0.33784 0.78696 0.0
H1019 H 0.21291 0.47034 0.77795 0.0
H1020 H 0.98632 0.33634 0.84129 0.0
H1021 H 0.07463 0.46586 0.86373 0.0
H1022 H 0.16517 0.36682 0.85295 0.0
Co1023 Co 0.70834 0.37308 0.80448 0.0
C1024 C 0.63137 0.39777 0.79134 0.0
C1025 C 0.65322 0.33551 0.778 0.0
C1026 C 0.61942 0.34853 0.77017 0.0
N1027 N 0.66077 0.36623 0.79139 0.0
N1028 N 0.6053 0.38778 0.77857 0.0
H1029 H 0.62982 0.42872 0.80005 0.0
H1030 H 0.67198 0.30732 0.77351 0.0
C1031 C 0.74818 0.27827 0.81033 0.0
O1032 O 0.7563 0.29179 0.82663 0.0
N1033 N 0.7551 0.38406 0.81734 0.0
C1034 C 0.75933 0.40741 0.83297 0.0
C1035 C 0.79691 0.41431 0.83616 0.0
C1036 C 0.79044 0.37823 0.81107 0.0
N1037 N 0.81648 0.39607 0.8224 0.0
C1038 C 0.66659 0.41053 0.83394 0.0
C1039 C 0.6713 0.33136 0.8558 0.0
C1040 C 0.6613 0.37606 0.86344 0.0
C1041 C 0.65754 0.41535 0.85193 0.0
C1042 C 0.68042 0.32818 0.8376 0.0
N1043 N 0.68089 0.36845 0.8272 0.0
H1044 H 0.66556 0.4426 0.82596 0.0
H1045 H 0.68826 0.29364 0.8322 0.0
H1046 H 0.73705 0.42034 0.84138 0.0
H1047 H 0.7968 0.36078 0.79856 0.0
O1048 O 0.70622 0.44206 0.80124 0.0
O1049 O 0.73383 0.39094 0.78289 0.0
O1050 O 0.72174 0.30057 0.80187 0.0
C1051 C 0.72746 0.43534 0.78739 0.0
H1052 H 0.60769 0.33186 0.75841 0.0
H1053 H 0.80891 0.43245 0.84759 0.0
H1054 H 0.67323 0.29934 0.86393 0.0
H1055 H 0.65047 0.45085 0.85689 0.0
C1056 C 0.5029 1.00537 0.04181 0.0
C1057 C 0.49253 0.04344 0.03058 0.0
C1058 C 0.52883 0.9705 0.0362 0.0
C1059 C 0.54553 0.97301 1.01929 0.0
H1060 H 0.49219 1.00356 0.05525 0.0
H1061 H 0.53611 0.94161 0.04521 0.0
S1062 S 0.52422 0.06247 0.9842 0.0
N1063 N 0.49823 0.07925 1.00128 0.0
N1064 N 0.54736 0.01425 0.99085 0.0
C1065 C 0.53443 1.01004 1.00776 0.0
C1066 C 0.5077 0.04502 1.01336 0.0
C1067 C 0.76977 0.31194 0.03789 0.0
C1068 C 0.75621 0.31215 1.02035 0.0
C1069 C 0.79497 0.27628 0.0436 0.0
C1070 C 0.80765 0.24039 0.03183 0.0
H1071 H 0.76008 0.33867 0.04736 0.0
H1072 H 0.80285 0.27527 0.0575 0.0
S1073 S 0.78653 0.23109 0.98375 0.0
N1074 N 0.7614 0.27744 0.99071 0.0
N1075 N 0.80885 0.21088 1.00145 0.0
C1076 C 0.79636 0.24237 1.014 0.0
C1077 C 0.77052 0.27811 1.00825 0.0
C1078 C 0.54741 0.25299 0.28772 0.0
C1079 C 0.54245 0.29979 0.28109 0.0
C1080 C 0.52484 0.21487 0.28187 0.0
C1081 C 0.49642 0.22199 0.26912 0.0
H1082 H 0.56871 0.24566 0.29765 0.0
H1083 H 0.53025 0.17934 0.28722 0.0
S1084 S 0.47122 0.33794 0.24781 0.0
N1085 N 0.50642 0.35148 0.26124 0.0
N1086 N 0.46408 0.27954 0.25021 0.0
C1087 C 0.49094 0.26864 0.26241 0.0
C1088 C 0.51398 0.30758 0.26837 0.0
C1089 C 0.7653 0.05254 0.27986 0.0
C1090 C 0.79631 0.04482 0.2686 0.0
C1091 C 0.74239 0.01438 0.28522 0.0
C1092 C 0.74959 0.967 0.27955 0.0
H1093 H 0.75815 0.08851 0.28437 0.0
H1094 H 0.71906 0.02211 0.29403 0.0
S1095 S 0.82823 0.92732 0.25049 0.0
N1096 N 0.83355 0.98626 0.2522 0.0
N1097 N 0.79057 0.91418 0.26232 0.0
C1098 C 0.78055 0.95868 0.26827 0.0
C1099 C 0.80394 0.99767 0.26282 0.0
C1100 C 0.30429 0.7663 0.03574 0.0
C1101 C 0.2965 0.71916 0.02996 0.0
C1102 C 0.28264 0.8052 0.02994 0.0
C1103 C 0.25233 0.7984 1.01816 0.0
H1104 H 0.32721 0.77328 0.04489 0.0
H1105 H 0.29021 0.84098 0.03452 0.0
S1106 S 0.21895 0.68168 0.9998 0.0
N1107 N 0.25552 0.66747 1.01224 0.0
N1108 N 0.2148 0.7408 1.00135 0.0
C1109 C 0.24393 0.75139 1.01241 0.0
C1110 C 0.26608 0.71171 1.01827 0.0
C1111 C 0.5377 0.76796 0.79205 0.0
C1112 C 0.54591 0.80617 0.78052 0.0
C1113 C 0.51153 0.73259 0.78738 0.0
C1114 C 0.49273 0.73373 0.77093 0.0
H1115 H 0.55092 0.76582 0.80499 0.0
H1116 H 0.50664 0.70344 0.79664 0.0
S1117 S 0.50462 0.82612 0.73589 0.0
N1118 N 0.53316 0.84357 0.75199 0.0
N1119 N 0.48433 0.77626 0.74301 0.0
C1120 C 0.5004 0.77201 0.75931 0.0
C1121 C 0.52701 0.80831 0.76413 0.0
C1122 C 0.28036 0.05242 0.7852 0.0
C1123 C 0.30028 0.04969 0.76909 0.0
C1124 C 0.25622 0.01552 0.7905 0.0
C1125 C 0.25125 0.9741 0.78 0.0
H1126 H 0.28292 0.08373 0.79375 0.0
H1127 H 0.24205 0.01917 0.80316 0.0
S1128 S 0.29608 0.94934 0.73645 0.0
N1129 N 0.3128 1.00251 0.74244 0.0
N1130 N 0.26778 0.93238 0.75264 0.0
C1131 C 0.271 0.97061 0.76387 0.0
C1132 C 0.29552 1.00851 0.75839 0.0
C1133 C 0.52217 0.46728 0.53574 0.0
C1134 C 0.54304 0.47209 0.51999 0.0
C1135 C 0.49794 0.50383 0.54151 0.0
C1136 C 0.49368 0.5465 0.53171 0.0
H1137 H 0.52464 0.4351 0.54376 0.0
H1138 H 0.48353 0.49924 0.55406 0.0
S1139 S 0.53901 0.57504 0.48866 0.0
N1140 N 0.55586 0.52164 0.49406 0.0
N1141 N 0.51023 0.59025 0.50491 0.0
C1142 C 0.51336 0.55113 0.51564 0.0
C1143 C 0.53816 0.51403 0.50979 0.0
C1144 C 0.79762 0.77343 0.54306 0.0
C1145 C 0.80958 0.73668 0.53149 0.0
C1146 C 0.77252 0.80894 0.53726 0.0
C1147 C 0.75846 0.80832 0.51981 0.0
H1148 H 0.80602 0.77329 0.55689 0.0
H1149 H 0.76338 0.83634 0.54659 0.0
S1150 S 0.78668 0.72463 0.48366 0.0
N1151 N 0.80948 0.70521 0.50134 0.0
N1152 N 0.7622 0.77176 0.49043 0.0
C1153 C 0.77197 0.77335 0.50788 0.0
C1154 C 0.79768 0.73762 0.51373 0.0
C1155 C 0.78067 0.55277 0.78606 0.0
C1156 C 0.80474 0.5474 0.77135 0.0
C1157 C 0.75443 0.51738 0.79047 0.0
C1158 C 0.75141 0.47462 0.78055 0.0
H1159 H 0.78128 0.58527 0.79408 0.0
H1160 H 0.7369 0.5234 0.80203 0.0
S1161 S 0.8086 0.44167 0.74111 0.0
N1162 N 0.82424 0.4955 0.74695 0.0
N1163 N 0.77534 0.42808 0.75554 0.0
C1164 C 0.77573 0.46813 0.76598 0.0
C1165 C 0.80239 0.50458 0.76137 0.0
C1166 C 0.25232 0.26117 0.51207 0.0
C1167 C 0.24931 0.30421 0.52186 0.0
C1168 C 0.27594 0.22389 0.51773 0.0
C1169 C 0.29752 0.22844 0.53332 0.0
H1170 H 0.23689 0.25647 0.49978 0.0
H1171 H 0.27708 0.19114 0.50987 0.0
S1172 S 0.29835 0.33316 0.56416 0.0
N1173 N 0.2689 0.34867 0.54824 0.0
N1174 N 0.31347 0.27885 0.55876 0.0
C1175 C 0.2946 0.27122 0.54328 0.0
C1176 C 0.27035 0.30898 0.53761 0.0
C1177 C 0.26832 0.55503 0.28487 0.0
C1178 C 0.2954 0.54739 0.27152 0.0
C1179 C 0.24517 0.51745 0.29072 0.0
C1180 C 0.24811 0.47103 0.28334 0.0
H1181 H 0.26453 0.59046 0.29068 0.0
H1182 H 0.22504 0.52481 0.30117 0.0
S1183 S 0.31494 0.43212 0.2481 0.0
N1184 N 0.32431 0.4897 0.25131 0.0
N1185 N 0.28052 0.41942 0.26198 0.0
C1186 C 0.27515 0.46294 0.26997 0.0
C1187 C 0.29894 0.50099 0.26418 0.0
C1188 C 0.04881 0.01588 0.51547 0.0
C1189 C 0.04272 0.9687 0.52152 0.0
C1190 C 0.02706 0.05429 0.52174 0.0
C1191 C 0.99834 0.04701 0.5343 0.0
H1192 H 0.07047 0.02332 0.50574 0.0
H1193 H 0.03333 0.0901 0.51687 0.0
S1194 S 0.97002 0.93003 0.55391 0.0
N1195 N 1.00518 0.9165 0.5405 0.0
N1196 N 0.96433 0.98888 0.55228 0.0
C1197 C 0.99167 0.99996 0.54036 0.0
C1198 C 1.0139 0.96077 0.534 0.0
C1199 C 0.04408 0.25867 0.79229 0.0
C1200 C 0.05588 0.29425 0.78028 0.0
C1201 C 1.01826 0.22308 0.78712 0.0
C1202 C 1.00316 0.2223 0.76986 0.0
H1203 H 0.05343 0.25962 0.80599 0.0
H1204 H 1.00964 0.19643 0.79678 0.0
S1205 S 0.02923 0.30354 0.73281 0.0
N1206 N 0.05354 0.32377 0.74997 0.0
N1207 N 1.00493 0.25715 0.74025 0.0
C1208 C 1.016 0.25649 0.75754 0.0
C1209 C 0.04248 0.29232 0.76275 0.0
C1210 C 0.04939 0.75787 0.28778 0.0
C1211 C 0.0447 0.80454 0.28099 0.0
C1212 C 0.0259 0.72015 0.28243 0.0
C1213 C 0.99676 0.72759 0.27008 0.0
H1214 H 0.07125 0.75034 0.29742 0.0
H1215 H 0.0312 0.68464 0.28782 0.0
S1216 S 0.97153 0.84364 0.24883 0.0
N1217 N 1.00796 0.85662 0.26158 0.0
N1218 N 0.96378 0.78547 0.25153 0.0
C1219 C 0.9914 0.77421 0.26331 0.0
C1220 C 1.01545 0.81271 0.26872 0.0
C1221 C 1.01982 0.47052 0.03175 0.0
C1222 C 0.04622 0.47709 1.01803 0.0
C1223 C 0.99648 0.50823 0.03737 0.0
C1224 C 0.99855 0.55394 0.02946 0.0
H1225 H 1.01674 0.43576 0.03809 0.0
H1226 H 0.97705 0.50159 0.04816 0.0
S1227 S 0.06313 0.59009 0.99303 0.0
N1228 N 0.07325 0.53298 0.99675 0.0
N1229 N 0.02927 0.60373 1.00714 0.0
C1230 C 0.02477 0.56099 1.01567 0.0
C1231 C 0.0487 0.52267 1.01004 0.0
C1232 C 0.38885 0.14521 0.14129 0.0
C1233 C 0.42312 0.14375 0.1319 0.0
C1234 C 0.38688 0.13207 0.15935 0.0
C1235 C 0.41886 0.11562 0.16863 0.0
H1236 H 0.36352 0.15748 0.1347 0.0
H1237 H 0.36013 0.13499 0.16615 0.0
S1238 S 0.51504 0.10345 0.14999 0.0
N1239 N 0.48956 0.12344 0.13321 0.0
N1240 N 0.48579 0.0985 0.1669 0.0
C1241 C 0.45307 0.11308 0.15927 0.0
C1242 C 0.45522 0.12718 0.14101 0.0
C1243 C 0.90635 0.12189 0.14114 0.0
C1244 C 0.87243 0.12492 0.13151 0.0
C1245 C 0.90788 0.13352 0.1594 0.0
C1246 C 0.87581 0.15003 0.16861 0.0
H1247 H 0.93175 0.10975 0.13458 0.0
H1248 H 0.93436 0.1296 0.16637 0.0
S1249 S 0.78045 0.16575 0.14936 0.0
N1250 N 0.80622 0.14643 0.13254 0.0
N1251 N 0.8092 0.16877 0.16657 0.0
C1252 C 0.84195 0.15398 0.15902 0.0
C1253 C 0.84023 0.14133 0.14057 0.0
C1254 C 0.63751 0.85609 0.8881 0.0
C1255 C 0.63861 0.90364 0.88142 0.0
C1256 C 0.63815 0.8462 0.90643 0.0
C1257 C 0.63856 0.88323 0.91935 0.0
H1258 H 0.6351 0.82566 0.87914 0.0
H1259 H 0.63789 0.80877 0.91038 0.0
S1260 S 0.64326 0.01468 0.90923 0.0
N1261 N 0.64425 0.98831 0.8896 0.0
N1262 N 0.63977 0.97047 0.92369 0.0
C1263 C 0.63991 0.93116 0.91287 0.0
C1264 C 0.64116 0.9411 0.89413 0.0
C1265 C 0.13241 0.88765 0.89085 0.0
C1266 C 0.1657 0.87434 0.88194 0.0
C1267 C 0.13259 0.89871 0.90916 0.0
C1268 C 0.16627 0.89825 0.919 0.0
H1269 H 0.10612 0.88959 0.88361 0.0
H1270 H 0.10639 0.90823 0.9156 0.0
S1271 S 0.26099 0.86733 0.90186 0.0
N1272 N 0.23311 0.8618 0.8844 0.0
N1273 N 0.23356 0.88362 0.91853 0.0
C1274 C 0.19964 0.88529 0.91022 0.0
C1275 C 0.19934 0.87314 0.89176 0.0
C1276 C 0.39002 0.61768 0.66318 0.0
C1277 C 0.42372 0.62111 0.67297 0.0
C1278 C 0.38871 0.62968 0.64499 0.0
C1279 C 0.42078 0.64692 0.63601 0.0
H1280 H 0.36464 0.60482 0.66955 0.0
H1281 H 0.36242 0.62531 0.63788 0.0
S1282 S 0.51556 0.66415 0.65575 0.0
N1283 N 0.48969 0.64401 0.67235 0.0
N1284 N 0.48712 0.66696 0.63843 0.0
C1285 C 0.45439 0.65141 0.64577 0.0
C1286 C 0.45589 0.63843 0.66414 0.0
C1287 C 0.83515 0.63835 0.64296 0.0
C1288 C 0.86882 0.63092 0.63342 0.0
C1289 C 0.8353 0.65141 0.66105 0.0
C1290 C 0.86913 0.65774 0.67059 0.0
H1291 H 0.80824 0.63462 0.63634 0.0
H1292 H 0.8085 0.65573 0.66769 0.0
S1293 S 0.96526 0.64322 0.65198 0.0
N1294 N 0.93713 0.63066 0.63513 0.0
N1295 N 0.93742 0.65647 0.66885 0.0
C1296 C 0.90305 0.65075 0.66122 0.0
C1297 C 0.9029 0.63725 0.64276 0.0
C1298 C 0.60318 0.3543 0.40949 0.0
C1299 C 0.63356 0.36843 0.42041 0.0
C1300 C 0.60248 0.36495 0.39122 0.0
C1301 C 0.63201 0.39035 0.38306 0.0
H1302 H 0.57918 0.33598 0.4152 0.0
H1303 H 0.5784 0.35363 0.38342 0.0
S1304 S 0.7195 0.43212 0.40497 0.0
N1305 N 0.69522 0.40669 0.42113 0.0
N1306 N 0.69331 0.42713 0.38692 0.0
C1307 C 0.66287 0.40384 0.39359 0.0
C1308 C 0.66377 0.39284 0.4122 0.0
C1309 C 0.15726 0.43313 0.409 0.0
C1310 C 0.15754 0.39676 0.42205 0.0
C1311 C 0.15757 0.42218 0.39073 0.0
C1312 C 0.15719 0.37419 0.38438 0.0
H1313 H 0.15732 0.47076 0.41284 0.0
H1314 H 0.15926 0.45201 0.38154 0.0
S1315 S 0.1548 0.26471 0.41269 0.0
N1316 N 0.15745 0.30984 0.42694 0.0
N1317 N 0.15339 0.28985 0.3929 0.0
C1318 C 0.1555 0.33738 0.39723 0.0
C1319 C 0.15667 0.34845 0.41588 0.0
C1320 C 0.94641 0.12636 0.66294 0.0
C1321 C 0.91226 0.12129 0.67221 0.0
C1322 C 0.94706 0.13858 0.64482 0.0
C1323 C 0.91357 0.14542 0.63515 0.0
H1324 H 0.9729 0.12168 0.66986 0.0
H1325 H 0.97401 0.14213 0.63825 0.0
S1326 S 0.8168 0.13575 0.6531 0.0
N1327 N 0.84412 0.12442 0.67036 0.0
N1328 N 0.84531 0.14565 0.63617 0.0
C1329 C 0.87924 0.13987 0.64419 0.0
C1330 C 0.87859 0.12839 0.66275 0.0
C1331 C 0.38746 0.10488 0.64631 0.0
C1332 C 0.38127 0.13985 0.6331 0.0
C1333 C 0.38559 0.11646 0.66452 0.0
C1334 C 0.37766 0.16371 0.67049 0.0
H1335 H 0.39356 0.06796 0.64259 0.0
H1336 H 0.38938 0.08758 0.67398 0.0
S1337 S 0.36015 0.2694 0.64148 0.0
N1338 N 0.36631 0.22416 0.62751 0.0
N1339 N 0.36548 0.2463 0.66148 0.0
C1340 C 0.3724 0.19934 0.65743 0.0
C1341 C 0.37362 0.18741 0.63888 0.0
C1342 C 0.10895 0.85503 0.40844 0.0
C1343 C 0.13685 0.87443 0.41974 0.0
C1344 C 0.10811 0.86553 0.39018 0.0
C1345 C 0.13483 0.89632 0.38239 0.0
H1346 H 0.08683 0.83255 0.41381 0.0
H1347 H 0.08596 0.84998 0.38209 0.0
S1348 S 0.21576 0.95318 0.40529 0.0
N1349 N 0.19382 0.92323 0.42113 0.0
N1350 N 0.19114 0.94397 0.38698 0.0
C1351 C 0.16326 0.9153 0.39329 0.0
C1352 C 0.16453 0.90414 0.41189 0.0
C1353 C 0.63757 0.87061 0.41261 0.0
C1354 C 0.66474 0.90103 0.42062 0.0
C1355 C 0.63868 0.85924 0.39432 0.0
C1356 C 0.66691 0.87801 0.38325 0.0
H1357 H 0.61511 0.85545 0.42053 0.0
H1358 H 0.61708 0.83613 0.38876 0.0
S1359 S 0.74607 0.95643 0.39733 0.0
N1360 N 0.72202 0.94725 0.41576 0.0
N1361 N 0.72321 0.92711 0.38155 0.0
C1362 C 0.69422 0.90817 0.39099 0.0
C1363 C 0.69335 0.91942 0.40958 0.0
C1364 C 0.91076 0.60619 0.1383 0.0
C1365 C 0.91036 0.65387 0.13172 0.0
C1366 C 0.90983 0.59604 0.1566 0.0
C1367 C 0.90982 0.63289 0.16956 0.0
H1368 H 0.91278 0.57582 0.12931 0.0
H1369 H 0.90951 0.55855 0.16048 0.0
S1370 S 0.9076 0.7646 0.15973 0.0
N1371 N 0.90632 0.73857 0.14003 0.0
N1372 N 0.91013 0.72008 0.1741 0.0
C1373 C 0.90938 0.68096 0.1632 0.0
C1374 C 0.90846 0.69122 0.14448 0.0
C1375 C 0.35451 0.61386 0.16188 0.0
C1376 C 0.38185 0.64346 0.16993 0.0
C1377 C 0.35521 0.60379 0.14356 0.0
C1378 C 0.3836 0.6224 0.13244 0.0
H1379 H 0.33203 0.59879 0.16984 0.0
H1380 H 0.33269 0.58216 0.13801 0.0
S1381 S 0.46412 0.69795 0.14754 0.0
N1382 N 0.43919 0.6892 0.16574 0.0
N1383 N 0.44163 0.6692 0.13147 0.0
C1384 C 0.41184 0.65099 0.14053 0.0
C1385 C 0.41071 0.66174 0.15919 0.0
C1386 C 0.15729 0.39198 0.90816 0.0
C1387 C 0.12527 0.37472 0.9172 0.0
C1388 C 0.15578 0.40448 0.89001 0.0
C1389 C 0.12193 0.40157 0.8803 0.0
H1390 H 0.18371 0.39589 0.9152 0.0
H1391 H 0.18112 0.41736 0.88361 0.0
S1392 S 0.03013 0.3588 0.89768 0.0
N1393 N 0.05879 0.35534 0.91489 0.0
N1394 N 0.05587 0.37914 0.88107 0.0
C1395 C 0.08981 0.38427 0.88918 0.0
C1396 C 0.0915 0.3708 0.90752 0.0
C1397 C 0.68478 0.36073 0.89462 0.0
C1398 C 0.65845 0.38305 0.88328 0.0
C1399 C 0.68535 0.37007 0.91301 0.0
C1400 C 0.65999 0.40263 0.92094 0.0
H1401 H 0.70594 0.33679 0.88921 0.0
H1402 H 0.70638 0.35227 0.92109 0.0
S1403 S 0.58299 0.46719 0.89796 0.0
N1404 N 0.604 0.43637 0.882 0.0
N1405 N 0.60642 0.45507 0.91636 0.0
C1406 C 0.63308 0.42456 0.90998 0.0
C1407 C 0.63198 0.4145 0.89125 0.0
C1408 C 0.6289 0.14644 0.05679 0.0
C1409 C 0.60851 0.14445 0.07276 0.0
C1410 C 0.66837 0.14808 0.05691 0.0
C1411 C 0.68854 0.14822 0.073 0.0
H1412 H 0.61429 0.14543 0.04417 0.0
H1413 H 0.68318 0.14953 0.04437 0.0
S1414 S 0.64797 0.14496 0.11836 0.0
N1415 N 0.61116 0.14487 0.105 0.0
N1416 N 0.6851 0.14603 0.10524 0.0
C1417 C 0.66833 0.14684 0.08902 0.0
C1418 C 0.62836 0.14546 0.08889 0.0
C1419 C 0.66505 0.17316 0.22045 0.0
C1420 C 0.6867 0.14206 0.23089 0.0
C1421 C 0.62579 0.17028 0.22046 0.0
C1422 C 0.60676 0.13546 0.23065 0.0
H1423 H 0.67876 0.19926 0.21197 0.0
H1424 H 0.61025 0.19495 0.21212 0.0
S1425 S 0.65162 0.04539 0.26022 0.0
N1426 N 0.68722 0.07631 0.25196 0.0
N1427 N 0.61316 0.06938 0.25163 0.0
C1428 C 0.6283 0.10487 0.24155 0.0
C1429 C 0.6684 0.10846 0.24171 0.0
C1430 C 0.3813 0.89087 0.99163 0.0
C1431 C 0.36108 0.89248 0.97554 0.0
C1432 C 0.42094 0.89084 0.99184 0.0
C1433 C 0.44186 0.89238 0.97596 0.0
H1434 H 0.36643 0.88889 1.00414 0.0
H1435 H 0.43525 0.89003 1.00452 0.0
S1436 S 0.40234 0.89729 0.93025 0.0
N1437 N 0.36526 0.89803 0.94337 0.0
N1438 N 0.43891 0.89379 0.94366 0.0
C1439 C 0.42184 0.89367 0.9598 0.0
C1440 C 0.38173 0.8948 0.95962 0.0
C1441 C 0.4196 0.88585 0.80723 0.0
C1442 C 0.44027 0.88595 0.82321 0.0
C1443 C 0.37994 0.88575 0.80728 0.0
C1444 C 0.35961 0.88582 0.82333 0.0
H1445 H 0.43413 0.88548 0.7946 0.0
H1446 H 0.36513 0.88652 0.79472 0.0
S1447 S 0.40021 0.88552 0.8688 0.0
N1448 N 0.43697 0.88761 0.8555 0.0
N1449 N 0.36329 0.88352 0.85556 0.0
C1450 C 0.38003 0.88504 0.83935 0.0
C1451 C 0.42009 0.88613 0.8393 0.0
C1452 C 0.62691 0.62452 0.55778 0.0
C1453 C 0.60784 0.62593 0.57416 0.0
C1454 C 0.66635 0.62789 0.55703 0.0
C1455 C 0.68778 0.63323 0.57262 0.0
H1456 H 0.61125 0.62084 0.54552 0.0
H1457 H 0.68006 0.62777 0.5442 0.0
S1458 S 0.65157 0.63797 0.61875 0.0
N1459 N 0.61361 0.63338 0.60625 0.0
N1460 N 0.68736 0.63736 0.60483 0.0
C1461 C 0.66907 0.63359 0.58903 0.0
C1462 C 0.62919 0.63058 0.5898 0.0
C1463 C 0.62929 0.68182 0.73662 0.0
C1464 C 0.60837 0.63926 0.73895 0.0
C1465 C 0.66863 0.68109 0.73707 0.0
C1466 C 0.68799 0.63766 0.73955 0.0
H1467 H 0.61508 0.71558 0.73399 0.0
H1468 H 0.68408 0.71402 0.73456 0.0
S1469 S 0.64653 0.51748 0.74789 0.0
N1470 N 0.60987 0.55338 0.74521 0.0
N1471 N 0.68412 0.55204 0.74571 0.0
C1472 C 0.66754 0.59538 0.74273 0.0
C1473 C 0.62753 0.59619 0.74256 0.0
C1474 C 0.37533 0.34809 0.47364 0.0
C1475 C 0.35698 0.38557 0.48289 0.0
C1476 C 0.41455 0.34416 0.47363 0.0
C1477 C 0.43686 0.37688 0.48313 0.0
H1478 H 0.35929 0.32204 0.46604 0.0
H1479 H 0.42772 0.31594 0.46584 0.0
S1480 S 0.40374 0.48057 0.50989 0.0
N1481 N 0.36476 0.45582 0.50206 0.0
N1482 N 0.43874 0.44705 0.50237 0.0
C1483 C 0.41925 0.41329 0.49303 0.0
C1484 C 0.37919 0.41788 0.49288 0.0
C1485 C 0.37645 0.3913 0.33958 0.0
C1486 C 0.35545 0.39174 0.32374 0.0
C1487 C 0.41564 0.39151 0.33945 0.0
C1488 C 0.43607 0.3911 0.32348 0.0
H1489 H 0.36261 0.38993 0.35235 0.0
H1490 H 0.43 0.39186 0.35212 0.0
S1491 S 0.39511 0.39364 0.27811 0.0
N1492 N 0.35828 0.39451 0.29144 0.0
N1493 N 0.43232 0.39153 0.2912 0.0
C1494 C 0.41569 0.39192 0.30743 0.0
C1495 C 0.37536 0.39274 0.30755 0.0
C1496 C 0.16871 0.14111 0.56067 0.0
C1497 C 0.18958 0.14242 0.57659 0.0
C1498 C 0.12913 0.13938 0.56084 0.0
C1499 C 0.10898 0.13886 0.57694 0.0
H1500 H 0.18302 0.14187 0.548 0.0
H1501 H 0.11425 0.13783 0.54831 0.0
S1502 S 0.1503 0.14159 0.62229 0.0
N1503 N 0.18687 0.14093 0.60886 0.0
N1504 N 0.11314 0.14173 0.60919 0.0
C1505 C 0.12961 0.14064 0.59291 0.0
C1506 C 0.16968 0.14138 0.59273 0.0
C1507 C 0.12358 0.18167 0.73017 0.0
C1508 C 0.10524 0.13948 0.73585 0.0
C1509 C 0.16283 0.1857 0.73099 0.0
C1510 C 0.18472 0.14762 0.73745 0.0
H1511 H 0.10749 0.21111 0.72459 0.0
H1512 H 0.17633 0.21758 0.72572 0.0
S1513 S 0.15065 0.03089 0.75474 0.0
N1514 N 0.11198 0.05998 0.74894 0.0
N1515 N 0.18596 0.0677 0.7503 0.0
C1516 C 0.1668 0.10626 0.74388 0.0
C1517 C 0.12689 0.10219 0.74318 0.0
C1518 C 0.88083 0.93013 0.47107 0.0
C1519 C 0.85846 0.90015 0.4816 0.0
C1520 C 0.91989 0.92472 0.47071 0.0
C1521 C 0.93792 0.88845 0.48062 0.0
H1522 H 0.8678 0.95727 0.4628 0.0
H1523 H 0.93604 0.94865 0.46233 0.0
S1524 S 0.89103 0.80055 0.51031 0.0
N1525 N 0.85629 0.83386 0.50246 0.0
N1526 N 0.92998 0.82236 0.50146 0.0
C1527 C 0.91574 0.85898 0.49161 0.0
C1528 C 0.87587 0.86508 0.49214 0.0
C1529 C 0.91962 0.84962 0.32847 0.0
C1530 C 0.93874 0.88649 0.31935 0.0
C1531 C 0.88039 0.84668 0.32824 0.0
C1532 C 0.85893 0.8799 0.31865 0.0
H1533 H 0.93507 0.82352 0.33624 0.0
H1534 H 0.86654 0.81914 0.33602 0.0
S1535 S 0.89453 0.9815 0.29176 0.0
N1536 N 0.93285 0.95599 0.29988 0.0
N1537 N 0.85873 0.94933 0.2992 0.0
C1538 C 0.87737 0.91541 0.30872 0.0
C1539 C 0.91746 0.91888 0.30908 0.0
C1540 C 0.1265 0.59421 0.07737 0.0
C1541 C 0.10766 0.6311 0.06813 0.0
C1542 C 0.16571 0.59092 0.07723 0.0
C1543 C 0.18742 0.62373 0.06758 0.0
H1544 H 0.11088 0.56836 0.08517 0.0
H1545 H 0.17935 0.56343 0.08512 0.0
S1546 S 0.15269 0.72536 0.04045 0.0
N1547 N 0.11418 0.70037 0.04857 0.0
N1548 N 0.1882 0.69283 0.04798 0.0
C1549 C 0.16927 0.65921 0.05753 0.0
C1550 C 0.12923 0.66315 0.05784 0.0
C1551 C 0.16566 0.613 0.24096 0.0
C1552 C 0.18639 0.64687 0.23123 0.0
C1553 C 0.12613 0.61345 0.24062 0.0
C1554 C 0.10628 0.64779 0.23052 0.0
H1555 H 0.18015 0.58498 0.24824 0.0
H1556 H 0.11109 0.58567 0.24774 0.0
S1557 S 0.14874 0.74876 0.20522 0.0
N1558 N 0.18511 0.71793 0.21274 0.0
N1559 N 0.111 0.72048 0.21261 0.0
C1560 C 0.1271 0.68364 0.22169 0.0
C1561 C 0.16715 0.68269 0.2219 0.0
C1562 C 0.91769 0.43122 0.97102 0.0
C1563 C 0.93653 0.39473 0.98048 0.0
C1564 C 0.87854 0.43553 0.9716 0.0
C1565 C 0.85683 0.40421 0.98191 0.0
H1566 H 0.93327 0.45612 0.96279 0.0
H1567 H 0.8649 0.46281 0.9636 0.0
S1568 S 0.89158 0.30347 1.0095 0.0
N1569 N 0.93 0.32692 1.0007 0.0
N1570 N 0.85617 0.33642 1.00212 0.0
C1571 C 0.87504 0.36889 0.99203 0.0
C1572 C 0.91501 0.36389 0.99128 0.0
C1573 C 0.91769 0.38714 0.83577 0.0
C1574 C 0.93708 0.39026 0.81956 0.0
C1575 C 0.87852 0.38894 0.83647 0.0
C1576 C 0.85686 0.39431 0.821 0.0
H1577 H 0.93294 0.38333 0.84814 0.0
H1578 H 0.86506 0.38541 0.84929 0.0
S1579 S 0.89357 0.40583 0.77511 0.0
N1580 N 0.93156 0.39916 0.78751 0.0
N1581 N 0.85757 0.40459 0.78894 0.0
C1582 C 0.8757 0.39823 0.80464 0.0
C1583 C 0.91588 0.39598 0.8039 0.0
C1584 C 0.31356 0.11667 1.003 0.0
C1585 C 0.32658 0.11014 1.02051 0.0
C1586 C 0.28723 0.08487 0.99515 0.0
C1587 C 0.27179 0.04547 1.0045 0.0
H1588 H 0.3252 0.14524 0.99494 0.0
H1589 H 0.27992 0.09023 0.98133 0.0
S1590 S 0.29362 0.01457 0.05129 0.0
N1591 N 0.31974 0.06267 0.04739 0.0
N1592 N 0.27033 1.00354 0.03272 0.0
C1593 C 0.28301 0.03999 1.02233 0.0
C1594 C 0.31035 0.07198 0.03027 0.0
C1595 C 1.00742 0.1938 0.99403 0.0
C1596 C 0.02431 0.23174 1.00376 0.0
C1597 C 0.98048 0.16257 1.00161 0.0
C1598 C 0.96824 0.16798 1.01932 0.0
H1599 H 1.0141 0.18919 0.98009 0.0
H1600 H 0.96786 0.13529 0.9932 0.0
S1601 S 1.00484 0.25982 0.05108 0.0
N1602 N 0.02768 0.2714 0.03248 0.0
N1603 N 0.97743 0.21308 0.04677 0.0
C1604 C 0.98586 0.20474 0.02945 0.0
C1605 C 1.01373 0.2363 1.02172 0.0
C1606 C 0.30349 0.25121 0.28639 0.0
C1607 C 0.26972 0.23472 0.29412 0.0
C1608 C 0.33039 0.21942 0.27908 0.0
C1609 C 0.32525 0.16895 0.27913 0.0
H1610 H 0.31029 0.28912 0.28669 0.0
H1611 H 0.35627 0.23477 0.2741 0.0
S1612 S 0.23965 0.10694 0.29621 0.0
N1613 N 0.23169 0.16449 0.3005 0.0
N1614 N 0.28104 0.10463 0.28627 0.0
C1615 C 0.29056 0.152 0.28605 0.0
C1616 C 0.26324 0.18473 0.29364 0.0
C1617 C 0.9866 0.11412 0.29641 0.0
C1618 C 0.96902 0.10163 0.2802 0.0
C1619 C 1.01469 0.08492 0.30418 0.0
C1620 C 0.02768 0.04227 0.29597 0.0
H1621 H 0.97751 0.14589 0.30359 0.0
H1622 H 0.02561 0.09517 0.31708 0.0
S1623 S 0.99228 0.99324 0.25316 0.0
N1624 N 0.96782 0.04332 0.256 0.0
N1625 N 1.02067 0.98925 0.27048 0.0
C1626 C 1.01128 0.02997 0.27949 0.0
C1627 C 0.98204 0.05927 0.27169 0.0
C1628 C 0.75071 0.99866 0.03529 0.0
C1629 C 0.78497 0.97996 0.04192 0.0
C1630 C 0.72047 0.96864 0.02989 0.0
C1631 C 0.72259 0.91773 0.0305 0.0
H1632 H 0.74687 0.03718 0.03432 0.0
H1633 H 0.69497 0.98595 1.02538 0.0
S1634 S 0.8074 0.8493 0.04501 0.0
N1635 N 0.81955 0.90624 0.04785 0.0
N1636 N 0.76401 0.85026 0.03718 0.0
C1637 C 0.75717 0.89837 0.03662 0.0
C1638 C 0.78785 0.92914 0.04236 0.0
C1639 C 0.06188 0.86694 0.04513 0.0
C1640 C 0.08053 0.85488 0.02917 0.0
C1641 C 0.03401 0.83681 0.05257 0.0
C1642 C 1.02231 0.79371 0.04423 0.0
H1643 H 0.07011 0.89895 0.05241 0.0
H1644 H 1.02242 0.84651 0.0654 0.0
S1645 S 0.06049 0.74582 1.00186 0.0
N1646 N 0.0838 0.79672 1.00494 0.0
N1647 N 0.03144 0.7409 1.01887 0.0
C1648 C 0.0396 0.78199 0.02794 0.0
C1649 C 0.06859 0.81222 1.02047 0.0
C1650 C 0.72965 0.81828 0.77828 0.0
C1651 C 0.72395 0.86552 0.77183 0.0
C1652 C 0.76023 0.7892 0.77259 0.0
C1653 C 0.78698 0.80542 0.76002 0.0
H1654 H 0.71048 0.80357 0.78801 0.0
H1655 H 0.7627 0.75334 0.77809 0.0
S1656 S 0.78452 0.92553 0.73821 0.0
N1657 N 0.74769 0.92629 0.75154 0.0
N1658 N 0.80467 0.87253 0.74111 0.0
C1659 C 0.78161 0.85264 0.75346 0.0
C1660 C 0.75043 0.88227 0.75925 0.0
C1661 C 0.04425 0.99705 0.77236 0.0
C1662 C 1.01565 0.98054 0.76086 0.0
C1663 C 0.0734 0.96635 0.77836 0.0
C1664 C 0.07553 0.9173 0.77319 0.0
H1665 H 0.04562 0.03491 0.77583 0.0
H1666 H 0.09545 0.98221 0.78636 0.0
S1667 S 1.00392 0.85458 0.74527 0.0
N1668 N 0.98957 0.91118 0.74567 0.0
N1669 N 0.04235 0.85285 0.75759 0.0
C1670 C 0.04537 0.89969 0.76267 0.0
C1671 C 1.01613 0.93134 0.75635 0.0
C1672 C 0.32417 0.55986 0.52946 0.0
C1673 C 0.32593 0.60931 0.52493 0.0
C1674 C 0.29598 0.52892 0.52259 0.0
C1675 C 0.26799 0.54559 0.51085 0.0
H1676 H 0.34583 0.54397 0.53764 0.0
H1677 H 0.29761 0.49084 0.52562 0.0
S1678 S 0.25609 0.67212 0.49628 0.0
N1679 N 0.29345 0.67393 0.50933 0.0
N1680 N 0.24233 0.61525 0.49587 0.0
C1681 C 0.26821 0.59503 0.50683 0.0
C1682 C 0.29653 0.62689 0.51401 0.0
C1683 C 0.96313 0.68844 0.50549 0.0
C1684 C 0.97094 0.66811 0.52216 0.0
C1685 C 0.98913 0.71855 0.49676 0.0
C1686 C 0.02441 0.73114 0.50428 0.0
H1687 H 0.93652 0.68084 0.49905 0.0
H1688 H 0.98077 0.73298 0.48402 0.0
S1689 S 0.05836 0.68929 0.54823 0.0
N1690 N 1.01666 0.66346 0.54614 0.0
N1691 N 0.06502 0.7209 0.52994 0.0
C1692 C 0.03255 0.7114 0.52109 0.0
C1693 C 1.00612 0.67976 0.52991 0.0
C1694 C 0.31147 0.70553 0.77427 0.0
C1695 C 0.32509 0.66545 0.78387 0.0
C1696 C 0.28422 0.73734 0.78148 0.0
C1697 C 0.26985 0.73106 0.79878 0.0
H1698 H 0.32247 0.71284 0.76115 0.0
H1699 H 0.276 0.76862 0.77384 0.0
S1700 S 0.29537 0.63168 0.82941 0.0
N1701 N 0.32084 0.62098 0.8115 0.0
N1702 N 0.27076 0.68072 0.82506 0.0
C1703 C 0.28255 0.69051 0.8083 0.0
C1704 C 0.30975 0.65778 0.80087 0.0
C1705 C 1.0047 0.53534 0.78318 0.0
C1706 C 0.03685 0.55373 0.79195 0.0
C1707 C 0.97452 0.56517 0.7778 0.0
C1708 C 0.97482 0.61571 0.78044 0.0
H1709 H 1.00235 0.49715 0.78056 0.0
H1710 H 0.95048 0.5478 0.77174 0.0
S1711 S 0.0549 0.68381 0.80043 0.0
N1712 N 0.06818 0.62693 0.80177 0.0
N1713 N 1.01303 0.68301 0.79094 0.0
C1714 C 1.00771 0.635 0.78845 0.0
C1715 C 0.03818 0.60425 0.79429 0.0
C1716 C 0.74498 0.40608 0.54391 0.0
C1717 C 0.72095 0.42141 0.53004 0.0
C1718 C 0.77514 0.43486 0.55027 0.0
C1719 C 0.78327 0.48072 0.54312 0.0
H1720 H 0.7401 0.37165 0.55021 0.0
H1721 H 0.79187 0.42111 0.56116 0.0
S1722 S 0.73108 0.53703 0.50565 0.0
N1723 N 0.70921 0.48522 0.50872 0.0
N1724 N 0.76509 0.53889 0.52057 0.0
C1725 C 0.7599 0.49616 0.52899 0.0
C1726 C 0.72909 0.46685 0.52253 0.0
C1727 C 0.06057 0.3653 0.54973 0.0
C1728 C 0.07716 0.35547 0.5331 0.0
C1729 C 0.03384 0.3339 0.55742 0.0
C1730 C 1.02127 0.29173 0.54868 0.0
H1731 H 0.06957 0.39653 0.55728 0.0
H1732 H 0.02378 0.34195 0.57068 0.0
S1733 S 0.05372 0.25048 0.50433 0.0
N1734 N 0.07742 0.30093 0.50775 0.0
N1735 N 0.02703 0.2428 0.52205 0.0
C1736 C 0.03637 0.28248 0.5317 0.0
C1737 C 0.06427 0.31397 0.52399 0.0
C1738 C 0.73353 0.36056 0.25531 0.0
C1739 C 0.71768 0.35104 0.27212 0.0
C1740 C 0.76101 0.33017 0.24766 0.0
C1741 C 0.77499 0.28913 0.25652 0.0
H1742 H 0.72343 0.39073 0.24759 0.0
H1743 H 0.77051 0.33804 0.23432 0.0
S1744 S 0.74511 0.24906 0.30131 0.0
N1745 N 0.71985 0.29811 0.29778 0.0
N1746 N 0.77144 0.24156 0.28344 0.0
C1747 C 0.76065 0.28015 0.27364 0.0
C1748 C 0.73208 0.31077 0.28138 0.0
C1749 C 1.01697 0.46462 0.26945 0.0
C1750 C 0.02738 0.48906 0.25377 0.0
C1751 C 0.04196 0.43205 0.27807 0.0
C1752 C 0.07882 0.42335 0.27166 0.0
H1753 H 0.98932 0.47049 0.27508 0.0
H1754 H 0.03262 0.41427 0.29005 0.0
S1755 S 0.12067 0.47739 0.2313 0.0
N1756 N 0.07815 0.50096 0.23235 0.0
N1757 N 0.12388 0.4413 0.24857 0.0
C1758 C 0.0895 0.4475 0.25613 0.0
C1759 C 0.06421 0.4798 0.24723 0.0
C1760 C 0.81069 0.04433 0.50114 0.0
C1761 C 0.77288 0.04102 0.507 0.0
C1762 C 0.83765 0.07351 0.50978 0.0
C1763 C 0.82836 0.10201 0.52461 0.0
H1764 H 0.81991 0.02371 0.4897 0.0
H1765 H 0.86599 0.07449 0.50454 0.0
S1766 S 0.73424 0.10551 0.54616 0.0
N1767 N 0.72836 0.06778 0.52934 0.0
N1768 N 0.77856 0.12345 0.54533 0.0
C1769 C 0.79083 0.09886 0.53085 0.0
C1770 C 0.76338 0.06818 0.52219 0.0
C1771 C 0.48143 0.20805 0.53075 0.0
C1772 C 0.47015 0.16482 0.52223 0.0
C1773 C 0.50986 0.23831 0.52361 0.0
C1774 C 0.52811 0.22712 0.50747 0.0
H1775 H 0.46766 0.21908 0.54292 0.0
H1776 H 0.51594 0.27217 0.53023 0.0
S1777 S 0.50977 0.11849 0.47983 0.0
N1778 N 0.48072 0.11253 0.49678 0.0
N1779 N 0.53302 0.16915 0.48341 0.0
C1780 C 0.51774 0.18354 0.49909 0.0
C1781 C 0.48924 0.15252 0.50643 0.0
C1782 C 0.79055 0.18061 0.77921 0.0
C1783 C 0.82903 0.17949 0.78416 0.0
C1784 C 0.76448 0.21277 0.78732 0.0
C1785 C 0.77544 0.24438 0.80112 0.0
H1786 H 0.78056 0.15682 0.7688 0.0
H1787 H 0.73546 0.21228 0.78294 0.0
S1788 S 0.87295 0.25637 0.81891 0.0
N1789 N 0.87639 0.21381 0.80364 0.0
N1790 N 0.82835 0.2728 0.81891 0.0
C1791 C 0.81391 0.24347 0.8061 0.0
C1792 C 0.84036 0.21156 0.79766 0.0
C1793 C 0.45758 0.08087 0.79528 0.0
C1794 C 0.46775 0.1089 0.78055 0.0
C1795 C 0.48311 0.04908 0.80343 0.0
C1796 C 0.5204 0.04258 0.79721 0.0
H1797 H 0.42948 0.08381 0.80072 0.0
H1798 H 0.47294 0.02867 0.81468 0.0
S1799 S 0.56124 0.10585 0.75841 0.0
N1800 N 0.51796 0.1274 0.75971 0.0
N1801 N 0.56566 0.06689 0.77484 0.0
C1802 C 0.53098 0.06992 0.78228 0.0
C1803 C 0.50491 0.10323 0.77408 0.0
C1804 C 0.25238 0.92868 0.52727 0.0
C1805 C 0.21383 0.92706 0.53207 0.0
C1806 C 0.27815 0.96104 0.53556 0.0
C1807 C 0.26673 0.9924 0.54934 0.0
H1808 H 0.26265 0.9051 0.51687 0.0
H1809 H 0.30728 0.96082 0.53137 0.0
S1810 S 0.16884 1.00268 0.56682 0.0
N1811 N 0.16599 0.96029 0.55147 0.0
N1812 N 0.21326 0.01987 0.56695 0.0
C1813 C 0.22814 0.99095 0.55414 0.0
C1814 C 0.2021 0.95875 0.54558 0.0
C1815 C 0.54492 0.84399 0.52991 0.0
C1816 C 0.58386 0.84472 0.53403 0.0
C1817 C 0.51947 0.81159 0.53828 0.0
C1818 C 0.53156 0.77922 0.55153 0.0
H1819 H 0.53403 0.86835 0.51996 0.0
H1820 H 0.49004 0.81254 0.53456 0.0
S1821 S 0.63064 0.76583 0.56712 0.0
N1822 N 0.63282 0.80915 0.55221 0.0
N1823 N 0.58602 0.74957 0.56787 0.0
C1824 C 0.57051 0.77964 0.55566 0.0
C1825 C 0.59629 0.81188 0.54698 0.0
C1826 C 0.2355 0.79413 0.24771 0.0
C1827 C 0.27214 0.78558 0.25447 0.0
C1828 C 0.20952 0.8246 0.25635 0.0
C1829 C 0.21882 0.84933 0.27206 0.0
H1830 H 0.22628 0.77646 0.23564 0.0
H1831 H 0.18194 0.82941 0.25049 0.0
S1832 S 0.31015 0.83964 0.2959 0.0
N1833 N 0.31557 0.80405 0.27844 0.0
N1834 N 0.2673 0.86241 0.29437 0.0
C1835 C 0.25527 0.8415 0.27907 0.0
C1836 C 0.28164 0.80942 0.27041 0.0
C1837 C 0.54714 0.99613 0.26983 0.0
C1838 C 0.51817 0.97921 0.25863 0.0
C1839 C 0.57491 0.9649 0.27683 0.0
C1840 C 0.57522 0.91493 0.27297 0.0
H1841 H 0.54971 0.03441 0.2724 0.0
H1842 H 0.5973 0.98079 0.28461 0.0
S1843 S 0.50177 0.85153 0.24632 0.0
N1844 N 0.48966 0.90888 0.24513 0.0
N1845 N 0.53985 0.84978 0.25888 0.0
C1846 C 0.54465 0.89724 0.26271 0.0
C1847 C 0.51681 0.92936 0.25539 0.0
C1848 C 0.80821 0.62138 1.00442 0.0
C1849 C 0.82438 0.61188 1.02116 0.0
C1850 C 0.78011 0.59135 0.99701 0.0
C1851 C 0.76582 0.55084 1.0061 0.0
H1852 H 0.81852 0.65119 0.99657 0.0
H1853 H 0.77029 0.59912 0.98371 0.0
S1854 S 0.79637 0.51144 0.05091 0.0
N1855 N 0.82225 0.55977 0.04703 0.0
N1856 N 0.76942 0.50403 0.03322 0.0
C1857 C 0.78051 0.54204 1.02319 0.0
C1858 C 0.80972 0.5722 0.03065 0.0
C1859 C 0.45837 0.70087 1.00689 0.0
C1860 C 0.4688 0.67391 1.02185 0.0
C1861 C 0.48398 0.73161 0.99823 0.0
C1862 C 0.52152 0.73805 1.00417 0.0
H1863 H 0.43013 0.69767 1.00161 0.0
H1864 H 0.47372 0.75114 0.98678 0.0
S1865 S 0.56282 0.67799 0.04357 0.0
N1866 N 0.51937 0.6568 0.0427 0.0
N1867 N 0.56711 0.71537 0.02665 0.0
C1868 C 0.53223 0.71206 1.0194 0.0
C1869 C 0.50613 0.67982 0.02811 0.0
C1870 C 0.81378 0.6595 0.29971 0.0
C1871 C 0.82712 0.66688 0.28228 0.0
C1872 C 0.78651 0.69008 0.30751 0.0
C1873 C 0.77022 0.72896 0.29819 0.0
H1874 H 0.82567 0.63097 0.30771 0.0
H1875 H 0.77885 0.68393 0.32123 0.0
S1876 S 0.79339 0.76286 0.25182 0.0
N1877 N 0.82037 0.71553 0.25567 0.0
N1878 N 0.76911 0.77212 0.27021 0.0
C1879 C 0.78217 0.73569 0.28051 0.0
C1880 C 0.81054 0.70505 0.27264 0.0
C1881 C 0.51118 0.58069 0.30623 0.0
C1882 C 0.52508 0.53914 0.29759 0.0
C1883 C 0.4838 0.61084 0.29838 0.0
C1884 C 0.4679 0.60051 0.28159 0.0
H1885 H 0.52082 0.58935 0.31952 0.0
H1886 H 0.4739 0.64157 0.30592 0.0
S1887 S 0.4944 0.49602 0.25314 0.0
N1888 N 0.52094 0.4897 0.271 0.0
N1889 N 0.46949 0.54558 0.25634 0.0
C1890 C 0.48197 0.55939 0.27262 0.0
C1891 C 0.51047 0.52909 0.28054 0.0
C1892 C 0.23566 0.4081 0.04534 0.0
C1893 C 0.21917 0.41916 0.02877 0.0
C1894 C 0.2637 0.43755 0.05313 0.0
C1895 C 0.27774 0.47913 0.04464 0.0
H1896 H 0.2257 0.37735 0.05278 0.0
H1897 H 0.27371 0.42841 0.06628 0.0
S1898 S 0.24591 0.52373 1.00069 0.0
N1899 N 0.22049 0.47459 1.00383 0.0
N1900 N 0.27318 0.52921 1.01837 0.0
C1901 C 0.26259 0.48982 0.02778 0.0
C1902 C 0.23342 0.46021 1.01992 0.0
C1903 C 0.52049 0.3436 0.05086 0.0
C1904 C 0.51203 0.29805 0.0434 0.0
C1905 C 0.55059 0.37236 0.04457 0.0
C1906 C 0.57415 0.35733 0.03046 0.0
H1907 H 0.5041 0.35704 0.06193 0.0
H1908 H 0.5558 0.40651 0.05111 0.0
S1909 S 0.5629 0.24264 1.00526 0.0
N1910 N 0.52935 0.24047 1.02037 0.0
N1911 N 0.58503 0.29423 1.00859 0.0
C1912 C 0.56563 0.31224 1.02264 0.0
C1913 C 0.53494 0.2829 0.02905 0.0
C1914 C 0.26115 0.29254 0.77233 0.0
C1915 C 0.28685 0.30869 0.7593 0.0
C1916 C 0.23075 0.32132 0.77829 0.0
C1917 C 0.22432 0.36819 0.77168 0.0
H1918 H 0.2641 0.25681 0.7779 0.0
H1919 H 0.21218 0.30662 0.78828 0.0
S1920 S 0.28265 0.42852 0.73735 0.0
N1921 N 0.30322 0.3757 0.74005 0.0
N1922 N 0.24655 0.42915 0.75113 0.0
C1923 C 0.24999 0.38519 0.75883 0.0
C1924 C 0.28094 0.35576 0.75269 0.0
C1925 C 0.53868 0.49423 0.77222 0.0
C1926 C 0.50816 0.47494 0.76243 0.0
C1927 C 0.56968 0.46579 0.77758 0.0
C1928 C 0.5719 0.41604 0.77369 0.0
H1929 H 0.53915 0.53212 0.77561 0.0
H1930 H 0.59254 0.48353 0.78448 0.0
S1931 S 0.49706 0.34542 0.75069 0.0
N1932 N 0.48108 0.40128 0.75041 0.0
N1933 N 0.53805 0.34781 0.76098 0.0
C1934 C 0.54069 0.39565 0.76466 0.0
C1935 C 0.50929 0.42488 0.75898 0.0
loop_
_geom_bond_atom_site_label_1
_geom_bond_atom_site_label_2
_geom_bond_distance
_geom_bond_site_symmetry_2
_ccdc_geom_bond_type
Co0 N4 2.148 . S
Co0 N10 2.128 . S
Co0 N20 2.194 . S
Co0 O25 2.351 . S
Co0 O26 2.155 . S
Co0 O27 2.096 . S
C1 N4 1.301 . S
C1 N5 1.328 . S
C1 H6 0.930 . S
C2 C3 1.333 . S
C2 N4 1.317 . S
C2 H7 0.930 . S
C3 C2 1.333 . S
C3 N5 1.350 . S
C3 H29 0.925 1_554 S
N4 Co0 2.148 . S
N4 C1 1.301 . S
N4 C2 1.317 . S
N5 C1 1.328 . S
N5 C3 1.350 . S
H6 C1 0.930 . S
H7 C2 0.930 . S
C8 O9 1.224 . S
C8 O27 1.247 . S
O9 C8 1.224 . S
N10 Co0 2.128 . S
N10 C11 1.355 . S
N10 C13 1.311 . S
C11 N10 1.355 . S
C11 C12 1.363 . S
C11 H23 0.929 . S
C12 C11 1.363 . S
C12 N14 1.375 . S
C12 H30 0.931 . S
C13 N10 1.311 . S
C13 N14 1.347 . S
C13 H24 0.929 . S
N14 C12 1.375 . S
N14 C13 1.347 . S
C15 C18 1.365 . S
C15 N20 1.328 . S
C15 H21 0.929 . S
C16 C17 1.362 . S
C16 C19 1.378 . S
C16 H31 0.929 . S
C17 C16 1.362 . S
C17 C18 1.366 . S
C18 C15 1.365 . S
C18 C17 1.366 . S
C18 H32 0.930 . S
C19 C16 1.378 . S
C19 N20 1.315 . S
C19 H22 0.930 . S
N20 Co0 2.194 . S
N20 C15 1.328 . S
N20 C19 1.315 . S
H21 C15 0.929 . S
H22 C19 0.930 . S
H23 C11 0.929 . S
H24 C13 0.929 . S
O25 Co0 2.351 . S
O25 C28 1.244 . S
O26 Co0 2.155 . S
O26 C28 1.240 . S
O27 Co0 2.096 . S
O27 C8 1.247 . S
C28 O25 1.244 . S
C28 O26 1.240 . S
H29 C3 0.925 1_556 S
H30 C12 0.931 . S
H31 C16 0.929 . S
H32 C18 0.930 . S
Co33 N37 2.148 . S
Co33 N43 2.128 . S
Co33 N53 2.194 . S
Co33 O58 2.351 . S
Co33 O59 2.155 . S
Co33 O60 2.096 . S
C34 N37 1.301 . S
C34 N38 1.328 . S
C34 H39 0.930 . S
C35 C36 1.333 . S
C35 N37 1.317 . S
C35 H40 0.930 . S
C36 C35 1.333 . S
C36 N38 1.350 . S
C36 H62 0.925 1_554 S
N37 Co33 2.148 . S
N37 C34 1.301 . S
N37 C35 1.317 . S
N38 C34 1.328 . S
N38 C36 1.350 . S
H39 C34 0.930 . S
H40 C35 0.930 . S
C41 O42 1.224 . S
C41 O60 1.247 . S
O42 C41 1.224 . S
N43 Co33 2.128 . S
N43 C44 1.355 . S
N43 C46 1.311 . S
C44 N43 1.355 . S
C44 C45 1.363 . S
C44 H56 0.929 . S
C45 C44 1.363 . S
C45 N47 1.375 . S
C45 H63 0.931 . S
C46 N43 1.311 . S
C46 N47 1.347 . S
C46 H57 0.929 . S
N47 C45 1.375 . S
N47 C46 1.347 . S
C48 C51 1.365 . S
C48 N53 1.328 . S
C48 H54 0.929 . S
C49 C50 1.362 . S
C49 C52 1.378 . S
C49 H64 0.929 . S
C50 C49 1.362 . S
C50 C51 1.366 . S
C51 C48 1.365 . S
C51 C50 1.366 . S
C51 H65 0.930 . S
C52 C49 1.378 . S
C52 N53 1.315 . S
C52 H55 0.930 . S
N53 Co33 2.194 . S
N53 C48 1.328 . S
N53 C52 1.315 . S
H54 C48 0.929 . S
H55 C52 0.930 . S
H56 C44 0.929 . S
H57 C46 0.929 . S
O58 Co33 2.351 . S
O58 C61 1.244 . S
O59 Co33 2.155 . S
O59 C61 1.240 . S
O60 Co33 2.096 . S
O60 C41 1.247 . S
C61 O58 1.244 . S
C61 O59 1.240 . S
H62 C36 0.925 1_556 S
H63 C45 0.931 . S
H64 C49 0.929 . S
H65 C51 0.930 . S
Co66 N70 2.148 . S
Co66 N76 2.128 . S
Co66 N86 2.194 . S
Co66 O91 2.351 . S
Co66 O92 2.155 . S
Co66 O93 2.096 . S
C67 N70 1.301 . S
C67 N71 1.328 . S
C67 H72 0.930 . S
C68 C69 1.333 . S
C68 N70 1.317 . S
C68 H73 0.930 . S
C69 C68 1.333 . S
C69 N71 1.350 . S
C69 H95 0.931 . S
N70 Co66 2.148 . S
N70 C67 1.301 . S
N70 C68 1.317 . S
N71 C67 1.328 . S
N71 C69 1.350 . S
H72 C67 0.930 . S
H73 C68 0.930 . S
C74 O75 1.224 . S
C74 O93 1.247 . S
O75 C74 1.224 . S
N76 Co66 2.128 . S
N76 C77 1.355 . S
N76 C79 1.311 . S
C77 N76 1.355 . S
C77 C78 1.363 . S
C77 H89 0.929 . S
C78 C77 1.363 . S
C78 N80 1.375 . S
C78 H96 0.931 . S
C79 N76 1.311 . S
C79 N80 1.347 . S
C79 H90 0.929 . S
N80 C78 1.375 . S
N80 C79 1.347 . S
C81 C84 1.365 . S
C81 N86 1.328 . S
C81 H87 0.929 . S
C82 C83 1.362 . S
C82 C85 1.378 . S
C82 H97 0.929 . S
C83 C82 1.362 . S
C83 C84 1.366 . S
C84 C81 1.365 . S
C84 C83 1.366 . S
C84 H98 0.930 . S
C85 C82 1.378 . S
C85 N86 1.315 . S
C85 H88 0.930 . S
N86 Co66 2.194 . S
N86 C81 1.328 . S
N86 C85 1.315 . S
H87 C81 0.929 . S
H88 C85 0.930 . S
H89 C77 0.929 . S
H90 C79 0.929 . S
O91 Co66 2.351 . S
O91 C94 1.244 . S
O92 Co66 2.155 . S
O92 C94 1.240 . S
O93 Co66 2.096 . S
O93 C74 1.247 . S
C94 O91 1.244 . S
C94 O92 1.240 . S
H95 C69 0.931 . S
H96 C78 0.931 . S
H97 C82 0.929 . S
H98 C84 0.930 . S
Co99 N103 2.148 . S
Co99 N109 2.128 . S
Co99 N119 2.194 . S
Co99 O124 2.351 . S
Co99 O125 2.155 . S
Co99 O126 2.096 . S
C100 N103 1.301 . S
C100 N104 1.328 . S
C100 H105 0.930 . S
C101 C102 1.333 . S
C101 N103 1.317 . S
C101 H106 0.930 . S
C102 C101 1.333 . S
C102 N104 1.350 . S
C102 H128 0.931 . S
N103 Co99 2.148 . S
N103 C100 1.301 . S
N103 C101 1.317 . S
N104 C100 1.328 . S
N104 C102 1.350 . S
H105 C100 0.930 . S
H106 C101 0.930 . S
C107 O108 1.224 . S
C107 O126 1.247 . S
O108 C107 1.224 . S
N109 Co99 2.128 . S
N109 C110 1.355 . S
N109 C112 1.311 . S
C110 N109 1.355 . S
C110 C111 1.363 . S
C110 H122 0.929 . S
C111 C110 1.363 . S
C111 N113 1.375 . S
C111 H129 0.931 . S
C112 N109 1.311 . S
C112 N113 1.347 . S
C112 H123 0.929 . S
N113 C111 1.375 . S
N113 C112 1.347 . S
C114 C117 1.365 . S
C114 N119 1.328 . S
C114 H120 0.929 . S
C115 C116 1.362 . S
C115 C118 1.378 . S
C115 H130 0.929 . S
C116 C115 1.362 . S
C116 C117 1.366 . S
C117 C114 1.365 . S
C117 C116 1.366 . S
C117 H131 0.930 . S
C118 C115 1.378 . S
C118 N119 1.315 . S
C118 H121 0.930 . S
N119 Co99 2.194 . S
N119 C114 1.328 . S
N119 C118 1.315 . S
H120 C114 0.929 . S
H121 C118 0.930 . S
H122 C110 0.929 . S
H123 C112 0.929 . S
O124 Co99 2.351 . S
O124 C127 1.244 . S
O125 Co99 2.155 . S
O125 C127 1.240 . S
O126 Co99 2.096 . S
O126 C107 1.247 . S
C127 O124 1.244 . S
C127 O125 1.240 . S
H128 C102 0.931 . S
H129 C111 0.931 . S
H130 C115 0.929 . S
H131 C117 0.930 . S
Co132 N136 2.148 . S
Co132 N142 2.128 . S
Co132 N152 2.194 . S
Co132 O157 2.351 . S
Co132 O158 2.155 . S
Co132 O159 2.096 . S
C133 N136 1.301 . S
C133 N137 1.328 . S
C133 H138 0.930 . S
C134 C135 1.333 . S
C134 N136 1.317 . S
C134 H139 0.930 . S
C135 C134 1.333 . S
C135 N137 1.350 . S
C135 H161 0.925 1_556 S
N136 Co132 2.148 . S
N136 C133 1.301 . S
N136 C134 1.317 . S
N137 C133 1.328 . S
N137 C135 1.350 . S
H138 C133 0.930 . S
H139 C134 0.930 . S
C140 O141 1.224 . S
C140 O159 1.247 . S
O141 C140 1.224 . S
N142 Co132 2.128 . S
N142 C143 1.355 . S
N142 C145 1.311 . S
C143 N142 1.355 . S
C143 C144 1.363 . S
C143 H155 0.929 . S
C144 C143 1.363 . S
C144 N146 1.375 . S
C144 H162 0.931 . S
C145 N142 1.311 . S
C145 N146 1.347 . S
C145 H156 0.929 . S
N146 C144 1.375 . S
N146 C145 1.347 . S
C147 C150 1.365 . S
C147 N152 1.328 . S
C147 H153 0.929 . S
C148 C149 1.362 . S
C148 C151 1.378 . S
C148 H163 0.929 . S
C149 C148 1.362 . S
C149 C150 1.366 . S
C150 C147 1.365 . S
C150 C149 1.366 . S
C150 H164 0.930 . S
C151 C148 1.378 . S
C151 N152 1.315 . S
C151 H154 0.930 . S
N152 Co132 2.194 . S
N152 C147 1.328 . S
N152 C151 1.315 . S
H153 C147 0.929 . S
H154 C151 0.930 . S
H155 C143 0.929 . S
H156 C145 0.929 . S
O157 Co132 2.351 . S
O157 C160 1.244 . S
O158 Co132 2.155 . S
O158 C160 1.240 . S
O159 Co132 2.096 . S
O159 C140 1.247 . S
C160 O157 1.244 . S
C160 O158 1.240 . S
H161 C135 0.925 1_554 S
H162 C144 0.931 . S
H163 C148 0.929 . S
H164 C150 0.930 . S
Co165 N169 2.148 . S
Co165 N175 2.128 . S
Co165 N185 2.194 . S
Co165 O190 2.351 . S
Co165 O191 2.155 . S
Co165 O192 2.096 . S
C166 N169 1.301 . S
C166 N170 1.328 . S
C166 H171 0.930 . S
C167 C168 1.333 . S
C167 N169 1.317 . S
C167 H172 0.930 . S
C168 C167 1.333 . S
C168 N170 1.350 . S
C168 H194 0.925 1_556 S
N169 Co165 2.148 . S
N169 C166 1.301 . S
N169 C167 1.317 . S
N170 C166 1.328 . S
N170 C168 1.350 . S
H171 C166 0.930 . S
H172 C167 0.930 . S
C173 O174 1.224 . S
C173 O192 1.247 . S
O174 C173 1.224 . S
N175 Co165 2.128 . S
N175 C176 1.355 . S
N175 C178 1.311 . S
C176 N175 1.355 . S
C176 C177 1.363 . S
C176 H188 0.929 . S
C177 C176 1.363 . S
C177 N179 1.375 . S
C177 H195 0.931 . S
C178 N175 1.311 . S
C178 N179 1.347 . S
C178 H189 0.929 . S
N179 C177 1.375 . S
N179 C178 1.347 . S
C180 C183 1.365 . S
C180 N185 1.328 . S
C180 H186 0.929 . S
C181 C182 1.362 . S
C181 C184 1.378 . S
C181 H196 0.929 . S
C182 C181 1.362 . S
C182 C183 1.366 . S
C183 C180 1.365 . S
C183 C182 1.366 . S
C183 H197 0.930 . S
C184 C181 1.378 . S
C184 N185 1.315 . S
C184 H187 0.930 . S
N185 Co165 2.194 . S
N185 C180 1.328 . S
N185 C184 1.315 . S
H186 C180 0.929 . S
H187 C184 0.930 . S
H188 C176 0.929 . S
H189 C178 0.929 . S
O190 Co165 2.351 . S
O190 C193 1.244 . S
O191 Co165 2.155 . S
O191 C193 1.240 . S
O192 Co165 2.096 . S
O192 C173 1.247 . S
C193 O190 1.244 . S
C193 O191 1.240 . S
H194 C168 0.925 1_554 S
H195 C177 0.931 . S
H196 C181 0.929 . S
H197 C183 0.930 . S
Co198 N202 2.148 . S
Co198 N208 2.128 . S
Co198 N218 2.194 . S
Co198 O223 2.351 . S
Co198 O224 2.155 . S
Co198 O225 2.096 . S
C199 N202 1.301 . S
C199 N203 1.328 . S
C199 H204 0.930 . S
C200 C201 1.333 . S
C200 N202 1.317 . S
C200 H205 0.930 . S
C201 C200 1.333 . S
C201 N203 1.350 . S
C201 H227 0.931 . S
N202 Co198 2.148 . S
N202 C199 1.301 . S
N202 C200 1.317 . S
N203 C199 1.328 . S
N203 C201 1.350 . S
H204 C199 0.930 . S
H205 C200 0.930 . S
C206 O207 1.224 . S
C206 O225 1.247 . S
O207 C206 1.224 . S
N208 Co198 2.128 . S
N208 C209 1.355 . S
N208 C211 1.311 . S
C209 N208 1.355 . S
C209 C210 1.363 . S
C209 H221 0.929 . S
C210 C209 1.363 . S
C210 N212 1.375 . S
C210 H228 0.931 . S
C211 N208 1.311 . S
C211 N212 1.347 . S
C211 H222 0.929 . S
N212 C210 1.375 . S
N212 C211 1.347 . S
C213 C216 1.365 . S
C213 N218 1.328 . S
C213 H219 0.929 . S
C214 C215 1.362 . S
C214 C217 1.378 . S
C214 H229 0.929 . S
C215 C214 1.362 . S
C215 C216 1.366 . S
C216 C213 1.365 . S
C216 C215 1.366 . S
C216 H230 0.930 . S
C217 C214 1.378 . S
C217 N218 1.315 . S
C217 H220 0.930 . S
N218 Co198 2.194 . S
N218 C213 1.328 . S
N218 C217 1.315 . S
H219 C213 0.929 . S
H220 C217 0.930 . S
H221 C209 0.929 . S
H222 C211 0.929 . S
O223 Co198 2.351 . S
O223 C226 1.244 . S
O224 Co198 2.155 . S
O224 C226 1.240 . S
O225 Co198 2.096 . S
O225 C206 1.247 . S
C226 O223 1.244 . S
C226 O224 1.240 . S
H227 C201 0.931 . S
H228 C210 0.931 . S
H229 C214 0.929 . S
H230 C216 0.930 . S
Co231 N235 2.148 . S
Co231 N241 2.128 . S
Co231 N251 2.194 . S
Co231 O256 2.351 . S
Co231 O257 2.155 . S
Co231 O258 2.096 . S
C232 N235 1.301 . S
C232 N236 1.328 . S
C232 H237 0.930 . S
C233 C234 1.333 . S
C233 N235 1.317 . S
C233 H238 0.930 . S
C234 C233 1.333 . S
C234 N236 1.350 . S
C234 H260 0.931 . S
N235 Co231 2.148 . S
N235 C232 1.301 . S
N235 C233 1.317 . S
N236 C232 1.328 . S
N236 C234 1.350 . S
H237 C232 0.930 . S
H238 C233 0.930 . S
C239 O240 1.224 . S
C239 O258 1.247 . S
O240 C239 1.224 . S
N241 Co231 2.128 . S
N241 C242 1.355 . S
N241 C244 1.311 . S
C242 N241 1.355 . S
C242 C243 1.363 . S
C242 H254 0.929 . S
C243 C242 1.363 . S
C243 N245 1.375 . S
C243 H261 0.931 . S
C244 N241 1.311 . S
C244 N245 1.347 . S
C244 H255 0.929 . S
N245 C243 1.375 . S
N245 C244 1.347 . S
C246 C249 1.365 . S
C246 N251 1.328 . S
C246 H252 0.929 . S
C247 C248 1.362 . S
C247 C250 1.378 . S
C247 H262 0.929 . S
C248 C247 1.362 . S
C248 C249 1.366 . S
C249 C246 1.365 . S
C249 C248 1.366 . S
C249 H263 0.930 . S
C250 C247 1.378 . S
C250 N251 1.315 . S
C250 H253 0.930 . S
N251 Co231 2.194 . S
N251 C246 1.328 . S
N251 C250 1.315 . S
H252 C246 0.929 . S
H253 C250 0.930 . S
H254 C242 0.929 . S
H255 C244 0.929 . S
O256 Co231 2.351 . S
O256 C259 1.244 . S
O257 Co231 2.155 . S
O257 C259 1.240 . S
O258 Co231 2.096 . S
O258 C239 1.247 . S
C259 O256 1.244 . S
C259 O257 1.240 . S
H260 C234 0.931 . S
H261 C243 0.931 . S
H262 C247 0.929 . S
H263 C249 0.930 . S
Co264 N268 2.148 . S
Co264 N274 2.128 . S
Co264 N284 2.194 . S
Co264 O289 2.351 . S
Co264 O290 2.155 . S
Co264 O291 2.096 . S
C265 N268 1.301 . S
C265 N269 1.328 . S
C265 H270 0.930 . S
C266 C267 1.333 . S
C266 N268 1.317 . S
C266 H271 0.930 . S
C267 C266 1.333 . S
C267 N269 1.350 . S
C267 H293 0.931 . S
N268 Co264 2.148 . S
N268 C265 1.301 . S
N268 C266 1.317 . S
N269 C265 1.328 . S
N269 C267 1.350 . S
H270 C265 0.930 . S
H271 C266 0.930 . S
C272 O273 1.224 . S
C272 O291 1.247 . S
O273 C272 1.224 . S
N274 Co264 2.128 . S
N274 C275 1.355 . S
N274 C277 1.311 . S
C275 N274 1.355 . S
C275 C276 1.363 . S
C275 H287 0.929 . S
C276 C275 1.363 . S
C276 N278 1.375 . S
C276 H294 0.931 . S
C277 N274 1.311 . S
C277 N278 1.347 . S
C277 H288 0.929 . S
N278 C276 1.375 . S
N278 C277 1.347 . S
C279 C282 1.365 . S
C279 N284 1.328 . S
C279 H285 0.929 . S
C280 C281 1.362 . S
C280 C283 1.378 . S
C280 H295 0.929 . S
C281 C280 1.362 . S
C281 C282 1.366 . S
C282 C279 1.365 . S
C282 C281 1.366 . S
C282 H296 0.930 . S
C283 C280 1.378 . S
C283 N284 1.315 . S
C283 H286 0.930 . S
N284 Co264 2.194 . S
N284 C279 1.328 . S
N284 C283 1.315 . S
H285 C279 0.929 . S
H286 C283 0.930 . S
H287 C275 0.929 . S
H288 C277 0.929 . S
O289 Co264 2.351 . S
O289 C292 1.244 . S
O290 Co264 2.155 . S
O290 C292 1.240 . S
O291 Co264 2.096 . S
O291 C272 1.247 . S
C292 O289 1.244 . S
C292 O290 1.240 . S
H293 C267 0.931 . S
H294 C276 0.931 . S
H295 C280 0.929 . S
H296 C282 0.930 . S
Co297 N301 2.148 . S
Co297 N307 2.128 . S
Co297 N317 2.194 . S
Co297 O322 2.351 . S
Co297 O323 2.155 . S
Co297 O324 2.096 . S
C298 N301 1.301 . S
C298 N302 1.328 . S
C298 H303 0.930 . S
C299 C300 1.333 . S
C299 N301 1.317 . S
C299 H304 0.930 . S
C300 C299 1.333 . S
C300 N302 1.350 . S
C300 H326 0.931 . S
N301 Co297 2.148 . S
N301 C298 1.301 . S
N301 C299 1.317 . S
N302 C298 1.328 . S
N302 C300 1.350 . S
H303 C298 0.930 . S
H304 C299 0.930 . S
C305 O306 1.224 . S
C305 O324 1.247 . S
O306 C305 1.224 . S
N307 Co297 2.128 . S
N307 C308 1.355 . S
N307 C310 1.311 . S
C308 N307 1.355 . S
C308 C309 1.363 . S
C308 H320 0.929 . S
C309 C308 1.363 . S
C309 N311 1.375 . S
C309 H327 0.931 . S
C310 N307 1.311 . S
C310 N311 1.347 . S
C310 H321 0.929 . S
N311 C309 1.375 . S
N311 C310 1.347 . S
C312 C315 1.365 . S
C312 N317 1.328 . S
C312 H318 0.929 . S
C313 C314 1.362 . S
C313 C316 1.378 . S
C313 H328 0.929 . S
C314 C313 1.362 . S
C314 C315 1.366 . S
C315 C312 1.365 . S
C315 C314 1.366 . S
C315 H329 0.930 . S
C316 C313 1.378 . S
C316 N317 1.315 . S
C316 H319 0.930 . S
N317 Co297 2.194 . S
N317 C312 1.328 . S
N317 C316 1.315 . S
H318 C312 0.929 . S
H319 C316 0.930 . S
H320 C308 0.929 . S
H321 C310 0.929 . S
O322 Co297 2.351 . S
O322 C325 1.244 . S
O323 Co297 2.155 . S
O323 C325 1.240 . S
O324 Co297 2.096 . S
O324 C305 1.247 . S
C325 O322 1.244 . S
C325 O323 1.240 . S
H326 C300 0.931 . S
H327 C309 0.931 . S
H328 C313 0.929 . S
H329 C315 0.930 . S
Co330 N334 2.148 . S
Co330 N340 2.128 . S
Co330 N350 2.194 . S
Co330 O355 2.351 . S
Co330 O356 2.155 . S
Co330 O357 2.096 . S
C331 N334 1.301 . S
C331 N335 1.328 . S
C331 H336 0.930 . S
C332 C333 1.333 . S
C332 N334 1.317 . S
C332 H337 0.930 . S
C333 C332 1.333 . S
C333 N335 1.350 . S
C333 H359 0.931 . S
N334 Co330 2.148 . S
N334 C331 1.301 . S
N334 C332 1.317 . S
N335 C331 1.328 . S
N335 C333 1.350 . S
H336 C331 0.930 . S
H337 C332 0.930 . S
C338 O339 1.224 . S
C338 O357 1.247 . S
O339 C338 1.224 . S
N340 Co330 2.128 . S
N340 C341 1.355 . S
N340 C343 1.311 . S
C341 N340 1.355 . S
C341 C342 1.363 . S
C341 H353 0.929 . S
C342 C341 1.363 . S
C342 N344 1.375 . S
C342 H360 0.931 . S
C343 N340 1.311 . S
C343 N344 1.347 . S
C343 H354 0.929 . S
N344 C342 1.375 . S
N344 C343 1.347 . S
C345 C348 1.365 . S
C345 N350 1.328 . S
C345 H351 0.929 . S
C346 C347 1.362 . S
C346 C349 1.378 . S
C346 H361 0.929 . S
C347 C346 1.362 . S
C347 C348 1.366 . S
C348 C345 1.365 . S
C348 C347 1.366 . S
C348 H362 0.930 . S
C349 C346 1.378 . S
C349 N350 1.315 . S
C349 H352 0.930 . S
N350 Co330 2.194 . S
N350 C345 1.328 . S
N350 C349 1.315 . S
H351 C345 0.929 . S
H352 C349 0.930 . S
H353 C341 0.929 . S
H354 C343 0.929 . S
O355 Co330 2.351 . S
O355 C358 1.244 . S
O356 Co330 2.155 . S
O356 C358 1.240 . S
O357 Co330 2.096 . S
O357 C338 1.247 . S
C358 O355 1.244 . S
C358 O356 1.240 . S
H359 C333 0.931 . S
H360 C342 0.931 . S
H361 C346 0.929 . S
H362 C348 0.930 . S
Co363 N367 2.148 . S
Co363 N373 2.128 . S
Co363 N383 2.194 . S
Co363 O388 2.351 . S
Co363 O389 2.155 . S
Co363 O390 2.096 . S
C364 N367 1.301 . S
C364 N368 1.328 . S
C364 H369 0.930 . S
C365 C366 1.333 . S
C365 N367 1.317 . S
C365 H370 0.930 . S
C366 C365 1.333 . S
C366 N368 1.350 . S
C366 H392 0.931 . S
N367 Co363 2.148 . S
N367 C364 1.301 . S
N367 C365 1.317 . S
N368 C364 1.328 . S
N368 C366 1.350 . S
H369 C364 0.930 . S
H370 C365 0.930 . S
C371 O372 1.224 . S
C371 O390 1.247 . S
O372 C371 1.224 . S
N373 Co363 2.128 . S
N373 C374 1.355 . S
N373 C376 1.311 . S
C374 N373 1.355 . S
C374 C375 1.363 . S
C374 H386 0.929 . S
C375 C374 1.363 . S
C375 N377 1.375 . S
C375 H393 0.931 . S
C376 N373 1.311 . S
C376 N377 1.347 . S
C376 H387 0.929 . S
N377 C375 1.375 . S
N377 C376 1.347 . S
C378 C381 1.365 . S
C378 N383 1.328 . S
C378 H384 0.929 . S
C379 C380 1.362 . S
C379 C382 1.378 . S
C379 H394 0.929 . S
C380 C379 1.362 . S
C380 C381 1.366 . S
C381 C378 1.365 . S
C381 C380 1.366 . S
C381 H395 0.930 . S
C382 C379 1.378 . S
C382 N383 1.315 . S
C382 H385 0.930 . S
N383 Co363 2.194 . S
N383 C378 1.328 . S
N383 C382 1.315 . S
H384 C378 0.929 . S
H385 C382 0.930 . S
H386 C374 0.929 . S
H387 C376 0.929 . S
O388 Co363 2.351 . S
O388 C391 1.244 . S
O389 Co363 2.155 . S
O389 C391 1.240 . S
O390 Co363 2.096 . S
O390 C371 1.247 . S
C391 O388 1.244 . S
C391 O389 1.240 . S
H392 C366 0.931 . S
H393 C375 0.931 . S
H394 C379 0.929 . S
H395 C381 0.930 . S
Co396 N400 2.148 . S
Co396 N406 2.128 . S
Co396 N416 2.194 . S
Co396 O421 2.351 . S
Co396 O422 2.155 . S
Co396 O423 2.096 . S
C397 N400 1.301 . S
C397 N401 1.328 . S
C397 H402 0.930 . S
C398 C399 1.333 . S
C398 N400 1.317 . S
C398 H403 0.930 . S
C399 C398 1.333 . S
C399 N401 1.350 . S
C399 H425 0.931 . S
N400 Co396 2.148 . S
N400 C397 1.301 . S
N400 C398 1.317 . S
N401 C397 1.328 . S
N401 C399 1.350 . S
H402 C397 0.930 . S
H403 C398 0.930 . S
C404 O405 1.224 . S
C404 O423 1.247 . S
O405 C404 1.224 . S
N406 Co396 2.128 . S
N406 C407 1.355 . S
N406 C409 1.311 . S
C407 N406 1.355 . S
C407 C408 1.363 . S
C407 H419 0.929 . S
C408 C407 1.363 . S
C408 N410 1.375 . S
C408 H426 0.931 . S
C409 N406 1.311 . S
C409 N410 1.347 . S
C409 H420 0.929 . S
N410 C408 1.375 . S
N410 C409 1.347 . S
C411 C414 1.365 . S
C411 N416 1.328 . S
C411 H417 0.929 . S
C412 C413 1.362 . S
C412 C415 1.378 . S
C412 H427 0.929 . S
C413 C412 1.362 . S
C413 C414 1.366 . S
C414 C411 1.365 . S
C414 C413 1.366 . S
C414 H428 0.930 . S
C415 C412 1.378 . S
C415 N416 1.315 . S
C415 H418 0.930 . S
N416 Co396 2.194 . S
N416 C411 1.328 . S
N416 C415 1.315 . S
H417 C411 0.929 . S
H418 C415 0.930 . S
H419 C407 0.929 . S
H420 C409 0.929 . S
O421 Co396 2.351 . S
O421 C424 1.244 . S
O422 Co396 2.155 . S
O422 C424 1.240 . S
O423 Co396 2.096 . S
O423 C404 1.247 . S
C424 O421 1.244 . S
C424 O422 1.240 . S
H425 C399 0.931 . S
H426 C408 0.931 . S
H427 C412 0.929 . S
H428 C414 0.930 . S
Co429 N433 2.148 . S
Co429 N439 2.128 . S
Co429 N449 2.194 . S
Co429 O454 2.351 . S
Co429 O455 2.155 . S
Co429 O456 2.096 . S
C430 N433 1.301 . S
C430 N434 1.328 . S
C430 H435 0.930 . S
C431 C432 1.333 . S
C431 N433 1.317 . S
C431 H436 0.930 . S
C432 C431 1.333 . S
C432 N434 1.350 . S
C432 H458 0.931 . S
N433 Co429 2.148 . S
N433 C430 1.301 . S
N433 C431 1.317 . S
N434 C430 1.328 . S
N434 C432 1.350 . S
H435 C430 0.930 . S
H436 C431 0.930 . S
C437 O438 1.224 . S
C437 O456 1.247 . S
O438 C437 1.224 . S
N439 Co429 2.128 . S
N439 C440 1.355 . S
N439 C442 1.311 . S
C440 N439 1.355 . S
C440 C441 1.363 . S
C440 H452 0.929 . S
C441 C440 1.363 . S
C441 N443 1.375 . S
C441 H459 0.931 . S
C442 N439 1.311 . S
C442 N443 1.347 . S
C442 H453 0.929 . S
N443 C441 1.375 . S
N443 C442 1.347 . S
C444 C447 1.365 . S
C444 N449 1.328 . S
C444 H450 0.929 . S
C445 C446 1.362 . S
C445 C448 1.378 . S
C445 H460 0.929 . S
C446 C445 1.362 . S
C446 C447 1.366 . S
C447 C444 1.365 . S
C447 C446 1.366 . S
C447 H461 0.930 . S
C448 C445 1.378 . S
C448 N449 1.315 . S
C448 H451 0.930 . S
N449 Co429 2.194 . S
N449 C444 1.328 . S
N449 C448 1.315 . S
H450 C444 0.929 . S
H451 C448 0.930 . S
H452 C440 0.929 . S
H453 C442 0.929 . S
O454 Co429 2.351 . S
O454 C457 1.244 . S
O455 Co429 2.155 . S
O455 C457 1.240 . S
O456 Co429 2.096 . S
O456 C437 1.247 . S
C457 O454 1.244 . S
C457 O455 1.240 . S
H458 C432 0.931 . S
H459 C441 0.931 . S
H460 C445 0.929 . S
H461 C447 0.930 . S
Co462 N466 2.148 . S
Co462 N472 2.128 . S
Co462 N482 2.194 . S
Co462 O487 2.351 . S
Co462 O488 2.155 . S
Co462 O489 2.096 . S
C463 N466 1.301 . S
C463 N467 1.328 . S
C463 H468 0.930 . S
C464 C465 1.333 . S
C464 N466 1.317 . S
C464 H469 0.930 . S
C465 C464 1.333 . S
C465 N467 1.350 . S
C465 H491 0.931 . S
N466 Co462 2.148 . S
N466 C463 1.301 . S
N466 C464 1.317 . S
N467 C463 1.328 . S
N467 C465 1.350 . S
H468 C463 0.930 . S
H469 C464 0.930 . S
C470 O471 1.224 . S
C470 O489 1.247 . S
O471 C470 1.224 . S
N472 Co462 2.128 . S
N472 C473 1.355 . S
N472 C475 1.311 . S
C473 N472 1.355 . S
C473 C474 1.363 . S
C473 H485 0.929 . S
C474 C473 1.363 . S
C474 N476 1.375 . S
C474 H492 0.931 . S
C475 N472 1.311 . S
C475 N476 1.347 . S
C475 H486 0.929 . S
N476 C474 1.375 . S
N476 C475 1.347 . S
C477 C480 1.365 . S
C477 N482 1.328 . S
C477 H483 0.929 . S
C478 C479 1.362 . S
C478 C481 1.378 . S
C478 H493 0.929 . S
C479 C478 1.362 . S
C479 C480 1.366 . S
C480 C477 1.365 . S
C480 C479 1.366 . S
C480 H494 0.930 . S
C481 C478 1.378 . S
C481 N482 1.315 . S
C481 H484 0.930 . S
N482 Co462 2.194 . S
N482 C477 1.328 . S
N482 C481 1.315 . S
H483 C477 0.929 . S
H484 C481 0.930 . S
H485 C473 0.929 . S
H486 C475 0.929 . S
O487 Co462 2.351 . S
O487 C490 1.244 . S
O488 Co462 2.155 . S
O488 C490 1.240 . S
O489 Co462 2.096 . S
O489 C470 1.247 . S
C490 O487 1.244 . S
C490 O488 1.240 . S
H491 C465 0.931 . S
H492 C474 0.931 . S
H493 C478 0.929 . S
H494 C480 0.930 . S
Co495 N499 2.148 . S
Co495 N505 2.128 . S
Co495 N515 2.194 . S
Co495 O520 2.351 . S
Co495 O521 2.155 . S
Co495 O522 2.096 . S
C496 N499 1.301 . S
C496 N500 1.328 . S
C496 H501 0.930 . S
C497 C498 1.333 . S
C497 N499 1.317 . S
C497 H502 0.930 . S
C498 C497 1.333 . S
C498 N500 1.350 . S
C498 H524 0.931 . S
N499 Co495 2.148 . S
N499 C496 1.301 . S
N499 C497 1.317 . S
N500 C496 1.328 . S
N500 C498 1.350 . S
H501 C496 0.930 . S
H502 C497 0.930 . S
C503 O504 1.224 . S
C503 O522 1.247 . S
O504 C503 1.224 . S
N505 Co495 2.128 . S
N505 C506 1.355 . S
N505 C508 1.311 . S
C506 N505 1.355 . S
C506 C507 1.363 . S
C506 H518 0.929 . S
C507 C506 1.363 . S
C507 N509 1.375 . S
C507 H525 0.931 . S
C508 N505 1.311 . S
C508 N509 1.347 . S
C508 H519 0.929 . S
N509 C507 1.375 . S
N509 C508 1.347 . S
C510 C513 1.365 . S
C510 N515 1.328 . S
C510 H516 0.929 . S
C511 C512 1.362 . S
C511 C514 1.378 . S
C511 H526 0.929 . S
C512 C511 1.362 . S
C512 C513 1.366 . S
C513 C510 1.365 . S
C513 C512 1.366 . S
C513 H527 0.930 . S
C514 C511 1.378 . S
C514 N515 1.315 . S
C514 H517 0.930 . S
N515 Co495 2.194 . S
N515 C510 1.328 . S
N515 C514 1.315 . S
H516 C510 0.929 . S
H517 C514 0.930 . S
H518 C506 0.929 . S
H519 C508 0.929 . S
O520 Co495 2.351 . S
O520 C523 1.244 . S
O521 Co495 2.155 . S
O521 C523 1.240 . S
O522 Co495 2.096 . S
O522 C503 1.247 . S
C523 O520 1.244 . S
C523 O521 1.240 . S
H524 C498 0.931 . S
H525 C507 0.931 . S
H526 C511 0.929 . S
H527 C513 0.930 . S
Co528 N532 2.148 . S
Co528 N538 2.128 1_655 S
Co528 N548 2.194 . S
Co528 O553 2.351 . S
Co528 O554 2.155 . S
Co528 O555 2.096 . S
C529 N532 1.301 . S
C529 N533 1.328 . S
C529 H534 0.930 . S
C530 C531 1.333 . S
C530 N532 1.317 . S
C530 H535 0.930 . S
C531 C530 1.333 . S
C531 N533 1.350 . S
C531 H557 0.931 . S
N532 Co528 2.148 . S
N532 C529 1.301 . S
N532 C530 1.317 . S
N533 C529 1.328 . S
N533 C531 1.350 . S
H534 C529 0.930 . S
H535 C530 0.930 . S
C536 O537 1.224 . S
C536 O555 1.247 . S
O537 C536 1.224 . S
N538 Co528 2.128 1_455 S
N538 C539 1.355 . S
N538 C541 1.311 . S
C539 N538 1.355 . S
C539 C540 1.363 . S
C539 H551 0.929 . S
C540 C539 1.363 . S
C540 N542 1.375 . S
C540 H558 0.931 . S
C541 N538 1.311 . S
C541 N542 1.347 . S
C541 H552 0.929 . S
N542 C540 1.375 . S
N542 C541 1.347 . S
C543 C546 1.365 . S
C543 N548 1.328 . S
C543 H549 0.929 . S
C544 C545 1.362 . S
C544 C547 1.378 . S
C544 H559 0.929 . S
C545 C544 1.362 . S
C545 C546 1.366 . S
C546 C543 1.365 . S
C546 C545 1.366 . S
C546 H560 0.930 . S
C547 C544 1.378 . S
C547 N548 1.315 . S
C547 H550 0.930 . S
N548 Co528 2.194 . S
N548 C543 1.328 . S
N548 C547 1.315 . S
H549 C543 0.929 . S
H550 C547 0.930 . S
H551 C539 0.929 . S
H552 C541 0.929 . S
O553 Co528 2.351 . S
O553 C556 1.244 . S
O554 Co528 2.155 . S
O554 C556 1.240 . S
O555 Co528 2.096 . S
O555 C536 1.247 . S
C556 O553 1.244 . S
C556 O554 1.240 . S
H557 C531 0.931 . S
H558 C540 0.931 . S
H559 C544 0.929 . S
H560 C546 0.930 . S
Co561 N565 2.148 . S
Co561 N571 2.128 . S
Co561 N581 2.194 . S
Co561 O586 2.351 . S
Co561 O587 2.155 . S
Co561 O588 2.096 . S
C562 N565 1.301 . S
C562 N566 1.328 . S
C562 H567 0.930 . S
C563 C564 1.333 . S
C563 N565 1.317 . S
C563 H568 0.930 . S
C564 C563 1.333 . S
C564 N566 1.350 . S
C564 H590 0.931 . S
N565 Co561 2.148 . S
N565 C562 1.301 . S
N565 C563 1.317 . S
N566 C562 1.328 . S
N566 C564 1.350 . S
H567 C562 0.930 . S
H568 C563 0.930 . S
C569 O570 1.224 . S
C569 O588 1.247 . S
O570 C569 1.224 . S
N571 Co561 2.128 . S
N571 C572 1.355 . S
N571 C574 1.311 . S
C572 N571 1.355 . S
C572 C573 1.363 . S
C572 H584 0.929 . S
C573 C572 1.363 . S
C573 N575 1.375 . S
C573 H591 0.931 . S
C574 N571 1.311 . S
C574 N575 1.347 . S
C574 H585 0.929 . S
N575 C573 1.375 . S
N575 C574 1.347 . S
C576 C579 1.365 . S
C576 N581 1.328 . S
C576 H582 0.929 . S
C577 C578 1.362 . S
C577 C580 1.378 . S
C577 H592 0.929 . S
C578 C577 1.362 . S
C578 C579 1.366 . S
C579 C576 1.365 . S
C579 C578 1.366 . S
C579 H593 0.930 . S
C580 C577 1.378 . S
C580 N581 1.315 . S
C580 H583 0.930 . S
N581 Co561 2.194 . S
N581 C576 1.328 . S
N581 C580 1.315 . S
H582 C576 0.929 . S
H583 C580 0.930 . S
H584 C572 0.929 . S
H585 C574 0.929 . S
O586 Co561 2.351 . S
O586 C589 1.244 . S
O587 Co561 2.155 . S
O587 C589 1.240 . S
O588 Co561 2.096 . S
O588 C569 1.247 . S
C589 O586 1.244 . S
C589 O587 1.240 . S
H590 C564 0.931 . S
H591 C573 0.931 . S
H592 C577 0.929 . S
H593 C579 0.930 . S
Co594 N598 2.148 . S
Co594 N604 2.128 1_655 S
Co594 N614 2.194 . S
Co594 O619 2.351 . S
Co594 O620 2.155 . S
Co594 O621 2.096 . S
C595 N598 1.301 . S
C595 N599 1.328 . S
C595 H600 0.930 . S
C596 C597 1.333 . S
C596 N598 1.317 . S
C596 H601 0.930 . S
C597 C596 1.333 . S
C597 N599 1.350 . S
C597 H623 0.931 . S
N598 Co594 2.148 . S
N598 C595 1.301 . S
N598 C596 1.317 . S
N599 C595 1.328 . S
N599 C597 1.350 . S
H600 C595 0.930 . S
H601 C596 0.930 . S
C602 O603 1.224 . S
C602 O621 1.247 . S
O603 C602 1.224 . S
N604 Co594 2.128 1_455 S
N604 C605 1.355 . S
N604 C607 1.311 . S
C605 N604 1.355 . S
C605 C606 1.363 . S
C605 H617 0.929 . S
C606 C605 1.363 . S
C606 N608 1.375 . S
C606 H624 0.931 . S
C607 N604 1.311 . S
C607 N608 1.347 . S
C607 H618 0.929 . S
N608 C606 1.375 . S
N608 C607 1.347 . S
C609 C612 1.365 . S
C609 N614 1.328 . S
C609 H615 0.929 . S
C610 C611 1.362 . S
C610 C613 1.378 . S
C610 H625 0.929 . S
C611 C610 1.362 . S
C611 C612 1.366 . S
C612 C609 1.365 . S
C612 C611 1.366 . S
C612 H626 0.930 . S
C613 C610 1.378 . S
C613 N614 1.315 . S
C613 H616 0.930 . S
N614 Co594 2.194 . S
N614 C609 1.328 . S
N614 C613 1.315 . S
H615 C609 0.929 . S
H616 C613 0.930 . S
H617 C605 0.929 . S
H618 C607 0.929 . S
O619 Co594 2.351 . S
O619 C622 1.244 . S
O620 Co594 2.155 . S
O620 C622 1.240 . S
O621 Co594 2.096 . S
O621 C602 1.247 . S
C622 O619 1.244 . S
C622 O620 1.240 . S
H623 C597 0.931 . S
H624 C606 0.931 . S
H625 C610 0.929 . S
H626 C612 0.930 . S
Co627 N631 2.148 . S
Co627 N637 2.128 . S
Co627 N647 2.194 . S
Co627 O652 2.351 . S
Co627 O653 2.155 . S
Co627 O654 2.096 . S
C628 N631 1.301 . S
C628 N632 1.328 . S
C628 H633 0.930 . S
C629 C630 1.333 . S
C629 N631 1.317 . S
C629 H634 0.930 . S
C630 C629 1.333 . S
C630 N632 1.350 . S
C630 H656 0.931 . S
N631 Co627 2.148 . S
N631 C628 1.301 . S
N631 C629 1.317 . S
N632 C628 1.328 . S
N632 C630 1.350 . S
H633 C628 0.930 . S
H634 C629 0.930 . S
C635 O636 1.224 . S
C635 O654 1.247 . S
O636 C635 1.224 . S
N637 Co627 2.128 . S
N637 C638 1.355 . S
N637 C640 1.311 . S
C638 N637 1.355 . S
C638 C639 1.363 . S
C638 H650 0.929 . S
C639 C638 1.363 . S
C639 N641 1.375 . S
C639 H657 0.931 . S
C640 N637 1.311 . S
C640 N641 1.347 . S
C640 H651 0.929 . S
N641 C639 1.375 . S
N641 C640 1.347 . S
C642 C645 1.365 . S
C642 N647 1.328 . S
C642 H648 0.929 . S
C643 C644 1.362 . S
C643 C646 1.378 . S
C643 H658 0.929 . S
C644 C643 1.362 . S
C644 C645 1.366 . S
C645 C642 1.365 . S
C645 C644 1.366 . S
C645 H659 0.930 . S
C646 C643 1.378 . S
C646 N647 1.315 . S
C646 H649 0.930 . S
N647 Co627 2.194 . S
N647 C642 1.328 . S
N647 C646 1.315 . S
H648 C642 0.929 . S
H649 C646 0.930 . S
H650 C638 0.929 . S
H651 C640 0.929 . S
O652 Co627 2.351 . S
O652 C655 1.244 . S
O653 Co627 2.155 . S
O653 C655 1.240 . S
O654 Co627 2.096 . S
O654 C635 1.247 . S
C655 O652 1.244 . S
C655 O653 1.240 . S
H656 C630 0.931 . S
H657 C639 0.931 . S
H658 C643 0.929 . S
H659 C645 0.930 . S
Co660 N664 2.148 . S
Co660 N670 2.128 1_455 S
Co660 N680 2.194 . S
Co660 O685 2.351 . S
Co660 O686 2.155 . S
Co660 O687 2.096 . S
C661 N664 1.301 . S
C661 N665 1.328 . S
C661 H666 0.930 . S
C662 C663 1.333 . S
C662 N664 1.317 . S
C662 H667 0.930 . S
C663 C662 1.333 . S
C663 N665 1.350 . S
C663 H689 0.931 . S
N664 Co660 2.148 . S
N664 C661 1.301 . S
N664 C662 1.317 . S
N665 C661 1.328 . S
N665 C663 1.350 . S
H666 C661 0.930 . S
H667 C662 0.930 . S
C668 O669 1.224 . S
C668 O687 1.247 . S
O669 C668 1.224 . S
N670 Co660 2.128 1_655 S
N670 C671 1.355 . S
N670 C673 1.311 . S
C671 N670 1.355 . S
C671 C672 1.363 . S
C671 H683 0.929 . S
C672 C671 1.363 . S
C672 N674 1.375 . S
C672 H690 0.931 . S
C673 N670 1.311 . S
C673 N674 1.347 . S
C673 H684 0.929 . S
N674 C672 1.375 . S
N674 C673 1.347 . S
C675 C678 1.365 . S
C675 N680 1.328 . S
C675 H681 0.929 . S
C676 C677 1.362 . S
C676 C679 1.378 . S
C676 H691 0.929 . S
C677 C676 1.362 . S
C677 C678 1.366 . S
C678 C675 1.365 . S
C678 C677 1.366 . S
C678 H692 0.930 . S
C679 C676 1.378 . S
C679 N680 1.315 . S
C679 H682 0.930 . S
N680 Co660 2.194 . S
N680 C675 1.328 . S
N680 C679 1.315 . S
H681 C675 0.929 . S
H682 C679 0.930 . S
H683 C671 0.929 . S
H684 C673 0.929 . S
O685 Co660 2.351 . S
O685 C688 1.244 . S
O686 Co660 2.155 . S
O686 C688 1.240 . S
O687 Co660 2.096 . S
O687 C668 1.247 . S
C688 O685 1.244 . S
C688 O686 1.240 . S
H689 C663 0.931 . S
H690 C672 0.931 . S
H691 C676 0.929 . S
H692 C678 0.930 . S
Co693 N697 2.148 . S
Co693 N703 2.128 . S
Co693 N713 2.194 . S
Co693 O718 2.351 . S
Co693 O719 2.155 . S
Co693 O720 2.096 . S
C694 N697 1.301 . S
C694 N698 1.328 . S
C694 H699 0.930 . S
C695 C696 1.333 . S
C695 N697 1.317 . S
C695 H700 0.930 . S
C696 C695 1.333 . S
C696 N698 1.350 . S
C696 H722 0.931 . S
N697 Co693 2.148 . S
N697 C694 1.301 . S
N697 C695 1.317 . S
N698 C694 1.328 . S
N698 C696 1.350 . S
H699 C694 0.930 . S
H700 C695 0.930 . S
C701 O702 1.224 . S
C701 O720 1.247 . S
O702 C701 1.224 . S
N703 Co693 2.128 . S
N703 C704 1.355 . S
N703 C706 1.311 . S
C704 N703 1.355 . S
C704 C705 1.363 . S
C704 H716 0.929 . S
C705 C704 1.363 . S
C705 N707 1.375 . S
C705 H723 0.931 . S
C706 N703 1.311 . S
C706 N707 1.347 . S
C706 H717 0.929 . S
N707 C705 1.375 . S
N707 C706 1.347 . S
C708 C711 1.365 . S
C708 N713 1.328 . S
C708 H714 0.929 . S
C709 C710 1.362 . S
C709 C712 1.378 . S
C709 H724 0.929 . S
C710 C709 1.362 . S
C710 C711 1.366 . S
C711 C708 1.365 . S
C711 C710 1.366 . S
C711 H725 0.930 . S
C712 C709 1.378 . S
C712 N713 1.315 . S
C712 H715 0.930 . S
N713 Co693 2.194 . S
N713 C708 1.328 . S
N713 C712 1.315 . S
H714 C708 0.929 . S
H715 C712 0.930 . S
H716 C704 0.929 . S
H717 C706 0.929 . S
O718 Co693 2.351 . S
O718 C721 1.244 . S
O719 Co693 2.155 . S
O719 C721 1.240 . S
O720 Co693 2.096 . S
O720 C701 1.247 . S
C721 O718 1.244 . S
C721 O719 1.240 . S
H722 C696 0.931 . S
H723 C705 0.931 . S
H724 C709 0.929 . S
H725 C711 0.930 . S
Co726 N730 2.148 . S
Co726 N736 2.128 1_455 S
Co726 N746 2.194 . S
Co726 O751 2.351 . S
Co726 O752 2.155 . S
Co726 O753 2.096 . S
C727 N730 1.301 . S
C727 N731 1.328 . S
C727 H732 0.930 . S
C728 C729 1.333 . S
C728 N730 1.317 . S
C728 H733 0.930 . S
C729 C728 1.333 . S
C729 N731 1.350 . S
C729 H755 0.931 . S
N730 Co726 2.148 . S
N730 C727 1.301 . S
N730 C728 1.317 . S
N731 C727 1.328 . S
N731 C729 1.350 . S
H732 C727 0.930 . S
H733 C728 0.930 . S
C734 O735 1.224 . S
C734 O753 1.247 . S
O735 C734 1.224 . S
N736 Co726 2.128 1_655 S
N736 C737 1.355 . S
N736 C739 1.311 . S
C737 N736 1.355 . S
C737 C738 1.363 . S
C737 H749 0.929 . S
C738 C737 1.363 . S
C738 N740 1.375 . S
C738 H756 0.931 . S
C739 N736 1.311 . S
C739 N740 1.347 . S
C739 H750 0.929 . S
N740 C738 1.375 . S
N740 C739 1.347 . S
C741 C744 1.365 . S
C741 N746 1.328 . S
C741 H747 0.929 . S
C742 C743 1.362 . S
C742 C745 1.378 . S
C742 H757 0.929 . S
C743 C742 1.362 . S
C743 C744 1.366 . S
C744 C741 1.365 . S
C744 C743 1.366 . S
C744 H758 0.930 . S
C745 C742 1.378 . S
C745 N746 1.315 . S
C745 H748 0.930 . S
N746 Co726 2.194 . S
N746 C741 1.328 . S
N746 C745 1.315 . S
H747 C741 0.929 . S
H748 C745 0.930 . S
H749 C737 0.929 . S
H750 C739 0.929 . S
O751 Co726 2.351 . S
O751 C754 1.244 . S
O752 Co726 2.155 . S
O752 C754 1.240 . S
O753 Co726 2.096 . S
O753 C734 1.247 . S
C754 O751 1.244 . S
C754 O752 1.240 . S
H755 C729 0.931 . S
H756 C738 0.931 . S
H757 C742 0.929 . S
H758 C744 0.930 . S
Co759 N763 2.148 . S
Co759 N769 2.128 . S
Co759 N779 2.194 . S
Co759 O784 2.351 . S
Co759 O785 2.155 . S
Co759 O786 2.096 . S
C760 N763 1.301 . S
C760 N764 1.328 . S
C760 H765 0.930 . S
C761 C762 1.333 . S
C761 N763 1.317 . S
C761 H766 0.930 . S
C762 C761 1.333 . S
C762 N764 1.350 . S
C762 H788 0.931 . S
N763 Co759 2.148 . S
N763 C760 1.301 . S
N763 C761 1.317 . S
N764 C760 1.328 . S
N764 C762 1.350 . S
H765 C760 0.930 . S
H766 C761 0.930 . S
C767 O768 1.224 . S
C767 O786 1.247 . S
O768 C767 1.224 . S
N769 Co759 2.128 . S
N769 C770 1.355 . S
N769 C772 1.311 . S
C770 N769 1.355 . S
C770 C771 1.363 . S
C770 H782 0.929 . S
C771 C770 1.363 . S
C771 N773 1.375 . S
C771 H789 0.931 . S
C772 N769 1.311 . S
C772 N773 1.347 . S
C772 H783 0.929 . S
N773 C771 1.375 . S
N773 C772 1.347 . S
C774 C777 1.365 . S
C774 N779 1.328 . S
C774 H780 0.929 . S
C775 C776 1.362 . S
C775 C778 1.378 . S
C775 H790 0.929 . S
C776 C775 1.362 . S
C776 C777 1.366 . S
C777 C774 1.365 . S
C777 C776 1.366 . S
C777 H791 0.930 . S
C778 C775 1.378 . S
C778 N779 1.315 . S
C778 H781 0.930 . S
N779 Co759 2.194 . S
N779 C774 1.328 . S
N779 C778 1.315 . S
H780 C774 0.929 . S
H781 C778 0.930 . S
H782 C770 0.929 . S
H783 C772 0.929 . S
O784 Co759 2.351 . S
O784 C787 1.244 . S
O785 Co759 2.155 . S
O785 C787 1.240 . S
O786 Co759 2.096 . S
O786 C767 1.247 . S
C787 O784 1.244 . S
C787 O785 1.240 . S
H788 C762 0.931 . S
H789 C771 0.931 . S
H790 C775 0.929 . S
H791 C777 0.930 . S
Co792 N796 2.148 . S
Co792 N802 2.128 1_655 S
Co792 N812 2.194 . S
Co792 O817 2.351 . S
Co792 O818 2.155 . S
Co792 O819 2.096 . S
C793 N796 1.301 . S
C793 N797 1.328 . S
C793 H798 0.930 . S
C794 C795 1.333 . S
C794 N796 1.317 . S
C794 H799 0.930 . S
C795 C794 1.333 . S
C795 N797 1.350 . S
C795 H821 0.925 1_554 S
N796 Co792 2.148 . S
N796 C793 1.301 . S
N796 C794 1.317 . S
N797 C793 1.328 . S
N797 C795 1.350 . S
H798 C793 0.930 . S
H799 C794 0.930 . S
C800 O801 1.224 . S
C800 O819 1.247 . S
O801 C800 1.224 . S
N802 Co792 2.128 1_455 S
N802 C803 1.355 . S
N802 C805 1.311 . S
C803 N802 1.355 . S
C803 C804 1.363 . S
C803 H815 0.929 . S
C804 C803 1.363 . S
C804 N806 1.375 . S
C804 H822 0.931 . S
C805 N802 1.311 . S
C805 N806 1.347 . S
C805 H816 0.929 . S
N806 C804 1.375 . S
N806 C805 1.347 . S
C807 C810 1.365 . S
C807 N812 1.328 . S
C807 H813 0.929 . S
C808 C809 1.362 . S
C808 C811 1.378 . S
C808 H823 0.929 . S
C809 C808 1.362 . S
C809 C810 1.366 . S
C810 C807 1.365 . S
C810 C809 1.366 . S
C810 H824 0.930 . S
C811 C808 1.378 . S
C811 N812 1.315 . S
C811 H814 0.930 . S
N812 Co792 2.194 . S
N812 C807 1.328 . S
N812 C811 1.315 . S
H813 C807 0.929 . S
H814 C811 0.930 . S
H815 C803 0.929 . S
H816 C805 0.929 . S
O817 Co792 2.351 . S
O817 C820 1.244 . S
O818 Co792 2.155 . S
O818 C820 1.240 . S
O819 Co792 2.096 . S
O819 C800 1.247 . S
C820 O817 1.244 . S
C820 O818 1.240 . S
H821 C795 0.925 1_556 S
H822 C804 0.931 . S
H823 C808 0.929 . S
H824 C810 0.930 . S
Co825 N829 2.148 . S
Co825 N835 2.128 . S
Co825 N845 2.194 . S
Co825 O850 2.351 . S
Co825 O851 2.155 . S
Co825 O852 2.096 . S
C826 N829 1.301 . S
C826 N830 1.328 . S
C826 H831 0.930 . S
C827 C828 1.333 . S
C827 N829 1.317 . S
C827 H832 0.930 . S
C828 C827 1.333 . S
C828 N830 1.350 . S
C828 H854 0.925 1_554 S
N829 Co825 2.148 . S
N829 C826 1.301 . S
N829 C827 1.317 . S
N830 C826 1.328 . S
N830 C828 1.350 . S
H831 C826 0.930 . S
H832 C827 0.930 . S
C833 O834 1.224 . S
C833 O852 1.247 . S
O834 C833 1.224 . S
N835 Co825 2.128 . S
N835 C836 1.355 . S
N835 C838 1.311 . S
C836 N835 1.355 . S
C836 C837 1.363 . S
C836 H848 0.929 . S
C837 C836 1.363 . S
C837 N839 1.375 . S
C837 H855 0.931 . S
C838 N835 1.311 . S
C838 N839 1.347 . S
C838 H849 0.929 . S
N839 C837 1.375 . S
N839 C838 1.347 . S
C840 C843 1.365 . S
C840 N845 1.328 . S
C840 H846 0.929 . S
C841 C842 1.362 . S
C841 C844 1.378 . S
C841 H856 0.929 . S
C842 C841 1.362 . S
C842 C843 1.366 . S
C843 C840 1.365 . S
C843 C842 1.366 . S
C843 H857 0.930 . S
C844 C841 1.378 . S
C844 N845 1.315 . S
C844 H847 0.930 . S
N845 Co825 2.194 . S
N845 C840 1.328 . S
N845 C844 1.315 . S
H846 C840 0.929 . S
H847 C844 0.930 . S
H848 C836 0.929 . S
H849 C838 0.929 . S
O850 Co825 2.351 . S
O850 C853 1.244 . S
O851 Co825 2.155 . S
O851 C853 1.240 . S
O852 Co825 2.096 . S
O852 C833 1.247 . S
C853 O850 1.244 . S
C853 O851 1.240 . S
H854 C828 0.925 1_556 S
H855 C837 0.931 . S
H856 C841 0.929 . S
H857 C843 0.930 . S
Co858 N862 2.148 . S
Co858 N868 2.128 1_655 S
Co858 N878 2.194 . S
Co858 O883 2.351 . S
Co858 O884 2.155 . S
Co858 O885 2.096 . S
C859 N862 1.301 . S
C859 N863 1.328 . S
C859 H864 0.930 . S
C860 C861 1.333 . S
C860 N862 1.317 . S
C860 H865 0.930 . S
C861 C860 1.333 . S
C861 N863 1.350 . S
C861 H887 0.931 . S
N862 Co858 2.148 . S
N862 C859 1.301 . S
N862 C860 1.317 . S
N863 C859 1.328 . S
N863 C861 1.350 . S
H864 C859 0.930 . S
H865 C860 0.930 . S
C866 O867 1.224 . S
C866 O885 1.247 . S
O867 C866 1.224 . S
N868 Co858 2.128 1_455 S
N868 C869 1.355 . S
N868 C871 1.311 . S
C869 N868 1.355 . S
C869 C870 1.363 . S
C869 H881 0.929 . S
C870 C869 1.363 . S
C870 N872 1.375 . S
C870 H888 0.931 . S
C871 N868 1.311 . S
C871 N872 1.347 . S
C871 H882 0.929 . S
N872 C870 1.375 . S
N872 C871 1.347 . S
C873 C876 1.365 . S
C873 N878 1.328 . S
C873 H879 0.929 . S
C874 C875 1.362 . S
C874 C877 1.378 . S
C874 H889 0.929 . S
C875 C874 1.362 . S
C875 C876 1.366 . S
C876 C873 1.365 . S
C876 C875 1.366 . S
C876 H890 0.930 . S
C877 C874 1.378 . S
C877 N878 1.315 . S
C877 H880 0.930 . S
N878 Co858 2.194 . S
N878 C873 1.328 . S
N878 C877 1.315 . S
H879 C873 0.929 . S
H880 C877 0.930 . S
H881 C869 0.929 . S
H882 C871 0.929 . S
O883 Co858 2.351 . S
O883 C886 1.244 . S
O884 Co858 2.155 . S
O884 C886 1.240 . S
O885 Co858 2.096 . S
O885 C866 1.247 . S
C886 O883 1.244 . S
C886 O884 1.240 . S
H887 C861 0.931 . S
H888 C870 0.931 . S
H889 C874 0.929 . S
H890 C876 0.930 . S
Co891 N895 2.148 . S
Co891 N901 2.128 . S
Co891 N911 2.194 . S
Co891 O916 2.351 . S
Co891 O917 2.155 . S
Co891 O918 2.096 . S
C892 N895 1.301 . S
C892 N896 1.328 . S
C892 H897 0.930 . S
C893 C894 1.333 . S
C893 N895 1.317 . S
C893 H898 0.930 . S
C894 C893 1.333 . S
C894 N896 1.350 . S
C894 H920 0.931 . S
N895 Co891 2.148 . S
N895 C892 1.301 . S
N895 C893 1.317 . S
N896 C892 1.328 . S
N896 C894 1.350 . S
H897 C892 0.930 . S
H898 C893 0.930 . S
C899 O900 1.224 . S
C899 O918 1.247 . S
O900 C899 1.224 . S
N901 Co891 2.128 . S
N901 C902 1.355 . S
N901 C904 1.311 . S
C902 N901 1.355 . S
C902 C903 1.363 . S
C902 H914 0.929 . S
C903 C902 1.363 . S
C903 N905 1.375 . S
C903 H921 0.931 . S
C904 N901 1.311 . S
C904 N905 1.347 . S
C904 H915 0.929 . S
N905 C903 1.375 . S
N905 C904 1.347 . S
C906 C909 1.365 . S
C906 N911 1.328 . S
C906 H912 0.929 . S
C907 C908 1.362 . S
C907 C910 1.378 . S
C907 H922 0.929 . S
C908 C907 1.362 . S
C908 C909 1.366 . S
C909 C906 1.365 . S
C909 C908 1.366 . S
C909 H923 0.930 . S
C910 C907 1.378 . S
C910 N911 1.315 . S
C910 H913 0.930 . S
N911 Co891 2.194 . S
N911 C906 1.328 . S
N911 C910 1.315 . S
H912 C906 0.929 . S
H913 C910 0.930 . S
H914 C902 0.929 . S
H915 C904 0.929 . S
O916 Co891 2.351 . S
O916 C919 1.244 . S
O917 Co891 2.155 . S
O917 C919 1.240 . S
O918 Co891 2.096 . S
O918 C899 1.247 . S
C919 O916 1.244 . S
C919 O917 1.240 . S
H920 C894 0.931 . S
H921 C903 0.931 . S
H922 C907 0.929 . S
H923 C909 0.930 . S
Co924 N928 2.148 . S
Co924 N934 2.128 1_455 S
Co924 N944 2.194 . S
Co924 O949 2.351 . S
Co924 O950 2.155 . S
Co924 O951 2.096 . S
C925 N928 1.301 . S
C925 N929 1.328 . S
C925 H930 0.930 . S
C926 C927 1.333 . S
C926 N928 1.317 . S
C926 H931 0.930 . S
C927 C926 1.333 . S
C927 N929 1.350 . S
C927 H953 0.925 1_556 S
N928 Co924 2.148 . S
N928 C925 1.301 . S
N928 C926 1.317 . S
N929 C925 1.328 . S
N929 C927 1.350 . S
H930 C925 0.930 . S
H931 C926 0.930 . S
C932 O933 1.224 . S
C932 O951 1.247 . S
O933 C932 1.224 . S
N934 Co924 2.128 1_655 S
N934 C935 1.355 . S
N934 C937 1.311 . S
C935 N934 1.355 . S
C935 C936 1.363 . S
C935 H947 0.929 . S
C936 C935 1.363 . S
C936 N938 1.375 . S
C936 H954 0.931 . S
C937 N934 1.311 . S
C937 N938 1.347 . S
C937 H948 0.929 . S
N938 C936 1.375 . S
N938 C937 1.347 . S
C939 C942 1.365 . S
C939 N944 1.328 . S
C939 H945 0.929 . S
C940 C941 1.362 . S
C940 C943 1.378 . S
C940 H955 0.929 . S
C941 C940 1.362 . S
C941 C942 1.366 . S
C942 C939 1.365 . S
C942 C941 1.366 . S
C942 H956 0.930 . S
C943 C940 1.378 . S
C943 N944 1.315 . S
C943 H946 0.930 . S
N944 Co924 2.194 . S
N944 C939 1.328 . S
N944 C943 1.315 . S
H945 C939 0.929 . S
H946 C943 0.930 . S
H947 C935 0.929 . S
H948 C937 0.929 . S
O949 Co924 2.351 . S
O949 C952 1.244 . S
O950 Co924 2.155 . S
O950 C952 1.240 . S
O951 Co924 2.096 . S
O951 C932 1.247 . S
C952 O949 1.244 . S
C952 O950 1.240 . S
H953 C927 0.925 1_554 S
H954 C936 0.931 . S
H955 C940 0.929 . S
H956 C942 0.930 . S
Co957 N961 2.148 . S
Co957 N967 2.128 . S
Co957 N977 2.194 . S
Co957 O982 2.351 . S
Co957 O983 2.155 . S
Co957 O984 2.096 . S
C958 N961 1.301 . S
C958 N962 1.328 . S
C958 H963 0.930 . S
C959 C960 1.333 . S
C959 N961 1.317 . S
C959 H964 0.930 . S
C960 C959 1.333 . S
C960 N962 1.350 . S
C960 H986 0.925 1_556 S
N961 Co957 2.148 . S
N961 C958 1.301 . S
N961 C959 1.317 . S
N962 C958 1.328 . S
N962 C960 1.350 . S
H963 C958 0.930 . S
H964 C959 0.930 . S
C965 O966 1.224 . S
C965 O984 1.247 . S
O966 C965 1.224 . S
N967 Co957 2.128 . S
N967 C968 1.355 . S
N967 C970 1.311 . S
C968 N967 1.355 . S
C968 C969 1.363 . S
C968 H980 0.929 . S
C969 C968 1.363 . S
C969 N971 1.375 . S
C969 H987 0.931 . S
C970 N967 1.311 . S
C970 N971 1.347 . S
C970 H981 0.929 . S
N971 C969 1.375 . S
N971 C970 1.347 . S
C972 C975 1.365 . S
C972 N977 1.328 . S
C972 H978 0.929 . S
C973 C974 1.362 . S
C973 C976 1.378 . S
C973 H988 0.929 . S
C974 C973 1.362 . S
C974 C975 1.366 . S
C975 C972 1.365 . S
C975 C974 1.366 . S
C975 H989 0.930 . S
C976 C973 1.378 . S
C976 N977 1.315 . S
C976 H979 0.930 . S
N977 Co957 2.194 . S
N977 C972 1.328 . S
N977 C976 1.315 . S
H978 C972 0.929 . S
H979 C976 0.930 . S
H980 C968 0.929 . S
H981 C970 0.929 . S
O982 Co957 2.351 . S
O982 C985 1.244 . S
O983 Co957 2.155 . S
O983 C985 1.240 . S
O984 Co957 2.096 . S
O984 C965 1.247 . S
C985 O982 1.244 . S
C985 O983 1.240 . S
H986 C960 0.925 1_554 S
H987 C969 0.931 . S
H988 C973 0.929 . S
H989 C975 0.930 . S
Co990 N994 2.148 . S
Co990 N1000 2.128 1_455 S
Co990 N1010 2.194 . S
Co990 O1015 2.351 . S
Co990 O1016 2.155 . S
Co990 O1017 2.096 . S
C991 N994 1.301 . S
C991 N995 1.328 . S
C991 H996 0.930 . S
C992 C993 1.333 . S
C992 N994 1.317 . S
C992 H997 0.930 . S
C993 C992 1.333 . S
C993 N995 1.350 . S
C993 H1019 0.931 . S
N994 Co990 2.148 . S
N994 C991 1.301 . S
N994 C992 1.317 . S
N995 C991 1.328 . S
N995 C993 1.350 . S
H996 C991 0.930 . S
H997 C992 0.930 . S
C998 O999 1.224 . S
C998 O1017 1.247 . S
O999 C998 1.224 . S
N1000 Co990 2.128 1_655 S
N1000 C1001 1.355 . S
N1000 C1003 1.311 . S
C1001 N1000 1.355 . S
C1001 C1002 1.363 . S
C1001 H1013 0.929 . S
C1002 C1001 1.363 . S
C1002 N1004 1.375 . S
C1002 H1020 0.931 . S
C1003 N1000 1.311 . S
C1003 N1004 1.347 . S
C1003 H1014 0.929 . S
N1004 C1002 1.375 . S
N1004 C1003 1.347 . S
C1005 C1008 1.365 . S
C1005 N1010 1.328 . S
C1005 H1011 0.929 . S
C1006 C1007 1.362 . S
C1006 C1009 1.378 . S
C1006 H1021 0.929 . S
C1007 C1006 1.362 . S
C1007 C1008 1.366 . S
C1008 C1005 1.365 . S
C1008 C1007 1.366 . S
C1008 H1022 0.930 . S
C1009 C1006 1.378 . S
C1009 N1010 1.315 . S
C1009 H1012 0.930 . S
N1010 Co990 2.194 . S
N1010 C1005 1.328 . S
N1010 C1009 1.315 . S
H1011 C1005 0.929 . S
H1012 C1009 0.930 . S
H1013 C1001 0.929 . S
H1014 C1003 0.929 . S
O1015 Co990 2.351 . S
O1015 C1018 1.244 . S
O1016 Co990 2.155 . S
O1016 C1018 1.240 . S
O1017 Co990 2.096 . S
O1017 C998 1.247 . S
C1018 O1015 1.244 . S
C1018 O1016 1.240 . S
H1019 C993 0.931 . S
H1020 C1002 0.931 . S
H1021 C1006 0.929 . S
H1022 C1008 0.930 . S
Co1023 N1027 2.148 . S
Co1023 N1033 2.128 . S
Co1023 N1043 2.194 . S
Co1023 O1048 2.351 . S
Co1023 O1049 2.155 . S
Co1023 O1050 2.096 . S
C1024 N1027 1.301 . S
C1024 N1028 1.328 . S
C1024 H1029 0.930 . S
C1025 C1026 1.333 . S
C1025 N1027 1.317 . S
C1025 H1030 0.930 . S
C1026 C1025 1.333 . S
C1026 N1028 1.350 . S
C1026 H1052 0.931 . S
N1027 Co1023 2.148 . S
N1027 C1024 1.301 . S
N1027 C1025 1.317 . S
N1028 C1024 1.328 . S
N1028 C1026 1.350 . S
H1029 C1024 0.930 . S
H1030 C1025 0.930 . S
C1031 O1032 1.224 . S
C1031 O1050 1.247 . S
O1032 C1031 1.224 . S
N1033 Co1023 2.128 . S
N1033 C1034 1.355 . S
N1033 C1036 1.311 . S
C1034 N1033 1.355 . S
C1034 C1035 1.363 . S
C1034 H1046 0.929 . S
C1035 C1034 1.363 . S
C1035 N1037 1.375 . S
C1035 H1053 0.931 . S
C1036 N1033 1.311 . S
C1036 N1037 1.347 . S
C1036 H1047 0.929 . S
N1037 C1035 1.375 . S
N1037 C1036 1.347 . S
C1038 C1041 1.365 . S
C1038 N1043 1.328 . S
C1038 H1044 0.929 . S
C1039 C1040 1.362 . S
C1039 C1042 1.378 . S
C1039 H1054 0.929 . S
C1040 C1039 1.362 . S
C1040 C1041 1.366 . S
C1041 C1038 1.365 . S
C1041 C1040 1.366 . S
C1041 H1055 0.930 . S
C1042 C1039 1.378 . S
C1042 N1043 1.315 . S
C1042 H1045 0.930 . S
N1043 Co1023 2.194 . S
N1043 C1038 1.328 . S
N1043 C1042 1.315 . S
H1044 C1038 0.929 . S
H1045 C1042 0.930 . S
H1046 C1034 0.929 . S
H1047 C1036 0.929 . S
O1048 Co1023 2.351 . S
O1048 C1051 1.244 . S
O1049 Co1023 2.155 . S
O1049 C1051 1.240 . S
O1050 Co1023 2.096 . S
O1050 C1031 1.247 . S
C1051 O1048 1.244 . S
C1051 O1049 1.240 . S
H1052 C1026 0.931 . S
H1053 C1035 0.931 . S
H1054 C1039 0.929 . S
H1055 C1041 0.930 . S
C1056 C1057 1.369 1_565 S
C1056 C1058 1.419 . S
C1056 H1060 0.930 . S
C1057 C1056 1.369 1_545 S
C1057 C1066 1.429 1_554 S
C1058 C1056 1.419 . S
C1058 C1059 1.363 1_554 S
C1058 H1061 0.929 . S
C1059 C1058 1.363 1_556 S
C1059 C1065 1.428 1_565 S
H1060 C1056 0.930 . S
H1061 C1058 0.929 . S
S1062 N1063 1.613 . S
S1062 N1064 1.610 . S
N1063 S1062 1.613 . S
N1063 C1066 1.350 . S
N1064 S1062 1.610 . S
N1064 C1065 1.351 . S
C1065 C1059 1.428 1_545 S
C1065 N1064 1.351 . S
C1065 C1066 1.434 . S
C1066 C1057 1.429 1_556 S
C1066 N1063 1.350 . S
C1066 C1065 1.434 . S
C1067 C1068 1.369 1_554 S
C1067 C1069 1.419 . S
C1067 H1071 0.930 . S
C1068 C1067 1.369 1_556 S
C1068 C1077 1.429 . S
C1069 C1067 1.419 . S
C1069 C1070 1.363 . S
C1069 H1072 0.929 . S
C1070 C1069 1.363 . S
C1070 C1076 1.428 1_554 S
H1071 C1067 0.930 . S
H1072 C1069 0.929 . S
S1073 N1074 1.613 . S
S1073 N1075 1.610 . S
N1074 S1073 1.613 . S
N1074 C1077 1.350 . S
N1075 S1073 1.610 . S
N1075 C1076 1.351 . S
C1076 C1070 1.428 1_556 S
C1076 N1075 1.351 . S
C1076 C1077 1.434 . S
C1077 C1068 1.429 . S
C1077 N1074 1.350 . S
C1077 C1076 1.434 . S
C1078 C1079 1.369 . S
C1078 C1080 1.419 . S
C1078 H1082 0.930 . S
C1079 C1078 1.369 . S
C1079 C1088 1.429 . S
C1080 C1078 1.419 . S
C1080 C1081 1.363 . S
C1080 H1083 0.929 . S
C1081 C1080 1.363 . S
C1081 C1087 1.428 . S
H1082 C1078 0.930 . S
H1083 C1080 0.929 . S
S1084 N1085 1.613 . S
S1084 N1086 1.610 . S
N1085 S1084 1.613 . S
N1085 C1088 1.350 . S
N1086 S1084 1.610 . S
N1086 C1087 1.351 . S
C1087 C1081 1.428 . S
C1087 N1086 1.351 . S
C1087 C1088 1.434 . S
C1088 C1079 1.429 . S
C1088 N1085 1.350 . S
C1088 C1087 1.434 . S
C1089 C1090 1.369 . S
C1089 C1091 1.419 . S
C1089 H1093 0.930 . S
C1090 C1089 1.369 . S
C1090 C1099 1.429 1_545 S
C1091 C1089 1.419 . S
C1091 C1092 1.363 1_545 S
C1091 H1094 0.929 . S
C1092 C1091 1.363 1_565 S
C1092 C1098 1.428 . S
H1093 C1089 0.930 . S
H1094 C1091 0.929 . S
S1095 N1096 1.613 . S
S1095 N1097 1.610 . S
N1096 S1095 1.613 . S
N1096 C1099 1.350 . S
N1097 S1095 1.610 . S
N1097 C1098 1.351 . S
C1098 C1092 1.428 . S
C1098 N1097 1.351 . S
C1098 C1099 1.434 . S
C1099 C1090 1.429 1_565 S
C1099 N1096 1.350 . S
C1099 C1098 1.434 . S
C1100 C1101 1.369 . S
C1100 C1102 1.419 . S
C1100 H1104 0.930 . S
C1101 C1100 1.369 . S
C1101 C1110 1.429 1_554 S
C1102 C1100 1.419 . S
C1102 C1103 1.363 1_554 S
C1102 H1105 0.929 . S
C1103 C1102 1.363 1_556 S
C1103 C1109 1.428 . S
H1104 C1100 0.930 . S
H1105 C1102 0.929 . S
S1106 N1107 1.613 . S
S1106 N1108 1.610 . S
N1107 S1106 1.613 . S
N1107 C1110 1.350 . S
N1108 S1106 1.610 . S
N1108 C1109 1.351 . S
C1109 C1103 1.428 . S
C1109 N1108 1.351 . S
C1109 C1110 1.434 . S
C1110 C1101 1.429 1_556 S
C1110 N1107 1.350 . S
C1110 C1109 1.434 . S
C1111 C1112 1.369 . S
C1111 C1113 1.419 . S
C1111 H1115 0.930 . S
C1112 C1111 1.369 . S
C1112 C1121 1.429 . S
C1113 C1111 1.419 . S
C1113 C1114 1.363 . S
C1113 H1116 0.929 . S
C1114 C1113 1.363 . S
C1114 C1120 1.428 . S
H1115 C1111 0.930 . S
H1116 C1113 0.929 . S
S1117 N1118 1.613 . S
S1117 N1119 1.610 . S
N1118 S1117 1.613 . S
N1118 C1121 1.350 . S
N1119 S1117 1.610 . S
N1119 C1120 1.351 . S
C1120 C1114 1.428 . S
C1120 N1119 1.351 . S
C1120 C1121 1.434 . S
C1121 C1112 1.429 . S
C1121 N1118 1.350 . S
C1121 C1120 1.434 . S
C1122 C1123 1.369 . S
C1122 C1124 1.419 1_545 S
C1122 H1126 0.930 . S
C1123 C1122 1.369 . S
C1123 C1132 1.429 . S
C1124 C1122 1.419 1_565 S
C1124 C1125 1.363 . S
C1124 H1127 0.929 . S
C1125 C1124 1.363 . S
C1125 C1131 1.428 . S
H1126 C1122 0.930 . S
H1127 C1124 0.929 . S
S1128 N1129 1.613 . S
S1128 N1130 1.610 1_545 S
N1129 S1128 1.613 . S
N1129 C1132 1.350 . S
N1130 S1128 1.610 1_565 S
N1130 C1131 1.351 . S
C1131 C1125 1.428 . S
C1131 N1130 1.351 . S
C1131 C1132 1.434 1_565 S
C1132 C1123 1.429 . S
C1132 N1129 1.350 . S
C1132 C1131 1.434 1_545 S
C1133 C1134 1.369 . S
C1133 C1135 1.419 . S
C1133 H1137 0.930 . S
C1134 C1133 1.369 . S
C1134 C1143 1.429 . S
C1135 C1133 1.419 . S
C1135 C1136 1.363 . S
C1135 H1138 0.929 . S
C1136 C1135 1.363 . S
C1136 C1142 1.428 . S
H1137 C1133 0.930 . S
H1138 C1135 0.929 . S
S1139 N1140 1.613 . S
S1139 N1141 1.610 . S
N1140 S1139 1.613 . S
N1140 C1143 1.350 . S
N1141 S1139 1.610 . S
N1141 C1142 1.351 . S
C1142 C1136 1.428 . S
C1142 N1141 1.351 . S
C1142 C1143 1.434 . S
C1143 C1134 1.429 . S
C1143 N1140 1.350 . S
C1143 C1142 1.434 . S
C1144 C1145 1.369 . S
C1144 C1146 1.419 . S
C1144 H1148 0.930 . S
C1145 C1144 1.369 . S
C1145 C1154 1.429 . S
C1146 C1144 1.419 . S
C1146 C1147 1.363 . S
C1146 H1149 0.929 . S
C1147 C1146 1.363 . S
C1147 C1153 1.428 . S
H1148 C1144 0.930 . S
H1149 C1146 0.929 . S
S1150 N1151 1.613 . S
S1150 N1152 1.610 . S
N1151 S1150 1.613 . S
N1151 C1154 1.350 . S
N1152 S1150 1.610 . S
N1152 C1153 1.351 . S
C1153 C1147 1.428 . S
C1153 N1152 1.351 . S
C1153 C1154 1.434 . S
C1154 C1145 1.429 . S
C1154 N1151 1.350 . S
C1154 C1153 1.434 . S
C1155 C1156 1.369 . S
C1155 C1157 1.419 . S
C1155 H1159 0.930 . S
C1156 C1155 1.369 . S
C1156 C1165 1.429 . S
C1157 C1155 1.419 . S
C1157 C1158 1.363 . S
C1157 H1160 0.929 . S
C1158 C1157 1.363 . S
C1158 C1164 1.428 . S
H1159 C1155 0.930 . S
H1160 C1157 0.929 . S
S1161 N1162 1.613 . S
S1161 N1163 1.610 . S
N1162 S1161 1.613 . S
N1162 C1165 1.350 . S
N1163 S1161 1.610 . S
N1163 C1164 1.351 . S
C1164 C1158 1.428 . S
C1164 N1163 1.351 . S
C1164 C1165 1.434 . S
C1165 C1156 1.429 . S
C1165 N1162 1.350 . S
C1165 C1164 1.434 . S
C1166 C1167 1.369 . S
C1166 C1168 1.419 . S
C1166 H1170 0.930 . S
C1167 C1166 1.369 . S
C1167 C1176 1.429 . S
C1168 C1166 1.419 . S
C1168 C1169 1.363 . S
C1168 H1171 0.929 . S
C1169 C1168 1.363 . S
C1169 C1175 1.428 . S
H1170 C1166 0.930 . S
H1171 C1168 0.929 . S
S1172 N1173 1.613 . S
S1172 N1174 1.610 . S
N1173 S1172 1.613 . S
N1173 C1176 1.350 . S
N1174 S1172 1.610 . S
N1174 C1175 1.351 . S
C1175 C1169 1.428 . S
C1175 N1174 1.351 . S
C1175 C1176 1.434 . S
C1176 C1167 1.429 . S
C1176 N1173 1.350 . S
C1176 C1175 1.434 . S
C1177 C1178 1.369 . S
C1177 C1179 1.419 . S
C1177 H1181 0.930 . S
C1178 C1177 1.369 . S
C1178 C1187 1.429 . S
C1179 C1177 1.419 . S
C1179 C1180 1.363 . S
C1179 H1182 0.929 . S
C1180 C1179 1.363 . S
C1180 C1186 1.428 . S
H1181 C1177 0.930 . S
H1182 C1179 0.929 . S
S1183 N1184 1.613 . S
S1183 N1185 1.610 . S
N1184 S1183 1.613 . S
N1184 C1187 1.350 . S
N1185 S1183 1.610 . S
N1185 C1186 1.351 . S
C1186 C1180 1.428 . S
C1186 N1185 1.351 . S
C1186 C1187 1.434 . S
C1187 C1178 1.429 . S
C1187 N1184 1.350 . S
C1187 C1186 1.434 . S
C1188 C1189 1.369 1_545 S
C1188 C1190 1.419 . S
C1188 H1192 0.930 . S
C1189 C1188 1.369 1_565 S
C1189 C1198 1.429 1_455 S
C1190 C1188 1.419 . S
C1190 C1191 1.363 1_455 S
C1190 H1193 0.929 . S
C1191 C1190 1.363 1_655 S
C1191 C1197 1.428 1_545 S
H1192 C1188 0.930 . S
H1193 C1190 0.929 . S
S1194 N1195 1.613 . S
S1194 N1196 1.610 . S
N1195 S1194 1.613 . S
N1195 C1198 1.350 . S
N1196 S1194 1.610 . S
N1196 C1197 1.351 . S
C1197 C1191 1.428 1_565 S
C1197 N1196 1.351 . S
C1197 C1198 1.434 . S
C1198 C1189 1.429 1_655 S
C1198 N1195 1.350 . S
C1198 C1197 1.434 . S
C1199 C1200 1.369 . S
C1199 C1201 1.419 . S
C1199 H1203 0.930 . S
C1200 C1199 1.369 . S
C1200 C1209 1.429 1_455 S
C1201 C1199 1.419 . S
C1201 C1202 1.363 1_455 S
C1201 H1204 0.929 . S
C1202 C1201 1.363 1_655 S
C1202 C1208 1.428 . S
H1203 C1199 0.930 . S
H1204 C1201 0.929 . S
S1205 N1206 1.613 . S
S1205 N1207 1.610 . S
N1206 S1205 1.613 . S
N1206 C1209 1.350 . S
N1207 S1205 1.610 . S
N1207 C1208 1.351 . S
C1208 C1202 1.428 . S
C1208 N1207 1.351 . S
C1208 C1209 1.434 . S
C1209 C1200 1.429 1_655 S
C1209 N1206 1.350 . S
C1209 C1208 1.434 . S
C1210 C1211 1.369 . S
C1210 C1212 1.419 1_455 S
C1210 H1214 0.930 . S
C1211 C1210 1.369 . S
C1211 C1220 1.431 . S
C1212 C1210 1.419 1_655 S
C1212 C1213 1.363 . S
C1212 H1215 0.929 . S
C1213 C1212 1.363 . S
C1213 C1219 1.428 . S
H1214 C1210 0.930 . S
H1215 C1212 0.929 . S
S1216 N1217 1.613 . S
S1216 N1218 1.610 . S
N1217 S1216 1.613 . S
N1217 C1220 1.349 1_655 S
N1218 S1216 1.610 . S
N1218 C1219 1.351 . S
C1219 C1213 1.428 . S
C1219 N1218 1.351 . S
C1219 C1220 1.431 1_655 S
C1220 C1211 1.431 . S
C1220 N1217 1.349 1_455 S
C1220 C1219 1.431 1_455 S
C1221 C1222 1.369 1_554 S
C1221 C1223 1.419 . S
C1221 H1225 0.930 . S
C1222 C1221 1.369 1_556 S
C1222 C1231 1.429 1_455 S
C1223 C1221 1.419 . S
C1223 C1224 1.363 1_455 S
C1223 H1226 0.929 . S
C1224 C1223 1.363 1_655 S
C1224 C1230 1.428 1_554 S
H1225 C1221 0.930 . S
H1226 C1223 0.929 . S
S1227 N1228 1.613 . S
S1227 N1229 1.610 . S
N1228 S1227 1.613 . S
N1228 C1231 1.350 . S
N1229 S1227 1.610 . S
N1229 C1230 1.351 . S
C1230 C1224 1.428 1_556 S
C1230 N1229 1.351 . S
C1230 C1231 1.434 . S
C1231 C1222 1.429 1_655 S
C1231 N1228 1.350 . S
C1231 C1230 1.434 . S
C1232 C1233 1.369 . S
C1232 C1234 1.419 . S
C1232 H1236 0.930 . S
C1233 C1232 1.369 . S
C1233 C1242 1.429 . S
C1234 C1232 1.419 . S
C1234 C1235 1.363 . S
C1234 H1237 0.929 . S
C1235 C1234 1.363 . S
C1235 C1241 1.428 . S
H1236 C1232 0.930 . S
H1237 C1234 0.929 . S
S1238 N1239 1.613 . S
S1238 N1240 1.610 . S
N1239 S1238 1.613 . S
N1239 C1242 1.350 . S
N1240 S1238 1.610 . S
N1240 C1241 1.351 . S
C1241 C1235 1.428 . S
C1241 N1240 1.351 . S
C1241 C1242 1.434 . S
C1242 C1233 1.429 . S
C1242 N1239 1.350 . S
C1242 C1241 1.434 . S
C1243 C1244 1.369 . S
C1243 C1245 1.419 . S
C1243 H1247 0.930 . S
C1244 C1243 1.369 . S
C1244 C1253 1.429 . S
C1245 C1243 1.419 . S
C1245 C1246 1.363 . S
C1245 H1248 0.929 . S
C1246 C1245 1.363 . S
C1246 C1252 1.428 . S
H1247 C1243 0.930 . S
H1248 C1245 0.929 . S
S1249 N1250 1.613 . S
S1249 N1251 1.610 . S
N1250 S1249 1.613 . S
N1250 C1253 1.350 . S
N1251 S1249 1.610 . S
N1251 C1252 1.351 . S
C1252 C1246 1.428 . S
C1252 N1251 1.351 . S
C1252 C1253 1.434 . S
C1253 C1244 1.429 . S
C1253 N1250 1.350 . S
C1253 C1252 1.434 . S
C1254 C1255 1.369 . S
C1254 C1256 1.419 . S
C1254 H1258 0.930 . S
C1255 C1254 1.369 . S
C1255 C1264 1.429 . S
C1256 C1254 1.419 . S
C1256 C1257 1.363 . S
C1256 H1259 0.929 . S
C1257 C1256 1.363 . S
C1257 C1263 1.428 . S
H1258 C1254 0.930 . S
H1259 C1256 0.929 . S
S1260 N1261 1.613 . S
S1260 N1262 1.610 . S
N1261 S1260 1.613 . S
N1261 C1264 1.350 . S
N1262 S1260 1.610 . S
N1262 C1263 1.351 . S
C1263 C1257 1.428 . S
C1263 N1262 1.351 . S
C1263 C1264 1.434 . S
C1264 C1255 1.429 . S
C1264 N1261 1.350 . S
C1264 C1263 1.434 . S
C1265 C1266 1.369 . S
C1265 C1267 1.419 . S
C1265 H1269 0.930 . S
C1266 C1265 1.369 . S
C1266 C1275 1.429 . S
C1267 C1265 1.419 . S
C1267 C1268 1.363 . S
C1267 H1270 0.929 . S
C1268 C1267 1.363 . S
C1268 C1274 1.428 . S
H1269 C1265 0.930 . S
H1270 C1267 0.929 . S
S1271 N1272 1.613 . S
S1271 N1273 1.610 . S
N1272 S1271 1.613 . S
N1272 C1275 1.350 . S
N1273 S1271 1.610 . S
N1273 C1274 1.351 . S
C1274 C1268 1.428 . S
C1274 N1273 1.351 . S
C1274 C1275 1.434 . S
C1275 C1266 1.429 . S
C1275 N1272 1.350 . S
C1275 C1274 1.434 . S
C1276 C1277 1.369 . S
C1276 C1278 1.419 . S
C1276 H1280 0.930 . S
C1277 C1276 1.369 . S
C1277 C1286 1.429 . S
C1278 C1276 1.419 . S
C1278 C1279 1.363 . S
C1278 H1281 0.929 . S
C1279 C1278 1.363 . S
C1279 C1285 1.428 . S
H1280 C1276 0.930 . S
H1281 C1278 0.929 . S
S1282 N1283 1.613 . S
S1282 N1284 1.610 . S
N1283 S1282 1.613 . S
N1283 C1286 1.350 . S
N1284 S1282 1.610 . S
N1284 C1285 1.351 . S
C1285 C1279 1.428 . S
C1285 N1284 1.351 . S
C1285 C1286 1.434 . S
C1286 C1277 1.429 . S
C1286 N1283 1.350 . S
C1286 C1285 1.434 . S
C1287 C1288 1.369 . S
C1287 C1289 1.419 . S
C1287 H1291 0.930 . S
C1288 C1287 1.369 . S
C1288 C1297 1.429 . S
C1289 C1287 1.419 . S
C1289 C1290 1.363 . S
C1289 H1292 0.929 . S
C1290 C1289 1.363 . S
C1290 C1296 1.428 . S
H1291 C1287 0.930 . S
H1292 C1289 0.929 . S
S1293 N1294 1.613 . S
S1293 N1295 1.610 . S
N1294 S1293 1.613 . S
N1294 C1297 1.350 . S
N1295 S1293 1.610 . S
N1295 C1296 1.351 . S
C1296 C1290 1.428 . S
C1296 N1295 1.351 . S
C1296 C1297 1.434 . S
C1297 C1288 1.429 . S
C1297 N1294 1.350 . S
C1297 C1296 1.434 . S
C1298 C1299 1.369 . S
C1298 C1300 1.419 . S
C1298 H1302 0.930 . S
C1299 C1298 1.369 . S
C1299 C1308 1.429 . S
C1300 C1298 1.419 . S
C1300 C1301 1.363 . S
C1300 H1303 0.929 . S
C1301 C1300 1.363 . S
C1301 C1307 1.428 . S
H1302 C1298 0.930 . S
H1303 C1300 0.929 . S
S1304 N1305 1.613 . S
S1304 N1306 1.610 . S
N1305 S1304 1.613 . S
N1305 C1308 1.350 . S
N1306 S1304 1.610 . S
N1306 C1307 1.351 . S
C1307 C1301 1.428 . S
C1307 N1306 1.351 . S
C1307 C1308 1.434 . S
C1308 C1299 1.429 . S
C1308 N1305 1.350 . S
C1308 C1307 1.434 . S
C1309 C1310 1.369 . S
C1309 C1311 1.419 . S
C1309 H1313 0.930 . S
C1310 C1309 1.369 . S
C1310 C1319 1.429 . S
C1311 C1309 1.419 . S
C1311 C1312 1.363 . S
C1311 H1314 0.929 . S
C1312 C1311 1.363 . S
C1312 C1318 1.428 . S
H1313 C1309 0.930 . S
H1314 C1311 0.929 . S
S1315 N1316 1.613 . S
S1315 N1317 1.610 . S
N1316 S1315 1.613 . S
N1316 C1319 1.350 . S
N1317 S1315 1.610 . S
N1317 C1318 1.351 . S
C1318 C1312 1.428 . S
C1318 N1317 1.351 . S
C1318 C1319 1.434 . S
C1319 C1310 1.429 . S
C1319 N1316 1.350 . S
C1319 C1318 1.434 . S
C1320 C1321 1.369 . S
C1320 C1322 1.419 . S
C1320 H1324 0.930 . S
C1321 C1320 1.369 . S
C1321 C1330 1.429 . S
C1322 C1320 1.419 . S
C1322 C1323 1.363 . S
C1322 H1325 0.929 . S
C1323 C1322 1.363 . S
C1323 C1329 1.428 . S
H1324 C1320 0.930 . S
H1325 C1322 0.929 . S
S1326 N1327 1.613 . S
S1326 N1328 1.610 . S
N1327 S1326 1.613 . S
N1327 C1330 1.350 . S
N1328 S1326 1.610 . S
N1328 C1329 1.351 . S
C1329 C1323 1.428 . S
C1329 N1328 1.351 . S
C1329 C1330 1.434 . S
C1330 C1321 1.429 . S
C1330 N1327 1.350 . S
C1330 C1329 1.434 . S
C1331 C1332 1.369 . S
C1331 C1333 1.419 . S
C1331 H1335 0.930 . S
C1332 C1331 1.369 . S
C1332 C1341 1.429 . S
C1333 C1331 1.419 . S
C1333 C1334 1.363 . S
C1333 H1336 0.929 . S
C1334 C1333 1.363 . S
C1334 C1340 1.428 . S
H1335 C1331 0.930 . S
H1336 C1333 0.929 . S
S1337 N1338 1.613 . S
S1337 N1339 1.610 . S
N1338 S1337 1.613 . S
N1338 C1341 1.350 . S
N1339 S1337 1.610 . S
N1339 C1340 1.351 . S
C1340 C1334 1.428 . S
C1340 N1339 1.351 . S
C1340 C1341 1.434 . S
C1341 C1332 1.429 . S
C1341 N1338 1.350 . S
C1341 C1340 1.434 . S
C1342 C1343 1.369 . S
C1342 C1344 1.419 . S
C1342 H1346 0.930 . S
C1343 C1342 1.369 . S
C1343 C1352 1.429 . S
C1344 C1342 1.419 . S
C1344 C1345 1.363 . S
C1344 H1347 0.929 . S
C1345 C1344 1.363 . S
C1345 C1351 1.428 . S
H1346 C1342 0.930 . S
H1347 C1344 0.929 . S
S1348 N1349 1.613 . S
S1348 N1350 1.610 . S
N1349 S1348 1.613 . S
N1349 C1352 1.350 . S
N1350 S1348 1.610 . S
N1350 C1351 1.351 . S
C1351 C1345 1.428 . S
C1351 N1350 1.351 . S
C1351 C1352 1.434 . S
C1352 C1343 1.429 . S
C1352 N1349 1.350 . S
C1352 C1351 1.434 . S
C1353 C1354 1.369 . S
C1353 C1355 1.419 . S
C1353 H1357 0.930 . S
C1354 C1353 1.369 . S
C1354 C1363 1.429 . S
C1355 C1353 1.419 . S
C1355 C1356 1.363 . S
C1355 H1358 0.929 . S
C1356 C1355 1.363 . S
C1356 C1362 1.428 . S
H1357 C1353 0.930 . S
H1358 C1355 0.929 . S
S1359 N1360 1.613 . S
S1359 N1361 1.610 . S
N1360 S1359 1.613 . S
N1360 C1363 1.350 . S
N1361 S1359 1.610 . S
N1361 C1362 1.351 . S
C1362 C1356 1.428 . S
C1362 N1361 1.351 . S
C1362 C1363 1.434 . S
C1363 C1354 1.429 . S
C1363 N1360 1.350 . S
C1363 C1362 1.434 . S
C1364 C1365 1.369 . S
C1364 C1366 1.419 . S
C1364 H1368 0.930 . S
C1365 C1364 1.369 . S
C1365 C1374 1.429 . S
C1366 C1364 1.419 . S
C1366 C1367 1.363 . S
C1366 H1369 0.929 . S
C1367 C1366 1.363 . S
C1367 C1373 1.428 . S
H1368 C1364 0.930 . S
H1369 C1366 0.929 . S
S1370 N1371 1.613 . S
S1370 N1372 1.610 . S
N1371 S1370 1.613 . S
N1371 C1374 1.350 . S
N1372 S1370 1.610 . S
N1372 C1373 1.351 . S
C1373 C1367 1.428 . S
C1373 N1372 1.351 . S
C1373 C1374 1.434 . S
C1374 C1365 1.429 . S
C1374 N1371 1.350 . S
C1374 C1373 1.434 . S
C1375 C1376 1.369 . S
C1375 C1377 1.419 . S
C1375 H1379 0.930 . S
C1376 C1375 1.369 . S
C1376 C1385 1.429 . S
C1377 C1375 1.419 . S
C1377 C1378 1.363 . S
C1377 H1380 0.929 . S
C1378 C1377 1.363 . S
C1378 C1384 1.428 . S
H1379 C1375 0.930 . S
H1380 C1377 0.929 . S
S1381 N1382 1.613 . S
S1381 N1383 1.610 . S
N1382 S1381 1.613 . S
N1382 C1385 1.350 . S
N1383 S1381 1.610 . S
N1383 C1384 1.351 . S
C1384 C1378 1.428 . S
C1384 N1383 1.351 . S
C1384 C1385 1.434 . S
C1385 C1376 1.429 . S
C1385 N1382 1.350 . S
C1385 C1384 1.434 . S
C1386 C1387 1.369 . S
C1386 C1388 1.419 . S
C1386 H1390 0.930 . S
C1387 C1386 1.369 . S
C1387 C1396 1.429 . S
C1388 C1386 1.419 . S
C1388 C1389 1.363 . S
C1388 H1391 0.929 . S
C1389 C1388 1.363 . S
C1389 C1395 1.428 . S
H1390 C1386 0.930 . S
H1391 C1388 0.929 . S
S1392 N1393 1.613 1_655 S
S1392 N1394 1.610 1_655 S
N1393 S1392 1.613 1_455 S
N1393 C1396 1.350 . S
N1394 S1392 1.610 1_455 S
N1394 C1395 1.351 . S
C1395 C1389 1.428 . S
C1395 N1394 1.351 . S
C1395 C1396 1.434 . S
C1396 C1387 1.429 . S
C1396 N1393 1.350 . S
C1396 C1395 1.434 . S
C1397 C1398 1.369 . S
C1397 C1399 1.419 . S
C1397 H1401 0.930 . S
C1398 C1397 1.369 . S
C1398 C1407 1.429 . S
C1399 C1397 1.419 . S
C1399 C1400 1.363 . S
C1399 H1402 0.929 . S
C1400 C1399 1.363 . S
C1400 C1406 1.428 . S
H1401 C1397 0.930 . S
H1402 C1399 0.929 . S
S1403 N1404 1.613 . S
S1403 N1405 1.610 . S
N1404 S1403 1.613 . S
N1404 C1407 1.350 . S
N1405 S1403 1.610 . S
N1405 C1406 1.351 . S
C1406 C1400 1.428 . S
C1406 N1405 1.351 . S
C1406 C1407 1.434 . S
C1407 C1398 1.429 . S
C1407 N1404 1.350 . S
C1407 C1406 1.434 . S
C1408 C1409 1.369 . S
C1408 C1410 1.419 . S
C1408 H1412 0.930 . S
C1409 C1408 1.369 . S
C1409 C1418 1.429 . S
C1410 C1408 1.419 . S
C1410 C1411 1.363 . S
C1410 H1413 0.929 . S
C1411 C1410 1.363 . S
C1411 C1417 1.428 . S
H1412 C1408 0.930 . S
H1413 C1410 0.929 . S
S1414 N1415 1.613 . S
S1414 N1416 1.610 . S
N1415 S1414 1.613 . S
N1415 C1418 1.350 . S
N1416 S1414 1.610 . S
N1416 C1417 1.351 . S
C1417 C1411 1.428 . S
C1417 N1416 1.351 . S
C1417 C1418 1.434 . S
C1418 C1409 1.429 . S
C1418 N1415 1.350 . S
C1418 C1417 1.434 . S
C1419 C1420 1.369 . S
C1419 C1421 1.419 . S
C1419 H1423 0.930 . S
C1420 C1419 1.369 . S
C1420 C1429 1.429 . S
C1421 C1419 1.419 . S
C1421 C1422 1.363 . S
C1421 H1424 0.929 . S
C1422 C1421 1.363 . S
C1422 C1428 1.428 . S
H1423 C1419 0.930 . S
H1424 C1421 0.929 . S
S1425 N1426 1.613 . S
S1425 N1427 1.610 . S
N1426 S1425 1.613 . S
N1426 C1429 1.350 . S
N1427 S1425 1.610 . S
N1427 C1428 1.351 . S
C1428 C1422 1.428 . S
C1428 N1427 1.351 . S
C1428 C1429 1.434 . S
C1429 C1420 1.429 . S
C1429 N1426 1.350 . S
C1429 C1428 1.434 . S
C1430 C1431 1.369 . S
C1430 C1432 1.419 . S
C1430 H1434 0.930 . S
C1431 C1430 1.369 . S
C1431 C1440 1.429 . S
C1432 C1430 1.419 . S
C1432 C1433 1.363 . S
C1432 H1435 0.929 . S
C1433 C1432 1.363 . S
C1433 C1439 1.428 . S
H1434 C1430 0.930 . S
H1435 C1432 0.929 . S
S1436 N1437 1.613 . S
S1436 N1438 1.610 . S
N1437 S1436 1.613 . S
N1437 C1440 1.350 . S
N1438 S1436 1.610 . S
N1438 C1439 1.351 . S
C1439 C1433 1.428 . S
C1439 N1438 1.351 . S
C1439 C1440 1.434 . S
C1440 C1431 1.429 . S
C1440 N1437 1.350 . S
C1440 C1439 1.434 . S
C1441 C1442 1.369 . S
C1441 C1443 1.419 . S
C1441 H1445 0.930 . S
C1442 C1441 1.369 . S
C1442 C1451 1.429 . S
C1443 C1441 1.419 . S
C1443 C1444 1.363 . S
C1443 H1446 0.929 . S
C1444 C1443 1.363 . S
C1444 C1450 1.428 . S
H1445 C1441 0.930 . S
H1446 C1443 0.929 . S
S1447 N1448 1.613 . S
S1447 N1449 1.610 . S
N1448 S1447 1.613 . S
N1448 C1451 1.350 . S
N1449 S1447 1.610 . S
N1449 C1450 1.351 . S
C1450 C1444 1.428 . S
C1450 N1449 1.351 . S
C1450 C1451 1.434 . S
C1451 C1442 1.429 . S
C1451 N1448 1.350 . S
C1451 C1450 1.434 . S
C1452 C1453 1.369 . S
C1452 C1454 1.419 . S
C1452 H1456 0.930 . S
C1453 C1452 1.369 . S
C1453 C1462 1.429 . S
C1454 C1452 1.419 . S
C1454 C1455 1.363 . S
C1454 H1457 0.929 . S
C1455 C1454 1.363 . S
C1455 C1461 1.428 . S
H1456 C1452 0.930 . S
H1457 C1454 0.929 . S
S1458 N1459 1.613 . S
S1458 N1460 1.610 . S
N1459 S1458 1.613 . S
N1459 C1462 1.350 . S
N1460 S1458 1.610 . S
N1460 C1461 1.351 . S
C1461 C1455 1.428 . S
C1461 N1460 1.351 . S
C1461 C1462 1.434 . S
C1462 C1453 1.429 . S
C1462 N1459 1.350 . S
C1462 C1461 1.434 . S
C1463 C1464 1.369 . S
C1463 C1465 1.419 . S
C1463 H1467 0.930 . S
C1464 C1463 1.369 . S
C1464 C1473 1.429 . S
C1465 C1463 1.419 . S
C1465 C1466 1.363 . S
C1465 H1468 0.929 . S
C1466 C1465 1.363 . S
C1466 C1472 1.428 . S
H1467 C1463 0.930 . S
H1468 C1465 0.929 . S
S1469 N1470 1.613 . S
S1469 N1471 1.610 . S
N1470 S1469 1.613 . S
N1470 C1473 1.350 . S
N1471 S1469 1.610 . S
N1471 C1472 1.351 . S
C1472 C1466 1.428 . S
C1472 N1471 1.351 . S
C1472 C1473 1.434 . S
C1473 C1464 1.429 . S
C1473 N1470 1.350 . S
C1473 C1472 1.434 . S
C1474 C1475 1.369 . S
C1474 C1476 1.419 . S
C1474 H1478 0.930 . S
C1475 C1474 1.369 . S
C1475 C1484 1.429 . S
C1476 C1474 1.419 . S
C1476 C1477 1.363 . S
C1476 H1479 0.929 . S
C1477 C1476 1.363 . S
C1477 C1483 1.428 . S
H1478 C1474 0.930 . S
H1479 C1476 0.929 . S
S1480 N1481 1.613 . S
S1480 N1482 1.610 . S
N1481 S1480 1.613 . S
N1481 C1484 1.350 . S
N1482 S1480 1.610 . S
N1482 C1483 1.351 . S
C1483 C1477 1.428 . S
C1483 N1482 1.351 . S
C1483 C1484 1.434 . S
C1484 C1475 1.429 . S
C1484 N1481 1.350 . S
C1484 C1483 1.434 . S
C1485 C1486 1.369 . S
C1485 C1487 1.419 . S
C1485 H1489 0.930 . S
C1486 C1485 1.369 . S
C1486 C1495 1.429 . S
C1487 C1485 1.419 . S
C1487 C1488 1.363 . S
C1487 H1490 0.929 . S
C1488 C1487 1.363 . S
C1488 C1494 1.428 . S
H1489 C1485 0.930 . S
H1490 C1487 0.929 . S
S1491 N1492 1.613 . S
S1491 N1493 1.610 . S
N1492 S1491 1.613 . S
N1492 C1495 1.350 . S
N1493 S1491 1.610 . S
N1493 C1494 1.351 . S
C1494 C1488 1.428 . S
C1494 N1493 1.351 . S
C1494 C1495 1.434 . S
C1495 C1486 1.429 . S
C1495 N1492 1.350 . S
C1495 C1494 1.434 . S
C1496 C1497 1.369 . S
C1496 C1498 1.419 . S
C1496 H1500 0.930 . S
C1497 C1496 1.369 . S
C1497 C1506 1.429 . S
C1498 C1496 1.419 . S
C1498 C1499 1.363 . S
C1498 H1501 0.929 . S
C1499 C1498 1.363 . S
C1499 C1505 1.428 . S
H1500 C1496 0.930 . S
H1501 C1498 0.929 . S
S1502 N1503 1.613 . S
S1502 N1504 1.610 . S
N1503 S1502 1.613 . S
N1503 C1506 1.350 . S
N1504 S1502 1.610 . S
N1504 C1505 1.351 . S
C1505 C1499 1.428 . S
C1505 N1504 1.351 . S
C1505 C1506 1.434 . S
C1506 C1497 1.429 . S
C1506 N1503 1.350 . S
C1506 C1505 1.434 . S
C1507 C1508 1.369 . S
C1507 C1509 1.419 . S
C1507 H1511 0.930 . S
C1508 C1507 1.369 . S
C1508 C1517 1.429 . S
C1509 C1507 1.419 . S
C1509 C1510 1.363 . S
C1509 H1512 0.929 . S
C1510 C1509 1.363 . S
C1510 C1516 1.428 . S
H1511 C1507 0.930 . S
H1512 C1509 0.929 . S
S1513 N1514 1.613 . S
S1513 N1515 1.610 . S
N1514 S1513 1.613 . S
N1514 C1517 1.350 . S
N1515 S1513 1.610 . S
N1515 C1516 1.351 . S
C1516 C1510 1.428 . S
C1516 N1515 1.351 . S
C1516 C1517 1.434 . S
C1517 C1508 1.429 . S
C1517 N1514 1.350 . S
C1517 C1516 1.434 . S
C1518 C1519 1.369 . S
C1518 C1520 1.419 . S
C1518 H1522 0.930 . S
C1519 C1518 1.369 . S
C1519 C1528 1.429 . S
C1520 C1518 1.419 . S
C1520 C1521 1.363 . S
C1520 H1523 0.929 . S
C1521 C1520 1.363 . S
C1521 C1527 1.428 . S
H1522 C1518 0.930 . S
H1523 C1520 0.929 . S
S1524 N1525 1.613 . S
S1524 N1526 1.610 . S
N1525 S1524 1.613 . S
N1525 C1528 1.350 . S
N1526 S1524 1.610 . S
N1526 C1527 1.351 . S
C1527 C1521 1.428 . S
C1527 N1526 1.351 . S
C1527 C1528 1.434 . S
C1528 C1519 1.429 . S
C1528 N1525 1.350 . S
C1528 C1527 1.434 . S
C1529 C1530 1.369 . S
C1529 C1531 1.419 . S
C1529 H1533 0.930 . S
C1530 C1529 1.369 . S
C1530 C1539 1.429 . S
C1531 C1529 1.419 . S
C1531 C1532 1.363 . S
C1531 H1534 0.929 . S
C1532 C1531 1.363 . S
C1532 C1538 1.428 . S
H1533 C1529 0.930 . S
H1534 C1531 0.929 . S
S1535 N1536 1.613 . S
S1535 N1537 1.610 . S
N1536 S1535 1.613 . S
N1536 C1539 1.350 . S
N1537 S1535 1.610 . S
N1537 C1538 1.351 . S
C1538 C1532 1.428 . S
C1538 N1537 1.351 . S
C1538 C1539 1.434 . S
C1539 C1530 1.429 . S
C1539 N1536 1.350 . S
C1539 C1538 1.434 . S
C1540 C1541 1.369 . S
C1540 C1542 1.419 . S
C1540 H1544 0.930 . S
C1541 C1540 1.369 . S
C1541 C1550 1.429 . S
C1542 C1540 1.419 . S
C1542 C1543 1.363 . S
C1542 H1545 0.929 . S
C1543 C1542 1.363 . S
C1543 C1549 1.428 . S
H1544 C1540 0.930 . S
H1545 C1542 0.929 . S
S1546 N1547 1.613 . S
S1546 N1548 1.610 . S
N1547 S1546 1.613 . S
N1547 C1550 1.350 . S
N1548 S1546 1.610 . S
N1548 C1549 1.351 . S
C1549 C1543 1.428 . S
C1549 N1548 1.351 . S
C1549 C1550 1.434 . S
C1550 C1541 1.429 . S
C1550 N1547 1.350 . S
C1550 C1549 1.434 . S
C1551 C1552 1.369 . S
C1551 C1553 1.419 . S
C1551 H1555 0.930 . S
C1552 C1551 1.369 . S
C1552 C1561 1.429 . S
C1553 C1551 1.419 . S
C1553 C1554 1.363 . S
C1553 H1556 0.929 . S
C1554 C1553 1.363 . S
C1554 C1560 1.428 . S
H1555 C1551 0.930 . S
H1556 C1553 0.929 . S
S1557 N1558 1.613 . S
S1557 N1559 1.610 . S
N1558 S1557 1.613 . S
N1558 C1561 1.350 . S
N1559 S1557 1.610 . S
N1559 C1560 1.351 . S
C1560 C1554 1.428 . S
C1560 N1559 1.351 . S
C1560 C1561 1.434 . S
C1561 C1552 1.429 . S
C1561 N1558 1.350 . S
C1561 C1560 1.434 . S
C1562 C1563 1.369 . S
C1562 C1564 1.419 . S
C1562 H1566 0.930 . S
C1563 C1562 1.369 . S
C1563 C1572 1.429 . S
C1564 C1562 1.419 . S
C1564 C1565 1.363 . S
C1564 H1567 0.929 . S
C1565 C1564 1.363 . S
C1565 C1571 1.428 . S
H1566 C1562 0.930 . S
H1567 C1564 0.929 . S
S1568 N1569 1.613 . S
S1568 N1570 1.610 . S
N1569 S1568 1.613 . S
N1569 C1572 1.350 . S
N1570 S1568 1.610 . S
N1570 C1571 1.351 . S
C1571 C1565 1.428 . S
C1571 N1570 1.351 . S
C1571 C1572 1.434 . S
C1572 C1563 1.429 . S
C1572 N1569 1.350 . S
C1572 C1571 1.434 . S
C1573 C1574 1.369 . S
C1573 C1575 1.419 . S
C1573 H1577 0.930 . S
C1574 C1573 1.369 . S
C1574 C1583 1.429 . S
C1575 C1573 1.419 . S
C1575 C1576 1.363 . S
C1575 H1578 0.929 . S
C1576 C1575 1.363 . S
C1576 C1582 1.428 . S
H1577 C1573 0.930 . S
H1578 C1575 0.929 . S
S1579 N1580 1.613 . S
S1579 N1581 1.610 . S
N1580 S1579 1.613 . S
N1580 C1583 1.350 . S
N1581 S1579 1.610 . S
N1581 C1582 1.351 . S
C1582 C1576 1.428 . S
C1582 N1581 1.351 . S
C1582 C1583 1.434 . S
C1583 C1574 1.429 . S
C1583 N1580 1.350 . S
C1583 C1582 1.434 . S
C1584 C1585 1.369 1_556 S
C1584 C1586 1.419 . S
C1584 H1588 0.930 . S
C1585 C1584 1.369 1_554 S
C1585 C1594 1.429 . S
C1586 C1584 1.419 . S
C1586 C1587 1.363 . S
C1586 H1589 0.929 . S
C1587 C1586 1.363 . S
C1587 C1593 1.428 1_556 S
H1588 C1584 0.930 . S
H1589 C1586 0.929 . S
S1590 N1591 1.613 . S
S1590 N1592 1.610 . S
N1591 S1590 1.613 . S
N1591 C1594 1.350 . S
N1592 S1590 1.610 . S
N1592 C1593 1.351 . S
C1593 C1587 1.428 1_554 S
C1593 N1592 1.351 . S
C1593 C1594 1.434 . S
C1594 C1585 1.429 . S
C1594 N1591 1.350 . S
C1594 C1593 1.434 . S
C1595 C1596 1.369 . S
C1595 C1597 1.419 . S
C1595 H1599 0.930 . S
C1596 C1595 1.369 . S
C1596 C1605 1.429 1_656 S
C1597 C1595 1.419 . S
C1597 C1598 1.363 1_556 S
C1597 H1600 0.929 . S
C1598 C1597 1.363 1_554 S
C1598 C1604 1.428 . S
H1599 C1595 0.930 . S
H1600 C1597 0.929 . S
S1601 N1602 1.613 . S
S1601 N1603 1.610 1_455 S
N1602 S1601 1.613 . S
N1602 C1605 1.350 . S
N1603 S1601 1.610 1_655 S
N1603 C1604 1.351 . S
C1604 C1598 1.428 . S
C1604 N1603 1.351 . S
C1604 C1605 1.434 1_655 S
C1605 C1596 1.429 1_454 S
C1605 N1602 1.350 . S
C1605 C1604 1.434 1_455 S
C1606 C1607 1.369 . S
C1606 C1608 1.419 . S
C1606 H1610 0.930 . S
C1607 C1606 1.369 . S
C1607 C1616 1.429 . S
C1608 C1606 1.419 . S
C1608 C1609 1.363 . S
C1608 H1611 0.929 . S
C1609 C1608 1.363 . S
C1609 C1615 1.428 . S
H1610 C1606 0.930 . S
H1611 C1608 0.929 . S
S1612 N1613 1.613 . S
S1612 N1614 1.610 . S
N1613 S1612 1.613 . S
N1613 C1616 1.350 . S
N1614 S1612 1.610 . S
N1614 C1615 1.351 . S
C1615 C1609 1.428 . S
C1615 N1614 1.351 . S
C1615 C1616 1.434 . S
C1616 C1607 1.429 . S
C1616 N1613 1.350 . S
C1616 C1615 1.434 . S
C1617 C1618 1.369 . S
C1617 C1619 1.419 1_655 S
C1617 H1621 0.930 . S
C1618 C1617 1.369 . S
C1618 C1627 1.429 . S
C1619 C1617 1.419 1_455 S
C1619 C1620 1.363 1_455 S
C1619 H1622 0.929 . S
C1620 C1619 1.363 1_655 S
C1620 C1626 1.428 . S
H1621 C1617 0.930 . S
H1622 C1619 0.929 . S
S1623 N1624 1.613 . S
S1623 N1625 1.610 . S
N1624 S1623 1.613 . S
N1624 C1627 1.350 . S
N1625 S1623 1.610 . S
N1625 C1626 1.351 . S
C1626 C1620 1.428 . S
C1626 N1625 1.351 . S
C1626 C1627 1.434 . S
C1627 C1618 1.429 . S
C1627 N1624 1.350 . S
C1627 C1626 1.434 . S
C1628 C1629 1.369 . S
C1628 C1630 1.419 1_554 S
C1628 H1632 0.930 . S
C1629 C1628 1.369 . S
C1629 C1638 1.429 . S
C1630 C1628 1.419 1_556 S
C1630 C1631 1.363 . S
C1630 H1633 0.929 . S
C1631 C1630 1.363 . S
C1631 C1637 1.428 . S
H1632 C1628 0.930 . S
H1633 C1630 0.929 . S
S1634 N1635 1.613 1_556 S
S1634 N1636 1.610 . S
N1635 S1634 1.613 1_554 S
N1635 C1638 1.350 . S
N1636 S1634 1.610 . S
N1636 C1637 1.351 . S
C1637 C1631 1.428 . S
C1637 N1636 1.351 . S
C1637 C1638 1.434 1_556 S
C1638 C1629 1.429 . S
C1638 N1635 1.350 . S
C1638 C1637 1.434 1_554 S
C1639 C1640 1.369 . S
C1639 C1641 1.419 1_455 S
C1639 H1643 0.930 . S
C1640 C1639 1.369 . S
C1640 C1649 1.399 1_556 S
C1641 C1639 1.419 1_655 S
C1641 C1642 1.363 1_656 S
C1641 H1644 0.929 . S
C1642 C1641 1.363 1_454 S
C1642 C1648 1.428 . S
H1643 C1639 0.930 . S
H1644 C1641 0.929 . S
S1645 N1646 1.613 . S
S1645 N1647 1.610 . S
N1646 S1645 1.613 . S
N1646 C1649 1.357 . S
N1647 S1645 1.610 . S
N1647 C1648 1.351 . S
C1648 C1642 1.428 . S
C1648 N1647 1.351 . S
C1648 C1649 1.462 . S
C1649 C1640 1.399 1_554 S
C1649 N1646 1.357 . S
C1649 C1648 1.462 . S
C1650 C1651 1.369 . S
C1650 C1652 1.419 . S
C1650 H1654 0.930 . S
C1651 C1650 1.369 . S
C1651 C1660 1.429 . S
C1652 C1650 1.419 . S
C1652 C1653 1.363 . S
C1652 H1655 0.929 . S
C1653 C1652 1.363 . S
C1653 C1659 1.428 . S
H1654 C1650 0.930 . S
H1655 C1652 0.929 . S
S1656 N1657 1.613 . S
S1656 N1658 1.610 . S
N1657 S1656 1.613 . S
N1657 C1660 1.350 . S
N1658 S1656 1.610 . S
N1658 C1659 1.351 . S
C1659 C1653 1.428 . S
C1659 N1658 1.351 . S
C1659 C1660 1.434 . S
C1660 C1651 1.429 . S
C1660 N1657 1.350 . S
C1660 C1659 1.434 . S
C1661 C1662 1.369 . S
C1661 C1663 1.419 . S
C1661 H1665 0.924 1_565 S
C1662 C1661 1.369 . S
C1662 C1671 1.429 1_455 S
C1663 C1661 1.419 . S
C1663 C1664 1.363 . S
C1663 H1666 0.929 . S
C1664 C1663 1.363 . S
C1664 C1670 1.428 . S
H1665 C1661 0.924 1_545 S
H1666 C1663 0.929 . S
S1667 N1668 1.613 . S
S1667 N1669 1.610 1_655 S
N1668 S1667 1.613 . S
N1668 C1671 1.350 . S
N1669 S1667 1.610 1_455 S
N1669 C1670 1.351 . S
C1670 C1664 1.428 . S
C1670 N1669 1.351 . S
C1670 C1671 1.434 1_455 S
C1671 C1662 1.429 1_655 S
C1671 N1668 1.350 . S
C1671 C1670 1.434 1_655 S
C1672 C1673 1.369 . S
C1672 C1674 1.419 . S
C1672 H1676 0.930 . S
C1673 C1672 1.369 . S
C1673 C1682 1.429 . S
C1674 C1672 1.419 . S
C1674 C1675 1.363 . S
C1674 H1677 0.929 . S
C1675 C1674 1.363 . S
C1675 C1681 1.428 . S
H1676 C1672 0.930 . S
H1677 C1674 0.929 . S
S1678 N1679 1.613 . S
S1678 N1680 1.610 . S
N1679 S1678 1.613 . S
N1679 C1682 1.350 . S
N1680 S1678 1.610 . S
N1680 C1681 1.351 . S
C1681 C1675 1.428 . S
C1681 N1680 1.351 . S
C1681 C1682 1.434 . S
C1682 C1673 1.429 . S
C1682 N1679 1.350 . S
C1682 C1681 1.434 . S
C1683 C1684 1.369 . S
C1683 C1685 1.419 . S
C1683 H1687 0.930 . S
C1684 C1683 1.369 . S
C1684 C1693 1.429 . S
C1685 C1683 1.419 . S
C1685 C1686 1.363 . S
C1685 H1688 0.929 . S
C1686 C1685 1.363 . S
C1686 C1692 1.428 1_655 S
H1687 C1683 0.930 . S
H1688 C1685 0.929 . S
S1689 N1690 1.613 1_455 S
S1689 N1691 1.610 . S
N1690 S1689 1.613 1_655 S
N1690 C1693 1.350 . S
N1691 S1689 1.610 . S
N1691 C1692 1.351 . S
C1692 C1686 1.428 1_455 S
C1692 N1691 1.351 . S
C1692 C1693 1.434 1_455 S
C1693 C1684 1.429 . S
C1693 N1690 1.350 . S
C1693 C1692 1.434 1_655 S
C1694 C1695 1.369 . S
C1694 C1696 1.419 . S
C1694 H1698 0.930 . S
C1695 C1694 1.369 . S
C1695 C1704 1.429 . S
C1696 C1694 1.419 . S
C1696 C1697 1.363 . S
C1696 H1699 0.929 . S
C1697 C1696 1.363 . S
C1697 C1703 1.428 . S
H1698 C1694 0.930 . S
H1699 C1696 0.929 . S
S1700 N1701 1.613 . S
S1700 N1702 1.610 . S
N1701 S1700 1.613 . S
N1701 C1704 1.350 . S
N1702 S1700 1.610 . S
N1702 C1703 1.351 . S
C1703 C1697 1.428 . S
C1703 N1702 1.351 . S
C1703 C1704 1.434 . S
C1704 C1695 1.429 . S
C1704 N1701 1.350 . S
C1704 C1703 1.434 . S
C1705 C1706 1.369 . S
C1705 C1707 1.419 . S
C1705 H1709 0.930 . S
C1706 C1705 1.369 . S
C1706 C1715 1.429 1_655 S
C1707 C1705 1.419 . S
C1707 C1708 1.363 . S
C1707 H1710 0.929 . S
C1708 C1707 1.363 . S
C1708 C1714 1.428 . S
H1709 C1705 0.930 . S
H1710 C1707 0.929 . S
S1711 N1712 1.613 . S
S1711 N1713 1.610 1_455 S
N1712 S1711 1.613 . S
N1712 C1715 1.350 . S
N1713 S1711 1.610 1_655 S
N1713 C1714 1.351 . S
C1714 C1708 1.428 . S
C1714 N1713 1.351 . S
C1714 C1715 1.434 1_655 S
C1715 C1706 1.429 1_455 S
C1715 N1712 1.350 . S
C1715 C1714 1.434 1_455 S
C1716 C1717 1.369 . S
C1716 C1718 1.419 . S
C1716 H1720 0.930 . S
C1717 C1716 1.369 . S
C1717 C1726 1.429 . S
C1718 C1716 1.419 . S
C1718 C1719 1.363 . S
C1718 H1721 0.929 . S
C1719 C1718 1.363 . S
C1719 C1725 1.428 . S
H1720 C1716 0.930 . S
H1721 C1718 0.929 . S
S1722 N1723 1.613 . S
S1722 N1724 1.610 . S
N1723 S1722 1.613 . S
N1723 C1726 1.350 . S
N1724 S1722 1.610 . S
N1724 C1725 1.351 . S
C1725 C1719 1.428 . S
C1725 N1724 1.351 . S
C1725 C1726 1.434 . S
C1726 C1717 1.429 . S
C1726 N1723 1.350 . S
C1726 C1725 1.434 . S
C1727 C1728 1.369 . S
C1727 C1729 1.419 . S
C1727 H1731 0.930 . S
C1728 C1727 1.369 . S
C1728 C1737 1.429 . S
C1729 C1727 1.419 . S
C1729 C1730 1.363 . S
C1729 H1732 0.929 1_455 S
C1730 C1729 1.363 . S
C1730 C1736 1.428 . S
H1731 C1727 0.930 . S
H1732 C1729 0.929 1_655 S
S1733 N1734 1.613 . S
S1733 N1735 1.610 . S
N1734 S1733 1.613 . S
N1734 C1737 1.350 . S
N1735 S1733 1.610 . S
N1735 C1736 1.351 . S
C1736 C1730 1.428 . S
C1736 N1735 1.351 . S
C1736 C1737 1.434 . S
C1737 C1728 1.429 . S
C1737 N1734 1.350 . S
C1737 C1736 1.434 . S
C1738 C1739 1.369 . S
C1738 C1740 1.419 . S
C1738 H1742 0.930 . S
C1739 C1738 1.369 . S
C1739 C1748 1.429 . S
C1740 C1738 1.419 . S
C1740 C1741 1.363 . S
C1740 H1743 0.929 . S
C1741 C1740 1.363 . S
C1741 C1747 1.428 . S
H1742 C1738 0.930 . S
H1743 C1740 0.929 . S
S1744 N1745 1.613 . S
S1744 N1746 1.610 . S
N1745 S1744 1.613 . S
N1745 C1748 1.350 . S
N1746 S1744 1.610 . S
N1746 C1747 1.351 . S
C1747 C1741 1.428 . S
C1747 N1746 1.351 . S
C1747 C1748 1.434 . S
C1748 C1739 1.429 . S
C1748 N1745 1.350 . S
C1748 C1747 1.434 . S
C1749 C1750 1.369 1_655 S
C1749 C1751 1.419 1_655 S
C1749 H1753 0.930 . S
C1750 C1749 1.369 1_455 S
C1750 C1759 1.429 . S
C1751 C1749 1.419 1_455 S
C1751 C1752 1.363 . S
C1751 H1754 0.929 . S
C1752 C1751 1.363 . S
C1752 C1758 1.428 . S
H1753 C1749 0.930 . S
H1754 C1751 0.929 . S
S1755 N1756 1.613 . S
S1755 N1757 1.610 . S
N1756 S1755 1.613 . S
N1756 C1759 1.350 . S
N1757 S1755 1.610 . S
N1757 C1758 1.351 . S
C1758 C1752 1.428 . S
C1758 N1757 1.351 . S
C1758 C1759 1.434 . S
C1759 C1750 1.429 . S
C1759 N1756 1.350 . S
C1759 C1758 1.434 . S
C1760 C1761 1.369 . S
C1760 C1762 1.419 . S
C1760 H1764 0.930 . S
C1761 C1760 1.369 . S
C1761 C1770 1.429 . S
C1762 C1760 1.419 . S
C1762 C1763 1.363 . S
C1762 H1765 0.929 . S
C1763 C1762 1.363 . S
C1763 C1769 1.428 . S
H1764 C1760 0.930 . S
H1765 C1762 0.929 . S
S1766 N1767 1.613 . S
S1766 N1768 1.610 . S
N1767 S1766 1.613 . S
N1767 C1770 1.350 . S
N1768 S1766 1.610 . S
N1768 C1769 1.351 . S
C1769 C1763 1.428 . S
C1769 N1768 1.351 . S
C1769 C1770 1.434 . S
C1770 C1761 1.429 . S
C1770 N1767 1.350 . S
C1770 C1769 1.434 . S
C1771 C1772 1.369 . S
C1771 C1773 1.419 . S
C1771 H1775 0.930 . S
C1772 C1771 1.369 . S
C1772 C1781 1.429 . S
C1773 C1771 1.419 . S
C1773 C1774 1.363 . S
C1773 H1776 0.929 . S
C1774 C1773 1.363 . S
C1774 C1780 1.428 . S
H1775 C1771 0.930 . S
H1776 C1773 0.929 . S
S1777 N1778 1.613 . S
S1777 N1779 1.610 . S
N1778 S1777 1.613 . S
N1778 C1781 1.350 . S
N1779 S1777 1.610 . S
N1779 C1780 1.351 . S
C1780 C1774 1.428 . S
C1780 N1779 1.351 . S
C1780 C1781 1.434 . S
C1781 C1772 1.429 . S
C1781 N1778 1.350 . S
C1781 C1780 1.434 . S
C1782 C1783 1.369 . S
C1782 C1784 1.419 . S
C1782 H1786 0.930 . S
C1783 C1782 1.369 . S
C1783 C1792 1.429 . S
C1784 C1782 1.419 . S
C1784 C1785 1.363 . S
C1784 H1787 0.929 . S
C1785 C1784 1.363 . S
C1785 C1791 1.428 . S
H1786 C1782 0.930 . S
H1787 C1784 0.929 . S
S1788 N1789 1.613 . S
S1788 N1790 1.610 . S
N1789 S1788 1.613 . S
N1789 C1792 1.350 . S
N1790 S1788 1.610 . S
N1790 C1791 1.351 . S
C1791 C1785 1.428 . S
C1791 N1790 1.351 . S
C1791 C1792 1.434 . S
C1792 C1783 1.429 . S
C1792 N1789 1.350 . S
C1792 C1791 1.434 . S
C1793 C1794 1.369 . S
C1793 C1795 1.419 . S
C1793 H1797 0.930 . S
C1794 C1793 1.369 . S
C1794 C1803 1.429 . S
C1795 C1793 1.419 . S
C1795 C1796 1.363 . S
C1795 H1798 0.929 1_545 S
C1796 C1795 1.363 . S
C1796 C1802 1.428 . S
H1797 C1793 0.930 . S
H1798 C1795 0.929 1_565 S
S1799 N1800 1.613 . S
S1799 N1801 1.610 . S
N1800 S1799 1.613 . S
N1800 C1803 1.350 . S
N1801 S1799 1.610 . S
N1801 C1802 1.351 . S
C1802 C1796 1.428 . S
C1802 N1801 1.351 . S
C1802 C1803 1.434 . S
C1803 C1794 1.429 . S
C1803 N1800 1.350 . S
C1803 C1802 1.434 . S
C1804 C1805 1.369 . S
C1804 C1806 1.419 . S
C1804 H1808 0.930 . S
C1805 C1804 1.369 . S
C1805 C1814 1.429 . S
C1806 C1804 1.419 . S
C1806 C1807 1.363 . S
C1806 H1809 0.929 . S
C1807 C1806 1.363 . S
C1807 C1813 1.428 . S
H1808 C1804 0.930 . S
H1809 C1806 0.929 . S
S1810 N1811 1.613 . S
S1810 N1812 1.610 . S
N1811 S1810 1.613 . S
N1811 C1814 1.350 . S
N1812 S1810 1.610 . S
N1812 C1813 1.351 . S
C1813 C1807 1.428 . S
C1813 N1812 1.351 . S
C1813 C1814 1.434 . S
C1814 C1805 1.429 . S
C1814 N1811 1.350 . S
C1814 C1813 1.434 . S
C1815 C1816 1.369 . S
C1815 C1817 1.419 . S
C1815 H1819 0.930 . S
C1816 C1815 1.369 . S
C1816 C1825 1.429 . S
C1817 C1815 1.419 . S
C1817 C1818 1.363 . S
C1817 H1820 0.929 . S
C1818 C1817 1.363 . S
C1818 C1824 1.428 . S
H1819 C1815 0.930 . S
H1820 C1817 0.929 . S
S1821 N1822 1.613 . S
S1821 N1823 1.610 . S
N1822 S1821 1.613 . S
N1822 C1825 1.350 . S
N1823 S1821 1.610 . S
N1823 C1824 1.351 . S
C1824 C1818 1.428 . S
C1824 N1823 1.351 . S
C1824 C1825 1.434 . S
C1825 C1816 1.429 . S
C1825 N1822 1.350 . S
C1825 C1824 1.434 . S
C1826 C1827 1.369 . S
C1826 C1828 1.419 . S
C1826 H1830 0.930 . S
C1827 C1826 1.369 . S
C1827 C1836 1.429 . S
C1828 C1826 1.419 . S
C1828 C1829 1.363 . S
C1828 H1831 0.929 . S
C1829 C1828 1.363 . S
C1829 C1835 1.428 . S
H1830 C1826 0.930 . S
H1831 C1828 0.929 . S
S1832 N1833 1.613 . S
S1832 N1834 1.610 . S
N1833 S1832 1.613 . S
N1833 C1836 1.350 . S
N1834 S1832 1.610 . S
N1834 C1835 1.351 . S
C1835 C1829 1.428 . S
C1835 N1834 1.351 . S
C1835 C1836 1.434 . S
C1836 C1827 1.429 . S
C1836 N1833 1.350 . S
C1836 C1835 1.434 . S
C1837 C1838 1.369 . S
C1837 C1839 1.419 . S
C1837 H1841 0.930 . S
C1838 C1837 1.369 . S
C1838 C1847 1.429 . S
C1839 C1837 1.419 . S
C1839 C1840 1.363 . S
C1839 H1842 0.929 . S
C1840 C1839 1.363 . S
C1840 C1846 1.428 . S
H1841 C1837 0.930 . S
H1842 C1839 0.929 . S
S1843 N1844 1.613 . S
S1843 N1845 1.610 . S
N1844 S1843 1.613 . S
N1844 C1847 1.350 . S
N1845 S1843 1.610 . S
N1845 C1846 1.351 . S
C1846 C1840 1.428 . S
C1846 N1845 1.351 . S
C1846 C1847 1.434 . S
C1847 C1838 1.429 . S
C1847 N1844 1.350 . S
C1847 C1846 1.434 . S
C1848 C1849 1.369 1_556 S
C1848 C1850 1.419 . S
C1848 H1852 0.930 . S
C1849 C1848 1.369 1_554 S
C1849 C1858 1.429 . S
C1850 C1848 1.419 . S
C1850 C1851 1.363 . S
C1850 H1853 0.929 . S
C1851 C1850 1.363 . S
C1851 C1857 1.428 1_556 S
H1852 C1848 0.930 . S
H1853 C1850 0.929 . S
S1854 N1855 1.613 . S
S1854 N1856 1.610 . S
N1855 S1854 1.613 . S
N1855 C1858 1.350 . S
N1856 S1854 1.610 . S
N1856 C1857 1.351 . S
C1857 C1851 1.428 1_554 S
C1857 N1856 1.351 . S
C1857 C1858 1.434 . S
C1858 C1849 1.429 . S
C1858 N1855 1.350 . S
C1858 C1857 1.434 . S
C1859 C1860 1.369 1_556 S
C1859 C1861 1.419 . S
C1859 H1863 0.930 . S
C1860 C1859 1.369 1_554 S
C1860 C1869 1.429 . S
C1861 C1859 1.419 . S
C1861 C1862 1.363 . S
C1861 H1864 0.929 . S
C1862 C1861 1.363 . S
C1862 C1868 1.428 1_556 S
H1863 C1859 0.930 . S
H1864 C1861 0.929 . S
S1865 N1866 1.613 . S
S1865 N1867 1.610 . S
N1866 S1865 1.613 . S
N1866 C1869 1.350 . S
N1867 S1865 1.610 . S
N1867 C1868 1.351 . S
C1868 C1862 1.428 1_554 S
C1868 N1867 1.351 . S
C1868 C1869 1.434 . S
C1869 C1860 1.429 . S
C1869 N1866 1.350 . S
C1869 C1868 1.434 . S
C1870 C1871 1.369 . S
C1870 C1872 1.419 . S
C1870 H1874 0.930 . S
C1871 C1870 1.369 . S
C1871 C1880 1.429 . S
C1872 C1870 1.419 . S
C1872 C1873 1.363 . S
C1872 H1875 0.929 . S
C1873 C1872 1.363 . S
C1873 C1879 1.428 . S
H1874 C1870 0.930 . S
H1875 C1872 0.929 . S
S1876 N1877 1.613 . S
S1876 N1878 1.610 . S
N1877 S1876 1.613 . S
N1877 C1880 1.350 . S
N1878 S1876 1.610 . S
N1878 C1879 1.351 . S
C1879 C1873 1.428 . S
C1879 N1878 1.351 . S
C1879 C1880 1.434 . S
C1880 C1871 1.429 . S
C1880 N1877 1.350 . S
C1880 C1879 1.434 . S
C1881 C1882 1.369 . S
C1881 C1883 1.419 . S
C1881 H1885 0.930 . S
C1882 C1881 1.369 . S
C1882 C1891 1.429 . S
C1883 C1881 1.419 . S
C1883 C1884 1.363 . S
C1883 H1886 0.929 . S
C1884 C1883 1.363 . S
C1884 C1890 1.428 . S
H1885 C1881 0.930 . S
H1886 C1883 0.929 . S
S1887 N1888 1.613 . S
S1887 N1889 1.610 . S
N1888 S1887 1.613 . S
N1888 C1891 1.350 . S
N1889 S1887 1.610 . S
N1889 C1890 1.351 . S
C1890 C1884 1.428 . S
C1890 N1889 1.351 . S
C1890 C1891 1.434 . S
C1891 C1882 1.429 . S
C1891 N1888 1.350 . S
C1891 C1890 1.434 . S
C1892 C1893 1.369 . S
C1892 C1894 1.419 1_556 S
C1892 H1896 0.930 . S
C1893 C1892 1.369 . S
C1893 C1902 1.429 . S
C1894 C1892 1.419 1_554 S
C1894 C1895 1.363 . S
C1894 H1897 0.929 . S
C1895 C1894 1.363 . S
C1895 C1901 1.428 . S
H1896 C1892 0.930 . S
H1897 C1894 0.929 . S
S1898 N1899 1.597 1_554 S
S1898 N1900 1.628 . S
N1899 S1898 1.597 1_556 S
N1899 C1902 1.350 . S
N1900 S1898 1.628 . S
N1900 C1901 1.351 . S
C1901 C1895 1.428 . S
C1901 N1900 1.351 . S
C1901 C1902 1.434 1_554 S
C1902 C1893 1.429 . S
C1902 N1899 1.350 . S
C1902 C1901 1.434 1_556 S
C1903 C1904 1.369 . S
C1903 C1905 1.395 1_554 S
C1903 H1907 0.930 . S
C1904 C1903 1.369 . S
C1904 C1913 1.429 . S
C1905 C1903 1.395 1_556 S
C1905 C1906 1.388 . S
C1905 H1908 0.933 . S
C1906 C1905 1.388 . S
C1906 C1912 1.428 . S
H1907 C1903 0.930 . S
H1908 C1905 0.933 . S
S1909 N1910 1.613 1_556 S
S1909 N1911 1.610 . S
N1910 S1909 1.613 1_554 S
N1910 C1913 1.350 . S
N1911 S1909 1.610 . S
N1911 C1912 1.351 . S
C1912 C1906 1.428 . S
C1912 N1911 1.351 . S
C1912 C1913 1.434 1_556 S
C1913 C1904 1.429 . S
C1913 N1910 1.350 . S
C1913 C1912 1.434 1_554 S
C1914 C1915 1.369 . S
C1914 C1916 1.419 . S
C1914 H1918 0.930 . S
C1915 C1914 1.369 . S
C1915 C1924 1.429 . S
C1916 C1914 1.419 . S
C1916 C1917 1.363 . S
C1916 H1919 0.929 . S
C1917 C1916 1.363 . S
C1917 C1923 1.428 . S
H1918 C1914 0.930 . S
H1919 C1916 0.929 . S
S1920 N1921 1.613 . S
S1920 N1922 1.610 . S
N1921 S1920 1.613 . S
N1921 C1924 1.350 . S
N1922 S1920 1.610 . S
N1922 C1923 1.351 . S
C1923 C1917 1.428 . S
C1923 N1922 1.351 . S
C1923 C1924 1.434 . S
C1924 C1915 1.429 . S
C1924 N1921 1.350 . S
C1924 C1923 1.434 . S
C1925 C1926 1.369 . S
C1925 C1927 1.419 . S
C1925 H1929 0.930 . S
C1926 C1925 1.369 . S
C1926 C1935 1.429 . S
C1927 C1925 1.419 . S
C1927 C1928 1.363 . S
C1927 H1930 0.929 . S
C1928 C1927 1.363 . S
C1928 C1934 1.428 . S
H1929 C1925 0.930 . S
H1930 C1927 0.929 . S
S1931 N1932 1.613 . S
S1931 N1933 1.610 . S
N1932 S1931 1.613 . S
N1932 C1935 1.350 . S
N1933 S1931 1.610 . S
N1933 C1934 1.351 . S
C1934 C1928 1.428 . S
C1934 N1933 1.351 . S
C1934 C1935 1.434 . S
C1935 C1926 1.429 . S
C1935 N1932 1.350 . S
C1935 C1934 1.434 . S
C1057 C28 1.219 . S
C1059 C160 1.217 . S
C1068 C985 1.223 . S
C1070 C61 1.214 . S
C1079 C490 1.215 . S
C1081 C94 1.219 . S
C1090 C127 1.219 . S
C1092 C787 1.216 . S
C1101 C853 1.218 . S
C1103 C193 1.218 . S
C1112 C226 1.210 . S
C1114 C358 1.223 . S
C1123 C655 1.210 . S
C1125 C259 1.223 . S
C1134 C424 1.222 . S
C1136 C292 1.214 . S
C1145 C325 1.226 . S
C1147 C721 1.212 . S
C1156 C391 1.210 . S
C1158 C1051 1.224 . S
C1167 C457 1.213 . S
C1169 C589 1.221 . S
C1178 C919 1.225 . S
C1180 C523 1.211 . S
C1189 C688 1.210 . S
C1191 C556 1.223 . S
C1200 C1018 1.209 . S
C1202 C622 1.224 . S
C1211 C754 1.210 . S
C1213 C886 1.223 . S
C1222 C952 1.214 . S
C1224 C820 1.220 . S
C1233 C17 1.709 . S
C1235 C83 1.710 . S
C1244 C50 1.709 . S
C1246 C116 1.710 . S
C1255 C215 1.714 . S
C1257 C149 1.708 . S
C1266 C248 1.712 . S
C1268 C182 1.709 . S
C1277 C347 1.708 . S
C1279 C281 1.712 . S
C1288 C314 1.713 . S
C1290 C380 1.711 . S
C1299 C413 1.708 . S
C1301 C479 1.713 . S
C1310 C446 1.708 . S
C1312 C512 1.713 . S
C1321 C611 1.710 . S
C1323 C545 1.713 . S
C1332 C578 1.708 . S
C1334 C644 1.713 . S
C1343 C677 1.710 . S
C1345 C743 1.713 . S
C1354 C710 1.714 . S
C1356 C776 1.708 . S
C1365 C809 1.713 . S
C1367 C875 1.708 . S
C1376 C908 1.714 . S
C1378 C842 1.710 . S
C1387 C941 1.710 . S
C1389 C1007 1.710 . S
C1398 C1040 1.709 . S
C1400 C974 1.713 . S
C1409 N14 0.963 . S
C1411 N47 0.962 . S
C1420 N113 0.950 . S
C1422 N80 0.972 . S
C1431 N179 0.951 . S
C1433 N146 0.971 . S
C1442 N212 0.954 . S
C1444 N245 0.968 . S
C1453 N278 0.959 . S
C1455 N311 0.966 . S
C1464 N344 0.972 . S
C1466 N377 0.955 . S
C1475 N443 0.971 . S
C1477 N410 0.955 . S
C1486 N509 0.968 . S
C1488 N476 0.959 . S
C1497 N575 0.974 . S
C1499 N542 0.954 . S
C1508 N608 0.970 . S
C1510 N641 0.956 . S
C1519 N707 0.953 . S
C1521 N674 0.970 . S
C1530 N740 0.973 . S
C1532 N773 0.954 . S
C1541 N806 0.975 . S
C1543 N839 0.953 . S
C1552 N905 0.975 . S
C1554 N872 0.953 . S
C1563 N938 0.974 . S
C1565 N971 0.953 . S
C1574 N1004 0.962 . S
C1576 N1037 0.964 . S
C1585 N5 1.989 . S
C1587 C173 1.986 1_545 S
C1596 C932 1.989 1_655 S
C1598 N38 1.990 . S
C1607 C503 1.988 . S
C1609 N71 1.989 . S
C1618 N104 1.985 . S
C1620 C734 1.984 1_645 S
C1629 C41 1.989 1_565 S
C1631 N137 1.990 . S
C1640 N170 1.985 . S
C1642 C800 1.984 1_455 S
C1651 N203 1.985 . S
C1653 C371 1.984 . S
C1662 C602 1.989 1_465 S
C1664 N236 1.990 . S
C1673 N269 1.990 . S
C1675 C437 1.988 . S
C1684 N302 1.991 . S
C1686 C668 1.988 1_655 S
C1695 N335 1.988 . S
C1697 C239 1.987 . S
C1706 C998 1.989 1_655 S
C1708 N368 1.990 . S
C1717 N401 1.986 . S
C1719 C305 1.984 . S
C1728 N434 1.988 . S
C1730 C536 1.985 1_455 S
C1739 N467 1.989 . S
C1741 C107 1.986 . S
C1750 C866 1.983 1_455 S
C1752 N500 1.985 . S
C1761 C701 1.989 1_545 S
C1763 N533 1.990 . S
C1772 N566 1.989 . S
C1774 C404 1.987 . S
C1783 N599 1.985 . S
C1785 C1031 1.984 . S
C1794 N632 1.990 . S
C1796 C206 1.988 1_545 S
C1805 N665 1.985 . S
C1807 C569 1.983 1_565 S
C1816 N698 1.985 . S
C1818 C272 1.984 . S
C1827 C899 1.989 . S
C1829 N731 1.990 . S
C1838 C74 1.989 1_565 S
C1840 N764 1.990 . S
C1849 N797 1.989 . S
C1851 C965 1.986 . S
C1860 N830 1.990 . S
C1862 C140 1.987 . S
C1871 N863 1.989 . S
C1873 C767 1.987 . S
C1882 C470 1.989 . S
C1884 N896 1.990 . S
C1893 N929 1.986 . S
C1895 C833 1.984 . S
C1904 C8 1.983 . S
C1906 N962 1.986 . S
C1915 C635 1.985 . S
C1917 N995 1.986 . S
C1926 C338 1.989 . S
C1928 N1028 1.990 . S
