# Generated by pormake.
# Topology sof, (5)-cn, num edge types: 1
# Building blocks:
#     Node 0, Type 0, BuildingBlock: XOMCOT_clean_sbu_0, # of connection points: 5
#     Node 1, Type 0, BuildingBlock: XOMCOT_clean_sbu_0, # of connection points: 5
#     Node 2, Type 0, BuildingBlock: XOMCOT_clean_sbu_0, # of connection points: 5
#     Node 3, Type 0, BuildingBlock: XOMCOT_clean_sbu_0, # of connection points: 5
#     Node 4, Type 0, BuildingBlock: XOMCOT_clean_sbu_0, # of connection points: 5
#     Node 5, Type 0, BuildingBlock: XOMCOT_clean_sbu_0, # of connection points: 5
#     Node 6, Type 0, BuildingBlock: XOMCOT_clean_sbu_0, # of connection points: 5
#     Node 7, Type 0, BuildingBlock: XOMCOT_clean_sbu_0, # of connection points: 5
#     Edge 8, Type (0, 0), BuildingBlock: EZIPEK_clean_linker_0, # of connection points: 2
#     Edge 9, Type (0, 0), BuildingBlock: EZIPEK_clean_linker_0, # of connection points: 2
#     Edge 10, Type (0, 0), BuildingBlock: EZIPEK_clean_linker_0, # of connection points: 2
#     Edge 11, Type (0, 0), BuildingBlock: EZIPEK_clean_linker_0, # of connection points: 2
#     Edge 12, Type (0, 0), BuildingBlock: EZIPEK_clean_linker_0, # of connection points: 2
#     Edge 13, Type (0, 0), BuildingBlock: EZIPEK_clean_linker_0, # of connection points: 2
#     Edge 14, Type (0, 0), BuildingBlock: EZIPEK_clean_linker_0, # of connection points: 2
#     Edge 15, Type (0, 0), BuildingBlock: EZIPEK_clean_linker_0, # of connection points: 2
#     Edge 16, Type (0, 0), BuildingBlock: EZIPEK_clean_linker_0, # of connection points: 2
#     Edge 17, Type (0, 0), BuildingBlock: EZIPEK_clean_linker_0, # of connection points: 2
#     Edge 18, Type (0, 0), BuildingBlock: EZIPEK_clean_linker_0, # of connection points: 2
#     Edge 19, Type (0, 0), BuildingBlock: EZIPEK_clean_linker_0, # of connection points: 2
#     Edge 20, Type (0, 0), BuildingBlock: EZIPEK_clean_linker_0, # of connection points: 2
#     Edge 21, Type (0, 0), BuildingBlock: EZIPEK_clean_linker_0, # of connection points: 2
#     Edge 22, Type (0, 0), BuildingBlock: EZIPEK_clean_linker_0, # of connection points: 2
#     Edge 23, Type (0, 0), BuildingBlock: EZIPEK_clean_linker_0, # of connection points: 2
#     Edge 24, Type (0, 0), BuildingBlock: EZIPEK_clean_linker_0, # of connection points: 2
#     Edge 25, Type (0, 0), BuildingBlock: EZIPEK_clean_linker_0, # of connection points: 2
#     Edge 26, Type (0, 0), BuildingBlock: EZIPEK_clean_linker_0, # of connection points: 2
#     Edge 27, Type (0, 0), BuildingBlock: EZIPEK_clean_linker_0, # of connection points: 2
# Relax obj value: 0.130
# Max RMSD: 0.155
# Mean RMSD: 0.155
data_MOF--net-sof--node1-XOMCOT_clean_sbu_0--edge1-EZIPEK_clean_linker_0
_symmetry_space_group_name_H-M    P1
_symmetry_Int_Tables_number       1
_symmetry_cell_setting            triclinic
loop_
_symmetry_equiv_pos_as_xyz
'x, y, z'
_cell_length_a     44.887037
_cell_length_b     13.513745
_cell_length_c     34.812564
_cell_angle_alpha  89.874022
_cell_angle_beta   89.981847
_cell_angle_gamma 90.27011
loop_
_atom_site_label
_atom_site_type_symbol
_atom_site_fract_x
_atom_site_fract_y
_atom_site_fract_z
_atom_type_partial_charge
Co0 Co 0.08182 0.10909 0.10192 0.0
C1 C 0.08601 0.89139 0.10609 0.0
C2 C 0.0578 0.94908 0.1505 0.0
C3 C 0.05651 0.84704 0.15183 0.0
N4 N 0.07618 0.9765 0.12173 0.0
N5 N 0.07405 0.81153 0.12367 0.0
H6 H 0.10039 0.88793 0.08117 0.0
H7 H 0.04507 0.99966 0.16799 0.0
C8 C 0.0994 0.22615 0.17097 0.0
O9 O 0.12176 0.2598 0.15023 0.0
N10 N 0.08624 0.2439 0.08142 0.0
C11 C 0.09576 0.27221 0.04612 0.0
C12 C 0.09475 0.37398 0.04328 0.0
C13 C 0.07757 0.32942 0.09823 0.0
N14 N 0.08357 0.40916 0.07628 0.0
C15 C 0.14137 0.09487 0.07107 0.0
C16 C 0.16834 0.03854 0.13904 0.0
C17 C 0.18582 0.05233 0.10623 0.0
C18 C 0.17208 0.0792 0.07178 0.0
C19 C 0.1377 0.05507 0.13702 0.0
N20 N 0.12477 0.08825 0.10383 0.0
H21 H 0.13097 0.10898 0.04387 0.0
H22 H 0.12431 0.04102 0.16225 0.0
H23 H 0.10201 0.22323 0.02313 0.0
H24 H 0.06696 0.33453 0.12589 0.0
O25 O 0.07415 0.0609 0.05056 0.0
O26 O 0.03964 0.1151 0.09083 0.0
O27 O 0.08144 0.16228 0.15658 0.0
C28 C 0.04612 0.07704 0.05748 0.0
H29 H 0.04272 0.80239 0.17066 0.0
H30 H 0.10162 0.4187 0.01898 0.0
H31 H 0.17828 1.01472 0.16585 0.0
H32 H 0.18493 0.08657 0.04558 0.0
Co33 Co 0.41715 0.93313 0.0995 0.0
C34 C 0.41338 0.15084 0.10353 0.0
C35 C 0.44179 0.09241 0.14767 0.0
C36 C 0.44315 0.19444 0.14899 0.0
N37 N 0.42322 0.06548 0.11909 0.0
N38 N 0.42546 0.23039 0.12102 0.0
H39 H 0.39884 0.15469 0.07878 0.0
H40 H 0.45453 0.04151 0.16509 0.0
C41 C 0.39926 0.81646 0.16874 0.0
O42 O 0.37682 0.78385 0.14796 0.0
N43 N 0.41233 0.79853 0.07921 0.0
C44 C 0.40285 0.77053 0.04392 0.0
C45 C 0.40387 0.66879 0.04111 0.0
C46 C 0.42098 0.71289 0.09607 0.0
N47 N 0.41503 0.63334 0.07414 0.0
C48 C 0.35734 0.94777 0.06937 0.0
C49 C 0.33112 1.0069 0.1374 0.0
C50 C 0.3133 0.99222 0.10501 0.0
C51 C 0.32666 0.96397 0.07051 0.0
C52 C 0.3617 0.98968 0.13498 0.0
N53 N 0.37426 0.95518 0.1018 0.0
H54 H 0.36744 0.93244 0.04211 0.0
H55 H 0.37535 1.00403 0.15992 0.0
H56 H 0.39671 0.81974 0.02086 0.0
H57 H 0.43164 0.7076 0.1237 0.0
O58 O 0.42466 0.98139 0.04801 0.0
O59 O 0.45926 0.92602 0.08796 0.0
O60 O 0.41753 0.87953 0.15428 0.0
C61 C 0.45268 0.96434 0.05462 0.0
H62 H 0.45702 0.23879 0.16774 0.0
H63 H 0.39712 0.62429 0.01678 0.0
H64 H 0.32149 0.03169 0.16423 0.0
H65 H 0.31352 0.95582 0.0446 0.0
Co66 Co 0.07812 0.47392 0.39638 0.0
C67 C 0.08143 0.69612 0.39117 0.0
C68 C 0.05423 0.63207 0.34728 0.0
C69 C 0.05231 0.73358 0.34439 0.0
N70 N 0.07304 0.60793 0.37612 0.0
N71 N 0.06934 0.77302 0.37219 0.0
H72 H 0.09412 0.70589 0.41706 0.0
H73 H 0.04156 0.57941 0.33059 0.0
C74 C 0.09151 0.45059 0.31228 0.0
O75 O 0.1057 0.53582 0.31296 0.0
N76 N 0.08186 0.3407 0.41598 0.0
C77 C 0.09709 0.311 0.4473 0.0
C78 C 0.09691 0.20884 0.44847 0.0
C79 C 0.07234 0.25696 0.39877 0.0
N80 N 0.08138 0.17578 0.41793 0.0
C81 C 0.1349 0.55348 0.41991 0.0
C82 C 0.16948 0.42261 0.37886 0.0
C83 C 0.18341 0.50004 0.39868 0.0
C84 C 0.16577 0.56532 0.41984 0.0
C85 C 0.13842 0.41649 0.37833 0.0
N86 N 0.12141 0.48518 0.39685 0.0
H87 H 0.12207 0.59686 0.43966 0.0
H88 H 0.12811 0.35543 0.36337 0.0
H89 H 0.1085 0.36003 0.46698 0.0
H90 H 0.06002 0.25498 0.37207 0.0
O91 O 0.06996 0.5209 0.44768 0.0
O92 O 0.03571 0.46934 0.40627 0.0
O93 O 0.0786 0.41774 0.34249 0.0
C94 C 0.042 0.50465 0.44016 0.0
H95 H 0.03836 0.77512 0.32484 0.0
H96 H 0.10806 0.16235 0.46928 0.0
H97 H 0.18251 0.36821 0.36349 0.0
H98 H 0.17585 0.6231 0.43709 0.0
Co99 Co 0.41751 0.5627 0.39434 0.0
C100 C 0.41345 0.34081 0.38879 0.0
C101 C 0.44068 0.40472 0.34478 0.0
C102 C 0.44246 0.30319 0.34196 0.0
N103 N 0.42196 0.429 0.37368 0.0
N104 N 0.42543 0.2638 0.36986 0.0
H105 H 0.4008 0.3311 0.41474 0.0
H106 H 0.4535 0.45722 0.32811 0.0
C107 C 0.40474 0.59001 0.31014 0.0
O108 O 0.38994 0.5059 0.31038 0.0
N109 N 0.41435 0.69556 0.41438 0.0
C110 C 0.39931 0.72466 0.44591 0.0
C111 C 0.39943 0.8268 0.44717 0.0
C112 C 0.42369 0.77974 0.39713 0.0
N113 N 0.41472 0.86054 0.41648 0.0
C114 C 0.36032 0.4858 0.41739 0.0
C115 C 0.32646 0.62064 0.37708 0.0
C116 C 0.3121 0.54391 0.39694 0.0
C117 C 0.32939 0.47651 0.41766 0.0
C118 C 0.35756 0.62427 0.37622 0.0
N119 N 0.37418 0.55391 0.39449 0.0
H120 H 0.37291 0.44074 0.43689 0.0
H121 H 0.36824 0.68492 0.36132 0.0
H122 H 0.38796 0.67525 0.46559 0.0
H123 H 0.43572 0.78236 0.37021 0.0
O124 O 0.42516 0.51342 0.44556 0.0
O125 O 0.45989 0.56429 0.40462 0.0
O126 O 0.41766 0.62078 0.34061 0.0
C127 C 0.45324 0.52796 0.4383 0.0
H128 H 0.45641 0.2616 0.3225 0.0
H129 H 0.38832 0.87282 0.46811 0.0
H130 H 0.31374 0.67656 0.36203 0.0
H131 H 0.319 0.41911 0.43491 0.0
Co132 Co 0.91848 0.95896 0.90009 0.0
C133 C 0.91407 0.17639 0.89631 0.0
C134 C 0.94323 0.11984 0.85269 0.0
C135 C 0.94433 0.22186 0.85155 0.0
N136 N 0.92434 0.09177 0.88082 0.0
N137 N 0.92617 0.2566 0.87917 0.0
H138 H 0.89922 0.17928 0.92078 0.0
H139 H 0.9564 0.06976 0.83552 0.0
C140 C 0.90351 0.84768 0.82789 0.0
O141 O 0.87955 0.81393 0.84535 0.0
N142 N 0.91369 0.82392 0.92024 0.0
C143 C 0.90589 0.79675 0.95639 0.0
C144 C 0.90643 0.69505 0.95949 0.0
C145 C 0.92061 0.73748 0.90287 0.0
N146 N 0.9155 0.65869 0.92564 0.0
C147 C 0.85793 0.9627 0.92775 0.0
C148 C 0.8325 0.02563 0.85966 0.0
C149 C 0.81411 1.00316 0.89095 0.0
C150 C 0.82709 0.9733 0.92553 0.0
C151 C 0.8633 1.01416 0.86321 0.0
N152 N 0.87553 0.97758 0.89628 0.0
H153 H 0.86754 0.94457 0.95507 0.0
H154 H 0.87739 0.0337 0.83918 0.0
H155 H 0.90116 0.84674 0.97972 0.0
H156 H 0.9298 0.73061 0.87453 0.0
O157 O 0.92459 1.00704 0.95188 0.0
O158 O 0.96028 0.95415 0.91308 0.0
O159 O 0.92105 0.90759 0.84529 0.0
C160 C 0.95284 0.99174 0.94615 0.0
H161 H 0.95839 0.26704 0.83324 0.0
H162 H 0.90097 0.65126 0.98462 0.0
H163 H 0.82312 0.05161 0.83283 0.0
H164 H 0.81346 0.95882 0.95063 0.0
Co165 Co 0.58119 0.07807 0.89729 0.0
C166 C 0.5853 0.86042 0.89334 0.0
C167 C 0.55711 0.91862 0.84893 0.0
C168 C 0.55579 0.81664 0.84762 0.0
N169 N 0.57552 0.94567 0.87767 0.0
N170 N 0.57333 0.78082 0.87575 0.0
H171 H 0.59968 0.85665 0.91826 0.0
H172 H 0.5444 0.96941 0.83143 0.0
C173 C 0.5984 0.19444 0.8276 0.0
O174 O 0.62071 0.22912 0.8481 0.0
N175 N 0.58558 0.2128 0.9176 0.0
C176 C 0.59466 0.24069 0.95308 0.0
C177 C 0.5936 0.34238 0.95593 0.0
C178 C 0.57708 0.29846 0.90064 0.0
N179 N 0.58279 0.3779 0.92273 0.0
C180 C 0.64124 0.06852 0.92701 0.0
C181 C 0.66773 1.0126 0.85874 0.0
C182 C 0.68563 0.03158 0.89074 0.0
C183 C 0.67213 0.05762 0.92542 0.0
C184 C 0.63691 0.02451 0.86162 0.0
N185 N 0.62418 0.05814 0.89481 0.0
H186 H 0.63116 0.08303 0.95435 0.0
H187 H 0.62327 1.00795 0.83687 0.0
H188 H 0.6006 0.19138 0.97621 0.0
H189 H 0.5667 0.30388 0.87283 0.0
O190 O 0.57396 0.02954 0.94882 0.0
O191 O 0.53909 0.08356 0.90896 0.0
O192 O 0.58043 0.13116 0.84249 0.0
C193 C 0.54587 0.04568 0.94231 0.0
H194 H 0.54199 0.77221 0.8288 0.0
H195 H 0.60012 0.3868 0.98039 0.0
H196 H 0.6775 0.98935 0.83179 0.0
H197 H 0.68537 0.0689 0.95108 0.0
Co198 Co 0.91521 0.59228 0.60128 0.0
C199 C 0.91084 0.37468 0.60809 0.0
C200 C 0.94803 0.43207 0.63978 0.0
C201 C 0.949 0.33032 0.64122 0.0
N202 N 0.92358 0.46001 0.62006 0.0
N203 N 0.92588 0.29467 0.62074 0.0
H204 H 0.89216 0.37114 0.58847 0.0
H205 H 0.96469 0.48235 0.65099 0.0
C206 C 0.91646 0.62101 0.68957 0.0
O207 O 0.91877 0.52673 0.69789 0.0
N208 N 0.90782 0.7257 0.58178 0.0
C209 C 0.9032 0.7539 0.54495 0.0
C210 C 0.90246 0.85574 0.54301 0.0
C211 C 0.91034 0.81166 0.6015 0.0
N212 N 0.90696 0.8913 0.57859 0.0
C213 C 0.85631 0.57546 0.57061 0.0
C214 C 0.82896 0.50809 0.63691 0.0
C215 C 0.81191 0.52235 0.60382 0.0
C216 C 0.82581 0.55549 0.57027 0.0
C217 C 0.85942 0.52918 0.63599 0.0
N218 N 0.87262 0.56542 0.60348 0.0
H219 H 0.86686 0.59708 0.54413 0.0
H220 H 0.87229 0.51407 0.66125 0.0
H221 H 0.90195 0.70465 0.52059 0.0
H222 H 0.91597 0.81737 0.63158 0.0
O223 O 0.92273 0.54531 0.5499 0.0
O224 O 0.95702 0.60796 0.58883 0.0
O225 O 0.91493 0.65156 0.65486 0.0
C226 C 0.9505 0.56834 0.55571 0.0
H227 H 0.96642 0.28586 0.65395 0.0
H228 H 0.90028 0.90038 0.51732 0.0
H229 H 0.81884 0.48024 0.66306 0.0
H230 H 0.81322 0.565 0.54398 0.0
Co231 Co 0.58003 0.4228 0.5978 0.0
C232 C 0.58419 0.64445 0.60331 0.0
C233 C 0.55357 0.58107 0.64369 0.0
C234 C 0.55172 0.68252 0.64623 0.0
N235 N 0.57432 0.55665 0.61724 0.0
N236 N 0.57086 0.72158 0.62063 0.0
H237 H 0.59901 0.6536 0.57929 0.0
H238 H 0.53962 0.52853 0.6588 0.0
C239 C 0.59121 0.40519 0.68263 0.0
O240 O 0.60457 0.49183 0.68146 0.0
N241 N 0.58445 0.2897 0.57878 0.0
C242 C 0.59852 0.26133 0.54641 0.0
C243 C 0.59836 0.15929 0.54482 0.0
C244 C 0.57584 0.20532 0.59637 0.0
N245 N 0.58418 0.12506 0.57628 0.0
C246 C 0.63705 0.4986 0.57366 0.0
C247 C 0.671 0.37821 0.62043 0.0
C248 C 0.68504 0.45126 0.59842 0.0
C249 C 0.66794 0.51016 0.57397 0.0
C250 C 0.64001 0.36981 0.61938 0.0
N251 N 0.62326 0.43466 0.59842 0.0
H252 H 0.62438 0.53944 0.55278 0.0
H253 H 0.6296 0.31048 0.63534 0.0
H254 H 0.60881 0.31123 0.52597 0.0
H255 H 0.56427 0.20217 0.62363 0.0
O256 O 0.57275 0.469 0.54611 0.0
O257 O 0.5378 0.41758 0.5866 0.0
O258 O 0.57957 0.36852 0.65223 0.0
C259 C 0.54467 0.45336 0.5529 0.0
H260 H 0.53643 0.72436 0.66385 0.0
H261 H 0.60846 0.11365 0.52291 0.0
H262 H 0.68385 0.32869 0.63839 0.0
H263 H 0.67841 0.56406 0.55518 0.0
C264 C 0.23788 0.11986 0.10889 0.0
C265 C 0.21848 0.03671 0.10759 0.0
C266 C 0.2613 0.9249 0.10956 0.0
C267 C 0.28066 1.00794 0.10692 0.0
N268 N 0.28793 0.18384 0.09941 0.0
N269 N 0.21113 0.86043 0.10197 0.0
C270 C 0.26911 0.10542 0.10541 0.0
C271 C 0.23002 0.93916 0.10675 0.0
N272 N 0.22643 0.21236 0.11442 0.0
N273 N 0.27283 0.83272 0.11574 0.0
H274 H 0.18804 0.86784 0.10027 0.0
H275 H 0.21835 0.7886 0.09679 0.0
H276 H 0.29566 0.81937 0.11766 0.0
H277 H 0.25985 0.77077 0.12208 0.0
H278 H 0.2395 0.27466 0.11978 0.0
H279 H 0.20363 0.2258 0.11684 0.0
H280 H 0.28064 0.25539 0.09371 0.0
H281 H 0.31099 0.1763 0.09724 0.0
C282 C 0.26319 0.52337 0.36213 0.0
C283 C 0.27902 0.5355 0.39713 0.0
C284 C 0.23272 0.51023 0.43299 0.0
C285 C 0.2164 0.51139 0.39808 0.0
N286 N 0.21599 0.54329 0.32969 0.0
N287 N 0.27723 0.56609 0.46549 0.0
C288 C 0.23158 0.52505 0.36265 0.0
C289 C 0.26331 0.53658 0.43252 0.0
N290 N 0.27813 0.50621 0.32861 0.0
N291 N 0.21945 0.4802 0.46639 0.0
H292 H 0.29929 0.59065 0.46607 0.0
H293 H 0.2659 0.57652 0.49129 0.0
H294 H 0.19743 0.45543 0.4677 0.0
H295 H 0.23126 0.46963 0.49184 0.0
H296 H 0.26736 0.48755 0.30309 0.0
H297 H 0.30125 0.50027 0.32709 0.0
H298 H 0.22626 0.5629 0.3039 0.0
H299 H 0.19285 0.54931 0.32901 0.0
C300 C 0.76748 0.10532 0.88956 0.0
C301 C 0.78124 1.01112 0.88795 0.0
C302 C 0.73229 0.92974 0.88863 0.0
C303 C 0.71853 0.02402 0.88818 0.0
N304 N 0.72242 0.20105 0.88071 0.0
N305 N 0.77734 0.83484 0.87849 0.0
C306 C 0.73598 0.11178 0.88637 0.0
C307 C 0.76378 0.92357 0.88522 0.0
N308 N 0.78443 0.18819 0.8956 0.0
N309 N 0.71534 0.84637 0.89372 0.0
H310 H 0.80038 0.82758 0.87587 0.0
H311 H 0.76573 0.77 0.8722 0.0
H312 H 0.69217 0.84784 0.89595 0.0
H313 H 0.7243 0.77657 0.89867 0.0
H314 H 0.77546 0.25747 0.90144 0.0
H315 H 0.8076 0.18661 0.89769 0.0
H316 H 0.73403 0.26635 0.87506 0.0
H317 H 0.69937 0.20863 0.87836 0.0
C318 C 0.73727 0.40121 0.58197 0.0
C319 C 0.71764 0.46673 0.60105 0.0
C320 C 0.75975 0.57037 0.62104 0.0
C321 C 0.7795 0.50153 0.60403 0.0
N322 N 0.78796 0.34289 0.5745 0.0
N323 N 0.70994 0.60277 0.64463 0.0
C324 C 0.76851 0.41428 0.58629 0.0
C325 C 0.72882 0.5482 0.62236 0.0
N326 N 0.72604 0.3286 0.55874 0.0
N327 N 0.77044 0.65845 0.63472 0.0
H328 H 0.68707 0.58904 0.64619 0.0
H329 H 0.71718 0.6562 0.66404 0.0
H330 H 0.79302 0.67707 0.63463 0.0
H331 H 0.7568 0.71631 0.64344 0.0
H332 H 0.73917 0.28555 0.54072 0.0
H333 H 0.70326 0.31625 0.55516 0.0
H334 H 0.78126 0.27319 0.56508 0.0
H335 H 0.81102 0.3501 0.57719 0.0
C336 C 0.02017 0.95952 0.01155 0.0
C337 C 0.02252 0.05509 0.02854 0.0
C338 C 0.97791 0.10852 0.99323 0.0
C339 C 0.9757 1.01315 0.97608 0.0
N340 N 0.98997 0.84143 0.97641 0.0
N341 N 0.00807 0.22669 0.02844 0.0
C342 C 0.99574 0.93719 0.98698 0.0
C343 C 0.00236 0.13094 0.01783 0.0
N344 N 0.04161 0.89007 0.01802 0.0
N345 N 0.95639 0.17773 0.98677 0.0
H346 H 0.02641 0.24748 0.04494 0.0
H347 H 0.99659 0.2875 0.01772 0.0
H348 H 0.9393 0.16882 0.96703 0.0
H349 H 0.95426 0.24225 0.0028 0.0
H350 H 0.04374 0.82566 0.00192 0.0
H351 H 0.05857 0.89851 0.03794 0.0
H352 H 0.00132 0.78054 0.98732 0.0
H353 H 0.9717 0.82079 0.95977 0.0
C354 C 0.49576 0.90834 0.01421 0.0
C355 C 0.47611 0.98522 0.02525 0.0
C356 C 0.50293 0.10179 0.98289 0.0
C357 C 0.52257 0.02489 0.97184 0.0
N358 N 0.54111 0.85914 0.9823 0.0
N359 N 0.45768 0.15121 0.01494 0.0
C360 C 0.52003 0.92953 0.98912 0.0
C361 C 0.47869 0.08066 0.00804 0.0
N362 N 0.48972 0.81287 0.02507 0.0
N363 N 0.50895 0.19724 0.97197 0.0
H364 H 0.44098 0.14357 0.03531 0.0
H365 H 0.45562 0.21579 -0.00118 0.0
H366 H 0.52708 0.21702 0.95488 0.0
H367 H 0.49797 0.25868 0.98293 0.0
H368 H 0.50075 0.75149 0.01414 0.0
H369 H 0.47153 0.79303 0.04206 0.0
H370 H 0.54314 0.79453 -0.00159 0.0
H371 H 0.5579 0.86705 0.96207 0.0
C372 C 0.01549 0.61574 0.48727 0.0
C373 C 0.01846 0.52151 0.46953 0.0
C374 C 0.97637 0.45792 0.50764 0.0
C375 C 0.97356 0.55201 0.52563 0.0
N376 N 0.98556 0.72613 0.52586 0.0
N377 N 0.00619 0.34755 0.46882 0.0
C378 C 0.99204 0.6322 0.51395 0.0
C379 C -0.00017 0.44147 0.48092 0.0
N380 N 0.03544 0.68958 0.47922 0.0
N381 N 0.95636 0.38404 0.51549 0.0
H382 H 0.02369 0.33108 0.45029 0.0
H383 H 0.99612 0.2841 0.47989 0.0
H384 H 0.9409 0.38703 0.53766 0.0
H385 H 0.95408 0.32063 0.4988 0.0
H386 H 0.03745 0.75412 0.4953 0.0
H387 H 0.05133 0.68465 0.45769 0.0
H388 H 0.99554 0.78964 0.51468 0.0
H389 H 0.968 0.74238 0.54427 0.0
C390 C 0.47895 0.41332 0.4852 0.0
C391 C 0.47656 0.50837 0.46774 0.0
C392 C 0.51937 0.56729 0.50548 0.0
C393 C 0.52161 0.47246 0.52313 0.0
N394 N 0.50834 0.2994 0.52327 0.0
N395 N 0.48991 0.68149 0.46771 0.0
C396 C 0.50247 0.39414 0.51155 0.0
C397 C 0.49577 0.58661 0.47927 0.0
N398 N 0.45839 0.3414 0.47727 0.0
N399 N 0.54011 0.63891 0.51308 0.0
H400 H 0.47229 0.70002 0.44966 0.0
H401 H 0.50053 0.74369 0.4789 0.0
H402 H 0.55626 0.63236 0.53425 0.0
H403 H 0.54251 0.70329 0.49687 0.0
H404 H 0.45609 0.2764 0.49311 0.0
H405 H 0.44228 0.34849 0.45613 0.0
H406 H 0.49777 0.23699 0.51218 0.0
H407 H 0.52593 0.28121 0.54142 0.0
C408 C 0.12046 0.35208 0.26353 0.0
C409 C 0.09263 0.38744 0.27725 0.0
C410 C 0.06734 0.30597 0.22297 0.0
C411 C 0.09519 0.26749 0.21037 0.0
N412 N 0.14577 0.22631 0.2268 0.0
N413 N 0.03885 0.38128 0.27422 0.0
C414 C 0.12095 0.28219 0.23321 0.0
C415 C 0.06585 0.35829 0.25848 0.0
N416 N 0.14664 0.38565 0.27882 0.0
N417 N 0.04254 0.29825 0.20038 0.0
H418 H 0.03643 0.42557 0.29843 0.0
H419 H 0.01882 0.35072 0.26474 0.0
H420 H 0.04148 0.25711 0.17526 0.0
H421 H 0.0231 0.33798 0.20541 0.0
H422 H 0.16736 0.37065 0.26671 0.0
H423 H 0.14788 0.43548 0.30142 0.0
H424 H 0.16422 0.22653 0.24495 0.0
H425 H 0.14644 0.17087 0.20605 0.0
C426 C 0.37686 0.69223 0.26135 0.0
C427 C 0.40433 0.65438 0.27527 0.0
C428 C 0.43051 0.73463 0.22122 0.0
C429 C 0.40301 0.77519 0.20831 0.0
N430 N 0.35267 0.82018 0.22429 0.0
N431 N 0.45815 0.6566 0.27276 0.0
C432 C 0.37703 0.76235 0.23097 0.0
C433 C 0.43142 0.68176 0.25676 0.0
N434 N 0.35035 0.66078 0.27649 0.0
N435 N 0.4555 0.74098 0.19889 0.0
H436 H 0.4601 0.6121 0.29706 0.0
H437 H 0.47845 0.68561 0.26344 0.0
H438 H 0.45695 0.78255 0.17383 0.0
H439 H 0.47466 0.69989 0.20409 0.0
H440 H 0.32981 0.67753 0.26421 0.0
H441 H 0.34863 0.61109 0.29917 0.0
H442 H 0.33411 0.82137 0.24228 0.0
H443 H 0.35251 0.87573 0.20349 0.0
C444 C 0.93746 0.75932 0.78067 0.0
C445 C 0.91038 0.81012 0.7886 0.0
C446 C 0.88883 0.74842 0.72833 0.0
C447 C 0.91523 0.69385 0.7214 0.0
N448 N 0.96725 0.66843 0.73444 0.0
N449 N 0.86468 0.87864 0.76439 0.0
C450 C 0.94034 0.70582 0.74563 0.0
C451 C 0.88744 0.81255 0.76059 0.0
N452 N 0.96 0.75828 0.80703 0.0
N453 N 0.86454 0.7358 0.70517 0.0
H454 H 0.86351 0.9284 0.78714 0.0
H455 H 0.8488 0.89164 0.7432 0.0
H456 H 0.8649 0.69324 0.68034 0.0
H457 H 0.84345 0.76278 0.71169 0.0
H458 H 0.9779 0.7097 0.80576 0.0
H459 H 0.96067 0.80373 0.83104 0.0
H460 H 0.98722 0.68339 0.7485 0.0
H461 H 0.97013 0.62957 0.70885 0.0
C462 C 0.62043 0.24651 0.76496 0.0
C463 C 0.5945 0.23287 0.78764 0.0
C464 C 0.5653 0.31659 0.73733 0.0
C465 C 0.59215 0.34514 0.71856 0.0
N466 N 0.64618 0.34845 0.7188 0.0
N467 N 0.54175 0.26391 0.79649 0.0
C468 C 0.61997 0.3136 0.73363 0.0
C469 C 0.56665 0.269 0.77395 0.0
N470 N 0.64541 0.19242 0.77252 0.0
N471 N 0.5384 0.33603 0.72061 0.0
H472 H 0.54085 0.22801 0.82287 0.0
H473 H 0.52215 0.30155 0.79016 0.0
H474 H 0.53614 0.37649 0.6953 0.0
H475 H 0.51839 0.30596 0.73047 0.0
H476 H 0.66402 0.19209 0.75461 0.0
H477 H 0.64611 0.13865 0.79397 0.0
H478 H 0.66676 0.33584 0.73174 0.0
H479 H 0.64749 0.39755 0.69588 0.0
C480 C 0.10245 0.6559 0.12054 0.0
C481 C 0.07643 0.70994 0.11156 0.0
C482 C 0.05471 0.5638 0.08016 0.0
C483 C 0.08126 0.51126 0.08764 0.0
N484 N 0.13136 0.50578 0.11164 0.0
N485 N 0.02894 0.72168 0.08004 0.0
C486 C 0.10545 0.55708 0.10694 0.0
C487 C 0.05279 0.66544 0.09064 0.0
N488 N 0.12379 0.69896 0.14305 0.0
N489 N 0.03126 0.51516 0.06364 0.0
H490 H 0.02688 0.79584 0.08775 0.0
H491 H 0.01212 0.69753 0.06173 0.0
H492 H 0.0326 0.44145 0.05497 0.0
H493 H 0.01013 0.54526 0.0603 0.0
H494 H 0.14233 0.66211 0.1537 0.0
H495 H 0.12199 0.7714 0.15308 0.0
H496 H 0.15092 0.53636 0.12246 0.0
H497 H 0.13379 0.43273 0.10259 0.0
C498 C 0.39693 0.38583 0.11867 0.0
C499 C 0.42289 0.3322 0.10912 0.0
C500 C 0.44411 0.479 0.07738 0.0
C501 C 0.41759 0.53114 0.08541 0.0
N502 N 0.36776 0.5357 0.11037 0.0
N503 N 0.47003 0.32141 0.07667 0.0
C504 C 0.39368 0.48479 0.10517 0.0
C505 C 0.44625 0.37724 0.08776 0.0
N506 N 0.3759 0.34221 0.14158 0.0
N507 N 0.46733 0.52814 0.06045 0.0
H508 H 0.47227 0.24721 0.08437 0.0
H509 H 0.4866 0.34597 0.05801 0.0
H510 H 0.46582 0.60198 0.05188 0.0
H511 H 0.48845 0.4983 0.05668 0.0
H512 H 0.35745 0.37873 0.15263 0.0
H513 H 0.37789 0.26965 0.15154 0.0
H514 H 0.34836 0.50475 0.12158 0.0
H515 H 0.36514 0.60878 0.10133 0.0
C516 C 0.05373 0.01773 0.41978 0.0
C517 C 0.07801 0.07456 0.40584 0.0
C518 C 0.09646 0.93186 0.36962 0.0
C519 C 0.07169 0.87585 0.38259 0.0
N520 N 0.0253 0.86413 0.41672 0.0
N521 N 0.12102 0.09243 0.36536 0.0
C522 C 0.04984 0.91861 0.40676 0.0
C523 C 0.09899 0.03338 0.38007 0.0
N524 N 0.03483 0.05895 0.44596 0.0
N525 N 0.11774 0.88653 0.34788 0.0
H526 H 0.12387 0.16597 0.37366 0.0
H527 H 0.13557 0.07093 0.34371 0.0
H528 H 0.11574 0.81315 0.33892 0.0
H529 H 0.13788 0.91923 0.34009 0.0
H530 H 0.01799 0.02038 0.46014 0.0
H531 H 0.03699 0.13221 0.45501 0.0
H532 H 0.00722 0.89181 0.43189 0.0
H533 H 0.02234 0.79089 0.4081 0.0
C534 C 0.44207 0.01923 0.4175 0.0
C535 C 0.41769 0.96199 0.40427 0.0
C536 C 0.3984 0.10464 0.36847 0.0
C537 C 0.4233 0.16103 0.38067 0.0
N538 N 0.4701 0.17361 0.41377 0.0
N539 N 0.37398 0.94372 0.36515 0.0
C540 C 0.44557 0.11858 0.40435 0.0
C541 C 0.39619 1.00303 0.37911 0.0
N542 N 0.46146 0.97817 0.44319 0.0
N543 N 0.37672 0.14967 0.34725 0.0
H544 H 0.37138 0.87013 0.37363 0.0
H545 H 0.35899 0.96509 0.34396 0.0
H546 H 0.37847 0.22309 0.33814 0.0
H547 H 0.35651 0.11669 0.34005 0.0
H548 H 0.47847 0.01691 0.45688 0.0
H549 H 0.45959 0.90478 0.45231 0.0
H550 H 0.48845 0.14624 0.42851 0.0
H551 H 0.47272 0.24716 0.40526 0.0
C552 C 0.89412 0.5102 0.89506 0.0
C553 C 0.91795 0.55633 0.91491 0.0
C554 C 0.94652 0.40238 0.91312 0.0
C555 C 0.92338 0.35785 0.89135 0.0
N556 N 0.87664 0.36838 0.8583 0.0
N557 N 0.96765 0.55315 0.94006 0.0
C558 C 0.89748 0.41155 0.88152 0.0
C559 C 0.9444 0.50408 0.92327 0.0
N560 N 0.86816 0.56094 0.8899 0.0
N561 N 0.97008 0.34618 0.92477 0.0
H562 H 0.96627 0.62721 0.94826 0.0
H563 H 0.98873 0.52304 0.94391 0.0
H564 H 0.97228 0.27189 0.91731 0.0
H565 H 0.9864 0.37052 0.94378 0.0
H566 H 0.84881 0.52995 0.87861 0.0
H567 H 0.86543 0.63369 0.8992 0.0
H568 H 0.85832 0.40525 0.84701 0.0
H569 H 0.87869 0.29597 0.84831 0.0
C570 C 0.55219 0.63468 0.90905 0.0
C571 C 0.5757 0.67913 0.8878 0.0
C572 C 0.60458 0.52592 0.89186 0.0
C573 C 0.58048 0.48011 0.91145 0.0
N574 N 0.53068 0.48423 0.93617 0.0
N575 N 0.62274 0.668 0.85551 0.0
C576 C 0.55406 0.53286 0.91939 0.0
C577 C 0.60157 0.62491 0.87835 0.0
N578 N 0.52852 0.69111 0.92005 0.0
N579 N 0.63043 0.47452 0.88689 0.0
H580 H 0.62095 0.74064 0.84557 0.0
H581 H 0.6411 0.63095 0.84448 0.0
H582 H 0.63289 0.40142 0.896 0.0
H583 H 0.64994 0.50512 0.87585 0.0
H584 H 0.51183 0.66693 0.93861 0.0
H585 H 0.52647 0.76539 0.91237 0.0
H586 H 0.50963 0.51462 0.93988 0.0
H587 H 0.53198 0.41027 0.94465 0.0
C588 C 0.9387 0.04084 0.57928 0.0
C589 C 0.91161 0.9932 0.58914 0.0
C590 C 0.89486 0.14286 0.62236 0.0
C591 C 0.92095 0.19295 0.60985 0.0
N592 N 0.96567 0.19505 0.57146 0.0
N593 N 0.86248 0.99893 0.61611 0.0
C594 C 0.94236 0.14333 0.58696 0.0
C595 C 0.88925 0.04438 0.60963 0.0
N596 N 0.96133 0.98679 0.56379 0.0
N597 N 0.87614 0.18854 0.64758 0.0
H598 H 0.8581 0.92654 0.60729 0.0
H599 H 0.84405 0.0346 0.62767 0.0
H600 H 0.88003 0.26 0.65774 0.0
H601 H 0.85812 0.15348 0.66073 0.0
H602 H 0.98281 1.01417 0.55963 0.0
H603 H 0.95927 0.91145 0.5581 0.0
H604 H 0.98008 0.166 0.55099 0.0
H605 H 0.96923 0.27002 0.57658 0.0
C606 C 0.5518 0.8691 0.5867 0.0
C607 C 0.57379 0.82422 0.61013 0.0
C608 C 0.60312 0.97773 0.61005 0.0
C609 C 0.58067 0.0234 0.58771 0.0
N610 N 0.53279 0.01964 0.55725 0.0
N611 N 0.61854 0.83452 0.64752 0.0
C612 C 0.55471 0.97089 0.57674 0.0
C613 C 0.59904 0.87832 0.62269 0.0
N614 N 0.52865 0.81306 0.57325 0.0
N615 N 0.62842 0.02982 0.61858 0.0
H616 H 0.61585 0.7617 0.657 0.0
H617 H 0.63631 0.87096 0.66052 0.0
H618 H 0.63143 0.10358 0.61048 0.0
H619 H 0.647 0.99961 0.63195 0.0
H620 H 0.51322 0.83751 0.55313 0.0
H621 H 0.52576 0.73891 0.58074 0.0
H622 H 0.51198 0.98953 0.55105 0.0
H623 H 0.53498 0.09345 0.54881 0.0
loop_
_geom_bond_atom_site_label_1
_geom_bond_atom_site_label_2
_geom_bond_distance
_geom_bond_site_symmetry_2
_ccdc_geom_bond_type
Co0 N4 2.148 1_545 S
Co0 N10 2.128 . S
Co0 N20 2.194 . S
Co0 O25 2.351 . S
Co0 O26 2.155 . S
Co0 O27 2.096 . S
C1 N4 1.301 . S
C1 N5 1.328 . S
C1 H6 0.930 . S
C2 C3 1.333 . S
C2 N4 1.317 . S
C2 H7 0.930 . S
C3 C2 1.333 . S
C3 N5 1.350 . S
C3 H29 0.931 . S
N4 Co0 2.148 1_565 S
N4 C1 1.301 . S
N4 C2 1.317 . S
N5 C1 1.328 . S
N5 C3 1.350 . S
H6 C1 0.930 . S
H7 C2 0.930 . S
C8 O9 1.224 . S
C8 O27 1.247 . S
O9 C8 1.224 . S
N10 Co0 2.128 . S
N10 C11 1.355 . S
N10 C13 1.311 . S
C11 N10 1.355 . S
C11 C12 1.363 . S
C11 H23 0.929 . S
C12 C11 1.363 . S
C12 N14 1.375 . S
C12 H30 0.931 . S
C13 N10 1.311 . S
C13 N14 1.347 . S
C13 H24 0.929 . S
N14 C12 1.375 . S
N14 C13 1.347 . S
C15 C18 1.365 . S
C15 N20 1.328 . S
C15 H21 0.929 . S
C16 C17 1.362 . S
C16 C19 1.378 . S
C16 H31 0.929 . S
C17 C16 1.362 . S
C17 C18 1.366 . S
C18 C15 1.365 . S
C18 C17 1.366 . S
C18 H32 0.930 1_545 S
C19 C16 1.378 . S
C19 N20 1.315 . S
C19 H22 0.930 . S
N20 Co0 2.194 . S
N20 C15 1.328 . S
N20 C19 1.315 . S
H21 C15 0.929 . S
H22 C19 0.930 . S
H23 C11 0.929 . S
H24 C13 0.929 . S
O25 Co0 2.351 . S
O25 C28 1.244 . S
O26 Co0 2.155 . S
O26 C28 1.240 . S
O27 Co0 2.096 . S
O27 C8 1.247 . S
C28 O25 1.244 . S
C28 O26 1.240 . S
H29 C3 0.931 . S
H30 C12 0.931 . S
H31 C16 0.929 . S
H32 C18 0.930 1_565 S
Co33 N37 2.148 1_565 S
Co33 N43 2.128 . S
Co33 N53 2.194 . S
Co33 O58 2.351 . S
Co33 O59 2.155 . S
Co33 O60 2.096 . S
C34 N37 1.301 . S
C34 N38 1.328 . S
C34 H39 0.930 . S
C35 C36 1.333 . S
C35 N37 1.317 . S
C35 H40 0.930 . S
C36 C35 1.333 . S
C36 N38 1.350 . S
C36 H62 0.931 . S
N37 Co33 2.148 1_545 S
N37 C34 1.301 . S
N37 C35 1.317 . S
N38 C34 1.328 . S
N38 C36 1.350 . S
H39 C34 0.930 . S
H40 C35 0.930 . S
C41 O42 1.224 . S
C41 O60 1.247 . S
O42 C41 1.224 . S
N43 Co33 2.128 . S
N43 C44 1.355 . S
N43 C46 1.311 . S
C44 N43 1.355 . S
C44 C45 1.363 . S
C44 H56 0.929 . S
C45 C44 1.363 . S
C45 N47 1.375 . S
C45 H63 0.931 . S
C46 N43 1.311 . S
C46 N47 1.347 . S
C46 H57 0.929 . S
N47 C45 1.375 . S
N47 C46 1.347 . S
C48 C51 1.365 . S
C48 N53 1.328 . S
C48 H54 0.929 . S
C49 C50 1.362 . S
C49 C52 1.378 . S
C49 H64 0.929 . S
C50 C49 1.362 . S
C50 C51 1.366 . S
C51 C48 1.365 . S
C51 C50 1.366 . S
C51 H65 0.930 1_565 S
C52 C49 1.378 . S
C52 N53 1.315 . S
C52 H55 0.930 . S
N53 Co33 2.194 . S
N53 C48 1.328 . S
N53 C52 1.315 . S
H54 C48 0.929 . S
H55 C52 0.930 . S
H56 C44 0.929 . S
H57 C46 0.929 . S
O58 Co33 2.351 . S
O58 C61 1.244 . S
O59 Co33 2.155 . S
O59 C61 1.240 . S
O60 Co33 2.096 . S
O60 C41 1.247 . S
C61 O58 1.244 . S
C61 O59 1.240 . S
H62 C36 0.931 . S
H63 C45 0.931 . S
H64 C49 0.929 . S
H65 C51 0.930 1_545 S
Co66 N70 2.148 . S
Co66 N76 2.128 . S
Co66 N86 2.194 . S
Co66 O91 2.351 . S
Co66 O92 2.155 . S
Co66 O93 2.096 . S
C67 N70 1.301 . S
C67 N71 1.328 . S
C67 H72 0.930 . S
C68 C69 1.333 . S
C68 N70 1.317 . S
C68 H73 0.930 . S
C69 C68 1.333 . S
C69 N71 1.350 . S
C69 H95 0.931 . S
N70 Co66 2.148 . S
N70 C67 1.301 . S
N70 C68 1.317 . S
N71 C67 1.328 . S
N71 C69 1.350 . S
H72 C67 0.930 . S
H73 C68 0.930 . S
C74 O75 1.224 . S
C74 O93 1.247 . S
O75 C74 1.224 . S
N76 Co66 2.128 . S
N76 C77 1.355 . S
N76 C79 1.311 . S
C77 N76 1.355 . S
C77 C78 1.363 . S
C77 H89 0.929 . S
C78 C77 1.363 . S
C78 N80 1.375 . S
C78 H96 0.931 . S
C79 N76 1.311 . S
C79 N80 1.347 . S
C79 H90 0.929 . S
N80 C78 1.375 . S
N80 C79 1.347 . S
C81 C84 1.365 . S
C81 N86 1.328 . S
C81 H87 0.929 . S
C82 C83 1.362 . S
C82 C85 1.378 . S
C82 H97 0.929 . S
C83 C82 1.362 . S
C83 C84 1.366 . S
C84 C81 1.365 . S
C84 C83 1.366 . S
C84 H98 0.930 . S
C85 C82 1.378 . S
C85 N86 1.315 . S
C85 H88 0.930 . S
N86 Co66 2.194 . S
N86 C81 1.328 . S
N86 C85 1.315 . S
H87 C81 0.929 . S
H88 C85 0.930 . S
H89 C77 0.929 . S
H90 C79 0.929 . S
O91 Co66 2.351 . S
O91 C94 1.244 . S
O92 Co66 2.155 . S
O92 C94 1.240 . S
O93 Co66 2.096 . S
O93 C74 1.247 . S
C94 O91 1.244 . S
C94 O92 1.240 . S
H95 C69 0.931 . S
H96 C78 0.931 . S
H97 C82 0.929 . S
H98 C84 0.930 . S
Co99 N103 2.148 . S
Co99 N109 2.128 . S
Co99 N119 2.194 . S
Co99 O124 2.351 . S
Co99 O125 2.155 . S
Co99 O126 2.096 . S
C100 N103 1.301 . S
C100 N104 1.328 . S
C100 H105 0.930 . S
C101 C102 1.333 . S
C101 N103 1.317 . S
C101 H106 0.930 . S
C102 C101 1.333 . S
C102 N104 1.350 . S
C102 H128 0.931 . S
N103 Co99 2.148 . S
N103 C100 1.301 . S
N103 C101 1.317 . S
N104 C100 1.328 . S
N104 C102 1.350 . S
H105 C100 0.930 . S
H106 C101 0.930 . S
C107 O108 1.224 . S
C107 O126 1.247 . S
O108 C107 1.224 . S
N109 Co99 2.128 . S
N109 C110 1.355 . S
N109 C112 1.311 . S
C110 N109 1.355 . S
C110 C111 1.363 . S
C110 H122 0.929 . S
C111 C110 1.363 . S
C111 N113 1.375 . S
C111 H129 0.931 . S
C112 N109 1.311 . S
C112 N113 1.347 . S
C112 H123 0.929 . S
N113 C111 1.375 . S
N113 C112 1.347 . S
C114 C117 1.365 . S
C114 N119 1.328 . S
C114 H120 0.929 . S
C115 C116 1.362 . S
C115 C118 1.378 . S
C115 H130 0.929 . S
C116 C115 1.362 . S
C116 C117 1.366 . S
C117 C114 1.365 . S
C117 C116 1.366 . S
C117 H131 0.930 . S
C118 C115 1.378 . S
C118 N119 1.315 . S
C118 H121 0.930 . S
N119 Co99 2.194 . S
N119 C114 1.328 . S
N119 C118 1.315 . S
H120 C114 0.929 . S
H121 C118 0.930 . S
H122 C110 0.929 . S
H123 C112 0.929 . S
O124 Co99 2.351 . S
O124 C127 1.244 . S
O125 Co99 2.155 . S
O125 C127 1.240 . S
O126 Co99 2.096 . S
O126 C107 1.247 . S
C127 O124 1.244 . S
C127 O125 1.240 . S
H128 C102 0.931 . S
H129 C111 0.931 . S
H130 C115 0.929 . S
H131 C117 0.930 . S
Co132 N136 2.148 1_565 S
Co132 N142 2.128 . S
Co132 N152 2.194 . S
Co132 O157 2.351 . S
Co132 O158 2.155 . S
Co132 O159 2.096 . S
C133 N136 1.301 . S
C133 N137 1.328 . S
C133 H138 0.930 . S
C134 C135 1.333 . S
C134 N136 1.317 . S
C134 H139 0.930 . S
C135 C134 1.333 . S
C135 N137 1.350 . S
C135 H161 0.931 . S
N136 Co132 2.148 1_545 S
N136 C133 1.301 . S
N136 C134 1.317 . S
N137 C133 1.328 . S
N137 C135 1.350 . S
H138 C133 0.930 . S
H139 C134 0.930 . S
C140 O141 1.224 . S
C140 O159 1.247 . S
O141 C140 1.224 . S
N142 Co132 2.128 . S
N142 C143 1.355 . S
N142 C145 1.311 . S
C143 N142 1.355 . S
C143 C144 1.363 . S
C143 H155 0.929 . S
C144 C143 1.363 . S
C144 N146 1.375 . S
C144 H162 0.931 . S
C145 N142 1.311 . S
C145 N146 1.347 . S
C145 H156 0.929 . S
N146 C144 1.375 . S
N146 C145 1.347 . S
C147 C150 1.365 . S
C147 N152 1.328 . S
C147 H153 0.929 . S
C148 C149 1.362 . S
C148 C151 1.378 . S
C148 H163 0.929 . S
C149 C148 1.362 . S
C149 C150 1.366 . S
C150 C147 1.365 . S
C150 C149 1.366 . S
C150 H164 0.930 1_565 S
C151 C148 1.378 . S
C151 N152 1.315 . S
C151 H154 0.930 . S
N152 Co132 2.194 . S
N152 C147 1.328 . S
N152 C151 1.315 . S
H153 C147 0.929 . S
H154 C151 0.930 . S
H155 C143 0.929 . S
H156 C145 0.929 . S
O157 Co132 2.351 . S
O157 C160 1.244 . S
O158 Co132 2.155 . S
O158 C160 1.240 . S
O159 Co132 2.096 . S
O159 C140 1.247 . S
C160 O157 1.244 . S
C160 O158 1.240 . S
H161 C135 0.931 . S
H162 C144 0.931 . S
H163 C148 0.929 . S
H164 C150 0.930 1_545 S
Co165 N169 2.148 1_545 S
Co165 N175 2.128 . S
Co165 N185 2.194 . S
Co165 O190 2.351 . S
Co165 O191 2.155 . S
Co165 O192 2.096 . S
C166 N169 1.301 . S
C166 N170 1.328 . S
C166 H171 0.930 . S
C167 C168 1.333 . S
C167 N169 1.317 . S
C167 H172 0.930 . S
C168 C167 1.333 . S
C168 N170 1.350 . S
C168 H194 0.931 . S
N169 Co165 2.148 1_565 S
N169 C166 1.301 . S
N169 C167 1.317 . S
N170 C166 1.328 . S
N170 C168 1.350 . S
H171 C166 0.930 . S
H172 C167 0.930 . S
C173 O174 1.224 . S
C173 O192 1.247 . S
O174 C173 1.224 . S
N175 Co165 2.128 . S
N175 C176 1.355 . S
N175 C178 1.311 . S
C176 N175 1.355 . S
C176 C177 1.363 . S
C176 H188 0.929 . S
C177 C176 1.363 . S
C177 N179 1.375 . S
C177 H195 0.931 . S
C178 N175 1.311 . S
C178 N179 1.347 . S
C178 H189 0.929 . S
N179 C177 1.375 . S
N179 C178 1.347 . S
C180 C183 1.365 . S
C180 N185 1.328 . S
C180 H186 0.929 . S
C181 C182 1.362 . S
C181 C184 1.378 . S
C181 H196 0.929 . S
C182 C181 1.362 . S
C182 C183 1.366 . S
C183 C180 1.365 . S
C183 C182 1.366 . S
C183 H197 0.930 1_545 S
C184 C181 1.378 . S
C184 N185 1.315 . S
C184 H187 0.930 . S
N185 Co165 2.194 . S
N185 C180 1.328 . S
N185 C184 1.315 . S
H186 C180 0.929 . S
H187 C184 0.930 . S
H188 C176 0.929 . S
H189 C178 0.929 . S
O190 Co165 2.351 . S
O190 C193 1.244 . S
O191 Co165 2.155 . S
O191 C193 1.240 . S
O192 Co165 2.096 . S
O192 C173 1.247 . S
C193 O190 1.244 . S
C193 O191 1.240 . S
H194 C168 0.931 . S
H195 C177 0.931 . S
H196 C181 0.929 . S
H197 C183 0.930 1_565 S
Co198 N202 2.148 . S
Co198 N208 2.128 . S
Co198 N218 2.194 . S
Co198 O223 2.351 . S
Co198 O224 2.155 . S
Co198 O225 2.096 . S
C199 N202 1.301 . S
C199 N203 1.328 . S
C199 H204 0.930 . S
C200 C201 1.333 . S
C200 N202 1.317 . S
C200 H205 0.930 . S
C201 C200 1.333 . S
C201 N203 1.350 . S
C201 H227 0.931 . S
N202 Co198 2.148 . S
N202 C199 1.301 . S
N202 C200 1.317 . S
N203 C199 1.328 . S
N203 C201 1.350 . S
H204 C199 0.930 . S
H205 C200 0.930 . S
C206 O207 1.224 . S
C206 O225 1.247 . S
O207 C206 1.224 . S
N208 Co198 2.128 . S
N208 C209 1.355 . S
N208 C211 1.311 . S
C209 N208 1.355 . S
C209 C210 1.363 . S
C209 H221 0.929 . S
C210 C209 1.363 . S
C210 N212 1.375 . S
C210 H228 0.931 . S
C211 N208 1.311 . S
C211 N212 1.347 . S
C211 H222 0.929 . S
N212 C210 1.375 . S
N212 C211 1.347 . S
C213 C216 1.365 . S
C213 N218 1.328 . S
C213 H219 0.929 . S
C214 C215 1.362 . S
C214 C217 1.378 . S
C214 H229 0.929 . S
C215 C214 1.362 . S
C215 C216 1.366 . S
C216 C213 1.365 . S
C216 C215 1.366 . S
C216 H230 0.930 . S
C217 C214 1.378 . S
C217 N218 1.315 . S
C217 H220 0.930 . S
N218 Co198 2.194 . S
N218 C213 1.328 . S
N218 C217 1.315 . S
H219 C213 0.929 . S
H220 C217 0.930 . S
H221 C209 0.929 . S
H222 C211 0.929 . S
O223 Co198 2.351 . S
O223 C226 1.244 . S
O224 Co198 2.155 . S
O224 C226 1.240 . S
O225 Co198 2.096 . S
O225 C206 1.247 . S
C226 O223 1.244 . S
C226 O224 1.240 . S
H227 C201 0.931 . S
H228 C210 0.931 . S
H229 C214 0.929 . S
H230 C216 0.930 . S
Co231 N235 2.148 . S
Co231 N241 2.128 . S
Co231 N251 2.194 . S
Co231 O256 2.351 . S
Co231 O257 2.155 . S
Co231 O258 2.096 . S
C232 N235 1.301 . S
C232 N236 1.328 . S
C232 H237 0.930 . S
C233 C234 1.333 . S
C233 N235 1.317 . S
C233 H238 0.930 . S
C234 C233 1.333 . S
C234 N236 1.350 . S
C234 H260 0.931 . S
N235 Co231 2.148 . S
N235 C232 1.301 . S
N235 C233 1.317 . S
N236 C232 1.328 . S
N236 C234 1.350 . S
H237 C232 0.930 . S
H238 C233 0.930 . S
C239 O240 1.224 . S
C239 O258 1.247 . S
O240 C239 1.224 . S
N241 Co231 2.128 . S
N241 C242 1.355 . S
N241 C244 1.311 . S
C242 N241 1.355 . S
C242 C243 1.363 . S
C242 H254 0.929 . S
C243 C242 1.363 . S
C243 N245 1.375 . S
C243 H261 0.931 . S
C244 N241 1.311 . S
C244 N245 1.347 . S
C244 H255 0.929 . S
N245 C243 1.375 . S
N245 C244 1.347 . S
C246 C249 1.365 . S
C246 N251 1.328 . S
C246 H252 0.929 . S
C247 C248 1.362 . S
C247 C250 1.378 . S
C247 H262 0.929 . S
C248 C247 1.362 . S
C248 C249 1.366 . S
C249 C246 1.365 . S
C249 C248 1.366 . S
C249 H263 0.930 . S
C250 C247 1.378 . S
C250 N251 1.315 . S
C250 H253 0.930 . S
N251 Co231 2.194 . S
N251 C246 1.328 . S
N251 C250 1.315 . S
H252 C246 0.929 . S
H253 C250 0.930 . S
H254 C242 0.929 . S
H255 C244 0.929 . S
O256 Co231 2.351 . S
O256 C259 1.244 . S
O257 Co231 2.155 . S
O257 C259 1.240 . S
O258 Co231 2.096 . S
O258 C239 1.247 . S
C259 O256 1.244 . S
C259 O257 1.240 . S
H260 C234 0.931 . S
H261 C243 0.931 . S
H262 C247 0.929 . S
H263 C249 0.930 . S
C264 C265 1.363 . S
C264 C270 1.379 . S
C264 N272 1.356 . S
C265 C264 1.363 . S
C265 C271 1.363 1_545 S
C266 C267 1.363 . S
C266 C271 1.379 . S
C266 N273 1.356 . S
C267 C266 1.363 . S
C267 C270 1.363 1_565 S
N268 C270 1.356 . S
N268 H280 0.984 . S
N268 H281 0.985 . S
N269 C271 1.356 . S
N269 H274 0.984 . S
N269 H275 0.985 1_554 S
C270 C264 1.379 . S
C270 C267 1.363 1_545 S
C270 N268 1.356 . S
C271 C265 1.363 1_565 S
C271 C266 1.379 . S
C271 N269 1.356 . S
N272 C264 1.356 . S
N272 H278 0.984 . S
N272 H279 0.984 . S
N273 C266 1.356 . S
N273 H276 0.984 . S
N273 H277 0.985 1_554 S
H274 N269 0.984 . S
H275 N269 0.985 1_556 S
H276 N273 0.984 . S
H277 N273 0.985 1_556 S
H278 N272 0.984 . S
H279 N272 0.984 . S
H280 N268 0.984 . S
H281 N268 0.985 . S
C282 C283 1.363 . S
C282 C288 1.379 . S
C282 N290 1.356 . S
C283 C282 1.363 . S
C283 C289 1.363 . S
C284 C285 1.363 . S
C284 C289 1.379 . S
C284 N291 1.356 . S
C285 C284 1.363 . S
C285 C288 1.363 . S
N286 C288 1.356 . S
N286 H298 0.984 . S
N286 H299 0.985 . S
N287 C289 1.356 . S
N287 H292 0.984 . S
N287 H293 0.985 . S
C288 C282 1.379 . S
C288 C285 1.363 . S
C288 N286 1.356 . S
C289 C283 1.363 . S
C289 C284 1.379 . S
C289 N287 1.356 . S
N290 C282 1.356 . S
N290 H296 0.984 . S
N290 H297 0.984 . S
N291 C284 1.356 . S
N291 H294 0.984 . S
N291 H295 0.985 . S
H292 N287 0.984 . S
H293 N287 0.985 . S
H294 N291 0.984 . S
H295 N291 0.985 . S
H296 N290 0.984 . S
H297 N290 0.984 . S
H298 N286 0.984 . S
H299 N286 0.985 . S
C300 C301 1.363 1_545 S
C300 C306 1.379 . S
C300 N308 1.356 . S
C301 C300 1.363 1_565 S
C301 C307 1.363 . S
C302 C303 1.363 1_565 S
C302 C307 1.379 . S
C302 N309 1.356 . S
C303 C302 1.363 1_545 S
C303 C306 1.363 . S
N304 C306 1.356 . S
N304 H316 0.984 . S
N304 H317 0.985 . S
N305 C307 1.356 . S
N305 H310 0.984 . S
N305 H311 0.985 1_556 S
C306 C300 1.379 . S
C306 C303 1.363 . S
C306 N304 1.356 . S
C307 C301 1.363 . S
C307 C302 1.379 . S
C307 N305 1.356 . S
N308 C300 1.356 . S
N308 H314 0.984 . S
N308 H315 0.984 . S
N309 C302 1.356 . S
N309 H312 0.984 . S
N309 H313 0.985 1_556 S
H310 N305 0.984 . S
H311 N305 0.985 1_554 S
H312 N309 0.984 . S
H313 N309 0.985 1_554 S
H314 N308 0.984 . S
H315 N308 0.984 . S
H316 N304 0.984 . S
H317 N304 0.985 . S
C318 C319 1.363 . S
C318 C324 1.379 . S
C318 N326 1.356 . S
C319 C318 1.363 . S
C319 C325 1.363 . S
C320 C321 1.363 . S
C320 C325 1.379 . S
C320 N327 1.356 . S
C321 C320 1.363 . S
C321 C324 1.363 . S
N322 C324 1.356 . S
N322 H334 0.984 . S
N322 H335 0.985 . S
N323 C325 1.356 . S
N323 H328 0.984 . S
N323 H329 0.985 . S
C324 C318 1.379 . S
C324 C321 1.363 . S
C324 N322 1.356 . S
C325 C319 1.363 . S
C325 C320 1.379 . S
C325 N323 1.356 . S
N326 C318 1.356 . S
N326 H332 0.984 . S
N326 H333 0.984 . S
N327 C320 1.356 . S
N327 H330 0.984 . S
N327 H331 0.985 . S
H328 N323 0.984 . S
H329 N323 0.985 . S
H330 N327 0.984 . S
H331 N327 0.985 . S
H332 N326 0.984 . S
H333 N326 0.984 . S
H334 N322 0.984 . S
H335 N322 0.985 . S
C336 C337 1.363 1_565 S
C336 C342 1.379 1_554 S
C336 N344 1.356 . S
C337 C336 1.363 1_545 S
C337 C343 1.363 1_455 S
C338 C339 1.363 1_545 S
C338 C343 1.379 1_556 S
C338 N345 1.356 . S
C339 C338 1.363 1_565 S
C339 C342 1.363 1_655 S
N340 C342 1.356 1_655 S
N340 H352 0.984 1_655 S
N340 H353 0.985 . S
N341 C343 1.356 1_455 S
N341 H346 0.984 . S
N341 H347 0.985 1_455 S
C342 C336 1.379 1_556 S
C342 C339 1.363 1_455 S
C342 N340 1.356 1_455 S
C343 C337 1.363 1_655 S
C343 C338 1.379 1_554 S
C343 N341 1.356 1_655 S
N344 C336 1.356 . S
N344 H350 0.988 . S
N344 H351 0.984 . S
N345 C338 1.356 . S
N345 H348 0.984 . S
N345 H349 0.988 . S
H346 N341 0.984 . S
H347 N341 0.985 1_655 S
H348 N345 0.984 . S
H349 N345 0.988 . S
H350 N344 0.988 . S
H351 N344 0.984 . S
H352 N340 0.984 1_455 S
H353 N340 0.985 . S
C354 C355 1.363 . S
C354 C360 1.379 . S
C354 N362 1.356 . S
C355 C354 1.363 . S
C355 C361 1.363 1_564 S
C356 C357 1.363 . S
C356 C361 1.379 . S
C356 N363 1.356 . S
C357 C356 1.363 . S
C357 C360 1.363 1_546 S
N358 C360 1.356 . S
N358 H370 0.984 . S
N358 H371 0.985 1_554 S
N359 C361 1.356 . S
N359 H364 0.984 1_556 S
N359 H365 0.985 . S
C360 C354 1.379 . S
C360 C357 1.363 1_564 S
C360 N358 1.356 . S
C361 C355 1.363 1_546 S
C361 C356 1.379 . S
C361 N359 1.356 . S
N362 C354 1.356 . S
N362 H368 0.984 . S
N362 H369 0.984 . S
N363 C356 1.356 . S
N363 H366 0.984 . S
N363 H367 0.985 . S
H364 N359 0.984 1_554 S
H365 N359 0.985 . S
H366 N363 0.984 . S
H367 N363 0.985 . S
H368 N362 0.984 . S
H369 N362 0.984 . S
H370 N358 0.984 . S
H371 N358 0.985 1_556 S
C372 C373 1.363 . S
C372 C378 1.379 1_455 S
C372 N380 1.356 . S
C373 C372 1.363 . S
C373 C379 1.363 . S
C374 C375 1.363 . S
C374 C379 1.379 1_655 S
C374 N381 1.356 . S
C375 C374 1.363 . S
C375 C378 1.363 . S
N376 C378 1.356 . S
N376 H388 0.984 . S
N376 H389 0.985 . S
N377 C379 1.356 . S
N377 H382 0.984 . S
N377 H383 0.985 . S
C378 C372 1.379 1_655 S
C378 C375 1.363 . S
C378 N376 1.356 . S
C379 C373 1.363 . S
C379 C374 1.379 1_455 S
C379 N377 1.356 . S
N380 C372 1.356 . S
N380 H386 0.984 . S
N380 H387 0.984 . S
N381 C374 1.356 . S
N381 H384 0.984 . S
N381 H385 0.985 . S
H382 N377 0.984 . S
H383 N377 0.985 . S
H384 N381 0.984 . S
H385 N381 0.985 . S
H386 N380 0.984 . S
H387 N380 0.984 . S
H388 N376 0.984 . S
H389 N376 0.985 . S
C390 C391 1.363 . S
C390 C396 1.379 . S
C390 N398 1.356 . S
C391 C390 1.363 . S
C391 C397 1.363 . S
C392 C393 1.363 . S
C392 C397 1.379 . S
C392 N399 1.356 . S
C393 C392 1.363 . S
C393 C396 1.363 . S
N394 C396 1.356 . S
N394 H406 0.984 . S
N394 H407 0.985 . S
N395 C397 1.356 . S
N395 H400 0.984 . S
N395 H401 0.985 . S
C396 C390 1.379 . S
C396 C393 1.363 . S
C396 N394 1.356 . S
C397 C391 1.363 . S
C397 C392 1.379 . S
C397 N395 1.356 . S
N398 C390 1.356 . S
N398 H404 0.984 . S
N398 H405 0.984 . S
N399 C392 1.356 . S
N399 H402 0.984 . S
N399 H403 0.985 . S
H400 N395 0.984 . S
H401 N395 0.985 . S
H402 N399 0.984 . S
H403 N399 0.985 . S
H404 N398 0.984 . S
H405 N398 0.984 . S
H406 N394 0.984 . S
H407 N394 0.985 . S
C408 C409 1.363 . S
C408 C414 1.379 . S
C408 N416 1.356 . S
C409 C408 1.363 . S
C409 C415 1.363 . S
C410 C411 1.363 . S
C410 C415 1.379 . S
C410 N417 1.356 . S
C411 C410 1.363 . S
C411 C414 1.363 . S
N412 C414 1.356 . S
N412 H424 0.984 . S
N412 H425 0.985 . S
N413 C415 1.356 . S
N413 H418 0.984 . S
N413 H419 0.985 . S
C414 C408 1.379 . S
C414 C411 1.363 . S
C414 N412 1.356 . S
C415 C409 1.363 . S
C415 C410 1.379 . S
C415 N413 1.356 . S
N416 C408 1.356 . S
N416 H422 0.984 . S
N416 H423 0.984 . S
N417 C410 1.356 . S
N417 H420 0.984 . S
N417 H421 0.985 . S
H418 N413 0.984 . S
H419 N413 0.985 . S
H420 N417 0.984 . S
H421 N417 0.985 . S
H422 N416 0.984 . S
H423 N416 0.984 . S
H424 N412 0.984 . S
H425 N412 0.985 . S
C426 C427 1.363 . S
C426 C432 1.379 . S
C426 N434 1.356 . S
C427 C426 1.363 . S
C427 C433 1.363 . S
C428 C429 1.363 . S
C428 C433 1.379 . S
C428 N435 1.356 . S
C429 C428 1.363 . S
C429 C432 1.363 . S
N430 C432 1.356 . S
N430 H442 0.984 . S
N430 H443 0.985 . S
N431 C433 1.356 . S
N431 H436 0.984 . S
N431 H437 0.985 . S
C432 C426 1.379 . S
C432 C429 1.363 . S
C432 N430 1.356 . S
C433 C427 1.363 . S
C433 C428 1.379 . S
C433 N431 1.356 . S
N434 C426 1.356 . S
N434 H440 0.984 . S
N434 H441 0.984 . S
N435 C428 1.356 . S
N435 H438 0.984 . S
N435 H439 0.985 . S
H436 N431 0.984 . S
H437 N431 0.985 . S
H438 N435 0.984 . S
H439 N435 0.985 . S
H440 N434 0.984 . S
H441 N434 0.984 . S
H442 N430 0.984 . S
H443 N430 0.985 . S
C444 C445 1.363 . S
C444 C450 1.379 . S
C444 N452 1.356 . S
C445 C444 1.363 . S
C445 C451 1.363 . S
C446 C447 1.363 . S
C446 C451 1.379 . S
C446 N453 1.356 . S
C447 C446 1.363 . S
C447 C450 1.363 . S
N448 C450 1.356 . S
N448 H460 0.984 . S
N448 H461 0.985 . S
N449 C451 1.356 . S
N449 H454 0.984 . S
N449 H455 0.985 . S
C450 C444 1.379 . S
C450 C447 1.363 . S
C450 N448 1.356 . S
C451 C445 1.363 . S
C451 C446 1.379 . S
C451 N449 1.356 . S
N452 C444 1.356 . S
N452 H458 0.984 . S
N452 H459 0.984 . S
N453 C446 1.356 . S
N453 H456 0.984 . S
N453 H457 0.985 . S
H454 N449 0.984 . S
H455 N449 0.985 . S
H456 N453 0.984 . S
H457 N453 0.985 . S
H458 N452 0.984 . S
H459 N452 0.984 . S
H460 N448 0.984 . S
H461 N448 0.985 . S
C462 C463 1.363 . S
C462 C468 1.379 . S
C462 N470 1.356 . S
C463 C462 1.363 . S
C463 C469 1.363 . S
C464 C465 1.363 . S
C464 C469 1.379 . S
C464 N471 1.356 . S
C465 C464 1.363 . S
C465 C468 1.363 . S
N466 C468 1.356 . S
N466 H478 0.984 . S
N466 H479 0.985 . S
N467 C469 1.356 . S
N467 H472 0.984 . S
N467 H473 0.985 . S
C468 C462 1.379 . S
C468 C465 1.363 . S
C468 N466 1.356 . S
C469 C463 1.363 . S
C469 C464 1.379 . S
C469 N467 1.356 . S
N470 C462 1.356 . S
N470 H476 0.984 . S
N470 H477 0.984 . S
N471 C464 1.356 . S
N471 H474 0.984 . S
N471 H475 0.985 . S
H472 N467 0.984 . S
H473 N467 0.985 . S
H474 N471 0.984 . S
H475 N471 0.985 . S
H476 N470 0.984 . S
H477 N470 0.984 . S
H478 N466 0.984 . S
H479 N466 0.985 . S
C480 C481 1.363 . S
C480 C486 1.379 . S
C480 N488 1.356 . S
C481 C480 1.363 . S
C481 C487 1.363 . S
C482 C483 1.363 . S
C482 C487 1.379 . S
C482 N489 1.356 . S
C483 C482 1.363 . S
C483 C486 1.363 . S
N484 C486 1.356 . S
N484 H496 0.984 . S
N484 H497 0.985 . S
N485 C487 1.356 . S
N485 H490 0.984 . S
N485 H491 0.985 . S
C486 C480 1.379 . S
C486 C483 1.363 . S
C486 N484 1.356 . S
C487 C481 1.363 . S
C487 C482 1.379 . S
C487 N485 1.356 . S
N488 C480 1.356 . S
N488 H494 0.984 . S
N488 H495 0.984 . S
N489 C482 1.356 . S
N489 H492 0.984 . S
N489 H493 0.985 . S
H490 N485 0.984 . S
H491 N485 0.985 . S
H492 N489 0.984 . S
H493 N489 0.985 . S
H494 N488 0.984 . S
H495 N488 0.984 . S
H496 N484 0.984 . S
H497 N484 0.985 . S
C498 C499 1.363 . S
C498 C504 1.379 . S
C498 N506 1.356 . S
C499 C498 1.363 . S
C499 C505 1.363 . S
C500 C501 1.363 . S
C500 C505 1.379 . S
C500 N507 1.356 . S
C501 C500 1.363 . S
C501 C504 1.363 . S
N502 C504 1.356 . S
N502 H514 0.984 . S
N502 H515 0.985 . S
N503 C505 1.356 . S
N503 H508 0.984 . S
N503 H509 0.985 . S
C504 C498 1.379 . S
C504 C501 1.363 . S
C504 N502 1.356 . S
C505 C499 1.363 . S
C505 C500 1.379 . S
C505 N503 1.356 . S
N506 C498 1.356 . S
N506 H512 0.984 . S
N506 H513 0.984 . S
N507 C500 1.356 . S
N507 H510 0.984 . S
N507 H511 0.985 . S
H508 N503 0.984 . S
H509 N503 0.985 . S
H510 N507 0.984 . S
H511 N507 0.985 . S
H512 N506 0.984 . S
H513 N506 0.984 . S
H514 N502 0.984 . S
H515 N502 0.985 . S
C516 C517 1.363 1_565 S
C516 C522 1.379 . S
C516 N524 1.356 1_565 S
C517 C516 1.363 1_545 S
C517 C523 1.363 1_545 S
C518 C519 1.363 . S
C518 C523 1.379 . S
C518 N525 1.356 . S
C519 C518 1.363 . S
C519 C522 1.363 . S
N520 C522 1.356 . S
N520 H532 0.984 . S
N520 H533 0.985 . S
N521 C523 1.356 . S
N521 H526 0.984 1_565 S
N521 H527 0.985 . S
C522 C516 1.379 . S
C522 C519 1.363 . S
C522 N520 1.356 . S
C523 C517 1.363 1_565 S
C523 C518 1.379 . S
C523 N521 1.356 . S
N524 C516 1.356 1_545 S
N524 H530 0.984 . S
N524 H531 0.984 . S
N525 C518 1.356 . S
N525 H528 0.984 . S
N525 H529 0.985 . S
H526 N521 0.984 1_545 S
H527 N521 0.985 . S
H528 N525 0.984 . S
H529 N525 0.985 . S
H530 N524 0.984 . S
H531 N524 0.984 . S
H532 N520 0.984 . S
H533 N520 0.985 . S
C534 C535 1.363 1_545 S
C534 C540 1.379 . S
C534 N542 1.356 1_545 S
C535 C534 1.363 1_565 S
C535 C541 1.363 1_565 S
C536 C537 1.363 . S
C536 C541 1.379 . S
C536 N543 1.356 . S
C537 C536 1.363 . S
C537 C540 1.363 . S
N538 C540 1.356 . S
N538 H550 0.984 . S
N538 H551 0.985 . S
N539 C541 1.356 . S
N539 H544 0.984 1_545 S
N539 H545 0.985 . S
C540 C534 1.379 . S
C540 C537 1.363 . S
C540 N538 1.356 . S
C541 C535 1.363 1_545 S
C541 C536 1.379 . S
C541 N539 1.356 . S
N542 C534 1.356 1_565 S
N542 H548 0.984 . S
N542 H549 0.984 . S
N543 C536 1.356 . S
N543 H546 0.984 . S
N543 H547 0.985 . S
H544 N539 0.984 1_565 S
H545 N539 0.985 . S
H546 N543 0.984 . S
H547 N543 0.985 . S
H548 N542 0.984 . S
H549 N542 0.984 . S
H550 N538 0.984 . S
H551 N538 0.985 . S
C552 C553 1.363 . S
C552 C558 1.379 . S
C552 N560 1.356 . S
C553 C552 1.363 . S
C553 C559 1.363 . S
C554 C555 1.363 . S
C554 C559 1.379 . S
C554 N561 1.356 . S
C555 C554 1.363 . S
C555 C558 1.363 . S
N556 C558 1.356 . S
N556 H568 0.984 . S
N556 H569 0.985 . S
N557 C559 1.356 . S
N557 H562 0.984 . S
N557 H563 0.985 . S
C558 C552 1.379 . S
C558 C555 1.363 . S
C558 N556 1.356 . S
C559 C553 1.363 . S
C559 C554 1.379 . S
C559 N557 1.356 . S
N560 C552 1.356 . S
N560 H566 0.984 . S
N560 H567 0.984 . S
N561 C554 1.356 . S
N561 H564 0.984 . S
N561 H565 0.985 . S
H562 N557 0.984 . S
H563 N557 0.985 . S
H564 N561 0.984 . S
H565 N561 0.985 . S
H566 N560 0.984 . S
H567 N560 0.984 . S
H568 N556 0.984 . S
H569 N556 0.985 . S
C570 C571 1.363 . S
C570 C576 1.379 . S
C570 N578 1.356 . S
C571 C570 1.363 . S
C571 C577 1.363 . S
C572 C573 1.363 . S
C572 C577 1.379 . S
C572 N579 1.356 . S
C573 C572 1.363 . S
C573 C576 1.363 . S
N574 C576 1.356 . S
N574 H586 0.984 . S
N574 H587 0.985 . S
N575 C577 1.356 . S
N575 H580 0.984 . S
N575 H581 0.985 . S
C576 C570 1.379 . S
C576 C573 1.363 . S
C576 N574 1.356 . S
C577 C571 1.363 . S
C577 C572 1.379 . S
C577 N575 1.356 . S
N578 C570 1.356 . S
N578 H584 0.984 . S
N578 H585 0.984 . S
N579 C572 1.356 . S
N579 H582 0.984 . S
N579 H583 0.985 . S
H580 N575 0.984 . S
H581 N575 0.985 . S
H582 N579 0.984 . S
H583 N579 0.985 . S
H584 N578 0.984 . S
H585 N578 0.984 . S
H586 N574 0.984 . S
H587 N574 0.985 . S
C588 C589 1.363 1_545 S
C588 C594 1.379 . S
C588 N596 1.356 1_545 S
C589 C588 1.363 1_565 S
C589 C595 1.363 1_565 S
C590 C591 1.363 . S
C590 C595 1.379 . S
C590 N597 1.356 . S
C591 C590 1.363 . S
C591 C594 1.363 . S
N592 C594 1.356 . S
N592 H604 0.984 . S
N592 H605 0.985 . S
N593 C595 1.356 1_565 S
N593 H598 0.984 . S
N593 H599 0.985 . S
C594 C588 1.379 . S
C594 C591 1.363 . S
C594 N592 1.356 . S
C595 C589 1.363 1_545 S
C595 C590 1.379 . S
C595 N593 1.356 1_545 S
N596 C588 1.356 1_565 S
N596 H602 0.984 1_565 S
N596 H603 0.984 . S
N597 C590 1.356 . S
N597 H600 0.984 . S
N597 H601 0.985 . S
H598 N593 0.984 . S
H599 N593 0.985 . S
H600 N597 0.984 . S
H601 N597 0.985 . S
H602 N596 0.984 1_545 S
H603 N596 0.984 . S
H604 N592 0.984 . S
H605 N592 0.985 . S
C606 C607 1.363 . S
C606 C612 1.379 . S
C606 N614 1.356 . S
C607 C606 1.363 . S
C607 C613 1.363 . S
C608 C609 1.363 1_565 S
C608 C613 1.379 . S
C608 N615 1.356 . S
C609 C608 1.363 1_545 S
C609 C612 1.363 1_545 S
N610 C612 1.356 1_545 S
N610 H622 0.984 . S
N610 H623 0.985 . S
N611 C613 1.356 . S
N611 H616 0.984 . S
N611 H617 0.985 . S
C612 C606 1.379 . S
C612 C609 1.363 1_565 S
C612 N610 1.356 1_565 S
C613 C607 1.363 . S
C613 C608 1.379 . S
C613 N611 1.356 . S
N614 C606 1.356 . S
N614 H620 0.984 . S
N614 H621 0.984 . S
N615 C608 1.356 . S
N615 H618 0.984 1_565 S
N615 H619 0.985 . S
H616 N611 0.984 . S
H617 N611 0.985 . S
H618 N615 0.984 1_545 S
H619 N615 0.985 . S
H620 N614 0.984 . S
H621 N614 0.984 . S
H622 N610 0.984 . S
H623 N610 0.985 . S
C265 C17 1.542 . S
C267 C50 1.542 . S
C283 C116 1.542 . S
C285 C83 1.542 . S
C301 C149 1.542 . S
C303 C182 1.542 . S
C319 C248 1.542 . S
C321 C215 1.542 . S
C337 C28 1.163 . S
C339 C160 1.163 . S
C355 C61 1.163 . S
C357 C193 1.163 . S
C373 C94 1.163 . S
C375 C226 1.163 . S
C391 C127 1.163 . S
C393 C259 1.163 . S
C409 C74 1.487 . S
C411 C8 1.487 . S
C427 C107 1.487 . S
C429 C41 1.487 . S
C445 C140 1.487 . S
C447 C206 1.487 . S
C463 C173 1.487 . S
C465 C239 1.487 . S
C481 N5 1.447 . S
C483 N14 1.448 . S
C499 N38 1.447 . S
C501 N47 1.448 . S
C517 N80 1.448 . S
C519 N71 1.447 . S
C535 N113 1.448 . S
C537 N104 1.447 . S
C553 N146 1.448 . S
C555 N137 1.447 . S
C571 N170 1.447 . S
C573 N179 1.448 . S
C589 N212 1.448 . S
C591 N203 1.447 . S
C607 N236 1.447 . S
C609 N245 1.448 . S
