# Generated by pormake.
# Topology umw, (4)-cn, num edge types: 1
# Building blocks:
#     Node 0, Type 0, BuildingBlock: UXUYUI_clean_sbu_0, # of connection points: 4
#     Node 1, Type 0, BuildingBlock: UXUYUI_clean_sbu_0, # of connection points: 4
#     Node 2, Type 0, BuildingBlock: UXUYUI_clean_sbu_0, # of connection points: 4
#     Node 3, Type 0, BuildingBlock: UXUYUI_clean_sbu_0, # of connection points: 4
#     Node 4, Type 0, BuildingBlock: UXUYUI_clean_sbu_0, # of connection points: 4
#     Node 5, Type 0, BuildingBlock: UXUYUI_clean_sbu_0, # of connection points: 4
#     Node 6, Type 0, BuildingBlock: UXUYUI_clean_sbu_0, # of connection points: 4
#     Node 7, Type 0, BuildingBlock: UXUYUI_clean_sbu_0, # of connection points: 4
#     Edge 8, Type (0, 0), BuildingBlock: EZIPEK_clean_linker_0, # of connection points: 2
#     Edge 9, Type (0, 0), BuildingBlock: EZIPEK_clean_linker_0, # of connection points: 2
#     Edge 10, Type (0, 0), BuildingBlock: EZIPEK_clean_linker_0, # of connection points: 2
#     Edge 11, Type (0, 0), BuildingBlock: EZIPEK_clean_linker_0, # of connection points: 2
#     Edge 12, Type (0, 0), BuildingBlock: EZIPEK_clean_linker_0, # of connection points: 2
#     Edge 13, Type (0, 0), BuildingBlock: EZIPEK_clean_linker_0, # of connection points: 2
#     Edge 14, Type (0, 0), BuildingBlock: EZIPEK_clean_linker_0, # of connection points: 2
#     Edge 15, Type (0, 0), BuildingBlock: EZIPEK_clean_linker_0, # of connection points: 2
#     Edge 16, Type (0, 0), BuildingBlock: EZIPEK_clean_linker_0, # of connection points: 2
#     Edge 17, Type (0, 0), BuildingBlock: EZIPEK_clean_linker_0, # of connection points: 2
#     Edge 18, Type (0, 0), BuildingBlock: EZIPEK_clean_linker_0, # of connection points: 2
#     Edge 19, Type (0, 0), BuildingBlock: EZIPEK_clean_linker_0, # of connection points: 2
#     Edge 20, Type (0, 0), BuildingBlock: EZIPEK_clean_linker_0, # of connection points: 2
#     Edge 21, Type (0, 0), BuildingBlock: EZIPEK_clean_linker_0, # of connection points: 2
#     Edge 22, Type (0, 0), BuildingBlock: EZIPEK_clean_linker_0, # of connection points: 2
#     Edge 23, Type (0, 0), BuildingBlock: EZIPEK_clean_linker_0, # of connection points: 2
# Relax obj value: 0.239
# Max RMSD: 0.148
# Mean RMSD: 0.148
data_MOF--net-umw--node1-UXUYUI_clean_sbu_0--edge1-EZIPEK_clean_linker_0
_symmetry_space_group_name_H-M    P1
_symmetry_Int_Tables_number       1
_symmetry_cell_setting            triclinic
loop_
_symmetry_equiv_pos_as_xyz
'x, y, z'
_cell_length_a     51.684049
_cell_length_b     51.687195
_cell_length_c     28.610059
_cell_angle_alpha  89.977223
_cell_angle_beta   90.003129
_cell_angle_gamma 89.995654
loop_
_atom_site_label
_atom_site_type_symbol
_atom_site_fract_x
_atom_site_fract_y
_atom_site_fract_z
_atom_type_partial_charge
Li0 Li 0.38704 0.144 0.27074 0.0
Li1 Li 0.41723 0.17305 0.31975 0.0
Li2 Li 0.37781 0.18951 0.28525 0.0
Li3 Li 0.41322 0.17935 0.23544 0.0
C4 C 0.36209 0.1646 0.36351 0.0
N5 N 0.32275 0.17198 0.42747 0.0
C6 C 0.36644 0.17932 0.4037 0.0
C7 C 0.33784 0.1534 0.35607 0.0
C8 C 0.34626 0.18293 0.43552 0.0
C9 C 0.31816 0.15744 0.38874 0.0
C10 C 0.44634 0.13885 0.24645 0.0
C11 C 0.49244 0.13749 0.23402 0.0
N12 N 0.48894 0.11948 0.19994 0.0
C13 C 0.44315 0.12046 0.21114 0.0
C14 C 0.47114 0.14755 0.25792 0.0
C15 C 0.46495 0.11091 0.188 0.0
C16 C 0.3704 0.09681 0.2268 0.0
N17 N 0.37653 0.10892 0.26753 0.0
C18 C 0.37401 0.06912 0.3097 0.0
C19 C 0.37806 0.09577 0.30858 0.0
C20 C 0.3684 0.05598 0.26812 0.0
C21 C 0.36605 0.07008 0.22636 0.0
H22 H 0.36972 0.10774 0.19457 0.0
H23 H 0.38332 0.10592 0.34024 0.0
C24 C 0.44059 0.19523 0.39792 0.0
N25 N 0.4392 0.1734 0.3716 0.0
C26 C 0.45609 0.19574 0.43778 0.0
C27 C 0.46875 0.15147 0.42185 0.0
C28 C 0.45279 0.15173 0.38258 0.0
C29 C 0.47029 0.17364 0.44985 0.0
H30 H 0.42941 0.21208 0.38814 0.0
H31 H 0.45109 0.13466 0.36092 0.0
C32 C 0.35259 0.17208 0.20318 0.0
N33 N 0.30471 0.17521 0.16053 0.0
C34 C 0.34832 0.19003 0.16745 0.0
C35 C 0.33265 0.15537 0.21657 0.0
C36 C 0.32393 0.19143 0.14654 0.0
C37 C 0.30856 0.15733 0.19473 0.0
C38 C 0.41393 0.23002 0.26746 0.0
C39 C 0.39634 0.23766 0.23309 0.0
C40 C 0.43272 0.24742 0.28305 0.0
C41 C 0.39788 0.26264 0.21466 0.0
C42 C 0.43367 0.27223 0.26372 0.0
N43 N 0.41637 0.27926 0.23021 0.0
C44 C 0.35972 0.23045 0.33762 0.0
C45 C 0.32619 0.21325 0.29042 0.0
C46 C 0.34239 0.24714 0.35964 0.0
N47 N 0.35142 0.21372 0.30407 0.0
C48 C 0.30817 0.22987 0.31131 0.0
C49 C 0.31626 0.24676 0.34684 0.0
H50 H 0.37972 0.2301 0.34863 0.0
H51 H 0.31977 0.19959 0.26446 0.0
C52 C 0.42897 0.177 0.14012 0.0
N53 N 0.43457 0.18719 0.18275 0.0
C54 C 0.44644 0.17973 0.10308 0.0
C55 C 0.47469 0.20404 0.15418 0.0
C56 C 0.45677 0.20073 0.19024 0.0
C57 C 0.46977 0.19305 0.11029 0.0
H58 H 0.41139 0.16593 0.13541 0.0
H59 H 0.46104 0.20807 0.22476 0.0
O60 O 0.38159 0.16092 0.33186 0.0
O61 O 0.42531 0.14797 0.27023 0.0
O62 O 0.37647 0.17018 0.22351 0.0
O63 O 0.41285 0.20566 0.28601 0.0
H64 H 0.38512 0.18804 0.41008 0.0
H65 H 0.33426 0.14165 0.32553 0.0
H66 H 0.34928 0.19444 0.46662 0.0
H67 H 0.29926 0.14896 0.38336 0.0
H68 H 0.51177 0.14401 0.24253 0.0
H69 H 0.42406 0.11361 0.20181 0.0
H70 H 0.47388 0.1619 0.28502 0.0
H71 H 0.46281 0.09663 0.16064 0.0
H72 H 0.37607 0.05871 0.34236 0.0
H73 H 0.36185 0.06036 0.1937 0.0
H74 H 0.45701 0.21308 0.45898 0.0
H75 H 0.47955 0.13418 0.43063 0.0
H76 H 0.36372 0.20264 0.15571 0.0
H77 H 0.33569 0.1411 0.24357 0.0
H78 H 0.32032 0.20533 0.11903 0.0
H79 H 0.29291 0.14464 0.20497 0.0
H80 H 0.38156 0.2245 0.22106 0.0
H81 H 0.44648 0.24176 0.30971 0.0
H82 H 0.38435 0.26882 0.18805 0.0
H83 H 0.44816 0.28589 0.27537 0.0
H84 H 0.34921 0.25989 0.38705 0.0
H85 H 0.28806 0.22913 0.30075 0.0
H86 H 0.44223 0.17088 0.06963 0.0
H87 H 0.49263 0.21422 0.16086 0.0
Li88 Li 0.82858 0.41632 0.55717 0.0
Li89 Li 0.85756 0.38326 0.51713 0.0
Li90 Li 0.82198 0.40808 0.47327 0.0
Li91 Li 0.8121 0.37513 0.5308 0.0
C92 C 0.86659 0.44403 0.50583 0.0
N93 N 0.89334 0.49032 0.50681 0.0
C94 C 0.89265 0.44459 0.5189 0.0
C95 C 0.85424 0.46696 0.4927 0.0
C96 C 0.9058 0.4682 0.51935 0.0
C97 C 0.86806 0.49018 0.49355 0.0
C98 C 0.83646 0.36462 0.61279 0.0
C99 C 0.84443 0.32296 0.64783 0.0
N100 N 0.82982 0.32999 0.68529 0.0
C101 C 0.82148 0.37143 0.65152 0.0
C102 C 0.84811 0.34025 0.61088 0.0
C103 C 0.81841 0.35367 0.68789 0.0
C104 C 0.80485 0.44528 0.62771 0.0
N105 N 0.82789 0.4404 0.60652 0.0
C106 C 0.85032 0.46638 0.66225 0.0
C107 C 0.85043 0.45041 0.62301 0.0
C108 C 0.82683 0.47157 0.68474 0.0
C109 C 0.80386 0.46105 0.66717 0.0
H110 H 0.78737 0.43631 0.61474 0.0
H111 H 0.86855 0.44537 0.60661 0.0
C112 C 0.90489 0.3658 0.47656 0.0
N113 N 0.89235 0.37199 0.51681 0.0
C114 C 0.93158 0.36125 0.47715 0.0
C115 C 0.93155 0.36888 0.56062 0.0
C116 C 0.90495 0.37319 0.55846 0.0
C117 C 0.94515 0.36337 0.51949 0.0
H118 H 0.89436 0.36537 0.44389 0.0
H119 H 0.8945 0.3786 0.5897 0.0
C120 C 0.77603 0.42596 0.51426 0.0
N121 N 0.73599 0.45939 0.49312 0.0
C122 C 0.75188 0.41621 0.50103 0.0
C123 C 0.77974 0.45269 0.51715 0.0
C124 C 0.7319 0.43344 0.4904 0.0
C125 C 0.75928 0.46928 0.50619 0.0
C126 C 0.81847 0.35018 0.45126 0.0
C127 C 0.79281 0.35358 0.43714 0.0
C128 C 0.83031 0.32605 0.44625 0.0
C129 C 0.77924 0.33254 0.41877 0.0
C130 C 0.81609 0.3055 0.42763 0.0
N131 N 0.79105 0.30914 0.41446 0.0
C132 C 0.83788 0.43494 0.39402 0.0
C133 C 0.79218 0.43329 0.39993 0.0
C134 C 0.83627 0.45225 0.35665 0.0
N135 N 0.81606 0.42646 0.41579 0.0
C136 C 0.78966 0.45073 0.36276 0.0
C137 C 0.81195 0.46077 0.34153 0.0
H138 H 0.85664 0.4291 0.40701 0.0
H139 H 0.77507 0.42592 0.41683 0.0
C140 C 0.7672 0.35782 0.57547 0.0
N141 N 0.78865 0.34896 0.55303 0.0
C142 C 0.75079 0.34069 0.59881 0.0
C143 C 0.77876 0.30547 0.57571 0.0
C144 C 0.79466 0.32331 0.55272 0.0
C145 C 0.7567 0.31425 0.59945 0.0
H146 H 0.76338 0.37835 0.57688 0.0
H147 H 0.81237 0.3168 0.53651 0.0
O148 O 0.85348 0.42103 0.50496 0.0
O149 O 0.84011 0.38191 0.57727 0.0
O150 O 0.79579 0.40932 0.52471 0.0
O151 O 0.83192 0.37044 0.46987 0.0
H152 H 0.9026 0.42701 0.52878 0.0
H153 H 0.83428 0.46684 0.48144 0.0
H154 H 0.92594 0.46894 0.52962 0.0
H155 H 0.85873 0.50806 0.48348 0.0
H156 H 0.85322 0.30397 0.64677 0.0
H157 H 0.81236 0.39024 0.65349 0.0
H158 H 0.85975 0.33472 0.58105 0.0
H159 H 0.80687 0.35865 0.71812 0.0
H160 H 0.86835 0.47406 0.67565 0.0
H161 H 0.78552 0.46459 0.68436 0.0
H162 H 0.94169 0.35716 0.44483 0.0
H163 H 0.94158 0.37081 0.59368 0.0
H164 H 0.74869 0.39556 0.4985 0.0
H165 H 0.79813 0.46055 0.52806 0.0
H166 H 0.71315 0.42618 0.47987 0.0
H167 H 0.76191 0.49001 0.50818 0.0
H168 H 0.78345 0.37221 0.44074 0.0
H169 H 0.8502 0.3232 0.45699 0.0
H170 H 0.75931 0.33481 0.40798 0.0
H171 H 0.82492 0.28665 0.42376 0.0
H172 H 0.85381 0.45962 0.34075 0.0
H173 H 0.77061 0.45684 0.35149 0.0
H174 H 0.73404 0.34805 0.61727 0.0
H175 H 0.78396 0.28517 0.57614 0.0
Li176 Li 0.5867 0.8292 0.80905 0.0
Li177 Li 0.61904 0.85726 0.76742 0.0
Li178 Li 0.59155 0.82315 0.72665 0.0
Li179 Li 0.62596 0.81068 0.77831 0.0
C180 C 0.56045 0.86905 0.77836 0.0
N181 N 0.52024 0.89604 0.81939 0.0
C182 C 0.56454 0.89395 0.79592 0.0
C183 C 0.53579 0.85802 0.78118 0.0
C184 C 0.54399 0.90726 0.81658 0.0
C185 C 0.51576 0.87191 0.80225 0.0
C186 C 0.63795 0.83262 0.86277 0.0
C187 C 0.67869 0.83663 0.90319 0.0
N188 N 0.66931 0.8216 0.93835 0.0
C189 C 0.62881 0.81698 0.89903 0.0
C190 C 0.66311 0.84247 0.86471 0.0
C191 C 0.64492 0.81174 0.93707 0.0
C192 C 0.54905 0.80866 0.87026 0.0
N193 N 0.56447 0.82936 0.86122 0.0
C194 C 0.54995 0.85087 0.93012 0.0
C195 C 0.5654 0.85015 0.89025 0.0
C196 C 0.53387 0.8298 0.9401 0.0
C197 C 0.53339 0.80849 0.90992 0.0
H198 H 0.54922 0.79216 0.84709 0.0
H199 H 0.57831 0.86605 0.88253 0.0
C200 C 0.63103 0.90515 0.72533 0.0
N201 N 0.63218 0.89143 0.76583 0.0
C202 C 0.63558 0.9318 0.72565 0.0
C203 C 0.6435 0.92936 0.80891 0.0
C204 C 0.63869 0.90282 0.80703 0.0
C205 C 0.64129 0.94414 0.76807 0.0
H206 H 0.62521 0.89563 0.69334 0.0
H207 H 0.63859 0.89161 0.83892 0.0
C208 C 0.57808 0.77683 0.75266 0.0
N209 N 0.55264 0.73853 0.70334 0.0
C210 C 0.59203 0.75648 0.7326 0.0
C211 C 0.55117 0.77761 0.74779 0.0
C212 C 0.57881 0.7373 0.70784 0.0
C213 C 0.53868 0.75811 0.72262 0.0
C214 C 0.65234 0.82278 0.70158 0.0
C215 C 0.65426 0.79788 0.68294 0.0
C216 C 0.67405 0.83888 0.70234 0.0
C217 C 0.67811 0.7893 0.66595 0.0
C218 C 0.69754 0.82961 0.68488 0.0
N219 N 0.69907 0.80521 0.66728 0.0
C220 C 0.55206 0.83435 0.66274 0.0
C221 C 0.57618 0.79734 0.64059 0.0
C222 C 0.53534 0.83105 0.62498 0.0
N223 N 0.57175 0.8174 0.67043 0.0
C224 C 0.55972 0.79318 0.60238 0.0
C225 C 0.53893 0.81012 0.59471 0.0
H226 H 0.54916 0.85046 0.6861 0.0
H227 H 0.5922 0.78436 0.64679 0.0
C228 C 0.64328 0.76445 0.81917 0.0
N229 N 0.65209 0.78624 0.79772 0.0
C230 C 0.66047 0.74757 0.8413 0.0
C231 C 0.69566 0.77583 0.81927 0.0
C232 C 0.67777 0.79215 0.79739 0.0
C233 C 0.68693 0.75342 0.84198 0.0
H234 H 0.62273 0.76071 0.82091 0.0
H235 H 0.68429 0.81015 0.78235 0.0
O236 O 0.58048 0.85546 0.75883 0.0
O237 O 0.62219 0.83869 0.82598 0.0
O238 O 0.59069 0.79593 0.77672 0.0
O239 O 0.62923 0.83152 0.71849 0.0
H240 H 0.58338 0.90291 0.79391 0.0
H241 H 0.53224 0.8388 0.76775 0.0
H242 H 0.54694 0.9265 0.83048 0.0
H243 H 0.49666 0.86349 0.80507 0.0
H244 H 0.69821 0.84408 0.90514 0.0
H245 H 0.60947 0.80901 0.89792 0.0
H246 H 0.67055 0.85441 0.83667 0.0
H247 H 0.63807 0.79975 0.96549 0.0
H248 H 0.55074 0.86746 0.95321 0.0
H249 H 0.52122 0.79192 0.91723 0.0
H250 H 0.63346 0.94287 0.69372 0.0
H251 H 0.6475 0.9385 0.8422 0.0
H252 H 0.61286 0.75562 0.73565 0.0
H253 H 0.54007 0.79324 0.76283 0.0
H254 H 0.58937 0.72151 0.69199 0.0
H255 H 0.51789 0.75859 0.71833 0.0
H256 H 0.63757 0.78527 0.68189 0.0
H257 H 0.6728 0.85825 0.71654 0.0
H258 H 0.67995 0.77001 0.6517 0.0
H259 H 0.71456 0.84178 0.68543 0.0
H260 H 0.5196 0.84457 0.61963 0.0
H261 H 0.56307 0.77695 0.57923 0.0
H262 H 0.65314 0.73058 0.85907 0.0
H263 H 0.71595 0.78103 0.81983 0.0
Li264 Li 0.14668 0.61585 0.02345 0.0
Li265 Li 0.17295 0.58506 0.06486 0.0
Li266 Li 0.19223 0.62397 0.03393 0.0
Li267 Li 0.1783 0.59016 0.98164 0.0
C268 C 0.16135 0.64512 0.10136 0.0
N269 N 0.15469 0.69399 0.13861 0.0
C270 C 0.16245 0.64884 0.1497 0.0
C271 C 0.15687 0.66627 0.07195 0.0
C272 C 0.15902 0.67369 0.16785 0.0
C273 C 0.15354 0.69081 0.09147 0.0
C274 C 0.12516 0.56729 0.034 0.0
C275 C 0.08801 0.53928 0.02735 0.0
N276 N 0.08031 0.54649 0.0709 0.0
C277 C 0.11687 0.57441 0.07872 0.0
C278 C 0.11063 0.54957 0.00811 0.0
C279 C 0.09416 0.56369 0.09673 0.0
C280 C 0.09906 0.62699 0.97992 0.0
N281 N 0.11196 0.62859 0.02126 0.0
C282 C 0.07284 0.63912 0.06162 0.0
C283 C 0.09949 0.63491 0.0616 0.0
C284 C 0.05897 0.63651 0.01988 0.0
C285 C 0.07231 0.63094 0.9784 0.0
H286 H 0.10935 0.62128 0.94865 0.0
H287 H 0.10985 0.63512 0.09435 0.0
C288 C 0.18363 0.57213 0.1568 0.0
N289 N 0.17435 0.56218 0.11619 0.0
C290 C 0.18413 0.55702 0.19712 0.0
C291 C 0.16623 0.52144 0.15256 0.0
C292 C 0.16595 0.5373 0.11313 0.0
C293 C 0.17517 0.53148 0.19509 0.0
H294 H 0.19037 0.59192 0.15786 0.0
H295 H 0.1587 0.5299 0.08031 0.0
C296 C 0.18743 0.63761 0.94036 0.0
N297 N 0.21921 0.65636 0.87045 0.0
C298 C 0.21368 0.63105 0.93959 0.0
C299 C 0.17737 0.65372 0.90561 0.0
C300 C 0.22941 0.64072 0.90394 0.0
C301 C 0.19374 0.66301 0.87055 0.0
C302 C 0.21829 0.56483 0.02941 0.0
C303 C 0.24461 0.56338 0.0402 0.0
C304 C 0.20475 0.54228 0.018 0.0
C305 C 0.257 0.53936 0.03927 0.0
C306 C 0.21783 0.51864 0.01737 0.0
N307 N 0.24347 0.51768 0.02794 0.0
C308 C 0.23134 0.64148 0.09017 0.0
C309 C 0.21937 0.67322 0.03424 0.0
C310 C 0.24799 0.65886 0.11217 0.0
N311 N 0.21734 0.64893 0.05227 0.0
C312 C 0.236 0.69124 0.05504 0.0
C313 C 0.25023 0.68411 0.09487 0.0
H314 H 0.22885 0.62221 0.10424 0.0
H315 H 0.2075 0.67884 0.00481 0.0
C316 C 0.16314 0.56175 0.90303 0.0
N317 N 0.18442 0.57113 0.92523 0.0
C318 C 0.16578 0.54466 0.86553 0.0
C319 C 0.21227 0.54789 0.8732 0.0
C320 C 0.20873 0.565 0.91056 0.0
C321 C 0.19057 0.53722 0.85094 0.0
H322 H 0.14408 0.56697 0.91542 0.0
H323 H 0.22536 0.5726 0.92891 0.0
O324 O 0.16557 0.62102 0.08305 0.0
O325 O 0.14729 0.57761 0.01533 0.0
O326 O 0.17147 0.6284 0.9747 0.0
O327 O 0.20602 0.58829 0.03021 0.0
H328 H 0.16601 0.63271 0.17295 0.0
H329 H 0.15612 0.66384 0.03445 0.0
H330 H 0.15986 0.67686 0.2052 0.0
H331 H 0.15012 0.70735 0.06912 0.0
H332 H 0.07657 0.52557 0.00765 0.0
H333 H 0.12781 0.58806 0.0994 0.0
H334 H 0.11676 0.54378 0.97349 0.0
H335 H 0.08753 0.56906 0.13126 0.0
H336 H 0.06293 0.64301 0.09424 0.0
H337 H 0.06197 0.62852 0.94577 0.0
H338 H 0.19118 0.56517 0.22959 0.0
H339 H 0.15923 0.50173 0.15019 0.0
H340 H 0.22192 0.61872 0.96618 0.0
H341 H 0.15709 0.65898 0.90574 0.0
H342 H 0.24975 0.6358 0.90293 0.0
H343 H 0.18621 0.67549 0.84342 0.0
H344 H 0.25534 0.58067 0.04917 0.0
H345 H 0.18439 0.54298 0.00945 0.0
H346 H 0.27738 0.53796 0.04752 0.0
H347 H 0.20761 0.50107 0.00843 0.0
H348 H 0.25864 0.65284 0.14292 0.0
H349 H 0.2373 0.71067 0.04106 0.0
H350 H 0.1487 0.53678 0.84887 0.0
H351 H 0.23164 0.5425 0.86256 0.0
Li352 Li 0.41015 0.82095 0.31749 0.0
Li353 Li 0.37652 0.81299 0.26055 0.0
Li354 Li 0.41755 0.83088 0.23665 0.0
Li355 Li 0.38767 0.85677 0.28113 0.0
C356 C 0.40794 0.77142 0.27873 0.0
N357 N 0.40102 0.72084 0.30739 0.0
C358 C 0.39312 0.76596 0.31842 0.0
C359 C 0.41918 0.75117 0.25359 0.0
C360 C 0.38987 0.74026 0.33235 0.0
C361 C 0.41548 0.72572 0.26866 0.0
C362 C 0.34698 0.8356 0.33096 0.0
C363 C 0.30478 0.84729 0.30179 0.0
N364 N 0.2955 0.84727 0.34628 0.0
C365 C 0.33703 0.83568 0.37636 0.0
C366 C 0.33074 0.84143 0.29332 0.0
C367 C 0.31095 0.84164 0.3834 0.0
C368 C 0.42564 0.82626 0.41136 0.0
N369 N 0.42844 0.81097 0.37301 0.0
C370 C 0.46421 0.78897 0.40832 0.0
C371 C 0.4469 0.79219 0.37124 0.0
C372 C 0.4624 0.80522 0.44734 0.0
C373 C 0.44249 0.82362 0.44932 0.0
H374 H 0.41124 0.84145 0.41133 0.0
H375 H 0.4493 0.78077 0.33991 0.0
C376 C 0.35071 0.78816 0.18955 0.0
N377 N 0.35063 0.79018 0.23692 0.0
C378 C 0.33362 0.77146 0.167 0.0
C379 C 0.31673 0.75881 0.24247 0.0
C380 C 0.33406 0.77604 0.26367 0.0
C381 C 0.31654 0.75641 0.19354 0.0
H382 H 0.3644 0.79932 0.16929 0.0
H383 H 0.33456 0.77787 0.30132 0.0
C384 C 0.45152 0.85322 0.29991 0.0
N385 N 0.50407 0.85359 0.31805 0.0
C386 C 0.46317 0.87513 0.31931 0.0
C387 C 0.46665 0.8315 0.28971 0.0
C388 C 0.48975 0.87494 0.32824 0.0
C389 C 0.49315 0.83206 0.29917 0.0
C390 C 0.38458 0.86106 0.18411 0.0
C391 C 0.40236 0.88128 0.18888 0.0
C392 C 0.3687 0.86004 0.14461 0.0
C393 C 0.40399 0.90011 0.15399 0.0
C394 C 0.37092 0.87925 0.11047 0.0
N395 N 0.38838 0.89871 0.11582 0.0
C396 C 0.43807 0.81131 0.15473 0.0
C397 C 0.45871 0.84997 0.17973 0.0
C398 C 0.45339 0.81053 0.11467 0.0
N399 N 0.44098 0.83083 0.18608 0.0
C400 C 0.47454 0.84986 0.14029 0.0
C401 C 0.47172 0.83004 0.10734 0.0
H402 H 0.42354 0.7966 0.16061 0.0
H403 H 0.46027 0.86553 0.20478 0.0
C404 C 0.39023 0.90732 0.31595 0.0
N405 N 0.37591 0.89156 0.28811 0.0
C406 C 0.38644 0.93406 0.31476 0.0
C407 C 0.35222 0.92772 0.25825 0.0
C408 C 0.35662 0.90108 0.26061 0.0
C409 C 0.36776 0.94446 0.28463 0.0
H410 H 0.40549 0.89922 0.33725 0.0
H411 H 0.34572 0.8882 0.23832 0.0
O412 O 0.41111 0.79636 0.26378 0.0
O413 O 0.37251 0.82976 0.32384 0.0
O414 O 0.42546 0.85319 0.29108 0.0
O415 O 0.38263 0.84224 0.21765 0.0
H416 H 0.38418 0.78134 0.33827 0.0
H417 H 0.43062 0.75509 0.22268 0.0
H418 H 0.37845 0.73576 0.36298 0.0
H419 H 0.42406 0.70985 0.24952 0.0
H420 H 0.292 0.85183 0.27299 0.0
H421 H 0.34936 0.83119 0.40586 0.0
H422 H 0.33798 0.84141 0.25791 0.0
H423 H 0.303 0.84179 0.41837 0.0
H424 H 0.47958 0.7748 0.40567 0.0
H425 H 0.44083 0.83661 0.47887 0.0
H426 H 0.33403 0.76991 0.12924 0.0
H427 H 0.30382 0.74731 0.26386 0.0
H428 H 0.45183 0.89214 0.32733 0.0
H429 H 0.45808 0.81437 0.27458 0.0
H430 H 0.499 0.89176 0.34328 0.0
H431 H 0.50504 0.81538 0.2915 0.0
H432 H 0.41473 0.88254 0.21925 0.0
H433 H 0.35476 0.84459 0.14041 0.0
H434 H 0.41766 0.91585 0.15728 0.0
H435 H 0.35876 0.87868 0.07972 0.0
H436 H 0.45085 0.79508 0.08951 0.0
H437 H 0.48851 0.86521 0.13511 0.0
H438 H 0.39878 0.94658 0.33539 0.0
H439 H 0.33777 0.93527 0.23446 0.0
Li440 Li 0.17902 0.40816 0.57464 0.0
Li441 Li 0.18878 0.37406 0.51365 0.0
Li442 Li 0.17004 0.41478 0.49271 0.0
Li443 Li 0.14382 0.38393 0.53438 0.0
C444 C 0.21933 0.42522 0.49664 0.0
N445 N 0.24769 0.45874 0.44151 0.0
C446 C 0.23336 0.41582 0.45848 0.0
C447 C 0.21994 0.45164 0.50704 0.0
C448 C 0.24752 0.43309 0.43096 0.0
C449 C 0.23433 0.46828 0.47866 0.0
C450 C 0.16647 0.3439 0.58499 0.0
C451 C 0.15604 0.30115 0.55698 0.0
N452 N 0.1565 0.2922 0.60169 0.0
C453 C 0.16683 0.3343 0.63064 0.0
C454 C 0.16102 0.32722 0.54782 0.0
C455 C 0.16174 0.30809 0.63837 0.0
C456 C 0.16813 0.42741 0.66359 0.0
N457 N 0.18752 0.4252 0.63169 0.0
C458 C 0.21356 0.45537 0.67419 0.0
C459 C 0.21021 0.43826 0.63677 0.0
C460 C 0.19334 0.45889 0.7063 0.0
C461 C 0.17069 0.44423 0.70151 0.0
H462 H 0.15012 0.4172 0.65805 0.0
H463 H 0.22513 0.43643 0.61049 0.0
C464 C 0.21061 0.34517 0.4428 0.0
N465 N 0.21181 0.34838 0.48992 0.0
C466 C 0.22714 0.32789 0.42033 0.0
C467 C 0.24605 0.31737 0.4953 0.0
C468 C 0.22895 0.33485 0.5165 0.0
C469 C 0.24525 0.31395 0.44659 0.0
H470 H 0.19717 0.35654 0.42245 0.0
H471 H 0.22957 0.33789 0.55389 0.0
C472 C 0.13598 0.44532 0.54995 0.0
N473 N 0.11336 0.49357 0.55907 0.0
C474 C 0.11035 0.44928 0.53589 0.0
C475 C 0.14996 0.46592 0.56914 0.0
C476 C 0.09931 0.47381 0.54061 0.0
C477 C 0.13822 0.49015 0.57334 0.0
C478 C 0.14015 0.37966 0.43855 0.0
C479 C 0.12207 0.39972 0.43629 0.0
C480 C 0.13826 0.35893 0.40737 0.0
C481 C 0.10235 0.39871 0.40298 0.0
C482 C 0.11826 0.35861 0.37452 0.0
N483 N 0.10085 0.37833 0.37304 0.0
C484 C 0.17798 0.42793 0.40018 0.0
C485 C 0.16485 0.46419 0.44513 0.0
C486 C 0.17907 0.44299 0.35988 0.0
N487 N 0.1707 0.4386 0.44161 0.0
C488 C 0.1658 0.48002 0.40567 0.0
C489 C 0.17282 0.46927 0.36257 0.0
H490 H 0.183 0.40765 0.39851 0.0
H491 H 0.15965 0.47245 0.4783 0.0
C492 C 0.09352 0.38518 0.56989 0.0
N493 N 0.10933 0.37148 0.54112 0.0
C494 C 0.06683 0.38117 0.56874 0.0
C495 C 0.07338 0.34767 0.51091 0.0
C496 C 0.09998 0.35227 0.5133 0.0
C497 C 0.05655 0.36282 0.53783 0.0
H498 H 0.1015 0.40027 0.59173 0.0
H499 H 0.11296 0.34149 0.49104 0.0
O500 O 0.20471 0.40872 0.52313 0.0
O501 O 0.17137 0.36953 0.57702 0.0
O502 O 0.14692 0.42123 0.54646 0.0
O503 O 0.15936 0.37996 0.47153 0.0
H504 H 0.23314 0.39546 0.44993 0.0
H505 H 0.20916 0.45927 0.5363 0.0
H506 H 0.25832 0.4261 0.40114 0.0
H507 H 0.2348 0.48879 0.48607 0.0
H508 H 0.1518 0.28803 0.52854 0.0
H509 H 0.17099 0.34699 0.65979 0.0
H510 H 0.16061 0.33426 0.51225 0.0
H511 H 0.16195 0.30039 0.67353 0.0
H512 H 0.23122 0.46653 0.67699 0.0
H513 H 0.15473 0.44668 0.72565 0.0
H514 H 0.22617 0.32577 0.3827 0.0
H515 H 0.25993 0.30689 0.51643 0.0
H516 H 0.09899 0.43361 0.52158 0.0
H517 H 0.16977 0.46343 0.58009 0.0
H518 H 0.07954 0.47712 0.52972 0.0
H519 H 0.1489 0.50626 0.58782 0.0
H520 H 0.12332 0.41593 0.45987 0.0
H521 H 0.15192 0.34308 0.40888 0.0
H522 H 0.08822 0.41412 0.40096 0.0
H523 H 0.11652 0.34264 0.35031 0.0
H524 H 0.18469 0.43427 0.32698 0.0
H525 H 0.16105 0.50037 0.40861 0.0
H526 H 0.05424 0.39315 0.58988 0.0
H527 H 0.06592 0.33338 0.48672 0.0
Li528 Li 0.6291 0.18957 0.77226 0.0
Li529 Li 0.59526 0.17737 0.82529 0.0
Li530 Li 0.62186 0.14308 0.78297 0.0
Li531 Li 0.58924 0.17164 0.74299 0.0
C532 C 0.65609 0.17741 0.84819 0.0
N533 N 0.70293 0.19525 0.88156 0.0
C534 C 0.65798 0.20232 0.86682 0.0
C535 C 0.67789 0.16143 0.84699 0.0
C536 C 0.68188 0.21103 0.88332 0.0
C537 C 0.70143 0.17084 0.86397 0.0
C538 C 0.58179 0.22393 0.79989 0.0
C539 C 0.54279 0.24291 0.83108 0.0
N540 N 0.55703 0.26248 0.8497 0.0
C541 C 0.59603 0.24427 0.81926 0.0
C542 C 0.55493 0.22329 0.80565 0.0
C543 C 0.58315 0.26358 0.84429 0.0
C544 C 0.64615 0.23563 0.73082 0.0
N545 N 0.65515 0.21383 0.75202 0.0
C546 C 0.69852 0.22421 0.72911 0.0
C547 C 0.68083 0.2079 0.75157 0.0
C548 C 0.68957 0.24661 0.70664 0.0
C549 C 0.66313 0.25248 0.70813 0.0
H550 H 0.62559 0.23938 0.72972 0.0
H551 H 0.68748 0.18991 0.76645 0.0
C552 C 0.55686 0.16584 0.89093 0.0
N553 N 0.57618 0.18307 0.8823 0.0
C554 C 0.54061 0.16896 0.92938 0.0
C555 C 0.56472 0.20722 0.95074 0.0
C556 C 0.58071 0.20325 0.91181 0.0
C557 C 0.54431 0.18998 0.9594 0.0
H558 H 0.55391 0.14963 0.86786 0.0
H559 H 0.59645 0.21645 0.90488 0.0
C560 C 0.63993 0.16764 0.68725 0.0
N561 N 0.67083 0.17821 0.61087 0.0
C562 C 0.6306 0.18317 0.65098 0.0
C563 C 0.66503 0.15766 0.68491 0.0
C564 C 0.64649 0.18818 0.61254 0.0
C565 C 0.68038 0.16329 0.64603 0.0
C566 C 0.56294 0.13193 0.77484 0.0
C567 C 0.56646 0.10697 0.75714 0.0
C568 C 0.53836 0.1432 0.77348 0.0
C569 C 0.54539 0.09384 0.73782 0.0
C570 C 0.5178 0.12949 0.75371 0.0
N571 N 0.52172 0.1053 0.73642 0.0
C572 C 0.63357 0.09494 0.8242 0.0
C573 C 0.6404 0.09733 0.74226 0.0
C574 C 0.63759 0.0682 0.82351 0.0
N575 N 0.63454 0.10873 0.78377 0.0
C576 C 0.64467 0.0707 0.74002 0.0
C577 C 0.64259 0.05586 0.78081 0.0
H578 H 0.62825 0.10448 0.85645 0.0
H579 H 0.64017 0.10862 0.71048 0.0
C580 C 0.55167 0.19337 0.68326 0.0
N581 N 0.56627 0.17203 0.69193 0.0
C582 C 0.53547 0.19407 0.64433 0.0
C583 C 0.54977 0.15086 0.62416 0.0
C584 C 0.56585 0.15109 0.66322 0.0
C585 C 0.53452 0.1726 0.61455 0.0
H586 H 0.55292 0.20995 0.7061 0.0
H587 H 0.57821 0.1347 0.67053 0.0
O588 O 0.63293 0.16854 0.83176 0.0
O589 O 0.59406 0.20472 0.77554 0.0
O590 O 0.62438 0.16177 0.72442 0.0
O591 O 0.58345 0.14531 0.79318 0.0
H592 H 0.64122 0.21482 0.86822 0.0
H593 H 0.67666 0.14205 0.83281 0.0
H594 H 0.6837 0.23033 0.89755 0.0
H595 H 0.71852 0.15876 0.86307 0.0
H596 H 0.52204 0.24255 0.83608 0.0
H597 H 0.61683 0.24504 0.81546 0.0
H598 H 0.5436 0.2077 0.79104 0.0
H599 H 0.59395 0.27937 0.85962 0.0
H600 H 0.7188 0.21899 0.72791 0.0
H601 H 0.65563 0.26946 0.69056 0.0
H602 H 0.52518 0.15519 0.93554 0.0
H603 H 0.56817 0.2235 0.97372 0.0
H604 H 0.61129 0.19119 0.65237 0.0
H605 H 0.67259 0.14578 0.71292 0.0
H606 H 0.63951 0.20009 0.5841 0.0
H607 H 0.69986 0.15573 0.64375 0.0
H608 H 0.58524 0.09783 0.75804 0.0
H609 H 0.53524 0.16246 0.78711 0.0
H610 H 0.54789 0.07455 0.72384 0.0
H611 H 0.49874 0.1381 0.75205 0.0
H612 H 0.63558 0.05709 0.85542 0.0
H613 H 0.64813 0.06157 0.70652 0.0
H614 H 0.52397 0.21115 0.63727 0.0
H615 H 0.54947 0.13414 0.60134 0.0
Li616 Li 0.81378 0.62625 0.01134 0.0
Li617 Li 0.82348 0.59327 0.0683 0.0
Li618 Li 0.85903 0.6187 0.02537 0.0
Li619 Li 0.83013 0.5864 0.98342 0.0
C620 C 0.81962 0.65092 0.09132 0.0
N621 N 0.79195 0.69168 0.12853 0.0
C622 C 0.79397 0.64733 0.10535 0.0
C623 C 0.83132 0.6751 0.09663 0.0
C624 C 0.78027 0.66823 0.12392 0.0
C625 C 0.81696 0.6955 0.11545 0.0
C626 C 0.78278 0.56973 0.02195 0.0
C627 C 0.78035 0.52328 0.02872 0.0
N628 N 0.75417 0.52492 0.0323 0.0
C629 C 0.75583 0.57096 0.0255 0.0
C630 C 0.79513 0.54571 0.02341 0.0
C631 C 0.74171 0.54809 0.03077 0.0
C632 C 0.76797 0.64299 0.96937 0.0
N633 N 0.78957 0.65227 0.99077 0.0
C634 C 0.77817 0.69561 0.9694 0.0
C635 C 0.79483 0.67809 0.99147 0.0
C636 C 0.75607 0.68636 0.94637 0.0
C637 C 0.75081 0.65978 0.947 0.0
H638 H 0.76458 0.62237 0.96806 0.0
H639 H 0.81251 0.68502 0.00718 0.0
C640 C 0.83862 0.56803 0.15016 0.0
N641 N 0.81721 0.57493 0.12544 0.0
C642 C 0.83662 0.55082 0.18763 0.0
C643 C 0.79036 0.54926 0.17541 0.0
C644 C 0.79324 0.56663 0.13824 0.0
C645 C 0.81235 0.54079 0.19971 0.0
H646 H 0.85743 0.57496 0.1393 0.0
H647 H 0.77644 0.5727 0.11867 0.0
C648 C 0.83704 0.63851 0.93013 0.0
N649 N 0.82805 0.6738 0.85946 0.0
C650 C 0.82254 0.63136 0.891 0.0
C651 C 0.84697 0.6636 0.93337 0.0
C652 C 0.81828 0.64946 0.85557 0.0
C653 C 0.84213 0.68119 0.89733 0.0
C654 C 0.87209 0.56053 0.03455 0.0
C655 C 0.89606 0.56362 0.01256 0.0
C656 C 0.8663 0.53705 0.05654 0.0
C657 C 0.91365 0.5431 0.01237 0.0
C658 C 0.88442 0.517 0.05563 0.0
N659 N 0.90752 0.52041 0.03373 0.0
C660 C 0.90732 0.62732 0.06904 0.0
C661 C 0.90597 0.63666 0.98784 0.0
C662 C 0.93415 0.6308 0.06962 0.0
N663 N 0.89396 0.6299 0.02836 0.0
C664 C 0.9327 0.64043 0.98689 0.0
C665 C 0.94705 0.63692 0.02792 0.0
H666 H 0.89732 0.62129 0.10042 0.0
H667 H 0.89504 0.63769 0.95571 0.0
C668 C 0.80612 0.55875 0.91113 0.0
N669 N 0.82923 0.5629 0.93264 0.0
C670 C 0.80479 0.54323 0.87139 0.0
C671 C 0.85107 0.53667 0.87646 0.0
C672 C 0.85152 0.5524 0.91602 0.0
C673 C 0.8275 0.53219 0.85379 0.0
H674 H 0.78883 0.56805 0.92412 0.0
H675 H 0.86972 0.55679 0.93256 0.0
O676 O 0.83322 0.63078 0.07262 0.0
O677 O 0.79682 0.59206 0.0175 0.0
O678 O 0.84196 0.62087 0.96464 0.0
O679 O 0.85481 0.58065 0.03587 0.0
H680 H 0.78471 0.62866 0.10148 0.0
H681 H 0.8512 0.6781 0.08597 0.0
H682 H 0.76034 0.66581 0.13465 0.0
H683 H 0.82569 0.71438 0.11956 0.0
H684 H 0.78971 0.50456 0.02993 0.0
H685 H 0.74595 0.58941 0.02463 0.0
H686 H 0.81585 0.54438 0.02006 0.0
H687 H 0.72086 0.54877 0.03375 0.0
H688 H 0.78283 0.71604 0.96909 0.0
H689 H 0.73399 0.65207 0.92922 0.0
H690 H 0.85391 0.54464 0.20588 0.0
H691 H 0.77135 0.54193 0.18423 0.0
H692 H 0.81473 0.61204 0.88792 0.0
H693 H 0.8581 0.66948 0.96361 0.0
H694 H 0.80711 0.64419 0.82504 0.0
H695 H 0.84958 0.70071 0.89947 0.0
H696 H 0.90092 0.58151 0.99513 0.0
H697 H 0.84806 0.53426 0.07435 0.0
H698 H 0.93217 0.5452 0.99517 0.0
H699 H 0.88013 0.49875 0.07244 0.0
H700 H 0.94486 0.62768 0.10168 0.0
H701 H 0.94224 0.64479 0.95412 0.0
H702 H 0.78639 0.54022 0.85408 0.0
H703 H 0.86891 0.52857 0.86307 0.0
C704 C 0.47643 0.16396 0.53479 0.0
C705 C 0.48666 0.17363 0.49218 0.0
C706 C 0.5286 0.18151 0.52936 0.0
C707 C 0.51797 0.17311 0.57249 0.0
N708 N 0.48162 0.15894 0.61866 0.0
N709 N 0.52097 0.1942 0.44885 0.0
C710 C 0.49181 0.16505 0.5759 0.0
C711 C 0.51235 0.18316 0.48944 0.0
N712 N 0.4522 0.15329 0.53556 0.0
N713 N 0.55438 0.18734 0.52649 0.0
H714 H 0.50995 0.19483 0.41833 0.0
H715 H 0.53837 0.2042 0.44591 0.0
H716 H 0.5667 0.18729 0.55539 0.0
H717 H 0.56408 0.1907 0.49521 0.0
H718 H 0.44465 0.14322 0.56395 0.0
H719 H 0.43997 0.15312 0.50657 0.0
H720 H 0.46203 0.15571 0.62461 0.0
H721 H 0.49258 0.15864 0.64929 0.0
C722 C 0.82724 0.47441 0.77197 0.0
C723 C 0.82648 0.48712 0.72803 0.0
C724 C 0.8277 0.52937 0.76653 0.0
C725 C 0.82679 0.51667 0.81048 0.0
N726 N 0.82198 0.47772 0.85602 0.0
N727 N 0.82232 0.52613 0.68249 0.0
C728 C 0.82549 0.48933 0.81351 0.0
C729 C 0.82565 0.51448 0.725 0.0
N730 N 0.83034 0.44814 0.7739 0.0
N731 N 0.83124 0.55558 0.7646 0.0
H732 H 0.82127 0.51581 0.65122 0.0
H733 H 0.81869 0.54581 0.67835 0.0
H734 H 0.83227 0.56722 0.79433 0.0
H735 H 0.83499 0.56565 0.73383 0.0
H736 H 0.83398 0.43801 0.80466 0.0
H737 H 0.83111 0.43647 0.74418 0.0
H738 H 0.81802 0.45811 0.86016 0.0
H739 H 0.82111 0.48806 0.8873 0.0
C740 C 0.47836 0.84266 0.02384 0.0
C741 C 0.48766 0.83 0.06451 0.0
C742 C 0.52794 0.81868 0.02444 0.0
C743 C 0.51791 0.82982 0.9829 0.0
N744 N 0.4829 0.8497 0.94036 0.0
N745 N 0.51944 0.80336 0.10313 0.0
C746 C 0.4929 0.84108 0.98182 0.0
C747 C 0.51196 0.81726 0.06473 0.0
N748 N 0.4559 0.85664 0.02581 0.0
N749 N 0.55297 0.81006 0.02558 0.0
H750 H 0.50855 0.80253 0.1338 0.0
H751 H 0.5355 0.79123 0.10374 0.0
H752 H 0.56506 0.81018 0.99637 0.0
H753 H 0.56244 0.80443 0.05603 0.0
H754 H 0.4495 0.86869 0.99906 0.0
H755 H 0.44434 0.85763 0.05565 0.0
H756 H 0.46376 0.85548 0.93603 0.0
H757 H 0.4933 0.84946 0.9091 0.0
C758 C 0.19758 0.49272 0.30042 0.0
C759 C 0.17344 0.48546 0.31997 0.0
C760 C 0.15056 0.51024 0.25996 0.0
C761 C 0.17459 0.51546 0.23791 0.0
N762 N 0.22062 0.50837 0.23228 0.0
N763 N 0.12689 0.48335 0.31452 0.0
C764 C 0.19805 0.50578 0.25678 0.0
C765 C 0.14987 0.49312 0.29869 0.0
N766 N 0.21999 0.4878 0.32424 0.0
N767 N 0.12855 0.52232 0.24485 0.0
H768 H 0.12557 0.47072 0.34287 0.0
H769 H 0.10937 0.48597 0.29717 0.0
H770 H 0.12825 0.53506 0.21657 0.0
H771 H 0.11102 0.52147 0.26273 0.0
H772 H 0.23795 0.49505 0.31419 0.0
H773 H 0.22039 0.47827 0.35638 0.0
H774 H 0.23782 0.49932 0.24182 0.0
H775 H 0.22169 0.5178 0.20009 0.0
C776 C 0.27937 0.25292 0.40341 0.0
C777 C 0.2975 0.26377 0.37162 0.0
C778 C 0.28361 0.3074 0.39408 0.0
C779 C 0.26382 0.29653 0.42233 0.0
N780 N 0.24001 0.25903 0.44819 0.0
N781 N 0.31387 0.30103 0.33039 0.0
C782 C 0.2609 0.26928 0.42547 0.0
C783 C 0.29877 0.29096 0.36518 0.0
N784 N 0.28037 0.22712 0.4138 0.0
N785 N 0.28845 0.33339 0.39595 0.0
H786 H 0.32503 0.28957 0.30817 0.0
H787 H 0.31351 0.32045 0.32075 0.0
H788 H 0.27793 0.34605 0.41707 0.0
H789 H 0.30434 0.34206 0.37998 0.0
H790 H 0.26965 0.21865 0.44056 0.0
H791 H 0.2935 0.21447 0.39827 0.0
H792 H 0.23527 0.23946 0.44716 0.0
H793 H 0.22614 0.27037 0.46496 0.0
C794 C 0.72222 0.27999 0.60336 0.0
C795 C 0.74031 0.29604 0.62675 0.0
C796 C 0.72451 0.28046 0.7027 0.0
C797 C 0.70757 0.26322 0.67925 0.0
N798 N 0.69325 0.2432 0.60769 0.0
N799 N 0.76196 0.30858 0.69783 0.0
C800 C 0.70729 0.26201 0.62964 0.0
C801 C 0.74241 0.2954 0.67624 0.0
N802 N 0.71869 0.28256 0.55621 0.0
N803 N 0.72284 0.28323 0.75014 0.0
H804 H 0.77527 0.31984 0.67954 0.0
H805 H 0.76634 0.30671 0.73319 0.0
H806 H 0.71013 0.27245 0.77073 0.0
H807 H 0.73255 0.29755 0.76876 0.0
H808 H 0.70377 0.2736 0.53791 0.0
H809 H 0.7295 0.29528 0.5357 0.0
H810 H 0.69442 0.2394 0.57203 0.0
H811 H 0.68193 0.22988 0.62583 0.0
C812 C 0.72098 0.72006 0.9439 0.0
C813 C 0.73896 0.70424 0.91976 0.0
C814 C 0.72198 0.71965 0.8445 0.0
C815 C 0.70523 0.73677 0.86867 0.0
N816 N 0.69156 0.75655 0.94086 0.0
N817 N 0.75974 0.69187 0.84771 0.0
C818 C 0.70553 0.73791 0.91829 0.0
C819 C 0.74037 0.70488 0.87017 0.0
N820 N 0.71804 0.7174 0.99117 0.0
N821 N 0.7197 0.71686 0.79715 0.0
H822 H 0.77336 0.68068 0.86538 0.0
H823 H 0.76364 0.6938 0.81218 0.0
H824 H 0.70661 0.7275 0.77713 0.0
H825 H 0.72928 0.70261 0.77812 0.0
H826 H 0.70326 0.72619 0.01009 0.0
H827 H 0.72922 0.70475 0.01118 0.0
H828 H 0.69314 0.76033 0.97649 0.0
H829 H 0.67985 0.76974 0.92325 0.0
C830 C 0.25585 0.72348 0.14578 0.0
C831 C 0.26708 0.70306 0.11948 0.0
C832 C 0.31014 0.71555 0.14752 0.0
C833 C 0.29923 0.73757 0.16967 0.0
N834 N 0.26222 0.76495 0.18366 0.0
N835 N 0.30518 0.68223 0.08864 0.0
C836 C 0.27219 0.74223 0.16713 0.0
C837 C 0.29434 0.69982 0.11847 0.0
N838 N 0.22962 0.72446 0.1518 0.0
N839 N 0.33544 0.70917 0.15548 0.0
H840 H 0.29424 0.67054 0.06646 0.0
H841 H 0.32502 0.68091 0.08274 0.0
H842 H 0.34755 0.71998 0.17715 0.0
H843 H 0.34374 0.6919 0.14425 0.0
H844 H 0.22057 0.73721 0.17476 0.0
H845 H 0.21698 0.71104 0.13699 0.0
H846 H 0.24314 0.77066 0.17814 0.0
H847 H 0.27354 0.77915 0.19953 0.0
C848 C 0.34632 0.98764 0.29771 0.0
C849 C 0.36646 0.97286 0.27721 0.0
C850 C 0.38767 0.01251 0.25001 0.0
C851 C 0.36685 0.02727 0.26836 0.0
N852 N 0.32408 0.02896 0.30172 0.0
N853 N 0.40302 0.97047 0.22494 0.0
C854 C 0.34543 0.01482 0.28981 0.0
C855 C 0.38612 0.98509 0.25054 0.0
N856 N 0.3286 0.97582 0.32603 0.0
N857 N 0.4095 0.02463 0.23415 0.0
H858 H 0.40253 0.95029 0.22444 0.0
H859 H 0.41595 0.97831 0.20088 0.0
H860 H 0.41158 0.04468 0.23329 0.0
H861 H 0.42643 0.0148 0.2255 0.0
H862 H 0.31518 0.98587 0.34619 0.0
H863 H 0.32848 0.95591 0.33203 0.0
H864 H 0.30683 0.02073 0.31324 0.0
H865 H 0.32282 0.04888 0.29623 0.0
C866 C 0.9886 0.3832 0.5038 0.0
C867 C 0.97384 0.36199 0.52065 0.0
C868 C 0.0134 0.34108 0.5494 0.0
C869 C 0.02818 0.3616 0.53014 0.0
N870 N 0.03067 0.3991 0.48006 0.0
N871 N 0.9721 0.31873 0.55187 0.0
C872 C 0.01601 0.38171 0.50454 0.0
C873 C 0.98625 0.34028 0.54116 0.0
N874 N 0.97646 0.40528 0.48912 0.0
N875 N 0.02517 0.32292 0.57687 0.0
H876 H 0.95218 0.31757 0.54625 0.0
H877 H 0.98031 0.30132 0.56257 0.0
H878 H 0.04506 0.32277 0.5831 0.0
H879 H 0.01509 0.30913 0.59616 0.0
H880 H 0.98626 0.4224 0.48167 0.0
H881 H 0.95639 0.40731 0.48815 0.0
H882 H 0.02286 0.41246 0.45675 0.0
H883 H 0.05085 0.39864 0.47961 0.0
C884 C 0.66591 0.98609 0.77043 0.0
C885 C 0.6419 0.97278 0.77087 0.0
C886 C 0.61853 0.01399 0.77463 0.0
C887 C 0.64254 0.02721 0.77777 0.0
N888 N 0.68899 0.02633 0.78419 0.0
N889 N 0.5955 0.97329 0.7805 0.0
C890 C 0.66625 0.01339 0.77719 0.0
C891 C 0.61823 0.98653 0.77494 0.0
N892 N 0.68826 0.97264 0.76248 0.0
N893 N 0.59604 0.02773 0.76996 0.0
H894 H 0.59432 0.95315 0.78 0.0
H895 H 0.57806 0.98212 0.78924 0.0
H896 H 0.59531 0.04789 0.77048 0.0
H897 H 0.5783 0.01929 0.76193 0.0
H898 H 0.70612 0.98138 0.75684 0.0
H899 H 0.68866 0.9526 0.7582 0.0
H900 H 0.70673 0.0172 0.78908 0.0
H901 H 0.68989 0.04636 0.78844 0.0
C902 C 0.98943 0.66082 0.02688 0.0
C903 C 0.97574 0.63703 0.02599 0.0
C904 C 0.01663 0.61302 0.02332 0.0
C905 C 0.03026 0.63683 0.02082 0.0
N906 N 0.03013 0.68327 0.01422 0.0
N907 N 0.97562 0.59067 0.01598 0.0
C908 C 0.01679 0.66074 0.02092 0.0
C909 C 0.98916 0.61316 0.02215 0.0
N910 N 0.97629 0.68337 0.03463 0.0
N911 N 0.02997 0.59032 0.02829 0.0
H912 H 0.95546 0.58987 0.01566 0.0
H913 H 0.98425 0.57309 0.00752 0.0
H914 H 0.05012 0.5893 0.02837 0.0
H915 H 0.02118 0.57269 0.0359 0.0
H916 H 0.98528 0.70108 0.04063 0.0
H917 H 0.95622 0.68411 0.03847 0.0
H918 H 0.0213 0.70114 0.00902 0.0
H919 H 0.0502 0.68386 0.01037 0.0
C920 C 0.50432 0.20903 0.99592 0.0
C921 C 0.52675 0.19333 1.00008 0.0
C922 C 0.51176 0.17738 0.07609 0.0
C923 C 0.48982 0.19387 0.07295 0.0
N924 N 0.46733 0.22868 0.03443 0.0
N925 N 0.55451 0.16647 0.04714 0.0
C926 C 0.48674 0.21071 0.03415 0.0
C927 C 0.53131 0.17876 0.04123 0.0
N928 N 0.49943 0.22163 0.95482 0.0
N929 N 0.51332 0.15957 0.11131 0.0
H930 H 0.56914 0.16685 0.02203 0.0
H931 H 0.56018 0.1578 0.07837 0.0
H932 H 0.49943 0.15799 0.13753 0.0
H933 H 0.52721 0.145 0.11264 0.0
H934 H 0.48201 0.23088 0.94743 0.0
H935 H 0.51227 0.22152 0.92669 0.0
H936 H 0.46556 0.2433 0.0096 0.0
H937 H 0.45405 0.2303 0.06175 0.0
C938 C 0.81129 0.49385 0.22247 0.0
C939 C 0.81033 0.52028 0.23599 0.0
C940 C 0.81015 0.50768 0.31871 0.0
C941 C 0.81008 0.48124 0.30515 0.0
N942 N 0.80655 0.44879 0.24512 0.0
N943 N 0.80477 0.55262 0.29569 0.0
C944 C 0.8094 0.47422 0.25725 0.0
C945 C 0.80852 0.52727 0.28381 0.0
N946 N 0.81489 0.48756 0.17647 0.0
N947 N 0.81255 0.51403 0.36493 0.0
H948 H 0.80396 0.56747 0.27102 0.0
H949 H 0.80054 0.5588 0.32945 0.0
H950 H 0.81292 0.50027 0.39162 0.0
H951 H 0.81581 0.53277 0.37684 0.0
H952 H 0.81881 0.4689 0.16482 0.0
H953 H 0.81566 0.50133 0.14983 0.0
H954 H 0.80311 0.44252 0.21112 0.0
H955 H 0.8057 0.4339 0.26971 0.0
C956 C 0.52516 0.81964 0.51245 0.0
C957 C 0.5207 0.80636 0.55508 0.0
C958 C 0.47965 0.78937 0.52447 0.0
C959 C 0.48287 0.8048 0.48387 0.0
N960 N 0.50731 0.83628 0.43997 0.0
N961 N 0.4934 0.77992 0.60388 0.0
C962 C 0.50534 0.82029 0.47794 0.0
C963 C 0.49791 0.79143 0.56161 0.0
N964 N 0.54852 0.83133 0.50485 0.0
N965 N 0.45933 0.7725 0.52709 0.0
H966 H 0.50677 0.78021 0.6312 0.0
H967 H 0.47591 0.77133 0.61302 0.0
H968 H 0.44533 0.77099 0.50095 0.0
H969 H 0.45723 0.75873 0.55336 0.0
H970 H 0.55415 0.83901 0.47279 0.0
H971 H 0.56329 0.83157 0.52971 0.0
H972 H 0.52163 0.85027 0.43612 0.0
H973 H 0.49354 0.83682 0.41335 0.0
C974 C 0.19841 0.49127 0.82558 0.0
C975 C 0.19357 0.51749 0.81348 0.0
C976 C 0.18887 0.50533 0.73103 0.0
C977 C 0.19488 0.47931 0.74282 0.0
N978 N 0.2097 0.44805 0.7992 0.0
N979 N 0.18884 0.55045 0.75457 0.0
C980 C 0.201 0.47246 0.78953 0.0
C981 C 0.19022 0.52481 0.76608 0.0
N982 N 0.19953 0.48421 0.87161 0.0
N983 N 0.18094 0.51125 0.68668 0.0
H984 H 0.18956 0.56519 0.77944 0.0
H985 H 0.18915 0.55725 0.72032 0.0
H986 H 0.18019 0.49766 0.65977 0.0
H987 H 0.17335 0.52915 0.6772 0.0
H988 H 0.20001 0.46507 0.8829 0.0
H989 H 0.19814 0.49745 0.89901 0.0
H990 H 0.21708 0.44253 0.83154 0.0
H991 H 0.2115 0.43376 0.77366 0.0
loop_
_geom_bond_atom_site_label_1
_geom_bond_atom_site_label_2
_geom_bond_distance
_geom_bond_site_symmetry_2
_ccdc_geom_bond_type
Li0 N17 1.990 . S
Li0 O60 1.956 . S
Li0 O61 1.970 . S
Li0 O62 1.961 . S
Li1 N25 1.990 . S
Li1 O60 1.970 . S
Li1 O61 1.956 . S
Li1 O63 1.961 . S
Li2 N47 1.990 . S
Li2 O60 1.961 . S
Li2 O62 1.956 . S
Li2 O63 1.970 . S
Li3 N53 1.990 . S
Li3 O61 1.961 . S
Li3 O62 1.970 . S
Li3 O63 1.956 . S
C4 C6 1.348 . S
C4 C7 1.356 . S
C4 O60 1.325 . S
N5 C8 1.314 . S
N5 C9 1.279 . S
C6 C4 1.348 . S
C6 C8 1.353 . S
C6 H64 0.929 . S
C7 C4 1.356 . S
C7 C9 1.358 . S
C7 H65 0.930 . S
C8 N5 1.314 . S
C8 C6 1.353 . S
C8 H66 0.930 . S
C9 N5 1.279 . S
C9 C7 1.358 . S
C9 H67 0.930 . S
C10 C13 1.348 . S
C10 C14 1.356 . S
C10 O61 1.325 . S
C11 N12 1.279 . S
C11 C14 1.358 . S
C11 H68 0.930 . S
N12 C11 1.279 . S
N12 C15 1.314 . S
C13 C10 1.348 . S
C13 C15 1.353 . S
C13 H69 0.929 . S
C14 C10 1.356 . S
C14 C11 1.358 . S
C14 H70 0.930 . S
C15 N12 1.314 . S
C15 C13 1.353 . S
C15 H71 0.930 . S
C16 N17 1.314 . S
C16 C21 1.353 . S
C16 H22 0.930 . S
N17 Li0 1.990 . S
N17 C16 1.314 . S
N17 C19 1.279 . S
C18 C19 1.358 . S
C18 C20 1.356 . S
C18 H72 0.930 . S
C19 N17 1.279 . S
C19 C18 1.358 . S
C19 H23 0.930 . S
C20 C18 1.356 . S
C20 C21 1.348 . S
C21 C16 1.353 . S
C21 C20 1.348 . S
C21 H73 0.929 . S
H22 C16 0.930 . S
H23 C19 0.930 . S
C24 N25 1.314 . S
C24 C26 1.353 . S
C24 H30 0.930 . S
N25 Li1 1.990 . S
N25 C24 1.314 . S
N25 C28 1.279 . S
C26 C24 1.353 . S
C26 C29 1.348 . S
C26 H74 0.929 . S
C27 C28 1.358 . S
C27 C29 1.356 . S
C27 H75 0.930 . S
C28 N25 1.279 . S
C28 C27 1.358 . S
C28 H31 0.930 . S
C29 C26 1.348 . S
C29 C27 1.356 . S
H30 C24 0.930 . S
H31 C28 0.930 . S
C32 C34 1.348 . S
C32 C35 1.356 . S
C32 O62 1.325 . S
N33 C36 1.314 . S
N33 C37 1.279 . S
C34 C32 1.348 . S
C34 C36 1.353 . S
C34 H76 0.929 . S
C35 C32 1.356 . S
C35 C37 1.358 . S
C35 H77 0.930 . S
C36 N33 1.314 . S
C36 C34 1.353 . S
C36 H78 0.930 . S
C37 N33 1.279 . S
C37 C35 1.358 . S
C37 H79 0.930 . S
C38 C39 1.348 . S
C38 C40 1.356 . S
C38 O63 1.325 . S
C39 C38 1.348 . S
C39 C41 1.353 . S
C39 H80 0.929 . S
C40 C38 1.356 . S
C40 C42 1.358 . S
C40 H81 0.930 . S
C41 C39 1.353 . S
C41 N43 1.314 . S
C41 H82 0.930 . S
C42 C40 1.358 . S
C42 N43 1.279 . S
C42 H83 0.930 . S
N43 C41 1.314 . S
N43 C42 1.279 . S
C44 C46 1.353 . S
C44 N47 1.314 . S
C44 H50 0.930 . S
C45 N47 1.279 . S
C45 C48 1.358 . S
C45 H51 0.930 . S
C46 C44 1.353 . S
C46 C49 1.348 . S
C46 H84 0.929 . S
N47 Li2 1.990 . S
N47 C44 1.314 . S
N47 C45 1.279 . S
C48 C45 1.358 . S
C48 C49 1.356 . S
C48 H85 0.930 . S
C49 C46 1.348 . S
C49 C48 1.356 . S
H50 C44 0.930 . S
H51 C45 0.930 . S
C52 N53 1.314 . S
C52 C54 1.353 . S
C52 H58 0.930 . S
N53 Li3 1.990 . S
N53 C52 1.314 . S
N53 C56 1.279 . S
C54 C52 1.353 . S
C54 C57 1.348 . S
C54 H86 0.929 . S
C55 C56 1.358 . S
C55 C57 1.356 . S
C55 H87 0.930 . S
C56 N53 1.279 . S
C56 C55 1.358 . S
C56 H59 0.930 . S
C57 C54 1.348 . S
C57 C55 1.356 . S
H58 C52 0.930 . S
H59 C56 0.930 . S
O60 Li0 1.956 . S
O60 Li1 1.970 . S
O60 Li2 1.961 . S
O60 C4 1.325 . S
O61 Li0 1.970 . S
O61 Li1 1.956 . S
O61 Li3 1.961 . S
O61 C10 1.325 . S
O62 Li0 1.961 . S
O62 Li2 1.956 . S
O62 Li3 1.970 . S
O62 C32 1.325 . S
O63 Li1 1.961 . S
O63 Li2 1.970 . S
O63 Li3 1.956 . S
O63 C38 1.325 . S
H64 C6 0.929 . S
H65 C7 0.930 . S
H66 C8 0.930 . S
H67 C9 0.930 . S
H68 C11 0.930 . S
H69 C13 0.929 . S
H70 C14 0.930 . S
H71 C15 0.930 . S
H72 C18 0.930 . S
H73 C21 0.929 . S
H74 C26 0.929 . S
H75 C27 0.930 . S
H76 C34 0.929 . S
H77 C35 0.930 . S
H78 C36 0.930 . S
H79 C37 0.930 . S
H80 C39 0.929 . S
H81 C40 0.930 . S
H82 C41 0.930 . S
H83 C42 0.930 . S
H84 C46 0.929 . S
H85 C48 0.930 . S
H86 C54 0.929 . S
H87 C55 0.930 . S
Li88 N105 1.990 . S
Li88 O148 1.956 . S
Li88 O149 1.970 . S
Li88 O150 1.961 . S
Li89 N113 1.990 . S
Li89 O148 1.970 . S
Li89 O149 1.956 . S
Li89 O151 1.961 . S
Li90 N135 1.990 . S
Li90 O148 1.961 . S
Li90 O150 1.956 . S
Li90 O151 1.970 . S
Li91 N141 1.990 . S
Li91 O149 1.961 . S
Li91 O150 1.970 . S
Li91 O151 1.956 . S
C92 C94 1.348 . S
C92 C95 1.356 . S
C92 O148 1.325 . S
N93 C96 1.314 . S
N93 C97 1.279 . S
C94 C92 1.348 . S
C94 C96 1.353 . S
C94 H152 0.929 . S
C95 C92 1.356 . S
C95 C97 1.358 . S
C95 H153 0.930 . S
C96 N93 1.314 . S
C96 C94 1.353 . S
C96 H154 0.930 . S
C97 N93 1.279 . S
C97 C95 1.358 . S
C97 H155 0.930 . S
C98 C101 1.348 . S
C98 C102 1.356 . S
C98 O149 1.325 . S
C99 N100 1.279 . S
C99 C102 1.358 . S
C99 H156 0.930 . S
N100 C99 1.279 . S
N100 C103 1.314 . S
C101 C98 1.348 . S
C101 C103 1.353 . S
C101 H157 0.929 . S
C102 C98 1.356 . S
C102 C99 1.358 . S
C102 H158 0.930 . S
C103 N100 1.314 . S
C103 C101 1.353 . S
C103 H159 0.930 . S
C104 N105 1.314 . S
C104 C109 1.353 . S
C104 H110 0.930 . S
N105 Li88 1.990 . S
N105 C104 1.314 . S
N105 C107 1.279 . S
C106 C107 1.358 . S
C106 C108 1.356 . S
C106 H160 0.930 . S
C107 N105 1.279 . S
C107 C106 1.358 . S
C107 H111 0.930 . S
C108 C106 1.356 . S
C108 C109 1.348 . S
C109 C104 1.353 . S
C109 C108 1.348 . S
C109 H161 0.929 . S
H110 C104 0.930 . S
H111 C107 0.930 . S
C112 N113 1.314 . S
C112 C114 1.353 . S
C112 H118 0.930 . S
N113 Li89 1.990 . S
N113 C112 1.314 . S
N113 C116 1.279 . S
C114 C112 1.353 . S
C114 C117 1.348 . S
C114 H162 0.929 . S
C115 C116 1.358 . S
C115 C117 1.356 . S
C115 H163 0.930 . S
C116 N113 1.279 . S
C116 C115 1.358 . S
C116 H119 0.930 . S
C117 C114 1.348 . S
C117 C115 1.356 . S
H118 C112 0.930 . S
H119 C116 0.930 . S
C120 C122 1.348 . S
C120 C123 1.356 . S
C120 O150 1.325 . S
N121 C124 1.314 . S
N121 C125 1.279 . S
C122 C120 1.348 . S
C122 C124 1.353 . S
C122 H164 0.929 . S
C123 C120 1.356 . S
C123 C125 1.358 . S
C123 H165 0.930 . S
C124 N121 1.314 . S
C124 C122 1.353 . S
C124 H166 0.930 . S
C125 N121 1.279 . S
C125 C123 1.358 . S
C125 H167 0.930 . S
C126 C127 1.348 . S
C126 C128 1.356 . S
C126 O151 1.325 . S
C127 C126 1.348 . S
C127 C129 1.353 . S
C127 H168 0.929 . S
C128 C126 1.356 . S
C128 C130 1.358 . S
C128 H169 0.930 . S
C129 C127 1.353 . S
C129 N131 1.314 . S
C129 H170 0.930 . S
C130 C128 1.358 . S
C130 N131 1.279 . S
C130 H171 0.930 . S
N131 C129 1.314 . S
N131 C130 1.279 . S
C132 C134 1.353 . S
C132 N135 1.314 . S
C132 H138 0.930 . S
C133 N135 1.279 . S
C133 C136 1.358 . S
C133 H139 0.930 . S
C134 C132 1.353 . S
C134 C137 1.348 . S
C134 H172 0.929 . S
N135 Li90 1.990 . S
N135 C132 1.314 . S
N135 C133 1.279 . S
C136 C133 1.358 . S
C136 C137 1.356 . S
C136 H173 0.930 . S
C137 C134 1.348 . S
C137 C136 1.356 . S
H138 C132 0.930 . S
H139 C133 0.930 . S
C140 N141 1.314 . S
C140 C142 1.353 . S
C140 H146 0.930 . S
N141 Li91 1.990 . S
N141 C140 1.314 . S
N141 C144 1.279 . S
C142 C140 1.353 . S
C142 C145 1.348 . S
C142 H174 0.929 . S
C143 C144 1.358 . S
C143 C145 1.356 . S
C143 H175 0.930 . S
C144 N141 1.279 . S
C144 C143 1.358 . S
C144 H147 0.930 . S
C145 C142 1.348 . S
C145 C143 1.356 . S
H146 C140 0.930 . S
H147 C144 0.930 . S
O148 Li88 1.956 . S
O148 Li89 1.970 . S
O148 Li90 1.961 . S
O148 C92 1.325 . S
O149 Li88 1.970 . S
O149 Li89 1.956 . S
O149 Li91 1.961 . S
O149 C98 1.325 . S
O150 Li88 1.961 . S
O150 Li90 1.956 . S
O150 Li91 1.970 . S
O150 C120 1.325 . S
O151 Li89 1.961 . S
O151 Li90 1.970 . S
O151 Li91 1.956 . S
O151 C126 1.325 . S
H152 C94 0.929 . S
H153 C95 0.930 . S
H154 C96 0.930 . S
H155 C97 0.930 . S
H156 C99 0.930 . S
H157 C101 0.929 . S
H158 C102 0.930 . S
H159 C103 0.930 . S
H160 C106 0.930 . S
H161 C109 0.929 . S
H162 C114 0.929 . S
H163 C115 0.930 . S
H164 C122 0.929 . S
H165 C123 0.930 . S
H166 C124 0.930 . S
H167 C125 0.930 . S
H168 C127 0.929 . S
H169 C128 0.930 . S
H170 C129 0.930 . S
H171 C130 0.930 . S
H172 C134 0.929 . S
H173 C136 0.930 . S
H174 C142 0.929 . S
H175 C143 0.930 . S
Li176 N193 1.990 . S
Li176 O236 1.956 . S
Li176 O237 1.970 . S
Li176 O238 1.961 . S
Li177 N201 1.990 . S
Li177 O236 1.970 . S
Li177 O237 1.956 . S
Li177 O239 1.961 . S
Li178 N223 1.990 . S
Li178 O236 1.961 . S
Li178 O238 1.956 . S
Li178 O239 1.970 . S
Li179 N229 1.990 . S
Li179 O237 1.961 . S
Li179 O238 1.970 . S
Li179 O239 1.956 . S
C180 C182 1.348 . S
C180 C183 1.356 . S
C180 O236 1.325 . S
N181 C184 1.314 . S
N181 C185 1.279 . S
C182 C180 1.348 . S
C182 C184 1.353 . S
C182 H240 0.929 . S
C183 C180 1.356 . S
C183 C185 1.358 . S
C183 H241 0.930 . S
C184 N181 1.314 . S
C184 C182 1.353 . S
C184 H242 0.930 . S
C185 N181 1.279 . S
C185 C183 1.358 . S
C185 H243 0.930 . S
C186 C189 1.348 . S
C186 C190 1.356 . S
C186 O237 1.325 . S
C187 N188 1.279 . S
C187 C190 1.358 . S
C187 H244 0.930 . S
N188 C187 1.279 . S
N188 C191 1.314 . S
C189 C186 1.348 . S
C189 C191 1.353 . S
C189 H245 0.929 . S
C190 C186 1.356 . S
C190 C187 1.358 . S
C190 H246 0.930 . S
C191 N188 1.314 . S
C191 C189 1.353 . S
C191 H247 0.930 . S
C192 N193 1.314 . S
C192 C197 1.353 . S
C192 H198 0.930 . S
N193 Li176 1.990 . S
N193 C192 1.314 . S
N193 C195 1.279 . S
C194 C195 1.358 . S
C194 C196 1.356 . S
C194 H248 0.930 . S
C195 N193 1.279 . S
C195 C194 1.358 . S
C195 H199 0.930 . S
C196 C194 1.356 . S
C196 C197 1.348 . S
C197 C192 1.353 . S
C197 C196 1.348 . S
C197 H249 0.929 . S
H198 C192 0.930 . S
H199 C195 0.930 . S
C200 N201 1.314 . S
C200 C202 1.353 . S
C200 H206 0.930 . S
N201 Li177 1.990 . S
N201 C200 1.314 . S
N201 C204 1.279 . S
C202 C200 1.353 . S
C202 C205 1.348 . S
C202 H250 0.929 . S
C203 C204 1.358 . S
C203 C205 1.356 . S
C203 H251 0.930 . S
C204 N201 1.279 . S
C204 C203 1.358 . S
C204 H207 0.930 . S
C205 C202 1.348 . S
C205 C203 1.356 . S
H206 C200 0.930 . S
H207 C204 0.930 . S
C208 C210 1.348 . S
C208 C211 1.356 . S
C208 O238 1.325 . S
N209 C212 1.314 . S
N209 C213 1.279 . S
C210 C208 1.348 . S
C210 C212 1.353 . S
C210 H252 0.929 . S
C211 C208 1.356 . S
C211 C213 1.358 . S
C211 H253 0.930 . S
C212 N209 1.314 . S
C212 C210 1.353 . S
C212 H254 0.930 . S
C213 N209 1.279 . S
C213 C211 1.358 . S
C213 H255 0.930 . S
C214 C215 1.348 . S
C214 C216 1.356 . S
C214 O239 1.325 . S
C215 C214 1.348 . S
C215 C217 1.353 . S
C215 H256 0.929 . S
C216 C214 1.356 . S
C216 C218 1.358 . S
C216 H257 0.930 . S
C217 C215 1.353 . S
C217 N219 1.314 . S
C217 H258 0.930 . S
C218 C216 1.358 . S
C218 N219 1.279 . S
C218 H259 0.930 . S
N219 C217 1.314 . S
N219 C218 1.279 . S
C220 C222 1.353 . S
C220 N223 1.314 . S
C220 H226 0.930 . S
C221 N223 1.279 . S
C221 C224 1.358 . S
C221 H227 0.930 . S
C222 C220 1.353 . S
C222 C225 1.348 . S
C222 H260 0.929 . S
N223 Li178 1.990 . S
N223 C220 1.314 . S
N223 C221 1.279 . S
C224 C221 1.358 . S
C224 C225 1.356 . S
C224 H261 0.930 . S
C225 C222 1.348 . S
C225 C224 1.356 . S
H226 C220 0.930 . S
H227 C221 0.930 . S
C228 N229 1.314 . S
C228 C230 1.353 . S
C228 H234 0.930 . S
N229 Li179 1.990 . S
N229 C228 1.314 . S
N229 C232 1.279 . S
C230 C228 1.353 . S
C230 C233 1.348 . S
C230 H262 0.929 . S
C231 C232 1.358 . S
C231 C233 1.356 . S
C231 H263 0.930 . S
C232 N229 1.279 . S
C232 C231 1.358 . S
C232 H235 0.930 . S
C233 C230 1.348 . S
C233 C231 1.356 . S
H234 C228 0.930 . S
H235 C232 0.930 . S
O236 Li176 1.956 . S
O236 Li177 1.970 . S
O236 Li178 1.961 . S
O236 C180 1.325 . S
O237 Li176 1.970 . S
O237 Li177 1.956 . S
O237 Li179 1.961 . S
O237 C186 1.325 . S
O238 Li176 1.961 . S
O238 Li178 1.956 . S
O238 Li179 1.970 . S
O238 C208 1.325 . S
O239 Li177 1.961 . S
O239 Li178 1.970 . S
O239 Li179 1.956 . S
O239 C214 1.325 . S
H240 C182 0.929 . S
H241 C183 0.930 . S
H242 C184 0.930 . S
H243 C185 0.930 . S
H244 C187 0.930 . S
H245 C189 0.929 . S
H246 C190 0.930 . S
H247 C191 0.930 . S
H248 C194 0.930 . S
H249 C197 0.929 . S
H250 C202 0.929 . S
H251 C203 0.930 . S
H252 C210 0.929 . S
H253 C211 0.930 . S
H254 C212 0.930 . S
H255 C213 0.930 . S
H256 C215 0.929 . S
H257 C216 0.930 . S
H258 C217 0.930 . S
H259 C218 0.930 . S
H260 C222 0.929 . S
H261 C224 0.930 . S
H262 C230 0.929 . S
H263 C231 0.930 . S
Li264 N281 1.990 . S
Li264 O324 1.956 . S
Li264 O325 1.970 . S
Li264 O326 1.961 1_554 S
Li265 N289 1.990 . S
Li265 O324 1.970 . S
Li265 O325 1.956 . S
Li265 O327 1.961 . S
Li266 N311 1.990 . S
Li266 O324 1.961 . S
Li266 O326 1.956 1_554 S
Li266 O327 1.970 . S
Li267 N317 1.990 . S
Li267 O325 1.961 1_556 S
Li267 O326 1.970 . S
Li267 O327 1.956 1_556 S
C268 C270 1.348 . S
C268 C271 1.356 . S
C268 O324 1.325 . S
N269 C272 1.314 . S
N269 C273 1.279 . S
C270 C268 1.348 . S
C270 C272 1.353 . S
C270 H328 0.929 . S
C271 C268 1.356 . S
C271 C273 1.358 . S
C271 H329 0.930 . S
C272 N269 1.314 . S
C272 C270 1.353 . S
C272 H330 0.930 . S
C273 N269 1.279 . S
C273 C271 1.358 . S
C273 H331 0.930 . S
C274 C277 1.348 . S
C274 C278 1.356 . S
C274 O325 1.325 . S
C275 N276 1.279 . S
C275 C278 1.358 . S
C275 H332 0.930 1_554 S
N276 C275 1.279 . S
N276 C279 1.314 . S
C277 C274 1.348 . S
C277 C279 1.353 . S
C277 H333 0.929 . S
C278 C274 1.356 . S
C278 C275 1.358 . S
C278 H334 0.930 . S
C279 N276 1.314 . S
C279 C277 1.353 . S
C279 H335 0.930 . S
C280 N281 1.314 1_556 S
C280 C285 1.353 . S
C280 H286 0.930 . S
N281 Li264 1.990 . S
N281 C280 1.314 1_554 S
N281 C283 1.279 . S
C282 C283 1.358 . S
C282 C284 1.356 . S
C282 H336 0.930 . S
C283 N281 1.279 . S
C283 C282 1.358 . S
C283 H287 0.930 . S
C284 C282 1.356 . S
C284 C285 1.348 1_554 S
C285 C280 1.353 . S
C285 C284 1.348 1_556 S
C285 H337 0.929 . S
H286 C280 0.930 . S
H287 C283 0.930 . S
C288 N289 1.314 . S
C288 C290 1.353 . S
C288 H294 0.930 . S
N289 Li265 1.990 . S
N289 C288 1.314 . S
N289 C292 1.279 . S
C290 C288 1.353 . S
C290 C293 1.348 . S
C290 H338 0.929 . S
C291 C292 1.358 . S
C291 C293 1.356 . S
C291 H339 0.930 . S
C292 N289 1.279 . S
C292 C291 1.358 . S
C292 H295 0.930 . S
C293 C290 1.348 . S
C293 C291 1.356 . S
H294 C288 0.930 . S
H295 C292 0.930 . S
C296 C298 1.348 . S
C296 C299 1.356 . S
C296 O326 1.325 . S
N297 C300 1.314 . S
N297 C301 1.279 . S
C298 C296 1.348 . S
C298 C300 1.353 . S
C298 H340 0.929 . S
C299 C296 1.356 . S
C299 C301 1.358 . S
C299 H341 0.930 . S
C300 N297 1.314 . S
C300 C298 1.353 . S
C300 H342 0.930 . S
C301 N297 1.279 . S
C301 C299 1.358 . S
C301 H343 0.930 . S
C302 C303 1.348 . S
C302 C304 1.356 . S
C302 O327 1.325 . S
C303 C302 1.348 . S
C303 C305 1.353 . S
C303 H344 0.929 . S
C304 C302 1.356 . S
C304 C306 1.358 . S
C304 H345 0.930 . S
C305 C303 1.353 . S
C305 N307 1.314 . S
C305 H346 0.930 . S
C306 C304 1.358 . S
C306 N307 1.279 . S
C306 H347 0.930 . S
N307 C305 1.314 . S
N307 C306 1.279 . S
C308 C310 1.353 . S
C308 N311 1.314 . S
C308 H314 0.930 . S
C309 N311 1.279 . S
C309 C312 1.358 . S
C309 H315 0.930 1_554 S
C310 C308 1.353 . S
C310 C313 1.348 . S
C310 H348 0.929 . S
N311 Li266 1.990 . S
N311 C308 1.314 . S
N311 C309 1.279 . S
C312 C309 1.358 . S
C312 C313 1.356 . S
C312 H349 0.930 1_554 S
C313 C310 1.348 . S
C313 C312 1.356 . S
H314 C308 0.930 . S
H315 C309 0.930 1_556 S
C316 N317 1.314 . S
C316 C318 1.353 . S
C316 H322 0.930 . S
N317 Li267 1.990 . S
N317 C316 1.314 . S
N317 C320 1.279 . S
C318 C316 1.353 . S
C318 C321 1.348 . S
C318 H350 0.929 . S
C319 C320 1.358 . S
C319 C321 1.356 . S
C319 H351 0.930 . S
C320 N317 1.279 . S
C320 C319 1.358 . S
C320 H323 0.930 . S
C321 C318 1.348 . S
C321 C319 1.356 . S
H322 C316 0.930 . S
H323 C320 0.930 . S
O324 Li264 1.956 . S
O324 Li265 1.970 . S
O324 Li266 1.961 . S
O324 C268 1.325 . S
O325 Li264 1.970 . S
O325 Li265 1.956 . S
O325 Li267 1.961 1_554 S
O325 C274 1.325 . S
O326 Li264 1.961 1_556 S
O326 Li266 1.956 1_556 S
O326 Li267 1.970 . S
O326 C296 1.325 . S
O327 Li265 1.961 . S
O327 Li266 1.970 . S
O327 Li267 1.956 1_554 S
O327 C302 1.325 . S
H328 C270 0.929 . S
H329 C271 0.930 . S
H330 C272 0.930 . S
H331 C273 0.930 . S
H332 C275 0.930 1_556 S
H333 C277 0.929 . S
H334 C278 0.930 . S
H335 C279 0.930 . S
H336 C282 0.930 . S
H337 C285 0.929 . S
H338 C290 0.929 . S
H339 C291 0.930 . S
H340 C298 0.929 . S
H341 C299 0.930 . S
H342 C300 0.930 . S
H343 C301 0.930 . S
H344 C303 0.929 . S
H345 C304 0.930 . S
H346 C305 0.930 . S
H347 C306 0.930 . S
H348 C310 0.929 . S
H349 C312 0.930 1_556 S
H350 C318 0.929 . S
H351 C319 0.930 . S
Li352 N369 1.990 . S
Li352 O412 1.956 . S
Li352 O413 1.970 . S
Li352 O414 1.961 . S
Li353 N377 1.990 . S
Li353 O412 1.970 . S
Li353 O413 1.956 . S
Li353 O415 1.961 . S
Li354 N399 1.990 . S
Li354 O412 1.961 . S
Li354 O414 1.956 . S
Li354 O415 1.970 . S
Li355 N405 1.990 . S
Li355 O413 1.961 . S
Li355 O414 1.970 . S
Li355 O415 1.956 . S
C356 C358 1.348 . S
C356 C359 1.356 . S
C356 O412 1.325 . S
N357 C360 1.314 . S
N357 C361 1.279 . S
C358 C356 1.348 . S
C358 C360 1.353 . S
C358 H416 0.929 . S
C359 C356 1.356 . S
C359 C361 1.358 . S
C359 H417 0.930 . S
C360 N357 1.314 . S
C360 C358 1.353 . S
C360 H418 0.930 . S
C361 N357 1.279 . S
C361 C359 1.358 . S
C361 H419 0.930 . S
C362 C365 1.348 . S
C362 C366 1.356 . S
C362 O413 1.325 . S
C363 N364 1.279 . S
C363 C366 1.358 . S
C363 H420 0.930 . S
N364 C363 1.279 . S
N364 C367 1.314 . S
C365 C362 1.348 . S
C365 C367 1.353 . S
C365 H421 0.929 . S
C366 C362 1.356 . S
C366 C363 1.358 . S
C366 H422 0.930 . S
C367 N364 1.314 . S
C367 C365 1.353 . S
C367 H423 0.930 . S
C368 N369 1.314 . S
C368 C373 1.353 . S
C368 H374 0.930 . S
N369 Li352 1.990 . S
N369 C368 1.314 . S
N369 C371 1.279 . S
C370 C371 1.358 . S
C370 C372 1.356 . S
C370 H424 0.930 . S
C371 N369 1.279 . S
C371 C370 1.358 . S
C371 H375 0.930 . S
C372 C370 1.356 . S
C372 C373 1.348 . S
C373 C368 1.353 . S
C373 C372 1.348 . S
C373 H425 0.929 . S
H374 C368 0.930 . S
H375 C371 0.930 . S
C376 N377 1.314 . S
C376 C378 1.353 . S
C376 H382 0.930 . S
N377 Li353 1.990 . S
N377 C376 1.314 . S
N377 C380 1.279 . S
C378 C376 1.353 . S
C378 C381 1.348 . S
C378 H426 0.929 . S
C379 C380 1.358 . S
C379 C381 1.356 . S
C379 H427 0.930 . S
C380 N377 1.279 . S
C380 C379 1.358 . S
C380 H383 0.930 . S
C381 C378 1.348 . S
C381 C379 1.356 . S
H382 C376 0.930 . S
H383 C380 0.930 . S
C384 C386 1.348 . S
C384 C387 1.356 . S
C384 O414 1.325 . S
N385 C388 1.314 . S
N385 C389 1.279 . S
C386 C384 1.348 . S
C386 C388 1.353 . S
C386 H428 0.929 . S
C387 C384 1.356 . S
C387 C389 1.358 . S
C387 H429 0.930 . S
C388 N385 1.314 . S
C388 C386 1.353 . S
C388 H430 0.930 . S
C389 N385 1.279 . S
C389 C387 1.358 . S
C389 H431 0.930 . S
C390 C391 1.348 . S
C390 C392 1.356 . S
C390 O415 1.325 . S
C391 C390 1.348 . S
C391 C393 1.353 . S
C391 H432 0.929 . S
C392 C390 1.356 . S
C392 C394 1.358 . S
C392 H433 0.930 . S
C393 C391 1.353 . S
C393 N395 1.314 . S
C393 H434 0.930 . S
C394 C392 1.358 . S
C394 N395 1.279 . S
C394 H435 0.930 . S
N395 C393 1.314 . S
N395 C394 1.279 . S
C396 C398 1.353 . S
C396 N399 1.314 . S
C396 H402 0.930 . S
C397 N399 1.279 . S
C397 C400 1.358 . S
C397 H403 0.930 . S
C398 C396 1.353 . S
C398 C401 1.348 . S
C398 H436 0.929 . S
N399 Li354 1.990 . S
N399 C396 1.314 . S
N399 C397 1.279 . S
C400 C397 1.358 . S
C400 C401 1.356 . S
C400 H437 0.930 . S
C401 C398 1.348 . S
C401 C400 1.356 . S
H402 C396 0.930 . S
H403 C397 0.930 . S
C404 N405 1.314 . S
C404 C406 1.353 . S
C404 H410 0.930 . S
N405 Li355 1.990 . S
N405 C404 1.314 . S
N405 C408 1.279 . S
C406 C404 1.353 . S
C406 C409 1.348 . S
C406 H438 0.929 . S
C407 C408 1.358 . S
C407 C409 1.356 . S
C407 H439 0.930 . S
C408 N405 1.279 . S
C408 C407 1.358 . S
C408 H411 0.930 . S
C409 C406 1.348 . S
C409 C407 1.356 . S
H410 C404 0.930 . S
H411 C408 0.930 . S
O412 Li352 1.956 . S
O412 Li353 1.970 . S
O412 Li354 1.961 . S
O412 C356 1.325 . S
O413 Li352 1.970 . S
O413 Li353 1.956 . S
O413 Li355 1.961 . S
O413 C362 1.325 . S
O414 Li352 1.961 . S
O414 Li354 1.956 . S
O414 Li355 1.970 . S
O414 C384 1.325 . S
O415 Li353 1.961 . S
O415 Li354 1.970 . S
O415 Li355 1.956 . S
O415 C390 1.325 . S
H416 C358 0.929 . S
H417 C359 0.930 . S
H418 C360 0.930 . S
H419 C361 0.930 . S
H420 C363 0.930 . S
H421 C365 0.929 . S
H422 C366 0.930 . S
H423 C367 0.930 . S
H424 C370 0.930 . S
H425 C373 0.929 . S
H426 C378 0.929 . S
H427 C379 0.930 . S
H428 C386 0.929 . S
H429 C387 0.930 . S
H430 C388 0.930 . S
H431 C389 0.930 . S
H432 C391 0.929 . S
H433 C392 0.930 . S
H434 C393 0.930 . S
H435 C394 0.930 . S
H436 C398 0.929 . S
H437 C400 0.930 . S
H438 C406 0.929 . S
H439 C407 0.930 . S
Li440 N457 1.990 . S
Li440 O500 1.956 . S
Li440 O501 1.970 . S
Li440 O502 1.961 . S
Li441 N465 1.990 . S
Li441 O500 1.970 . S
Li441 O501 1.956 . S
Li441 O503 1.961 . S
Li442 N487 1.990 . S
Li442 O500 1.961 . S
Li442 O502 1.956 . S
Li442 O503 1.970 . S
Li443 N493 1.990 . S
Li443 O501 1.961 . S
Li443 O502 1.970 . S
Li443 O503 1.956 . S
C444 C446 1.348 . S
C444 C447 1.356 . S
C444 O500 1.325 . S
N445 C448 1.314 . S
N445 C449 1.279 . S
C446 C444 1.348 . S
C446 C448 1.353 . S
C446 H504 0.929 . S
C447 C444 1.356 . S
C447 C449 1.358 . S
C447 H505 0.930 . S
C448 N445 1.314 . S
C448 C446 1.353 . S
C448 H506 0.930 . S
C449 N445 1.279 . S
C449 C447 1.358 . S
C449 H507 0.930 . S
C450 C453 1.348 . S
C450 C454 1.356 . S
C450 O501 1.325 . S
C451 N452 1.279 . S
C451 C454 1.358 . S
C451 H508 0.930 . S
N452 C451 1.279 . S
N452 C455 1.314 . S
C453 C450 1.348 . S
C453 C455 1.353 . S
C453 H509 0.929 . S
C454 C450 1.356 . S
C454 C451 1.358 . S
C454 H510 0.930 . S
C455 N452 1.314 . S
C455 C453 1.353 . S
C455 H511 0.930 . S
C456 N457 1.314 . S
C456 C461 1.353 . S
C456 H462 0.930 . S
N457 Li440 1.990 . S
N457 C456 1.314 . S
N457 C459 1.279 . S
C458 C459 1.358 . S
C458 C460 1.356 . S
C458 H512 0.930 . S
C459 N457 1.279 . S
C459 C458 1.358 . S
C459 H463 0.930 . S
C460 C458 1.356 . S
C460 C461 1.348 . S
C461 C456 1.353 . S
C461 C460 1.348 . S
C461 H513 0.929 . S
H462 C456 0.930 . S
H463 C459 0.930 . S
C464 N465 1.314 . S
C464 C466 1.353 . S
C464 H470 0.930 . S
N465 Li441 1.990 . S
N465 C464 1.314 . S
N465 C468 1.279 . S
C466 C464 1.353 . S
C466 C469 1.348 . S
C466 H514 0.929 . S
C467 C468 1.358 . S
C467 C469 1.356 . S
C467 H515 0.930 . S
C468 N465 1.279 . S
C468 C467 1.358 . S
C468 H471 0.930 . S
C469 C466 1.348 . S
C469 C467 1.356 . S
H470 C464 0.930 . S
H471 C468 0.930 . S
C472 C474 1.348 . S
C472 C475 1.356 . S
C472 O502 1.325 . S
N473 C476 1.314 . S
N473 C477 1.279 . S
C474 C472 1.348 . S
C474 C476 1.353 . S
C474 H516 0.929 . S
C475 C472 1.356 . S
C475 C477 1.358 . S
C475 H517 0.930 . S
C476 N473 1.314 . S
C476 C474 1.353 . S
C476 H518 0.930 . S
C477 N473 1.279 . S
C477 C475 1.358 . S
C477 H519 0.930 . S
C478 C479 1.348 . S
C478 C480 1.356 . S
C478 O503 1.325 . S
C479 C478 1.348 . S
C479 C481 1.353 . S
C479 H520 0.929 . S
C480 C478 1.356 . S
C480 C482 1.358 . S
C480 H521 0.930 . S
C481 C479 1.353 . S
C481 N483 1.314 . S
C481 H522 0.930 . S
C482 C480 1.358 . S
C482 N483 1.279 . S
C482 H523 0.930 . S
N483 C481 1.314 . S
N483 C482 1.279 . S
C484 C486 1.353 . S
C484 N487 1.314 . S
C484 H490 0.930 . S
C485 N487 1.279 . S
C485 C488 1.358 . S
C485 H491 0.930 . S
C486 C484 1.353 . S
C486 C489 1.348 . S
C486 H524 0.929 . S
N487 Li442 1.990 . S
N487 C484 1.314 . S
N487 C485 1.279 . S
C488 C485 1.358 . S
C488 C489 1.356 . S
C488 H525 0.930 . S
C489 C486 1.348 . S
C489 C488 1.356 . S
H490 C484 0.930 . S
H491 C485 0.930 . S
C492 N493 1.314 . S
C492 C494 1.353 . S
C492 H498 0.930 . S
N493 Li443 1.990 . S
N493 C492 1.314 . S
N493 C496 1.279 . S
C494 C492 1.353 . S
C494 C497 1.348 . S
C494 H526 0.929 . S
C495 C496 1.358 . S
C495 C497 1.356 . S
C495 H527 0.930 . S
C496 N493 1.279 . S
C496 C495 1.358 . S
C496 H499 0.930 . S
C497 C494 1.348 . S
C497 C495 1.356 . S
H498 C492 0.930 . S
H499 C496 0.930 . S
O500 Li440 1.956 . S
O500 Li441 1.970 . S
O500 Li442 1.961 . S
O500 C444 1.325 . S
O501 Li440 1.970 . S
O501 Li441 1.956 . S
O501 Li443 1.961 . S
O501 C450 1.325 . S
O502 Li440 1.961 . S
O502 Li442 1.956 . S
O502 Li443 1.970 . S
O502 C472 1.325 . S
O503 Li441 1.961 . S
O503 Li442 1.970 . S
O503 Li443 1.956 . S
O503 C478 1.325 . S
H504 C446 0.929 . S
H505 C447 0.930 . S
H506 C448 0.930 . S
H507 C449 0.930 . S
H508 C451 0.930 . S
H509 C453 0.929 . S
H510 C454 0.930 . S
H511 C455 0.930 . S
H512 C458 0.930 . S
H513 C461 0.929 . S
H514 C466 0.929 . S
H515 C467 0.930 . S
H516 C474 0.929 . S
H517 C475 0.930 . S
H518 C476 0.930 . S
H519 C477 0.930 . S
H520 C479 0.929 . S
H521 C480 0.930 . S
H522 C481 0.930 . S
H523 C482 0.930 . S
H524 C486 0.929 . S
H525 C488 0.930 . S
H526 C494 0.929 . S
H527 C495 0.930 . S
Li528 N545 1.990 . S
Li528 O588 1.956 . S
Li528 O589 1.970 . S
Li528 O590 1.961 . S
Li529 N553 1.990 . S
Li529 O588 1.970 . S
Li529 O589 1.956 . S
Li529 O591 1.961 . S
Li530 N575 1.990 . S
Li530 O588 1.961 . S
Li530 O590 1.956 . S
Li530 O591 1.970 . S
Li531 N581 1.990 . S
Li531 O589 1.961 . S
Li531 O590 1.970 . S
Li531 O591 1.956 . S
C532 C534 1.348 . S
C532 C535 1.356 . S
C532 O588 1.325 . S
N533 C536 1.314 . S
N533 C537 1.279 . S
C534 C532 1.348 . S
C534 C536 1.353 . S
C534 H592 0.929 . S
C535 C532 1.356 . S
C535 C537 1.358 . S
C535 H593 0.930 . S
C536 N533 1.314 . S
C536 C534 1.353 . S
C536 H594 0.930 . S
C537 N533 1.279 . S
C537 C535 1.358 . S
C537 H595 0.930 . S
C538 C541 1.348 . S
C538 C542 1.356 . S
C538 O589 1.325 . S
C539 N540 1.279 . S
C539 C542 1.358 . S
C539 H596 0.930 . S
N540 C539 1.279 . S
N540 C543 1.314 . S
C541 C538 1.348 . S
C541 C543 1.353 . S
C541 H597 0.929 . S
C542 C538 1.356 . S
C542 C539 1.358 . S
C542 H598 0.930 . S
C543 N540 1.314 . S
C543 C541 1.353 . S
C543 H599 0.930 . S
C544 N545 1.314 . S
C544 C549 1.353 . S
C544 H550 0.930 . S
N545 Li528 1.990 . S
N545 C544 1.314 . S
N545 C547 1.279 . S
C546 C547 1.358 . S
C546 C548 1.356 . S
C546 H600 0.930 . S
C547 N545 1.279 . S
C547 C546 1.358 . S
C547 H551 0.930 . S
C548 C546 1.356 . S
C548 C549 1.348 . S
C549 C544 1.353 . S
C549 C548 1.348 . S
C549 H601 0.929 . S
H550 C544 0.930 . S
H551 C547 0.930 . S
C552 N553 1.314 . S
C552 C554 1.353 . S
C552 H558 0.930 . S
N553 Li529 1.990 . S
N553 C552 1.314 . S
N553 C556 1.279 . S
C554 C552 1.353 . S
C554 C557 1.348 . S
C554 H602 0.929 . S
C555 C556 1.358 . S
C555 C557 1.356 . S
C555 H603 0.930 . S
C556 N553 1.279 . S
C556 C555 1.358 . S
C556 H559 0.930 . S
C557 C554 1.348 . S
C557 C555 1.356 . S
H558 C552 0.930 . S
H559 C556 0.930 . S
C560 C562 1.348 . S
C560 C563 1.356 . S
C560 O590 1.325 . S
N561 C564 1.314 . S
N561 C565 1.279 . S
C562 C560 1.348 . S
C562 C564 1.353 . S
C562 H604 0.929 . S
C563 C560 1.356 . S
C563 C565 1.358 . S
C563 H605 0.930 . S
C564 N561 1.314 . S
C564 C562 1.353 . S
C564 H606 0.930 . S
C565 N561 1.279 . S
C565 C563 1.358 . S
C565 H607 0.930 . S
C566 C567 1.348 . S
C566 C568 1.356 . S
C566 O591 1.325 . S
C567 C566 1.348 . S
C567 C569 1.353 . S
C567 H608 0.929 . S
C568 C566 1.356 . S
C568 C570 1.358 . S
C568 H609 0.930 . S
C569 C567 1.353 . S
C569 N571 1.314 . S
C569 H610 0.930 . S
C570 C568 1.358 . S
C570 N571 1.279 . S
C570 H611 0.930 . S
N571 C569 1.314 . S
N571 C570 1.279 . S
C572 C574 1.353 . S
C572 N575 1.314 . S
C572 H578 0.930 . S
C573 N575 1.279 . S
C573 C576 1.358 . S
C573 H579 0.930 . S
C574 C572 1.353 . S
C574 C577 1.348 . S
C574 H612 0.929 . S
N575 Li530 1.990 . S
N575 C572 1.314 . S
N575 C573 1.279 . S
C576 C573 1.358 . S
C576 C577 1.356 . S
C576 H613 0.930 . S
C577 C574 1.348 . S
C577 C576 1.356 . S
H578 C572 0.930 . S
H579 C573 0.930 . S
C580 N581 1.314 . S
C580 C582 1.353 . S
C580 H586 0.930 . S
N581 Li531 1.990 . S
N581 C580 1.314 . S
N581 C584 1.279 . S
C582 C580 1.353 . S
C582 C585 1.348 . S
C582 H614 0.929 . S
C583 C584 1.358 . S
C583 C585 1.356 . S
C583 H615 0.930 . S
C584 N581 1.279 . S
C584 C583 1.358 . S
C584 H587 0.930 . S
C585 C582 1.348 . S
C585 C583 1.356 . S
H586 C580 0.930 . S
H587 C584 0.930 . S
O588 Li528 1.956 . S
O588 Li529 1.970 . S
O588 Li530 1.961 . S
O588 C532 1.325 . S
O589 Li528 1.970 . S
O589 Li529 1.956 . S
O589 Li531 1.961 . S
O589 C538 1.325 . S
O590 Li528 1.961 . S
O590 Li530 1.956 . S
O590 Li531 1.970 . S
O590 C560 1.325 . S
O591 Li529 1.961 . S
O591 Li530 1.970 . S
O591 Li531 1.956 . S
O591 C566 1.325 . S
H592 C534 0.929 . S
H593 C535 0.930 . S
H594 C536 0.930 . S
H595 C537 0.930 . S
H596 C539 0.930 . S
H597 C541 0.929 . S
H598 C542 0.930 . S
H599 C543 0.930 . S
H600 C546 0.930 . S
H601 C549 0.929 . S
H602 C554 0.929 . S
H603 C555 0.930 . S
H604 C562 0.929 . S
H605 C563 0.930 . S
H606 C564 0.930 . S
H607 C565 0.930 . S
H608 C567 0.929 . S
H609 C568 0.930 . S
H610 C569 0.930 . S
H611 C570 0.930 . S
H612 C574 0.929 . S
H613 C576 0.930 . S
H614 C582 0.929 . S
H615 C583 0.930 . S
Li616 N633 1.990 1_554 S
Li616 O676 1.956 . S
Li616 O677 1.970 . S
Li616 O678 1.961 1_554 S
Li617 N641 1.990 . S
Li617 O676 1.970 . S
Li617 O677 1.956 . S
Li617 O679 1.961 . S
Li618 N663 1.990 . S
Li618 O676 1.961 . S
Li618 O678 1.956 1_554 S
Li618 O679 1.970 . S
Li619 N669 1.990 . S
Li619 O677 1.961 1_556 S
Li619 O678 1.970 . S
Li619 O679 1.956 1_556 S
C620 C622 1.348 . S
C620 C623 1.356 . S
C620 O676 1.325 . S
N621 C624 1.314 . S
N621 C625 1.279 . S
C622 C620 1.348 . S
C622 C624 1.353 . S
C622 H680 0.929 . S
C623 C620 1.356 . S
C623 C625 1.358 . S
C623 H681 0.930 . S
C624 N621 1.314 . S
C624 C622 1.353 . S
C624 H682 0.930 . S
C625 N621 1.279 . S
C625 C623 1.358 . S
C625 H683 0.930 . S
C626 C629 1.348 . S
C626 C630 1.356 . S
C626 O677 1.325 . S
C627 N628 1.279 . S
C627 C630 1.358 . S
C627 H684 0.930 1_554 S
N628 C627 1.279 . S
N628 C631 1.314 . S
C629 C626 1.348 . S
C629 C631 1.353 . S
C629 H685 0.929 . S
C630 C626 1.356 . S
C630 C627 1.358 . S
C630 H686 0.931 . S
C631 N628 1.314 . S
C631 C629 1.353 . S
C631 H687 0.930 . S
C632 N633 1.314 . S
C632 C637 1.353 . S
C632 H638 0.930 . S
N633 Li616 1.990 1_556 S
N633 C632 1.314 . S
N633 C635 1.279 1_556 S
C634 C635 1.358 . S
C634 C636 1.356 1_554 S
C634 H688 0.930 . S
C635 N633 1.279 1_554 S
C635 C634 1.358 . S
C635 H639 0.930 . S
C636 C634 1.356 1_556 S
C636 C637 1.348 . S
C637 C632 1.353 . S
C637 C636 1.348 . S
C637 H689 0.929 . S
H638 C632 0.930 . S
H639 C635 0.930 . S
C640 N641 1.314 . S
C640 C642 1.353 . S
C640 H646 0.930 . S
N641 Li617 1.990 . S
N641 C640 1.314 . S
N641 C644 1.279 . S
C642 C640 1.353 . S
C642 C645 1.348 . S
C642 H690 0.929 . S
C643 C644 1.358 . S
C643 C645 1.356 . S
C643 H691 0.930 . S
C644 N641 1.279 . S
C644 C643 1.358 . S
C644 H647 0.930 . S
C645 C642 1.348 . S
C645 C643 1.356 . S
H646 C640 0.930 . S
H647 C644 0.930 . S
C648 C650 1.348 . S
C648 C651 1.356 . S
C648 O678 1.325 . S
N649 C652 1.314 . S
N649 C653 1.279 . S
C650 C648 1.348 . S
C650 C652 1.353 . S
C650 H692 0.929 . S
C651 C648 1.356 . S
C651 C653 1.358 . S
C651 H693 0.930 . S
C652 N649 1.314 . S
C652 C650 1.353 . S
C652 H694 0.930 . S
C653 N649 1.279 . S
C653 C651 1.358 . S
C653 H695 0.930 . S
C654 C655 1.348 . S
C654 C656 1.356 . S
C654 O679 1.325 . S
C655 C654 1.348 . S
C655 C657 1.353 . S
C655 H696 0.929 . S
C656 C654 1.356 . S
C656 C658 1.358 . S
C656 H697 0.930 . S
C657 C655 1.353 . S
C657 N659 1.314 . S
C657 H698 0.930 . S
C658 C656 1.358 . S
C658 N659 1.279 . S
C658 H699 0.930 . S
N659 C657 1.314 . S
N659 C658 1.279 . S
C660 C662 1.353 . S
C660 N663 1.314 . S
C660 H666 0.930 . S
C661 N663 1.279 1_556 S
C661 C664 1.358 . S
C661 H667 0.930 . S
C662 C660 1.353 . S
C662 C665 1.348 . S
C662 H700 0.929 . S
N663 Li618 1.990 . S
N663 C660 1.314 . S
N663 C661 1.279 1_554 S
C664 C661 1.358 . S
C664 C665 1.356 1_556 S
C664 H701 0.930 . S
C665 C662 1.348 . S
C665 C664 1.356 1_554 S
H666 C660 0.930 . S
H667 C661 0.930 . S
C668 N669 1.314 . S
C668 C670 1.353 . S
C668 H674 0.930 . S
N669 Li619 1.990 . S
N669 C668 1.314 . S
N669 C672 1.279 . S
C670 C668 1.353 . S
C670 C673 1.348 . S
C670 H702 0.929 . S
C671 C672 1.358 . S
C671 C673 1.356 . S
C671 H703 0.930 . S
C672 N669 1.279 . S
C672 C671 1.358 . S
C672 H675 0.930 . S
C673 C670 1.348 . S
C673 C671 1.356 . S
H674 C668 0.930 . S
H675 C672 0.930 . S
O676 Li616 1.956 . S
O676 Li617 1.970 . S
O676 Li618 1.961 . S
O676 C620 1.325 . S
O677 Li616 1.970 . S
O677 Li617 1.956 . S
O677 Li619 1.961 1_554 S
O677 C626 1.325 . S
O678 Li616 1.961 1_556 S
O678 Li618 1.956 1_556 S
O678 Li619 1.970 . S
O678 C648 1.325 . S
O679 Li617 1.961 . S
O679 Li618 1.970 . S
O679 Li619 1.956 1_554 S
O679 C654 1.325 . S
H680 C622 0.929 . S
H681 C623 0.930 . S
H682 C624 0.930 . S
H683 C625 0.930 . S
H684 C627 0.930 1_556 S
H685 C629 0.929 . S
H686 C630 0.931 . S
H687 C631 0.930 . S
H688 C634 0.930 . S
H689 C637 0.929 . S
H690 C642 0.929 . S
H691 C643 0.930 . S
H692 C650 0.929 . S
H693 C651 0.930 . S
H694 C652 0.930 . S
H695 C653 0.930 . S
H696 C655 0.929 . S
H697 C656 0.930 . S
H698 C657 0.930 . S
H699 C658 0.930 . S
H700 C662 0.929 . S
H701 C664 0.930 . S
H702 C670 0.929 . S
H703 C671 0.930 . S
C704 C705 1.363 . S
C704 C710 1.379 . S
C704 N712 1.356 . S
C705 C704 1.363 . S
C705 C711 1.363 . S
C706 C707 1.363 . S
C706 C711 1.379 . S
C706 N713 1.356 . S
C707 C706 1.363 . S
C707 C710 1.363 . S
N708 C710 1.356 . S
N708 H720 0.984 . S
N708 H721 0.985 . S
N709 C711 1.356 . S
N709 H714 0.984 . S
N709 H715 0.985 . S
C710 C704 1.379 . S
C710 C707 1.363 . S
C710 N708 1.356 . S
C711 C705 1.363 . S
C711 C706 1.379 . S
C711 N709 1.356 . S
N712 C704 1.356 . S
N712 H718 0.984 . S
N712 H719 0.984 . S
N713 C706 1.356 . S
N713 H716 0.984 . S
N713 H717 0.985 . S
H714 N709 0.984 . S
H715 N709 0.985 . S
H716 N713 0.984 . S
H717 N713 0.985 . S
H718 N712 0.984 . S
H719 N712 0.984 . S
H720 N708 0.984 . S
H721 N708 0.985 . S
C722 C723 1.363 . S
C722 C728 1.379 . S
C722 N730 1.356 . S
C723 C722 1.363 . S
C723 C729 1.363 . S
C724 C725 1.363 . S
C724 C729 1.379 . S
C724 N731 1.356 . S
C725 C724 1.363 . S
C725 C728 1.363 . S
N726 C728 1.356 . S
N726 H738 0.984 . S
N726 H739 0.985 . S
N727 C729 1.356 . S
N727 H732 0.984 . S
N727 H733 0.985 . S
C728 C722 1.379 . S
C728 C725 1.363 . S
C728 N726 1.356 . S
C729 C723 1.363 . S
C729 C724 1.379 . S
C729 N727 1.356 . S
N730 C722 1.356 . S
N730 H736 0.984 . S
N730 H737 0.984 . S
N731 C724 1.356 . S
N731 H734 0.984 . S
N731 H735 0.985 . S
H732 N727 0.984 . S
H733 N727 0.985 . S
H734 N731 0.984 . S
H735 N731 0.985 . S
H736 N730 0.984 . S
H737 N730 0.984 . S
H738 N726 0.984 . S
H739 N726 0.985 . S
C740 C741 1.363 . S
C740 C746 1.379 1_554 S
C740 N748 1.356 . S
C741 C740 1.363 . S
C741 C747 1.363 . S
C742 C743 1.363 1_554 S
C742 C747 1.379 . S
C742 N749 1.356 1_554 S
C743 C742 1.363 1_556 S
C743 C746 1.363 . S
N744 C746 1.356 . S
N744 H756 0.984 . S
N744 H757 0.985 . S
N745 C747 1.356 . S
N745 H750 0.984 . S
N745 H751 0.985 . S
C746 C740 1.379 1_556 S
C746 C743 1.363 . S
C746 N744 1.356 . S
C747 C741 1.363 . S
C747 C742 1.379 . S
C747 N745 1.356 . S
N748 C740 1.356 . S
N748 H754 0.984 . S
N748 H755 0.984 . S
N749 C742 1.356 1_556 S
N749 H752 0.984 . S
N749 H753 0.985 1_556 S
H750 N745 0.984 . S
H751 N745 0.985 . S
H752 N749 0.984 . S
H753 N749 0.985 1_554 S
H754 N748 0.984 . S
H755 N748 0.984 . S
H756 N744 0.984 . S
H757 N744 0.985 . S
C758 C759 1.363 . S
C758 C764 1.379 . S
C758 N766 1.356 . S
C759 C758 1.363 . S
C759 C765 1.363 . S
C760 C761 1.363 . S
C760 C765 1.379 . S
C760 N767 1.356 . S
C761 C760 1.363 . S
C761 C764 1.363 . S
N762 C764 1.356 . S
N762 H774 0.984 . S
N762 H775 0.985 . S
N763 C765 1.356 . S
N763 H768 0.984 . S
N763 H769 0.985 . S
C764 C758 1.379 . S
C764 C761 1.363 . S
C764 N762 1.356 . S
C765 C759 1.363 . S
C765 C760 1.379 . S
C765 N763 1.356 . S
N766 C758 1.356 . S
N766 H772 0.984 . S
N766 H773 0.984 . S
N767 C760 1.356 . S
N767 H770 0.984 . S
N767 H771 0.985 . S
H768 N763 0.984 . S
H769 N763 0.985 . S
H770 N767 0.984 . S
H771 N767 0.985 . S
H772 N766 0.984 . S
H773 N766 0.984 . S
H774 N762 0.984 . S
H775 N762 0.985 . S
C776 C777 1.363 . S
C776 C782 1.379 . S
C776 N784 1.356 . S
C777 C776 1.363 . S
C777 C783 1.363 . S
C778 C779 1.363 . S
C778 C783 1.379 . S
C778 N785 1.356 . S
C779 C778 1.363 . S
C779 C782 1.363 . S
N780 C782 1.356 . S
N780 H792 0.984 . S
N780 H793 0.985 . S
N781 C783 1.356 . S
N781 H786 0.984 . S
N781 H787 0.985 . S
C782 C776 1.379 . S
C782 C779 1.363 . S
C782 N780 1.356 . S
C783 C777 1.363 . S
C783 C778 1.379 . S
C783 N781 1.356 . S
N784 C776 1.356 . S
N784 H790 0.984 . S
N784 H791 0.984 . S
N785 C778 1.356 . S
N785 H788 0.984 . S
N785 H789 0.985 . S
H786 N781 0.984 . S
H787 N781 0.985 . S
H788 N785 0.984 . S
H789 N785 0.985 . S
H790 N784 0.984 . S
H791 N784 0.984 . S
H792 N780 0.984 . S
H793 N780 0.985 . S
C794 C795 1.363 . S
C794 C800 1.379 . S
C794 N802 1.356 . S
C795 C794 1.363 . S
C795 C801 1.363 . S
C796 C797 1.363 . S
C796 C801 1.379 . S
C796 N803 1.356 . S
C797 C796 1.363 . S
C797 C800 1.363 . S
N798 C800 1.356 . S
N798 H810 0.984 . S
N798 H811 0.985 . S
N799 C801 1.356 . S
N799 H804 0.984 . S
N799 H805 0.985 . S
C800 C794 1.379 . S
C800 C797 1.363 . S
C800 N798 1.356 . S
C801 C795 1.363 . S
C801 C796 1.379 . S
C801 N799 1.356 . S
N802 C794 1.356 . S
N802 H808 0.984 . S
N802 H809 0.984 . S
N803 C796 1.356 . S
N803 H806 0.984 . S
N803 H807 0.985 . S
H804 N799 0.984 . S
H805 N799 0.985 . S
H806 N803 0.984 . S
H807 N803 0.985 . S
H808 N802 0.984 . S
H809 N802 0.984 . S
H810 N798 0.984 . S
H811 N798 0.985 . S
C812 C813 1.363 . S
C812 C818 1.379 . S
C812 N820 1.356 . S
C813 C812 1.363 . S
C813 C819 1.363 . S
C814 C815 1.363 . S
C814 C819 1.379 . S
C814 N821 1.356 . S
C815 C814 1.363 . S
C815 C818 1.363 . S
N816 C818 1.356 . S
N816 H828 0.984 . S
N816 H829 0.985 . S
N817 C819 1.356 . S
N817 H822 0.984 . S
N817 H823 0.985 . S
C818 C812 1.379 . S
C818 C815 1.363 . S
C818 N816 1.356 . S
C819 C813 1.363 . S
C819 C814 1.379 . S
C819 N817 1.356 . S
N820 C812 1.356 . S
N820 H826 0.984 . S
N820 H827 0.984 1_556 S
N821 C814 1.356 . S
N821 H824 0.984 . S
N821 H825 0.985 . S
H822 N817 0.984 . S
H823 N817 0.985 . S
H824 N821 0.984 . S
H825 N821 0.985 . S
H826 N820 0.984 . S
H827 N820 0.984 1_554 S
H828 N816 0.984 . S
H829 N816 0.985 . S
C830 C831 1.363 . S
C830 C836 1.379 . S
C830 N838 1.356 . S
C831 C830 1.363 . S
C831 C837 1.363 . S
C832 C833 1.363 . S
C832 C837 1.379 . S
C832 N839 1.356 . S
C833 C832 1.363 . S
C833 C836 1.363 . S
N834 C836 1.356 . S
N834 H846 0.984 . S
N834 H847 0.985 . S
N835 C837 1.356 . S
N835 H840 0.984 . S
N835 H841 0.985 . S
C836 C830 1.379 . S
C836 C833 1.363 . S
C836 N834 1.356 . S
C837 C831 1.363 . S
C837 C832 1.379 . S
C837 N835 1.356 . S
N838 C830 1.356 . S
N838 H844 0.984 . S
N838 H845 0.984 . S
N839 C832 1.356 . S
N839 H842 0.984 . S
N839 H843 0.985 . S
H840 N835 0.984 . S
H841 N835 0.985 . S
H842 N839 0.984 . S
H843 N839 0.985 . S
H844 N838 0.984 . S
H845 N838 0.984 . S
H846 N834 0.984 . S
H847 N834 0.985 . S
C848 C849 1.363 . S
C848 C854 1.379 1_565 S
C848 N856 1.356 . S
C849 C848 1.363 . S
C849 C855 1.363 . S
C850 C851 1.363 . S
C850 C855 1.379 1_545 S
C850 N857 1.356 . S
C851 C850 1.363 . S
C851 C854 1.363 . S
N852 C854 1.356 . S
N852 H864 0.984 . S
N852 H865 0.985 . S
N853 C855 1.356 . S
N853 H858 0.984 . S
N853 H859 0.985 . S
C854 C848 1.379 1_545 S
C854 C851 1.363 . S
C854 N852 1.356 . S
C855 C849 1.363 . S
C855 C850 1.379 1_565 S
C855 N853 1.356 . S
N856 C848 1.356 . S
N856 H862 0.984 . S
N856 H863 0.984 . S
N857 C850 1.356 . S
N857 H860 0.984 . S
N857 H861 0.985 . S
H858 N853 0.984 . S
H859 N853 0.985 . S
H860 N857 0.984 . S
H861 N857 0.985 . S
H862 N856 0.984 . S
H863 N856 0.984 . S
H864 N852 0.984 . S
H865 N852 0.985 . S
C866 C867 1.363 . S
C866 C872 1.379 1_655 S
C866 N874 1.356 . S
C867 C866 1.363 . S
C867 C873 1.363 . S
C868 C869 1.363 . S
C868 C873 1.379 1_455 S
C868 N875 1.356 . S
C869 C868 1.363 . S
C869 C872 1.363 . S
N870 C872 1.356 . S
N870 H882 0.984 . S
N870 H883 0.985 . S
N871 C873 1.356 . S
N871 H876 0.984 . S
N871 H877 0.985 . S
C872 C866 1.379 1_455 S
C872 C869 1.363 . S
C872 N870 1.356 . S
C873 C867 1.363 . S
C873 C868 1.379 1_655 S
C873 N871 1.356 . S
N874 C866 1.356 . S
N874 H880 0.984 . S
N874 H881 0.984 . S
N875 C868 1.356 . S
N875 H878 0.984 . S
N875 H879 0.985 . S
H876 N871 0.984 . S
H877 N871 0.985 . S
H878 N875 0.984 . S
H879 N875 0.985 . S
H880 N874 0.984 . S
H881 N874 0.984 . S
H882 N870 0.984 . S
H883 N870 0.985 . S
C884 C885 1.363 . S
C884 C890 1.379 1_565 S
C884 N892 1.356 . S
C885 C884 1.363 . S
C885 C891 1.363 . S
C886 C887 1.363 . S
C886 C891 1.379 1_545 S
C886 N893 1.356 . S
C887 C886 1.363 . S
C887 C890 1.363 . S
N888 C890 1.356 . S
N888 H900 0.984 . S
N888 H901 0.985 . S
N889 C891 1.356 . S
N889 H894 0.984 . S
N889 H895 0.985 . S
C890 C884 1.379 1_545 S
C890 C887 1.363 . S
C890 N888 1.356 . S
C891 C885 1.363 . S
C891 C886 1.379 1_565 S
C891 N889 1.356 . S
N892 C884 1.356 . S
N892 H898 0.984 . S
N892 H899 0.984 . S
N893 C886 1.356 . S
N893 H896 0.984 . S
N893 H897 0.985 . S
H894 N889 0.984 . S
H895 N889 0.985 . S
H896 N893 0.984 . S
H897 N893 0.985 . S
H898 N892 0.984 . S
H899 N892 0.984 . S
H900 N888 0.984 . S
H901 N888 0.985 . S
C902 C903 1.363 1_556 S
C902 C908 1.379 1_655 S
C902 N910 1.356 . S
C903 C902 1.363 1_554 S
C903 C909 1.363 . S
C904 C905 1.363 . S
C904 C909 1.379 1_455 S
C904 N911 1.356 . S
C905 C904 1.363 . S
C905 C908 1.363 1_554 S
N906 C908 1.356 . S
N906 H918 0.984 . S
N906 H919 0.985 . S
N907 C909 1.356 . S
N907 H912 0.984 . S
N907 H913 0.985 . S
C908 C902 1.379 1_455 S
C908 C905 1.363 1_556 S
C908 N906 1.356 . S
C909 C903 1.363 . S
C909 C904 1.379 1_655 S
C909 N907 1.356 . S
N910 C902 1.356 . S
N910 H916 0.984 . S
N910 H917 0.984 . S
N911 C904 1.356 . S
N911 H914 0.984 . S
N911 H915 0.985 . S
H912 N907 0.984 . S
H913 N907 0.985 . S
H914 N911 0.984 . S
H915 N911 0.985 . S
H916 N910 0.984 . S
H917 N910 0.984 . S
H918 N906 0.984 . S
H919 N906 0.985 . S
C920 C921 1.363 . S
C920 C926 1.379 1_556 S
C920 N928 1.356 . S
C921 C920 1.363 . S
C921 C927 1.363 1_556 S
C922 C923 1.363 . S
C922 C927 1.379 . S
C922 N929 1.356 . S
C923 C922 1.363 . S
C923 C926 1.363 . S
N924 C926 1.356 . S
N924 H936 0.984 1_554 S
N924 H937 0.985 . S
N925 C927 1.356 . S
N925 H930 0.984 . S
N925 H931 0.985 . S
C926 C920 1.379 1_554 S
C926 C923 1.363 . S
C926 N924 1.356 . S
C927 C921 1.363 1_554 S
C927 C922 1.379 . S
C927 N925 1.356 . S
N928 C920 1.356 . S
N928 H934 0.984 . S
N928 H935 0.984 . S
N929 C922 1.356 . S
N929 H932 0.984 . S
N929 H933 0.985 . S
H930 N925 0.984 . S
H931 N925 0.985 . S
H932 N929 0.984 . S
H933 N929 0.985 . S
H934 N928 0.984 . S
H935 N928 0.984 . S
H936 N924 0.984 1_556 S
H937 N924 0.985 . S
C938 C939 1.363 . S
C938 C944 1.379 . S
C938 N946 1.356 . S
C939 C938 1.363 . S
C939 C945 1.363 . S
C940 C941 1.363 . S
C940 C945 1.379 . S
C940 N947 1.356 . S
C941 C940 1.363 . S
C941 C944 1.363 . S
N942 C944 1.356 . S
N942 H954 0.984 . S
N942 H955 0.985 . S
N943 C945 1.356 . S
N943 H948 0.984 . S
N943 H949 0.985 . S
C944 C938 1.379 . S
C944 C941 1.363 . S
C944 N942 1.356 . S
C945 C939 1.363 . S
C945 C940 1.379 . S
C945 N943 1.356 . S
N946 C938 1.356 . S
N946 H952 0.984 . S
N946 H953 0.984 . S
N947 C940 1.356 . S
N947 H950 0.984 . S
N947 H951 0.985 . S
H948 N943 0.984 . S
H949 N943 0.985 . S
H950 N947 0.984 . S
H951 N947 0.985 . S
H952 N946 0.984 . S
H953 N946 0.984 . S
H954 N942 0.984 . S
H955 N942 0.985 . S
C956 C957 1.363 . S
C956 C962 1.379 . S
C956 N964 1.356 . S
C957 C956 1.363 . S
C957 C963 1.363 . S
C958 C959 1.363 . S
C958 C963 1.379 . S
C958 N965 1.356 . S
C959 C958 1.363 . S
C959 C962 1.363 . S
N960 C962 1.356 . S
N960 H972 0.984 . S
N960 H973 0.985 . S
N961 C963 1.356 . S
N961 H966 0.984 . S
N961 H967 0.985 . S
C962 C956 1.379 . S
C962 C959 1.363 . S
C962 N960 1.356 . S
C963 C957 1.363 . S
C963 C958 1.379 . S
C963 N961 1.356 . S
N964 C956 1.356 . S
N964 H970 0.984 . S
N964 H971 0.984 . S
N965 C958 1.356 . S
N965 H968 0.984 . S
N965 H969 0.985 . S
H966 N961 0.984 . S
H967 N961 0.985 . S
H968 N965 0.984 . S
H969 N965 0.985 . S
H970 N964 0.984 . S
H971 N964 0.984 . S
H972 N960 0.984 . S
H973 N960 0.985 . S
C974 C975 1.363 . S
C974 C980 1.379 . S
C974 N982 1.356 . S
C975 C974 1.363 . S
C975 C981 1.363 . S
C976 C977 1.363 . S
C976 C981 1.379 . S
C976 N983 1.356 . S
C977 C976 1.363 . S
C977 C980 1.363 . S
N978 C980 1.356 . S
N978 H990 0.984 . S
N978 H991 0.985 . S
N979 C981 1.356 . S
N979 H984 0.984 . S
N979 H985 0.985 . S
C980 C974 1.379 . S
C980 C977 1.363 . S
C980 N978 1.356 . S
C981 C975 1.363 . S
C981 C976 1.379 . S
C981 N979 1.356 . S
N982 C974 1.356 . S
N982 H988 0.984 . S
N982 H989 0.984 . S
N983 C976 1.356 . S
N983 H986 0.984 . S
N983 H987 0.985 . S
H984 N979 0.984 . S
H985 N979 0.985 . S
H986 N983 0.984 . S
H987 N983 0.985 . S
H988 N982 0.984 . S
H989 N982 0.984 . S
H990 N978 0.984 . S
H991 N978 0.985 . S
C705 C29 0.975 . S
C707 C585 0.975 . S
C723 C108 0.975 . S
C725 C673 0.975 . S
C741 C401 0.974 . S
C743 C196 0.974 . S
C759 C489 0.974 . S
C761 C293 0.974 . S
C777 C49 1.665 . S
C779 C469 1.665 . S
C795 C145 1.665 . S
C797 C548 1.665 . S
C813 C636 1.665 . S
C815 C233 1.665 . S
C831 C313 1.665 . S
C833 C381 1.665 . S
C849 C409 1.435 . S
C851 C20 1.435 . S
C867 C117 1.435 . S
C869 C497 1.435 . S
C885 C205 1.435 . S
C887 C577 1.435 . S
C903 C665 1.435 . S
C905 C284 1.435 . S
C921 C557 1.795 . S
C923 C57 1.795 . S
C939 C645 1.795 . S
C941 C137 1.795 . S
C957 C225 1.795 . S
C959 C372 1.795 . S
C975 C321 1.795 . S
C977 C460 1.795 . S
