# Generated by pormake.
# Topology atn, (4)-cn, num edge types: 1
# Building blocks:
#     Node 0, Type 0, BuildingBlock: NAHDIM_clean_sbu_0, # of connection points: 4
#     Node 1, Type 0, BuildingBlock: NAHDIM_clean_sbu_0, # of connection points: 4
#     Node 2, Type 0, BuildingBlock: NAHDIM_clean_sbu_0, # of connection points: 4
#     Node 3, Type 0, BuildingBlock: NAHDIM_clean_sbu_0, # of connection points: 4
#     Node 4, Type 0, BuildingBlock: NAHDIM_clean_sbu_0, # of connection points: 4
#     Node 5, Type 0, BuildingBlock: NAHDIM_clean_sbu_0, # of connection points: 4
#     Node 6, Type 0, BuildingBlock: NAHDIM_clean_sbu_0, # of connection points: 4
#     Node 7, Type 0, BuildingBlock: NAHDIM_clean_sbu_0, # of connection points: 4
#     Node 8, Type 0, BuildingBlock: NAHDIM_clean_sbu_0, # of connection points: 4
#     Node 9, Type 0, BuildingBlock: NAHDIM_clean_sbu_0, # of connection points: 4
#     Node 10, Type 0, BuildingBlock: NAHDIM_clean_sbu_0, # of connection points: 4
#     Node 11, Type 0, BuildingBlock: NAHDIM_clean_sbu_0, # of connection points: 4
#     Node 12, Type 0, BuildingBlock: NAHDIM_clean_sbu_0, # of connection points: 4
#     Node 13, Type 0, BuildingBlock: NAHDIM_clean_sbu_0, # of connection points: 4
#     Node 14, Type 0, BuildingBlock: NAHDIM_clean_sbu_0, # of connection points: 4
#     Node 15, Type 0, BuildingBlock: NAHDIM_clean_sbu_0, # of connection points: 4
#     Edge 16, Type (0, 0), BuildingBlock: OJICUG_clean_linker_0, # of connection points: 2
#     Edge 17, Type (0, 0), BuildingBlock: OJICUG_clean_linker_0, # of connection points: 2
#     Edge 18, Type (0, 0), BuildingBlock: OJICUG_clean_linker_0, # of connection points: 2
#     Edge 19, Type (0, 0), BuildingBlock: OJICUG_clean_linker_0, # of connection points: 2
#     Edge 20, Type (0, 0), BuildingBlock: OJICUG_clean_linker_0, # of connection points: 2
#     Edge 21, Type (0, 0), BuildingBlock: OJICUG_clean_linker_0, # of connection points: 2
#     Edge 22, Type (0, 0), BuildingBlock: OJICUG_clean_linker_0, # of connection points: 2
#     Edge 23, Type (0, 0), BuildingBlock: OJICUG_clean_linker_0, # of connection points: 2
#     Edge 24, Type (0, 0), BuildingBlock: OJICUG_clean_linker_0, # of connection points: 2
#     Edge 25, Type (0, 0), BuildingBlock: OJICUG_clean_linker_0, # of connection points: 2
#     Edge 26, Type (0, 0), BuildingBlock: OJICUG_clean_linker_0, # of connection points: 2
#     Edge 27, Type (0, 0), BuildingBlock: OJICUG_clean_linker_0, # of connection points: 2
#     Edge 28, Type (0, 0), BuildingBlock: OJICUG_clean_linker_0, # of connection points: 2
#     Edge 29, Type (0, 0), BuildingBlock: OJICUG_clean_linker_0, # of connection points: 2
#     Edge 30, Type (0, 0), BuildingBlock: OJICUG_clean_linker_0, # of connection points: 2
#     Edge 31, Type (0, 0), BuildingBlock: OJICUG_clean_linker_0, # of connection points: 2
#     Edge 32, Type (0, 0), BuildingBlock: OJICUG_clean_linker_0, # of connection points: 2
#     Edge 33, Type (0, 0), BuildingBlock: OJICUG_clean_linker_0, # of connection points: 2
#     Edge 34, Type (0, 0), BuildingBlock: OJICUG_clean_linker_0, # of connection points: 2
#     Edge 35, Type (0, 0), BuildingBlock: OJICUG_clean_linker_0, # of connection points: 2
#     Edge 36, Type (0, 0), BuildingBlock: OJICUG_clean_linker_0, # of connection points: 2
#     Edge 37, Type (0, 0), BuildingBlock: OJICUG_clean_linker_0, # of connection points: 2
#     Edge 38, Type (0, 0), BuildingBlock: OJICUG_clean_linker_0, # of connection points: 2
#     Edge 39, Type (0, 0), BuildingBlock: OJICUG_clean_linker_0, # of connection points: 2
#     Edge 40, Type (0, 0), BuildingBlock: OJICUG_clean_linker_0, # of connection points: 2
#     Edge 41, Type (0, 0), BuildingBlock: OJICUG_clean_linker_0, # of connection points: 2
#     Edge 42, Type (0, 0), BuildingBlock: OJICUG_clean_linker_0, # of connection points: 2
#     Edge 43, Type (0, 0), BuildingBlock: OJICUG_clean_linker_0, # of connection points: 2
#     Edge 44, Type (0, 0), BuildingBlock: OJICUG_clean_linker_0, # of connection points: 2
#     Edge 45, Type (0, 0), BuildingBlock: OJICUG_clean_linker_0, # of connection points: 2
#     Edge 46, Type (0, 0), BuildingBlock: OJICUG_clean_linker_0, # of connection points: 2
#     Edge 47, Type (0, 0), BuildingBlock: OJICUG_clean_linker_0, # of connection points: 2
# Relax obj value: 0.100
# Max RMSD: 0.111
# Mean RMSD: 0.111
data_MOF--net-atn--node1-NAHDIM_clean_sbu_0--edge1-OJICUG_clean_linker_0
_symmetry_space_group_name_H-M    P1
_symmetry_Int_Tables_number       1
_symmetry_cell_setting            triclinic
loop_
_symmetry_equiv_pos_as_xyz
'x, y, z'
_cell_length_a     46.878695
_cell_length_b     46.89927
_cell_length_c     17.981314
_cell_angle_alpha  90.016324
_cell_angle_beta   89.988854
_cell_angle_gamma 89.952313
loop_
_atom_site_label
_atom_site_type_symbol
_atom_site_fract_x
_atom_site_fract_y
_atom_site_fract_z
_atom_type_partial_charge
C0 C 0.18479 0.43461 0.99154 0.0
O1 O 0.16022 0.42115 0.99251 0.0
O2 O 0.18694 0.36598 0.09483 0.0
Zn3 Zn 0.20689 0.37772 0.00036 0.0
O4 O 0.18662 0.3619 0.90964 0.0
C5 C 0.2616 0.3556 0.05623 0.0
O6 O 0.25052 0.35876 0.12285 0.0
O7 O 0.20775 0.42026 0.99433 0.0
C8 C 0.19789 0.34116 0.87469 0.0
O9 O 0.22152 0.32979 0.90034 0.0
C10 C 0.18241 0.33997 0.11081 0.0
O11 O 0.1906 0.3201 0.06392 0.0
O12 O 0.24728 0.36317 0.99964 0.0
C13 C 0.55288 0.19569 0.00267 0.0
O14 O 0.56606 0.17362 0.97354 0.0
O15 O 0.63149 0.20166 0.09269 0.0
Zn16 Zn 0.60975 0.218 0.00552 0.0
O17 O 0.61936 0.19795 0.91002 0.0
C18 C 0.63118 0.274 0.04342 0.0
O19 O 0.62838 0.26485 0.1121 0.0
O20 O 0.56736 0.21734 0.02212 0.0
C21 C 0.62915 0.17287 0.90213 0.0
O22 O 0.63327 0.15682 0.96102 0.0
C23 C 0.62338 0.18075 0.13233 0.0
O24 O 0.59936 0.16777 0.11611 0.0
O25 O 0.6232 0.2581 0.99021 0.0
C26 C 0.79983 0.55551 0.99225 0.0
O27 O 0.8238 0.56924 0.98021 0.0
O28 O 0.78878 0.62823 0.10028 0.0
Zn29 Zn 0.77852 0.61241 0.99946 0.0
O30 O 0.80694 0.62498 0.92269 0.0
C31 C 0.72091 0.63432 0.01269 0.0
O32 O 0.72377 0.62699 0.08282 0.0
O33 O 0.77702 0.56966 0.00245 0.0
C34 C 0.81564 0.65061 0.92214 0.0
O35 O 0.80685 0.66816 0.97432 0.0
C36 C 0.81438 0.62876 0.12339 0.0
O37 O 0.83468 0.61828 0.08105 0.0
O38 O 0.74102 0.62897 0.96749 0.0
C39 C 0.43579 0.79589 0.01913 0.0
O40 O 0.42145 0.81886 0.03795 0.0
O41 O 0.36432 0.7853 0.1042 0.0
Zn42 Zn 0.37962 0.77253 0.00458 0.0
O43 O 0.36442 0.79705 0.92176 0.0
C44 C 0.35785 0.71549 0.03297 0.0
O45 O 0.36109 0.72249 0.10321 0.0
O46 O 0.42228 0.77324 0.0032 0.0
C47 C 0.33868 0.79251 0.90309 0.0
O48 O 0.32359 0.77411 0.94167 0.0
C49 C 0.35538 0.81046 0.11641 0.0
O50 O 0.35644 0.8294 0.06268 0.0
O51 O 0.36567 0.73289 0.9829 0.0
C52 C 0.18977 0.55763 0.98008 0.0
O53 O 0.16635 0.57303 0.97837 0.0
O54 O 0.20364 0.62817 0.88083 0.0
Zn55 Zn 0.21605 0.61267 0.98044 0.0
O56 O 0.19238 0.6288 0.06405 0.0
C57 C 0.27351 0.633 0.9506 0.0
O58 O 0.26591 0.63054 0.88056 0.0
O59 O 0.2138 0.57011 0.98092 0.0
C60 C 0.19832 0.65417 0.08335 0.0
O61 O 0.21743 0.6684 0.04491 0.0
C62 C 0.17959 0.63994 0.86966 0.0
O63 O 0.16135 0.64195 0.92488 0.0
O64 O 0.25628 0.62515 0.00107 0.0
C65 C 0.42988 0.1967 0.02245 0.0
O66 O 0.41514 0.17349 0.00847 0.0
O67 O 0.35884 0.20557 0.93942 0.0
Zn68 Zn 0.37395 0.21927 0.03844 0.0
O69 O 0.35973 0.19478 0.12248 0.0
C70 C 0.35215 0.27558 0.00533 0.0
O71 O 0.35872 0.2686 0.93665 0.0
O72 O 0.41667 0.21965 0.03735 0.0
C73 C 0.33382 0.1986 0.1407 0.0
O74 O 0.31817 0.21621 0.10109 0.0
C75 C 0.34938 0.18056 0.92794 0.0
O76 O 0.34957 0.16197 0.98256 0.0
O77 O 0.3584 0.25853 0.05766 0.0
C78 C 0.79809 0.43231 0.99378 0.0
O79 O 0.82173 0.41762 0.98501 0.0
O80 O 0.78567 0.36103 0.90164 0.0
Zn81 Zn 0.77361 0.37648 0.00177 0.0
O82 O 0.79795 0.36056 0.08432 0.0
C83 C 0.71552 0.35798 0.97343 0.0
O84 O 0.72184 0.36348 0.9037 0.0
O85 O 0.77468 0.41911 0.00207 0.0
C86 C 0.79333 0.33455 0.10001 0.0
O87 O 0.77527 0.32008 0.05879 0.0
C88 C 0.81069 0.35198 0.88801 0.0
O89 O 0.83008 0.35292 0.94071 0.0
O90 O 0.73382 0.36321 0.0236 0.0
C91 C 0.55885 0.79763 0.00223 0.0
O92 O 0.57334 0.81947 0.02797 0.0
O93 O 0.6304 0.79365 0.88074 0.0
Zn94 Zn 0.61496 0.77549 0.97398 0.0
O95 O 0.63035 0.79614 0.06352 0.0
C96 C 0.64085 0.72142 0.93062 0.0
O97 O 0.64263 0.73321 0.86452 0.0
O98 O 0.57222 0.77641 0.9754 0.0
C99 C 0.65504 0.78912 0.08623 0.0
O100 O 0.66962 0.76994 0.04888 0.0
C101 C 0.63233 0.8206 0.8752 0.0
O102 O 0.62355 0.83661 0.93062 0.0
O103 O 0.62862 0.73495 0.98286 0.0
C104 C 0.69417 0.92891 0.45536 0.0
O105 O 0.67157 0.91469 0.43319 0.0
O106 O 0.69517 0.85656 0.56531 0.0
Zn107 Zn 0.71521 0.87237 0.47464 0.0
O108 O 0.69476 0.85865 0.38305 0.0
C109 C 0.76823 0.84627 0.52362 0.0
O110 O 0.75668 0.84818 0.59003 0.0
O111 O 0.71612 0.91518 0.47616 0.0
C112 C 0.70044 0.83351 0.36119 0.0
O113 O 0.71811 0.8178 0.4004 0.0
C114 C 0.68533 0.87206 0.61739 0.0
O115 O 0.68815 0.89987 0.61328 0.0
O116 O 0.75504 0.85661 0.46818 0.0
C117 C 0.06062 0.6935 0.48286 0.0
O118 O 0.07589 0.67023 0.49161 0.0
O119 O 0.12852 0.6993 0.57008 0.0
Zn120 Zn 0.11592 0.71677 0.47286 0.0
O121 O 0.13081 0.69455 0.38441 0.0
C122 C 0.13884 0.77203 0.51772 0.0
O123 O 0.13511 0.7626 0.58583 0.0
O124 O 0.07331 0.71704 0.47202 0.0
C125 C 0.154 0.70299 0.35502 0.0
O126 O 0.16787 0.72427 0.38577 0.0
C127 C 0.15228 0.68686 0.58038 0.0
O128 O 0.17046 0.68491 0.52502 0.0
O129 O 0.13078 0.75677 0.46338 0.0
C130 C 0.30172 0.05716 0.52275 0.0
O131 O 0.32548 0.07202 0.52329 0.0
O132 O 0.29399 0.12516 0.6281 0.0
Zn133 Zn 0.27667 0.11269 0.53059 0.0
O134 O 0.29789 0.12937 0.44261 0.0
C135 C 0.22121 0.13682 0.57346 0.0
O136 O 0.23206 0.13853 0.64067 0.0
O137 O 0.27798 0.07017 0.52509 0.0
C138 C 0.28773 0.15171 0.41243 0.0
O139 O 0.26526 0.16395 0.44217 0.0
C140 C 0.30309 0.15027 0.63994 0.0
O141 O 0.30133 0.16935 0.58666 0.0
O142 O 0.2358 0.12546 0.52187 0.0
C143 C 0.92963 0.29392 0.49452 0.0
O144 O 0.91526 0.3179 0.50003 0.0
O145 O 0.8621 0.29207 0.58926 0.0
Zn146 Zn 0.8733 0.27203 0.49418 0.0
O147 O 0.85852 0.29334 0.4039 0.0
C148 C 0.84453 0.22036 0.54572 0.0
O149 O 0.84379 0.23356 0.61014 0.0
O150 O 0.91601 0.27057 0.49015 0.0
C151 C 0.83669 0.28372 0.3702 0.0
O152 O 0.82366 0.26117 0.39694 0.0
C153 C 0.83736 0.30215 0.60142 0.0
O154 O 0.81768 0.29981 0.54977 0.0
O155 O 0.85724 0.23206 0.49132 0.0
C156 C 0.69012 0.05171 0.47901 0.0
O157 O 0.66595 0.06518 0.46722 0.0
O158 O 0.68451 0.12283 0.42114 0.0
Zn159 Zn 0.70565 0.10804 0.51147 0.0
O160 O 0.68221 0.11449 0.60343 0.0
C161 C 0.76339 0.13128 0.48416 0.0
O162 O 0.76237 0.11835 0.41938 0.0
O163 O 0.71181 0.06598 0.49926 0.0
C164 C 0.67117 0.1389 0.61372 0.0
O165 O 0.67406 0.15845 0.56195 0.0
C166 C 0.69008 0.14607 0.38781 0.0
O167 O 0.71081 0.16233 0.41258 0.0
O168 O 0.74245 0.12908 0.52861 0.0
C169 C 0.93787 0.68927 0.50765 0.0
O170 O 0.92466 0.66459 0.51029 0.0
O171 O 0.86848 0.687 0.42007 0.0
Zn172 Zn 0.88087 0.70727 0.51307 0.0
O173 O 0.8702 0.68451 0.6032 0.0
C174 C 0.85488 0.76178 0.47044 0.0
O175 O 0.86287 0.7553 0.40246 0.0
O176 O 0.92319 0.71203 0.50918 0.0
C177 C 0.87284 0.69692 0.66566 0.0
O178 O 0.88361 0.72277 0.66763 0.0
C179 C 0.8425 0.68396 0.40168 0.0
O180 O 0.82247 0.69438 0.44501 0.0
O181 O 0.86095 0.74495 0.52338 0.0
C182 C 0.30391 0.93404 0.51393 0.0
O183 O 0.32808 0.92007 0.50702 0.0
O184 O 0.29952 0.86567 0.416 0.0
Zn185 Zn 0.28097 0.87763 0.51236 0.0
O186 O 0.30192 0.8615 0.60143 0.0
C187 C 0.22569 0.85543 0.46249 0.0
O188 O 0.23588 0.85851 0.39491 0.0
O189 O 0.28072 0.92016 0.51788 0.0
C190 C 0.29204 0.83904 0.63158 0.0
O191 O 0.2699 0.8264 0.60141 0.0
C192 C 0.30684 0.8401 0.40238 0.0
O193 O 0.30248 0.82041 0.45305 0.0
O194 O 0.2406 0.86337 0.5176 0.0
C195 C 0.0529 0.29455 0.50415 0.0
O196 O 0.06692 0.31873 0.50851 0.0
O197 O 0.12596 0.28385 0.40871 0.0
Zn198 Zn 0.10952 0.27183 0.50771 0.0
O199 O 0.12329 0.29769 0.58957 0.0
C200 C 0.1329 0.21481 0.48731 0.0
O201 O 0.12887 0.21991 0.41624 0.0
O202 O 0.06677 0.27127 0.50325 0.0
C203 C 0.14967 0.29514 0.60439 0.0
O204 O 0.16534 0.27827 0.56264 0.0
C205 C 0.13133 0.30975 0.39328 0.0
O206 O 0.12585 0.32953 0.44302 0.0
O207 O 0.12474 0.23314 0.53474 0.0
C208 C 0.2135 0.50991 0.98426 0.0
C209 C 0.18832 0.52616 0.98211 0.0
H210 H 0.23213 0.46837 0.98888 0.0
C211 C 0.16189 0.51205 0.98252 0.0
H212 H 0.23423 0.5201 0.98398 0.0
C213 C 0.16068 0.48228 0.98536 0.0
C214 C 0.18589 0.46607 0.98783 0.0
H215 H 0.1421 0.52397 0.9809 0.0
H216 H 0.13999 0.47202 0.98582 0.0
C217 C 0.2123 0.48021 0.98708 0.0
C218 C 0.4759 0.1715 0.99666 0.0
C219 C 0.46138 0.19622 0.01947 0.0
H220 H 0.51616 0.15194 0.97349 0.0
C221 C 0.47725 0.22058 0.0385 0.0
H222 H 0.46431 0.15238 0.98168 0.0
C223 C 0.50699 0.22029 0.03409 0.0
C224 C 0.52148 0.19569 0.01022 0.0
H225 H 0.4667 0.23994 0.0565 0.0
H226 H 0.51859 0.23947 0.04858 0.0
C227 C 0.50564 0.17126 0.99193 0.0
C228 C 0.82431 0.47862 0.98298 0.0
C229 C 0.79861 0.46383 0.99383 0.0
H230 H 0.84487 0.51917 0.97397 0.0
C231 C 0.77332 0.47943 0.00456 0.0
H232 H 0.84416 0.46723 0.97457 0.0
C233 C 0.77372 0.5092 0.00429 0.0
C234 C 0.79941 0.524 0.9932 0.0
H235 H 0.75314 0.46868 0.01313 0.0
H236 H 0.75386 0.52058 0.0126 0.0
C237 C 0.82471 0.50841 0.98263 0.0
C238 C 0.51233 0.8212 0.03279 0.0
C239 C 0.52736 0.79736 0.00609 0.0
H240 H 0.47157 0.83946 0.05785 0.0
C241 C 0.51204 0.77308 0.98386 0.0
H242 H 0.52351 0.84024 0.05039 0.0
C243 C 0.48233 0.77259 0.98844 0.0
C244 C 0.46727 0.79642 0.01505 0.0
H245 H 0.52298 0.75434 0.96314 0.0
H246 H 0.47119 0.75352 0.97085 0.0
C247 C 0.48256 0.82076 0.03708 0.0
C248 C 0.66776 0.00507 0.44564 0.0
C249 C 0.69165 0.02039 0.47075 0.0
H250 H 0.64987 0.96426 0.4208 0.0
C251 C 0.71666 0.00543 0.48906 0.0
H252 H 0.64818 0.01595 0.43086 0.0
C253 C 0.71761 0.97572 0.4834 0.0
C254 C 0.69358 0.96039 0.45914 0.0
H255 H 0.73544 0.01662 0.50853 0.0
H256 H 0.73711 0.96477 0.49861 0.0
C257 C 0.66873 0.97541 0.43981 0.0
C258 C 0.98547 0.66523 0.50369 0.0
C259 C 0.96926 0.69043 0.50138 0.0
H260 H 0.02702 0.64644 0.49959 0.0
C261 C 0.98331 0.71665 0.49228 0.0
H262 H 0.97529 0.64468 0.51062 0.0
C263 C 0.01297 0.71764 0.48559 0.0
C264 C 0.02919 0.69244 0.4882 0.0
H265 H 0.97141 0.73644 0.4901 0.0
H266 H 0.02318 0.73819 0.4788 0.0
C267 C 0.01514 0.66623 0.49731 0.0
C268 C 0.32855 0.01098 0.51585 0.0
C269 C 0.30246 0.02568 0.52025 0.0
H270 H 0.3495 0.97045 0.51035 0.0
C271 C 0.27695 0.01 0.52263 0.0
H272 H 0.34857 0.02245 0.51392 0.0
C273 C 0.27749 0.98027 0.52075 0.0
C274 C 0.30354 0.96554 0.5163 0.0
H275 H 0.25649 0.02066 0.52608 0.0
H276 H 0.25741 0.96887 0.52267 0.0
C277 C 0.32908 0.98118 0.51381 0.0
C278 C 0.00598 0.32009 0.50317 0.0
C279 C 0.02138 0.29439 0.50066 0.0
H280 H 0.96496 0.3401 0.50307 0.0
C281 C 0.00637 0.26855 0.49505 0.0
H282 H 0.01689 0.34037 0.50739 0.0
C283 C 0.97659 0.26839 0.49246 0.0
C284 C 0.96118 0.29408 0.49551 0.0
H285 H 0.0176 0.24837 0.49288 0.0
H286 H 0.96567 0.24811 0.4885 0.0
C287 C 0.97619 0.31993 0.50065 0.0
C288 C 0.29943 0.33525 0.9736 0.0
C289 C 0.28823 0.33915 0.04549 0.0
H290 H 0.32873 0.31239 0.90461 0.0
C291 C 0.30102 0.32481 0.10541 0.0
H292 H 0.29025 0.3462 0.92626 0.0
C293 C 0.32312 0.30537 0.09291 0.0
C294 C 0.3329 0.29994 0.02027 0.0
H295 H 0.29303 0.32748 0.16151 0.0
H296 H 0.33156 0.29359 0.13983 0.0
C297 C 0.32155 0.31588 0.96115 0.0
C298 C 0.67308 0.32903 0.93593 0.0
C299 C 0.68998 0.34098 0.99235 0.0
H300 H 0.6409 0.29859 0.90795 0.0
C301 C 0.68424 0.3338 0.06682 0.0
H302 H 0.67678 0.33429 0.87807 0.0
C303 C 0.66361 0.31337 0.08401 0.0
C304 C 0.6484 0.29965 0.02705 0.0
H305 H 0.69668 0.34287 0.11173 0.0
H306 H 0.66078 0.30721 0.1416 0.0
C307 C 0.65252 0.30852 0.9531 0.0
C308 C 0.69505 0.66207 0.91466 0.0
C309 C 0.69695 0.65272 0.98883 0.0
H310 H 0.67553 0.69089 0.83774 0.0
C311 C 0.67748 0.66345 0.04124 0.0
H312 H 0.70955 0.65401 0.87269 0.0
C313 C 0.65796 0.68462 0.02115 0.0
C314 C 0.65749 0.69545 0.94819 0.0
H315 H 0.67821 0.65656 0.09869 0.0
H316 H 0.6442 0.69343 0.06376 0.0
C317 C 0.6755 0.6832 0.89453 0.0
C318 C 0.31487 0.66405 0.91646 0.0
C319 C 0.29903 0.64975 0.97125 0.0
H320 H 0.34617 0.69593 0.89303 0.0
C321 C 0.30576 0.65434 0.04655 0.0
H322 H 0.31039 0.66085 0.85796 0.0
C323 C 0.32633 0.67443 0.06672 0.0
C324 C 0.34052 0.6904 0.012 0.0
H325 H 0.29413 0.64346 0.09019 0.0
H326 H 0.32995 0.67851 0.12526 0.0
C327 C 0.33539 0.6842 0.93663 0.0
C328 C 0.82463 0.80237 0.42558 0.0
C329 C 0.83588 0.78639 0.48474 0.0
H330 H 0.79456 0.8341 0.3915 0.0
C331 C 0.82702 0.79268 0.55769 0.0
H332 H 0.83111 0.79817 0.3688 0.0
C333 C 0.8061 0.81329 0.57078 0.0
C334 C 0.79357 0.82805 0.51121 0.0
H335 H 0.83547 0.78094 0.60467 0.0
H336 H 0.79896 0.81679 0.62735 0.0
C337 C 0.80367 0.82299 0.43868 0.0
C338 C 0.19087 0.8323 0.54902 0.0
C339 C 0.19974 0.83823 0.47586 0.0
H340 H 0.16442 0.80689 0.61974 0.0
C341 C 0.18549 0.82505 0.41644 0.0
H342 H 0.20123 0.84228 0.59614 0.0
C343 C 0.1643 0.80477 0.43006 0.0
C344 C 0.15699 0.79724 0.5034 0.0
H345 H 0.19163 0.8293 0.35945 0.0
H346 H 0.15472 0.79398 0.38303 0.0
C347 C 0.16972 0.81199 0.56264 0.0
C348 C 0.18551 0.15382 0.47987 0.0
C349 C 0.19491 0.15266 0.55414 0.0
H350 H 0.15829 0.17419 0.40051 0.0
C351 C 0.18086 0.16931 0.60776 0.0
H352 H 0.19571 0.14109 0.43718 0.0
C353 C 0.15933 0.18828 0.58665 0.0
C354 C 0.15146 0.191 0.51145 0.0
H355 H 0.18742 0.16878 0.6655 0.0
H356 H 0.14991 0.20182 0.62884 0.0
C357 C 0.16402 0.17281 0.45875 0.0
C358 C 0.82607 0.18154 0.46262 0.0
C359 C 0.82685 0.19467 0.53299 0.0
H360 H 0.80555 0.151 0.39201 0.0
C361 C 0.80854 0.18467 0.58902 0.0
H362 H 0.83998 0.18866 0.41826 0.0
C363 C 0.78874 0.16322 0.57382 0.0
C364 C 0.7869 0.15115 0.50236 0.0
H365 H 0.80865 0.1942 0.6439 0.0
H366 H 0.77424 0.15674 0.61759 0.0
C367 C 0.80634 0.15993 0.44752 0.0
C368 C 0.15122 0.29624 0.26854 0.0
C369 C 0.14398 0.31746 0.32049 0.0
H370 H 0.16902 0.28666 0.16173 0.0
C371 C 0.14915 0.34615 0.30246 0.0
H372 H 0.14753 0.27392 0.28066 0.0
C373 C 0.16142 0.35345 0.23421 0.0
C374 C 0.16885 0.33223 0.18245 0.0
H375 H 0.14381 0.36304 0.34114 0.0
H376 H 0.16522 0.37577 0.22228 0.0
C377 C 0.16356 0.30354 0.20031 0.0
C378 C 0.64931 0.13879 0.29949 0.0
C379 C 0.67317 0.15477 0.32204 0.0
H380 H 0.61487 0.13445 0.22213 0.0
C381 C 0.68065 0.17919 0.28121 0.0
H382 H 0.64295 0.11986 0.32972 0.0
C383 C 0.66463 0.18747 0.21931 0.0
C384 C 0.64065 0.1716 0.19706 0.0
H385 H 0.69893 0.19195 0.29695 0.0
H386 H 0.67095 0.20645 0.18924 0.0
C387 C 0.63318 0.14716 0.23781 0.0
C388 C 0.85666 0.65752 0.2864 0.0
C389 C 0.83511 0.66926 0.33142 0.0
H390 H 0.86704 0.63548 0.18582 0.0
C391 C 0.80658 0.66705 0.30815 0.0
H392 H 0.87886 0.65879 0.30272 0.0
C393 C 0.79979 0.65367 0.24093 0.0
C394 C 0.82139 0.64217 0.19564 0.0
H395 H 0.78947 0.67585 0.34153 0.0
H396 H 0.77761 0.65252 0.22429 0.0
C397 C 0.84988 0.64411 0.21934 0.0
C398 C 0.3228 0.85335 0.27383 0.0
C399 C 0.31966 0.83259 0.32965 0.0
H400 H 0.33649 0.86268 0.16292 0.0
C401 C 0.32866 0.80455 0.31499 0.0
H402 H 0.31608 0.87515 0.28323 0.0
C403 C 0.34044 0.79741 0.24599 0.0
C404 C 0.3434 0.81813 0.19 0.0
H405 H 0.32657 0.78804 0.35675 0.0
H406 H 0.34705 0.77558 0.23644 0.0
C407 C 0.3345 0.84619 0.20476 0.0
C408 C 0.18545 0.6609 0.66643 0.0
C409 C 0.15925 0.6747 0.65423 0.0
H410 H 0.21243 0.63909 0.74381 0.0
C411 C 0.13973 0.67681 0.71339 0.0
H412 H 0.20097 0.65889 0.62209 0.0
C413 C 0.14628 0.66543 0.78318 0.0
C414 C 0.1725 0.65169 0.79545 0.0
H415 H 0.11934 0.6873 0.70594 0.0
H416 H 0.13078 0.6675 0.82754 0.0
C417 C 0.19201 0.64953 0.73626 0.0
C418 C 0.32548 0.18562 0.72678 0.0
C419 C 0.31522 0.15795 0.71335 0.0
H420 H 0.34433 0.21446 0.80479 0.0
C421 C 0.31654 0.1377 0.77093 0.0
H422 H 0.32481 0.20173 0.68368 0.0
C423 C 0.32773 0.145 0.84045 0.0
C424 C 0.33789 0.1727 0.85397 0.0
H425 H 0.30883 0.11617 0.76249 0.0
H426 H 0.32833 0.1289 0.88362 0.0
C427 C 0.3367 0.19291 0.79628 0.0
C428 C 0.79674 0.33809 0.75817 0.0
C429 C 0.81767 0.33986 0.81405 0.0
H430 H 0.78651 0.32487 0.64736 0.0
C431 C 0.84522 0.32956 0.79889 0.0
H432 H 0.77529 0.34584 0.76797 0.0
C433 C 0.85164 0.31754 0.72971 0.0
C434 C 0.83066 0.31554 0.67405 0.0
H435 H 0.86185 0.3306 0.8406 0.0
H436 H 0.87306 0.30967 0.72011 0.0
C437 C 0.80317 0.32607 0.68896 0.0
C438 C 0.65628 0.81662 0.75089 0.0
C439 C 0.64519 0.83373 0.80826 0.0
H440 H 0.67766 0.81525 0.64578 0.0
C441 C 0.647 0.86353 0.8017 0.0
H442 H 0.65525 0.79358 0.75421 0.0
C443 C 0.65986 0.87596 0.73953 0.0
C444 C 0.67121 0.85887 0.68252 0.0
H445 H 0.63862 0.87734 0.8448 0.0
H446 H 0.661 0.899 0.73642 0.0
C447 C 0.66915 0.82905 0.68872 0.0
C448 C 0.85828 0.70015 0.79914 0.0
C449 C 0.86103 0.6839 0.73384 0.0
H450 H 0.84177 0.70236 0.90992 0.0
C451 C 0.85072 0.65578 0.7331 0.0
H452 H 0.86606 0.72187 0.8016 0.0
C453 C 0.83697 0.64453 0.79545 0.0
C454 C 0.83301 0.66128 0.8595 0.0
H455 H 0.85267 0.64266 0.68376 0.0
H456 H 0.82858 0.62304 0.79246 0.0
C457 C 0.8443 0.689 0.86122 0.0
C458 C 0.33018 0.83797 0.72984 0.0
C459 C 0.30418 0.82775 0.70149 0.0
H460 H 0.36162 0.8348 0.81612 0.0
C461 C 0.2894 0.8066 0.7411 0.0
H462 H 0.34202 0.85432 0.70061 0.0
C463 C 0.30038 0.79573 0.80731 0.0
C464 C 0.32657 0.80553 0.83522 0.0
H465 H 0.26921 0.79839 0.72113 0.0
H466 H 0.28847 0.77928 0.83596 0.0
C467 C 0.34136 0.82683 0.79597 0.0
C468 C 0.14638 0.32758 0.71554 0.0
C469 C 0.16212 0.30836 0.67163 0.0
H470 H 0.14537 0.35323 0.81439 0.0
C471 C 0.18972 0.30063 0.6944 0.0
H472 H 0.12504 0.33393 0.69941 0.0
C473 C 0.20114 0.31135 0.76024 0.0
C474 C 0.18539 0.33031 0.8047 0.0
H475 H 0.20242 0.28583 0.66207 0.0
H476 H 0.2224 0.30469 0.77625 0.0
C477 C 0.15799 0.33859 0.78135 0.0
C478 C 0.63501 0.18124 0.7657 0.0
C479 C 0.63763 0.16291 0.82722 0.0
H480 H 0.64338 0.18797 0.65021 0.0
C481 C 0.64954 0.1357 0.81671 0.0
H482 H 0.62579 0.2023 0.77165 0.0
C483 C 0.65955 0.12742 0.74663 0.0
C484 C 0.65794 0.14625 0.68588 0.0
H485 H 0.65173 0.12104 0.86287 0.0
H486 H 0.66929 0.1066 0.74065 0.0
C487 C 0.6451 0.17303 0.69592 0.0
C488 C 0.83675 0.32339 0.276 0.0
C489 C 0.8264 0.29686 0.3004 0.0
H490 H 0.83438 0.35627 0.19326 0.0
C491 C 0.80596 0.2826 0.25711 0.0
H492 H 0.85257 0.33486 0.30812 0.0
C493 C 0.79585 0.29462 0.1913 0.0
C494 C 0.80572 0.32137 0.16741 0.0
H495 H 0.79767 0.26203 0.27396 0.0
H496 H 0.7799 0.28308 0.15983 0.0
C497 C 0.82637 0.33562 0.21024 0.0
C498 C 0.65449 0.82527 0.18907 0.0
C499 C 0.66665 0.80097 0.15598 0.0
H500 H 0.65582 0.85485 0.27996 0.0
C501 C 0.68983 0.78756 0.19096 0.0
H502 H 0.6366 0.83605 0.16329 0.0
C503 C 0.70051 0.79802 0.25796 0.0
C504 C 0.68852 0.82239 0.29096 0.0
H505 H 0.69957 0.7687 0.16708 0.0
H506 H 0.71838 0.78712 0.28352 0.0
C507 C 0.66549 0.83603 0.25574 0.0
C508 C 0.15308 0.66498 0.25632 0.0
C509 C 0.16481 0.69022 0.2853 0.0
H510 H 0.15451 0.63362 0.16947 0.0
C511 C 0.18702 0.70369 0.2464 0.0
H512 H 0.1359 0.65415 0.28503 0.0
C513 C 0.19736 0.69221 0.18017 0.0
C514 C 0.18598 0.66679 0.15153 0.0
H515 H 0.19643 0.72326 0.26687 0.0
H516 H 0.21462 0.70312 0.15204 0.0
C517 C 0.16369 0.65326 0.19018 0.0
C518 C 0.32615 0.15351 0.3149 0.0
C519 C 0.29985 0.1632 0.34271 0.0
H520 H 0.35769 0.15716 0.22894 0.0
C521 C 0.28466 0.18394 0.30257 0.0
H522 H 0.33831 0.13748 0.34455 0.0
C523 C 0.29551 0.19487 0.23631 0.0
C524 C 0.32198 0.18558 0.20888 0.0
H525 H 0.26423 0.19173 0.3221 0.0
H526 H 0.28326 0.21097 0.2072 0.0
C527 C 0.33722 0.16474 0.24873 0.0
loop_
_geom_bond_atom_site_label_1
_geom_bond_atom_site_label_2
_geom_bond_distance
_geom_bond_site_symmetry_2
_ccdc_geom_bond_type
C0 O1 1.160 . S
C0 O7 1.185 1_554 S
O1 C0 1.160 . S
O2 Zn3 1.899 . S
O2 C10 1.284 . S
Zn3 O2 1.899 . S
Zn3 O4 2.032 1_554 S
Zn3 O7 2.086 1_554 S
Zn3 O12 1.977 1_554 S
O4 Zn3 2.032 1_556 S
O4 C8 1.278 . S
C5 O6 1.203 . S
C5 O12 1.267 1_554 S
O6 C5 1.203 . S
O7 C0 1.185 1_556 S
O7 Zn3 2.086 1_556 S
C8 O4 1.278 . S
C8 O9 1.211 . S
O9 C8 1.211 . S
C10 O2 1.284 . S
C10 O11 1.273 . S
O11 C10 1.273 . S
O12 Zn3 1.977 1_556 S
O12 C5 1.267 1_556 S
C13 O14 1.160 . S
C13 O20 1.185 1_554 S
O14 C13 1.160 . S
O15 Zn16 1.899 . S
O15 C23 1.284 . S
Zn16 O15 1.899 . S
Zn16 O17 2.032 1_554 S
Zn16 O20 2.086 1_554 S
Zn16 O25 1.977 1_554 S
O17 Zn16 2.032 1_556 S
O17 C21 1.278 . S
C18 O19 1.203 . S
C18 O25 1.267 1_554 S
O19 C18 1.203 . S
O20 C13 1.185 1_556 S
O20 Zn16 2.086 1_556 S
C21 O17 1.278 . S
C21 O22 1.211 . S
O22 C21 1.211 . S
C23 O15 1.284 . S
C23 O24 1.273 . S
O24 C23 1.273 . S
O25 Zn16 1.977 1_556 S
O25 C18 1.267 1_556 S
C26 O27 1.160 . S
C26 O33 1.185 1_554 S
O27 C26 1.160 . S
O28 Zn29 1.899 . S
O28 C36 1.284 . S
Zn29 O28 1.899 . S
Zn29 O30 2.032 1_554 S
Zn29 O33 2.086 1_554 S
Zn29 O38 1.977 1_554 S
O30 Zn29 2.032 1_556 S
O30 C34 1.278 . S
C31 O32 1.203 . S
C31 O38 1.267 1_554 S
O32 C31 1.203 . S
O33 C26 1.185 1_556 S
O33 Zn29 2.086 1_556 S
C34 O30 1.278 . S
C34 O35 1.211 . S
O35 C34 1.211 . S
C36 O28 1.284 . S
C36 O37 1.273 . S
O37 C36 1.273 . S
O38 Zn29 1.977 1_556 S
O38 C31 1.267 1_556 S
C39 O40 1.160 . S
C39 O46 1.185 1_554 S
O40 C39 1.160 . S
O41 Zn42 1.899 . S
O41 C49 1.284 . S
Zn42 O41 1.899 . S
Zn42 O43 2.032 1_554 S
Zn42 O46 2.086 1_554 S
Zn42 O51 1.977 1_554 S
O43 Zn42 2.032 1_556 S
O43 C47 1.278 . S
C44 O45 1.203 . S
C44 O51 1.267 1_554 S
O45 C44 1.203 . S
O46 C39 1.185 1_556 S
O46 Zn42 2.086 1_556 S
C47 O43 1.278 . S
C47 O48 1.211 . S
O48 C47 1.211 . S
C49 O41 1.284 . S
C49 O50 1.273 . S
O50 C49 1.273 . S
O51 Zn42 1.977 1_556 S
O51 C44 1.267 1_556 S
C52 O53 1.160 . S
C52 O59 1.185 1_556 S
O53 C52 1.160 . S
O54 Zn55 1.899 . S
O54 C62 1.284 . S
Zn55 O54 1.899 . S
Zn55 O56 2.032 1_556 S
Zn55 O59 2.086 1_556 S
Zn55 O64 1.977 1_556 S
O56 Zn55 2.032 1_554 S
O56 C60 1.278 . S
C57 O58 1.203 . S
C57 O64 1.267 1_556 S
O58 C57 1.203 . S
O59 C52 1.185 1_554 S
O59 Zn55 2.086 1_554 S
C60 O56 1.278 . S
C60 O61 1.211 . S
O61 C60 1.211 . S
C62 O54 1.284 . S
C62 O63 1.273 . S
O63 C62 1.273 . S
O64 Zn55 1.977 1_554 S
O64 C57 1.267 1_554 S
C65 O66 1.160 . S
C65 O72 1.185 1_556 S
O66 C65 1.160 . S
O67 Zn68 1.899 . S
O67 C75 1.284 . S
Zn68 O67 1.899 . S
Zn68 O69 2.032 1_556 S
Zn68 O72 2.086 1_556 S
Zn68 O77 1.977 1_556 S
O69 Zn68 2.032 1_554 S
O69 C73 1.278 . S
C70 O71 1.203 . S
C70 O77 1.267 1_556 S
O71 C70 1.203 . S
O72 C65 1.185 1_554 S
O72 Zn68 2.086 1_554 S
C73 O69 1.278 . S
C73 O74 1.211 . S
O74 C73 1.211 . S
C75 O67 1.284 . S
C75 O76 1.273 . S
O76 C75 1.273 . S
O77 Zn68 1.977 1_554 S
O77 C70 1.267 1_554 S
C78 O79 1.160 . S
C78 O85 1.185 1_556 S
O79 C78 1.160 . S
O80 Zn81 1.899 . S
O80 C88 1.284 . S
Zn81 O80 1.899 . S
Zn81 O82 2.032 1_556 S
Zn81 O85 2.086 1_556 S
Zn81 O90 1.977 1_556 S
O82 Zn81 2.032 1_554 S
O82 C86 1.278 . S
C83 O84 1.203 . S
C83 O90 1.267 1_556 S
O84 C83 1.203 . S
O85 C78 1.185 1_554 S
O85 Zn81 2.086 1_554 S
C86 O82 1.278 . S
C86 O87 1.211 . S
O87 C86 1.211 . S
C88 O80 1.284 . S
C88 O89 1.273 . S
O89 C88 1.273 . S
O90 Zn81 1.977 1_554 S
O90 C83 1.267 1_554 S
C91 O92 1.160 . S
C91 O98 1.185 1_556 S
O92 C91 1.160 . S
O93 Zn94 1.899 . S
O93 C101 1.284 . S
Zn94 O93 1.899 . S
Zn94 O95 2.032 1_556 S
Zn94 O98 2.086 1_556 S
Zn94 O103 1.977 1_556 S
O95 Zn94 2.032 1_554 S
O95 C99 1.278 . S
C96 O97 1.203 . S
C96 O103 1.267 1_556 S
O97 C96 1.203 . S
O98 C91 1.185 1_554 S
O98 Zn94 2.086 1_554 S
C99 O95 1.278 . S
C99 O100 1.211 . S
O100 C99 1.211 . S
C101 O93 1.284 . S
C101 O102 1.273 . S
O102 C101 1.273 . S
O103 Zn94 1.977 1_554 S
O103 C96 1.267 1_554 S
C104 O105 1.160 . S
C104 O111 1.185 . S
O105 C104 1.160 . S
O106 Zn107 1.899 . S
O106 C114 1.284 . S
Zn107 O106 1.899 . S
Zn107 O108 2.032 . S
Zn107 O111 2.086 . S
Zn107 O116 1.977 . S
O108 Zn107 2.032 . S
O108 C112 1.278 . S
C109 O110 1.203 . S
C109 O116 1.267 . S
O110 C109 1.203 . S
O111 C104 1.185 . S
O111 Zn107 2.086 . S
C112 O108 1.278 . S
C112 O113 1.211 . S
O113 C112 1.211 . S
C114 O106 1.284 . S
C114 O115 1.273 . S
O115 C114 1.273 . S
O116 Zn107 1.977 . S
O116 C109 1.267 . S
C117 O118 1.160 . S
C117 O124 1.185 . S
O118 C117 1.160 . S
O119 Zn120 1.899 . S
O119 C127 1.284 . S
Zn120 O119 1.899 . S
Zn120 O121 2.032 . S
Zn120 O124 2.086 . S
Zn120 O129 1.977 . S
O121 Zn120 2.032 . S
O121 C125 1.278 . S
C122 O123 1.203 . S
C122 O129 1.267 . S
O123 C122 1.203 . S
O124 C117 1.185 . S
O124 Zn120 2.086 . S
C125 O121 1.278 . S
C125 O126 1.211 . S
O126 C125 1.211 . S
C127 O119 1.284 . S
C127 O128 1.273 . S
O128 C127 1.273 . S
O129 Zn120 1.977 . S
O129 C122 1.267 . S
C130 O131 1.160 . S
C130 O137 1.185 . S
O131 C130 1.160 . S
O132 Zn133 1.899 . S
O132 C140 1.284 . S
Zn133 O132 1.899 . S
Zn133 O134 2.032 . S
Zn133 O137 2.086 . S
Zn133 O142 1.977 . S
O134 Zn133 2.032 . S
O134 C138 1.278 . S
C135 O136 1.203 . S
C135 O142 1.267 . S
O136 C135 1.203 . S
O137 C130 1.185 . S
O137 Zn133 2.086 . S
C138 O134 1.278 . S
C138 O139 1.211 . S
O139 C138 1.211 . S
C140 O132 1.284 . S
C140 O141 1.273 . S
O141 C140 1.273 . S
O142 Zn133 1.977 . S
O142 C135 1.267 . S
C143 O144 1.160 . S
C143 O150 1.185 . S
O144 C143 1.160 . S
O145 Zn146 1.899 . S
O145 C153 1.284 . S
Zn146 O145 1.899 . S
Zn146 O147 2.032 . S
Zn146 O150 2.086 . S
Zn146 O155 1.977 . S
O147 Zn146 2.032 . S
O147 C151 1.278 . S
C148 O149 1.203 . S
C148 O155 1.267 . S
O149 C148 1.203 . S
O150 C143 1.185 . S
O150 Zn146 2.086 . S
C151 O147 1.278 . S
C151 O152 1.211 . S
O152 C151 1.211 . S
C153 O145 1.284 . S
C153 O154 1.273 . S
O154 C153 1.273 . S
O155 Zn146 1.977 . S
O155 C148 1.267 . S
C156 O157 1.160 . S
C156 O163 1.185 . S
O157 C156 1.160 . S
O158 Zn159 1.899 . S
O158 C166 1.284 . S
Zn159 O158 1.899 . S
Zn159 O160 2.032 . S
Zn159 O163 2.086 . S
Zn159 O168 1.977 . S
O160 Zn159 2.032 . S
O160 C164 1.278 . S
C161 O162 1.203 . S
C161 O168 1.267 . S
O162 C161 1.203 . S
O163 C156 1.185 . S
O163 Zn159 2.086 . S
C164 O160 1.278 . S
C164 O165 1.211 . S
O165 C164 1.211 . S
C166 O158 1.284 . S
C166 O167 1.273 . S
O167 C166 1.273 . S
O168 Zn159 1.977 . S
O168 C161 1.267 . S
C169 O170 1.160 . S
C169 O176 1.185 . S
O170 C169 1.160 . S
O171 Zn172 1.899 . S
O171 C179 1.284 . S
Zn172 O171 1.899 . S
Zn172 O173 2.032 . S
Zn172 O176 2.086 . S
Zn172 O181 1.977 . S
O173 Zn172 2.032 . S
O173 C177 1.278 . S
C174 O175 1.203 . S
C174 O181 1.267 . S
O175 C174 1.203 . S
O176 C169 1.185 . S
O176 Zn172 2.086 . S
C177 O173 1.278 . S
C177 O178 1.211 . S
O178 C177 1.211 . S
C179 O171 1.284 . S
C179 O180 1.273 . S
O180 C179 1.273 . S
O181 Zn172 1.977 . S
O181 C174 1.267 . S
C182 O183 1.160 . S
C182 O189 1.185 . S
O183 C182 1.160 . S
O184 Zn185 1.899 . S
O184 C192 1.284 . S
Zn185 O184 1.899 . S
Zn185 O186 2.032 . S
Zn185 O189 2.086 . S
Zn185 O194 1.977 . S
O186 Zn185 2.032 . S
O186 C190 1.278 . S
C187 O188 1.203 . S
C187 O194 1.267 . S
O188 C187 1.203 . S
O189 C182 1.185 . S
O189 Zn185 2.086 . S
C190 O186 1.278 . S
C190 O191 1.211 . S
O191 C190 1.211 . S
C192 O184 1.284 . S
C192 O193 1.273 . S
O193 C192 1.273 . S
O194 Zn185 1.977 . S
O194 C187 1.267 . S
C195 O196 1.160 . S
C195 O202 1.185 . S
O196 C195 1.160 . S
O197 Zn198 1.899 . S
O197 C205 1.284 . S
Zn198 O197 1.899 . S
Zn198 O199 2.032 . S
Zn198 O202 2.086 . S
Zn198 O207 1.977 . S
O199 Zn198 2.032 . S
O199 C203 1.278 . S
C200 O201 1.203 . S
C200 O207 1.267 . S
O201 C200 1.203 . S
O202 C195 1.185 . S
O202 Zn198 2.086 . S
C203 O199 1.278 . S
C203 O204 1.211 . S
O204 C203 1.211 . S
C205 O197 1.284 . S
C205 O206 1.273 . S
O206 C205 1.273 . S
O207 Zn198 1.977 . S
O207 C200 1.267 . S
C208 C209 1.387 . S
C208 H212 0.950 . S
C208 C217 1.390 1_554 S
C209 C208 1.387 . S
C209 C211 1.387 . S
H210 C217 0.950 . S
C211 C209 1.387 . S
C211 C213 1.390 1_554 S
C211 H215 0.950 . S
H212 C208 0.950 . S
C213 C211 1.390 1_556 S
C213 C214 1.388 . S
C213 H216 0.950 . S
C214 C213 1.388 . S
C214 C217 1.388 . S
H215 C211 0.950 . S
H216 C213 0.950 . S
C217 C208 1.390 1_556 S
C217 H210 0.950 . S
C217 C214 1.388 . S
C218 C219 1.387 . S
C218 H222 0.950 . S
C218 C227 1.390 1_554 S
C219 C218 1.387 . S
C219 C221 1.387 . S
H220 C227 0.950 . S
C221 C219 1.387 . S
C221 C223 1.390 1_554 S
C221 H225 0.950 . S
H222 C218 0.950 . S
C223 C221 1.390 1_556 S
C223 C224 1.387 . S
C223 H226 0.950 . S
C224 C223 1.387 . S
C224 C227 1.387 . S
H225 C221 0.950 . S
H226 C223 0.950 . S
C227 C218 1.390 1_556 S
C227 H220 0.950 . S
C227 C224 1.387 . S
C228 C229 1.387 . S
C228 H232 0.950 . S
C228 C237 1.390 1_554 S
C229 C228 1.387 . S
C229 C231 1.387 . S
H230 C237 0.950 . S
C231 C229 1.387 . S
C231 C233 1.390 1_554 S
C231 H235 0.950 . S
H232 C228 0.950 . S
C233 C231 1.390 1_556 S
C233 C234 1.387 . S
C233 H236 0.950 . S
C234 C233 1.387 . S
C234 C237 1.387 . S
H235 C231 0.950 . S
H236 C233 0.950 . S
C237 C228 1.390 1_556 S
C237 H230 0.950 . S
C237 C234 1.387 . S
C238 C239 1.387 . S
C238 H242 0.950 . S
C238 C247 1.390 1_554 S
C239 C238 1.387 . S
C239 C241 1.387 . S
H240 C247 0.950 . S
C241 C239 1.387 . S
C241 C243 1.390 1_554 S
C241 H245 0.950 . S
H242 C238 0.950 . S
C243 C241 1.390 1_556 S
C243 C244 1.387 . S
C243 H246 0.950 . S
C244 C243 1.387 . S
C244 C247 1.387 . S
H245 C241 0.950 . S
H246 C243 0.950 . S
C247 C238 1.390 1_556 S
C247 H240 0.950 . S
C247 C244 1.387 . S
C248 C249 1.387 . S
C248 H252 0.950 . S
C248 C257 1.390 1_545 S
C249 C248 1.387 . S
C249 C251 1.387 . S
H250 C257 0.950 . S
C251 C249 1.387 . S
C251 C253 1.390 1_545 S
C251 H255 0.950 . S
H252 C248 0.950 . S
C253 C251 1.390 1_565 S
C253 C254 1.387 . S
C253 H256 0.950 . S
C254 C253 1.387 . S
C254 C257 1.387 . S
H255 C251 0.950 . S
H256 C253 0.950 . S
C257 C248 1.390 1_565 S
C257 H250 0.950 . S
C257 C254 1.387 . S
C258 C259 1.387 . S
C258 H262 0.950 . S
C258 C267 1.390 1_655 S
C259 C258 1.387 . S
C259 C261 1.387 . S
H260 C267 0.950 . S
C261 C259 1.387 . S
C261 C263 1.390 1_655 S
C261 H265 0.950 . S
H262 C258 0.950 . S
C263 C261 1.390 1_455 S
C263 C264 1.387 . S
C263 H266 0.950 . S
C264 C263 1.387 . S
C264 C267 1.387 . S
H265 C261 0.950 . S
H266 C263 0.950 . S
C267 C258 1.390 1_455 S
C267 H260 0.950 . S
C267 C264 1.387 . S
C268 C269 1.387 . S
C268 H272 0.950 . S
C268 C277 1.390 1_545 S
C269 C268 1.387 . S
C269 C271 1.387 . S
H270 C277 0.950 . S
C271 C269 1.387 . S
C271 C273 1.390 1_545 S
C271 H275 0.950 . S
H272 C268 0.950 . S
C273 C271 1.390 1_565 S
C273 C274 1.387 . S
C273 H276 0.950 . S
C274 C273 1.387 . S
C274 C277 1.387 . S
H275 C271 0.950 . S
H276 C273 0.950 . S
C277 C268 1.390 1_565 S
C277 H270 0.950 . S
C277 C274 1.387 . S
C278 C279 1.387 . S
C278 H282 0.950 . S
C278 C287 1.390 1_455 S
C279 C278 1.387 . S
C279 C281 1.387 . S
H280 C287 0.950 . S
C281 C279 1.387 . S
C281 C283 1.390 1_455 S
C281 H285 0.950 . S
H282 C278 0.950 . S
C283 C281 1.390 1_655 S
C283 C284 1.387 . S
C283 H286 0.950 . S
C284 C283 1.387 . S
C284 C287 1.387 . S
H285 C281 0.950 . S
H286 C283 0.950 . S
C287 C278 1.390 1_655 S
C287 H280 0.950 . S
C287 C284 1.387 . S
C288 C289 1.387 1_556 S
C288 H292 0.950 . S
C288 C297 1.390 . S
C289 C288 1.387 1_554 S
C289 C291 1.387 . S
H290 C297 0.950 . S
C291 C289 1.387 . S
C291 C293 1.390 . S
C291 H295 0.950 . S
H292 C288 0.950 . S
C293 C291 1.390 . S
C293 C294 1.375 1_554 S
C293 H296 0.950 . S
C294 C293 1.375 1_556 S
C294 C297 1.399 . S
H295 C291 0.950 . S
H296 C293 0.950 . S
C297 C288 1.390 . S
C297 H290 0.950 . S
C297 C294 1.399 . S
C298 C299 1.397 . S
C298 H302 0.950 . S
C298 C307 1.390 . S
C299 C298 1.397 . S
C299 C301 1.377 1_556 S
H300 C307 0.950 . S
C301 C299 1.377 1_554 S
C301 C303 1.390 . S
C301 H305 0.950 . S
H302 C298 0.950 . S
C303 C301 1.390 . S
C303 C304 1.387 . S
C303 H306 0.950 . S
C304 C303 1.387 . S
C304 C307 1.387 1_554 S
H305 C301 0.950 . S
H306 C303 0.950 . S
C307 C298 1.390 . S
C307 H300 0.950 . S
C307 C304 1.387 1_556 S
C308 C309 1.387 1_556 S
C308 H312 0.950 . S
C308 C317 1.390 . S
C309 C308 1.387 1_554 S
C309 C311 1.387 . S
H310 C317 0.950 . S
C311 C309 1.387 . S
C311 C313 1.390 . S
C311 H315 0.950 . S
H312 C308 0.950 . S
C313 C311 1.390 . S
C313 C314 1.375 1_554 S
C313 H316 0.950 . S
C314 C313 1.375 1_556 S
C314 C317 1.399 . S
H315 C311 0.950 . S
H316 C313 0.950 . S
C317 C308 1.390 . S
C317 H310 0.950 . S
C317 C314 1.399 . S
C318 C319 1.399 . S
C318 H322 0.950 . S
C318 C327 1.390 . S
C319 C318 1.399 . S
C319 C321 1.375 1_556 S
H320 C327 0.950 . S
C321 C319 1.375 1_554 S
C321 C323 1.390 . S
C321 H325 0.950 . S
H322 C318 0.950 . S
C323 C321 1.390 . S
C323 C324 1.387 . S
C323 H326 0.950 . S
C324 C323 1.387 . S
C324 C327 1.387 1_554 S
H325 C321 0.950 . S
H326 C323 0.950 . S
C327 C318 1.390 . S
C327 H320 0.950 . S
C327 C324 1.387 1_556 S
C328 C329 1.387 . S
C328 H332 0.950 . S
C328 C337 1.390 . S
C329 C328 1.387 . S
C329 C331 1.387 . S
H330 C337 0.950 . S
C331 C329 1.387 . S
C331 C333 1.390 . S
C331 H335 0.950 . S
H332 C328 0.950 . S
C333 C331 1.390 . S
C333 C334 1.387 . S
C333 H336 0.950 . S
C334 C333 1.387 . S
C334 C337 1.387 . S
H335 C331 0.950 . S
H336 C333 0.950 . S
C337 C328 1.390 . S
C337 H330 0.950 . S
C337 C334 1.387 . S
C338 C339 1.387 . S
C338 H342 0.950 . S
C338 C347 1.390 . S
C339 C338 1.387 . S
C339 C341 1.387 . S
H340 C347 0.950 . S
C341 C339 1.387 . S
C341 C343 1.390 . S
C341 H345 0.950 . S
H342 C338 0.950 . S
C343 C341 1.390 . S
C343 C344 1.387 . S
C343 H346 0.950 . S
C344 C343 1.387 . S
C344 C347 1.387 . S
H345 C341 0.950 . S
H346 C343 0.950 . S
C347 C338 1.390 . S
C347 H340 0.950 . S
C347 C344 1.387 . S
C348 C349 1.387 . S
C348 H352 0.950 . S
C348 C357 1.390 . S
C349 C348 1.387 . S
C349 C351 1.387 . S
H350 C357 0.950 . S
C351 C349 1.387 . S
C351 C353 1.390 . S
C351 H355 0.950 . S
H352 C348 0.950 . S
C353 C351 1.390 . S
C353 C354 1.387 . S
C353 H356 0.950 . S
C354 C353 1.387 . S
C354 C357 1.387 . S
H355 C351 0.950 . S
H356 C353 0.950 . S
C357 C348 1.390 . S
C357 H350 0.950 . S
C357 C354 1.387 . S
C358 C359 1.387 . S
C358 H362 0.950 . S
C358 C367 1.390 . S
C359 C358 1.387 . S
C359 C361 1.387 . S
H360 C367 0.950 . S
C361 C359 1.387 . S
C361 C363 1.390 . S
C361 H365 0.950 . S
H362 C358 0.950 . S
C363 C361 1.390 . S
C363 C364 1.387 . S
C363 H366 0.950 . S
C364 C363 1.387 . S
C364 C367 1.387 . S
H365 C361 0.950 . S
H366 C363 0.950 . S
C367 C358 1.390 . S
C367 H360 0.950 . S
C367 C364 1.387 . S
C368 C369 1.387 . S
C368 H372 0.950 . S
C368 C377 1.390 . S
C369 C368 1.387 . S
C369 C371 1.387 . S
H370 C377 0.950 . S
C371 C369 1.387 . S
C371 C373 1.390 . S
C371 H375 0.950 . S
H372 C368 0.950 . S
C373 C371 1.390 . S
C373 C374 1.387 . S
C373 H376 0.950 . S
C374 C373 1.387 . S
C374 C377 1.387 . S
H375 C371 0.950 . S
H376 C373 0.950 . S
C377 C368 1.390 . S
C377 H370 0.950 . S
C377 C374 1.387 . S
C378 C379 1.387 . S
C378 H382 0.950 . S
C378 C387 1.390 . S
C379 C378 1.387 . S
C379 C381 1.387 . S
H380 C387 0.950 . S
C381 C379 1.387 . S
C381 C383 1.390 . S
C381 H385 0.950 . S
H382 C378 0.950 . S
C383 C381 1.390 . S
C383 C384 1.387 . S
C383 H386 0.950 . S
C384 C383 1.387 . S
C384 C387 1.387 . S
H385 C381 0.950 . S
H386 C383 0.950 . S
C387 C378 1.390 . S
C387 H380 0.950 . S
C387 C384 1.387 . S
C388 C389 1.387 . S
C388 H392 0.950 . S
C388 C397 1.390 . S
C389 C388 1.387 . S
C389 C391 1.387 . S
H390 C397 0.950 . S
C391 C389 1.387 . S
C391 C393 1.390 . S
C391 H395 0.950 . S
H392 C388 0.950 . S
C393 C391 1.390 . S
C393 C394 1.387 . S
C393 H396 0.950 . S
C394 C393 1.387 . S
C394 C397 1.387 . S
H395 C391 0.950 . S
H396 C393 0.950 . S
C397 C388 1.390 . S
C397 H390 0.950 . S
C397 C394 1.387 . S
C398 C399 1.387 . S
C398 H402 0.950 . S
C398 C407 1.390 . S
C399 C398 1.387 . S
C399 C401 1.387 . S
H400 C407 0.950 . S
C401 C399 1.387 . S
C401 C403 1.390 . S
C401 H405 0.950 . S
H402 C398 0.950 . S
C403 C401 1.390 . S
C403 C404 1.387 . S
C403 H406 0.950 . S
C404 C403 1.387 . S
C404 C407 1.387 . S
H405 C401 0.950 . S
H406 C403 0.950 . S
C407 C398 1.390 . S
C407 H400 0.950 . S
C407 C404 1.387 . S
C408 C409 1.387 . S
C408 H412 0.950 . S
C408 C417 1.390 . S
C409 C408 1.387 . S
C409 C411 1.387 . S
H410 C417 0.950 . S
C411 C409 1.387 . S
C411 C413 1.390 . S
C411 H415 0.950 . S
H412 C408 0.950 . S
C413 C411 1.390 . S
C413 C414 1.387 . S
C413 H416 0.950 . S
C414 C413 1.387 . S
C414 C417 1.387 . S
H415 C411 0.950 . S
H416 C413 0.950 . S
C417 C408 1.390 . S
C417 H410 0.950 . S
C417 C414 1.387 . S
C418 C419 1.387 . S
C418 H422 0.950 . S
C418 C427 1.390 . S
C419 C418 1.387 . S
C419 C421 1.387 . S
H420 C427 0.950 . S
C421 C419 1.387 . S
C421 C423 1.390 . S
C421 H425 0.950 . S
H422 C418 0.950 . S
C423 C421 1.390 . S
C423 C424 1.387 . S
C423 H426 0.950 . S
C424 C423 1.387 . S
C424 C427 1.387 . S
H425 C421 0.950 . S
H426 C423 0.950 . S
C427 C418 1.390 . S
C427 H420 0.950 . S
C427 C424 1.387 . S
C428 C429 1.387 . S
C428 H432 0.950 . S
C428 C437 1.390 . S
C429 C428 1.387 . S
C429 C431 1.387 . S
H430 C437 0.950 . S
C431 C429 1.387 . S
C431 C433 1.390 . S
C431 H435 0.950 . S
H432 C428 0.950 . S
C433 C431 1.390 . S
C433 C434 1.387 . S
C433 H436 0.950 . S
C434 C433 1.387 . S
C434 C437 1.387 . S
H435 C431 0.950 . S
H436 C433 0.950 . S
C437 C428 1.390 . S
C437 H430 0.950 . S
C437 C434 1.387 . S
C438 C439 1.387 . S
C438 H442 0.950 . S
C438 C447 1.390 . S
C439 C438 1.387 . S
C439 C441 1.387 . S
H440 C447 0.950 . S
C441 C439 1.387 . S
C441 C443 1.390 . S
C441 H445 0.950 . S
H442 C438 0.950 . S
C443 C441 1.390 . S
C443 C444 1.387 . S
C443 H446 0.950 . S
C444 C443 1.387 . S
C444 C447 1.387 . S
H445 C441 0.950 . S
H446 C443 0.950 . S
C447 C438 1.390 . S
C447 H440 0.950 . S
C447 C444 1.387 . S
C448 C449 1.387 . S
C448 H452 0.950 . S
C448 C457 1.390 . S
C449 C448 1.387 . S
C449 C451 1.387 . S
H450 C457 0.950 . S
C451 C449 1.387 . S
C451 C453 1.390 . S
C451 H455 0.950 . S
H452 C448 0.950 . S
C453 C451 1.390 . S
C453 C454 1.387 . S
C453 H456 0.950 . S
C454 C453 1.387 . S
C454 C457 1.387 . S
H455 C451 0.950 . S
H456 C453 0.950 . S
C457 C448 1.390 . S
C457 H450 0.950 . S
C457 C454 1.387 . S
C458 C459 1.387 . S
C458 H462 0.950 . S
C458 C467 1.390 . S
C459 C458 1.387 . S
C459 C461 1.387 . S
H460 C467 0.950 . S
C461 C459 1.387 . S
C461 C463 1.390 . S
C461 H465 0.950 . S
H462 C458 0.950 . S
C463 C461 1.390 . S
C463 C464 1.387 . S
C463 H466 0.950 . S
C464 C463 1.387 . S
C464 C467 1.387 . S
H465 C461 0.950 . S
H466 C463 0.950 . S
C467 C458 1.390 . S
C467 H460 0.950 . S
C467 C464 1.387 . S
C468 C469 1.387 . S
C468 H472 0.950 . S
C468 C477 1.390 . S
C469 C468 1.387 . S
C469 C471 1.387 . S
H470 C477 0.950 . S
C471 C469 1.387 . S
C471 C473 1.390 . S
C471 H475 0.950 . S
H472 C468 0.950 . S
C473 C471 1.390 . S
C473 C474 1.387 . S
C473 H476 0.950 . S
C474 C473 1.387 . S
C474 C477 1.387 . S
H475 C471 0.950 . S
H476 C473 0.950 . S
C477 C468 1.390 . S
C477 H470 0.950 . S
C477 C474 1.387 . S
C478 C479 1.387 . S
C478 H482 0.950 . S
C478 C487 1.390 . S
C479 C478 1.387 . S
C479 C481 1.387 . S
H480 C487 0.950 . S
C481 C479 1.387 . S
C481 C483 1.390 . S
C481 H485 0.950 . S
H482 C478 0.950 . S
C483 C481 1.390 . S
C483 C484 1.387 . S
C483 H486 0.950 . S
C484 C483 1.387 . S
C484 C487 1.387 . S
H485 C481 0.950 . S
H486 C483 0.950 . S
C487 C478 1.390 . S
C487 H480 0.950 . S
C487 C484 1.387 . S
C488 C489 1.387 . S
C488 H492 0.950 . S
C488 C497 1.390 . S
C489 C488 1.387 . S
C489 C491 1.387 . S
H490 C497 0.950 . S
C491 C489 1.387 . S
C491 C493 1.390 . S
C491 H495 0.950 . S
H492 C488 0.950 . S
C493 C491 1.390 . S
C493 C494 1.387 . S
C493 H496 0.950 . S
C494 C493 1.387 . S
C494 C497 1.387 . S
H495 C491 0.950 . S
H496 C493 0.950 . S
C497 C488 1.390 . S
C497 H490 0.950 . S
C497 C494 1.387 . S
C498 C499 1.387 . S
C498 H502 0.950 . S
C498 C507 1.390 . S
C499 C498 1.387 . S
C499 C501 1.387 . S
H500 C507 0.950 . S
C501 C499 1.387 . S
C501 C503 1.390 . S
C501 H505 0.950 . S
H502 C498 0.950 . S
C503 C501 1.390 . S
C503 C504 1.387 . S
C503 H506 0.950 . S
C504 C503 1.387 . S
C504 C507 1.387 . S
H505 C501 0.950 . S
H506 C503 0.950 . S
C507 C498 1.390 . S
C507 H500 0.950 . S
C507 C504 1.387 . S
C508 C509 1.387 . S
C508 H512 0.950 . S
C508 C517 1.390 . S
C509 C508 1.387 . S
C509 C511 1.387 . S
H510 C517 0.950 . S
C511 C509 1.387 . S
C511 C513 1.390 . S
C511 H515 0.950 . S
H512 C508 0.950 . S
C513 C511 1.390 . S
C513 C514 1.387 . S
C513 H516 0.950 . S
C514 C513 1.387 . S
C514 C517 1.387 . S
H515 C511 0.950 . S
H516 C513 0.950 . S
C517 C508 1.390 . S
C517 H510 0.950 . S
C517 C514 1.387 . S
C518 C519 1.387 . S
C518 H522 0.950 . S
C518 C527 1.390 . S
C519 C518 1.387 . S
C519 C521 1.387 . S
H520 C527 0.950 . S
C521 C519 1.387 . S
C521 C523 1.390 . S
C521 H525 0.950 . S
H522 C518 0.950 . S
C523 C521 1.390 . S
C523 C524 1.387 . S
C523 H526 0.950 . S
C524 C523 1.387 . S
C524 C527 1.387 . S
H525 C521 0.950 . S
H526 C523 0.950 . S
C527 C518 1.390 . S
C527 H520 0.950 . S
C527 C524 1.387 . S
C209 C52 1.244 1_554 S
C214 C0 1.244 1_556 S
C219 C65 1.247 1_554 S
C224 C13 1.247 1_556 S
C229 C78 1.247 1_554 S
C234 C26 1.247 1_556 S
C239 C91 1.247 1_554 S
C244 C39 1.247 1_556 S
C249 C156 1.247 . S
C254 C104 1.247 . S
C259 C169 1.247 . S
C264 C117 1.247 . S
C269 C130 1.247 . S
C274 C182 1.247 . S
C279 C195 1.247 . S
C284 C143 1.247 . S
C289 C5 1.339 . S
C294 C70 1.344 . S
C299 C83 1.343 . S
C304 C18 1.339 . S
C309 C31 1.339 . S
C314 C96 1.344 . S
C319 C57 1.344 . S
C324 C44 1.339 . S
C329 C174 1.342 . S
C334 C109 1.339 . S
C339 C187 1.339 . S
C344 C122 1.342 . S
C349 C135 1.339 . S
C354 C200 1.342 . S
C359 C148 1.339 . S
C364 C161 1.342 . S
C369 C205 1.439 . S
C374 C10 1.439 . S
C379 C166 1.440 . S
C384 C23 1.440 . S
C389 C179 1.440 . S
C394 C36 1.440 . S
C399 C192 1.439 . S
C404 C49 1.440 . S
C409 C127 1.440 . S
C414 C62 1.439 . S
C419 C140 1.439 . S
C424 C75 1.439 . S
C429 C88 1.439 . S
C434 C153 1.440 . S
C439 C101 1.439 . S
C444 C114 1.439 . S
C449 C177 1.462 . S
C454 C34 1.460 . S
C459 C190 1.460 . S
C464 C47 1.461 . S
C469 C203 1.462 . S
C474 C8 1.459 . S
C479 C21 1.462 . S
C484 C164 1.459 . S
C489 C151 1.459 . S
C494 C86 1.462 . S
C499 C99 1.459 . S
C504 C112 1.462 . S
C509 C125 1.459 . S
C514 C60 1.462 . S
C519 C138 1.462 . S
C524 C73 1.459 . S
