# Generated by pormake.
# Topology wme, (6)-cn, num edge types: 1
# Building blocks:
#     Node 0, Type 0, BuildingBlock: BETFEN_clean_sbu_0, # of connection points: 6
#     Node 1, Type 0, BuildingBlock: BETFEN_clean_sbu_0, # of connection points: 6
#     Node 2, Type 0, BuildingBlock: BETFEN_clean_sbu_0, # of connection points: 6
#     Node 3, Type 0, BuildingBlock: BETFEN_clean_sbu_0, # of connection points: 6
#     Node 4, Type 0, BuildingBlock: BETFEN_clean_sbu_0, # of connection points: 6
#     Node 5, Type 0, BuildingBlock: BETFEN_clean_sbu_0, # of connection points: 6
#     Node 6, Type 0, BuildingBlock: BETFEN_clean_sbu_0, # of connection points: 6
#     Node 7, Type 0, BuildingBlock: BETFEN_clean_sbu_0, # of connection points: 6
#     Node 8, Type 0, BuildingBlock: BETFEN_clean_sbu_0, # of connection points: 6
#     Node 9, Type 0, BuildingBlock: BETFEN_clean_sbu_0, # of connection points: 6
#     Node 10, Type 0, BuildingBlock: BETFEN_clean_sbu_0, # of connection points: 6
#     Node 11, Type 0, BuildingBlock: BETFEN_clean_sbu_0, # of connection points: 6
#     Edge 12, Type (0, 0), BuildingBlock: UVAHIK_clean_linker_0, # of connection points: 2
#     Edge 13, Type (0, 0), BuildingBlock: UVAHIK_clean_linker_0, # of connection points: 2
#     Edge 14, Type (0, 0), BuildingBlock: UVAHIK_clean_linker_0, # of connection points: 2
#     Edge 15, Type (0, 0), BuildingBlock: UVAHIK_clean_linker_0, # of connection points: 2
#     Edge 16, Type (0, 0), BuildingBlock: UVAHIK_clean_linker_0, # of connection points: 2
#     Edge 17, Type (0, 0), BuildingBlock: UVAHIK_clean_linker_0, # of connection points: 2
#     Edge 18, Type (0, 0), BuildingBlock: UVAHIK_clean_linker_0, # of connection points: 2
#     Edge 19, Type (0, 0), BuildingBlock: UVAHIK_clean_linker_0, # of connection points: 2
#     Edge 20, Type (0, 0), BuildingBlock: UVAHIK_clean_linker_0, # of connection points: 2
#     Edge 21, Type (0, 0), BuildingBlock: UVAHIK_clean_linker_0, # of connection points: 2
#     Edge 22, Type (0, 0), BuildingBlock: UVAHIK_clean_linker_0, # of connection points: 2
#     Edge 23, Type (0, 0), BuildingBlock: UVAHIK_clean_linker_0, # of connection points: 2
#     Edge 24, Type (0, 0), BuildingBlock: UVAHIK_clean_linker_0, # of connection points: 2
#     Edge 25, Type (0, 0), BuildingBlock: UVAHIK_clean_linker_0, # of connection points: 2
#     Edge 26, Type (0, 0), BuildingBlock: UVAHIK_clean_linker_0, # of connection points: 2
#     Edge 27, Type (0, 0), BuildingBlock: UVAHIK_clean_linker_0, # of connection points: 2
#     Edge 28, Type (0, 0), BuildingBlock: UVAHIK_clean_linker_0, # of connection points: 2
#     Edge 29, Type (0, 0), BuildingBlock: UVAHIK_clean_linker_0, # of connection points: 2
#     Edge 30, Type (0, 0), BuildingBlock: UVAHIK_clean_linker_0, # of connection points: 2
#     Edge 31, Type (0, 0), BuildingBlock: UVAHIK_clean_linker_0, # of connection points: 2
#     Edge 32, Type (0, 0), BuildingBlock: UVAHIK_clean_linker_0, # of connection points: 2
#     Edge 33, Type (0, 0), BuildingBlock: UVAHIK_clean_linker_0, # of connection points: 2
#     Edge 34, Type (0, 0), BuildingBlock: UVAHIK_clean_linker_0, # of connection points: 2
#     Edge 35, Type (0, 0), BuildingBlock: UVAHIK_clean_linker_0, # of connection points: 2
#     Edge 36, Type (0, 0), BuildingBlock: UVAHIK_clean_linker_0, # of connection points: 2
#     Edge 37, Type (0, 0), BuildingBlock: UVAHIK_clean_linker_0, # of connection points: 2
#     Edge 38, Type (0, 0), BuildingBlock: UVAHIK_clean_linker_0, # of connection points: 2
#     Edge 39, Type (0, 0), BuildingBlock: UVAHIK_clean_linker_0, # of connection points: 2
#     Edge 40, Type (0, 0), BuildingBlock: UVAHIK_clean_linker_0, # of connection points: 2
#     Edge 41, Type (0, 0), BuildingBlock: UVAHIK_clean_linker_0, # of connection points: 2
#     Edge 42, Type (0, 0), BuildingBlock: UVAHIK_clean_linker_0, # of connection points: 2
#     Edge 43, Type (0, 0), BuildingBlock: UVAHIK_clean_linker_0, # of connection points: 2
#     Edge 44, Type (0, 0), BuildingBlock: UVAHIK_clean_linker_0, # of connection points: 2
#     Edge 45, Type (0, 0), BuildingBlock: UVAHIK_clean_linker_0, # of connection points: 2
#     Edge 46, Type (0, 0), BuildingBlock: UVAHIK_clean_linker_0, # of connection points: 2
#     Edge 47, Type (0, 0), BuildingBlock: UVAHIK_clean_linker_0, # of connection points: 2
# Relax obj value: 0.101
# Max RMSD: 0.196
# Mean RMSD: 0.196
data_MOF--net-wme--node1-BETFEN_clean_sbu_0--edge1-UVAHIK_clean_linker_0
_symmetry_space_group_name_H-M    P1
_symmetry_Int_Tables_number       1
_symmetry_cell_setting            triclinic
loop_
_symmetry_equiv_pos_as_xyz
'x, y, z'
_cell_length_a     50.008659
_cell_length_b     50.05928
_cell_length_c     67.771195
_cell_angle_alpha  90.097463
_cell_angle_beta   89.945422
_cell_angle_gamma 120.02403
loop_
_atom_site_label
_atom_site_type_symbol
_atom_site_fract_x
_atom_site_fract_y
_atom_site_fract_z
_atom_type_partial_charge
Pr0 Pr 0.19466 0.35755 0.1224 0.0
Pr1 Pr 0.22622 0.31706 0.135 0.0
C2 C 0.16476 0.38948 0.11812 0.0
C3 C 0.17059 0.42158 0.11808 0.0
C4 C 0.16617 0.43396 0.10063 0.0
C5 C 0.16897 0.46319 0.10058 0.0
C6 C 0.17605 0.48067 0.11804 0.0
C7 C 0.18157 0.46873 0.13537 0.0
C8 C 0.17884 0.43949 0.1354 0.0
C9 C 0.21681 0.33564 0.09221 0.0
C10 C 0.26863 0.3935 0.13134 0.0
C11 C 0.24968 0.27899 0.13438 0.0
C12 C 0.23725 0.2452 0.13474 0.0
C13 C 0.23884 0.2311 0.15226 0.0
C14 C 0.22701 0.19927 0.15309 0.0
C15 C 0.21352 0.18071 0.13635 0.0
C16 C 0.21176 0.19476 0.11881 0.0
C17 C 0.22354 0.22668 0.11799 0.0
C18 C 0.21264 0.34002 0.16882 0.0
C19 C 0.14942 0.28203 0.13176 0.0
O20 O 0.16677 0.37782 0.13497 0.0
O21 O 0.17539 0.38097 0.10318 0.0
O22 O 0.20234 0.32096 0.10733 0.0
O23 O 0.22019 0.36317 0.09199 0.0
O24 O 0.26835 0.36708 0.12847 0.0
O25 O 0.24308 0.39492 0.13298 0.0
O26 O 0.24572 0.29121 0.11836 0.0
O27 O 0.24614 0.29113 0.15056 0.0
O28 O 0.20815 0.34474 0.15122 0.0
O29 O 0.22467 0.32234 0.16937 0.0
O30 O 0.15145 0.30878 0.12742 0.0
O31 O 0.17388 0.27883 0.13463 0.0
H32 H 0.15987 0.42072 0.08705 0.0
H33 H 0.16508 0.47189 0.08691 0.0
H34 H 0.1868 0.48143 0.14912 0.0
H35 H 0.18243 0.43067 0.14912 0.0
H36 H 0.24923 0.24472 0.16542 0.0
H37 H 0.22835 0.18917 0.16691 0.0
H38 H 0.20185 0.18118 0.10558 0.0
H39 H 0.222 0.23679 0.10424 0.0
Pr40 Pr 0.84494 0.19185 0.62118 0.0
Pr41 Pr 0.9147 0.22478 0.63334 0.0
C42 C 0.78541 0.17178 0.61202 0.0
C43 C 0.75891 0.17684 0.61421 0.0
C44 C 0.74312 0.17711 0.59719 0.0
C45 C 0.71594 0.1784 0.59866 0.0
C46 C 0.70391 0.17937 0.61723 0.0
C47 C 0.72052 0.18054 0.63428 0.0
C48 C 0.74778 0.17921 0.63279 0.0
C49 C 0.88838 0.20789 0.59103 0.0
C50 C 0.8807 0.26612 0.63352 0.0
C51 C 0.97533 0.24543 0.62855 0.0
C52 C 0.99656 0.23295 0.63081 0.0
C53 C 0.01211 0.23574 0.64867 0.0
C54 C 0.03268 0.22447 0.65026 0.0
C55 C 0.03829 0.21051 0.63398 0.0
C56 C 0.02231 0.20726 0.6163 0.0
C57 C 1.00183 0.21841 0.61471 0.0
C58 C 0.88097 0.20501 0.66818 0.0
C59 C 0.87267 0.14715 0.63029 0.0
O60 O 0.79383 0.1616 0.62723 0.0
O61 O 0.80853 0.1914 0.60114 0.0
O62 O 0.88977 0.22468 0.60523 0.0
O63 O 0.86431 0.18054 0.59236 0.0
O64 O 0.90781 0.26769 0.63164 0.0
O65 O 0.85437 0.23963 0.63309 0.0
O66 O 0.95502 0.23336 0.61432 0.0
O67 O 0.96425 0.25129 0.6445 0.0
O68 O 0.86901 0.2008 0.65117 0.0
O69 O 0.91092 0.21984 0.6675 0.0
O70 O 0.84706 0.14849 0.62981 0.0
O71 O 0.90035 0.17222 0.62947 0.0
H72 H 0.75135 0.17542 0.5827 0.0
H73 H 0.70397 0.17799 0.58525 0.0
H74 H 0.71177 0.18113 0.6488 0.0
H75 H 0.7596 0.17914 0.64616 0.0
H76 H 1.00868 0.24692 0.66133 0.0
H77 H 0.04486 0.2275 0.66403 0.0
H78 H 0.02581 0.19623 0.60358 0.0
H79 H 0.99032 0.21583 0.60071 0.0
Pr80 Pr 0.66129 0.83994 0.12144 0.0
Pr81 Pr 0.69765 0.91035 0.1337 0.0
C82 C 0.62257 0.77945 0.11444 0.0
C83 C 0.59019 0.75391 0.11537 0.0
C84 C 0.57514 0.73911 0.09783 0.0
C85 C 0.54619 0.71233 0.09835 0.0
C86 C 0.53169 0.69962 0.11646 0.0
C87 C 0.54606 0.71533 0.134 0.0
C88 C 0.57507 0.74219 0.13347 0.0
C89 C 0.6895 0.88329 0.09147 0.0
C90 C 0.62196 0.87672 0.13016 0.0
C91 C 0.7367 0.971 0.12854 0.0
C92 C 0.77002 0.99329 0.13084 0.0
C93 C 0.78485 0.99999 0.1493 0.0
C94 C 0.81659 0.02106 0.15076 0.0
C95 C 0.83397 0.0358 0.1338 0.0
C96 C 0.81908 0.02858 0.11537 0.0
C97 C 0.78751 0.00769 0.11393 0.0
C98 C 0.68121 0.87644 0.16843 0.0
C99 C 0.73397 0.86875 0.13178 0.0
O100 O 0.6379 0.79 0.13098 0.0
O101 O 0.62951 0.80085 0.10114 0.0
O102 O 0.67385 0.88473 0.1055 0.0
O103 O 0.69218 0.85882 0.09268 0.0
O104 O 0.64783 0.90362 0.1317 0.0
O105 O 0.62146 0.85027 0.1278 0.0
O106 O 0.72961 0.95048 0.11455 0.0
O107 O 0.7197 0.95988 0.14445 0.0
O108 O 0.67487 0.86479 0.15127 0.0
O109 O 0.69577 0.9064 0.16794 0.0
O110 O 0.7071 0.84315 0.13061 0.0
O111 O 0.73654 0.89644 0.13136 0.0
H112 H 0.58627 0.74766 0.08368 0.0
H113 H 0.53552 0.7011 0.08456 0.0
H114 H 0.53562 0.70607 0.1482 0.0
H115 H 0.58606 0.75308 0.14727 0.0
H116 H 0.77199 0.98907 0.1626 0.0
H117 H 0.82739 0.02628 0.16517 0.0
H118 H 0.8319 0.03906 0.10198 0.0
H119 H 0.77672 1.00271 0.0995 0.0
Pr120 Pr 0.82729 0.65637 0.62342 0.0
Pr121 Pr 0.79446 0.69668 0.6353 0.0
C122 C 0.85712 0.62412 0.62174 0.0
C123 C 0.85045 0.59176 0.62035 0.0
C124 C 0.85387 0.5799 0.60231 0.0
C125 C 0.85026 0.55035 0.60129 0.0
C126 C 0.84333 0.53202 0.61833 0.0
C127 C 0.83894 0.54351 0.63625 0.0
C128 C 0.84252 0.57303 0.63726 0.0
C129 C 0.8077 0.67964 0.59263 0.0
C130 C 0.75169 0.62026 0.62811 0.0
C131 C 0.77145 0.73508 0.63479 0.0
C132 C 0.78396 0.76889 0.63392 0.0
C133 C 0.79232 0.7865 0.6514 0.0
C134 C 0.80383 0.81829 0.65079 0.0
C135 C 0.80694 0.83324 0.63271 0.0
C136 C 0.79866 0.81573 0.61522 0.0
C137 C 0.78728 0.78388 0.61581 0.0
C138 C 0.80685 0.67288 0.66925 0.0
C139 C 0.87154 0.73175 0.63342 0.0
O140 O 0.85002 0.63262 0.63831 0.0
O141 O 0.85203 0.63631 0.6061 0.0
O142 O 0.82036 0.69342 0.60843 0.0
O143 O 0.80576 0.65273 0.59177 0.0
O144 O 0.75217 0.64705 0.62824 0.0
O145 O 0.77682 0.6179 0.62882 0.0
O146 O 0.77322 0.7211 0.61887 0.0
O147 O 0.77696 0.72454 0.651 0.0
O148 O 0.81167 0.66854 0.65164 0.0
O149 O 0.79474 0.69051 0.66968 0.0
O150 O 0.86989 0.70479 0.63055 0.0
O151 O 0.84685 0.73506 0.63427 0.0
H152 H 0.86002 0.59375 0.58902 0.0
H153 H 0.85343 0.54204 0.58721 0.0
H154 H 0.834 0.53023 0.64971 0.0
H155 H 0.83988 0.58142 0.65145 0.0
H156 H 0.78977 0.7757 0.66564 0.0
H157 H 0.80957 0.83107 0.66453 0.0
H158 H 0.80102 0.82668 0.60105 0.0
H159 H 0.78097 0.77101 0.6021 0.0
Pr160 Pr 0.17687 0.82347 0.12078 0.0
Pr161 Pr 0.1064 0.78968 0.13174 0.0
C162 C 0.23694 0.84454 0.11266 0.0
C163 C 0.26289 0.83885 0.11528 0.0
C164 C 0.28392 0.84616 0.09975 0.0
C165 C 0.30992 0.84299 0.10201 0.0
C166 C 0.31549 0.83244 0.11991 0.0
C167 C 0.29385 0.82426 0.13532 0.0
C168 C 0.26768 0.82736 0.133 0.0
C169 C 0.13452 0.80792 0.08998 0.0
C170 C 0.14105 0.7488 0.13207 0.0
C171 C 0.04581 0.76842 0.12619 0.0
C172 C 0.02352 0.7793 0.12917 0.0
C173 C 0.01898 0.78922 0.14767 0.0
C174 C 0.99808 0.80004 0.14969 0.0
C175 C 0.98139 0.80106 0.13328 0.0
C176 C 0.98648 0.79163 0.11479 0.0
C177 C 1.00725 0.78086 0.11278 0.0
C178 C 0.13904 0.80921 0.16708 0.0
C179 C 0.14806 0.86717 0.13017 0.0
O180 O 0.22758 0.85353 0.12804 0.0
O181 O 0.21449 0.82563 0.10108 0.0
O182 O 0.13272 0.79081 0.10405 0.0
O183 O 0.15834 0.83537 0.09184 0.0
O184 O 0.11394 0.74713 0.12981 0.0
O185 O 0.16731 0.77537 0.13209 0.0
O186 O 0.06675 0.78314 0.11263 0.0
O187 O 0.05649 0.76111 0.14171 0.0
O188 O 0.1513 0.81363 0.15019 0.0
O189 O 0.10911 0.79451 0.16606 0.0
O190 O 0.17372 0.86592 0.13073 0.0
O191 O 0.12068 0.84216 0.1277 0.0
H192 H 0.28059 0.85504 0.08596 0.0
H193 H 0.32626 0.8499 0.08994 0.0
H194 H 0.29731 0.81573 0.1492 0.0
H195 H 0.25152 0.82127 0.14512 0.0
H196 H 0.03148 0.78861 0.16053 0.0
H197 H 0.99453 0.807 0.16414 0.0
H198 H 0.97442 0.79265 0.1018 0.0
H199 H 0.0107 0.77379 0.09832 0.0
Pr200 Pr 0.35948 0.17314 0.6201 0.0
Pr201 Pr 0.32277 0.10373 0.63111 0.0
C202 C 0.39925 0.23299 0.6119 0.0
C203 C 0.43051 0.2595 0.61509 0.0
C204 C 0.44595 0.27884 0.59908 0.0
C205 C 0.47449 0.3056 0.60174 0.0
C206 C 0.48822 0.31368 0.62052 0.0
C207 C 0.47311 0.29373 0.63649 0.0
C208 C 0.4445 0.26682 0.63379 0.0
C209 C 0.33352 0.13074 0.58915 0.0
C210 C 0.39792 0.13739 0.63231 0.0
C211 C 0.2827 0.04345 0.6253 0.0
C212 C 0.24945 0.0217 0.62904 0.0
C213 C 0.23894 0.00671 0.6473 0.0
C214 C 0.2074 0.98628 0.65044 0.0
C215 C 0.18575 0.98051 0.63541 0.0
C216 C 0.19631 0.99557 0.61721 0.0
C217 C 0.22773 0.01575 0.61403 0.0
C218 C 0.33477 0.13531 0.66666 0.0
C219 C 0.28681 0.14546 0.62888 0.0
O220 O 0.37958 0.22399 0.62657 0.0
O221 O 0.39681 0.21027 0.60104 0.0
O222 O 0.34858 0.12916 0.60344 0.0
O223 O 0.32959 0.15436 0.59086 0.0
O224 O 0.37252 0.11048 0.62962 0.0
O225 O 0.39762 0.16363 0.63245 0.0
O226 O 0.28879 0.06474 0.61203 0.0
O227 O 0.30167 0.05357 0.64042 0.0
O228 O 0.34352 0.14867 0.65006 0.0
O229 O 0.32003 0.10547 0.66511 0.0
O230 O 0.31364 0.17111 0.62796 0.0
O231 O 0.28433 0.11788 0.62822 0.0
H232 H 0.43551 0.27364 0.58455 0.0
H233 H 0.48522 0.32056 0.58918 0.0
H234 H 0.48326 0.2991 0.65109 0.0
H235 H 0.43311 0.25209 0.64634 0.0
H236 H 0.25502 0.01071 0.65916 0.0
H237 H 0.19993 0.9751 0.66466 0.0
H238 H 0.18032 0.99122 0.60522 0.0
H239 H 0.23503 0.02661 0.5997 0.0
Pr240 Pr 0.66108 0.82279 0.41808 0.0
Pr241 Pr 0.69878 0.79015 0.40537 0.0
C242 C 0.62081 0.84221 0.42631 0.0
C243 C 0.58949 0.83709 0.42293 0.0
C244 C 0.57391 0.84128 0.43876 0.0
C245 C 0.54518 0.83896 0.43593 0.0
C246 C 0.53139 0.83243 0.41715 0.0
C247 C 0.54667 0.82734 0.40137 0.0
C248 C 0.57548 0.82958 0.40425 0.0
C249 C 0.6867 0.80419 0.44812 0.0
C250 C 0.62322 0.74861 0.40532 0.0
C251 C 0.73898 0.76992 0.41044 0.0
C252 C 0.77222 0.78124 0.4071 0.0
C253 C 0.78457 0.78368 0.38809 0.0
C254 C 0.81634 0.79532 0.38555 0.0
C255 C 0.8363 0.80498 0.40193 0.0
C256 C 0.82385 0.8024 0.42087 0.0
C257 C 0.7922 0.79048 0.42343 0.0
C258 C 0.68343 0.80925 0.37088 0.0
C259 C 0.73406 0.86806 0.4091 0.0
O260 O 0.64072 0.85332 0.41177 0.0
O261 O 0.62328 0.82185 0.43703 0.0
O262 O 0.67276 0.78916 0.43303 0.0
O263 O 0.68842 0.83095 0.44825 0.0
O264 O 0.64882 0.74718 0.40752 0.0
O265 O 0.62329 0.77506 0.40558 0.0
O266 O 0.73291 0.78481 0.42398 0.0
O267 O 0.72039 0.76191 0.39514 0.0
O268 O 0.67628 0.81349 0.3881 0.0
O269 O 0.69809 0.79392 0.37121 0.0
O270 O 0.70718 0.8667 0.41084 0.0
O271 O 0.73674 0.84303 0.40854 0.0
H272 H 0.58437 0.84714 0.45329 0.0
H273 H 0.53433 0.84344 0.44835 0.0
H274 H 0.53648 0.82193 0.38678 0.0
H275 H 0.58701 0.826 0.39184 0.0
H276 H 0.76981 0.77679 0.3752 0.0
H277 H 0.82536 0.79712 0.37077 0.0
H278 H 0.83855 0.80915 0.4338 0.0
H279 H 0.78333 0.78864 0.43826 0.0
Pr280 Pr 0.84338 0.65731 0.91698 0.0
Pr281 Pr 0.91448 0.69428 0.90464 0.0
C282 C 0.78269 0.61875 0.92347 0.0
C283 C 0.75732 0.58634 0.92265 0.0
C284 C 0.74111 0.57222 0.94002 0.0
C285 C 0.7145 0.54317 0.93939 0.0
C286 C 0.70341 0.52764 0.92133 0.0
C287 C 0.72054 0.5411 0.90406 0.0
C288 C 0.74722 0.57021 0.9047 0.0
C289 C 0.88711 0.68452 0.94702 0.0
C290 C 0.88034 0.61835 0.90734 0.0
C291 C 0.97519 0.73352 0.90955 0.0
C292 C 0.99738 0.76685 0.90707 0.0
C293 C 1.00607 0.78088 0.88839 0.0
C294 C 0.02718 0.81259 0.88678 0.0
C295 C 0.04 0.83071 0.9038 0.0
C296 C 0.03075 0.81664 0.9224 0.0
C297 C 1.00985 0.78514 0.924 0.0
C298 C 0.87988 0.67988 0.87021 0.0
C299 C 0.87264 0.73011 0.90696 0.0
O300 O 0.79367 0.63354 0.90683 0.0
O301 O 0.80373 0.62615 0.93712 0.0
O302 O 0.8885 0.66968 0.93247 0.0
O303 O 0.86209 0.6864 0.9465 0.0
O304 O 0.90732 0.6442 0.90579 0.0
O305 O 0.8539 0.61786 0.90994 0.0
O306 O 0.95471 0.72658 0.92355 0.0
O307 O 0.96402 0.71618 0.89376 0.0
O308 O 0.8687 0.67269 0.88743 0.0
O309 O 0.90987 0.69531 0.87048 0.0
O310 O 0.84695 0.70321 0.90743 0.0
O311 O 0.90027 0.73267 0.90847 0.0
H312 H 0.74844 0.58415 0.95404 0.0
H313 H 0.70213 0.53321 0.95299 0.0
H314 H 0.71251 0.52984 0.88989 0.0
H315 H 0.75926 0.58048 0.89105 0.0
H316 H 0.99675 0.76742 0.87506 0.0
H317 H 0.034 0.82278 0.87225 0.0
H318 H 0.03974 0.83004 0.9358 0.0
H319 H 1.00343 0.77502 0.93859 0.0
Pr320 Pr 0.19279 0.84007 0.41566 0.0
Pr321 Pr 0.22738 0.9114 0.4057 0.0
C322 C 0.16994 0.77883 0.41984 0.0
C323 C 0.17764 0.75386 0.42012 0.0
C324 C 0.17609 0.73894 0.43798 0.0
C325 C 0.17881 0.71248 0.4382 0.0
C326 C 0.18294 0.7002 0.42054 0.0
C327 C 0.18603 0.71602 0.40278 0.0
C328 C 0.18334 0.74253 0.40256 0.0
C329 C 0.20954 0.88157 0.44716 0.0
C330 C 0.26918 0.87713 0.40751 0.0
C331 C 0.24779 0.97152 0.41223 0.0
C332 C 0.23593 0.99303 0.40886 0.0
C333 C 0.23933 0.00759 0.39055 0.0
C334 C 0.22757 0.0275 0.3877 0.0
C335 C 0.21207 0.03314 0.40305 0.0
C336 C 0.2087 0.01856 0.42131 0.0
C337 C 0.22063 0.99893 0.42422 0.0
C338 C 0.20641 0.8801 0.37008 0.0
C339 C 0.14974 0.87005 0.40728 0.0
O340 O 0.17089 0.79191 0.40293 0.0
O341 O 0.17891 0.798 0.43476 0.0
O342 O 0.22589 0.88364 0.43252 0.0
O343 O 0.18226 0.85714 0.44588 0.0
O344 O 0.27033 0.90413 0.40633 0.0
O345 O 0.24312 0.85069 0.40971 0.0
O346 O 0.23284 0.94997 0.42541 0.0
O347 O 0.25652 0.96175 0.39686 0.0
O348 O 0.20228 0.86711 0.38673 0.0
O349 O 0.22168 0.90996 0.37164 0.0
O350 O 0.15083 0.84438 0.40626 0.0
O351 O 0.17485 0.89725 0.41008 0.0
H352 H 0.17163 0.74708 0.45174 0.0
H353 H 0.17682 0.70113 0.45216 0.0
H354 H 0.18895 0.70705 0.38889 0.0
H355 H 0.18453 0.75338 0.38853 0.0
H356 H 0.25102 1.00361 0.37842 0.0
H357 H 0.23042 0.03833 0.37343 0.0
H358 H 0.19738 0.02284 0.43354 0.0
H359 H 0.21787 0.98836 0.43858 0.0
Pr360 Pr 0.36075 0.19055 0.91686 0.0
Pr361 Pr 0.32262 0.22246 0.90412 0.0
C362 C 0.40106 0.17142 0.92556 0.0
C363 C 0.43273 0.17684 0.9232 0.0
C364 C 0.44939 0.17818 0.94017 0.0
C365 C 0.47802 0.17985 0.93861 0.0
C366 C 0.4906 0.18014 0.92001 0.0
C367 C 0.47454 0.18023 0.90298 0.0
C368 C 0.44578 0.17851 0.90455 0.0
C369 C 0.33549 0.20966 0.94683 0.0
C370 C 0.39811 0.26421 0.90322 0.0
C371 C 0.28298 0.24324 0.90956 0.0
C372 C 0.24988 0.2327 0.90674 0.0
C373 C 0.23574 0.22529 0.88806 0.0
C374 C 0.20409 0.21492 0.88622 0.0
C375 C 0.18619 0.21188 0.90301 0.0
C376 C 0.20039 0.21875 0.92164 0.0
C377 C 0.23185 0.22914 0.92346 0.0
C378 C 0.33578 0.20106 0.86978 0.0
C379 C 0.28764 0.14495 0.90853 0.0
O380 O 0.38214 0.16088 0.91048 0.0
O381 O 0.39747 0.19092 0.93652 0.0
O382 O 0.3493 0.22448 0.93165 0.0
O383 O 0.33348 0.18278 0.94698 0.0
O384 O 0.37246 0.26554 0.90524 0.0
O385 O 0.39832 0.23793 0.90397 0.0
O386 O 0.28894 0.22821 0.92301 0.0
O387 O 0.30104 0.2507 0.89401 0.0
O388 O 0.34412 0.19793 0.88688 0.0
O389 O 0.32036 0.21561 0.87013 0.0
O390 O 0.3146 0.14641 0.90994 0.0
O391 O 0.28483 0.1699 0.9082 0.0
H392 H 0.43981 0.17702 0.95471 0.0
H393 H 0.49004 0.18027 0.952 0.0
H394 H 0.48356 0.18026 0.88844 0.0
H395 H 0.43343 0.17761 0.89122 0.0
H396 H 0.24905 0.22757 0.87492 0.0
H397 H 0.19378 0.20995 0.87166 0.0
H398 H 0.18714 0.21611 0.93488 0.0
H399 H 0.24213 0.23436 0.93805 0.0
Pr400 Pr 0.17662 0.35478 0.41579 0.0
Pr401 Pr 0.10997 0.32063 0.40337 0.0
C402 C 0.23721 0.39323 0.42326 0.0
C403 C 0.26293 0.42552 0.42242 0.0
C404 C 0.27999 0.43913 0.43962 0.0
C405 C 0.30682 0.46803 0.43892 0.0
C406 C 0.31733 0.48395 0.42094 0.0
C407 C 0.29938 0.47099 0.40387 0.0
C408 C 0.27246 0.44201 0.40459 0.0
C409 C 0.13342 0.32874 0.4465 0.0
C410 C 0.14187 0.39478 0.4065 0.0
C411 C 0.04904 0.27995 0.39986 0.0
C412 C 0.02806 0.24601 0.40037 0.0
C413 C 0.01589 0.22939 0.38275 0.0
C414 C 0.99512 0.19756 0.38316 0.0
C415 C 0.98576 0.18172 0.40122 0.0
C416 C 0.99828 0.19825 0.41881 0.0
C417 C 0.01918 0.22999 0.4184 0.0
C418 C 0.15013 0.34718 0.37171 0.0
C419 C 0.14879 0.28227 0.40856 0.0
O420 O 0.22683 0.37812 0.40667 0.0
O421 O 0.21559 0.38634 0.43639 0.0
O422 O 0.13214 0.344 0.43224 0.0
O423 O 0.15771 0.32573 0.4453 0.0
O424 O 0.11515 0.36915 0.40898 0.0
O425 O 0.16791 0.39426 0.40519 0.0
O426 O 0.06208 0.29367 0.41646 0.0
O427 O 0.06751 0.29136 0.38468 0.0
O428 O 0.15432 0.3329 0.38572 0.0
O429 O 0.12437 0.34732 0.37373 0.0
O430 O 0.1746 0.30893 0.40844 0.0
O431 O 0.12161 0.28074 0.40945 0.0
H432 H 0.27309 0.42693 0.45356 0.0
H433 H 0.31978 0.47759 0.4524 0.0
H434 H 0.30688 0.48256 0.38977 0.0
H435 H 0.25972 0.43213 0.39107 0.0
H436 H 0.0221 0.24108 0.36864 0.0
H437 H 0.98566 0.18553 0.36938 0.0
H438 H 0.99179 0.18663 0.43294 0.0
H439 H 0.02808 0.24196 0.43227 0.0
Pr440 Pr 0.82588 0.17206 0.9176 0.0
Pr441 Pr 0.79442 0.1024 0.90626 0.0
C442 C 0.84522 0.2317 0.92594 0.0
C443 C 0.84088 0.25829 0.92237 0.0
C444 C 0.84599 0.27864 0.93801 0.0
C445 C 0.84426 0.30531 0.93501 0.0
C446 C 0.8374 0.31223 0.91623 0.0
C447 C 0.83146 0.29132 0.90065 0.0
C448 C 0.83312 0.26449 0.9037 0.0
C449 C 0.8086 0.12938 0.94845 0.0
C450 C 0.75242 0.13557 0.9041 0.0
C451 C 0.77442 0.04216 0.91188 0.0
C452 C 0.78594 0.02042 0.90818 0.0
C453 C 0.78106 1.00498 0.89003 0.0
C454 C 0.7921 0.9845 0.88695 0.0
C455 C 0.80833 0.97914 0.90192 0.0
C456 C 0.8132 0.99462 0.92002 0.0
C457 C 0.802 0.01483 0.92315 0.0
C458 C 0.81504 0.13452 0.871 0.0
C459 C 0.87192 0.1453 0.90974 0.0
O460 O 0.857 0.22302 0.91173 0.0
O461 O 0.82395 0.20875 0.93615 0.0
O462 O 0.79273 0.12756 0.93365 0.0
O463 O 0.8357 0.15392 0.94755 0.0
O464 O 0.75112 0.10883 0.90715 0.0
O465 O 0.77881 0.16197 0.90406 0.0
O466 O 0.78953 0.06344 0.92522 0.0
O467 O 0.76565 0.05225 0.89673 0.0
O468 O 0.81874 0.14757 0.88766 0.0
O469 O 0.8004 0.10465 0.87236 0.0
O470 O 0.8701 0.1706 0.9103 0.0
O471 O 0.84713 0.11745 0.91026 0.0
H472 H 0.85206 0.27426 0.95252 0.0
H473 H 0.84937 0.32105 0.94726 0.0
H474 H 0.82576 0.29582 0.88608 0.0
H475 H 0.82884 0.24892 0.89146 0.0
H476 H 0.76868 0.00866 0.87822 0.0
H477 H 0.78809 0.97298 0.87281 0.0
H478 H 0.82509 0.99058 0.93197 0.0
H479 H 0.80586 0.026 0.9374 0.0
C480 C 0.12632 0.9025 0.1258 0.0
C481 C 0.15038 0.89771 0.13211 0.0
C482 C 0.12933 0.93182 0.12715 0.0
C483 C 0.1715 1.00559 0.15372 0.0
H484 H 0.15672 0.04175 0.10741 0.0
C485 C 0.21967 0.13613 0.14701 0.0
C486 C 0.20236 0.14703 0.13709 0.0
C487 C 0.20986 0.10467 0.14739 0.0
C488 C 0.16041 0.03184 0.1206 0.0
H489 H 0.19615 0.91977 0.14515 0.0
H490 H 0.20114 0.97057 0.14773 0.0
H491 H 0.14536 0.98829 0.10638 0.0
H492 H 0.16065 0.1332 0.12016 0.0
H493 H 0.14338 0.0781 0.12089 0.0
H494 H 0.18658 0.04893 0.168 0.0
C495 C 0.18002 0.95175 0.1417 0.0
C496 C 0.15395 1.00123 0.11998 0.0
C497 C 0.17722 0.92267 0.14009 0.0
C498 C 0.17475 0.1256 0.1277 0.0
C499 C 0.16486 0.09402 0.12813 0.0
C500 C 0.17768 0.03605 0.15441 0.0
C501 C 0.15621 0.9567 0.13517 0.0
C502 C 0.16003 0.98802 0.1364 0.0
C503 C 0.18239 0.08318 0.1379 0.0
C504 C 0.17287 0.04982 0.13773 0.0
H505 H 0.1054 0.88374 0.11952 0.0
H506 H 0.11059 0.935 0.12206 0.0
H507 H 0.17595 0.99582 0.1667 0.0
H508 H 0.2413 0.15201 0.15411 0.0
H509 H 0.22432 0.09732 0.15472 0.0
C510 C 0.25783 0.17254 0.62086 0.0
C511 C 0.25868 0.14795 0.63019 0.0
C512 C 0.23154 0.17543 0.62211 0.0
C513 C 0.16887 0.1642 0.65231 0.0
H514 H 0.12687 0.16242 0.60384 0.0
C515 C 0.06344 0.18385 0.65095 0.0
C516 C 0.06183 0.20069 0.63487 0.0
C517 C 0.08535 0.17415 0.65121 0.0
C518 C 0.13849 0.16337 0.61751 0.0
H519 H 0.23304 0.10743 0.64847 0.0
H520 H 0.18711 0.11325 0.65125 0.0
H521 H 0.16948 0.15194 0.60289 0.0
H522 H 0.08268 0.22162 0.60687 0.0
H523 H 0.12109 0.20562 0.60749 0.0
H524 H 0.13913 0.17733 0.66687 0.0
C525 C 0.20673 0.12984 0.6427 0.0
C526 C 0.16269 0.15706 0.61694 0.0
C527 C 0.23283 0.12645 0.64102 0.0
C528 C 0.0829 0.20813 0.61929 0.0
C529 C 0.10488 0.19876 0.61961 0.0
C530 C 0.14493 0.17108 0.65286 0.0
C531 C 0.20587 0.15425 0.63312 0.0
C532 C 0.17833 0.15784 0.63426 0.0
C533 C 0.10627 0.18136 0.63545 0.0
C534 C 0.12981 0.17134 0.63539 0.0
H535 H 0.2774 0.18937 0.61237 0.0
H536 H 0.23134 0.19446 0.61463 0.0
H537 H 0.18083 0.1651 0.66583 0.0
H538 H 0.04738 0.17765 0.66313 0.0
H539 H 0.08555 0.16061 0.66359 0.0
C540 C 0.879 0.08657 0.124 0.0
C541 C 0.8673 0.05935 0.13512 0.0
C542 C 0.9104 0.10837 0.12433 0.0
C543 C 0.98257 0.13536 0.15265 0.0
H544 H 0.01936 0.17658 0.10327 0.0
C545 C 0.11323 0.22716 0.14206 0.0
C546 C 0.1182 0.25443 0.13282 0.0
C547 C 0.0835 0.20128 0.14294 0.0
C548 C 1.00939 0.16527 0.11717 0.0
H549 H 0.87938 0.03395 0.15569 0.0
H550 H 0.93464 0.0722 0.1562 0.0
H551 H 0.96593 0.13481 0.10378 0.0
H552 H 0.09585 0.27581 0.11722 0.0
H553 H 0.0444 0.2307 0.11851 0.0
H554 H 0.02648 0.16612 0.16591 0.0
C555 C 0.91933 0.07667 0.1473 0.0
C556 C 0.97874 0.14143 0.1175 0.0
C557 C 0.88771 0.05478 0.14701 0.0
C558 C 0.0929 0.25524 0.12447 0.0
C559 C 0.06341 0.22934 0.1251 0.0
C560 C 0.01348 0.15914 0.15226 0.0
C561 C 0.93107 0.10355 0.13574 0.0
C562 C 0.96466 0.12671 0.13531 0.0
C563 C 0.05839 0.2021 0.13429 0.0
C564 C 0.02689 0.17477 0.13458 0.0
H565 H 0.86381 0.09114 0.11504 0.0
H566 H 0.91843 0.12918 0.11568 0.0
H567 H 0.97242 0.1246 0.16663 0.0
H568 H 0.13223 0.22586 0.1487 0.0
H569 H 0.0802 0.1805 0.15008 0.0
C570 C 0.84276 0.88782 0.6438 0.0
C571 C 0.81762 0.86677 0.63223 0.0
C572 C 0.8522 0.91929 0.6436 0.0
C573 C 0.84404 0.97764 0.61419 0.0
H574 H 0.8698 0.02558 0.66255 0.0
C575 C 0.84248 0.09045 0.62429 0.0
C576 C 0.86984 0.11632 0.63091 0.0
C577 C 0.83938 0.06119 0.62452 0.0
C578 C 0.863 0.0125 0.64892 0.0
H579 H 0.78222 0.86208 0.61182 0.0
H580 H 0.79812 0.91657 0.61172 0.0
H581 H 0.85775 0.97177 0.66285 0.0
H582 H 0.91522 0.13171 0.6433 0.0
H583 H 0.90934 0.07991 0.64418 0.0
H584 H 0.84796 0.01798 0.60052 0.0
C585 C 0.81127 0.90913 0.6205 0.0
C586 C 0.85617 0.98172 0.64904 0.0
C587 C 0.80205 0.8778 0.62057 0.0
C588 C 0.89394 0.1122 0.63802 0.0
C589 C 0.89055 0.08265 0.63862 0.0
C590 C 0.85043 0.00815 0.61416 0.0
C591 C 0.83655 0.93036 0.63193 0.0
C592 C 0.84609 0.96374 0.63171 0.0
C593 C 0.86333 0.05699 0.63167 0.0
C594 C 0.85954 0.02571 0.63155 0.0
H595 H 0.85534 0.88 0.65285 0.0
H596 H 0.87195 0.93495 0.65242 0.0
H597 H 0.8372 0.96487 0.60045 0.0
H598 H 0.82352 0.09283 0.61865 0.0
H599 H 0.81807 0.04172 0.61923 0.0
C600 C 0.96371 0.837 0.14636 0.0
C601 C 0.95781 0.81073 0.13534 0.0
C602 C 0.94133 0.846 0.14777 0.0
C603 C 0.85779 0.81453 0.14483 0.0
H604 H 0.87561 0.89695 0.13091 0.0
C605 C 0.75994 0.83778 0.12706 0.0
C606 C 0.76187 0.8656 0.13301 0.0
C607 C 0.78529 0.8335 0.12873 0.0
C608 C 0.87033 0.87399 0.13518 0.0
H609 H 0.92362 0.77306 0.11756 0.0
H610 H 0.88474 0.78858 0.12015 0.0
H611 H 0.91757 0.88507 0.13201 0.0
H612 H 0.79235 0.91111 0.14498 0.0
H613 H 0.83686 0.90334 0.1484 0.0
H614 H 0.81086 0.80319 0.14818 0.0
C615 C 0.90664 0.8023 0.1276 0.0
C616 C 0.89437 0.8672 0.13576 0.0
C617 C 0.92902 0.79356 0.12599 0.0
C618 C 0.79014 0.8894 0.14031 0.0
C619 C 0.81563 0.88495 0.1422 0.0
C620 C 0.83395 0.82134 0.14448 0.0
C621 C 0.91249 0.82857 0.1385 0.0
C622 C 0.88813 0.83716 0.1401 0.0
C623 C 0.81334 0.85672 0.13667 0.0
C624 C 0.83967 0.8509 0.13909 0.0
H625 H 0.98576 0.85079 0.15363 0.0
H626 H 0.94636 0.8663 0.15632 0.0
H627 H 0.85241 0.79132 0.14857 0.0
H628 H 0.73873 0.81914 0.121 0.0
H629 H 0.78283 0.81184 0.12368 0.0
C630 C 0.92801 0.75619 0.64063 0.0
C631 C 0.90259 0.75941 0.63533 0.0
C632 C 0.95749 0.78202 0.6422 0.0
C633 C 1.00584 0.86043 0.62408 0.0
H634 H 0.0573 0.86932 0.66921 0.0
C635 C 0.12967 0.96427 0.63129 0.0
C636 C 0.15238 0.95793 0.63826 0.0
C637 C 0.09833 0.94202 0.63253 0.0
C638 C 0.0434 0.86707 0.6564 0.0
H639 H 0.88827 0.79232 0.62736 0.0
H640 H 0.94014 0.83758 0.62978 0.0
H641 H 1.00425 0.82653 0.66796 0.0
H642 H 0.15995 0.9234 0.65228 0.0
H643 H 0.10549 0.88446 0.65418 0.0
H644 H 0.04517 0.9002 0.61211 0.0
C645 C 0.93703 0.81497 0.63285 0.0
C646 C 0.01295 0.8426 0.65575 0.0
C647 C 0.90736 0.7891 0.63158 0.0
C648 C 0.14301 0.92914 0.64698 0.0
C649 C 0.11171 0.90681 0.6481 0.0
C650 C 0.03642 0.88473 0.62462 0.0
C651 C 0.96236 0.81167 0.63825 0.0
C652 C 0.99397 0.83883 0.63949 0.0
C653 C 0.08893 0.91279 0.64066 0.0
C654 C 0.05574 0.88818 0.6407 0.0
H655 H 0.92513 0.73366 0.64366 0.0
H656 H 0.97663 0.77875 0.64619 0.0
H657 H 0.9918 0.8579 0.61127 0.0
H658 H 0.13615 0.98643 0.62475 0.0
H659 H 0.08147 0.94772 0.62702 0.0
C660 C 0.09471 0.84155 0.39635 0.0
C661 C 0.11923 0.86784 0.40519 0.0
C662 C 0.0656 0.83867 0.39455 0.0
C663 C 0.01469 0.86223 0.41707 0.0
H664 H 0.96924 0.83421 0.3679 0.0
C665 C 0.89148 0.84326 0.41002 0.0
C666 C 0.86994 0.81695 0.39957 0.0
C667 C 0.92298 0.85299 0.40923 0.0
C668 C 0.98144 0.84174 0.38181 0.0
H669 H 0.13241 0.91177 0.41907 0.0
H670 H 0.081 0.90638 0.41625 0.0
H671 H 0.0223 0.84451 0.36959 0.0
H672 H 0.86456 0.78062 0.37975 0.0
H673 H 0.91937 0.79706 0.37867 0.0
H674 H 0.97363 0.85827 0.4296 0.0
C675 C 0.08459 0.88816 0.41062 0.0
C676 C 0.0119 0.84779 0.38272 0.0
C677 C 0.11399 0.89129 0.41214 0.0
C678 C 0.88065 0.80113 0.38782 0.0
C679 C 0.91214 0.81066 0.38718 0.0
C680 C 0.9841 0.85583 0.41623 0.0
C681 C 0.06015 0.86182 0.40176 0.0
C682 C 0.02873 0.85779 0.40041 0.0
C683 C 0.9337 0.83646 0.39812 0.0
C684 C 0.96693 0.84518 0.39864 0.0
H685 H 0.09798 0.8231 0.39075 0.0
H686 H 0.04713 0.81797 0.38785 0.0
H687 H 0.027 0.86954 0.43096 0.0
H688 H 0.8839 0.85619 0.41897 0.0
H689 H 0.9389 0.87336 0.41748 0.0
C690 C 0.08989 0.87581 0.9148 0.0
C691 C 0.06385 0.86391 0.90249 0.0
C692 C 0.11182 0.90713 0.91458 0.0
C693 C 0.14178 0.97894 0.88541 0.0
H694 H 0.17873 0.01606 0.93574 0.0
C695 C 0.23261 0.10972 0.89818 0.0
C696 C 0.25966 0.1141 0.90747 0.0
C697 C 0.20661 0.08013 0.89677 0.0
C698 C 0.16856 1.006 0.9216 0.0
H699 H 0.04078 0.87554 0.87987 0.0
H700 H 0.07921 0.93075 0.87959 0.0
H701 H 0.13671 0.96278 0.93463 0.0
H702 H 0.28058 0.09109 0.92275 0.0
H703 H 0.23502 0.03981 0.92081 0.0
H704 H 0.17387 0.02273 0.87255 0.0
C705 C 0.08268 0.91563 0.88935 0.0
C706 C 0.14463 0.97542 0.92091 0.0
C707 C 0.06067 0.88405 0.8895 0.0
C708 C 0.26011 0.08847 0.91548 0.0
C709 C 0.23403 0.05913 0.91443 0.0
C710 C 0.16559 0.00981 0.88616 0.0
C711 C 0.10831 0.9276 0.90212 0.0
C712 C 0.13148 0.96118 0.90277 0.0
C713 C 0.20708 0.05465 0.90505 0.0
C714 C 0.17964 0.02331 0.90423 0.0
H715 H 0.09341 0.8608 0.92463 0.0
H716 H 0.1317 0.91526 0.92418 0.0
H717 H 0.1323 0.9687 0.87119 0.0
H718 H 0.23171 0.12905 0.89174 0.0
H719 H 0.18604 0.07719 0.88948 0.0
C720 C 0.17871 0.25592 0.40085 0.0
C721 C 0.15082 0.25381 0.40694 0.0
C722 C 0.18117 0.22952 0.39888 0.0
C723 C 0.15032 0.15104 0.41659 0.0
H724 H 0.19045 0.14195 0.37011 0.0
C725 C 0.1715 0.0482 0.40798 0.0
C726 C 0.20048 0.05508 0.40046 0.0
C727 C 0.16174 0.06993 0.40703 0.0
C728 C 0.17944 0.14422 0.38327 0.0
H729 H 0.10367 0.22221 0.41592 0.0
H730 H 0.10826 0.17575 0.41282 0.0
H731 H 0.18025 0.18467 0.37219 0.0
H732 H 0.24166 0.08997 0.38571 0.0
H733 H 0.22499 0.12802 0.3843 0.0
H734 H 0.15061 0.11141 0.42807 0.0
C735 C 0.12808 0.19804 0.40946 0.0
C736 C 0.17347 0.16863 0.3844 0.0
C737 C 0.12544 0.22457 0.41117 0.0
C738 C 0.21907 0.08383 0.39144 0.0
C739 C 0.20943 0.10564 0.39061 0.0
C740 C 0.15657 0.12676 0.41555 0.0
C741 C 0.15594 0.2003 0.40313 0.0
C742 C 0.15931 0.17259 0.4012 0.0
C743 C 0.18081 0.09915 0.39863 0.0
C744 C 0.17169 0.12333 0.399 0.0
H745 H 0.19873 0.27803 0.39741 0.0
H746 H 0.20306 0.23202 0.39424 0.0
H747 H 0.13964 0.15371 0.42978 0.0
H748 H 0.15644 0.02603 0.41475 0.0
H749 H 0.13931 0.06386 0.41299 0.0
C750 C 0.14174 0.21898 0.91215 0.0
C751 C 0.15312 0.20287 0.90128 0.0
C752 C 0.11073 0.21072 0.91098 0.0
C753 C 0.03349 0.14742 0.90119 0.0
H754 H 0.01453 0.21301 0.89405 0.0
C755 C 0.90752 0.1258 0.8997 0.0
C756 C 0.90297 0.1487 0.90843 0.0
C757 C 0.93746 0.1306 0.89722 0.0
C758 C 0.01934 0.1944 0.8963 0.0
H759 H 0.14078 0.16529 0.88067 0.0
H760 H 0.08602 0.15065 0.8787 0.0
H761 H 0.06786 0.22466 0.89236 0.0
H762 H 0.9259 0.19378 0.92232 0.0
H763 H 0.97758 0.20159 0.9188 0.0
H764 H 0.98501 0.11733 0.90593 0.0
C765 C 0.10139 0.16971 0.88811 0.0
C766 C 0.04991 0.2011 0.89518 0.0
C767 C 0.13268 0.17823 0.88913 0.0
C768 C 0.9287 0.1759 0.91525 0.0
C769 C 0.95841 0.18048 0.91307 0.0
C770 C 1.00277 0.14073 0.90256 0.0
C771 C 0.09023 0.18605 0.89897 0.0
C772 C 0.05738 0.17785 0.89799 0.0
C773 C 0.96332 0.15822 0.90366 0.0
C774 C 0.99541 0.16432 0.90057 0.0
H775 H 0.15693 0.23824 0.92149 0.0
H776 H 0.10268 0.22351 0.91966 0.0
H777 H 0.03869 0.12909 0.90348 0.0
H778 H 0.88807 0.10465 0.89423 0.0
H779 H 0.94034 0.11301 0.88982 0.0
C780 C 0.93753 0.13777 0.41539 0.0
C781 C 0.96199 0.1484 0.40184 0.0
C782 C 0.91474 0.10665 0.41594 0.0
C783 C 0.88069 0.03388 0.38658 0.0
H784 H 0.84281 0.99787 0.43686 0.0
C785 C 0.78926 0.90353 0.39896 0.0
C786 C 0.76209 0.89899 0.40819 0.0
C787 C 0.81526 0.93318 0.39777 0.0
C788 C 0.85321 0.00764 0.42273 0.0
H789 H 0.98187 0.13459 0.3783 0.0
H790 H 0.94248 0.07995 0.37955 0.0
H791 H 0.88572 0.05072 0.43572 0.0
H792 H 0.74109 0.92183 0.42368 0.0
H793 H 0.78662 0.97316 0.42209 0.0
H794 H 0.84819 0.99017 0.37379 0.0
C795 C 0.94049 0.0958 0.38951 0.0
C796 C 0.87767 0.03804 0.42201 0.0
C797 C 0.96317 0.12711 0.38882 0.0
C798 C 0.76161 0.92455 0.41641 0.0
C799 C 0.7877 0.95393 0.41559 0.0
C800 C 0.85647 1.00322 0.38737 0.0
C801 C 0.91592 0.08512 0.4031 0.0
C802 C 0.89139 0.05186 0.40389 0.0
C803 C 0.81474 0.95859 0.40621 0.0
C804 C 0.84216 0.99004 0.40541 0.0
H805 H 0.93563 0.15368 0.42536 0.0
H806 H 0.89585 0.09964 0.42626 0.0
H807 H 0.89034 0.04372 0.37232 0.0
H808 H 0.79024 0.8843 0.39241 0.0
H809 H 0.83589 0.93621 0.39049 0.0
C810 C 0.84176 0.75523 0.89845 0.0
C811 C 0.86992 0.75812 0.90465 0.0
C812 C 0.83852 0.7812 0.89643 0.0
C813 C 0.86872 0.85995 0.91431 0.0
H814 H 0.82594 0.86763 0.86888 0.0
C815 C 0.84844 0.9633 0.90599 0.0
C816 C 0.81919 0.95662 0.89914 0.0
C817 C 0.85762 0.94113 0.90492 0.0
C818 C 0.83769 0.86574 0.88175 0.0
H819 H 0.91684 0.79071 0.91358 0.0
H820 H 0.91098 0.8363 0.91028 0.0
H821 H 0.83648 0.82511 0.87056 0.0
H822 H 0.7769 0.9216 0.88547 0.0
H823 H 0.79262 0.8828 0.88382 0.0
H824 H 0.86903 0.89989 0.92588 0.0
C825 C 0.89148 0.81377 0.90694 0.0
C826 C 0.84382 0.84142 0.88267 0.0
C827 C 0.89486 0.78771 0.90875 0.0
C828 C 0.7997 0.92759 0.89067 0.0
C829 C 0.80879 0.90534 0.88971 0.0
C830 C 0.86235 0.88416 0.91349 0.0
C831 C 0.86326 0.81075 0.90071 0.0
C832 C 0.85906 0.83803 0.89907 0.0
C833 C 0.8377 0.91165 0.89707 0.0
C834 C 0.8464 0.88716 0.8973 0.0
H835 H 0.82206 0.73284 0.8951 0.0
H836 H 0.81638 0.77807 0.89185 0.0
H837 H 0.88019 0.85774 0.92724 0.0
H838 H 0.86419 0.98565 0.91232 0.0
H839 H 0.88029 0.94707 0.91035 0.0
C840 C 0.12015 0.69262 0.12476 0.0
C841 C 0.143 0.7203 0.13327 0.0
C842 C 0.12439 0.66704 0.12352 0.0
C843 C 0.16786 0.63214 0.1443 0.0
H844 H 0.15335 0.59199 0.09331 0.0
C845 C 0.19711 0.53559 0.1296 0.0
C846 C 0.17547 0.51015 0.11849 0.0
C847 C 0.19502 0.56242 0.13095 0.0
C848 C 0.1572 0.60267 0.10772 0.0
H849 H 0.18749 0.74241 0.14802 0.0
H850 H 0.19451 0.69765 0.14618 0.0
H851 H 0.144 0.63498 0.09766 0.0
H852 H 0.13471 0.49314 0.10007 0.0
H853 H 0.13092 0.53949 0.1025 0.0
H854 H 0.18049 0.59953 0.15452 0.0
C855 C 0.17349 0.69576 0.14033 0.0
C856 C 0.1518 0.62731 0.1102 0.0
C857 C 0.16948 0.72142 0.14131 0.0
C858 C 0.1521 0.51244 0.10848 0.0
C859 C 0.14993 0.53913 0.10988 0.0
C860 C 0.17299 0.60728 0.14189 0.0
C861 C 0.15132 0.66851 0.13103 0.0
C862 C 0.15688 0.64219 0.12854 0.0
C863 C 0.17115 0.56439 0.12129 0.0
C864 C 0.1675 0.59205 0.12359 0.0
H865 H 0.0996 0.6911 0.11834 0.0
H866 H 0.10675 0.6462 0.11646 0.0
H867 H 0.17189 0.64311 0.15864 0.0
H868 H 0.21566 0.53475 0.13729 0.0
H869 H 0.2121 0.5816 0.13959 0.0
C870 C 0.64841 0.15518 0.60715 0.0
C871 C 0.67306 0.17684 0.61878 0.0
C872 C 0.61887 0.15123 0.60924 0.0
C873 C 0.57599 0.18849 0.62627 0.0
H874 H 0.50777 0.10469 0.63157 0.0
C875 C 0.45303 0.16451 0.64311 0.0
C876 C 0.42823 0.13912 0.63379 0.0
C877 C 0.48272 0.16846 0.64249 0.0
C878 C 0.5264 0.12823 0.62984 0.0
H879 H 0.68618 0.21197 0.64134 0.0
H880 H 0.63433 0.20513 0.64493 0.0
H881 H 0.56006 0.11388 0.62726 0.0
H882 H 0.41493 0.09767 0.61679 0.0
H883 H 0.46687 0.10496 0.6151 0.0
H884 H 0.54247 0.20294 0.6282 0.0
C885 C 0.63802 0.19119 0.63423 0.0
C886 C 0.55642 0.13347 0.62744 0.0
C887 C 0.6676 0.19495 0.63228 0.0
C888 C 0.43354 0.11726 0.62431 0.0
C889 C 0.46339 0.12149 0.62338 0.0
C890 C 0.54591 0.18324 0.6284 0.0
C891 C 0.61328 0.16896 0.62292 0.0
C892 C 0.58152 0.16364 0.62563 0.0
C893 C 0.4885 0.14742 0.63222 0.0
C894 C 0.52066 0.15301 0.63024 0.0
H895 H 0.65176 0.14065 0.59675 0.0
H896 H 0.60032 0.13417 0.60018 0.0
H897 H 0.59487 0.21196 0.62469 0.0
H898 H 0.44958 0.18164 0.65067 0.0
H899 H 0.50118 0.18825 0.64994 0.0
C900 C 0.47914 0.66263 0.13042 0.0
C901 C 0.50314 0.66881 0.11712 0.0
C902 C 0.45345 0.6329 0.13188 0.0
C903 C 0.41244 0.55688 0.10608 0.0
H904 H 0.38066 0.52597 0.15838 0.0
C905 C 0.32369 0.42814 0.12077 0.0
C906 C 0.29803 0.42316 0.13204 0.0
C907 C 0.34963 0.45781 0.11943 0.0
C908 C 0.38922 0.53432 0.14367 0.0
H909 H 0.51885 0.64852 0.0949 0.0
H910 H 0.47445 0.59694 0.09754 0.0
H911 H 0.42259 0.57898 0.1544 0.0
H912 H 0.27995 0.44478 0.15154 0.0
H913 H 0.32513 0.49608 0.14946 0.0
H914 H 0.37915 0.51199 0.09544 0.0
C915 C 0.47501 0.61507 0.10658 0.0
C916 C 0.41311 0.56478 0.14136 0.0
C917 C 0.50055 0.64474 0.10506 0.0
C918 C 0.29936 0.44795 0.14267 0.0
C919 C 0.32531 0.47734 0.14155 0.0
C920 C 0.38868 0.52634 0.10842 0.0
C921 C 0.45128 0.60863 0.12016 0.0
C922 C 0.42506 0.57648 0.12253 0.0
C923 C 0.35048 0.48279 0.12961 0.0
C924 C 0.37679 0.51473 0.12724 0.0
H925 H 0.48026 0.68076 0.13974 0.0
H926 H 0.43534 0.62894 0.14224 0.0
H927 H 0.42067 0.56521 0.09132 0.0
H928 H 0.32318 0.40949 0.11234 0.0
H929 H 0.36886 0.46131 0.11025 0.0
C930 C 0.86607 0.49974 0.60732 0.0
C931 C 0.84318 0.5022 0.61786 0.0
C932 C 0.86824 0.47304 0.60851 0.0
C933 C 0.84726 0.40664 0.64146 0.0
H934 H 0.87534 0.37734 0.59749 0.0
C935 C 0.85248 0.29362 0.64283 0.0
C936 C 0.87877 0.2946 0.63458 0.0
C937 C 0.84811 0.319 0.64142 0.0
C938 C 0.86779 0.38549 0.60995 0.0
H939 H 0.80347 0.47771 0.63705 0.0
H940 H 0.80703 0.43089 0.63898 0.0
H941 H 0.86494 0.41955 0.5925 0.0
H942 H 0.92149 0.32321 0.61883 0.0
H943 H 0.91372 0.36769 0.61623 0.0
H944 H 0.84974 0.37217 0.65879 0.0
C945 C 0.82381 0.44996 0.63015 0.0
C946 C 0.86178 0.40965 0.6071 0.0
C947 C 0.8217 0.47676 0.62901 0.0
C948 C 0.90114 0.32189 0.62546 0.0
C949 C 0.89653 0.34718 0.62378 0.0
C950 C 0.85301 0.38229 0.64425 0.0
C951 C 0.84751 0.448 0.62023 0.0
C952 C 0.85176 0.42079 0.62287 0.0
C953 C 0.86972 0.34579 0.63149 0.0
C954 C 0.86365 0.37168 0.62857 0.0
H955 H 0.88326 0.51901 0.59881 0.0
H956 H 0.88705 0.4726 0.60087 0.0
H957 H 0.84006 0.41488 0.65402 0.0
H958 H 0.83484 0.27289 0.64998 0.0
H959 H 0.82719 0.31719 0.64744 0.0
C960 C 0.58218 0.88784 0.14436 0.0
C961 C 0.59199 0.87549 0.12928 0.0
C962 C 0.55206 0.88316 0.14413 0.0
C963 C 0.48699 0.86505 0.11088 0.0
H964 H 0.43553 0.83264 0.15745 0.0
C965 C 0.35715 0.82269 0.10732 0.0
C966 C 0.34481 0.83207 0.12272 0.0
C967 C 0.38659 0.82619 0.10897 0.0
C968 C 0.44969 0.84198 0.14438 0.0
H969 H 0.57892 0.84954 0.10197 0.0
H970 H 0.52693 0.84227 0.10118 0.0
H971 H 0.48952 0.84524 0.15865 0.0
H972 H 0.35329 0.85125 0.15227 0.0
H973 H 0.40464 0.85739 0.15515 0.0
H974 H 0.44757 0.86218 0.0966 0.0
C975 C 0.54211 0.85523 0.11326 0.0
C976 C 0.4806 0.84925 0.1451 0.0
C977 C 0.57179 0.85932 0.11373 0.0
C978 C 0.36198 0.84356 0.1402 0.0
C979 C 0.39148 0.84711 0.14184 0.0
C980 C 0.45623 0.85798 0.11019 0.0
C981 C 0.53172 0.86669 0.12858 0.0
C982 C 0.4995 0.8607 0.12831 0.0
C983 C 0.40447 0.83922 0.12604 0.0
C984 C 0.4371 0.84618 0.12688 0.0
H985 H 0.59734 0.90008 0.1566 0.0
H986 H 0.54464 0.89232 0.15608 0.0
H987 H 0.50111 0.87413 0.09777 0.0
H988 H 0.34426 0.81316 0.09381 0.0
H989 H 0.39556 0.81913 0.09671 0.0
C990 C 0.69804 0.5832 0.63984 0.0
C991 C 0.7222 0.59103 0.62642 0.0
C992 C 0.67245 0.55319 0.64002 0.0
C993 C 0.64982 0.4735 0.62324 0.0
H994 H 0.567 0.45594 0.63585 0.0
C995 C 0.54098 0.35479 0.60936 0.0
C996 C 0.51718 0.34373 0.62348 0.0
C997 C 0.5667 0.3844 0.61107 0.0
C998 C 0.59008 0.46045 0.63253 0.0
H999 H 0.73812 0.57468 0.60204 0.0
H1000 H 0.69303 0.52317 0.60152 0.0
H1001 H 0.60926 0.50927 0.63542 0.0
H1002 H 0.5023 0.35492 0.65079 0.0
H1003 H 0.54739 0.40647 0.65387 0.0
H1004 H 0.63043 0.42469 0.6199 0.0
C1005 C 0.69408 0.5394 0.6125 0.0
C1006 C 0.61435 0.49107 0.63229 0.0
C1007 C 0.71976 0.56905 0.6126 0.0
C1008 C 0.52027 0.36261 0.63971 0.0
C1009 C 0.54593 0.3923 0.64137 0.0
C1010 C 0.62552 0.44296 0.6233 0.0
C1011 C 0.67046 0.53069 0.62658 0.0
C1012 C 0.64454 0.49806 0.62745 0.0
C1013 C 0.56919 0.40373 0.62689 0.0
C1014 C 0.59532 0.43608 0.62781 0.0
H1015 H 0.6997 0.59972 0.65082 0.0
H1016 H 0.65489 0.54734 0.65118 0.0
H1017 H 0.67283 0.47776 0.61997 0.0
H1018 H 0.53951 0.34072 0.59679 0.0
H1019 H 0.58414 0.39253 0.59962 0.0
C1020 C 0.3001 0.85598 0.42202 0.0
C1021 C 0.29787 0.87566 0.40821 0.0
C1022 C 0.32586 0.85219 0.42236 0.0
C1023 C 0.38651 0.85479 0.39134 0.0
H1024 H 0.42561 0.85713 0.44121 0.0
C1025 C 0.49885 0.84813 0.39753 0.0
C1026 C 0.50222 0.833 0.41399 0.0
C1027 C 0.47319 0.85214 0.39582 0.0
C1028 C 0.41468 0.8559 0.42719 0.0
H1029 H 0.3207 0.90687 0.3839 0.0
H1030 H 0.36599 0.89966 0.38413 0.0
H1031 H 0.38374 0.86865 0.44035 0.0
H1032 H 0.48014 0.80831 0.44086 0.0
H1033 H 0.43529 0.81501 0.43781 0.0
H1034 H 0.4171 0.84145 0.37822 0.0
C1035 C 0.34775 0.88745 0.39483 0.0
C1036 C 0.39084 0.86275 0.42669 0.0
C1037 C 0.32208 0.89179 0.39478 0.0
C1038 C 0.47856 0.82062 0.4282 0.0
C1039 C 0.45289 0.82455 0.42647 0.0
C1040 C 0.41029 0.8477 0.39185 0.0
C1041 C 0.34981 0.86756 0.40864 0.0
C1042 C 0.37642 0.86216 0.40879 0.0
C1043 C 0.45025 0.84105 0.41052 0.0
C1044 C 0.42459 0.84805 0.40981 0.0
H1045 H 0.28172 0.84334 0.43258 0.0
H1046 H 0.32666 0.83657 0.43307 0.0
H1047 H 0.37547 0.85372 0.37738 0.0
H1048 H 0.51676 0.8582 0.38641 0.0
H1049 H 0.47205 0.86512 0.38341 0.0
C1050 C 0.66793 0.47424 0.908 0.0
C1051 C 0.67277 0.49896 0.92027 0.0
C1052 C 0.63839 0.44841 0.90599 0.0
C1053 C 0.55669 0.42613 0.90974 0.0
H1054 H 0.54151 0.34229 0.91117 0.0
C1055 C 0.43316 0.32017 0.91088 0.0
C1056 C 0.42833 0.29288 0.90181 0.0
C1057 C 0.46299 0.34572 0.91229 0.0
C1058 C 0.54535 0.36556 0.91038 0.0
H1059 H 0.6504 0.51568 0.94022 0.0
H1060 H 0.59912 0.47063 0.93681 0.0
H1061 H 0.59387 0.38527 0.91578 0.0
H1062 H 0.45048 0.27144 0.88609 0.0
H1063 H 0.50212 0.31628 0.88773 0.0
H1064 H 0.50845 0.4067 0.90399 0.0
C1065 C 0.6181 0.47129 0.92868 0.0
C1066 C 0.57538 0.39016 0.91312 0.0
C1067 C 0.64758 0.49694 0.9308 0.0
C1068 C 0.45357 0.29213 0.89331 0.0
C1069 C 0.48325 0.31775 0.89445 0.0
C1070 C 0.52673 0.40158 0.90678 0.0
C1071 C 0.61308 0.44695 0.91605 0.0
C1072 C 0.58133 0.4207 0.91294 0.0
C1073 C 0.48853 0.34464 0.90441 0.0
C1074 C 0.52059 0.37093 0.90712 0.0
H1075 H 0.68691 0.47501 0.89982 0.0
H1076 H 0.63518 0.42999 0.89612 0.0
H1077 H 0.56066 0.44947 0.90923 0.0
H1078 H 0.41418 0.32127 0.91778 0.0
H1079 H 0.46611 0.36585 0.92026 0.0
C1080 C 0.20065 0.66408 0.40815 0.0
C1081 C 0.1812 0.66965 0.42037 0.0
C1082 C 0.19695 0.6345 0.40683 0.0
C1083 C 0.1379 0.55302 0.41295 0.0
H1084 H 0.20715 0.53863 0.41331 0.0
C1085 C 0.1217 0.43006 0.41557 0.0
C1086 C 0.1436 0.4251 0.40582 0.0
C1087 C 0.12582 0.45983 0.41687 0.0
C1088 C 0.18753 0.54223 0.41286 0.0
H1089 H 0.14294 0.64852 0.441 0.0
H1090 H 0.1368 0.59718 0.43885 0.0
H1091 H 0.21635 0.59101 0.41698 0.0
H1092 H 0.186 0.44693 0.38879 0.0
H1093 H 0.19252 0.49838 0.39032 0.0
H1094 H 0.10906 0.50444 0.40849 0.0
C1095 C 0.15473 0.61562 0.43018 0.0
C1096 C 0.19287 0.57228 0.41505 0.0
C1097 C 0.15853 0.64516 0.4316 0.0
C1098 C 0.16891 0.45013 0.39663 0.0
C1099 C 0.17279 0.47971 0.39766 0.0
C1100 C 0.13257 0.523 0.41057 0.0
C1101 C 0.17357 0.60985 0.41757 0.0
C1102 C 0.16809 0.57799 0.4152 0.0
C1103 C 0.15172 0.48514 0.40819 0.0
C1104 C 0.15731 0.51716 0.41052 0.0
H1105 H 0.2185 0.68251 0.39944 0.0
H1106 H 0.21178 0.63073 0.39694 0.0
H1107 H 0.11836 0.55676 0.41271 0.0
H1108 H 0.10211 0.41121 0.42292 0.0
H1109 H 0.10925 0.4631 0.42526 0.0
C1110 C 0.6969 0.11599 0.9125 0.0
C1111 C 0.72378 0.13712 0.90241 0.0
C1112 C 0.67163 0.12075 0.91365 0.0
C1113 C 0.63462 0.16032 0.89061 0.0
H1114 H 0.60321 0.15907 0.94313 0.0
C1115 C 0.54226 0.19561 0.90465 0.0
C1116 C 0.51911 0.17797 0.91847 0.0
C1117 C 0.5683 0.19222 0.90277 0.0
C1118 C 0.61137 0.15912 0.92831 0.0
H1119 H 0.74477 0.1788 0.88474 0.0
H1120 H 0.70031 0.18654 0.88626 0.0
H1121 H 0.64476 0.14754 0.93868 0.0
H1122 H 0.50504 0.14278 0.94102 0.0
H1123 H 0.54985 0.13646 0.93755 0.0
H1124 H 0.60084 0.17116 0.88011 0.0
C1125 C 0.69889 0.16656 0.89347 0.0
C1126 C 0.6352 0.15252 0.9258 0.0
C1127 C 0.72432 0.16213 0.89262 0.0
C1128 C 0.52271 0.15712 0.93047 0.0
C1129 C 0.54852 0.15355 0.92849 0.0
C1130 C 0.61048 0.16653 0.89308 0.0
C1131 C 0.6726 0.14637 0.9044 0.0
C1132 C 0.64696 0.1529 0.90692 0.0
C1133 C 0.57161 0.17088 0.91454 0.0
C1134 C 0.59839 0.16585 0.91197 0.0
H1135 H 0.69596 0.0967 0.92033 0.0
H1136 H 0.6515 0.1047 0.92204 0.0
H1137 H 0.64325 0.16072 0.87588 0.0
H1138 H 0.54028 0.21211 0.89534 0.0
H1139 H 0.58585 0.20637 0.89211 0.0
C1140 C 0.37348 0.51444 0.42984 0.0
C1141 C 0.34805 0.51264 0.41979 0.0
C1142 C 0.40282 0.54043 0.42804 0.0
C1143 C 0.4493 0.6074 0.39536 0.0
H1144 H 0.50612 0.63516 0.43959 0.0
C1145 C 0.56751 0.72101 0.39574 0.0
C1146 C 0.59281 0.72 0.40397 0.0
C1147 C 0.53779 0.69537 0.3967 0.0
C1148 C 0.49062 0.62744 0.42705 0.0
H1149 H 0.33347 0.53727 0.40034 0.0
H1150 H 0.38472 0.583 0.3974 0.0
H1151 H 0.45342 0.59284 0.44407 0.0
H1152 H 0.60687 0.69101 0.4192 0.0
H1153 H 0.55469 0.6461 0.42103 0.0
H1154 H 0.48655 0.64261 0.37849 0.0
C1155 C 0.38205 0.56396 0.40639 0.0
C1156 C 0.46037 0.60317 0.42959 0.0
C1157 C 0.35264 0.53779 0.40811 0.0
C1158 C 0.58788 0.69242 0.41262 0.0
C1159 C 0.558 0.66685 0.41384 0.0
C1160 C 0.4795 0.6319 0.39287 0.0
C1161 C 0.40762 0.5655 0.4162 0.0
C1162 C 0.43935 0.59258 0.41374 0.0
C1163 C 0.53258 0.66823 0.40614 0.0
C1164 C 0.50057 0.642 0.40865 0.0
H1165 H 0.37094 0.49529 0.43866 0.0
H1166 H 0.42193 0.5404 0.43552 0.0
H1167 H 0.434 0.59965 0.38272 0.0
H1168 H 0.57056 0.74193 0.38894 0.0
H1169 H 0.51869 0.69721 0.39072 0.0
C1170 C 0.85949 0.56616 0.92155 0.0
C1171 C 0.87889 0.58821 0.90773 0.0
C1172 C 0.85526 0.53647 0.92138 0.0
C1173 C 0.88664 0.48845 0.9014 0.0
H1174 H 0.80492 0.42191 0.91526 0.0
C1175 C 0.85312 0.36 0.89616 0.0
C1176 C 0.83827 0.34202 0.91287 0.0
C1177 C 0.85685 0.38947 0.89402 0.0
C1178 C 0.82788 0.44024 0.91143 0.0
H1179 H 0.90957 0.59688 0.88302 0.0
H1180 H 0.90135 0.54425 0.88212 0.0
H1181 H 0.81489 0.47469 0.91432 0.0
H1182 H 0.81435 0.34034 0.93996 0.0
H1183 H 0.82096 0.39178 0.93626 0.0
H1184 H 0.89935 0.45363 0.8983 0.0
C1185 C 0.88993 0.55015 0.89346 0.0
C1186 C 0.83372 0.47059 0.91099 0.0
C1187 C 0.89466 0.58027 0.89392 0.0
C1188 C 0.82619 0.35373 0.92701 0.0
C1189 C 0.82976 0.3831 0.92481 0.0
C1190 C 0.88068 0.45799 0.90165 0.0
C1191 C 0.86976 0.52772 0.90704 0.0
C1192 C 0.86332 0.49522 0.9063 0.0
C1193 C 0.84561 0.40152 0.90846 0.0
C1194 C 0.85135 0.4336 0.90693 0.0
H1195 H 0.84739 0.57189 0.93254 0.0
H1196 H 0.84042 0.52032 0.93249 0.0
H1197 H 0.90976 0.50673 0.89792 0.0
H1198 H 0.86289 0.35178 0.88506 0.0
H1199 H 0.86882 0.40297 0.88114 0.0
C1200 C 0.15276 0.32234 0.34073 0.0
C1201 C 0.16266 0.34933 0.35184 0.0
C1202 C 0.15857 0.32412 0.32046 0.0
C1203 C 0.20654 0.37343 0.28023 0.0
H1204 H 0.13382 0.32463 0.24807 0.0
C1205 C 0.21483 0.37572 0.19525 0.0
C1206 C 0.19992 0.3464 0.18652 0.0
C1207 C 0.20832 0.37941 0.21488 0.0
C1208 C 0.15441 0.33827 0.2568 0.0
H1209 H 0.18709 0.39919 0.351 0.0
H1210 H 0.19857 0.40243 0.31552 0.0
H1211 H 0.12918 0.32321 0.28392 0.0
H1212 H 0.16588 0.29834 0.19069 0.0
H1213 H 0.15423 0.30454 0.22464 0.0
H1214 H 0.23205 0.3876 0.25319 0.0
C1215 C 0.18616 0.37995 0.32244 0.0
C1216 C 0.15173 0.3374 0.27733 0.0
C1217 C 0.17975 0.37814 0.34267 0.0
C1218 C 0.1772 0.32127 0.19711 0.0
C1219 C 0.17059 0.32489 0.21659 0.0
C1220 C 0.20932 0.37401 0.25965 0.0
C1221 C 0.17473 0.35293 0.31105 0.0
C1222 C 0.17781 0.35466 0.28925 0.0
C1223 C 0.18685 0.35378 0.22599 0.0
C1224 C 0.18333 0.35611 0.24767 0.0
H1225 H 0.13901 0.29989 0.34751 0.0
H1226 H 0.14971 0.30295 0.31203 0.0
H1227 H 0.227 0.38691 0.28911 0.0
H1228 H 0.2329 0.39528 0.18739 0.0
H1229 H 0.22096 0.40206 0.22158 0.0
C1230 C 0.84756 0.20672 0.69509 0.0
C1231 C 0.86418 0.19364 0.68689 0.0
C1232 C 0.83804 0.20104 0.7149 0.0
C1233 C 0.82545 0.14831 0.75661 0.0
H1234 H 0.85084 0.21966 0.79043 0.0
C1235 C 0.83894 0.13785 0.83866 0.0
C1236 C 0.82594 0.14989 0.85177 0.0
C1237 C 0.84279 0.14605 0.81881 0.0
C1238 C 0.84323 0.19949 0.78116 0.0
H1239 H 0.88324 0.16399 0.69241 0.0
H1240 H 0.86579 0.15312 0.72657 0.0
H1241 H 0.85512 0.22611 0.75444 0.0
H1242 H 0.80814 0.18118 0.85476 0.0
H1243 H 0.81461 0.19555 0.81956 0.0
H1244 H 0.81402 0.12169 0.78304 0.0
C1245 C 0.85999 0.1677 0.71793 0.0
C1246 C 0.84558 0.20315 0.76056 0.0
C1247 C 0.86993 0.17382 0.69837 0.0
C1248 C 0.81859 0.17191 0.84492 0.0
C1249 C 0.82213 0.17994 0.8248 0.0
C1250 C 0.82305 0.14467 0.77705 0.0
C1251 C 0.84463 0.18183 0.72662 0.0
C1252 C 0.83752 0.17767 0.74811 0.0
C1253 C 0.83312 0.16606 0.8114 0.0
C1254 C 0.83282 0.17029 0.78964 0.0
H1255 H 0.84353 0.22266 0.68656 0.0
H1256 H 0.82618 0.21217 0.72118 0.0
H1257 H 0.81853 0.12816 0.74743 0.0
H1258 H 0.84489 0.12091 0.84364 0.0
H1259 H 0.85226 0.13569 0.80906 0.0
C1260 C 0.68495 0.84395 0.19493 0.0
C1261 C 0.67057 0.85949 0.18713 0.0
C1262 C 0.68081 0.83517 0.21485 0.0
C1263 C 0.65996 0.85744 0.26237 0.0
H1264 H 0.66326 0.78676 0.28238 0.0
C1265 C 0.68498 0.84483 0.34455 0.0
C1266 C 0.67207 0.81494 0.35227 0.0
C1267 C 0.68035 0.84918 0.32466 0.0
C1268 C 0.66182 0.8064 0.27711 0.0
H1269 H 0.63964 0.87686 0.1934 0.0
H1270 H 0.631 0.86017 0.22776 0.0
H1271 H 0.66204 0.79364 0.24697 0.0
H1272 H 0.64311 0.76635 0.34591 0.0
H1273 H 0.63368 0.77379 0.31161 0.0
H1274 H 0.65924 0.86992 0.29253 0.0
C1275 C 0.64618 0.85545 0.21888 0.0
C1276 C 0.66158 0.81058 0.25671 0.0
C1277 C 0.65069 0.86457 0.19912 0.0
C1278 C 0.65305 0.78964 0.34025 0.0
C1279 C 0.64809 0.79393 0.32052 0.0
C1280 C 0.66001 0.85316 0.28278 0.0
C1281 C 0.6621 0.84171 0.22726 0.0
C1282 C 0.66082 0.83625 0.24902 0.0
C1283 C 0.66265 0.82366 0.31221 0.0
C1284 C 0.66111 0.82767 0.29046 0.0
H1285 H 0.70098 0.84051 0.18602 0.0
H1286 H 0.6937 0.82491 0.22075 0.0
H1287 H 0.65994 0.87783 0.25709 0.0
H1288 H 0.7003 0.86461 0.35349 0.0
H1289 H 0.69213 0.8724 0.3188 0.0
C1290 C 0.84031 0.69336 0.69832 0.0
C1291 C 0.82027 0.66753 0.68703 0.0
C1292 C 0.84579 0.69008 0.71807 0.0
C1293 C 0.83976 0.63912 0.75839 0.0
H1294 H 0.8208 0.69311 0.78907 0.0
C1295 C 0.84533 0.64345 0.84426 0.0
C1296 C 0.86246 0.67358 0.85172 0.0
C1297 C 0.83578 0.63856 0.82445 0.0
C1298 C 0.82625 0.67793 0.78077 0.0
H1299 H 0.7919 0.61779 0.68685 0.0
H1300 H 0.80187 0.61184 0.72174 0.0
H1301 H 0.8169 0.69248 0.75328 0.0
H1302 H 0.88228 0.722 0.84492 0.0
H1303 H 0.86505 0.71371 0.81076 0.0
H1304 H 0.85016 0.6254 0.78602 0.0
C1305 C 0.81337 0.63462 0.7152 0.0
C1306 C 0.82406 0.67761 0.76026 0.0
C1307 C 0.80783 0.63796 0.69527 0.0
C1308 C 0.86856 0.69855 0.83953 0.0
C1309 C 0.85872 0.69373 0.81995 0.0
C1310 C 0.84222 0.63962 0.77905 0.0
C1311 C 0.83113 0.66086 0.72698 0.0
C1312 C 0.83147 0.65878 0.74881 0.0
C1313 C 0.84296 0.66376 0.81197 0.0
C1314 C 0.83615 0.6596 0.79043 0.0
H1315 H 0.84997 0.7164 0.69226 0.0
H1316 H 0.86 0.71063 0.72672 0.0
H1317 H 0.8455 0.62433 0.74988 0.0
H1318 H 0.84104 0.62391 0.85335 0.0
H1319 H 0.82354 0.6152 0.81877 0.0
C1320 C 0.15036 0.84057 0.19734 0.0
C1321 C 0.15553 0.82024 0.18593 0.0
C1322 C 0.16032 0.84669 0.21691 0.0
C1323 C 0.17346 0.81074 0.25966 0.0
H1324 H 0.20746 0.89271 0.28197 0.0
C1325 C 0.20115 0.84192 0.34397 0.0
C1326 C 0.1951 0.86488 0.35081 0.0
C1327 C 0.19731 0.8338 0.32384 0.0
C1328 C 0.19772 0.86958 0.27603 0.0
H1329 H 0.17521 0.79036 0.18571 0.0
H1330 H 0.19248 0.80077 0.22035 0.0
H1331 H 0.20258 0.88592 0.24636 0.0
H1332 H 0.17804 0.89543 0.3427 0.0
H1333 H 0.17009 0.88049 0.30813 0.0
H1334 H 0.16783 0.7944 0.28955 0.0
C1335 C 0.18107 0.81229 0.21402 0.0
C1336 C 0.19512 0.86576 0.25559 0.0
C1337 C 0.17157 0.80663 0.19421 0.0
C1338 C 0.18302 0.87779 0.33772 0.0
C1339 C 0.17885 0.86949 0.31786 0.0
C1340 C 0.17597 0.81457 0.28025 0.0
C1341 C 0.17507 0.83204 0.22566 0.0
C1342 C 0.18221 0.83625 0.24715 0.0
C1343 C 0.18728 0.8485 0.31044 0.0
C1344 C 0.18728 0.84399 0.28867 0.0
H1345 H 0.13755 0.85087 0.19131 0.0
H1346 H 0.15502 0.86174 0.2255 0.0
H1347 H 0.16327 0.78767 0.25358 0.0
H1348 H 0.21083 0.83193 0.3538 0.0
H1349 H 0.20385 0.81742 0.31861 0.0
C1350 C 0.37151 0.20254 0.84338 0.0
C1351 C 0.34158 0.18962 0.85121 0.0
C1352 C 0.37579 0.19726 0.82355 0.0
C1353 C 0.33606 0.14607 0.78098 0.0
H1354 H 0.38375 0.21834 0.74831 0.0
C1355 C 0.31374 0.13867 0.69881 0.0
C1356 C 0.3391 0.15041 0.68599 0.0
C1357 C 0.31782 0.14642 0.71875 0.0
C1358 C 0.37069 0.19792 0.75726 0.0
H1359 H 0.29292 0.16056 0.84504 0.0
H1360 H 0.30023 0.15037 0.81089 0.0
H1361 H 0.38526 0.22359 0.78439 0.0
H1362 H 0.3885 0.18072 0.68356 0.0
H1363 H 0.39589 0.19427 0.71891 0.0
H1364 H 0.32095 0.12041 0.75412 0.0
C1365 C 0.32047 0.16452 0.81981 0.0
C1366 C 0.37164 0.20088 0.77791 0.0
C1367 C 0.31622 0.17024 0.83937 0.0
C1368 C 0.36855 0.17172 0.69319 0.0
C1369 C 0.37275 0.17929 0.7134 0.0
C1370 C 0.33514 0.14312 0.76049 0.0
C1371 C 0.3502 0.1786 0.81147 0.0
C1372 C 0.3536 0.17507 0.78995 0.0
C1373 C 0.34749 0.16563 0.72651 0.0
C1374 C 0.35162 0.1691 0.74832 0.0
H1375 H 0.39134 0.21816 0.85218 0.0
H1376 H 0.39896 0.20833 0.81755 0.0
H1377 H 0.32235 0.12567 0.78983 0.0
H1378 H 0.2908 0.12226 0.69354 0.0
H1379 H 0.29775 0.13626 0.7283 0.0
C1380 C 0.3286 0.25215 0.96053 0.0
C1381 C 0.32266 0.22164 0.96191 0.0
C1382 C 0.3165 0.26392 0.97441 0.0
C1383 C 0.25558 0.24089 1.01235 0.0
H1384 H 0.30739 0.32491 0.03073 0.0
C1385 C 0.21948 0.29128 0.07731 0.0
C1386 C 0.2279 0.32259 0.07672 0.0
C1387 C 0.23047 0.27881 0.06313 0.0
C1388 C 0.29238 0.30157 0.02558 0.0
H1389 H 0.29955 0.17959 0.97903 0.0
H1390 H 0.27864 0.20031 1.0036 0.0
H1391 H 0.32762 0.30325 1.00679 0.0
H1392 H 0.25352 0.36514 0.06034 0.0
H1393 H 0.27211 0.34326 0.03517 0.0
H1394 H 0.22026 0.23925 0.03105 0.0
C1395 C 0.29232 0.21499 0.99155 0.0
C1396 C 0.30405 0.28908 1.01185 0.0
C1397 C 0.30445 0.20316 0.97758 0.0
C1398 C 0.24689 0.341 0.06129 0.0
C1399 C 0.25772 0.32847 0.04696 0.0
C1400 C 0.24384 0.25342 0.02604 0.0
C1401 C 0.29829 0.24559 0.99016 0.0
C1402 C 0.28582 0.25858 1.00503 0.0
C1403 C 0.24985 0.29722 0.04777 0.0
C1404 C 0.2621 0.28395 0.03287 0.0
H1405 H 0.34251 0.26699 0.94859 0.0
H1406 H 0.32118 0.28737 0.97265 0.0
H1407 H 0.24072 0.21749 1.00722 0.0
H1408 H 0.20448 0.27636 0.08886 0.0
H1409 H 0.22415 0.2548 0.06445 0.0
C1410 C 0.08696 0.32452 0.46314 0.0
C1411 C 0.10939 0.31548 0.46202 0.0
C1412 C 0.06386 0.31218 0.47752 0.0
C1413 C 0.01882 0.24528 0.50868 0.0
H1414 H 1.00508 0.30145 0.54074 0.0
C1415 C 0.92613 0.20039 0.57084 0.0
C1416 C 0.91244 0.21807 0.57569 0.0
C1417 C 0.95083 0.21171 0.55745 0.0
C1418 C 1.00797 0.28522 0.53172 0.0
H1419 H 0.12499 0.28611 0.47493 0.0
H1420 H 0.08396 0.26394 0.50002 0.0
H1421 H 0.0463 0.32187 0.51645 0.0
H1422 H 0.91276 0.26071 0.57008 0.0
H1423 H 0.95371 0.27936 0.54558 0.0
H1424 H 0.97969 0.20854 0.5231 0.0
C1425 C 0.08455 0.2808 0.48977 0.0
C1426 C 0.03195 0.29708 0.5179 0.0
C1427 C 0.10806 0.29357 0.47551 0.0
C1428 C 0.92313 0.24675 0.56659 0.0
C1429 C 0.947 0.25758 0.55272 0.0
C1430 C 0.99432 0.23332 0.52222 0.0
C1431 C 0.06234 0.29016 0.49097 0.0
C1432 C 0.03759 0.27728 0.50619 0.0
C1433 C 0.96173 0.24057 0.54815 0.0
C1434 C 0.98834 0.25311 0.53392 0.0
H1435 H 0.08729 0.34129 0.4529 0.0
H1436 H 0.0469 0.31961 0.47798 0.0
H1437 H 0.02252 0.22947 0.49971 0.0
H1438 H 0.91854 0.1784 0.57799 0.0
H1439 H 0.96173 0.19804 0.55479 0.0
C1440 C 0.73365 0.91851 0.06952 0.0
C1441 C 0.70315 0.90711 0.07597 0.0
C1442 C 0.74688 0.94273 0.0558 0.0
C1443 C 0.72917 0.97628 1.01452 0.0
H1444 H 0.79906 0.05565 0.02875 0.0
C1445 C 0.76678 0.0823 0.96476 0.0
C1446 C 0.79817 0.10484 0.96359 0.0
C1447 C 0.75648 0.05834 0.97848 0.0
C1448 C 0.77994 0.03353 0.02431 0.0
H1449 H 0.6624 0.91147 0.0731 0.0
H1450 H 0.68489 0.95248 0.04827 0.0
H1451 H 0.77938 0.01288 0.05224 0.0
H1452 H 0.84347 0.12001 0.97587 0.0
H1453 H 0.82577 0.07757 0.99949 0.0
H1454 H 0.72994 0.99604 0.98649 0.0
C1455 C 0.69875 0.94323 0.05411 0.0
C1456 C 0.76862 0.00909 0.03785 0.0
C1457 C 0.68593 0.91983 0.06826 0.0
C1458 C 0.8191 0.10303 0.97653 0.0
C1459 C 0.80885 0.07872 0.99014 0.0
C1460 C 0.74082 1.00042 1.00084 0.0
C1461 C 0.72942 0.95512 0.04788 0.0
C1462 C 0.74289 0.98039 0.03315 0.0
C1463 C 0.77734 0.05589 0.99127 0.0
C1464 C 0.76609 0.02964 1.00561 0.0
H1465 H 0.74748 0.90932 0.0755 0.0
H1466 H 0.7706 0.9516 0.05123 0.0
H1467 H 0.70943 0.95426 1.01051 0.0
H1468 H 0.75005 0.0832 0.95505 0.0
H1469 H 0.73198 0.04189 0.97912 0.0
C1470 C 0.77941 0.67499 0.56103 0.0
C1471 C 0.79677 0.69285 0.57717 0.0
C1472 C 0.76847 0.68748 0.54679 0.0
C1473 C 0.77952 0.7622 0.52747 0.0
H1474 H 0.69701 0.7105 0.50672 0.0
C1475 C 0.71766 0.81092 0.47897 0.0
C1476 C 0.69981 0.79246 0.46316 0.0
C1477 C 0.73006 0.7993 0.49287 0.0
C1478 C 0.72024 0.72523 0.51216 0.0
H1479 H 0.81722 0.73812 0.59068 0.0
H1480 H 0.79751 0.75962 0.56628 0.0
H1481 H 0.71789 0.68921 0.53034 0.0
H1482 H 0.68085 0.74734 0.44956 0.0
H1483 H 0.70283 0.72743 0.47334 0.0
H1484 H 0.78175 0.79826 0.50929 0.0
C1485 C 0.7925 0.73607 0.5644 0.0
C1486 C 0.73228 0.71295 0.52574 0.0
C1487 C 0.80353 0.72362 0.57855 0.0
C1488 C 0.6945 0.76218 0.46159 0.0
C1489 C 0.70696 0.75066 0.47534 0.0
C1490 C 0.76746 0.7745 0.51388 0.0
C1491 C 0.77464 0.71814 0.54837 0.0
C1492 C 0.76209 0.73122 0.5336 0.0
C1493 C 0.72482 0.76895 0.49124 0.0
C1494 C 0.73765 0.75617 0.50601 0.0
H1495 H 0.77407 0.65128 0.55948 0.0
H1496 H 0.75529 0.67311 0.53448 0.0
H1497 H 0.80273 0.7769 0.53296 0.0
H1498 H 0.72205 0.8343 0.4806 0.0
H1499 H 0.74339 0.81395 0.50504 0.0
C1500 C 0.91283 0.71999 0.97595 0.0
C1501 C 0.91156 0.69824 0.96229 0.0
C1502 C 0.93667 0.7331 0.98998 0.0
C1503 C 0.99162 0.71804 1.01665 0.0
H1504 H 0.0404 0.80661 0.02377 0.0
C1505 C 0.10148 0.77039 0.06435 0.0
C1506 C 0.11075 0.79807 0.07448 0.0
C1507 C 0.0775 0.75945 0.05056 0.0
C1508 C 0.02678 0.78178 0.02232 0.0
H1509 H 0.93405 0.673 0.95269 0.0
H1510 H 0.97514 0.69542 0.97724 0.0
H1511 H 0.99714 0.78506 1.00071 0.0
H1512 H 0.10206 0.83587 0.07864 0.0
H1513 H 0.0587 0.81592 0.05555 0.0
H1514 H 0.02003 0.7142 0.03857 0.0
C1515 C 0.95786 0.70243 0.97715 0.0
C1516 C 1.00199 0.76948 1.00898 0.0
C1517 C 0.93435 0.68966 0.96305 0.0
C1518 C 0.09561 0.81471 0.07068 0.0
C1519 C 0.07079 0.80321 0.05736 0.0
C1520 C 0.01592 0.73022 0.03024 0.0
C1521 C 0.95933 0.72429 0.99079 0.0
C1522 C 0.98444 0.73749 1.0058 0.0
C1523 C 0.06122 0.77527 0.04711 0.0
C1524 C 0.03431 0.76235 0.03311 0.0
H1525 H 0.89558 0.72704 0.97568 0.0
H1526 H 0.93714 0.74977 1.00039 0.0
H1527 H 0.97823 0.69324 1.01473 0.0
H1528 H 0.11297 0.75725 0.06703 0.0
H1529 H 0.07183 0.73848 0.04264 0.0
C1530 C 0.19916 0.90778 0.47558 0.0
C1531 C 0.22005 0.90566 0.46269 0.0
C1532 C 0.20972 0.93167 0.48959 0.0
C1533 C 0.27819 0.98446 0.51823 0.0
H1534 H 0.24306 0.03797 0.52127 0.0
C1535 C 0.33734 0.09498 0.56534 0.0
C1536 C 0.31965 0.10658 0.57381 0.0
C1537 C 0.32421 0.07068 0.55176 0.0
C1538 C 0.25289 0.02303 0.52099 0.0
H1539 H 0.26832 0.92664 0.45448 0.0
H1540 H 0.28669 0.96765 0.47911 0.0
H1541 H 0.2211 0.99425 0.49854 0.0
H1542 H 0.27422 0.10164 0.5752 0.0
H1543 H 0.25046 0.05778 0.55251 0.0
H1544 H 0.30915 0.01191 0.54101 0.0
C1545 C 0.2622 0.95105 0.47838 0.0
C1546 C 0.24029 0.99798 0.50783 0.0
C1547 C 0.25165 0.92758 0.46425 0.0
C1548 C 0.28845 0.0934 0.56855 0.0
C1549 C 0.27493 0.06826 0.55545 0.0
C1550 C 0.29034 0.00899 0.53167 0.0
C1551 C 0.24141 0.95347 0.49118 0.0
C1552 C 0.25312 0.97872 0.5061 0.0
C1553 C 0.29258 0.05637 0.54686 0.0
C1554 C 0.27833 0.02913 0.53307 0.0
H1555 H 0.17468 0.89127 0.47465 0.0
H1556 H 0.19321 0.93291 0.49934 0.0
H1557 H 0.28833 0.96977 0.5174 0.0
H1558 H 0.36152 0.10489 0.56914 0.0
H1559 H 0.3391 0.06324 0.54514 0.0
loop_
_geom_bond_atom_site_label_1
_geom_bond_atom_site_label_2
_geom_bond_distance
_geom_bond_site_symmetry_2
_ccdc_geom_bond_type
Pr0 C2 2.880 . S
Pr0 O20 2.562 . S
Pr0 O21 2.490 . S
Pr0 O22 2.695 . S
Pr0 O23 2.512 . S
Pr0 O25 2.437 . S
Pr0 O28 2.436 . S
Pr0 O30 2.438 . S
Pr1 C11 2.880 . S
Pr1 O22 2.436 . S
Pr1 O24 2.438 . S
Pr1 O26 2.562 . S
Pr1 O27 2.490 . S
Pr1 O28 2.695 . S
Pr1 O29 2.512 . S
Pr1 O31 2.437 . S
C2 Pr0 2.880 . S
C2 C3 1.491 . S
C2 O20 1.254 . S
C2 O21 1.225 . S
C3 C2 1.491 . S
C3 C4 1.392 . S
C3 C8 1.356 . S
C4 C3 1.392 . S
C4 C5 1.368 . S
C4 H32 0.929 . S
C5 C4 1.368 . S
C5 C6 1.386 . S
C5 H33 0.929 . S
C6 C5 1.386 . S
C6 C7 1.373 . S
C7 C6 1.373 . S
C7 C8 1.409 . S
C7 H34 0.931 . S
C8 C3 1.356 . S
C8 C7 1.409 . S
C8 H35 0.930 . S
C9 O22 1.270 . S
C9 O23 1.248 . S
C10 O24 1.267 . S
C10 O25 1.278 . S
C11 Pr1 2.880 . S
C11 C12 1.491 . S
C11 O26 1.254 . S
C11 O27 1.225 . S
C12 C11 1.491 . S
C12 C13 1.392 . S
C12 C17 1.356 . S
C13 C12 1.392 . S
C13 C14 1.368 . S
C13 H36 0.929 . S
C14 C13 1.368 . S
C14 C15 1.386 . S
C14 H37 0.929 . S
C15 C14 1.386 . S
C15 C16 1.373 . S
C16 C15 1.373 . S
C16 C17 1.409 . S
C16 H38 0.931 . S
C17 C12 1.356 . S
C17 C16 1.409 . S
C17 H39 0.930 . S
C18 O28 1.270 . S
C18 O29 1.248 . S
C19 O30 1.267 . S
C19 O31 1.278 . S
O20 Pr0 2.562 . S
O20 C2 1.254 . S
O21 Pr0 2.490 . S
O21 C2 1.225 . S
O22 Pr0 2.695 . S
O22 Pr1 2.436 . S
O22 C9 1.270 . S
O23 Pr0 2.512 . S
O23 C9 1.248 . S
O24 Pr1 2.438 . S
O24 C10 1.267 . S
O25 Pr0 2.437 . S
O25 C10 1.278 . S
O26 Pr1 2.562 . S
O26 C11 1.254 . S
O27 Pr1 2.490 . S
O27 C11 1.225 . S
O28 Pr0 2.436 . S
O28 Pr1 2.695 . S
O28 C18 1.270 . S
O29 Pr1 2.512 . S
O29 C18 1.248 . S
O30 Pr0 2.438 . S
O30 C19 1.267 . S
O31 Pr1 2.437 . S
O31 C19 1.278 . S
H32 C4 0.929 . S
H33 C5 0.929 . S
H34 C7 0.931 . S
H35 C8 0.930 . S
H36 C13 0.929 . S
H37 C14 0.929 . S
H38 C16 0.931 . S
H39 C17 0.930 . S
Pr40 C42 2.880 . S
Pr40 O60 2.562 . S
Pr40 O61 2.490 . S
Pr40 O62 2.695 . S
Pr40 O63 2.512 . S
Pr40 O65 2.437 . S
Pr40 O68 2.436 . S
Pr40 O70 2.438 . S
Pr41 C51 2.880 . S
Pr41 O62 2.436 . S
Pr41 O64 2.438 . S
Pr41 O66 2.562 . S
Pr41 O67 2.490 . S
Pr41 O68 2.695 . S
Pr41 O69 2.512 . S
Pr41 O71 2.437 . S
C42 Pr40 2.880 . S
C42 C43 1.491 . S
C42 O60 1.254 . S
C42 O61 1.225 . S
C43 C42 1.491 . S
C43 C44 1.392 . S
C43 C48 1.356 . S
C44 C43 1.392 . S
C44 C45 1.368 . S
C44 H72 0.929 . S
C45 C44 1.368 . S
C45 C46 1.386 . S
C45 H73 0.929 . S
C46 C45 1.386 . S
C46 C47 1.373 . S
C47 C46 1.373 . S
C47 C48 1.409 . S
C47 H74 0.931 . S
C48 C43 1.356 . S
C48 C47 1.409 . S
C48 H75 0.930 . S
C49 O62 1.270 . S
C49 O63 1.248 . S
C50 O64 1.267 . S
C50 O65 1.278 . S
C51 Pr41 2.880 . S
C51 C52 1.491 . S
C51 O66 1.254 . S
C51 O67 1.225 . S
C52 C51 1.491 . S
C52 C53 1.392 . S
C52 C57 1.356 . S
C53 C52 1.392 . S
C53 C54 1.368 1_655 S
C53 H76 0.929 . S
C54 C53 1.368 1_455 S
C54 C55 1.386 . S
C54 H77 0.929 . S
C55 C54 1.386 . S
C55 C56 1.373 . S
C56 C55 1.373 . S
C56 C57 1.409 1_455 S
C56 H78 0.931 . S
C57 C52 1.356 . S
C57 C56 1.409 1_655 S
C57 H79 0.930 . S
C58 O68 1.270 . S
C58 O69 1.248 . S
C59 O70 1.267 . S
C59 O71 1.278 . S
O60 Pr40 2.562 . S
O60 C42 1.254 . S
O61 Pr40 2.490 . S
O61 C42 1.225 . S
O62 Pr40 2.695 . S
O62 Pr41 2.436 . S
O62 C49 1.270 . S
O63 Pr40 2.512 . S
O63 C49 1.248 . S
O64 Pr41 2.438 . S
O64 C50 1.267 . S
O65 Pr40 2.437 . S
O65 C50 1.278 . S
O66 Pr41 2.562 . S
O66 C51 1.254 . S
O67 Pr41 2.490 . S
O67 C51 1.225 . S
O68 Pr40 2.436 . S
O68 Pr41 2.695 . S
O68 C58 1.270 . S
O69 Pr41 2.512 . S
O69 C58 1.248 . S
O70 Pr40 2.438 . S
O70 C59 1.267 . S
O71 Pr41 2.437 . S
O71 C59 1.278 . S
H72 C44 0.929 . S
H73 C45 0.929 . S
H74 C47 0.931 . S
H75 C48 0.930 . S
H76 C53 0.929 . S
H77 C54 0.929 . S
H78 C56 0.931 . S
H79 C57 0.930 . S
Pr80 C82 2.880 . S
Pr80 O100 2.562 . S
Pr80 O101 2.490 . S
Pr80 O102 2.695 . S
Pr80 O103 2.512 . S
Pr80 O105 2.437 . S
Pr80 O108 2.436 . S
Pr80 O110 2.438 . S
Pr81 C91 2.880 . S
Pr81 O102 2.436 . S
Pr81 O104 2.438 . S
Pr81 O106 2.562 . S
Pr81 O107 2.490 . S
Pr81 O108 2.695 . S
Pr81 O109 2.512 . S
Pr81 O111 2.437 . S
C82 Pr80 2.880 . S
C82 C83 1.491 . S
C82 O100 1.254 . S
C82 O101 1.225 . S
C83 C82 1.491 . S
C83 C84 1.392 . S
C83 C88 1.356 . S
C84 C83 1.392 . S
C84 C85 1.368 . S
C84 H112 0.929 . S
C85 C84 1.368 . S
C85 C86 1.386 . S
C85 H113 0.929 . S
C86 C85 1.386 . S
C86 C87 1.373 . S
C87 C86 1.373 . S
C87 C88 1.409 . S
C87 H114 0.931 . S
C88 C83 1.356 . S
C88 C87 1.409 . S
C88 H115 0.930 . S
C89 O102 1.270 . S
C89 O103 1.248 . S
C90 O104 1.267 . S
C90 O105 1.278 . S
C91 Pr81 2.880 . S
C91 C92 1.491 . S
C91 O106 1.254 . S
C91 O107 1.225 . S
C92 C91 1.491 . S
C92 C93 1.392 . S
C92 C97 1.356 . S
C93 C92 1.392 . S
C93 C94 1.368 1_565 S
C93 H116 0.929 . S
C94 C93 1.368 1_545 S
C94 C95 1.386 . S
C94 H117 0.929 . S
C95 C94 1.386 . S
C95 C96 1.373 . S
C96 C95 1.373 . S
C96 C97 1.409 1_545 S
C96 H118 0.931 . S
C97 C92 1.356 . S
C97 C96 1.409 1_565 S
C97 H119 0.930 . S
C98 O108 1.270 . S
C98 O109 1.248 . S
C99 O110 1.267 . S
C99 O111 1.278 . S
O100 Pr80 2.562 . S
O100 C82 1.254 . S
O101 Pr80 2.490 . S
O101 C82 1.225 . S
O102 Pr80 2.695 . S
O102 Pr81 2.436 . S
O102 C89 1.270 . S
O103 Pr80 2.512 . S
O103 C89 1.248 . S
O104 Pr81 2.438 . S
O104 C90 1.267 . S
O105 Pr80 2.437 . S
O105 C90 1.278 . S
O106 Pr81 2.562 . S
O106 C91 1.254 . S
O107 Pr81 2.490 . S
O107 C91 1.225 . S
O108 Pr80 2.436 . S
O108 Pr81 2.695 . S
O108 C98 1.270 . S
O109 Pr81 2.512 . S
O109 C98 1.248 . S
O110 Pr80 2.438 . S
O110 C99 1.267 . S
O111 Pr81 2.437 . S
O111 C99 1.278 . S
H112 C84 0.929 . S
H113 C85 0.929 . S
H114 C87 0.931 . S
H115 C88 0.930 . S
H116 C93 0.929 . S
H117 C94 0.929 . S
H118 C96 0.931 . S
H119 C97 0.930 . S
Pr120 C122 2.880 . S
Pr120 O140 2.562 . S
Pr120 O141 2.490 . S
Pr120 O142 2.695 . S
Pr120 O143 2.512 . S
Pr120 O145 2.437 . S
Pr120 O148 2.436 . S
Pr120 O150 2.438 . S
Pr121 C131 2.880 . S
Pr121 O142 2.436 . S
Pr121 O144 2.438 . S
Pr121 O146 2.562 . S
Pr121 O147 2.490 . S
Pr121 O148 2.695 . S
Pr121 O149 2.512 . S
Pr121 O151 2.437 . S
C122 Pr120 2.880 . S
C122 C123 1.491 . S
C122 O140 1.254 . S
C122 O141 1.225 . S
C123 C122 1.491 . S
C123 C124 1.392 . S
C123 C128 1.356 . S
C124 C123 1.392 . S
C124 C125 1.368 . S
C124 H152 0.929 . S
C125 C124 1.368 . S
C125 C126 1.386 . S
C125 H153 0.929 . S
C126 C125 1.386 . S
C126 C127 1.373 . S
C127 C126 1.373 . S
C127 C128 1.409 . S
C127 H154 0.931 . S
C128 C123 1.356 . S
C128 C127 1.409 . S
C128 H155 0.930 . S
C129 O142 1.270 . S
C129 O143 1.248 . S
C130 O144 1.267 . S
C130 O145 1.278 . S
C131 Pr121 2.880 . S
C131 C132 1.491 . S
C131 O146 1.254 . S
C131 O147 1.225 . S
C132 C131 1.491 . S
C132 C133 1.392 . S
C132 C137 1.356 . S
C133 C132 1.392 . S
C133 C134 1.368 . S
C133 H156 0.929 . S
C134 C133 1.368 . S
C134 C135 1.386 . S
C134 H157 0.929 . S
C135 C134 1.386 . S
C135 C136 1.373 . S
C136 C135 1.373 . S
C136 C137 1.409 . S
C136 H158 0.931 . S
C137 C132 1.356 . S
C137 C136 1.409 . S
C137 H159 0.930 . S
C138 O148 1.270 . S
C138 O149 1.248 . S
C139 O150 1.267 . S
C139 O151 1.278 . S
O140 Pr120 2.562 . S
O140 C122 1.254 . S
O141 Pr120 2.490 . S
O141 C122 1.225 . S
O142 Pr120 2.695 . S
O142 Pr121 2.436 . S
O142 C129 1.270 . S
O143 Pr120 2.512 . S
O143 C129 1.248 . S
O144 Pr121 2.438 . S
O144 C130 1.267 . S
O145 Pr120 2.437 . S
O145 C130 1.278 . S
O146 Pr121 2.562 . S
O146 C131 1.254 . S
O147 Pr121 2.490 . S
O147 C131 1.225 . S
O148 Pr120 2.436 . S
O148 Pr121 2.695 . S
O148 C138 1.270 . S
O149 Pr121 2.512 . S
O149 C138 1.248 . S
O150 Pr120 2.438 . S
O150 C139 1.267 . S
O151 Pr121 2.437 . S
O151 C139 1.278 . S
H152 C124 0.929 . S
H153 C125 0.929 . S
H154 C127 0.931 . S
H155 C128 0.930 . S
H156 C133 0.929 . S
H157 C134 0.929 . S
H158 C136 0.931 . S
H159 C137 0.930 . S
Pr160 C162 2.880 . S
Pr160 O180 2.562 . S
Pr160 O181 2.490 . S
Pr160 O182 2.695 . S
Pr160 O183 2.512 . S
Pr160 O185 2.437 . S
Pr160 O188 2.436 . S
Pr160 O190 2.438 . S
Pr161 C171 2.880 . S
Pr161 O182 2.436 . S
Pr161 O184 2.438 . S
Pr161 O186 2.562 . S
Pr161 O187 2.490 . S
Pr161 O188 2.695 . S
Pr161 O189 2.512 . S
Pr161 O191 2.437 . S
C162 Pr160 2.880 . S
C162 C163 1.491 . S
C162 O180 1.254 . S
C162 O181 1.225 . S
C163 C162 1.491 . S
C163 C164 1.392 . S
C163 C168 1.356 . S
C164 C163 1.392 . S
C164 C165 1.368 . S
C164 H192 0.929 . S
C165 C164 1.368 . S
C165 C166 1.386 . S
C165 H193 0.929 . S
C166 C165 1.386 . S
C166 C167 1.373 . S
C167 C166 1.373 . S
C167 C168 1.409 . S
C167 H194 0.931 . S
C168 C163 1.356 . S
C168 C167 1.409 . S
C168 H195 0.930 . S
C169 O182 1.270 . S
C169 O183 1.248 . S
C170 O184 1.267 . S
C170 O185 1.278 . S
C171 Pr161 2.880 . S
C171 C172 1.491 . S
C171 O186 1.254 . S
C171 O187 1.225 . S
C172 C171 1.491 . S
C172 C173 1.392 . S
C172 C177 1.356 . S
C173 C172 1.392 . S
C173 C174 1.368 1_455 S
C173 H196 0.929 . S
C174 C173 1.368 1_655 S
C174 C175 1.386 . S
C174 H197 0.929 . S
C175 C174 1.386 . S
C175 C176 1.373 . S
C176 C175 1.373 . S
C176 C177 1.409 1_655 S
C176 H198 0.931 . S
C177 C172 1.356 . S
C177 C176 1.409 1_455 S
C177 H199 0.930 . S
C178 O188 1.270 . S
C178 O189 1.248 . S
C179 O190 1.267 . S
C179 O191 1.278 . S
O180 Pr160 2.562 . S
O180 C162 1.254 . S
O181 Pr160 2.490 . S
O181 C162 1.225 . S
O182 Pr160 2.695 . S
O182 Pr161 2.436 . S
O182 C169 1.270 . S
O183 Pr160 2.512 . S
O183 C169 1.248 . S
O184 Pr161 2.438 . S
O184 C170 1.267 . S
O185 Pr160 2.437 . S
O185 C170 1.278 . S
O186 Pr161 2.562 . S
O186 C171 1.254 . S
O187 Pr161 2.490 . S
O187 C171 1.225 . S
O188 Pr160 2.436 . S
O188 Pr161 2.695 . S
O188 C178 1.270 . S
O189 Pr161 2.512 . S
O189 C178 1.248 . S
O190 Pr160 2.438 . S
O190 C179 1.267 . S
O191 Pr161 2.437 . S
O191 C179 1.278 . S
H192 C164 0.929 . S
H193 C165 0.929 . S
H194 C167 0.931 . S
H195 C168 0.930 . S
H196 C173 0.929 . S
H197 C174 0.929 . S
H198 C176 0.931 . S
H199 C177 0.930 . S
Pr200 C202 2.880 . S
Pr200 O220 2.562 . S
Pr200 O221 2.490 . S
Pr200 O222 2.695 . S
Pr200 O223 2.512 . S
Pr200 O225 2.437 . S
Pr200 O228 2.436 . S
Pr200 O230 2.438 . S
Pr201 C211 2.880 . S
Pr201 O222 2.436 . S
Pr201 O224 2.438 . S
Pr201 O226 2.562 . S
Pr201 O227 2.490 . S
Pr201 O228 2.695 . S
Pr201 O229 2.512 . S
Pr201 O231 2.437 . S
C202 Pr200 2.880 . S
C202 C203 1.491 . S
C202 O220 1.254 . S
C202 O221 1.225 . S
C203 C202 1.491 . S
C203 C204 1.392 . S
C203 C208 1.356 . S
C204 C203 1.392 . S
C204 C205 1.368 . S
C204 H232 0.929 . S
C205 C204 1.368 . S
C205 C206 1.386 . S
C205 H233 0.929 . S
C206 C205 1.386 . S
C206 C207 1.373 . S
C207 C206 1.373 . S
C207 C208 1.409 . S
C207 H234 0.931 . S
C208 C203 1.356 . S
C208 C207 1.409 . S
C208 H235 0.930 . S
C209 O222 1.270 . S
C209 O223 1.248 . S
C210 O224 1.267 . S
C210 O225 1.278 . S
C211 Pr201 2.880 . S
C211 C212 1.491 . S
C211 O226 1.254 . S
C211 O227 1.225 . S
C212 C211 1.491 . S
C212 C213 1.392 . S
C212 C217 1.356 . S
C213 C212 1.392 . S
C213 C214 1.368 1_545 S
C213 H236 0.929 . S
C214 C213 1.368 1_565 S
C214 C215 1.386 . S
C214 H237 0.929 . S
C215 C214 1.386 . S
C215 C216 1.373 . S
C216 C215 1.373 . S
C216 C217 1.409 1_565 S
C216 H238 0.931 . S
C217 C212 1.356 . S
C217 C216 1.409 1_545 S
C217 H239 0.930 . S
C218 O228 1.270 . S
C218 O229 1.248 . S
C219 O230 1.267 . S
C219 O231 1.278 . S
O220 Pr200 2.562 . S
O220 C202 1.254 . S
O221 Pr200 2.490 . S
O221 C202 1.225 . S
O222 Pr200 2.695 . S
O222 Pr201 2.436 . S
O222 C209 1.270 . S
O223 Pr200 2.512 . S
O223 C209 1.248 . S
O224 Pr201 2.438 . S
O224 C210 1.267 . S
O225 Pr200 2.437 . S
O225 C210 1.278 . S
O226 Pr201 2.562 . S
O226 C211 1.254 . S
O227 Pr201 2.490 . S
O227 C211 1.225 . S
O228 Pr200 2.436 . S
O228 Pr201 2.695 . S
O228 C218 1.270 . S
O229 Pr201 2.512 . S
O229 C218 1.248 . S
O230 Pr200 2.438 . S
O230 C219 1.267 . S
O231 Pr201 2.437 . S
O231 C219 1.278 . S
H232 C204 0.929 . S
H233 C205 0.929 . S
H234 C207 0.931 . S
H235 C208 0.930 . S
H236 C213 0.929 . S
H237 C214 0.929 . S
H238 C216 0.931 . S
H239 C217 0.930 . S
Pr240 C242 2.880 . S
Pr240 O260 2.562 . S
Pr240 O261 2.490 . S
Pr240 O262 2.695 . S
Pr240 O263 2.512 . S
Pr240 O265 2.437 . S
Pr240 O268 2.436 . S
Pr240 O270 2.438 . S
Pr241 C251 2.880 . S
Pr241 O262 2.436 . S
Pr241 O264 2.438 . S
Pr241 O266 2.562 . S
Pr241 O267 2.490 . S
Pr241 O268 2.695 . S
Pr241 O269 2.512 . S
Pr241 O271 2.437 . S
C242 Pr240 2.880 . S
C242 C243 1.491 . S
C242 O260 1.254 . S
C242 O261 1.225 . S
C243 C242 1.491 . S
C243 C244 1.392 . S
C243 C248 1.356 . S
C244 C243 1.392 . S
C244 C245 1.368 . S
C244 H272 0.929 . S
C245 C244 1.368 . S
C245 C246 1.386 . S
C245 H273 0.929 . S
C246 C245 1.386 . S
C246 C247 1.373 . S
C247 C246 1.373 . S
C247 C248 1.409 . S
C247 H274 0.931 . S
C248 C243 1.356 . S
C248 C247 1.409 . S
C248 H275 0.930 . S
C249 O262 1.270 . S
C249 O263 1.248 . S
C250 O264 1.267 . S
C250 O265 1.278 . S
C251 Pr241 2.880 . S
C251 C252 1.491 . S
C251 O266 1.254 . S
C251 O267 1.225 . S
C252 C251 1.491 . S
C252 C253 1.392 . S
C252 C257 1.356 . S
C253 C252 1.392 . S
C253 C254 1.368 . S
C253 H276 0.929 . S
C254 C253 1.368 . S
C254 C255 1.386 . S
C254 H277 0.929 . S
C255 C254 1.386 . S
C255 C256 1.373 . S
C256 C255 1.373 . S
C256 C257 1.409 . S
C256 H278 0.931 . S
C257 C252 1.356 . S
C257 C256 1.409 . S
C257 H279 0.930 . S
C258 O268 1.270 . S
C258 O269 1.248 . S
C259 O270 1.267 . S
C259 O271 1.278 . S
O260 Pr240 2.562 . S
O260 C242 1.254 . S
O261 Pr240 2.490 . S
O261 C242 1.225 . S
O262 Pr240 2.695 . S
O262 Pr241 2.436 . S
O262 C249 1.270 . S
O263 Pr240 2.512 . S
O263 C249 1.248 . S
O264 Pr241 2.438 . S
O264 C250 1.267 . S
O265 Pr240 2.437 . S
O265 C250 1.278 . S
O266 Pr241 2.562 . S
O266 C251 1.254 . S
O267 Pr241 2.490 . S
O267 C251 1.225 . S
O268 Pr240 2.436 . S
O268 Pr241 2.695 . S
O268 C258 1.270 . S
O269 Pr241 2.512 . S
O269 C258 1.248 . S
O270 Pr240 2.438 . S
O270 C259 1.267 . S
O271 Pr241 2.437 . S
O271 C259 1.278 . S
H272 C244 0.929 . S
H273 C245 0.929 . S
H274 C247 0.931 . S
H275 C248 0.930 . S
H276 C253 0.929 . S
H277 C254 0.929 . S
H278 C256 0.931 . S
H279 C257 0.930 . S
Pr280 C282 2.880 . S
Pr280 O300 2.562 . S
Pr280 O301 2.490 . S
Pr280 O302 2.695 . S
Pr280 O303 2.512 . S
Pr280 O305 2.437 . S
Pr280 O308 2.436 . S
Pr280 O310 2.438 . S
Pr281 C291 2.880 . S
Pr281 O302 2.436 . S
Pr281 O304 2.438 . S
Pr281 O306 2.562 . S
Pr281 O307 2.490 . S
Pr281 O308 2.695 . S
Pr281 O309 2.512 . S
Pr281 O311 2.437 . S
C282 Pr280 2.880 . S
C282 C283 1.491 . S
C282 O300 1.254 . S
C282 O301 1.225 . S
C283 C282 1.491 . S
C283 C284 1.392 . S
C283 C288 1.356 . S
C284 C283 1.392 . S
C284 C285 1.368 . S
C284 H312 0.929 . S
C285 C284 1.368 . S
C285 C286 1.386 . S
C285 H313 0.929 . S
C286 C285 1.386 . S
C286 C287 1.373 . S
C287 C286 1.373 . S
C287 C288 1.409 . S
C287 H314 0.931 . S
C288 C283 1.356 . S
C288 C287 1.409 . S
C288 H315 0.930 . S
C289 O302 1.270 . S
C289 O303 1.248 . S
C290 O304 1.267 . S
C290 O305 1.278 . S
C291 Pr281 2.880 . S
C291 C292 1.491 . S
C291 O306 1.254 . S
C291 O307 1.225 . S
C292 C291 1.491 . S
C292 C293 1.392 . S
C292 C297 1.356 . S
C293 C292 1.392 . S
C293 C294 1.368 1_655 S
C293 H316 0.929 . S
C294 C293 1.368 1_455 S
C294 C295 1.386 . S
C294 H317 0.929 . S
C295 C294 1.386 . S
C295 C296 1.373 . S
C296 C295 1.373 . S
C296 C297 1.409 1_455 S
C296 H318 0.931 . S
C297 C292 1.356 . S
C297 C296 1.409 1_655 S
C297 H319 0.930 . S
C298 O308 1.270 . S
C298 O309 1.248 . S
C299 O310 1.267 . S
C299 O311 1.278 . S
O300 Pr280 2.562 . S
O300 C282 1.254 . S
O301 Pr280 2.490 . S
O301 C282 1.225 . S
O302 Pr280 2.695 . S
O302 Pr281 2.436 . S
O302 C289 1.270 . S
O303 Pr280 2.512 . S
O303 C289 1.248 . S
O304 Pr281 2.438 . S
O304 C290 1.267 . S
O305 Pr280 2.437 . S
O305 C290 1.278 . S
O306 Pr281 2.562 . S
O306 C291 1.254 . S
O307 Pr281 2.490 . S
O307 C291 1.225 . S
O308 Pr280 2.436 . S
O308 Pr281 2.695 . S
O308 C298 1.270 . S
O309 Pr281 2.512 . S
O309 C298 1.248 . S
O310 Pr280 2.438 . S
O310 C299 1.267 . S
O311 Pr281 2.437 . S
O311 C299 1.278 . S
H312 C284 0.929 . S
H313 C285 0.929 . S
H314 C287 0.931 . S
H315 C288 0.930 . S
H316 C293 0.929 . S
H317 C294 0.929 . S
H318 C296 0.931 . S
H319 C297 0.930 . S
Pr320 C322 2.880 . S
Pr320 O340 2.562 . S
Pr320 O341 2.490 . S
Pr320 O342 2.695 . S
Pr320 O343 2.512 . S
Pr320 O345 2.437 . S
Pr320 O348 2.436 . S
Pr320 O350 2.438 . S
Pr321 C331 2.880 . S
Pr321 O342 2.436 . S
Pr321 O344 2.438 . S
Pr321 O346 2.562 . S
Pr321 O347 2.490 . S
Pr321 O348 2.695 . S
Pr321 O349 2.512 . S
Pr321 O351 2.437 . S
C322 Pr320 2.880 . S
C322 C323 1.491 . S
C322 O340 1.254 . S
C322 O341 1.225 . S
C323 C322 1.491 . S
C323 C324 1.392 . S
C323 C328 1.356 . S
C324 C323 1.392 . S
C324 C325 1.368 . S
C324 H352 0.929 . S
C325 C324 1.368 . S
C325 C326 1.386 . S
C325 H353 0.929 . S
C326 C325 1.386 . S
C326 C327 1.373 . S
C327 C326 1.373 . S
C327 C328 1.409 . S
C327 H354 0.931 . S
C328 C323 1.356 . S
C328 C327 1.409 . S
C328 H355 0.930 . S
C329 O342 1.270 . S
C329 O343 1.248 . S
C330 O344 1.267 . S
C330 O345 1.278 . S
C331 Pr321 2.880 . S
C331 C332 1.491 . S
C331 O346 1.254 . S
C331 O347 1.225 . S
C332 C331 1.491 . S
C332 C333 1.392 . S
C332 C337 1.356 . S
C333 C332 1.392 . S
C333 C334 1.368 1_565 S
C333 H356 0.929 . S
C334 C333 1.368 1_545 S
C334 C335 1.386 . S
C334 H357 0.929 . S
C335 C334 1.386 . S
C335 C336 1.373 . S
C336 C335 1.373 . S
C336 C337 1.409 1_545 S
C336 H358 0.931 . S
C337 C332 1.356 . S
C337 C336 1.409 1_565 S
C337 H359 0.930 . S
C338 O348 1.270 . S
C338 O349 1.248 . S
C339 O350 1.267 . S
C339 O351 1.278 . S
O340 Pr320 2.562 . S
O340 C322 1.254 . S
O341 Pr320 2.490 . S
O341 C322 1.225 . S
O342 Pr320 2.695 . S
O342 Pr321 2.436 . S
O342 C329 1.270 . S
O343 Pr320 2.512 . S
O343 C329 1.248 . S
O344 Pr321 2.438 . S
O344 C330 1.267 . S
O345 Pr320 2.437 . S
O345 C330 1.278 . S
O346 Pr321 2.562 . S
O346 C331 1.254 . S
O347 Pr321 2.490 . S
O347 C331 1.225 . S
O348 Pr320 2.436 . S
O348 Pr321 2.695 . S
O348 C338 1.270 . S
O349 Pr321 2.512 . S
O349 C338 1.248 . S
O350 Pr320 2.438 . S
O350 C339 1.267 . S
O351 Pr321 2.437 . S
O351 C339 1.278 . S
H352 C324 0.929 . S
H353 C325 0.929 . S
H354 C327 0.931 . S
H355 C328 0.930 . S
H356 C333 0.929 . S
H357 C334 0.929 . S
H358 C336 0.931 . S
H359 C337 0.930 . S
Pr360 C362 2.880 . S
Pr360 O380 2.562 . S
Pr360 O381 2.490 . S
Pr360 O382 2.695 . S
Pr360 O383 2.512 . S
Pr360 O385 2.437 . S
Pr360 O388 2.436 . S
Pr360 O390 2.438 . S
Pr361 C371 2.880 . S
Pr361 O382 2.436 . S
Pr361 O384 2.438 . S
Pr361 O386 2.562 . S
Pr361 O387 2.490 . S
Pr361 O388 2.695 . S
Pr361 O389 2.512 . S
Pr361 O391 2.437 . S
C362 Pr360 2.880 . S
C362 C363 1.491 . S
C362 O380 1.254 . S
C362 O381 1.225 . S
C363 C362 1.491 . S
C363 C364 1.392 . S
C363 C368 1.356 . S
C364 C363 1.392 . S
C364 C365 1.368 . S
C364 H392 0.929 . S
C365 C364 1.368 . S
C365 C366 1.386 . S
C365 H393 0.929 . S
C366 C365 1.386 . S
C366 C367 1.373 . S
C367 C366 1.373 . S
C367 C368 1.409 . S
C367 H394 0.931 . S
C368 C363 1.356 . S
C368 C367 1.409 . S
C368 H395 0.930 . S
C369 O382 1.270 . S
C369 O383 1.248 . S
C370 O384 1.267 . S
C370 O385 1.278 . S
C371 Pr361 2.880 . S
C371 C372 1.491 . S
C371 O386 1.254 . S
C371 O387 1.225 . S
C372 C371 1.491 . S
C372 C373 1.392 . S
C372 C377 1.356 . S
C373 C372 1.392 . S
C373 C374 1.368 . S
C373 H396 0.929 . S
C374 C373 1.368 . S
C374 C375 1.386 . S
C374 H397 0.929 . S
C375 C374 1.386 . S
C375 C376 1.373 . S
C376 C375 1.373 . S
C376 C377 1.409 . S
C376 H398 0.931 . S
C377 C372 1.356 . S
C377 C376 1.409 . S
C377 H399 0.930 . S
C378 O388 1.270 . S
C378 O389 1.248 . S
C379 O390 1.267 . S
C379 O391 1.278 . S
O380 Pr360 2.562 . S
O380 C362 1.254 . S
O381 Pr360 2.490 . S
O381 C362 1.225 . S
O382 Pr360 2.695 . S
O382 Pr361 2.436 . S
O382 C369 1.270 . S
O383 Pr360 2.512 . S
O383 C369 1.248 . S
O384 Pr361 2.438 . S
O384 C370 1.267 . S
O385 Pr360 2.437 . S
O385 C370 1.278 . S
O386 Pr361 2.562 . S
O386 C371 1.254 . S
O387 Pr361 2.490 . S
O387 C371 1.225 . S
O388 Pr360 2.436 . S
O388 Pr361 2.695 . S
O388 C378 1.270 . S
O389 Pr361 2.512 . S
O389 C378 1.248 . S
O390 Pr360 2.438 . S
O390 C379 1.267 . S
O391 Pr361 2.437 . S
O391 C379 1.278 . S
H392 C364 0.929 . S
H393 C365 0.929 . S
H394 C367 0.931 . S
H395 C368 0.930 . S
H396 C373 0.929 . S
H397 C374 0.929 . S
H398 C376 0.931 . S
H399 C377 0.930 . S
Pr400 C402 2.880 . S
Pr400 O420 2.562 . S
Pr400 O421 2.490 . S
Pr400 O422 2.695 . S
Pr400 O423 2.512 . S
Pr400 O425 2.437 . S
Pr400 O428 2.436 . S
Pr400 O430 2.438 . S
Pr401 C411 2.880 . S
Pr401 O422 2.436 . S
Pr401 O424 2.438 . S
Pr401 O426 2.562 . S
Pr401 O427 2.490 . S
Pr401 O428 2.695 . S
Pr401 O429 2.512 . S
Pr401 O431 2.437 . S
C402 Pr400 2.880 . S
C402 C403 1.491 . S
C402 O420 1.254 . S
C402 O421 1.225 . S
C403 C402 1.491 . S
C403 C404 1.392 . S
C403 C408 1.356 . S
C404 C403 1.392 . S
C404 C405 1.368 . S
C404 H432 0.929 . S
C405 C404 1.368 . S
C405 C406 1.386 . S
C405 H433 0.929 . S
C406 C405 1.386 . S
C406 C407 1.373 . S
C407 C406 1.373 . S
C407 C408 1.409 . S
C407 H434 0.931 . S
C408 C403 1.356 . S
C408 C407 1.409 . S
C408 H435 0.930 . S
C409 O422 1.270 . S
C409 O423 1.248 . S
C410 O424 1.267 . S
C410 O425 1.278 . S
C411 Pr401 2.880 . S
C411 C412 1.491 . S
C411 O426 1.254 . S
C411 O427 1.225 . S
C412 C411 1.491 . S
C412 C413 1.392 . S
C412 C417 1.356 . S
C413 C412 1.392 . S
C413 C414 1.368 1_455 S
C413 H436 0.929 . S
C414 C413 1.368 1_655 S
C414 C415 1.386 . S
C414 H437 0.929 . S
C415 C414 1.386 . S
C415 C416 1.373 . S
C416 C415 1.373 . S
C416 C417 1.409 1_655 S
C416 H438 0.931 . S
C417 C412 1.356 . S
C417 C416 1.409 1_455 S
C417 H439 0.930 . S
C418 O428 1.270 . S
C418 O429 1.248 . S
C419 O430 1.267 . S
C419 O431 1.278 . S
O420 Pr400 2.562 . S
O420 C402 1.254 . S
O421 Pr400 2.490 . S
O421 C402 1.225 . S
O422 Pr400 2.695 . S
O422 Pr401 2.436 . S
O422 C409 1.270 . S
O423 Pr400 2.512 . S
O423 C409 1.248 . S
O424 Pr401 2.438 . S
O424 C410 1.267 . S
O425 Pr400 2.437 . S
O425 C410 1.278 . S
O426 Pr401 2.562 . S
O426 C411 1.254 . S
O427 Pr401 2.490 . S
O427 C411 1.225 . S
O428 Pr400 2.436 . S
O428 Pr401 2.695 . S
O428 C418 1.270 . S
O429 Pr401 2.512 . S
O429 C418 1.248 . S
O430 Pr400 2.438 . S
O430 C419 1.267 . S
O431 Pr401 2.437 . S
O431 C419 1.278 . S
H432 C404 0.929 . S
H433 C405 0.929 . S
H434 C407 0.931 . S
H435 C408 0.930 . S
H436 C413 0.929 . S
H437 C414 0.929 . S
H438 C416 0.931 . S
H439 C417 0.930 . S
Pr440 C442 2.880 . S
Pr440 O460 2.562 . S
Pr440 O461 2.490 . S
Pr440 O462 2.695 . S
Pr440 O463 2.512 . S
Pr440 O465 2.437 . S
Pr440 O468 2.436 . S
Pr440 O470 2.438 . S
Pr441 C451 2.880 . S
Pr441 O462 2.436 . S
Pr441 O464 2.438 . S
Pr441 O466 2.562 . S
Pr441 O467 2.490 . S
Pr441 O468 2.695 . S
Pr441 O469 2.512 . S
Pr441 O471 2.437 . S
C442 Pr440 2.880 . S
C442 C443 1.491 . S
C442 O460 1.254 . S
C442 O461 1.225 . S
C443 C442 1.491 . S
C443 C444 1.392 . S
C443 C448 1.356 . S
C444 C443 1.392 . S
C444 C445 1.368 . S
C444 H472 0.929 . S
C445 C444 1.368 . S
C445 C446 1.386 . S
C445 H473 0.929 . S
C446 C445 1.386 . S
C446 C447 1.373 . S
C447 C446 1.373 . S
C447 C448 1.409 . S
C447 H474 0.931 . S
C448 C443 1.356 . S
C448 C447 1.409 . S
C448 H475 0.930 . S
C449 O462 1.270 . S
C449 O463 1.248 . S
C450 O464 1.267 . S
C450 O465 1.278 . S
C451 Pr441 2.880 . S
C451 C452 1.491 . S
C451 O466 1.254 . S
C451 O467 1.225 . S
C452 C451 1.491 . S
C452 C453 1.392 . S
C452 C457 1.356 . S
C453 C452 1.392 . S
C453 C454 1.368 1_545 S
C453 H476 0.929 . S
C454 C453 1.368 1_565 S
C454 C455 1.386 . S
C454 H477 0.929 . S
C455 C454 1.386 . S
C455 C456 1.373 . S
C456 C455 1.373 . S
C456 C457 1.409 1_565 S
C456 H478 0.931 . S
C457 C452 1.356 . S
C457 C456 1.409 1_545 S
C457 H479 0.930 . S
C458 O468 1.270 . S
C458 O469 1.248 . S
C459 O470 1.267 . S
C459 O471 1.278 . S
O460 Pr440 2.562 . S
O460 C442 1.254 . S
O461 Pr440 2.490 . S
O461 C442 1.225 . S
O462 Pr440 2.695 . S
O462 Pr441 2.436 . S
O462 C449 1.270 . S
O463 Pr440 2.512 . S
O463 C449 1.248 . S
O464 Pr441 2.438 . S
O464 C450 1.267 . S
O465 Pr440 2.437 . S
O465 C450 1.278 . S
O466 Pr441 2.562 . S
O466 C451 1.254 . S
O467 Pr441 2.490 . S
O467 C451 1.225 . S
O468 Pr440 2.436 . S
O468 Pr441 2.695 . S
O468 C458 1.270 . S
O469 Pr441 2.512 . S
O469 C458 1.248 . S
O470 Pr440 2.438 . S
O470 C459 1.267 . S
O471 Pr441 2.437 . S
O471 C459 1.278 . S
H472 C444 0.929 . S
H473 C445 0.929 . S
H474 C447 0.931 . S
H475 C448 0.930 . S
H476 C453 0.929 . S
H477 C454 0.929 . S
H478 C456 0.931 . S
H479 C457 0.930 . S
C480 C481 1.349 . S
C480 C482 1.327 . S
C480 H505 0.950 . S
C481 C480 1.349 . S
C481 C497 1.349 . S
C482 C480 1.327 . S
C482 C501 1.429 . S
C482 H506 0.950 . S
C483 C500 1.574 1_565 S
C483 C502 1.368 . S
C483 H507 0.949 . S
H484 C488 0.949 . S
C485 C486 1.349 . S
C485 C487 1.327 . S
C485 H508 0.950 . S
C486 C485 1.349 . S
C486 C498 1.349 . S
C487 C485 1.327 . S
C487 C503 1.429 . S
C487 H509 0.950 . S
C488 H484 0.949 . S
C488 C496 1.574 1_545 S
C488 C504 1.368 . S
H489 C497 0.950 . S
H490 C495 0.950 . S
H491 C496 0.949 . S
H492 C498 0.950 . S
H493 C499 0.950 . S
H494 C500 0.949 . S
C495 H490 0.950 . S
C495 C497 1.327 . S
C495 C501 1.429 . S
C496 C488 1.574 1_565 S
C496 H491 0.949 . S
C496 C502 1.368 . S
C497 C481 1.349 . S
C497 H489 0.950 . S
C497 C495 1.327 . S
C498 C486 1.349 . S
C498 H492 0.950 . S
C498 C499 1.327 . S
C499 H493 0.950 . S
C499 C498 1.327 . S
C499 C503 1.429 . S
C500 C483 1.574 1_545 S
C500 H494 0.949 . S
C500 C504 1.368 . S
C501 C482 1.429 . S
C501 C495 1.429 . S
C501 C502 1.523 . S
C502 C483 1.368 . S
C502 C496 1.368 . S
C502 C501 1.523 . S
C503 C487 1.429 . S
C503 C499 1.429 . S
C503 C504 1.523 . S
C504 C488 1.368 . S
C504 C500 1.368 . S
C504 C503 1.523 . S
H505 C480 0.950 . S
H506 C482 0.950 . S
H507 C483 0.949 . S
H508 C485 0.950 . S
H509 C487 0.950 . S
C510 C511 1.349 . S
C510 C512 1.327 . S
C510 H535 0.950 . S
C511 C510 1.349 . S
C511 C527 1.349 . S
C512 C510 1.327 . S
C512 C531 1.429 . S
C512 H536 0.950 . S
C513 C530 1.574 . S
C513 C532 1.368 . S
C513 H537 0.949 . S
H514 C518 0.949 . S
C515 C516 1.349 . S
C515 C517 1.327 . S
C515 H538 0.950 . S
C516 C515 1.349 . S
C516 C528 1.349 . S
C517 C515 1.327 . S
C517 C533 1.429 . S
C517 H539 0.950 . S
C518 H514 0.949 . S
C518 C526 1.574 . S
C518 C534 1.368 . S
H519 C527 0.950 . S
H520 C525 0.950 . S
H521 C526 0.949 . S
H522 C528 0.950 . S
H523 C529 0.950 . S
H524 C530 0.949 . S
C525 H520 0.950 . S
C525 C527 1.327 . S
C525 C531 1.429 . S
C526 C518 1.574 . S
C526 H521 0.949 . S
C526 C532 1.368 . S
C527 C511 1.349 . S
C527 H519 0.950 . S
C527 C525 1.327 . S
C528 C516 1.349 . S
C528 H522 0.950 . S
C528 C529 1.327 . S
C529 H523 0.950 . S
C529 C528 1.327 . S
C529 C533 1.429 . S
C530 C513 1.574 . S
C530 H524 0.949 . S
C530 C534 1.368 . S
C531 C512 1.429 . S
C531 C525 1.429 . S
C531 C532 1.523 . S
C532 C513 1.368 . S
C532 C526 1.368 . S
C532 C531 1.523 . S
C533 C517 1.429 . S
C533 C529 1.429 . S
C533 C534 1.523 . S
C534 C518 1.368 . S
C534 C530 1.368 . S
C534 C533 1.523 . S
H535 C510 0.950 . S
H536 C512 0.950 . S
H537 C513 0.949 . S
H538 C515 0.950 . S
H539 C517 0.950 . S
C540 C541 1.349 . S
C540 C542 1.327 . S
C540 H565 0.950 . S
C541 C540 1.349 . S
C541 C557 1.349 . S
C542 C540 1.327 . S
C542 C561 1.429 . S
C542 H566 0.950 . S
C543 C560 1.574 1_655 S
C543 C562 1.368 . S
C543 H567 0.949 . S
H544 C548 0.947 . S
C545 C546 1.349 . S
C545 C547 1.327 . S
C545 H568 0.950 . S
C546 C545 1.349 . S
C546 C558 1.349 . S
C547 C545 1.327 . S
C547 C563 1.429 . S
C547 H569 0.950 . S
C548 H544 0.947 . S
C548 C556 1.559 1_455 S
C548 C564 1.386 . S
H549 C557 0.950 . S
H550 C555 0.950 . S
H551 C556 0.949 . S
H552 C558 0.950 . S
H553 C559 0.950 . S
H554 C560 0.949 . S
C555 H550 0.950 . S
C555 C557 1.327 . S
C555 C561 1.429 . S
C556 C548 1.559 1_655 S
C556 H551 0.949 . S
C556 C562 1.368 . S
C557 C541 1.349 . S
C557 H549 0.950 . S
C557 C555 1.327 . S
C558 C546 1.349 . S
C558 H552 0.950 . S
C558 C559 1.327 . S
C559 H553 0.950 . S
C559 C558 1.327 . S
C559 C563 1.429 . S
C560 C543 1.574 1_455 S
C560 H554 0.949 . S
C560 C564 1.368 . S
C561 C542 1.429 . S
C561 C555 1.429 . S
C561 C562 1.523 . S
C562 C543 1.368 . S
C562 C556 1.368 . S
C562 C561 1.523 . S
C563 C547 1.429 . S
C563 C559 1.429 . S
C563 C564 1.523 . S
C564 C548 1.386 . S
C564 C560 1.368 . S
C564 C563 1.523 . S
H565 C540 0.950 . S
H566 C542 0.950 . S
H567 C543 0.949 . S
H568 C545 0.950 . S
H569 C547 0.950 . S
C570 C571 1.349 . S
C570 C572 1.327 . S
C570 H595 0.950 . S
C571 C570 1.349 . S
C571 C587 1.349 . S
C572 C570 1.327 . S
C572 C591 1.429 . S
C572 H596 0.950 . S
C573 C590 1.568 1_565 S
C573 C592 1.368 . S
C573 H597 0.949 . S
H574 C578 0.949 . S
C575 C576 1.349 . S
C575 C577 1.327 . S
C575 H598 0.950 . S
C576 C575 1.349 . S
C576 C588 1.349 . S
C577 C575 1.327 . S
C577 C593 1.429 . S
C577 H599 0.950 . S
C578 H574 0.949 . S
C578 C586 1.574 1_545 S
C578 C594 1.368 . S
H579 C587 0.950 . S
H580 C585 0.950 . S
H581 C586 0.949 . S
H582 C588 0.950 . S
H583 C589 0.950 . S
H584 C590 0.953 . S
C585 H580 0.950 . S
C585 C587 1.327 . S
C585 C591 1.429 . S
C586 C578 1.574 1_565 S
C586 H581 0.949 . S
C586 C592 1.368 . S
C587 C571 1.349 . S
C587 H579 0.950 . S
C587 C585 1.327 . S
C588 C576 1.349 . S
C588 H582 0.950 . S
C588 C589 1.327 . S
C589 H583 0.950 . S
C589 C588 1.327 . S
C589 C593 1.429 . S
C590 C573 1.568 1_545 S
C590 H584 0.953 . S
C590 C594 1.371 . S
C591 C572 1.429 . S
C591 C585 1.429 . S
C591 C592 1.523 . S
C592 C573 1.368 . S
C592 C586 1.368 . S
C592 C591 1.523 . S
C593 C577 1.429 . S
C593 C589 1.429 . S
C593 C594 1.523 . S
C594 C578 1.368 . S
C594 C590 1.371 . S
C594 C593 1.523 . S
H595 C570 0.950 . S
H596 C572 0.950 . S
H597 C573 0.949 . S
H598 C575 0.950 . S
H599 C577 0.950 . S
C600 C601 1.349 . S
C600 C602 1.327 . S
C600 H625 0.950 . S
C601 C600 1.349 . S
C601 C617 1.349 . S
C602 C600 1.327 . S
C602 C621 1.429 . S
C602 H626 0.950 . S
C603 C620 1.574 . S
C603 C622 1.368 . S
C603 H627 0.949 . S
H604 C608 0.949 . S
C605 C606 1.349 . S
C605 C607 1.327 . S
C605 H628 0.950 . S
C606 C605 1.349 . S
C606 C618 1.349 . S
C607 C605 1.327 . S
C607 C623 1.429 . S
C607 H629 0.950 . S
C608 H604 0.949 . S
C608 C616 1.574 . S
C608 C624 1.368 . S
H609 C617 0.950 . S
H610 C615 0.950 . S
H611 C616 0.949 . S
H612 C618 0.950 . S
H613 C619 0.950 . S
H614 C620 0.949 . S
C615 H610 0.950 . S
C615 C617 1.327 . S
C615 C621 1.429 . S
C616 C608 1.574 . S
C616 H611 0.949 . S
C616 C622 1.368 . S
C617 C601 1.349 . S
C617 H609 0.950 . S
C617 C615 1.327 . S
C618 C606 1.349 . S
C618 H612 0.950 . S
C618 C619 1.327 . S
C619 H613 0.950 . S
C619 C618 1.327 . S
C619 C623 1.429 . S
C620 C603 1.574 . S
C620 H614 0.949 . S
C620 C624 1.368 . S
C621 C602 1.429 . S
C621 C615 1.429 . S
C621 C622 1.523 . S
C622 C603 1.368 . S
C622 C616 1.368 . S
C622 C621 1.523 . S
C623 C607 1.429 . S
C623 C619 1.429 . S
C623 C624 1.523 . S
C624 C608 1.368 . S
C624 C620 1.368 . S
C624 C623 1.523 . S
H625 C600 0.950 . S
H626 C602 0.950 . S
H627 C603 0.949 . S
H628 C605 0.950 . S
H629 C607 0.950 . S
C630 C631 1.349 . S
C630 C632 1.327 . S
C630 H655 0.950 . S
C631 C630 1.349 . S
C631 C647 1.349 . S
C632 C630 1.327 . S
C632 C651 1.429 . S
C632 H656 0.950 . S
C633 C650 1.574 1_655 S
C633 C652 1.368 . S
C633 H657 0.949 . S
H634 C638 0.949 . S
C635 C636 1.349 . S
C635 C637 1.327 . S
C635 H658 0.950 . S
C636 C635 1.349 . S
C636 C648 1.349 . S
C637 C635 1.327 . S
C637 C653 1.429 . S
C637 H659 0.950 . S
C638 H634 0.949 . S
C638 C646 1.574 1_455 S
C638 C654 1.368 . S
H639 C647 0.950 . S
H640 C645 0.950 . S
H641 C646 0.949 . S
H642 C648 0.950 . S
H643 C649 0.950 . S
H644 C650 0.949 . S
C645 H640 0.950 . S
C645 C647 1.327 . S
C645 C651 1.429 . S
C646 C638 1.574 1_655 S
C646 H641 0.949 . S
C646 C652 1.368 . S
C647 C631 1.349 . S
C647 H639 0.950 . S
C647 C645 1.327 . S
C648 C636 1.349 . S
C648 H642 0.950 . S
C648 C649 1.327 . S
C649 H643 0.950 . S
C649 C648 1.327 . S
C649 C653 1.429 . S
C650 C633 1.574 1_455 S
C650 H644 0.949 . S
C650 C654 1.368 . S
C651 C632 1.429 . S
C651 C645 1.429 . S
C651 C652 1.523 . S
C652 C633 1.368 . S
C652 C646 1.368 . S
C652 C651 1.523 . S
C653 C637 1.429 . S
C653 C649 1.429 . S
C653 C654 1.523 . S
C654 C638 1.368 . S
C654 C650 1.368 . S
C654 C653 1.523 . S
H655 C630 0.950 . S
H656 C632 0.950 . S
H657 C633 0.949 . S
H658 C635 0.950 . S
H659 C637 0.950 . S
C660 C661 1.349 . S
C660 C662 1.327 . S
C660 H685 0.950 . S
C661 C660 1.349 . S
C661 C677 1.349 . S
C662 C660 1.327 . S
C662 C681 1.429 . S
C662 H686 0.950 . S
C663 C680 1.574 1_455 S
C663 C682 1.368 . S
C663 H687 0.949 . S
H664 C668 0.949 . S
C665 C666 1.349 . S
C665 C667 1.327 . S
C665 H688 0.950 . S
C666 C665 1.349 . S
C666 C678 1.349 . S
C667 C665 1.327 . S
C667 C683 1.429 . S
C667 H689 0.950 . S
C668 H664 0.949 . S
C668 C676 1.574 1_655 S
C668 C684 1.368 . S
H669 C677 0.950 . S
H670 C675 0.950 . S
H671 C676 0.949 . S
H672 C678 0.950 . S
H673 C679 0.950 . S
H674 C680 0.949 . S
C675 H670 0.950 . S
C675 C677 1.327 . S
C675 C681 1.429 . S
C676 C668 1.574 1_455 S
C676 H671 0.949 . S
C676 C682 1.368 . S
C677 C661 1.349 . S
C677 H669 0.950 . S
C677 C675 1.327 . S
C678 C666 1.349 . S
C678 H672 0.950 . S
C678 C679 1.327 . S
C679 H673 0.950 . S
C679 C678 1.327 . S
C679 C683 1.429 . S
C680 C663 1.574 1_655 S
C680 H674 0.949 . S
C680 C684 1.368 . S
C681 C662 1.429 . S
C681 C675 1.429 . S
C681 C682 1.523 . S
C682 C663 1.368 . S
C682 C676 1.368 . S
C682 C681 1.523 . S
C683 C667 1.429 . S
C683 C679 1.429 . S
C683 C684 1.523 . S
C684 C668 1.368 . S
C684 C680 1.368 . S
C684 C683 1.523 . S
H685 C660 0.950 . S
H686 C662 0.950 . S
H687 C663 0.949 . S
H688 C665 0.950 . S
H689 C667 0.950 . S
C690 C691 1.349 . S
C690 C692 1.327 . S
C690 H715 0.950 . S
C691 C690 1.349 . S
C691 C707 1.349 . S
C692 C690 1.327 . S
C692 C711 1.429 . S
C692 H716 0.950 . S
C693 C710 1.574 1_565 S
C693 C712 1.368 . S
C693 H717 0.949 . S
H694 C698 0.949 . S
C695 C696 1.349 . S
C695 C697 1.327 . S
C695 H718 0.950 . S
C696 C695 1.349 . S
C696 C708 1.349 . S
C697 C695 1.327 . S
C697 C713 1.429 . S
C697 H719 0.950 . S
C698 H694 0.949 . S
C698 C706 1.574 1_545 S
C698 C714 1.368 . S
H699 C707 0.950 . S
H700 C705 0.950 . S
H701 C706 0.949 . S
H702 C708 0.950 . S
H703 C709 0.950 . S
H704 C710 0.949 . S
C705 H700 0.950 . S
C705 C707 1.327 . S
C705 C711 1.429 . S
C706 C698 1.574 1_565 S
C706 H701 0.949 . S
C706 C712 1.368 . S
C707 C691 1.349 . S
C707 H699 0.950 . S
C707 C705 1.327 . S
C708 C696 1.349 . S
C708 H702 0.950 . S
C708 C709 1.327 . S
C709 H703 0.950 . S
C709 C708 1.327 . S
C709 C713 1.429 . S
C710 C693 1.574 1_545 S
C710 H704 0.949 . S
C710 C714 1.368 . S
C711 C692 1.429 . S
C711 C705 1.429 . S
C711 C712 1.523 . S
C712 C693 1.368 . S
C712 C706 1.368 . S
C712 C711 1.523 . S
C713 C697 1.429 . S
C713 C709 1.429 . S
C713 C714 1.523 . S
C714 C698 1.368 . S
C714 C710 1.368 . S
C714 C713 1.523 . S
H715 C690 0.950 . S
H716 C692 0.950 . S
H717 C693 0.949 . S
H718 C695 0.950 . S
H719 C697 0.950 . S
C720 C721 1.349 . S
C720 C722 1.327 . S
C720 H745 0.950 . S
C721 C720 1.349 . S
C721 C737 1.349 . S
C722 C720 1.327 . S
C722 C741 1.429 . S
C722 H746 0.950 . S
C723 C740 1.574 . S
C723 C742 1.368 . S
C723 H747 0.949 . S
H724 C728 0.949 . S
C725 C726 1.349 . S
C725 C727 1.327 . S
C725 H748 0.950 . S
C726 C725 1.349 . S
C726 C738 1.349 . S
C727 C725 1.327 . S
C727 C743 1.429 . S
C727 H749 0.950 . S
C728 H724 0.949 . S
C728 C736 1.574 . S
C728 C744 1.368 . S
H729 C737 0.950 . S
H730 C735 0.950 . S
H731 C736 0.949 . S
H732 C738 0.950 . S
H733 C739 0.950 . S
H734 C740 0.949 . S
C735 H730 0.950 . S
C735 C737 1.327 . S
C735 C741 1.429 . S
C736 C728 1.574 . S
C736 H731 0.949 . S
C736 C742 1.368 . S
C737 C721 1.349 . S
C737 H729 0.950 . S
C737 C735 1.327 . S
C738 C726 1.349 . S
C738 H732 0.950 . S
C738 C739 1.327 . S
C739 H733 0.950 . S
C739 C738 1.327 . S
C739 C743 1.429 . S
C740 C723 1.574 . S
C740 H734 0.949 . S
C740 C744 1.368 . S
C741 C722 1.429 . S
C741 C735 1.429 . S
C741 C742 1.523 . S
C742 C723 1.368 . S
C742 C736 1.368 . S
C742 C741 1.523 . S
C743 C727 1.429 . S
C743 C739 1.429 . S
C743 C744 1.523 . S
C744 C728 1.368 . S
C744 C740 1.368 . S
C744 C743 1.523 . S
H745 C720 0.950 . S
H746 C722 0.950 . S
H747 C723 0.949 . S
H748 C725 0.950 . S
H749 C727 0.950 . S
C750 C751 1.349 . S
C750 C752 1.327 . S
C750 H775 0.950 . S
C751 C750 1.349 . S
C751 C767 1.349 . S
C752 C750 1.327 . S
C752 C771 1.429 . S
C752 H776 0.950 . S
C753 C770 1.574 1_455 S
C753 C772 1.368 . S
C753 H777 0.949 . S
H754 C758 0.923 1_655 S
C755 C756 1.349 . S
C755 C757 1.327 . S
C755 H778 0.950 . S
C756 C755 1.349 . S
C756 C768 1.349 . S
C757 C755 1.327 . S
C757 C773 1.429 . S
C757 H779 0.950 . S
C758 H754 0.923 1_455 S
C758 C766 1.618 . S
C758 C774 1.355 1_455 S
H759 C767 0.950 . S
H760 C765 0.950 . S
H761 C766 0.949 . S
H762 C768 0.950 . S
H763 C769 0.950 . S
H764 C770 0.949 . S
C765 H760 0.950 . S
C765 C767 1.327 . S
C765 C771 1.429 . S
C766 C758 1.618 . S
C766 H761 0.949 . S
C766 C772 1.368 . S
C767 C751 1.349 . S
C767 H759 0.950 . S
C767 C765 1.327 . S
C768 C756 1.349 . S
C768 H762 0.950 . S
C768 C769 1.327 . S
C769 H763 0.950 . S
C769 C768 1.327 . S
C769 C773 1.429 . S
C770 C753 1.574 1_655 S
C770 H764 0.949 . S
C770 C774 1.368 . S
C771 C752 1.429 . S
C771 C765 1.429 . S
C771 C772 1.523 . S
C772 C753 1.368 . S
C772 C766 1.368 . S
C772 C771 1.523 . S
C773 C757 1.429 . S
C773 C769 1.429 . S
C773 C774 1.523 . S
C774 C758 1.355 1_655 S
C774 C770 1.368 . S
C774 C773 1.523 . S
H775 C750 0.950 . S
H776 C752 0.950 . S
H777 C753 0.949 . S
H778 C755 0.950 . S
H779 C757 0.950 . S
C780 C781 1.349 . S
C780 C782 1.327 . S
C780 H805 0.950 . S
C781 C780 1.349 . S
C781 C797 1.349 . S
C782 C780 1.327 . S
C782 C801 1.429 . S
C782 H806 0.950 . S
C783 C800 1.574 1_545 S
C783 C802 1.368 . S
C783 H807 0.949 . S
H784 C788 0.949 . S
C785 C786 1.349 . S
C785 C787 1.327 . S
C785 H808 0.950 . S
C786 C785 1.349 . S
C786 C798 1.349 . S
C787 C785 1.327 . S
C787 C803 1.429 . S
C787 H809 0.950 . S
C788 H784 0.949 . S
C788 C796 1.574 1_565 S
C788 C804 1.368 . S
H789 C797 0.950 . S
H790 C795 0.950 . S
H791 C796 0.949 . S
H792 C798 0.950 . S
H793 C799 0.950 . S
H794 C800 0.949 . S
C795 H790 0.950 . S
C795 C797 1.327 . S
C795 C801 1.429 . S
C796 C788 1.574 1_545 S
C796 H791 0.949 . S
C796 C802 1.368 . S
C797 C781 1.349 . S
C797 H789 0.950 . S
C797 C795 1.327 . S
C798 C786 1.349 . S
C798 H792 0.950 . S
C798 C799 1.327 . S
C799 H793 0.950 . S
C799 C798 1.327 . S
C799 C803 1.429 . S
C800 C783 1.574 1_565 S
C800 H794 0.949 . S
C800 C804 1.368 . S
C801 C782 1.429 . S
C801 C795 1.429 . S
C801 C802 1.523 . S
C802 C783 1.368 . S
C802 C796 1.368 . S
C802 C801 1.523 . S
C803 C787 1.429 . S
C803 C799 1.429 . S
C803 C804 1.523 . S
C804 C788 1.368 . S
C804 C800 1.368 . S
C804 C803 1.523 . S
H805 C780 0.950 . S
H806 C782 0.950 . S
H807 C783 0.949 . S
H808 C785 0.950 . S
H809 C787 0.950 . S
C810 C811 1.349 . S
C810 C812 1.327 . S
C810 H835 0.950 . S
C811 C810 1.349 . S
C811 C827 1.349 . S
C812 C810 1.327 . S
C812 C831 1.429 . S
C812 H836 0.950 . S
C813 C830 1.574 . S
C813 C832 1.368 . S
C813 H837 0.949 . S
H814 C818 0.949 . S
C815 C816 1.349 . S
C815 C817 1.327 . S
C815 H838 0.950 . S
C816 C815 1.349 . S
C816 C828 1.349 . S
C817 C815 1.327 . S
C817 C833 1.429 . S
C817 H839 0.950 . S
C818 H814 0.949 . S
C818 C826 1.574 . S
C818 C834 1.368 . S
H819 C827 0.950 . S
H820 C825 0.950 . S
H821 C826 0.949 . S
H822 C828 0.950 . S
H823 C829 0.950 . S
H824 C830 0.949 . S
C825 H820 0.950 . S
C825 C827 1.327 . S
C825 C831 1.429 . S
C826 C818 1.574 . S
C826 H821 0.949 . S
C826 C832 1.368 . S
C827 C811 1.349 . S
C827 H819 0.950 . S
C827 C825 1.327 . S
C828 C816 1.349 . S
C828 H822 0.950 . S
C828 C829 1.327 . S
C829 H823 0.950 . S
C829 C828 1.327 . S
C829 C833 1.429 . S
C830 C813 1.574 . S
C830 H824 0.949 . S
C830 C834 1.368 . S
C831 C812 1.429 . S
C831 C825 1.429 . S
C831 C832 1.523 . S
C832 C813 1.368 . S
C832 C826 1.368 . S
C832 C831 1.523 . S
C833 C817 1.429 . S
C833 C829 1.429 . S
C833 C834 1.523 . S
C834 C818 1.368 . S
C834 C830 1.368 . S
C834 C833 1.523 . S
H835 C810 0.950 . S
H836 C812 0.950 . S
H837 C813 0.949 . S
H838 C815 0.950 . S
H839 C817 0.950 . S
C840 C841 1.349 . S
C840 C842 1.327 . S
C840 H865 0.950 . S
C841 C840 1.349 . S
C841 C857 1.349 . S
C842 C840 1.327 . S
C842 C861 1.429 . S
C842 H866 0.950 . S
C843 C860 1.574 . S
C843 C862 1.368 . S
C843 H867 0.949 . S
H844 C848 0.949 . S
C845 C846 1.349 . S
C845 C847 1.327 . S
C845 H868 0.950 . S
C846 C845 1.349 . S
C846 C858 1.349 . S
C847 C845 1.327 . S
C847 C863 1.429 . S
C847 H869 0.950 . S
C848 H844 0.949 . S
C848 C856 1.574 . S
C848 C864 1.368 . S
H849 C857 0.950 . S
H850 C855 0.950 . S
H851 C856 0.949 . S
H852 C858 0.950 . S
H853 C859 0.950 . S
H854 C860 0.949 . S
C855 H850 0.950 . S
C855 C857 1.327 . S
C855 C861 1.429 . S
C856 C848 1.574 . S
C856 H851 0.949 . S
C856 C862 1.368 . S
C857 C841 1.349 . S
C857 H849 0.950 . S
C857 C855 1.327 . S
C858 C846 1.349 . S
C858 H852 0.950 . S
C858 C859 1.327 . S
C859 H853 0.950 . S
C859 C858 1.327 . S
C859 C863 1.429 . S
C860 C843 1.574 . S
C860 H854 0.949 . S
C860 C864 1.368 . S
C861 C842 1.429 . S
C861 C855 1.429 . S
C861 C862 1.523 . S
C862 C843 1.368 . S
C862 C856 1.368 . S
C862 C861 1.523 . S
C863 C847 1.429 . S
C863 C859 1.429 . S
C863 C864 1.523 . S
C864 C848 1.368 . S
C864 C860 1.368 . S
C864 C863 1.523 . S
H865 C840 0.950 . S
H866 C842 0.950 . S
H867 C843 0.949 . S
H868 C845 0.950 . S
H869 C847 0.950 . S
C870 C871 1.349 . S
C870 C872 1.327 . S
C870 H895 0.950 . S
C871 C870 1.349 . S
C871 C887 1.349 . S
C872 C870 1.327 . S
C872 C891 1.429 . S
C872 H896 0.950 . S
C873 C890 1.574 . S
C873 C892 1.368 . S
C873 H897 0.949 . S
H874 C878 0.949 . S
C875 C876 1.349 . S
C875 C877 1.327 . S
C875 H898 0.950 . S
C876 C875 1.349 . S
C876 C888 1.349 . S
C877 C875 1.327 . S
C877 C893 1.429 . S
C877 H899 0.950 . S
C878 H874 0.949 . S
C878 C886 1.574 . S
C878 C894 1.368 . S
H879 C887 0.950 . S
H880 C885 0.950 . S
H881 C886 0.949 . S
H882 C888 0.950 . S
H883 C889 0.950 . S
H884 C890 0.949 . S
C885 H880 0.950 . S
C885 C887 1.327 . S
C885 C891 1.429 . S
C886 C878 1.574 . S
C886 H881 0.949 . S
C886 C892 1.368 . S
C887 C871 1.349 . S
C887 H879 0.950 . S
C887 C885 1.327 . S
C888 C876 1.349 . S
C888 H882 0.950 . S
C888 C889 1.327 . S
C889 H883 0.950 . S
C889 C888 1.327 . S
C889 C893 1.429 . S
C890 C873 1.574 . S
C890 H884 0.949 . S
C890 C894 1.368 . S
C891 C872 1.429 . S
C891 C885 1.429 . S
C891 C892 1.523 . S
C892 C873 1.368 . S
C892 C886 1.368 . S
C892 C891 1.523 . S
C893 C877 1.429 . S
C893 C889 1.429 . S
C893 C894 1.523 . S
C894 C878 1.368 . S
C894 C890 1.368 . S
C894 C893 1.523 . S
H895 C870 0.950 . S
H896 C872 0.950 . S
H897 C873 0.949 . S
H898 C875 0.950 . S
H899 C877 0.950 . S
C900 C901 1.349 . S
C900 C902 1.327 . S
C900 H925 0.950 . S
C901 C900 1.349 . S
C901 C917 1.349 . S
C902 C900 1.327 . S
C902 C921 1.429 . S
C902 H926 0.950 . S
C903 C920 1.574 . S
C903 C922 1.368 . S
C903 H927 0.949 . S
H904 C908 0.949 . S
C905 C906 1.349 . S
C905 C907 1.327 . S
C905 H928 0.950 . S
C906 C905 1.349 . S
C906 C918 1.349 . S
C907 C905 1.327 . S
C907 C923 1.429 . S
C907 H929 0.950 . S
C908 H904 0.949 . S
C908 C916 1.574 . S
C908 C924 1.368 . S
H909 C917 0.950 . S
H910 C915 0.950 . S
H911 C916 0.949 . S
H912 C918 0.950 . S
H913 C919 0.950 . S
H914 C920 0.949 . S
C915 H910 0.950 . S
C915 C917 1.327 . S
C915 C921 1.429 . S
C916 C908 1.574 . S
C916 H911 0.949 . S
C916 C922 1.368 . S
C917 C901 1.349 . S
C917 H909 0.950 . S
C917 C915 1.327 . S
C918 C906 1.349 . S
C918 H912 0.950 . S
C918 C919 1.327 . S
C919 H913 0.950 . S
C919 C918 1.327 . S
C919 C923 1.429 . S
C920 C903 1.574 . S
C920 H914 0.949 . S
C920 C924 1.368 . S
C921 C902 1.429 . S
C921 C915 1.429 . S
C921 C922 1.523 . S
C922 C903 1.368 . S
C922 C916 1.368 . S
C922 C921 1.523 . S
C923 C907 1.429 . S
C923 C919 1.429 . S
C923 C924 1.523 . S
C924 C908 1.368 . S
C924 C920 1.368 . S
C924 C923 1.523 . S
H925 C900 0.950 . S
H926 C902 0.950 . S
H927 C903 0.949 . S
H928 C905 0.950 . S
H929 C907 0.950 . S
C930 C931 1.349 . S
C930 C932 1.327 . S
C930 H955 0.950 . S
C931 C930 1.349 . S
C931 C947 1.349 . S
C932 C930 1.327 . S
C932 C951 1.429 . S
C932 H956 0.950 . S
C933 C950 1.574 . S
C933 C952 1.368 . S
C933 H957 0.949 . S
H934 C938 0.949 . S
C935 C936 1.349 . S
C935 C937 1.327 . S
C935 H958 0.950 . S
C936 C935 1.349 . S
C936 C948 1.349 . S
C937 C935 1.327 . S
C937 C953 1.429 . S
C937 H959 0.950 . S
C938 H934 0.949 . S
C938 C946 1.574 . S
C938 C954 1.368 . S
H939 C947 0.950 . S
H940 C945 0.950 . S
H941 C946 0.949 . S
H942 C948 0.950 . S
H943 C949 0.950 . S
H944 C950 0.949 . S
C945 H940 0.950 . S
C945 C947 1.327 . S
C945 C951 1.429 . S
C946 C938 1.574 . S
C946 H941 0.949 . S
C946 C952 1.368 . S
C947 C931 1.349 . S
C947 H939 0.950 . S
C947 C945 1.327 . S
C948 C936 1.349 . S
C948 H942 0.950 . S
C948 C949 1.327 . S
C949 H943 0.950 . S
C949 C948 1.327 . S
C949 C953 1.429 . S
C950 C933 1.574 . S
C950 H944 0.949 . S
C950 C954 1.368 . S
C951 C932 1.429 . S
C951 C945 1.429 . S
C951 C952 1.523 . S
C952 C933 1.368 . S
C952 C946 1.368 . S
C952 C951 1.523 . S
C953 C937 1.429 . S
C953 C949 1.429 . S
C953 C954 1.523 . S
C954 C938 1.368 . S
C954 C950 1.368 . S
C954 C953 1.523 . S
H955 C930 0.950 . S
H956 C932 0.950 . S
H957 C933 0.949 . S
H958 C935 0.950 . S
H959 C937 0.950 . S
C960 C961 1.349 . S
C960 C962 1.327 . S
C960 H985 0.950 . S
C961 C960 1.349 . S
C961 C977 1.349 . S
C962 C960 1.327 . S
C962 C981 1.429 . S
C962 H986 0.950 . S
C963 C980 1.574 . S
C963 C982 1.368 . S
C963 H987 0.949 . S
H964 C968 0.949 . S
C965 C966 1.349 . S
C965 C967 1.327 . S
C965 H988 0.950 . S
C966 C965 1.349 . S
C966 C978 1.349 . S
C967 C965 1.327 . S
C967 C983 1.429 . S
C967 H989 0.950 . S
C968 H964 0.949 . S
C968 C976 1.574 . S
C968 C984 1.368 . S
H969 C977 0.950 . S
H970 C975 0.950 . S
H971 C976 0.949 . S
H972 C978 0.950 . S
H973 C979 0.950 . S
H974 C980 0.949 . S
C975 H970 0.950 . S
C975 C977 1.327 . S
C975 C981 1.429 . S
C976 C968 1.574 . S
C976 H971 0.949 . S
C976 C982 1.368 . S
C977 C961 1.349 . S
C977 H969 0.950 . S
C977 C975 1.327 . S
C978 C966 1.349 . S
C978 H972 0.950 . S
C978 C979 1.327 . S
C979 H973 0.950 . S
C979 C978 1.327 . S
C979 C983 1.429 . S
C980 C963 1.574 . S
C980 H974 0.949 . S
C980 C984 1.368 . S
C981 C962 1.429 . S
C981 C975 1.429 . S
C981 C982 1.523 . S
C982 C963 1.368 . S
C982 C976 1.368 . S
C982 C981 1.523 . S
C983 C967 1.429 . S
C983 C979 1.429 . S
C983 C984 1.523 . S
C984 C968 1.368 . S
C984 C980 1.368 . S
C984 C983 1.523 . S
H985 C960 0.950 . S
H986 C962 0.950 . S
H987 C963 0.949 . S
H988 C965 0.950 . S
H989 C967 0.950 . S
C990 C991 1.349 . S
C990 C992 1.327 . S
C990 H1015 0.950 . S
C991 C990 1.349 . S
C991 C1007 1.349 . S
C992 C990 1.327 . S
C992 C1011 1.429 . S
C992 H1016 0.950 . S
C993 C1010 1.574 . S
C993 C1012 1.368 . S
C993 H1017 0.949 . S
H994 C998 0.949 . S
C995 C996 1.349 . S
C995 C997 1.327 . S
C995 H1018 0.950 . S
C996 C995 1.349 . S
C996 C1008 1.349 . S
C997 C995 1.327 . S
C997 C1013 1.429 . S
C997 H1019 0.950 . S
C998 H994 0.949 . S
C998 C1006 1.574 . S
C998 C1014 1.368 . S
H999 C1007 0.950 . S
H1000 C1005 0.950 . S
H1001 C1006 0.949 . S
H1002 C1008 0.950 . S
H1003 C1009 0.950 . S
H1004 C1010 0.949 . S
C1005 H1000 0.950 . S
C1005 C1007 1.327 . S
C1005 C1011 1.429 . S
C1006 C998 1.574 . S
C1006 H1001 0.949 . S
C1006 C1012 1.368 . S
C1007 C991 1.349 . S
C1007 H999 0.950 . S
C1007 C1005 1.327 . S
C1008 C996 1.349 . S
C1008 H1002 0.950 . S
C1008 C1009 1.327 . S
C1009 H1003 0.950 . S
C1009 C1008 1.327 . S
C1009 C1013 1.429 . S
C1010 C993 1.574 . S
C1010 H1004 0.949 . S
C1010 C1014 1.368 . S
C1011 C992 1.429 . S
C1011 C1005 1.429 . S
C1011 C1012 1.523 . S
C1012 C993 1.368 . S
C1012 C1006 1.368 . S
C1012 C1011 1.523 . S
C1013 C997 1.429 . S
C1013 C1009 1.429 . S
C1013 C1014 1.523 . S
C1014 C998 1.368 . S
C1014 C1010 1.368 . S
C1014 C1013 1.523 . S
H1015 C990 0.950 . S
H1016 C992 0.950 . S
H1017 C993 0.949 . S
H1018 C995 0.950 . S
H1019 C997 0.950 . S
C1020 C1021 1.349 . S
C1020 C1022 1.327 . S
C1020 H1045 0.950 . S
C1021 C1020 1.349 . S
C1021 C1037 1.349 . S
C1022 C1020 1.327 . S
C1022 C1041 1.429 . S
C1022 H1046 0.950 . S
C1023 C1040 1.574 . S
C1023 C1042 1.368 . S
C1023 H1047 0.949 . S
H1024 C1028 0.949 . S
C1025 C1026 1.349 . S
C1025 C1027 1.327 . S
C1025 H1048 0.950 . S
C1026 C1025 1.349 . S
C1026 C1038 1.349 . S
C1027 C1025 1.327 . S
C1027 C1043 1.429 . S
C1027 H1049 0.950 . S
C1028 H1024 0.949 . S
C1028 C1036 1.574 . S
C1028 C1044 1.368 . S
H1029 C1037 0.950 . S
H1030 C1035 0.950 . S
H1031 C1036 0.949 . S
H1032 C1038 0.950 . S
H1033 C1039 0.950 . S
H1034 C1040 0.949 . S
C1035 H1030 0.950 . S
C1035 C1037 1.327 . S
C1035 C1041 1.429 . S
C1036 C1028 1.574 . S
C1036 H1031 0.949 . S
C1036 C1042 1.368 . S
C1037 C1021 1.349 . S
C1037 H1029 0.950 . S
C1037 C1035 1.327 . S
C1038 C1026 1.349 . S
C1038 H1032 0.950 . S
C1038 C1039 1.327 . S
C1039 H1033 0.950 . S
C1039 C1038 1.327 . S
C1039 C1043 1.429 . S
C1040 C1023 1.574 . S
C1040 H1034 0.949 . S
C1040 C1044 1.368 . S
C1041 C1022 1.429 . S
C1041 C1035 1.429 . S
C1041 C1042 1.523 . S
C1042 C1023 1.368 . S
C1042 C1036 1.368 . S
C1042 C1041 1.523 . S
C1043 C1027 1.429 . S
C1043 C1039 1.429 . S
C1043 C1044 1.523 . S
C1044 C1028 1.368 . S
C1044 C1040 1.368 . S
C1044 C1043 1.523 . S
H1045 C1020 0.950 . S
H1046 C1022 0.950 . S
H1047 C1023 0.949 . S
H1048 C1025 0.950 . S
H1049 C1027 0.950 . S
C1050 C1051 1.349 . S
C1050 C1052 1.327 . S
C1050 H1075 0.950 . S
C1051 C1050 1.349 . S
C1051 C1067 1.349 . S
C1052 C1050 1.327 . S
C1052 C1071 1.429 . S
C1052 H1076 0.950 . S
C1053 C1070 1.574 . S
C1053 C1072 1.368 . S
C1053 H1077 0.949 . S
H1054 C1058 0.949 . S
C1055 C1056 1.349 . S
C1055 C1057 1.327 . S
C1055 H1078 0.950 . S
C1056 C1055 1.349 . S
C1056 C1068 1.349 . S
C1057 C1055 1.327 . S
C1057 C1073 1.429 . S
C1057 H1079 0.950 . S
C1058 H1054 0.949 . S
C1058 C1066 1.574 . S
C1058 C1074 1.368 . S
H1059 C1067 0.950 . S
H1060 C1065 0.950 . S
H1061 C1066 0.949 . S
H1062 C1068 0.950 . S
H1063 C1069 0.950 . S
H1064 C1070 0.949 . S
C1065 H1060 0.950 . S
C1065 C1067 1.327 . S
C1065 C1071 1.429 . S
C1066 C1058 1.574 . S
C1066 H1061 0.949 . S
C1066 C1072 1.368 . S
C1067 C1051 1.349 . S
C1067 H1059 0.950 . S
C1067 C1065 1.327 . S
C1068 C1056 1.349 . S
C1068 H1062 0.950 . S
C1068 C1069 1.327 . S
C1069 H1063 0.950 . S
C1069 C1068 1.327 . S
C1069 C1073 1.429 . S
C1070 C1053 1.574 . S
C1070 H1064 0.949 . S
C1070 C1074 1.368 . S
C1071 C1052 1.429 . S
C1071 C1065 1.429 . S
C1071 C1072 1.523 . S
C1072 C1053 1.368 . S
C1072 C1066 1.368 . S
C1072 C1071 1.523 . S
C1073 C1057 1.429 . S
C1073 C1069 1.429 . S
C1073 C1074 1.523 . S
C1074 C1058 1.368 . S
C1074 C1070 1.368 . S
C1074 C1073 1.523 . S
H1075 C1050 0.950 . S
H1076 C1052 0.950 . S
H1077 C1053 0.949 . S
H1078 C1055 0.950 . S
H1079 C1057 0.950 . S
C1080 C1081 1.349 . S
C1080 C1082 1.327 . S
C1080 H1105 0.950 . S
C1081 C1080 1.349 . S
C1081 C1097 1.349 . S
C1082 C1080 1.327 . S
C1082 C1101 1.429 . S
C1082 H1106 0.950 . S
C1083 C1100 1.574 . S
C1083 C1102 1.368 . S
C1083 H1107 0.949 . S
H1084 C1088 0.949 . S
C1085 C1086 1.349 . S
C1085 C1087 1.327 . S
C1085 H1108 0.950 . S
C1086 C1085 1.349 . S
C1086 C1098 1.349 . S
C1087 C1085 1.327 . S
C1087 C1103 1.429 . S
C1087 H1109 0.950 . S
C1088 H1084 0.949 . S
C1088 C1096 1.574 . S
C1088 C1104 1.368 . S
H1089 C1097 0.950 . S
H1090 C1095 0.950 . S
H1091 C1096 0.949 . S
H1092 C1098 0.950 . S
H1093 C1099 0.950 . S
H1094 C1100 0.949 . S
C1095 H1090 0.950 . S
C1095 C1097 1.327 . S
C1095 C1101 1.429 . S
C1096 C1088 1.574 . S
C1096 H1091 0.949 . S
C1096 C1102 1.368 . S
C1097 C1081 1.349 . S
C1097 H1089 0.950 . S
C1097 C1095 1.327 . S
C1098 C1086 1.349 . S
C1098 H1092 0.950 . S
C1098 C1099 1.327 . S
C1099 H1093 0.950 . S
C1099 C1098 1.327 . S
C1099 C1103 1.429 . S
C1100 C1083 1.574 . S
C1100 H1094 0.949 . S
C1100 C1104 1.368 . S
C1101 C1082 1.429 . S
C1101 C1095 1.429 . S
C1101 C1102 1.523 . S
C1102 C1083 1.368 . S
C1102 C1096 1.368 . S
C1102 C1101 1.523 . S
C1103 C1087 1.429 . S
C1103 C1099 1.429 . S
C1103 C1104 1.523 . S
C1104 C1088 1.368 . S
C1104 C1100 1.368 . S
C1104 C1103 1.523 . S
H1105 C1080 0.950 . S
H1106 C1082 0.950 . S
H1107 C1083 0.949 . S
H1108 C1085 0.950 . S
H1109 C1087 0.950 . S
C1110 C1111 1.349 . S
C1110 C1112 1.327 . S
C1110 H1135 0.950 . S
C1111 C1110 1.349 . S
C1111 C1127 1.349 . S
C1112 C1110 1.327 . S
C1112 C1131 1.429 . S
C1112 H1136 0.950 . S
C1113 C1130 1.574 . S
C1113 C1132 1.368 . S
C1113 H1137 0.949 . S
H1114 C1118 0.949 . S
C1115 C1116 1.349 . S
C1115 C1117 1.327 . S
C1115 H1138 0.950 . S
C1116 C1115 1.349 . S
C1116 C1128 1.349 . S
C1117 C1115 1.327 . S
C1117 C1133 1.429 . S
C1117 H1139 0.950 . S
C1118 H1114 0.949 . S
C1118 C1126 1.574 . S
C1118 C1134 1.368 . S
H1119 C1127 0.950 . S
H1120 C1125 0.950 . S
H1121 C1126 0.949 . S
H1122 C1128 0.950 . S
H1123 C1129 0.950 . S
H1124 C1130 0.949 . S
C1125 H1120 0.950 . S
C1125 C1127 1.327 . S
C1125 C1131 1.429 . S
C1126 C1118 1.574 . S
C1126 H1121 0.949 . S
C1126 C1132 1.368 . S
C1127 C1111 1.349 . S
C1127 H1119 0.950 . S
C1127 C1125 1.327 . S
C1128 C1116 1.349 . S
C1128 H1122 0.950 . S
C1128 C1129 1.327 . S
C1129 H1123 0.950 . S
C1129 C1128 1.327 . S
C1129 C1133 1.429 . S
C1130 C1113 1.574 . S
C1130 H1124 0.949 . S
C1130 C1134 1.368 . S
C1131 C1112 1.429 . S
C1131 C1125 1.429 . S
C1131 C1132 1.523 . S
C1132 C1113 1.368 . S
C1132 C1126 1.368 . S
C1132 C1131 1.523 . S
C1133 C1117 1.429 . S
C1133 C1129 1.429 . S
C1133 C1134 1.523 . S
C1134 C1118 1.368 . S
C1134 C1130 1.368 . S
C1134 C1133 1.523 . S
H1135 C1110 0.950 . S
H1136 C1112 0.950 . S
H1137 C1113 0.949 . S
H1138 C1115 0.950 . S
H1139 C1117 0.950 . S
C1140 C1141 1.349 . S
C1140 C1142 1.327 . S
C1140 H1165 0.950 . S
C1141 C1140 1.349 . S
C1141 C1157 1.349 . S
C1142 C1140 1.327 . S
C1142 C1161 1.429 . S
C1142 H1166 0.950 . S
C1143 C1160 1.574 . S
C1143 C1162 1.368 . S
C1143 H1167 0.949 . S
H1144 C1148 0.949 . S
C1145 C1146 1.349 . S
C1145 C1147 1.327 . S
C1145 H1168 0.950 . S
C1146 C1145 1.349 . S
C1146 C1158 1.349 . S
C1147 C1145 1.327 . S
C1147 C1163 1.429 . S
C1147 H1169 0.950 . S
C1148 H1144 0.949 . S
C1148 C1156 1.574 . S
C1148 C1164 1.368 . S
H1149 C1157 0.950 . S
H1150 C1155 0.950 . S
H1151 C1156 0.949 . S
H1152 C1158 0.950 . S
H1153 C1159 0.950 . S
H1154 C1160 0.949 . S
C1155 H1150 0.950 . S
C1155 C1157 1.327 . S
C1155 C1161 1.429 . S
C1156 C1148 1.574 . S
C1156 H1151 0.949 . S
C1156 C1162 1.368 . S
C1157 C1141 1.349 . S
C1157 H1149 0.950 . S
C1157 C1155 1.327 . S
C1158 C1146 1.349 . S
C1158 H1152 0.950 . S
C1158 C1159 1.327 . S
C1159 H1153 0.950 . S
C1159 C1158 1.327 . S
C1159 C1163 1.429 . S
C1160 C1143 1.574 . S
C1160 H1154 0.949 . S
C1160 C1164 1.368 . S
C1161 C1142 1.429 . S
C1161 C1155 1.429 . S
C1161 C1162 1.523 . S
C1162 C1143 1.368 . S
C1162 C1156 1.368 . S
C1162 C1161 1.523 . S
C1163 C1147 1.429 . S
C1163 C1159 1.429 . S
C1163 C1164 1.523 . S
C1164 C1148 1.368 . S
C1164 C1160 1.368 . S
C1164 C1163 1.523 . S
H1165 C1140 0.950 . S
H1166 C1142 0.950 . S
H1167 C1143 0.949 . S
H1168 C1145 0.950 . S
H1169 C1147 0.950 . S
C1170 C1171 1.349 . S
C1170 C1172 1.327 . S
C1170 H1195 0.950 . S
C1171 C1170 1.349 . S
C1171 C1187 1.349 . S
C1172 C1170 1.327 . S
C1172 C1191 1.429 . S
C1172 H1196 0.950 . S
C1173 C1190 1.574 . S
C1173 C1192 1.368 . S
C1173 H1197 0.949 . S
H1174 C1178 0.949 . S
C1175 C1176 1.349 . S
C1175 C1177 1.327 . S
C1175 H1198 0.950 . S
C1176 C1175 1.349 . S
C1176 C1188 1.349 . S
C1177 C1175 1.327 . S
C1177 C1193 1.429 . S
C1177 H1199 0.950 . S
C1178 H1174 0.949 . S
C1178 C1186 1.574 . S
C1178 C1194 1.368 . S
H1179 C1187 0.950 . S
H1180 C1185 0.950 . S
H1181 C1186 0.949 . S
H1182 C1188 0.950 . S
H1183 C1189 0.950 . S
H1184 C1190 0.949 . S
C1185 H1180 0.950 . S
C1185 C1187 1.327 . S
C1185 C1191 1.429 . S
C1186 C1178 1.574 . S
C1186 H1181 0.949 . S
C1186 C1192 1.368 . S
C1187 C1171 1.349 . S
C1187 H1179 0.950 . S
C1187 C1185 1.327 . S
C1188 C1176 1.349 . S
C1188 H1182 0.950 . S
C1188 C1189 1.327 . S
C1189 H1183 0.950 . S
C1189 C1188 1.327 . S
C1189 C1193 1.429 . S
C1190 C1173 1.574 . S
C1190 H1184 0.949 . S
C1190 C1194 1.368 . S
C1191 C1172 1.429 . S
C1191 C1185 1.429 . S
C1191 C1192 1.523 . S
C1192 C1173 1.368 . S
C1192 C1186 1.368 . S
C1192 C1191 1.523 . S
C1193 C1177 1.429 . S
C1193 C1189 1.429 . S
C1193 C1194 1.523 . S
C1194 C1178 1.368 . S
C1194 C1190 1.368 . S
C1194 C1193 1.523 . S
H1195 C1170 0.950 . S
H1196 C1172 0.950 . S
H1197 C1173 0.949 . S
H1198 C1175 0.950 . S
H1199 C1177 0.950 . S
C1200 C1201 1.349 . S
C1200 C1202 1.327 . S
C1200 H1225 0.950 . S
C1201 C1200 1.349 . S
C1201 C1217 1.349 . S
C1202 C1200 1.327 . S
C1202 C1221 1.429 . S
C1202 H1226 0.950 . S
C1203 C1220 1.574 . S
C1203 C1222 1.368 . S
C1203 H1227 0.949 . S
H1204 C1208 0.949 . S
C1205 C1206 1.349 . S
C1205 C1207 1.327 . S
C1205 H1228 0.950 . S
C1206 C1205 1.349 . S
C1206 C1218 1.349 . S
C1207 C1205 1.327 . S
C1207 C1223 1.429 . S
C1207 H1229 0.950 . S
C1208 H1204 0.949 . S
C1208 C1216 1.574 . S
C1208 C1224 1.368 . S
H1209 C1217 0.950 . S
H1210 C1215 0.950 . S
H1211 C1216 0.949 . S
H1212 C1218 0.950 . S
H1213 C1219 0.950 . S
H1214 C1220 0.949 . S
C1215 H1210 0.950 . S
C1215 C1217 1.327 . S
C1215 C1221 1.429 . S
C1216 C1208 1.574 . S
C1216 H1211 0.949 . S
C1216 C1222 1.368 . S
C1217 C1201 1.349 . S
C1217 H1209 0.950 . S
C1217 C1215 1.327 . S
C1218 C1206 1.349 . S
C1218 H1212 0.950 . S
C1218 C1219 1.327 . S
C1219 H1213 0.950 . S
C1219 C1218 1.327 . S
C1219 C1223 1.429 . S
C1220 C1203 1.574 . S
C1220 H1214 0.949 . S
C1220 C1224 1.368 . S
C1221 C1202 1.429 . S
C1221 C1215 1.429 . S
C1221 C1222 1.523 . S
C1222 C1203 1.368 . S
C1222 C1216 1.368 . S
C1222 C1221 1.523 . S
C1223 C1207 1.429 . S
C1223 C1219 1.429 . S
C1223 C1224 1.523 . S
C1224 C1208 1.368 . S
C1224 C1220 1.368 . S
C1224 C1223 1.523 . S
H1225 C1200 0.950 . S
H1226 C1202 0.950 . S
H1227 C1203 0.949 . S
H1228 C1205 0.950 . S
H1229 C1207 0.950 . S
C1230 C1231 1.349 . S
C1230 C1232 1.327 . S
C1230 H1255 0.950 . S
C1231 C1230 1.349 . S
C1231 C1247 1.349 . S
C1232 C1230 1.327 . S
C1232 C1251 1.429 . S
C1232 H1256 0.950 . S
C1233 C1250 1.574 . S
C1233 C1252 1.368 . S
C1233 H1257 0.949 . S
H1234 C1238 0.949 . S
C1235 C1236 1.349 . S
C1235 C1237 1.327 . S
C1235 H1258 0.950 . S
C1236 C1235 1.349 . S
C1236 C1248 1.349 . S
C1237 C1235 1.327 . S
C1237 C1253 1.429 . S
C1237 H1259 0.950 . S
C1238 H1234 0.949 . S
C1238 C1246 1.574 . S
C1238 C1254 1.368 . S
H1239 C1247 0.950 . S
H1240 C1245 0.950 . S
H1241 C1246 0.949 . S
H1242 C1248 0.950 . S
H1243 C1249 0.950 . S
H1244 C1250 0.949 . S
C1245 H1240 0.950 . S
C1245 C1247 1.327 . S
C1245 C1251 1.429 . S
C1246 C1238 1.574 . S
C1246 H1241 0.949 . S
C1246 C1252 1.368 . S
C1247 C1231 1.349 . S
C1247 H1239 0.950 . S
C1247 C1245 1.327 . S
C1248 C1236 1.349 . S
C1248 H1242 0.950 . S
C1248 C1249 1.327 . S
C1249 H1243 0.950 . S
C1249 C1248 1.327 . S
C1249 C1253 1.429 . S
C1250 C1233 1.574 . S
C1250 H1244 0.949 . S
C1250 C1254 1.368 . S
C1251 C1232 1.429 . S
C1251 C1245 1.429 . S
C1251 C1252 1.523 . S
C1252 C1233 1.368 . S
C1252 C1246 1.368 . S
C1252 C1251 1.523 . S
C1253 C1237 1.429 . S
C1253 C1249 1.429 . S
C1253 C1254 1.523 . S
C1254 C1238 1.368 . S
C1254 C1250 1.368 . S
C1254 C1253 1.523 . S
H1255 C1230 0.950 . S
H1256 C1232 0.950 . S
H1257 C1233 0.949 . S
H1258 C1235 0.950 . S
H1259 C1237 0.950 . S
C1260 C1261 1.349 . S
C1260 C1262 1.327 . S
C1260 H1285 0.950 . S
C1261 C1260 1.349 . S
C1261 C1277 1.349 . S
C1262 C1260 1.327 . S
C1262 C1281 1.429 . S
C1262 H1286 0.950 . S
C1263 C1280 1.574 . S
C1263 C1282 1.368 . S
C1263 H1287 0.949 . S
H1264 C1268 0.949 . S
C1265 C1266 1.349 . S
C1265 C1267 1.327 . S
C1265 H1288 0.950 . S
C1266 C1265 1.349 . S
C1266 C1278 1.349 . S
C1267 C1265 1.327 . S
C1267 C1283 1.429 . S
C1267 H1289 0.950 . S
C1268 H1264 0.949 . S
C1268 C1276 1.574 . S
C1268 C1284 1.368 . S
H1269 C1277 0.950 . S
H1270 C1275 0.950 . S
H1271 C1276 0.949 . S
H1272 C1278 0.950 . S
H1273 C1279 0.950 . S
H1274 C1280 0.949 . S
C1275 H1270 0.950 . S
C1275 C1277 1.327 . S
C1275 C1281 1.429 . S
C1276 C1268 1.574 . S
C1276 H1271 0.949 . S
C1276 C1282 1.368 . S
C1277 C1261 1.349 . S
C1277 H1269 0.950 . S
C1277 C1275 1.327 . S
C1278 C1266 1.349 . S
C1278 H1272 0.950 . S
C1278 C1279 1.327 . S
C1279 H1273 0.950 . S
C1279 C1278 1.327 . S
C1279 C1283 1.429 . S
C1280 C1263 1.574 . S
C1280 H1274 0.949 . S
C1280 C1284 1.368 . S
C1281 C1262 1.429 . S
C1281 C1275 1.429 . S
C1281 C1282 1.523 . S
C1282 C1263 1.368 . S
C1282 C1276 1.368 . S
C1282 C1281 1.523 . S
C1283 C1267 1.429 . S
C1283 C1279 1.429 . S
C1283 C1284 1.523 . S
C1284 C1268 1.368 . S
C1284 C1280 1.368 . S
C1284 C1283 1.523 . S
H1285 C1260 0.950 . S
H1286 C1262 0.950 . S
H1287 C1263 0.949 . S
H1288 C1265 0.950 . S
H1289 C1267 0.950 . S
C1290 C1291 1.349 . S
C1290 C1292 1.327 . S
C1290 H1315 0.950 . S
C1291 C1290 1.349 . S
C1291 C1307 1.349 . S
C1292 C1290 1.327 . S
C1292 C1311 1.429 . S
C1292 H1316 0.950 . S
C1293 C1310 1.574 . S
C1293 C1312 1.368 . S
C1293 H1317 0.949 . S
H1294 C1298 0.949 . S
C1295 C1296 1.349 . S
C1295 C1297 1.327 . S
C1295 H1318 0.950 . S
C1296 C1295 1.349 . S
C1296 C1308 1.349 . S
C1297 C1295 1.327 . S
C1297 C1313 1.429 . S
C1297 H1319 0.950 . S
C1298 H1294 0.949 . S
C1298 C1306 1.574 . S
C1298 C1314 1.368 . S
H1299 C1307 0.950 . S
H1300 C1305 0.950 . S
H1301 C1306 0.949 . S
H1302 C1308 0.950 . S
H1303 C1309 0.950 . S
H1304 C1310 0.949 . S
C1305 H1300 0.950 . S
C1305 C1307 1.327 . S
C1305 C1311 1.429 . S
C1306 C1298 1.574 . S
C1306 H1301 0.949 . S
C1306 C1312 1.368 . S
C1307 C1291 1.349 . S
C1307 H1299 0.950 . S
C1307 C1305 1.327 . S
C1308 C1296 1.349 . S
C1308 H1302 0.950 . S
C1308 C1309 1.327 . S
C1309 H1303 0.950 . S
C1309 C1308 1.327 . S
C1309 C1313 1.429 . S
C1310 C1293 1.574 . S
C1310 H1304 0.949 . S
C1310 C1314 1.368 . S
C1311 C1292 1.429 . S
C1311 C1305 1.429 . S
C1311 C1312 1.523 . S
C1312 C1293 1.368 . S
C1312 C1306 1.368 . S
C1312 C1311 1.523 . S
C1313 C1297 1.429 . S
C1313 C1309 1.429 . S
C1313 C1314 1.523 . S
C1314 C1298 1.368 . S
C1314 C1310 1.368 . S
C1314 C1313 1.523 . S
H1315 C1290 0.950 . S
H1316 C1292 0.950 . S
H1317 C1293 0.949 . S
H1318 C1295 0.950 . S
H1319 C1297 0.950 . S
C1320 C1321 1.349 . S
C1320 C1322 1.327 . S
C1320 H1345 0.950 . S
C1321 C1320 1.349 . S
C1321 C1337 1.349 . S
C1322 C1320 1.327 . S
C1322 C1341 1.429 . S
C1322 H1346 0.950 . S
C1323 C1340 1.574 . S
C1323 C1342 1.368 . S
C1323 H1347 0.949 . S
H1324 C1328 0.949 . S
C1325 C1326 1.349 . S
C1325 C1327 1.327 . S
C1325 H1348 0.950 . S
C1326 C1325 1.349 . S
C1326 C1338 1.349 . S
C1327 C1325 1.327 . S
C1327 C1343 1.429 . S
C1327 H1349 0.950 . S
C1328 H1324 0.949 . S
C1328 C1336 1.574 . S
C1328 C1344 1.368 . S
H1329 C1337 0.950 . S
H1330 C1335 0.950 . S
H1331 C1336 0.949 . S
H1332 C1338 0.950 . S
H1333 C1339 0.950 . S
H1334 C1340 0.949 . S
C1335 H1330 0.950 . S
C1335 C1337 1.327 . S
C1335 C1341 1.429 . S
C1336 C1328 1.574 . S
C1336 H1331 0.949 . S
C1336 C1342 1.368 . S
C1337 C1321 1.349 . S
C1337 H1329 0.950 . S
C1337 C1335 1.327 . S
C1338 C1326 1.349 . S
C1338 H1332 0.950 . S
C1338 C1339 1.327 . S
C1339 H1333 0.950 . S
C1339 C1338 1.327 . S
C1339 C1343 1.429 . S
C1340 C1323 1.574 . S
C1340 H1334 0.949 . S
C1340 C1344 1.368 . S
C1341 C1322 1.429 . S
C1341 C1335 1.429 . S
C1341 C1342 1.523 . S
C1342 C1323 1.368 . S
C1342 C1336 1.368 . S
C1342 C1341 1.523 . S
C1343 C1327 1.429 . S
C1343 C1339 1.429 . S
C1343 C1344 1.523 . S
C1344 C1328 1.368 . S
C1344 C1340 1.368 . S
C1344 C1343 1.523 . S
H1345 C1320 0.950 . S
H1346 C1322 0.950 . S
H1347 C1323 0.949 . S
H1348 C1325 0.950 . S
H1349 C1327 0.950 . S
C1350 C1351 1.349 . S
C1350 C1352 1.327 . S
C1350 H1375 0.950 . S
C1351 C1350 1.349 . S
C1351 C1367 1.349 . S
C1352 C1350 1.327 . S
C1352 C1371 1.429 . S
C1352 H1376 0.950 . S
C1353 C1370 1.574 . S
C1353 C1372 1.368 . S
C1353 H1377 0.949 . S
H1354 C1358 0.949 . S
C1355 C1356 1.349 . S
C1355 C1357 1.327 . S
C1355 H1378 0.950 . S
C1356 C1355 1.349 . S
C1356 C1368 1.349 . S
C1357 C1355 1.327 . S
C1357 C1373 1.429 . S
C1357 H1379 0.950 . S
C1358 H1354 0.949 . S
C1358 C1366 1.574 . S
C1358 C1374 1.368 . S
H1359 C1367 0.950 . S
H1360 C1365 0.950 . S
H1361 C1366 0.949 . S
H1362 C1368 0.950 . S
H1363 C1369 0.950 . S
H1364 C1370 0.949 . S
C1365 H1360 0.950 . S
C1365 C1367 1.327 . S
C1365 C1371 1.429 . S
C1366 C1358 1.574 . S
C1366 H1361 0.949 . S
C1366 C1372 1.368 . S
C1367 C1351 1.349 . S
C1367 H1359 0.950 . S
C1367 C1365 1.327 . S
C1368 C1356 1.349 . S
C1368 H1362 0.950 . S
C1368 C1369 1.327 . S
C1369 H1363 0.950 . S
C1369 C1368 1.327 . S
C1369 C1373 1.429 . S
C1370 C1353 1.574 . S
C1370 H1364 0.949 . S
C1370 C1374 1.368 . S
C1371 C1352 1.429 . S
C1371 C1365 1.429 . S
C1371 C1372 1.523 . S
C1372 C1353 1.368 . S
C1372 C1366 1.368 . S
C1372 C1371 1.523 . S
C1373 C1357 1.429 . S
C1373 C1369 1.429 . S
C1373 C1374 1.523 . S
C1374 C1358 1.368 . S
C1374 C1370 1.368 . S
C1374 C1373 1.523 . S
H1375 C1350 0.950 . S
H1376 C1352 0.950 . S
H1377 C1353 0.949 . S
H1378 C1355 0.950 . S
H1379 C1357 0.950 . S
C1380 C1381 1.349 . S
C1380 C1382 1.327 . S
C1380 H1405 0.950 . S
C1381 C1380 1.349 . S
C1381 C1397 1.349 . S
C1382 C1380 1.327 . S
C1382 C1401 1.429 . S
C1382 H1406 0.950 . S
C1383 C1400 1.574 . S
C1383 C1402 1.368 1_554 S
C1383 H1407 0.949 . S
H1384 C1388 0.949 . S
C1385 C1386 1.349 . S
C1385 C1387 1.327 . S
C1385 H1408 0.950 . S
C1386 C1385 1.349 . S
C1386 C1398 1.349 . S
C1387 C1385 1.327 . S
C1387 C1403 1.429 . S
C1387 H1409 0.950 . S
C1388 H1384 0.949 . S
C1388 C1396 1.574 . S
C1388 C1404 1.368 1_556 S
H1389 C1397 0.950 . S
H1390 C1395 0.950 . S
H1391 C1396 0.949 . S
H1392 C1398 0.950 . S
H1393 C1399 0.950 . S
H1394 C1400 0.949 . S
C1395 H1390 0.950 . S
C1395 C1397 1.327 . S
C1395 C1401 1.429 . S
C1396 C1388 1.574 . S
C1396 H1391 0.949 . S
C1396 C1402 1.368 . S
C1397 C1381 1.349 . S
C1397 H1389 0.950 . S
C1397 C1395 1.327 . S
C1398 C1386 1.349 . S
C1398 H1392 0.950 . S
C1398 C1399 1.327 . S
C1399 H1393 0.950 . S
C1399 C1398 1.327 . S
C1399 C1403 1.429 . S
C1400 C1383 1.574 . S
C1400 H1394 0.949 . S
C1400 C1404 1.368 . S
C1401 C1382 1.429 . S
C1401 C1395 1.429 . S
C1401 C1402 1.523 . S
C1402 C1383 1.368 1_556 S
C1402 C1396 1.368 . S
C1402 C1401 1.523 . S
C1403 C1387 1.429 . S
C1403 C1399 1.429 . S
C1403 C1404 1.523 . S
C1404 C1388 1.368 1_554 S
C1404 C1400 1.368 . S
C1404 C1403 1.523 . S
H1405 C1380 0.950 . S
H1406 C1382 0.950 . S
H1407 C1383 0.949 . S
H1408 C1385 0.950 . S
H1409 C1387 0.950 . S
C1410 C1411 1.349 . S
C1410 C1412 1.327 . S
C1410 H1435 0.950 . S
C1411 C1410 1.349 . S
C1411 C1427 1.349 . S
C1412 C1410 1.327 . S
C1412 C1431 1.429 . S
C1412 H1436 0.950 . S
C1413 C1430 1.574 1_455 S
C1413 C1432 1.368 . S
C1413 H1437 0.949 . S
H1414 C1418 0.949 . S
C1415 C1416 1.349 . S
C1415 C1417 1.327 . S
C1415 H1438 0.950 . S
C1416 C1415 1.349 . S
C1416 C1428 1.349 . S
C1417 C1415 1.327 . S
C1417 C1433 1.429 . S
C1417 H1439 0.950 . S
C1418 H1414 0.949 . S
C1418 C1426 1.574 1_655 S
C1418 C1434 1.368 . S
H1419 C1427 0.950 . S
H1420 C1425 0.950 . S
H1421 C1426 0.949 . S
H1422 C1428 0.950 . S
H1423 C1429 0.950 . S
H1424 C1430 0.949 . S
C1425 H1420 0.950 . S
C1425 C1427 1.327 . S
C1425 C1431 1.429 . S
C1426 C1418 1.574 1_455 S
C1426 H1421 0.949 . S
C1426 C1432 1.368 . S
C1427 C1411 1.349 . S
C1427 H1419 0.950 . S
C1427 C1425 1.327 . S
C1428 C1416 1.349 . S
C1428 H1422 0.950 . S
C1428 C1429 1.327 . S
C1429 H1423 0.950 . S
C1429 C1428 1.327 . S
C1429 C1433 1.429 . S
C1430 C1413 1.574 1_655 S
C1430 H1424 0.949 . S
C1430 C1434 1.368 . S
C1431 C1412 1.429 . S
C1431 C1425 1.429 . S
C1431 C1432 1.523 . S
C1432 C1413 1.368 . S
C1432 C1426 1.368 . S
C1432 C1431 1.523 . S
C1433 C1417 1.429 . S
C1433 C1429 1.429 . S
C1433 C1434 1.523 . S
C1434 C1418 1.368 . S
C1434 C1430 1.368 . S
C1434 C1433 1.523 . S
H1435 C1410 0.950 . S
H1436 C1412 0.950 . S
H1437 C1413 0.949 . S
H1438 C1415 0.950 . S
H1439 C1417 0.950 . S
C1440 C1441 1.349 . S
C1440 C1442 1.327 . S
C1440 H1465 0.950 . S
C1441 C1440 1.349 . S
C1441 C1457 1.349 . S
C1442 C1440 1.327 . S
C1442 C1461 1.429 . S
C1442 H1466 0.950 . S
C1443 C1460 1.574 . S
C1443 C1462 1.368 1_556 S
C1443 H1467 0.949 . S
H1444 C1448 0.949 . S
C1445 C1446 1.349 . S
C1445 C1447 1.327 . S
C1445 H1468 0.950 . S
C1446 C1445 1.349 . S
C1446 C1458 1.349 . S
C1447 C1445 1.327 . S
C1447 C1463 1.429 . S
C1447 H1469 0.950 . S
C1448 H1444 0.949 . S
C1448 C1456 1.574 . S
C1448 C1464 1.368 1_554 S
H1449 C1457 0.950 . S
H1450 C1455 0.950 . S
H1451 C1456 0.949 . S
H1452 C1458 0.950 . S
H1453 C1459 0.950 . S
H1454 C1460 0.949 . S
C1455 H1450 0.950 . S
C1455 C1457 1.327 . S
C1455 C1461 1.429 . S
C1456 C1448 1.574 . S
C1456 H1451 0.949 . S
C1456 C1462 1.368 1_545 S
C1457 C1441 1.349 . S
C1457 H1449 0.950 . S
C1457 C1455 1.327 . S
C1458 C1446 1.349 . S
C1458 H1452 0.950 . S
C1458 C1459 1.327 . S
C1459 H1453 0.950 . S
C1459 C1458 1.327 . S
C1459 C1463 1.429 . S
C1460 C1443 1.574 . S
C1460 H1454 0.949 . S
C1460 C1464 1.368 1_565 S
C1461 C1442 1.429 . S
C1461 C1455 1.429 . S
C1461 C1462 1.523 . S
C1462 C1443 1.368 1_554 S
C1462 C1456 1.368 1_565 S
C1462 C1461 1.523 . S
C1463 C1447 1.429 . S
C1463 C1459 1.429 . S
C1463 C1464 1.523 . S
C1464 C1448 1.368 1_556 S
C1464 C1460 1.368 1_545 S
C1464 C1463 1.523 . S
H1465 C1440 0.950 . S
H1466 C1442 0.950 . S
H1467 C1443 0.949 . S
H1468 C1445 0.950 . S
H1469 C1447 0.950 . S
C1470 C1471 1.349 . S
C1470 C1472 1.327 . S
C1470 H1495 0.950 . S
C1471 C1470 1.349 . S
C1471 C1487 1.349 . S
C1472 C1470 1.327 . S
C1472 C1491 1.429 . S
C1472 H1496 0.950 . S
C1473 C1490 1.574 . S
C1473 C1492 1.368 . S
C1473 H1497 0.949 . S
H1474 C1478 0.949 . S
C1475 C1476 1.349 . S
C1475 C1477 1.327 . S
C1475 H1498 0.950 . S
C1476 C1475 1.349 . S
C1476 C1488 1.349 . S
C1477 C1475 1.327 . S
C1477 C1493 1.429 . S
C1477 H1499 0.950 . S
C1478 H1474 0.949 . S
C1478 C1486 1.574 . S
C1478 C1494 1.368 . S
H1479 C1487 0.950 . S
H1480 C1485 0.950 . S
H1481 C1486 0.949 . S
H1482 C1488 0.950 . S
H1483 C1489 0.950 . S
H1484 C1490 0.949 . S
C1485 H1480 0.950 . S
C1485 C1487 1.327 . S
C1485 C1491 1.429 . S
C1486 C1478 1.574 . S
C1486 H1481 0.949 . S
C1486 C1492 1.368 . S
C1487 C1471 1.349 . S
C1487 H1479 0.950 . S
C1487 C1485 1.327 . S
C1488 C1476 1.349 . S
C1488 H1482 0.950 . S
C1488 C1489 1.327 . S
C1489 H1483 0.950 . S
C1489 C1488 1.327 . S
C1489 C1493 1.429 . S
C1490 C1473 1.574 . S
C1490 H1484 0.949 . S
C1490 C1494 1.368 . S
C1491 C1472 1.429 . S
C1491 C1485 1.429 . S
C1491 C1492 1.523 . S
C1492 C1473 1.368 . S
C1492 C1486 1.368 . S
C1492 C1491 1.523 . S
C1493 C1477 1.429 . S
C1493 C1489 1.429 . S
C1493 C1494 1.523 . S
C1494 C1478 1.368 . S
C1494 C1490 1.368 . S
C1494 C1493 1.523 . S
H1495 C1470 0.950 . S
H1496 C1472 0.950 . S
H1497 C1473 0.949 . S
H1498 C1475 0.950 . S
H1499 C1477 0.950 . S
C1500 C1501 1.349 . S
C1500 C1502 1.327 . S
C1500 H1525 0.950 . S
C1501 C1500 1.349 . S
C1501 C1517 1.349 . S
C1502 C1500 1.327 . S
C1502 C1521 1.429 . S
C1502 H1526 0.950 . S
C1503 C1520 1.551 1_655 S
C1503 C1522 1.401 . S
C1503 H1527 0.940 . S
H1504 C1508 0.940 . S
C1505 C1506 1.349 . S
C1505 C1507 1.327 . S
C1505 H1528 0.950 . S
C1506 C1505 1.349 . S
C1506 C1518 1.349 . S
C1507 C1505 1.327 . S
C1507 C1523 1.429 . S
C1507 H1529 0.950 . S
C1508 H1504 0.940 . S
C1508 C1516 1.551 1_455 S
C1508 C1524 1.402 . S
H1509 C1517 0.950 . S
H1510 C1515 0.950 . S
H1511 C1516 0.949 . S
H1512 C1518 0.950 . S
H1513 C1519 0.950 . S
H1514 C1520 0.949 . S
C1515 H1510 0.950 . S
C1515 C1517 1.327 . S
C1515 C1521 1.429 . S
C1516 C1508 1.551 1_655 S
C1516 H1511 0.949 . S
C1516 C1522 1.368 1_554 S
C1517 C1501 1.349 . S
C1517 H1509 0.950 . S
C1517 C1515 1.327 . S
C1518 C1506 1.349 . S
C1518 H1512 0.950 . S
C1518 C1519 1.327 . S
C1519 H1513 0.950 . S
C1519 C1518 1.327 . S
C1519 C1523 1.429 . S
C1520 C1503 1.551 1_455 S
C1520 H1514 0.949 . S
C1520 C1524 1.368 1_556 S
C1521 C1502 1.429 . S
C1521 C1515 1.429 . S
C1521 C1522 1.523 . S
C1522 C1503 1.401 . S
C1522 C1516 1.368 1_556 S
C1522 C1521 1.523 . S
C1523 C1507 1.429 . S
C1523 C1519 1.429 . S
C1523 C1524 1.523 . S
C1524 C1508 1.402 . S
C1524 C1520 1.368 1_554 S
C1524 C1523 1.523 . S
H1525 C1500 0.950 . S
H1526 C1502 0.950 . S
H1527 C1503 0.940 . S
H1528 C1505 0.950 . S
H1529 C1507 0.950 . S
C1530 C1531 1.349 . S
C1530 C1532 1.327 . S
C1530 H1555 0.950 . S
C1531 C1530 1.349 . S
C1531 C1547 1.349 . S
C1532 C1530 1.327 . S
C1532 C1551 1.429 . S
C1532 H1556 0.950 . S
C1533 C1550 1.574 1_565 S
C1533 C1552 1.368 . S
C1533 H1557 0.949 . S
H1534 C1538 0.949 . S
C1535 C1536 1.349 . S
C1535 C1537 1.327 . S
C1535 H1558 0.950 . S
C1536 C1535 1.349 . S
C1536 C1548 1.349 . S
C1537 C1535 1.327 . S
C1537 C1553 1.429 . S
C1537 H1559 0.950 . S
C1538 H1534 0.949 . S
C1538 C1546 1.574 1_545 S
C1538 C1554 1.368 . S
H1539 C1547 0.950 . S
H1540 C1545 0.950 . S
H1541 C1546 0.949 . S
H1542 C1548 0.950 . S
H1543 C1549 0.950 . S
H1544 C1550 0.949 . S
C1545 H1540 0.950 . S
C1545 C1547 1.327 . S
C1545 C1551 1.429 . S
C1546 C1538 1.574 1_565 S
C1546 H1541 0.949 . S
C1546 C1552 1.368 . S
C1547 C1531 1.349 . S
C1547 H1539 0.950 . S
C1547 C1545 1.327 . S
C1548 C1536 1.349 . S
C1548 H1542 0.950 . S
C1548 C1549 1.327 . S
C1549 H1543 0.950 . S
C1549 C1548 1.327 . S
C1549 C1553 1.429 . S
C1550 C1533 1.574 1_545 S
C1550 H1544 0.949 . S
C1550 C1554 1.368 . S
C1551 C1532 1.429 . S
C1551 C1545 1.429 . S
C1551 C1552 1.523 . S
C1552 C1533 1.368 . S
C1552 C1546 1.368 . S
C1552 C1551 1.523 . S
C1553 C1537 1.429 . S
C1553 C1549 1.429 . S
C1553 C1554 1.523 . S
C1554 C1538 1.368 . S
C1554 C1550 1.368 . S
C1554 C1553 1.523 . S
H1555 C1530 0.950 . S
H1556 C1532 0.950 . S
H1557 C1533 0.949 . S
H1558 C1535 0.950 . S
H1559 C1537 0.950 . S
C481 C179 1.200 . S
C486 C15 1.231 . S
C511 C219 1.200 . S
C516 C55 1.230 . S
C541 C95 1.231 . S
C546 C19 1.200 . S
C571 C135 1.231 . S
C576 C59 1.200 . S
C601 C175 1.231 . S
C606 C99 1.200 . S
C631 C139 1.200 . S
C636 C215 1.231 . S
C661 C339 1.200 . S
C666 C255 1.231 . S
C691 C295 1.231 . S
C696 C379 1.200 . S
C721 C419 1.200 . S
C726 C335 1.231 . S
C751 C375 1.231 . S
C756 C459 1.200 . S
C781 C415 1.231 . S
C786 C259 1.200 . S
C811 C299 1.200 . S
C816 C455 1.230 . S
C841 C170 1.756 . S
C846 C6 1.753 . S
C871 C46 1.753 . S
C876 C210 1.756 . S
C901 C86 1.753 . S
C906 C10 1.756 . S
C931 C126 1.753 . S
C936 C50 1.756 . S
C961 C90 1.756 . S
C966 C166 1.753 . S
C991 C130 1.756 . S
C996 C206 1.753 . S
C1021 C330 1.756 . S
C1026 C246 1.753 . S
C1051 C286 1.753 . S
C1056 C370 1.756 . S
C1081 C326 1.753 . S
C1086 C410 1.756 . S
C1111 C450 1.756 . S
C1116 C366 1.753 . S
C1141 C406 1.753 . S
C1146 C250 1.756 . S
C1171 C290 1.756 . S
C1176 C446 1.753 . S
C1201 C418 1.642 . S
C1206 C18 1.642 . S
C1231 C58 1.642 . S
C1236 C458 1.642 . S
C1261 C98 1.642 . S
C1266 C258 1.642 . S
C1291 C138 1.642 . S
C1296 C298 1.642 . S
C1321 C178 1.642 . S
C1326 C338 1.642 . S
C1351 C378 1.642 . S
C1356 C218 1.642 . S
C1381 C369 2.156 . S
C1386 C9 2.156 . S
C1411 C409 2.156 . S
C1416 C49 2.156 . S
C1441 C89 2.156 . S
C1446 C449 2.156 . S
C1471 C129 2.156 . S
C1476 C249 2.156 . S
C1501 C289 2.156 . S
C1506 C169 2.156 . S
C1531 C329 2.156 . S
C1536 C209 2.156 . S
