# Generated by pormake.
# Topology uop, (4)-cn, num edge types: 1
# Building blocks:
#     Node 0, Type 0, BuildingBlock: MUDLON_clean_sbu_0, # of connection points: 4
#     Node 1, Type 0, BuildingBlock: MUDLON_clean_sbu_0, # of connection points: 4
#     Node 2, Type 0, BuildingBlock: MUDLON_clean_sbu_0, # of connection points: 4
#     Node 3, Type 0, BuildingBlock: MUDLON_clean_sbu_0, # of connection points: 4
#     Node 4, Type 0, BuildingBlock: MUDLON_clean_sbu_0, # of connection points: 4
#     Node 5, Type 0, BuildingBlock: MUDLON_clean_sbu_0, # of connection points: 4
#     Node 6, Type 0, BuildingBlock: MUDLON_clean_sbu_0, # of connection points: 4
#     Node 7, Type 0, BuildingBlock: MUDLON_clean_sbu_0, # of connection points: 4
#     Node 8, Type 0, BuildingBlock: MUDLON_clean_sbu_0, # of connection points: 4
#     Node 9, Type 0, BuildingBlock: MUDLON_clean_sbu_0, # of connection points: 4
#     Node 10, Type 0, BuildingBlock: MUDLON_clean_sbu_0, # of connection points: 4
#     Node 11, Type 0, BuildingBlock: MUDLON_clean_sbu_0, # of connection points: 4
#     Edge 12, Type (0, 0), BuildingBlock: XIVTED_clean_linker_0, # of connection points: 2
#     Edge 13, Type (0, 0), BuildingBlock: XIVTED_clean_linker_0, # of connection points: 2
#     Edge 14, Type (0, 0), BuildingBlock: XIVTED_clean_linker_0, # of connection points: 2
#     Edge 15, Type (0, 0), BuildingBlock: XIVTED_clean_linker_0, # of connection points: 2
#     Edge 16, Type (0, 0), BuildingBlock: XIVTED_clean_linker_0, # of connection points: 2
#     Edge 17, Type (0, 0), BuildingBlock: XIVTED_clean_linker_0, # of connection points: 2
#     Edge 18, Type (0, 0), BuildingBlock: XIVTED_clean_linker_0, # of connection points: 2
#     Edge 19, Type (0, 0), BuildingBlock: XIVTED_clean_linker_0, # of connection points: 2
#     Edge 20, Type (0, 0), BuildingBlock: XIVTED_clean_linker_0, # of connection points: 2
#     Edge 21, Type (0, 0), BuildingBlock: XIVTED_clean_linker_0, # of connection points: 2
#     Edge 22, Type (0, 0), BuildingBlock: XIVTED_clean_linker_0, # of connection points: 2
#     Edge 23, Type (0, 0), BuildingBlock: XIVTED_clean_linker_0, # of connection points: 2
#     Edge 24, Type (0, 0), BuildingBlock: XIVTED_clean_linker_0, # of connection points: 2
#     Edge 25, Type (0, 0), BuildingBlock: XIVTED_clean_linker_0, # of connection points: 2
#     Edge 26, Type (0, 0), BuildingBlock: XIVTED_clean_linker_0, # of connection points: 2
#     Edge 27, Type (0, 0), BuildingBlock: XIVTED_clean_linker_0, # of connection points: 2
#     Edge 28, Type (0, 0), BuildingBlock: XIVTED_clean_linker_0, # of connection points: 2
#     Edge 29, Type (0, 0), BuildingBlock: XIVTED_clean_linker_0, # of connection points: 2
#     Edge 30, Type (0, 0), BuildingBlock: XIVTED_clean_linker_0, # of connection points: 2
#     Edge 31, Type (0, 0), BuildingBlock: XIVTED_clean_linker_0, # of connection points: 2
#     Edge 32, Type (0, 0), BuildingBlock: XIVTED_clean_linker_0, # of connection points: 2
#     Edge 33, Type (0, 0), BuildingBlock: XIVTED_clean_linker_0, # of connection points: 2
#     Edge 34, Type (0, 0), BuildingBlock: XIVTED_clean_linker_0, # of connection points: 2
#     Edge 35, Type (0, 0), BuildingBlock: XIVTED_clean_linker_0, # of connection points: 2
# Relax obj value: 0.173
# Max RMSD: 0.295
# Mean RMSD: 0.295
data_MOF--net-uop--node1-MUDLON_clean_sbu_0--edge1-XIVTED_clean_linker_0
_symmetry_space_group_name_H-M    P1
_symmetry_Int_Tables_number       1
_symmetry_cell_setting            triclinic
loop_
_symmetry_equiv_pos_as_xyz
'x, y, z'
_cell_length_a     34.240803
_cell_length_b     34.585573
_cell_length_c     47.972836
_cell_angle_alpha  90.053694
_cell_angle_beta   90.087656
_cell_angle_gamma 119.78538
loop_
_atom_site_label
_atom_site_type_symbol
_atom_site_fract_x
_atom_site_fract_y
_atom_site_fract_z
_atom_type_partial_charge
Mg0 Mg 0.2695 0.41318 0.19702 0.0
C1 C 0.25023 0.48232 0.17815 0.0
O2 O 0.24519 0.45852 0.15567 0.0
C3 C 0.29635 0.36357 0.2362 0.0
O4 O 0.30402 0.35135 0.21183 0.0
C5 C 0.18184 0.32555 0.18838 0.0
O6 O 0.19457 0.31524 0.21172 0.0
O7 O 0.20818 0.3625 0.17664 0.0
O8 O 0.26016 0.47055 0.20099 0.0
O9 O 0.3328 0.44005 0.17441 0.0
C10 C 0.34745 0.42026 0.1589 0.0
O11 O 0.32144 0.37776 0.15323 0.0
O12 O 0.28017 0.38967 0.23695 0.0
Mg13 Mg 0.85167 0.26301 0.52693 0.0
C14 C 0.9413 0.33914 0.5058 0.0
O15 O 0.95799 0.31876 0.52057 0.0
C16 C 0.81777 0.16571 0.52862 0.0
O17 O 0.806 0.17372 0.55307 0.0
C18 C 0.90498 0.2587 0.57518 0.0
O19 O 0.9105 0.23366 0.55679 0.0
O20 O 0.87981 0.27483 0.56897 0.0
O21 O 0.89888 0.32121 0.5032 0.0
O22 O 0.78799 0.26257 0.52364 0.0
C23 C 0.78062 0.27423 0.49993 0.0
O24 O 0.81103 0.28524 0.4803 0.0
O25 O 0.83933 0.19819 0.512 0.0
Mg26 Mg 0.60492 0.8544 0.86864 0.0
C27 C 0.52941 0.77347 0.84381 0.0
O28 O 0.55107 0.79685 0.82181 0.0
C29 C 0.65488 0.91563 0.91613 0.0
O30 O 0.68841 0.92141 0.90008 0.0
C31 C 0.67268 0.83355 0.83839 0.0
O32 O 0.65137 0.83332 0.81555 0.0
O33 O 0.66154 0.84329 0.86151 0.0
O34 O 0.54452 0.78932 0.86791 0.0
O35 O 0.59045 0.89315 0.83886 0.0
C36 C 0.60699 0.93502 0.84134 0.0
O37 O 0.63998 0.95688 0.85916 0.0
O38 O 0.61488 0.88775 0.9087 0.0
Mg39 Mg 0.76136 0.61166 0.20308 0.0
C40 C 0.77777 0.5417 0.17871 0.0
O41 O 0.78269 0.5666 0.15688 0.0
C42 C 0.7692 0.65065 0.26096 0.0
O43 O 0.81209 0.67128 0.2544 0.0
C44 C 0.84846 0.68191 0.17175 0.0
O45 O 0.82685 0.66347 0.14851 0.0
O46 O 0.82826 0.66834 0.19495 0.0
O47 O 0.76913 0.55286 0.2022 0.0
O48 O 0.70488 0.59862 0.17553 0.0
C49 C 0.676 0.55763 0.1718 0.0
O50 O 0.68387 0.52731 0.1826 0.0
O51 O 0.74077 0.62242 0.24397 0.0
Mg52 Mg 0.16166 0.7545 0.52891 0.0
C53 C 0.13557 0.6673 0.5014 0.0
O54 O 0.17801 0.68189 0.50753 0.0
C55 C 0.18134 0.84781 0.53026 0.0
O56 O 0.19043 0.84086 0.55578 0.0
C57 C 0.09717 0.74436 0.57291 0.0
O58 O 0.08223 0.75574 0.55094 0.0
O59 O 0.13301 0.74213 0.57062 0.0
O60 O 0.1191 0.69258 0.50612 0.0
O61 O 0.23002 0.76617 0.52682 0.0
C62 C 0.25315 0.76364 0.54671 0.0
O63 O 0.23635 0.75497 0.57201 0.0
O64 O 0.16582 0.81553 0.513 0.0
Mg65 Mg 0.42108 0.15666 0.86608 0.0
C66 C 0.4975 0.2391 0.84457 0.0
O67 O 0.47626 0.21743 0.82192 0.0
C68 C 0.36382 0.09255 0.90983 0.0
O69 O 0.33373 0.08882 0.89138 0.0
C70 C 0.35622 0.17943 0.83321 0.0
O71 O 0.37851 0.17968 0.81089 0.0
O72 O 0.36599 0.16923 0.85664 0.0
O73 O 0.48176 0.22147 0.86816 0.0
O74 O 0.43854 0.11954 0.83677 0.0
C75 C 0.42181 0.07754 0.83831 0.0
O76 O 0.38705 0.05461 0.85464 0.0
O77 O 0.40509 0.12036 0.90533 0.0
Mg78 Mg 0.60797 0.74866 0.47601 0.0
C79 C 0.6125 0.66953 0.50159 0.0
O80 O 0.65149 0.68724 0.4888 0.0
C81 C 0.67494 0.84484 0.47407 0.0
O82 O 0.65946 0.83604 0.4484 0.0
C83 C 0.66644 0.74574 0.4308 0.0
O84 O 0.69599 0.76666 0.45069 0.0
O85 O 0.62556 0.73496 0.43493 0.0
O86 O 0.59028 0.69001 0.50136 0.0
O87 O 0.54765 0.75433 0.47701 0.0
C88 C 0.53789 0.76073 0.50155 0.0
O89 O 0.56446 0.7635 0.52219 0.0
O90 O 0.66083 0.81292 0.49147 0.0
Mg91 Mg 0.86824 0.60588 0.80038 0.0
C92 C 0.78768 0.5276 0.82318 0.0
O93 O 0.81261 0.54565 0.84545 0.0
C94 C 0.90074 0.64656 0.74318 0.0
O95 O 0.8756 0.66434 0.74907 0.0
C96 C 0.84113 0.66649 0.83277 0.0
O97 O 0.83319 0.63857 0.85338 0.0
O98 O 0.85783 0.66176 0.81024 0.0
O99 O 0.80237 0.54609 0.79965 0.0
O100 O 0.90704 0.58894 0.82879 0.0
C101 C 0.94861 0.6028 0.82481 0.0
O102 O 0.97044 0.63444 0.80641 0.0
O103 O 0.9024 0.61943 0.76035 0.0
Mg104 Mg 0.26949 0.85838 0.13332 0.0
C105 C 0.26178 0.77668 0.15967 0.0
O106 O 0.27286 0.80372 0.18115 0.0
C107 C 0.25888 0.88883 0.07576 0.0
O108 O 0.21706 0.87185 0.08418 0.0
C109 C 0.1839 0.83818 0.16632 0.0
O110 O 0.20211 0.82586 0.18599 0.0
O111 O 0.20606 0.85557 0.14415 0.0
O112 O 0.25758 0.79047 0.13586 0.0
O113 O 0.33072 0.90023 0.15734 0.0
C114 C 0.36097 0.88979 0.1527 0.0
O115 O 0.3512 0.85596 0.13608 0.0
O116 O 0.28713 0.88561 0.09141 0.0
Mg117 Mg 0.40032 0.26119 0.47286 0.0
C118 C 0.45588 0.3404 0.51078 0.0
O119 O 0.47966 0.32026 0.51317 0.0
C120 C 0.32768 0.16638 0.4719 0.0
O121 O 0.33895 0.17436 0.4455 0.0
C122 C 0.39081 0.26661 0.40893 0.0
O123 O 0.41587 0.24771 0.40746 0.0
O124 O 0.38 0.27467 0.43267 0.0
O125 O 0.41877 0.32103 0.49749 0.0
O126 O 0.45928 0.25317 0.47093 0.0
C127 C 0.49618 0.28086 0.45951 0.0
O128 O 0.4988 0.31521 0.44614 0.0
O129 O 0.34675 0.19829 0.48932 0.0
Mg130 Mg 0.16053 0.40769 0.79307 0.0
C131 C 0.2417 0.48422 0.8161 0.0
O132 O 0.21881 0.46271 0.83829 0.0
C133 C 0.10314 0.35337 0.74503 0.0
O134 O 0.10586 0.3226 0.75954 0.0
C135 C 0.18522 0.34434 0.82516 0.0
O136 O 0.18518 0.36619 0.84757 0.0
O137 O 0.17445 0.35374 0.8018 0.0
O138 O 0.22541 0.46859 0.79215 0.0
O139 O 0.12258 0.42309 0.82307 0.0
C140 C 0.08078 0.40912 0.81996 0.0
O141 O 0.05815 0.378 0.80132 0.0
O142 O 0.1242 0.3935 0.7536 0.0
Mg143 Mg 0.76419 0.16816 0.13316 0.0
C144 C 0.76473 0.24678 0.15603 0.0
O145 O 0.76596 0.22495 0.17812 0.0
C146 C 0.71304 0.11299 0.08315 0.0
O147 O 0.67952 0.11151 0.09732 0.0
C148 C 0.85016 0.16353 0.14972 0.0
O149 O 0.82604 0.12047 0.1451 0.0
O150 O 0.83194 0.1877 0.14752 0.0
O151 O 0.76306 0.23029 0.13205 0.0
O152 O 0.70742 0.1242 0.15936 0.0
C153 C 0.69075 0.08217 0.1588 0.0
O154 O 0.71236 0.06542 0.14534 0.0
O155 O 0.75289 0.13608 0.09257 0.0
H156 H 0.27044 0.73877 0.20757 0.0
H157 H 0.22938 0.51508 0.13222 0.0
H158 H 0.24096 0.71218 0.11982 0.0
H159 H 0.26451 0.54358 0.21922 0.0
H160 H 0.2289 0.58507 0.12807 0.0
H161 H 0.2641 0.6657 0.21287 0.0
C162 C 0.26248 0.71753 0.1894 0.0
C163 C 0.2564 0.73176 0.16316 0.0
C164 C 0.23656 0.576 0.14811 0.0
C165 C 0.24911 0.64788 0.16914 0.0
C166 C 0.2368 0.53595 0.15053 0.0
C167 C 0.24723 0.52348 0.17611 0.0
C168 C 0.24687 0.604 0.17142 0.0
C169 C 0.2564 0.55188 0.19909 0.0
C170 C 0.25888 0.67576 0.19247 0.0
C171 C 0.24605 0.70268 0.14042 0.0
N172 N 0.25618 0.59091 0.19617 0.0
N173 N 0.24286 0.66219 0.14393 0.0
H174 H 0.76317 0.31219 0.45538 0.0
H175 H 0.50647 0.22491 0.49531 0.0
H176 H 0.70254 0.23849 0.53066 0.0
H177 H 0.5791 0.32897 0.43507 0.0
H178 H 0.57544 0.22288 0.50533 0.0
H179 H 0.69367 0.31259 0.44481 0.0
C180 C 0.73521 0.29605 0.46972 0.0
C181 C 0.73871 0.27526 0.49398 0.0
C182 C 0.57624 0.24608 0.48989 0.0
C183 C 0.65877 0.27538 0.48181 0.0
C184 C 0.53682 0.24711 0.48401 0.0
C185 C 0.53698 0.27722 0.4643 0.0
C186 C 0.61607 0.27503 0.47578 0.0
C187 C 0.5774 0.30529 0.45044 0.0
C188 C 0.69556 0.2964 0.46367 0.0
C189 C 0.70137 0.25503 0.51179 0.0
N190 N 0.61529 0.30347 0.45642 0.0
N191 N 0.66284 0.2554 0.50528 0.0
H192 H 0.47463 0.71619 0.88434 0.0
H193 H 0.29821 0.53938 0.77526 0.0
H194 H 0.48926 0.73159 0.79503 0.0
H195 H 0.28402 0.5247 0.86463 0.0
H196 H 0.36908 0.60924 0.78194 0.0
H197 H 0.40531 0.64512 0.87747 0.0
C198 C 0.46334 0.70462 0.8633 0.0
C199 C 0.48779 0.72996 0.84024 0.0
C200 C 0.35045 0.59066 0.80008 0.0
C201 C 0.40842 0.64863 0.83219 0.0
C202 C 0.31 0.55077 0.79626 0.0
C203 C 0.28507 0.52615 0.8194 0.0
C204 C 0.36605 0.60604 0.82722 0.0
C205 C 0.30202 0.54254 0.84615 0.0
C206 C 0.42374 0.66403 0.85937 0.0
C207 C 0.47151 0.71325 0.81344 0.0
N208 N 0.34134 0.58141 0.84931 0.0
N209 N 0.43287 0.67372 0.81016 0.0
H210 H 0.78751 0.50525 0.13044 0.0
H211 H 0.76436 0.28774 0.20462 0.0
H212 H 0.76838 0.48132 0.219 0.0
H213 H 0.76938 0.30488 0.11532 0.0
H214 H 0.76881 0.35986 0.21031 0.0
H215 H 0.78455 0.43372 0.12464 0.0
C216 C 0.78289 0.48507 0.14872 0.0
C217 C 0.77814 0.49934 0.17527 0.0
C218 C 0.76888 0.34789 0.18946 0.0
C219 C 0.7746 0.4172 0.16871 0.0
C220 C 0.76634 0.30664 0.18616 0.0
C221 C 0.76648 0.29017 0.15942 0.0
C222 C 0.77176 0.37311 0.16586 0.0
C223 C 0.7691 0.31622 0.13632 0.0
C224 C 0.78108 0.44412 0.14535 0.0
C225 C 0.77217 0.47168 0.19814 0.0
N226 N 0.77172 0.35645 0.14007 0.0
N227 N 0.77055 0.43194 0.19433 0.0
H228 H 0.47607 0.75957 0.4643 0.0
H229 H 0.31422 0.763 0.58364 0.0
H230 H 0.50663 0.76886 0.55223 0.0
H231 H 0.29215 0.7714 0.49575 0.0
H232 H 0.38471 0.7646 0.57249 0.0
H233 H 0.40802 0.76307 0.47526 0.0
C234 C 0.46855 0.76243 0.48588 0.0
C235 C 0.49706 0.76381 0.50736 0.0
C236 C 0.36452 0.7663 0.55566 0.0
C237 C 0.41927 0.76771 0.52008 0.0
C238 C 0.32425 0.76538 0.56203 0.0
C239 C 0.29713 0.76697 0.54063 0.0
C240 C 0.37764 0.76851 0.52767 0.0
C241 C 0.31193 0.7701 0.51296 0.0
C242 C 0.42974 0.76449 0.49213 0.0
C243 C 0.48566 0.76762 0.53496 0.0
N244 N 0.35101 0.77053 0.50729 0.0
N245 N 0.44763 0.76926 0.54051 0.0
H246 H 0.55329 0.29218 0.88652 0.0
H247 H 0.72802 0.47835 0.78169 0.0
H248 H 0.53708 0.2854 0.79706 0.0
H249 H 0.7473 0.48219 0.87082 0.0
H250 H 0.65644 0.40895 0.78704 0.0
H251 H 0.62313 0.36336 0.88138 0.0
C252 C 0.56433 0.30567 0.86582 0.0
C253 C 0.53932 0.2827 0.8422 0.0
C254 C 0.67633 0.42504 0.80542 0.0
C255 C 0.61921 0.36411 0.83614 0.0
C256 C 0.71719 0.46468 0.80237 0.0
C257 C 0.74379 0.48609 0.82582 0.0
C258 C 0.66193 0.40668 0.83212 0.0
C259 C 0.72801 0.46683 0.85212 0.0
C260 C 0.60423 0.3463 0.86289 0.0
C261 C 0.55528 0.30183 0.81588 0.0
N262 N 0.68821 0.42826 0.85455 0.0
N263 N 0.59416 0.34132 0.81357 0.0
H264 H 0.632 0.60569 0.16627 0.0
H265 H 0.39667 0.38505 0.13618 0.0
H266 H 0.61691 0.47608 0.15069 0.0
H267 H 0.40885 0.50901 0.16469 0.0
H268 H 0.47849 0.42238 0.13111 0.0
H269 H 0.55194 0.5753 0.15533 0.0
C270 C 0.61214 0.57116 0.15993 0.0
C271 C 0.63096 0.54321 0.15977 0.0
C272 C 0.46319 0.44155 0.13813 0.0
C273 C 0.53949 0.50817 0.14749 0.0
C274 C 0.41641 0.42026 0.14094 0.0
C275 C 0.39583 0.4437 0.15131 0.0
C276 C 0.48964 0.48664 0.14571 0.0
C277 C 0.42326 0.48939 0.15701 0.0
C278 C 0.56638 0.55373 0.15387 0.0
C279 C 0.60361 0.49867 0.15147 0.0
N280 N 0.46872 0.50922 0.15444 0.0
N281 N 0.55925 0.48245 0.14597 0.0
H282 H 0.04362 0.62068 0.49346 0.0
H283 H 0.03339 0.38653 0.50456 0.0
H284 H 0.16119 0.60518 0.49241 0.0
H285 H 0.91621 0.39881 0.48751 0.0
H286 H 0.08091 0.4665 0.49697 0.0
H287 H 0.99625 0.53982 0.488 0.0
C288 C 0.05952 0.60044 0.49164 0.0
C289 C 0.10646 0.61978 0.49373 0.0
C290 C 0.04484 0.45166 0.49451 0.0
C291 C 0.05248 0.52725 0.48783 0.0
C292 C 0.01767 0.40592 0.49884 0.0
C293 C 0.97071 0.38593 0.49692 0.0
C294 C 0.02492 0.47783 0.48861 0.0
C295 C 0.95226 0.41279 0.48932 0.0
C296 C 0.03246 0.55425 0.48857 0.0
C297 C 0.12516 0.59182 0.4912 0.0
N298 N 0.97935 0.45745 0.48585 0.0
N299 N 0.09816 0.54705 0.48876 0.0
H300 H 0.50896 0.11917 0.81963 0.0
H301 H 0.52195 0.89468 0.81903 0.0
H302 H 0.39443 0.98863 0.83359 0.0
H303 H 0.63478 0.02417 0.83834 0.0
H304 H 0.4762 0.92956 0.80972 0.0
H305 H 0.55559 0.08482 0.81184 0.0
C306 C 0.4933 0.08321 0.82041 0.0
C307 C 0.44774 0.05676 0.82767 0.0
C308 C 0.5112 0.95036 0.81552 0.0
C309 C 0.5011 0.0174 0.81875 0.0
C310 C 0.53749 0.93056 0.82068 0.0
C311 C 0.58221 0.9565 0.82986 0.0
C312 C 0.52985 0.99647 0.81922 0.0
C313 C 0.60036 1.00284 0.83162 0.0
C314 C 0.52008 0.06371 0.81612 0.0
C315 C 0.42946 0.01034 0.82837 0.0
N316 N 0.57402 0.0213 0.8266 0.0
N317 N 0.45627 0.99216 0.82424 0.0
H318 H 0.65096 0.61707 0.50884 0.0
H319 H 0.41653 0.39297 0.51037 0.0
H320 H 0.52427 0.61492 0.51613 0.0
H321 H 0.54257 0.39739 0.52718 0.0
H322 H 0.45473 0.47413 0.51487 0.0
H323 H 0.61206 0.53695 0.51793 0.0
C324 C 0.61508 0.5999 0.51275 0.0
C325 C 0.59084 0.62276 0.51146 0.0
C326 C 0.47388 0.45727 0.51801 0.0
C327 C 0.54591 0.5308 0.52146 0.0
C328 C 0.45206 0.41089 0.51545 0.0
C329 C 0.47641 0.38827 0.51813 0.0
C330 C 0.52053 0.48132 0.52287 0.0
C331 C 0.52241 0.41333 0.5248 0.0
C332 C 0.59286 0.55411 0.51795 0.0
C333 C 0.54436 0.59871 0.5168 0.0
N334 N 0.54308 0.45849 0.5265 0.0
N335 N 0.52333 0.55397 0.52113 0.0
H336 H 0.9051 0.51787 0.84568 0.0
H337 H 0.12503 0.49316 0.84235 0.0
H338 H 0.03773 0.62627 0.82648 0.0
H339 H 0.99172 0.38546 0.82333 0.0
H340 H 0.09319 0.54137 0.85199 0.0
H341 H 0.93721 0.46927 0.85293 0.0
C342 C 0.94113 0.53182 0.84367 0.0
C343 C 0.96874 0.57616 0.83511 0.0
C344 C 0.07089 0.50694 0.84621 0.0
C345 C 1.0055 0.52061 0.84347 0.0
C346 C 0.08893 0.47925 0.84087 0.0
C347 C 0.06102 0.43526 0.83166 0.0
C348 C 0.02457 0.49038 0.84275 0.0
C349 C 0.01452 0.41924 0.83008 0.0
C350 C 0.95932 0.50392 0.84764 0.0
C351 C 0.01516 0.59223 0.83277 0.0
N352 N 0.99777 0.44689 0.83534 0.0
N353 N 0.03205 0.56438 0.83671 0.0
H354 H 0.40457 0.97673 0.17173 0.0
H355 H 0.64443 0.99112 0.16139 0.0
H356 H 0.42434 0.8647 0.15646 0.0
H357 H 0.62867 0.10591 0.17539 0.0
H358 H 0.56355 0.94306 0.16745 0.0
H359 H 0.48569 0.02319 0.1808 0.0
C360 C 0.42578 0.96173 0.17081 0.0
C361 C 0.4078 0.91696 0.16294 0.0
C362 C 0.57776 0.97874 0.16956 0.0
C363 C 0.50037 0.96973 0.17309 0.0
C364 C 0.62408 0.00623 0.16616 0.0
C365 C 0.64341 0.05268 0.16753 0.0
C366 C 0.55028 0.99774 0.17407 0.0
C367 C 0.61524 0.07028 0.17397 0.0
C368 C 0.47208 0.98826 0.17586 0.0
C369 C 0.43682 0.89923 0.16203 0.0
N370 N 0.57003 0.04284 0.17659 0.0
N371 N 0.48156 0.92569 0.16674 0.0
H372 H 0.28383 0.38021 0.29061 0.0
H373 H 0.40445 0.25188 0.35449 0.0
H374 H 0.33559 0.31171 0.2408 0.0
H375 H 0.34271 0.31033 0.40482 0.0
H376 H 0.38007 0.27425 0.31258 0.0
H377 H 0.30556 0.35556 0.33276 0.0
C378 C 0.29964 0.35992 0.28852 0.0
C379 C 0.30792 0.34808 0.2621 0.0
C380 C 0.37177 0.28211 0.3328 0.0
C381 C 0.33305 0.31988 0.31025 0.0
C382 C 0.38573 0.26935 0.35676 0.0
C383 C 0.37568 0.27924 0.38326 0.0
C384 C 0.3477 0.3051 0.3353 0.0
C385 C 0.35125 0.30196 0.38485 0.0
C386 C 0.31204 0.34584 0.3126 0.0
C387 C 0.32852 0.32169 0.26069 0.0
N388 N 0.33821 0.31419 0.36124 0.0
N389 N 0.34046 0.30863 0.28438 0.0
H390 H 0.94741 0.21786 0.59881 0.0
H391 H 0.07376 0.40296 0.7163 0.0
H392 H 0.92269 0.32746 0.61123 0.0
H393 H 0.06583 0.27445 0.71674 0.0
H394 H 0.02328 0.37929 0.67575 0.0
H395 H 0.99512 0.24102 0.64026 0.0
C396 C 0.95182 0.2467 0.61036 0.0
C397 C 0.931 0.27075 0.60153 0.0
C398 C 0.03261 0.35633 0.68478 0.0
C399 C 0.98618 0.29784 0.64893 0.0
C400 C 0.06162 0.3699 0.7078 0.0
C401 C 0.07411 0.34066 0.71991 0.0
C402 C 0.01644 0.31345 0.67362 0.0
C403 C 0.05709 0.2981 0.70814 0.0
C404 C 0.97908 0.2599 0.63405 0.0
C405 C 0.93792 0.30782 0.61737 0.0
N406 N 0.02933 0.28588 0.68563 0.0
N407 N 0.96524 0.32047 0.6402 0.0
H408 H 0.73641 0.97652 0.93806 0.0
H409 H 0.63139 0.05518 0.05977 0.0
H410 H 0.5936 0.9192 0.95146 0.0
H411 H 0.77395 0.1067 0.04904 0.0
H412 H 0.61687 0.00659 0.01948 0.0
H413 H 0.75068 0.02511 0.97824 0.0
C414 C 0.70799 0.97399 0.94951 0.0
C415 C 0.6637 0.94366 0.94133 0.0
C416 C 0.65133 0.02858 0.02589 0.0
C417 C 0.67989 0.99959 0.9874 0.0
C418 C 0.65969 0.05649 0.04887 0.0
C419 C 0.704 0.08515 0.05784 0.0
C420 C 0.68752 0.02927 0.01169 0.0
C421 C 0.73926 0.08521 0.04289 0.0
C422 C 0.71621 1.00185 0.97246 0.0
C423 C 0.62829 0.94198 0.95701 0.0
N424 N 0.73025 0.05769 0.0206 0.0
N425 N 0.63716 0.96963 0.97924 0.0
H426 H 0.61328 0.69321 0.38773 0.0
H427 H 0.82119 0.70738 0.30241 0.0
H428 H 0.75157 0.76746 0.41512 0.0
H429 H 0.6826 0.62267 0.27803 0.0
H430 H 0.79594 0.73085 0.34329 0.0
H431 H 0.63768 0.66889 0.34655 0.0
C432 C 0.64877 0.7046 0.38503 0.0
C433 C 0.68041 0.73242 0.40495 0.0
C434 C 0.77099 0.70701 0.32907 0.0
C435 C 0.70851 0.70454 0.35796 0.0
C436 C 0.78541 0.69352 0.3057 0.0
C437 C 0.754 0.66298 0.28671 0.0
C438 C 0.72476 0.69007 0.33352 0.0
C439 C 0.70804 0.64621 0.29212 0.0
C440 C 0.66265 0.69055 0.36158 0.0
C441 C 0.72593 0.74598 0.40038 0.0
N442 N 0.69481 0.66009 0.31496 0.0
N443 N 0.73855 0.73192 0.37743 0.0
H444 H 0.10839 0.70488 0.61973 0.0
H445 H 0.90012 0.69817 0.7002 0.0
H446 H 0.02538 0.75491 0.58558 0.0
H447 H 0.96656 0.62701 0.72849 0.0
H448 H 0.94919 0.72327 0.65948 0.0
H449 H 0.06079 0.68078 0.66145 0.0
C450 C 0.08038 0.71106 0.62107 0.0
C451 C 0.0708 0.73184 0.59908 0.0
C452 C 0.95299 0.70205 0.67454 0.0
C453 C 0.01622 0.70431 0.64665 0.0
C454 C 0.92493 0.68768 0.69782 0.0
C455 C 0.9291 0.66033 0.71779 0.0
C456 C 0.98581 0.68932 0.67121 0.0
C457 C 0.96198 0.64789 0.71357 0.0
C458 C 0.05311 0.69711 0.64482 0.0
C459 C 0.03398 0.73886 0.60193 0.0
N460 N 0.98917 0.66259 0.69079 0.0
N461 N 1.00811 0.72515 0.62522 0.0
H462 H 0.20712 0.90009 0.03665 0.0
H463 H 0.41697 0.08376 0.94955 0.0
H464 H 0.34509 0.93938 0.05607 0.0
H465 H 0.27816 0.03324 0.92614 0.0
H466 H 0.39183 0.03234 0.98917 0.0
H467 H 0.23294 0.94911 0.99615 0.0
C468 C 0.24285 0.91879 0.03231 0.0
C469 C 0.27395 0.91562 0.04986 0.0
C470 C 0.36691 0.03254 0.97534 0.0
C471 C 0.30388 0.97232 0.00354 0.0
C472 C 0.38124 0.06201 0.95278 0.0
C473 C 0.34964 0.06289 0.93449 0.0
C474 C 0.32065 1.00388 0.9797 0.0
C475 C 0.30377 0.03379 0.93965 0.0
C476 C 0.2576 0.94689 0.00917 0.0
C477 C 0.31987 0.94071 0.04312 0.0
N478 N 0.29071 0.00559 0.96174 0.0
N479 N 0.33345 0.96818 0.02059 0.0
H480 H 0.89965 0.12428 0.16574 0.0
H481 H 0.13615 0.34907 0.15147 0.0
H482 H 0.9129 0.25165 0.14496 0.0
H483 H 0.11949 0.24042 0.20377 0.0
H484 H 0.05568 0.3078 0.14081 0.0
H485 H 0.98156 0.16124 0.1728 0.0
C486 C 0.9197 0.15993 0.16268 0.0
C487 C 0.89931 0.18492 0.15491 0.0
C488 C 0.06973 0.29287 0.15445 0.0
C489 C 0.99282 0.22708 0.16238 0.0
C490 C 0.11576 0.31624 0.16038 0.0
C491 C 0.13462 0.29831 0.17869 0.0
C492 C 0.04234 0.25096 0.1666 0.0
C493 C 0.10633 0.25564 0.18968 0.0
C494 C 0.96636 0.18095 0.16671 0.0
C495 C 0.92701 0.23104 0.15116 0.0
N496 N 0.06158 0.23342 0.18351 0.0
N497 N 0.97225 0.25053 0.15477 0.0
H498 H 0.82261 0.13344 0.47703 0.0
H499 H 0.69832 0.87848 0.52725 0.0
H500 H 0.78151 0.09196 0.56188 0.0
H501 H 0.71745 0.91843 0.44088 0.0
H502 H 0.7392 0.95716 0.54092 0.0
H503 H 0.79429 0.05538 0.46404 0.0
C504 C 0.808 0.10801 0.49297 0.0
C505 C 0.80409 0.11927 0.52053 0.0
C506 C 0.73475 0.94867 0.51897 0.0
C507 C 0.77168 0.02991 0.50584 0.0
C508 C 0.71159 0.90373 0.51116 0.0
C509 C 0.70409 0.8918 0.48288 0.0
C510 C 0.75073 0.98192 0.49835 0.0
C511 C 0.72206 0.92604 0.46294 0.0
C512 C 0.79174 0.06345 0.48553 0.0
C513 C 0.78489 0.08486 0.54031 0.0
N514 N 0.74429 0.96946 0.47105 0.0
N515 N 0.76929 0.04182 0.53257 0.0
H516 H 0.83614 0.71714 0.79043 0.0
H517 H 0.71192 0.81641 0.88297 0.0
H518 H 0.80836 0.68968 0.87814 0.0
H519 H 0.70755 0.81254 0.79302 0.0
H520 H 0.7592 0.78188 0.88219 0.0
H521 H 0.80121 0.76395 0.79195 0.0
C522 C 0.82323 0.72136 0.81011 0.0
C523 C 0.82494 0.6991 0.83418 0.0
C524 C 0.74816 0.78889 0.86262 0.0
C525 C 0.7848 0.75272 0.83598 0.0
C526 C 0.72127 0.80879 0.86301 0.0
C527 C 0.70535 0.81712 0.838 0.0
C528 C 0.75963 0.77747 0.83704 0.0
C529 C 0.71875 0.80649 0.81282 0.0
C530 C 0.80309 0.74796 0.8109 0.0
C531 C 0.80757 0.70591 0.85904 0.0
N532 N 0.74495 0.78708 0.81299 0.0
N533 N 0.7881 0.73196 0.85927 0.0
H534 H 0.90519 0.7177 0.21652 0.0
H535 H 0.12941 0.839 0.12451 0.0
H536 H 0.90437 0.71847 0.12653 0.0
H537 H 0.12777 0.80659 0.21152 0.0
H538 H 0.04774 0.80774 0.12606 0.0
H539 H 0.98713 0.76292 0.2159 0.0
C540 C 0.92212 0.72777 0.19659 0.0
C541 C 0.89768 0.71381 0.17151 0.0
C542 C 0.06534 0.80789 0.14487 0.0
C543 C 0.99189 0.76575 0.17073 0.0
C544 C 0.11205 0.82596 0.14407 0.0
C545 C 0.13557 0.82516 0.1679 0.0
C546 C 0.04193 0.78921 0.16973 0.0
C547 C 0.11109 0.80768 0.1926 0.0
C548 C 0.96901 0.7535 0.19629 0.0
C549 C 0.92172 0.72815 0.14638 0.0
N550 N 0.06567 0.79025 0.19283 0.0
N551 N 0.96747 0.75311 0.14663 0.0
H552 H 0.18029 0.87854 0.47747 0.0
H553 H 0.30561 0.13459 0.52549 0.0
H554 H 0.21114 0.92179 0.56309 0.0
H555 H 0.28149 0.09198 0.43952 0.0
H556 H 0.26279 0.05653 0.53994 0.0
H557 H 0.20891 0.9561 0.46345 0.0
C558 C 0.19259 0.90422 0.49335 0.0
C559 C 0.19369 0.89361 0.52147 0.0
C560 C 0.26654 0.06429 0.51791 0.0
C561 C 0.22673 0.98253 0.50558 0.0
C562 C 0.29091 0.10891 0.50965 0.0
C563 C 0.29756 0.11992 0.48124 0.0
C564 C 0.2487 0.03038 0.49763 0.0
C565 C 0.27759 0.08513 0.46166 0.0
C566 C 0.20905 0.94855 0.48534 0.0
C567 C 0.20998 0.92836 0.54114 0.0
N568 N 0.25441 0.042 0.47021 0.0
N569 N 0.22611 0.97118 0.53281 0.0
H570 H 0.19998 0.30183 0.78161 0.0
H571 H 0.31245 0.19306 0.87662 0.0
H572 H 0.21122 0.31533 0.87117 0.0
H573 H 0.32635 0.20448 0.78712 0.0
H574 H 0.26523 0.22756 0.87482 0.0
H575 H 0.23596 0.25607 0.78332 0.0
C576 C 0.20958 0.29485 0.8017 0.0
C577 C 0.2028 0.31283 0.82629 0.0
C578 C 0.27835 0.22226 0.85556 0.0
C579 C 0.24419 0.26033 0.82833 0.0
C580 C 0.30525 0.20239 0.85652 0.0
C581 C 0.32378 0.1961 0.83197 0.0
C582 C 0.26959 0.2358 0.82985 0.0
C583 C 0.31306 0.20886 0.80659 0.0
C584 C 0.23029 0.2688 0.80262 0.0
C585 C 0.21595 0.30245 0.85167 0.0
N586 N 0.28686 0.22826 0.8062 0.0
N587 N 0.23616 0.27707 0.85201 0.0
loop_
_geom_bond_atom_site_label_1
_geom_bond_atom_site_label_2
_geom_bond_distance
_geom_bond_site_symmetry_2
_ccdc_geom_bond_type
Mg0 O7 2.141 . S
Mg0 O8 2.048 . S
Mg0 O9 2.048 . S
Mg0 O12 2.141 . S
C1 O2 1.313 . S
C1 O8 1.195 . S
O2 C1 1.313 . S
C3 O4 1.245 . S
C3 O12 1.289 . S
O4 C3 1.245 . S
C5 O6 1.245 . S
C5 O7 1.289 . S
O6 C5 1.245 . S
O7 Mg0 2.141 . S
O7 C5 1.289 . S
O8 Mg0 2.048 . S
O8 C1 1.195 . S
O9 Mg0 2.048 . S
O9 C10 1.195 . S
C10 O9 1.195 . S
C10 O11 1.313 . S
O11 C10 1.313 . S
O12 Mg0 2.141 . S
O12 C3 1.289 . S
Mg13 O20 2.141 . S
Mg13 O21 2.048 . S
Mg13 O22 2.048 . S
Mg13 O25 2.141 . S
C14 O15 1.313 . S
C14 O21 1.195 . S
O15 C14 1.313 . S
C16 O17 1.245 . S
C16 O25 1.289 . S
O17 C16 1.245 . S
C18 O19 1.245 . S
C18 O20 1.289 . S
O19 C18 1.245 . S
O20 Mg13 2.141 . S
O20 C18 1.289 . S
O21 Mg13 2.048 . S
O21 C14 1.195 . S
O22 Mg13 2.048 . S
O22 C23 1.195 . S
C23 O22 1.195 . S
C23 O24 1.313 . S
O24 C23 1.313 . S
O25 Mg13 2.141 . S
O25 C16 1.289 . S
Mg26 O33 2.141 . S
Mg26 O34 2.048 . S
Mg26 O35 2.048 . S
Mg26 O38 2.141 . S
C27 O28 1.313 . S
C27 O34 1.195 . S
O28 C27 1.313 . S
C29 O30 1.245 . S
C29 O38 1.289 . S
O30 C29 1.245 . S
C31 O32 1.245 . S
C31 O33 1.289 . S
O32 C31 1.245 . S
O33 Mg26 2.141 . S
O33 C31 1.289 . S
O34 Mg26 2.048 . S
O34 C27 1.195 . S
O35 Mg26 2.048 . S
O35 C36 1.195 . S
C36 O35 1.195 . S
C36 O37 1.313 . S
O37 C36 1.313 . S
O38 Mg26 2.141 . S
O38 C29 1.289 . S
Mg39 O46 2.141 . S
Mg39 O47 2.048 . S
Mg39 O48 2.048 . S
Mg39 O51 2.141 . S
C40 O41 1.313 . S
C40 O47 1.195 . S
O41 C40 1.313 . S
C42 O43 1.245 . S
C42 O51 1.289 . S
O43 C42 1.245 . S
C44 O45 1.245 . S
C44 O46 1.289 . S
O45 C44 1.245 . S
O46 Mg39 2.141 . S
O46 C44 1.289 . S
O47 Mg39 2.048 . S
O47 C40 1.195 . S
O48 Mg39 2.048 . S
O48 C49 1.195 . S
C49 O48 1.195 . S
C49 O50 1.313 . S
O50 C49 1.313 . S
O51 Mg39 2.141 . S
O51 C42 1.289 . S
Mg52 O59 2.141 . S
Mg52 O60 2.048 . S
Mg52 O61 2.048 . S
Mg52 O64 2.141 . S
C53 O54 1.313 . S
C53 O60 1.195 . S
O54 C53 1.313 . S
C55 O56 1.245 . S
C55 O64 1.289 . S
O56 C55 1.245 . S
C57 O58 1.245 . S
C57 O59 1.289 . S
O58 C57 1.245 . S
O59 Mg52 2.141 . S
O59 C57 1.289 . S
O60 Mg52 2.048 . S
O60 C53 1.195 . S
O61 Mg52 2.048 . S
O61 C62 1.195 . S
C62 O61 1.195 . S
C62 O63 1.313 . S
O63 C62 1.313 . S
O64 Mg52 2.141 . S
O64 C55 1.289 . S
Mg65 O72 2.141 . S
Mg65 O73 2.048 . S
Mg65 O74 2.048 . S
Mg65 O77 2.141 . S
C66 O67 1.313 . S
C66 O73 1.195 . S
O67 C66 1.313 . S
C68 O69 1.245 . S
C68 O77 1.289 . S
O69 C68 1.245 . S
C70 O71 1.245 . S
C70 O72 1.289 . S
O71 C70 1.245 . S
O72 Mg65 2.141 . S
O72 C70 1.289 . S
O73 Mg65 2.048 . S
O73 C66 1.195 . S
O74 Mg65 2.048 . S
O74 C75 1.195 . S
C75 O74 1.195 . S
C75 O76 1.313 . S
O76 C75 1.313 . S
O77 Mg65 2.141 . S
O77 C68 1.289 . S
Mg78 O85 2.141 . S
Mg78 O86 2.048 . S
Mg78 O87 2.048 . S
Mg78 O90 2.141 . S
C79 O80 1.313 . S
C79 O86 1.195 . S
O80 C79 1.313 . S
C81 O82 1.245 . S
C81 O90 1.289 . S
O82 C81 1.245 . S
C83 O84 1.245 . S
C83 O85 1.289 . S
O84 C83 1.245 . S
O85 Mg78 2.141 . S
O85 C83 1.289 . S
O86 Mg78 2.048 . S
O86 C79 1.195 . S
O87 Mg78 2.048 . S
O87 C88 1.195 . S
C88 O87 1.195 . S
C88 O89 1.313 . S
O89 C88 1.313 . S
O90 Mg78 2.141 . S
O90 C81 1.289 . S
Mg91 O98 2.141 . S
Mg91 O99 2.048 . S
Mg91 O100 2.048 . S
Mg91 O103 2.141 . S
C92 O93 1.313 . S
C92 O99 1.195 . S
O93 C92 1.313 . S
C94 O95 1.245 . S
C94 O103 1.289 . S
O95 C94 1.245 . S
C96 O97 1.245 . S
C96 O98 1.289 . S
O97 C96 1.245 . S
O98 Mg91 2.141 . S
O98 C96 1.289 . S
O99 Mg91 2.048 . S
O99 C92 1.195 . S
O100 Mg91 2.048 . S
O100 C101 1.195 . S
C101 O100 1.195 . S
C101 O102 1.313 . S
O102 C101 1.313 . S
O103 Mg91 2.141 . S
O103 C94 1.289 . S
Mg104 O111 2.141 . S
Mg104 O112 2.048 . S
Mg104 O113 2.048 . S
Mg104 O116 2.141 . S
C105 O106 1.313 . S
C105 O112 1.195 . S
O106 C105 1.313 . S
C107 O108 1.245 . S
C107 O116 1.289 . S
O108 C107 1.245 . S
C109 O110 1.245 . S
C109 O111 1.289 . S
O110 C109 1.245 . S
O111 Mg104 2.141 . S
O111 C109 1.289 . S
O112 Mg104 2.048 . S
O112 C105 1.195 . S
O113 Mg104 2.048 . S
O113 C114 1.195 . S
C114 O113 1.195 . S
C114 O115 1.313 . S
O115 C114 1.313 . S
O116 Mg104 2.141 . S
O116 C107 1.289 . S
Mg117 O124 2.141 . S
Mg117 O125 2.048 . S
Mg117 O126 2.048 . S
Mg117 O129 2.141 . S
C118 O119 1.313 . S
C118 O125 1.195 . S
O119 C118 1.313 . S
C120 O121 1.245 . S
C120 O129 1.289 . S
O121 C120 1.245 . S
C122 O123 1.245 . S
C122 O124 1.289 . S
O123 C122 1.245 . S
O124 Mg117 2.141 . S
O124 C122 1.289 . S
O125 Mg117 2.048 . S
O125 C118 1.195 . S
O126 Mg117 2.048 . S
O126 C127 1.195 . S
C127 O126 1.195 . S
C127 O128 1.313 . S
O128 C127 1.313 . S
O129 Mg117 2.141 . S
O129 C120 1.289 . S
Mg130 O137 2.141 . S
Mg130 O138 2.048 . S
Mg130 O139 2.048 . S
Mg130 O142 2.141 . S
C131 O132 1.313 . S
C131 O138 1.195 . S
O132 C131 1.313 . S
C133 O134 1.245 . S
C133 O142 1.289 . S
O134 C133 1.245 . S
C135 O136 1.245 . S
C135 O137 1.289 . S
O136 C135 1.245 . S
O137 Mg130 2.141 . S
O137 C135 1.289 . S
O138 Mg130 2.048 . S
O138 C131 1.195 . S
O139 Mg130 2.048 . S
O139 C140 1.195 . S
C140 O139 1.195 . S
C140 O141 1.313 . S
O141 C140 1.313 . S
O142 Mg130 2.141 . S
O142 C133 1.289 . S
Mg143 O150 2.141 . S
Mg143 O151 2.048 . S
Mg143 O152 2.048 . S
Mg143 O155 2.141 . S
C144 O145 1.313 . S
C144 O151 1.195 . S
O145 C144 1.313 . S
C146 O147 1.245 . S
C146 O155 1.289 . S
O147 C146 1.245 . S
C148 O149 1.245 . S
C148 O150 1.289 . S
O149 C148 1.245 . S
O150 Mg143 2.141 . S
O150 C148 1.289 . S
O151 Mg143 2.048 . S
O151 C144 1.195 . S
O152 Mg143 2.048 . S
O152 C153 1.195 . S
C153 O152 1.195 . S
C153 O154 1.313 . S
O154 C153 1.313 . S
O155 Mg143 2.141 . S
O155 C146 1.289 . S
H156 C162 0.930 . S
H157 C166 0.930 . S
H158 C171 0.929 . S
H159 C169 0.929 . S
H160 C164 0.929 . S
H161 C170 0.929 . S
C162 H156 0.930 . S
C162 C163 1.367 . S
C162 C170 1.378 . S
C163 C162 1.367 . S
C163 C171 1.433 . S
C164 H160 0.929 . S
C164 C166 1.378 . S
C164 C168 1.350 . S
C165 C168 1.463 . S
C165 C170 1.350 . S
C165 N173 1.427 . S
C166 H157 0.930 . S
C166 C164 1.378 . S
C166 C167 1.367 . S
C167 C166 1.367 . S
C167 C169 1.433 . S
C168 C164 1.350 . S
C168 C165 1.463 . S
C168 N172 1.427 . S
C169 H159 0.929 . S
C169 C167 1.433 . S
C169 N172 1.384 . S
C170 H161 0.929 . S
C170 C162 1.378 . S
C170 C165 1.350 . S
C171 H158 0.929 . S
C171 C163 1.433 . S
C171 N173 1.384 . S
N172 C168 1.427 . S
N172 C169 1.384 . S
N173 C165 1.427 . S
N173 C171 1.384 . S
H174 C180 0.930 . S
H175 C184 0.930 . S
H176 C189 0.929 . S
H177 C187 0.929 . S
H178 C182 0.929 . S
H179 C188 0.929 . S
C180 H174 0.930 . S
C180 C181 1.367 . S
C180 C188 1.378 . S
C181 C180 1.367 . S
C181 C189 1.433 . S
C182 H178 0.929 . S
C182 C184 1.378 . S
C182 C186 1.350 . S
C183 C186 1.463 . S
C183 C188 1.350 . S
C183 N191 1.427 . S
C184 H175 0.930 . S
C184 C182 1.378 . S
C184 C185 1.367 . S
C185 C184 1.367 . S
C185 C187 1.433 . S
C186 C182 1.350 . S
C186 C183 1.463 . S
C186 N190 1.427 . S
C187 H177 0.929 . S
C187 C185 1.433 . S
C187 N190 1.384 . S
C188 H179 0.929 . S
C188 C180 1.378 . S
C188 C183 1.350 . S
C189 H176 0.929 . S
C189 C181 1.433 . S
C189 N191 1.384 . S
N190 C186 1.427 . S
N190 C187 1.384 . S
N191 C183 1.427 . S
N191 C189 1.384 . S
H192 C198 0.930 . S
H193 C202 0.930 . S
H194 C207 0.929 . S
H195 C205 0.929 . S
H196 C200 0.929 . S
H197 C206 0.929 . S
C198 H192 0.930 . S
C198 C199 1.367 . S
C198 C206 1.378 . S
C199 C198 1.367 . S
C199 C207 1.433 . S
C200 H196 0.929 . S
C200 C202 1.378 . S
C200 C204 1.350 . S
C201 C204 1.463 . S
C201 C206 1.350 . S
C201 N209 1.427 . S
C202 H193 0.930 . S
C202 C200 1.378 . S
C202 C203 1.367 . S
C203 C202 1.367 . S
C203 C205 1.433 . S
C204 C200 1.350 . S
C204 C201 1.463 . S
C204 N208 1.427 . S
C205 H195 0.929 . S
C205 C203 1.433 . S
C205 N208 1.384 . S
C206 H197 0.929 . S
C206 C198 1.378 . S
C206 C201 1.350 . S
C207 H194 0.929 . S
C207 C199 1.433 . S
C207 N209 1.384 . S
N208 C204 1.427 . S
N208 C205 1.384 . S
N209 C201 1.427 . S
N209 C207 1.384 . S
H210 C216 0.930 . S
H211 C220 0.930 . S
H212 C225 0.929 . S
H213 C223 0.929 . S
H214 C218 0.929 . S
H215 C224 0.929 . S
C216 H210 0.930 . S
C216 C217 1.367 . S
C216 C224 1.378 . S
C217 C216 1.367 . S
C217 C225 1.433 . S
C218 H214 0.929 . S
C218 C220 1.378 . S
C218 C222 1.350 . S
C219 C222 1.463 . S
C219 C224 1.350 . S
C219 N227 1.427 . S
C220 H211 0.930 . S
C220 C218 1.378 . S
C220 C221 1.367 . S
C221 C220 1.367 . S
C221 C223 1.433 . S
C222 C218 1.350 . S
C222 C219 1.463 . S
C222 N226 1.427 . S
C223 H213 0.929 . S
C223 C221 1.433 . S
C223 N226 1.384 . S
C224 H215 0.929 . S
C224 C216 1.378 . S
C224 C219 1.350 . S
C225 H212 0.929 . S
C225 C217 1.433 . S
C225 N227 1.384 . S
N226 C222 1.427 . S
N226 C223 1.384 . S
N227 C219 1.427 . S
N227 C225 1.384 . S
H228 C234 0.930 . S
H229 C238 0.930 . S
H230 C243 0.929 . S
H231 C241 0.929 . S
H232 C236 0.929 . S
H233 C242 0.929 . S
C234 H228 0.930 . S
C234 C235 1.367 . S
C234 C242 1.378 . S
C235 C234 1.367 . S
C235 C243 1.433 . S
C236 H232 0.929 . S
C236 C238 1.378 . S
C236 C240 1.350 . S
C237 C240 1.463 . S
C237 C242 1.350 . S
C237 N245 1.427 . S
C238 H229 0.930 . S
C238 C236 1.378 . S
C238 C239 1.367 . S
C239 C238 1.367 . S
C239 C241 1.433 . S
C240 C236 1.350 . S
C240 C237 1.463 . S
C240 N244 1.427 . S
C241 H231 0.929 . S
C241 C239 1.433 . S
C241 N244 1.384 . S
C242 H233 0.929 . S
C242 C234 1.378 . S
C242 C237 1.350 . S
C243 H230 0.929 . S
C243 C235 1.433 . S
C243 N245 1.384 . S
N244 C240 1.427 . S
N244 C241 1.384 . S
N245 C237 1.427 . S
N245 C243 1.384 . S
H246 C252 0.930 . S
H247 C256 0.930 . S
H248 C261 0.929 . S
H249 C259 0.929 . S
H250 C254 0.929 . S
H251 C260 0.929 . S
C252 H246 0.930 . S
C252 C253 1.367 . S
C252 C260 1.378 . S
C253 C252 1.367 . S
C253 C261 1.433 . S
C254 H250 0.929 . S
C254 C256 1.378 . S
C254 C258 1.350 . S
C255 C258 1.463 . S
C255 C260 1.350 . S
C255 N263 1.427 . S
C256 H247 0.930 . S
C256 C254 1.378 . S
C256 C257 1.367 . S
C257 C256 1.367 . S
C257 C259 1.433 . S
C258 C254 1.350 . S
C258 C255 1.463 . S
C258 N262 1.427 . S
C259 H249 0.929 . S
C259 C257 1.433 . S
C259 N262 1.384 . S
C260 H251 0.929 . S
C260 C252 1.378 . S
C260 C255 1.350 . S
C261 H248 0.929 . S
C261 C253 1.433 . S
C261 N263 1.384 . S
N262 C258 1.427 . S
N262 C259 1.384 . S
N263 C255 1.427 . S
N263 C261 1.384 . S
H264 C270 0.930 . S
H265 C274 0.930 . S
H266 C279 0.929 . S
H267 C277 0.929 . S
H268 C272 0.929 . S
H269 C278 0.929 . S
C270 H264 0.930 . S
C270 C271 1.367 . S
C270 C278 1.378 . S
C271 C270 1.367 . S
C271 C279 1.433 . S
C272 H268 0.929 . S
C272 C274 1.378 . S
C272 C276 1.350 . S
C273 C276 1.463 . S
C273 C278 1.350 . S
C273 N281 1.427 . S
C274 H265 0.930 . S
C274 C272 1.378 . S
C274 C275 1.367 . S
C275 C274 1.367 . S
C275 C277 1.433 . S
C276 C272 1.350 . S
C276 C273 1.463 . S
C276 N280 1.427 . S
C277 H267 0.929 . S
C277 C275 1.433 . S
C277 N280 1.384 . S
C278 H269 0.929 . S
C278 C270 1.378 . S
C278 C273 1.350 . S
C279 H266 0.929 . S
C279 C271 1.433 . S
C279 N281 1.384 . S
N280 C276 1.427 . S
N280 C277 1.384 . S
N281 C273 1.427 . S
N281 C279 1.384 . S
H282 C288 0.930 . S
H283 C292 0.930 . S
H284 C297 0.929 . S
H285 C295 0.929 . S
H286 C290 0.929 . S
H287 C296 0.929 . S
C288 H282 0.930 . S
C288 C289 1.367 . S
C288 C296 1.378 . S
C289 C288 1.367 . S
C289 C297 1.433 . S
C290 H286 0.929 . S
C290 C292 1.378 . S
C290 C294 1.350 . S
C291 C294 1.463 1_455 S
C291 C296 1.350 . S
C291 N299 1.427 . S
C292 H283 0.930 . S
C292 C290 1.378 . S
C292 C293 1.367 . S
C293 C292 1.367 . S
C293 C295 1.433 . S
C294 C290 1.350 . S
C294 C291 1.463 1_655 S
C294 N298 1.427 . S
C295 H285 0.929 . S
C295 C293 1.433 . S
C295 N298 1.384 . S
C296 H287 0.929 . S
C296 C288 1.378 . S
C296 C291 1.350 . S
C297 H284 0.929 . S
C297 C289 1.433 . S
C297 N299 1.384 . S
N298 C294 1.427 . S
N298 C295 1.384 . S
N299 C291 1.427 . S
N299 C297 1.384 . S
H300 C306 0.930 . S
H301 C310 0.930 . S
H302 C315 0.929 . S
H303 C313 0.929 . S
H304 C308 0.929 . S
H305 C314 0.929 . S
C306 H300 0.930 . S
C306 C307 1.367 . S
C306 C314 1.378 . S
C307 C306 1.367 . S
C307 C315 1.433 . S
C308 H304 0.929 . S
C308 C310 1.378 . S
C308 C312 1.350 . S
C309 C312 1.463 1_545 S
C309 C314 1.350 . S
C309 N317 1.427 1_545 S
C310 H301 0.930 . S
C310 C308 1.378 . S
C310 C311 1.367 . S
C311 C310 1.367 . S
C311 C313 1.433 . S
C312 C308 1.350 . S
C312 C309 1.463 1_565 S
C312 N316 1.427 1_565 S
C313 H303 0.929 . S
C313 C311 1.433 . S
C313 N316 1.384 1_565 S
C314 H305 0.929 . S
C314 C306 1.378 . S
C314 C309 1.350 . S
C315 H302 0.929 . S
C315 C307 1.433 . S
C315 N317 1.384 1_545 S
N316 C312 1.427 1_545 S
N316 C313 1.384 1_545 S
N317 C309 1.427 1_565 S
N317 C315 1.384 1_565 S
H318 C324 0.930 . S
H319 C328 0.930 . S
H320 C333 0.929 . S
H321 C331 0.929 . S
H322 C326 0.929 . S
H323 C332 0.929 . S
C324 H318 0.930 . S
C324 C325 1.367 . S
C324 C332 1.378 . S
C325 C324 1.367 . S
C325 C333 1.433 . S
C326 H322 0.929 . S
C326 C328 1.378 . S
C326 C330 1.350 . S
C327 C330 1.463 . S
C327 C332 1.350 . S
C327 N335 1.427 . S
C328 H319 0.930 . S
C328 C326 1.378 . S
C328 C329 1.367 . S
C329 C328 1.367 . S
C329 C331 1.433 . S
C330 C326 1.350 . S
C330 C327 1.463 . S
C330 N334 1.427 . S
C331 H321 0.929 . S
C331 C329 1.433 . S
C331 N334 1.384 . S
C332 H323 0.929 . S
C332 C324 1.378 . S
C332 C327 1.350 . S
C333 H320 0.929 . S
C333 C325 1.433 . S
C333 N335 1.384 . S
N334 C330 1.427 . S
N334 C331 1.384 . S
N335 C327 1.427 . S
N335 C333 1.384 . S
H336 C342 0.930 . S
H337 C346 0.930 . S
H338 C351 0.929 . S
H339 C349 0.929 . S
H340 C344 0.929 . S
H341 C350 0.929 . S
C342 H336 0.930 . S
C342 C343 1.367 . S
C342 C350 1.378 . S
C343 C342 1.367 . S
C343 C351 1.433 . S
C344 H340 0.929 . S
C344 C346 1.378 . S
C344 C348 1.350 . S
C345 C348 1.463 1_655 S
C345 C350 1.350 . S
C345 N353 1.427 1_655 S
C346 H337 0.930 . S
C346 C344 1.378 . S
C346 C347 1.367 . S
C347 C346 1.367 . S
C347 C349 1.433 . S
C348 C344 1.350 . S
C348 C345 1.463 1_455 S
C348 N352 1.427 1_455 S
C349 H339 0.929 . S
C349 C347 1.433 . S
C349 N352 1.384 1_455 S
C350 H341 0.929 . S
C350 C342 1.378 . S
C350 C345 1.350 . S
C351 H338 0.929 . S
C351 C343 1.433 . S
C351 N353 1.384 1_655 S
N352 C348 1.427 1_655 S
N352 C349 1.384 1_655 S
N353 C345 1.427 1_455 S
N353 C351 1.384 1_455 S
H354 C360 0.930 . S
H355 C364 0.930 . S
H356 C369 0.929 . S
H357 C367 0.929 . S
H358 C362 0.929 1_565 S
H359 C368 0.929 1_545 S
C360 H354 0.930 . S
C360 C361 1.367 . S
C360 C368 1.378 . S
C361 C360 1.367 . S
C361 C369 1.433 . S
C362 H358 0.929 1_545 S
C362 C364 1.378 . S
C362 C366 1.350 . S
C363 C366 1.463 1_565 S
C363 C368 1.350 . S
C363 N371 1.427 . S
C364 H355 0.930 . S
C364 C362 1.378 . S
C364 C365 1.367 . S
C365 C364 1.367 . S
C365 C367 1.433 . S
C366 C362 1.350 . S
C366 C363 1.463 1_545 S
C366 N370 1.427 . S
C367 H357 0.929 . S
C367 C365 1.433 . S
C367 N370 1.384 . S
C368 H359 0.929 1_565 S
C368 C360 1.378 . S
C368 C363 1.350 . S
C369 H356 0.929 . S
C369 C361 1.433 . S
C369 N371 1.384 . S
N370 C366 1.427 . S
N370 C367 1.384 . S
N371 C363 1.427 . S
N371 C369 1.384 . S
H372 C378 0.930 . S
H373 C382 0.930 . S
H374 C387 0.929 . S
H375 C385 0.929 . S
H376 C380 0.929 . S
H377 C386 0.929 . S
C378 H372 0.930 . S
C378 C379 1.367 . S
C378 C386 1.378 . S
C379 C378 1.367 . S
C379 C387 1.433 . S
C380 H376 0.929 . S
C380 C382 1.378 . S
C380 C384 1.350 . S
C381 C384 1.463 . S
C381 C386 1.350 . S
C381 N389 1.427 . S
C382 H373 0.930 . S
C382 C380 1.378 . S
C382 C383 1.367 . S
C383 C382 1.367 . S
C383 C385 1.433 . S
C384 C380 1.350 . S
C384 C381 1.463 . S
C384 N388 1.427 . S
C385 H375 0.929 . S
C385 C383 1.433 . S
C385 N388 1.384 . S
C386 H377 0.929 . S
C386 C378 1.378 . S
C386 C381 1.350 . S
C387 H374 0.929 . S
C387 C379 1.433 . S
C387 N389 1.384 . S
N388 C384 1.427 . S
N388 C385 1.384 . S
N389 C381 1.427 . S
N389 C387 1.384 . S
H390 C396 0.930 . S
H391 C400 0.930 . S
H392 C405 0.929 . S
H393 C403 0.929 . S
H394 C398 0.929 . S
H395 C404 0.929 . S
C396 H390 0.930 . S
C396 C397 1.367 . S
C396 C404 1.378 . S
C397 C396 1.367 . S
C397 C405 1.433 . S
C398 H394 0.929 . S
C398 C400 1.378 . S
C398 C402 1.350 . S
C399 C402 1.463 1_655 S
C399 C404 1.350 . S
C399 N407 1.427 . S
C400 H391 0.930 . S
C400 C398 1.378 . S
C400 C401 1.367 . S
C401 C400 1.367 . S
C401 C403 1.433 . S
C402 C398 1.350 . S
C402 C399 1.463 1_455 S
C402 N406 1.427 . S
C403 H393 0.929 . S
C403 C401 1.433 . S
C403 N406 1.384 . S
C404 H395 0.929 . S
C404 C396 1.378 . S
C404 C399 1.350 . S
C405 H392 0.929 . S
C405 C397 1.433 . S
C405 N407 1.384 . S
N406 C402 1.427 . S
N406 C403 1.384 . S
N407 C399 1.427 . S
N407 C405 1.384 . S
H408 C414 0.930 1_545 S
H409 C418 0.930 1_565 S
H410 C423 0.929 . S
H411 C421 0.929 . S
H412 C416 0.929 . S
H413 C422 0.929 . S
C414 H408 0.930 1_565 S
C414 C415 1.367 . S
C414 C422 1.378 1_565 S
C415 C414 1.367 . S
C415 C423 1.433 . S
C416 H412 0.929 . S
C416 C418 1.378 1_565 S
C416 C420 1.350 1_565 S
C417 C420 1.463 1_566 S
C417 C422 1.350 1_565 S
C417 N425 1.427 . S
C418 H409 0.930 1_545 S
C418 C416 1.378 1_545 S
C418 C419 1.367 . S
C419 C418 1.367 . S
C419 C421 1.433 . S
C420 C416 1.350 1_545 S
C420 C417 1.463 1_544 S
C420 N424 1.427 . S
C421 H411 0.929 . S
C421 C419 1.433 . S
C421 N424 1.384 . S
C422 H413 0.929 . S
C422 C414 1.378 1_545 S
C422 C417 1.350 1_545 S
C423 H410 0.929 . S
C423 C415 1.433 . S
C423 N425 1.384 . S
N424 C420 1.427 . S
N424 C421 1.384 . S
N425 C417 1.427 . S
N425 C423 1.384 . S
H426 C432 0.930 . S
H427 C436 0.930 . S
H428 C441 0.929 . S
H429 C439 0.929 . S
H430 C434 0.929 . S
H431 C440 0.929 . S
C432 H426 0.930 . S
C432 C433 1.367 . S
C432 C440 1.378 . S
C433 C432 1.367 . S
C433 C441 1.433 . S
C434 H430 0.929 . S
C434 C436 1.378 . S
C434 C438 1.350 . S
C435 C438 1.463 . S
C435 C440 1.350 . S
C435 N443 1.427 . S
C436 H427 0.930 . S
C436 C434 1.378 . S
C436 C437 1.367 . S
C437 C436 1.367 . S
C437 C439 1.433 . S
C438 C434 1.350 . S
C438 C435 1.463 . S
C438 N442 1.427 . S
C439 H429 0.929 . S
C439 C437 1.433 . S
C439 N442 1.384 . S
C440 H431 0.929 . S
C440 C432 1.378 . S
C440 C435 1.350 . S
C441 H428 0.929 . S
C441 C433 1.433 . S
C441 N443 1.384 . S
N442 C438 1.427 . S
N442 C439 1.384 . S
N443 C435 1.427 . S
N443 C441 1.384 . S
H444 C450 0.930 . S
H445 C454 0.930 . S
H446 C459 0.929 . S
H447 C457 0.929 . S
H448 C452 0.929 . S
H449 C458 0.929 . S
C450 H444 0.930 . S
C450 C451 1.367 . S
C450 C458 1.378 . S
C451 C450 1.367 . S
C451 C459 1.433 . S
C452 H448 0.929 . S
C452 C454 1.378 . S
C452 C456 1.350 . S
C453 C456 1.463 1_455 S
C453 C458 1.350 . S
C453 N461 1.427 1_455 S
C454 H445 0.930 . S
C454 C452 1.378 . S
C454 C455 1.367 . S
C455 C454 1.367 . S
C455 C457 1.433 . S
C456 C452 1.350 . S
C456 C453 1.463 1_655 S
C456 N460 1.427 1_655 S
C457 H447 0.929 . S
C457 C455 1.433 . S
C457 N460 1.384 1_655 S
C458 H449 0.929 . S
C458 C450 1.378 . S
C458 C453 1.350 . S
C459 H446 0.929 . S
C459 C451 1.433 . S
C459 N461 1.384 1_455 S
N460 C456 1.427 1_455 S
N460 C457 1.384 1_455 S
N461 C453 1.427 1_655 S
N461 C459 1.384 1_655 S
H462 C468 0.930 . S
H463 C472 0.930 . S
H464 C477 0.929 . S
H465 C475 0.929 . S
H466 C470 0.929 . S
H467 C476 0.929 . S
C468 H462 0.930 . S
C468 C469 1.367 . S
C468 C476 1.378 . S
C469 C468 1.367 . S
C469 C477 1.433 . S
C470 H466 0.929 . S
C470 C472 1.378 . S
C470 C474 1.350 . S
C471 C474 1.463 1_564 S
C471 C476 1.350 . S
C471 N479 1.427 1_565 S
C472 H463 0.930 . S
C472 C470 1.378 . S
C472 C473 1.367 . S
C473 C472 1.367 . S
C473 C475 1.433 . S
C474 C470 1.350 . S
C474 C471 1.463 1_546 S
C474 N478 1.427 1_545 S
C475 H465 0.929 . S
C475 C473 1.433 . S
C475 N478 1.384 1_545 S
C476 H467 0.929 . S
C476 C468 1.378 . S
C476 C471 1.350 . S
C477 H464 0.929 . S
C477 C469 1.433 . S
C477 N479 1.384 1_565 S
N478 C474 1.427 1_565 S
N478 C475 1.384 1_565 S
N479 C471 1.427 1_545 S
N479 C477 1.384 1_545 S
H480 C486 0.930 . S
H481 C490 0.930 . S
H482 C495 0.929 . S
H483 C493 0.929 . S
H484 C488 0.929 . S
H485 C494 0.929 . S
C486 H480 0.930 . S
C486 C487 1.367 . S
C486 C494 1.378 . S
C487 C486 1.367 . S
C487 C495 1.433 . S
C488 H484 0.929 . S
C488 C490 1.378 . S
C488 C492 1.350 . S
C489 C492 1.463 1_655 S
C489 C494 1.350 . S
C489 N497 1.427 . S
C490 H481 0.930 . S
C490 C488 1.378 . S
C490 C491 1.367 . S
C491 C490 1.367 . S
C491 C493 1.433 . S
C492 C488 1.350 . S
C492 C489 1.463 1_455 S
C492 N496 1.427 . S
C493 H483 0.929 . S
C493 C491 1.433 . S
C493 N496 1.384 . S
C494 H485 0.929 . S
C494 C486 1.378 . S
C494 C489 1.350 . S
C495 H482 0.929 . S
C495 C487 1.433 . S
C495 N497 1.384 . S
N496 C492 1.427 . S
N496 C493 1.384 . S
N497 C489 1.427 . S
N497 C495 1.384 . S
H498 C504 0.930 . S
H499 C508 0.930 . S
H500 C513 0.929 . S
H501 C511 0.929 . S
H502 C506 0.929 . S
H503 C512 0.929 . S
C504 H498 0.930 . S
C504 C505 1.367 . S
C504 C512 1.378 . S
C505 C504 1.367 . S
C505 C513 1.433 . S
C506 H502 0.929 . S
C506 C508 1.378 . S
C506 C510 1.350 . S
C507 C510 1.463 1_545 S
C507 C512 1.350 . S
C507 N515 1.427 . S
C508 H499 0.930 . S
C508 C506 1.378 . S
C508 C509 1.367 . S
C509 C508 1.367 . S
C509 C511 1.433 . S
C510 C506 1.350 . S
C510 C507 1.463 1_565 S
C510 N514 1.427 . S
C511 H501 0.929 . S
C511 C509 1.433 . S
C511 N514 1.384 . S
C512 H503 0.929 . S
C512 C504 1.378 . S
C512 C507 1.350 . S
C513 H500 0.929 . S
C513 C505 1.433 . S
C513 N515 1.384 . S
N514 C510 1.427 . S
N514 C511 1.384 . S
N515 C507 1.427 . S
N515 C513 1.384 . S
H516 C522 0.930 . S
H517 C526 0.930 . S
H518 C531 0.929 . S
H519 C529 0.929 . S
H520 C524 0.929 . S
H521 C530 0.929 . S
C522 H516 0.930 . S
C522 C523 1.367 . S
C522 C530 1.378 . S
C523 C522 1.367 . S
C523 C531 1.433 . S
C524 H520 0.929 . S
C524 C526 1.378 . S
C524 C528 1.350 . S
C525 C528 1.463 . S
C525 C530 1.350 . S
C525 N533 1.427 . S
C526 H517 0.930 . S
C526 C524 1.378 . S
C526 C527 1.367 . S
C527 C526 1.367 . S
C527 C529 1.433 . S
C528 C524 1.350 . S
C528 C525 1.463 . S
C528 N532 1.427 . S
C529 H519 0.929 . S
C529 C527 1.433 . S
C529 N532 1.384 . S
C530 H521 0.929 . S
C530 C522 1.378 . S
C530 C525 1.350 . S
C531 H518 0.929 . S
C531 C523 1.433 . S
C531 N533 1.384 . S
N532 C528 1.427 . S
N532 C529 1.384 . S
N533 C525 1.427 . S
N533 C531 1.384 . S
H534 C540 0.930 . S
H535 C544 0.930 . S
H536 C549 0.929 . S
H537 C547 0.929 . S
H538 C542 0.929 . S
H539 C548 0.929 . S
C540 H534 0.930 . S
C540 C541 1.367 . S
C540 C548 1.378 . S
C541 C540 1.367 . S
C541 C549 1.433 . S
C542 H538 0.929 . S
C542 C544 1.378 . S
C542 C546 1.350 . S
C543 C546 1.463 1_655 S
C543 C548 1.350 . S
C543 N551 1.427 . S
C544 H535 0.930 . S
C544 C542 1.378 . S
C544 C545 1.367 . S
C545 C544 1.367 . S
C545 C547 1.433 . S
C546 C542 1.350 . S
C546 C543 1.463 1_455 S
C546 N550 1.427 . S
C547 H537 0.929 . S
C547 C545 1.433 . S
C547 N550 1.384 . S
C548 H539 0.929 . S
C548 C540 1.378 . S
C548 C543 1.350 . S
C549 H536 0.929 . S
C549 C541 1.433 . S
C549 N551 1.384 . S
N550 C546 1.427 . S
N550 C547 1.384 . S
N551 C543 1.427 . S
N551 C549 1.384 . S
H552 C558 0.930 . S
H553 C562 0.930 . S
H554 C567 0.929 . S
H555 C565 0.929 . S
H556 C560 0.929 . S
H557 C566 0.929 . S
C558 H552 0.930 . S
C558 C559 1.367 . S
C558 C566 1.378 . S
C559 C558 1.367 . S
C559 C567 1.433 . S
C560 H556 0.929 . S
C560 C562 1.378 . S
C560 C564 1.350 . S
C561 C564 1.463 1_565 S
C561 C566 1.350 . S
C561 N569 1.427 . S
C562 H553 0.930 . S
C562 C560 1.378 . S
C562 C563 1.367 . S
C563 C562 1.367 . S
C563 C565 1.433 . S
C564 C560 1.350 . S
C564 C561 1.463 1_545 S
C564 N568 1.427 . S
C565 H555 0.929 . S
C565 C563 1.433 . S
C565 N568 1.384 . S
C566 H557 0.929 . S
C566 C558 1.378 . S
C566 C561 1.350 . S
C567 H554 0.929 . S
C567 C559 1.433 . S
C567 N569 1.384 . S
N568 C564 1.427 . S
N568 C565 1.384 . S
N569 C561 1.427 . S
N569 C567 1.384 . S
H570 C576 0.930 . S
H571 C580 0.930 . S
H572 C585 0.929 . S
H573 C583 0.929 . S
H574 C578 0.929 . S
H575 C584 0.929 . S
C576 H570 0.930 . S
C576 C577 1.367 . S
C576 C584 1.378 . S
C577 C576 1.367 . S
C577 C585 1.433 . S
C578 H574 0.929 . S
C578 C580 1.378 . S
C578 C582 1.350 . S
C579 C582 1.463 . S
C579 C584 1.350 . S
C579 N587 1.427 . S
C580 H571 0.930 . S
C580 C578 1.378 . S
C580 C581 1.367 . S
C581 C580 1.367 . S
C581 C583 1.433 . S
C582 C578 1.350 . S
C582 C579 1.463 . S
C582 N586 1.427 . S
C583 H573 0.929 . S
C583 C581 1.433 . S
C583 N586 1.384 . S
C584 H575 0.929 . S
C584 C576 1.378 . S
C584 C579 1.350 . S
C585 H572 0.929 . S
C585 C577 1.433 . S
C585 N587 1.384 . S
N586 C582 1.427 . S
N586 C583 1.384 . S
N587 C579 1.427 . S
N587 C585 1.384 . S
C163 C105 2.597 . S
C167 C1 2.596 . S
C181 C23 2.459 . S
C185 C127 2.460 . S
C199 C27 2.589 . S
C203 C131 2.591 . S
C217 C40 2.597 . S
C221 C144 2.596 . S
C235 C88 2.451 . S
C239 C62 2.450 . S
C253 C66 2.588 . S
C257 C92 2.588 . S
C271 C49 1.351 . S
C275 C10 1.348 . S
C289 C53 1.369 . S
C293 C14 1.366 . S
C307 C75 1.356 . S
C311 C36 1.357 . S
C325 C79 1.366 . S
C329 C118 1.369 . S
C343 C101 1.356 . S
C347 C140 1.357 . S
C361 C114 1.352 . S
C365 C153 1.348 . S
C379 C3 2.109 . S
C383 C122 1.943 . S
C397 C18 1.953 . S
C401 C133 2.108 . S
C415 C29 2.112 . S
C419 C146 2.116 . S
C433 C83 1.944 . S
C437 C42 2.112 . S
C451 C57 1.944 . S
C455 C94 2.112 . S
C469 C107 2.112 . S
C473 C68 2.108 . S
C487 C148 1.285 . S
C491 C5 1.289 . S
C505 C16 1.318 . S
C509 C81 1.315 . S
C523 C96 1.290 . S
C527 C31 1.293 . S
C541 C44 1.293 . S
C545 C109 1.292 . S
C559 C55 1.318 . S
C563 C120 1.316 . S
C577 C135 1.290 . S
C581 C70 1.293 . S
