# Generated by pormake.
# Topology zfq, (5)-cn, num edge types: 1
# Building blocks:
#     Node 0, Type 0, BuildingBlock: BEQFEK_clean_sbu_0, # of connection points: 5
#     Node 1, Type 0, BuildingBlock: BEQFEK_clean_sbu_0, # of connection points: 5
#     Node 2, Type 0, BuildingBlock: BEQFEK_clean_sbu_0, # of connection points: 5
#     Node 3, Type 0, BuildingBlock: BEQFEK_clean_sbu_0, # of connection points: 5
#     Node 4, Type 0, BuildingBlock: BEQFEK_clean_sbu_0, # of connection points: 5
#     Node 5, Type 0, BuildingBlock: BEQFEK_clean_sbu_0, # of connection points: 5
#     Node 6, Type 0, BuildingBlock: BEQFEK_clean_sbu_0, # of connection points: 5
#     Node 7, Type 0, BuildingBlock: BEQFEK_clean_sbu_0, # of connection points: 5
#     Node 8, Type 0, BuildingBlock: BEQFEK_clean_sbu_0, # of connection points: 5
#     Node 9, Type 0, BuildingBlock: BEQFEK_clean_sbu_0, # of connection points: 5
#     Node 10, Type 0, BuildingBlock: BEQFEK_clean_sbu_0, # of connection points: 5
#     Node 11, Type 0, BuildingBlock: BEQFEK_clean_sbu_0, # of connection points: 5
#     Node 12, Type 0, BuildingBlock: BEQFEK_clean_sbu_0, # of connection points: 5
#     Node 13, Type 0, BuildingBlock: BEQFEK_clean_sbu_0, # of connection points: 5
#     Node 14, Type 0, BuildingBlock: BEQFEK_clean_sbu_0, # of connection points: 5
#     Node 15, Type 0, BuildingBlock: BEQFEK_clean_sbu_0, # of connection points: 5
#     Edge 16, Type (0, 0), BuildingBlock: ZUJKAS_clean_linker_0, # of connection points: 2
#     Edge 17, Type (0, 0), BuildingBlock: ZUJKAS_clean_linker_0, # of connection points: 2
#     Edge 18, Type (0, 0), BuildingBlock: ZUJKAS_clean_linker_0, # of connection points: 2
#     Edge 19, Type (0, 0), BuildingBlock: ZUJKAS_clean_linker_0, # of connection points: 2
#     Edge 20, Type (0, 0), BuildingBlock: ZUJKAS_clean_linker_0, # of connection points: 2
#     Edge 21, Type (0, 0), BuildingBlock: ZUJKAS_clean_linker_0, # of connection points: 2
#     Edge 22, Type (0, 0), BuildingBlock: ZUJKAS_clean_linker_0, # of connection points: 2
#     Edge 23, Type (0, 0), BuildingBlock: ZUJKAS_clean_linker_0, # of connection points: 2
#     Edge 24, Type (0, 0), BuildingBlock: ZUJKAS_clean_linker_0, # of connection points: 2
#     Edge 25, Type (0, 0), BuildingBlock: ZUJKAS_clean_linker_0, # of connection points: 2
#     Edge 26, Type (0, 0), BuildingBlock: ZUJKAS_clean_linker_0, # of connection points: 2
#     Edge 27, Type (0, 0), BuildingBlock: ZUJKAS_clean_linker_0, # of connection points: 2
#     Edge 28, Type (0, 0), BuildingBlock: ZUJKAS_clean_linker_0, # of connection points: 2
#     Edge 29, Type (0, 0), BuildingBlock: ZUJKAS_clean_linker_0, # of connection points: 2
#     Edge 30, Type (0, 0), BuildingBlock: ZUJKAS_clean_linker_0, # of connection points: 2
#     Edge 31, Type (0, 0), BuildingBlock: ZUJKAS_clean_linker_0, # of connection points: 2
#     Edge 32, Type (0, 0), BuildingBlock: ZUJKAS_clean_linker_0, # of connection points: 2
#     Edge 33, Type (0, 0), BuildingBlock: ZUJKAS_clean_linker_0, # of connection points: 2
#     Edge 34, Type (0, 0), BuildingBlock: ZUJKAS_clean_linker_0, # of connection points: 2
#     Edge 35, Type (0, 0), BuildingBlock: ZUJKAS_clean_linker_0, # of connection points: 2
#     Edge 36, Type (0, 0), BuildingBlock: ZUJKAS_clean_linker_0, # of connection points: 2
#     Edge 37, Type (0, 0), BuildingBlock: ZUJKAS_clean_linker_0, # of connection points: 2
#     Edge 38, Type (0, 0), BuildingBlock: ZUJKAS_clean_linker_0, # of connection points: 2
#     Edge 39, Type (0, 0), BuildingBlock: ZUJKAS_clean_linker_0, # of connection points: 2
#     Edge 40, Type (0, 0), BuildingBlock: ZUJKAS_clean_linker_0, # of connection points: 2
#     Edge 41, Type (0, 0), BuildingBlock: ZUJKAS_clean_linker_0, # of connection points: 2
#     Edge 42, Type (0, 0), BuildingBlock: ZUJKAS_clean_linker_0, # of connection points: 2
#     Edge 43, Type (0, 0), BuildingBlock: ZUJKAS_clean_linker_0, # of connection points: 2
#     Edge 44, Type (0, 0), BuildingBlock: ZUJKAS_clean_linker_0, # of connection points: 2
#     Edge 45, Type (0, 0), BuildingBlock: ZUJKAS_clean_linker_0, # of connection points: 2
#     Edge 46, Type (0, 0), BuildingBlock: ZUJKAS_clean_linker_0, # of connection points: 2
#     Edge 47, Type (0, 0), BuildingBlock: ZUJKAS_clean_linker_0, # of connection points: 2
#     Edge 48, Type (0, 0), BuildingBlock: ZUJKAS_clean_linker_0, # of connection points: 2
#     Edge 49, Type (0, 0), BuildingBlock: ZUJKAS_clean_linker_0, # of connection points: 2
#     Edge 50, Type (0, 0), BuildingBlock: ZUJKAS_clean_linker_0, # of connection points: 2
#     Edge 51, Type (0, 0), BuildingBlock: ZUJKAS_clean_linker_0, # of connection points: 2
#     Edge 52, Type (0, 0), BuildingBlock: ZUJKAS_clean_linker_0, # of connection points: 2
#     Edge 53, Type (0, 0), BuildingBlock: ZUJKAS_clean_linker_0, # of connection points: 2
#     Edge 54, Type (0, 0), BuildingBlock: ZUJKAS_clean_linker_0, # of connection points: 2
#     Edge 55, Type (0, 0), BuildingBlock: ZUJKAS_clean_linker_0, # of connection points: 2
# Relax obj value: 0.130
# Max RMSD: 0.183
# Mean RMSD: 0.183
data_MOF--net-zfq--node1-BEQFEK_clean_sbu_0--edge1-ZUJKAS_clean_linker_0
_symmetry_space_group_name_H-M    P1
_symmetry_Int_Tables_number       1
_symmetry_cell_setting            triclinic
loop_
_symmetry_equiv_pos_as_xyz
'x, y, z'
_cell_length_a     37.366086
_cell_length_b     37.385014
_cell_length_c     93.988335
_cell_angle_alpha  89.973915
_cell_angle_beta   90.00685
_cell_angle_gamma 90.013854
loop_
_atom_site_label
_atom_site_type_symbol
_atom_site_fract_x
_atom_site_fract_y
_atom_site_fract_z
_atom_type_partial_charge
Co0 Co 0.17854 0.19349 0.14711 0.0
Co1 Co 0.18041 0.19079 0.11361 0.0
C2 C 0.14193 0.24901 0.12893 0.0
O3 O 0.15066 0.23608 0.141 0.0
O4 O 0.15239 0.23457 0.11738 0.0
C5 C 0.19436 0.2225 0.17499 0.0
O6 O 0.20166 0.25216 0.16807 0.0
C7 C 0.19064 0.21066 0.0834 0.0
C8 C 0.20054 0.15768 0.07375 0.0
C9 C 0.19818 0.19379 0.07057 0.0
N10 N 0.18865 0.18558 0.09365 0.0
N11 N 0.19431 0.15398 0.08777 0.0
C12 C 0.18832 0.24999 0.08617 0.0
H13 H 0.16004 0.25862 0.08509 0.0
H14 H 0.19736 0.25606 0.09715 0.0
H15 H 0.2048 0.2652 0.07843 0.0
C16 C 0.25687 0.18572 0.14282 0.0
N17 N 0.22338 0.19014 0.1378 0.0
N18 N 0.22425 0.19017 0.12379 0.0
C19 C 0.25843 0.18651 0.11946 0.0
C20 C 0.28017 0.18322 0.13137 0.0
C21 C 0.26587 0.18094 0.15822 0.0
H22 H 0.24513 0.16435 0.16348 0.0
H23 H 0.26642 0.20752 0.16346 0.0
H24 H 0.29235 0.16799 0.15961 0.0
O25 O 0.1493 0.15096 0.14286 0.0
O26 O 0.15022 0.14954 0.11925 0.0
H27 H 0.2635 0.16149 0.09913 0.0
H28 H 0.2993 0.19224 0.10326 0.0
C29 C 0.27011 0.1874 0.10424 0.0
H30 H 0.25572 0.20897 0.09853 0.0
H31 H 0.19447 0.12991 0.09339 0.0
O32 O 0.18447 0.19501 0.16808 0.0
C33 C 0.13985 0.13682 0.13113 0.0
Co34 Co 0.18835 0.82193 0.85477 0.0
Co35 Co 0.18718 0.82263 0.88829 0.0
C36 C 0.24347 0.86161 0.87138 0.0
O37 O 0.23067 0.85128 0.85951 0.0
O38 O 0.2293 0.85221 0.88312 0.0
C39 C 0.21355 0.81602 0.82579 0.0
O40 O 0.24496 0.82413 0.83118 0.0
C41 C 0.21287 0.80814 0.91755 0.0
C42 C 0.16256 0.81313 0.92971 0.0
C43 C 0.19877 0.80593 0.93129 0.0
N44 N 0.1861 0.81594 0.90847 0.0
N45 N 0.15616 0.81897 0.91583 0.0
C46 C 0.25107 0.80417 0.91303 0.0
H47 H 0.25542 0.81562 0.90233 0.0
H48 H 0.25793 0.77533 0.91249 0.0
H49 H 0.26915 0.81746 0.92077 0.0
C50 C 0.18513 0.74421 0.85993 0.0
N51 N 0.18783 0.77803 0.8647 0.0
N52 N 0.18684 0.77799 0.87869 0.0
C53 C 0.18321 0.74401 0.88329 0.0
C54 C 0.1819 0.72154 0.87154 0.0
C55 C 0.18616 0.73406 0.84453 0.0
H56 H 0.20958 0.74691 0.8394 0.0
H57 H 0.18813 0.7047 0.84305 0.0
H58 H 0.16165 0.7441 0.8392 0.0
O59 O 0.14532 0.85014 0.85949 0.0
O60 O 0.14406 0.85053 0.88311 0.0
H61 H 0.1695 0.70534 0.89962 0.0
H62 H 0.20327 0.73773 0.90442 0.0
C63 C 0.17789 0.73367 0.89853 0.0
H64 H 0.15715 0.751 0.90337 0.0
H65 H 0.13133 0.82497 0.91137 0.0
O66 O 0.18661 0.81353 0.83399 0.0
C67 C 0.13088 0.85969 0.87115 0.0
Co68 Co 0.82292 0.81351 0.1455 0.0
Co69 Co 0.82794 0.81479 0.11205 0.0
C70 C 0.8633 0.75745 0.1296 0.0
O71 O 0.85162 0.77038 0.14124 0.0
O72 O 0.85583 0.77194 0.11769 0.0
C73 C 0.81381 0.78808 0.17434 0.0
O74 O 0.8218 0.75665 0.16896 0.0
C75 C 0.81609 0.79053 0.08246 0.0
C76 C 0.82724 0.84033 0.07058 0.0
C77 C 0.81743 0.80487 0.06879 0.0
N78 N 0.82441 0.81652 0.0918 0.0
N79 N 0.83111 0.84615 0.08461 0.0
C80 C 0.80892 0.75252 0.08659 0.0
H81 H 0.82011 0.74661 0.09724 0.0
H82 H 0.77963 0.74799 0.08707 0.0
H83 H 0.82048 0.73393 0.07862 0.0
C84 C 0.74571 0.81695 0.13871 0.0
N85 N 0.78022 0.81497 0.13468 0.0
N86 N 0.78209 0.81617 0.1207 0.0
C87 C 0.74874 0.81951 0.11539 0.0
C88 C 0.72461 0.82003 0.12661 0.0
C89 C 0.73346 0.81444 0.15383 0.0
H90 H 0.74651 0.79121 0.15902 0.0
H91 H 0.70403 0.81129 0.15464 0.0
H92 H 0.7418 0.83892 0.15963 0.0
O93 O 0.85309 0.85593 0.14142 0.0
O94 O 0.85606 0.85692 0.11784 0.0
H95 H 0.71282 0.83533 0.09843 0.0
H96 H 0.74275 0.79896 0.09433 0.0
C97 C 0.74033 0.82487 0.09996 0.0
H98 H 0.75962 0.84396 0.09521 0.0
H99 H 0.83837 0.87039 0.08928 0.0
O100 O 0.81226 0.81515 0.16617 0.0
C101 C 0.8643 0.86997 0.12991 0.0
Co102 Co 0.80567 0.17465 0.8554 0.0
Co103 Co 0.80861 0.17018 0.88875 0.0
C104 C 0.75014 0.13494 0.87177 0.0
O105 O 0.76251 0.14645 0.86001 0.0
O106 O 0.76531 0.14248 0.88353 0.0
C107 C 0.80043 0.16065 0.82587 0.0
O108 O 0.79655 0.1277 0.8305 0.0
C109 C 0.78545 0.18345 0.91828 0.0
C110 C 0.83476 0.17027 0.93016 0.0
C111 C 0.79973 0.18162 0.93193 0.0
N112 N 0.81104 0.17391 0.90895 0.0
N113 N 0.84039 0.16603 0.91614 0.0
C114 C 0.74775 0.19214 0.91414 0.0
H115 H 0.74144 0.1813 0.90347 0.0
H116 H 0.74438 0.22159 0.91369 0.0
H117 H 0.72868 0.18128 0.9221 0.0
C118 C 0.81087 0.2517 0.86187 0.0
N119 N 0.80812 0.2174 0.86606 0.0
N120 N 0.81013 0.21584 0.88003 0.0
C121 C 0.81493 0.24916 0.88516 0.0
C122 C 0.8155 0.27296 0.87382 0.0
C123 C 0.80797 0.26364 0.8467 0.0
H124 H 0.7851 0.24991 0.84153 0.0
H125 H 0.80404 0.29296 0.84586 0.0
H126 H 0.83272 0.25598 0.84093 0.0
O127 O 0.84823 0.1442 0.85906 0.0
O128 O 0.85023 0.14181 0.88265 0.0
H129 H 0.84051 0.2376 0.90506 0.0
H130 H 0.83402 0.28467 0.9017 0.0
C131 C 0.82204 0.2577 0.90046 0.0
H132 H 0.79653 0.25679 0.90646 0.0
H133 H 0.86427 0.15765 0.91146 0.0
O134 O 0.80478 0.18568 0.83484 0.0
C135 C 0.86271 0.1332 0.87053 0.0
Co136 Co 0.82185 0.18568 0.64637 0.0
Co137 Co 0.82206 0.18047 0.61302 0.0
C138 C 0.86119 0.23889 0.62823 0.0
O139 O 0.85099 0.22746 0.64035 0.0
O140 O 0.85158 0.22343 0.61676 0.0
C141 C 0.81488 0.21531 0.6748 0.0
O142 O 0.82041 0.24652 0.66875 0.0
C143 C 0.81323 0.19972 0.58283 0.0
C144 C 0.80157 0.14688 0.57334 0.0
C145 C 0.80486 0.18287 0.57011 0.0
N146 N 0.81473 0.17475 0.59311 0.0
N147 N 0.80819 0.1432 0.58733 0.0
C148 C 0.81637 0.23904 0.58549 0.0
H149 H 0.84493 0.24693 0.58467 0.0
H150 H 0.80685 0.24554 0.59637 0.0
H151 H 0.80078 0.25455 0.57755 0.0
C152 C 0.74364 0.18231 0.64146 0.0
N153 N 0.77759 0.18368 0.63668 0.0
N154 N 0.7775 0.18207 0.6227 0.0
C155 C 0.74338 0.17991 0.61812 0.0
C156 C 0.72084 0.17971 0.62986 0.0
C157 C 0.73368 0.18131 0.65688 0.0
H158 H 0.75024 0.16105 0.66244 0.0
H159 H 0.73944 0.20775 0.66173 0.0
H160 H 0.70499 0.17474 0.65842 0.0
O161 O 0.85015 0.14202 0.64271 0.0
O162 O 0.85009 0.13847 0.61916 0.0
H163 H 0.73939 0.15326 0.59808 0.0
H164 H 0.70344 0.18439 0.60146 0.0
C165 C 0.73253 0.17957 0.60279 0.0
H166 H 0.74733 0.20062 0.59695 0.0
H167 H 0.80731 0.11925 0.59303 0.0
O168 O 0.81418 0.18727 0.66717 0.0
C169 C 0.85953 0.12648 0.63126 0.0
Co170 Co 0.19216 0.17321 0.35493 0.0
Co171 Co 0.1866 0.1702 0.38835 0.0
C172 C 0.24593 0.13359 0.37244 0.0
O173 O 0.23437 0.14443 0.36044 0.0
O174 O 0.23025 0.14213 0.38399 0.0
C175 C 0.22248 0.18485 0.32696 0.0
O176 O 0.25338 0.18172 0.33352 0.0
C177 C 0.20821 0.18407 0.41791 0.0
C178 C 0.15758 0.17489 0.42949 0.0
C179 C 0.19312 0.1844 0.43146 0.0
N180 N 0.18272 0.17482 0.4085 0.0
N181 N 0.1526 0.16914 0.4155 0.0
C182 C 0.24529 0.19466 0.41364 0.0
H183 H 0.24594 0.20241 0.40224 0.0
H184 H 0.25498 0.21719 0.4203 0.0
H185 H 0.26349 0.17152 0.41514 0.0
C186 C 0.18671 0.25068 0.36086 0.0
N187 N 0.18931 0.21654 0.36529 0.0
N188 N 0.18634 0.21553 0.37924 0.0
C189 C 0.1813 0.24907 0.38412 0.0
C190 C 0.18135 0.27242 0.37263 0.0
C191 C 0.19027 0.26201 0.34564 0.0
H192 H 0.16737 0.2513 0.33945 0.0
H193 H 0.21518 0.25056 0.34116 0.0
H194 H 0.1913 0.2915 0.3445 0.0
O195 O 0.1489 0.14376 0.35838 0.0
O196 O 0.14509 0.14189 0.38194 0.0
H197 H 0.15386 0.23881 0.40372 0.0
H198 H 0.16226 0.28555 0.40036 0.0
C199 C 0.17338 0.25817 0.39931 0.0
H200 H 0.1984 0.2564 0.40561 0.0
H201 H 0.12856 0.16172 0.41071 0.0
O202 O 0.1937 0.18257 0.33412 0.0
C203 C 0.13338 0.13324 0.3697 0.0
Co204 Co 0.17299 0.80089 0.64581 0.0
Co205 Co 0.17395 0.80781 0.61251 0.0
C206 C 0.13638 0.74735 0.62691 0.0
O207 O 0.1453 0.75888 0.63917 0.0
O208 O 0.14624 0.76338 0.6156 0.0
C209 C 0.15565 0.79176 0.67517 0.0
O210 O 0.12277 0.78951 0.67029 0.0
C211 C 0.18429 0.79088 0.58219 0.0
C212 C 0.19456 0.84457 0.57321 0.0
C213 C 0.19238 0.8087 0.56965 0.0
N214 N 0.18179 0.81516 0.59269 0.0
N215 N 0.18756 0.84722 0.58722 0.0
C216 C 0.18233 0.75132 0.58448 0.0
H217 H 0.19169 0.74445 0.59534 0.0
H218 H 0.1987 0.73682 0.57649 0.0
H219 H 0.15408 0.74258 0.58341 0.0
C220 C 0.25085 0.80794 0.64148 0.0
N221 N 0.21732 0.80517 0.63638 0.0
N222 N 0.2181 0.80731 0.62241 0.0
C223 C 0.25233 0.81109 0.61815 0.0
C224 C 0.27417 0.81187 0.6301 0.0
C225 C 0.25978 0.80936 0.657 0.0
H226 H 0.242 0.82892 0.66236 0.0
H227 H 0.25484 0.78271 0.66182 0.0
H228 H 0.28802 0.81722 0.65885 0.0
O229 O 0.1436 0.844 0.64265 0.0
O230 O 0.1441 0.84829 0.61909 0.0
H231 H 0.25674 0.83893 0.59838 0.0
H232 H 0.29324 0.80848 0.60183 0.0
C233 C 0.26397 0.81253 0.60293 0.0
H234 H 0.24997 0.79148 0.59678 0.0
H235 H 0.18759 0.87084 0.59313 0.0
O236 O 0.18126 0.79616 0.66646 0.0
C237 C 0.134 0.85958 0.63122 0.0
Co238 Co 0.80288 0.82368 0.3547 0.0
Co239 Co 0.80931 0.82508 0.38805 0.0
C240 C 0.74934 0.86202 0.37302 0.0
O241 O 0.76073 0.85171 0.36092 0.0
O242 O 0.76536 0.85326 0.38447 0.0
C243 C 0.79347 0.84044 0.32549 0.0
O244 O 0.79086 0.87305 0.3306 0.0
C245 C 0.79106 0.8159 0.41833 0.0
C246 C 0.84454 0.80751 0.42781 0.0
C247 C 0.80843 0.80886 0.43109 0.0
N248 N 0.81585 0.81851 0.40801 0.0
N249 N 0.84776 0.81387 0.41378 0.0
C250 C 0.7516 0.81673 0.41567 0.0
H251 H 0.74563 0.80714 0.40476 0.0
H252 H 0.73709 0.8 0.42355 0.0
H253 H 0.74199 0.84472 0.41662 0.0
C254 C 0.80959 0.74618 0.35991 0.0
N255 N 0.80678 0.78004 0.36462 0.0
N256 N 0.8087 0.78027 0.3786 0.0
C257 C 0.81249 0.74638 0.38325 0.0
C258 C 0.81342 0.72371 0.37156 0.0
C259 C 0.81113 0.73617 0.3445 0.0
H260 H 0.83069 0.7536 0.33896 0.0
H261 H 0.78449 0.74074 0.33961 0.0
H262 H 0.81902 0.70783 0.34299 0.0
O263 O 0.84606 0.85322 0.35774 0.0
O264 O 0.85026 0.85404 0.38131 0.0
H265 H 0.84002 0.74415 0.40316 0.0
H266 H 0.81062 0.70659 0.40004 0.0
C267 C 0.81393 0.73585 0.39861 0.0
H268 H 0.79235 0.74968 0.40452 0.0
H269 H 0.8717 0.81417 0.40805 0.0
O270 O 0.79839 0.81458 0.33404 0.0
C271 C 0.86167 0.86336 0.36909 0.0
Co272 Co 0.67794 0.69271 0.64604 0.0
Co273 Co 0.6743 0.69156 0.61249 0.0
C274 C 0.63799 0.74854 0.62981 0.0
O275 O 0.6492 0.73568 0.64153 0.0
O276 O 0.64609 0.7341 0.61798 0.0
C277 C 0.66244 0.69767 0.67537 0.0
O278 O 0.62994 0.70215 0.67033 0.0
C279 C 0.68462 0.71622 0.58267 0.0
C280 C 0.68447 0.66458 0.57128 0.0
C281 C 0.68833 0.70109 0.5692 0.0
N282 N 0.67949 0.68971 0.59219 0.0
N283 N 0.67917 0.65899 0.58525 0.0
C284 C 0.68508 0.75512 0.58646 0.0
H285 H 0.66996 0.76014 0.59634 0.0
H286 H 0.71312 0.76376 0.58827 0.0
H287 H 0.67339 0.77143 0.57776 0.0
C288 C 0.75515 0.68726 0.63978 0.0
N289 N 0.72095 0.69086 0.63551 0.0
N290 N 0.71969 0.6904 0.62152 0.0
C291 C 0.75316 0.68645 0.61642 0.0
C292 C 0.77668 0.68417 0.62782 0.0
C293 C 0.76629 0.68406 0.65502 0.0
H294 H 0.75031 0.66277 0.66025 0.0
H295 H 0.76052 0.70959 0.66059 0.0
H296 H 0.79513 0.6776 0.65609 0.0
O297 O 0.64815 0.65021 0.64193 0.0
O298 O 0.64587 0.64922 0.6183 0.0
H299 H 0.7502 0.6615 0.59599 0.0
H300 H 0.79172 0.6851 0.59914 0.0
C301 C 0.76241 0.68552 0.60093 0.0
H302 H 0.75123 0.70951 0.59564 0.0
H303 H 0.67572 0.63412 0.5901 0.0
O304 O 0.68814 0.69315 0.6667 0.0
C305 C 0.63728 0.63617 0.63035 0.0
Co306 Co 0.69241 0.32236 0.35555 0.0
Co307 Co 0.68993 0.3235 0.38901 0.0
C308 C 0.74756 0.36129 0.3724 0.0
O309 O 0.73509 0.35102 0.36048 0.0
O310 O 0.73271 0.35226 0.38405 0.0
C311 C 0.71838 0.31742 0.32667 0.0
O312 O 0.74949 0.32598 0.33221 0.0
C313 C 0.71451 0.30832 0.41829 0.0
C314 C 0.66435 0.31581 0.43036 0.0
C315 C 0.70017 0.30693 0.43199 0.0
N316 N 0.68821 0.31725 0.40916 0.0
N317 N 0.65837 0.32179 0.41646 0.0
C318 C 0.75254 0.3026 0.41384 0.0
H319 H 0.75759 0.31413 0.40319 0.0
H320 H 0.75801 0.27349 0.41319 0.0
H321 H 0.77112 0.31479 0.42167 0.0
C322 C 0.68836 0.24456 0.36088 0.0
N323 N 0.69094 0.27848 0.36554 0.0
N324 N 0.68909 0.27875 0.37952 0.0
C325 C 0.68473 0.24493 0.3842 0.0
C326 C 0.68414 0.22214 0.37254 0.0
C327 C 0.69064 0.23407 0.34553 0.0
H328 H 0.71368 0.24785 0.34051 0.0
H329 H 0.69401 0.20479 0.34422 0.0
H330 H 0.66594 0.24281 0.33997 0.0
O331 O 0.64962 0.35154 0.35999 0.0
O332 O 0.6476 0.35204 0.3836 0.0
H333 H 0.65812 0.25387 0.40407 0.0
H334 H 0.66733 0.20748 0.40042 0.0
C335 C 0.67783 0.2351 0.3994 0.0
H336 H 0.70312 0.23728 0.4055 0.0
H337 H 0.6339 0.32889 0.41195 0.0
O338 O 0.69131 0.31404 0.33474 0.0
C339 C 0.63499 0.36143 0.37158 0.0
Co340 Co 0.32058 0.31141 0.64409 0.0
Co341 Co 0.32351 0.31671 0.61071 0.0
C342 C 0.35958 0.25714 0.62665 0.0
O343 O 0.34918 0.26911 0.63864 0.0
O344 O 0.35084 0.27259 0.61507 0.0
C345 C 0.33585 0.30448 0.67363 0.0
O346 O 0.36881 0.30191 0.66887 0.0
C347 C 0.31038 0.29476 0.58119 0.0
C348 C 0.31935 0.34522 0.56949 0.0
C349 C 0.31036 0.30953 0.56759 0.0
N350 N 0.31903 0.32052 0.59056 0.0
N351 N 0.32454 0.35056 0.58349 0.0
C352 C 0.30014 0.25764 0.58553 0.0
H353 H 0.29162 0.2572 0.59685 0.0
H354 H 0.27823 0.24734 0.57869 0.0
H355 H 0.32371 0.23982 0.5844 0.0
C356 C 0.24303 0.31577 0.63813 0.0
N357 N 0.27724 0.31422 0.63371 0.0
N358 N 0.27818 0.31734 0.61977 0.0
C359 C 0.24452 0.32164 0.61488 0.0
C360 C 0.2211 0.32077 0.62637 0.0
C361 C 0.23179 0.31105 0.65331 0.0
H362 H 0.24668 0.28838 0.6581 0.0
H363 H 0.20269 0.30572 0.65425 0.0
H364 H 0.23857 0.33559 0.65937 0.0
O365 O 0.35057 0.35445 0.64076 0.0
O366 O 0.35261 0.35765 0.61717 0.0
H367 H 0.25467 0.34853 0.59515 0.0
H368 H 0.20792 0.34039 0.59863 0.0
C369 C 0.23529 0.3292 0.59968 0.0
H370 H 0.23692 0.30402 0.59348 0.0
H371 H 0.3316 0.3748 0.58825 0.0
O372 O 0.31049 0.30869 0.66478 0.0
C373 C 0.36148 0.36947 0.62938 0.0
Co374 Co 0.30713 0.67215 0.35488 0.0
Co375 Co 0.30988 0.67057 0.38838 0.0
C376 C 0.25261 0.63221 0.37172 0.0
O377 O 0.2645 0.64329 0.35981 0.0
O378 O 0.26771 0.64089 0.38337 0.0
C379 C 0.28648 0.66767 0.32526 0.0
O380 O 0.2615 0.64585 0.32989 0.0
C381 C 0.28539 0.68518 0.41773 0.0
C382 C 0.33588 0.67881 0.42968 0.0
C383 C 0.29993 0.68705 0.43139 0.0
N384 N 0.31169 0.67666 0.40855 0.0
N385 N 0.34173 0.67274 0.41578 0.0
C386 C 0.24717 0.69008 0.41337 0.0
H387 H 0.24209 0.67796 0.40283 0.0
H388 H 0.24121 0.71906 0.41252 0.0
H389 H 0.22896 0.67796 0.42136 0.0
C390 C 0.30995 0.74987 0.36036 0.0
N391 N 0.30808 0.71585 0.36499 0.0
N392 N 0.3099 0.71548 0.37897 0.0
C393 C 0.31359 0.74934 0.38368 0.0
C394 C 0.31372 0.77226 0.37204 0.0
C395 C 0.30734 0.76049 0.34504 0.0
H396 H 0.28517 0.74559 0.33989 0.0
H397 H 0.30247 0.78959 0.3438 0.0
H398 H 0.33259 0.75324 0.33954 0.0
O399 O 0.35029 0.64322 0.35926 0.0
O400 O 0.35266 0.64303 0.38287 0.0
H401 H 0.33021 0.78701 0.39994 0.0
H402 H 0.29501 0.75646 0.40499 0.0
C403 C 0.32027 0.75918 0.39889 0.0
H404 H 0.34034 0.74079 0.40355 0.0
H405 H 0.36627 0.66611 0.41122 0.0
O406 O 0.30814 0.68161 0.33409 0.0
C407 C 0.36524 0.6337 0.37085 0.0
Co408 Co 0.32345 0.68947 0.14549 0.0
Co409 Co 0.32331 0.68264 0.11216 0.0
C410 C 0.36153 0.74248 0.12697 0.0
O411 O 0.35153 0.73143 0.13916 0.0
O412 O 0.35216 0.72633 0.11562 0.0
C413 C 0.3377 0.70682 0.17466 0.0
O414 O 0.36715 0.7208 0.16942 0.0
C415 C 0.31185 0.7019 0.08216 0.0
C416 C 0.3069 0.64864 0.07215 0.0
C417 C 0.30594 0.68494 0.06925 0.0
N418 N 0.31608 0.67671 0.09223 0.0
N419 N 0.31345 0.64495 0.08616 0.0
C420 C 0.31086 0.74117 0.08516 0.0
H421 H 0.30156 0.74603 0.09621 0.0
H422 H 0.29306 0.75519 0.07753 0.0
H423 H 0.3383 0.75221 0.08408 0.0
C424 C 0.24551 0.68496 0.1408 0.0
N425 N 0.27926 0.68639 0.13586 0.0
N426 N 0.27886 0.68371 0.1219 0.0
C427 C 0.24467 0.68045 0.1175 0.0
C428 C 0.22245 0.68096 0.12934 0.0
C429 C 0.23576 0.68846 0.15618 0.0
H430 H 0.24958 0.71204 0.16078 0.0
H431 H 0.20649 0.69157 0.1577 0.0
H432 H 0.2451 0.66438 0.162 0.0
O433 O 0.35264 0.64618 0.14209 0.0
O434 O 0.35218 0.64141 0.11855 0.0
H435 H 0.20459 0.67021 0.10126 0.0
H436 H 0.24186 0.69798 0.09588 0.0
C437 C 0.23381 0.67452 0.10235 0.0
H438 H 0.24789 0.65068 0.09815 0.0
H439 H 0.31547 0.62074 0.09163 0.0
O440 O 0.31525 0.69244 0.16627 0.0
C441 C 0.36211 0.63025 0.13073 0.0
Co442 Co 0.68698 0.67261 0.85561 0.0
Co443 Co 0.68526 0.67171 0.88913 0.0
C444 C 0.7429 0.63441 0.8724 0.0
O445 O 0.73013 0.64467 0.86052 0.0
O446 O 0.72816 0.6432 0.8841 0.0
C447 C 0.71314 0.67838 0.82677 0.0
O448 O 0.74437 0.67091 0.83246 0.0
C449 C 0.70994 0.68751 0.91833 0.0
C450 C 0.66065 0.67724 0.93066 0.0
C451 C 0.69608 0.68764 0.93208 0.0
N452 N 0.68374 0.67781 0.90929 0.0
N453 N 0.6544 0.67167 0.91674 0.0
C454 C 0.74773 0.69461 0.91384 0.0
H455 H 0.75332 0.68252 0.90333 0.0
H456 H 0.75196 0.72387 0.91289 0.0
H457 H 0.76678 0.68396 0.92185 0.0
C458 C 0.68258 0.7504 0.86085 0.0
N459 N 0.68518 0.71651 0.86557 0.0
N460 N 0.68378 0.71636 0.87956 0.0
C461 C 0.67968 0.75023 0.88419 0.0
C462 C 0.67885 0.77289 0.87249 0.0
C463 C 0.68485 0.76078 0.8455 0.0
H464 H 0.66049 0.75132 0.83989 0.0
H465 H 0.70831 0.74752 0.84057 0.0
H466 H 0.6875 0.79011 0.84411 0.0
O467 O 0.64457 0.6429 0.86024 0.0
O468 O 0.64316 0.64289 0.88385 0.0
H469 H 0.65469 0.74136 0.90442 0.0
H470 H 0.66266 0.78784 0.90037 0.0
C471 C 0.67364 0.76038 0.89941 0.0
H472 H 0.69939 0.75905 0.90523 0.0
H473 H 0.63011 0.66356 0.91233 0.0
O474 O 0.68576 0.68083 0.83474 0.0
C475 C 0.63032 0.63315 0.87193 0.0
Co476 Co 0.67905 0.30776 0.14624 0.0
Co477 Co 0.67555 0.30925 0.1128 0.0
C478 C 0.63964 0.25166 0.12985 0.0
O479 O 0.65049 0.26482 0.14157 0.0
O480 O 0.64785 0.266 0.118 0.0
C481 C 0.66401 0.30111 0.17557 0.0
O482 O 0.6314 0.29648 0.17066 0.0
C483 C 0.68636 0.28624 0.08291 0.0
C484 C 0.68235 0.33808 0.07171 0.0
C485 C 0.68815 0.30191 0.0695 0.0
N486 N 0.68032 0.31214 0.09257 0.0
N487 N 0.67777 0.34298 0.08577 0.0
C488 C 0.689 0.24725 0.08643 0.0
H489 H 0.67439 0.24101 0.09634 0.0
H490 H 0.71748 0.24 0.08807 0.0
H491 H 0.67812 0.23072 0.07762 0.0
C492 C 0.75631 0.31294 0.1401 0.0
N493 N 0.72212 0.30997 0.13577 0.0
N494 N 0.72101 0.3107 0.12178 0.0
C495 C 0.7546 0.31431 0.11675 0.0
C496 C 0.77807 0.31586 0.1282 0.0
C497 C 0.76737 0.31531 0.15538 0.0
H498 H 0.76167 0.28944 0.16072 0.0
H499 H 0.79618 0.32183 0.15654 0.0
H500 H 0.75132 0.33626 0.16078 0.0
O501 O 0.64911 0.35027 0.1424 0.0
O502 O 0.64662 0.35097 0.11878 0.0
H503 H 0.75088 0.33876 0.09623 0.0
H504 H 0.79324 0.31673 0.09949 0.0
C505 C 0.76395 0.31533 0.10127 0.0
H506 H 0.75364 0.29088 0.09605 0.0
H507 H 0.67306 0.36747 0.09075 0.0
O508 O 0.68938 0.30646 0.16684 0.0
C509 C 0.63802 0.36408 0.13081 0.0
Co510 Co 0.30354 0.32305 0.85358 0.0
Co511 Co 0.30153 0.32396 0.88724 0.0
C512 C 0.24574 0.36114 0.86975 0.0
O513 O 0.25998 0.35103 0.85811 0.0
O514 O 0.25897 0.35221 0.88173 0.0
C515 C 0.27811 0.31319 0.8248 0.0
O516 O 0.24619 0.31588 0.83056 0.0
C517 C 0.27752 0.31436 0.91736 0.0
C518 C 0.32991 0.30838 0.928 0.0
C519 C 0.2934 0.30842 0.93058 0.0
N520 N 0.30357 0.31707 0.90749 0.0
N521 N 0.33475 0.31368 0.91398 0.0
C522 C 0.23849 0.31862 0.91421 0.0
H523 H 0.23438 0.33662 0.90504 0.0
H524 H 0.22698 0.29212 0.91151 0.0
H525 H 0.22405 0.3297 0.92354 0.0
C526 C 0.30953 0.24548 0.85899 0.0
N527 N 0.30506 0.27927 0.86359 0.0
N528 N 0.30344 0.27938 0.87758 0.0
C529 C 0.30637 0.24549 0.88233 0.0
C530 C 0.3106 0.22293 0.87071 0.0
C531 C 0.31547 0.23563 0.84373 0.0
H532 H 0.3352 0.2542 0.83892 0.0
H533 H 0.28991 0.23848 0.83783 0.0
H534 H 0.32541 0.20783 0.8426 0.0
O535 O 0.34537 0.35258 0.85862 0.0
O536 O 0.34399 0.35316 0.88224 0.0
H537 H 0.32883 0.24297 0.90321 0.0
H538 H 0.30003 0.20566 0.89892 0.0
C539 C 0.30392 0.23489 0.89765 0.0
H540 H 0.2811 0.2489 0.9027 0.0
H541 H 0.35942 0.31471 0.9088 0.0
O542 O 0.30564 0.31506 0.83271 0.0
C543 C 0.35821 0.36263 0.87051 0.0
H544 H 0.17628 0.16702 0.19248 0.0
H545 H 0.18246 0.16368 0.21829 0.0
H546 H 0.22835 0.26954 0.21884 0.0
H547 H 0.22153 0.27347 0.19297 0.0
H548 H 0.24241 0.16693 0.23462 0.0
H549 H 0.15006 0.27776 0.24862 0.0
H550 H 0.15209 0.25882 0.23099 0.0
H551 H 0.18542 0.29039 0.2367 0.0
C552 C 0.18754 0.18971 0.19807 0.0
C553 C 0.19822 0.22062 0.19066 0.0
C554 C 0.1911 0.18772 0.21284 0.0
C555 C 0.2054 0.21653 0.22052 0.0
C556 C 0.21651 0.24729 0.21316 0.0
H557 H 0.27848 0.19592 0.30867 0.0
H558 H 0.27573 0.20504 0.28291 0.0
C559 C 0.21277 0.24941 0.19836 0.0
C560 C 0.20923 0.21384 0.23621 0.0
H561 H 0.18294 0.25183 0.26755 0.0
C562 C 0.22946 0.18552 0.24183 0.0
C563 C 0.19195 0.23788 0.24558 0.0
C564 C 0.16837 0.26774 0.24021 0.0
C565 C 0.23283 0.18049 0.25657 0.0
C566 C 0.21616 0.20496 0.26595 0.0
C567 C 0.19597 0.23331 0.26033 0.0
C568 C 0.21805 0.2007 0.28163 0.0
C569 C 0.2533 0.14841 0.26194 0.0
C570 C 0.18649 0.19639 0.28954 0.0
C571 C 0.18793 0.19156 0.30427 0.0
C572 C 0.22102 0.19095 0.3114 0.0
C573 C 0.25259 0.19592 0.30349 0.0
C574 C 0.25109 0.20095 0.28875 0.0
H575 H 0.25637 0.12764 0.25358 0.0
H576 H 0.28046 0.15696 0.26528 0.0
H577 H 0.23974 0.1362 0.27127 0.0
H578 H 0.16069 0.19626 0.28427 0.0
H579 H 0.16309 0.18793 0.31003 0.0
H580 H 0.10734 0.78335 0.69681 0.0
H581 H 0.11923 0.78489 0.72243 0.0
H582 H 0.23179 0.79946 0.71415 0.0
H583 H 0.22025 0.79822 0.68856 0.0
H584 H 0.16654 0.74069 0.73914 0.0
H585 H 0.20454 0.88447 0.74025 0.0
H586 H 0.18081 0.86458 0.7255 0.0
H587 H 0.22811 0.8576 0.72747 0.0
C588 C 0.13464 0.78681 0.70043 0.0
C589 C 0.16281 0.79093 0.69065 0.0
C590 C 0.14137 0.78763 0.71506 0.0
C591 C 0.17629 0.7928 0.72013 0.0
C592 C 0.20457 0.79605 0.71042 0.0
H593 H 0.26472 0.82106 0.80503 0.0
H594 H 0.25674 0.81301 0.77937 0.0
C595 C 0.19791 0.79518 0.6958 0.0
C596 C 0.18312 0.79511 0.7356 0.0
H597 H 0.21168 0.85198 0.76163 0.0
C598 C 0.17636 0.76499 0.74409 0.0
C599 C 0.19603 0.82686 0.74196 0.0
C600 C 0.20256 0.86036 0.73338 0.0
C601 C 0.18254 0.76567 0.75882 0.0
C602 C 0.19514 0.79754 0.76521 0.0
C603 C 0.20212 0.82756 0.75669 0.0
C604 C 0.20026 0.80073 0.78077 0.0
C605 C 0.17605 0.73212 0.76738 0.0
C606 C 0.17109 0.79671 0.79002 0.0
C607 C 0.17554 0.80124 0.80466 0.0
C608 C 0.20923 0.81018 0.81032 0.0
C609 C 0.23844 0.81413 0.80102 0.0
C610 C 0.23395 0.80956 0.78637 0.0
H611 H 0.17634 0.70787 0.76055 0.0
H612 H 0.19649 0.72897 0.77586 0.0
H613 H 0.14936 0.73382 0.77251 0.0
H614 H 0.1447 0.79068 0.7859 0.0
H615 H 0.15244 0.79812 0.81151 0.0
H616 H 0.78407 0.88981 0.30436 0.0
H617 H 0.78392 0.87944 0.27867 0.0
H618 H 0.80029 0.76665 0.28576 0.0
H619 H 0.80003 0.77663 0.31147 0.0
H620 H 0.83962 0.85046 0.26269 0.0
H621 H 0.71655 0.76814 0.25764 0.0
H622 H 0.72638 0.7943 0.27331 0.0
H623 H 0.7481 0.75199 0.27055 0.0
C624 C 0.78732 0.86273 0.30047 0.0
C625 C 0.79201 0.83404 0.30996 0.0
C626 C 0.78724 0.85687 0.28579 0.0
C627 C 0.79162 0.82223 0.28033 0.0
C628 C 0.79612 0.79349 0.28976 0.0
H629 H 0.8179 0.73665 0.19504 0.0
H630 H 0.81188 0.74485 0.22078 0.0
C631 C 0.79619 0.7993 0.30445 0.0
C632 C 0.79336 0.81652 0.26475 0.0
H633 H 0.75335 0.77272 0.2371 0.0
C634 C 0.82065 0.83363 0.25707 0.0
C635 C 0.76867 0.79438 0.25749 0.0
C636 C 0.73806 0.77636 0.26512 0.0
C637 C 0.82423 0.82886 0.24234 0.0
C638 C 0.79947 0.80686 0.23507 0.0
C639 C 0.77225 0.78959 0.24273 0.0
C640 C 0.80141 0.80166 0.21948 0.0
C641 C 0.8549 0.84685 0.23473 0.0
C642 C 0.79671 0.83075 0.21025 0.0
C643 C 0.80012 0.8262 0.19556 0.0
C644 C 0.80818 0.79238 0.18983 0.0
C645 C 0.81183 0.76306 0.19911 0.0
C646 C 0.80838 0.76767 0.21381 0.0
H647 H 0.87624 0.85539 0.24223 0.0
H648 H 0.86683 0.82873 0.22666 0.0
H649 H 0.84484 0.87101 0.22915 0.0
H650 H 0.79065 0.85707 0.21441 0.0
H651 H 0.79685 0.84929 0.18872 0.0
H652 H 0.81932 0.26868 0.69475 0.0
H653 H 0.81625 0.26228 0.7207 0.0
H654 H 0.79845 0.14894 0.71603 0.0
H655 H 0.80168 0.1549 0.69022 0.0
H656 H 0.76021 0.23319 0.73827 0.0
H657 H 0.88658 0.15587 0.74244 0.0
H658 H 0.87477 0.18124 0.72678 0.0
H659 H 0.85511 0.13804 0.72986 0.0
C660 C 0.81465 0.24241 0.69925 0.0
C661 C 0.81109 0.21225 0.69042 0.0
C662 C 0.81289 0.23883 0.71406 0.0
C663 C 0.80776 0.20505 0.72024 0.0
C664 C 0.80314 0.17513 0.71145 0.0
H665 H 0.79301 0.1132 0.80397 0.0
H666 H 0.79383 0.126 0.77847 0.0
C667 C 0.80487 0.17865 0.69669 0.0
C668 C 0.80742 0.20078 0.73589 0.0
H669 H 0.85013 0.15811 0.76314 0.0
C670 C 0.78 0.21705 0.74376 0.0
C671 C 0.83336 0.17974 0.74297 0.0
C672 C 0.86433 0.16296 0.73512 0.0
C673 C 0.77713 0.21183 0.75852 0.0
C674 C 0.80271 0.19023 0.76554 0.0
C675 C 0.83046 0.17449 0.75769 0.0
C676 C 0.80097 0.18307 0.78101 0.0
C677 C 0.74618 0.22852 0.7664 0.0
C678 C 0.80492 0.21093 0.79088 0.0
C679 C 0.80447 0.20372 0.80547 0.0
C680 C 0.80024 0.16846 0.81044 0.0
C681 C 0.79627 0.14064 0.80051 0.0
C682 C 0.79674 0.14788 0.78593 0.0
H683 H 0.72461 0.23729 0.75904 0.0
H684 H 0.73471 0.20944 0.77422 0.0
H685 H 0.75583 0.25233 0.7723 0.0
H686 H 0.80888 0.23818 0.78729 0.0
H687 H 0.80773 0.22575 0.81284 0.0
H688 H 0.72585 0.68665 0.68933 0.0
H689 H 0.73571 0.68418 0.71507 0.0
H690 H 0.6238 0.70571 0.72225 0.0
H691 H 0.61353 0.70776 0.69659 0.0
H692 H 0.72295 0.73642 0.73598 0.0
H693 H 0.6414 0.6146 0.74542 0.0
H694 H 0.6557 0.62813 0.72788 0.0
H695 H 0.618 0.64953 0.73617 0.0
C696 C 0.70331 0.69081 0.69638 0.0
C697 C 0.66883 0.69712 0.69091 0.0
C698 C 0.70902 0.68944 0.71108 0.0
C699 C 0.68038 0.69418 0.72054 0.0
C700 C 0.64612 0.70123 0.71512 0.0
H701 H 0.65268 0.69483 0.81176 0.0
H702 H 0.64625 0.70009 0.78597 0.0
C703 C 0.64035 0.70256 0.70044 0.0
C704 C 0.68629 0.69198 0.7361 0.0
H705 H 0.66085 0.64633 0.76589 0.0
C706 C 0.70957 0.71662 0.74253 0.0
C707 C 0.66881 0.66605 0.74458 0.0
C708 C 0.64483 0.63784 0.73817 0.0
C709 C 0.71513 0.71659 0.75731 0.0
C710 C 0.69733 0.69091 0.7658 0.0
C711 C 0.67431 0.66609 0.75934 0.0
C712 C 0.70196 0.68931 0.78144 0.0
C713 C 0.73929 0.74457 0.76376 0.0
C714 C 0.73545 0.68143 0.78742 0.0
C715 C 0.73925 0.6784 0.80218 0.0
C716 C 0.70955 0.68299 0.81119 0.0
C717 C 0.6761 0.69112 0.80514 0.0
C718 C 0.67234 0.69413 0.7904 0.0
H719 H 0.74393 0.7673 0.75637 0.0
H720 H 0.72779 0.7551 0.77382 0.0
H721 H 0.7656 0.73232 0.76626 0.0
H722 H 0.7585 0.67696 0.78067 0.0
H723 H 0.76534 0.67196 0.80649 0.0
H724 H 0.76961 0.32588 0.30609 0.0
H725 H 0.7617 0.3217 0.28027 0.0
H726 H 0.65053 0.29467 0.28626 0.0
H727 H 0.658 0.299 0.31201 0.0
H728 H 0.73652 0.26307 0.26331 0.0
H729 H 0.6483 0.38225 0.25944 0.0
H730 H 0.6754 0.37302 0.27492 0.0
H731 H 0.63409 0.34937 0.27219 0.0
C732 C 0.7435 0.31895 0.30192 0.0
C733 C 0.71435 0.31309 0.3111 0.0
C734 C 0.73906 0.31656 0.28718 0.0
C735 C 0.70541 0.30847 0.2814 0.0
C736 C 0.67655 0.30162 0.29053 0.0
H737 H 0.61591 0.28981 0.197 0.0
H738 H 0.62732 0.29019 0.22261 0.0
C739 C 0.68093 0.30398 0.30525 0.0
C740 C 0.70031 0.3074 0.2658 0.0
H741 H 0.65429 0.34688 0.23865 0.0
C742 C 0.71872 0.28147 0.25787 0.0
C743 C 0.67707 0.3315 0.2588 0.0
C744 C 0.65778 0.36084 0.26673 0.0
C745 C 0.71378 0.27844 0.24311 0.0
C746 C 0.6903 0.30239 0.23613 0.0
C747 C 0.67215 0.32848 0.24406 0.0
C748 C 0.684 0.30088 0.2206 0.0
C749 C 0.73299 0.24909 0.23518 0.0
C750 C 0.71209 0.30699 0.211 0.0
C751 C 0.70569 0.30675 0.19635 0.0
C752 C 0.671 0.30065 0.19106 0.0
C753 C 0.64293 0.29456 0.20072 0.0
C754 C 0.64938 0.29477 0.21536 0.0
H755 H 0.74263 0.22776 0.24247 0.0
H756 H 0.71528 0.23681 0.22704 0.0
H757 H 0.75658 0.26056 0.22965 0.0
H758 H 0.73886 0.31248 0.21484 0.0
H759 H 0.72787 0.31169 0.18919 0.0
H760 H 0.34011 0.30486 0.80971 0.0
H761 H 0.34707 0.30117 0.78389 0.0
H762 H 0.23266 0.30858 0.77871 0.0
H763 H 0.22538 0.31267 0.80454 0.0
H764 H 0.31791 0.2511 0.76441 0.0
H765 H 0.27164 0.38969 0.75334 0.0
H766 H 0.28416 0.37489 0.77093 0.0
H767 H 0.2414 0.36274 0.76365 0.0
C768 C 0.31638 0.30571 0.8031 0.0
C769 C 0.28219 0.30935 0.80919 0.0
C770 C 0.32043 0.30353 0.78834 0.0
C771 C 0.29044 0.30514 0.77939 0.0
C772 C 0.25621 0.30795 0.78543 0.0
H773 H 0.27085 0.30895 0.68697 0.0
H774 H 0.25889 0.30702 0.71257 0.0
C775 C 0.2521 0.31009 0.8002 0.0
C776 C 0.29517 0.30398 0.76375 0.0
H777 H 0.2843 0.35324 0.73345 0.0
C778 C 0.31056 0.2734 0.75763 0.0
C779 C 0.28548 0.33311 0.75494 0.0
C780 C 0.27001 0.36712 0.76101 0.0
C781 C 0.31636 0.27107 0.74289 0.0
C782 C 0.30712 0.30039 0.73411 0.0
C783 C 0.29133 0.3308 0.74021 0.0
C784 C 0.31438 0.30047 0.7186 0.0
C785 C 0.33188 0.23707 0.73685 0.0
C786 C 0.34958 0.29777 0.71351 0.0
C787 C 0.35653 0.29883 0.69891 0.0
C788 C 0.32839 0.30288 0.6891 0.0
C789 C 0.29313 0.30573 0.69423 0.0
C790 C 0.28623 0.30465 0.70885 0.0
H791 H 0.32808 0.21407 0.74419 0.0
H792 H 0.31951 0.23044 0.72644 0.0
H793 H 0.36106 0.24068 0.73519 0.0
H794 H 0.37178 0.29532 0.72086 0.0
H795 H 0.384 0.29675 0.69532 0.0
H796 H 0.33612 0.7102 0.31215 0.0
H797 H 0.34342 0.7207 0.28663 0.0
H798 H 0.25304 0.65234 0.27799 0.0
H799 H 0.24535 0.64178 0.30349 0.0
H800 H 0.35566 0.66714 0.26569 0.0
H801 H 0.23136 0.744 0.25495 0.0
H802 H 0.24923 0.73815 0.27266 0.0
H803 H 0.22484 0.70252 0.26426 0.0
C804 C 0.31761 0.69757 0.30484 0.0
C805 C 0.29013 0.67513 0.30986 0.0
C806 C 0.32184 0.70362 0.29027 0.0
C807 C 0.29851 0.68764 0.28046 0.0
C808 C 0.27092 0.66544 0.28542 0.0
H809 H 0.28249 0.6751 0.189 0.0
H810 H 0.27378 0.67174 0.21473 0.0
C811 C 0.26671 0.65929 0.29999 0.0
C812 C 0.30412 0.69276 0.26501 0.0
H813 H 0.26467 0.72482 0.23483 0.0
C814 C 0.33593 0.67998 0.25894 0.0
C815 C 0.27821 0.70938 0.25627 0.0
C816 C 0.24409 0.7246 0.26235 0.0
C817 C 0.34218 0.68257 0.24425 0.0
C818 C 0.31623 0.69914 0.23548 0.0
C819 C 0.28452 0.71217 0.24159 0.0
C820 C 0.32114 0.70243 0.21989 0.0
C821 C 0.37601 0.66654 0.23822 0.0
C822 C 0.35028 0.72142 0.21425 0.0
C823 C 0.35549 0.7232 0.19954 0.0
C824 C 0.33141 0.70633 0.1902 0.0
C825 C 0.30164 0.68826 0.19589 0.0
C826 C 0.29657 0.68634 0.2106 0.0
H827 H 0.38826 0.64693 0.24565 0.0
H828 H 0.37069 0.65295 0.22793 0.0
H829 H 0.39579 0.68815 0.23632 0.0
H830 H 0.36909 0.73474 0.22123 0.0
H831 H 0.37849 0.73762 0.19551 0.0
H832 H 0.11069 0.10207 0.10827 0.0
H833 H 0.06354 0.05678 0.10855 0.0
H834 H 0.06276 0.05877 0.15442 0.0
H835 H 0.11013 0.10386 0.15431 0.0
H836 H 0.06053 0.98897 0.14209 0.0
H837 H 0.95857 0.08036 0.11903 0.0
H838 H -0.00068 0.07682 0.10898 0.0
H839 H 0.00021 0.09627 0.12645 0.0
C840 C 0.10075 0.09271 0.11843 0.0
C841 C 0.114 0.10684 0.13127 0.0
C842 C 0.07365 0.067 0.11856 0.0
C843 C 0.05928 0.05507 0.1315 0.0
C844 C 0.07338 0.06794 0.14433 0.0
H845 H 0.89187 0.9026 0.15361 0.0
H846 H 0.93829 0.94868 0.15444 0.0
C847 C 0.10046 0.09368 0.14423 0.0
C848 C 0.02916 0.02949 0.13165 0.0
H849 H 0.94197 0.01949 0.1216 0.0
C850 C 0.03453 0.99562 0.13769 0.0
C851 C 0.99534 0.03846 0.12591 0.0
C852 C 0.98776 0.07505 0.11983 0.0
C853 C 0.0071 0.97 0.13782 0.0
C854 C 0.97334 0.97889 0.132 0.0
C855 C 0.96791 0.01287 0.12606 0.0
C856 C 0.94362 0.95285 0.13158 0.0
C857 C 0.01477 0.93335 0.14382 0.0
C858 C 0.93033 0.9411 0.11844 0.0
C859 C 0.90365 0.91501 0.11791 0.0
C860 C 0.88971 0.90028 0.13053 0.0
C861 C 0.90214 0.91321 0.14369 0.0
C862 C 0.92883 0.93935 0.1442 0.0
H863 H 0.04396 0.92829 0.14484 0.0
H864 H 0.00268 0.93118 0.15457 0.0
H865 H 0.00287 0.91217 0.13702 0.0
H866 H 0.94127 0.95145 0.10859 0.0
H867 H 0.89462 0.9058 0.10759 0.0
H868 H 0.90068 0.10538 0.89276 0.0
H869 H 0.94629 0.05874 0.8919 0.0
H870 H 0.93809 0.05555 0.84616 0.0
H871 H 0.89254 0.10251 0.84684 0.0
H872 H 0.93529 0.98963 0.88037 0.0
H873 H 0.04679 0.06152 0.85356 0.0
H874 H 0.00967 0.08459 0.86175 0.0
H875 H 0.00425 0.06373 0.84468 0.0
C876 C 0.90885 0.09517 0.88248 0.0
C877 C 0.89291 0.10769 0.86986 0.0
C878 C 0.93487 0.06846 0.88203 0.0
C879 C 0.94562 0.05392 0.86897 0.0
C880 C 0.93048 0.06686 0.85632 0.0
H881 H 0.09581 0.88514 0.84769 0.0
H882 H 0.04851 0.93017 0.84697 0.0
C883 C 0.9044 0.09363 0.85675 0.0
C884 C 0.97125 0.02386 0.86873 0.0
H885 H 0.05459 -0.00046 0.85756 0.0
C886 C 0.96141 0.99174 0.87541 0.0
C887 C 0.00513 0.02678 0.86217 0.0
C888 C 0.01735 0.06106 0.85522 0.0
C889 C 0.9846 0.96228 0.87566 0.0
C890 C 0.01868 0.96534 0.86926 0.0
C891 C 0.02836 0.99733 0.86244 0.0
C892 C 0.04518 0.93603 0.86982 0.0
C893 C 0.97225 0.92802 0.88259 0.0
C894 C 0.0587 0.92425 0.88293 0.0
C895 C 0.08566 0.89842 0.88341 0.0
C896 C 0.09979 0.88417 0.87075 0.0
C897 C 0.08556 0.89552 0.85764 0.0
C898 C 0.05858 0.9213 0.85719 0.0
H899 H 0.94261 0.92683 0.88342 0.0
H900 H 0.9817 0.90431 0.87655 0.0
H901 H 0.98342 0.92648 0.89351 0.0
H902 H 0.04914 0.93579 0.8928 0.0
H903 H 0.09611 0.89044 0.89368 0.0
H904 H 0.88869 0.08943 0.60904 0.0
H905 H 0.93485 0.04329 0.61014 0.0
H906 H 0.9337 0.04836 0.65596 0.0
H907 H 0.88734 0.09444 0.65504 0.0
H908 H 0.0032 0.05436 0.62348 0.0
H909 H 0.92841 0.9398 0.64682 0.0
H910 H 0.90626 0.97716 0.63838 0.0
H911 H 0.9242 0.98176 0.65601 0.0
C912 C 0.8978 0.08041 0.61937 0.0
C913 C 0.88436 0.09573 0.63196 0.0
C914 C 0.92423 0.0541 0.61996 0.0
C915 C 0.93745 0.0424 0.63312 0.0
C916 C 0.92343 0.05677 0.64571 0.0
H917 H 0.10444 0.88985 0.65502 0.0
H918 H 0.05862 0.93649 0.65597 0.0
C919 C 0.89703 0.08317 0.64515 0.0
C920 C 0.96756 0.0169 0.63359 0.0
H921 H 0.99083 0.93257 0.64388 0.0
C922 C 0.00056 0.02769 0.62791 0.0
C923 C 0.96394 0.98236 0.63952 0.0
C924 C 0.92876 0.96932 0.64545 0.0
C925 C 0.03022 0.00477 0.62801 0.0
C926 C 0.02646 0.96996 0.63369 0.0
C927 C 0.99357 0.95934 0.63955 0.0
C928 C 0.05589 0.9436 0.63315 0.0
C929 C 0.0654 0.01818 0.62219 0.0
C930 C 0.06956 0.93234 0.62001 0.0
C931 C 0.09581 0.90587 0.61941 0.0
C932 C 0.10863 0.88988 0.63197 0.0
C933 C 0.09524 0.90165 0.64515 0.0
C934 C 0.069 0.92821 0.64572 0.0
H935 H 0.06662 0.04788 0.62217 0.0
H936 H 0.08829 0.00772 0.62848 0.0
H937 H 0.06846 0.00891 0.61104 0.0
H938 H 0.05926 0.94339 0.61017 0.0
H939 H 0.10536 0.89733 0.60907 0.0
H940 H 0.10224 0.10622 0.34558 0.0
H941 H 0.05425 0.06184 0.34413 0.0
H942 H 0.0476 0.05922 0.38993 0.0
H943 H 0.09503 0.10382 0.39152 0.0
H944 H 0.05606 0.99305 0.35546 0.0
H945 H 0.94324 0.07068 0.37809 0.0
H946 H 0.984 0.09155 0.37195 0.0
H947 H 0.98231 0.07076 0.3892 0.0
C948 C 0.09024 0.0966 0.35535 0.0
C949 C 0.10246 0.10864 0.36867 0.0
C950 C 0.06289 0.07119 0.35449 0.0
C951 C 0.04715 0.05762 0.36691 0.0
C952 C 0.05891 0.06992 0.3802 0.0
H953 H 0.89977 0.89268 0.39101 0.0
H954 H 0.94593 0.93874 0.38956 0.0
C955 C 0.08618 0.09531 0.38109 0.0
C956 C 0.01987 0.02907 0.36608 0.0
H957 H 0.93512 0.00743 0.37647 0.0
C958 C 0.02946 0.99626 0.3599 0.0
C959 C 0.98525 0.03344 0.37189 0.0
C960 C 0.97291 0.06862 0.37803 0.0
C961 C 0.00568 0.96721 0.35982 0.0
C962 C 0.97142 0.97137 0.36595 0.0
C963 C 0.96158 0.00437 0.37187 0.0
C964 C 0.94544 0.94166 0.36658 0.0
C965 C 0.01771 0.932 0.35361 0.0
C966 C 0.9302 0.92789 0.3541 0.0
C967 C 0.90377 0.90152 0.35486 0.0
C968 C 0.89207 0.88862 0.36814 0.0
C969 C 0.90811 0.90196 0.3806 0.0
C970 C 0.93445 0.92834 0.37982 0.0
H971 H 0.04713 0.93115 0.35195 0.0
H972 H 0.00989 0.90946 0.36066 0.0
H973 H 0.0045 0.92795 0.34316 0.0
H974 H 0.93805 0.93824 0.3438 0.0
H975 H 0.8919 0.89194 0.34507 0.0
H976 H 0.39096 0.40721 0.6074 0.0
H977 H 0.43839 0.45198 0.60867 0.0
H978 H 0.43885 0.44397 0.65443 0.0
H979 H 0.39114 0.39915 0.65333 0.0
H980 H 0.44178 0.51576 0.64318 0.0
H981 H 0.54315 0.42583 0.61895 0.0
H982 H 0.50245 0.43023 0.60892 0.0
H983 H 0.50143 0.40956 0.62618 0.0
C984 C 0.40087 0.4151 0.61776 0.0
C985 C 0.38742 0.39933 0.63027 0.0
C986 C 0.42813 0.44055 0.61845 0.0
C987 C 0.44252 0.45064 0.63162 0.0
C988 C 0.42822 0.43621 0.64416 0.0
H989 H 0.61065 0.60273 0.65404 0.0
H990 H 0.56445 0.5565 0.65497 0.0
C991 C 0.40093 0.41067 0.6435 0.0
C992 C 0.47288 0.47594 0.63222 0.0
H993 H 0.55968 0.48675 0.62177 0.0
C994 C 0.46767 0.50941 0.63861 0.0
C995 C 0.50655 0.46738 0.62626 0.0
C996 C 0.51398 0.43119 0.61979 0.0
C997 C 0.49503 0.53513 0.63879 0.0
C998 C 0.52857 0.52674 0.63264 0.0
C999 C 0.5339 0.49305 0.62645 0.0
C1000 C 0.55812 0.55302 0.63214 0.0
C1001 C 0.48746 0.57144 0.64512 0.0
C1002 C 0.57083 0.56526 0.61897 0.0
C1003 C 0.59742 0.59146 0.61837 0.0
C1004 C 0.61187 0.60581 0.63096 0.0
C1005 C 0.59999 0.59244 0.64414 0.0
C1006 C 0.5734 0.5662 0.64471 0.0
H1007 H 0.45829 0.57628 0.64639 0.0
H1008 H 0.50005 0.57315 0.65579 0.0
H1009 H 0.4989 0.59301 0.63839 0.0
H1010 H 0.55951 0.55517 0.60914 0.0
H1011 H 0.606 0.60103 0.60804 0.0
H1012 H 0.40247 0.60607 0.39336 0.0
H1013 H 0.44932 0.56069 0.39272 0.0
H1014 H 0.44495 0.55963 0.34688 0.0
H1015 H 0.39759 0.60476 0.34736 0.0
H1016 H 0.44063 0.49184 0.35919 0.0
H1017 H 0.5546 0.56865 0.3815 0.0
H1018 H 0.51492 0.57038 0.39225 0.0
H1019 H 0.51467 0.58997 0.37477 0.0
C1020 C 0.41175 0.59661 0.38311 0.0
C1021 C 0.39623 0.60908 0.3704 0.0
C1022 C 0.43868 0.57077 0.38278 0.0
C1023 C 0.45083 0.55713 0.36975 0.0
C1024 C 0.43598 0.56998 0.35703 0.0
H1025 H 0.60198 0.38917 0.34802 0.0
H1026 H 0.55589 0.43547 0.34732 0.0
C1027 C 0.409 0.59583 0.35734 0.0
C1028 C 0.47743 0.52787 0.36947 0.0
H1029 H 0.56184 0.50545 0.38004 0.0
C1030 C 0.46726 0.49485 0.36363 0.0
C1031 C 0.51204 0.53194 0.37533 0.0
C1032 C 0.5249 0.56724 0.3812 0.0
C1033 C 0.49055 0.46543 0.36379 0.0
C1034 C 0.52499 0.46942 0.36979 0.0
C1035 C 0.53528 0.50251 0.37552 0.0
C1036 C 0.55098 0.43965 0.37019 0.0
C1037 C 0.47786 0.43013 0.35788 0.0
C1038 C 0.56345 0.42677 0.38329 0.0
C1039 C 0.58984 0.40036 0.38375 0.0
C1040 C 0.60444 0.38659 0.37109 0.0
C1041 C 0.59125 0.39906 0.35797 0.0
C1042 C 0.56482 0.42544 0.35754 0.0
H1043 H 0.44826 0.42925 0.35679 0.0
H1044 H 0.48971 0.42606 0.34717 0.0
H1045 H 0.48652 0.40762 0.36478 0.0
H1046 H 0.5531 0.43752 0.39317 0.0
H1047 H 0.59939 0.39144 0.39404 0.0
H1048 H 0.61092 0.39749 0.15442 0.0
H1049 H 0.56339 0.44244 0.15519 0.0
H1050 H 0.55897 0.44332 0.10936 0.0
H1051 H 0.60626 0.39833 0.1084 0.0
H1052 H 0.55937 0.51239 0.14218 0.0
H1053 H 0.4554 0.41872 0.12221 0.0
H1054 H 0.49791 0.40363 0.12911 0.0
H1055 H 0.49498 0.4216 0.11141 0.0
C1056 C 0.6001 0.40745 0.14448 0.0
C1057 C 0.6122 0.39406 0.13134 0.0
C1058 C 0.57293 0.43309 0.14497 0.0
C1059 C 0.55732 0.44557 0.13235 0.0
C1060 C 0.57029 0.43342 0.11922 0.0
H1061 H 0.39009 0.59143 0.10873 0.0
H1062 H 0.43677 0.54587 0.10996 0.0
C1063 C 0.59746 0.40786 0.11871 0.0
C1064 C 0.52704 0.4709 0.13288 0.0
H1065 H 0.43885 0.47978 0.12415 0.0
C1066 C 0.53293 0.50529 0.13834 0.0
C1067 C 0.49267 0.46134 0.12787 0.0
C1068 C 0.48462 0.42423 0.12243 0.0
C1069 C 0.50547 0.53087 0.13853 0.0
C1070 C 0.47117 0.52142 0.13338 0.0
C1071 C 0.4652 0.48686 0.12809 0.0
C1072 C 0.44145 0.54746 0.13289 0.0
C1073 C 0.5137 0.5681 0.14381 0.0
C1074 C 0.42794 0.56264 0.14543 0.0
C1075 C 0.40125 0.58875 0.14479 0.0
C1076 C 0.38751 0.59997 0.13158 0.0
C1077 C 0.40014 0.58356 0.11908 0.0
C1078 C 0.42684 0.55752 0.11975 0.0
H1079 H 0.54297 0.57325 0.14428 0.0
H1080 H 0.50114 0.58858 0.13685 0.0
H1081 H 0.50269 0.57136 0.15469 0.0
H1082 H 0.43839 0.55462 0.1557 0.0
H1083 H 0.392 0.60067 0.15463 0.0
H1084 H 0.39083 0.39279 0.89368 0.0
H1085 H 0.43713 0.43901 0.8937 0.0
H1086 H 0.44086 0.436 0.84787 0.0
H1087 H 0.39435 0.3901 0.84766 0.0
H1088 H 0.50725 0.43865 0.88196 0.0
H1089 H 0.42036 0.54193 0.85713 0.0
H1090 H 0.40274 0.50119 0.86471 0.0
H1091 H 0.42336 0.50063 0.84744 0.0
C1092 C 0.40162 0.40175 0.88359 0.0
C1093 C 0.38863 0.38796 0.87066 0.0
C1094 C 0.42805 0.42817 0.88364 0.0
C1095 C 0.4418 0.44131 0.87078 0.0
C1096 C 0.42996 0.42668 0.85789 0.0
H1097 H 0.59807 0.60286 0.84869 0.0
H1098 H 0.55183 0.55657 0.84859 0.0
C1099 C 0.40355 0.40029 0.85781 0.0
C1100 C 0.4683 0.47062 0.87086 0.0
H1101 H 0.48145 0.55699 0.8603 0.0
C1102 C 0.50163 0.46458 0.87728 0.0
C1103 C 0.46072 0.50435 0.86474 0.0
C1104 C 0.42476 0.51267 0.85822 0.0
C1105 C 0.52796 0.4913 0.87752 0.0
C1106 C 0.52038 0.52503 0.87139 0.0
C1107 C 0.48706 0.53106 0.86497 0.0
C1108 C 0.54685 0.55435 0.8715 0.0
C1109 C 0.56391 0.48301 0.88406 0.0
C1110 C 0.55849 0.56906 0.88441 0.0
C1111 C 0.58485 0.5955 0.88453 0.0
C1112 C 0.59992 0.60781 0.87171 0.0
C1113 C 0.58713 0.59393 0.85876 0.0
C1114 C 0.56075 0.56747 0.85867 0.0
H1115 H 0.56831 0.45375 0.88516 0.0
H1116 H 0.58594 0.49447 0.87756 0.0
H1117 H 0.56529 0.49509 0.89482 0.0
H1118 H 0.54748 0.55975 0.89441 0.0
H1119 H 0.59387 0.60575 0.89469 0.0
H1120 H 0.22942 0.27485 0.93692 0.0
H1121 H 0.20469 0.26257 0.96041 0.0
H1122 H 0.29767 0.31042 0.97985 0.0
H1123 H 0.32124 0.32524 0.9564 0.0
H1124 H 0.2295 0.22023 0.97953 0.0
H1125 H 0.22231 0.35398 0.00408 0.0
H1126 H 0.22974 0.34794 0.98527 0.0
H1127 H 0.26661 0.3456 0.99762 0.0
C1128 C 0.24386 0.28432 0.94614 0.0
C1129 C 0.27679 0.30221 0.94472 0.0
C1130 C 0.22991 0.27673 0.95962 0.0
C1131 C 0.24882 0.28632 0.97197 0.0
C1132 C 0.28186 0.30386 0.97056 0.0
H1133 H 0.24856 0.17449 0.05137 0.0
H1134 H 0.25774 0.19819 0.02743 0.0
C1135 C 0.29555 0.31191 0.9571 0.0
C1136 C 0.23586 0.275 0.98624 0.0
H1137 H 0.22431 0.30391 0.02041 0.0
C1138 C 0.22785 0.2387 0.9884 0.0
C1139 C 0.23293 0.29907 0.99782 0.0
C1140 C 0.23797 0.33887 0.99603 0.0
C1141 C 0.21867 0.22556 0.0019 0.0
C1142 C 0.21877 0.24909 0.01369 0.0
C1143 C 0.22498 0.2857 0.01144 0.0
C1144 C 0.21385 0.23593 0.02848 0.0
C1145 C 0.20892 0.18654 0.00332 0.0
C1146 C 0.18719 0.25038 0.03732 0.0
C1147 C 0.18238 0.2373 0.05115 0.0
C1148 C 0.20421 0.20962 0.05636 0.0
C1149 C 0.23119 0.19566 0.04758 0.0
C1150 C 0.23628 0.209 0.03386 0.0
H1151 H 0.19807 0.17576 0.99318 0.0
H1152 H 0.23328 0.17095 0.00598 0.0
H1153 H 0.18876 0.18226 0.01183 0.0
H1154 H 0.16967 0.27128 0.03341 0.0
H1155 H 0.16096 0.24812 0.0576 0.0
H1156 H 0.25463 0.66488 0.05059 0.0
H1157 H 0.2429 0.68934 0.02694 0.0
H1158 H 0.32993 0.7641 0.03226 0.0
H1159 H 0.34069 0.74055 0.05626 0.0
H1160 H 0.27613 0.79625 0.01999 0.0
H1161 H 0.29804 0.66883 0.9918 0.0
H1162 H 0.26359 0.66357 0.00487 0.0
H1163 H 0.30858 0.67426 0.01039 0.0
C1164 C 0.27118 0.68658 0.0467 0.0
C1165 C 0.29848 0.70092 0.0552 0.0
C1166 C 0.26469 0.70033 0.03314 0.0
C1167 C 0.28618 0.72789 0.02763 0.0
C1168 C 0.31315 0.74267 0.03624 0.0
H1169 H 0.26129 0.76757 0.93669 0.0
H1170 H 0.28784 0.75427 0.95959 0.0
C1171 C 0.3192 0.72934 0.04995 0.0
C1172 C 0.27987 0.74149 0.01299 0.0
H1173 H 0.26494 0.71371 0.97895 0.0
C1174 C 0.27418 0.77827 0.01097 0.0
C1175 C 0.27837 0.7183 0.0011 0.0
C1176 C 0.28791 0.67914 0.00213 0.0
C1177 C 0.26527 0.79219 0.99754 0.0
C1178 C 0.26051 0.76847 0.98594 0.0
C1179 C 0.26792 0.73195 0.98784 0.0
C1180 C 0.24649 0.78043 0.97191 0.0
C1181 C 0.26138 0.83217 0.99598 0.0
C1182 C 0.21438 0.79977 0.97106 0.0
C1183 C 0.19978 0.80876 0.95786 0.0
C1184 C 0.21645 0.79797 0.94513 0.0
C1185 C 0.24834 0.77807 0.94603 0.0
C1186 C 0.26337 0.76978 0.95925 0.0
H1187 H 0.27865 0.84653 0.00373 0.0
H1188 H 0.26845 0.84126 0.98509 0.0
H1189 H 0.23326 0.83986 0.99823 0.0
H1190 H 0.19997 0.80716 0.98061 0.0
H1191 H 0.17496 0.82371 0.95766 0.0
H1192 H 0.6817 0.65939 0.95807 0.0
H1193 H 0.70684 0.67682 0.98105 0.0
H1194 H 0.77537 0.75326 0.9601 0.0
H1195 H 0.74904 0.73748 0.93723 0.0
H1196 H 0.77551 0.67582 0.9917 0.0
H1197 H 0.72352 0.81476 0.98891 0.0
H1198 H 0.70944 0.7803 0.9767 0.0
H1199 H 0.75155 0.80274 0.97417 0.0
C1200 C 0.70219 0.67988 0.95834 0.0
C1201 C 0.7137 0.69662 0.94575 0.0
C1202 C 0.71664 0.68967 0.97148 0.0
C1203 C 0.74269 0.71658 0.9723 0.0
C1204 C 0.75494 0.73273 0.95972 0.0
H1205 H 0.84856 0.82011 0.04343 0.0
H1206 H 0.8331 0.79634 0.01997 0.0
C1207 C 0.7403 0.72314 0.94658 0.0
C1208 C 0.75617 0.72842 0.98635 0.0
H1209 H 0.76169 0.80106 0.00825 0.0
C1210 C 0.77249 0.70318 0.99533 0.0
C1211 C 0.75198 0.76411 0.99109 0.0
C1212 C 0.73287 0.79199 0.98229 0.0
C1213 C 0.78509 0.71283 0.00888 0.0
C1214 C 0.78102 0.7485 0.01354 0.0
C1215 C 0.76492 0.77376 0.00456 0.0
C1216 C 0.79245 0.76025 0.02786 0.0
C1217 C 0.80296 0.68497 0.01806 0.0
C1218 C 0.77461 0.74783 0.04002 0.0
C1219 C 0.78318 0.76155 0.05343 0.0
C1220 C 0.80993 0.78776 0.0549 0.0
C1221 C 0.82798 0.79979 0.04267 0.0
C1222 C 0.81928 0.7862 0.02927 0.0
H1223 H 0.81075 0.66094 0.01184 0.0
H1224 H 0.82717 0.69617 0.02328 0.0
H1225 H 0.78415 0.67645 0.02655 0.0
H1226 H 0.75316 0.72847 0.03908 0.0
H1227 H 0.7677 0.75271 0.06248 0.0
H1228 H 0.81297 0.14948 0.95727 0.0
H1229 H 0.78946 0.16576 0.98068 0.0
H1230 H 0.7262 0.24931 0.96153 0.0
H1231 H 0.75016 0.23386 0.93818 0.0
H1232 H 0.79775 0.23594 0.99266 0.0
H1233 H 0.65492 0.19562 0.98832 0.0
H1234 H 0.68934 0.17768 0.97685 0.0
H1235 H 0.67225 0.2219 0.97384 0.0
C1236 C 0.7937 0.17105 0.95802 0.0
C1237 C 0.78285 0.18984 0.9458 0.0
C1238 C 0.78025 0.18021 0.97138 0.0
C1239 C 0.75565 0.20829 0.97277 0.0
C1240 C 0.74444 0.22692 0.96061 0.0
H1241 H 0.66134 0.32133 0.04377 0.0
H1242 H 0.67713 0.29731 0.02036 0.0
C1243 C 0.758 0.21785 0.94723 0.0
C1244 C 0.74421 0.22007 0.98707 0.0
H1245 H 0.67146 0.22905 0.00873 0.0
C1246 C 0.7702 0.23424 0.99624 0.0
C1247 C 0.7082 0.21804 0.99159 0.0
C1248 C 0.6795 0.20226 0.98221 0.0
C1249 C 0.76106 0.24708 0.00976 0.0
C1250 C 0.72507 0.24482 0.01436 0.0
C1251 C 0.69904 0.2306 0.00519 0.0
C1252 C 0.71396 0.25771 0.02858 0.0
C1253 C 0.78988 0.26391 0.01882 0.0
C1254 C 0.72897 0.243 0.04095 0.0
C1255 C 0.7203 0.2569 0.0543 0.0
C1256 C 0.69582 0.28526 0.05554 0.0
C1257 C 0.6802 0.29938 0.04315 0.0
C1258 C 0.68905 0.28561 0.02979 0.0
H1259 H 0.81331 0.27229 0.01234 0.0
H1260 H 0.77951 0.28762 0.02461 0.0
H1261 H 0.79934 0.24411 0.02677 0.0
H1262 H 0.74796 0.22119 0.04026 0.0
H1263 H 0.7338 0.24617 0.06353 0.0
H1264 H 0.84439 0.23295 0.55584 0.0
H1265 H 0.83274 0.25712 0.53201 0.0
H1266 H 0.73645 0.19359 0.52936 0.0
H1267 H 0.74901 0.16832 0.5528 0.0
H1268 H 0.77219 0.18804 0.50591 0.0
H1269 H 0.76378 0.33211 0.5196 0.0
H1270 H 0.8058 0.31219 0.52432 0.0
H1271 H 0.76538 0.2976 0.53299 0.0
C1272 C 0.82059 0.22456 0.55018 0.0
C1273 C 0.79739 0.19908 0.55613 0.0
C1274 C 0.81384 0.23847 0.53661 0.0
C1275 C 0.78334 0.2277 0.52897 0.0
C1276 C 0.76013 0.20237 0.53503 0.0
H1277 H 0.67783 0.32698 0.45828 0.0
H1278 H 0.70124 0.30843 0.48131 0.0
C1279 C 0.76726 0.18796 0.54842 0.0
C1280 C 0.77597 0.24139 0.51443 0.0
H1281 H 0.76164 0.31741 0.4951 0.0
C1282 C 0.76986 0.21636 0.50356 0.0
C1283 C 0.77273 0.27833 0.51137 0.0
C1284 C 0.77692 0.30661 0.52271 0.0
C1285 C 0.75965 0.22705 0.48985 0.0
C1286 C 0.75705 0.26401 0.4867 0.0
C1287 C 0.76396 0.28912 0.49748 0.0
C1288 C 0.74472 0.27707 0.47261 0.0
C1289 C 0.75014 0.19848 0.47914 0.0
C1290 C 0.76168 0.2662 0.46001 0.0
C1291 C 0.7477 0.27593 0.44677 0.0
C1292 C 0.71724 0.29794 0.44584 0.0
C1293 C 0.70127 0.30996 0.45853 0.0
C1294 C 0.71479 0.29959 0.47174 0.0
H1295 H 0.74366 0.17264 0.48439 0.0
H1296 H 0.72686 0.20659 0.47255 0.0
H1297 H 0.77334 0.19385 0.47201 0.0
H1298 H 0.78527 0.24942 0.4604 0.0
H1299 H 0.76023 0.26492 0.43742 0.0
H1300 H 0.26249 0.17369 0.44081 0.0
H1301 H 0.28759 0.18989 0.46398 0.0
H1302 H 0.18504 0.23129 0.47701 0.0
H1303 H 0.15993 0.21592 0.45383 0.0
H1304 H 0.29037 0.2585 0.4771 0.0
H1305 H 0.21244 0.16159 0.50923 0.0
H1306 H 0.21706 0.15782 0.49015 0.0
H1307 H 0.18516 0.18846 0.49768 0.0
C1308 C 0.24543 0.1869 0.44846 0.0
C1309 C 0.20933 0.19415 0.44534 0.0
C1310 C 0.25974 0.19572 0.46178 0.0
C1311 C 0.23805 0.21139 0.47225 0.0
C1312 C 0.20207 0.21862 0.46916 0.0
H1313 H 0.27927 0.34143 0.54481 0.0
H1314 H 0.26552 0.3153 0.52164 0.0
C1315 C 0.18782 0.20994 0.45588 0.0
C1316 C 0.253 0.22126 0.48631 0.0
H1317 H 0.24064 0.20934 0.522 0.0
C1318 C 0.27984 0.24746 0.48692 0.0
C1319 C 0.23962 0.2064 0.4991 0.0
C1320 C 0.21223 0.17674 0.49906 0.0
C1321 C 0.29238 0.26049 0.50001 0.0
C1322 C 0.27733 0.24725 0.51279 0.0
C1323 C 0.25182 0.21975 0.51219 0.0
C1324 C 0.28632 0.2629 0.52682 0.0
C1325 C 0.32136 0.28859 0.50007 0.0
C1326 C 0.30196 0.2419 0.53752 0.0
C1327 C 0.30984 0.25678 0.55082 0.0
C1328 C 0.30164 0.29278 0.55371 0.0
C1329 C 0.28593 0.31363 0.54294 0.0
C1330 C 0.27819 0.2988 0.52966 0.0
H1331 H 0.33693 0.28836 0.48999 0.0
H1332 H 0.30893 0.31539 0.50119 0.0
H1333 H 0.34005 0.28457 0.50912 0.0
H1334 H 0.30849 0.21412 0.53551 0.0
H1335 H 0.32306 0.24025 0.55866 0.0
H1336 H 0.15417 0.75838 0.555 0.0
H1337 H 0.16677 0.73517 0.53112 0.0
H1338 H 0.26135 0.80131 0.52891 0.0
H1339 H 0.2478 0.82566 0.55242 0.0
H1340 H 0.22649 0.80578 0.50525 0.0
H1341 H 0.23781 0.66202 0.51908 0.0
H1342 H 0.19515 0.68076 0.52361 0.0
H1343 H 0.23493 0.69648 0.53244 0.0
C1344 C 0.1778 0.76759 0.54942 0.0
C1345 C 0.20027 0.79347 0.55554 0.0
C1346 C 0.18509 0.75422 0.53582 0.0
C1347 C 0.21544 0.76591 0.5283 0.0
C1348 C 0.23783 0.79179 0.53449 0.0
H1349 H 0.32287 0.66771 0.45769 0.0
H1350 H 0.29955 0.68636 0.48071 0.0
C1351 C 0.23013 0.80566 0.54791 0.0
C1352 C 0.22356 0.75239 0.51379 0.0
H1353 H 0.23951 0.6766 0.49454 0.0
C1354 C 0.22938 0.7775 0.50292 0.0
C1355 C 0.22759 0.7155 0.51077 0.0
C1356 C 0.2239 0.68715 0.52212 0.0
C1357 C 0.23991 0.76696 0.48924 0.0
C1358 C 0.24316 0.73005 0.48611 0.0
C1359 C 0.23666 0.70486 0.4969 0.0
C1360 C 0.25563 0.71713 0.47201 0.0
C1361 C 0.24897 0.79567 0.47851 0.0
C1362 C 0.23842 0.72765 0.45942 0.0
C1363 C 0.25232 0.71783 0.44617 0.0
C1364 C 0.28298 0.6961 0.44524 0.0
C1365 C 0.29926 0.68449 0.45794 0.0
C1366 C 0.2858 0.69493 0.47115 0.0
H1367 H 0.25509 0.8216 0.48375 0.0
H1368 H 0.27234 0.7879 0.47191 0.0
H1369 H 0.22569 0.79997 0.47139 0.0
H1370 H 0.21465 0.74417 0.4598 0.0
H1371 H 0.23956 0.72853 0.43681 0.0
H1372 H 0.75441 0.84477 0.44467 0.0
H1373 H 0.73103 0.83326 0.46865 0.0
H1374 H 0.80354 0.74407 0.47299 0.0
H1375 H 0.82771 0.75632 0.44934 0.0
H1376 H 0.6977 0.7786 0.48044 0.0
H1377 H 0.82598 0.79747 0.50852 0.0
H1378 H 0.82028 0.8092 0.49005 0.0
H1379 H 0.83033 0.76375 0.4951 0.0
C1380 C 0.76516 0.82265 0.45076 0.0
C1381 C 0.79284 0.80141 0.44521 0.0
C1382 C 0.75192 0.81617 0.46446 0.0
C1383 C 0.7661 0.78831 0.47277 0.0
C1384 C 0.79299 0.76646 0.467 0.0
H1385 H 0.67009 0.67662 0.54296 0.0
H1386 H 0.68658 0.70126 0.51986 0.0
C1387 C 0.80661 0.7733 0.45345 0.0
C1388 C 0.75258 0.7815 0.48738 0.0
H1389 H 0.78059 0.76508 0.5213 0.0
C1390 C 0.71575 0.77611 0.48943 0.0
C1391 C 0.77593 0.7792 0.49921 0.0
C1392 C 0.81524 0.78814 0.49814 0.0
C1393 C 0.70188 0.76685 0.50283 0.0
C1394 C 0.72567 0.76156 0.51438 0.0
C1395 C 0.76229 0.76853 0.51244 0.0
C1396 C 0.71365 0.74774 0.52843 0.0
C1397 C 0.66187 0.7632 0.50444 0.0
C1398 C 0.72445 0.76478 0.54104 0.0
C1399 C 0.71609 0.75005 0.55429 0.0
C1400 C 0.69599 0.71833 0.55527 0.0
C1401 C 0.68511 0.7014 0.54263 0.0
C1402 C 0.6941 0.71575 0.52937 0.0
H1403 H 0.6475 0.78042 0.49667 0.0
H1404 H 0.65401 0.7351 0.50228 0.0
H1405 H 0.65293 0.77045 0.51533 0.0
H1406 H 0.74013 0.78914 0.54062 0.0
H1407 H 0.7267 0.76297 0.56365 0.0
H1408 H 0.6014 0.22801 0.15274 0.0
H1409 H 0.54462 0.19649 0.15195 0.0
H1410 H 0.55732 0.17987 0.10681 0.0
H1411 H 0.61383 0.21267 0.10741 0.0
H1412 H 0.49924 0.21605 0.11206 0.0
H1413 H 0.49937 0.10042 0.14846 0.0
H1414 H 0.51645 0.13909 0.15742 0.0
H1415 H 0.54032 0.12106 0.14237 0.0
C1416 C 0.59286 0.21656 0.14271 0.0
C1417 C 0.61181 0.2235 0.13008 0.0
C1418 C 0.56036 0.19818 0.1423 0.0
C1419 C 0.54661 0.18571 0.12932 0.0
C1420 C 0.56738 0.18931 0.11694 0.0
H1421 H 0.31873 0.1333 0.11684 0.0
H1422 H 0.38422 0.12751 0.11588 0.0
C1423 C 0.59969 0.2081 0.11731 0.0
C1424 C 0.50819 0.17609 0.12825 0.0
H1425 H 0.44137 0.12999 0.14502 0.0
C1426 C 0.48681 0.19647 0.119 0.0
C1427 C 0.49177 0.15067 0.13733 0.0
C1428 C 0.51333 0.12635 0.14683 0.0
C1429 C 0.44947 0.19372 0.1192 0.0
C1430 C 0.43309 0.17022 0.12896 0.0
C1431 C 0.45424 0.14832 0.13767 0.0
C1432 C 0.39397 0.17039 0.13081 0.0
C1433 C 0.42751 0.21715 0.10946 0.0
C1434 C 0.37816 0.19617 0.13963 0.0
C1435 C 0.341 0.19973 0.14009 0.0
C1436 C 0.31925 0.17759 0.13171 0.0
C1437 C 0.3351 0.15094 0.12326 0.0
C1438 C 0.37231 0.14739 0.1228 0.0
H1439 H 0.44433 0.23155 0.10157 0.0
H1440 H 0.40744 0.20076 0.10368 0.0
H1441 H 0.4127 0.23717 0.11589 0.0
H1442 H 0.39466 0.2143 0.14578 0.0
H1443 H 0.32932 0.22055 0.14662 0.0
H1444 H 0.22191 0.67175 0.88522 0.0
H1445 H 0.21626 0.60644 0.88362 0.0
H1446 H 0.12522 0.61831 0.85582 0.0
H1447 H 0.1307 0.68376 0.85745 0.0
H1448 H 0.12465 0.5612 0.88145 0.0
H1449 H 0.23583 0.55682 0.84211 0.0
H1450 H 0.24265 0.58464 0.85751 0.0
H1451 H 0.20864 0.59619 0.84483 0.0
C1452 C 0.20044 0.66032 0.87894 0.0
C1453 C 0.1769 0.68245 0.87136 0.0
C1454 C 0.19723 0.62321 0.87804 0.0
C1455 C 0.17036 0.60783 0.86959 0.0
C1456 C 0.14603 0.62986 0.8624 0.0
H1457 H 0.21101 0.38783 0.84637 0.0
H1458 H 0.17972 0.44503 0.84503 0.0
C1459 C 0.14932 0.66704 0.86326 0.0
C1460 C 0.16973 0.56879 0.8675 0.0
H1461 H 0.2181 0.50182 0.85236 0.0
C1462 C 0.14465 0.54804 0.87493 0.0
C1463 C 0.19542 0.55202 0.85878 0.0
C1464 C 0.22208 0.57344 0.85024 0.0
C1465 C 0.14601 0.51048 0.87447 0.0
C1466 C 0.17338 0.49364 0.86651 0.0
C1467 C 0.19704 0.51465 0.85844 0.0
C1468 C 0.18139 0.45494 0.8677 0.0
C1469 C 0.11861 0.4893 0.88269 0.0
C1470 C 0.19086 0.44057 0.88097 0.0
C1471 C 0.20858 0.40777 0.88179 0.0
C1472 C 0.21769 0.38909 0.86931 0.0
C1473 C 0.20482 0.40174 0.85617 0.0
C1474 C 0.18687 0.43444 0.85538 0.0
H1475 H 0.09297 0.5042 0.88353 0.0
H1476 H 0.11337 0.46295 0.87765 0.0
H1477 H 0.12864 0.48469 0.89365 0.0
H1478 H 0.18752 0.45608 0.89061 0.0
H1479 H 0.21789 0.39876 0.8921 0.0
H1480 H 0.39891 0.76453 0.10348 0.0
H1481 H 0.45741 0.79357 0.10369 0.0
H1482 H 0.44814 0.8111 0.14885 0.0
H1483 H 0.38973 0.78183 0.14884 0.0
H1484 H 0.49275 0.86013 0.11556 0.0
H1485 H 0.52684 0.73139 0.14226 0.0
H1486 H 0.48497 0.73811 0.13309 0.0
H1487 H 0.49199 0.75764 0.15031 0.0
C1488 C 0.40864 0.77566 0.11339 0.0
C1489 C 0.39009 0.7699 0.12622 0.0
C1490 C 0.44209 0.79237 0.11347 0.0
C1491 C 0.45725 0.80372 0.12633 0.0
C1492 C 0.43692 0.80209 0.13885 0.0
H1493 H 0.68048 0.86666 0.1404 0.0
H1494 H 0.61465 0.86718 0.1401 0.0
C1495 C 0.40353 0.78529 0.13881 0.0
C1496 C 0.49615 0.81046 0.12707 0.0
H1497 H 0.57409 0.77081 0.13752 0.0
C1498 C 0.5106 0.84091 0.12049 0.0
C1499 C 0.51925 0.78489 0.13332 0.0
C1500 C 0.50519 0.751 0.14007 0.0
C1501 C 0.54783 0.84634 0.11997 0.0
C1502 C 0.57077 0.82061 0.12615 0.0
C1503 C 0.55625 0.79046 0.13284 0.0
C1504 C 0.61011 0.82321 0.12526 0.0
C1505 C 0.56259 0.87882 0.11249 0.0
C1506 C 0.62906 0.79829 0.11703 0.0
C1507 C 0.66638 0.79786 0.11725 0.0
C1508 C 0.68525 0.82211 0.1258 0.0
C1509 C 0.66632 0.84755 0.13381 0.0
C1510 C 0.62891 0.84808 0.13355 0.0
H1511 H 0.54143 0.89413 0.10684 0.0
H1512 H 0.57546 0.89671 0.1204 0.0
H1513 H 0.58342 0.87073 0.1047 0.0
H1514 H 0.61489 0.7787 0.11067 0.0
H1515 H 0.68049 0.77792 0.11105 0.0
H1516 H 0.77919 0.6066 0.8496 0.0
H1517 H 0.80944 0.54872 0.849 0.0
H1518 H 0.79911 0.5399 0.89454 0.0
H1519 H 0.76938 0.59791 0.89534 0.0
H1520 H 0.86262 0.50443 0.88199 0.0
H1521 H 0.732 0.47006 0.85678 0.0
H1522 H 0.75798 0.50417 0.84812 0.0
H1523 H 0.73962 0.51235 0.86548 0.0
C1524 C 0.78448 0.59302 0.85956 0.0
C1525 C 0.77085 0.60635 0.87248 0.0
C1526 C 0.80182 0.55994 0.85919 0.0
C1527 C 0.80561 0.53979 0.87168 0.0
C1528 C 0.79617 0.55503 0.88477 0.0
H1529 H 0.77728 0.31947 0.88986 0.0
H1530 H 0.78047 0.38496 0.88949 0.0
C1531 C 0.77901 0.58818 0.88519 0.0
C1532 C 0.8123 0.50091 0.87091 0.0
H1533 H 0.77121 0.42285 0.86159 0.0
C1534 C 0.84298 0.48652 0.87736 0.0
C1535 C 0.78617 0.47774 0.86508 0.0
C1536 C 0.75193 0.49166 0.85856 0.0
C1537 C 0.84798 0.4493 0.87823 0.0
C1538 C 0.82158 0.42634 0.87255 0.0
C1539 C 0.79135 0.44075 0.86589 0.0
C1540 C 0.82338 0.38713 0.87405 0.0
C1541 C 0.88062 0.43458 0.88561 0.0
C1542 C 0.84667 0.36694 0.86556 0.0
C1543 C 0.84478 0.3296 0.86574 0.0
C1544 C 0.81952 0.31216 0.87437 0.0
C1545 C 0.79705 0.33242 0.88318 0.0
C1546 C 0.79886 0.36968 0.88297 0.0
H1547 H 0.8971 0.45598 0.89054 0.0
H1548 H 0.87248 0.41525 0.89398 0.0
H1549 H 0.89737 0.41991 0.8778 0.0
H1550 H 0.86544 0.38006 0.85849 0.0
H1551 H 0.86256 0.31435 0.85895 0.0
H1552 H 0.38854 0.22428 0.60328 0.0
H1553 H 0.4458 0.1929 0.60242 0.0
H1554 H 0.45281 0.19742 0.64819 0.0
H1555 H 0.39542 0.2279 0.6492 0.0
H1556 H 0.5028 0.22964 0.61103 0.0
H1557 H 0.49936 0.10216 0.64072 0.0
H1558 H 0.45918 0.12402 0.63447 0.0
H1559 H 0.47993 0.13776 0.65089 0.0
C1560 C 0.40158 0.21739 0.6132 0.0
C1561 C 0.38771 0.22925 0.62629 0.0
C1562 C 0.43434 0.19941 0.61269 0.0
C1563 C 0.45369 0.19289 0.62523 0.0
C1564 C 0.43819 0.20156 0.63838 0.0
H1565 H 0.67393 0.22494 0.6426 0.0
H1566 H 0.60837 0.22364 0.64107 0.0
C1567 C 0.40534 0.21931 0.63892 0.0
C1568 C 0.49232 0.1841 0.6245 0.0
H1569 H 0.55738 0.13161 0.63923 0.0
C1570 C 0.51459 0.20769 0.61695 0.0
C1571 C 0.5078 0.15552 0.63223 0.0
C1572 C 0.48523 0.12823 0.63991 0.0
C1573 C 0.55188 0.20462 0.61751 0.0
C1574 C 0.56735 0.17754 0.62597 0.0
C1575 C 0.54528 0.1527 0.63293 0.0
C1576 C 0.60644 0.1759 0.62808 0.0
C1577 C 0.57457 0.23094 0.60932 0.0
C1578 C 0.62673 0.149 0.62155 0.0
C1579 C 0.66407 0.14976 0.62241 0.0
C1580 C 0.68144 0.1773 0.62987 0.0
C1581 C 0.66102 0.20342 0.63683 0.0
C1582 C 0.62374 0.20274 0.63593 0.0
H1583 H 0.5589 0.24502 0.60097 0.0
H1584 H 0.58535 0.2513 0.61677 0.0
H1585 H 0.5976 0.21723 0.60422 0.0
H1586 H 0.61375 0.12812 0.61545 0.0
H1587 H 0.67943 0.1292 0.61706 0.0
H1588 H 0.13351 0.3116 0.35725 0.0
H1589 H 0.12858 0.37716 0.35625 0.0
H1590 H 0.21231 0.38638 0.38761 0.0
H1591 H 0.21767 0.32098 0.38849 0.0
H1592 H 0.12989 0.4339 0.38609 0.0
H1593 H 0.23306 0.43645 0.34322 0.0
H1594 H 0.20125 0.40027 0.3448 0.0
H1595 H 0.2371 0.40406 0.35737 0.0
C1596 C 0.15066 0.32774 0.36397 0.0
C1597 C 0.17622 0.31154 0.37284 0.0
C1598 C 0.14761 0.36497 0.36348 0.0
C1599 C 0.17 0.3863 0.3719 0.0
C1600 C 0.19466 0.37015 0.38113 0.0
H1601 H 0.22972 0.59281 0.39447 0.0
H1602 H 0.19824 0.53601 0.39348 0.0
C1603 C 0.19773 0.33296 0.38161 0.0
C1604 C 0.17036 0.42544 0.37015 0.0
H1605 H 0.21741 0.49136 0.35362 0.0
C1606 C 0.14855 0.44667 0.37885 0.0
C1607 C 0.19433 0.44171 0.36054 0.0
C1608 C 0.21781 0.41965 0.35086 0.0
C1609 C 0.15138 0.48416 0.37863 0.0
C1610 C 0.17719 0.50042 0.36969 0.0
C1611 C 0.19753 0.479 0.36045 0.0
C1612 C 0.18716 0.5387 0.37089 0.0
C1613 C 0.12715 0.50584 0.38812 0.0
C1614 C 0.19058 0.5598 0.3586 0.0
C1615 C 0.20924 0.59217 0.35908 0.0
C1616 C 0.22484 0.60393 0.37187 0.0
C1617 C 0.21823 0.58451 0.38442 0.0
C1618 C 0.19986 0.55202 0.3839 0.0
H1619 H 0.10113 0.49205 0.38975 0.0
H1620 H 0.13993 0.50895 0.3987 0.0
H1621 H 0.12203 0.53284 0.38363 0.0
H1622 H 0.18096 0.55004 0.34844 0.0
H1623 H 0.21349 0.60664 0.34924 0.0
H1624 H 0.60011 0.77259 0.65279 0.0
H1625 H 0.54123 0.80055 0.65189 0.0
H1626 H 0.55164 0.8144 0.60655 0.0
H1627 H 0.61038 0.7858 0.60724 0.0
H1628 H 0.50389 0.86289 0.64018 0.0
H1629 H 0.4755 0.73429 0.6124 0.0
H1630 H 0.51724 0.7426 0.62143 0.0
H1631 H 0.5088 0.76242 0.60434 0.0
C1632 C 0.59056 0.78273 0.64268 0.0
C1633 C 0.60944 0.77595 0.63001 0.0
C1634 C 0.55687 0.79882 0.6422 0.0
C1635 C 0.54185 0.80862 0.6291 0.0
C1636 C 0.56266 0.8064 0.61672 0.0
H1637 H 0.31496 0.86346 0.61758 0.0
H1638 H 0.38064 0.86731 0.61726 0.0
C1639 C 0.59623 0.79003 0.61715 0.0
C1640 C 0.50276 0.81397 0.62812 0.0
H1641 H 0.4267 0.77141 0.6173 0.0
C1642 C 0.48693 0.84324 0.63502 0.0
C1643 C 0.48083 0.78778 0.6216 0.0
C1644 C 0.49628 0.75482 0.61461 0.0
C1645 C 0.4495 0.84677 0.6357 0.0
C1646 C 0.42776 0.82037 0.62928 0.0
C1647 C 0.44363 0.79158 0.62216 0.0
C1648 C 0.38838 0.82056 0.63049 0.0
C1649 C 0.43337 0.87778 0.64369 0.0
C1650 C 0.37125 0.79292 0.63795 0.0
C1651 C 0.33402 0.79053 0.63803 0.0
C1652 C 0.31341 0.81565 0.63059 0.0
C1653 C 0.33049 0.84371 0.62333 0.0
C1654 C 0.36782 0.84613 0.62325 0.0
H1655 H 0.4538 0.89304 0.64977 0.0
H1656 H 0.42034 0.89624 0.63603 0.0
H1657 H 0.41248 0.86814 0.65117 0.0
H1658 H 0.38678 0.77278 0.64349 0.0
H1659 H 0.32135 0.76854 0.64361 0.0
H1660 H 0.86531 0.68411 0.3845 0.0
H1661 H 0.86936 0.61851 0.38563 0.0
H1662 H 0.77457 0.61004 0.35964 0.0
H1663 H 0.77016 0.6754 0.35869 0.0
H1664 H 0.77431 0.57207 0.38672 0.0
H1665 H 0.89434 0.54332 0.35346 0.0
H1666 H 0.89742 0.57809 0.36668 0.0
H1667 H 0.86881 0.5841 0.35156 0.0
C1668 C 0.84554 0.66808 0.37898 0.0
C1669 C 0.81736 0.68449 0.37154 0.0
C1670 C 0.84806 0.63079 0.37953 0.0
C1671 C 0.82246 0.60962 0.3726 0.0
C1672 C 0.79471 0.62606 0.36496 0.0
H1673 H 0.77316 0.40012 0.34995 0.0
H1674 H 0.80205 0.4584 0.35151 0.0
C1675 C 0.79222 0.66324 0.3644 0.0
C1676 C 0.82245 0.57037 0.37423 0.0
H1677 H 0.86355 0.49378 0.36309 0.0
C1678 C 0.79405 0.55487 0.38173 0.0
C1679 C 0.84831 0.54832 0.36766 0.0
C1680 C 0.87895 0.56407 0.35931 0.0
C1681 C 0.78987 0.51773 0.3824 0.0
C1682 C 0.81533 0.49546 0.37561 0.0
C1683 C 0.84444 0.51096 0.36844 0.0
C1684 C 0.809 0.45656 0.37434 0.0
C1685 C 0.75706 0.50278 0.38969 0.0
C1686 C 0.80585 0.43516 0.38654 0.0
C1687 C 0.78886 0.40194 0.38573 0.0
C1688 C 0.77519 0.38962 0.37267 0.0
C1689 C 0.7829 0.40901 0.36021 0.0
C1690 C 0.79954 0.44237 0.36106 0.0
H1691 H 0.73701 0.52387 0.39212 0.0
H1692 H 0.74404 0.48213 0.38296 0.0
H1693 H 0.76504 0.49005 0.39987 0.0
H1694 H 0.81372 0.44545 0.39685 0.0
H1695 H 0.78395 0.38731 0.39549 0.0
H1696 H 0.09796 0.71731 0.64857 0.0
H1697 H 0.04096 0.6867 0.64627 0.0
H1698 H 0.05417 0.68279 0.6007 0.0
H1699 H 0.11102 0.7145 0.60287 0.0
H1700 H 0.99683 0.71929 0.60771 0.0
H1701 H 0.9934 0.59311 0.63802 0.0
H1702 H 0.01198 0.62809 0.64875 0.0
H1703 H 0.03495 0.61413 0.63282 0.0
C1704 C 0.08951 0.70881 0.63808 0.0
C1705 C 0.10867 0.71914 0.62587 0.0
C1706 C 0.05688 0.69092 0.63679 0.0
C1707 C 0.04317 0.68244 0.62331 0.0
C1708 C 0.06421 0.68915 0.61122 0.0
H1709 H 0.8135 0.63059 0.61476 0.0
H1710 H 0.87888 0.62477 0.61257 0.0
C1711 C 0.09672 0.70734 0.61248 0.0
C1712 C 0.00455 0.67426 0.62176 0.0
H1713 H 0.93642 0.62553 0.63632 0.0
C1714 C 0.9838 0.69812 0.61367 0.0
C1715 C 0.98738 0.64668 0.6295 0.0
C1716 C 0.00823 0.61886 0.63763 0.0
C1717 C 0.9464 0.69668 0.6139 0.0
C1718 C 0.9293 0.67105 0.62256 0.0
C1719 C 0.94979 0.64556 0.62988 0.0
C1720 C 0.89028 0.67234 0.62484 0.0
C1721 C 0.92535 0.72353 0.6053 0.0
C1722 C 0.87543 0.70063 0.63267 0.0
C1723 C 0.83838 0.704 0.6339 0.0
C1724 C 0.81576 0.67914 0.62729 0.0
C1725 C 0.83063 0.6502 0.61983 0.0
C1726 C 0.86777 0.64675 0.61864 0.0
H1727 H 0.9419 0.73589 0.5968 0.0
H1728 H 0.90157 0.71076 0.60036 0.0
H1729 H 0.91578 0.74515 0.61244 0.0
H1730 H 0.89254 0.72054 0.63756 0.0
H1731 H 0.82737 0.7265 0.63969 0.0
H1732 H 0.7295 0.90278 0.39583 0.0
H1733 H 0.69855 0.95986 0.39479 0.0
H1734 H 0.6748 0.94252 0.35041 0.0
H1735 H 0.70685 0.88567 0.35122 0.0
H1736 H 0.71298 0.00064 0.35388 0.0
H1737 H 0.60234 0.00598 0.39261 0.0
H1738 H 0.64197 0.98903 0.40095 0.0
H1739 H 0.62143 0.96416 0.38669 0.0
C1740 C 0.71661 0.91039 0.38595 0.0
C1741 C 0.72135 0.89001 0.37352 0.0
C1742 C 0.69857 0.94307 0.38541 0.0
C1743 C 0.68432 0.95558 0.37252 0.0
C1744 C 0.68567 0.93343 0.36047 0.0
H1745 H 0.63594 0.18347 0.35712 0.0
H1746 H 0.62971 0.11799 0.35636 0.0
C1747 C 0.70403 0.90091 0.36096 0.0
C1748 C 0.67506 0.99397 0.37099 0.0
H1749 H 0.63212 0.06305 0.38756 0.0
C1750 C 0.69448 0.01407 0.36098 0.0
C1751 C 0.65108 0.01165 0.38029 0.0
C1752 C 0.62778 0.99143 0.39063 0.0
C1753 C 0.69226 0.05143 0.36063 0.0
C1754 C 0.67023 0.06911 0.37055 0.0
C1755 C 0.64926 0.04919 0.38005 0.0
C1756 C 0.67133 0.10834 0.37187 0.0
C1757 C 0.71488 0.07207 0.35015 0.0
C1758 C 0.69669 0.12418 0.38088 0.0
C1759 C 0.70054 0.16129 0.38121 0.0
C1760 C 0.67904 0.183 0.37254 0.0
C1761 C 0.65307 0.16713 0.36377 0.0
C1762 C 0.64927 0.12994 0.36341 0.0
H1763 H 0.72907 0.05424 0.34257 0.0
H1764 H 0.69784 0.09093 0.34404 0.0
H1765 H 0.73504 0.08818 0.35601 0.0
H1766 H 0.71412 0.10773 0.38737 0.0
H1767 H 0.72084 0.17301 0.38799 0.0
H1768 H 0.17965 0.36464 0.64265 0.0
H1769 H 0.11393 0.36677 0.64352 0.0
H1770 H 0.10853 0.28741 0.61033 0.0
H1771 H 0.17411 0.28463 0.60962 0.0
H1772 H 0.05787 0.36314 0.61161 0.0
H1773 H 0.05818 0.26406 0.65603 0.0
H1774 H 0.09131 0.29913 0.6552 0.0
H1775 H 0.09289 0.26306 0.64268 0.0
C1776 C 0.16434 0.3478 0.63552 0.0
C1777 C 0.18173 0.32426 0.62614 0.0
C1778 C 0.12698 0.34928 0.63594 0.0
C1779 C 0.10666 0.32737 0.62694 0.0
C1780 C 0.12395 0.30472 0.61725 0.0
H1781 H 0.90066 0.25921 0.60512 0.0
H1782 H 0.9573 0.29113 0.60552 0.0
C1783 C 0.16127 0.30314 0.61686 0.0
C1784 C 0.06746 0.32542 0.62849 0.0
H1785 H 0.00285 0.27827 0.6458 0.0
C1786 C 0.04562 0.34504 0.6192 0.0
C1787 C 0.05184 0.30212 0.63852 0.0
C1788 C 0.07454 0.28077 0.64874 0.0
C1789 C 0.00823 0.34089 0.61938 0.0
C1790 C 0.99267 0.31584 0.62885 0.0
C1791 C 0.01465 0.29757 0.63857 0.0
C1792 C 0.95461 0.30475 0.6279 0.0
C1793 C 0.98592 0.36308 0.60934 0.0
C1794 C 0.93361 0.30241 0.64026 0.0
C1795 C 0.90136 0.28348 0.64012 0.0
C1796 C 0.88954 0.26655 0.62761 0.0
C1797 C 0.90894 0.27183 0.61496 0.0
C1798 C 0.94135 0.29043 0.61514 0.0
H1799 H -0.0011 0.38927 0.60718 0.0
H1800 H 0.98339 0.34881 0.59904 0.0
H1801 H 0.95869 0.36794 0.61365 0.0
H1802 H 0.94329 0.31328 0.65022 0.0
H1803 H 0.88692 0.2802 0.65003 0.0
H1804 H 0.26709 0.09321 0.3952 0.0
H1805 H 0.29743 0.03579 0.3941 0.0
H1806 H 0.31774 0.05145 0.34935 0.0
H1807 H 0.28638 0.10869 0.35024 0.0
H1808 H 0.27928 0.99342 0.3538 0.0
H1809 H 0.39369 0.98959 0.39087 0.0
H1810 H 0.35476 0.00701 0.39958 0.0
H1811 H 0.37416 0.03115 0.38487 0.0
C1812 C 0.27909 0.08514 0.38521 0.0
C1813 C 0.2736 0.10522 0.37273 0.0
C1814 C 0.29676 0.05227 0.38463 0.0
C1815 C 0.30989 0.03921 0.37164 0.0
C1816 C 0.30775 0.06097 0.35948 0.0
H1817 H 0.36102 0.81202 0.35662 0.0
H1818 H 0.36579 0.87762 0.35584 0.0
C1819 C 0.28979 0.09372 0.36002 0.0
C1820 C 0.31893 0.00075 0.37024 0.0
H1821 H 0.36412 0.93234 0.38633 0.0
C1822 C 0.29856 0.98027 0.36066 0.0
C1823 C 0.34394 0.98344 0.37922 0.0
C1824 C 0.36811 0.00407 0.3891 0.0
C1825 C 0.30102 0.94291 0.36042 0.0
C1826 C 0.32427 0.92561 0.37002 0.0
C1827 C 0.34605 0.94591 0.37909 0.0
C1828 C 0.32399 0.88635 0.37136 0.0
C1829 C 0.27756 0.92188 0.35038 0.0
C1830 C 0.29901 0.86995 0.38038 0.0
C1831 C 0.29603 0.83274 0.38074 0.0
C1832 C 0.31799 0.81151 0.37207 0.0
C1833 C 0.34356 0.82798 0.36328 0.0
C1834 C 0.34653 0.86524 0.36291 0.0
H1835 H 0.2628 0.93942 0.34285 0.0
H1836 H 0.29405 0.90271 0.34419 0.0
H1837 H 0.25784 0.9061 0.3566 0.0
H1838 H 0.28123 0.886 0.38686 0.0
H1839 H 0.27602 0.82057 0.38753 0.0
H1840 H 0.90251 0.73077 0.10745 0.0
H1841 H 0.95899 0.69888 0.10929 0.0
H1842 H 0.94423 0.68823 0.15461 0.0
H1843 H 0.88792 0.72105 0.15294 0.0
H1844 H 0.00325 0.72439 0.14846 0.0
H1845 H 0.00245 0.60197 0.1157 0.0
H1846 H 0.98531 0.6392 0.1058 0.0
H1847 H 0.96169 0.62373 0.12135 0.0
C1848 C 0.91056 0.72062 0.11776 0.0
C1849 C 0.89106 0.72921 0.1301 0.0
C1850 C 0.94285 0.70202 0.11878 0.0
C1851 C 0.95591 0.69113 0.13209 0.0
C1852 C 0.93466 0.69642 0.14423 0.0
H1853 H 0.18282 0.63268 0.14424 0.0
H1854 H 0.11714 0.62957 0.14585 0.0
C1855 C 0.90246 0.71524 0.14325 0.0
C1856 C 0.99415 0.68134 0.13361 0.0
H1857 H 0.06063 0.63106 0.1187 0.0
C1858 C 0.01559 0.70332 0.14224 0.0
C1859 C 0.01038 0.65393 0.12548 0.0
C1860 C 0.98862 0.62816 0.11668 0.0
C1861 C 0.0529 0.7001 0.14225 0.0
C1862 C 0.06916 0.67447 0.13335 0.0
C1863 C 0.04787 0.651 0.12537 0.0
C1864 C 0.1083 0.67391 0.13151 0.0
C1865 C 0.07493 0.72516 0.15129 0.0
C1866 C 0.12465 0.69969 0.12282 0.0
C1867 C 0.16187 0.70155 0.12193 0.0
C1868 C 0.18316 0.6777 0.12973 0.0
C1869 C 0.16676 0.65142 0.1382 0.0
C1870 C 0.12945 0.64948 0.13906 0.0
H1871 H 0.05831 0.73967 0.15921 0.0
H1872 H 0.09619 0.71015 0.15699 0.0
H1873 H 0.08822 0.74515 0.14433 0.0
H1874 H 0.10857 0.71885 0.117 0.0
H1875 H 0.17406 0.72214 0.11542 0.0
H1876 H 0.71904 0.82026 0.88731 0.0
H1877 H 0.7159 0.88571 0.88644 0.0
H1878 H 0.62826 0.87929 0.85668 0.0
H1879 H 0.6311 0.81359 0.85765 0.0
H1880 H 0.72258 0.92374 0.85866 0.0
H1881 H 0.59805 0.95475 0.88886 0.0
H1882 H 0.62318 0.91413 0.89186 0.0
H1883 H 0.59732 0.91913 0.87593 0.0
C1884 C 0.6988 0.83288 0.88076 0.0
C1885 C 0.67543 0.81218 0.8725 0.0
C1886 C 0.69702 0.87011 0.88026 0.0
C1887 C 0.67167 0.88714 0.87158 0.0
C1888 C 0.6477 0.86652 0.86355 0.0
H1889 H 0.71403 0.1085 0.84866 0.0
H1890 H 0.68414 0.05047 0.84741 0.0
C1891 C 0.64955 0.82918 0.86402 0.0
C1892 C 0.67279 0.92638 0.87005 0.0
H1893 H 0.63167 0.00374 0.88031 0.0
C1894 C 0.70251 0.94132 0.8632 0.0
C1895 C 0.6465 0.94891 0.87606 0.0
C1896 C 0.61441 0.93367 0.88367 0.0
C1897 C 0.70739 0.97838 0.86259 0.0
C1898 C 0.68143 0.00111 0.86882 0.0
C1899 C 0.65117 0.98619 0.87539 0.0
C1900 C 0.68807 0.03996 0.86998 0.0
C1901 C 0.74124 0.99282 0.85592 0.0
C1902 C 0.69738 0.05437 0.88324 0.0
C1903 C 0.71427 0.08762 0.88403 0.0
C1904 C 0.72231 0.10674 0.87153 0.0
C1905 C 0.70881 0.09419 0.85847 0.0
C1906 C 0.69172 0.06101 0.85772 0.0
H1907 H 0.76117 0.97142 0.85382 0.0
H1908 H 0.73462 0.00583 0.84564 0.0
H1909 H 0.75379 0.0132 0.86292 0.0
H1910 H 0.69452 0.03857 0.89284 0.0
H1911 H 0.72381 0.09671 0.89429 0.0
H1912 H 0.82591 0.27102 0.1404 0.0
H1913 H 0.89135 0.2743 0.13929 0.0
H1914 H 0.88409 0.37016 0.11388 0.0
H1915 H 0.81839 0.36723 0.1152 0.0
H1916 H 0.93058 0.27379 0.11307 0.0
H1917 H 0.95829 0.39458 0.14594 0.0
H1918 H 0.91679 0.36997 0.14725 0.0
H1919 H 0.92494 0.39827 0.13219 0.0
C1920 C 0.83837 0.29299 0.13473 0.0
C1921 C 0.81741 0.31881 0.12785 0.0
C1922 C 0.87561 0.29483 0.13408 0.0
C1923 C 0.89245 0.32263 0.1266 0.0
C1924 C 0.87155 0.34879 0.11986 0.0
H1925 H 0.11622 0.28388 0.10537 0.0
H1926 H 0.05768 0.3126 0.10342 0.0
C1927 C 0.83419 0.34692 0.1205 0.0
C1928 C 0.93183 0.32249 0.1252 0.0
H1929 H 0.00814 0.36395 0.13653 0.0
C1930 C 0.94761 0.29372 0.11802 0.0
C1931 C 0.95373 0.34857 0.13174 0.0
C1932 C 0.93779 0.37957 0.1398 0.0
C1933 C 0.98481 0.28946 0.11763 0.0
C1934 C 0.00689 0.31519 0.12437 0.0
C1935 C 0.99113 0.34462 0.13122 0.0
C1936 C 0.04581 0.30901 0.12589 0.0
C1937 C 1e-05 0.25633 0.11069 0.0
C1938 C 0.0597 0.30049 0.13933 0.0
C1939 C 0.09329 0.28443 0.14053 0.0
C1940 C 0.11331 0.27637 0.12826 0.0
C1941 C 0.1012 0.28909 0.11501 0.0
C1942 C 0.0677 0.30545 0.11385 0.0
H1943 H 0.979 0.23617 0.1083 0.0
H1944 H 0.01311 0.26381 0.10052 0.0
H1945 H 0.02044 0.24367 0.11764 0.0
H1946 H 0.04331 0.30334 0.14877 0.0
H1947 H 0.10196 0.27544 0.15093 0.0
H1948 H 0.28292 0.88567 0.89402 0.0
H1949 H 0.31387 0.94322 0.89549 0.0
H1950 H 0.29509 0.96069 0.85075 0.0
H1951 H 0.26541 0.90288 0.84905 0.0
H1952 H 0.35757 0.99324 0.86005 0.0
H1953 H 0.24197 0.02479 0.89537 0.0
H1954 H 0.27112 0.98989 0.9015 0.0
H1955 H 0.24493 0.98338 0.88566 0.0
C1956 C 0.28643 0.90124 0.8844 0.0
C1957 C 0.27084 0.89019 0.8715 0.0
C1958 C 0.30401 0.93416 0.88527 0.0
C1959 C 0.3056 0.95669 0.87334 0.0
C1960 C 0.29381 0.94386 0.86013 0.0
H1961 H 0.27312 0.17369 0.85565 0.0
H1962 H 0.2789 0.1084 0.85677 0.0
C1963 C 0.27673 0.91075 0.85919 0.0
C1964 C 0.31369 0.99525 0.87489 0.0
H1965 H 0.27869 0.07229 0.88858 0.0
C1966 C 0.34082 0.01049 0.86649 0.0
C1967 C 0.29131 0.01775 0.88316 0.0
C1968 C 0.26051 0.00331 0.89185 0.0
C1969 C 0.34541 0.04776 0.86584 0.0
C1970 C 0.32238 0.06998 0.87377 0.0
C1971 C 0.29631 0.05483 0.88259 0.0
C1972 C 0.32221 0.10911 0.87204 0.0
C1973 C 0.37358 0.06344 0.8562 0.0
C1974 C 0.34482 0.13076 0.88023 0.0
C1975 C 0.34156 0.16798 0.8796 0.0
C1976 C 0.31553 0.1838 0.87083 0.0
C1977 C 0.2935 0.16202 0.86241 0.0
C1978 C 0.29678 0.12489 0.86304 0.0
H1979 H 0.39032 0.0425 0.8511 0.0
H1980 H 0.3605 0.0796 0.84776 0.0
H1981 H 0.39117 0.08167 0.86237 0.0
H1982 H 0.36435 0.11887 0.88731 0.0
H1983 H 0.35902 0.1844 0.88608 0.0
loop_
_geom_bond_atom_site_label_1
_geom_bond_atom_site_label_2
_geom_bond_distance
_geom_bond_site_symmetry_2
_ccdc_geom_bond_type
Co0 O3 1.970 . S
Co0 N17 1.989 . S
Co0 O25 1.967 . S
Co0 O32 1.920 . S
Co1 O4 1.966 . S
Co1 N10 2.022 . S
Co1 N18 1.993 . S
Co1 O26 1.941 . S
C2 O3 1.258 . S
C2 O4 1.263 . S
O3 Co0 1.970 . S
O3 C2 1.258 . S
O4 Co1 1.966 . S
O4 C2 1.263 . S
C5 O6 1.235 . S
C5 O32 1.289 . S
O6 C5 1.235 . S
C7 C9 1.400 . S
C7 N10 1.351 . S
C7 C12 1.501 . S
C8 C9 1.387 . S
C8 N11 1.341 . S
C9 C7 1.400 . S
C9 C8 1.387 . S
N10 Co1 2.022 . S
N10 C7 1.351 . S
N10 N11 1.365 . S
N11 C8 1.341 . S
N11 N10 1.365 . S
N11 H31 0.862 . S
C12 C7 1.501 . S
C12 H13 0.961 . S
C12 H14 0.961 . S
C12 H15 0.960 . S
H13 C12 0.961 . S
H14 C12 0.961 . S
H15 C12 0.960 . S
C16 N17 1.342 . S
C16 C20 1.401 . S
C16 C21 1.499 . S
N17 Co0 1.989 . S
N17 C16 1.342 . S
N17 N18 1.388 . S
N18 Co1 1.993 . S
N18 N17 1.388 . S
N18 C19 1.346 . S
C19 N18 1.346 . S
C19 C20 1.396 . S
C19 C29 1.510 . S
C20 C16 1.401 . S
C20 C19 1.396 . S
C21 C16 1.499 . S
C21 H22 0.959 . S
C21 H23 0.960 . S
C21 H24 0.961 . S
H22 C21 0.959 . S
H23 C21 0.960 . S
H24 C21 0.961 . S
O25 Co0 1.967 . S
O25 C33 1.258 . S
O26 Co1 1.941 . S
O26 C33 1.266 . S
H27 C29 0.959 . S
H28 C29 0.961 . S
C29 C19 1.510 . S
C29 H27 0.959 . S
C29 H28 0.961 . S
C29 H30 0.960 . S
H30 C29 0.960 . S
H31 N11 0.862 . S
O32 Co0 1.920 . S
O32 C5 1.289 . S
C33 O25 1.258 . S
C33 O26 1.266 . S
Co34 O37 1.970 . S
Co34 N51 1.989 . S
Co34 O59 1.967 . S
Co34 O66 1.920 . S
Co35 O38 1.966 . S
Co35 N44 2.022 . S
Co35 N52 1.993 . S
Co35 O60 1.941 . S
C36 O37 1.258 . S
C36 O38 1.263 . S
O37 Co34 1.970 . S
O37 C36 1.258 . S
O38 Co35 1.966 . S
O38 C36 1.263 . S
C39 O40 1.235 . S
C39 O66 1.289 . S
O40 C39 1.235 . S
C41 C43 1.400 . S
C41 N44 1.351 . S
C41 C46 1.501 . S
C42 C43 1.387 . S
C42 N45 1.341 . S
C43 C41 1.400 . S
C43 C42 1.387 . S
N44 Co35 2.022 . S
N44 C41 1.351 . S
N44 N45 1.365 . S
N45 C42 1.341 . S
N45 N44 1.365 . S
N45 H65 0.862 . S
C46 C41 1.501 . S
C46 H47 0.961 . S
C46 H48 0.961 . S
C46 H49 0.960 . S
H47 C46 0.961 . S
H48 C46 0.961 . S
H49 C46 0.960 . S
C50 N51 1.342 . S
C50 C54 1.401 . S
C50 C55 1.499 . S
N51 Co34 1.989 . S
N51 C50 1.342 . S
N51 N52 1.388 . S
N52 Co35 1.993 . S
N52 N51 1.388 . S
N52 C53 1.346 . S
C53 N52 1.346 . S
C53 C54 1.396 . S
C53 C63 1.510 . S
C54 C50 1.401 . S
C54 C53 1.396 . S
C55 C50 1.499 . S
C55 H56 0.959 . S
C55 H57 0.960 . S
C55 H58 0.961 . S
H56 C55 0.959 . S
H57 C55 0.960 . S
H58 C55 0.961 . S
O59 Co34 1.967 . S
O59 C67 1.258 . S
O60 Co35 1.941 . S
O60 C67 1.266 . S
H61 C63 0.959 . S
H62 C63 0.961 . S
C63 C53 1.510 . S
C63 H61 0.959 . S
C63 H62 0.961 . S
C63 H64 0.960 . S
H64 C63 0.960 . S
H65 N45 0.862 . S
O66 Co34 1.920 . S
O66 C39 1.289 . S
C67 O59 1.258 . S
C67 O60 1.266 . S
Co68 O71 1.970 . S
Co68 N85 1.989 . S
Co68 O93 1.967 . S
Co68 O100 1.920 . S
Co69 O72 1.966 . S
Co69 N78 2.022 . S
Co69 N86 1.993 . S
Co69 O94 1.941 . S
C70 O71 1.258 . S
C70 O72 1.263 . S
O71 Co68 1.970 . S
O71 C70 1.258 . S
O72 Co69 1.966 . S
O72 C70 1.263 . S
C73 O74 1.235 . S
C73 O100 1.289 . S
O74 C73 1.235 . S
C75 C77 1.400 . S
C75 N78 1.351 . S
C75 C80 1.501 . S
C76 C77 1.387 . S
C76 N79 1.341 . S
C77 C75 1.400 . S
C77 C76 1.387 . S
N78 Co69 2.022 . S
N78 C75 1.351 . S
N78 N79 1.365 . S
N79 C76 1.341 . S
N79 N78 1.365 . S
N79 H99 0.862 . S
C80 C75 1.501 . S
C80 H81 0.961 . S
C80 H82 0.961 . S
C80 H83 0.960 . S
H81 C80 0.961 . S
H82 C80 0.961 . S
H83 C80 0.960 . S
C84 N85 1.342 . S
C84 C88 1.401 . S
C84 C89 1.499 . S
N85 Co68 1.989 . S
N85 C84 1.342 . S
N85 N86 1.388 . S
N86 Co69 1.993 . S
N86 N85 1.388 . S
N86 C87 1.346 . S
C87 N86 1.346 . S
C87 C88 1.396 . S
C87 C97 1.510 . S
C88 C84 1.401 . S
C88 C87 1.396 . S
C89 C84 1.499 . S
C89 H90 0.959 . S
C89 H91 0.960 . S
C89 H92 0.961 . S
H90 C89 0.959 . S
H91 C89 0.960 . S
H92 C89 0.961 . S
O93 Co68 1.967 . S
O93 C101 1.258 . S
O94 Co69 1.941 . S
O94 C101 1.266 . S
H95 C97 0.959 . S
H96 C97 0.961 . S
C97 C87 1.510 . S
C97 H95 0.959 . S
C97 H96 0.961 . S
C97 H98 0.960 . S
H98 C97 0.960 . S
H99 N79 0.862 . S
O100 Co68 1.920 . S
O100 C73 1.289 . S
C101 O93 1.258 . S
C101 O94 1.266 . S
Co102 O105 1.970 . S
Co102 N119 1.989 . S
Co102 O127 1.967 . S
Co102 O134 1.920 . S
Co103 O106 1.966 . S
Co103 N112 2.022 . S
Co103 N120 1.993 . S
Co103 O128 1.941 . S
C104 O105 1.258 . S
C104 O106 1.263 . S
O105 Co102 1.970 . S
O105 C104 1.258 . S
O106 Co103 1.966 . S
O106 C104 1.263 . S
C107 O108 1.235 . S
C107 O134 1.289 . S
O108 C107 1.235 . S
C109 C111 1.400 . S
C109 N112 1.351 . S
C109 C114 1.501 . S
C110 C111 1.387 . S
C110 N113 1.341 . S
C111 C109 1.400 . S
C111 C110 1.387 . S
N112 Co103 2.022 . S
N112 C109 1.351 . S
N112 N113 1.365 . S
N113 C110 1.341 . S
N113 N112 1.365 . S
N113 H133 0.862 . S
C114 C109 1.501 . S
C114 H115 0.961 . S
C114 H116 0.961 . S
C114 H117 0.960 . S
H115 C114 0.961 . S
H116 C114 0.961 . S
H117 C114 0.960 . S
C118 N119 1.342 . S
C118 C122 1.401 . S
C118 C123 1.499 . S
N119 Co102 1.989 . S
N119 C118 1.342 . S
N119 N120 1.388 . S
N120 Co103 1.993 . S
N120 N119 1.388 . S
N120 C121 1.346 . S
C121 N120 1.346 . S
C121 C122 1.396 . S
C121 C131 1.510 . S
C122 C118 1.401 . S
C122 C121 1.396 . S
C123 C118 1.499 . S
C123 H124 0.959 . S
C123 H125 0.960 . S
C123 H126 0.961 . S
H124 C123 0.959 . S
H125 C123 0.960 . S
H126 C123 0.961 . S
O127 Co102 1.967 . S
O127 C135 1.258 . S
O128 Co103 1.941 . S
O128 C135 1.266 . S
H129 C131 0.959 . S
H130 C131 0.961 . S
C131 C121 1.510 . S
C131 H129 0.959 . S
C131 H130 0.961 . S
C131 H132 0.960 . S
H132 C131 0.960 . S
H133 N113 0.862 . S
O134 Co102 1.920 . S
O134 C107 1.289 . S
C135 O127 1.258 . S
C135 O128 1.266 . S
Co136 O139 1.970 . S
Co136 N153 1.989 . S
Co136 O161 1.967 . S
Co136 O168 1.920 . S
Co137 O140 1.966 . S
Co137 N146 2.022 . S
Co137 N154 1.993 . S
Co137 O162 1.941 . S
C138 O139 1.258 . S
C138 O140 1.263 . S
O139 Co136 1.970 . S
O139 C138 1.258 . S
O140 Co137 1.966 . S
O140 C138 1.263 . S
C141 O142 1.235 . S
C141 O168 1.289 . S
O142 C141 1.235 . S
C143 C145 1.400 . S
C143 N146 1.351 . S
C143 C148 1.501 . S
C144 C145 1.387 . S
C144 N147 1.341 . S
C145 C143 1.400 . S
C145 C144 1.387 . S
N146 Co137 2.022 . S
N146 C143 1.351 . S
N146 N147 1.365 . S
N147 C144 1.341 . S
N147 N146 1.365 . S
N147 H167 0.862 . S
C148 C143 1.501 . S
C148 H149 0.961 . S
C148 H150 0.961 . S
C148 H151 0.960 . S
H149 C148 0.961 . S
H150 C148 0.961 . S
H151 C148 0.960 . S
C152 N153 1.342 . S
C152 C156 1.401 . S
C152 C157 1.499 . S
N153 Co136 1.989 . S
N153 C152 1.342 . S
N153 N154 1.388 . S
N154 Co137 1.993 . S
N154 N153 1.388 . S
N154 C155 1.346 . S
C155 N154 1.346 . S
C155 C156 1.396 . S
C155 C165 1.510 . S
C156 C152 1.401 . S
C156 C155 1.396 . S
C157 C152 1.499 . S
C157 H158 0.959 . S
C157 H159 0.960 . S
C157 H160 0.961 . S
H158 C157 0.959 . S
H159 C157 0.960 . S
H160 C157 0.961 . S
O161 Co136 1.967 . S
O161 C169 1.258 . S
O162 Co137 1.941 . S
O162 C169 1.266 . S
H163 C165 0.959 . S
H164 C165 0.961 . S
C165 C155 1.510 . S
C165 H163 0.959 . S
C165 H164 0.961 . S
C165 H166 0.960 . S
H166 C165 0.960 . S
H167 N147 0.862 . S
O168 Co136 1.920 . S
O168 C141 1.289 . S
C169 O161 1.258 . S
C169 O162 1.266 . S
Co170 O173 1.970 . S
Co170 N187 1.989 . S
Co170 O195 1.967 . S
Co170 O202 1.920 . S
Co171 O174 1.966 . S
Co171 N180 2.022 . S
Co171 N188 1.993 . S
Co171 O196 1.941 . S
C172 O173 1.258 . S
C172 O174 1.263 . S
O173 Co170 1.970 . S
O173 C172 1.258 . S
O174 Co171 1.966 . S
O174 C172 1.263 . S
C175 O176 1.235 . S
C175 O202 1.289 . S
O176 C175 1.235 . S
C177 C179 1.400 . S
C177 N180 1.351 . S
C177 C182 1.501 . S
C178 C179 1.387 . S
C178 N181 1.341 . S
C179 C177 1.400 . S
C179 C178 1.387 . S
N180 Co171 2.022 . S
N180 C177 1.351 . S
N180 N181 1.365 . S
N181 C178 1.341 . S
N181 N180 1.365 . S
N181 H201 0.862 . S
C182 C177 1.501 . S
C182 H183 0.961 . S
C182 H184 0.961 . S
C182 H185 0.960 . S
H183 C182 0.961 . S
H184 C182 0.961 . S
H185 C182 0.960 . S
C186 N187 1.342 . S
C186 C190 1.401 . S
C186 C191 1.499 . S
N187 Co170 1.989 . S
N187 C186 1.342 . S
N187 N188 1.388 . S
N188 Co171 1.993 . S
N188 N187 1.388 . S
N188 C189 1.346 . S
C189 N188 1.346 . S
C189 C190 1.396 . S
C189 C199 1.510 . S
C190 C186 1.401 . S
C190 C189 1.396 . S
C191 C186 1.499 . S
C191 H192 0.959 . S
C191 H193 0.960 . S
C191 H194 0.961 . S
H192 C191 0.959 . S
H193 C191 0.960 . S
H194 C191 0.961 . S
O195 Co170 1.967 . S
O195 C203 1.258 . S
O196 Co171 1.941 . S
O196 C203 1.266 . S
H197 C199 0.959 . S
H198 C199 0.961 . S
C199 C189 1.510 . S
C199 H197 0.959 . S
C199 H198 0.961 . S
C199 H200 0.960 . S
H200 C199 0.960 . S
H201 N181 0.862 . S
O202 Co170 1.920 . S
O202 C175 1.289 . S
C203 O195 1.258 . S
C203 O196 1.266 . S
Co204 O207 1.970 . S
Co204 N221 1.989 . S
Co204 O229 1.967 . S
Co204 O236 1.920 . S
Co205 O208 1.966 . S
Co205 N214 2.022 . S
Co205 N222 1.993 . S
Co205 O230 1.941 . S
C206 O207 1.258 . S
C206 O208 1.263 . S
O207 Co204 1.970 . S
O207 C206 1.258 . S
O208 Co205 1.966 . S
O208 C206 1.263 . S
C209 O210 1.235 . S
C209 O236 1.289 . S
O210 C209 1.235 . S
C211 C213 1.400 . S
C211 N214 1.351 . S
C211 C216 1.501 . S
C212 C213 1.387 . S
C212 N215 1.341 . S
C213 C211 1.400 . S
C213 C212 1.387 . S
N214 Co205 2.022 . S
N214 C211 1.351 . S
N214 N215 1.365 . S
N215 C212 1.341 . S
N215 N214 1.365 . S
N215 H235 0.862 . S
C216 C211 1.501 . S
C216 H217 0.961 . S
C216 H218 0.961 . S
C216 H219 0.960 . S
H217 C216 0.961 . S
H218 C216 0.961 . S
H219 C216 0.960 . S
C220 N221 1.342 . S
C220 C224 1.401 . S
C220 C225 1.499 . S
N221 Co204 1.989 . S
N221 C220 1.342 . S
N221 N222 1.388 . S
N222 Co205 1.993 . S
N222 N221 1.388 . S
N222 C223 1.346 . S
C223 N222 1.346 . S
C223 C224 1.396 . S
C223 C233 1.510 . S
C224 C220 1.401 . S
C224 C223 1.396 . S
C225 C220 1.499 . S
C225 H226 0.959 . S
C225 H227 0.960 . S
C225 H228 0.961 . S
H226 C225 0.959 . S
H227 C225 0.960 . S
H228 C225 0.961 . S
O229 Co204 1.967 . S
O229 C237 1.258 . S
O230 Co205 1.941 . S
O230 C237 1.266 . S
H231 C233 0.959 . S
H232 C233 0.961 . S
C233 C223 1.510 . S
C233 H231 0.959 . S
C233 H232 0.961 . S
C233 H234 0.960 . S
H234 C233 0.960 . S
H235 N215 0.862 . S
O236 Co204 1.920 . S
O236 C209 1.289 . S
C237 O229 1.258 . S
C237 O230 1.266 . S
Co238 O241 1.970 . S
Co238 N255 1.989 . S
Co238 O263 1.967 . S
Co238 O270 1.920 . S
Co239 O242 1.966 . S
Co239 N248 2.022 . S
Co239 N256 1.993 . S
Co239 O264 1.941 . S
C240 O241 1.258 . S
C240 O242 1.263 . S
O241 Co238 1.970 . S
O241 C240 1.258 . S
O242 Co239 1.966 . S
O242 C240 1.263 . S
C243 O244 1.235 . S
C243 O270 1.289 . S
O244 C243 1.235 . S
C245 C247 1.400 . S
C245 N248 1.351 . S
C245 C250 1.501 . S
C246 C247 1.387 . S
C246 N249 1.341 . S
C247 C245 1.400 . S
C247 C246 1.387 . S
N248 Co239 2.022 . S
N248 C245 1.351 . S
N248 N249 1.365 . S
N249 C246 1.341 . S
N249 N248 1.365 . S
N249 H269 0.862 . S
C250 C245 1.501 . S
C250 H251 0.961 . S
C250 H252 0.961 . S
C250 H253 0.960 . S
H251 C250 0.961 . S
H252 C250 0.961 . S
H253 C250 0.960 . S
C254 N255 1.342 . S
C254 C258 1.401 . S
C254 C259 1.499 . S
N255 Co238 1.989 . S
N255 C254 1.342 . S
N255 N256 1.388 . S
N256 Co239 1.993 . S
N256 N255 1.388 . S
N256 C257 1.346 . S
C257 N256 1.346 . S
C257 C258 1.396 . S
C257 C267 1.510 . S
C258 C254 1.401 . S
C258 C257 1.396 . S
C259 C254 1.499 . S
C259 H260 0.959 . S
C259 H261 0.960 . S
C259 H262 0.961 . S
H260 C259 0.959 . S
H261 C259 0.960 . S
H262 C259 0.961 . S
O263 Co238 1.967 . S
O263 C271 1.258 . S
O264 Co239 1.941 . S
O264 C271 1.266 . S
H265 C267 0.959 . S
H266 C267 0.961 . S
C267 C257 1.510 . S
C267 H265 0.959 . S
C267 H266 0.961 . S
C267 H268 0.960 . S
H268 C267 0.960 . S
H269 N249 0.862 . S
O270 Co238 1.920 . S
O270 C243 1.289 . S
C271 O263 1.258 . S
C271 O264 1.266 . S
Co272 O275 1.970 . S
Co272 N289 1.989 . S
Co272 O297 1.967 . S
Co272 O304 1.920 . S
Co273 O276 1.966 . S
Co273 N282 2.022 . S
Co273 N290 1.993 . S
Co273 O298 1.941 . S
C274 O275 1.258 . S
C274 O276 1.263 . S
O275 Co272 1.970 . S
O275 C274 1.258 . S
O276 Co273 1.966 . S
O276 C274 1.263 . S
C277 O278 1.235 . S
C277 O304 1.289 . S
O278 C277 1.235 . S
C279 C281 1.400 . S
C279 N282 1.351 . S
C279 C284 1.501 . S
C280 C281 1.387 . S
C280 N283 1.341 . S
C281 C279 1.400 . S
C281 C280 1.387 . S
N282 Co273 2.022 . S
N282 C279 1.351 . S
N282 N283 1.365 . S
N283 C280 1.341 . S
N283 N282 1.365 . S
N283 H303 0.862 . S
C284 C279 1.501 . S
C284 H285 0.961 . S
C284 H286 0.961 . S
C284 H287 0.960 . S
H285 C284 0.961 . S
H286 C284 0.961 . S
H287 C284 0.960 . S
C288 N289 1.342 . S
C288 C292 1.401 . S
C288 C293 1.499 . S
N289 Co272 1.989 . S
N289 C288 1.342 . S
N289 N290 1.388 . S
N290 Co273 1.993 . S
N290 N289 1.388 . S
N290 C291 1.346 . S
C291 N290 1.346 . S
C291 C292 1.396 . S
C291 C301 1.510 . S
C292 C288 1.401 . S
C292 C291 1.396 . S
C293 C288 1.499 . S
C293 H294 0.959 . S
C293 H295 0.960 . S
C293 H296 0.961 . S
H294 C293 0.959 . S
H295 C293 0.960 . S
H296 C293 0.961 . S
O297 Co272 1.967 . S
O297 C305 1.258 . S
O298 Co273 1.941 . S
O298 C305 1.266 . S
H299 C301 0.959 . S
H300 C301 0.961 . S
C301 C291 1.510 . S
C301 H299 0.959 . S
C301 H300 0.961 . S
C301 H302 0.960 . S
H302 C301 0.960 . S
H303 N283 0.862 . S
O304 Co272 1.920 . S
O304 C277 1.289 . S
C305 O297 1.258 . S
C305 O298 1.266 . S
Co306 O309 1.970 . S
Co306 N323 1.989 . S
Co306 O331 1.967 . S
Co306 O338 1.920 . S
Co307 O310 1.966 . S
Co307 N316 2.022 . S
Co307 N324 1.993 . S
Co307 O332 1.941 . S
C308 O309 1.258 . S
C308 O310 1.263 . S
O309 Co306 1.970 . S
O309 C308 1.258 . S
O310 Co307 1.966 . S
O310 C308 1.263 . S
C311 O312 1.235 . S
C311 O338 1.289 . S
O312 C311 1.235 . S
C313 C315 1.400 . S
C313 N316 1.351 . S
C313 C318 1.501 . S
C314 C315 1.387 . S
C314 N317 1.341 . S
C315 C313 1.400 . S
C315 C314 1.387 . S
N316 Co307 2.022 . S
N316 C313 1.351 . S
N316 N317 1.365 . S
N317 C314 1.341 . S
N317 N316 1.365 . S
N317 H337 0.862 . S
C318 C313 1.501 . S
C318 H319 0.961 . S
C318 H320 0.961 . S
C318 H321 0.960 . S
H319 C318 0.961 . S
H320 C318 0.961 . S
H321 C318 0.960 . S
C322 N323 1.342 . S
C322 C326 1.401 . S
C322 C327 1.499 . S
N323 Co306 1.989 . S
N323 C322 1.342 . S
N323 N324 1.388 . S
N324 Co307 1.993 . S
N324 N323 1.388 . S
N324 C325 1.346 . S
C325 N324 1.346 . S
C325 C326 1.396 . S
C325 C335 1.510 . S
C326 C322 1.401 . S
C326 C325 1.396 . S
C327 C322 1.499 . S
C327 H328 0.959 . S
C327 H329 0.960 . S
C327 H330 0.961 . S
H328 C327 0.959 . S
H329 C327 0.960 . S
H330 C327 0.961 . S
O331 Co306 1.967 . S
O331 C339 1.258 . S
O332 Co307 1.941 . S
O332 C339 1.266 . S
H333 C335 0.959 . S
H334 C335 0.961 . S
C335 C325 1.510 . S
C335 H333 0.959 . S
C335 H334 0.961 . S
C335 H336 0.960 . S
H336 C335 0.960 . S
H337 N317 0.862 . S
O338 Co306 1.920 . S
O338 C311 1.289 . S
C339 O331 1.258 . S
C339 O332 1.266 . S
Co340 O343 1.970 . S
Co340 N357 1.989 . S
Co340 O365 1.967 . S
Co340 O372 1.920 . S
Co341 O344 1.966 . S
Co341 N350 2.022 . S
Co341 N358 1.993 . S
Co341 O366 1.941 . S
C342 O343 1.258 . S
C342 O344 1.263 . S
O343 Co340 1.970 . S
O343 C342 1.258 . S
O344 Co341 1.966 . S
O344 C342 1.263 . S
C345 O346 1.235 . S
C345 O372 1.289 . S
O346 C345 1.235 . S
C347 C349 1.400 . S
C347 N350 1.351 . S
C347 C352 1.501 . S
C348 C349 1.387 . S
C348 N351 1.341 . S
C349 C347 1.400 . S
C349 C348 1.387 . S
N350 Co341 2.022 . S
N350 C347 1.351 . S
N350 N351 1.365 . S
N351 C348 1.341 . S
N351 N350 1.365 . S
N351 H371 0.862 . S
C352 C347 1.501 . S
C352 H353 0.961 . S
C352 H354 0.961 . S
C352 H355 0.960 . S
H353 C352 0.961 . S
H354 C352 0.961 . S
H355 C352 0.960 . S
C356 N357 1.342 . S
C356 C360 1.401 . S
C356 C361 1.499 . S
N357 Co340 1.989 . S
N357 C356 1.342 . S
N357 N358 1.388 . S
N358 Co341 1.993 . S
N358 N357 1.388 . S
N358 C359 1.346 . S
C359 N358 1.346 . S
C359 C360 1.396 . S
C359 C369 1.510 . S
C360 C356 1.401 . S
C360 C359 1.396 . S
C361 C356 1.499 . S
C361 H362 0.959 . S
C361 H363 0.960 . S
C361 H364 0.961 . S
H362 C361 0.959 . S
H363 C361 0.960 . S
H364 C361 0.961 . S
O365 Co340 1.967 . S
O365 C373 1.258 . S
O366 Co341 1.941 . S
O366 C373 1.266 . S
H367 C369 0.959 . S
H368 C369 0.961 . S
C369 C359 1.510 . S
C369 H367 0.959 . S
C369 H368 0.961 . S
C369 H370 0.960 . S
H370 C369 0.960 . S
H371 N351 0.862 . S
O372 Co340 1.920 . S
O372 C345 1.289 . S
C373 O365 1.258 . S
C373 O366 1.266 . S
Co374 O377 1.970 . S
Co374 N391 1.989 . S
Co374 O399 1.967 . S
Co374 O406 1.920 . S
Co375 O378 1.966 . S
Co375 N384 2.022 . S
Co375 N392 1.993 . S
Co375 O400 1.941 . S
C376 O377 1.258 . S
C376 O378 1.263 . S
O377 Co374 1.970 . S
O377 C376 1.258 . S
O378 Co375 1.966 . S
O378 C376 1.263 . S
C379 O380 1.235 . S
C379 O406 1.289 . S
O380 C379 1.235 . S
C381 C383 1.400 . S
C381 N384 1.351 . S
C381 C386 1.501 . S
C382 C383 1.387 . S
C382 N385 1.341 . S
C383 C381 1.400 . S
C383 C382 1.387 . S
N384 Co375 2.022 . S
N384 C381 1.351 . S
N384 N385 1.365 . S
N385 C382 1.341 . S
N385 N384 1.365 . S
N385 H405 0.862 . S
C386 C381 1.501 . S
C386 H387 0.961 . S
C386 H388 0.961 . S
C386 H389 0.960 . S
H387 C386 0.961 . S
H388 C386 0.961 . S
H389 C386 0.960 . S
C390 N391 1.342 . S
C390 C394 1.401 . S
C390 C395 1.499 . S
N391 Co374 1.989 . S
N391 C390 1.342 . S
N391 N392 1.388 . S
N392 Co375 1.993 . S
N392 N391 1.388 . S
N392 C393 1.346 . S
C393 N392 1.346 . S
C393 C394 1.396 . S
C393 C403 1.510 . S
C394 C390 1.401 . S
C394 C393 1.396 . S
C395 C390 1.499 . S
C395 H396 0.959 . S
C395 H397 0.960 . S
C395 H398 0.961 . S
H396 C395 0.959 . S
H397 C395 0.960 . S
H398 C395 0.961 . S
O399 Co374 1.967 . S
O399 C407 1.258 . S
O400 Co375 1.941 . S
O400 C407 1.266 . S
H401 C403 0.959 . S
H402 C403 0.961 . S
C403 C393 1.510 . S
C403 H401 0.959 . S
C403 H402 0.961 . S
C403 H404 0.960 . S
H404 C403 0.960 . S
H405 N385 0.862 . S
O406 Co374 1.920 . S
O406 C379 1.289 . S
C407 O399 1.258 . S
C407 O400 1.266 . S
Co408 O411 1.970 . S
Co408 N425 1.989 . S
Co408 O433 1.967 . S
Co408 O440 1.920 . S
Co409 O412 1.966 . S
Co409 N418 2.022 . S
Co409 N426 1.993 . S
Co409 O434 1.941 . S
C410 O411 1.258 . S
C410 O412 1.263 . S
O411 Co408 1.970 . S
O411 C410 1.258 . S
O412 Co409 1.966 . S
O412 C410 1.263 . S
C413 O414 1.235 . S
C413 O440 1.289 . S
O414 C413 1.235 . S
C415 C417 1.400 . S
C415 N418 1.351 . S
C415 C420 1.501 . S
C416 C417 1.387 . S
C416 N419 1.341 . S
C417 C415 1.400 . S
C417 C416 1.387 . S
N418 Co409 2.022 . S
N418 C415 1.351 . S
N418 N419 1.365 . S
N419 C416 1.341 . S
N419 N418 1.365 . S
N419 H439 0.862 . S
C420 C415 1.501 . S
C420 H421 0.961 . S
C420 H422 0.961 . S
C420 H423 0.960 . S
H421 C420 0.961 . S
H422 C420 0.961 . S
H423 C420 0.960 . S
C424 N425 1.342 . S
C424 C428 1.401 . S
C424 C429 1.499 . S
N425 Co408 1.989 . S
N425 C424 1.342 . S
N425 N426 1.388 . S
N426 Co409 1.993 . S
N426 N425 1.388 . S
N426 C427 1.346 . S
C427 N426 1.346 . S
C427 C428 1.396 . S
C427 C437 1.510 . S
C428 C424 1.401 . S
C428 C427 1.396 . S
C429 C424 1.499 . S
C429 H430 0.959 . S
C429 H431 0.960 . S
C429 H432 0.961 . S
H430 C429 0.959 . S
H431 C429 0.960 . S
H432 C429 0.961 . S
O433 Co408 1.967 . S
O433 C441 1.258 . S
O434 Co409 1.941 . S
O434 C441 1.266 . S
H435 C437 0.959 . S
H436 C437 0.961 . S
C437 C427 1.510 . S
C437 H435 0.959 . S
C437 H436 0.961 . S
C437 H438 0.960 . S
H438 C437 0.960 . S
H439 N419 0.862 . S
O440 Co408 1.920 . S
O440 C413 1.289 . S
C441 O433 1.258 . S
C441 O434 1.266 . S
Co442 O445 1.970 . S
Co442 N459 1.989 . S
Co442 O467 1.967 . S
Co442 O474 1.920 . S
Co443 O446 1.966 . S
Co443 N452 2.022 . S
Co443 N460 1.993 . S
Co443 O468 1.941 . S
C444 O445 1.258 . S
C444 O446 1.263 . S
O445 Co442 1.970 . S
O445 C444 1.258 . S
O446 Co443 1.966 . S
O446 C444 1.263 . S
C447 O448 1.235 . S
C447 O474 1.289 . S
O448 C447 1.235 . S
C449 C451 1.400 . S
C449 N452 1.351 . S
C449 C454 1.501 . S
C450 C451 1.387 . S
C450 N453 1.341 . S
C451 C449 1.400 . S
C451 C450 1.387 . S
N452 Co443 2.022 . S
N452 C449 1.351 . S
N452 N453 1.365 . S
N453 C450 1.341 . S
N453 N452 1.365 . S
N453 H473 0.862 . S
C454 C449 1.501 . S
C454 H455 0.961 . S
C454 H456 0.961 . S
C454 H457 0.960 . S
H455 C454 0.961 . S
H456 C454 0.961 . S
H457 C454 0.960 . S
C458 N459 1.342 . S
C458 C462 1.401 . S
C458 C463 1.499 . S
N459 Co442 1.989 . S
N459 C458 1.342 . S
N459 N460 1.388 . S
N460 Co443 1.993 . S
N460 N459 1.388 . S
N460 C461 1.346 . S
C461 N460 1.346 . S
C461 C462 1.396 . S
C461 C471 1.510 . S
C462 C458 1.401 . S
C462 C461 1.396 . S
C463 C458 1.499 . S
C463 H464 0.959 . S
C463 H465 0.960 . S
C463 H466 0.961 . S
H464 C463 0.959 . S
H465 C463 0.960 . S
H466 C463 0.961 . S
O467 Co442 1.967 . S
O467 C475 1.258 . S
O468 Co443 1.941 . S
O468 C475 1.266 . S
H469 C471 0.959 . S
H470 C471 0.961 . S
C471 C461 1.510 . S
C471 H469 0.959 . S
C471 H470 0.961 . S
C471 H472 0.960 . S
H472 C471 0.960 . S
H473 N453 0.862 . S
O474 Co442 1.920 . S
O474 C447 1.289 . S
C475 O467 1.258 . S
C475 O468 1.266 . S
Co476 O479 1.970 . S
Co476 N493 1.989 . S
Co476 O501 1.967 . S
Co476 O508 1.920 . S
Co477 O480 1.966 . S
Co477 N486 2.022 . S
Co477 N494 1.993 . S
Co477 O502 1.941 . S
C478 O479 1.258 . S
C478 O480 1.263 . S
O479 Co476 1.970 . S
O479 C478 1.258 . S
O480 Co477 1.966 . S
O480 C478 1.263 . S
C481 O482 1.235 . S
C481 O508 1.289 . S
O482 C481 1.235 . S
C483 C485 1.400 . S
C483 N486 1.351 . S
C483 C488 1.501 . S
C484 C485 1.387 . S
C484 N487 1.341 . S
C485 C483 1.400 . S
C485 C484 1.387 . S
N486 Co477 2.022 . S
N486 C483 1.351 . S
N486 N487 1.365 . S
N487 C484 1.341 . S
N487 N486 1.365 . S
N487 H507 0.862 . S
C488 C483 1.501 . S
C488 H489 0.961 . S
C488 H490 0.961 . S
C488 H491 0.960 . S
H489 C488 0.961 . S
H490 C488 0.961 . S
H491 C488 0.960 . S
C492 N493 1.342 . S
C492 C496 1.401 . S
C492 C497 1.499 . S
N493 Co476 1.989 . S
N493 C492 1.342 . S
N493 N494 1.388 . S
N494 Co477 1.993 . S
N494 N493 1.388 . S
N494 C495 1.346 . S
C495 N494 1.346 . S
C495 C496 1.396 . S
C495 C505 1.510 . S
C496 C492 1.401 . S
C496 C495 1.396 . S
C497 C492 1.499 . S
C497 H498 0.959 . S
C497 H499 0.960 . S
C497 H500 0.961 . S
H498 C497 0.959 . S
H499 C497 0.960 . S
H500 C497 0.961 . S
O501 Co476 1.967 . S
O501 C509 1.258 . S
O502 Co477 1.941 . S
O502 C509 1.266 . S
H503 C505 0.959 . S
H504 C505 0.961 . S
C505 C495 1.510 . S
C505 H503 0.959 . S
C505 H504 0.961 . S
C505 H506 0.960 . S
H506 C505 0.960 . S
H507 N487 0.862 . S
O508 Co476 1.920 . S
O508 C481 1.289 . S
C509 O501 1.258 . S
C509 O502 1.266 . S
Co510 O513 1.970 . S
Co510 N527 1.989 . S
Co510 O535 1.967 . S
Co510 O542 1.920 . S
Co511 O514 1.966 . S
Co511 N520 2.022 . S
Co511 N528 1.993 . S
Co511 O536 1.941 . S
C512 O513 1.258 . S
C512 O514 1.263 . S
O513 Co510 1.970 . S
O513 C512 1.258 . S
O514 Co511 1.966 . S
O514 C512 1.263 . S
C515 O516 1.235 . S
C515 O542 1.289 . S
O516 C515 1.235 . S
C517 C519 1.400 . S
C517 N520 1.351 . S
C517 C522 1.501 . S
C518 C519 1.387 . S
C518 N521 1.341 . S
C519 C517 1.400 . S
C519 C518 1.387 . S
N520 Co511 2.022 . S
N520 C517 1.351 . S
N520 N521 1.365 . S
N521 C518 1.341 . S
N521 N520 1.365 . S
N521 H541 0.862 . S
C522 C517 1.501 . S
C522 H523 0.961 . S
C522 H524 0.961 . S
C522 H525 0.960 . S
H523 C522 0.961 . S
H524 C522 0.961 . S
H525 C522 0.960 . S
C526 N527 1.342 . S
C526 C530 1.401 . S
C526 C531 1.499 . S
N527 Co510 1.989 . S
N527 C526 1.342 . S
N527 N528 1.388 . S
N528 Co511 1.993 . S
N528 N527 1.388 . S
N528 C529 1.346 . S
C529 N528 1.346 . S
C529 C530 1.396 . S
C529 C539 1.510 . S
C530 C526 1.401 . S
C530 C529 1.396 . S
C531 C526 1.499 . S
C531 H532 0.959 . S
C531 H533 0.960 . S
C531 H534 0.961 . S
H532 C531 0.959 . S
H533 C531 0.960 . S
H534 C531 0.961 . S
O535 Co510 1.967 . S
O535 C543 1.258 . S
O536 Co511 1.941 . S
O536 C543 1.266 . S
H537 C539 0.959 . S
H538 C539 0.961 . S
C539 C529 1.510 . S
C539 H537 0.959 . S
C539 H538 0.961 . S
C539 H540 0.960 . S
H540 C539 0.960 . S
H541 N521 0.862 . S
O542 Co510 1.920 . S
O542 C515 1.289 . S
C543 O535 1.258 . S
C543 O536 1.266 . S
H544 C552 0.929 . S
H545 C554 0.930 . S
H546 C556 0.930 . S
H547 C559 0.929 . S
H548 C562 0.930 . S
H549 C564 0.960 . S
H550 C564 0.960 . S
H551 C564 0.960 . S
C552 H544 0.929 . S
C552 C553 1.377 . S
C552 C554 1.384 . S
C553 C552 1.377 . S
C553 C559 1.390 . S
C554 H545 0.930 . S
C554 C552 1.384 . S
C554 C555 1.372 . S
C555 C554 1.372 . S
C555 C556 1.400 . S
C555 C560 1.490 . S
C556 H546 0.930 . S
C556 C555 1.400 . S
C556 C559 1.386 . S
H557 C573 0.930 . S
H558 C574 0.931 . S
C559 H547 0.929 . S
C559 C553 1.390 . S
C559 C556 1.386 . S
C560 C555 1.490 . S
C560 C562 1.395 . S
C560 C563 1.403 . S
H561 C567 0.930 . S
C562 H548 0.930 . S
C562 C560 1.395 . S
C562 C565 1.403 . S
C563 C560 1.403 . S
C563 C564 1.524 . S
C563 C567 1.400 . S
C564 H549 0.960 . S
C564 H550 0.960 . S
C564 H551 0.960 . S
C564 C563 1.524 . S
C565 C562 1.403 . S
C565 C566 1.392 . S
C565 C569 1.495 . S
C566 C565 1.392 . S
C566 C567 1.385 . S
C566 C568 1.478 . S
C567 H561 0.930 . S
C567 C563 1.400 . S
C567 C566 1.385 . S
C568 C566 1.478 . S
C568 C570 1.381 . S
C568 C574 1.383 . S
C569 C565 1.495 . S
C569 H575 0.959 . S
C569 H576 0.961 . S
C569 H577 0.960 . S
C570 C568 1.381 . S
C570 C571 1.394 . S
C570 H578 0.930 . S
C571 C570 1.394 . S
C571 C572 1.383 . S
C571 H579 0.929 . S
C572 C571 1.383 . S
C572 C573 1.377 . S
C573 H557 0.930 . S
C573 C572 1.377 . S
C573 C574 1.379 . S
C574 H558 0.931 . S
C574 C568 1.383 . S
C574 C573 1.379 . S
H575 C569 0.959 . S
H576 C569 0.961 . S
H577 C569 0.960 . S
H578 C570 0.930 . S
H579 C571 0.929 . S
H580 C588 0.929 . S
H581 C590 0.930 . S
H582 C592 0.930 . S
H583 C595 0.929 . S
H584 C598 0.930 . S
H585 C600 0.960 . S
H586 C600 0.960 . S
H587 C600 0.960 . S
C588 H580 0.929 . S
C588 C589 1.377 . S
C588 C590 1.384 . S
C589 C588 1.377 . S
C589 C595 1.390 . S
C590 H581 0.930 . S
C590 C588 1.384 . S
C590 C591 1.372 . S
C591 C590 1.372 . S
C591 C592 1.400 . S
C591 C596 1.490 . S
C592 H582 0.930 . S
C592 C591 1.400 . S
C592 C595 1.386 . S
H593 C609 0.930 . S
H594 C610 0.931 . S
C595 H583 0.929 . S
C595 C589 1.390 . S
C595 C592 1.386 . S
C596 C591 1.490 . S
C596 C598 1.395 . S
C596 C599 1.403 . S
H597 C603 0.930 . S
C598 H584 0.930 . S
C598 C596 1.395 . S
C598 C601 1.403 . S
C599 C596 1.403 . S
C599 C600 1.524 . S
C599 C603 1.400 . S
C600 H585 0.960 . S
C600 H586 0.960 . S
C600 H587 0.960 . S
C600 C599 1.524 . S
C601 C598 1.403 . S
C601 C602 1.392 . S
C601 C605 1.495 . S
C602 C601 1.392 . S
C602 C603 1.385 . S
C602 C604 1.478 . S
C603 H597 0.930 . S
C603 C599 1.400 . S
C603 C602 1.385 . S
C604 C602 1.478 . S
C604 C606 1.381 . S
C604 C610 1.383 . S
C605 C601 1.495 . S
C605 H611 0.959 . S
C605 H612 0.961 . S
C605 H613 0.960 . S
C606 C604 1.381 . S
C606 C607 1.394 . S
C606 H614 0.930 . S
C607 C606 1.394 . S
C607 C608 1.383 . S
C607 H615 0.929 . S
C608 C607 1.383 . S
C608 C609 1.377 . S
C609 H593 0.930 . S
C609 C608 1.377 . S
C609 C610 1.379 . S
C610 H594 0.931 . S
C610 C604 1.383 . S
C610 C609 1.379 . S
H611 C605 0.959 . S
H612 C605 0.961 . S
H613 C605 0.960 . S
H614 C606 0.930 . S
H615 C607 0.929 . S
H616 C624 0.929 . S
H617 C626 0.930 . S
H618 C628 0.930 . S
H619 C631 0.929 . S
H620 C634 0.930 . S
H621 C636 0.960 . S
H622 C636 0.960 . S
H623 C636 0.960 . S
C624 H616 0.929 . S
C624 C625 1.377 . S
C624 C626 1.384 . S
C625 C624 1.377 . S
C625 C631 1.390 . S
C626 H617 0.930 . S
C626 C624 1.384 . S
C626 C627 1.372 . S
C627 C626 1.372 . S
C627 C628 1.400 . S
C627 C632 1.490 . S
C628 H618 0.930 . S
C628 C627 1.400 . S
C628 C631 1.386 . S
H629 C645 0.930 . S
H630 C646 0.931 . S
C631 H619 0.929 . S
C631 C625 1.390 . S
C631 C628 1.386 . S
C632 C627 1.490 . S
C632 C634 1.395 . S
C632 C635 1.403 . S
H633 C639 0.930 . S
C634 H620 0.930 . S
C634 C632 1.395 . S
C634 C637 1.403 . S
C635 C632 1.403 . S
C635 C636 1.524 . S
C635 C639 1.400 . S
C636 H621 0.960 . S
C636 H622 0.960 . S
C636 H623 0.960 . S
C636 C635 1.524 . S
C637 C634 1.403 . S
C637 C638 1.392 . S
C637 C641 1.495 . S
C638 C637 1.392 . S
C638 C639 1.385 . S
C638 C640 1.478 . S
C639 H633 0.930 . S
C639 C635 1.400 . S
C639 C638 1.385 . S
C640 C638 1.478 . S
C640 C642 1.381 . S
C640 C646 1.383 . S
C641 C637 1.495 . S
C641 H647 0.959 . S
C641 H648 0.961 . S
C641 H649 0.960 . S
C642 C640 1.381 . S
C642 C643 1.394 . S
C642 H650 0.930 . S
C643 C642 1.394 . S
C643 C644 1.383 . S
C643 H651 0.929 . S
C644 C643 1.383 . S
C644 C645 1.377 . S
C645 H629 0.930 . S
C645 C644 1.377 . S
C645 C646 1.379 . S
C646 H630 0.931 . S
C646 C640 1.383 . S
C646 C645 1.379 . S
H647 C641 0.959 . S
H648 C641 0.961 . S
H649 C641 0.960 . S
H650 C642 0.930 . S
H651 C643 0.929 . S
H652 C660 0.929 . S
H653 C662 0.930 . S
H654 C664 0.930 . S
H655 C667 0.929 . S
H656 C670 0.930 . S
H657 C672 0.960 . S
H658 C672 0.960 . S
H659 C672 0.960 . S
C660 H652 0.929 . S
C660 C661 1.377 . S
C660 C662 1.384 . S
C661 C660 1.377 . S
C661 C667 1.390 . S
C662 H653 0.930 . S
C662 C660 1.384 . S
C662 C663 1.372 . S
C663 C662 1.372 . S
C663 C664 1.400 . S
C663 C668 1.490 . S
C664 H654 0.930 . S
C664 C663 1.400 . S
C664 C667 1.386 . S
H665 C681 0.930 . S
H666 C682 0.931 . S
C667 H655 0.929 . S
C667 C661 1.390 . S
C667 C664 1.386 . S
C668 C663 1.490 . S
C668 C670 1.395 . S
C668 C671 1.403 . S
H669 C675 0.930 . S
C670 H656 0.930 . S
C670 C668 1.395 . S
C670 C673 1.403 . S
C671 C668 1.403 . S
C671 C672 1.524 . S
C671 C675 1.400 . S
C672 H657 0.960 . S
C672 H658 0.960 . S
C672 H659 0.960 . S
C672 C671 1.524 . S
C673 C670 1.403 . S
C673 C674 1.392 . S
C673 C677 1.495 . S
C674 C673 1.392 . S
C674 C675 1.385 . S
C674 C676 1.478 . S
C675 H669 0.930 . S
C675 C671 1.400 . S
C675 C674 1.385 . S
C676 C674 1.478 . S
C676 C678 1.381 . S
C676 C682 1.383 . S
C677 C673 1.495 . S
C677 H683 0.959 . S
C677 H684 0.961 . S
C677 H685 0.960 . S
C678 C676 1.381 . S
C678 C679 1.394 . S
C678 H686 0.930 . S
C679 C678 1.394 . S
C679 C680 1.383 . S
C679 H687 0.929 . S
C680 C679 1.383 . S
C680 C681 1.377 . S
C681 H665 0.930 . S
C681 C680 1.377 . S
C681 C682 1.379 . S
C682 H666 0.931 . S
C682 C676 1.383 . S
C682 C681 1.379 . S
H683 C677 0.959 . S
H684 C677 0.961 . S
H685 C677 0.960 . S
H686 C678 0.930 . S
H687 C679 0.929 . S
H688 C696 0.929 . S
H689 C698 0.930 . S
H690 C700 0.930 . S
H691 C703 0.929 . S
H692 C706 0.930 . S
H693 C708 0.960 . S
H694 C708 0.960 . S
H695 C708 0.960 . S
C696 H688 0.929 . S
C696 C697 1.377 . S
C696 C698 1.384 . S
C697 C696 1.377 . S
C697 C703 1.390 . S
C698 H689 0.930 . S
C698 C696 1.384 . S
C698 C699 1.372 . S
C699 C698 1.372 . S
C699 C700 1.400 . S
C699 C704 1.490 . S
C700 H690 0.930 . S
C700 C699 1.400 . S
C700 C703 1.386 . S
H701 C717 0.930 . S
H702 C718 0.931 . S
C703 H691 0.929 . S
C703 C697 1.390 . S
C703 C700 1.386 . S
C704 C699 1.490 . S
C704 C706 1.395 . S
C704 C707 1.403 . S
H705 C711 0.930 . S
C706 H692 0.930 . S
C706 C704 1.395 . S
C706 C709 1.403 . S
C707 C704 1.403 . S
C707 C708 1.524 . S
C707 C711 1.400 . S
C708 H693 0.960 . S
C708 H694 0.960 . S
C708 H695 0.960 . S
C708 C707 1.524 . S
C709 C706 1.403 . S
C709 C710 1.392 . S
C709 C713 1.495 . S
C710 C709 1.392 . S
C710 C711 1.385 . S
C710 C712 1.478 . S
C711 H705 0.930 . S
C711 C707 1.400 . S
C711 C710 1.385 . S
C712 C710 1.478 . S
C712 C714 1.381 . S
C712 C718 1.383 . S
C713 C709 1.495 . S
C713 H719 0.959 . S
C713 H720 0.961 . S
C713 H721 0.960 . S
C714 C712 1.381 . S
C714 C715 1.394 . S
C714 H722 0.930 . S
C715 C714 1.394 . S
C715 C716 1.383 . S
C715 H723 0.929 . S
C716 C715 1.383 . S
C716 C717 1.377 . S
C717 H701 0.930 . S
C717 C716 1.377 . S
C717 C718 1.379 . S
C718 H702 0.931 . S
C718 C712 1.383 . S
C718 C717 1.379 . S
H719 C713 0.959 . S
H720 C713 0.961 . S
H721 C713 0.960 . S
H722 C714 0.930 . S
H723 C715 0.929 . S
H724 C732 0.929 . S
H725 C734 0.930 . S
H726 C736 0.930 . S
H727 C739 0.929 . S
H728 C742 0.930 . S
H729 C744 0.960 . S
H730 C744 0.960 . S
H731 C744 0.960 . S
C732 H724 0.929 . S
C732 C733 1.377 . S
C732 C734 1.384 . S
C733 C732 1.377 . S
C733 C739 1.390 . S
C734 H725 0.930 . S
C734 C732 1.384 . S
C734 C735 1.372 . S
C735 C734 1.372 . S
C735 C736 1.400 . S
C735 C740 1.490 . S
C736 H726 0.930 . S
C736 C735 1.400 . S
C736 C739 1.386 . S
H737 C753 0.930 . S
H738 C754 0.931 . S
C739 H727 0.929 . S
C739 C733 1.390 . S
C739 C736 1.386 . S
C740 C735 1.490 . S
C740 C742 1.395 . S
C740 C743 1.403 . S
H741 C747 0.930 . S
C742 H728 0.930 . S
C742 C740 1.395 . S
C742 C745 1.403 . S
C743 C740 1.403 . S
C743 C744 1.524 . S
C743 C747 1.400 . S
C744 H729 0.960 . S
C744 H730 0.960 . S
C744 H731 0.960 . S
C744 C743 1.524 . S
C745 C742 1.403 . S
C745 C746 1.392 . S
C745 C749 1.495 . S
C746 C745 1.392 . S
C746 C747 1.385 . S
C746 C748 1.478 . S
C747 H741 0.930 . S
C747 C743 1.400 . S
C747 C746 1.385 . S
C748 C746 1.478 . S
C748 C750 1.381 . S
C748 C754 1.383 . S
C749 C745 1.495 . S
C749 H755 0.959 . S
C749 H756 0.961 . S
C749 H757 0.960 . S
C750 C748 1.381 . S
C750 C751 1.394 . S
C750 H758 0.930 . S
C751 C750 1.394 . S
C751 C752 1.383 . S
C751 H759 0.929 . S
C752 C751 1.383 . S
C752 C753 1.377 . S
C753 H737 0.930 . S
C753 C752 1.377 . S
C753 C754 1.379 . S
C754 H738 0.931 . S
C754 C748 1.383 . S
C754 C753 1.379 . S
H755 C749 0.959 . S
H756 C749 0.961 . S
H757 C749 0.960 . S
H758 C750 0.930 . S
H759 C751 0.929 . S
H760 C768 0.929 . S
H761 C770 0.930 . S
H762 C772 0.930 . S
H763 C775 0.929 . S
H764 C778 0.930 . S
H765 C780 0.960 . S
H766 C780 0.960 . S
H767 C780 0.960 . S
C768 H760 0.929 . S
C768 C769 1.377 . S
C768 C770 1.384 . S
C769 C768 1.377 . S
C769 C775 1.390 . S
C770 H761 0.930 . S
C770 C768 1.384 . S
C770 C771 1.372 . S
C771 C770 1.372 . S
C771 C772 1.400 . S
C771 C776 1.490 . S
C772 H762 0.930 . S
C772 C771 1.400 . S
C772 C775 1.386 . S
H773 C789 0.930 . S
H774 C790 0.931 . S
C775 H763 0.929 . S
C775 C769 1.390 . S
C775 C772 1.386 . S
C776 C771 1.490 . S
C776 C778 1.395 . S
C776 C779 1.403 . S
H777 C783 0.930 . S
C778 H764 0.930 . S
C778 C776 1.395 . S
C778 C781 1.403 . S
C779 C776 1.403 . S
C779 C780 1.524 . S
C779 C783 1.400 . S
C780 H765 0.960 . S
C780 H766 0.960 . S
C780 H767 0.960 . S
C780 C779 1.524 . S
C781 C778 1.403 . S
C781 C782 1.392 . S
C781 C785 1.495 . S
C782 C781 1.392 . S
C782 C783 1.385 . S
C782 C784 1.478 . S
C783 H777 0.930 . S
C783 C779 1.400 . S
C783 C782 1.385 . S
C784 C782 1.478 . S
C784 C786 1.381 . S
C784 C790 1.383 . S
C785 C781 1.495 . S
C785 H791 0.959 . S
C785 H792 0.961 . S
C785 H793 0.960 . S
C786 C784 1.381 . S
C786 C787 1.394 . S
C786 H794 0.930 . S
C787 C786 1.394 . S
C787 C788 1.383 . S
C787 H795 0.929 . S
C788 C787 1.383 . S
C788 C789 1.377 . S
C789 H773 0.930 . S
C789 C788 1.377 . S
C789 C790 1.379 . S
C790 H774 0.931 . S
C790 C784 1.383 . S
C790 C789 1.379 . S
H791 C785 0.959 . S
H792 C785 0.961 . S
H793 C785 0.960 . S
H794 C786 0.930 . S
H795 C787 0.929 . S
H796 C804 0.929 . S
H797 C806 0.930 . S
H798 C808 0.930 . S
H799 C811 0.929 . S
H800 C814 0.930 . S
H801 C816 0.960 . S
H802 C816 0.960 . S
H803 C816 0.960 . S
C804 H796 0.929 . S
C804 C805 1.377 . S
C804 C806 1.384 . S
C805 C804 1.377 . S
C805 C811 1.390 . S
C806 H797 0.930 . S
C806 C804 1.384 . S
C806 C807 1.372 . S
C807 C806 1.372 . S
C807 C808 1.400 . S
C807 C812 1.490 . S
C808 H798 0.930 . S
C808 C807 1.400 . S
C808 C811 1.386 . S
H809 C825 0.930 . S
H810 C826 0.931 . S
C811 H799 0.929 . S
C811 C805 1.390 . S
C811 C808 1.386 . S
C812 C807 1.490 . S
C812 C814 1.395 . S
C812 C815 1.403 . S
H813 C819 0.930 . S
C814 H800 0.930 . S
C814 C812 1.395 . S
C814 C817 1.403 . S
C815 C812 1.403 . S
C815 C816 1.524 . S
C815 C819 1.400 . S
C816 H801 0.960 . S
C816 H802 0.960 . S
C816 H803 0.960 . S
C816 C815 1.524 . S
C817 C814 1.403 . S
C817 C818 1.392 . S
C817 C821 1.495 . S
C818 C817 1.392 . S
C818 C819 1.385 . S
C818 C820 1.478 . S
C819 H813 0.930 . S
C819 C815 1.400 . S
C819 C818 1.385 . S
C820 C818 1.478 . S
C820 C822 1.381 . S
C820 C826 1.383 . S
C821 C817 1.495 . S
C821 H827 0.959 . S
C821 H828 0.961 . S
C821 H829 0.960 . S
C822 C820 1.381 . S
C822 C823 1.394 . S
C822 H830 0.930 . S
C823 C822 1.394 . S
C823 C824 1.383 . S
C823 H831 0.929 . S
C824 C823 1.383 . S
C824 C825 1.377 . S
C825 H809 0.930 . S
C825 C824 1.377 . S
C825 C826 1.379 . S
C826 H810 0.931 . S
C826 C820 1.383 . S
C826 C825 1.379 . S
H827 C821 0.959 . S
H828 C821 0.961 . S
H829 C821 0.960 . S
H830 C822 0.930 . S
H831 C823 0.929 . S
H832 C840 0.929 . S
H833 C842 0.930 . S
H834 C844 0.930 . S
H835 C847 0.929 . S
H836 C850 0.930 . S
H837 C852 0.960 . S
H838 C852 0.960 . S
H839 C852 0.960 . S
C840 H832 0.929 . S
C840 C841 1.377 . S
C840 C842 1.384 . S
C841 C840 1.377 . S
C841 C847 1.390 . S
C842 H833 0.930 . S
C842 C840 1.384 . S
C842 C843 1.372 . S
C843 C842 1.372 . S
C843 C844 1.400 . S
C843 C848 1.490 . S
C844 H834 0.930 . S
C844 C843 1.400 . S
C844 C847 1.386 . S
H845 C861 0.930 . S
H846 C862 0.931 . S
C847 H835 0.929 . S
C847 C841 1.390 . S
C847 C844 1.386 . S
C848 C843 1.490 . S
C848 C850 1.395 1_545 S
C848 C851 1.403 1_455 S
H849 C855 0.930 . S
C850 H836 0.930 . S
C850 C848 1.395 1_565 S
C850 C853 1.403 . S
C851 C848 1.403 1_655 S
C851 C852 1.524 . S
C851 C855 1.400 . S
C852 H837 0.960 . S
C852 H838 0.960 . S
C852 H839 0.960 . S
C852 C851 1.524 . S
C853 C850 1.403 . S
C853 C854 1.392 1_455 S
C853 C857 1.495 . S
C854 C853 1.392 1_655 S
C854 C855 1.385 1_565 S
C854 C856 1.478 . S
C855 H849 0.930 . S
C855 C851 1.400 . S
C855 C854 1.385 1_545 S
C856 C854 1.478 . S
C856 C858 1.381 . S
C856 C862 1.383 . S
C857 C853 1.495 . S
C857 H863 0.959 . S
C857 H864 0.961 . S
C857 H865 0.960 . S
C858 C856 1.381 . S
C858 C859 1.394 . S
C858 H866 0.930 . S
C859 C858 1.394 . S
C859 C860 1.383 . S
C859 H867 0.929 . S
C860 C859 1.383 . S
C860 C861 1.377 . S
C861 H845 0.930 . S
C861 C860 1.377 . S
C861 C862 1.379 . S
C862 H846 0.931 . S
C862 C856 1.383 . S
C862 C861 1.379 . S
H863 C857 0.959 . S
H864 C857 0.961 . S
H865 C857 0.960 . S
H866 C858 0.930 . S
H867 C859 0.929 . S
H868 C876 0.929 . S
H869 C878 0.930 . S
H870 C880 0.930 . S
H871 C883 0.929 . S
H872 C886 0.930 . S
H873 C888 0.960 . S
H874 C888 0.960 . S
H875 C888 0.960 . S
C876 H868 0.929 . S
C876 C877 1.377 . S
C876 C878 1.384 . S
C877 C876 1.377 . S
C877 C883 1.390 . S
C878 H869 0.930 . S
C878 C876 1.384 . S
C878 C879 1.372 . S
C879 C878 1.372 . S
C879 C880 1.400 . S
C879 C884 1.490 . S
C880 H870 0.930 . S
C880 C879 1.400 . S
C880 C883 1.386 . S
H881 C897 0.930 . S
H882 C898 0.931 . S
C883 H871 0.929 . S
C883 C877 1.390 . S
C883 C880 1.386 . S
C884 C879 1.490 . S
C884 C886 1.395 1_545 S
C884 C887 1.403 1_655 S
H885 C891 0.930 . S
C886 H872 0.930 . S
C886 C884 1.395 1_565 S
C886 C889 1.403 . S
C887 C884 1.403 1_455 S
C887 C888 1.524 . S
C887 C891 1.400 . S
C888 H873 0.960 . S
C888 H874 0.960 . S
C888 H875 0.960 . S
C888 C887 1.524 . S
C889 C886 1.403 . S
C889 C890 1.392 1_655 S
C889 C893 1.495 . S
C890 C889 1.392 1_455 S
C890 C891 1.385 1_565 S
C890 C892 1.478 . S
C891 H885 0.930 . S
C891 C887 1.400 . S
C891 C890 1.385 1_545 S
C892 C890 1.478 . S
C892 C894 1.381 . S
C892 C898 1.383 . S
C893 C889 1.495 . S
C893 H899 0.959 . S
C893 H900 0.961 . S
C893 H901 0.960 . S
C894 C892 1.381 . S
C894 C895 1.394 . S
C894 H902 0.930 . S
C895 C894 1.394 . S
C895 C896 1.383 . S
C895 H903 0.929 . S
C896 C895 1.383 . S
C896 C897 1.377 . S
C897 H881 0.930 . S
C897 C896 1.377 . S
C897 C898 1.379 . S
C898 H882 0.931 . S
C898 C892 1.383 . S
C898 C897 1.379 . S
H899 C893 0.959 . S
H900 C893 0.961 . S
H901 C893 0.960 . S
H902 C894 0.930 . S
H903 C895 0.929 . S
H904 C912 0.929 . S
H905 C914 0.930 . S
H906 C916 0.930 . S
H907 C919 0.929 . S
H908 C922 0.930 . S
H909 C924 0.960 1_565 S
H910 C924 0.960 . S
H911 C924 0.960 . S
C912 H904 0.929 . S
C912 C913 1.377 . S
C912 C914 1.384 . S
C913 C912 1.377 . S
C913 C919 1.390 . S
C914 H905 0.930 . S
C914 C912 1.384 . S
C914 C915 1.372 . S
C915 C914 1.372 . S
C915 C916 1.400 . S
C915 C920 1.490 . S
C916 H906 0.930 . S
C916 C915 1.400 . S
C916 C919 1.386 . S
H917 C933 0.930 . S
H918 C934 0.931 . S
C919 H907 0.929 . S
C919 C913 1.390 . S
C919 C916 1.386 . S
C920 C915 1.490 . S
C920 C922 1.395 . S
C920 C923 1.403 . S
H921 C927 0.930 . S
C922 H908 0.930 . S
C922 C920 1.395 . S
C922 C925 1.403 1_645 S
C923 C920 1.403 . S
C923 C924 1.524 . S
C923 C927 1.400 1_645 S
C924 H909 0.960 1_545 S
C924 H910 0.960 . S
C924 H911 0.960 . S
C924 C923 1.524 . S
C925 C922 1.403 1_465 S
C925 C926 1.392 . S
C925 C929 1.495 . S
C926 C925 1.392 . S
C926 C927 1.385 . S
C926 C928 1.478 . S
C927 H921 0.930 . S
C927 C923 1.400 1_465 S
C927 C926 1.385 . S
C928 C926 1.478 . S
C928 C930 1.381 . S
C928 C934 1.383 . S
C929 C925 1.495 . S
C929 H935 0.959 1_565 S
C929 H936 0.961 . S
C929 H937 0.960 . S
C930 C928 1.381 . S
C930 C931 1.394 . S
C930 H938 0.930 . S
C931 C930 1.394 . S
C931 C932 1.383 . S
C931 H939 0.929 . S
C932 C931 1.383 . S
C932 C933 1.377 . S
C933 H917 0.930 . S
C933 C932 1.377 . S
C933 C934 1.379 . S
C934 H918 0.931 . S
C934 C928 1.383 . S
C934 C933 1.379 . S
H935 C929 0.959 1_545 S
H936 C929 0.961 . S
H937 C929 0.960 . S
H938 C930 0.930 . S
H939 C931 0.929 . S
H940 C948 0.929 . S
H941 C950 0.930 . S
H942 C952 0.930 . S
H943 C955 0.929 . S
H944 C958 0.930 . S
H945 C960 0.960 . S
H946 C960 0.960 . S
H947 C960 0.960 . S
C948 H940 0.929 . S
C948 C949 1.377 . S
C948 C950 1.384 . S
C949 C948 1.377 . S
C949 C955 1.390 . S
C950 H941 0.930 . S
C950 C948 1.384 . S
C950 C951 1.372 . S
C951 C950 1.372 . S
C951 C952 1.400 . S
C951 C956 1.490 . S
C952 H942 0.930 . S
C952 C951 1.400 . S
C952 C955 1.386 . S
H953 C969 0.930 . S
H954 C970 0.931 . S
C955 H943 0.929 . S
C955 C949 1.390 . S
C955 C952 1.386 . S
C956 C951 1.490 . S
C956 C958 1.395 1_545 S
C956 C959 1.403 1_455 S
H957 C963 0.930 . S
C958 H944 0.930 . S
C958 C956 1.395 1_565 S
C958 C961 1.403 . S
C959 C956 1.403 1_655 S
C959 C960 1.524 . S
C959 C963 1.400 . S
C960 H945 0.960 . S
C960 H946 0.960 . S
C960 H947 0.960 . S
C960 C959 1.524 . S
C961 C958 1.403 . S
C961 C962 1.392 1_455 S
C961 C965 1.495 . S
C962 C961 1.392 1_655 S
C962 C963 1.385 1_565 S
C962 C964 1.478 . S
C963 H957 0.930 . S
C963 C959 1.400 . S
C963 C962 1.385 1_545 S
C964 C962 1.478 . S
C964 C966 1.381 . S
C964 C970 1.383 . S
C965 C961 1.495 . S
C965 H971 0.959 . S
C965 H972 0.961 . S
C965 H973 0.960 . S
C966 C964 1.381 . S
C966 C967 1.394 . S
C966 H974 0.930 . S
C967 C966 1.394 . S
C967 C968 1.383 . S
C967 H975 0.929 . S
C968 C967 1.383 . S
C968 C969 1.377 . S
C969 H953 0.930 . S
C969 C968 1.377 . S
C969 C970 1.379 . S
C970 H954 0.931 . S
C970 C964 1.383 . S
C970 C969 1.379 . S
H971 C965 0.959 . S
H972 C965 0.961 . S
H973 C965 0.960 . S
H974 C966 0.930 . S
H975 C967 0.929 . S
H976 C984 0.929 . S
H977 C986 0.930 . S
H978 C988 0.930 . S
H979 C991 0.929 . S
H980 C994 0.930 . S
H981 C996 0.960 . S
H982 C996 0.960 . S
H983 C996 0.960 . S
C984 H976 0.929 . S
C984 C985 1.377 . S
C984 C986 1.384 . S
C985 C984 1.377 . S
C985 C991 1.390 . S
C986 H977 0.930 . S
C986 C984 1.384 . S
C986 C987 1.372 . S
C987 C986 1.372 . S
C987 C988 1.400 . S
C987 C992 1.490 . S
C988 H978 0.930 . S
C988 C987 1.400 . S
C988 C991 1.386 . S
H989 C1005 0.930 . S
H990 C1006 0.931 . S
C991 H979 0.929 . S
C991 C985 1.390 . S
C991 C988 1.386 . S
C992 C987 1.490 . S
C992 C994 1.395 . S
C992 C995 1.403 . S
H993 C999 0.930 . S
C994 H980 0.930 . S
C994 C992 1.395 . S
C994 C997 1.403 . S
C995 C992 1.403 . S
C995 C996 1.524 . S
C995 C999 1.400 . S
C996 H981 0.960 . S
C996 H982 0.960 . S
C996 H983 0.960 . S
C996 C995 1.524 . S
C997 C994 1.403 . S
C997 C998 1.392 . S
C997 C1001 1.495 . S
C998 C997 1.392 . S
C998 C999 1.385 . S
C998 C1000 1.478 . S
C999 H993 0.930 . S
C999 C995 1.400 . S
C999 C998 1.385 . S
C1000 C998 1.478 . S
C1000 C1002 1.381 . S
C1000 C1006 1.383 . S
C1001 C997 1.495 . S
C1001 H1007 0.959 . S
C1001 H1008 0.961 . S
C1001 H1009 0.960 . S
C1002 C1000 1.381 . S
C1002 C1003 1.394 . S
C1002 H1010 0.930 . S
C1003 C1002 1.394 . S
C1003 C1004 1.383 . S
C1003 H1011 0.929 . S
C1004 C1003 1.383 . S
C1004 C1005 1.377 . S
C1005 H989 0.930 . S
C1005 C1004 1.377 . S
C1005 C1006 1.379 . S
C1006 H990 0.931 . S
C1006 C1000 1.383 . S
C1006 C1005 1.379 . S
H1007 C1001 0.959 . S
H1008 C1001 0.961 . S
H1009 C1001 0.960 . S
H1010 C1002 0.930 . S
H1011 C1003 0.929 . S
H1012 C1020 0.929 . S
H1013 C1022 0.930 . S
H1014 C1024 0.930 . S
H1015 C1027 0.929 . S
H1016 C1030 0.930 . S
H1017 C1032 0.960 . S
H1018 C1032 0.960 . S
H1019 C1032 0.960 . S
C1020 H1012 0.929 . S
C1020 C1021 1.377 . S
C1020 C1022 1.384 . S
C1021 C1020 1.377 . S
C1021 C1027 1.390 . S
C1022 H1013 0.930 . S
C1022 C1020 1.384 . S
C1022 C1023 1.372 . S
C1023 C1022 1.372 . S
C1023 C1024 1.400 . S
C1023 C1028 1.490 . S
C1024 H1014 0.930 . S
C1024 C1023 1.400 . S
C1024 C1027 1.386 . S
H1025 C1041 0.930 . S
H1026 C1042 0.931 . S
C1027 H1015 0.929 . S
C1027 C1021 1.390 . S
C1027 C1024 1.386 . S
C1028 C1023 1.490 . S
C1028 C1030 1.395 . S
C1028 C1031 1.403 . S
H1029 C1035 0.930 . S
C1030 H1016 0.930 . S
C1030 C1028 1.395 . S
C1030 C1033 1.403 . S
C1031 C1028 1.403 . S
C1031 C1032 1.524 . S
C1031 C1035 1.400 . S
C1032 H1017 0.960 . S
C1032 H1018 0.960 . S
C1032 H1019 0.960 . S
C1032 C1031 1.524 . S
C1033 C1030 1.403 . S
C1033 C1034 1.392 . S
C1033 C1037 1.495 . S
C1034 C1033 1.392 . S
C1034 C1035 1.385 . S
C1034 C1036 1.478 . S
C1035 H1029 0.930 . S
C1035 C1031 1.400 . S
C1035 C1034 1.385 . S
C1036 C1034 1.478 . S
C1036 C1038 1.381 . S
C1036 C1042 1.383 . S
C1037 C1033 1.495 . S
C1037 H1043 0.959 . S
C1037 H1044 0.961 . S
C1037 H1045 0.960 . S
C1038 C1036 1.381 . S
C1038 C1039 1.394 . S
C1038 H1046 0.930 . S
C1039 C1038 1.394 . S
C1039 C1040 1.383 . S
C1039 H1047 0.929 . S
C1040 C1039 1.383 . S
C1040 C1041 1.377 . S
C1041 H1025 0.930 . S
C1041 C1040 1.377 . S
C1041 C1042 1.379 . S
C1042 H1026 0.931 . S
C1042 C1036 1.383 . S
C1042 C1041 1.379 . S
H1043 C1037 0.959 . S
H1044 C1037 0.961 . S
H1045 C1037 0.960 . S
H1046 C1038 0.930 . S
H1047 C1039 0.929 . S
H1048 C1056 0.929 . S
H1049 C1058 0.930 . S
H1050 C1060 0.930 . S
H1051 C1063 0.929 . S
H1052 C1066 0.930 . S
H1053 C1068 0.960 . S
H1054 C1068 0.960 . S
H1055 C1068 0.960 . S
C1056 H1048 0.929 . S
C1056 C1057 1.377 . S
C1056 C1058 1.384 . S
C1057 C1056 1.377 . S
C1057 C1063 1.390 . S
C1058 H1049 0.930 . S
C1058 C1056 1.384 . S
C1058 C1059 1.372 . S
C1059 C1058 1.372 . S
C1059 C1060 1.400 . S
C1059 C1064 1.490 . S
C1060 H1050 0.930 . S
C1060 C1059 1.400 . S
C1060 C1063 1.386 . S
H1061 C1077 0.930 . S
H1062 C1078 0.931 . S
C1063 H1051 0.929 . S
C1063 C1057 1.390 . S
C1063 C1060 1.386 . S
C1064 C1059 1.490 . S
C1064 C1066 1.395 . S
C1064 C1067 1.403 . S
H1065 C1071 0.930 . S
C1066 H1052 0.930 . S
C1066 C1064 1.395 . S
C1066 C1069 1.403 . S
C1067 C1064 1.403 . S
C1067 C1068 1.524 . S
C1067 C1071 1.400 . S
C1068 H1053 0.960 . S
C1068 H1054 0.960 . S
C1068 H1055 0.960 . S
C1068 C1067 1.524 . S
C1069 C1066 1.403 . S
C1069 C1070 1.392 . S
C1069 C1073 1.495 . S
C1070 C1069 1.392 . S
C1070 C1071 1.385 . S
C1070 C1072 1.478 . S
C1071 H1065 0.930 . S
C1071 C1067 1.400 . S
C1071 C1070 1.385 . S
C1072 C1070 1.478 . S
C1072 C1074 1.381 . S
C1072 C1078 1.383 . S
C1073 C1069 1.495 . S
C1073 H1079 0.959 . S
C1073 H1080 0.961 . S
C1073 H1081 0.960 . S
C1074 C1072 1.381 . S
C1074 C1075 1.394 . S
C1074 H1082 0.930 . S
C1075 C1074 1.394 . S
C1075 C1076 1.383 . S
C1075 H1083 0.929 . S
C1076 C1075 1.383 . S
C1076 C1077 1.377 . S
C1077 H1061 0.930 . S
C1077 C1076 1.377 . S
C1077 C1078 1.379 . S
C1078 H1062 0.931 . S
C1078 C1072 1.383 . S
C1078 C1077 1.379 . S
H1079 C1073 0.959 . S
H1080 C1073 0.961 . S
H1081 C1073 0.960 . S
H1082 C1074 0.930 . S
H1083 C1075 0.929 . S
H1084 C1092 0.929 . S
H1085 C1094 0.930 . S
H1086 C1096 0.930 . S
H1087 C1099 0.929 . S
H1088 C1102 0.930 . S
H1089 C1104 0.960 . S
H1090 C1104 0.960 . S
H1091 C1104 0.960 . S
C1092 H1084 0.929 . S
C1092 C1093 1.377 . S
C1092 C1094 1.384 . S
C1093 C1092 1.377 . S
C1093 C1099 1.390 . S
C1094 H1085 0.930 . S
C1094 C1092 1.384 . S
C1094 C1095 1.372 . S
C1095 C1094 1.372 . S
C1095 C1096 1.400 . S
C1095 C1100 1.490 . S
C1096 H1086 0.930 . S
C1096 C1095 1.400 . S
C1096 C1099 1.386 . S
H1097 C1113 0.930 . S
H1098 C1114 0.931 . S
C1099 H1087 0.929 . S
C1099 C1093 1.390 . S
C1099 C1096 1.386 . S
C1100 C1095 1.490 . S
C1100 C1102 1.395 . S
C1100 C1103 1.403 . S
H1101 C1107 0.930 . S
C1102 H1088 0.930 . S
C1102 C1100 1.395 . S
C1102 C1105 1.403 . S
C1103 C1100 1.403 . S
C1103 C1104 1.524 . S
C1103 C1107 1.400 . S
C1104 H1089 0.960 . S
C1104 H1090 0.960 . S
C1104 H1091 0.960 . S
C1104 C1103 1.524 . S
C1105 C1102 1.403 . S
C1105 C1106 1.392 . S
C1105 C1109 1.495 . S
C1106 C1105 1.392 . S
C1106 C1107 1.385 . S
C1106 C1108 1.478 . S
C1107 H1101 0.930 . S
C1107 C1103 1.400 . S
C1107 C1106 1.385 . S
C1108 C1106 1.478 . S
C1108 C1110 1.381 . S
C1108 C1114 1.383 . S
C1109 C1105 1.495 . S
C1109 H1115 0.959 . S
C1109 H1116 0.961 . S
C1109 H1117 0.960 . S
C1110 C1108 1.381 . S
C1110 C1111 1.394 . S
C1110 H1118 0.930 . S
C1111 C1110 1.394 . S
C1111 C1112 1.383 . S
C1111 H1119 0.929 . S
C1112 C1111 1.383 . S
C1112 C1113 1.377 . S
C1113 H1097 0.930 . S
C1113 C1112 1.377 . S
C1113 C1114 1.379 . S
C1114 H1098 0.931 . S
C1114 C1108 1.383 . S
C1114 C1113 1.379 . S
H1115 C1109 0.959 . S
H1116 C1109 0.961 . S
H1117 C1109 0.960 . S
H1118 C1110 0.930 . S
H1119 C1111 0.929 . S
H1120 C1128 0.929 . S
H1121 C1130 0.930 . S
H1122 C1132 0.930 . S
H1123 C1135 0.929 . S
H1124 C1138 0.930 . S
H1125 C1140 0.960 1_554 S
H1126 C1140 0.960 . S
H1127 C1140 0.960 . S
C1128 H1120 0.929 . S
C1128 C1129 1.377 . S
C1128 C1130 1.384 . S
C1129 C1128 1.377 . S
C1129 C1135 1.390 . S
C1130 H1121 0.930 . S
C1130 C1128 1.384 . S
C1130 C1131 1.372 . S
C1131 C1130 1.372 . S
C1131 C1132 1.400 . S
C1131 C1136 1.490 . S
C1132 H1122 0.930 . S
C1132 C1131 1.400 . S
C1132 C1135 1.386 . S
H1133 C1149 0.930 . S
H1134 C1150 0.931 . S
C1135 H1123 0.929 . S
C1135 C1129 1.390 . S
C1135 C1132 1.386 . S
C1136 C1131 1.490 . S
C1136 C1138 1.395 . S
C1136 C1139 1.403 . S
H1137 C1143 0.930 . S
C1138 H1124 0.930 . S
C1138 C1136 1.395 . S
C1138 C1141 1.403 1_556 S
C1139 C1136 1.403 . S
C1139 C1140 1.524 . S
C1139 C1143 1.400 1_556 S
C1140 H1125 0.960 1_556 S
C1140 H1126 0.960 . S
C1140 H1127 0.960 . S
C1140 C1139 1.524 . S
C1141 C1138 1.403 1_554 S
C1141 C1142 1.392 . S
C1141 C1145 1.495 . S
C1142 C1141 1.392 . S
C1142 C1143 1.385 . S
C1142 C1144 1.478 . S
C1143 H1137 0.930 . S
C1143 C1139 1.400 1_554 S
C1143 C1142 1.385 . S
C1144 C1142 1.478 . S
C1144 C1146 1.381 . S
C1144 C1150 1.383 . S
C1145 C1141 1.495 . S
C1145 H1151 0.959 1_554 S
C1145 H1152 0.961 . S
C1145 H1153 0.960 . S
C1146 C1144 1.381 . S
C1146 C1147 1.394 . S
C1146 H1154 0.930 . S
C1147 C1146 1.394 . S
C1147 C1148 1.383 . S
C1147 H1155 0.929 . S
C1148 C1147 1.383 . S
C1148 C1149 1.377 . S
C1149 H1133 0.930 . S
C1149 C1148 1.377 . S
C1149 C1150 1.379 . S
C1150 H1134 0.931 . S
C1150 C1144 1.383 . S
C1150 C1149 1.379 . S
H1151 C1145 0.959 1_556 S
H1152 C1145 0.961 . S
H1153 C1145 0.960 . S
H1154 C1146 0.930 . S
H1155 C1147 0.929 . S
H1156 C1164 0.929 . S
H1157 C1166 0.930 . S
H1158 C1168 0.930 . S
H1159 C1171 0.929 . S
H1160 C1174 0.930 . S
H1161 C1176 0.960 1_556 S
H1162 C1176 0.960 . S
H1163 C1176 0.960 . S
C1164 H1156 0.929 . S
C1164 C1165 1.377 . S
C1164 C1166 1.384 . S
C1165 C1164 1.377 . S
C1165 C1171 1.390 . S
C1166 H1157 0.930 . S
C1166 C1164 1.384 . S
C1166 C1167 1.372 . S
C1167 C1166 1.372 . S
C1167 C1168 1.400 . S
C1167 C1172 1.490 . S
C1168 H1158 0.930 . S
C1168 C1167 1.400 . S
C1168 C1171 1.386 . S
H1169 C1185 0.930 . S
H1170 C1186 0.931 . S
C1171 H1159 0.929 . S
C1171 C1165 1.390 . S
C1171 C1168 1.386 . S
C1172 C1167 1.490 . S
C1172 C1174 1.395 . S
C1172 C1175 1.403 . S
H1173 C1179 0.930 . S
C1174 H1160 0.930 . S
C1174 C1172 1.395 . S
C1174 C1177 1.336 1_554 S
C1175 C1172 1.403 . S
C1175 C1176 1.524 . S
C1175 C1179 1.400 1_554 S
C1176 H1161 0.960 1_554 S
C1176 H1162 0.960 . S
C1176 H1163 0.960 . S
C1176 C1175 1.524 . S
C1177 C1174 1.336 1_556 S
C1177 C1178 1.455 . S
C1177 C1181 1.502 . S
C1178 C1177 1.455 . S
C1178 C1179 1.385 . S
C1178 C1180 1.478 . S
C1179 H1173 0.930 . S
C1179 C1175 1.400 1_556 S
C1179 C1178 1.385 . S
C1180 C1178 1.478 . S
C1180 C1182 1.381 . S
C1180 C1186 1.383 . S
C1181 C1177 1.502 . S
C1181 H1187 0.959 1_556 S
C1181 H1188 0.961 . S
C1181 H1189 0.960 . S
C1182 C1180 1.381 . S
C1182 C1183 1.394 . S
C1182 H1190 0.930 . S
C1183 C1182 1.394 . S
C1183 C1184 1.383 . S
C1183 H1191 0.929 . S
C1184 C1183 1.383 . S
C1184 C1185 1.377 . S
C1185 H1169 0.930 . S
C1185 C1184 1.377 . S
C1185 C1186 1.379 . S
C1186 H1170 0.931 . S
C1186 C1180 1.383 . S
C1186 C1185 1.379 . S
H1187 C1181 0.959 1_554 S
H1188 C1181 0.961 . S
H1189 C1181 0.960 . S
H1190 C1182 0.930 . S
H1191 C1183 0.929 . S
H1192 C1200 0.929 . S
H1193 C1202 0.930 . S
H1194 C1204 0.930 . S
H1195 C1207 0.929 . S
H1196 C1210 0.930 . S
H1197 C1212 0.960 . S
H1198 C1212 0.960 . S
H1199 C1212 0.960 . S
C1200 H1192 0.929 . S
C1200 C1201 1.377 . S
C1200 C1202 1.384 . S
C1201 C1200 1.377 . S
C1201 C1207 1.390 . S
C1202 H1193 0.930 . S
C1202 C1200 1.384 . S
C1202 C1203 1.372 . S
C1203 C1202 1.372 . S
C1203 C1204 1.400 . S
C1203 C1208 1.490 . S
C1204 H1194 0.930 . S
C1204 C1203 1.400 . S
C1204 C1207 1.386 . S
H1205 C1221 0.930 . S
H1206 C1222 0.931 . S
C1207 H1195 0.929 . S
C1207 C1201 1.390 . S
C1207 C1204 1.386 . S
C1208 C1203 1.490 . S
C1208 C1210 1.395 . S
C1208 C1211 1.403 . S
H1209 C1215 0.930 . S
C1210 H1196 0.930 . S
C1210 C1208 1.395 . S
C1210 C1213 1.403 1_556 S
C1211 C1208 1.403 . S
C1211 C1212 1.524 . S
C1211 C1215 1.400 1_556 S
C1212 H1197 0.960 . S
C1212 H1198 0.960 . S
C1212 H1199 0.960 . S
C1212 C1211 1.524 . S
C1213 C1210 1.403 1_554 S
C1213 C1214 1.392 . S
C1213 C1217 1.495 . S
C1214 C1213 1.392 . S
C1214 C1215 1.385 . S
C1214 C1216 1.478 . S
C1215 H1209 0.930 . S
C1215 C1211 1.400 1_554 S
C1215 C1214 1.385 . S
C1216 C1214 1.478 . S
C1216 C1218 1.381 . S
C1216 C1222 1.383 . S
C1217 C1213 1.495 . S
C1217 H1223 0.959 . S
C1217 H1224 0.961 . S
C1217 H1225 0.960 . S
C1218 C1216 1.381 . S
C1218 C1219 1.394 . S
C1218 H1226 0.930 . S
C1219 C1218 1.394 . S
C1219 C1220 1.383 . S
C1219 H1227 0.929 . S
C1220 C1219 1.383 . S
C1220 C1221 1.377 . S
C1221 H1205 0.930 . S
C1221 C1220 1.377 . S
C1221 C1222 1.379 . S
C1222 H1206 0.931 . S
C1222 C1216 1.383 . S
C1222 C1221 1.379 . S
H1223 C1217 0.959 . S
H1224 C1217 0.961 . S
H1225 C1217 0.960 . S
H1226 C1218 0.930 . S
H1227 C1219 0.929 . S
H1228 C1236 0.929 . S
H1229 C1238 0.930 . S
H1230 C1240 0.930 . S
H1231 C1243 0.929 . S
H1232 C1246 0.930 . S
H1233 C1248 0.960 . S
H1234 C1248 0.960 . S
H1235 C1248 0.960 . S
C1236 H1228 0.929 . S
C1236 C1237 1.377 . S
C1236 C1238 1.384 . S
C1237 C1236 1.377 . S
C1237 C1243 1.390 . S
C1238 H1229 0.930 . S
C1238 C1236 1.384 . S
C1238 C1239 1.372 . S
C1239 C1238 1.372 . S
C1239 C1240 1.400 . S
C1239 C1244 1.490 . S
C1240 H1230 0.930 . S
C1240 C1239 1.400 . S
C1240 C1243 1.386 . S
H1241 C1257 0.930 . S
H1242 C1258 0.931 . S
C1243 H1231 0.929 . S
C1243 C1237 1.390 . S
C1243 C1240 1.386 . S
C1244 C1239 1.490 . S
C1244 C1246 1.395 . S
C1244 C1247 1.403 . S
H1245 C1251 0.930 . S
C1246 H1232 0.930 . S
C1246 C1244 1.395 . S
C1246 C1249 1.403 1_556 S
C1247 C1244 1.403 . S
C1247 C1248 1.524 . S
C1247 C1251 1.400 1_556 S
C1248 H1233 0.960 . S
C1248 H1234 0.960 . S
C1248 H1235 0.960 . S
C1248 C1247 1.524 . S
C1249 C1246 1.403 1_554 S
C1249 C1250 1.392 . S
C1249 C1253 1.495 . S
C1250 C1249 1.392 . S
C1250 C1251 1.385 . S
C1250 C1252 1.478 . S
C1251 H1245 0.930 . S
C1251 C1247 1.400 1_554 S
C1251 C1250 1.385 . S
C1252 C1250 1.478 . S
C1252 C1254 1.381 . S
C1252 C1258 1.383 . S
C1253 C1249 1.495 . S
C1253 H1259 0.959 . S
C1253 H1260 0.961 . S
C1253 H1261 0.960 . S
C1254 C1252 1.381 . S
C1254 C1255 1.394 . S
C1254 H1262 0.930 . S
C1255 C1254 1.394 . S
C1255 C1256 1.383 . S
C1255 H1263 0.929 . S
C1256 C1255 1.383 . S
C1256 C1257 1.377 . S
C1257 H1241 0.930 . S
C1257 C1256 1.377 . S
C1257 C1258 1.379 . S
C1258 H1242 0.931 . S
C1258 C1252 1.383 . S
C1258 C1257 1.379 . S
H1259 C1253 0.959 . S
H1260 C1253 0.961 . S
H1261 C1253 0.960 . S
H1262 C1254 0.930 . S
H1263 C1255 0.929 . S
H1264 C1272 0.929 . S
H1265 C1274 0.930 . S
H1266 C1276 0.930 . S
H1267 C1279 0.929 . S
H1268 C1282 0.930 . S
H1269 C1284 0.960 . S
H1270 C1284 0.960 . S
H1271 C1284 0.960 . S
C1272 H1264 0.929 . S
C1272 C1273 1.377 . S
C1272 C1274 1.384 . S
C1273 C1272 1.377 . S
C1273 C1279 1.390 . S
C1274 H1265 0.930 . S
C1274 C1272 1.384 . S
C1274 C1275 1.372 . S
C1275 C1274 1.372 . S
C1275 C1276 1.400 . S
C1275 C1280 1.490 . S
C1276 H1266 0.930 . S
C1276 C1275 1.400 . S
C1276 C1279 1.386 . S
H1277 C1293 0.930 . S
H1278 C1294 0.931 . S
C1279 H1267 0.929 . S
C1279 C1273 1.390 . S
C1279 C1276 1.386 . S
C1280 C1275 1.490 . S
C1280 C1282 1.395 . S
C1280 C1283 1.403 . S
H1281 C1287 0.930 . S
C1282 H1268 0.930 . S
C1282 C1280 1.395 . S
C1282 C1285 1.403 . S
C1283 C1280 1.403 . S
C1283 C1284 1.524 . S
C1283 C1287 1.400 . S
C1284 H1269 0.960 . S
C1284 H1270 0.960 . S
C1284 H1271 0.960 . S
C1284 C1283 1.524 . S
C1285 C1282 1.403 . S
C1285 C1286 1.392 . S
C1285 C1289 1.495 . S
C1286 C1285 1.392 . S
C1286 C1287 1.385 . S
C1286 C1288 1.478 . S
C1287 H1281 0.930 . S
C1287 C1283 1.400 . S
C1287 C1286 1.385 . S
C1288 C1286 1.478 . S
C1288 C1290 1.381 . S
C1288 C1294 1.383 . S
C1289 C1285 1.495 . S
C1289 H1295 0.959 . S
C1289 H1296 0.961 . S
C1289 H1297 0.960 . S
C1290 C1288 1.381 . S
C1290 C1291 1.394 . S
C1290 H1298 0.930 . S
C1291 C1290 1.394 . S
C1291 C1292 1.383 . S
C1291 H1299 0.929 . S
C1292 C1291 1.383 . S
C1292 C1293 1.377 . S
C1293 H1277 0.930 . S
C1293 C1292 1.377 . S
C1293 C1294 1.379 . S
C1294 H1278 0.931 . S
C1294 C1288 1.383 . S
C1294 C1293 1.379 . S
H1295 C1289 0.959 . S
H1296 C1289 0.961 . S
H1297 C1289 0.960 . S
H1298 C1290 0.930 . S
H1299 C1291 0.929 . S
H1300 C1308 0.929 . S
H1301 C1310 0.930 . S
H1302 C1312 0.930 . S
H1303 C1315 0.929 . S
H1304 C1318 0.930 . S
H1305 C1320 0.960 . S
H1306 C1320 0.960 . S
H1307 C1320 0.960 . S
C1308 H1300 0.929 . S
C1308 C1309 1.377 . S
C1308 C1310 1.384 . S
C1309 C1308 1.377 . S
C1309 C1315 1.390 . S
C1310 H1301 0.930 . S
C1310 C1308 1.384 . S
C1310 C1311 1.372 . S
C1311 C1310 1.372 . S
C1311 C1312 1.400 . S
C1311 C1316 1.490 . S
C1312 H1302 0.930 . S
C1312 C1311 1.400 . S
C1312 C1315 1.386 . S
H1313 C1329 0.930 . S
H1314 C1330 0.931 . S
C1315 H1303 0.929 . S
C1315 C1309 1.390 . S
C1315 C1312 1.386 . S
C1316 C1311 1.490 . S
C1316 C1318 1.395 . S
C1316 C1319 1.403 . S
H1317 C1323 0.930 . S
C1318 H1304 0.930 . S
C1318 C1316 1.395 . S
C1318 C1321 1.403 . S
C1319 C1316 1.403 . S
C1319 C1320 1.524 . S
C1319 C1323 1.400 . S
C1320 H1305 0.960 . S
C1320 H1306 0.960 . S
C1320 H1307 0.960 . S
C1320 C1319 1.524 . S
C1321 C1318 1.403 . S
C1321 C1322 1.392 . S
C1321 C1325 1.495 . S
C1322 C1321 1.392 . S
C1322 C1323 1.385 . S
C1322 C1324 1.478 . S
C1323 H1317 0.930 . S
C1323 C1319 1.400 . S
C1323 C1322 1.385 . S
C1324 C1322 1.478 . S
C1324 C1326 1.381 . S
C1324 C1330 1.383 . S
C1325 C1321 1.495 . S
C1325 H1331 0.959 . S
C1325 H1332 0.961 . S
C1325 H1333 0.960 . S
C1326 C1324 1.381 . S
C1326 C1327 1.394 . S
C1326 H1334 0.930 . S
C1327 C1326 1.394 . S
C1327 C1328 1.383 . S
C1327 H1335 0.929 . S
C1328 C1327 1.383 . S
C1328 C1329 1.377 . S
C1329 H1313 0.930 . S
C1329 C1328 1.377 . S
C1329 C1330 1.379 . S
C1330 H1314 0.931 . S
C1330 C1324 1.383 . S
C1330 C1329 1.379 . S
H1331 C1325 0.959 . S
H1332 C1325 0.961 . S
H1333 C1325 0.960 . S
H1334 C1326 0.930 . S
H1335 C1327 0.929 . S
H1336 C1344 0.929 . S
H1337 C1346 0.930 . S
H1338 C1348 0.930 . S
H1339 C1351 0.929 . S
H1340 C1354 0.930 . S
H1341 C1356 0.960 . S
H1342 C1356 0.960 . S
H1343 C1356 0.960 . S
C1344 H1336 0.929 . S
C1344 C1345 1.377 . S
C1344 C1346 1.384 . S
C1345 C1344 1.377 . S
C1345 C1351 1.390 . S
C1346 H1337 0.930 . S
C1346 C1344 1.384 . S
C1346 C1347 1.372 . S
C1347 C1346 1.372 . S
C1347 C1348 1.400 . S
C1347 C1352 1.490 . S
C1348 H1338 0.930 . S
C1348 C1347 1.400 . S
C1348 C1351 1.386 . S
H1349 C1365 0.930 . S
H1350 C1366 0.931 . S
C1351 H1339 0.929 . S
C1351 C1345 1.390 . S
C1351 C1348 1.386 . S
C1352 C1347 1.490 . S
C1352 C1354 1.395 . S
C1352 C1355 1.403 . S
H1353 C1359 0.930 . S
C1354 H1340 0.930 . S
C1354 C1352 1.395 . S
C1354 C1357 1.403 . S
C1355 C1352 1.403 . S
C1355 C1356 1.524 . S
C1355 C1359 1.400 . S
C1356 H1341 0.960 . S
C1356 H1342 0.960 . S
C1356 H1343 0.960 . S
C1356 C1355 1.524 . S
C1357 C1354 1.403 . S
C1357 C1358 1.392 . S
C1357 C1361 1.495 . S
C1358 C1357 1.392 . S
C1358 C1359 1.385 . S
C1358 C1360 1.478 . S
C1359 H1353 0.930 . S
C1359 C1355 1.400 . S
C1359 C1358 1.385 . S
C1360 C1358 1.478 . S
C1360 C1362 1.381 . S
C1360 C1366 1.383 . S
C1361 C1357 1.495 . S
C1361 H1367 0.959 . S
C1361 H1368 0.961 . S
C1361 H1369 0.960 . S
C1362 C1360 1.381 . S
C1362 C1363 1.394 . S
C1362 H1370 0.930 . S
C1363 C1362 1.394 . S
C1363 C1364 1.383 . S
C1363 H1371 0.929 . S
C1364 C1363 1.383 . S
C1364 C1365 1.377 . S
C1365 H1349 0.930 . S
C1365 C1364 1.377 . S
C1365 C1366 1.379 . S
C1366 H1350 0.931 . S
C1366 C1360 1.383 . S
C1366 C1365 1.379 . S
H1367 C1361 0.959 . S
H1368 C1361 0.961 . S
H1369 C1361 0.960 . S
H1370 C1362 0.930 . S
H1371 C1363 0.929 . S
H1372 C1380 0.929 . S
H1373 C1382 0.930 . S
H1374 C1384 0.930 . S
H1375 C1387 0.929 . S
H1376 C1390 0.930 . S
H1377 C1392 0.960 . S
H1378 C1392 0.960 . S
H1379 C1392 0.960 . S
C1380 H1372 0.929 . S
C1380 C1381 1.377 . S
C1380 C1382 1.384 . S
C1381 C1380 1.377 . S
C1381 C1387 1.390 . S
C1382 H1373 0.930 . S
C1382 C1380 1.384 . S
C1382 C1383 1.372 . S
C1383 C1382 1.372 . S
C1383 C1384 1.400 . S
C1383 C1388 1.490 . S
C1384 H1374 0.930 . S
C1384 C1383 1.400 . S
C1384 C1387 1.386 . S
H1385 C1401 0.930 . S
H1386 C1402 0.931 . S
C1387 H1375 0.929 . S
C1387 C1381 1.390 . S
C1387 C1384 1.386 . S
C1388 C1383 1.490 . S
C1388 C1390 1.395 . S
C1388 C1391 1.403 . S
H1389 C1395 0.930 . S
C1390 H1376 0.930 . S
C1390 C1388 1.395 . S
C1390 C1393 1.403 . S
C1391 C1388 1.403 . S
C1391 C1392 1.524 . S
C1391 C1395 1.400 . S
C1392 H1377 0.960 . S
C1392 H1378 0.960 . S
C1392 H1379 0.960 . S
C1392 C1391 1.524 . S
C1393 C1390 1.403 . S
C1393 C1394 1.392 . S
C1393 C1397 1.495 . S
C1394 C1393 1.392 . S
C1394 C1395 1.385 . S
C1394 C1396 1.478 . S
C1395 H1389 0.930 . S
C1395 C1391 1.400 . S
C1395 C1394 1.385 . S
C1396 C1394 1.478 . S
C1396 C1398 1.381 . S
C1396 C1402 1.383 . S
C1397 C1393 1.495 . S
C1397 H1403 0.959 . S
C1397 H1404 0.961 . S
C1397 H1405 0.960 . S
C1398 C1396 1.381 . S
C1398 C1399 1.394 . S
C1398 H1406 0.930 . S
C1399 C1398 1.394 . S
C1399 C1400 1.383 . S
C1399 H1407 0.929 . S
C1400 C1399 1.383 . S
C1400 C1401 1.377 . S
C1401 H1385 0.930 . S
C1401 C1400 1.377 . S
C1401 C1402 1.379 . S
C1402 H1386 0.931 . S
C1402 C1396 1.383 . S
C1402 C1401 1.379 . S
H1403 C1397 0.959 . S
H1404 C1397 0.961 . S
H1405 C1397 0.960 . S
H1406 C1398 0.930 . S
H1407 C1399 0.929 . S
H1408 C1416 0.929 . S
H1409 C1418 0.930 . S
H1410 C1420 0.930 . S
H1411 C1423 0.929 . S
H1412 C1426 0.930 . S
H1413 C1428 0.960 . S
H1414 C1428 0.960 . S
H1415 C1428 0.960 . S
C1416 H1408 0.929 . S
C1416 C1417 1.377 . S
C1416 C1418 1.384 . S
C1417 C1416 1.377 . S
C1417 C1423 1.390 . S
C1418 H1409 0.930 . S
C1418 C1416 1.384 . S
C1418 C1419 1.372 . S
C1419 C1418 1.372 . S
C1419 C1420 1.400 . S
C1419 C1424 1.490 . S
C1420 H1410 0.930 . S
C1420 C1419 1.400 . S
C1420 C1423 1.386 . S
H1421 C1437 0.930 . S
H1422 C1438 0.931 . S
C1423 H1411 0.929 . S
C1423 C1417 1.390 . S
C1423 C1420 1.386 . S
C1424 C1419 1.490 . S
C1424 C1426 1.395 . S
C1424 C1427 1.403 . S
H1425 C1431 0.930 . S
C1426 H1412 0.930 . S
C1426 C1424 1.395 . S
C1426 C1429 1.403 . S
C1427 C1424 1.403 . S
C1427 C1428 1.524 . S
C1427 C1431 1.400 . S
C1428 H1413 0.960 . S
C1428 H1414 0.960 . S
C1428 H1415 0.960 . S
C1428 C1427 1.524 . S
C1429 C1426 1.403 . S
C1429 C1430 1.392 . S
C1429 C1433 1.495 . S
C1430 C1429 1.392 . S
C1430 C1431 1.385 . S
C1430 C1432 1.478 . S
C1431 H1425 0.930 . S
C1431 C1427 1.400 . S
C1431 C1430 1.385 . S
C1432 C1430 1.478 . S
C1432 C1434 1.381 . S
C1432 C1438 1.383 . S
C1433 C1429 1.495 . S
C1433 H1439 0.959 . S
C1433 H1440 0.961 . S
C1433 H1441 0.960 . S
C1434 C1432 1.381 . S
C1434 C1435 1.394 . S
C1434 H1442 0.930 . S
C1435 C1434 1.394 . S
C1435 C1436 1.383 . S
C1435 H1443 0.929 . S
C1436 C1435 1.383 . S
C1436 C1437 1.377 . S
C1437 H1421 0.930 . S
C1437 C1436 1.377 . S
C1437 C1438 1.379 . S
C1438 H1422 0.931 . S
C1438 C1432 1.383 . S
C1438 C1437 1.379 . S
H1439 C1433 0.959 . S
H1440 C1433 0.961 . S
H1441 C1433 0.960 . S
H1442 C1434 0.930 . S
H1443 C1435 0.929 . S
H1444 C1452 0.929 . S
H1445 C1454 0.930 . S
H1446 C1456 0.930 . S
H1447 C1459 0.929 . S
H1448 C1462 0.930 . S
H1449 C1464 0.960 . S
H1450 C1464 0.960 . S
H1451 C1464 0.960 . S
C1452 H1444 0.929 . S
C1452 C1453 1.377 . S
C1452 C1454 1.384 . S
C1453 C1452 1.377 . S
C1453 C1459 1.390 . S
C1454 H1445 0.930 . S
C1454 C1452 1.384 . S
C1454 C1455 1.372 . S
C1455 C1454 1.372 . S
C1455 C1456 1.400 . S
C1455 C1460 1.490 . S
C1456 H1446 0.930 . S
C1456 C1455 1.400 . S
C1456 C1459 1.386 . S
H1457 C1473 0.930 . S
H1458 C1474 0.931 . S
C1459 H1447 0.929 . S
C1459 C1453 1.390 . S
C1459 C1456 1.386 . S
C1460 C1455 1.490 . S
C1460 C1462 1.395 . S
C1460 C1463 1.403 . S
H1461 C1467 0.930 . S
C1462 H1448 0.930 . S
C1462 C1460 1.395 . S
C1462 C1465 1.403 . S
C1463 C1460 1.403 . S
C1463 C1464 1.524 . S
C1463 C1467 1.400 . S
C1464 H1449 0.960 . S
C1464 H1450 0.960 . S
C1464 H1451 0.960 . S
C1464 C1463 1.524 . S
C1465 C1462 1.403 . S
C1465 C1466 1.392 . S
C1465 C1469 1.495 . S
C1466 C1465 1.392 . S
C1466 C1467 1.385 . S
C1466 C1468 1.478 . S
C1467 H1461 0.930 . S
C1467 C1463 1.400 . S
C1467 C1466 1.385 . S
C1468 C1466 1.478 . S
C1468 C1470 1.381 . S
C1468 C1474 1.383 . S
C1469 C1465 1.495 . S
C1469 H1475 0.959 . S
C1469 H1476 0.961 . S
C1469 H1477 0.960 . S
C1470 C1468 1.381 . S
C1470 C1471 1.394 . S
C1470 H1478 0.930 . S
C1471 C1470 1.394 . S
C1471 C1472 1.383 . S
C1471 H1479 0.929 . S
C1472 C1471 1.383 . S
C1472 C1473 1.377 . S
C1473 H1457 0.930 . S
C1473 C1472 1.377 . S
C1473 C1474 1.379 . S
C1474 H1458 0.931 . S
C1474 C1468 1.383 . S
C1474 C1473 1.379 . S
H1475 C1469 0.959 . S
H1476 C1469 0.961 . S
H1477 C1469 0.960 . S
H1478 C1470 0.930 . S
H1479 C1471 0.929 . S
H1480 C1488 0.929 . S
H1481 C1490 0.930 . S
H1482 C1492 0.930 . S
H1483 C1495 0.929 . S
H1484 C1498 0.930 . S
H1485 C1500 0.960 . S
H1486 C1500 0.960 . S
H1487 C1500 0.960 . S
C1488 H1480 0.929 . S
C1488 C1489 1.377 . S
C1488 C1490 1.384 . S
C1489 C1488 1.377 . S
C1489 C1495 1.390 . S
C1490 H1481 0.930 . S
C1490 C1488 1.384 . S
C1490 C1491 1.372 . S
C1491 C1490 1.372 . S
C1491 C1492 1.400 . S
C1491 C1496 1.490 . S
C1492 H1482 0.930 . S
C1492 C1491 1.400 . S
C1492 C1495 1.386 . S
H1493 C1509 0.930 . S
H1494 C1510 0.931 . S
C1495 H1483 0.929 . S
C1495 C1489 1.390 . S
C1495 C1492 1.386 . S
C1496 C1491 1.490 . S
C1496 C1498 1.395 . S
C1496 C1499 1.403 . S
H1497 C1503 0.930 . S
C1498 H1484 0.930 . S
C1498 C1496 1.395 . S
C1498 C1501 1.403 . S
C1499 C1496 1.403 . S
C1499 C1500 1.524 . S
C1499 C1503 1.400 . S
C1500 H1485 0.960 . S
C1500 H1486 0.960 . S
C1500 H1487 0.960 . S
C1500 C1499 1.524 . S
C1501 C1498 1.403 . S
C1501 C1502 1.392 . S
C1501 C1505 1.495 . S
C1502 C1501 1.392 . S
C1502 C1503 1.385 . S
C1502 C1504 1.478 . S
C1503 H1497 0.930 . S
C1503 C1499 1.400 . S
C1503 C1502 1.385 . S
C1504 C1502 1.478 . S
C1504 C1506 1.381 . S
C1504 C1510 1.383 . S
C1505 C1501 1.495 . S
C1505 H1511 0.959 . S
C1505 H1512 0.961 . S
C1505 H1513 0.960 . S
C1506 C1504 1.381 . S
C1506 C1507 1.394 . S
C1506 H1514 0.930 . S
C1507 C1506 1.394 . S
C1507 C1508 1.383 . S
C1507 H1515 0.929 . S
C1508 C1507 1.383 . S
C1508 C1509 1.377 . S
C1509 H1493 0.930 . S
C1509 C1508 1.377 . S
C1509 C1510 1.379 . S
C1510 H1494 0.931 . S
C1510 C1504 1.383 . S
C1510 C1509 1.379 . S
H1511 C1505 0.959 . S
H1512 C1505 0.961 . S
H1513 C1505 0.960 . S
H1514 C1506 0.930 . S
H1515 C1507 0.929 . S
H1516 C1524 0.929 . S
H1517 C1526 0.930 . S
H1518 C1528 0.930 . S
H1519 C1531 0.929 . S
H1520 C1534 0.930 . S
H1521 C1536 0.960 . S
H1522 C1536 0.960 . S
H1523 C1536 0.960 . S
C1524 H1516 0.929 . S
C1524 C1525 1.377 . S
C1524 C1526 1.384 . S
C1525 C1524 1.377 . S
C1525 C1531 1.390 . S
C1526 H1517 0.930 . S
C1526 C1524 1.384 . S
C1526 C1527 1.372 . S
C1527 C1526 1.372 . S
C1527 C1528 1.400 . S
C1527 C1532 1.490 . S
C1528 H1518 0.930 . S
C1528 C1527 1.400 . S
C1528 C1531 1.386 . S
H1529 C1545 0.930 . S
H1530 C1546 0.931 . S
C1531 H1519 0.929 . S
C1531 C1525 1.390 . S
C1531 C1528 1.386 . S
C1532 C1527 1.490 . S
C1532 C1534 1.395 . S
C1532 C1535 1.403 . S
H1533 C1539 0.930 . S
C1534 H1520 0.930 . S
C1534 C1532 1.395 . S
C1534 C1537 1.403 . S
C1535 C1532 1.403 . S
C1535 C1536 1.524 . S
C1535 C1539 1.400 . S
C1536 H1521 0.960 . S
C1536 H1522 0.960 . S
C1536 H1523 0.960 . S
C1536 C1535 1.524 . S
C1537 C1534 1.403 . S
C1537 C1538 1.392 . S
C1537 C1541 1.495 . S
C1538 C1537 1.392 . S
C1538 C1539 1.385 . S
C1538 C1540 1.478 . S
C1539 H1533 0.930 . S
C1539 C1535 1.400 . S
C1539 C1538 1.385 . S
C1540 C1538 1.478 . S
C1540 C1542 1.381 . S
C1540 C1546 1.383 . S
C1541 C1537 1.495 . S
C1541 H1547 0.959 . S
C1541 H1548 0.961 . S
C1541 H1549 0.960 . S
C1542 C1540 1.381 . S
C1542 C1543 1.394 . S
C1542 H1550 0.930 . S
C1543 C1542 1.394 . S
C1543 C1544 1.383 . S
C1543 H1551 0.929 . S
C1544 C1543 1.383 . S
C1544 C1545 1.377 . S
C1545 H1529 0.930 . S
C1545 C1544 1.377 . S
C1545 C1546 1.379 . S
C1546 H1530 0.931 . S
C1546 C1540 1.383 . S
C1546 C1545 1.379 . S
H1547 C1541 0.959 . S
H1548 C1541 0.961 . S
H1549 C1541 0.960 . S
H1550 C1542 0.930 . S
H1551 C1543 0.929 . S
H1552 C1560 0.929 . S
H1553 C1562 0.930 . S
H1554 C1564 0.930 . S
H1555 C1567 0.929 . S
H1556 C1570 0.930 . S
H1557 C1572 0.960 . S
H1558 C1572 0.960 . S
H1559 C1572 0.960 . S
C1560 H1552 0.929 . S
C1560 C1561 1.377 . S
C1560 C1562 1.384 . S
C1561 C1560 1.377 . S
C1561 C1567 1.390 . S
C1562 H1553 0.930 . S
C1562 C1560 1.384 . S
C1562 C1563 1.372 . S
C1563 C1562 1.372 . S
C1563 C1564 1.400 . S
C1563 C1568 1.490 . S
C1564 H1554 0.930 . S
C1564 C1563 1.400 . S
C1564 C1567 1.386 . S
H1565 C1581 0.930 . S
H1566 C1582 0.931 . S
C1567 H1555 0.929 . S
C1567 C1561 1.390 . S
C1567 C1564 1.386 . S
C1568 C1563 1.490 . S
C1568 C1570 1.395 . S
C1568 C1571 1.403 . S
H1569 C1575 0.930 . S
C1570 H1556 0.930 . S
C1570 C1568 1.395 . S
C1570 C1573 1.403 . S
C1571 C1568 1.403 . S
C1571 C1572 1.524 . S
C1571 C1575 1.400 . S
C1572 H1557 0.960 . S
C1572 H1558 0.960 . S
C1572 H1559 0.960 . S
C1572 C1571 1.524 . S
C1573 C1570 1.403 . S
C1573 C1574 1.392 . S
C1573 C1577 1.495 . S
C1574 C1573 1.392 . S
C1574 C1575 1.385 . S
C1574 C1576 1.478 . S
C1575 H1569 0.930 . S
C1575 C1571 1.400 . S
C1575 C1574 1.385 . S
C1576 C1574 1.478 . S
C1576 C1578 1.381 . S
C1576 C1582 1.383 . S
C1577 C1573 1.495 . S
C1577 H1583 0.959 . S
C1577 H1584 0.961 . S
C1577 H1585 0.960 . S
C1578 C1576 1.381 . S
C1578 C1579 1.394 . S
C1578 H1586 0.930 . S
C1579 C1578 1.394 . S
C1579 C1580 1.383 . S
C1579 H1587 0.929 . S
C1580 C1579 1.383 . S
C1580 C1581 1.377 . S
C1581 H1565 0.930 . S
C1581 C1580 1.377 . S
C1581 C1582 1.379 . S
C1582 H1566 0.931 . S
C1582 C1576 1.383 . S
C1582 C1581 1.379 . S
H1583 C1577 0.959 . S
H1584 C1577 0.961 . S
H1585 C1577 0.960 . S
H1586 C1578 0.930 . S
H1587 C1579 0.929 . S
H1588 C1596 0.929 . S
H1589 C1598 0.930 . S
H1590 C1600 0.930 . S
H1591 C1603 0.929 . S
H1592 C1606 0.930 . S
H1593 C1608 0.960 . S
H1594 C1608 0.960 . S
H1595 C1608 0.960 . S
C1596 H1588 0.929 . S
C1596 C1597 1.377 . S
C1596 C1598 1.384 . S
C1597 C1596 1.377 . S
C1597 C1603 1.390 . S
C1598 H1589 0.930 . S
C1598 C1596 1.384 . S
C1598 C1599 1.372 . S
C1599 C1598 1.372 . S
C1599 C1600 1.400 . S
C1599 C1604 1.490 . S
C1600 H1590 0.930 . S
C1600 C1599 1.400 . S
C1600 C1603 1.386 . S
H1601 C1617 0.930 . S
H1602 C1618 0.931 . S
C1603 H1591 0.929 . S
C1603 C1597 1.390 . S
C1603 C1600 1.386 . S
C1604 C1599 1.490 . S
C1604 C1606 1.395 . S
C1604 C1607 1.403 . S
H1605 C1611 0.930 . S
C1606 H1592 0.930 . S
C1606 C1604 1.395 . S
C1606 C1609 1.403 . S
C1607 C1604 1.403 . S
C1607 C1608 1.524 . S
C1607 C1611 1.400 . S
C1608 H1593 0.960 . S
C1608 H1594 0.960 . S
C1608 H1595 0.960 . S
C1608 C1607 1.524 . S
C1609 C1606 1.403 . S
C1609 C1610 1.392 . S
C1609 C1613 1.495 . S
C1610 C1609 1.392 . S
C1610 C1611 1.385 . S
C1610 C1612 1.478 . S
C1611 H1605 0.930 . S
C1611 C1607 1.400 . S
C1611 C1610 1.385 . S
C1612 C1610 1.478 . S
C1612 C1614 1.381 . S
C1612 C1618 1.383 . S
C1613 C1609 1.495 . S
C1613 H1619 0.959 . S
C1613 H1620 0.961 . S
C1613 H1621 0.960 . S
C1614 C1612 1.381 . S
C1614 C1615 1.394 . S
C1614 H1622 0.930 . S
C1615 C1614 1.394 . S
C1615 C1616 1.383 . S
C1615 H1623 0.929 . S
C1616 C1615 1.383 . S
C1616 C1617 1.377 . S
C1617 H1601 0.930 . S
C1617 C1616 1.377 . S
C1617 C1618 1.379 . S
C1618 H1602 0.931 . S
C1618 C1612 1.383 . S
C1618 C1617 1.379 . S
H1619 C1613 0.959 . S
H1620 C1613 0.961 . S
H1621 C1613 0.960 . S
H1622 C1614 0.930 . S
H1623 C1615 0.929 . S
H1624 C1632 0.929 . S
H1625 C1634 0.930 . S
H1626 C1636 0.930 . S
H1627 C1639 0.929 . S
H1628 C1642 0.930 . S
H1629 C1644 0.960 . S
H1630 C1644 0.960 . S
H1631 C1644 0.960 . S
C1632 H1624 0.929 . S
C1632 C1633 1.377 . S
C1632 C1634 1.384 . S
C1633 C1632 1.377 . S
C1633 C1639 1.390 . S
C1634 H1625 0.930 . S
C1634 C1632 1.384 . S
C1634 C1635 1.372 . S
C1635 C1634 1.372 . S
C1635 C1636 1.400 . S
C1635 C1640 1.490 . S
C1636 H1626 0.930 . S
C1636 C1635 1.400 . S
C1636 C1639 1.386 . S
H1637 C1653 0.930 . S
H1638 C1654 0.931 . S
C1639 H1627 0.929 . S
C1639 C1633 1.390 . S
C1639 C1636 1.386 . S
C1640 C1635 1.490 . S
C1640 C1642 1.395 . S
C1640 C1643 1.403 . S
H1641 C1647 0.930 . S
C1642 H1628 0.930 . S
C1642 C1640 1.395 . S
C1642 C1645 1.403 . S
C1643 C1640 1.403 . S
C1643 C1644 1.524 . S
C1643 C1647 1.400 . S
C1644 H1629 0.960 . S
C1644 H1630 0.960 . S
C1644 H1631 0.960 . S
C1644 C1643 1.524 . S
C1645 C1642 1.403 . S
C1645 C1646 1.392 . S
C1645 C1649 1.495 . S
C1646 C1645 1.392 . S
C1646 C1647 1.385 . S
C1646 C1648 1.478 . S
C1647 H1641 0.930 . S
C1647 C1643 1.400 . S
C1647 C1646 1.385 . S
C1648 C1646 1.478 . S
C1648 C1650 1.381 . S
C1648 C1654 1.383 . S
C1649 C1645 1.495 . S
C1649 H1655 0.959 . S
C1649 H1656 0.961 . S
C1649 H1657 0.960 . S
C1650 C1648 1.381 . S
C1650 C1651 1.394 . S
C1650 H1658 0.930 . S
C1651 C1650 1.394 . S
C1651 C1652 1.383 . S
C1651 H1659 0.929 . S
C1652 C1651 1.383 . S
C1652 C1653 1.377 . S
C1653 H1637 0.930 . S
C1653 C1652 1.377 . S
C1653 C1654 1.379 . S
C1654 H1638 0.931 . S
C1654 C1648 1.383 . S
C1654 C1653 1.379 . S
H1655 C1649 0.959 . S
H1656 C1649 0.961 . S
H1657 C1649 0.960 . S
H1658 C1650 0.930 . S
H1659 C1651 0.929 . S
H1660 C1668 0.929 . S
H1661 C1670 0.930 . S
H1662 C1672 0.930 . S
H1663 C1675 0.929 . S
H1664 C1678 0.930 . S
H1665 C1680 0.960 . S
H1666 C1680 0.960 . S
H1667 C1680 0.960 . S
C1668 H1660 0.929 . S
C1668 C1669 1.377 . S
C1668 C1670 1.384 . S
C1669 C1668 1.377 . S
C1669 C1675 1.390 . S
C1670 H1661 0.930 . S
C1670 C1668 1.384 . S
C1670 C1671 1.372 . S
C1671 C1670 1.372 . S
C1671 C1672 1.400 . S
C1671 C1676 1.490 . S
C1672 H1662 0.930 . S
C1672 C1671 1.400 . S
C1672 C1675 1.386 . S
H1673 C1689 0.930 . S
H1674 C1690 0.931 . S
C1675 H1663 0.929 . S
C1675 C1669 1.390 . S
C1675 C1672 1.386 . S
C1676 C1671 1.490 . S
C1676 C1678 1.395 . S
C1676 C1679 1.403 . S
H1677 C1683 0.930 . S
C1678 H1664 0.930 . S
C1678 C1676 1.395 . S
C1678 C1681 1.403 . S
C1679 C1676 1.403 . S
C1679 C1680 1.524 . S
C1679 C1683 1.400 . S
C1680 H1665 0.960 . S
C1680 H1666 0.960 . S
C1680 H1667 0.960 . S
C1680 C1679 1.524 . S
C1681 C1678 1.403 . S
C1681 C1682 1.392 . S
C1681 C1685 1.495 . S
C1682 C1681 1.392 . S
C1682 C1683 1.385 . S
C1682 C1684 1.478 . S
C1683 H1677 0.930 . S
C1683 C1679 1.400 . S
C1683 C1682 1.385 . S
C1684 C1682 1.478 . S
C1684 C1686 1.381 . S
C1684 C1690 1.383 . S
C1685 C1681 1.495 . S
C1685 H1691 0.959 . S
C1685 H1692 0.961 . S
C1685 H1693 0.960 . S
C1686 C1684 1.381 . S
C1686 C1687 1.394 . S
C1686 H1694 0.930 . S
C1687 C1686 1.394 . S
C1687 C1688 1.383 . S
C1687 H1695 0.929 . S
C1688 C1687 1.383 . S
C1688 C1689 1.377 . S
C1689 H1673 0.930 . S
C1689 C1688 1.377 . S
C1689 C1690 1.379 . S
C1690 H1674 0.931 . S
C1690 C1684 1.383 . S
C1690 C1689 1.379 . S
H1691 C1685 0.959 . S
H1692 C1685 0.961 . S
H1693 C1685 0.960 . S
H1694 C1686 0.930 . S
H1695 C1687 0.929 . S
H1696 C1704 0.929 . S
H1697 C1706 0.930 1_655 S
H1698 C1708 0.930 1_655 S
H1699 C1711 0.929 . S
H1700 C1714 0.930 . S
H1701 C1716 0.960 . S
H1702 C1716 0.960 . S
H1703 C1716 0.960 . S
C1704 H1696 0.929 . S
C1704 C1705 1.377 . S
C1704 C1706 1.384 . S
C1705 C1704 1.377 . S
C1705 C1711 1.390 . S
C1706 H1697 0.930 1_455 S
C1706 C1704 1.384 . S
C1706 C1707 1.372 1_455 S
C1707 C1706 1.372 1_655 S
C1707 C1708 1.400 1_655 S
C1707 C1712 1.490 . S
C1708 H1698 0.930 1_455 S
C1708 C1707 1.400 1_455 S
C1708 C1711 1.386 . S
H1709 C1725 0.930 . S
H1710 C1726 0.931 . S
C1711 H1699 0.929 . S
C1711 C1705 1.390 . S
C1711 C1708 1.386 . S
C1712 C1707 1.490 . S
C1712 C1714 1.395 . S
C1712 C1715 1.403 . S
H1713 C1719 0.930 . S
C1714 H1700 0.930 . S
C1714 C1712 1.395 . S
C1714 C1717 1.403 . S
C1715 C1712 1.403 . S
C1715 C1716 1.524 . S
C1715 C1719 1.400 . S
C1716 H1701 0.960 . S
C1716 H1702 0.960 . S
C1716 H1703 0.960 . S
C1716 C1715 1.524 . S
C1717 C1714 1.403 . S
C1717 C1718 1.392 . S
C1717 C1721 1.495 . S
C1718 C1717 1.392 . S
C1718 C1719 1.385 . S
C1718 C1720 1.478 . S
C1719 H1713 0.930 . S
C1719 C1715 1.400 . S
C1719 C1718 1.385 . S
C1720 C1718 1.478 . S
C1720 C1722 1.381 . S
C1720 C1726 1.383 . S
C1721 C1717 1.495 . S
C1721 H1727 0.959 . S
C1721 H1728 0.961 . S
C1721 H1729 0.960 . S
C1722 C1720 1.381 . S
C1722 C1723 1.394 . S
C1722 H1730 0.930 . S
C1723 C1722 1.394 . S
C1723 C1724 1.383 . S
C1723 H1731 0.929 . S
C1724 C1723 1.383 . S
C1724 C1725 1.377 . S
C1725 H1709 0.930 . S
C1725 C1724 1.377 . S
C1725 C1726 1.379 . S
C1726 H1710 0.931 . S
C1726 C1720 1.383 . S
C1726 C1725 1.379 . S
H1727 C1721 0.959 . S
H1728 C1721 0.961 . S
H1729 C1721 0.960 . S
H1730 C1722 0.930 . S
H1731 C1723 0.929 . S
H1732 C1740 0.929 . S
H1733 C1742 0.930 1_545 S
H1734 C1744 0.930 1_545 S
H1735 C1747 0.929 . S
H1736 C1750 0.930 . S
H1737 C1752 0.960 . S
H1738 C1752 0.960 . S
H1739 C1752 0.960 . S
C1740 H1732 0.929 . S
C1740 C1741 1.377 . S
C1740 C1742 1.384 . S
C1741 C1740 1.377 . S
C1741 C1747 1.390 . S
C1742 H1733 0.930 1_565 S
C1742 C1740 1.384 . S
C1742 C1743 1.372 1_565 S
C1743 C1742 1.372 1_545 S
C1743 C1744 1.400 1_545 S
C1743 C1748 1.490 . S
C1744 H1734 0.930 1_565 S
C1744 C1743 1.400 1_565 S
C1744 C1747 1.386 . S
H1745 C1761 0.930 . S
H1746 C1762 0.931 . S
C1747 H1735 0.929 . S
C1747 C1741 1.390 . S
C1747 C1744 1.386 . S
C1748 C1743 1.490 . S
C1748 C1750 1.395 . S
C1748 C1751 1.403 . S
H1749 C1755 0.930 . S
C1750 H1736 0.930 . S
C1750 C1748 1.395 . S
C1750 C1753 1.403 . S
C1751 C1748 1.403 . S
C1751 C1752 1.524 . S
C1751 C1755 1.400 . S
C1752 H1737 0.960 . S
C1752 H1738 0.960 . S
C1752 H1739 0.960 . S
C1752 C1751 1.524 . S
C1753 C1750 1.403 . S
C1753 C1754 1.392 . S
C1753 C1757 1.495 . S
C1754 C1753 1.392 . S
C1754 C1755 1.385 . S
C1754 C1756 1.478 . S
C1755 H1749 0.930 . S
C1755 C1751 1.400 . S
C1755 C1754 1.385 . S
C1756 C1754 1.478 . S
C1756 C1758 1.381 . S
C1756 C1762 1.383 . S
C1757 C1753 1.495 . S
C1757 H1763 0.959 . S
C1757 H1764 0.961 . S
C1757 H1765 0.960 . S
C1758 C1756 1.381 . S
C1758 C1759 1.394 . S
C1758 H1766 0.930 . S
C1759 C1758 1.394 . S
C1759 C1760 1.383 . S
C1759 H1767 0.929 . S
C1760 C1759 1.383 . S
C1760 C1761 1.377 . S
C1761 H1745 0.930 . S
C1761 C1760 1.377 . S
C1761 C1762 1.379 . S
C1762 H1746 0.931 . S
C1762 C1756 1.383 . S
C1762 C1761 1.379 . S
H1763 C1757 0.959 . S
H1764 C1757 0.961 . S
H1765 C1757 0.960 . S
H1766 C1758 0.930 . S
H1767 C1759 0.929 . S
H1768 C1776 0.929 . S
H1769 C1778 0.930 . S
H1770 C1780 0.930 . S
H1771 C1783 0.929 . S
H1772 C1786 0.930 . S
H1773 C1788 0.960 . S
H1774 C1788 0.960 . S
H1775 C1788 0.960 . S
C1776 H1768 0.929 . S
C1776 C1777 1.377 . S
C1776 C1778 1.384 . S
C1777 C1776 1.377 . S
C1777 C1783 1.390 . S
C1778 H1769 0.930 . S
C1778 C1776 1.384 . S
C1778 C1779 1.372 . S
C1779 C1778 1.372 . S
C1779 C1780 1.400 . S
C1779 C1784 1.490 . S
C1780 H1770 0.930 . S
C1780 C1779 1.400 . S
C1780 C1783 1.386 . S
H1781 C1797 0.930 . S
H1782 C1798 0.931 1_455 S
C1783 H1771 0.929 . S
C1783 C1777 1.390 . S
C1783 C1780 1.386 . S
C1784 C1779 1.490 . S
C1784 C1786 1.395 . S
C1784 C1787 1.403 . S
H1785 C1791 0.930 . S
C1786 H1772 0.930 . S
C1786 C1784 1.395 . S
C1786 C1789 1.403 . S
C1787 C1784 1.403 . S
C1787 C1788 1.524 . S
C1787 C1791 1.400 . S
C1788 H1773 0.960 . S
C1788 H1774 0.960 . S
C1788 H1775 0.960 . S
C1788 C1787 1.524 . S
C1789 C1786 1.403 . S
C1789 C1790 1.392 . S
C1789 C1793 1.495 . S
C1790 C1789 1.392 . S
C1790 C1791 1.385 . S
C1790 C1792 1.478 . S
C1791 H1785 0.930 . S
C1791 C1787 1.400 . S
C1791 C1790 1.385 . S
C1792 C1790 1.478 . S
C1792 C1794 1.381 1_455 S
C1792 C1798 1.383 1_455 S
C1793 C1789 1.495 . S
C1793 H1799 0.959 . S
C1793 H1800 0.961 . S
C1793 H1801 0.960 . S
C1794 C1792 1.381 1_655 S
C1794 C1795 1.394 . S
C1794 H1802 0.930 1_655 S
C1795 C1794 1.394 . S
C1795 C1796 1.383 . S
C1795 H1803 0.929 . S
C1796 C1795 1.383 . S
C1796 C1797 1.377 . S
C1797 H1781 0.930 . S
C1797 C1796 1.377 . S
C1797 C1798 1.379 . S
C1798 H1782 0.931 1_655 S
C1798 C1792 1.383 1_655 S
C1798 C1797 1.379 . S
H1799 C1793 0.959 . S
H1800 C1793 0.961 . S
H1801 C1793 0.960 . S
H1802 C1794 0.930 1_455 S
H1803 C1795 0.929 . S
H1804 C1812 0.929 . S
H1805 C1814 0.930 1_565 S
H1806 C1816 0.930 1_565 S
H1807 C1819 0.929 . S
H1808 C1822 0.930 . S
H1809 C1824 0.960 . S
H1810 C1824 0.960 . S
H1811 C1824 0.960 . S
C1812 H1804 0.929 . S
C1812 C1813 1.377 . S
C1812 C1814 1.384 . S
C1813 C1812 1.377 . S
C1813 C1819 1.390 . S
C1814 H1805 0.930 1_545 S
C1814 C1812 1.384 . S
C1814 C1815 1.372 1_545 S
C1815 C1814 1.372 1_565 S
C1815 C1816 1.400 1_565 S
C1815 C1820 1.490 . S
C1816 H1806 0.930 1_545 S
C1816 C1815 1.400 1_545 S
C1816 C1819 1.386 . S
H1817 C1833 0.930 . S
H1818 C1834 0.931 . S
C1819 H1807 0.929 . S
C1819 C1813 1.390 . S
C1819 C1816 1.386 . S
C1820 C1815 1.490 . S
C1820 C1822 1.395 . S
C1820 C1823 1.403 . S
H1821 C1827 0.930 . S
C1822 H1808 0.930 . S
C1822 C1820 1.395 . S
C1822 C1825 1.403 . S
C1823 C1820 1.403 . S
C1823 C1824 1.524 . S
C1823 C1827 1.400 . S
C1824 H1809 0.960 . S
C1824 H1810 0.960 . S
C1824 H1811 0.960 . S
C1824 C1823 1.524 . S
C1825 C1822 1.403 . S
C1825 C1826 1.392 . S
C1825 C1829 1.495 . S
C1826 C1825 1.392 . S
C1826 C1827 1.385 . S
C1826 C1828 1.478 . S
C1827 H1821 0.930 . S
C1827 C1823 1.400 . S
C1827 C1826 1.385 . S
C1828 C1826 1.478 . S
C1828 C1830 1.381 . S
C1828 C1834 1.383 . S
C1829 C1825 1.495 . S
C1829 H1835 0.959 . S
C1829 H1836 0.961 . S
C1829 H1837 0.960 . S
C1830 C1828 1.381 . S
C1830 C1831 1.394 . S
C1830 H1838 0.930 . S
C1831 C1830 1.394 . S
C1831 C1832 1.383 . S
C1831 H1839 0.929 . S
C1832 C1831 1.383 . S
C1832 C1833 1.377 . S
C1833 H1817 0.930 . S
C1833 C1832 1.377 . S
C1833 C1834 1.379 . S
C1834 H1818 0.931 . S
C1834 C1828 1.383 . S
C1834 C1833 1.379 . S
H1835 C1829 0.959 . S
H1836 C1829 0.961 . S
H1837 C1829 0.960 . S
H1838 C1830 0.930 . S
H1839 C1831 0.929 . S
H1840 C1848 0.929 . S
H1841 C1850 0.930 1_455 S
H1842 C1852 0.930 1_455 S
H1843 C1855 0.929 . S
H1844 C1858 0.930 . S
H1845 C1860 0.960 . S
H1846 C1860 0.960 . S
H1847 C1860 0.960 . S
C1848 H1840 0.929 . S
C1848 C1849 1.377 . S
C1848 C1850 1.384 . S
C1849 C1848 1.377 . S
C1849 C1855 1.390 . S
C1850 H1841 0.930 1_655 S
C1850 C1848 1.384 . S
C1850 C1851 1.372 1_655 S
C1851 C1850 1.372 1_455 S
C1851 C1852 1.400 1_455 S
C1851 C1856 1.490 . S
C1852 H1842 0.930 1_655 S
C1852 C1851 1.400 1_655 S
C1852 C1855 1.386 . S
H1853 C1869 0.930 . S
H1854 C1870 0.931 . S
C1855 H1843 0.929 . S
C1855 C1849 1.390 . S
C1855 C1852 1.386 . S
C1856 C1851 1.490 . S
C1856 C1858 1.395 . S
C1856 C1859 1.403 . S
H1857 C1863 0.930 . S
C1858 H1844 0.930 . S
C1858 C1856 1.395 . S
C1858 C1861 1.403 . S
C1859 C1856 1.403 . S
C1859 C1860 1.524 . S
C1859 C1863 1.400 . S
C1860 H1845 0.960 . S
C1860 H1846 0.960 . S
C1860 H1847 0.960 . S
C1860 C1859 1.524 . S
C1861 C1858 1.403 . S
C1861 C1862 1.392 . S
C1861 C1865 1.495 . S
C1862 C1861 1.392 . S
C1862 C1863 1.385 . S
C1862 C1864 1.478 . S
C1863 H1857 0.930 . S
C1863 C1859 1.400 . S
C1863 C1862 1.385 . S
C1864 C1862 1.478 . S
C1864 C1866 1.381 . S
C1864 C1870 1.383 . S
C1865 C1861 1.495 . S
C1865 H1871 0.959 . S
C1865 H1872 0.961 . S
C1865 H1873 0.960 . S
C1866 C1864 1.381 . S
C1866 C1867 1.394 . S
C1866 H1874 0.930 . S
C1867 C1866 1.394 . S
C1867 C1868 1.383 . S
C1867 H1875 0.929 . S
C1868 C1867 1.383 . S
C1868 C1869 1.377 . S
C1869 H1853 0.930 . S
C1869 C1868 1.377 . S
C1869 C1870 1.379 . S
C1870 H1854 0.931 . S
C1870 C1864 1.383 . S
C1870 C1869 1.379 . S
H1871 C1865 0.959 . S
H1872 C1865 0.961 . S
H1873 C1865 0.960 . S
H1874 C1866 0.930 . S
H1875 C1867 0.929 . S
H1876 C1884 0.929 . S
H1877 C1886 0.930 . S
H1878 C1888 0.930 . S
H1879 C1891 0.929 . S
H1880 C1894 0.930 . S
H1881 C1896 0.960 . S
H1882 C1896 0.960 . S
H1883 C1896 0.960 . S
C1884 H1876 0.929 . S
C1884 C1885 1.377 . S
C1884 C1886 1.384 . S
C1885 C1884 1.377 . S
C1885 C1891 1.390 . S
C1886 H1877 0.930 . S
C1886 C1884 1.384 . S
C1886 C1887 1.372 . S
C1887 C1886 1.372 . S
C1887 C1888 1.400 . S
C1887 C1892 1.490 . S
C1888 H1878 0.930 . S
C1888 C1887 1.400 . S
C1888 C1891 1.386 . S
H1889 C1905 0.930 . S
H1890 C1906 0.931 1_565 S
C1891 H1879 0.929 . S
C1891 C1885 1.390 . S
C1891 C1888 1.386 . S
C1892 C1887 1.490 . S
C1892 C1894 1.395 . S
C1892 C1895 1.403 . S
H1893 C1899 0.930 . S
C1894 H1880 0.930 . S
C1894 C1892 1.395 . S
C1894 C1897 1.403 . S
C1895 C1892 1.403 . S
C1895 C1896 1.524 . S
C1895 C1899 1.400 . S
C1896 H1881 0.960 . S
C1896 H1882 0.960 . S
C1896 H1883 0.960 . S
C1896 C1895 1.524 . S
C1897 C1894 1.403 . S
C1897 C1898 1.392 . S
C1897 C1901 1.495 . S
C1898 C1897 1.392 . S
C1898 C1899 1.385 . S
C1898 C1900 1.478 . S
C1899 H1893 0.930 . S
C1899 C1895 1.400 . S
C1899 C1898 1.385 . S
C1900 C1898 1.478 . S
C1900 C1902 1.381 1_565 S
C1900 C1906 1.383 1_565 S
C1901 C1897 1.495 . S
C1901 H1907 0.959 . S
C1901 H1908 0.961 . S
C1901 H1909 0.960 . S
C1902 C1900 1.381 1_545 S
C1902 C1903 1.394 . S
C1902 H1910 0.930 1_545 S
C1903 C1902 1.394 . S
C1903 C1904 1.383 . S
C1903 H1911 0.929 . S
C1904 C1903 1.383 . S
C1904 C1905 1.377 . S
C1905 H1889 0.930 . S
C1905 C1904 1.377 . S
C1905 C1906 1.379 . S
C1906 H1890 0.931 1_545 S
C1906 C1900 1.383 1_545 S
C1906 C1905 1.379 . S
H1907 C1901 0.959 . S
H1908 C1901 0.961 . S
H1909 C1901 0.960 . S
H1910 C1902 0.930 1_565 S
H1911 C1903 0.929 . S
H1912 C1920 0.929 . S
H1913 C1922 0.930 . S
H1914 C1924 0.930 . S
H1915 C1927 0.929 . S
H1916 C1930 0.930 . S
H1917 C1932 0.960 . S
H1918 C1932 0.960 . S
H1919 C1932 0.960 . S
C1920 H1912 0.929 . S
C1920 C1921 1.377 . S
C1920 C1922 1.384 . S
C1921 C1920 1.377 . S
C1921 C1927 1.390 . S
C1922 H1913 0.930 . S
C1922 C1920 1.384 . S
C1922 C1923 1.372 . S
C1923 C1922 1.372 . S
C1923 C1924 1.400 . S
C1923 C1928 1.490 . S
C1924 H1914 0.930 . S
C1924 C1923 1.400 . S
C1924 C1927 1.386 . S
H1925 C1941 0.930 . S
H1926 C1942 0.931 1_655 S
C1927 H1915 0.929 . S
C1927 C1921 1.390 . S
C1927 C1924 1.386 . S
C1928 C1923 1.490 . S
C1928 C1930 1.395 . S
C1928 C1931 1.403 . S
H1929 C1935 0.930 . S
C1930 H1916 0.930 . S
C1930 C1928 1.395 . S
C1930 C1933 1.403 . S
C1931 C1928 1.403 . S
C1931 C1932 1.524 . S
C1931 C1935 1.400 . S
C1932 H1917 0.960 . S
C1932 H1918 0.960 . S
C1932 H1919 0.960 . S
C1932 C1931 1.524 . S
C1933 C1930 1.403 . S
C1933 C1934 1.392 . S
C1933 C1937 1.495 . S
C1934 C1933 1.392 . S
C1934 C1935 1.385 . S
C1934 C1936 1.478 . S
C1935 H1929 0.930 . S
C1935 C1931 1.400 . S
C1935 C1934 1.385 . S
C1936 C1934 1.478 . S
C1936 C1938 1.381 1_655 S
C1936 C1942 1.383 1_655 S
C1937 C1933 1.495 . S
C1937 H1943 0.959 . S
C1937 H1944 0.961 . S
C1937 H1945 0.960 . S
C1938 C1936 1.381 1_455 S
C1938 C1939 1.394 . S
C1938 H1946 0.930 1_455 S
C1939 C1938 1.394 . S
C1939 C1940 1.383 . S
C1939 H1947 0.929 . S
C1940 C1939 1.383 . S
C1940 C1941 1.377 . S
C1941 H1925 0.930 . S
C1941 C1940 1.377 . S
C1941 C1942 1.379 . S
C1942 H1926 0.931 1_455 S
C1942 C1936 1.383 1_455 S
C1942 C1941 1.379 . S
H1943 C1937 0.959 . S
H1944 C1937 0.961 . S
H1945 C1937 0.960 . S
H1946 C1938 0.930 1_655 S
H1947 C1939 0.929 . S
H1948 C1956 0.929 . S
H1949 C1958 0.930 1_545 S
H1950 C1960 0.930 1_545 S
H1951 C1963 0.929 . S
H1952 C1966 0.930 . S
H1953 C1968 0.960 . S
H1954 C1968 0.960 . S
H1955 C1968 0.960 . S
C1956 H1948 0.929 . S
C1956 C1957 1.377 . S
C1956 C1958 1.384 . S
C1957 C1956 1.377 . S
C1957 C1963 1.390 . S
C1958 H1949 0.930 1_565 S
C1958 C1956 1.384 . S
C1958 C1959 1.372 1_565 S
C1959 C1958 1.372 1_545 S
C1959 C1960 1.400 1_545 S
C1959 C1964 1.490 . S
C1960 H1950 0.930 1_565 S
C1960 C1959 1.400 1_565 S
C1960 C1963 1.386 . S
H1961 C1977 0.930 . S
H1962 C1978 0.931 . S
C1963 H1951 0.929 . S
C1963 C1957 1.390 . S
C1963 C1960 1.386 . S
C1964 C1959 1.490 . S
C1964 C1966 1.395 . S
C1964 C1967 1.403 . S
H1965 C1971 0.930 . S
C1966 H1952 0.930 . S
C1966 C1964 1.395 . S
C1966 C1969 1.403 . S
C1967 C1964 1.403 . S
C1967 C1968 1.524 . S
C1967 C1971 1.400 . S
C1968 H1953 0.960 . S
C1968 H1954 0.960 . S
C1968 H1955 0.960 . S
C1968 C1967 1.524 . S
C1969 C1966 1.403 . S
C1969 C1970 1.392 . S
C1969 C1973 1.495 . S
C1970 C1969 1.392 . S
C1970 C1971 1.385 . S
C1970 C1972 1.478 . S
C1971 H1965 0.930 . S
C1971 C1967 1.400 . S
C1971 C1970 1.385 . S
C1972 C1970 1.478 . S
C1972 C1974 1.381 . S
C1972 C1978 1.383 . S
C1973 C1969 1.495 . S
C1973 H1979 0.959 . S
C1973 H1980 0.961 . S
C1973 H1981 0.960 . S
C1974 C1972 1.381 . S
C1974 C1975 1.394 . S
C1974 H1982 0.930 . S
C1975 C1974 1.394 . S
C1975 C1976 1.383 . S
C1975 H1983 0.929 . S
C1976 C1975 1.383 . S
C1976 C1977 1.377 . S
C1977 H1961 0.930 . S
C1977 C1976 1.377 . S
C1977 C1978 1.379 . S
C1978 H1962 0.931 . S
C1978 C1972 1.383 . S
C1978 C1977 1.379 . S
H1979 C1973 0.959 . S
H1980 C1973 0.961 . S
H1981 C1973 0.960 . S
H1982 C1974 0.930 . S
H1983 C1975 0.929 . S
C553 C5 1.677 . S
C572 C175 1.675 . S
C589 C209 1.677 . S
C608 C39 1.662 . S
C625 C243 1.675 . S
C644 C73 1.681 . S
C661 C141 1.676 . S
C680 C107 1.663 . S
C697 C277 1.675 . S
C716 C447 1.661 . S
C733 C311 1.676 . S
C752 C481 1.661 . S
C769 C515 1.676 . S
C788 C345 1.668 . S
C805 C379 1.672 . S
C824 C413 1.681 . S
C841 C33 1.060 . S
C860 C101 1.032 . S
C877 C135 1.065 . S
C896 C67 1.088 . S
C913 C169 1.068 . S
C932 C237 1.070 . S
C949 C203 1.065 . S
C968 C271 1.089 . S
C985 C373 1.062 . S
C1004 C305 1.037 . S
C1021 C407 1.060 . S
C1040 C339 1.082 . S
C1057 C509 1.057 . S
C1076 C441 1.036 . S
C1093 C543 1.056 . S
C1112 C475 1.051 . S
C1129 C519 1.572 . S
C1148 C9 1.542 . S
C1165 C417 1.561 . S
C1184 C43 1.559 . S
C1201 C451 1.561 . S
C1220 C77 1.591 . S
C1237 C111 1.569 . S
C1256 C485 1.542 . S
C1273 C145 1.571 . S
C1292 C315 1.554 . S
C1309 C179 1.569 . S
C1328 C349 1.557 . S
C1345 C213 1.572 . S
C1364 C383 1.566 . S
C1381 C247 1.565 . S
C1400 C281 1.578 . S
C1417 C478 0.796 . S
C1436 C20 0.801 . S
C1453 C54 0.801 . S
C1472 C512 0.821 . S
C1489 C410 0.791 . S
C1508 C88 0.801 . S
C1525 C444 0.797 . S
C1544 C122 0.801 . S
C1561 C342 0.805 . S
C1580 C156 0.801 . S
C1597 C190 0.801 . S
C1616 C376 0.825 . S
C1633 C274 0.792 . S
C1652 C224 0.801 . S
C1669 C258 0.801 . S
C1688 C308 0.782 . S
C1705 C206 0.800 . S
C1724 C292 0.801 . S
C1741 C240 0.796 . S
C1760 C326 0.801 . S
C1777 C360 0.801 . S
C1796 C138 0.829 . S
C1813 C172 0.799 . S
C1832 C394 0.801 . S
C1849 C70 0.800 . S
C1868 C428 0.801 . S
C1885 C462 0.801 . S
C1904 C104 0.777 . S
C1921 C496 0.801 . S
C1940 C2 0.796 . S
C1957 C36 0.803 . S
C1976 C530 0.801 . S
