# Generated by pormake.
# Topology uou, (4)-cn, num edge types: 1
# Building blocks:
#     Node 0, Type 0, BuildingBlock: CEKHIL_clean_sbu_0, # of connection points: 4
#     Node 1, Type 0, BuildingBlock: CEKHIL_clean_sbu_0, # of connection points: 4
#     Node 2, Type 0, BuildingBlock: CEKHIL_clean_sbu_0, # of connection points: 4
#     Node 3, Type 0, BuildingBlock: CEKHIL_clean_sbu_0, # of connection points: 4
#     Node 4, Type 0, BuildingBlock: CEKHIL_clean_sbu_0, # of connection points: 4
#     Node 5, Type 0, BuildingBlock: CEKHIL_clean_sbu_0, # of connection points: 4
#     Node 6, Type 0, BuildingBlock: CEKHIL_clean_sbu_0, # of connection points: 4
#     Node 7, Type 0, BuildingBlock: CEKHIL_clean_sbu_0, # of connection points: 4
#     Node 8, Type 0, BuildingBlock: CEKHIL_clean_sbu_0, # of connection points: 4
#     Node 9, Type 0, BuildingBlock: CEKHIL_clean_sbu_0, # of connection points: 4
#     Node 10, Type 0, BuildingBlock: CEKHIL_clean_sbu_0, # of connection points: 4
#     Node 11, Type 0, BuildingBlock: CEKHIL_clean_sbu_0, # of connection points: 4
#     Node 12, Type 0, BuildingBlock: CEKHIL_clean_sbu_0, # of connection points: 4
#     Node 13, Type 0, BuildingBlock: CEKHIL_clean_sbu_0, # of connection points: 4
#     Node 14, Type 0, BuildingBlock: CEKHIL_clean_sbu_0, # of connection points: 4
#     Node 15, Type 0, BuildingBlock: CEKHIL_clean_sbu_0, # of connection points: 4
#     Edge 16, Type (0, 0), BuildingBlock: MIFKUJ_clean_linker_0, # of connection points: 2
#     Edge 17, Type (0, 0), BuildingBlock: MIFKUJ_clean_linker_0, # of connection points: 2
#     Edge 18, Type (0, 0), BuildingBlock: MIFKUJ_clean_linker_0, # of connection points: 2
#     Edge 19, Type (0, 0), BuildingBlock: MIFKUJ_clean_linker_0, # of connection points: 2
#     Edge 20, Type (0, 0), BuildingBlock: MIFKUJ_clean_linker_0, # of connection points: 2
#     Edge 21, Type (0, 0), BuildingBlock: MIFKUJ_clean_linker_0, # of connection points: 2
#     Edge 22, Type (0, 0), BuildingBlock: MIFKUJ_clean_linker_0, # of connection points: 2
#     Edge 23, Type (0, 0), BuildingBlock: MIFKUJ_clean_linker_0, # of connection points: 2
#     Edge 24, Type (0, 0), BuildingBlock: MIFKUJ_clean_linker_0, # of connection points: 2
#     Edge 25, Type (0, 0), BuildingBlock: MIFKUJ_clean_linker_0, # of connection points: 2
#     Edge 26, Type (0, 0), BuildingBlock: MIFKUJ_clean_linker_0, # of connection points: 2
#     Edge 27, Type (0, 0), BuildingBlock: MIFKUJ_clean_linker_0, # of connection points: 2
#     Edge 28, Type (0, 0), BuildingBlock: MIFKUJ_clean_linker_0, # of connection points: 2
#     Edge 29, Type (0, 0), BuildingBlock: MIFKUJ_clean_linker_0, # of connection points: 2
#     Edge 30, Type (0, 0), BuildingBlock: MIFKUJ_clean_linker_0, # of connection points: 2
#     Edge 31, Type (0, 0), BuildingBlock: MIFKUJ_clean_linker_0, # of connection points: 2
#     Edge 32, Type (0, 0), BuildingBlock: MIFKUJ_clean_linker_0, # of connection points: 2
#     Edge 33, Type (0, 0), BuildingBlock: MIFKUJ_clean_linker_0, # of connection points: 2
#     Edge 34, Type (0, 0), BuildingBlock: MIFKUJ_clean_linker_0, # of connection points: 2
#     Edge 35, Type (0, 0), BuildingBlock: MIFKUJ_clean_linker_0, # of connection points: 2
#     Edge 36, Type (0, 0), BuildingBlock: MIFKUJ_clean_linker_0, # of connection points: 2
#     Edge 37, Type (0, 0), BuildingBlock: MIFKUJ_clean_linker_0, # of connection points: 2
#     Edge 38, Type (0, 0), BuildingBlock: MIFKUJ_clean_linker_0, # of connection points: 2
#     Edge 39, Type (0, 0), BuildingBlock: MIFKUJ_clean_linker_0, # of connection points: 2
#     Edge 40, Type (0, 0), BuildingBlock: MIFKUJ_clean_linker_0, # of connection points: 2
#     Edge 41, Type (0, 0), BuildingBlock: MIFKUJ_clean_linker_0, # of connection points: 2
#     Edge 42, Type (0, 0), BuildingBlock: MIFKUJ_clean_linker_0, # of connection points: 2
#     Edge 43, Type (0, 0), BuildingBlock: MIFKUJ_clean_linker_0, # of connection points: 2
#     Edge 44, Type (0, 0), BuildingBlock: MIFKUJ_clean_linker_0, # of connection points: 2
#     Edge 45, Type (0, 0), BuildingBlock: MIFKUJ_clean_linker_0, # of connection points: 2
#     Edge 46, Type (0, 0), BuildingBlock: MIFKUJ_clean_linker_0, # of connection points: 2
#     Edge 47, Type (0, 0), BuildingBlock: MIFKUJ_clean_linker_0, # of connection points: 2
# Relax obj value: 0.038
# Max RMSD: 0.067
# Mean RMSD: 0.067
data_MOF--net-uou--node1-CEKHIL_clean_sbu_0--edge1-MIFKUJ_clean_linker_0
_symmetry_space_group_name_H-M    P1
_symmetry_Int_Tables_number       1
_symmetry_cell_setting            triclinic
loop_
_symmetry_equiv_pos_as_xyz
'x, y, z'
_cell_length_a     48.925681
_cell_length_b     51.942222
_cell_length_c     69.292314
_cell_angle_alpha  89.999978
_cell_angle_beta   89.979782
_cell_angle_gamma 90.002867
loop_
_atom_site_label
_atom_site_type_symbol
_atom_site_fract_x
_atom_site_fract_y
_atom_site_fract_z
_atom_type_partial_charge
Co0 Co 0.07393 0.07031 0.12234 0.0
O1 O 0.09704 0.04023 0.12249 0.0
O2 O 0.10832 0.07747 0.1093 0.0
C3 C 0.06202 0.06844 0.15378 0.0
O4 O 0.05571 0.10585 0.12025 0.0
Co5 Co 0.01181 0.06562 0.1317 0.0
O6 O 0.01493 0.10337 0.1352 0.0
C7 C 0.03226 0.04999 0.09326 0.0
C8 C 0.11518 0.05389 0.11347 0.0
C9 C 0.03415 0.11642 0.12754 0.0
O10 O 0.05633 0.05849 0.0974 0.0
O11 O 0.01251 0.04964 0.1054 0.0
O12 O 0.08513 0.07876 0.14872 0.0
O13 O 0.04844 0.0576 0.14006 0.0
Co14 Co 0.42888 0.93447 0.12273 0.0
O15 O 0.40479 0.9638 0.12234 0.0
O16 O 0.39451 0.92565 0.11019 0.0
C17 C 0.44135 0.93789 0.15395 0.0
O18 O 0.44852 0.89957 0.12132 0.0
Co19 Co 0.49098 0.94247 0.1313 0.0
O20 O 0.49074 0.90445 0.13377 0.0
C21 C 0.46816 0.95786 0.09366 0.0
C22 C 0.38705 0.94925 0.11374 0.0
C23 C 0.47151 0.89027 0.12733 0.0
O24 O 0.44565 0.94597 0.09744 0.0
O25 O 0.48742 0.96071 0.10597 0.0
O26 O 0.41847 0.9267 0.14944 0.0
O27 O 0.45409 0.9487 0.13984 0.0
Co28 Co 0.57348 0.93273 0.37432 0.0
O29 O 0.59669 0.96264 0.37248 0.0
O30 O 0.60832 0.92642 0.38702 0.0
C31 C 0.56007 0.93243 0.34316 0.0
O32 O 0.55537 0.89746 0.37808 0.0
Co33 Co 0.51087 0.93781 0.36651 0.0
O34 O 0.51103 0.89987 0.36922 0.0
C35 C 0.53402 0.95761 0.40281 0.0
C36 C 0.61507 0.94965 0.3818 0.0
C37 C 0.53175 0.88715 0.37499 0.0
O38 O 0.55699 0.94641 0.39914 0.0
O39 O 0.51427 0.9585 0.39072 0.0
O40 O 0.58345 0.92247 0.34801 0.0
O41 O 0.54722 0.94425 0.35677 0.0
Co42 Co 0.92826 0.07268 0.37412 0.0
O43 O 0.90294 0.04465 0.37084 0.0
O44 O 0.89358 0.08049 0.38674 0.0
C45 C 0.94238 0.07358 0.34314 0.0
O46 O 0.94895 0.10634 0.37923 0.0
Co47 Co 0.99034 0.06367 0.36683 0.0
O48 O 0.99248 0.10166 0.36917 0.0
C49 C 0.965 0.04397 0.4024 0.0
C50 C 0.88533 0.05819 0.38043 0.0
C51 C 0.97299 0.11546 0.37568 0.0
O52 O 0.94295 0.05666 0.3987 0.0
O53 O 0.985 0.04228 0.39056 0.0
O54 O 0.91994 0.08524 0.34808 0.0
O55 O 0.9539 0.06015 0.35649 0.0
Co56 Co 0.93196 0.93291 0.87341 0.0
O57 O 0.90793 0.96229 0.87201 0.0
O58 O 0.89731 0.92547 0.8861 0.0
C59 C 0.94474 0.93364 0.84216 0.0
O60 O 0.95113 0.89803 0.87689 0.0
Co61 Co 0.99405 0.93929 0.86516 0.0
O62 O 0.99476 0.90125 0.86675 0.0
C63 C 0.97158 0.95655 0.9025 0.0
C64 C 0.88997 0.94869 0.88124 0.0
C65 C 0.97472 0.88805 0.8731 0.0
O66 O 0.94818 0.94657 0.89831 0.0
O67 O 0.99157 0.95736 0.89059 0.0
O68 O 0.92205 0.92253 0.84717 0.0
O69 O 0.95756 0.94571 0.85567 0.0
Co70 Co 0.5768 0.07147 0.8748 0.0
O71 O 0.60058 0.04192 0.87378 0.0
O72 O 0.61151 0.079 0.88738 0.0
C73 C 0.56377 0.07049 0.84359 0.0
O74 O 0.5574 0.10636 0.8778 0.0
Co75 Co 0.51446 0.06383 0.86679 0.0
O76 O 0.51397 0.10194 0.86741 0.0
C77 C 0.53822 0.04587 0.90336 0.0
C78 C 0.61865 0.05562 0.8828 0.0
C79 C 0.53366 0.11577 0.87357 0.0
O80 O 0.56044 0.05834 0.89979 0.0
O81 O 0.51878 0.0435 0.89113 0.0
O82 O 0.58691 0.08098 0.84837 0.0
O83 O 0.55111 0.05875 0.85732 0.0
Co84 Co 0.43189 0.0711 0.62331 0.0
O85 O 0.40846 0.04146 0.62536 0.0
O86 O 0.39687 0.07759 0.6107 0.0
C87 C 0.44534 0.07123 0.65447 0.0
O88 O 0.45084 0.10613 0.61949 0.0
Co89 Co 0.49438 0.06439 0.63109 0.0
O90 O 0.4939 0.10249 0.63076 0.0
C91 C 0.47092 0.04617 0.59442 0.0
C92 C 0.39001 0.05446 0.61617 0.0
C93 C 0.47424 0.11596 0.62411 0.0
O94 O 0.44802 0.05727 0.59842 0.0
O95 O 0.49085 0.04489 0.60635 0.0
O96 O 0.4221 0.08149 0.64965 0.0
O97 O 0.45791 0.05922 0.64084 0.0
Co98 Co 0.07604 0.93298 0.62145 0.0
O99 O 0.09995 0.96239 0.62253 0.0
O100 O 0.11066 0.92555 0.60858 0.0
C101 C 0.06348 0.93396 0.65281 0.0
O102 O 0.05652 0.89818 0.61842 0.0
Co103 Co 0.01398 0.94075 0.62991 0.0
O104 O 0.01293 0.90266 0.62854 0.0
C105 C 0.03695 0.95822 0.59291 0.0
C106 C 0.11793 0.94885 0.61329 0.0
C107 C 0.03266 0.88885 0.62239 0.0
O108 O 0.05948 0.94628 0.59656 0.0
O109 O 0.01756 0.96047 0.6052 0.0
O110 O 0.08628 0.92304 0.64776 0.0
O111 O 0.05073 0.9459 0.63922 0.0
Co112 Co 0.57447 0.57316 0.12152 0.0
O113 O 0.59784 0.54317 0.12204 0.0
O114 O 0.60946 0.58078 0.10957 0.0
C115 C 0.56068 0.57099 0.15258 0.0
O116 O 0.55637 0.60873 0.11915 0.0
Co117 Co 0.51169 0.56786 0.12882 0.0
O118 O 0.51214 0.60587 0.12814 0.0
C119 C 0.53472 0.55284 0.09111 0.0
C120 C 0.61633 0.55721 0.11368 0.0
C121 C 0.53281 0.61892 0.1227 0.0
O122 O 0.55844 0.56155 0.09595 0.0
O123 O 0.5143 0.55201 0.10263 0.0
O124 O 0.58417 0.58115 0.14827 0.0
O125 O 0.54785 0.5603 0.13843 0.0
Co126 Co 0.9295 0.43335 0.12093 0.0
O127 O 0.90747 0.46419 0.12224 0.0
O128 O 0.89431 0.42775 0.10867 0.0
C129 C 0.94324 0.43347 0.15206 0.0
O130 O 0.94583 0.39723 0.11764 0.0
Co131 Co 0.99238 0.43548 0.1283 0.0
O132 O 0.99025 0.39752 0.12644 0.0
C133 C 0.96986 0.45558 0.09183 0.0
C134 C 0.88843 0.45133 0.11345 0.0
C135 C 0.9688 0.3858 0.12087 0.0
O136 O 0.94632 0.44563 0.09576 0.0
O137 O 0.98978 0.45566 0.10379 0.0
O138 O 0.91932 0.42449 0.14747 0.0
O139 O 0.95662 0.44421 0.13819 0.0
Co140 Co 0.07261 0.43259 0.37374 0.0
O141 O 0.09631 0.46222 0.37224 0.0
O142 O 0.10752 0.42533 0.386 0.0
C143 C 0.05888 0.43317 0.34261 0.0
O144 O 0.05387 0.39752 0.3772 0.0
Co145 Co 0.01008 0.43887 0.36649 0.0
O146 O 0.01044 0.40073 0.3667 0.0
C147 C 0.0341 0.45741 0.40288 0.0
C148 C 0.11462 0.4486 0.38113 0.0
C149 C 0.03049 0.38743 0.37293 0.0
O150 O 0.05673 0.44581 0.3989 0.0
O151 O 0.01416 0.45898 0.39099 0.0
O152 O 0.08219 0.42292 0.34725 0.0
O153 O 0.04631 0.44487 0.35642 0.0
Co154 Co 0.428 0.57064 0.37288 0.0
O155 O 0.40543 0.54018 0.37355 0.0
O156 O 0.39288 0.57826 0.38471 0.0
C157 C 0.44145 0.56658 0.34187 0.0
O158 O 0.44545 0.60666 0.37392 0.0
Co159 Co 0.49068 0.56666 0.36514 0.0
O160 O 0.48728 0.60409 0.36052 0.0
C161 C 0.4688 0.55402 0.40377 0.0
C162 C 0.38665 0.55428 0.38148 0.0
C163 C 0.46738 0.61722 0.36715 0.0
O164 O 0.44455 0.56096 0.39866 0.0
O165 O 0.4893 0.55366 0.39229 0.0
O166 O 0.41789 0.57675 0.34594 0.0
O167 O 0.45466 0.55715 0.35634 0.0
Co168 Co 0.42981 0.43235 0.87332 0.0
O169 O 0.40677 0.46251 0.87264 0.0
O170 O 0.39521 0.42563 0.88627 0.0
C171 C 0.44206 0.43312 0.84184 0.0
O172 O 0.44809 0.39686 0.87623 0.0
Co173 Co 0.49217 0.43762 0.86429 0.0
O174 O 0.4914 0.39962 0.86529 0.0
C175 C 0.47115 0.45343 0.90242 0.0
C176 C 0.38854 0.44916 0.88182 0.0
C177 C 0.47143 0.38663 0.87199 0.0
O178 O 0.44712 0.4449 0.8982 0.0
O179 O 0.49106 0.4538 0.89044 0.0
O180 O 0.41881 0.4232 0.84699 0.0
O181 O 0.45553 0.4444 0.85542 0.0
Co182 Co 0.07547 0.571 0.87238 0.0
O183 O 0.09901 0.54127 0.87358 0.0
O184 O 0.10988 0.57955 0.88506 0.0
C185 C 0.06409 0.56578 0.84106 0.0
O186 O 0.05667 0.60654 0.87277 0.0
Co187 Co 0.01365 0.56471 0.86295 0.0
O188 O 0.01494 0.60252 0.85946 0.0
C189 C 0.03439 0.55052 0.90162 0.0
C190 C 0.11706 0.55577 0.88188 0.0
C191 C 0.03427 0.61638 0.8661 0.0
O192 O 0.05786 0.56068 0.89774 0.0
O193 O 0.01522 0.5485 0.88914 0.0
O194 O 0.08671 0.57735 0.84567 0.0
O195 O 0.05044 0.55624 0.85526 0.0
Co196 Co 0.92876 0.57212 0.6224 0.0
O197 O 0.90539 0.54235 0.62347 0.0
O198 O 0.894 0.57907 0.6096 0.0
C199 C 0.94122 0.57106 0.65364 0.0
O200 O 0.94768 0.60727 0.61942 0.0
Co201 Co 0.99095 0.56536 0.63074 0.0
O202 O 0.99077 0.60349 0.63056 0.0
C203 C 0.96815 0.5475 0.59377 0.0
C204 C 0.88714 0.55566 0.61433 0.0
C205 C 0.97105 0.61708 0.62413 0.0
O206 O 0.94546 0.55912 0.59748 0.0
O207 O 0.98768 0.54566 0.60599 0.0
O208 O 0.91824 0.58169 0.64874 0.0
O209 O 0.95433 0.55948 0.64007 0.0
Co210 Co 0.57369 0.4338 0.62114 0.0
O211 O 0.59731 0.46357 0.62145 0.0
O212 O 0.60878 0.42569 0.6094 0.0
C213 C 0.55971 0.43684 0.65212 0.0
O214 O 0.55499 0.39842 0.61898 0.0
Co215 Co 0.51102 0.43997 0.62829 0.0
O216 O 0.5114 0.40195 0.62915 0.0
C217 C 0.53438 0.45355 0.59032 0.0
C218 C 0.6157 0.44935 0.61321 0.0
C219 C 0.53155 0.38848 0.62332 0.0
O220 O 0.55809 0.44517 0.59544 0.0
O221 O 0.51374 0.4545 0.60164 0.0
O222 O 0.58294 0.42603 0.648 0.0
O223 O 0.54723 0.44745 0.6378 0.0
H224 H 0.37266 0.99893 0.10695 0.0
H225 H 0.3268 0.01659 0.10285 0.0
H226 H 0.29275 0.94018 0.10742 0.0
H227 H 0.339 0.92228 0.11048 0.0
H228 H 0.26382 0.96568 0.08288 0.0
H229 H 0.2952 0.98471 0.14673 0.0
H230 H 0.32671 1.00155 0.17147 0.0
H231 H 0.31857 0.07768 0.148 0.0
H232 H 0.28727 0.06123 0.12296 0.0
H233 H 0.13148 0.00381 0.11604 0.0
H234 H 0.17752 0.98639 0.11216 0.0
H235 H 0.20764 0.06211 0.09808 0.0
H236 H 0.16138 0.07975 0.10191 0.0
H237 H 0.23833 0.03778 0.12626 0.0
H238 H 0.20306 0.01689 0.06345 0.0
H239 H 0.16992 0.99825 0.04058 0.0
H240 H 0.18334 0.92318 0.06472 0.0
H241 H 0.21629 0.94142 0.08793 0.0
C242 C 0.35541 0.98585 0.10685 0.0
C243 C 0.3594 0.95924 0.1092 0.0
C244 C 0.32913 0.99599 0.10465 0.0
C245 C 0.30606 0.97988 0.10542 0.0
C246 C 0.3101 0.95311 0.10691 0.0
C247 C 0.33655 0.94286 0.10866 0.0
C248 C 0.27788 0.99109 0.10537 0.0
C249 C 0.25823 0.98125 0.09253 0.0
C250 C 0.27041 0.01171 0.11775 0.0
C251 C 0.28911 0.02169 0.13285 0.0
C252 C 0.30027 0.00501 0.14677 0.0
C253 C 0.31807 0.01449 0.16086 0.0
C254 C 0.3247 0.04065 0.16128 0.0
C255 C 0.31346 0.05741 0.14764 0.0
C256 C 0.29567 0.04803 0.13351 0.0
C257 C 0.14781 0.01676 0.11189 0.0
C258 C 0.14273 0.0432 0.10929 0.0
C259 C 0.17414 0.00672 0.1096 0.0
C260 C 0.19608 0.02288 0.10471 0.0
C261 C 0.19103 0.04925 0.10181 0.0
C262 C 0.16456 0.05929 0.10392 0.0
C263 C 0.22443 0.01243 0.10377 0.0
C264 C 0.24405 0.02235 0.11652 0.0
C265 C 0.23165 0.99161 0.09159 0.0
C266 C 0.21199 0.98057 0.07754 0.0
C267 C 0.1988 0.99644 0.06398 0.0
C268 C 0.18007 0.98594 0.05094 0.0
C269 C 0.17448 0.95956 0.05123 0.0
C270 C 0.18767 0.94361 0.06453 0.0
C271 C 0.2064 0.95402 0.07761 0.0
H272 H 0.15997 0.95147 0.04112 0.0
H273 H 0.33849 0.04795 0.17219 0.0
H274 H 0.65823 0.92817 0.40158 0.0
H275 H 0.70401 0.94649 0.40627 0.0
H276 H 0.68005 0.01407 0.37426 0.0
H277 H 0.63441 0.99628 0.37002 0.0
H278 H 0.74267 0.95778 0.3827 0.0
H279 H 0.71301 0.06686 0.38859 0.0
H280 H 0.67592 0.09295 0.40272 0.0
H281 H 0.65724 0.03193 0.44241 0.0
H282 H 0.69443 0.0057 0.42877 0.0
H283 H 0.85606 0.02954 0.35531 0.0
H284 H 0.81033 0.01183 0.35934 0.0
H285 H 0.80542 0.04579 0.41611 0.0
H286 H 0.85081 0.06522 0.41139 0.0
H287 H 0.75844 0.04856 0.402 0.0
H288 H 0.81917 0.97792 0.4072 0.0
H289 H 0.85725 0.94922 0.39823 0.0
H290 H 0.81575 0.92875 0.34584 0.0
H291 H 0.77757 0.95759 0.35437 0.0
C292 C 0.66268 0.94705 0.39573 0.0
C293 C 0.64259 0.96077 0.38549 0.0
C294 C 0.6889 0.95749 0.39836 0.0
C295 C 0.69555 0.98187 0.39084 0.0
C296 C 0.67542 0.99552 0.38062 0.0
C297 C 0.64927 0.98521 0.3781 0.0
C298 C 0.72375 0.99269 0.39277 0.0
C299 C 0.7461 0.97758 0.38702 0.0
C300 C 0.72856 0.01828 0.39906 0.0
C301 C 0.70639 0.03422 0.40752 0.0
C302 C 0.70109 0.05908 0.40041 0.0
C303 C 0.68001 0.07389 0.40833 0.0
C304 C 0.66416 0.0641 0.42342 0.0
C305 C 0.66943 0.0395 0.43068 0.0
C306 C 0.6905 0.02464 0.42284 0.0
C307 C 0.84518 0.03332 0.36863 0.0
C308 C 0.85707 0.04857 0.38311 0.0
C309 C 0.81906 0.02296 0.37103 0.0
C310 C 0.80452 0.0266 0.38832 0.0
C311 C 0.81615 0.04242 0.40267 0.0
C312 C 0.8421 0.05352 0.40001 0.0
C313 C 0.77728 0.01394 0.39117 0.0
C314 C 0.7551 0.02868 0.39784 0.0
C315 C 0.77278 0.98765 0.3865 0.0
C316 C 0.79557 0.97005 0.38139 0.0
C317 C 0.81822 0.96739 0.39373 0.0
C318 C 0.83983 0.95109 0.38872 0.0
C319 C 0.83894 0.9372 0.37146 0.0
C320 C 0.81641 0.93952 0.3592 0.0
C321 C 0.79476 0.95581 0.36413 0.0
H322 H 0.8557 0.9246 0.3676 0.0
H323 H 0.64783 0.07557 0.42951 0.0
H324 H 0.87395 0.99888 0.87996 0.0
H325 H 0.82788 0.01634 0.88386 0.0
H326 H 0.79691 0.94 0.89471 0.0
H327 H 0.84324 0.92234 0.89105 0.0
H328 H 0.76752 0.96787 0.86623 0.0
H329 H 0.80018 0.9806 0.93098 0.0
H330 H 0.83257 0.99597 0.95568 0.0
H331 H 0.8212 0.07379 0.93638 0.0
H332 H 0.78903 0.05884 0.91137 0.0
H333 H 0.63281 0.00523 0.886 0.0
H334 H 0.67847 0.98691 0.88929 0.0
H335 H 0.71296 0.06335 0.89066 0.0
H336 H 0.66686 0.08181 0.88831 0.0
H337 H 0.74091 0.03465 0.91386 0.0
H338 H 0.71208 0.0242 0.8485 0.0
H339 H 0.68165 0.01108 0.82189 0.0
H340 H 0.68819 0.9321 0.83961 0.0
H341 H 0.71838 0.9448 0.8665 0.0
C342 C 0.85741 0.98579 0.88339 0.0
C343 C 0.86227 0.95919 0.88519 0.0
C344 C 0.83107 0.99584 0.88567 0.0
C345 C 0.80892 0.97953 0.88966 0.0
C346 C 0.81371 0.95297 0.89169 0.0
C347 C 0.8402 0.94291 0.88967 0.0
C348 C 0.78065 0.99015 0.89069 0.0
C349 C 0.76152 0.98211 0.87688 0.0
C350 C 0.77316 0.00951 0.90407 0.0
C351 C 0.79236 0.01856 0.91919 0.0
C352 C 0.80475 1.00096 0.9319 0.0
C353 C 0.82304 0.00961 0.94598 0.0
C354 C 0.82899 0.03583 0.94757 0.0
C355 C 0.81659 0.05348 0.93512 0.0
C356 C 0.7983 0.04493 0.921 0.0
C357 C 0.65009 0.01817 0.8872 0.0
C358 C 0.64625 0.04498 0.88673 0.0
C359 C 0.67628 0.00765 0.88895 0.0
C360 C 0.69943 0.02365 0.88966 0.0
C361 C 0.69554 0.05051 0.89 0.0
C362 C 0.66918 0.06108 0.88866 0.0
C363 C 0.72756 0.01229 0.88943 0.0
C364 C 0.74675 0.02027 0.90329 0.0
C365 C 0.73535 0.99321 0.87581 0.0
C366 C 0.71726 0.98549 0.85963 0.0
C367 C 0.70687 0.00406 0.84681 0.0
C368 C 0.68969 0.99669 0.83166 0.0
C369 C 0.68293 0.97078 0.8291 0.0
C370 C 0.69341 0.95217 0.84164 0.0
C371 C 0.71057 0.95944 0.85682 0.0
H372 H 0.66963 0.96512 0.81736 0.0
H373 H 0.84316 0.04248 0.95847 0.0
H374 H 0.16419 0.92363 0.6005 0.0
H375 H 0.21066 0.94141 0.59786 0.0
H376 H 0.1803 0.01615 0.61438 0.0
H377 H 0.1343 0.99859 0.61731 0.0
H378 H 0.23642 0.98085 0.57747 0.0
H379 H 0.22411 0.04319 0.64583 0.0
H380 H 0.19712 0.04378 0.67593 0.0
H381 H 0.18934 0.96149 0.67373 0.0
H382 H 0.21658 0.96039 0.64378 0.0
H383 H 0.34891 0.07121 0.59186 0.0
H384 H 0.30286 0.05259 0.58822 0.0
H385 H 0.32245 0.99476 0.63063 0.0
H386 H 0.36823 0.01272 0.63403 0.0
H387 H 0.27249 0.02032 0.63753 0.0
H388 H 0.32069 0.97628 0.58731 0.0
H389 H 0.34939 0.97332 0.5582 0.0
H390 H 0.28846 0.01383 0.52554 0.0
H391 H 0.25958 0.0175 0.55464 0.0
C392 C 0.16741 0.94391 0.60333 0.0
C393 C 0.14557 0.95959 0.60935 0.0
C394 C 0.19396 0.95407 0.60176 0.0
C395 C 0.1991 0.98006 0.60621 0.0
C396 C 0.177 0.99597 0.61118 0.0
C397 C 0.15064 0.98585 0.61284 0.0
C398 C 0.22759 0.9903 0.6071 0.0
C399 C 0.24426 0.98955 0.59057 0.0
C400 C 0.2381 1.00139 0.62426 0.0
C401 C 0.22216 1.00176 0.64248 0.0
C402 C 0.21674 0.02522 0.65183 0.0
C403 C 0.20138 0.02565 0.66885 0.0
C404 C 0.19145 0.0027 0.6767 0.0
C405 C 0.19696 0.97926 0.66759 0.0
C406 C 0.21234 0.97873 0.65059 0.0
C407 C 0.34339 0.05446 0.60031 0.0
C408 C 0.36226 0.04346 0.61322 0.0
C409 C 0.31713 0.0438 0.59819 0.0
C410 C 0.30922 0.02227 0.60917 0.0
C411 C 0.32806 0.01137 0.62203 0.0
C412 C 0.3543 0.02166 0.6239 0.0
C413 C 0.28114 0.01131 0.60784 0.0
C414 C 0.26456 0.01187 0.62435 0.0
C415 C 0.27097 0.99978 0.59077 0.0
C416 C 0.28813 0.99745 0.57321 0.0
C417 C 0.31352 0.9848 0.57398 0.0
C418 C 0.32981 0.98294 0.55746 0.0
C419 C 0.32081 0.99343 0.54002 0.0
C420 C 0.29544 0.00575 0.53907 0.0
C421 C 0.2791 0.00773 0.55557 0.0
H422 H 0.33345 0.99196 0.52725 0.0
H423 H 0.17953 0.00307 0.68986 0.0
H424 H 0.87387 0.50197 0.11571 0.0
H425 H 0.82823 0.52057 0.11278 0.0
H426 H 0.79485 0.44512 0.10166 0.0
H427 H 0.84081 0.42654 0.10384 0.0
H428 H 0.76915 0.47806 0.08018 0.0
H429 H 0.7911 0.47517 0.14721 0.0
H430 H 0.81845 0.48279 0.17654 0.0
H431 H 0.81222 0.56444 0.16792 0.0
H432 H 0.78513 0.5573 0.13837 0.0
H433 H 0.63234 0.50691 0.11216 0.0
H434 H 0.67886 0.48999 0.10893 0.0
H435 H 0.71017 0.56736 0.10483 0.0
H436 H 0.66353 0.58445 0.10763 0.0
H437 H 0.73652 0.53422 0.13333 0.0
H438 H 0.71118 0.53467 0.06622 0.0
H439 H 0.68159 0.52439 0.03847 0.0
H440 H 0.69162 0.44361 0.04953 0.0
H441 H 0.72095 0.45341 0.07754 0.0
C442 C 0.85686 0.48934 0.11247 0.0
C443 C 0.86097 0.46273 0.11014 0.0
C444 C 0.83067 0.5 0.11092 0.0
C445 C 0.80782 0.48424 0.10745 0.0
C446 C 0.81203 0.45775 0.10443 0.0
C447 C 0.83834 0.44711 0.10571 0.0
C448 C 0.77958 0.49531 0.1075 0.0
C449 C 0.76199 0.4901 0.09192 0.0
C450 C 0.77007 0.5113 0.12269 0.0
C451 C 0.78633 0.51569 0.14046 0.0
C452 C 0.79574 0.49475 0.15149 0.0
C453 C 0.81117 0.49898 0.16816 0.0
C454 C 0.81714 0.52408 0.17406 0.0
C455 C 0.80762 0.54501 0.16332 0.0
C456 C 0.79221 0.54088 0.14661 0.0
C457 C 0.64909 0.52033 0.11034 0.0
C458 C 0.64425 0.54703 0.11013 0.0
C459 C 0.67566 0.51062 0.10847 0.0
C460 C 0.69799 0.5274 0.10663 0.0
C461 C 0.69322 0.55407 0.10622 0.0
C462 C 0.66656 0.5638 0.10773 0.0
C463 C 0.72636 0.51707 0.10602 0.0
C464 C 0.74386 0.52231 0.12155 0.0
C465 C 0.73553 0.50073 0.09101 0.0
C466 C 0.71805 0.49479 0.0741 0.0
C467 C 0.70688 0.51471 0.06284 0.0
C468 C 0.69019 0.50898 0.04704 0.0
C469 C 0.68467 0.48336 0.04227 0.0
C470 C 0.69589 0.46344 0.05326 0.0
C471 C 0.71257 0.46907 0.06909 0.0
H472 H 0.67174 0.47896 0.03004 0.0
H473 H 0.82908 0.52732 0.18698 0.0
H474 H 0.37297 0.504 0.38703 0.0
H475 H 0.32732 0.48557 0.3905 0.0
H476 H 0.29214 0.56163 0.38709 0.0
H477 H 0.33807 0.58024 0.38466 0.0
H478 H 0.26367 0.53557 0.41113 0.0
H479 H 0.29545 0.51762 0.34715 0.0
H480 H 0.32713 0.50125 0.32233 0.0
H481 H 0.31917 0.42476 0.34516 0.0
H482 H 0.2877 0.44075 0.37029 0.0
H483 H 0.13158 0.49837 0.37748 0.0
H484 H 0.17789 0.51539 0.38086 0.0
H485 H 0.20735 0.43964 0.39548 0.0
H486 H 0.16082 0.42241 0.39221 0.0
H487 H 0.23861 0.46414 0.36701 0.0
H488 H 0.20284 0.48408 0.42986 0.0
H489 H 0.16918 0.50223 0.45251 0.0
H490 H 0.1826 0.57769 0.429 0.0
H491 H 0.21608 0.55988 0.40596 0.0
C492 C 0.35551 0.51683 0.38723 0.0
C493 C 0.3591 0.54357 0.38544 0.0
C494 C 0.32934 0.50624 0.38907 0.0
C495 C 0.30602 0.52206 0.38849 0.0
C496 C 0.30967 0.54891 0.38746 0.0
C497 C 0.33596 0.55957 0.38606 0.0
C498 C 0.27796 0.51058 0.38844 0.0
C499 C 0.2582 0.52015 0.40131 0.0
C500 C 0.27063 0.49012 0.37586 0.0
C501 C 0.28945 0.48043 0.36072 0.0
C502 C 0.3006 0.49734 0.34696 0.0
C503 C 0.3185 0.48813 0.33282 0.0
C504 C 0.32522 0.46199 0.3322 0.0
C505 C 0.31398 0.44501 0.34568 0.0
C506 C 0.2961 0.45413 0.35986 0.0
C507 C 0.14784 0.48532 0.3816 0.0
C508 C 0.14248 0.45901 0.3846 0.0
C509 C 0.17433 0.49513 0.38358 0.0
C510 C 0.19613 0.47885 0.38853 0.0
C511 C 0.19084 0.45257 0.39168 0.0
C512 C 0.16423 0.44277 0.3899 0.0
C513 C 0.22451 0.48918 0.38964 0.0
C514 C 0.24425 0.47944 0.3769 0.0
C515 C 0.23163 0.50978 0.40205 0.0
C516 C 0.21181 0.5206 0.41608 0.0
C517 C 0.19848 0.50452 0.42942 0.0
C518 C 0.17944 0.51476 0.44235 0.0
C519 C 0.17369 0.54111 0.44217 0.0
C520 C 0.18705 0.55728 0.42911 0.0
C521 C 0.20609 0.54712 0.41613 0.0
H522 H 0.15892 0.54904 0.45217 0.0
H523 H 0.33908 0.4549 0.32125 0.0
H524 H 0.13413 0.50591 0.88018 0.0
H525 H 0.18038 0.48919 0.884 0.0
H526 H 0.20967 0.56564 0.89666 0.0
H527 H 0.16311 0.58265 0.89274 0.0
H528 H 0.24111 0.54128 0.86946 0.0
H529 H 0.20561 0.52021 0.93214 0.0
H530 H 0.17234 0.50154 0.95493 0.0
H531 H 0.18585 0.42651 0.93074 0.0
H532 H 0.21893 0.44478 0.90762 0.0
H533 H 0.37564 0.49959 0.88734 0.0
H534 H 0.33037 0.51859 0.89149 0.0
H535 H 0.29404 0.44296 0.88853 0.0
H536 H 0.33968 0.42379 0.88561 0.0
H537 H 0.26632 0.46887 0.9126 0.0
H538 H 0.29727 0.48832 0.84846 0.0
H539 H 0.32872 0.50531 0.82371 0.0
H540 H 0.32175 0.58105 0.84807 0.0
H541 H 0.29051 0.56443 0.8731 0.0
C542 C 0.1503 0.5192 0.88401 0.0
C543 C 0.14486 0.54566 0.88617 0.0
C544 C 0.17679 0.50955 0.88627 0.0
C545 C 0.19858 0.52607 0.89078 0.0
C546 C 0.1932 0.55248 0.89324 0.0
C547 C 0.16656 0.56217 0.89108 0.0
C548 C 0.22707 0.51583 0.89186 0.0
C549 C 0.24678 0.52578 0.87917 0.0
C550 C 0.23428 0.49498 0.90401 0.0
C551 C 0.21462 0.48391 0.91806 0.0
C552 C 0.20136 0.49976 0.9316 0.0
C553 C 0.18255 0.48924 0.94459 0.0
C554 C 0.17694 0.46287 0.94426 0.0
C555 C 0.1902 0.44694 0.93097 0.0
C556 C 0.20901 0.45736 0.91794 0.0
C557 C 0.358 0.48699 0.88779 0.0
C558 C 0.3612 0.4602 0.88603 0.0
C559 C 0.33203 0.49791 0.88999 0.0
C560 C 0.30845 0.48239 0.88973 0.0
C561 C 0.31174 0.45548 0.88867 0.0
C562 C 0.33786 0.44449 0.88699 0.0
C563 C 0.28048 0.49421 0.89009 0.0
C564 C 0.26081 0.48452 0.90299 0.0
C565 C 0.27311 0.51503 0.87786 0.0
C566 C 0.29178 0.52508 0.86276 0.0
C567 C 0.30259 0.50856 0.8486 0.0
C568 C 0.32036 0.51813 0.83452 0.0
C569 C 0.32729 0.54423 0.83435 0.0
C570 C 0.3164 0.56083 0.84823 0.0
C571 C 0.29864 0.55136 0.86236 0.0
H572 H 0.34106 0.5516 0.82344 0.0
H573 H 0.16236 0.45477 0.95432 0.0
H574 H 0.66373 0.42257 0.60964 0.0
H575 H 0.71007 0.44048 0.6068 0.0
H576 H 0.67662 0.51719 0.60489 0.0
H577 H 0.63042 0.49952 0.6083 0.0
H578 H 0.72219 0.50481 0.57662 0.0
H579 H 0.69784 0.50302 0.64451 0.0
H580 H 0.68151 0.48195 0.67425 0.0
H581 H 0.74741 0.42753 0.67097 0.0
H582 H 0.76388 0.44805 0.64101 0.0
H583 H 0.84099 0.57991 0.60043 0.0
H584 H 0.795 0.56148 0.59706 0.0
H585 H 0.82543 0.48784 0.61622 0.0
H586 H 0.87095 0.50613 0.6199 0.0
H587 H 0.78079 0.49828 0.63483 0.0
H588 H 0.80724 0.49924 0.56867 0.0
H589 H 0.82436 0.51775 0.53822 0.0
H590 H 0.75656 0.57021 0.53679 0.0
H591 H 0.73923 0.55224 0.56741 0.0
C592 C 0.66625 0.44322 0.60835 0.0
C593 C 0.64345 0.45965 0.60927 0.0
C594 C 0.69271 0.45342 0.60675 0.0
C595 C 0.69677 0.48017 0.60563 0.0
C596 C 0.67395 0.49651 0.60565 0.0
C597 C 0.64758 0.48638 0.60769 0.0
C598 C 0.72483 0.49122 0.60589 0.0
C599 C 0.73498 0.50366 0.58938 0.0
C600 C 0.74169 0.48916 0.62238 0.0
C601 C 0.73188 0.47686 0.6404 0.0
C602 C 0.70868 0.48639 0.65002 0.0
C603 C 0.69943 0.47459 0.66694 0.0
C604 C 0.71336 0.45336 0.67446 0.0
C605 C 0.73661 0.44394 0.66511 0.0
C606 C 0.74591 0.45565 0.64816 0.0
C607 C 0.83788 0.55974 0.60371 0.0
C608 C 0.85965 0.54455 0.6105 0.0
C609 C 0.81159 0.54917 0.60174 0.0
C610 C 0.80663 0.52317 0.60634 0.0
C611 C 0.82856 0.50794 0.61267 0.0
C612 C 0.85468 0.51846 0.61472 0.0
C613 C 0.77852 0.51195 0.60549 0.0
C614 C 0.76823 0.49947 0.62197 0.0
C615 C 0.76175 0.51368 0.58885 0.0
C616 C 0.77211 0.52459 0.57046 0.0
C617 C 0.79611 0.51488 0.56196 0.0
C618 C 0.80583 0.52524 0.54465 0.0
C619 C 0.7916 0.54519 0.53561 0.0
C620 C 0.76759 0.55478 0.54384 0.0
C621 C 0.7578 0.54451 0.56116 0.0
H622 H 0.79915 0.55318 0.5222 0.0
H623 H 0.70618 0.44425 0.68757 0.0
H624 H 0.93741 0.11302 0.31716 0.0
H625 H 0.95911 0.11621 0.28532 0.0
H626 H 0.99514 0.04106 0.29349 0.0
H627 H 0.97502 0.03871 0.32561 0.0
H628 H 0.03063 0.06844 0.27789 0.0
H629 H 0.93488 0.05451 0.26422 0.0
H630 H 0.88556 0.06424 0.26565 0.0
H631 H 0.89997 0.13788 0.23938 0.0
H632 H 0.94943 0.12868 0.23799 0.0
H633 H 0.01546 0.04668 0.16764 0.0
H634 H 0.99597 0.05085 0.19989 0.0
H635 H 0.06231 0.10102 0.21635 0.0
H636 H 0.08232 0.0964 0.1841 0.0
H637 H 0.97649 0.08955 0.21951 0.0
H638 H 0.07642 0.09196 0.26416 0.0
H639 H 0.12378 0.07577 0.26227 0.0
H640 H 0.09747 0.01382 0.22568 0.0
H641 H 0.04995 0.02944 0.22756 0.0
C642 C 0.94998 0.09726 0.31206 0.0
C643 C 0.9545 0.07559 0.32373 0.0
C644 C 0.96229 0.09901 0.29385 0.0
C645 C 0.97852 0.0787 0.28678 0.0
C646 C 0.98289 0.05707 0.29856 0.0
C647 C 0.97126 0.05566 0.31689 0.0
C648 C 0.99096 0.07959 0.26717 0.0
C649 C 0.01874 0.07316 0.26516 0.0
C650 C 0.97556 0.08553 0.25044 0.0
C651 C 0.94585 0.09102 0.2512 0.0
C652 C 0.92753 0.07284 0.25886 0.0
C653 C 0.89956 0.07825 0.25965 0.0
C654 C 0.88965 0.1017 0.25266 0.0
C655 C 0.90768 0.11975 0.24482 0.0
C656 C 0.93568 0.11444 0.24402 0.0
C657 C 0.02596 0.05857 0.17813 0.0
C658 C 0.05052 0.07108 0.17339 0.0
C659 C 0.0147 0.06105 0.19654 0.0
C660 C 0.02772 0.07613 0.2106 0.0
C661 C 0.05209 0.08899 0.20582 0.0
C662 C 0.06349 0.08636 0.1874 0.0
C663 C 0.01588 0.07788 0.2303 0.0
C664 C 0.98835 0.08502 0.2323 0.0
C665 C 0.03121 0.07169 0.24697 0.0
C666 C 0.05971 0.06209 0.2458 0.0
C667 C 0.08076 0.07487 0.25574 0.0
C668 C 0.10762 0.06578 0.25467 0.0
C669 C 0.11365 0.04385 0.2438 0.0
C670 C 0.0928 0.03088 0.23403 0.0
C671 C 0.06591 0.03986 0.23507 0.0
H672 H 0.13446 0.03686 0.24298 0.0
H673 H 0.86799 0.10585 0.25329 0.0
H674 H 0.48905 0.95937 0.16588 0.0
H675 H 0.51065 0.9557 0.19746 0.0
H676 H 0.44352 0.90891 0.2175 0.0
H677 H 0.42185 0.91221 0.18567 0.0
H678 H 0.49387 0.97144 0.23175 0.0
H679 H 0.46936 0.86499 0.25048 0.0
H680 H 0.46131 0.82396 0.23346 0.0
H681 H 0.50906 0.85056 0.18542 0.0
H682 H 0.51782 0.89153 0.2023 0.0
H683 H 0.5113 0.95105 0.33064 0.0
H684 H 0.49241 0.94913 0.29813 0.0
H685 H 0.56307 0.90668 0.27881 0.0
H686 H 0.58213 0.9083 0.31158 0.0
H687 H 0.51477 0.88782 0.26313 0.0
H688 H 0.56068 0.96858 0.26964 0.0
H689 H 0.57233 0.00991 0.28508 0.0
H690 H 0.48906 0.03493 0.27955 0.0
H691 H 0.47681 0.99357 0.26432 0.0
C692 C 0.47885 0.94826 0.17698 0.0
C693 C 0.45375 0.93605 0.17331 0.0
C694 C 0.49122 0.94623 0.19503 0.0
C695 C 0.47881 0.93189 0.20977 0.0
C696 C 0.45362 0.9198 0.20623 0.0
C697 C 0.44119 0.92182 0.1881 0.0
C698 C 0.49212 0.93017 0.22894 0.0
C699 C 0.49839 0.95315 0.2386 0.0
C700 C 0.49858 0.90629 0.23768 0.0
C701 C 0.49399 0.88145 0.22759 0.0
C702 C 0.47826 0.86203 0.23633 0.0
C703 C 0.47357 0.83878 0.2267 0.0
C704 C 0.48459 0.83469 0.20835 0.0
C705 C 0.50046 0.85378 0.19962 0.0
C706 C 0.50528 0.87703 0.20921 0.0
C707 C 0.5228 0.94115 0.31954 0.0
C708 C 0.54833 0.93002 0.32361 0.0
C709 C 0.51196 0.94009 0.30096 0.0
C710 C 0.52649 0.92802 0.28603 0.0
C711 C 0.55157 0.9161 0.29015 0.0
C712 C 0.56248 0.91716 0.30882 0.0
C713 C 0.51593 0.9291 0.26602 0.0
C714 C 0.5102 0.90607 0.25623 0.0
C715 C 0.51049 0.95294 0.25691 0.0
C716 C 0.51778 0.97789 0.266 0.0
C717 C 0.5448 0.98282 0.27185 0.0
C718 C 0.55153 0.00626 0.28055 0.0
C719 C 0.53143 0.02501 0.28334 0.0
C720 C 0.50459 0.02038 0.2774 0.0
C721 C 0.49775 0.99695 0.26872 0.0
H722 H 0.53668 0.04316 0.29007 0.0
H723 H 0.48088 0.81671 0.2009 0.0
H724 H 0.07748 0.90001 0.68137 0.0
H725 H 0.05771 0.89709 0.71395 0.0
H726 H 0.00494 0.96134 0.7013 0.0
H727 H 0.02391 0.96393 0.66866 0.0
H728 H 0.04837 0.95302 0.74105 0.0
H729 H 0.96665 0.92654 0.7013 0.0
H730 H 0.94762 0.89803 0.67618 0.0
H731 H 0.97562 0.83173 0.70748 0.0
H732 H 0.99522 0.85995 0.73261 0.0
H733 H 0.9626 0.97303 0.82012 0.0
H734 H 0.98258 0.97079 0.78786 0.0
H735 H 0.97443 0.88795 0.78863 0.0
H736 H 0.95208 0.89063 0.8203 0.0
H737 H 0.96537 0.9013 0.75497 0.0
H738 H 0.03825 0.92316 0.79735 0.0
H739 H 0.06248 0.94722 0.82282 0.0
H740 H 0.05911 0.01591 0.78842 0.0
H741 H 0.03454 0.99234 0.76284 0.0
C742 C 0.06164 0.91346 0.68556 0.0
C743 C 0.05217 0.93216 0.67251 0.0
C744 C 0.05038 0.91173 0.7041 0.0
C745 C 0.02981 0.92889 0.70985 0.0
C746 C 0.02066 0.94781 0.69698 0.0
C747 C 0.03151 0.94925 0.67838 0.0
C748 C 0.01801 0.9275 0.72943 0.0
C749 C 0.03012 0.94192 0.74418 0.0
C750 C 0.99495 0.91215 0.73352 0.0
C751 C 0.98265 0.89531 0.71866 0.0
C752 C 0.96896 0.9059 0.70271 0.0
C753 C 0.95803 0.8898 0.6885 0.0
C754 C 0.96049 0.86308 0.6902 0.0
C755 C 0.97378 0.85242 0.70616 0.0
C756 C 0.98479 0.86845 0.72039 0.0
C757 C 0.96492 0.95441 0.81326 0.0
C758 C 0.95595 0.932 0.82254 0.0
C759 C 0.97663 0.95305 0.79492 0.0
C760 C 0.98095 0.9291 0.78593 0.0
C761 C 0.97151 0.90667 0.7952 0.0
C762 C 0.95879 0.90815 0.81327 0.0
C763 C 0.99515 0.92761 0.7669 0.0
C764 C 0.98367 0.91246 0.75214 0.0
C765 C 0.01935 0.94181 0.76297 0.0
C766 C 0.03438 0.95601 0.77824 0.0
C767 C 0.04256 0.94342 0.79526 0.0
C768 C 0.05635 0.95698 0.80971 0.0
C769 C 0.06228 0.98309 0.80725 0.0
C770 C 0.05449 0.99569 0.79031 0.0
C771 C 0.04066 0.98223 0.77582 0.0
H772 H 0.07295 0.99355 0.81846 0.0
H773 H 0.95204 0.85065 0.67917 0.0
H774 H 0.49735 0.05997 0.66533 0.0
H775 H 0.51719 0.0628 0.69747 0.0
H776 H 0.44035 0.09052 0.71995 0.0
H777 H 0.42058 0.08864 0.68743 0.0
H778 H 0.48062 0.11551 0.7366 0.0
H779 H 0.46015 0.02728 0.72571 0.0
H780 H 0.45957 0.98575 0.70848 0.0
H781 H 0.54712 0.98187 0.71157 0.0
H782 H 0.54826 0.02358 0.72859 0.0
H783 H 0.51091 0.06208 0.83301 0.0
H784 H 0.49107 0.06574 0.80074 0.0
H785 H 0.56966 0.08746 0.77783 0.0
H786 H 0.58963 0.08468 0.8103 0.0
H787 H 0.52753 0.03808 0.76242 0.0
H788 H 0.54446 0.13126 0.77213 0.0
H789 H 0.54048 0.17049 0.792 0.0
H790 H 0.4533 0.16132 0.79399 0.0
H791 H 0.45686 0.12178 0.77436 0.0
C792 C 0.48467 0.0668 0.67707 0.0
C793 C 0.45733 0.07389 0.67391 0.0
C794 C 0.49602 0.06831 0.69548 0.0
C795 C 0.48011 0.07636 0.71122 0.0
C796 C 0.45298 0.08415 0.70803 0.0
C797 C 0.44169 0.08298 0.68949 0.0
C798 C 0.49179 0.07601 0.73099 0.0
C799 C 0.49072 0.0985 0.74223 0.0
C800 C 0.50487 0.0538 0.73849 0.0
C801 C 0.5043 0.02869 0.72826 0.0
C802 C 0.4793 0.01767 0.72259 0.0
C803 C 0.47886 0.99408 0.71288 0.0
C804 C 0.5033 0.98121 0.70889 0.0
C805 C 0.52821 0.99188 0.71465 0.0
C806 C 0.52877 0.01549 0.72434 0.0
C807 C 0.52396 0.06785 0.82117 0.0
C808 C 0.55182 0.07313 0.82415 0.0
C809 C 0.51257 0.06997 0.80278 0.0
C810 C 0.52891 0.07705 0.78707 0.0
C811 C 0.55675 0.08223 0.78991 0.0
C812 C 0.56808 0.0806 0.8084 0.0
C813 C 0.51702 0.07767 0.76754 0.0
C814 C 0.5177 0.05509 0.75655 0.0
C815 C 0.50313 0.09953 0.76047 0.0
C816 C 0.50096 0.12343 0.77201 0.0
C817 C 0.52448 0.13747 0.77698 0.0
C818 C 0.5223 0.15979 0.78815 0.0
C819 C 0.49666 0.16835 0.79432 0.0
C820 C 0.47315 0.15465 0.78924 0.0
C821 C 0.47524 0.1323 0.77809 0.0
H822 H 0.49501 0.18562 0.80297 0.0
H823 H 0.50292 0.96295 0.70138 0.0
H824 H 0.58733 0.5786 0.18669 0.0
H825 H 0.56725 0.57956 0.21919 0.0
H826 H 0.48698 0.56921 0.19478 0.0
H827 H 0.50689 0.56732 0.1624 0.0
H828 H 0.49815 0.61229 0.22671 0.0
H829 H 0.5041 0.52059 0.21018 0.0
H830 H 0.52943 0.48228 0.19912 0.0
H831 H 0.5869 0.49173 0.24541 0.0
H832 H 0.5621 0.53036 0.25655 0.0
H833 H 0.41691 0.58136 0.30819 0.0
H834 H 0.43766 0.58375 0.2761 0.0
H835 H 0.51469 0.55846 0.29982 0.0
H836 H 0.49379 0.55502 0.33165 0.0
H837 H 0.5068 0.53469 0.26805 0.0
H838 H 0.50178 0.62248 0.2871 0.0
H839 H 0.48026 0.66227 0.29915 0.0
H840 H 0.4267 0.66352 0.25007 0.0
H841 H 0.4476 0.62346 0.23788 0.0
C842 C 0.56541 0.57664 0.18828 0.0
C843 C 0.54867 0.57277 0.17206 0.0
C844 C 0.55401 0.57722 0.20679 0.0
C845 C 0.5257 0.5745 0.20926 0.0
C846 C 0.50887 0.57142 0.19308 0.0
C847 C 0.5203 0.57022 0.17463 0.0
C848 C 0.51372 0.57367 0.2288 0.0
C849 C 0.49971 0.5953 0.23575 0.0
C850 C 0.51666 0.55177 0.24068 0.0
C851 C 0.53147 0.52852 0.23403 0.0
C852 C 0.52231 0.51466 0.21786 0.0
C853 C 0.53652 0.49285 0.21161 0.0
C854 C 0.55982 0.48462 0.22151 0.0
C855 C 0.56889 0.49815 0.23772 0.0
C856 C 0.55476 0.51999 0.24402 0.0
C857 C 0.43825 0.5763 0.30653 0.0
C858 C 0.45374 0.56808 0.32243 0.0
C859 C 0.45016 0.57783 0.28821 0.0
C860 C 0.47789 0.57166 0.28556 0.0
C861 C 0.49329 0.56333 0.30147 0.0
C862 C 0.48131 0.56145 0.31969 0.0
C863 C 0.49079 0.57333 0.26618 0.0
C864 C 0.50512 0.55182 0.25918 0.0
C865 C 0.48862 0.59562 0.25446 0.0
C866 C 0.47608 0.61981 0.26167 0.0
C867 C 0.48526 0.63112 0.27894 0.0
C868 C 0.4732 0.65374 0.28579 0.0
C869 C 0.45208 0.66538 0.2754 0.0
C870 C 0.44304 0.65446 0.25811 0.0
C871 C 0.455 0.63179 0.25122 0.0
H872 H 0.44276 0.6829 0.28073 0.0
H873 H 0.57079 0.46773 0.21666 0.0
H874 H 0.08496 0.42019 0.30914 0.0
H875 H 0.06518 0.41786 0.27663 0.0
H876 H 0.98606 0.43751 0.29973 0.0
H877 H 0.00574 0.44056 0.33212 0.0
H878 H 0.98859 0.39351 0.27156 0.0
H879 H 0.01527 0.4829 0.2805 0.0
H880 H 0.04819 0.51728 0.28838 0.0
H881 H 0.10079 0.49185 0.24257 0.0
H882 H 0.06833 0.45706 0.23461 0.0
H883 H 0.91612 0.42538 0.18598 0.0
H884 H 0.93574 0.4231 0.21843 0.0
H885 H 0.01663 0.4318 0.19434 0.0
H886 H 0.99695 0.43558 0.16215 0.0
H887 H 0.01408 0.46016 0.22353 0.0
H888 H 0.98954 0.37234 0.21292 0.0
H889 H 0.95948 0.33588 0.20462 0.0
H890 H 0.90695 0.35442 0.2523 0.0
H891 H 0.9365 0.39123 0.26072 0.0
C892 C 0.06333 0.4239 0.30729 0.0
C893 C 0.04691 0.43067 0.32313 0.0
C894 C 0.05209 0.42255 0.28875 0.0
C895 C 0.02419 0.42751 0.28586 0.0
C896 C 0.00761 0.43355 0.30172 0.0
C897 C 0.01893 0.4354 0.32018 0.0
C898 C 0.0125 0.4275 0.26617 0.0
C899 C 0.99388 0.40816 0.26104 0.0
C900 C 0.02011 0.44622 0.2524 0.0
C901 C 0.03953 0.46721 0.25711 0.0
C902 C 0.03398 0.48449 0.27223 0.0
C903 C 0.05252 0.50408 0.27669 0.0
C904 C 0.07661 0.5067 0.26602 0.0
C905 C 0.08215 0.48977 0.25084 0.0
C906 C 0.06368 0.47013 0.24634 0.0
C907 C 0.93809 0.42668 0.18766 0.0
C908 C 0.95501 0.43068 0.17157 0.0
C909 C 0.94934 0.4252 0.2062 0.0
C910 C 0.97779 0.4269 0.20891 0.0
C911 C 0.99465 0.43051 0.19272 0.0
C912 C 0.98338 0.43259 0.17428 0.0
C913 C 0.98999 0.42599 0.2286 0.0
C914 C 0.00874 0.44528 0.23385 0.0
C915 C 0.98289 0.40686 0.24232 0.0
C916 C 0.9651 0.3847 0.23734 0.0
C917 C 0.97147 0.36875 0.22155 0.0
C918 C 0.95454 0.34801 0.21684 0.0
C919 C 0.93128 0.34287 0.2279 0.0
C920 C 0.92495 0.35844 0.24373 0.0
C921 C 0.9418 0.37924 0.24849 0.0
H922 H 0.9182 0.3268 0.22423 0.0
H923 H 0.09094 0.52188 0.26949 0.0
H924 H 0.51204 0.45883 0.66395 0.0
H925 H 0.49105 0.4566 0.69589 0.0
H926 H 0.55798 0.40974 0.7161 0.0
H927 H 0.57907 0.41174 0.68404 0.0
H928 H 0.50883 0.3908 0.72783 0.0
H929 H 0.555 0.47222 0.72809 0.0
H930 H 0.56715 0.51532 0.71589 0.0
H931 H 0.48343 0.53922 0.72084 0.0
H932 H 0.4707 0.49612 0.73284 0.0
H933 H 0.49477 0.43984 0.83016 0.0
H934 H 0.51285 0.43735 0.79732 0.0
H935 H 0.43223 0.42025 0.7758 0.0
H936 H 0.41413 0.42151 0.80881 0.0
H937 H 0.4871 0.47017 0.76462 0.0
H938 H 0.44188 0.38258 0.75799 0.0
H939 H 0.43316 0.33851 0.76976 0.0
H940 H 0.51942 0.32635 0.77664 0.0
H941 H 0.52848 0.37079 0.76577 0.0
C942 C 0.52233 0.44806 0.67519 0.0
C943 C 0.54726 0.43553 0.67152 0.0
C944 C 0.51033 0.44687 0.69345 0.0
C945 C 0.52308 0.4332 0.70841 0.0
C946 C 0.54783 0.42041 0.70474 0.0
C947 C 0.5599 0.42166 0.68646 0.0
C948 C 0.51052 0.43226 0.72788 0.0
C949 C 0.50411 0.40819 0.73586 0.0
C950 C 0.50425 0.45492 0.73834 0.0
C951 C 0.51185 0.48086 0.73117 0.0
C952 C 0.53914 0.4866 0.72643 0.0
C953 C 0.54614 0.51104 0.71958 0.0
C954 C 0.52606 0.52997 0.71754 0.0
C955 C 0.49895 0.52452 0.7224 0.0
C956 C 0.49184 0.5001 0.72924 0.0
C957 C 0.48094 0.43514 0.8185 0.0
C958 C 0.45304 0.43074 0.82206 0.0
C959 C 0.49133 0.43366 0.79976 0.0
C960 C 0.47401 0.42799 0.78422 0.0
C961 C 0.44611 0.42374 0.78767 0.0
C962 C 0.43576 0.42472 0.8065 0.0
C963 C 0.48497 0.42878 0.76433 0.0
C964 C 0.49143 0.45286 0.7564 0.0
C965 C 0.49133 0.40618 0.75392 0.0
C966 C 0.48576 0.3802 0.76166 0.0
C967 C 0.45889 0.37077 0.76259 0.0
C968 C 0.45391 0.34569 0.76901 0.0
C969 C 0.47571 0.32972 0.77415 0.0
C970 C 0.50253 0.33883 0.7729 0.0
C971 C 0.50758 0.36401 0.76674 0.0
H972 H 0.47184 0.31024 0.77897 0.0
H973 H 0.53152 0.54889 0.71224 0.0
H974 H 0.08067 0.59422 0.80997 0.0
H975 H 0.06079 0.59398 0.77745 0.0
H976 H 0.00427 0.53461 0.79474 0.0
H977 H 0.02367 0.53499 0.82729 0.0
H978 H 0.03123 0.52861 0.75585 0.0
H979 H 0.97548 0.58764 0.79429 0.0
H980 H 0.97396 0.62256 0.81844 0.0
H981 H 0.02074 0.67108 0.7806 0.0
H982 H 0.02226 0.63658 0.75629 0.0
H983 H 0.93257 0.53634 0.68195 0.0
H984 H 0.95384 0.53541 0.71401 0.0
H985 H 0.99606 0.60637 0.70115 0.0
H986 H 0.97418 0.60752 0.66925 0.0
H987 H 0.97792 0.60637 0.7378 0.0
H988 H 0.02854 0.54863 0.69727 0.0
H989 H 0.03488 0.51248 0.67465 0.0
H990 H 1.00234 0.46004 0.7167 0.0
H991 H 0.99544 0.49597 0.73948 0.0
C992 C 0.0642 0.58095 0.80677 0.0
C993 C 0.05358 0.56474 0.82114 0.0
C994 C 0.05293 0.5808 0.78823 0.0
C995 C 0.03116 0.56422 0.78378 0.0
C996 C 0.02119 0.54739 0.79791 0.0
C997 C 0.03216 0.54779 0.8165 0.0
C998 C 0.01726 0.56596 0.7649 0.0
C999 C 0.01932 0.54543 0.7519 0.0
C1000 C 1.00218 0.58807 0.75978 0.0
C1001 C 0.99892 0.60965 0.7735 0.0
C1002 C 0.98515 0.60591 0.79109 0.0
C1003 C 0.9843 0.62561 0.80482 0.0
C1004 C 0.99714 0.6491 0.80108 0.0
C1005 C 0.01056 0.65303 0.78349 0.0
C1006 C 0.01132 0.63345 0.76968 0.0
C1007 C 0.94612 0.55185 0.68617 0.0
C1008 C 0.95188 0.57199 0.67336 0.0
C1009 C 0.95838 0.55126 0.70436 0.0
C1010 C 0.9769 0.5706 0.70985 0.0
C1011 C 0.98191 0.59122 0.6972 0.0
C1012 C 0.96951 0.59186 0.67902 0.0
C1013 C 0.99167 0.56886 0.72851 0.0
C1014 C 0.98977 0.58945 0.74158 0.0
C1015 C 0.00697 0.5467 0.73364 0.0
C1016 C 0.01123 0.52503 0.72001 0.0
C1017 C 0.02255 0.52942 0.70164 0.0
C1018 C 0.02627 0.50897 0.6888 0.0
C1019 C 0.01895 0.48399 0.69422 0.0
C1020 C 0.00796 0.47941 0.71251 0.0
C1021 C 0.00416 0.49981 0.7254 0.0
H1022 H 0.02185 0.46817 0.68425 0.0
H1023 H 0.99676 0.66415 0.81187 0.0
H1024 H 0.00386 0.14633 0.15155 0.0
H1025 H 0.993 0.19187 0.14827 0.0
H1026 H 0.0436 0.19627 0.09737 0.0
H1027 H 0.0553 0.15049 0.10097 0.0
H1028 H 0.04945 0.23857 0.11866 0.0
H1029 H 0.97244 0.19148 0.09443 0.0
H1030 H 0.93592 0.15878 0.09557 0.0
H1031 H 0.90102 0.19579 0.14521 0.0
H1032 H 0.93753 0.22853 0.14451 0.0
H1033 H 0.99838 0.36106 0.09359 0.0
H1034 H 0.00839 0.3149 0.09185 0.0
H1035 H 0.95678 0.30182 0.14146 0.0
H1036 H 0.94562 0.3479 0.14243 0.0
H1037 H 0.95148 0.26334 0.11807 0.0
H1038 H 0.02995 0.30845 0.14377 0.0
H1039 H 0.06672 0.34096 0.14317 0.0
H1040 H 0.09897 0.30753 0.09126 0.0
H1041 H 0.0622 0.275 0.09144 0.0
C1042 C 0.01285 0.15698 0.1397 0.0
C1043 C 0.03021 0.14471 0.12638 0.0
C1044 C 0.00648 0.18304 0.13778 0.0
C1045 C 0.0168 0.19741 0.12224 0.0
C1046 C 0.03515 0.18553 0.10937 0.0
C1047 C 0.04188 0.1594 0.11145 0.0
C1048 C 0.00803 0.22465 0.11946 0.0
C1049 C 0.02803 0.24394 0.1182 0.0
C1050 C 0.98006 0.23181 0.11922 0.0
C1051 C 0.95783 0.21236 0.11948 0.0
C1052 C 0.95705 0.19257 0.10564 0.0
C1053 C 0.93635 0.17403 0.10621 0.0
C1054 C 0.91619 0.17518 0.12048 0.0
C1055 C 0.91665 0.19492 0.13417 0.0
C1056 C 0.93732 0.2135 0.13368 0.0
C1057 C 0.98871 0.34813 0.1038 0.0
C1058 C 0.9711 0.3578 0.11804 0.0
C1059 C 0.99468 0.32183 0.10297 0.0
C1060 C 0.98398 0.30484 0.11686 0.0
C1061 C 0.96542 0.31445 0.13062 0.0
C1062 C 0.95895 0.34073 0.13116 0.0
C1063 C 0.9929 0.27736 0.11756 0.0
C1064 C 0.97291 0.258 0.1184 0.0
C1065 C 0.02088 0.27014 0.11748 0.0
C1066 C 0.0432 0.28946 0.11752 0.0
C1067 C 0.04482 0.30812 0.13218 0.0
C1068 C 0.06565 0.32654 0.13192 0.0
C1069 C 0.08512 0.32635 0.11716 0.0
C1070 C 0.08386 0.30768 0.10267 0.0
C1071 C 0.06304 0.28923 0.10285 0.0
H1072 H 0.10123 0.34063 0.11697 0.0
H1073 H 0.90019 0.1608 0.1209 0.0
H1074 H 0.51572 0.86416 0.14137 0.0
H1075 H 0.52586 0.81848 0.13883 0.0
H1076 H 0.44986 0.80611 0.10876 0.0
H1077 H 0.4393 0.85221 0.11129 0.0
H1078 H 0.45971 0.76932 0.13674 0.0
H1079 H 0.50911 0.80714 0.08389 0.0
H1080 H 0.54093 0.83783 0.06864 0.0
H1081 H 0.60631 0.80986 0.10425 0.0
H1082 H 0.57479 0.77923 0.11991 0.0
H1083 H 0.4877 0.6426 0.10874 0.0
H1084 H 0.47797 0.68859 0.10754 0.0
H1085 H 0.55794 0.70477 0.13086 0.0
H1086 H 0.56827 0.65842 0.13114 0.0
H1087 H 0.54564 0.74001 0.10562 0.0
H1088 H 0.49749 0.70389 0.15947 0.0
H1089 H 0.46649 0.67363 0.17602 0.0
H1090 H 0.39984 0.69894 0.14045 0.0
H1091 H 0.43054 0.72912 0.12352 0.0
C1092 C 0.50105 0.85187 0.13415 0.0
C1093 C 0.47673 0.86206 0.12636 0.0
C1094 C 0.50699 0.82567 0.13268 0.0
C1095 C 0.48889 0.80891 0.1233 0.0
C1096 C 0.46423 0.81875 0.11594 0.0
C1097 C 0.45822 0.8451 0.1174 0.0
C1098 C 0.49582 0.78113 0.12139 0.0
C1099 C 0.47827 0.76286 0.12965 0.0
C1100 C 0.52049 0.77276 0.11269 0.0
C1101 C 0.53952 0.79104 0.10319 0.0
C1102 C 0.53023 0.80766 0.08857 0.0
C1103 C 0.54822 0.82502 0.07983 0.0
C1104 C 0.57561 0.82584 0.0855 0.0
C1105 C 0.58508 0.80923 0.09988 0.0
C1106 C 0.56717 0.79184 0.10868 0.0
C1107 C 0.50333 0.65598 0.11344 0.0
C1108 C 0.52865 0.64695 0.12022 0.0
C1109 C 0.49767 0.68229 0.11288 0.0
C1110 C 0.51684 0.70023 0.11969 0.0
C1111 C 0.54268 0.69133 0.12568 0.0
C1112 C 0.54861 0.66488 0.12583 0.0
C1113 C 0.50953 0.72808 0.12098 0.0
C1114 C 0.52703 0.74639 0.11265 0.0
C1115 C 0.48494 0.73655 0.12983 0.0
C1116 C 0.46638 0.7186 0.14012 0.0
C1117 C 0.47626 0.70289 0.15511 0.0
C1118 C 0.45874 0.68577 0.16456 0.0
C1119 C 0.43123 0.68432 0.15926 0.0
C1120 C 0.42116 0.70006 0.14453 0.0
C1121 C 0.43861 0.71719 0.13501 0.0
H1122 H 0.4177 0.67104 0.16659 0.0
H1123 H 0.58951 0.8393 0.07872 0.0
H1124 H 0.43923 0.65281 0.38908 0.0
H1125 H 0.44957 0.69886 0.39254 0.0
H1126 H 0.51433 0.69163 0.35064 0.0
H1127 H 0.50439 0.64597 0.34723 0.0
H1128 H 0.53179 0.71691 0.38209 0.0
H1129 H 0.45309 0.72074 0.33964 0.0
H1130 H 0.40519 0.71209 0.33062 0.0
H1131 H 0.37744 0.75278 0.3809 0.0
H1132 H 0.4252 0.7614 0.39033 0.0
H1133 H 0.56299 0.84777 0.36103 0.0
H1134 H 0.55172 0.8018 0.36145 0.0
H1135 H 0.48054 0.81791 0.39633 0.0
H1136 H 0.49085 0.8639 0.39468 0.0
H1137 H 0.46555 0.78751 0.37081 0.0
H1138 H 0.5429 0.78559 0.41324 0.0
H1139 H 0.59036 0.79381 0.42353 0.0
H1140 H 0.62033 0.74921 0.37584 0.0
H1141 H 0.57305 0.74098 0.36512 0.0
C1142 C 0.45542 0.66113 0.38043 0.0
C1143 C 0.47107 0.64561 0.36798 0.0
C1144 C 0.46136 0.68744 0.38244 0.0
C1145 C 0.48284 0.69872 0.37189 0.0
C1146 C 0.49787 0.68337 0.35908 0.0
C1147 C 0.49206 0.65721 0.35712 0.0
C1148 C 0.49036 0.72631 0.37436 0.0
C1149 C 0.51738 0.7324 0.37948 0.0
C1150 C 0.47139 0.7465 0.37155 0.0
C1151 C 0.4427 0.74149 0.36578 0.0
C1152 C 0.43677 0.72769 0.34883 0.0
C1153 C 0.40965 0.72282 0.34364 0.0
C1154 C 0.38828 0.73182 0.35521 0.0
C1155 C 0.394 0.74578 0.37197 0.0
C1156 C 0.42109 0.75069 0.37723 0.0
C1157 C 0.54526 0.84132 0.36907 0.0
C1158 C 0.52787 0.85924 0.37793 0.0
C1159 C 0.53881 0.81502 0.36938 0.0
C1160 C 0.51536 0.80609 0.37913 0.0
C1161 C 0.49864 0.82411 0.38861 0.0
C1162 C 0.50464 0.85039 0.38781 0.0
C1163 C 0.50719 0.77835 0.37849 0.0
C1164 C 0.48002 0.77215 0.37366 0.0
C1165 C 0.52598 0.75804 0.38182 0.0
C1166 C 0.55443 0.76285 0.3883 0.0
C1167 C 0.55961 0.77767 0.40488 0.0
C1168 C 0.58648 0.78231 0.4108 0.0
C1169 C 0.60834 0.77209 0.40032 0.0
C1170 C 0.60338 0.75714 0.38393 0.0
C1171 C 0.57655 0.75245 0.37794 0.0
H1172 H 0.62913 0.77572 0.40492 0.0
H1173 H 0.3673 0.72802 0.35117 0.0
H1174 H 0.068 0.34979 0.3826 0.0
H1175 H 0.05966 0.30339 0.38595 0.0
H1176 H 0.9746 0.31505 0.37223 0.0
H1177 H 0.98254 0.36103 0.36902 0.0
H1178 H 0.98025 0.28219 0.40218 0.0
H1179 H 0.0193 0.29292 0.33845 0.0
H1180 H 0.05472 0.30675 0.31532 0.0
H1181 H 0.11353 0.25816 0.34342 0.0
H1182 H 0.07851 0.2443 0.36687 0.0
H1183 H 0.93673 0.1559 0.37599 0.0
H1184 H 0.94752 0.20188 0.37813 0.0
H1185 H 0.03298 0.18357 0.38515 0.0
H1186 H 0.02245 0.13788 0.38228 0.0
H1187 H 0.0293 0.2198 0.36053 0.0
H1188 H 0.9905 0.20684 0.42321 0.0
H1189 H 0.95579 0.19305 0.44687 0.0
H1190 H 0.89774 0.24547 0.42208 0.0
H1191 H 0.932 0.25934 0.3981 0.0
C1192 C 0.04751 0.34248 0.38036 0.0
C1193 C 0.02602 0.35926 0.37544 0.0
C1194 C 0.04279 0.31594 0.38223 0.0
C1195 C 0.0165 0.30569 0.37922 0.0
C1196 C 0.99502 0.32245 0.37467 0.0
C1197 C 0.9997 0.34883 0.37274 0.0
C1198 C 0.01117 0.2775 0.38033 0.0
C1199 C 0.99084 0.26853 0.39299 0.0
C1200 C 0.02539 0.25959 0.36869 0.0
C1201 C 0.04638 0.2678 0.35453 0.0
C1202 C 0.03984 0.28534 0.33978 0.0
C1203 C 0.05983 0.29315 0.3266 0.0
C1204 C 0.08638 0.28339 0.32793 0.0
C1205 C 0.09297 0.26574 0.34242 0.0
C1206 C 0.07306 0.25789 0.35565 0.0
C1207 C 0.95775 0.1617 0.37822 0.0
C1208 C 0.97871 0.14322 0.37891 0.0
C1209 C 0.96393 0.18802 0.37951 0.0
C1210 C 0.99112 0.19635 0.38196 0.0
C1211 C 0.0119 0.17778 0.38316 0.0
C1212 C 0.0058 0.1516 0.38157 0.0
C1213 C 0.99821 0.22431 0.38236 0.0
C1214 C 0.01884 0.2333 0.36992 0.0
C1215 C 0.98438 0.2422 0.39432 0.0
C1216 C 0.96376 0.23396 0.40875 0.0
C1217 C 0.97027 0.21529 0.42272 0.0
C1218 C 0.95069 0.20748 0.4362 0.0
C1219 C 0.92456 0.21833 0.43595 0.0
C1220 C 0.91798 0.23706 0.42224 0.0
C1221 C 0.93748 0.24493 0.40872 0.0
H1222 H 0.90942 0.21226 0.44639 0.0
H1223 H 0.10182 0.28947 0.31772 0.0
H1224 H 0.98873 0.64266 0.85455 0.0
H1225 H 0.97926 0.68832 0.85693 0.0
H1226 H 0.05953 0.70118 0.88083 0.0
H1227 H 0.06893 0.65482 0.8791 0.0
H1228 H 0.02587 0.72821 0.90031 0.0
H1229 H 0.04072 0.72363 0.8323 0.0
H1230 H 0.03714 0.71146 0.79799 0.0
H1231 H 0.95038 0.72378 0.79971 0.0
H1232 H 0.95354 0.73639 0.83397 0.0
H1233 H 0.02301 0.86398 0.88055 0.0
H1234 H 0.03203 0.8178 0.88212 0.0
H1235 H 0.9464 0.80226 0.87322 0.0
H1236 H 0.93708 0.84874 0.8719 0.0
H1237 H 0.98261 0.77725 0.84706 0.0
H1238 H 0.97268 0.78886 0.91548 0.0
H1239 H 0.98234 0.80941 0.94681 0.0
H1240 H 0.0668 0.78782 0.94215 0.0
H1241 H 0.05774 0.76747 0.91063 0.0
C1242 C 0.00458 0.65506 0.86025 0.0
C1243 C 0.02966 0.64481 0.86669 0.0
C1244 C 0.99916 0.68142 0.86142 0.0
C1245 C 0.01876 0.69854 0.86878 0.0
C1246 C 0.04399 0.68849 0.87506 0.0
C1247 C 0.0494 0.66193 0.87401 0.0
C1248 C 0.01217 0.72657 0.87074 0.0
C1249 C 0.01679 0.73895 0.88852 0.0
C1250 C 0.99978 0.74079 0.85561 0.0
C1251 C 0.99734 0.73067 0.83571 0.0
C1252 C 0.02084 0.72338 0.82542 0.0
C1253 C 0.01892 0.71667 0.80594 0.0
C1254 C 0.99355 0.71694 0.79666 0.0
C1255 C 0.97001 0.72367 0.8069 0.0
C1256 C 0.97187 0.73068 0.82632 0.0
C1257 C 0.00599 0.85078 0.87917 0.0
C1258 C 0.97931 0.86005 0.87599 0.0
C1259 C 0.01119 0.82436 0.8802 0.0
C1260 C 0.9899 0.80657 0.87788 0.0
C1261 C 0.96312 0.81569 0.87515 0.0
C1262 C 0.9578 0.84223 0.87444 0.0
C1263 C 0.99617 0.7786 0.8765 0.0
C1264 C 0.9915 0.76631 0.85883 0.0
C1265 C 0.00913 0.7648 0.89155 0.0
C1266 C 0.01456 0.77682 0.91059 0.0
C1267 C 0.99336 0.78867 0.92105 0.0
C1268 C 0.99872 0.80025 0.93886 0.0
C1269 C 0.02518 0.79997 0.94644 0.0
C1270 C 0.04632 0.78804 0.93625 0.0
C1271 C 0.04107 0.77645 0.91842 0.0
H1272 H 0.02929 0.80897 0.96023 0.0
H1273 H 0.9921 0.71187 0.78155 0.0
H1274 H 0.5205 0.36321 0.87706 0.0
H1275 H 0.53022 0.31755 0.88018 0.0
H1276 H 0.44402 0.30058 0.87757 0.0
H1277 H 0.43393 0.34691 0.87483 0.0
H1278 H 0.47085 0.26955 0.90376 0.0
H1279 H 0.48328 0.29543 0.83833 0.0
H1280 H 0.50125 0.32339 0.8127 0.0
H1281 H 0.58326 0.30107 0.82707 0.0
H1282 H 0.56579 0.27376 0.85346 0.0
H1283 H 0.48401 0.13956 0.87423 0.0
H1284 H 0.47411 0.18528 0.87675 0.0
H1285 H 0.56027 0.20178 0.8809 0.0
H1286 H 0.57056 0.15556 0.87832 0.0
H1287 H 0.53353 0.23295 0.85452 0.0
H1288 H 0.52091 0.2072 0.92017 0.0
H1289 H 0.50273 0.18079 0.9468 0.0
H1290 H 0.42085 0.20213 0.93129 0.0
H1291 H 0.43852 0.2284 0.90437 0.0
C1292 C 0.50347 0.34988 0.8772 0.0
C1293 C 0.47639 0.35875 0.87535 0.0
C1294 C 0.50913 0.3237 0.87902 0.0
C1295 C 0.48794 0.30554 0.87868 0.0
C1296 C 0.46073 0.31426 0.87773 0.0
C1297 C 0.45498 0.3407 0.87613 0.0
C1298 C 0.49465 0.27755 0.87833 0.0
C1299 C 0.48424 0.26147 0.89284 0.0
C1300 C 0.51266 0.26707 0.86433 0.0
C1301 C 0.52322 0.28273 0.84802 0.0
C1302 C 0.50516 0.29659 0.83613 0.0
C1303 C 0.51527 0.31235 0.82144 0.0
C1304 C 0.5434 0.31397 0.81817 0.0
C1305 C 0.56147 0.29981 0.82962 0.0
C1306 C 0.55148 0.28424 0.8445 0.0
C1307 C 0.501 0.15278 0.87575 0.0
C1308 C 0.52817 0.14376 0.87603 0.0
C1309 C 0.49521 0.179 0.87732 0.0
C1310 C 0.51638 0.19698 0.87921 0.0
C1311 C 0.54358 0.18819 0.87954 0.0
C1312 C 0.54944 0.16178 0.87813 0.0
C1313 C 0.50988 0.22495 0.88001 0.0
C1314 C 0.52023 0.24103 0.86549 0.0
C1315 C 0.49175 0.23535 0.89395 0.0
C1316 C 0.48104 0.21959 0.91014 0.0
C1317 C 0.49901 0.20609 0.92233 0.0
C1318 C 0.4888 0.19118 0.9375 0.0
C1319 C 0.46065 0.18973 0.94071 0.0
C1320 C 0.44265 0.20325 0.92878 0.0
C1321 C 0.45276 0.21818 0.91357 0.0
H1322 H 0.45278 0.17818 0.95246 0.0
H1323 H 0.55119 0.32621 0.80679 0.0
H1324 H 0.43731 0.15517 0.61678 0.0
H1325 H 0.44703 0.20152 0.61476 0.0
H1326 H 0.53275 0.18633 0.62376 0.0
H1327 H 0.52332 0.1406 0.62609 0.0
H1328 H 0.51772 0.2242 0.646 0.0
H1329 H 0.50645 0.20329 0.57899 0.0
H1330 H 0.48266 0.18615 0.55038 0.0
H1331 H 0.41715 0.23994 0.55905 0.0
H1332 H 0.4404 0.25719 0.58788 0.0
H1333 H 0.56953 0.34918 0.62206 0.0
H1334 H 0.56032 0.30268 0.62024 0.0
H1335 H 0.47377 0.31795 0.61767 0.0
H1336 H 0.48266 0.36399 0.61957 0.0
H1337 H 0.48942 0.28037 0.59169 0.0
H1338 H 0.50083 0.30041 0.65911 0.0
H1339 H 0.52519 0.31765 0.68746 0.0
H1340 H 0.59142 0.26507 0.67743 0.0
H1341 H 0.5676 0.24777 0.64884 0.0
C1342 C 0.45822 0.16173 0.61819 0.0
C1343 C 0.47944 0.14405 0.6217 0.0
C1344 C 0.46379 0.18823 0.617 0.0
C1345 C 0.4907 0.1975 0.61907 0.0
C1346 C 0.51183 0.17979 0.62225 0.0
C1347 C 0.50632 0.15351 0.62354 0.0
C1348 C 0.49711 0.22557 0.61851 0.0
C1349 C 0.51182 0.23635 0.63397 0.0
C1350 C 0.48906 0.24167 0.60303 0.0
C1351 C 0.47503 0.23134 0.58572 0.0
C1352 C 0.48686 0.21132 0.57489 0.0
C1353 C 0.4735 0.20161 0.55862 0.0
C1354 C 0.44837 0.2119 0.55293 0.0
C1355 C 0.43659 0.23196 0.56349 0.0
C1356 C 0.44987 0.24172 0.57979 0.0
C1357 C 0.54858 0.3426 0.62097 0.0
C1358 C 0.52687 0.36034 0.62114 0.0
C1359 C 0.54333 0.31605 0.61998 0.0
C1360 C 0.51631 0.30684 0.61893 0.0
C1361 C 0.49475 0.32456 0.61846 0.0
C1362 C 0.49993 0.35094 0.61968 0.0
C1363 C 0.51016 0.27877 0.61907 0.0
C1364 C 0.49542 0.26808 0.60362 0.0
C1365 C 0.51828 0.26269 0.6345 0.0
C1366 C 0.53258 0.27301 0.65171 0.0
C1367 C 0.5207 0.29268 0.66285 0.0
C1368 C 0.53438 0.30244 0.67898 0.0
C1369 C 0.55987 0.29252 0.68421 0.0
C1370 C 0.57169 0.27277 0.67334 0.0
C1371 C 0.55811 0.26297 0.65718 0.0
H1372 H 0.57043 0.30009 0.6967 0.0
H1373 H 0.43806 0.20436 0.54032 0.0
H1374 H 0.06868 0.84819 0.62451 0.0
H1375 H 0.05769 0.80215 0.62282 0.0
H1376 H 0.97311 0.82078 0.61192 0.0
H1377 H 0.98377 0.86644 0.61446 0.0
H1378 H 0.97386 0.78508 0.63664 0.0
H1379 H 0.01969 0.79648 0.57603 0.0
H1380 H 0.05725 0.8094 0.55435 0.0
H1381 H 0.1114 0.7567 0.58293 0.0
H1382 H 0.07423 0.7437 0.60495 0.0
H1383 H 0.93501 0.65538 0.61293 0.0
H1384 H 0.94441 0.70171 0.61015 0.0
H1385 H 0.02773 0.68873 0.62792 0.0
H1386 H 0.01879 0.64291 0.63054 0.0
H1387 H 0.02601 0.72148 0.59804 0.0
H1388 H 0.97954 0.71187 0.65937 0.0
H1389 H 0.94125 0.69895 0.68042 0.0
H1390 H 0.88709 0.74866 0.64897 0.0
H1391 H 0.92502 0.76162 0.62757 0.0
C1392 C 0.04783 0.8424 0.62156 0.0
C1393 C 0.02712 0.86097 0.61967 0.0
C1394 C 0.04153 0.81606 0.62053 0.0
C1395 C 0.01452 0.8078 0.61706 0.0
C1396 C 0.99404 0.82647 0.61472 0.0
C1397 C 1.00021 0.85265 0.61612 0.0
C1398 C 0.00716 0.77986 0.6166 0.0
C1399 C 0.98505 0.77132 0.62791 0.0
C1400 C 0.02189 0.76159 0.60552 0.0
C1401 C 0.04424 0.76929 0.59225 0.0
C1402 C 0.03965 0.78778 0.57777 0.0
C1403 C 0.06087 0.79509 0.56541 0.0
C1404 C 0.08671 0.78393 0.56729 0.0
C1405 C 0.09138 0.76536 0.58151 0.0
C1406 C 0.07024 0.75799 0.59392 0.0
C1407 C 0.95533 0.6624 0.6162 0.0
C1408 C 0.97605 0.64527 0.62203 0.0
C1409 C 0.96067 0.6889 0.61465 0.0
C1410 C 0.98679 0.69877 0.61893 0.0
C1411 C 0.00747 0.68166 0.62447 0.0
C1412 C 1.0022 0.65534 0.62605 0.0
C1413 C 0.99282 0.72688 0.61805 0.0
C1414 C 0.01472 0.7354 0.60657 0.0
C1415 C 0.97777 0.74517 0.62883 0.0
C1416 C 0.95503 0.73749 0.64175 0.0
C1417 C 0.95942 0.71989 0.65686 0.0
C1418 C 0.93779 0.71259 0.66887 0.0
C1419 C 0.91174 0.72292 0.666 0.0
C1420 C 0.90727 0.74064 0.65115 0.0
C1421 C 0.92882 0.74798 0.63909 0.0
H1422 H 0.89502 0.71725 0.67531 0.0
H1423 H 0.10311 0.78962 0.55771 0.0
H1424 H 0.02059 0.96914 0.91866 0.0
H1425 H 0.02952 0.98471 0.95114 0.0
H1426 H 0.94327 0.98273 0.96384 0.0
H1427 H 0.93394 0.96691 0.93108 0.0
H1428 H 0.97003 0.02845 0.97608 0.0
H1429 H 0.98069 0.9373 0.98172 0.0
H1430 H 0.99802 0.89435 0.97282 0.0
H1431 H 0.08037 0.91972 0.98268 0.0
H1432 H 0.06355 0.96298 0.99135 0.0
H1433 H 0.98239 0.03977 0.07738 0.0
H1434 H 0.97228 0.02451 0.04497 0.0
H1435 H 0.05833 0.02357 0.03152 0.0
H1436 H 0.06883 0.03893 0.06419 0.0
H1437 H 0.03099 0.97906 0.01977 0.0
H1438 H 0.02045 0.07026 0.01383 0.0
H1439 H 0.00325 0.11331 0.02258 0.0
H1440 H 0.92079 0.08795 0.0132 0.0
H1441 H 0.93748 0.04459 0.00467 0.0
C1442 C 0.00338 0.97205 0.92825 0.0
C1443 C 0.97648 0.9667 0.92222 0.0
C1444 C 0.0086 0.98086 0.94688 0.0
C1445 C 0.98711 0.98462 0.95993 0.0
C1446 C 0.96015 0.97985 0.95395 0.0
C1447 C 0.95487 0.97074 0.93528 0.0
C1448 C 0.99313 0.99354 0.97979 0.0
C1449 C 0.98297 0.01748 0.98578 0.0
C1450 C 0.01065 0.97949 0.99218 0.0
C1451 C 0.02087 0.95348 0.98701 0.0
C1452 C 0.00251 0.9338 0.98182 0.0
C1453 C 0.01224 0.90938 0.97685 0.0
C1454 C 0.04029 0.90433 0.97714 0.0
C1455 C 0.05865 0.92368 0.98244 0.0
C1456 C 0.04903 0.94815 0.9874 0.0
C1457 C 0.99929 0.03633 0.06761 0.0
C1458 C 0.02649 0.04063 0.07344 0.0
C1459 C 0.99339 0.02771 0.04902 0.0
C1460 C 0.01451 0.02314 0.03579 0.0
C1461 C 0.04173 0.02707 0.04154 0.0
C1462 C 0.04768 0.03592 0.06017 0.0
C1463 C 0.00794 0.01402 0.01606 0.0
C1464 C 0.01801 0.99002 0.0101 0.0
C1465 C 0.99034 0.02803 0.00369 0.0
C1466 C 0.98021 0.05409 0.0088 0.0
C1467 C 0.99863 0.07378 0.0138 0.0
C1468 C 0.98898 0.09826 0.01869 0.0
C1469 C 0.96094 0.10334 0.01849 0.0
C1470 C 0.9425 0.08397 0.01337 0.0
C1471 C 0.95205 0.05944 0.00849 0.0
H1472 H 0.9535 0.12231 0.02228 0.0
H1473 H 0.04778 0.8854 0.97329 0.0
H1474 H 0.56217 0.05997 0.93756 0.0
H1475 H 0.55052 0.04443 0.9699 0.0
H1476 H 0.49289 0.99086 0.94517 0.0
H1477 H 0.50377 0.00682 0.91301 0.0
H1478 H 0.46994 0.01504 0.97376 0.0
H1479 H 0.55604 0.97176 0.96466 0.0
H1480 H 0.60529 0.96896 0.95736 0.0
H1481 H 0.62318 0.01853 0.00531 0.0
H1482 H 0.57399 0.0219 0.01275 0.0
H1483 H 0.44444 0.94253 0.05964 0.0
H1484 H 0.45641 0.95684 0.02701 0.0
H1485 H 0.51449 0.0107 0.05085 0.0
H1486 H 0.50329 0.99598 0.08326 0.0
H1487 H 0.53719 0.98576 0.02256 0.0
H1488 H 0.45123 0.02954 0.03142 0.0
H1489 H 0.40199 0.03258 0.03874 0.0
H1490 H 0.38389 0.9823 0.99124 0.0
H1491 H 0.43307 0.97869 0.9838 0.0
C1492 C 0.5473 0.04464 0.93903 0.0
C1493 C 0.53382 0.0347 0.92275 0.0
C1494 C 0.54067 0.03574 0.95751 0.0
C1495 C 0.52088 0.01637 0.95998 0.0
C1496 C 0.50807 0.00592 0.94366 0.0
C1497 C 0.5144 0.01502 0.92527 0.0
C1498 C 0.51253 0.00768 0.97953 0.0
C1499 C 0.48463 0.0083 0.98434 0.0
C1500 C 0.53171 0.99946 0.99351 0.0
C1501 C 0.56131 0.99726 0.98915 0.0
C1502 C 0.57046 0.9822 0.97357 0.0
C1503 C 0.59837 0.98049 0.96942 0.0
C1504 C 0.61735 0.99361 0.98083 0.0
C1505 C 0.60846 0.00841 0.99646 0.0
C1506 C 0.58057 0.0102 0.00067 0.0
C1507 C 0.45951 0.95762 0.0579 0.0
C1508 C 0.47299 0.96804 0.07401 0.0
C1509 C 0.46633 0.96582 0.03926 0.0
C1510 C 0.4863 0.98495 0.03647 0.0
C1511 C 0.49918 0.99581 0.0526 0.0
C1512 C 0.49267 0.98741 0.07115 0.0
C1513 C 0.49461 0.99318 0.01679 0.0
C1514 C 0.5225 0.99247 0.01196 0.0
C1515 C 0.47543 1.00134 0.00279 0.0
C1516 C 0.44585 0.00366 0.00717 0.0
C1517 C 0.43676 0.01899 0.02262 0.0
C1518 C 0.40886 0.02084 0.02678 0.0
C1519 C 0.38983 0.00758 0.01549 0.0
C1520 C 0.39866 0.99252 -1e-05 0.0
C1521 C 0.42654 0.99059 0.99578 0.0
H1522 H 0.36825 0.00903 0.01874 0.0
H1523 H 0.63894 0.99227 0.97759 0.0
H1524 H 0.43821 0.0507 0.56224 0.0
H1525 H 0.44847 0.03589 0.52945 0.0
H1526 H 0.52411 0.0027 0.54953 0.0
H1527 H 0.51431 0.01752 0.58208 0.0
H1528 H 0.53229 0.0309 0.51776 0.0
H1529 H 0.46912 0.96496 0.53815 0.0
H1530 H 0.42554 0.94796 0.55074 0.0
H1531 H 0.38237 0.98277 0.50354 0.0
H1532 H 0.42567 1.00023 0.49078 0.0
H1533 H 0.56642 0.95451 0.43524 0.0
H1534 H 0.55564 0.9704 0.46766 0.0
H1535 H 0.47989 0.00216 0.44652 0.0
H1536 H 0.49021 0.98627 0.41434 0.0
H1537 H 0.4713 0.9754 0.47859 0.0
H1538 H 0.53336 0.04091 0.45777 0.0
H1539 H 0.57627 0.05897 0.44491 0.0
H1540 H 0.62077 0.02654 0.49245 0.0
H1541 H 0.57815 0.00795 0.50546 0.0
C1542 C 0.45689 0.04002 0.55971 0.0
C1543 C 0.47547 0.03544 0.57483 0.0
C1544 C 0.46271 0.03155 0.54097 0.0
C1545 C 0.48708 0.01818 0.53706 0.0
C1546 C 0.50529 0.01311 0.55218 0.0
C1547 C 0.49955 0.02158 0.57083 0.0
C1548 C 0.49421 0.01006 0.51715 0.0
C1549 C 0.51912 0.01848 0.50927 0.0
C1550 C 0.47667 0.99447 0.5059 0.0
C1551 C 0.45061 0.9841 0.51361 0.0
C1552 C 0.45031 0.96917 0.53055 0.0
C1553 C 0.42566 0.95942 0.53769 0.0
C1554 C 0.40121 0.96432 0.52795 0.0
C1555 C 0.40133 0.97901 0.51106 0.0
C1556 C 0.42592 0.98881 0.50386 0.0
C1557 C 0.5476 0.96509 0.43746 0.0
C1558 C 0.52915 0.96895 0.42216 0.0
C1559 C 0.54148 0.9742 0.45599 0.0
C1560 C 0.51693 0.98747 0.4595 0.0
C1561 C 0.49885 0.99183 0.44418 0.0
C1562 C 0.50488 0.98275 0.42574 0.0
C1563 C 0.50947 0.99611 0.47923 0.0
C1564 C 0.48449 0.98781 0.48706 0.0
C1565 C 0.52687 0.01194 0.49039 0.0
C1566 C 0.55259 0.02282 0.48249 0.0
C1567 C 0.55233 0.0374 0.46538 0.0
C1568 C 0.57659 0.04778 0.45809 0.0
C1569 C 0.60123 0.04387 0.46784 0.0
C1570 C 0.60167 0.02953 0.4849 0.0
C1571 C 0.57746 0.01908 0.49225 0.0
H1572 H 0.61994 0.05207 0.46224 0.0
H1573 H 0.38218 0.95663 0.53344 0.0
H1574 H 0.0611 0.94366 0.55887 0.0
H1575 H 0.0486 0.95754 0.52627 0.0
H1576 H 0.98939 0.01026 0.55015 0.0
H1577 H 1.00114 0.99592 0.58259 0.0
H1578 H 0.96699 0.98465 0.52213 0.0
H1579 H 0.05203 0.0303 0.52987 0.0
H1580 H 0.10128 0.03458 0.53676 0.0
H1581 H 0.11995 0.98371 0.48972 0.0
H1582 H 0.07078 0.97886 0.48271 0.0
H1583 H 0.93999 0.05712 0.43645 0.0
H1584 H 0.95167 0.04174 0.46881 0.0
H1585 H 0.01025 0.98895 0.44425 0.0
H1586 H 0.99928 0.00474 0.41204 0.0
H1587 H 0.03296 0.01407 0.47248 0.0
H1588 H 0.94791 0.96887 0.46446 0.0
H1589 H 0.89868 0.96477 0.45749 0.0
H1590 H 0.87999 0.01489 0.50497 0.0
H1591 H 0.92915 0.01957 0.51207 0.0
C1592 C 0.04571 0.95847 0.55716 0.0
C1593 C 0.03207 0.96863 0.57331 0.0
C1594 C 0.03857 0.96642 0.53852 0.0
C1595 C 0.01809 0.98506 0.53572 0.0
C1596 C 0.0051 0.99575 0.55189 0.0
C1597 C 0.01193 0.98759 0.57046 0.0
C1598 C 0.00933 0.9928 0.516 0.0
C1599 C 0.9814 0.9914 0.51135 0.0
C1600 C 0.02813 1.00099 0.50175 0.0
C1601 C 0.05771 0.00403 0.50588 0.0
C1602 C 0.06663 0.01988 0.52108 0.0
C1603 C 0.09453 0.02244 0.52499 0.0
C1604 C 0.11373 0.00937 0.51372 0.0
C1605 C 0.10506 0.99379 0.49846 0.0
C1606 C 0.07718 0.99115 0.4945 0.0
C1607 C 0.955 0.04192 0.43794 0.0
C1608 C 0.96879 0.03223 0.42169 0.0
C1609 C 0.96167 0.03312 0.45646 0.0
C1610 C 0.98184 0.01412 0.459 0.0
C1611 C 0.99479 0.00374 0.44269 0.0
C1612 C 0.9884 0.01273 0.42427 0.0
C1613 C 0.99062 0.00596 0.47861 0.0
C1614 C 0.01855 0.00728 0.48325 0.0
C1615 C 0.97181 0.99771 0.49285 0.0
C1616 C 0.94223 0.99475 0.48869 0.0
C1617 C 0.93331 0.97916 0.47334 0.0
C1618 C 0.90542 0.97671 0.46937 0.0
C1619 C 0.88622 0.98961 0.48075 0.0
C1620 C 0.89488 0.00493 0.49616 0.0
C1621 C 0.92276 0.00747 0.50017 0.0
H1622 H 0.86464 0.9877 0.47765 0.0
H1623 H 0.13532 0.01137 0.51677 0.0
H1624 H 0.57119 0.53014 0.06617 0.0
H1625 H 0.56123 0.51243 0.03407 0.0
H1626 H 0.4777 0.53845 0.03899 0.0
H1627 H 0.48723 0.55499 0.07114 0.0
H1628 H 0.47752 0.4922 0.02607 0.0
H1629 H 0.52864 0.56918 0.00963 0.0
H1630 H 0.56874 0.59795 0.01073 0.0
H1631 H 0.6194 0.53756 0.98811 0.0
H1632 H 0.57965 0.50835 0.98706 0.0
H1633 H 0.43582 0.47598 0.9282 0.0
H1634 H 0.44698 0.49309 0.96024 0.0
H1635 H 0.5304 0.46752 0.95341 0.0
H1636 H 0.51967 0.45164 0.92124 0.0
H1637 H 0.53138 0.51273 0.96745 0.0
H1638 H 0.48083 0.4359 0.9833 0.0
H1639 H 0.44125 0.40649 0.98247 0.0
H1640 H 0.39016 0.46558 0.00652 0.0
H1641 H 0.42937 0.49543 0.00728 0.0
C1642 C 0.5508 0.5322 0.06027 0.0
C1643 C 0.52997 0.54382 0.07116 0.0
C1644 C 0.54512 0.52215 0.04192 0.0
C1645 C 0.5187 0.52424 0.034 0.0
C1646 C 0.49815 0.53639 0.04478 0.0
C1647 C 0.50366 0.54591 0.06316 0.0
C1648 C 0.51192 0.5133 0.01475 0.0
C1649 C 0.48914 0.49695 0.01321 0.0
C1650 C 0.52743 0.51887 -0.00198 0.0
C1651 C 0.55123 0.53654 -0.00158 0.0
C1652 C 0.54836 0.56201 0.00498 0.0
C1653 C 0.57102 0.5784 0.00558 0.0
C1654 C 0.59662 0.56957 -0.00047 0.0
C1655 C 0.59958 0.54436 0.9928 0.0
C1656 C 0.57699 0.5279 0.99218 0.0
C1657 C 0.45646 0.47395 0.93363 0.0
C1658 C 0.47688 0.46259 0.92221 0.0
C1659 C 0.46283 0.48362 0.95197 0.0
C1660 C 0.48953 0.48139 0.95939 0.0
C1661 C 0.50973 0.46965 0.94803 0.0
C1662 C 0.50353 0.46051 0.92963 0.0
C1663 C 0.49685 0.49174 0.97873 0.0
C1664 C 0.51976 0.50796 0.9803 0.0
C1665 C 0.48151 0.48596 0.99551 0.0
C1666 C 0.45798 0.46796 0.99518 0.0
C1667 C 0.46111 0.44266 0.9883 0.0
C1668 C 0.43875 0.42591 0.98786 0.0
C1669 C 0.41319 0.43418 0.99439 0.0
C1670 C 0.40996 0.4592 0.00144 0.0
C1671 C 0.43225 0.47603 0.0019 0.0
H1672 H 0.3959 0.42119 0.99403 0.0
H1673 H 0.61414 0.58227 3e-05 0.0
H1674 H 0.93589 0.45624 0.06004 0.0
H1675 H 0.94636 0.47312 0.02781 0.0
H1676 H 0.02613 0.4967 0.04754 0.0
H1677 H 0.01586 0.48045 0.07958 0.0
H1678 H 0.00432 0.53314 0.02568 0.0
H1679 H 0.01748 0.4416 0.02125 0.0
H1680 H 0.0042 0.39595 0.02402 0.0
H1681 H 0.93922 0.40789 0.98335 0.0
H1682 H 0.9519 0.45373 0.98054 0.0
H1683 H 0.06797 0.55122 0.93364 0.0
H1684 H 0.05716 0.5355 0.96615 0.0
H1685 H 0.97697 0.51263 0.94682 0.0
H1686 H 0.98753 0.52779 0.91453 0.0
H1687 H 0.99919 0.47587 0.96851 0.0
H1688 H 0.98654 0.56774 0.97301 0.0
H1689 H 1.00046 0.61323 0.97029 0.0
H1690 H 0.06535 0.60038 0.01088 0.0
H1691 H 0.05202 0.5547 0.01364 0.0
C1692 C 0.95558 0.46516 0.05754 0.0
C1693 C 0.97504 0.46679 0.07244 0.0
C1694 C 0.9616 0.4747 0.03909 0.0
C1695 C 0.98719 0.48591 0.03521 0.0
C1696 C 0.00629 0.48813 0.05016 0.0
C1697 C 1.00033 0.47867 0.06852 0.0
C1698 C 0.99451 0.49502 0.01554 0.0
C1699 C 0.00345 0.52053 0.01321 0.0
C1700 C 0.99307 0.47871 -0.00078 0.0
C1701 C 0.98545 0.45115 0.00085 0.0
C1702 C 1.00022 0.43454 0.01301 0.0
C1703 C 0.99283 0.40862 0.01457 0.0
C1704 C 0.97083 0.39904 0.00391 0.0
C1705 C 0.95622 0.41535 0.99163 0.0
C1706 C 0.96351 0.44129 0.99004 0.0
C1707 C 0.04804 0.54281 0.93631 0.0
C1708 C 0.02863 0.5409 0.92141 0.0
C1709 C 0.04188 0.53392 0.95492 0.0
C1710 C 0.01615 0.52307 0.95895 0.0
C1711 C 0.99695 0.52088 0.94406 0.0
C1712 C 0.00305 0.52969 0.92555 0.0
C1713 C 0.00892 0.51401 0.97864 0.0
C1714 C 1.00002 0.48848 0.98098 0.0
C1715 C 0.01049 0.53029 0.99498 0.0
C1716 C 0.01846 0.55775 0.99338 0.0
C1717 C 0.00391 0.57457 0.98124 0.0
C1718 C 0.01166 0.60039 0.97971 0.0
C1719 C 0.03382 0.60967 0.99036 0.0
C1720 C 0.04822 0.59316 0.00261 0.0
C1721 C 0.04056 0.56731 0.00418 0.0
H1722 H 0.03979 0.62967 0.98916 0.0
H1723 H 0.96514 0.37897 0.00513 0.0
H1724 H 0.94191 0.55966 0.55996 0.0
H1725 H 0.95313 0.54442 0.52747 0.0
H1726 H 0.01587 0.49531 0.55114 0.0
H1727 H 0.00539 0.51101 0.58343 0.0
H1728 H 0.03538 0.51989 0.52165 0.0
H1729 H 0.95303 0.47181 0.53363 0.0
H1730 H 0.90453 0.46646 0.54247 0.0
H1731 H 0.88066 0.51372 0.49451 0.0
H1732 H 0.92906 0.51962 0.48552 0.0
H1733 H 0.06102 0.44556 0.43654 0.0
H1734 H 0.0502 0.46095 0.46908 0.0
H1735 H 0.9872 0.51 0.44567 0.0
H1736 H 0.9973 0.49418 0.41336 0.0
H1737 H 0.96775 0.48534 0.47512 0.0
H1738 H 0.05071 0.53309 0.46316 0.0
H1739 H 0.09947 0.53941 0.45535 0.0
H1740 H 0.12233 0.49262 0.50381 0.0
H1741 H 0.07374 0.48571 0.51175 0.0
C1742 C 0.95788 0.5454 0.55824 0.0
C1743 C 0.97281 0.53663 0.57428 0.0
C1744 C 0.96425 0.53665 0.53966 0.0
C1745 C 0.98528 0.51857 0.53683 0.0
C1746 C 0.99969 0.50935 0.55291 0.0
C1747 C 0.9936 0.51831 0.57139 0.0
C1748 C 0.99312 0.50991 0.51713 0.0
C1749 C 0.02064 0.51199 0.51156 0.0
C1750 C 0.97383 0.50019 0.50379 0.0
C1751 C 0.94469 0.49634 0.50901 0.0
C1752 C 0.93745 0.48118 0.52503 0.0
C1753 C 0.90997 0.47804 0.53006 0.0
C1754 C 0.88953 0.4898 0.51909 0.0
C1755 C 0.89652 0.50465 0.50301 0.0
C1756 C 0.92397 0.50787 0.49793 0.0
C1757 C 0.04511 0.45986 0.43833 0.0
C1758 C 0.02994 0.46854 0.42237 0.0
C1759 C 0.03895 0.4687 0.45694 0.0
C1760 C 0.01791 0.48675 0.45987 0.0
C1761 C 0.00338 0.49596 0.44384 0.0
C1762 C 0.00925 0.48693 0.42534 0.0
C1763 C 0.01007 0.4953 0.4796 0.0
C1764 C 0.98252 0.49321 0.48519 0.0
C1765 C 0.02937 0.50494 0.49299 0.0
C1766 C 0.05857 0.5087 0.48795 0.0
C1767 C 0.06613 0.52394 0.47204 0.0
C1768 C 0.09374 0.52767 0.46761 0.0
C1769 C 0.11395 0.5164 0.47908 0.0
C1770 C 0.10664 0.50132 0.49494 0.0
C1771 C 0.07908 0.4975 0.49941 0.0
H1772 H 0.1353 0.51945 0.47576 0.0
H1773 H 0.86827 0.48737 0.52303 0.0
H1774 H 0.48841 0.44792 0.56902 0.0
H1775 H 0.47923 0.4647 0.53674 0.0
H1776 H 0.56062 0.49638 0.53424 0.0
H1777 H 0.57029 0.47892 0.56659 0.0
H1778 H 0.51388 0.53172 0.52536 0.0
H1779 H 0.55294 0.45114 0.50715 0.0
H1780 H 0.55945 0.4041 0.5079 0.0
H1781 H 0.4762 0.39294 0.49018 0.0
H1782 H 0.46906 0.43996 0.48962 0.0
H1783 H 0.51498 0.56145 0.42462 0.0
H1784 H 0.52546 0.54512 0.45685 0.0
H1785 H 0.4452 0.51113 0.46036 0.0
H1786 H 0.43425 0.52806 0.42809 0.0
H1787 H 0.49231 0.47703 0.46862 0.0
H1788 H 0.45317 0.55763 0.48715 0.0
H1789 H 0.44664 0.60466 0.48649 0.0
H1790 H 0.53013 0.61582 0.50363 0.0
H1791 H 0.5373 0.5688 0.50409 0.0
C1792 C 0.50446 0.45827 0.56154 0.0
C1793 C 0.53004 0.46222 0.57028 0.0
C1794 C 0.4992 0.46777 0.54311 0.0
C1795 C 0.51924 0.48176 0.53319 0.0
C1796 C 0.54494 0.48559 0.54174 0.0
C1797 C 0.55047 0.47554 0.5601 0.0
C1798 C 0.51259 0.49306 0.5142 0.0
C1799 C 0.50964 0.51985 0.51283 0.0
C1800 C 0.50627 0.47739 0.49813 0.0
C1801 C 0.51037 0.44909 0.49856 0.0
C1802 C 0.53592 0.43866 0.50363 0.0
C1803 C 0.53975 0.412 0.50397 0.0
C1804 C 0.51823 0.39554 0.49915 0.0
C1805 C 0.49285 0.40572 0.49394 0.0
C1806 C 0.4889 0.43238 0.4936 0.0
C1807 C 0.49944 0.55072 0.43233 0.0
C1808 C 0.47382 0.54594 0.42388 0.0
C1809 C 0.50545 0.54147 0.45073 0.0
C1810 C 0.48612 0.52693 0.4609 0.0
C1811 C 0.46034 0.52235 0.45266 0.0
C1812 C 0.45408 0.53212 0.43434 0.0
C1813 C 0.49354 0.5157 0.47978 0.0
C1814 C 0.49661 0.48892 0.48113 0.0
C1815 C 0.49999 0.53138 0.49583 0.0
C1816 C 0.49586 0.55968 0.49542 0.0
C1817 C 0.47024 0.5701 0.49056 0.0
C1818 C 0.46639 0.59676 0.49027 0.0
C1819 C 0.48798 0.61323 0.49495 0.0
C1820 C 0.51344 0.60304 0.49997 0.0
C1821 C 0.5174 0.57639 0.50026 0.0
H1822 H 0.48496 0.63387 0.49474 0.0
H1823 H 0.52124 0.3749 0.4994 0.0
loop_
_geom_bond_atom_site_label_1
_geom_bond_atom_site_label_2
_geom_bond_distance
_geom_bond_site_symmetry_2
_ccdc_geom_bond_type
Co0 O1 2.216 . S
Co0 O2 2.091 . S
Co0 O4 2.004 . S
Co0 O10 2.021 . S
Co0 O12 2.137 . S
Co0 O13 2.244 . S
O1 Co0 2.216 . S
O1 C8 1.247 . S
O2 Co0 2.091 . S
O2 C8 1.261 . S
C3 O12 1.247 . S
C3 O13 1.272 . S
O4 Co0 2.004 . S
O4 C9 1.259 . S
Co5 O6 2.045 1_655 S
Co5 O11 2.037 1_655 S
Co5 O13 2.105 1_655 S
O6 Co5 2.045 1_455 S
O6 C9 1.235 . S
C7 O10 1.238 . S
C7 O11 1.241 . S
C8 O1 1.247 . S
C8 O2 1.261 . S
C9 O4 1.259 . S
C9 O6 1.235 . S
O10 Co0 2.021 . S
O10 C7 1.238 . S
O11 Co5 2.037 1_455 S
O11 C7 1.241 . S
O12 Co0 2.137 . S
O12 C3 1.247 . S
O13 Co0 2.244 . S
O13 C3 1.272 . S
O13 Co5 2.105 1_455 S
Co14 O15 2.216 . S
Co14 O16 2.091 . S
Co14 O18 2.004 . S
Co14 O24 2.021 . S
Co14 O26 2.137 . S
Co14 O27 2.244 . S
O15 Co14 2.216 . S
O15 C22 1.247 . S
O16 Co14 2.091 . S
O16 C22 1.261 . S
C17 O26 1.247 . S
C17 O27 1.272 . S
O18 Co14 2.004 . S
O18 C23 1.259 . S
Co19 O20 2.061 . S
Co19 O25 2.052 . S
Co19 O27 2.135 . S
O20 Co19 2.061 . S
O20 C23 1.235 . S
C21 O24 1.238 . S
C21 O25 1.241 . S
C22 O15 1.247 . S
C22 O16 1.261 . S
C23 O18 1.259 . S
C23 O20 1.235 . S
O24 Co14 2.021 . S
O24 C21 1.238 . S
O25 Co19 2.052 . S
O25 C21 1.241 . S
O26 Co14 2.137 . S
O26 C17 1.247 . S
O27 Co14 2.244 . S
O27 C17 1.272 . S
O27 Co19 2.135 . S
Co28 O29 2.216 . S
Co28 O30 2.091 . S
Co28 O32 2.004 . S
Co28 O38 2.021 . S
Co28 O40 2.137 . S
Co28 O41 2.244 . S
O29 Co28 2.216 . S
O29 C36 1.247 . S
O30 Co28 2.091 . S
O30 C36 1.261 . S
C31 O40 1.247 . S
C31 O41 1.272 . S
O32 Co28 2.004 . S
O32 C37 1.259 . S
Co33 O34 2.061 . S
Co33 O39 2.052 . S
Co33 O41 2.135 . S
O34 Co33 2.061 . S
O34 C37 1.235 . S
C35 O38 1.238 . S
C35 O39 1.241 . S
C36 O29 1.247 . S
C36 O30 1.261 . S
C37 O32 1.259 . S
C37 O34 1.235 . S
O38 Co28 2.021 . S
O38 C35 1.238 . S
O39 Co33 2.052 . S
O39 C35 1.241 . S
O40 Co28 2.137 . S
O40 C31 1.247 . S
O41 Co28 2.244 . S
O41 C31 1.272 . S
O41 Co33 2.135 . S
Co42 O43 2.216 . S
Co42 O44 2.091 . S
Co42 O46 2.004 . S
Co42 O52 2.021 . S
Co42 O54 2.137 . S
Co42 O55 2.244 . S
O43 Co42 2.216 . S
O43 C50 1.247 . S
O44 Co42 2.091 . S
O44 C50 1.261 . S
C45 O54 1.247 . S
C45 O55 1.272 . S
O46 Co42 2.004 . S
O46 C51 1.259 . S
Co47 O48 2.045 1_455 S
Co47 O53 2.037 1_455 S
Co47 O55 2.105 1_455 S
O48 Co47 2.045 1_655 S
O48 C51 1.235 . S
C49 O52 1.238 . S
C49 O53 1.241 . S
C50 O43 1.247 . S
C50 O44 1.261 . S
C51 O46 1.259 . S
C51 O48 1.235 . S
O52 Co42 2.021 . S
O52 C49 1.238 . S
O53 Co47 2.037 1_655 S
O53 C49 1.241 . S
O54 Co42 2.137 . S
O54 C45 1.247 . S
O55 Co42 2.244 . S
O55 C45 1.272 . S
O55 Co47 2.105 1_655 S
Co56 O57 2.216 . S
Co56 O58 2.091 . S
Co56 O60 2.004 . S
Co56 O66 2.021 . S
Co56 O68 2.137 . S
Co56 O69 2.244 . S
O57 Co56 2.216 . S
O57 C64 1.247 . S
O58 Co56 2.091 . S
O58 C64 1.261 . S
C59 O68 1.247 . S
C59 O69 1.272 . S
O60 Co56 2.004 . S
O60 C65 1.259 . S
Co61 O62 2.045 1_455 S
Co61 O67 2.037 1_455 S
Co61 O69 2.105 1_455 S
O62 Co61 2.045 1_655 S
O62 C65 1.235 . S
C63 O66 1.238 . S
C63 O67 1.241 . S
C64 O57 1.247 . S
C64 O58 1.261 . S
C65 O60 1.259 . S
C65 O62 1.235 . S
O66 Co56 2.021 . S
O66 C63 1.238 . S
O67 Co61 2.037 1_655 S
O67 C63 1.241 . S
O68 Co56 2.137 . S
O68 C59 1.247 . S
O69 Co56 2.244 . S
O69 C59 1.272 . S
O69 Co61 2.105 1_655 S
Co70 O71 2.216 . S
Co70 O72 2.091 . S
Co70 O74 2.004 . S
Co70 O80 2.021 . S
Co70 O82 2.137 . S
Co70 O83 2.244 . S
O71 Co70 2.216 . S
O71 C78 1.247 . S
O72 Co70 2.091 . S
O72 C78 1.261 . S
C73 O82 1.247 . S
C73 O83 1.272 . S
O74 Co70 2.004 . S
O74 C79 1.259 . S
Co75 O76 2.061 . S
Co75 O81 2.052 . S
Co75 O83 2.135 . S
O76 Co75 2.061 . S
O76 C79 1.235 . S
C77 O80 1.238 . S
C77 O81 1.241 . S
C78 O71 1.247 . S
C78 O72 1.261 . S
C79 O74 1.259 . S
C79 O76 1.235 . S
O80 Co70 2.021 . S
O80 C77 1.238 . S
O81 Co75 2.052 . S
O81 C77 1.241 . S
O82 Co70 2.137 . S
O82 C73 1.247 . S
O83 Co70 2.244 . S
O83 C73 1.272 . S
O83 Co75 2.135 . S
Co84 O85 2.216 . S
Co84 O86 2.091 . S
Co84 O88 2.004 . S
Co84 O94 2.021 . S
Co84 O96 2.137 . S
Co84 O97 2.244 . S
O85 Co84 2.216 . S
O85 C92 1.247 . S
O86 Co84 2.091 . S
O86 C92 1.261 . S
C87 O96 1.247 . S
C87 O97 1.272 . S
O88 Co84 2.004 . S
O88 C93 1.259 . S
Co89 O90 2.061 . S
Co89 O95 2.052 . S
Co89 O97 2.135 . S
O90 Co89 2.061 . S
O90 C93 1.235 . S
C91 O94 1.238 . S
C91 O95 1.241 . S
C92 O85 1.247 . S
C92 O86 1.261 . S
C93 O88 1.259 . S
C93 O90 1.235 . S
O94 Co84 2.021 . S
O94 C91 1.238 . S
O95 Co89 2.052 . S
O95 C91 1.241 . S
O96 Co84 2.137 . S
O96 C87 1.247 . S
O97 Co84 2.244 . S
O97 C87 1.272 . S
O97 Co89 2.135 . S
Co98 O99 2.216 . S
Co98 O100 2.091 . S
Co98 O102 2.004 . S
Co98 O108 2.021 . S
Co98 O110 2.137 . S
Co98 O111 2.244 . S
O99 Co98 2.216 . S
O99 C106 1.247 . S
O100 Co98 2.091 . S
O100 C106 1.261 . S
C101 O110 1.247 . S
C101 O111 1.272 . S
O102 Co98 2.004 . S
O102 C107 1.259 . S
Co103 O104 2.045 1_655 S
Co103 O109 2.037 1_655 S
Co103 O111 2.105 1_655 S
O104 Co103 2.045 1_455 S
O104 C107 1.235 . S
C105 O108 1.238 . S
C105 O109 1.241 . S
C106 O99 1.247 . S
C106 O100 1.261 . S
C107 O102 1.259 . S
C107 O104 1.235 . S
O108 Co98 2.021 . S
O108 C105 1.238 . S
O109 Co103 2.037 1_455 S
O109 C105 1.241 . S
O110 Co98 2.137 . S
O110 C101 1.247 . S
O111 Co98 2.244 . S
O111 C101 1.272 . S
O111 Co103 2.105 1_455 S
Co112 O113 2.216 . S
Co112 O114 2.091 . S
Co112 O116 2.004 . S
Co112 O122 2.021 . S
Co112 O124 2.137 . S
Co112 O125 2.244 . S
O113 Co112 2.216 . S
O113 C120 1.247 . S
O114 Co112 2.091 . S
O114 C120 1.261 . S
C115 O124 1.247 . S
C115 O125 1.272 . S
O116 Co112 2.004 . S
O116 C121 1.259 . S
Co117 O118 2.061 . S
Co117 O123 2.052 . S
Co117 O125 2.135 . S
O118 Co117 2.061 . S
O118 C121 1.235 . S
C119 O122 1.238 . S
C119 O123 1.241 . S
C120 O113 1.247 . S
C120 O114 1.261 . S
C121 O116 1.259 . S
C121 O118 1.235 . S
O122 Co112 2.021 . S
O122 C119 1.238 . S
O123 Co117 2.052 . S
O123 C119 1.241 . S
O124 Co112 2.137 . S
O124 C115 1.247 . S
O125 Co112 2.244 . S
O125 C115 1.272 . S
O125 Co117 2.135 . S
Co126 O127 2.216 . S
Co126 O128 2.091 . S
Co126 O130 2.004 . S
Co126 O136 2.021 . S
Co126 O138 2.137 . S
Co126 O139 2.244 . S
O127 Co126 2.216 . S
O127 C134 1.247 . S
O128 Co126 2.091 . S
O128 C134 1.261 . S
C129 O138 1.247 . S
C129 O139 1.272 . S
O130 Co126 2.004 . S
O130 C135 1.259 . S
Co131 O132 2.045 1_455 S
Co131 O137 2.037 1_455 S
Co131 O139 2.105 1_455 S
O132 Co131 2.045 1_655 S
O132 C135 1.235 . S
C133 O136 1.238 . S
C133 O137 1.241 . S
C134 O127 1.247 . S
C134 O128 1.261 . S
C135 O130 1.259 . S
C135 O132 1.235 . S
O136 Co126 2.021 . S
O136 C133 1.238 . S
O137 Co131 2.037 1_655 S
O137 C133 1.241 . S
O138 Co126 2.137 . S
O138 C129 1.247 . S
O139 Co126 2.244 . S
O139 C129 1.272 . S
O139 Co131 2.105 1_655 S
Co140 O141 2.216 . S
Co140 O142 2.091 . S
Co140 O144 2.004 . S
Co140 O150 2.021 . S
Co140 O152 2.137 . S
Co140 O153 2.244 . S
O141 Co140 2.216 . S
O141 C148 1.247 . S
O142 Co140 2.091 . S
O142 C148 1.261 . S
C143 O152 1.247 . S
C143 O153 1.272 . S
O144 Co140 2.004 . S
O144 C149 1.259 . S
Co145 O146 2.045 1_655 S
Co145 O151 2.037 1_655 S
Co145 O153 2.105 1_655 S
O146 Co145 2.045 1_455 S
O146 C149 1.235 . S
C147 O150 1.238 . S
C147 O151 1.241 . S
C148 O141 1.247 . S
C148 O142 1.261 . S
C149 O144 1.259 . S
C149 O146 1.235 . S
O150 Co140 2.021 . S
O150 C147 1.238 . S
O151 Co145 2.037 1_455 S
O151 C147 1.241 . S
O152 Co140 2.137 . S
O152 C143 1.247 . S
O153 Co140 2.244 . S
O153 C143 1.272 . S
O153 Co145 2.105 1_455 S
Co154 O155 2.216 . S
Co154 O156 2.091 . S
Co154 O158 2.004 . S
Co154 O164 2.021 . S
Co154 O166 2.137 . S
Co154 O167 2.244 . S
O155 Co154 2.216 . S
O155 C162 1.247 . S
O156 Co154 2.091 . S
O156 C162 1.261 . S
C157 O166 1.247 . S
C157 O167 1.272 . S
O158 Co154 2.004 . S
O158 C163 1.259 . S
Co159 O160 2.061 . S
Co159 O165 2.052 . S
Co159 O167 2.135 . S
O160 Co159 2.061 . S
O160 C163 1.235 . S
C161 O164 1.238 . S
C161 O165 1.241 . S
C162 O155 1.247 . S
C162 O156 1.261 . S
C163 O158 1.259 . S
C163 O160 1.235 . S
O164 Co154 2.021 . S
O164 C161 1.238 . S
O165 Co159 2.052 . S
O165 C161 1.241 . S
O166 Co154 2.137 . S
O166 C157 1.247 . S
O167 Co154 2.244 . S
O167 C157 1.272 . S
O167 Co159 2.135 . S
Co168 O169 2.216 . S
Co168 O170 2.091 . S
Co168 O172 2.004 . S
Co168 O178 2.021 . S
Co168 O180 2.137 . S
Co168 O181 2.244 . S
O169 Co168 2.216 . S
O169 C176 1.247 . S
O170 Co168 2.091 . S
O170 C176 1.261 . S
C171 O180 1.247 . S
C171 O181 1.272 . S
O172 Co168 2.004 . S
O172 C177 1.259 . S
Co173 O174 2.061 . S
Co173 O179 2.052 . S
Co173 O181 2.135 . S
O174 Co173 2.061 . S
O174 C177 1.235 . S
C175 O178 1.238 . S
C175 O179 1.241 . S
C176 O169 1.247 . S
C176 O170 1.261 . S
C177 O172 1.259 . S
C177 O174 1.235 . S
O178 Co168 2.021 . S
O178 C175 1.238 . S
O179 Co173 2.052 . S
O179 C175 1.241 . S
O180 Co168 2.137 . S
O180 C171 1.247 . S
O181 Co168 2.244 . S
O181 C171 1.272 . S
O181 Co173 2.135 . S
Co182 O183 2.216 . S
Co182 O184 2.091 . S
Co182 O186 2.004 . S
Co182 O192 2.021 . S
Co182 O194 2.137 . S
Co182 O195 2.244 . S
O183 Co182 2.216 . S
O183 C190 1.247 . S
O184 Co182 2.091 . S
O184 C190 1.261 . S
C185 O194 1.247 . S
C185 O195 1.272 . S
O186 Co182 2.004 . S
O186 C191 1.259 . S
Co187 O188 2.045 1_655 S
Co187 O193 2.037 1_655 S
Co187 O195 2.105 1_655 S
O188 Co187 2.045 1_455 S
O188 C191 1.235 . S
C189 O192 1.238 . S
C189 O193 1.241 . S
C190 O183 1.247 . S
C190 O184 1.261 . S
C191 O186 1.259 . S
C191 O188 1.235 . S
O192 Co182 2.021 . S
O192 C189 1.238 . S
O193 Co187 2.037 1_455 S
O193 C189 1.241 . S
O194 Co182 2.137 . S
O194 C185 1.247 . S
O195 Co182 2.244 . S
O195 C185 1.272 . S
O195 Co187 2.105 1_455 S
Co196 O197 2.216 . S
Co196 O198 2.091 . S
Co196 O200 2.004 . S
Co196 O206 2.021 . S
Co196 O208 2.137 . S
Co196 O209 2.244 . S
O197 Co196 2.216 . S
O197 C204 1.247 . S
O198 Co196 2.091 . S
O198 C204 1.261 . S
C199 O208 1.247 . S
C199 O209 1.272 . S
O200 Co196 2.004 . S
O200 C205 1.259 . S
Co201 O202 2.045 1_455 S
Co201 O207 2.037 1_455 S
Co201 O209 2.105 1_455 S
O202 Co201 2.045 1_655 S
O202 C205 1.235 . S
C203 O206 1.238 . S
C203 O207 1.241 . S
C204 O197 1.247 . S
C204 O198 1.261 . S
C205 O200 1.259 . S
C205 O202 1.235 . S
O206 Co196 2.021 . S
O206 C203 1.238 . S
O207 Co201 2.037 1_655 S
O207 C203 1.241 . S
O208 Co196 2.137 . S
O208 C199 1.247 . S
O209 Co196 2.244 . S
O209 C199 1.272 . S
O209 Co201 2.105 1_655 S
Co210 O211 2.216 . S
Co210 O212 2.091 . S
Co210 O214 2.004 . S
Co210 O220 2.021 . S
Co210 O222 2.137 . S
Co210 O223 2.244 . S
O211 Co210 2.216 . S
O211 C218 1.247 . S
O212 Co210 2.091 . S
O212 C218 1.261 . S
C213 O222 1.247 . S
C213 O223 1.272 . S
O214 Co210 2.004 . S
O214 C219 1.259 . S
Co215 O216 2.061 . S
Co215 O221 2.052 . S
Co215 O223 2.135 . S
O216 Co215 2.061 . S
O216 C219 1.235 . S
C217 O220 1.238 . S
C217 O221 1.241 . S
C218 O211 1.247 . S
C218 O212 1.261 . S
C219 O214 1.259 . S
C219 O216 1.235 . S
O220 Co210 2.021 . S
O220 C217 1.238 . S
O221 Co215 2.052 . S
O221 C217 1.241 . S
O222 Co210 2.137 . S
O222 C213 1.247 . S
O223 Co210 2.244 . S
O223 C213 1.272 . S
O223 Co215 2.135 . S
H224 C242 0.949 . S
H225 C244 0.951 1_545 S
H226 C246 0.950 . S
H227 C247 0.950 . S
H228 C249 0.950 . S
H229 C252 0.950 1_565 S
H230 C253 0.950 . S
H231 C255 0.950 . S
H232 C256 0.950 . S
H233 C257 0.949 . S
H234 C259 0.951 1_565 S
H235 C261 0.950 . S
H236 C262 0.950 . S
H237 C264 0.950 . S
H238 C267 0.950 1_545 S
H239 C268 0.950 . S
H240 C270 0.950 . S
H241 C271 0.950 . S
C242 H224 0.949 . S
C242 C243 1.366 . S
C242 C244 1.388 . S
C243 C242 1.366 . S
C243 C247 1.385 . S
C244 H225 0.951 1_565 S
C244 C242 1.388 . S
C244 C245 1.366 . S
C245 C244 1.366 . S
C245 C246 1.414 . S
C245 C248 1.499 . S
C246 H226 0.950 . S
C246 C245 1.414 . S
C246 C247 1.374 . S
C247 H227 0.950 . S
C247 C243 1.385 . S
C247 C246 1.374 . S
C248 C245 1.499 . S
C248 C249 1.373 . S
C248 C250 1.389 1_565 S
C249 H228 0.950 . S
C249 C248 1.373 . S
C249 C265 1.377 . S
C250 C248 1.389 1_545 S
C250 C251 1.524 . S
C250 C264 1.377 . S
C251 C250 1.524 . S
C251 C252 1.397 . S
C251 C256 1.363 . S
C252 H229 0.950 1_545 S
C252 C251 1.397 . S
C252 C253 1.334 . S
C253 H230 0.950 . S
C253 C252 1.334 . S
C253 C254 1.287 . S
C254 C253 1.287 . S
C254 C255 1.524 . S
C254 H273 0.913 . S
C255 H231 0.950 . S
C255 C254 1.524 . S
C255 C256 1.415 . S
C256 H232 0.950 . S
C256 C251 1.363 . S
C256 C255 1.415 . S
C257 H233 0.949 . S
C257 C258 1.366 . S
C257 C259 1.388 . S
C258 C257 1.366 . S
C258 C262 1.385 . S
C259 H234 0.951 1_545 S
C259 C257 1.388 . S
C259 C260 1.366 . S
C260 C259 1.366 . S
C260 C261 1.414 . S
C260 C263 1.499 . S
C261 H235 0.950 . S
C261 C260 1.414 . S
C261 C262 1.374 . S
C262 H236 0.950 . S
C262 C258 1.385 . S
C262 C261 1.374 . S
C263 C260 1.499 . S
C263 C264 1.373 . S
C263 C265 1.389 1_545 S
C264 H237 0.950 . S
C264 C250 1.377 . S
C264 C263 1.373 . S
C265 C249 1.377 . S
C265 C263 1.389 1_565 S
C265 C266 1.524 . S
C266 C265 1.524 . S
C266 C267 1.397 . S
C266 C271 1.363 . S
C267 H238 0.950 1_565 S
C267 C266 1.397 . S
C267 C268 1.334 . S
C268 H239 0.950 . S
C268 C267 1.334 . S
C268 C269 1.287 . S
C269 C268 1.287 . S
C269 C270 1.524 . S
C269 H272 0.999 . S
C270 H240 0.950 . S
C270 C269 1.524 . S
C270 C271 1.415 . S
C271 H241 0.950 . S
C271 C266 1.363 . S
C271 C270 1.415 . S
H272 C269 0.999 . S
H273 C254 0.913 . S
H274 C292 0.951 . S
H275 C294 0.951 . S
H276 C296 0.950 . S
H277 C297 0.950 . S
H278 C299 0.950 . S
H279 C302 0.950 . S
H280 C303 0.950 . S
H281 C305 0.950 . S
H282 C306 0.950 . S
H283 C307 0.951 . S
H284 C309 0.951 . S
H285 C311 0.950 . S
H286 C312 0.950 . S
H287 C314 0.950 . S
H288 C317 0.950 . S
H289 C318 0.950 . S
H290 C320 0.950 . S
H291 C321 0.950 . S
C292 H274 0.951 . S
C292 C293 1.366 . S
C292 C294 1.388 . S
C293 C292 1.366 . S
C293 C297 1.385 . S
C294 H275 0.951 . S
C294 C292 1.388 . S
C294 C295 1.366 . S
C295 C294 1.366 . S
C295 C296 1.414 . S
C295 C298 1.499 . S
C296 H276 0.950 . S
C296 C295 1.414 . S
C296 C297 1.374 . S
C297 H277 0.950 . S
C297 C293 1.385 . S
C297 C296 1.374 . S
C298 C295 1.499 . S
C298 C299 1.373 . S
C298 C300 1.389 1_565 S
C299 H278 0.950 . S
C299 C298 1.373 . S
C299 C315 1.377 . S
C300 C298 1.389 1_545 S
C300 C301 1.524 . S
C300 C314 1.377 . S
C301 C300 1.524 . S
C301 C302 1.397 . S
C301 C306 1.363 . S
C302 H279 0.950 . S
C302 C301 1.397 . S
C302 C303 1.334 . S
C303 H280 0.950 . S
C303 C302 1.334 . S
C303 C304 1.287 . S
C304 C303 1.287 . S
C304 C305 1.524 . S
C304 H323 0.913 . S
C305 H281 0.950 . S
C305 C304 1.524 . S
C305 C306 1.415 . S
C306 H282 0.950 . S
C306 C301 1.363 . S
C306 C305 1.415 . S
C307 H283 0.951 . S
C307 C308 1.366 . S
C307 C309 1.388 . S
C308 C307 1.366 . S
C308 C312 1.385 . S
C309 H284 0.951 . S
C309 C307 1.388 . S
C309 C310 1.366 . S
C310 C309 1.366 . S
C310 C311 1.414 . S
C310 C313 1.499 . S
C311 H285 0.950 . S
C311 C310 1.414 . S
C311 C312 1.374 . S
C312 H286 0.950 . S
C312 C308 1.385 . S
C312 C311 1.374 . S
C313 C310 1.499 . S
C313 C314 1.373 . S
C313 C315 1.389 1_545 S
C314 H287 0.950 . S
C314 C300 1.377 . S
C314 C313 1.373 . S
C315 C299 1.377 . S
C315 C313 1.389 1_565 S
C315 C316 1.524 . S
C316 C315 1.524 . S
C316 C317 1.397 . S
C316 C321 1.363 . S
C317 H288 0.950 . S
C317 C316 1.397 . S
C317 C318 1.334 . S
C318 H289 0.950 . S
C318 C317 1.334 . S
C318 C319 1.287 . S
C319 C318 1.287 . S
C319 C320 1.524 . S
C319 H322 0.999 . S
C320 H290 0.950 . S
C320 C319 1.524 . S
C320 C321 1.415 . S
C321 H291 0.950 . S
C321 C316 1.363 . S
C321 C320 1.415 . S
H322 C319 0.999 . S
H323 C304 0.913 . S
H324 C342 0.951 1_545 S
H325 C344 0.951 1_545 S
H326 C346 0.950 . S
H327 C347 0.950 . S
H328 C349 0.950 . S
H329 C352 0.950 1_565 S
H330 C353 0.950 . S
H331 C355 0.950 . S
H332 C356 0.950 . S
H333 C357 0.951 1_565 S
H334 C359 0.951 1_565 S
H335 C361 0.950 . S
H336 C362 0.950 . S
H337 C364 0.950 . S
H338 C367 0.950 1_545 S
H339 C368 0.950 . S
H340 C370 0.950 . S
H341 C371 0.950 . S
C342 H324 0.951 1_565 S
C342 C343 1.366 . S
C342 C344 1.388 . S
C343 C342 1.366 . S
C343 C347 1.385 . S
C344 H325 0.951 1_565 S
C344 C342 1.388 . S
C344 C345 1.366 . S
C345 C344 1.366 . S
C345 C346 1.414 . S
C345 C348 1.499 . S
C346 H326 0.950 . S
C346 C345 1.414 . S
C346 C347 1.374 . S
C347 H327 0.950 . S
C347 C343 1.385 . S
C347 C346 1.374 . S
C348 C345 1.499 . S
C348 C349 1.373 . S
C348 C350 1.389 1_565 S
C349 H328 0.950 . S
C349 C348 1.373 . S
C349 C365 1.377 . S
C350 C348 1.389 1_545 S
C350 C351 1.524 . S
C350 C364 1.377 . S
C351 C350 1.524 . S
C351 C352 1.397 . S
C351 C356 1.363 . S
C352 H329 0.950 1_545 S
C352 C351 1.397 . S
C352 C353 1.334 . S
C353 H330 0.950 . S
C353 C352 1.334 . S
C353 C354 1.287 . S
C354 C353 1.287 . S
C354 C355 1.524 . S
C354 H373 0.913 . S
C355 H331 0.950 . S
C355 C354 1.524 . S
C355 C356 1.415 . S
C356 H332 0.950 . S
C356 C351 1.363 . S
C356 C355 1.415 . S
C357 H333 0.951 1_545 S
C357 C358 1.366 . S
C357 C359 1.388 . S
C358 C357 1.366 . S
C358 C362 1.385 . S
C359 H334 0.951 1_545 S
C359 C357 1.388 . S
C359 C360 1.366 . S
C360 C359 1.366 . S
C360 C361 1.414 . S
C360 C363 1.499 . S
C361 H335 0.950 . S
C361 C360 1.414 . S
C361 C362 1.374 . S
C362 H336 0.950 . S
C362 C358 1.385 . S
C362 C361 1.374 . S
C363 C360 1.499 . S
C363 C364 1.373 . S
C363 C365 1.389 1_545 S
C364 H337 0.950 . S
C364 C350 1.377 . S
C364 C363 1.373 . S
C365 C349 1.377 . S
C365 C363 1.389 1_565 S
C365 C366 1.524 . S
C366 C365 1.524 . S
C366 C367 1.397 . S
C366 C371 1.363 . S
C367 H338 0.950 1_565 S
C367 C366 1.397 . S
C367 C368 1.334 . S
C368 H339 0.950 . S
C368 C367 1.334 . S
C368 C369 1.287 . S
C369 C368 1.287 . S
C369 C370 1.524 . S
C369 H372 0.999 . S
C370 H340 0.950 . S
C370 C369 1.524 . S
C370 C371 1.415 . S
C371 H341 0.950 . S
C371 C366 1.363 . S
C371 C370 1.415 . S
H372 C369 0.999 . S
H373 C354 0.913 . S
H374 C392 0.951 . S
H375 C394 0.951 . S
H376 C396 0.950 . S
H377 C397 0.950 . S
H378 C399 0.950 . S
H379 C402 0.950 . S
H380 C403 0.950 . S
H381 C405 0.950 . S
H382 C406 0.950 1_565 S
H383 C407 0.951 . S
H384 C409 0.951 . S
H385 C411 0.950 . S
H386 C412 0.950 . S
H387 C414 0.950 . S
H388 C417 0.950 . S
H389 C418 0.950 . S
H390 C420 0.950 . S
H391 C421 0.950 1_545 S
C392 H374 0.951 . S
C392 C393 1.366 . S
C392 C394 1.388 . S
C393 C392 1.366 . S
C393 C397 1.385 . S
C394 H375 0.951 . S
C394 C392 1.388 . S
C394 C395 1.366 . S
C395 C394 1.366 . S
C395 C396 1.414 . S
C395 C398 1.499 . S
C396 H376 0.950 . S
C396 C395 1.414 . S
C396 C397 1.374 . S
C397 H377 0.950 . S
C397 C393 1.385 . S
C397 C396 1.374 . S
C398 C395 1.499 . S
C398 C399 1.373 . S
C398 C400 1.389 1_565 S
C399 H378 0.950 . S
C399 C398 1.373 . S
C399 C415 1.377 . S
C400 C398 1.389 1_545 S
C400 C401 1.524 . S
C400 C414 1.377 . S
C401 C400 1.524 . S
C401 C402 1.397 . S
C401 C406 1.363 . S
C402 H379 0.950 . S
C402 C401 1.397 . S
C402 C403 1.334 . S
C403 H380 0.950 . S
C403 C402 1.334 . S
C403 C404 1.287 . S
C404 C403 1.287 . S
C404 C405 1.524 . S
C404 H423 0.913 . S
C405 H381 0.950 . S
C405 C404 1.524 . S
C405 C406 1.415 . S
C406 H382 0.950 1_545 S
C406 C401 1.363 . S
C406 C405 1.415 . S
C407 H383 0.951 . S
C407 C408 1.366 . S
C407 C409 1.388 . S
C408 C407 1.366 . S
C408 C412 1.385 . S
C409 H384 0.951 . S
C409 C407 1.388 . S
C409 C410 1.366 . S
C410 C409 1.366 . S
C410 C411 1.414 . S
C410 C413 1.499 . S
C411 H385 0.950 . S
C411 C410 1.414 . S
C411 C412 1.374 . S
C412 H386 0.950 . S
C412 C408 1.385 . S
C412 C411 1.374 . S
C413 C410 1.499 . S
C413 C414 1.373 . S
C413 C415 1.389 1_545 S
C414 H387 0.950 . S
C414 C400 1.377 . S
C414 C413 1.373 . S
C415 C399 1.377 . S
C415 C413 1.389 1_565 S
C415 C416 1.524 . S
C416 C415 1.524 . S
C416 C417 1.397 . S
C416 C421 1.363 . S
C417 H388 0.950 . S
C417 C416 1.397 . S
C417 C418 1.334 . S
C418 H389 0.950 . S
C418 C417 1.334 . S
C418 C419 1.287 . S
C419 C418 1.287 . S
C419 C420 1.524 . S
C419 H422 0.999 . S
C420 H390 0.950 . S
C420 C419 1.524 . S
C420 C421 1.415 . S
C421 H391 0.950 1_565 S
C421 C416 1.363 . S
C421 C420 1.415 . S
H422 C419 0.999 . S
H423 C404 0.913 . S
H424 C442 0.951 . S
H425 C444 0.951 . S
H426 C446 0.950 . S
H427 C447 0.950 . S
H428 C449 0.950 . S
H429 C452 0.950 . S
H430 C453 0.950 . S
H431 C455 0.950 . S
H432 C456 0.950 . S
H433 C457 0.951 . S
H434 C459 0.951 . S
H435 C461 0.950 . S
H436 C462 0.950 . S
H437 C464 0.950 . S
H438 C467 0.950 . S
H439 C468 0.950 . S
H440 C470 0.950 . S
H441 C471 0.950 . S
C442 H424 0.951 . S
C442 C443 1.366 . S
C442 C444 1.388 . S
C443 C442 1.366 . S
C443 C447 1.385 . S
C444 H425 0.951 . S
C444 C442 1.388 . S
C444 C445 1.366 . S
C445 C444 1.366 . S
C445 C446 1.414 . S
C445 C448 1.499 . S
C446 H426 0.950 . S
C446 C445 1.414 . S
C446 C447 1.374 . S
C447 H427 0.950 . S
C447 C443 1.385 . S
C447 C446 1.374 . S
C448 C445 1.499 . S
C448 C449 1.373 . S
C448 C450 1.389 . S
C449 H428 0.950 . S
C449 C448 1.373 . S
C449 C465 1.377 . S
C450 C448 1.389 . S
C450 C451 1.524 . S
C450 C464 1.377 . S
C451 C450 1.524 . S
C451 C452 1.397 . S
C451 C456 1.363 . S
C452 H429 0.950 . S
C452 C451 1.397 . S
C452 C453 1.334 . S
C453 H430 0.950 . S
C453 C452 1.334 . S
C453 C454 1.287 . S
C454 C453 1.287 . S
C454 C455 1.524 . S
C454 H473 0.913 . S
C455 H431 0.950 . S
C455 C454 1.524 . S
C455 C456 1.415 . S
C456 H432 0.950 . S
C456 C451 1.363 . S
C456 C455 1.415 . S
C457 H433 0.951 . S
C457 C458 1.366 . S
C457 C459 1.388 . S
C458 C457 1.366 . S
C458 C462 1.385 . S
C459 H434 0.951 . S
C459 C457 1.388 . S
C459 C460 1.366 . S
C460 C459 1.366 . S
C460 C461 1.414 . S
C460 C463 1.499 . S
C461 H435 0.950 . S
C461 C460 1.414 . S
C461 C462 1.374 . S
C462 H436 0.950 . S
C462 C458 1.385 . S
C462 C461 1.374 . S
C463 C460 1.499 . S
C463 C464 1.373 . S
C463 C465 1.389 . S
C464 H437 0.950 . S
C464 C450 1.377 . S
C464 C463 1.373 . S
C465 C449 1.377 . S
C465 C463 1.389 . S
C465 C466 1.524 . S
C466 C465 1.524 . S
C466 C467 1.397 . S
C466 C471 1.363 . S
C467 H438 0.950 . S
C467 C466 1.397 . S
C467 C468 1.334 . S
C468 H439 0.950 . S
C468 C467 1.334 . S
C468 C469 1.287 . S
C469 C468 1.287 . S
C469 C470 1.524 . S
C469 H472 0.999 . S
C470 H440 0.950 . S
C470 C469 1.524 . S
C470 C471 1.415 . S
C471 H441 0.950 . S
C471 C466 1.363 . S
C471 C470 1.415 . S
H472 C469 0.999 . S
H473 C454 0.913 . S
H474 C492 0.951 . S
H475 C494 0.951 . S
H476 C496 0.950 . S
H477 C497 0.950 . S
H478 C499 0.950 . S
H479 C502 0.950 . S
H480 C503 0.950 . S
H481 C505 0.950 . S
H482 C506 0.950 . S
H483 C507 0.951 . S
H484 C509 0.951 . S
H485 C511 0.950 . S
H486 C512 0.950 . S
H487 C514 0.950 . S
H488 C517 0.950 . S
H489 C518 0.950 . S
H490 C520 0.950 . S
H491 C521 0.950 . S
C492 H474 0.951 . S
C492 C493 1.366 . S
C492 C494 1.388 . S
C493 C492 1.366 . S
C493 C497 1.385 . S
C494 H475 0.951 . S
C494 C492 1.388 . S
C494 C495 1.366 . S
C495 C494 1.366 . S
C495 C496 1.414 . S
C495 C498 1.499 . S
C496 H476 0.950 . S
C496 C495 1.414 . S
C496 C497 1.374 . S
C497 H477 0.950 . S
C497 C493 1.385 . S
C497 C496 1.374 . S
C498 C495 1.499 . S
C498 C499 1.373 . S
C498 C500 1.389 . S
C499 H478 0.950 . S
C499 C498 1.373 . S
C499 C515 1.377 . S
C500 C498 1.389 . S
C500 C501 1.524 . S
C500 C514 1.377 . S
C501 C500 1.524 . S
C501 C502 1.397 . S
C501 C506 1.363 . S
C502 H479 0.950 . S
C502 C501 1.397 . S
C502 C503 1.334 . S
C503 H480 0.950 . S
C503 C502 1.334 . S
C503 C504 1.287 . S
C504 C503 1.287 . S
C504 C505 1.524 . S
C504 H523 0.913 . S
C505 H481 0.950 . S
C505 C504 1.524 . S
C505 C506 1.415 . S
C506 H482 0.950 . S
C506 C501 1.363 . S
C506 C505 1.415 . S
C507 H483 0.951 . S
C507 C508 1.366 . S
C507 C509 1.388 . S
C508 C507 1.366 . S
C508 C512 1.385 . S
C509 H484 0.951 . S
C509 C507 1.388 . S
C509 C510 1.366 . S
C510 C509 1.366 . S
C510 C511 1.414 . S
C510 C513 1.499 . S
C511 H485 0.950 . S
C511 C510 1.414 . S
C511 C512 1.374 . S
C512 H486 0.950 . S
C512 C508 1.385 . S
C512 C511 1.374 . S
C513 C510 1.499 . S
C513 C514 1.373 . S
C513 C515 1.389 . S
C514 H487 0.950 . S
C514 C500 1.377 . S
C514 C513 1.373 . S
C515 C499 1.377 . S
C515 C513 1.389 . S
C515 C516 1.524 . S
C516 C515 1.524 . S
C516 C517 1.397 . S
C516 C521 1.363 . S
C517 H488 0.950 . S
C517 C516 1.397 . S
C517 C518 1.334 . S
C518 H489 0.950 . S
C518 C517 1.334 . S
C518 C519 1.287 . S
C519 C518 1.287 . S
C519 C520 1.524 . S
C519 H522 0.999 . S
C520 H490 0.950 . S
C520 C519 1.524 . S
C520 C521 1.415 . S
C521 H491 0.950 . S
C521 C516 1.363 . S
C521 C520 1.415 . S
H522 C519 0.999 . S
H523 C504 0.913 . S
H524 C542 0.951 . S
H525 C544 0.951 . S
H526 C546 0.950 . S
H527 C547 0.950 . S
H528 C549 0.950 . S
H529 C552 0.950 . S
H530 C553 0.950 . S
H531 C555 0.950 . S
H532 C556 0.950 . S
H533 C557 0.951 . S
H534 C559 0.951 . S
H535 C561 0.950 . S
H536 C562 0.950 . S
H537 C564 0.950 . S
H538 C567 0.950 . S
H539 C568 0.950 . S
H540 C570 0.950 . S
H541 C571 0.950 . S
C542 H524 0.951 . S
C542 C543 1.366 . S
C542 C544 1.388 . S
C543 C542 1.366 . S
C543 C547 1.385 . S
C544 H525 0.951 . S
C544 C542 1.388 . S
C544 C545 1.366 . S
C545 C544 1.366 . S
C545 C546 1.414 . S
C545 C548 1.499 . S
C546 H526 0.950 . S
C546 C545 1.414 . S
C546 C547 1.374 . S
C547 H527 0.950 . S
C547 C543 1.385 . S
C547 C546 1.374 . S
C548 C545 1.499 . S
C548 C549 1.373 . S
C548 C550 1.389 . S
C549 H528 0.950 . S
C549 C548 1.373 . S
C549 C565 1.377 . S
C550 C548 1.389 . S
C550 C551 1.524 . S
C550 C564 1.377 . S
C551 C550 1.524 . S
C551 C552 1.397 . S
C551 C556 1.363 . S
C552 H529 0.950 . S
C552 C551 1.397 . S
C552 C553 1.334 . S
C553 H530 0.950 . S
C553 C552 1.334 . S
C553 C554 1.287 . S
C554 C553 1.287 . S
C554 C555 1.524 . S
C554 H573 0.913 . S
C555 H531 0.950 . S
C555 C554 1.524 . S
C555 C556 1.415 . S
C556 H532 0.950 . S
C556 C551 1.363 . S
C556 C555 1.415 . S
C557 H533 0.951 . S
C557 C558 1.366 . S
C557 C559 1.388 . S
C558 C557 1.366 . S
C558 C562 1.385 . S
C559 H534 0.951 . S
C559 C557 1.388 . S
C559 C560 1.366 . S
C560 C559 1.366 . S
C560 C561 1.414 . S
C560 C563 1.499 . S
C561 H535 0.950 . S
C561 C560 1.414 . S
C561 C562 1.374 . S
C562 H536 0.950 . S
C562 C558 1.385 . S
C562 C561 1.374 . S
C563 C560 1.499 . S
C563 C564 1.373 . S
C563 C565 1.389 . S
C564 H537 0.950 . S
C564 C550 1.377 . S
C564 C563 1.373 . S
C565 C549 1.377 . S
C565 C563 1.389 . S
C565 C566 1.524 . S
C566 C565 1.524 . S
C566 C567 1.397 . S
C566 C571 1.363 . S
C567 H538 0.950 . S
C567 C566 1.397 . S
C567 C568 1.334 . S
C568 H539 0.950 . S
C568 C567 1.334 . S
C568 C569 1.287 . S
C569 C568 1.287 . S
C569 C570 1.524 . S
C569 H572 0.999 . S
C570 H540 0.950 . S
C570 C569 1.524 . S
C570 C571 1.415 . S
C571 H541 0.950 . S
C571 C566 1.363 . S
C571 C570 1.415 . S
H572 C569 0.999 . S
H573 C554 0.913 . S
H574 C592 0.951 . S
H575 C594 0.951 . S
H576 C596 0.950 . S
H577 C597 0.950 . S
H578 C599 0.950 . S
H579 C602 0.950 . S
H580 C603 0.950 . S
H581 C605 0.950 . S
H582 C606 0.950 . S
H583 C607 0.951 . S
H584 C609 0.951 . S
H585 C611 0.950 . S
H586 C612 0.950 . S
H587 C614 0.950 . S
H588 C617 0.950 . S
H589 C618 0.950 . S
H590 C620 0.950 . S
H591 C621 0.950 . S
C592 H574 0.951 . S
C592 C593 1.366 . S
C592 C594 1.388 . S
C593 C592 1.366 . S
C593 C597 1.385 . S
C594 H575 0.951 . S
C594 C592 1.388 . S
C594 C595 1.366 . S
C595 C594 1.366 . S
C595 C596 1.414 . S
C595 C598 1.499 . S
C596 H576 0.950 . S
C596 C595 1.414 . S
C596 C597 1.374 . S
C597 H577 0.950 . S
C597 C593 1.385 . S
C597 C596 1.374 . S
C598 C595 1.499 . S
C598 C599 1.373 . S
C598 C600 1.389 . S
C599 H578 0.950 . S
C599 C598 1.373 . S
C599 C615 1.377 . S
C600 C598 1.389 . S
C600 C601 1.524 . S
C600 C614 1.377 . S
C601 C600 1.524 . S
C601 C602 1.397 . S
C601 C606 1.363 . S
C602 H579 0.950 . S
C602 C601 1.397 . S
C602 C603 1.334 . S
C603 H580 0.950 . S
C603 C602 1.334 . S
C603 C604 1.287 . S
C604 C603 1.287 . S
C604 C605 1.524 . S
C604 H623 0.913 . S
C605 H581 0.950 . S
C605 C604 1.524 . S
C605 C606 1.415 . S
C606 H582 0.950 . S
C606 C601 1.363 . S
C606 C605 1.415 . S
C607 H583 0.951 . S
C607 C608 1.366 . S
C607 C609 1.388 . S
C608 C607 1.366 . S
C608 C612 1.385 . S
C609 H584 0.951 . S
C609 C607 1.388 . S
C609 C610 1.366 . S
C610 C609 1.366 . S
C610 C611 1.414 . S
C610 C613 1.499 . S
C611 H585 0.950 . S
C611 C610 1.414 . S
C611 C612 1.374 . S
C612 H586 0.950 . S
C612 C608 1.385 . S
C612 C611 1.374 . S
C613 C610 1.499 . S
C613 C614 1.373 . S
C613 C615 1.389 . S
C614 H587 0.950 . S
C614 C600 1.377 . S
C614 C613 1.373 . S
C615 C599 1.377 . S
C615 C613 1.389 . S
C615 C616 1.524 . S
C616 C615 1.524 . S
C616 C617 1.397 . S
C616 C621 1.363 . S
C617 H588 0.950 . S
C617 C616 1.397 . S
C617 C618 1.334 . S
C618 H589 0.950 . S
C618 C617 1.334 . S
C618 C619 1.287 . S
C619 C618 1.287 . S
C619 C620 1.524 . S
C619 H622 0.999 . S
C620 H590 0.950 . S
C620 C619 1.524 . S
C620 C621 1.415 . S
C621 H591 0.950 . S
C621 C616 1.363 . S
C621 C620 1.415 . S
H622 C619 0.999 . S
H623 C604 0.913 . S
H624 C642 0.951 . S
H625 C644 0.951 . S
H626 C646 0.950 . S
H627 C647 0.950 . S
H628 C649 0.950 . S
H629 C652 0.950 . S
H630 C653 0.950 . S
H631 C655 0.950 . S
H632 C656 0.950 . S
H633 C657 0.951 . S
H634 C659 0.951 . S
H635 C661 0.950 . S
H636 C662 0.950 . S
H637 C664 0.950 . S
H638 C667 0.950 . S
H639 C668 0.950 . S
H640 C670 0.950 . S
H641 C671 0.953 1_565 S
C642 H624 0.951 . S
C642 C643 1.366 . S
C642 C644 1.388 . S
C643 C642 1.366 . S
C643 C647 1.385 . S
C644 H625 0.951 . S
C644 C642 1.388 . S
C644 C645 1.366 . S
C645 C644 1.366 . S
C645 C646 1.414 . S
C645 C648 1.499 . S
C646 H626 0.950 . S
C646 C645 1.414 . S
C646 C647 1.374 . S
C647 H627 0.950 . S
C647 C643 1.385 . S
C647 C646 1.374 . S
C648 C645 1.499 . S
C648 C649 1.373 1_655 S
C648 C650 1.389 . S
C649 H628 0.950 . S
C649 C648 1.373 1_455 S
C649 C665 1.377 . S
C650 C648 1.389 . S
C650 C651 1.524 . S
C650 C664 1.377 . S
C651 C650 1.524 . S
C651 C652 1.397 . S
C651 C656 1.363 . S
C652 H629 0.950 . S
C652 C651 1.397 . S
C652 C653 1.334 . S
C653 H630 0.950 . S
C653 C652 1.334 . S
C653 C654 1.287 . S
C654 C653 1.287 . S
C654 C655 1.524 . S
C654 H673 0.913 . S
C655 H631 0.950 . S
C655 C654 1.524 . S
C655 C656 1.415 . S
C656 H632 0.950 . S
C656 C651 1.363 . S
C656 C655 1.415 . S
C657 H633 0.951 . S
C657 C658 1.366 . S
C657 C659 1.388 . S
C658 C657 1.366 . S
C658 C662 1.385 . S
C659 H634 0.951 . S
C659 C657 1.388 . S
C659 C660 1.366 . S
C660 C659 1.366 . S
C660 C661 1.414 . S
C660 C663 1.499 . S
C661 H635 0.950 . S
C661 C660 1.414 . S
C661 C662 1.374 . S
C662 H636 0.950 . S
C662 C658 1.385 . S
C662 C661 1.374 . S
C663 C660 1.499 . S
C663 C664 1.373 1_455 S
C663 C665 1.389 . S
C664 H637 0.950 . S
C664 C650 1.377 . S
C664 C663 1.373 1_655 S
C665 C649 1.377 . S
C665 C663 1.389 . S
C665 C666 1.524 . S
C666 C665 1.524 . S
C666 C667 1.397 . S
C666 C671 1.363 . S
C667 H638 0.950 . S
C667 C666 1.397 . S
C667 C668 1.334 . S
C668 H639 0.950 . S
C668 C667 1.334 . S
C668 C669 1.287 . S
C669 C668 1.287 . S
C669 C670 1.524 1_545 S
C669 H672 0.999 . S
C670 H640 0.950 . S
C670 C669 1.524 1_565 S
C670 C671 1.415 1_565 S
C671 H641 0.953 1_545 S
C671 C666 1.363 . S
C671 C670 1.415 1_545 S
H672 C669 0.999 . S
H673 C654 0.913 . S
H674 C692 0.951 . S
H675 C694 0.951 . S
H676 C696 0.950 . S
H677 C697 0.950 . S
H678 C699 0.950 . S
H679 C702 0.950 . S
H680 C703 0.950 . S
H681 C705 0.950 . S
H682 C706 0.950 . S
H683 C707 0.951 . S
H684 C709 0.951 . S
H685 C711 0.950 . S
H686 C712 0.950 . S
H687 C714 0.950 . S
H688 C717 0.950 . S
H689 C718 0.950 . S
H690 C720 0.950 . S
H691 C721 0.950 . S
C692 H674 0.951 . S
C692 C693 1.366 . S
C692 C694 1.388 . S
C693 C692 1.366 . S
C693 C697 1.385 . S
C694 H675 0.951 . S
C694 C692 1.388 . S
C694 C695 1.366 . S
C695 C694 1.366 . S
C695 C696 1.414 . S
C695 C698 1.499 . S
C696 H676 0.950 . S
C696 C695 1.414 . S
C696 C697 1.374 . S
C697 H677 0.950 . S
C697 C693 1.385 . S
C697 C696 1.374 . S
C698 C695 1.499 . S
C698 C699 1.373 . S
C698 C700 1.389 . S
C699 H678 0.950 . S
C699 C698 1.373 . S
C699 C715 1.377 . S
C700 C698 1.389 . S
C700 C701 1.524 . S
C700 C714 1.377 . S
C701 C700 1.524 . S
C701 C702 1.397 . S
C701 C706 1.363 . S
C702 H679 0.950 . S
C702 C701 1.397 . S
C702 C703 1.334 . S
C703 H680 0.950 . S
C703 C702 1.334 . S
C703 C704 1.287 . S
C704 C703 1.287 . S
C704 C705 1.524 . S
C704 H723 0.913 . S
C705 H681 0.950 . S
C705 C704 1.524 . S
C705 C706 1.415 . S
C706 H682 0.950 . S
C706 C701 1.363 . S
C706 C705 1.415 . S
C707 H683 0.951 . S
C707 C708 1.366 . S
C707 C709 1.388 . S
C708 C707 1.366 . S
C708 C712 1.385 . S
C709 H684 0.951 . S
C709 C707 1.388 . S
C709 C710 1.366 . S
C710 C709 1.366 . S
C710 C711 1.414 . S
C710 C713 1.499 . S
C711 H685 0.950 . S
C711 C710 1.414 . S
C711 C712 1.374 . S
C712 H686 0.950 . S
C712 C708 1.385 . S
C712 C711 1.374 . S
C713 C710 1.499 . S
C713 C714 1.373 . S
C713 C715 1.389 . S
C714 H687 0.950 . S
C714 C700 1.377 . S
C714 C713 1.373 . S
C715 C699 1.377 . S
C715 C713 1.389 . S
C715 C716 1.524 . S
C716 C715 1.524 . S
C716 C717 1.397 . S
C716 C721 1.363 1_565 S
C717 H688 0.950 . S
C717 C716 1.397 . S
C717 C718 1.334 1_565 S
C718 H689 0.950 . S
C718 C717 1.334 1_545 S
C718 C719 1.287 . S
C719 C718 1.287 . S
C719 C720 1.524 . S
C719 H722 0.999 . S
C720 H690 0.950 . S
C720 C719 1.524 . S
C720 C721 1.415 . S
C721 H691 0.950 . S
C721 C716 1.363 1_545 S
C721 C720 1.415 . S
H722 C719 0.999 . S
H723 C704 0.913 . S
H724 C742 0.951 . S
H725 C744 0.951 . S
H726 C746 0.950 . S
H727 C747 0.950 . S
H728 C749 0.950 . S
H729 C752 0.950 . S
H730 C753 0.950 . S
H731 C755 0.950 . S
H732 C756 0.950 . S
H733 C757 0.951 . S
H734 C759 0.951 . S
H735 C761 0.950 . S
H736 C762 0.950 . S
H737 C764 0.950 . S
H738 C767 0.950 . S
H739 C768 0.950 . S
H740 C770 0.950 . S
H741 C771 0.950 . S
C742 H724 0.951 . S
C742 C743 1.366 . S
C742 C744 1.388 . S
C743 C742 1.366 . S
C743 C747 1.385 . S
C744 H725 0.951 . S
C744 C742 1.388 . S
C744 C745 1.366 . S
C745 C744 1.366 . S
C745 C746 1.414 . S
C745 C748 1.499 . S
C746 H726 0.950 . S
C746 C745 1.414 . S
C746 C747 1.374 . S
C747 H727 0.950 . S
C747 C743 1.385 . S
C747 C746 1.374 . S
C748 C745 1.499 . S
C748 C749 1.373 . S
C748 C750 1.389 1_455 S
C749 H728 0.950 . S
C749 C748 1.373 . S
C749 C765 1.377 . S
C750 C748 1.389 1_655 S
C750 C751 1.524 . S
C750 C764 1.377 . S
C751 C750 1.524 . S
C751 C752 1.397 . S
C751 C756 1.363 . S
C752 H729 0.950 . S
C752 C751 1.397 . S
C752 C753 1.334 . S
C753 H730 0.950 . S
C753 C752 1.334 . S
C753 C754 1.287 . S
C754 C753 1.287 . S
C754 C755 1.524 . S
C754 H773 0.913 . S
C755 H731 0.950 . S
C755 C754 1.524 . S
C755 C756 1.415 . S
C756 H732 0.950 . S
C756 C751 1.363 . S
C756 C755 1.415 . S
C757 H733 0.951 . S
C757 C758 1.366 . S
C757 C759 1.388 . S
C758 C757 1.366 . S
C758 C762 1.385 . S
C759 H734 0.951 . S
C759 C757 1.388 . S
C759 C760 1.366 . S
C760 C759 1.366 . S
C760 C761 1.414 . S
C760 C763 1.499 . S
C761 H735 0.950 . S
C761 C760 1.414 . S
C761 C762 1.374 . S
C762 H736 0.950 . S
C762 C758 1.385 . S
C762 C761 1.374 . S
C763 C760 1.499 . S
C763 C764 1.373 . S
C763 C765 1.389 1_655 S
C764 H737 0.950 . S
C764 C750 1.377 . S
C764 C763 1.373 . S
C765 C749 1.377 . S
C765 C763 1.389 1_455 S
C765 C766 1.524 . S
C766 C765 1.524 . S
C766 C767 1.397 . S
C766 C771 1.363 1_565 S
C767 H738 0.950 . S
C767 C766 1.397 . S
C767 C768 1.334 . S
C768 H739 0.950 . S
C768 C767 1.334 . S
C768 C769 1.287 1_565 S
C769 C768 1.287 1_545 S
C769 C770 1.524 . S
C769 H772 0.999 . S
C770 H740 0.950 . S
C770 C769 1.524 . S
C770 C771 1.415 . S
C771 H741 0.950 . S
C771 C766 1.363 1_545 S
C771 C770 1.415 . S
H772 C769 0.999 . S
H773 C754 0.913 . S
H774 C792 0.951 . S
H775 C794 0.951 . S
H776 C796 0.950 . S
H777 C797 0.950 . S
H778 C799 0.950 . S
H779 C802 0.950 . S
H780 C803 0.950 . S
H781 C805 0.950 . S
H782 C806 0.950 1_545 S
H783 C807 0.951 . S
H784 C809 0.951 . S
H785 C811 0.950 . S
H786 C812 0.950 . S
H787 C814 0.950 . S
H788 C817 0.950 . S
H789 C818 0.950 . S
H790 C820 0.950 . S
H791 C821 0.950 . S
C792 H774 0.951 . S
C792 C793 1.366 . S
C792 C794 1.388 . S
C793 C792 1.366 . S
C793 C797 1.385 . S
C794 H775 0.951 . S
C794 C792 1.388 . S
C794 C795 1.366 . S
C795 C794 1.366 . S
C795 C796 1.414 . S
C795 C798 1.499 . S
C796 H776 0.950 . S
C796 C795 1.414 . S
C796 C797 1.374 . S
C797 H777 0.950 . S
C797 C793 1.385 . S
C797 C796 1.374 . S
C798 C795 1.499 . S
C798 C799 1.373 . S
C798 C800 1.389 . S
C799 H778 0.950 . S
C799 C798 1.373 . S
C799 C815 1.377 . S
C800 C798 1.389 . S
C800 C801 1.524 . S
C800 C814 1.377 . S
C801 C800 1.524 . S
C801 C802 1.397 . S
C801 C806 1.363 1_545 S
C802 H779 0.950 . S
C802 C801 1.397 . S
C802 C803 1.334 1_545 S
C803 H780 0.950 . S
C803 C802 1.334 1_565 S
C803 C804 1.287 . S
C804 C803 1.287 . S
C804 C805 1.524 . S
C804 H823 0.913 . S
C805 H781 0.950 . S
C805 C804 1.524 . S
C805 C806 1.415 . S
C806 H782 0.950 1_565 S
C806 C801 1.363 1_565 S
C806 C805 1.415 . S
C807 H783 0.951 . S
C807 C808 1.366 . S
C807 C809 1.388 . S
C808 C807 1.366 . S
C808 C812 1.385 . S
C809 H784 0.951 . S
C809 C807 1.388 . S
C809 C810 1.366 . S
C810 C809 1.366 . S
C810 C811 1.414 . S
C810 C813 1.499 . S
C811 H785 0.950 . S
C811 C810 1.414 . S
C811 C812 1.374 . S
C812 H786 0.950 . S
C812 C808 1.385 . S
C812 C811 1.374 . S
C813 C810 1.499 . S
C813 C814 1.373 . S
C813 C815 1.389 . S
C814 H787 0.950 . S
C814 C800 1.377 . S
C814 C813 1.373 . S
C815 C799 1.377 . S
C815 C813 1.389 . S
C815 C816 1.524 . S
C816 C815 1.524 . S
C816 C817 1.397 . S
C816 C821 1.363 . S
C817 H788 0.950 . S
C817 C816 1.397 . S
C817 C818 1.334 . S
C818 H789 0.950 . S
C818 C817 1.334 . S
C818 C819 1.287 . S
C819 C818 1.287 . S
C819 C820 1.524 . S
C819 H822 0.999 . S
C820 H790 0.950 . S
C820 C819 1.524 . S
C820 C821 1.415 . S
C821 H791 0.950 . S
C821 C816 1.363 . S
C821 C820 1.415 . S
H822 C819 0.999 . S
H823 C804 0.913 . S
H824 C842 0.951 . S
H825 C844 0.951 . S
H826 C846 0.950 . S
H827 C847 0.950 . S
H828 C849 0.950 . S
H829 C852 0.950 . S
H830 C853 0.950 . S
H831 C855 0.950 . S
H832 C856 0.950 . S
H833 C857 0.951 . S
H834 C859 0.951 . S
H835 C861 0.950 . S
H836 C862 0.950 . S
H837 C864 0.950 . S
H838 C867 0.950 . S
H839 C868 0.950 . S
H840 C870 0.950 . S
H841 C871 0.950 . S
C842 H824 0.951 . S
C842 C843 1.366 . S
C842 C844 1.388 . S
C843 C842 1.366 . S
C843 C847 1.385 . S
C844 H825 0.951 . S
C844 C842 1.388 . S
C844 C845 1.366 . S
C845 C844 1.366 . S
C845 C846 1.414 . S
C845 C848 1.499 . S
C846 H826 0.950 . S
C846 C845 1.414 . S
C846 C847 1.374 . S
C847 H827 0.950 . S
C847 C843 1.385 . S
C847 C846 1.374 . S
C848 C845 1.499 . S
C848 C849 1.373 . S
C848 C850 1.389 . S
C849 H828 0.950 . S
C849 C848 1.373 . S
C849 C865 1.377 . S
C850 C848 1.389 . S
C850 C851 1.524 . S
C850 C864 1.377 . S
C851 C850 1.524 . S
C851 C852 1.397 . S
C851 C856 1.363 . S
C852 H829 0.950 . S
C852 C851 1.397 . S
C852 C853 1.334 . S
C853 H830 0.950 . S
C853 C852 1.334 . S
C853 C854 1.287 . S
C854 C853 1.287 . S
C854 C855 1.524 . S
C854 H873 0.913 . S
C855 H831 0.950 . S
C855 C854 1.524 . S
C855 C856 1.415 . S
C856 H832 0.950 . S
C856 C851 1.363 . S
C856 C855 1.415 . S
C857 H833 0.951 . S
C857 C858 1.366 . S
C857 C859 1.388 . S
C858 C857 1.366 . S
C858 C862 1.385 . S
C859 H834 0.951 . S
C859 C857 1.388 . S
C859 C860 1.366 . S
C860 C859 1.366 . S
C860 C861 1.414 . S
C860 C863 1.499 . S
C861 H835 0.950 . S
C861 C860 1.414 . S
C861 C862 1.374 . S
C862 H836 0.950 . S
C862 C858 1.385 . S
C862 C861 1.374 . S
C863 C860 1.499 . S
C863 C864 1.373 . S
C863 C865 1.389 . S
C864 H837 0.950 . S
C864 C850 1.377 . S
C864 C863 1.373 . S
C865 C849 1.377 . S
C865 C863 1.389 . S
C865 C866 1.524 . S
C866 C865 1.524 . S
C866 C867 1.397 . S
C866 C871 1.363 . S
C867 H838 0.950 . S
C867 C866 1.397 . S
C867 C868 1.334 . S
C868 H839 0.950 . S
C868 C867 1.334 . S
C868 C869 1.287 . S
C869 C868 1.287 . S
C869 C870 1.524 . S
C869 H872 0.999 . S
C870 H840 0.950 . S
C870 C869 1.524 . S
C870 C871 1.415 . S
C871 H841 0.950 . S
C871 C866 1.363 . S
C871 C870 1.415 . S
H872 C869 0.999 . S
H873 C854 0.913 . S
H874 C892 0.951 . S
H875 C894 0.951 . S
H876 C896 0.962 . S
H877 C897 0.950 1_655 S
H878 C899 0.950 . S
H879 C902 0.950 . S
H880 C903 0.950 . S
H881 C905 0.950 . S
H882 C906 0.950 . S
H883 C907 0.951 . S
H884 C909 0.951 . S
H885 C911 0.962 . S
H886 C912 0.950 1_455 S
H887 C914 0.950 . S
H888 C917 0.950 . S
H889 C918 0.950 . S
H890 C920 0.950 . S
H891 C921 0.950 . S
C892 H874 0.951 . S
C892 C893 1.366 . S
C892 C894 1.388 . S
C893 C892 1.366 . S
C893 C897 1.385 . S
C894 H875 0.951 . S
C894 C892 1.388 . S
C894 C895 1.366 . S
C895 C894 1.366 . S
C895 C896 1.406 1_455 S
C895 C898 1.499 . S
C896 H876 0.962 . S
C896 C895 1.406 1_655 S
C896 C897 1.370 1_655 S
C897 H877 0.950 1_455 S
C897 C893 1.385 . S
C897 C896 1.370 1_455 S
C898 C895 1.499 . S
C898 C899 1.373 1_455 S
C898 C900 1.389 . S
C899 H878 0.950 . S
C899 C898 1.373 1_655 S
C899 C915 1.377 . S
C900 C898 1.389 . S
C900 C901 1.524 . S
C900 C914 1.377 . S
C901 C900 1.524 . S
C901 C902 1.397 . S
C901 C906 1.363 . S
C902 H879 0.950 . S
C902 C901 1.397 . S
C902 C903 1.334 . S
C903 H880 0.950 . S
C903 C902 1.334 . S
C903 C904 1.287 . S
C904 C903 1.287 . S
C904 C905 1.524 . S
C904 H923 0.913 . S
C905 H881 0.950 . S
C905 C904 1.524 . S
C905 C906 1.415 . S
C906 H882 0.950 . S
C906 C901 1.363 . S
C906 C905 1.415 . S
C907 H883 0.951 . S
C907 C908 1.366 . S
C907 C909 1.388 . S
C908 C907 1.366 . S
C908 C912 1.385 . S
C909 H884 0.951 . S
C909 C907 1.388 . S
C909 C910 1.366 . S
C910 C909 1.366 . S
C910 C911 1.406 1_655 S
C910 C913 1.499 . S
C911 H885 0.962 . S
C911 C910 1.406 1_455 S
C911 C912 1.370 1_455 S
C912 H886 0.950 1_655 S
C912 C908 1.385 . S
C912 C911 1.370 1_655 S
C913 C910 1.499 . S
C913 C914 1.373 1_655 S
C913 C915 1.389 . S
C914 H887 0.950 . S
C914 C900 1.377 . S
C914 C913 1.373 1_455 S
C915 C899 1.377 . S
C915 C913 1.389 . S
C915 C916 1.524 . S
C916 C915 1.524 . S
C916 C917 1.397 . S
C916 C921 1.363 . S
C917 H888 0.950 . S
C917 C916 1.397 . S
C917 C918 1.334 . S
C918 H889 0.950 . S
C918 C917 1.334 . S
C918 C919 1.287 . S
C919 C918 1.287 . S
C919 C920 1.524 . S
C919 H922 0.999 . S
C920 H890 0.950 . S
C920 C919 1.524 . S
C920 C921 1.415 . S
C921 H891 0.950 . S
C921 C916 1.363 . S
C921 C920 1.415 . S
H922 C919 0.999 . S
H923 C904 0.913 . S
H924 C942 0.951 . S
H925 C944 0.951 . S
H926 C946 0.950 . S
H927 C947 0.950 . S
H928 C949 0.950 . S
H929 C952 0.950 . S
H930 C953 0.950 . S
H931 C955 0.950 . S
H932 C956 0.950 . S
H933 C957 0.951 . S
H934 C959 0.951 . S
H935 C961 0.950 . S
H936 C962 0.950 . S
H937 C964 0.950 . S
H938 C967 0.950 . S
H939 C968 0.950 . S
H940 C970 0.950 . S
H941 C971 0.950 . S
C942 H924 0.951 . S
C942 C943 1.366 . S
C942 C944 1.388 . S
C943 C942 1.366 . S
C943 C947 1.385 . S
C944 H925 0.951 . S
C944 C942 1.388 . S
C944 C945 1.366 . S
C945 C944 1.366 . S
C945 C946 1.414 . S
C945 C948 1.499 . S
C946 H926 0.950 . S
C946 C945 1.414 . S
C946 C947 1.374 . S
C947 H927 0.950 . S
C947 C943 1.385 . S
C947 C946 1.374 . S
C948 C945 1.499 . S
C948 C949 1.373 . S
C948 C950 1.389 . S
C949 H928 0.950 . S
C949 C948 1.373 . S
C949 C965 1.377 . S
C950 C948 1.389 . S
C950 C951 1.524 . S
C950 C964 1.377 . S
C951 C950 1.524 . S
C951 C952 1.397 . S
C951 C956 1.363 . S
C952 H929 0.950 . S
C952 C951 1.397 . S
C952 C953 1.334 . S
C953 H930 0.950 . S
C953 C952 1.334 . S
C953 C954 1.287 . S
C954 C953 1.287 . S
C954 C955 1.524 . S
C954 H973 0.913 . S
C955 H931 0.950 . S
C955 C954 1.524 . S
C955 C956 1.415 . S
C956 H932 0.950 . S
C956 C951 1.363 . S
C956 C955 1.415 . S
C957 H933 0.951 . S
C957 C958 1.366 . S
C957 C959 1.388 . S
C958 C957 1.366 . S
C958 C962 1.385 . S
C959 H934 0.951 . S
C959 C957 1.388 . S
C959 C960 1.366 . S
C960 C959 1.366 . S
C960 C961 1.414 . S
C960 C963 1.499 . S
C961 H935 0.950 . S
C961 C960 1.414 . S
C961 C962 1.374 . S
C962 H936 0.950 . S
C962 C958 1.385 . S
C962 C961 1.374 . S
C963 C960 1.499 . S
C963 C964 1.373 . S
C963 C965 1.389 . S
C964 H937 0.950 . S
C964 C950 1.377 . S
C964 C963 1.373 . S
C965 C949 1.377 . S
C965 C963 1.389 . S
C965 C966 1.524 . S
C966 C965 1.524 . S
C966 C967 1.397 . S
C966 C971 1.363 . S
C967 H938 0.950 . S
C967 C966 1.397 . S
C967 C968 1.334 . S
C968 H939 0.950 . S
C968 C967 1.334 . S
C968 C969 1.287 . S
C969 C968 1.287 . S
C969 C970 1.524 . S
C969 H972 0.999 . S
C970 H940 0.950 . S
C970 C969 1.524 . S
C970 C971 1.415 . S
C971 H941 0.950 . S
C971 C966 1.363 . S
C971 C970 1.415 . S
H972 C969 0.999 . S
H973 C954 0.913 . S
H974 C992 0.951 . S
H975 C994 0.951 . S
H976 C996 0.950 1_655 S
H977 C997 0.950 . S
H978 C999 0.950 . S
H979 C1002 0.950 . S
H980 C1003 0.950 . S
H981 C1005 0.950 1_455 S
H982 C1006 0.950 . S
H983 C1007 0.951 . S
H984 C1009 0.951 . S
H985 C1011 0.950 1_455 S
H986 C1012 0.950 . S
H987 C1014 0.950 . S
H988 C1017 0.950 . S
H989 C1018 0.950 . S
H990 C1020 0.950 1_655 S
H991 C1021 0.950 . S
C992 H974 0.951 . S
C992 C993 1.366 . S
C992 C994 1.388 . S
C993 C992 1.366 . S
C993 C997 1.385 . S
C994 H975 0.951 . S
C994 C992 1.388 . S
C994 C995 1.366 . S
C995 C994 1.366 . S
C995 C996 1.414 . S
C995 C998 1.499 . S
C996 H976 0.950 1_455 S
C996 C995 1.414 . S
C996 C997 1.374 . S
C997 H977 0.950 . S
C997 C993 1.385 . S
C997 C996 1.374 . S
C998 C995 1.499 . S
C998 C999 1.373 . S
C998 C1000 1.389 1_455 S
C999 H978 0.950 . S
C999 C998 1.373 . S
C999 C1015 1.377 . S
C1000 C998 1.389 1_655 S
C1000 C1001 1.524 . S
C1000 C1014 1.377 . S
C1001 C1000 1.524 . S
C1001 C1002 1.397 . S
C1001 C1006 1.363 1_655 S
C1002 H979 0.950 . S
C1002 C1001 1.397 . S
C1002 C1003 1.334 . S
C1003 H980 0.950 . S
C1003 C1002 1.334 . S
C1003 C1004 1.287 . S
C1004 C1003 1.287 . S
C1004 C1005 1.524 . S
C1004 H1023 0.913 . S
C1005 H981 0.950 1_655 S
C1005 C1004 1.524 . S
C1005 C1006 1.415 1_655 S
C1006 H982 0.950 . S
C1006 C1001 1.363 1_455 S
C1006 C1005 1.415 1_455 S
C1007 H983 0.951 . S
C1007 C1008 1.366 . S
C1007 C1009 1.388 . S
C1008 C1007 1.366 . S
C1008 C1012 1.385 . S
C1009 H984 0.951 . S
C1009 C1007 1.388 . S
C1009 C1010 1.366 . S
C1010 C1009 1.366 . S
C1010 C1011 1.414 . S
C1010 C1013 1.499 . S
C1011 H985 0.950 1_655 S
C1011 C1010 1.414 . S
C1011 C1012 1.374 . S
C1012 H986 0.950 . S
C1012 C1008 1.385 . S
C1012 C1011 1.374 . S
C1013 C1010 1.499 . S
C1013 C1014 1.373 . S
C1013 C1015 1.389 1_655 S
C1014 H987 0.950 . S
C1014 C1000 1.377 . S
C1014 C1013 1.373 . S
C1015 C999 1.377 . S
C1015 C1013 1.389 1_455 S
C1015 C1016 1.524 . S
C1016 C1015 1.524 . S
C1016 C1017 1.397 . S
C1016 C1021 1.363 1_455 S
C1017 H988 0.950 . S
C1017 C1016 1.397 . S
C1017 C1018 1.334 . S
C1018 H989 0.950 . S
C1018 C1017 1.334 . S
C1018 C1019 1.287 . S
C1019 C1018 1.287 . S
C1019 C1020 1.524 . S
C1019 H1022 0.999 . S
C1020 H990 0.950 1_455 S
C1020 C1019 1.524 . S
C1020 C1021 1.415 1_455 S
C1021 H991 0.950 . S
C1021 C1016 1.363 1_655 S
C1021 C1020 1.415 1_655 S
H1022 C1019 0.999 . S
H1023 C1004 0.913 . S
H1024 C1042 0.951 . S
H1025 C1044 0.951 . S
H1026 C1046 0.950 . S
H1027 C1047 0.950 . S
H1028 C1049 0.950 . S
H1029 C1052 0.950 . S
H1030 C1053 0.950 . S
H1031 C1055 0.950 . S
H1032 C1056 0.950 . S
H1033 C1057 0.951 . S
H1034 C1059 0.951 . S
H1035 C1061 0.950 . S
H1036 C1062 0.950 . S
H1037 C1064 0.950 . S
H1038 C1067 0.950 . S
H1039 C1068 0.950 . S
H1040 C1070 0.950 . S
H1041 C1071 0.950 . S
C1042 H1024 0.951 . S
C1042 C1043 1.366 . S
C1042 C1044 1.388 . S
C1043 C1042 1.366 . S
C1043 C1047 1.385 . S
C1044 H1025 0.951 . S
C1044 C1042 1.388 . S
C1044 C1045 1.366 . S
C1045 C1044 1.366 . S
C1045 C1046 1.414 . S
C1045 C1048 1.499 . S
C1046 H1026 0.950 . S
C1046 C1045 1.414 . S
C1046 C1047 1.374 . S
C1047 H1027 0.950 . S
C1047 C1043 1.385 . S
C1047 C1046 1.374 . S
C1048 C1045 1.499 . S
C1048 C1049 1.373 . S
C1048 C1050 1.389 1_455 S
C1049 H1028 0.950 . S
C1049 C1048 1.373 . S
C1049 C1065 1.377 . S
C1050 C1048 1.389 1_655 S
C1050 C1051 1.524 . S
C1050 C1064 1.377 . S
C1051 C1050 1.524 . S
C1051 C1052 1.397 . S
C1051 C1056 1.363 . S
C1052 H1029 0.950 . S
C1052 C1051 1.397 . S
C1052 C1053 1.334 . S
C1053 H1030 0.950 . S
C1053 C1052 1.334 . S
C1053 C1054 1.287 . S
C1054 C1053 1.287 . S
C1054 C1055 1.524 . S
C1054 H1073 0.913 . S
C1055 H1031 0.950 . S
C1055 C1054 1.524 . S
C1055 C1056 1.415 . S
C1056 H1032 0.950 . S
C1056 C1051 1.363 . S
C1056 C1055 1.415 . S
C1057 H1033 0.951 . S
C1057 C1058 1.366 . S
C1057 C1059 1.388 . S
C1058 C1057 1.366 . S
C1058 C1062 1.385 . S
C1059 H1034 0.951 . S
C1059 C1057 1.388 . S
C1059 C1060 1.366 . S
C1060 C1059 1.366 . S
C1060 C1061 1.414 . S
C1060 C1063 1.499 . S
C1061 H1035 0.950 . S
C1061 C1060 1.414 . S
C1061 C1062 1.374 . S
C1062 H1036 0.950 . S
C1062 C1058 1.385 . S
C1062 C1061 1.374 . S
C1063 C1060 1.499 . S
C1063 C1064 1.373 . S
C1063 C1065 1.389 1_655 S
C1064 H1037 0.950 . S
C1064 C1050 1.377 . S
C1064 C1063 1.373 . S
C1065 C1049 1.377 . S
C1065 C1063 1.389 1_455 S
C1065 C1066 1.524 . S
C1066 C1065 1.524 . S
C1066 C1067 1.397 . S
C1066 C1071 1.363 . S
C1067 H1038 0.950 . S
C1067 C1066 1.397 . S
C1067 C1068 1.334 . S
C1068 H1039 0.950 . S
C1068 C1067 1.334 . S
C1068 C1069 1.287 . S
C1069 C1068 1.287 . S
C1069 C1070 1.524 . S
C1069 H1072 0.999 . S
C1070 H1040 0.950 . S
C1070 C1069 1.524 . S
C1070 C1071 1.415 . S
C1071 H1041 0.950 . S
C1071 C1066 1.363 . S
C1071 C1070 1.415 . S
H1072 C1069 0.999 . S
H1073 C1054 0.913 . S
H1074 C1092 0.951 . S
H1075 C1094 0.951 . S
H1076 C1096 0.950 . S
H1077 C1097 0.950 . S
H1078 C1099 0.950 . S
H1079 C1102 0.950 . S
H1080 C1103 0.950 . S
H1081 C1105 0.950 . S
H1082 C1106 0.950 . S
H1083 C1107 0.951 . S
H1084 C1109 0.951 . S
H1085 C1111 0.950 . S
H1086 C1112 0.950 . S
H1087 C1114 0.950 . S
H1088 C1117 0.950 . S
H1089 C1118 0.950 . S
H1090 C1120 0.950 . S
H1091 C1121 0.950 . S
C1092 H1074 0.951 . S
C1092 C1093 1.366 . S
C1092 C1094 1.388 . S
C1093 C1092 1.366 . S
C1093 C1097 1.385 . S
C1094 H1075 0.951 . S
C1094 C1092 1.388 . S
C1094 C1095 1.366 . S
C1095 C1094 1.366 . S
C1095 C1096 1.414 . S
C1095 C1098 1.499 . S
C1096 H1076 0.950 . S
C1096 C1095 1.414 . S
C1096 C1097 1.374 . S
C1097 H1077 0.950 . S
C1097 C1093 1.385 . S
C1097 C1096 1.374 . S
C1098 C1095 1.499 . S
C1098 C1099 1.373 . S
C1098 C1100 1.389 . S
C1099 H1078 0.950 . S
C1099 C1098 1.373 . S
C1099 C1115 1.377 . S
C1100 C1098 1.389 . S
C1100 C1101 1.524 . S
C1100 C1114 1.377 . S
C1101 C1100 1.524 . S
C1101 C1102 1.397 . S
C1101 C1106 1.363 . S
C1102 H1079 0.950 . S
C1102 C1101 1.397 . S
C1102 C1103 1.334 . S
C1103 H1080 0.950 . S
C1103 C1102 1.334 . S
C1103 C1104 1.287 . S
C1104 C1103 1.287 . S
C1104 C1105 1.524 . S
C1104 H1123 0.913 . S
C1105 H1081 0.950 . S
C1105 C1104 1.524 . S
C1105 C1106 1.415 . S
C1106 H1082 0.950 . S
C1106 C1101 1.363 . S
C1106 C1105 1.415 . S
C1107 H1083 0.951 . S
C1107 C1108 1.366 . S
C1107 C1109 1.388 . S
C1108 C1107 1.366 . S
C1108 C1112 1.385 . S
C1109 H1084 0.951 . S
C1109 C1107 1.388 . S
C1109 C1110 1.366 . S
C1110 C1109 1.366 . S
C1110 C1111 1.414 . S
C1110 C1113 1.499 . S
C1111 H1085 0.950 . S
C1111 C1110 1.414 . S
C1111 C1112 1.374 . S
C1112 H1086 0.950 . S
C1112 C1108 1.385 . S
C1112 C1111 1.374 . S
C1113 C1110 1.499 . S
C1113 C1114 1.373 . S
C1113 C1115 1.389 . S
C1114 H1087 0.950 . S
C1114 C1100 1.377 . S
C1114 C1113 1.373 . S
C1115 C1099 1.377 . S
C1115 C1113 1.389 . S
C1115 C1116 1.524 . S
C1116 C1115 1.524 . S
C1116 C1117 1.397 . S
C1116 C1121 1.363 . S
C1117 H1088 0.950 . S
C1117 C1116 1.397 . S
C1117 C1118 1.334 . S
C1118 H1089 0.950 . S
C1118 C1117 1.334 . S
C1118 C1119 1.287 . S
C1119 C1118 1.287 . S
C1119 C1120 1.524 . S
C1119 H1122 0.999 . S
C1120 H1090 0.950 . S
C1120 C1119 1.524 . S
C1120 C1121 1.415 . S
C1121 H1091 0.950 . S
C1121 C1116 1.363 . S
C1121 C1120 1.415 . S
H1122 C1119 0.999 . S
H1123 C1104 0.913 . S
H1124 C1142 0.951 . S
H1125 C1144 0.951 . S
H1126 C1146 0.950 . S
H1127 C1147 0.950 . S
H1128 C1149 0.950 . S
H1129 C1152 0.950 . S
H1130 C1153 0.950 . S
H1131 C1155 0.950 . S
H1132 C1156 0.950 . S
H1133 C1157 0.951 . S
H1134 C1159 0.951 . S
H1135 C1161 0.950 . S
H1136 C1162 0.950 . S
H1137 C1164 0.950 . S
H1138 C1167 0.950 . S
H1139 C1168 0.950 . S
H1140 C1170 0.950 . S
H1141 C1171 0.950 . S
C1142 H1124 0.951 . S
C1142 C1143 1.366 . S
C1142 C1144 1.388 . S
C1143 C1142 1.366 . S
C1143 C1147 1.385 . S
C1144 H1125 0.951 . S
C1144 C1142 1.388 . S
C1144 C1145 1.366 . S
C1145 C1144 1.366 . S
C1145 C1146 1.414 . S
C1145 C1148 1.499 . S
C1146 H1126 0.950 . S
C1146 C1145 1.414 . S
C1146 C1147 1.374 . S
C1147 H1127 0.950 . S
C1147 C1143 1.385 . S
C1147 C1146 1.374 . S
C1148 C1145 1.499 . S
C1148 C1149 1.373 . S
C1148 C1150 1.389 . S
C1149 H1128 0.950 . S
C1149 C1148 1.373 . S
C1149 C1165 1.377 . S
C1150 C1148 1.389 . S
C1150 C1151 1.524 . S
C1150 C1164 1.377 . S
C1151 C1150 1.524 . S
C1151 C1152 1.397 . S
C1151 C1156 1.363 . S
C1152 H1129 0.950 . S
C1152 C1151 1.397 . S
C1152 C1153 1.334 . S
C1153 H1130 0.950 . S
C1153 C1152 1.334 . S
C1153 C1154 1.287 . S
C1154 C1153 1.287 . S
C1154 C1155 1.524 . S
C1154 H1173 0.913 . S
C1155 H1131 0.950 . S
C1155 C1154 1.524 . S
C1155 C1156 1.415 . S
C1156 H1132 0.950 . S
C1156 C1151 1.363 . S
C1156 C1155 1.415 . S
C1157 H1133 0.951 . S
C1157 C1158 1.366 . S
C1157 C1159 1.388 . S
C1158 C1157 1.366 . S
C1158 C1162 1.385 . S
C1159 H1134 0.951 . S
C1159 C1157 1.388 . S
C1159 C1160 1.366 . S
C1160 C1159 1.366 . S
C1160 C1161 1.414 . S
C1160 C1163 1.499 . S
C1161 H1135 0.950 . S
C1161 C1160 1.414 . S
C1161 C1162 1.374 . S
C1162 H1136 0.950 . S
C1162 C1158 1.385 . S
C1162 C1161 1.374 . S
C1163 C1160 1.499 . S
C1163 C1164 1.373 . S
C1163 C1165 1.389 . S
C1164 H1137 0.950 . S
C1164 C1150 1.377 . S
C1164 C1163 1.373 . S
C1165 C1149 1.377 . S
C1165 C1163 1.389 . S
C1165 C1166 1.524 . S
C1166 C1165 1.524 . S
C1166 C1167 1.397 . S
C1166 C1171 1.363 . S
C1167 H1138 0.950 . S
C1167 C1166 1.397 . S
C1167 C1168 1.334 . S
C1168 H1139 0.950 . S
C1168 C1167 1.334 . S
C1168 C1169 1.287 . S
C1169 C1168 1.287 . S
C1169 C1170 1.524 . S
C1169 H1172 0.999 . S
C1170 H1140 0.950 . S
C1170 C1169 1.524 . S
C1170 C1171 1.415 . S
C1171 H1141 0.950 . S
C1171 C1166 1.363 . S
C1171 C1170 1.415 . S
H1172 C1169 0.999 . S
H1173 C1154 0.913 . S
H1174 C1192 0.951 . S
H1175 C1194 0.951 . S
H1176 C1196 0.950 . S
H1177 C1197 0.950 1_655 S
H1178 C1199 0.950 . S
H1179 C1202 0.950 . S
H1180 C1203 0.950 . S
H1181 C1205 0.950 . S
H1182 C1206 0.950 . S
H1183 C1207 0.951 . S
H1184 C1209 0.951 . S
H1185 C1211 0.950 . S
H1186 C1212 0.950 1_455 S
H1187 C1214 0.950 . S
H1188 C1217 0.950 . S
H1189 C1218 0.950 . S
H1190 C1220 0.950 . S
H1191 C1221 0.950 . S
C1192 H1174 0.951 . S
C1192 C1193 1.366 . S
C1192 C1194 1.388 . S
C1193 C1192 1.366 . S
C1193 C1197 1.385 . S
C1194 H1175 0.951 . S
C1194 C1192 1.388 . S
C1194 C1195 1.366 . S
C1195 C1194 1.366 . S
C1195 C1196 1.414 1_455 S
C1195 C1198 1.499 . S
C1196 H1176 0.950 . S
C1196 C1195 1.414 1_655 S
C1196 C1197 1.374 1_655 S
C1197 H1177 0.950 1_455 S
C1197 C1193 1.385 . S
C1197 C1196 1.374 1_455 S
C1198 C1195 1.499 . S
C1198 C1199 1.373 1_455 S
C1198 C1200 1.389 . S
C1199 H1178 0.950 . S
C1199 C1198 1.373 1_655 S
C1199 C1215 1.377 . S
C1200 C1198 1.389 . S
C1200 C1201 1.524 . S
C1200 C1214 1.377 . S
C1201 C1200 1.524 . S
C1201 C1202 1.397 . S
C1201 C1206 1.363 . S
C1202 H1179 0.950 . S
C1202 C1201 1.397 . S
C1202 C1203 1.334 . S
C1203 H1180 0.950 . S
C1203 C1202 1.334 . S
C1203 C1204 1.287 . S
C1204 C1203 1.287 . S
C1204 C1205 1.524 . S
C1204 H1223 0.913 . S
C1205 H1181 0.950 . S
C1205 C1204 1.524 . S
C1205 C1206 1.415 . S
C1206 H1182 0.950 . S
C1206 C1201 1.363 . S
C1206 C1205 1.415 . S
C1207 H1183 0.951 . S
C1207 C1208 1.366 . S
C1207 C1209 1.388 . S
C1208 C1207 1.366 . S
C1208 C1212 1.385 . S
C1209 H1184 0.951 . S
C1209 C1207 1.388 . S
C1209 C1210 1.366 . S
C1210 C1209 1.366 . S
C1210 C1211 1.414 1_655 S
C1210 C1213 1.499 . S
C1211 H1185 0.950 . S
C1211 C1210 1.414 1_455 S
C1211 C1212 1.374 1_455 S
C1212 H1186 0.950 1_655 S
C1212 C1208 1.385 . S
C1212 C1211 1.374 1_655 S
C1213 C1210 1.499 . S
C1213 C1214 1.373 1_655 S
C1213 C1215 1.389 . S
C1214 H1187 0.950 . S
C1214 C1200 1.377 . S
C1214 C1213 1.373 1_455 S
C1215 C1199 1.377 . S
C1215 C1213 1.389 . S
C1215 C1216 1.524 . S
C1216 C1215 1.524 . S
C1216 C1217 1.397 . S
C1216 C1221 1.363 . S
C1217 H1188 0.950 . S
C1217 C1216 1.397 . S
C1217 C1218 1.334 . S
C1218 H1189 0.950 . S
C1218 C1217 1.334 . S
C1218 C1219 1.287 . S
C1219 C1218 1.287 . S
C1219 C1220 1.524 . S
C1219 H1222 0.999 . S
C1220 H1190 0.950 . S
C1220 C1219 1.524 . S
C1220 C1221 1.415 . S
C1221 H1191 0.950 . S
C1221 C1216 1.363 . S
C1221 C1220 1.415 . S
H1222 C1219 0.999 . S
H1223 C1204 0.913 . S
H1224 C1242 0.951 1_655 S
H1225 C1244 0.951 . S
H1226 C1246 0.950 . S
H1227 C1247 0.950 . S
H1228 C1249 0.950 . S
H1229 C1252 0.950 . S
H1230 C1253 0.950 . S
H1231 C1255 0.950 . S
H1232 C1256 0.950 . S
H1233 C1257 0.951 1_455 S
H1234 C1259 0.951 . S
H1235 C1261 0.950 . S
H1236 C1262 0.950 . S
H1237 C1264 0.950 . S
H1238 C1267 0.950 . S
H1239 C1268 0.950 . S
H1240 C1270 0.950 . S
H1241 C1271 0.950 . S
C1242 H1224 0.951 1_455 S
C1242 C1243 1.366 . S
C1242 C1244 1.388 1_455 S
C1243 C1242 1.366 . S
C1243 C1247 1.385 . S
C1244 H1225 0.951 . S
C1244 C1242 1.388 1_655 S
C1244 C1245 1.366 1_655 S
C1245 C1244 1.366 1_455 S
C1245 C1246 1.414 . S
C1245 C1248 1.499 . S
C1246 H1226 0.950 . S
C1246 C1245 1.414 . S
C1246 C1247 1.374 . S
C1247 H1227 0.950 . S
C1247 C1243 1.385 . S
C1247 C1246 1.374 . S
C1248 C1245 1.499 . S
C1248 C1249 1.373 . S
C1248 C1250 1.389 1_455 S
C1249 H1228 0.950 . S
C1249 C1248 1.373 . S
C1249 C1265 1.377 . S
C1250 C1248 1.389 1_655 S
C1250 C1251 1.524 . S
C1250 C1264 1.377 . S
C1251 C1250 1.524 . S
C1251 C1252 1.397 1_655 S
C1251 C1256 1.363 . S
C1252 H1229 0.950 . S
C1252 C1251 1.397 1_455 S
C1252 C1253 1.334 . S
C1253 H1230 0.950 . S
C1253 C1252 1.334 . S
C1253 C1254 1.287 1_455 S
C1254 C1253 1.287 1_655 S
C1254 C1255 1.524 . S
C1254 H1273 0.913 . S
C1255 H1231 0.950 . S
C1255 C1254 1.524 . S
C1255 C1256 1.415 . S
C1256 H1232 0.950 . S
C1256 C1251 1.363 . S
C1256 C1255 1.415 . S
C1257 H1233 0.951 1_655 S
C1257 C1258 1.366 . S
C1257 C1259 1.388 1_655 S
C1258 C1257 1.366 . S
C1258 C1262 1.385 . S
C1259 H1234 0.951 . S
C1259 C1257 1.388 1_455 S
C1259 C1260 1.366 1_455 S
C1260 C1259 1.366 1_655 S
C1260 C1261 1.414 . S
C1260 C1263 1.499 . S
C1261 H1235 0.950 . S
C1261 C1260 1.414 . S
C1261 C1262 1.374 . S
C1262 H1236 0.950 . S
C1262 C1258 1.385 . S
C1262 C1261 1.374 . S
C1263 C1260 1.499 . S
C1263 C1264 1.373 . S
C1263 C1265 1.389 1_655 S
C1264 H1237 0.950 . S
C1264 C1250 1.377 . S
C1264 C1263 1.373 . S
C1265 C1249 1.377 . S
C1265 C1263 1.389 1_455 S
C1265 C1266 1.524 . S
C1266 C1265 1.524 . S
C1266 C1267 1.397 1_455 S
C1266 C1271 1.363 . S
C1267 H1238 0.950 . S
C1267 C1266 1.397 1_655 S
C1267 C1268 1.334 . S
C1268 H1239 0.950 . S
C1268 C1267 1.334 . S
C1268 C1269 1.287 1_655 S
C1269 C1268 1.287 1_455 S
C1269 C1270 1.524 . S
C1269 H1272 0.999 . S
C1270 H1240 0.950 . S
C1270 C1269 1.524 . S
C1270 C1271 1.415 . S
C1271 H1241 0.950 . S
C1271 C1266 1.363 . S
C1271 C1270 1.415 . S
H1272 C1269 0.999 . S
H1273 C1254 0.913 . S
H1274 C1292 0.951 . S
H1275 C1294 0.951 . S
H1276 C1296 0.950 . S
H1277 C1297 0.950 . S
H1278 C1299 0.950 . S
H1279 C1302 0.950 . S
H1280 C1303 0.950 . S
H1281 C1305 0.950 . S
H1282 C1306 0.950 . S
H1283 C1307 0.951 . S
H1284 C1309 0.951 . S
H1285 C1311 0.950 . S
H1286 C1312 0.950 . S
H1287 C1314 0.950 . S
H1288 C1317 0.950 . S
H1289 C1318 0.950 . S
H1290 C1320 0.950 . S
H1291 C1321 0.950 . S
C1292 H1274 0.951 . S
C1292 C1293 1.366 . S
C1292 C1294 1.388 . S
C1293 C1292 1.366 . S
C1293 C1297 1.385 . S
C1294 H1275 0.951 . S
C1294 C1292 1.388 . S
C1294 C1295 1.366 . S
C1295 C1294 1.366 . S
C1295 C1296 1.414 . S
C1295 C1298 1.499 . S
C1296 H1276 0.950 . S
C1296 C1295 1.414 . S
C1296 C1297 1.374 . S
C1297 H1277 0.950 . S
C1297 C1293 1.385 . S
C1297 C1296 1.374 . S
C1298 C1295 1.499 . S
C1298 C1299 1.373 . S
C1298 C1300 1.389 . S
C1299 H1278 0.950 . S
C1299 C1298 1.373 . S
C1299 C1315 1.377 . S
C1300 C1298 1.389 . S
C1300 C1301 1.524 . S
C1300 C1314 1.377 . S
C1301 C1300 1.524 . S
C1301 C1302 1.397 . S
C1301 C1306 1.363 . S
C1302 H1279 0.950 . S
C1302 C1301 1.397 . S
C1302 C1303 1.334 . S
C1303 H1280 0.950 . S
C1303 C1302 1.334 . S
C1303 C1304 1.287 . S
C1304 C1303 1.287 . S
C1304 C1305 1.524 . S
C1304 H1323 0.913 . S
C1305 H1281 0.950 . S
C1305 C1304 1.524 . S
C1305 C1306 1.415 . S
C1306 H1282 0.950 . S
C1306 C1301 1.363 . S
C1306 C1305 1.415 . S
C1307 H1283 0.951 . S
C1307 C1308 1.366 . S
C1307 C1309 1.388 . S
C1308 C1307 1.366 . S
C1308 C1312 1.385 . S
C1309 H1284 0.951 . S
C1309 C1307 1.388 . S
C1309 C1310 1.366 . S
C1310 C1309 1.366 . S
C1310 C1311 1.414 . S
C1310 C1313 1.499 . S
C1311 H1285 0.950 . S
C1311 C1310 1.414 . S
C1311 C1312 1.374 . S
C1312 H1286 0.950 . S
C1312 C1308 1.385 . S
C1312 C1311 1.374 . S
C1313 C1310 1.499 . S
C1313 C1314 1.373 . S
C1313 C1315 1.389 . S
C1314 H1287 0.950 . S
C1314 C1300 1.377 . S
C1314 C1313 1.373 . S
C1315 C1299 1.377 . S
C1315 C1313 1.389 . S
C1315 C1316 1.524 . S
C1316 C1315 1.524 . S
C1316 C1317 1.397 . S
C1316 C1321 1.363 . S
C1317 H1288 0.950 . S
C1317 C1316 1.397 . S
C1317 C1318 1.334 . S
C1318 H1289 0.950 . S
C1318 C1317 1.334 . S
C1318 C1319 1.287 . S
C1319 C1318 1.287 . S
C1319 C1320 1.524 . S
C1319 H1322 0.999 . S
C1320 H1290 0.950 . S
C1320 C1319 1.524 . S
C1320 C1321 1.415 . S
C1321 H1291 0.950 . S
C1321 C1316 1.363 . S
C1321 C1320 1.415 . S
H1322 C1319 0.999 . S
H1323 C1304 0.913 . S
H1324 C1342 0.951 . S
H1325 C1344 0.951 . S
H1326 C1346 0.950 . S
H1327 C1347 0.950 . S
H1328 C1349 0.950 . S
H1329 C1352 0.950 . S
H1330 C1353 0.950 . S
H1331 C1355 0.950 . S
H1332 C1356 0.950 . S
H1333 C1357 0.951 . S
H1334 C1359 0.951 . S
H1335 C1361 0.950 . S
H1336 C1362 0.950 . S
H1337 C1364 0.950 . S
H1338 C1367 0.950 . S
H1339 C1368 0.950 . S
H1340 C1370 0.950 . S
H1341 C1371 0.950 . S
C1342 H1324 0.951 . S
C1342 C1343 1.366 . S
C1342 C1344 1.388 . S
C1343 C1342 1.366 . S
C1343 C1347 1.385 . S
C1344 H1325 0.951 . S
C1344 C1342 1.388 . S
C1344 C1345 1.366 . S
C1345 C1344 1.366 . S
C1345 C1346 1.414 . S
C1345 C1348 1.499 . S
C1346 H1326 0.950 . S
C1346 C1345 1.414 . S
C1346 C1347 1.374 . S
C1347 H1327 0.950 . S
C1347 C1343 1.385 . S
C1347 C1346 1.374 . S
C1348 C1345 1.499 . S
C1348 C1349 1.373 . S
C1348 C1350 1.389 . S
C1349 H1328 0.950 . S
C1349 C1348 1.373 . S
C1349 C1365 1.377 . S
C1350 C1348 1.389 . S
C1350 C1351 1.524 . S
C1350 C1364 1.377 . S
C1351 C1350 1.524 . S
C1351 C1352 1.397 . S
C1351 C1356 1.363 . S
C1352 H1329 0.950 . S
C1352 C1351 1.397 . S
C1352 C1353 1.334 . S
C1353 H1330 0.950 . S
C1353 C1352 1.334 . S
C1353 C1354 1.287 . S
C1354 C1353 1.287 . S
C1354 C1355 1.524 . S
C1354 H1373 0.913 . S
C1355 H1331 0.950 . S
C1355 C1354 1.524 . S
C1355 C1356 1.415 . S
C1356 H1332 0.950 . S
C1356 C1351 1.363 . S
C1356 C1355 1.415 . S
C1357 H1333 0.951 . S
C1357 C1358 1.366 . S
C1357 C1359 1.388 . S
C1358 C1357 1.366 . S
C1358 C1362 1.385 . S
C1359 H1334 0.951 . S
C1359 C1357 1.388 . S
C1359 C1360 1.366 . S
C1360 C1359 1.366 . S
C1360 C1361 1.414 . S
C1360 C1363 1.499 . S
C1361 H1335 0.950 . S
C1361 C1360 1.414 . S
C1361 C1362 1.374 . S
C1362 H1336 0.950 . S
C1362 C1358 1.385 . S
C1362 C1361 1.374 . S
C1363 C1360 1.499 . S
C1363 C1364 1.373 . S
C1363 C1365 1.389 . S
C1364 H1337 0.950 . S
C1364 C1350 1.377 . S
C1364 C1363 1.373 . S
C1365 C1349 1.377 . S
C1365 C1363 1.389 . S
C1365 C1366 1.524 . S
C1366 C1365 1.524 . S
C1366 C1367 1.397 . S
C1366 C1371 1.363 . S
C1367 H1338 0.950 . S
C1367 C1366 1.397 . S
C1367 C1368 1.334 . S
C1368 H1339 0.950 . S
C1368 C1367 1.334 . S
C1368 C1369 1.287 . S
C1369 C1368 1.287 . S
C1369 C1370 1.524 . S
C1369 H1372 0.999 . S
C1370 H1340 0.950 . S
C1370 C1369 1.524 . S
C1370 C1371 1.415 . S
C1371 H1341 0.950 . S
C1371 C1366 1.363 . S
C1371 C1370 1.415 . S
H1372 C1369 0.999 . S
H1373 C1354 0.913 . S
H1374 C1392 0.951 . S
H1375 C1394 0.951 . S
H1376 C1396 0.958 . S
H1377 C1397 0.950 1_655 S
H1378 C1399 0.950 . S
H1379 C1402 0.950 . S
H1380 C1403 0.950 . S
H1381 C1405 0.950 . S
H1382 C1406 0.950 . S
H1383 C1407 0.951 . S
H1384 C1409 0.951 . S
H1385 C1411 0.958 . S
H1386 C1412 0.950 1_455 S
H1387 C1414 0.950 . S
H1388 C1417 0.950 . S
H1389 C1418 0.950 . S
H1390 C1420 0.950 . S
H1391 C1421 0.950 . S
C1392 H1374 0.951 . S
C1392 C1393 1.366 . S
C1392 C1394 1.388 . S
C1393 C1392 1.366 . S
C1393 C1397 1.385 . S
C1394 H1375 0.951 . S
C1394 C1392 1.388 . S
C1394 C1395 1.366 . S
C1395 C1394 1.366 . S
C1395 C1396 1.409 1_455 S
C1395 C1398 1.499 . S
C1396 H1376 0.958 . S
C1396 C1395 1.409 1_655 S
C1396 C1397 1.371 1_655 S
C1397 H1377 0.950 1_455 S
C1397 C1393 1.385 . S
C1397 C1396 1.371 1_455 S
C1398 C1395 1.499 . S
C1398 C1399 1.373 1_455 S
C1398 C1400 1.389 . S
C1399 H1378 0.950 . S
C1399 C1398 1.373 1_655 S
C1399 C1415 1.377 . S
C1400 C1398 1.389 . S
C1400 C1401 1.524 . S
C1400 C1414 1.377 . S
C1401 C1400 1.524 . S
C1401 C1402 1.397 . S
C1401 C1406 1.363 . S
C1402 H1379 0.950 . S
C1402 C1401 1.397 . S
C1402 C1403 1.334 . S
C1403 H1380 0.950 . S
C1403 C1402 1.334 . S
C1403 C1404 1.287 . S
C1404 C1403 1.287 . S
C1404 C1405 1.524 . S
C1404 H1423 0.913 . S
C1405 H1381 0.950 . S
C1405 C1404 1.524 . S
C1405 C1406 1.415 . S
C1406 H1382 0.950 . S
C1406 C1401 1.363 . S
C1406 C1405 1.415 . S
C1407 H1383 0.951 . S
C1407 C1408 1.366 . S
C1407 C1409 1.388 . S
C1408 C1407 1.366 . S
C1408 C1412 1.385 . S
C1409 H1384 0.951 . S
C1409 C1407 1.388 . S
C1409 C1410 1.366 . S
C1410 C1409 1.366 . S
C1410 C1411 1.409 1_655 S
C1410 C1413 1.499 . S
C1411 H1385 0.958 . S
C1411 C1410 1.409 1_455 S
C1411 C1412 1.371 1_455 S
C1412 H1386 0.950 1_655 S
C1412 C1408 1.385 . S
C1412 C1411 1.371 1_655 S
C1413 C1410 1.499 . S
C1413 C1414 1.373 1_655 S
C1413 C1415 1.389 . S
C1414 H1387 0.950 . S
C1414 C1400 1.377 . S
C1414 C1413 1.373 1_455 S
C1415 C1399 1.377 . S
C1415 C1413 1.389 . S
C1415 C1416 1.524 . S
C1416 C1415 1.524 . S
C1416 C1417 1.397 . S
C1416 C1421 1.363 . S
C1417 H1388 0.950 . S
C1417 C1416 1.397 . S
C1417 C1418 1.334 . S
C1418 H1389 0.950 . S
C1418 C1417 1.334 . S
C1418 C1419 1.287 . S
C1419 C1418 1.287 . S
C1419 C1420 1.524 . S
C1419 H1422 0.999 . S
C1420 H1390 0.950 . S
C1420 C1419 1.524 . S
C1420 C1421 1.415 . S
C1421 H1391 0.950 . S
C1421 C1416 1.363 . S
C1421 C1420 1.415 . S
H1422 C1419 0.999 . S
H1423 C1404 0.913 . S
H1424 C1442 0.951 1_455 S
H1425 C1444 0.989 . S
H1426 C1446 0.950 . S
H1427 C1447 0.950 . S
H1428 C1449 0.950 . S
H1429 C1452 0.950 . S
H1430 C1453 0.927 1_655 S
H1431 C1455 0.950 . S
H1432 C1456 0.950 . S
H1433 C1457 0.951 1_655 S
H1434 C1459 0.989 . S
H1435 C1461 0.950 . S
H1436 C1462 0.950 . S
H1437 C1464 0.950 . S
H1438 C1467 0.950 . S
H1439 C1468 0.927 1_455 S
H1440 C1470 0.950 . S
H1441 C1471 0.950 . S
C1442 H1424 0.951 1_655 S
C1442 C1443 1.366 . S
C1442 C1444 1.377 1_655 S
C1443 C1442 1.366 . S
C1443 C1447 1.385 . S
C1444 H1425 0.989 . S
C1444 C1442 1.377 1_455 S
C1444 C1445 1.340 1_455 S
C1445 C1444 1.340 1_655 S
C1445 C1446 1.414 . S
C1445 C1448 1.499 . S
C1446 H1426 0.950 . S
C1446 C1445 1.414 . S
C1446 C1447 1.374 . S
C1447 H1427 0.950 . S
C1447 C1443 1.385 . S
C1447 C1446 1.374 . S
C1448 C1445 1.499 . S
C1448 C1449 1.373 1_565 S
C1448 C1450 1.389 1_655 S
C1449 H1428 0.950 . S
C1449 C1448 1.373 1_545 S
C1449 C1465 1.377 1_556 S
C1450 C1448 1.389 1_455 S
C1450 C1451 1.524 . S
C1450 C1464 1.377 1_556 S
C1451 C1450 1.524 . S
C1451 C1452 1.397 1_455 S
C1451 C1456 1.363 . S
C1452 H1429 0.950 . S
C1452 C1451 1.397 1_655 S
C1452 C1453 1.328 1_655 S
C1453 H1430 0.927 1_455 S
C1453 C1452 1.328 1_455 S
C1453 C1454 1.317 . S
C1454 C1453 1.317 . S
C1454 C1455 1.524 . S
C1454 H1473 0.913 . S
C1455 H1431 0.950 . S
C1455 C1454 1.524 . S
C1455 C1456 1.415 . S
C1456 H1432 0.950 . S
C1456 C1451 1.363 . S
C1456 C1455 1.415 . S
C1457 H1433 0.951 1_455 S
C1457 C1458 1.366 . S
C1457 C1459 1.377 1_455 S
C1458 C1457 1.366 . S
C1458 C1462 1.385 . S
C1459 H1434 0.989 . S
C1459 C1457 1.377 1_655 S
C1459 C1460 1.340 1_655 S
C1460 C1459 1.340 1_455 S
C1460 C1461 1.414 . S
C1460 C1463 1.499 . S
C1461 H1435 0.950 . S
C1461 C1460 1.414 . S
C1461 C1462 1.374 . S
C1462 H1436 0.950 . S
C1462 C1458 1.385 . S
C1462 C1461 1.374 . S
C1463 C1460 1.499 . S
C1463 C1464 1.373 1_545 S
C1463 C1465 1.389 1_455 S
C1464 H1437 0.950 . S
C1464 C1450 1.377 1_554 S
C1464 C1463 1.373 1_565 S
C1465 C1449 1.377 1_554 S
C1465 C1463 1.389 1_655 S
C1465 C1466 1.524 . S
C1466 C1465 1.524 . S
C1466 C1467 1.397 1_655 S
C1466 C1471 1.363 . S
C1467 H1438 0.950 . S
C1467 C1466 1.397 1_455 S
C1467 C1468 1.328 1_455 S
C1468 H1439 0.927 1_655 S
C1468 C1467 1.328 1_655 S
C1468 C1469 1.317 . S
C1469 C1468 1.317 . S
C1469 C1470 1.524 . S
C1469 H1472 0.999 . S
C1470 H1440 0.950 . S
C1470 C1469 1.524 . S
C1470 C1471 1.415 . S
C1471 H1441 0.950 . S
C1471 C1466 1.363 . S
C1471 C1470 1.415 . S
H1472 C1469 0.999 . S
H1473 C1454 0.913 . S
H1474 C1492 0.951 . S
H1475 C1494 0.951 . S
H1476 C1496 0.950 1_565 S
H1477 C1497 0.950 . S
H1478 C1499 0.950 . S
H1479 C1502 0.950 . S
H1480 C1503 0.950 . S
H1481 C1505 0.950 . S
H1482 C1506 0.950 . S
H1483 C1507 0.951 . S
H1484 C1509 0.951 . S
H1485 C1511 0.950 1_545 S
H1486 C1512 0.950 . S
H1487 C1514 0.950 . S
H1488 C1517 0.950 . S
H1489 C1518 0.950 . S
H1490 C1520 0.950 . S
H1491 C1521 0.950 . S
C1492 H1474 0.951 . S
C1492 C1493 1.366 . S
C1492 C1494 1.388 . S
C1493 C1492 1.366 . S
C1493 C1497 1.385 . S
C1494 H1475 0.951 . S
C1494 C1492 1.388 . S
C1494 C1495 1.366 . S
C1495 C1494 1.366 . S
C1495 C1496 1.414 . S
C1495 C1498 1.499 . S
C1496 H1476 0.950 1_545 S
C1496 C1495 1.414 . S
C1496 C1497 1.374 . S
C1497 H1477 0.950 . S
C1497 C1493 1.385 . S
C1497 C1496 1.374 . S
C1498 C1495 1.499 . S
C1498 C1499 1.373 . S
C1498 C1500 1.389 . S
C1499 H1478 0.950 . S
C1499 C1498 1.373 . S
C1499 C1515 1.377 1_546 S
C1500 C1498 1.389 . S
C1500 C1501 1.524 . S
C1500 C1514 1.377 1_546 S
C1501 C1500 1.524 . S
C1501 C1502 1.397 1_545 S
C1501 C1506 1.363 1_556 S
C1502 H1479 0.950 . S
C1502 C1501 1.397 1_565 S
C1502 C1503 1.334 . S
C1503 H1480 0.950 . S
C1503 C1502 1.334 . S
C1503 C1504 1.287 1_565 S
C1504 C1503 1.287 1_545 S
C1504 C1505 1.524 1_556 S
C1504 H1523 0.913 . S
C1505 H1481 0.950 . S
C1505 C1504 1.524 1_554 S
C1505 C1506 1.415 . S
C1506 H1482 0.950 . S
C1506 C1501 1.363 1_554 S
C1506 C1505 1.415 . S
C1507 H1483 0.951 . S
C1507 C1508 1.366 . S
C1507 C1509 1.388 . S
C1508 C1507 1.366 . S
C1508 C1512 1.385 . S
C1509 H1484 0.951 . S
C1509 C1507 1.388 . S
C1509 C1510 1.366 . S
C1510 C1509 1.366 . S
C1510 C1511 1.414 . S
C1510 C1513 1.499 . S
C1511 H1485 0.950 1_565 S
C1511 C1510 1.414 . S
C1511 C1512 1.374 . S
C1512 H1486 0.950 . S
C1512 C1508 1.385 . S
C1512 C1511 1.374 . S
C1513 C1510 1.499 . S
C1513 C1514 1.373 . S
C1513 C1515 1.389 . S
C1514 H1487 0.950 . S
C1514 C1500 1.377 1_564 S
C1514 C1513 1.373 . S
C1515 C1499 1.377 1_564 S
C1515 C1513 1.389 . S
C1515 C1516 1.524 . S
C1516 C1515 1.524 . S
C1516 C1517 1.397 1_565 S
C1516 C1521 1.363 1_554 S
C1517 H1488 0.950 . S
C1517 C1516 1.397 1_545 S
C1517 C1518 1.334 . S
C1518 H1489 0.950 . S
C1518 C1517 1.334 . S
C1518 C1519 1.287 1_545 S
C1519 C1518 1.287 1_565 S
C1519 C1520 1.524 1_554 S
C1519 H1522 0.999 . S
C1520 H1490 0.950 . S
C1520 C1519 1.524 1_556 S
C1520 C1521 1.415 . S
C1521 H1491 0.950 . S
C1521 C1516 1.363 1_556 S
C1521 C1520 1.415 . S
H1522 C1519 0.999 . S
H1523 C1504 0.913 . S
H1524 C1542 0.951 . S
H1525 C1544 0.951 . S
H1526 C1546 0.950 . S
H1527 C1547 0.950 . S
H1528 C1549 0.950 . S
H1529 C1552 0.950 . S
H1530 C1553 0.950 . S
H1531 C1555 0.950 . S
H1532 C1556 0.950 . S
H1533 C1557 0.951 . S
H1534 C1559 0.951 . S
H1535 C1561 0.950 . S
H1536 C1562 0.950 . S
H1537 C1564 0.950 . S
H1538 C1567 0.950 . S
H1539 C1568 0.950 . S
H1540 C1570 0.950 . S
H1541 C1571 0.950 . S
C1542 H1524 0.951 . S
C1542 C1543 1.366 . S
C1542 C1544 1.388 . S
C1543 C1542 1.366 . S
C1543 C1547 1.385 . S
C1544 H1525 0.951 . S
C1544 C1542 1.388 . S
C1544 C1545 1.366 . S
C1545 C1544 1.366 . S
C1545 C1546 1.414 . S
C1545 C1548 1.499 . S
C1546 H1526 0.950 . S
C1546 C1545 1.414 . S
C1546 C1547 1.374 . S
C1547 H1527 0.950 . S
C1547 C1543 1.385 . S
C1547 C1546 1.374 . S
C1548 C1545 1.499 . S
C1548 C1549 1.373 . S
C1548 C1550 1.389 1_545 S
C1549 H1528 0.950 . S
C1549 C1548 1.373 . S
C1549 C1565 1.377 . S
C1550 C1548 1.389 1_565 S
C1550 C1551 1.524 . S
C1550 C1564 1.377 . S
C1551 C1550 1.524 . S
C1551 C1552 1.397 . S
C1551 C1556 1.363 . S
C1552 H1529 0.950 . S
C1552 C1551 1.397 . S
C1552 C1553 1.334 . S
C1553 H1530 0.950 . S
C1553 C1552 1.334 . S
C1553 C1554 1.287 . S
C1554 C1553 1.287 . S
C1554 C1555 1.524 . S
C1554 H1573 0.913 . S
C1555 H1531 0.950 . S
C1555 C1554 1.524 . S
C1555 C1556 1.415 . S
C1556 H1532 0.950 . S
C1556 C1551 1.363 . S
C1556 C1555 1.415 . S
C1557 H1533 0.951 . S
C1557 C1558 1.366 . S
C1557 C1559 1.388 . S
C1558 C1557 1.366 . S
C1558 C1562 1.385 . S
C1559 H1534 0.951 . S
C1559 C1557 1.388 . S
C1559 C1560 1.366 . S
C1560 C1559 1.366 . S
C1560 C1561 1.414 . S
C1560 C1563 1.499 . S
C1561 H1535 0.950 . S
C1561 C1560 1.414 . S
C1561 C1562 1.374 . S
C1562 H1536 0.950 . S
C1562 C1558 1.385 . S
C1562 C1561 1.374 . S
C1563 C1560 1.499 . S
C1563 C1564 1.373 . S
C1563 C1565 1.389 1_565 S
C1564 H1537 0.950 . S
C1564 C1550 1.377 . S
C1564 C1563 1.373 . S
C1565 C1549 1.377 . S
C1565 C1563 1.389 1_545 S
C1565 C1566 1.524 . S
C1566 C1565 1.524 . S
C1566 C1567 1.397 . S
C1566 C1571 1.363 . S
C1567 H1538 0.950 . S
C1567 C1566 1.397 . S
C1567 C1568 1.334 . S
C1568 H1539 0.950 . S
C1568 C1567 1.334 . S
C1568 C1569 1.287 . S
C1569 C1568 1.287 . S
C1569 C1570 1.524 . S
C1569 H1572 0.999 . S
C1570 H1540 0.950 . S
C1570 C1569 1.524 . S
C1570 C1571 1.415 . S
C1571 H1541 0.950 . S
C1571 C1566 1.363 . S
C1571 C1570 1.415 . S
H1572 C1569 0.999 . S
H1573 C1554 0.913 . S
H1574 C1592 0.951 . S
H1575 C1594 0.951 . S
H1576 C1596 0.950 1_645 S
H1577 C1597 0.950 . S
H1578 C1599 0.950 . S
H1579 C1602 0.950 . S
H1580 C1603 0.950 . S
H1581 C1605 0.950 . S
H1582 C1606 0.950 . S
H1583 C1607 0.951 . S
H1584 C1609 0.951 . S
H1585 C1611 0.950 1_465 S
H1586 C1612 0.950 . S
H1587 C1614 0.950 . S
H1588 C1617 0.950 . S
H1589 C1618 0.950 . S
H1590 C1620 0.950 . S
H1591 C1621 0.950 . S
C1592 H1574 0.951 . S
C1592 C1593 1.366 . S
C1592 C1594 1.388 . S
C1593 C1592 1.366 . S
C1593 C1597 1.385 . S
C1594 H1575 0.951 . S
C1594 C1592 1.388 . S
C1594 C1595 1.366 . S
C1595 C1594 1.366 . S
C1595 C1596 1.414 . S
C1595 C1598 1.499 . S
C1596 H1576 0.950 1_465 S
C1596 C1595 1.414 . S
C1596 C1597 1.374 . S
C1597 H1577 0.950 . S
C1597 C1593 1.385 . S
C1597 C1596 1.374 . S
C1598 C1595 1.499 . S
C1598 C1599 1.373 1_455 S
C1598 C1600 1.389 . S
C1599 H1578 0.950 . S
C1599 C1598 1.373 1_655 S
C1599 C1615 1.377 1_565 S
C1600 C1598 1.389 . S
C1600 C1601 1.524 . S
C1600 C1614 1.377 1_565 S
C1601 C1600 1.524 . S
C1601 C1602 1.397 1_565 S
C1601 C1606 1.363 . S
C1602 H1579 0.950 . S
C1602 C1601 1.397 1_545 S
C1602 C1603 1.334 . S
C1603 H1580 0.950 . S
C1603 C1602 1.334 . S
C1603 C1604 1.287 1_545 S
C1604 C1603 1.287 1_565 S
C1604 C1605 1.524 . S
C1604 H1623 0.913 . S
C1605 H1581 0.950 . S
C1605 C1604 1.524 . S
C1605 C1606 1.415 . S
C1606 H1582 0.950 . S
C1606 C1601 1.363 . S
C1606 C1605 1.415 . S
C1607 H1583 0.951 . S
C1607 C1608 1.366 . S
C1607 C1609 1.388 . S
C1608 C1607 1.366 . S
C1608 C1612 1.385 . S
C1609 H1584 0.951 . S
C1609 C1607 1.388 . S
C1609 C1610 1.366 . S
C1610 C1609 1.366 . S
C1610 C1611 1.414 . S
C1610 C1613 1.499 . S
C1611 H1585 0.950 1_645 S
C1611 C1610 1.414 . S
C1611 C1612 1.374 . S
C1612 H1586 0.950 . S
C1612 C1608 1.385 . S
C1612 C1611 1.374 . S
C1613 C1610 1.499 . S
C1613 C1614 1.373 1_655 S
C1613 C1615 1.389 . S
C1614 H1587 0.950 . S
C1614 C1600 1.377 1_545 S
C1614 C1613 1.373 1_455 S
C1615 C1599 1.377 1_545 S
C1615 C1613 1.389 . S
C1615 C1616 1.524 . S
C1616 C1615 1.524 . S
C1616 C1617 1.397 1_545 S
C1616 C1621 1.363 . S
C1617 H1588 0.950 . S
C1617 C1616 1.397 1_565 S
C1617 C1618 1.334 . S
C1618 H1589 0.950 . S
C1618 C1617 1.334 . S
C1618 C1619 1.287 1_565 S
C1619 C1618 1.287 1_545 S
C1619 C1620 1.524 . S
C1619 H1622 0.999 . S
C1620 H1590 0.950 . S
C1620 C1619 1.524 . S
C1620 C1621 1.415 . S
C1621 H1591 0.950 . S
C1621 C1616 1.363 . S
C1621 C1620 1.415 . S
H1622 C1619 0.999 . S
H1623 C1604 0.913 . S
H1624 C1642 0.951 . S
H1625 C1644 0.951 . S
H1626 C1646 0.950 . S
H1627 C1647 0.950 . S
H1628 C1649 0.950 . S
H1629 C1652 0.950 . S
H1630 C1653 0.950 . S
H1631 C1655 0.950 . S
H1632 C1656 0.950 . S
H1633 C1657 0.951 . S
H1634 C1659 0.951 . S
H1635 C1661 0.950 . S
H1636 C1662 0.950 . S
H1637 C1664 0.950 . S
H1638 C1667 0.950 . S
H1639 C1668 0.950 . S
H1640 C1670 0.950 . S
H1641 C1671 0.950 . S
C1642 H1624 0.951 . S
C1642 C1643 1.366 . S
C1642 C1644 1.388 . S
C1643 C1642 1.366 . S
C1643 C1647 1.385 . S
C1644 H1625 0.951 . S
C1644 C1642 1.388 . S
C1644 C1645 1.366 . S
C1645 C1644 1.366 . S
C1645 C1646 1.414 . S
C1645 C1648 1.499 . S
C1646 H1626 0.950 . S
C1646 C1645 1.414 . S
C1646 C1647 1.374 . S
C1647 H1627 0.950 . S
C1647 C1643 1.385 . S
C1647 C1646 1.374 . S
C1648 C1645 1.499 . S
C1648 C1649 1.373 . S
C1648 C1650 1.389 . S
C1649 H1628 0.950 . S
C1649 C1648 1.373 . S
C1649 C1665 1.377 1_554 S
C1650 C1648 1.389 . S
C1650 C1651 1.524 . S
C1650 C1664 1.377 1_554 S
C1651 C1650 1.524 . S
C1651 C1652 1.397 . S
C1651 C1656 1.363 1_554 S
C1652 H1629 0.950 . S
C1652 C1651 1.397 . S
C1652 C1653 1.334 . S
C1653 H1630 0.950 . S
C1653 C1652 1.334 . S
C1653 C1654 1.288 1_554 S
C1654 C1653 1.288 1_556 S
C1654 C1655 1.523 . S
C1654 H1673 0.913 1_556 S
C1655 H1631 0.950 . S
C1655 C1654 1.523 . S
C1655 C1656 1.415 . S
C1656 H1632 0.950 . S
C1656 C1651 1.363 1_556 S
C1656 C1655 1.415 . S
C1657 H1633 0.951 . S
C1657 C1658 1.366 . S
C1657 C1659 1.388 . S
C1658 C1657 1.366 . S
C1658 C1662 1.385 . S
C1659 H1634 0.951 . S
C1659 C1657 1.388 . S
C1659 C1660 1.366 . S
C1660 C1659 1.366 . S
C1660 C1661 1.414 . S
C1660 C1663 1.499 . S
C1661 H1635 0.950 . S
C1661 C1660 1.414 . S
C1661 C1662 1.374 . S
C1662 H1636 0.950 . S
C1662 C1658 1.385 . S
C1662 C1661 1.374 . S
C1663 C1660 1.499 . S
C1663 C1664 1.373 . S
C1663 C1665 1.389 . S
C1664 H1637 0.950 . S
C1664 C1650 1.377 1_556 S
C1664 C1663 1.373 . S
C1665 C1649 1.377 1_556 S
C1665 C1663 1.389 . S
C1665 C1666 1.524 . S
C1666 C1665 1.524 . S
C1666 C1667 1.397 . S
C1666 C1671 1.363 1_556 S
C1667 H1638 0.950 . S
C1667 C1666 1.397 . S
C1667 C1668 1.334 . S
C1668 H1639 0.950 . S
C1668 C1667 1.334 . S
C1668 C1669 1.288 1_556 S
C1669 C1668 1.288 1_554 S
C1669 C1670 1.523 . S
C1669 H1672 0.999 . S
C1670 H1640 0.950 . S
C1670 C1669 1.523 . S
C1670 C1671 1.415 . S
C1671 H1641 0.950 . S
C1671 C1666 1.363 1_554 S
C1671 C1670 1.415 . S
H1672 C1669 0.999 . S
H1673 C1654 0.913 1_554 S
H1674 C1692 0.951 . S
H1675 C1694 0.951 . S
H1676 C1696 0.960 . S
H1677 C1697 0.950 1_455 S
H1678 C1699 0.950 . S
H1679 C1702 0.950 1_455 S
H1680 C1703 0.950 . S
H1681 C1705 0.950 . S
H1682 C1706 0.950 . S
H1683 C1707 0.951 . S
H1684 C1709 0.951 . S
H1685 C1711 0.960 . S
H1686 C1712 0.950 1_655 S
H1687 C1714 0.950 . S
H1688 C1717 0.950 1_655 S
H1689 C1718 0.950 . S
H1690 C1720 0.950 . S
H1691 C1721 0.950 . S
C1692 H1674 0.951 . S
C1692 C1693 1.366 . S
C1692 C1694 1.388 . S
C1693 C1692 1.366 . S
C1693 C1697 1.385 . S
C1694 H1675 0.951 . S
C1694 C1692 1.388 . S
C1694 C1695 1.366 . S
C1695 C1694 1.366 . S
C1695 C1696 1.408 1_655 S
C1695 C1698 1.499 . S
C1696 H1676 0.960 . S
C1696 C1695 1.408 1_455 S
C1696 C1697 1.371 1_455 S
C1697 H1677 0.950 1_655 S
C1697 C1693 1.385 . S
C1697 C1696 1.371 1_655 S
C1698 C1695 1.499 . S
C1698 C1699 1.373 1_655 S
C1698 C1700 1.411 . S
C1699 H1678 0.950 . S
C1699 C1698 1.373 1_455 S
C1699 C1715 1.354 1_554 S
C1700 C1698 1.411 . S
C1700 C1701 1.524 1_554 S
C1700 C1714 1.354 1_554 S
C1701 C1700 1.524 1_556 S
C1701 C1702 1.388 1_556 S
C1701 C1706 1.372 . S
C1702 H1679 0.950 1_655 S
C1702 C1701 1.388 1_554 S
C1702 C1703 1.334 . S
C1703 H1680 0.950 . S
C1703 C1702 1.334 . S
C1703 C1704 1.287 1_554 S
C1704 C1703 1.287 1_556 S
C1704 C1705 1.524 . S
C1704 H1723 0.915 . S
C1705 H1681 0.950 . S
C1705 C1704 1.524 . S
C1705 C1706 1.415 . S
C1706 H1682 0.950 . S
C1706 C1701 1.372 . S
C1706 C1705 1.415 . S
C1707 H1683 0.951 . S
C1707 C1708 1.366 . S
C1707 C1709 1.388 . S
C1708 C1707 1.366 . S
C1708 C1712 1.385 . S
C1709 H1684 0.951 . S
C1709 C1707 1.388 . S
C1709 C1710 1.366 . S
C1710 C1709 1.366 . S
C1710 C1711 1.408 1_455 S
C1710 C1713 1.499 . S
C1711 H1685 0.960 . S
C1711 C1710 1.408 1_655 S
C1711 C1712 1.371 1_655 S
C1712 H1686 0.950 1_455 S
C1712 C1708 1.385 . S
C1712 C1711 1.371 1_455 S
C1713 C1710 1.499 . S
C1713 C1714 1.373 1_455 S
C1713 C1715 1.411 . S
C1714 H1687 0.950 . S
C1714 C1700 1.354 1_556 S
C1714 C1713 1.373 1_655 S
C1715 C1699 1.354 1_556 S
C1715 C1713 1.411 . S
C1715 C1716 1.524 1_556 S
C1716 C1715 1.524 1_554 S
C1716 C1717 1.389 1_554 S
C1716 C1721 1.372 . S
C1717 H1688 0.950 1_455 S
C1717 C1716 1.389 1_556 S
C1717 C1718 1.334 . S
C1718 H1689 0.950 . S
C1718 C1717 1.334 . S
C1718 C1719 1.287 1_556 S
C1719 C1718 1.287 1_554 S
C1719 C1720 1.524 . S
C1719 H1722 0.999 . S
C1720 H1690 0.950 . S
C1720 C1719 1.524 . S
C1720 C1721 1.415 . S
C1721 H1691 0.950 . S
C1721 C1716 1.372 . S
C1721 C1720 1.415 . S
H1722 C1719 0.999 . S
H1723 C1704 0.915 . S
H1724 C1742 0.951 . S
H1725 C1744 0.951 . S
H1726 C1746 0.950 1_455 S
H1727 C1747 0.950 . S
H1728 C1749 0.950 . S
H1729 C1752 0.950 . S
H1730 C1753 0.950 . S
H1731 C1755 0.950 . S
H1732 C1756 0.950 . S
H1733 C1757 0.951 . S
H1734 C1759 0.951 . S
H1735 C1761 0.950 1_655 S
H1736 C1762 0.950 . S
H1737 C1764 0.950 . S
H1738 C1767 0.950 . S
H1739 C1768 0.950 . S
H1740 C1770 0.950 . S
H1741 C1771 0.950 . S
C1742 H1724 0.951 . S
C1742 C1743 1.366 . S
C1742 C1744 1.388 . S
C1743 C1742 1.366 . S
C1743 C1747 1.385 . S
C1744 H1725 0.951 . S
C1744 C1742 1.388 . S
C1744 C1745 1.366 . S
C1745 C1744 1.366 . S
C1745 C1746 1.414 . S
C1745 C1748 1.499 . S
C1746 H1726 0.950 1_655 S
C1746 C1745 1.414 . S
C1746 C1747 1.374 . S
C1747 H1727 0.950 . S
C1747 C1743 1.385 . S
C1747 C1746 1.374 . S
C1748 C1745 1.499 . S
C1748 C1749 1.373 1_655 S
C1748 C1750 1.389 . S
C1749 H1728 0.950 . S
C1749 C1748 1.373 1_455 S
C1749 C1765 1.377 . S
C1750 C1748 1.389 . S
C1750 C1751 1.524 . S
C1750 C1764 1.377 . S
C1751 C1750 1.524 . S
C1751 C1752 1.397 . S
C1751 C1756 1.363 . S
C1752 H1729 0.950 . S
C1752 C1751 1.397 . S
C1752 C1753 1.334 . S
C1753 H1730 0.950 . S
C1753 C1752 1.334 . S
C1753 C1754 1.287 . S
C1754 C1753 1.287 . S
C1754 C1755 1.524 . S
C1754 H1773 0.913 . S
C1755 H1731 0.950 . S
C1755 C1754 1.524 . S
C1755 C1756 1.415 . S
C1756 H1732 0.950 . S
C1756 C1751 1.363 . S
C1756 C1755 1.415 . S
C1757 H1733 0.951 . S
C1757 C1758 1.366 . S
C1757 C1759 1.388 . S
C1758 C1757 1.366 . S
C1758 C1762 1.385 . S
C1759 H1734 0.951 . S
C1759 C1757 1.388 . S
C1759 C1760 1.366 . S
C1760 C1759 1.366 . S
C1760 C1761 1.414 . S
C1760 C1763 1.499 . S
C1761 H1735 0.950 1_455 S
C1761 C1760 1.414 . S
C1761 C1762 1.374 . S
C1762 H1736 0.950 . S
C1762 C1758 1.385 . S
C1762 C1761 1.374 . S
C1763 C1760 1.499 . S
C1763 C1764 1.373 1_455 S
C1763 C1765 1.389 . S
C1764 H1737 0.950 . S
C1764 C1750 1.377 . S
C1764 C1763 1.373 1_655 S
C1765 C1749 1.377 . S
C1765 C1763 1.389 . S
C1765 C1766 1.524 . S
C1766 C1765 1.524 . S
C1766 C1767 1.397 . S
C1766 C1771 1.363 . S
C1767 H1738 0.950 . S
C1767 C1766 1.397 . S
C1767 C1768 1.334 . S
C1768 H1739 0.950 . S
C1768 C1767 1.334 . S
C1768 C1769 1.287 . S
C1769 C1768 1.287 . S
C1769 C1770 1.524 . S
C1769 H1772 0.999 . S
C1770 H1740 0.950 . S
C1770 C1769 1.524 . S
C1770 C1771 1.415 . S
C1771 H1741 0.950 . S
C1771 C1766 1.363 . S
C1771 C1770 1.415 . S
H1772 C1769 0.999 . S
H1773 C1754 0.913 . S
H1774 C1792 0.951 . S
H1775 C1794 0.951 . S
H1776 C1796 0.950 . S
H1777 C1797 0.950 . S
H1778 C1799 0.950 . S
H1779 C1802 0.950 . S
H1780 C1803 0.950 . S
H1781 C1805 0.950 . S
H1782 C1806 0.950 . S
H1783 C1807 0.951 . S
H1784 C1809 0.951 . S
H1785 C1811 0.950 . S
H1786 C1812 0.950 . S
H1787 C1814 0.950 . S
H1788 C1817 0.950 . S
H1789 C1818 0.950 . S
H1790 C1820 0.950 . S
H1791 C1821 0.950 . S
C1792 H1774 0.951 . S
C1792 C1793 1.366 . S
C1792 C1794 1.388 . S
C1793 C1792 1.366 . S
C1793 C1797 1.385 . S
C1794 H1775 0.951 . S
C1794 C1792 1.388 . S
C1794 C1795 1.366 . S
C1795 C1794 1.366 . S
C1795 C1796 1.414 . S
C1795 C1798 1.499 . S
C1796 H1776 0.950 . S
C1796 C1795 1.414 . S
C1796 C1797 1.374 . S
C1797 H1777 0.950 . S
C1797 C1793 1.385 . S
C1797 C1796 1.374 . S
C1798 C1795 1.499 . S
C1798 C1799 1.373 . S
C1798 C1800 1.389 . S
C1799 H1778 0.950 . S
C1799 C1798 1.373 . S
C1799 C1815 1.377 . S
C1800 C1798 1.389 . S
C1800 C1801 1.524 . S
C1800 C1814 1.377 . S
C1801 C1800 1.524 . S
C1801 C1802 1.397 . S
C1801 C1806 1.363 . S
C1802 H1779 0.950 . S
C1802 C1801 1.397 . S
C1802 C1803 1.334 . S
C1803 H1780 0.950 . S
C1803 C1802 1.334 . S
C1803 C1804 1.287 . S
C1804 C1803 1.287 . S
C1804 C1805 1.524 . S
C1804 H1823 0.913 . S
C1805 H1781 0.950 . S
C1805 C1804 1.524 . S
C1805 C1806 1.415 . S
C1806 H1782 0.950 . S
C1806 C1801 1.363 . S
C1806 C1805 1.415 . S
C1807 H1783 0.951 . S
C1807 C1808 1.366 . S
C1807 C1809 1.388 . S
C1808 C1807 1.366 . S
C1808 C1812 1.385 . S
C1809 H1784 0.951 . S
C1809 C1807 1.388 . S
C1809 C1810 1.366 . S
C1810 C1809 1.366 . S
C1810 C1811 1.414 . S
C1810 C1813 1.499 . S
C1811 H1785 0.950 . S
C1811 C1810 1.414 . S
C1811 C1812 1.374 . S
C1812 H1786 0.950 . S
C1812 C1808 1.385 . S
C1812 C1811 1.374 . S
C1813 C1810 1.499 . S
C1813 C1814 1.373 . S
C1813 C1815 1.389 . S
C1814 H1787 0.950 . S
C1814 C1800 1.377 . S
C1814 C1813 1.373 . S
C1815 C1799 1.377 . S
C1815 C1813 1.389 . S
C1815 C1816 1.524 . S
C1816 C1815 1.524 . S
C1816 C1817 1.397 . S
C1816 C1821 1.363 . S
C1817 H1788 0.950 . S
C1817 C1816 1.397 . S
C1817 C1818 1.334 . S
C1818 H1789 0.950 . S
C1818 C1817 1.334 . S
C1818 C1819 1.287 . S
C1819 C1818 1.287 . S
C1819 C1820 1.524 . S
C1819 H1822 0.999 . S
C1820 H1790 0.950 . S
C1820 C1819 1.524 . S
C1820 C1821 1.415 . S
C1821 H1791 0.950 . S
C1821 C1816 1.363 . S
C1821 C1820 1.415 . S
H1822 C1819 0.999 . S
H1823 C1804 0.913 . S
C243 C22 1.502 . S
C258 C8 1.502 . S
C293 C36 1.502 . S
C308 C50 1.502 . S
C343 C64 1.502 . S
C358 C78 1.502 . S
C393 C106 1.502 . S
C408 C92 1.502 . S
C443 C134 1.502 . S
C458 C120 1.502 . S
C493 C162 1.502 . S
C508 C148 1.502 . S
C543 C190 1.502 . S
C558 C176 1.502 . S
C593 C218 1.502 . S
C608 C204 1.502 . S
C643 C45 1.364 . S
C658 C3 1.364 . S
C693 C17 1.364 . S
C708 C31 1.364 . S
C743 C101 1.364 . S
C758 C59 1.363 . S
C793 C87 1.363 . S
C808 C73 1.364 . S
C843 C115 1.363 . S
C858 C157 1.364 . S
C893 C143 1.364 . S
C908 C129 1.364 . S
C943 C213 1.364 . S
C958 C171 1.364 . S
C993 C185 1.364 . S
C1008 C199 1.363 . S
C1043 C9 1.483 . S
C1058 C135 1.483 . S
C1093 C23 1.483 . S
C1108 C121 1.483 . S
C1143 C163 1.483 . S
C1158 C37 1.482 . S
C1193 C149 1.483 . S
C1208 C51 1.482 . S
C1243 C191 1.483 . S
C1258 C65 1.483 . S
C1293 C177 1.483 . S
C1308 C79 1.483 . S
C1343 C93 1.483 . S
C1358 C219 1.483 . S
C1393 C107 1.482 . S
C1408 C205 1.483 . S
C1443 C63 1.292 . S
C1458 C7 1.292 . S
C1493 C77 1.291 . S
C1508 C21 1.291 . S
C1543 C91 1.291 . S
C1558 C35 1.291 . S
C1593 C105 1.291 . S
C1608 C49 1.291 . S
C1643 C119 1.291 . S
C1658 C175 1.291 . S
C1693 C133 1.292 . S
C1708 C189 1.292 . S
C1743 C203 1.291 . S
C1758 C147 1.291 . S
C1793 C217 1.291 . S
C1808 C161 1.291 . S
