# Generated by pormake.
# Topology unv, (4)-cn, num edge types: 1
# Building blocks:
#     Node 0, Type 0, BuildingBlock: NAHDIM_clean_sbu_0, # of connection points: 4
#     Node 1, Type 0, BuildingBlock: NAHDIM_clean_sbu_0, # of connection points: 4
#     Node 2, Type 0, BuildingBlock: NAHDIM_clean_sbu_0, # of connection points: 4
#     Node 3, Type 0, BuildingBlock: NAHDIM_clean_sbu_0, # of connection points: 4
#     Node 4, Type 0, BuildingBlock: NAHDIM_clean_sbu_0, # of connection points: 4
#     Node 5, Type 0, BuildingBlock: NAHDIM_clean_sbu_0, # of connection points: 4
#     Node 6, Type 0, BuildingBlock: NAHDIM_clean_sbu_0, # of connection points: 4
#     Node 7, Type 0, BuildingBlock: NAHDIM_clean_sbu_0, # of connection points: 4
#     Node 8, Type 0, BuildingBlock: NAHDIM_clean_sbu_0, # of connection points: 4
#     Node 9, Type 0, BuildingBlock: NAHDIM_clean_sbu_0, # of connection points: 4
#     Node 10, Type 0, BuildingBlock: NAHDIM_clean_sbu_0, # of connection points: 4
#     Node 11, Type 0, BuildingBlock: NAHDIM_clean_sbu_0, # of connection points: 4
#     Node 12, Type 0, BuildingBlock: NAHDIM_clean_sbu_0, # of connection points: 4
#     Node 13, Type 0, BuildingBlock: NAHDIM_clean_sbu_0, # of connection points: 4
#     Node 14, Type 0, BuildingBlock: NAHDIM_clean_sbu_0, # of connection points: 4
#     Node 15, Type 0, BuildingBlock: NAHDIM_clean_sbu_0, # of connection points: 4
#     Node 16, Type 0, BuildingBlock: NAHDIM_clean_sbu_0, # of connection points: 4
#     Node 17, Type 0, BuildingBlock: NAHDIM_clean_sbu_0, # of connection points: 4
#     Node 18, Type 0, BuildingBlock: NAHDIM_clean_sbu_0, # of connection points: 4
#     Node 19, Type 0, BuildingBlock: NAHDIM_clean_sbu_0, # of connection points: 4
#     Node 20, Type 0, BuildingBlock: NAHDIM_clean_sbu_0, # of connection points: 4
#     Node 21, Type 0, BuildingBlock: NAHDIM_clean_sbu_0, # of connection points: 4
#     Node 22, Type 0, BuildingBlock: NAHDIM_clean_sbu_0, # of connection points: 4
#     Node 23, Type 0, BuildingBlock: NAHDIM_clean_sbu_0, # of connection points: 4
#     Edge 24, Type (0, 0), BuildingBlock: AJUNOK_clean_linker_0, # of connection points: 2
#     Edge 25, Type (0, 0), BuildingBlock: AJUNOK_clean_linker_0, # of connection points: 2
#     Edge 26, Type (0, 0), BuildingBlock: AJUNOK_clean_linker_0, # of connection points: 2
#     Edge 27, Type (0, 0), BuildingBlock: AJUNOK_clean_linker_0, # of connection points: 2
#     Edge 28, Type (0, 0), BuildingBlock: AJUNOK_clean_linker_0, # of connection points: 2
#     Edge 29, Type (0, 0), BuildingBlock: AJUNOK_clean_linker_0, # of connection points: 2
#     Edge 30, Type (0, 0), BuildingBlock: AJUNOK_clean_linker_0, # of connection points: 2
#     Edge 31, Type (0, 0), BuildingBlock: AJUNOK_clean_linker_0, # of connection points: 2
#     Edge 32, Type (0, 0), BuildingBlock: AJUNOK_clean_linker_0, # of connection points: 2
#     Edge 33, Type (0, 0), BuildingBlock: AJUNOK_clean_linker_0, # of connection points: 2
#     Edge 34, Type (0, 0), BuildingBlock: AJUNOK_clean_linker_0, # of connection points: 2
#     Edge 35, Type (0, 0), BuildingBlock: AJUNOK_clean_linker_0, # of connection points: 2
#     Edge 36, Type (0, 0), BuildingBlock: AJUNOK_clean_linker_0, # of connection points: 2
#     Edge 37, Type (0, 0), BuildingBlock: AJUNOK_clean_linker_0, # of connection points: 2
#     Edge 38, Type (0, 0), BuildingBlock: AJUNOK_clean_linker_0, # of connection points: 2
#     Edge 39, Type (0, 0), BuildingBlock: AJUNOK_clean_linker_0, # of connection points: 2
#     Edge 40, Type (0, 0), BuildingBlock: AJUNOK_clean_linker_0, # of connection points: 2
#     Edge 41, Type (0, 0), BuildingBlock: AJUNOK_clean_linker_0, # of connection points: 2
#     Edge 42, Type (0, 0), BuildingBlock: AJUNOK_clean_linker_0, # of connection points: 2
#     Edge 43, Type (0, 0), BuildingBlock: AJUNOK_clean_linker_0, # of connection points: 2
#     Edge 44, Type (0, 0), BuildingBlock: AJUNOK_clean_linker_0, # of connection points: 2
#     Edge 45, Type (0, 0), BuildingBlock: AJUNOK_clean_linker_0, # of connection points: 2
#     Edge 46, Type (0, 0), BuildingBlock: AJUNOK_clean_linker_0, # of connection points: 2
#     Edge 47, Type (0, 0), BuildingBlock: AJUNOK_clean_linker_0, # of connection points: 2
#     Edge 48, Type (0, 0), BuildingBlock: AJUNOK_clean_linker_0, # of connection points: 2
#     Edge 49, Type (0, 0), BuildingBlock: AJUNOK_clean_linker_0, # of connection points: 2
#     Edge 50, Type (0, 0), BuildingBlock: AJUNOK_clean_linker_0, # of connection points: 2
#     Edge 51, Type (0, 0), BuildingBlock: AJUNOK_clean_linker_0, # of connection points: 2
#     Edge 52, Type (0, 0), BuildingBlock: AJUNOK_clean_linker_0, # of connection points: 2
#     Edge 53, Type (0, 0), BuildingBlock: AJUNOK_clean_linker_0, # of connection points: 2
#     Edge 54, Type (0, 0), BuildingBlock: AJUNOK_clean_linker_0, # of connection points: 2
#     Edge 55, Type (0, 0), BuildingBlock: AJUNOK_clean_linker_0, # of connection points: 2
#     Edge 56, Type (0, 0), BuildingBlock: AJUNOK_clean_linker_0, # of connection points: 2
#     Edge 57, Type (0, 0), BuildingBlock: AJUNOK_clean_linker_0, # of connection points: 2
#     Edge 58, Type (0, 0), BuildingBlock: AJUNOK_clean_linker_0, # of connection points: 2
#     Edge 59, Type (0, 0), BuildingBlock: AJUNOK_clean_linker_0, # of connection points: 2
#     Edge 60, Type (0, 0), BuildingBlock: AJUNOK_clean_linker_0, # of connection points: 2
#     Edge 61, Type (0, 0), BuildingBlock: AJUNOK_clean_linker_0, # of connection points: 2
#     Edge 62, Type (0, 0), BuildingBlock: AJUNOK_clean_linker_0, # of connection points: 2
#     Edge 63, Type (0, 0), BuildingBlock: AJUNOK_clean_linker_0, # of connection points: 2
#     Edge 64, Type (0, 0), BuildingBlock: AJUNOK_clean_linker_0, # of connection points: 2
#     Edge 65, Type (0, 0), BuildingBlock: AJUNOK_clean_linker_0, # of connection points: 2
#     Edge 66, Type (0, 0), BuildingBlock: AJUNOK_clean_linker_0, # of connection points: 2
#     Edge 67, Type (0, 0), BuildingBlock: AJUNOK_clean_linker_0, # of connection points: 2
#     Edge 68, Type (0, 0), BuildingBlock: AJUNOK_clean_linker_0, # of connection points: 2
#     Edge 69, Type (0, 0), BuildingBlock: AJUNOK_clean_linker_0, # of connection points: 2
#     Edge 70, Type (0, 0), BuildingBlock: AJUNOK_clean_linker_0, # of connection points: 2
#     Edge 71, Type (0, 0), BuildingBlock: AJUNOK_clean_linker_0, # of connection points: 2
# Relax obj value: 0.364
# Max RMSD: 0.322
# Mean RMSD: 0.307
data_MOF--net-unv--node1-NAHDIM_clean_sbu_0--edge1-AJUNOK_clean_linker_0
_symmetry_space_group_name_H-M    P1
_symmetry_Int_Tables_number       1
_symmetry_cell_setting            triclinic
loop_
_symmetry_equiv_pos_as_xyz
'x, y, z'
_cell_length_a     35.708334
_cell_length_b     35.77257
_cell_length_c     35.900781
_cell_angle_alpha  90.044938
_cell_angle_beta   90.104401
_cell_angle_gamma 89.966132
loop_
_atom_site_label
_atom_site_type_symbol
_atom_site_fract_x
_atom_site_fract_y
_atom_site_fract_z
_atom_type_partial_charge
C0 C 0.05784 0.17277 0.33742 0.0
O1 O 0.09 0.16427 0.32186 0.0
O2 O 0.07762 0.07311 0.31851 0.0
Zn3 Zn 0.05993 0.0968 0.36552 0.0
O4 O 0.09915 0.09392 0.40522 0.0
C5 C 0.99541 0.04817 0.36068 0.0
O6 O 0.00025 0.05193 0.32462 0.0
O7 O 0.04117 0.14854 0.35713 0.0
C8 C 0.08884 0.10098 0.4383 0.0
O9 O 0.05485 0.11397 0.44371 0.0
C10 C 0.09166 0.04052 0.32042 0.0
O11 O 0.09925 0.02638 0.35334 0.0
O12 O 0.01693 0.06546 0.38304 0.0
C13 C 0.98887 0.31954 0.33248 0.0
O14 O 0.95256 0.32268 0.33748 0.0
O15 O 0.96282 0.42344 0.3041 0.0
Zn16 Zn 0.98528 0.39725 0.34803 0.0
O17 O 0.94561 0.38985 0.38673 0.0
C18 C 0.04076 0.45691 0.35523 0.0
O19 O 0.0353 0.46203 0.3194 0.0
O20 O 0.00907 0.34861 0.33456 0.0
C21 C 0.95565 0.37965 0.41913 0.0
O22 O 0.99091 0.37075 0.42475 0.0
C23 C 0.94448 0.45312 0.31094 0.0
O24 O 0.94041 0.46363 0.34577 0.0
O25 O 0.02343 0.43078 0.37176 0.0
C26 C 0.00175 0.83991 0.1797 0.0
O27 O 0.03028 0.85192 0.19949 0.0
O28 O 0.0279 0.93876 0.18845 0.0
Zn29 Zn 0.00848 0.91194 0.14368 0.0
O30 O 0.05084 0.90717 0.10763 0.0
C31 C 0.94876 0.96671 0.13995 0.0
O32 O 0.95057 0.96442 0.17642 0.0
O33 O 0.98756 0.86128 0.15521 0.0
C34 C 0.04671 0.89223 0.07582 0.0
O35 O 0.01392 0.87824 0.06674 0.0
C36 C 0.06132 0.93723 0.20056 0.0
O37 O 0.08551 0.9143 0.18516 0.0
O38 O 0.96958 0.94547 0.12045 0.0
C39 C 0.96522 0.6817 0.18185 0.0
O40 O 0.9822 0.65901 0.20519 0.0
O41 O 0.91991 0.58591 0.19096 0.0
Zn42 Zn 0.93904 0.61337 0.14633 0.0
O43 O 0.90463 0.60619 0.10283 0.0
C44 C 0.00709 0.5696 0.15527 0.0
O45 O -0.00147 0.57077 0.1908 0.0
O46 O 0.94579 0.66804 0.15554 0.0
C47 C 0.91703 0.61661 0.07136 0.0
O48 O 0.94955 0.63369 0.06999 0.0
C49 C 0.91488 0.55108 0.18612 0.0
O50 O 0.91758 0.53753 0.15218 0.0
O51 O 0.9876 0.58828 0.13212 0.0
C52 C 0.34711 0.0604 0.16823 0.0
O53 O 0.35507 0.09623 0.16706 0.0
O54 O 0.33327 0.0674 0.05396 0.0
Zn55 Zn 0.37366 0.05917 0.09171 0.0
O56 O 0.41085 0.101 0.09662 0.0
C57 C 0.38895 0.99215 0.05064 0.0
O58 O 0.35261 0.98716 0.05347 0.0
O59 O 0.35308 0.04029 0.13975 0.0
C60 C 0.41377 0.12516 0.07091 0.0
O61 O 0.38669 0.12816 0.04631 0.0
C62 C 0.30732 0.091 0.04851 0.0
O63 O 0.30284 0.11893 0.07185 0.0
O64 O 0.40405 0.01905 0.06813 0.0
C65 C 0.64549 0.46473 0.1649 0.0
O66 O 0.64034 0.4294 0.15627 0.0
O67 O 0.66612 0.4519 0.05758 0.0
Zn68 Zn 0.62524 0.47508 0.08821 0.0
O69 O 0.58025 0.4415 0.08901 0.0
C70 C 0.6318 0.53824 0.03911 0.0
O71 O 0.66754 0.52963 0.04013 0.0
O72 O 0.64124 0.48933 0.1398 0.0
C73 C 0.5814 0.40652 0.08306 0.0
O74 O 0.6141 0.39025 0.0787 0.0
C75 C 0.70045 0.45067 0.06659 0.0
O76 O 0.71053 0.46156 0.10009 0.0
O77 O 0.6091 0.52051 0.05981 0.0
C78 C 0.31841 0.9851 0.30816 0.0
O79 O 0.30895 0.94963 0.30936 0.0
O80 O 0.28767 0.94453 0.39866 0.0
Zn81 Zn 0.33512 0.97027 0.384 0.0
O82 O 0.37605 0.93237 0.37759 0.0
C83 C 0.32571 0.013 0.45176 0.0
O84 O 0.29015 0.00525 0.44661 0.0
O85 O 0.32962 0.0008 0.33784 0.0
C86 C 0.40799 0.94216 0.36558 0.0
O87 O 0.41293 0.97695 0.35496 0.0
C88 C 0.29088 0.92139 0.42531 0.0
O89 O 0.32471 0.91192 0.43628 0.0
O90 O 0.34962 0.00288 0.42751 0.0
C91 C 0.65341 0.50866 0.32049 0.0
O92 O 0.65803 0.54356 0.3309 0.0
O93 O 0.67302 0.52641 0.42267 0.0
Zn94 Zn 0.63049 0.50048 0.39658 0.0
O95 O 0.58396 0.53192 0.39658 0.0
C96 C 0.64016 0.44006 0.44989 0.0
O97 O 0.67533 0.45081 0.45037 0.0
O98 O 0.64289 0.48485 0.3445 0.0
C99 C 0.5816 0.56721 0.39375 0.0
O100 O 0.6123 0.58692 0.38932 0.0
C101 C 0.66664 0.53942 0.45503 0.0
O102 O 0.63208 0.53912 0.4675 0.0
O103 O 0.61739 0.45576 0.42758 0.0
C104 C 0.1526 0.34145 0.02095 0.0
O105 O 0.12695 0.31973 0.00609 0.0
O106 O 0.05939 0.33079 0.06129 0.0
Zn107 Zn 0.08747 0.37833 0.05061 0.0
O108 O 0.07948 0.41662 0.09095 0.0
C109 C 0.04757 0.37972 0.98026 0.0
O110 O 0.04989 0.34323 0.98308 0.0
O111 O 0.14228 0.36843 0.04161 0.0
C112 C 0.08797 0.45014 0.08281 0.0
O113 O 0.10454 0.45669 0.05082 0.0
C114 C 0.02573 0.33135 0.07279 0.0
O115 O 0.01073 0.36338 0.08271 0.0
O116 O 0.06359 0.40004 0.00458 0.0
C117 C 0.16773 0.66695 0.47304 0.0
O118 O 0.16034 0.66816 0.43719 0.0
O119 O 0.06452 0.69416 0.45452 0.0
Zn120 Zn 0.09004 0.64902 0.4755 0.0
O121 O 0.09238 0.60884 0.43663 0.0
C122 C 0.03224 0.64879 0.53268 0.0
O123 O 0.03155 0.68507 0.52708 0.0
O124 O 0.14126 0.65997 0.49554 0.0
C125 C 0.09884 0.57582 0.44794 0.0
O126 O 0.1073 0.57078 0.48321 0.0
C127 C 0.03292 0.68835 0.43919 0.0
O128 O 0.02175 0.65365 0.43469 0.0
O129 O 0.05627 0.62898 0.51557 0.0
C130 C 0.82638 0.86211 0.4675 0.0
O131 O 0.83881 0.8738 0.43512 0.0
O132 O 0.93429 0.83604 0.46694 0.0
Zn133 Zn 0.90227 0.87645 0.4889 0.0
O134 O 0.90717 0.92281 0.45813 0.0
C135 C 0.94558 0.86646 0.55592 0.0
O136 O 0.94559 0.83133 0.54526 0.0
O137 O 0.84881 0.86077 0.49494 0.0
C138 C 0.91591 0.92299 0.42389 0.0
O139 O 0.9183 0.89105 0.40596 0.0
C140 C 0.92406 0.80776 0.44814 0.0
O141 O 0.88843 0.80327 0.44025 0.0
O142 O 0.92576 0.88982 0.53793 0.0
C143 C 0.32302 0.6611 0.52164 0.0
O144 O 0.33234 0.65708 0.55683 0.0
O145 O 0.43251 0.68232 0.52894 0.0
Zn146 Zn 0.39957 0.64022 0.51193 0.0
O147 O 0.39714 0.60034 0.55108 0.0
C148 C 0.4467 0.63826 0.44702 0.0
O149 O 0.44446 0.67479 0.45007 0.0
O150 O 0.34799 0.65643 0.49692 0.0
C151 C 0.38478 0.56842 0.54164 0.0
O152 O 0.37193 0.56381 0.50762 0.0
C153 C 0.46627 0.6725 0.53481 0.0
O154 O 0.47424 0.63665 0.53546 0.0
O155 O 0.42712 0.61789 0.46848 0.0
C156 C 0.5302 0.6576 0.81719 0.0
O157 O 0.56395 0.64596 0.80836 0.0
O158 O 0.5454 0.55493 0.79701 0.0
Zn159 Zn 0.5246 0.58221 0.84128 0.0
O160 O 0.5636 0.58458 0.88122 0.0
C161 C 0.46684 0.5261 0.8404 0.0
O162 O 0.47223 0.52769 0.80427 0.0
O163 O 0.50696 0.6342 0.83023 0.0
C164 C 0.55466 0.59873 0.9124 0.0
O165 O 0.5212 0.61357 0.91617 0.0
C166 C 0.55913 0.52288 0.8042 0.0
O167 O 0.56308 0.51311 0.83925 0.0
O168 O 0.48341 0.54943 0.86149 0.0
C169 C 0.50712 0.81821 0.82625 0.0
O170 O 0.52788 0.84103 0.8064 0.0
O171 O 0.46118 0.91449 0.8174 0.0
Zn172 Zn 0.48343 0.88681 0.86094 0.0
O173 O 0.45403 0.89777 0.90741 0.0
C174 C 0.54858 0.93359 0.85018 0.0
O175 O 0.53483 0.93708 0.81642 0.0
O176 O 0.48601 0.83168 0.85134 0.0
C177 C 0.45969 0.93065 0.91961 0.0
O178 O 0.4797 0.95391 0.89957 0.0
C179 C 0.43147 0.93415 0.81736 0.0
O180 O 0.41012 0.93462 0.84709 0.0
O181 O 0.53453 0.90903 0.87159 0.0
C182 C 0.50335 0.30961 0.64377 0.0
O183 O 0.5387 0.31568 0.63573 0.0
O184 O 0.52276 0.4178 0.66297 0.0
Zn185 Zn 0.49789 0.38672 0.62349 0.0
O186 O 0.53203 0.38142 0.57949 0.0
C187 C 0.43926 0.4421 0.62535 0.0
O188 O 0.4484 0.44383 0.66075 0.0
O189 O 0.48034 0.3366 0.64149 0.0
C190 C 0.56751 0.38336 0.5807 0.0
O191 O 0.58419 0.38664 0.61319 0.0
C192 C 0.54008 0.40791 0.69225 0.0
O193 O 0.54439 0.37218 0.69942 0.0
O194 O 0.45469 0.41751 0.60489 0.0
C195 C 0.45168 0.156 0.65378 0.0
O196 O 0.41607 0.14739 0.6569 0.0
O197 O 0.44657 0.04807 0.67847 0.0
Zn198 Zn 0.45855 0.07836 0.63306 0.0
O199 O 0.41725 0.07836 0.5949 0.0
C200 C 0.52447 0.03187 0.62648 0.0
O201 O 0.52309 0.03174 0.66304 0.0
O202 O 0.47482 0.13054 0.64495 0.0
C203 C 0.3937 0.05188 0.59236 0.0
O204 O 0.39393 0.02527 0.61754 0.0
C205 C 0.41791 0.04457 0.69907 0.0
O206 O 0.38808 0.0651 0.69268 0.0
O207 O 0.5009 0.05133 0.60834 0.0
C208 C 0.84055 0.511 0.66309 0.0
O209 O 0.84913 0.54563 0.65448 0.0
O210 O 0.8159 0.51916 0.55355 0.0
Zn211 Zn 0.85756 0.49957 0.5859 0.0
O212 O 0.90091 0.53522 0.58702 0.0
C213 C 0.86098 0.43603 0.5355 0.0
O214 O 0.8258 0.44437 0.52861 0.0
O215 O 0.84116 0.4863 0.63768 0.0
C216 C 0.8999 0.5704 0.58257 0.0
O217 O 0.86731 0.58706 0.57883 0.0
C218 C 0.78741 0.53828 0.5628 0.0
O219 O 0.78326 0.54842 0.59771 0.0
O220 O 0.87853 0.45429 0.56036 0.0
C221 C 0.17791 0.94161 0.67662 0.0
O222 O 0.16781 0.90731 0.66821 0.0
O223 O 0.18719 0.92962 0.56892 0.0
Zn224 Zn 0.15124 0.95498 0.60324 0.0
O225 O 0.10575 0.92267 0.6087 0.0
C226 C 0.15946 0.02003 0.55793 0.0
O227 O 0.19475 0.00972 0.5588 0.0
O228 O 0.17408 0.96712 0.65242 0.0
C229 C 0.07494 0.93645 0.61977 0.0
O230 O 0.074 0.97164 0.63025 0.0
C231 C 0.17483 0.92427 0.53611 0.0
O232 O 0.13955 0.93192 0.52898 0.0
O233 O 0.13569 0.00207 0.5772 0.0
C234 C 0.83462 0.46925 0.81942 0.0
O235 O 0.82901 0.43472 0.83049 0.0
O236 O 0.81191 0.45852 0.92298 0.0
Zn237 Zn 0.8562 0.47998 0.89609 0.0
O238 O 0.89949 0.44432 0.89994 0.0
C239 C 0.84874 0.54437 0.9447 0.0
O240 O 0.81299 0.53576 0.94426 0.0
O241 O 0.8455 0.49336 0.84304 0.0
C242 C 0.93248 0.45746 0.89793 0.0
O243 O 0.93685 0.49295 0.8896 0.0
C244 C 0.81842 0.44779 0.95614 0.0
O245 O 0.8532 0.44806 0.96819 0.0
O246 O 0.8714 0.52573 0.92474 0.0
C247 C 0.18838 0.99031 0.82947 0.0
O248 O 0.20782 0.01923 0.84109 0.0
O249 O 0.19799 0.01816 0.9265 0.0
Zn250 Zn 0.15302 0.9946 0.9019 0.0
O251 O 0.11062 0.03159 0.90176 0.0
C252 C 0.15002 0.94204 0.96358 0.0
O253 O 0.18271 0.9564 0.97234 0.0
O254 O 0.1641 0.97587 0.85085 0.0
C255 C 0.10333 0.04286 0.93451 0.0
O256 O 0.12336 0.03002 0.96245 0.0
C257 C 0.20228 0.05319 0.93099 0.0
O258 O 0.1784 0.07651 0.91565 0.0
O259 O 0.13419 0.95233 0.93357 0.0
C260 C 0.66651 0.84317 0.48945 0.0
O261 O 0.6528 0.83522 0.52242 0.0
O262 O 0.56617 0.82049 0.50323 0.0
Zn263 Zn 0.59054 0.86365 0.47686 0.0
O264 O 0.58721 0.90887 0.50955 0.0
C265 C 0.53327 0.85681 0.41958 0.0
O266 O 0.52894 0.82311 0.43336 0.0
O267 O 0.64439 0.85465 0.46419 0.0
C268 C 0.58909 0.90878 0.54485 0.0
O269 O 0.59498 0.87704 0.56229 0.0
C270 C 0.57524 0.78648 0.49865 0.0
O271 O 0.60351 0.77835 0.47673 0.0
O272 O 0.55979 0.87712 0.43181 0.0
C273 C 0.67377 0.15379 0.92855 0.0
O274 O 0.66793 0.13184 0.89976 0.0
O275 O 0.56099 0.18434 0.90931 0.0
Zn276 Zn 0.59346 0.14701 0.93655 0.0
O277 O 0.59389 0.09837 0.90805 0.0
C278 C 0.55099 0.16737 0.00066 0.0
O279 O 0.55717 0.20092 0.98715 0.0
O280 O 0.64583 0.16501 0.94738 0.0
C281 C 0.60041 0.06735 0.92405 0.0
O282 O 0.60796 0.06718 0.95988 0.0
C283 C 0.52692 0.17401 0.90724 0.0
O284 O 0.51832 0.13987 0.91766 0.0
O285 O 0.56624 0.13927 0.98506 0.0
C286 C 0.30825 0.32398 0.97514 0.0
O287 O 0.31548 0.30447 0.94497 0.0
O288 O 0.40457 0.29538 0.94731 0.0
Zn289 Zn 0.38708 0.34413 0.97028 0.0
O290 O 0.3911 0.38703 0.93415 0.0
C291 C 0.4496 0.33553 0.02202 0.0
O292 O 0.452 0.30181 0.00771 0.0
O293 O 0.33468 0.34194 0.99068 0.0
C294 C 0.4234 0.39433 0.92132 0.0
O295 O 0.45199 0.37325 0.93083 0.0
C296 C 0.41585 0.291 0.91399 0.0
O297 O 0.41122 0.31798 0.88967 0.0
O298 O 0.42323 0.35702 0.01152 0.0
C299 C 0.82564 0.16837 0.98617 0.0
O300 O 0.83275 0.18558 0.01773 0.0
O301 O 0.92192 0.19334 0.01578 0.0
Zn302 Zn 0.90154 0.14437 -0.00349 0.0
O303 O 0.90085 0.10315 0.03457 0.0
C304 C 0.97255 0.12468 0.98071 0.0
O305 O 0.97158 0.13347 0.01622 0.0
O306 O 0.85152 0.14928 0.97105 0.0
C307 C 0.88487 0.09582 0.06526 0.0
O308 O 0.86104 0.11975 0.07969 0.0
C309 C 0.92417 0.20669 0.0485 0.0
O310 O 0.90707 0.18998 0.07621 0.0
O311 O 0.9423 0.12671 0.96197 0.0
C312 C 0.11119 0.0645 0.53459 0.0
C313 C 0.14596 0.0468 0.52961 0.0
C314 C 0.09423 0.08445 0.5056 0.0
C315 C 0.11111 0.08695 0.47028 0.0
H316 H 0.09621 0.06166 0.56065 0.0
H317 H 0.06666 0.09612 0.51044 0.0
S318 S 0.20423 0.04886 0.44411 0.0
N319 N 0.19841 0.0358 0.4878 0.0
N320 N 0.16639 0.07302 0.43312 0.0
C321 C 0.14708 0.07144 0.46568 0.0
C322 C 0.16454 0.05142 0.4954 0.0
C323 C 0.89202 0.39432 0.44402 0.0
C324 C 0.9298 0.38534 0.45093 0.0
C325 C 0.86879 0.40771 0.47244 0.0
C326 C 0.88255 0.41297 0.5088 0.0
H327 H 0.88075 0.39293 0.41601 0.0
H328 H 0.84066 0.41641 0.46514 0.0
S329 S 0.97715 0.38701 0.54313 0.0
N330 N 0.97823 0.37749 0.49815 0.0
N331 N 0.93459 0.40295 0.55145 0.0
C332 C 0.91918 0.40086 0.51686 0.0
C333 C 0.9428 0.38695 0.48795 0.0
C334 C 0.06659 0.89609 0.00932 0.0
C335 C 0.0762 0.89705 0.04729 0.0
C336 C 0.09182 0.90811 0.98205 0.0
C337 C 0.12771 0.92136 0.99166 0.0
H338 H 0.0386 0.88824 0.00065 0.0
H339 H 0.08226 0.90889 0.9534 0.0
S340 S 0.16906 0.92204 0.08669 0.0
N341 N 0.12586 0.90685 0.09273 0.0
N342 N 0.17343 0.92927 0.04149 0.0
C343 C 0.13889 0.919 0.02922 0.0
C344 C 0.11307 0.90696 0.05704 0.0
C345 C 0.861 0.59074 0.03849 0.0
C346 C 0.89787 0.6045 0.03676 0.0
C347 C 0.84418 0.57368 0.00757 0.0
C348 C 0.86381 0.56932 0.97392 0.0
H349 H 0.84543 0.59184 0.06435 0.0
H350 H 0.81644 0.5619 0.01085 0.0
S351 S 0.95921 0.60456 0.95327 0.0
N352 N 0.95208 0.61595 -0.00274 0.0
N353 N 0.92055 0.5834 0.9394 0.0
C354 C 0.89976 0.58502 0.97104 0.0
C355 C 0.91676 0.60278 0.00239 0.0
C356 C 0.45328 0.17322 0.03975 0.0
C357 C 0.45097 0.14073 0.06164 0.0
C358 C 0.48698 0.1836 0.02272 0.0
C359 C 0.51925 0.16126 0.02617 0.0
H360 H 0.4284 0.18965 0.03412 0.0
H361 H 0.48689 0.20771 0.00446 0.0
S362 S 0.52942 0.07626 0.08418 0.0
N363 N 0.48519 0.08869 0.08934 0.0
N364 N 0.54808 0.10766 0.05611 0.0
C365 C 0.51806 0.13023 0.04999 0.0
C366 C 0.48401 0.12012 0.0681 0.0
C367 C 0.54813 0.3501 0.05838 0.0
C368 C 0.54632 0.386 0.07437 0.0
C369 C 0.51614 0.33285 0.04365 0.0
C370 C 0.48109 0.35087 0.04422 0.0
H371 H 0.57476 0.33589 0.05545 0.0
H372 H 0.51944 0.30608 0.02991 0.0
S373 S 0.45986 0.44192 0.08916 0.0
N374 N 0.50547 0.43664 0.09459 0.0
N375 N 0.44549 0.40429 0.06668 0.0
C376 C 0.4783 0.38541 0.06278 0.0
C377 C 0.51085 0.40293 0.07791 0.0
C378 C 0.50747 0.91151 0.38471 0.0
C379 C 0.50296 0.87455 0.3974 0.0
C380 C 0.47696 0.93236 0.37167 0.0
C381 C 0.44065 0.91714 0.371 0.0
H382 H 0.5344 0.92531 0.38681 0.0
H383 H 0.48161 0.96135 0.36436 0.0
S384 S 0.41499 0.81924 0.39378 0.0
N385 N 0.46025 0.82176 0.40286 0.0
N386 N 0.40288 0.86108 0.37856 0.0
C387 C 0.43633 0.87914 0.3802 0.0
C388 C 0.4675 0.85779 0.39328 0.0
C389 C 0.511 0.64196 0.42001 0.0
C390 C 0.47819 0.62114 0.42641 0.0
C391 C 0.5439 0.62464 0.40753 0.0
C392 C 0.54518 0.58588 0.40088 0.0
H393 H 0.51205 0.67146 0.4268 0.0
H394 H 0.56891 0.64153 0.40489 0.0
S395 S 0.46493 0.52007 0.40757 0.0
N396 N 0.44769 0.56069 0.42107 0.0
N397 N 0.50922 0.52808 0.39725 0.0
C398 C 0.51172 0.5653 0.40454 0.0
C399 C 0.47832 0.58294 0.4174 0.0
C400 C 0.07007 0.51736 0.08861 0.0
C401 C 0.07305 0.48176 0.10509 0.0
C402 C 0.05036 0.54633 0.10603 0.0
C403 C 0.03348 0.54113 0.14096 0.0
H404 H 0.08129 0.52248 0.06107 0.0
H405 H 0.04717 0.57262 0.09139 0.0
S406 S 0.03661 0.45465 0.19803 0.0
N407 N 0.05999 0.4439 0.15984 0.0
N408 N 0.02349 0.4986 0.19289 0.0
C409 C 0.03838 0.50652 0.15898 0.0
C410 C 0.058 0.47676 0.14096 0.0
C411 C 0.06817 0.52073 0.36295 0.0
C412 C 0.06173 0.48482 0.3775 0.0
C413 C 0.0821 0.54956 0.38549 0.0
C414 C 0.09043 0.54352 0.42338 0.0
H415 H 0.06063 0.52726 0.33445 0.0
H416 H 0.08496 0.57714 0.37341 0.0
S417 S 0.08347 0.45299 0.47358 0.0
N418 N 0.0684 0.44372 0.43109 0.0
N419 N 0.09474 0.49772 0.47339 0.0
C420 C 0.08661 0.50703 0.43757 0.0
C421 C 0.07219 0.47774 0.41466 0.0
C422 C 0.94145 0.95764 0.369 0.0
C423 C 0.92992 0.95789 0.40649 0.0
C424 C 0.96068 0.98805 0.35361 0.0
C425 C 0.96941 0.01965 0.37526 0.0
H426 H 0.93701 0.93317 0.35176 0.0
H427 H 0.97054 0.98584 0.32517 0.0
S428 S 0.94084 0.03689 0.47303 0.0
N429 N 0.9249 0.99463 0.46353 0.0
N430 N 0.96154 0.05135 0.4346 0.0
C431 C 0.95595 0.02138 0.41194 0.0
C432 C 0.93601 0.99064 0.42754 0.0
C433 C 0.39284 0.49964 0.54994 0.0
C434 C 0.39147 0.53557 0.56584 0.0
C435 C 0.40603 0.46895 0.57028 0.0
C436 C 0.41798 0.47287 0.60745 0.0
H437 H 0.38578 0.49544 0.52088 0.0
H438 H 0.40849 0.4423 0.55614 0.0
S439 S 0.41385 0.55987 0.6639 0.0
N440 N 0.3987 0.5725 0.6223 0.0
N441 N 0.42316 0.51477 0.66074 0.0
C442 C 0.41371 0.50802 0.62467 0.0
C443 C 0.4006 0.53939 0.60379 0.0
C444 C 0.58022 0.57647 0.01201 0.0
C445 C 0.61651 0.56156 0.00868 0.0
C446 C 0.56145 0.5913 0.98112 0.0
C447 C 0.57807 0.59122 0.94562 0.0
H448 H 0.56544 0.57496 0.03829 0.0
H449 H 0.5328 0.60057 0.98475 0.0
S450 S 0.67476 0.5606 0.92312 0.0
N451 N 0.67013 0.55179 0.968 0.0
N452 N 0.63462 0.57927 0.90981 0.0
C453 C 0.61544 0.57916 0.94249 0.0
C454 C 0.63476 0.56445 0.97409 0.0
C455 C 0.39349 0.94323 0.00098 0.0
C456 C 0.4103 0.97262 0.0211 0.0
C457 C 0.41035 0.92852 0.9689 0.0
C458 C 0.44428 0.94312 0.95558 0.0
H459 H 0.36647 0.93233 0.00927 0.0
H460 H 0.39589 0.90678 0.95354 0.0
S461 S 0.50216 0.01683 0.00012 0.0
N462 N 0.46493 0.01318 0.02703 0.0
N463 N 0.49602 0.98587 0.96659 0.0
C464 C 0.46239 0.97104 0.97641 0.0
C465 C 0.44559 0.98567 0.00927 0.0
C466 C 0.62566 0.40317 0.54732 0.0
C467 C 0.58875 0.38943 0.54575 0.0
C468 C 0.6435 0.41678 0.51534 0.0
C469 C 0.62503 0.41722 0.4807 0.0
H470 H 0.64012 0.40565 0.57375 0.0
H471 H 0.67091 0.42939 0.51842 0.0
S472 S 0.53153 0.37701 0.46009 0.0
N473 N 0.53681 0.37147 0.50544 0.0
N474 N 0.57029 0.3974 0.44554 0.0
C475 C 0.5896 0.40034 0.47809 0.0
C476 C 0.57148 0.38633 0.51057 0.0
C477 C 0.38715 0.05991 0.5237 0.0
C478 C 0.37217 0.04684 0.55752 0.0
C479 C 0.37105 0.05001 0.4895 0.0
C480 C 0.33883 0.02757 0.48793 0.0
H481 H 0.41274 0.07616 0.52346 0.0
H482 H 0.3845 0.05916 0.46406 0.0
S483 S 0.28679 0.98893 0.56855 0.0
N484 N 0.32209 0.01205 0.58741 0.0
N485 N 0.29107 0.99441 0.52308 0.0
C486 C 0.32223 0.01618 0.52156 0.0
C487 C 0.33913 0.02555 0.55639 0.0
C488 C 0.96623 0.64875 0.55576 0.0
C489 C 0.00079 0.63019 0.55208 0.0
C490 C 0.93406 0.62964 0.56747 0.0
C491 C 0.93527 0.5913 0.57618 0.0
H492 H 0.96341 0.67777 0.5476 0.0
H493 H 0.90779 0.64477 0.56816 0.0
S494 S 0.02042 0.53134 0.57663 0.0
N495 N 0.03531 0.57245 0.56205 0.0
N496 N 0.97518 0.53655 0.58439 0.0
C497 C 0.97033 0.57312 0.57524 0.0
C498 C 0.00299 0.59255 0.56309 0.0
C499 C 0.97451 0.91871 0.59202 0.0
C500 C 0.97511 0.88084 0.58129 0.0
C501 C 0.00614 0.93587 0.60754 0.0
C502 C 0.03967 0.91587 0.61264 0.0
H503 H 0.9502 0.93592 0.5863 0.0
H504 H 0.00498 0.96563 0.61301 0.0
S505 S 0.05354 0.8143 0.59668 0.0
N506 N 0.01025 0.82245 0.58264 0.0
N507 N 0.06976 0.85488 0.61151 0.0
C508 C 0.0395 0.87719 0.60558 0.0
C509 C 0.00716 0.85959 0.59004 0.0
C510 C 0.02441 0.43561 0.94564 0.0
C511 C 0.02146 0.39718 0.95331 0.0
C512 C 0.99664 0.45437 0.92539 0.0
C513 C 0.96453 0.43555 0.9125 0.0
H514 H 0.04769 0.45168 0.95655 0.0
H515 H -0.00051 0.48428 0.92169 0.0
S516 S 0.94536 0.33398 0.92146 0.0
N517 N 0.98556 0.34016 0.94337 0.0
N518 N 0.93313 0.37559 0.90569 0.0
C519 C 0.96232 0.39667 0.91797 0.0
C520 C 0.99086 0.37744 0.93825 0.0
C521 C 0.03847 0.06619 0.92176 0.0
C522 C 0.07211 0.06865 0.94205 0.0
C523 C 0.00652 0.0861 0.93308 0.0
C524 C 0.00745 0.10911 0.9649 0.0
H525 H 0.03621 0.04721 0.89833 0.0
H526 H 0.98057 0.0819 0.91799 0.0
S527 S 0.09114 0.13042 0.02282 0.0
N528 N 0.10601 0.0996 0.99198 0.0
N529 N 0.04645 0.13715 0.01317 0.0
C530 C 0.04187 0.11396 0.98348 0.0
C531 C 0.07412 0.09365 0.97208 0.0
C532 C 0.55907 0.97122 0.62478 0.0
C533 C 0.5476 0.00407 0.60649 0.0
C534 C 0.57442 0.9412 0.60489 0.0
C535 C 0.57907 0.94298 0.56601 0.0
H536 H 0.55419 0.96772 0.65435 0.0
H537 H 0.58102 0.91581 0.61997 0.0
S538 S 0.55992 0.02563 0.5062 0.0
N539 N 0.54649 0.03862 0.54822 0.0
N540 N 0.57568 0.9825 0.5108 0.0
C541 C 0.57057 0.97691 0.5479 0.0
C542 C 0.55474 0.00736 0.56815 0.0
C543 C 0.58792 -0.00145 0.92383 0.0
C544 C 0.59441 0.03167 0.90377 0.0
C545 C 0.57608 0.96583 0.90583 0.0
C546 C 0.5703 0.96487 0.86698 0.0
H547 H 0.58991 -0.00168 0.95394 0.0
H548 H 0.56928 0.94184 0.92291 0.0
S549 S 0.59064 0.04213 0.80095 0.0
N550 N 0.59946 0.06005 0.84243 0.0
N551 N 0.57743 -0.00141 0.80852 0.0
C552 C 0.57998 0.99686 0.84627 0.0
C553 C 0.59187 0.03026 0.86467 0.0
C554 C 0.42961 0.49499 0.89035 0.0
C555 C 0.4504 0.4923 0.85722 0.0
C556 C 0.41877 0.46281 0.90989 0.0
C557 C 0.42954 0.42713 0.89751 0.0
H558 H 0.42256 0.52216 0.90173 0.0
H559 H 0.40368 0.46596 0.93587 0.0
S560 S 0.48265 0.40476 0.81185 0.0
N561 N 0.47951 0.45083 0.81191 0.0
N562 N 0.46057 0.39061 0.84968 0.0
C563 C 0.4494 0.42397 0.86402 0.0
C564 C 0.45944 0.45655 0.84354 0.0
C565 C 0.9145 0.03278 0.06489 0.0
C566 C 0.89586 0.06103 0.08496 0.0
C567 C 0.92974 0.00157 0.08275 0.0
C568 C 0.92728 -0.00279 0.1216 0.0
H569 H 0.91832 0.03517 0.03505 0.0
H570 H 0.94478 0.9814 0.06593 0.0
S571 S 0.87804 0.06132 0.18672 0.0
N572 N 0.87318 0.08124 0.14552 0.0
N573 N 0.90196 0.0225 0.17936 0.0
C574 C 0.90694 0.02422 0.14189 0.0
C575 C 0.89119 0.0561 0.12352 0.0
C576 C 0.00266 0.21517 0.34168 0.0
C577 C 0.04069 0.21014 0.33271 0.0
C578 C 0.98584 0.25041 0.33998 0.0
C579 C 0.00645 0.28219 0.32964 0.0
H580 H 0.98569 0.19174 0.3506 0.0
H581 H 0.95672 0.25282 0.34805 0.0
S582 S 0.10627 0.28385 0.3008 0.0
N583 N 0.098 0.23962 0.31097 0.0
N584 N 0.06643 0.30611 0.30805 0.0
C585 C 0.0442 0.27745 0.31934 0.0
C586 C 0.0613 0.24138 0.32077 0.0
C587 C 0.00016 0.73721 0.2063 0.0
C588 C 0.97124 0.72265 0.18396 0.0
C589 C 0.00892 0.77539 0.20578 0.0
C590 C 0.98906 0.80055 0.18295 0.0
H591 H 0.01706 0.71886 0.22346 0.0
H592 H 0.03223 0.78496 0.2226 0.0
S593 S 0.90758 0.77732 0.12271 0.0
N594 N 0.92043 0.73696 0.14092 0.0
N595 N 0.93682 0.80857 0.13997 0.0
C596 C 0.95877 0.78665 0.16193 0.0
C597 C 0.9499 0.74777 0.16242 0.0
C598 C 0.34201 0.0603 0.2376 0.0
C599 C 0.33499 0.04257 0.20336 0.0
C600 C 0.33511 0.04201 0.27136 0.0
C601 C 0.32072 0.00534 0.27221 0.0
H602 H 0.35437 0.08793 0.23843 0.0
H603 H 0.34231 0.0564 0.29695 0.0
S604 S 0.29231 0.94884 0.19006 0.0
N605 N 0.30914 0.98787 0.17224 0.0
N606 N 0.29599 0.95354 0.23566 0.0
C607 C 0.31142 0.98819 0.23815 0.0
C608 C 0.31862 0.00677 0.20375 0.0
C609 C 0.64712 0.44975 0.23281 0.0
C610 C 0.65211 0.47599 0.20411 0.0
C611 C 0.64901 0.46037 0.2703 0.0
C612 C 0.6561 0.49768 0.2807 0.0
H613 H 0.64042 0.42092 0.22641 0.0
H614 H 0.64379 0.43922 0.29123 0.0
S615 S 0.67579 0.57638 0.21621 0.0
N616 N 0.66779 0.54034 0.1886 0.0
N617 N 0.67139 0.56032 0.25906 0.0
C618 C 0.66313 0.52385 0.25229 0.0
C619 C 0.6611 0.51302 0.21403 0.0
C620 C 0.24029 0.30686 0.97194 0.0
C621 C 0.26925 0.32714 0.98928 0.0
C622 C 0.20289 0.31105 0.98298 0.0
C623 C 0.19276 0.33587 0.01171 0.0
H624 H 0.24638 0.2879 0.9492 0.0
H625 H 0.18169 0.2952 0.96823 0.0
S626 S 0.25806 0.39379 0.06801 0.0
N627 N 0.2853 0.37167 0.03815 0.0
N628 N 0.21508 0.37961 0.05869 0.0
C629 C 0.22151 0.35559 0.03005 0.0
C630 C 0.25968 0.3512 0.01892 0.0
C631 C 0.23652 0.66965 0.46068 0.0
C632 C 0.20695 0.66965 0.48652 0.0
C633 C 0.27391 0.66823 0.47239 0.0
C634 C 0.28337 0.66684 0.51046 0.0
H635 H 0.23087 0.66958 0.43103 0.0
H636 H 0.29549 0.66719 0.45125 0.0
S637 S 0.21654 0.67048 0.58958 0.0
N638 N 0.18973 0.67125 0.55209 0.0
N639 N 0.26 0.66863 0.57411 0.0
C640 C 0.25414 0.66869 0.53669 0.0
C641 C 0.21598 0.67006 0.52473 0.0
C642 C 0.72184 0.85828 0.4497 0.0
C643 C 0.70752 0.84347 0.48309 0.0
C644 C 0.76036 0.86305 0.44451 0.0
C645 C 0.78618 0.85329 0.47249 0.0
H646 H 0.70314 0.8674 0.42772 0.0
H647 H 0.76978 0.87561 0.41873 0.0
S648 S 0.76363 0.80894 0.56323 0.0
N649 N 0.72254 0.81582 0.54325 0.0
N650 N 0.79496 0.82487 0.53348 0.0
C651 C 0.77244 0.8367 0.50528 0.0
C652 C 0.73313 0.83176 0.51056 0.0
C653 C 0.54111 0.76204 0.8022 0.0
C654 C 0.51026 0.77718 0.8213 0.0
C655 C 0.54659 0.72331 0.79994 0.0
C656 C 0.52126 0.69812 0.81636 0.0
H657 H 0.56194 0.7802 0.78987 0.0
H658 H 0.5714 0.71314 0.78586 0.0
S659 S 0.43379 0.72344 0.86634 0.0
N660 N 0.4525 0.76392 0.85464 0.0
N661 N 0.46261 0.69122 0.85021 0.0
C662 C 0.4893 0.71286 0.83404 0.0
C663 C 0.48388 0.75234 0.83659 0.0
C664 C 0.51484 0.24084 0.6466 0.0
C665 C 0.49002 0.27104 0.65107 0.0
C666 C 0.50238 0.20386 0.649 0.0
C667 C 0.46454 0.19541 0.65603 0.0
H668 H 0.54402 0.24563 0.63996 0.0
H669 H 0.52255 0.18175 0.64416 0.0
S670 S 0.38897 0.26431 0.6746 0.0
N671 N 0.42638 0.29006 0.66633 0.0
N672 N 0.40294 0.22047 0.67085 0.0
C673 C 0.43975 0.22531 0.6626 0.0
C674 C 0.45247 0.2631 0.66011 0.0
C675 C 0.84031 0.51647 0.76849 0.0
C676 C 0.83186 0.47965 0.77947 0.0
C677 C 0.84161 0.52657 0.73088 0.0
C678 C 0.83462 0.5003 0.70256 0.0
H679 H 0.84697 0.53764 0.78904 0.0
H680 H 0.84933 0.55503 0.72407 0.0
S681 S 0.80709 0.40113 0.71633 0.0
N682 N 0.81335 0.41748 0.75889 0.0
N683 N 0.81584 0.43647 0.68813 0.0
C684 C 0.82438 0.46378 0.71309 0.0
C685 C 0.82298 0.45347 0.75152 0.0
C686 C 0.17353 0.92942 0.74465 0.0
C687 C 0.18694 0.9518 0.71546 0.0
C688 C 0.17571 0.9415 0.78162 0.0
C689 C 0.19177 0.97623 0.79088 0.0
H690 H 0.15943 0.90324 0.73887 0.0
H691 H 0.16354 0.92393 0.80297 0.0
S692 S 0.23658 0.04243 0.72506 0.0
N693 N 0.22072 0.00828 0.6984 0.0
N694 N 0.22527 0.03088 0.76812 0.0
C695 C 0.20788 -0.0024 0.76221 0.0
C696 C 0.20529 0.98543 0.72442 0.0
C697 C 0.77938 0.14621 0.93851 0.0
C698 C 0.78726 0.16835 0.97001 0.0
C699 C 0.74288 0.14285 0.92455 0.0
C700 C 0.7126 0.16144 0.94148 0.0
H701 H 0.80141 0.13046 0.92496 0.0
H702 H 0.73832 0.12458 0.9009 0.0
S703 S 0.7186 0.22609 0.02232 0.0
N704 N 0.762 0.21154 0.01602 0.0
N705 N 0.69344 0.20519 0.98981 0.0
C706 C 0.72027 0.18502 0.972 0.0
C707 C 0.75754 0.18848 0.98623 0.0
C708 C 0.05634 -0.0005 0.23027 0.0
C709 C 0.07311 0.96399 0.22946 0.0
C710 C 0.06467 0.02504 0.25846 0.0
C711 C 0.08948 0.01576 0.28751 0.0
H712 H 0.03613 0.00751 0.20917 0.0
H713 H 0.05003 0.05157 0.25833 0.0
S714 S 0.14308 0.9273 0.29648 0.0
N715 N 0.11779 0.92164 0.2583 0.0
N716 N 0.13279 0.96944 0.31232 0.0
C717 C 0.10768 0.98087 0.28622 0.0
C718 C 0.09967 0.95502 0.25692 0.0
C719 C 0.93399 0.4643 0.24307 0.0
C720 C 0.93153 0.4773 0.27997 0.0
C721 C 0.92614 0.4878 0.21292 0.0
C722 C 0.91586 0.52539 0.21841 0.0
H723 H 0.94319 0.43604 0.23725 0.0
H724 H 0.93005 0.47676 0.18509 0.0
S725 S 0.9013 0.57222 0.30951 0.0
N726 N 0.9148 0.52945 0.32038 0.0
N727 N 0.9004 0.57366 0.26357 0.0
C728 C 0.9113 0.53824 0.25515 0.0
C729 C 0.91904 0.5142 0.28595 0.0
C730 C 0.26186 0.0439 0.96547 0.0
C731 C 0.23072 0.06657 0.9578 0.0
C732 C 0.28688 0.05293 0.99399 0.0
C733 C 0.28165 0.08483 0.01651 0.0
H734 H 0.26659 0.01845 0.94978 0.0
H735 H 0.31002 0.03396 -0.00109 0.0
S736 S 0.20525 0.15454 0.00655 0.0
N737 N 0.19667 0.12333 0.97372 0.0
N738 N 0.2437 0.14021 0.02784 0.0
C739 C 0.25128 0.10854 0.00833 0.0
C740 C 0.22585 0.09946 0.97885 0.0
C741 C 0.76696 0.43982 0.04798 0.0
C742 C 0.7292 0.44372 0.0376 0.0
C743 C 0.79542 0.43893 0.02121 0.0
C744 C 0.78733 0.44223 0.98293 0.0
H745 H 0.77483 0.43873 0.07712 0.0
H746 H 0.82413 0.4373 0.03088 0.0
S747 S 0.69257 0.44915 0.94071 0.0
N748 N 0.6849 0.44777 0.986 0.0
N749 N 0.73843 0.44635 0.93582 0.0
C750 C 0.74951 0.44399 0.97199 0.0
C751 C 0.72045 0.44466 -0.00073 0.0
C752 C 0.26518 0.90133 0.48659 0.0
C753 C 0.2586 0.91447 0.4502 0.0
C754 C 0.23718 0.90266 0.51374 0.0
C755 C 0.20136 0.91667 0.50546 0.0
H756 H 0.29281 0.89206 0.49499 0.0
H757 H 0.2442 0.89412 0.54185 0.0
S758 S 0.16808 0.94953 0.41298 0.0
N759 N 0.21237 0.93819 0.40625 0.0
N760 N 0.1596 0.94044 0.45724 0.0
C761 C 0.19345 0.92712 0.46845 0.0
C762 C 0.22211 0.92605 0.44082 0.0
C763 C 0.76342 0.53354 0.49758 0.0
C764 C 0.75756 0.54496 0.53469 0.0
C765 C 0.73444 0.53427 0.47133 0.0
C766 C 0.69824 0.54628 0.48104 0.0
H767 H 0.79029 0.52253 0.4889 0.0
H768 H 0.74015 0.52348 0.44372 0.0
S769 S 0.66951 0.58484 0.57272 0.0
N770 N 0.71382 0.57295 0.57856 0.0
N771 N 0.65926 0.57427 0.52912 0.0
C772 C 0.69261 0.56037 0.51725 0.0
C773 C 0.72226 0.55972 0.54408 0.0
C774 C 0.96814 0.29463 0.08903 0.0
C775 C 0.00176 0.29775 0.06876 0.0
C776 C 0.94335 0.26469 0.08301 0.0
C777 C 0.95078 0.23756 0.05567 0.0
H778 H 0.96079 0.31562 0.10952 0.0
H779 H 0.91776 0.26334 0.09912 0.0
S780 S 0.0354 0.23212 -0.00414 0.0
N781 N 0.04182 0.26987 0.02147 0.0
N782 N 0.99467 0.21494 0.00904 0.0
C783 C 0.98446 0.24013 0.03554 0.0
C784 C 0.01012 0.26985 0.04239 0.0
C785 C 0.01633 0.75569 0.44655 0.0
C786 C 0.00617 0.71971 0.43443 0.0
C787 C 0.98988 0.78438 0.44905 0.0
C788 C 0.95208 0.77839 0.43949 0.0
H789 H 0.04461 0.76147 0.45588 0.0
H790 H -0.00098 0.81109 0.46001 0.0
S791 S 0.91211 0.69085 0.40061 0.0
N792 N 0.95653 0.68082 0.40857 0.0
N793 N 0.90672 0.73486 0.41336 0.0
C794 C 0.94203 0.74335 0.42473 0.0
C795 C 0.96908 0.714 0.42217 0.0
C796 C 0.51464 0.7662 0.52687 0.0
C797 C 0.55032 0.75668 0.51307 0.0
C798 C 0.48827 0.7387 0.53574 0.0
C799 C 0.49662 0.70053 0.53166 0.0
H800 H 0.50625 0.7952 0.52931 0.0
H801 H 0.46067 0.74749 0.54466 0.0
S802 S 0.58745 0.66052 0.50051 0.0
N803 N 0.59365 0.70621 0.49863 0.0
N804 N 0.54426 0.65445 0.51561 0.0
C805 C 0.53298 0.69049 0.52009 0.0
C806 C 0.55976 0.71857 0.51068 0.0
C807 C 0.54848 0.5028 0.73843 0.0
C808 C 0.56153 0.49421 0.77439 0.0
C809 C 0.54339 0.47486 0.71165 0.0
C810 C 0.55115 0.43707 0.71959 0.0
H811 H 0.54034 0.53108 0.7313 0.0
H812 H 0.5318 0.48298 0.68494 0.0
S813 S 0.59142 0.40046 0.80772 0.0
N814 N 0.58628 0.44571 0.8152 0.0
N815 N 0.5766 0.39315 0.76475 0.0
C816 C 0.56678 0.42839 0.75452 0.0
C817 C 0.57202 0.45696 0.78191 0.0
C818 C 0.45248 0.96432 0.75857 0.0
C819 C 0.42479 0.96047 0.78609 0.0
C820 C 0.44955 0.99131 0.73072 0.0
C821 C 0.41865 0.0157 0.72876 0.0
H822 H 0.47733 0.94693 0.75886 0.0
H823 H 0.47213 0.99308 0.71071 0.0
S824 S 0.33658 0.01529 0.7921 0.0
N825 N 0.36411 0.98198 0.80844 0.0
N826 N 0.35847 0.03279 0.75557 0.0
C827 C 0.38994 0.01141 0.75523 0.0
C828 C 0.39303 0.98382 0.78396 0.0
C829 C 0.43563 0.22496 0.92364 0.0
C830 C 0.44124 0.25943 0.90583 0.0
C831 C 0.46259 0.19659 0.92174 0.0
C832 C 0.4967 0.20201 0.90284 0.0
H833 H 0.41075 0.22032 0.94024 0.0
H834 H 0.45748 0.17105 0.93711 0.0
S835 S 0.52415 0.28652 0.84978 0.0
N836 N 0.48237 0.29668 0.86666 0.0
N837 N 0.53364 0.24367 0.86414 0.0
C838 C 0.50207 0.23581 0.88369 0.0
C839 C 0.47416 0.26444 0.88489 0.0
loop_
_geom_bond_atom_site_label_1
_geom_bond_atom_site_label_2
_geom_bond_distance
_geom_bond_site_symmetry_2
_ccdc_geom_bond_type
C0 O1 1.160 1_655 S
C0 O7 1.185 . S
O1 C0 1.160 1_455 S
O2 Zn3 1.899 . S
O2 C10 1.284 1_655 S
Zn3 O2 1.899 . S
Zn3 O4 2.032 1_655 S
Zn3 O7 2.086 . S
Zn3 O12 1.977 . S
O4 Zn3 2.032 1_455 S
O4 C8 1.278 . S
C5 O6 1.203 . S
C5 O12 1.267 . S
O6 C5 1.203 . S
O7 C0 1.185 . S
O7 Zn3 2.086 . S
C8 O4 1.278 . S
C8 O9 1.211 . S
O9 C8 1.211 . S
C10 O2 1.284 1_455 S
C10 O11 1.273 . S
O11 C10 1.273 . S
O12 Zn3 1.977 . S
O12 C5 1.267 . S
C13 O14 1.160 1_455 S
C13 O20 1.185 . S
O14 C13 1.160 1_655 S
O15 Zn16 1.899 . S
O15 C23 1.284 1_455 S
Zn16 O15 1.899 . S
Zn16 O17 2.032 1_455 S
Zn16 O20 2.086 . S
Zn16 O25 1.977 . S
O17 Zn16 2.032 1_655 S
O17 C21 1.278 . S
C18 O19 1.203 . S
C18 O25 1.267 . S
O19 C18 1.203 . S
O20 C13 1.185 . S
O20 Zn16 2.086 . S
C21 O17 1.278 . S
C21 O22 1.211 . S
O22 C21 1.211 . S
C23 O15 1.284 1_655 S
C23 O24 1.273 . S
O24 C23 1.273 . S
O25 Zn16 1.977 . S
O25 C18 1.267 . S
C26 O27 1.160 1_655 S
C26 O33 1.185 . S
O27 C26 1.160 1_455 S
O28 Zn29 1.899 . S
O28 C36 1.284 1_655 S
Zn29 O28 1.899 . S
Zn29 O30 2.032 1_655 S
Zn29 O33 2.086 . S
Zn29 O38 1.977 . S
O30 Zn29 2.032 1_455 S
O30 C34 1.278 . S
C31 O32 1.203 . S
C31 O38 1.267 . S
O32 C31 1.203 . S
O33 C26 1.185 . S
O33 Zn29 2.086 . S
C34 O30 1.278 . S
C34 O35 1.211 . S
O35 C34 1.211 . S
C36 O28 1.284 1_455 S
C36 O37 1.273 . S
O37 C36 1.273 . S
O38 Zn29 1.977 . S
O38 C31 1.267 . S
C39 O40 1.160 1_455 S
C39 O46 1.185 . S
O40 C39 1.160 1_655 S
O41 Zn42 1.899 . S
O41 C49 1.284 1_455 S
Zn42 O41 1.899 . S
Zn42 O43 2.032 1_455 S
Zn42 O46 2.086 . S
Zn42 O51 1.977 . S
O43 Zn42 2.032 1_655 S
O43 C47 1.278 . S
C44 O45 1.203 . S
C44 O51 1.267 . S
O45 C44 1.203 . S
O46 C39 1.185 . S
O46 Zn42 2.086 . S
C47 O43 1.278 . S
C47 O48 1.211 . S
O48 C47 1.211 . S
C49 O41 1.284 1_655 S
C49 O50 1.273 . S
O50 C49 1.273 . S
O51 Zn42 1.977 . S
O51 C44 1.267 . S
C52 O53 1.160 1_565 S
C52 O59 1.185 . S
O53 C52 1.160 1_545 S
O54 Zn55 1.899 . S
O54 C62 1.284 1_565 S
Zn55 O54 1.899 . S
Zn55 O56 2.032 1_565 S
Zn55 O59 2.086 . S
Zn55 O64 1.977 . S
O56 Zn55 2.032 1_545 S
O56 C60 1.278 . S
C57 O58 1.203 . S
C57 O64 1.267 . S
O58 C57 1.203 . S
O59 C52 1.185 . S
O59 Zn55 2.086 . S
C60 O56 1.278 . S
C60 O61 1.211 . S
O61 C60 1.211 . S
C62 O54 1.284 1_545 S
C62 O63 1.273 . S
O63 C62 1.273 . S
O64 Zn55 1.977 . S
O64 C57 1.267 . S
C65 O66 1.160 . S
C65 O72 1.185 . S
O66 C65 1.160 . S
O67 Zn68 1.899 . S
O67 C75 1.284 . S
Zn68 O67 1.899 . S
Zn68 O69 2.032 . S
Zn68 O72 2.086 . S
Zn68 O77 1.977 . S
O69 Zn68 2.032 . S
O69 C73 1.278 . S
C70 O71 1.203 . S
C70 O77 1.267 . S
O71 C70 1.203 . S
O72 C65 1.185 . S
O72 Zn68 2.086 . S
C73 O69 1.278 . S
C73 O74 1.211 . S
O74 C73 1.211 . S
C75 O67 1.284 . S
C75 O76 1.273 . S
O76 C75 1.273 . S
O77 Zn68 1.977 . S
O77 C70 1.267 . S
C78 O79 1.160 1_545 S
C78 O85 1.185 . S
O79 C78 1.160 1_565 S
O80 Zn81 1.899 . S
O80 C88 1.284 1_545 S
Zn81 O80 1.899 . S
Zn81 O82 2.032 1_545 S
Zn81 O85 2.086 . S
Zn81 O90 1.977 . S
O82 Zn81 2.032 1_565 S
O82 C86 1.278 . S
C83 O84 1.203 . S
C83 O90 1.267 . S
O84 C83 1.203 . S
O85 C78 1.185 . S
O85 Zn81 2.086 . S
C86 O82 1.278 . S
C86 O87 1.211 . S
O87 C86 1.211 . S
C88 O80 1.284 1_565 S
C88 O89 1.273 . S
O89 C88 1.273 . S
O90 Zn81 1.977 . S
O90 C83 1.267 . S
C91 O92 1.160 . S
C91 O98 1.185 . S
O92 C91 1.160 . S
O93 Zn94 1.899 . S
O93 C101 1.284 . S
Zn94 O93 1.899 . S
Zn94 O95 2.032 . S
Zn94 O98 2.086 . S
Zn94 O103 1.977 . S
O95 Zn94 2.032 . S
O95 C99 1.278 . S
C96 O97 1.203 . S
C96 O103 1.267 . S
O97 C96 1.203 . S
O98 C91 1.185 . S
O98 Zn94 2.086 . S
C99 O95 1.278 . S
C99 O100 1.211 . S
O100 C99 1.211 . S
C101 O93 1.284 . S
C101 O102 1.273 . S
O102 C101 1.273 . S
O103 Zn94 1.977 . S
O103 C96 1.267 . S
C104 O105 1.160 1_556 S
C104 O111 1.185 . S
O105 C104 1.160 1_554 S
O106 Zn107 1.899 . S
O106 C114 1.284 1_556 S
Zn107 O106 1.899 . S
Zn107 O108 2.032 1_556 S
Zn107 O111 2.086 . S
Zn107 O116 1.977 . S
O108 Zn107 2.032 1_554 S
O108 C112 1.278 . S
C109 O110 1.203 . S
C109 O116 1.267 . S
O110 C109 1.203 . S
O111 C104 1.185 . S
O111 Zn107 2.086 . S
C112 O108 1.278 . S
C112 O113 1.211 . S
O113 C112 1.211 . S
C114 O106 1.284 1_554 S
C114 O115 1.273 . S
O115 C114 1.273 . S
O116 Zn107 1.977 . S
O116 C109 1.267 . S
C117 O118 1.160 . S
C117 O124 1.185 . S
O118 C117 1.160 . S
O119 Zn120 1.899 . S
O119 C127 1.284 . S
Zn120 O119 1.899 . S
Zn120 O121 2.032 . S
Zn120 O124 2.086 . S
Zn120 O129 1.977 . S
O121 Zn120 2.032 . S
O121 C125 1.278 . S
C122 O123 1.203 . S
C122 O129 1.267 . S
O123 C122 1.203 . S
O124 C117 1.185 . S
O124 Zn120 2.086 . S
C125 O121 1.278 . S
C125 O126 1.211 . S
O126 C125 1.211 . S
C127 O119 1.284 . S
C127 O128 1.273 . S
O128 C127 1.273 . S
O129 Zn120 1.977 . S
O129 C122 1.267 . S
C130 O131 1.160 . S
C130 O137 1.185 . S
O131 C130 1.160 . S
O132 Zn133 1.899 . S
O132 C140 1.284 . S
Zn133 O132 1.899 . S
Zn133 O134 2.032 . S
Zn133 O137 2.086 . S
Zn133 O142 1.977 . S
O134 Zn133 2.032 . S
O134 C138 1.278 . S
C135 O136 1.203 . S
C135 O142 1.267 . S
O136 C135 1.203 . S
O137 C130 1.185 . S
O137 Zn133 2.086 . S
C138 O134 1.278 . S
C138 O139 1.211 . S
O139 C138 1.211 . S
C140 O132 1.284 . S
C140 O141 1.273 . S
O141 C140 1.273 . S
O142 Zn133 1.977 . S
O142 C135 1.267 . S
C143 O144 1.160 . S
C143 O150 1.185 . S
O144 C143 1.160 . S
O145 Zn146 1.899 . S
O145 C153 1.284 . S
Zn146 O145 1.899 . S
Zn146 O147 2.032 . S
Zn146 O150 2.086 . S
Zn146 O155 1.977 . S
O147 Zn146 2.032 . S
O147 C151 1.278 . S
C148 O149 1.203 . S
C148 O155 1.267 . S
O149 C148 1.203 . S
O150 C143 1.185 . S
O150 Zn146 2.086 . S
C151 O147 1.278 . S
C151 O152 1.211 . S
O152 C151 1.211 . S
C153 O145 1.284 . S
C153 O154 1.273 . S
O154 C153 1.273 . S
O155 Zn146 1.977 . S
O155 C148 1.267 . S
C156 O157 1.160 . S
C156 O163 1.185 . S
O157 C156 1.160 . S
O158 Zn159 1.899 . S
O158 C166 1.284 . S
Zn159 O158 1.899 . S
Zn159 O160 2.032 . S
Zn159 O163 2.086 . S
Zn159 O168 1.977 . S
O160 Zn159 2.032 . S
O160 C164 1.278 . S
C161 O162 1.203 . S
C161 O168 1.267 . S
O162 C161 1.203 . S
O163 C156 1.185 . S
O163 Zn159 2.086 . S
C164 O160 1.278 . S
C164 O165 1.211 . S
O165 C164 1.211 . S
C166 O158 1.284 . S
C166 O167 1.273 . S
O167 C166 1.273 . S
O168 Zn159 1.977 . S
O168 C161 1.267 . S
C169 O170 1.160 . S
C169 O176 1.185 . S
O170 C169 1.160 . S
O171 Zn172 1.899 . S
O171 C179 1.284 . S
Zn172 O171 1.899 . S
Zn172 O173 2.032 . S
Zn172 O176 2.086 . S
Zn172 O181 1.977 . S
O173 Zn172 2.032 . S
O173 C177 1.278 . S
C174 O175 1.203 . S
C174 O181 1.267 . S
O175 C174 1.203 . S
O176 C169 1.185 . S
O176 Zn172 2.086 . S
C177 O173 1.278 . S
C177 O178 1.211 . S
O178 C177 1.211 . S
C179 O171 1.284 . S
C179 O180 1.273 . S
O180 C179 1.273 . S
O181 Zn172 1.977 . S
O181 C174 1.267 . S
C182 O183 1.160 . S
C182 O189 1.185 . S
O183 C182 1.160 . S
O184 Zn185 1.899 . S
O184 C192 1.284 . S
Zn185 O184 1.899 . S
Zn185 O186 2.032 . S
Zn185 O189 2.086 . S
Zn185 O194 1.977 . S
O186 Zn185 2.032 . S
O186 C190 1.278 . S
C187 O188 1.203 . S
C187 O194 1.267 . S
O188 C187 1.203 . S
O189 C182 1.185 . S
O189 Zn185 2.086 . S
C190 O186 1.278 . S
C190 O191 1.211 . S
O191 C190 1.211 . S
C192 O184 1.284 . S
C192 O193 1.273 . S
O193 C192 1.273 . S
O194 Zn185 1.977 . S
O194 C187 1.267 . S
C195 O196 1.160 . S
C195 O202 1.185 . S
O196 C195 1.160 . S
O197 Zn198 1.899 . S
O197 C205 1.284 . S
Zn198 O197 1.899 . S
Zn198 O199 2.032 . S
Zn198 O202 2.086 . S
Zn198 O207 1.977 . S
O199 Zn198 2.032 . S
O199 C203 1.278 . S
C200 O201 1.203 . S
C200 O207 1.267 . S
O201 C200 1.203 . S
O202 C195 1.185 . S
O202 Zn198 2.086 . S
C203 O199 1.278 . S
C203 O204 1.211 . S
O204 C203 1.211 . S
C205 O197 1.284 . S
C205 O206 1.273 . S
O206 C205 1.273 . S
O207 Zn198 1.977 . S
O207 C200 1.267 . S
C208 O209 1.160 . S
C208 O215 1.185 . S
O209 C208 1.160 . S
O210 Zn211 1.899 . S
O210 C218 1.284 . S
Zn211 O210 1.899 . S
Zn211 O212 2.032 . S
Zn211 O215 2.086 . S
Zn211 O220 1.977 . S
O212 Zn211 2.032 . S
O212 C216 1.278 . S
C213 O214 1.203 . S
C213 O220 1.267 . S
O214 C213 1.203 . S
O215 C208 1.185 . S
O215 Zn211 2.086 . S
C216 O212 1.278 . S
C216 O217 1.211 . S
O217 C216 1.211 . S
C218 O210 1.284 . S
C218 O219 1.273 . S
O219 C218 1.273 . S
O220 Zn211 1.977 . S
O220 C213 1.267 . S
C221 O222 1.160 1_545 S
C221 O228 1.185 . S
O222 C221 1.160 1_565 S
O223 Zn224 1.899 . S
O223 C231 1.284 1_545 S
Zn224 O223 1.899 . S
Zn224 O225 2.032 1_545 S
Zn224 O228 2.086 . S
Zn224 O233 1.977 . S
O225 Zn224 2.032 1_565 S
O225 C229 1.278 . S
C226 O227 1.203 . S
C226 O233 1.267 . S
O227 C226 1.203 . S
O228 C221 1.185 . S
O228 Zn224 2.086 . S
C229 O225 1.278 . S
C229 O230 1.211 . S
O230 C229 1.211 . S
C231 O223 1.284 1_565 S
C231 O232 1.273 . S
O232 C231 1.273 . S
O233 Zn224 1.977 . S
O233 C226 1.267 . S
C234 O235 1.160 . S
C234 O241 1.185 . S
O235 C234 1.160 . S
O236 Zn237 1.899 . S
O236 C244 1.284 . S
Zn237 O236 1.899 . S
Zn237 O238 2.032 . S
Zn237 O241 2.086 . S
Zn237 O246 1.977 . S
O238 Zn237 2.032 . S
O238 C242 1.278 . S
C239 O240 1.203 . S
C239 O246 1.267 . S
O240 C239 1.203 . S
O241 C234 1.185 . S
O241 Zn237 2.086 . S
C242 O238 1.278 . S
C242 O243 1.211 . S
O243 C242 1.211 . S
C244 O236 1.284 . S
C244 O245 1.273 . S
O245 C244 1.273 . S
O246 Zn237 1.977 . S
O246 C239 1.267 . S
C247 O248 1.160 1_565 S
C247 O254 1.185 . S
O248 C247 1.160 1_545 S
O249 Zn250 1.899 . S
O249 C257 1.284 1_565 S
Zn250 O249 1.899 . S
Zn250 O251 2.032 1_565 S
Zn250 O254 2.086 . S
Zn250 O259 1.977 . S
O251 Zn250 2.032 1_545 S
O251 C255 1.278 . S
C252 O253 1.203 . S
C252 O259 1.267 . S
O253 C252 1.203 . S
O254 C247 1.185 . S
O254 Zn250 2.086 . S
C255 O251 1.278 . S
C255 O256 1.211 . S
O256 C255 1.211 . S
C257 O249 1.284 1_545 S
C257 O258 1.273 . S
O258 C257 1.273 . S
O259 Zn250 1.977 . S
O259 C252 1.267 . S
C260 O261 1.160 . S
C260 O267 1.185 . S
O261 C260 1.160 . S
O262 Zn263 1.899 . S
O262 C270 1.284 . S
Zn263 O262 1.899 . S
Zn263 O264 2.032 . S
Zn263 O267 2.086 . S
Zn263 O272 1.977 . S
O264 Zn263 2.032 . S
O264 C268 1.278 . S
C265 O266 1.203 . S
C265 O272 1.267 . S
O266 C265 1.203 . S
O267 C260 1.185 . S
O267 Zn263 2.086 . S
C268 O264 1.278 . S
C268 O269 1.211 . S
O269 C268 1.211 . S
C270 O262 1.284 . S
C270 O271 1.273 . S
O271 C270 1.273 . S
O272 Zn263 1.977 . S
O272 C265 1.267 . S
C273 O274 1.160 1_554 S
C273 O280 1.185 . S
O274 C273 1.160 1_556 S
O275 Zn276 1.899 . S
O275 C283 1.284 1_554 S
Zn276 O275 1.899 . S
Zn276 O277 2.032 1_554 S
Zn276 O280 2.086 . S
Zn276 O285 1.977 . S
O277 Zn276 2.032 1_556 S
O277 C281 1.278 . S
C278 O279 1.203 . S
C278 O285 1.267 . S
O279 C278 1.203 . S
O280 C273 1.185 . S
O280 Zn276 2.086 . S
C281 O277 1.278 . S
C281 O282 1.211 . S
O282 C281 1.211 . S
C283 O275 1.284 1_556 S
C283 O284 1.273 . S
O284 C283 1.273 . S
O285 Zn276 1.977 . S
O285 C278 1.267 . S
C286 O287 1.160 1_554 S
C286 O293 1.185 . S
O287 C286 1.160 1_556 S
O288 Zn289 1.899 . S
O288 C296 1.284 1_554 S
Zn289 O288 1.899 . S
Zn289 O290 2.032 1_554 S
Zn289 O293 2.086 . S
Zn289 O298 1.977 . S
O290 Zn289 2.032 1_556 S
O290 C294 1.278 . S
C291 O292 1.203 . S
C291 O298 1.267 . S
O292 C291 1.203 . S
O293 C286 1.185 . S
O293 Zn289 2.086 . S
C294 O290 1.278 . S
C294 O295 1.211 . S
O295 C294 1.211 . S
C296 O288 1.284 1_556 S
C296 O297 1.273 . S
O297 C296 1.273 . S
O298 Zn289 1.977 . S
O298 C291 1.267 . S
C299 O300 1.160 1_556 S
C299 O306 1.185 . S
O300 C299 1.160 1_554 S
O301 Zn302 1.899 . S
O301 C309 1.284 1_556 S
Zn302 O301 1.899 . S
Zn302 O303 2.032 1_556 S
Zn302 O306 2.086 . S
Zn302 O311 1.977 . S
O303 Zn302 2.032 1_554 S
O303 C307 1.278 . S
C304 O305 1.203 . S
C304 O311 1.267 . S
O305 C304 1.203 . S
O306 C299 1.185 . S
O306 Zn302 2.086 . S
C307 O303 1.278 . S
C307 O308 1.211 . S
O308 C307 1.211 . S
C309 O301 1.284 1_554 S
C309 O310 1.273 . S
O310 C309 1.273 . S
O311 Zn302 1.977 . S
O311 C304 1.267 . S
C312 C313 1.369 . S
C312 C314 1.419 . S
C312 H316 0.930 . S
C313 C312 1.369 . S
C313 C322 1.429 . S
C314 C312 1.419 . S
C314 C315 1.363 . S
C314 H317 0.929 . S
C315 C314 1.363 . S
C315 C321 1.428 . S
H316 C312 0.930 . S
H317 C314 0.929 . S
S318 N319 1.613 . S
S318 N320 1.610 . S
N319 S318 1.613 . S
N319 C322 1.350 . S
N320 S318 1.610 . S
N320 C321 1.351 . S
C321 C315 1.428 . S
C321 N320 1.351 . S
C321 C322 1.434 . S
C322 C313 1.429 . S
C322 N319 1.350 . S
C322 C321 1.434 . S
C323 C324 1.369 . S
C323 C325 1.419 . S
C323 H327 0.930 . S
C324 C323 1.369 . S
C324 C333 1.429 . S
C325 C323 1.419 . S
C325 C326 1.363 . S
C325 H328 0.929 . S
C326 C325 1.363 . S
C326 C332 1.428 . S
H327 C323 0.930 . S
H328 C325 0.929 . S
S329 N330 1.613 1_455 S
S329 N331 1.610 1_455 S
N330 S329 1.613 1_655 S
N330 C333 1.350 . S
N331 S329 1.610 1_655 S
N331 C332 1.351 . S
C332 C326 1.428 . S
C332 N331 1.351 . S
C332 C333 1.434 . S
C333 C324 1.429 . S
C333 N330 1.350 . S
C333 C332 1.434 . S
C334 C335 1.369 . S
C334 C336 1.419 . S
C334 H338 0.930 . S
C335 C334 1.369 . S
C335 C344 1.429 . S
C336 C334 1.419 . S
C336 C337 1.363 1_554 S
C336 H339 0.929 1_554 S
C337 C336 1.363 1_556 S
C337 C343 1.428 1_556 S
H338 C334 0.930 . S
H339 C336 0.929 1_556 S
S340 N341 1.613 . S
S340 N342 1.610 1_554 S
N341 S340 1.613 . S
N341 C344 1.350 . S
N342 S340 1.610 1_556 S
N342 C343 1.351 1_556 S
C343 C337 1.428 1_554 S
C343 N342 1.351 1_554 S
C343 C344 1.434 . S
C344 C335 1.429 . S
C344 N341 1.350 . S
C344 C343 1.434 . S
C345 C346 1.369 . S
C345 C347 1.419 . S
C345 H349 0.930 . S
C346 C345 1.369 . S
C346 C355 1.429 . S
C347 C345 1.419 . S
C347 C348 1.363 1_554 S
C347 H350 0.929 . S
C348 C347 1.363 1_556 S
C348 C354 1.428 . S
H349 C345 0.930 . S
H350 C347 0.929 . S
S351 N352 1.613 1_455 S
S351 N353 1.610 1_454 S
N352 S351 1.613 1_655 S
N352 C355 1.350 . S
N353 S351 1.610 1_656 S
N353 C354 1.351 . S
C354 C348 1.428 . S
C354 N353 1.351 . S
C354 C355 1.434 1_556 S
C355 C346 1.429 . S
C355 N352 1.350 . S
C355 C354 1.434 1_554 S
C356 C357 1.369 . S
C356 C358 1.419 . S
C356 H360 0.930 . S
C357 C356 1.369 . S
C357 C366 1.429 . S
C358 C356 1.419 . S
C358 C359 1.363 . S
C358 H361 0.929 . S
C359 C358 1.363 . S
C359 C365 1.428 . S
H360 C356 0.930 . S
H361 C358 0.929 . S
S362 N363 1.605 1_565 S
S362 N364 1.595 1_565 S
N363 S362 1.605 1_545 S
N363 C366 1.350 . S
N364 S362 1.595 1_545 S
N364 C365 1.351 . S
C365 C359 1.428 . S
C365 N364 1.351 . S
C365 C366 1.434 . S
C366 C357 1.429 . S
C366 N363 1.350 . S
C366 C365 1.434 . S
C367 C368 1.369 . S
C367 C369 1.419 . S
C367 H371 0.930 . S
C368 C367 1.369 . S
C368 C377 1.429 . S
C369 C367 1.419 . S
C369 C370 1.363 . S
C369 H372 0.929 . S
C370 C369 1.363 . S
C370 C376 1.428 . S
H371 C367 0.930 . S
H372 C369 0.929 . S
S373 N374 1.613 . S
S373 N375 1.610 . S
N374 S373 1.613 . S
N374 C377 1.350 . S
N375 S373 1.610 . S
N375 C376 1.351 . S
C376 C370 1.428 . S
C376 N375 1.351 . S
C376 C377 1.434 . S
C377 C368 1.429 . S
C377 N374 1.350 . S
C377 C376 1.434 . S
C378 C379 1.369 . S
C378 C380 1.419 . S
C378 H382 0.930 . S
C379 C378 1.369 . S
C379 C388 1.429 . S
C380 C378 1.419 . S
C380 C381 1.363 . S
C380 H383 0.929 . S
C381 C380 1.363 . S
C381 C387 1.428 . S
H382 C378 0.930 . S
H383 C380 0.929 . S
S384 N385 1.613 . S
S384 N386 1.610 . S
N385 S384 1.613 . S
N385 C388 1.350 . S
N386 S384 1.610 . S
N386 C387 1.351 . S
C387 C381 1.428 . S
C387 N386 1.351 . S
C387 C388 1.434 . S
C388 C379 1.429 . S
C388 N385 1.350 . S
C388 C387 1.434 . S
C389 C390 1.369 . S
C389 C391 1.419 . S
C389 H393 0.930 . S
C390 C389 1.369 . S
C390 C399 1.429 . S
C391 C389 1.419 . S
C391 C392 1.363 . S
C391 H394 0.929 . S
C392 C391 1.363 . S
C392 C398 1.428 . S
H393 C389 0.930 . S
H394 C391 0.929 . S
S395 N396 1.613 . S
S395 N397 1.610 . S
N396 S395 1.613 . S
N396 C399 1.350 . S
N397 S395 1.610 . S
N397 C398 1.351 . S
C398 C392 1.428 . S
C398 N397 1.351 . S
C398 C399 1.434 . S
C399 C390 1.429 . S
C399 N396 1.350 . S
C399 C398 1.434 . S
C400 C401 1.369 . S
C400 C402 1.419 . S
C400 H404 0.930 . S
C401 C400 1.369 . S
C401 C410 1.429 . S
C402 C400 1.419 . S
C402 C403 1.363 . S
C402 H405 0.929 . S
C403 C402 1.363 . S
C403 C409 1.428 . S
H404 C400 0.930 . S
H405 C402 0.929 . S
S406 N407 1.613 . S
S406 N408 1.610 . S
N407 S406 1.613 . S
N407 C410 1.350 . S
N408 S406 1.610 . S
N408 C409 1.351 . S
C409 C403 1.428 . S
C409 N408 1.351 . S
C409 C410 1.434 . S
C410 C401 1.429 . S
C410 N407 1.350 . S
C410 C409 1.434 . S
C411 C412 1.369 . S
C411 C413 1.419 . S
C411 H415 0.930 . S
C412 C411 1.369 . S
C412 C421 1.429 . S
C413 C411 1.419 . S
C413 C414 1.363 . S
C413 H416 0.929 . S
C414 C413 1.363 . S
C414 C420 1.428 . S
H415 C411 0.930 . S
H416 C413 0.929 . S
S417 N418 1.613 . S
S417 N419 1.610 . S
N418 S417 1.613 . S
N418 C421 1.350 . S
N419 S417 1.610 . S
N419 C420 1.351 . S
C420 C414 1.428 . S
C420 N419 1.351 . S
C420 C421 1.434 . S
C421 C412 1.429 . S
C421 N418 1.350 . S
C421 C420 1.434 . S
C422 C423 1.369 . S
C422 C424 1.419 . S
C422 H426 0.930 . S
C423 C422 1.369 . S
C423 C432 1.429 . S
C424 C422 1.419 . S
C424 C425 1.363 1_565 S
C424 H427 0.929 . S
C425 C424 1.363 1_545 S
C425 C431 1.428 1_545 S
H426 C422 0.930 . S
H427 C424 0.929 . S
S428 N429 1.613 . S
S428 N430 1.610 1_565 S
N429 S428 1.613 . S
N429 C432 1.350 . S
N430 S428 1.610 1_545 S
N430 C431 1.351 1_545 S
C431 C425 1.428 1_565 S
C431 N430 1.351 1_565 S
C431 C432 1.434 . S
C432 C423 1.429 . S
C432 N429 1.350 . S
C432 C431 1.434 . S
C433 C434 1.369 . S
C433 C435 1.419 . S
C433 H437 0.930 . S
C434 C433 1.369 . S
C434 C443 1.429 . S
C435 C433 1.419 . S
C435 C436 1.363 . S
C435 H438 0.929 . S
C436 C435 1.363 . S
C436 C442 1.428 . S
H437 C433 0.930 . S
H438 C435 0.929 . S
S439 N440 1.613 . S
S439 N441 1.610 . S
N440 S439 1.613 . S
N440 C443 1.350 . S
N441 S439 1.610 . S
N441 C442 1.351 . S
C442 C436 1.428 . S
C442 N441 1.351 . S
C442 C443 1.434 . S
C443 C434 1.429 . S
C443 N440 1.350 . S
C443 C442 1.434 . S
C444 C445 1.372 . S
C444 C446 1.410 1_554 S
C444 H448 0.936 . S
C445 C444 1.372 . S
C445 C454 1.429 1_554 S
C446 C444 1.410 1_556 S
C446 C447 1.363 . S
C446 H449 0.929 . S
C447 C446 1.363 . S
C447 C453 1.428 . S
H448 C444 0.936 . S
H449 C446 0.929 . S
S450 N451 1.613 . S
S450 N452 1.610 . S
N451 S450 1.613 . S
N451 C454 1.350 . S
N452 S450 1.610 . S
N452 C453 1.351 . S
C453 C447 1.428 . S
C453 N452 1.351 . S
C453 C454 1.434 . S
C454 C445 1.429 1_556 S
C454 N451 1.350 . S
C454 C453 1.434 . S
C455 C456 1.369 1_556 S
C455 C457 1.419 . S
C455 H459 0.930 1_556 S
C456 C455 1.369 1_554 S
C456 C465 1.429 1_554 S
C457 C455 1.419 . S
C457 C458 1.363 . S
C457 H460 0.929 . S
C458 C457 1.363 . S
C458 C464 1.428 . S
H459 C455 0.930 1_554 S
H460 C457 0.929 . S
S461 N462 1.613 1_545 S
S461 N463 1.610 1_545 S
N462 S461 1.613 1_565 S
N462 C465 1.350 . S
N463 S461 1.610 1_565 S
N463 C464 1.351 . S
C464 C458 1.428 . S
C464 N463 1.351 . S
C464 C465 1.434 . S
C465 C456 1.429 1_556 S
C465 N462 1.350 . S
C465 C464 1.434 . S
C466 C467 1.369 . S
C466 C468 1.419 . S
C466 H470 0.930 . S
C467 C466 1.369 . S
C467 C476 1.429 . S
C468 C466 1.419 . S
C468 C469 1.363 . S
C468 H471 0.929 . S
C469 C468 1.363 . S
C469 C475 1.428 . S
H470 C466 0.930 . S
H471 C468 0.929 . S
S472 N473 1.613 . S
S472 N474 1.610 . S
N473 S472 1.613 . S
N473 C476 1.350 . S
N474 S472 1.610 . S
N474 C475 1.351 . S
C475 C469 1.428 . S
C475 N474 1.351 . S
C475 C476 1.434 . S
C476 C467 1.429 . S
C476 N473 1.350 . S
C476 C475 1.434 . S
C477 C478 1.369 . S
C477 C479 1.419 . S
C477 H481 0.930 . S
C478 C477 1.369 . S
C478 C487 1.429 . S
C479 C477 1.419 . S
C479 C480 1.363 . S
C479 H482 0.929 . S
C480 C479 1.363 . S
C480 C486 1.428 . S
H481 C477 0.930 . S
H482 C479 0.929 . S
S483 N484 1.613 . S
S483 N485 1.610 . S
N484 S483 1.613 . S
N484 C487 1.350 . S
N485 S483 1.610 . S
N485 C486 1.351 . S
C486 C480 1.428 . S
C486 N485 1.351 . S
C486 C487 1.434 . S
C487 C478 1.429 . S
C487 N484 1.350 . S
C487 C486 1.434 . S
C488 C489 1.369 1_655 S
C488 C490 1.419 . S
C488 H492 0.930 1_655 S
C489 C488 1.369 1_455 S
C489 C498 1.429 1_455 S
C490 C488 1.419 . S
C490 C491 1.363 . S
C490 H493 0.929 . S
C491 C490 1.363 . S
C491 C497 1.428 . S
H492 C488 0.930 1_455 S
H493 C490 0.929 . S
S494 N495 1.613 1_655 S
S494 N496 1.610 . S
N495 S494 1.613 1_455 S
N495 C498 1.350 1_455 S
N496 S494 1.610 . S
N496 C497 1.351 . S
C497 C491 1.428 . S
C497 N496 1.351 . S
C497 C498 1.434 . S
C498 C489 1.429 1_655 S
C498 N495 1.350 1_655 S
C498 C497 1.434 . S
C499 C500 1.369 1_455 S
C499 C501 1.419 . S
C499 H503 0.930 1_455 S
C500 C499 1.369 1_655 S
C500 C509 1.429 1_655 S
C501 C499 1.419 . S
C501 C502 1.363 . S
C501 H504 0.929 . S
C502 C501 1.363 . S
C502 C508 1.428 . S
H503 C499 0.930 1_655 S
H504 C501 0.929 . S
S505 N506 1.613 1_455 S
S505 N507 1.610 . S
N506 S505 1.613 1_655 S
N506 C509 1.350 1_655 S
N507 S505 1.610 . S
N507 C508 1.351 . S
C508 C502 1.428 . S
C508 N507 1.351 . S
C508 C509 1.434 . S
C509 C500 1.429 1_455 S
C509 N506 1.350 1_455 S
C509 C508 1.434 . S
C510 C511 1.368 1_655 S
C510 C512 1.423 . S
C510 H514 0.926 1_655 S
C511 C510 1.368 1_455 S
C511 C520 1.429 1_455 S
C512 C510 1.423 . S
C512 C513 1.363 . S
C512 H515 0.929 . S
C513 C512 1.363 . S
C513 C519 1.428 . S
H514 C510 0.926 1_455 S
H515 C512 0.929 . S
S516 N517 1.613 . S
S516 N518 1.610 . S
N517 S516 1.613 . S
N517 C520 1.350 . S
N518 S516 1.610 . S
N518 C519 1.351 . S
C519 C513 1.428 . S
C519 N518 1.351 . S
C519 C520 1.434 . S
C520 C511 1.429 1_655 S
C520 N517 1.350 . S
C520 C519 1.434 . S
C521 C522 1.369 . S
C521 C523 1.417 . S
C521 H525 0.930 . S
C522 C521 1.369 . S
C522 C531 1.429 . S
C523 C521 1.417 . S
C523 C524 1.364 1_455 S
C523 H526 0.930 1_455 S
C524 C523 1.364 1_655 S
C524 C530 1.428 1_655 S
H525 C521 0.930 . S
H526 C523 0.930 1_655 S
S527 N528 1.613 . S
S527 N529 1.610 . S
N528 S527 1.613 . S
N528 C531 1.350 . S
N529 S527 1.610 . S
N529 C530 1.351 . S
C530 C524 1.428 1_455 S
C530 N529 1.351 . S
C530 C531 1.434 . S
C531 C522 1.429 . S
C531 N528 1.350 . S
C531 C530 1.434 . S
C532 C533 1.369 1_565 S
C532 C534 1.419 . S
C532 H536 0.930 . S
C533 C532 1.369 1_545 S
C533 C542 1.429 . S
C534 C532 1.419 . S
C534 C535 1.363 . S
C534 H537 0.929 . S
C535 C534 1.363 . S
C535 C541 1.428 . S
H536 C532 0.930 . S
H537 C534 0.929 . S
S538 N539 1.613 . S
S538 N540 1.610 1_545 S
N539 S538 1.613 . S
N539 C542 1.350 . S
N540 S538 1.610 1_565 S
N540 C541 1.351 . S
C541 C535 1.428 . S
C541 N540 1.351 . S
C541 C542 1.434 1_565 S
C542 C533 1.429 . S
C542 N539 1.350 . S
C542 C541 1.434 1_545 S
C543 C544 1.369 . S
C543 C545 1.419 1_545 S
C543 H547 0.930 . S
C544 C543 1.369 . S
C544 C553 1.429 . S
C545 C543 1.419 1_565 S
C545 C546 1.363 . S
C545 H548 0.929 . S
C546 C545 1.363 . S
C546 C552 1.428 1_565 S
H547 C543 0.930 . S
H548 C545 0.929 . S
S549 N550 1.613 . S
S549 N551 1.610 . S
N550 S549 1.613 . S
N550 C553 1.350 . S
N551 S549 1.610 . S
N551 C552 1.351 . S
C552 C546 1.428 1_545 S
C552 N551 1.351 . S
C552 C553 1.434 . S
C553 C544 1.429 . S
C553 N550 1.350 . S
C553 C552 1.434 . S
C554 C555 1.369 . S
C554 C556 1.419 . S
C554 H558 0.930 . S
C555 C554 1.369 . S
C555 C564 1.429 . S
C556 C554 1.419 . S
C556 C557 1.363 . S
C556 H559 0.929 . S
C557 C556 1.363 . S
C557 C563 1.428 . S
H558 C554 0.930 . S
H559 C556 0.929 . S
S560 N561 1.613 . S
S560 N562 1.610 . S
N561 S560 1.613 . S
N561 C564 1.350 . S
N562 S560 1.610 . S
N562 C563 1.351 . S
C563 C557 1.428 . S
C563 N562 1.351 . S
C563 C564 1.434 . S
C564 C555 1.429 . S
C564 N561 1.350 . S
C564 C563 1.434 . S
C565 C566 1.369 . S
C565 C567 1.419 . S
C565 H569 0.930 . S
C566 C565 1.369 . S
C566 C575 1.429 . S
C567 C565 1.419 . S
C567 C568 1.363 1_545 S
C567 H570 0.929 1_545 S
C568 C567 1.363 1_565 S
C568 C574 1.428 1_565 S
H569 C565 0.930 . S
H570 C567 0.929 1_565 S
S571 N572 1.613 . S
S571 N573 1.610 . S
N572 S571 1.613 . S
N572 C575 1.350 . S
N573 S571 1.610 . S
N573 C574 1.351 . S
C574 C568 1.428 1_545 S
C574 N573 1.351 . S
C574 C575 1.434 . S
C575 C566 1.429 . S
C575 N572 1.350 . S
C575 C574 1.434 . S
C576 C577 1.369 . S
C576 C578 1.419 . S
C576 H580 0.930 . S
C577 C576 1.369 . S
C577 C586 1.429 1_655 S
C578 C576 1.419 . S
C578 C579 1.363 1_655 S
C578 H581 0.929 . S
C579 C578 1.363 1_455 S
C579 C585 1.428 . S
H580 C576 0.930 . S
H581 C578 0.929 . S
S582 N583 1.613 . S
S582 N584 1.610 . S
N583 S582 1.613 . S
N583 C586 1.350 . S
N584 S582 1.610 . S
N584 C585 1.351 . S
C585 C579 1.428 . S
C585 N584 1.351 . S
C585 C586 1.434 . S
C586 C577 1.429 1_455 S
C586 N583 1.350 . S
C586 C585 1.434 . S
C587 C588 1.369 . S
C587 C589 1.421 . S
C587 H591 0.930 . S
C588 C587 1.369 . S
C588 C597 1.429 . S
C589 C587 1.421 . S
C589 C590 1.361 1_455 S
C589 H592 0.929 . S
C590 C589 1.361 1_655 S
C590 C596 1.428 . S
H591 C587 0.930 . S
H592 C589 0.929 . S
S593 N594 1.613 1_655 S
S593 N595 1.610 . S
N594 S593 1.613 1_455 S
N594 C597 1.350 . S
N595 S593 1.610 . S
N595 C596 1.351 . S
C596 C590 1.428 . S
C596 N595 1.351 . S
C596 C597 1.434 1_655 S
C597 C588 1.429 . S
C597 N594 1.350 . S
C597 C596 1.434 1_455 S
C598 C599 1.369 1_545 S
C598 C600 1.419 . S
C598 H602 0.930 . S
C599 C598 1.369 1_565 S
C599 C608 1.429 . S
C600 C598 1.419 . S
C600 C601 1.363 . S
C600 H603 0.929 . S
C601 C600 1.363 . S
C601 C607 1.428 1_545 S
H602 C598 0.930 . S
H603 C600 0.929 . S
S604 N605 1.613 . S
S604 N606 1.610 . S
N605 S604 1.613 . S
N605 C608 1.350 . S
N606 S604 1.610 . S
N606 C607 1.351 . S
C607 C601 1.428 1_565 S
C607 N606 1.351 . S
C607 C608 1.434 . S
C608 C599 1.429 . S
C608 N605 1.350 . S
C608 C607 1.434 . S
C609 C610 1.369 . S
C609 C611 1.419 . S
C609 H613 0.930 . S
C610 C609 1.369 . S
C610 C619 1.429 . S
C611 C609 1.419 . S
C611 C612 1.363 . S
C611 H614 0.929 . S
C612 C611 1.363 . S
C612 C618 1.428 . S
H613 C609 0.930 . S
H614 C611 0.929 . S
S615 N616 1.613 . S
S615 N617 1.610 . S
N616 S615 1.613 . S
N616 C619 1.350 . S
N617 S615 1.610 . S
N617 C618 1.351 . S
C618 C612 1.428 . S
C618 N617 1.351 . S
C618 C619 1.434 . S
C619 C610 1.429 . S
C619 N616 1.350 . S
C619 C618 1.434 . S
C620 C621 1.369 . S
C620 C622 1.419 1_554 S
C620 H624 0.930 . S
C621 C620 1.369 . S
C621 C630 1.429 . S
C622 C620 1.419 1_556 S
C622 C623 1.363 . S
C622 H625 0.929 . S
C623 C622 1.363 . S
C623 C629 1.428 . S
H624 C620 0.930 . S
H625 C622 0.929 . S
S626 N627 1.613 . S
S626 N628 1.610 1_554 S
N627 S626 1.613 . S
N627 C630 1.350 . S
N628 S626 1.610 1_556 S
N628 C629 1.351 . S
C629 C623 1.428 . S
C629 N628 1.351 . S
C629 C630 1.434 1_556 S
C630 C621 1.429 . S
C630 N627 1.350 . S
C630 C629 1.434 1_554 S
C631 C632 1.369 . S
C631 C633 1.419 . S
C631 H635 0.930 . S
C632 C631 1.369 . S
C632 C641 1.429 . S
C633 C631 1.419 . S
C633 C634 1.363 . S
C633 H636 0.929 . S
C634 C633 1.363 . S
C634 C640 1.428 . S
H635 C631 0.930 . S
H636 C633 0.929 . S
S637 N638 1.613 . S
S637 N639 1.610 . S
N638 S637 1.613 . S
N638 C641 1.350 . S
N639 S637 1.610 . S
N639 C640 1.351 . S
C640 C634 1.428 . S
C640 N639 1.351 . S
C640 C641 1.434 . S
C641 C632 1.429 . S
C641 N638 1.350 . S
C641 C640 1.434 . S
C642 C643 1.369 . S
C642 C644 1.419 . S
C642 H646 0.930 . S
C643 C642 1.369 . S
C643 C652 1.429 . S
C644 C642 1.419 . S
C644 C645 1.363 . S
C644 H647 0.929 . S
C645 C644 1.363 . S
C645 C651 1.428 . S
H646 C642 0.930 . S
H647 C644 0.929 . S
S648 N649 1.613 . S
S648 N650 1.610 . S
N649 S648 1.613 . S
N649 C652 1.350 . S
N650 S648 1.610 . S
N650 C651 1.351 . S
C651 C645 1.428 . S
C651 N650 1.351 . S
C651 C652 1.434 . S
C652 C643 1.429 . S
C652 N649 1.350 . S
C652 C651 1.434 . S
C653 C654 1.369 . S
C653 C655 1.419 . S
C653 H657 0.930 . S
C654 C653 1.369 . S
C654 C663 1.429 . S
C655 C653 1.419 . S
C655 C656 1.363 . S
C655 H658 0.929 . S
C656 C655 1.363 . S
C656 C662 1.428 . S
H657 C653 0.930 . S
H658 C655 0.929 . S
S659 N660 1.613 . S
S659 N661 1.610 . S
N660 S659 1.613 . S
N660 C663 1.350 . S
N661 S659 1.610 . S
N661 C662 1.351 . S
C662 C656 1.428 . S
C662 N661 1.351 . S
C662 C663 1.434 . S
C663 C654 1.429 . S
C663 N660 1.350 . S
C663 C662 1.434 . S
C664 C665 1.369 . S
C664 C666 1.419 . S
C664 H668 0.930 . S
C665 C664 1.369 . S
C665 C674 1.429 . S
C666 C664 1.419 . S
C666 C667 1.363 . S
C666 H669 0.929 . S
C667 C666 1.363 . S
C667 C673 1.428 . S
H668 C664 0.930 . S
H669 C666 0.929 . S
S670 N671 1.613 . S
S670 N672 1.610 . S
N671 S670 1.613 . S
N671 C674 1.350 . S
N672 S670 1.610 . S
N672 C673 1.351 . S
C673 C667 1.428 . S
C673 N672 1.351 . S
C673 C674 1.434 . S
C674 C665 1.429 . S
C674 N671 1.350 . S
C674 C673 1.434 . S
C675 C676 1.369 . S
C675 C677 1.419 . S
C675 H679 0.930 . S
C676 C675 1.369 . S
C676 C685 1.429 . S
C677 C675 1.419 . S
C677 C678 1.363 . S
C677 H680 0.929 . S
C678 C677 1.363 . S
C678 C684 1.428 . S
H679 C675 0.930 . S
H680 C677 0.929 . S
S681 N682 1.613 . S
S681 N683 1.610 . S
N682 S681 1.613 . S
N682 C685 1.350 . S
N683 S681 1.610 . S
N683 C684 1.351 . S
C684 C678 1.428 . S
C684 N683 1.351 . S
C684 C685 1.434 . S
C685 C676 1.429 . S
C685 N682 1.350 . S
C685 C684 1.434 . S
C686 C687 1.369 1_565 S
C686 C688 1.419 . S
C686 H690 0.930 . S
C687 C686 1.369 1_545 S
C687 C696 1.429 . S
C688 C686 1.419 . S
C688 C689 1.363 . S
C688 H691 0.929 . S
C689 C688 1.363 . S
C689 C695 1.428 1_565 S
H690 C686 0.930 . S
H691 C688 0.929 . S
S692 N693 1.613 . S
S692 N694 1.610 . S
N693 S692 1.613 . S
N693 C696 1.350 . S
N694 S692 1.610 . S
N694 C695 1.351 . S
C695 C689 1.428 1_545 S
C695 N694 1.351 . S
C695 C696 1.434 . S
C696 C687 1.429 . S
C696 N693 1.350 . S
C696 C695 1.434 . S
C697 C698 1.369 . S
C697 C699 1.419 . S
C697 H701 0.930 . S
C698 C697 1.369 . S
C698 C707 1.429 1_556 S
C699 C697 1.419 . S
C699 C700 1.363 1_556 S
C699 H702 0.929 . S
C700 C699 1.363 1_554 S
C700 C706 1.428 . S
H701 C697 0.930 . S
H702 C699 0.929 . S
S703 N704 1.613 . S
S703 N705 1.610 . S
N704 S703 1.613 . S
N704 C707 1.350 . S
N705 S703 1.610 . S
N705 C706 1.351 . S
C706 C700 1.428 . S
C706 N705 1.351 . S
C706 C707 1.434 . S
C707 C698 1.429 1_554 S
C707 N704 1.350 . S
C707 C706 1.434 . S
C708 C709 1.351 1_545 S
C708 C710 1.433 1_455 S
C708 H712 0.934 1_455 S
C709 C708 1.351 1_565 S
C709 C718 1.429 . S
C710 C708 1.433 1_655 S
C710 C711 1.354 1_655 S
C710 H713 0.939 . S
C711 C710 1.354 1_455 S
C711 C717 1.428 1_545 S
H712 C708 0.934 1_655 S
H713 C710 0.939 . S
S714 N715 1.613 . S
S714 N716 1.610 . S
N715 S714 1.613 . S
N715 C718 1.350 . S
N716 S714 1.610 . S
N716 C717 1.351 . S
C717 C711 1.428 1_565 S
C717 N716 1.351 . S
C717 C718 1.434 . S
C718 C709 1.429 . S
C718 N715 1.350 . S
C718 C717 1.434 . S
C719 C720 1.369 . S
C719 C721 1.419 . S
C719 H723 0.930 . S
C720 C719 1.369 . S
C720 C729 1.429 . S
C721 C719 1.419 . S
C721 C722 1.363 . S
C721 H724 0.929 . S
C722 C721 1.363 . S
C722 C728 1.428 . S
H723 C719 0.930 . S
H724 C721 0.929 . S
S725 N726 1.613 . S
S725 N727 1.610 . S
N726 S725 1.613 . S
N726 C729 1.350 . S
N727 S725 1.610 . S
N727 C728 1.351 . S
C728 C722 1.428 . S
C728 N727 1.351 . S
C728 C729 1.434 . S
C729 C720 1.429 . S
C729 N726 1.350 . S
C729 C728 1.434 . S
C730 C731 1.369 . S
C730 C732 1.419 . S
C730 H734 0.930 . S
C731 C730 1.369 . S
C731 C740 1.429 1_556 S
C732 C730 1.419 . S
C732 C733 1.363 1_556 S
C732 H735 0.929 . S
C733 C732 1.363 1_554 S
C733 C739 1.428 . S
H734 C730 0.930 . S
H735 C732 0.929 . S
S736 N737 1.613 . S
S736 N738 1.610 . S
N737 S736 1.613 . S
N737 C740 1.350 . S
N738 S736 1.610 . S
N738 C739 1.351 . S
C739 C733 1.428 . S
C739 N738 1.351 . S
C739 C740 1.434 . S
C740 C731 1.429 1_554 S
C740 N737 1.350 . S
C740 C739 1.434 . S
C741 C742 1.369 . S
C741 C743 1.419 . S
C741 H745 0.930 . S
C742 C741 1.369 . S
C742 C751 1.429 1_554 S
C743 C741 1.419 . S
C743 C744 1.363 1_554 S
C743 H746 0.929 . S
C744 C743 1.363 1_556 S
C744 C750 1.428 . S
H745 C741 0.930 . S
H746 C743 0.929 . S
S747 N748 1.613 . S
S747 N749 1.610 . S
N748 S747 1.613 . S
N748 C751 1.350 . S
N749 S747 1.610 . S
N749 C750 1.351 . S
C750 C744 1.428 . S
C750 N749 1.351 . S
C750 C751 1.434 . S
C751 C742 1.429 1_556 S
C751 N748 1.350 . S
C751 C750 1.434 . S
C752 C753 1.369 . S
C752 C754 1.419 . S
C752 H756 0.930 . S
C753 C752 1.369 . S
C753 C762 1.429 1_565 S
C754 C752 1.419 . S
C754 C755 1.363 . S
C754 H757 0.929 . S
C755 C754 1.363 . S
C755 C761 1.428 1_565 S
H756 C752 0.930 . S
H757 C754 0.929 . S
S758 N759 1.613 . S
S758 N760 1.610 . S
N759 S758 1.613 . S
N759 C762 1.350 . S
N760 S758 1.610 . S
N760 C761 1.351 . S
C761 C755 1.428 1_545 S
C761 N760 1.351 . S
C761 C762 1.434 . S
C762 C753 1.429 1_545 S
C762 N759 1.350 . S
C762 C761 1.434 . S
C763 C764 1.369 . S
C763 C765 1.419 . S
C763 H767 0.930 . S
C764 C763 1.369 . S
C764 C773 1.429 . S
C765 C763 1.419 . S
C765 C766 1.363 . S
C765 H768 0.929 . S
C766 C765 1.363 . S
C766 C772 1.428 . S
H767 C763 0.930 . S
H768 C765 0.929 . S
S769 N770 1.613 . S
S769 N771 1.610 . S
N770 S769 1.613 . S
N770 C773 1.350 . S
N771 S769 1.610 . S
N771 C772 1.351 . S
C772 C766 1.428 . S
C772 N771 1.351 . S
C772 C773 1.434 . S
C773 C764 1.429 . S
C773 N770 1.350 . S
C773 C772 1.434 . S
C774 C775 1.369 1_655 S
C774 C776 1.419 . S
C774 H778 0.930 . S
C775 C774 1.369 1_455 S
C775 C784 1.429 1_554 S
C776 C774 1.419 . S
C776 C777 1.363 . S
C776 H779 0.929 . S
C777 C776 1.363 . S
C777 C783 1.428 1_654 S
H778 C774 0.930 . S
H779 C776 0.929 . S
S780 N781 1.613 . S
S780 N782 1.610 . S
N781 S780 1.613 . S
N781 C784 1.350 . S
N782 S780 1.610 . S
N782 C783 1.351 . S
C783 C777 1.428 1_456 S
C783 N782 1.351 . S
C783 C784 1.434 . S
C784 C775 1.429 1_556 S
C784 N781 1.350 . S
C784 C783 1.434 . S
C785 C786 1.369 . S
C785 C787 1.419 1_455 S
C785 H789 0.930 . S
C786 C785 1.369 . S
C786 C795 1.429 . S
C787 C785 1.419 1_655 S
C787 C788 1.363 . S
C787 H790 0.929 . S
C788 C787 1.363 . S
C788 C794 1.428 . S
H789 C785 0.930 . S
H790 C787 0.929 . S
S791 N792 1.613 1_655 S
S791 N793 1.610 . S
N792 S791 1.613 1_455 S
N792 C795 1.350 . S
N793 S791 1.610 . S
N793 C794 1.351 . S
C794 C788 1.428 . S
C794 N793 1.351 . S
C794 C795 1.434 1_655 S
C795 C786 1.429 . S
C795 N792 1.350 . S
C795 C794 1.434 1_455 S
C796 C797 1.369 . S
C796 C798 1.419 . S
C796 H800 0.930 . S
C797 C796 1.369 . S
C797 C806 1.429 . S
C798 C796 1.419 . S
C798 C799 1.363 . S
C798 H801 0.929 . S
C799 C798 1.363 . S
C799 C805 1.428 . S
H800 C796 0.930 . S
H801 C798 0.929 . S
S802 N803 1.613 . S
S802 N804 1.610 . S
N803 S802 1.613 . S
N803 C806 1.350 . S
N804 S802 1.610 . S
N804 C805 1.351 . S
C805 C799 1.428 . S
C805 N804 1.351 . S
C805 C806 1.434 . S
C806 C797 1.429 . S
C806 N803 1.350 . S
C806 C805 1.434 . S
C807 C808 1.369 . S
C807 C809 1.419 . S
C807 H811 0.930 . S
C808 C807 1.369 . S
C808 C817 1.429 . S
C809 C807 1.419 . S
C809 C810 1.363 . S
C809 H812 0.929 . S
C810 C809 1.363 . S
C810 C816 1.428 . S
H811 C807 0.930 . S
H812 C809 0.929 . S
S813 N814 1.613 . S
S813 N815 1.610 . S
N814 S813 1.613 . S
N814 C817 1.350 . S
N815 S813 1.610 . S
N815 C816 1.351 . S
C816 C810 1.428 . S
C816 N815 1.351 . S
C816 C817 1.434 . S
C817 C808 1.429 . S
C817 N814 1.350 . S
C817 C816 1.434 . S
C818 C819 1.369 . S
C818 C820 1.419 1_565 S
C818 H822 0.930 . S
C819 C818 1.369 . S
C819 C828 1.429 . S
C820 C818 1.419 1_545 S
C820 C821 1.363 . S
C820 H823 0.929 . S
C821 C820 1.363 . S
C821 C827 1.428 . S
H822 C818 0.930 . S
H823 C820 0.929 . S
S824 N825 1.613 . S
S824 N826 1.610 1_565 S
N825 S824 1.613 . S
N825 C828 1.350 . S
N826 S824 1.610 1_545 S
N826 C827 1.351 . S
C827 C821 1.428 . S
C827 N826 1.351 . S
C827 C828 1.434 1_545 S
C828 C819 1.429 . S
C828 N825 1.350 . S
C828 C827 1.434 1_565 S
C829 C830 1.369 . S
C829 C831 1.419 . S
C829 H833 0.930 . S
C830 C829 1.369 . S
C830 C839 1.429 . S
C831 C829 1.419 . S
C831 C832 1.363 . S
C831 H834 0.929 . S
C832 C831 1.363 . S
C832 C838 1.428 . S
H833 C829 0.930 . S
H834 C831 0.929 . S
S835 N836 1.613 . S
S835 N837 1.610 . S
N836 S835 1.613 . S
N836 C839 1.350 1_554 S
N837 S835 1.610 . S
N837 C838 1.351 1_554 S
C838 C832 1.428 . S
C838 N837 1.351 1_556 S
C838 C839 1.434 . S
C839 C830 1.429 . S
C839 N836 1.350 1_556 S
C839 C838 1.434 . S
C313 C226 0.936 . S
C315 C8 0.986 . S
C324 C21 1.059 . S
C326 C213 0.963 . S
C335 C34 1.044 . S
C337 C252 0.988 . S
C346 C47 1.109 . S
C348 C239 1.005 . S
C357 C60 0.970 . S
C359 C278 0.940 . S
C368 C73 1.021 . S
C370 C291 0.978 . S
C379 C265 0.969 . S
C381 C86 1.061 . S
C390 C148 0.996 . S
C392 C99 1.103 . S
C401 C112 0.992 . S
C403 C44 0.936 . S
C412 C18 0.971 . S
C414 C125 1.016 . S
C423 C138 1.072 . S
C425 C5 1.021 . S
C434 C151 1.118 . S
C436 C187 0.989 . S
C445 C70 1.046 . S
C447 C164 1.168 . S
C456 C57 1.008 . S
C458 C177 1.087 . S
C467 C190 1.110 . S
C469 C96 0.996 . S
C478 C203 1.028 . S
C480 C83 0.959 . S
C489 C122 1.048 . S
C491 C216 1.163 . S
C500 C135 1.013 . S
C502 C229 1.113 . S
C511 C109 1.019 . S
C513 C242 1.088 . S
C522 C255 1.040 . S
C524 C304 0.976 . S
C533 C200 1.035 . S
C535 C268 1.160 . S
C544 C281 1.127 . S
C546 C174 0.998 . S
C555 C161 0.942 . S
C557 C294 1.065 . S
C566 C307 1.045 . S
C568 C31 0.982 . S
C577 C0 1.538 . S
C579 C13 1.550 . S
C588 C39 1.516 . S
C590 C26 1.508 . S
C599 C52 1.542 . S
C601 C78 1.545 . S
C610 C65 1.662 . S
C612 C91 1.658 . S
C621 C286 1.552 . S
C623 C104 1.544 . S
C632 C117 1.661 . S
C634 C143 1.658 . S
C643 C260 1.623 . S
C645 C130 1.627 . S
C654 C169 1.628 . S
C656 C156 1.630 . S
C665 C182 1.664 . S
C667 C195 1.654 . S
C676 C234 1.619 . S
C678 C208 1.630 . S
C687 C221 1.517 . S
C689 C247 1.505 . S
C698 C299 1.505 . S
C700 C273 1.516 . S
C709 C36 1.350 . S
C711 C10 1.341 . S
C720 C23 1.412 . S
C722 C49 1.420 . S
C731 C257 1.340 . S
C733 C62 1.348 . S
C742 C75 1.374 . S
C744 C244 1.384 . S
C753 C88 1.421 . S
C755 C231 1.414 . S
C764 C218 1.455 . S
C766 C101 1.451 . S
C775 C114 1.349 . S
C777 C309 1.342 . S
C786 C127 1.380 . S
C788 C140 1.378 . S
C797 C270 1.458 . S
C799 C153 1.451 . S
C808 C166 1.458 . S
C810 C192 1.450 . S
C819 C179 1.383 . S
C821 C205 1.376 . S
C830 C296 1.412 . S
C832 C283 1.420 . S
