# Generated by pormake.
# Topology vmb, (5)-cn, num edge types: 1
# Building blocks:
#     Node 0, Type 0, BuildingBlock: XOMCOT_clean_sbu_1, # of connection points: 5
#     Node 1, Type 0, BuildingBlock: XOMCOT_clean_sbu_1, # of connection points: 5
#     Node 2, Type 0, BuildingBlock: XOMCOT_clean_sbu_1, # of connection points: 5
#     Node 3, Type 0, BuildingBlock: XOMCOT_clean_sbu_1, # of connection points: 5
#     Node 4, Type 0, BuildingBlock: XOMCOT_clean_sbu_1, # of connection points: 5
#     Node 5, Type 0, BuildingBlock: XOMCOT_clean_sbu_1, # of connection points: 5
#     Node 6, Type 0, BuildingBlock: XOMCOT_clean_sbu_1, # of connection points: 5
#     Node 7, Type 0, BuildingBlock: XOMCOT_clean_sbu_1, # of connection points: 5
#     Edge 8, Type (0, 0), BuildingBlock: EYOCIG_clean_linker_4, # of connection points: 2
#     Edge 9, Type (0, 0), BuildingBlock: EYOCIG_clean_linker_4, # of connection points: 2
#     Edge 10, Type (0, 0), BuildingBlock: EYOCIG_clean_linker_4, # of connection points: 2
#     Edge 11, Type (0, 0), BuildingBlock: EYOCIG_clean_linker_4, # of connection points: 2
#     Edge 12, Type (0, 0), BuildingBlock: EYOCIG_clean_linker_4, # of connection points: 2
#     Edge 13, Type (0, 0), BuildingBlock: EYOCIG_clean_linker_4, # of connection points: 2
#     Edge 14, Type (0, 0), BuildingBlock: EYOCIG_clean_linker_4, # of connection points: 2
#     Edge 15, Type (0, 0), BuildingBlock: EYOCIG_clean_linker_4, # of connection points: 2
#     Edge 16, Type (0, 0), BuildingBlock: EYOCIG_clean_linker_4, # of connection points: 2
#     Edge 17, Type (0, 0), BuildingBlock: EYOCIG_clean_linker_4, # of connection points: 2
#     Edge 18, Type (0, 0), BuildingBlock: EYOCIG_clean_linker_4, # of connection points: 2
#     Edge 19, Type (0, 0), BuildingBlock: EYOCIG_clean_linker_4, # of connection points: 2
#     Edge 20, Type (0, 0), BuildingBlock: EYOCIG_clean_linker_4, # of connection points: 2
#     Edge 21, Type (0, 0), BuildingBlock: EYOCIG_clean_linker_4, # of connection points: 2
#     Edge 22, Type (0, 0), BuildingBlock: EYOCIG_clean_linker_4, # of connection points: 2
#     Edge 23, Type (0, 0), BuildingBlock: EYOCIG_clean_linker_4, # of connection points: 2
#     Edge 24, Type (0, 0), BuildingBlock: EYOCIG_clean_linker_4, # of connection points: 2
#     Edge 25, Type (0, 0), BuildingBlock: EYOCIG_clean_linker_4, # of connection points: 2
#     Edge 26, Type (0, 0), BuildingBlock: EYOCIG_clean_linker_4, # of connection points: 2
#     Edge 27, Type (0, 0), BuildingBlock: EYOCIG_clean_linker_4, # of connection points: 2
# Relax obj value: 0.077
# Max RMSD: 0.118
# Mean RMSD: 0.118
data_MOF--net-vmb--node1-XOMCOT_clean_sbu_1--edge1-EYOCIG_clean_linker_4
_symmetry_space_group_name_H-M    P1
_symmetry_Int_Tables_number       1
_symmetry_cell_setting            triclinic
loop_
_symmetry_equiv_pos_as_xyz
'x, y, z'
_cell_length_a     31.778358
_cell_length_b     39.78596
_cell_length_c     21.971547
_cell_angle_alpha  89.999538
_cell_angle_beta   118.32853
_cell_angle_gamma 90.000242
loop_
_atom_site_label
_atom_site_type_symbol
_atom_site_fract_x
_atom_site_fract_y
_atom_site_fract_z
_atom_type_partial_charge
C0 C 0.1921 0.07754 0.28581 0.0
C1 C 0.14306 0.07666 0.25524 0.0
N2 N 0.13082 0.05347 0.28832 0.0
N3 N 0.2104 0.05505 0.33796 0.0
C4 C 0.17194 0.04051 0.33804 0.0
H5 H 0.21326 0.09403 0.27197 0.0
Co6 Co 0.27568 0.04894 0.39448 0.0
C7 C 0.27865 0.03044 0.52751 0.0
O8 O 0.30717 0.05574 0.55782 0.0
N9 N 0.34362 0.04223 0.45129 0.0
C10 C 0.42021 0.04762 0.53207 0.0
C11 C 0.3745 0.05905 0.50919 0.0
C12 C 0.37264 0.0207 0.44027 0.0
N13 N 0.41889 0.02377 0.48847 0.0
O14 O 0.27111 0.00865 0.34458 0.0
H15 H 0.36561 0.07968 0.5328 0.0
H16 H 0.36076 0.00357 0.39708 0.0
O17 O 0.2633 0.02445 0.46312 0.0
C18 C 0.27416 0.01898 0.2918 0.0
O19 O 0.2848 0.0506 0.28889 0.0
N20 N 0.27772 0.09128 0.43414 0.0
C21 C 0.27437 0.15833 0.46754 0.0
C22 C 0.2443 0.13468 0.4743 0.0
C23 C 0.24595 0.10122 0.45617 0.0
C24 C 0.3053 0.11458 0.42401 0.0
C25 C 0.3052 0.14815 0.4423 0.0
H26 H 0.22083 0.0835 0.45809 0.0
H27 H 0.32726 0.10709 0.4009 0.0
H28 H 0.1739 0.02149 0.37451 0.0
H29 H 0.1183 0.09232 0.21312 0.0
H30 H 0.45226 0.05701 0.57588 0.0
H31 H 0.21896 0.14213 0.49168 0.0
H32 H 0.32796 0.16612 0.43483 0.0
C33 C 0.8447 0.07728 0.21934 0.0
C34 C 0.89374 0.07643 0.2498 0.0
N35 N 0.90595 0.05335 0.2165 0.0
N36 N 0.82637 0.05488 0.16702 0.0
C37 C 0.86481 0.04042 0.16674 0.0
H38 H 0.82355 0.0937 0.23335 0.0
Co39 Co 0.76107 0.04878 0.11055 0.0
C40 C 0.75811 0.03091 0.97714 0.0
O41 O 0.72956 0.05624 0.94719 0.0
N42 N 0.69315 0.04206 0.0538 0.0
C43 C 0.61652 0.04754 0.97323 0.0
C44 C 0.66223 0.05894 0.99602 0.0
C45 C 0.66416 0.02051 0.06484 0.0
N46 N 0.61788 0.02363 0.01676 0.0
O47 O 0.76576 0.00826 0.15994 0.0
H48 H 0.67107 0.07964 0.97254 0.0
H49 H 0.67608 0.00335 0.10797 0.0
O50 O 0.77342 0.02466 0.04144 0.0
C51 C 0.76281 0.01835 0.21295 0.0
O52 O 0.75228 0.04994 0.2164 0.0
N53 N 0.75888 0.0913 0.07149 0.0
C54 C 0.76208 0.15845 0.03855 0.0
C55 C 0.79223 0.13492 0.03174 0.0
C56 C 0.79064 0.10142 0.04958 0.0
C57 C 0.73122 0.11449 0.08179 0.0
C58 C 0.73125 0.14811 0.06374 0.0
H59 H 0.81577 0.08379 0.04744 0.0
H60 H 0.70924 0.10684 0.10477 0.0
H61 H 0.86282 0.02148 0.13011 0.0
H62 H 0.91851 0.09203 0.29202 0.0
H63 H 0.58444 0.05699 0.92956 0.0
H64 H 0.81754 0.14248 0.01437 0.0
H65 H 0.70841 0.166 0.07125 0.0
C66 C 0.84491 0.90216 0.71964 0.0
C67 C 0.89394 0.9031 0.75004 0.0
N68 N 0.90603 0.9262 0.71662 0.0
N69 N 0.82647 0.92451 0.66723 0.0
C70 C 0.86483 0.93903 0.66685 0.0
H71 H 0.82385 0.88572 0.73377 0.0
Co72 Co 0.76113 0.93052 0.61085 0.0
C73 C 0.75828 0.94798 0.47723 0.0
O74 O 0.73027 0.92236 0.44762 0.0
N75 N 0.6932 0.93715 0.55419 0.0
C76 C 0.61661 0.93172 0.47345 0.0
C77 C 0.66237 0.92042 0.49615 0.0
C78 C 0.66412 0.95851 0.56549 0.0
N79 N 0.61788 0.95542 0.51731 0.0
O80 O 0.76583 0.97114 0.65991 0.0
H81 H 0.67128 0.89983 0.47251 0.0
H82 H 0.67597 0.97552 0.60886 0.0
O83 O 0.77329 0.95448 0.54137 0.0
C84 C 0.76308 0.9611 0.7131 0.0
O85 O 0.75262 0.92951 0.71676 0.0
N86 N 0.75893 0.88788 0.57216 0.0
C87 C 0.7622 0.82062 0.53997 0.0
C88 C 0.79254 0.84404 0.53333 0.0
C89 C 0.79089 0.8776 0.55077 0.0
C90 C 0.73107 0.86481 0.58231 0.0
C91 C 0.73113 0.83112 0.56461 0.0
H92 H 0.81612 0.89516 0.54867 0.0
H93 H 0.70892 0.87258 0.60493 0.0
H94 H 0.86274 0.95796 0.63013 0.0
H95 H 0.91879 0.88756 0.79231 0.0
H96 H 0.58458 0.92234 0.42962 0.0
H97 H 0.81801 0.83636 0.51635 0.0
H98 H 0.70813 0.81333 0.57197 0.0
C99 C 0.19203 0.90186 0.78588 0.0
C100 C 0.14299 0.90281 0.75531 0.0
N101 N 0.13082 0.92607 0.78833 0.0
N102 N 0.21039 0.92438 0.83798 0.0
C103 C 0.17197 0.939 0.83802 0.0
H104 H 0.21315 0.8853 0.77209 0.0
Co105 Co 0.27569 0.93041 0.89445 0.0
C106 C 0.27874 0.94896 0.02755 0.0
O107 O 0.30719 0.92362 0.05784 0.0
N108 N 0.34363 0.93703 0.9512 0.0
C109 C 0.42024 0.93153 0.03187 0.0
C110 C 0.37448 0.92022 0.00912 0.0
C111 C 0.37271 0.95844 0.94002 0.0
N112 N 0.41896 0.95531 0.98815 0.0
O113 O 0.27119 0.97069 0.84459 0.0
H114 H 0.36556 0.89964 0.0328 0.0
H115 H 0.36085 0.97552 0.89676 0.0
O116 O 0.2634 0.95495 0.96316 0.0
C117 C 0.27412 0.96036 0.79172 0.0
O118 O 0.28464 0.92872 0.7887 0.0
N119 N 0.27765 0.88809 0.93408 0.0
C120 C 0.27407 0.8211 0.96766 0.0
C121 C 0.24406 0.84483 0.97428 0.0
C122 C 0.24583 0.87825 0.9561 0.0
C123 C 0.30516 0.8647 0.924 0.0
C124 C 0.30495 0.83116 0.94237 0.0
H125 H 0.22079 0.89603 0.95804 0.0
H126 H 0.32717 0.87212 0.90091 0.0
H127 H 0.17398 0.95806 0.87446 0.0
H128 H 0.1182 0.88715 0.71323 0.0
H129 H 0.45227 0.92212 0.07566 0.0
H130 H 0.21871 0.83748 0.99171 0.0
H131 H 0.32766 0.81311 0.93499 0.0
C132 C 0.69178 0.57756 0.28576 0.0
C133 C 0.64274 0.57673 0.25527 0.0
N134 N 0.6305 0.55353 0.28834 0.0
N135 N 0.71007 0.55504 0.33787 0.0
C136 C 0.67162 0.54053 0.33799 0.0
H137 H 0.71294 0.59404 0.2719 0.0
Co138 Co 0.77537 0.54889 0.39423 0.0
C139 C 0.77849 0.53052 0.52749 0.0
O140 O 0.80709 0.5558 0.55771 0.0
N141 N 0.8433 0.54214 0.45086 0.0
C142 C 0.91996 0.54755 0.53137 0.0
C143 C 0.87426 0.55895 0.50872 0.0
C144 C 0.87226 0.52064 0.43961 0.0
N145 N 0.91855 0.52372 0.48766 0.0
O146 O 0.77064 0.50853 0.34443 0.0
H147 H 0.86544 0.57957 0.5324 0.0
H148 H 0.86031 0.50355 0.39637 0.0
O149 O 0.76306 0.5245 0.46309 0.0
C150 C 0.77354 0.51875 0.29146 0.0
O151 O 0.78411 0.55036 0.28826 0.0
N152 N 0.77755 0.59127 0.4338 0.0
C153 C 0.77434 0.6583 0.46742 0.0
C154 C 0.74423 0.63467 0.47408 0.0
C155 C 0.74584 0.60123 0.45591 0.0
C156 C 0.80514 0.61456 0.42363 0.0
C157 C 0.80512 0.64812 0.44205 0.0
H158 H 0.72075 0.58352 0.45795 0.0
H159 H 0.82708 0.60705 0.40049 0.0
H160 H 0.67358 0.5215 0.37444 0.0
H161 H 0.61799 0.5924 0.21318 0.0
H162 H 0.95205 0.55694 0.57509 0.0
H163 H 0.71896 0.64212 0.49159 0.0
H164 H 0.82791 0.66609 0.43464 0.0
C165 C 0.34441 0.57715 0.21976 0.0
C166 C 0.39345 0.57629 0.25022 0.0
N167 N 0.40563 0.55333 0.21666 0.0
N168 N 0.32606 0.55489 0.16719 0.0
C169 C 0.36449 0.5405 0.16676 0.0
H170 H 0.32328 0.59349 0.23395 0.0
Co171 Co 0.26074 0.54885 0.11067 0.0
C172 C 0.25807 0.53146 0.97712 0.0
O173 O 0.23007 0.55709 0.94752 0.0
N174 N 0.19283 0.5422 0.05387 0.0
C175 C 0.11627 0.54764 0.97303 0.0
C176 C 0.16204 0.55893 0.9958 0.0
C177 C 0.16372 0.52084 0.06509 0.0
N178 N 0.11749 0.52394 0.01686 0.0
O179 O 0.26541 0.5082 0.15968 0.0
H180 H 0.17097 0.57954 0.97222 0.0
H181 H 0.17553 0.50384 0.10846 0.0
O182 O 0.27302 0.52493 0.04123 0.0
C183 C 0.26254 0.51821 0.2128 0.0
O184 O 0.25198 0.54977 0.21642 0.0
N185 N 0.25855 0.59151 0.07206 0.0
C186 C 0.26174 0.65878 0.03997 0.0
C187 C 0.29215 0.63541 0.03336 0.0
C188 C 0.29054 0.60183 0.05075 0.0
C189 C 0.23062 0.61453 0.08217 0.0
C190 C 0.23065 0.64823 0.06451 0.0
H191 H 0.3158 0.58431 0.04868 0.0
H192 H 0.20845 0.60672 0.10473 0.0
H193 H 0.36248 0.52167 0.12991 0.0
H194 H 0.41823 0.5918 0.29261 0.0
H195 H 0.08426 0.55704 0.92918 0.0
H196 H 0.31763 0.64313 0.01644 0.0
H197 H 0.2076 0.66599 0.07185 0.0
C198 C 0.3445 0.40232 0.71981 0.0
C199 C 0.39354 0.40322 0.75029 0.0
N200 N 0.40571 0.4262 0.71676 0.0
N201 N 0.32614 0.42459 0.66724 0.0
C202 C 0.36455 0.43902 0.66684 0.0
H203 H 0.32339 0.38595 0.73397 0.0
Co204 Co 0.26083 0.43056 0.61065 0.0
C205 C 0.25808 0.44807 0.47714 0.0
O206 O 0.22994 0.42251 0.44748 0.0
N207 N 0.19291 0.43714 0.55375 0.0
C208 C 0.11636 0.43158 0.47294 0.0
C209 C 0.16214 0.42027 0.49587 0.0
C210 C 0.16377 0.4586 0.5647 0.0
N211 N 0.11755 0.45542 0.51647 0.0
O212 O 0.26537 0.47119 0.65966 0.0
H213 H 0.17111 0.3996 0.47248 0.0
H214 H 0.17556 0.47573 0.60786 0.0
O215 O 0.27312 0.45453 0.5413 0.0
C216 C 0.26243 0.46117 0.71273 0.0
O217 O 0.25192 0.42959 0.71633 0.0
N218 N 0.25879 0.38793 0.57203 0.0
C219 C 0.26226 0.32067 0.53996 0.0
C220 C 0.29248 0.34415 0.53316 0.0
C221 C 0.29075 0.37771 0.55057 0.0
C222 C 0.23105 0.36481 0.5823 0.0
C223 C 0.23121 0.33113 0.56467 0.0
H224 H 0.3159 0.3953 0.54841 0.0
H225 H 0.20891 0.37254 0.60497 0.0
H226 H 0.36253 0.45784 0.62999 0.0
H227 H 0.41834 0.38771 0.79267 0.0
H228 H 0.08436 0.4221 0.42918 0.0
H229 H 0.31793 0.33651 0.51612 0.0
H230 H 0.2083 0.31329 0.57215 0.0
C231 C 0.69174 0.40186 0.7856 0.0
C232 C 0.6427 0.40275 0.7551 0.0
N233 N 0.63051 0.42592 0.78825 0.0
N234 N 0.71008 0.42433 0.83779 0.0
C235 C 0.67164 0.43886 0.83795 0.0
H236 H 0.71288 0.38538 0.7717 0.0
Co237 Co 0.77537 0.43043 0.89424 0.0
C238 C 0.77846 0.44874 0.02748 0.0
O239 O 0.80713 0.42348 0.05768 0.0
N240 N 0.84329 0.43713 0.951 0.0
C241 C 0.91992 0.43161 0.03153 0.0
C242 C 0.87421 0.42018 0.00869 0.0
C243 C 0.87227 0.45874 0.94008 0.0
N244 N 0.91855 0.45559 0.98814 0.0
O245 O 0.77074 0.47081 0.84455 0.0
H246 H 0.86535 0.39947 0.03214 0.0
H247 H 0.86034 0.47597 0.89705 0.0
O248 O 0.76301 0.45477 0.96309 0.0
C249 C 0.77375 0.46056 0.79169 0.0
O250 O 0.78435 0.42895 0.78859 0.0
N251 N 0.77749 0.38801 0.93361 0.0
C252 C 0.77381 0.32093 0.96655 0.0
C253 C 0.74395 0.34463 0.97358 0.0
C254 C 0.74577 0.37809 0.95573 0.0
C255 C 0.8049 0.36468 0.92316 0.0
C256 C 0.80463 0.33107 0.94119 0.0
H257 H 0.72079 0.39583 0.95795 0.0
H258 H 0.82685 0.37219 0.90003 0.0
H259 H 0.67364 0.45787 0.87446 0.0
H260 H 0.61792 0.38711 0.71295 0.0
H261 H 0.952 0.42214 0.07517 0.0
H262 H 0.71866 0.33722 0.99109 0.0
H263 H 0.82725 0.31306 0.93353 0.0
C264 C 0.25757 0.97779 0.11618 0.0
C265 C 0.26304 0.96774 0.06865 0.0
C266 C 0.259 0.98715 0.17911 0.0
C267 C 0.26468 -0.00196 0.23368 0.0
C268 C 0.77767 0.98611 0.32508 0.0
C269 C 0.77213 -0.00285 0.27068 0.0
C270 C 0.77901 0.97669 0.38796 0.0
C271 C 0.77361 0.9667 0.43559 0.0
C272 C 0.77818 -0.00669 0.82531 0.0
C273 C 0.77254 0.98233 0.77082 0.0
C274 C 0.77949 0.00258 0.88823 0.0
C275 C 0.77391 0.01241 0.9358 0.0
C276 C 0.25893 -0.00777 0.67907 0.0
C277 C 0.26464 0.98132 0.73363 0.0
C278 C 0.25747 0.00162 0.61613 0.0
C279 C 0.26294 0.01167 0.56861 0.0
C280 C 0.75842 0.48672 0.17902 0.0
C281 C 0.76408 0.49769 0.23352 0.0
C282 C 0.75709 0.47733 0.11615 0.0
C283 C 0.76266 0.46735 0.06867 0.0
C284 C 0.27759 0.48594 0.32496 0.0
C285 C 0.27198 0.49695 0.2705 0.0
C286 C 0.27897 0.4766 0.3879 0.0
C287 C 0.27354 0.4667 0.43556 0.0
C288 C 0.2788 0.50282 0.88779 0.0
C289 C 0.27342 0.51276 0.93547 0.0
C290 C 0.2774 0.49344 0.82486 0.0
C291 C 0.27182 0.48241 0.77042 0.0
C292 C 0.75864 0.49251 0.67916 0.0
C293 C 0.76429 0.48158 0.73369 0.0
C294 C 0.75726 0.50187 0.61623 0.0
C295 C 0.76275 0.51186 0.56869 0.0
C296 C 0.5406 0.98306 0.50822 0.0
C297 C 0.57752 0.97109 0.51496 0.0
C298 C 0.49613 -0.00409 0.49788 0.0
C299 C 0.45923 0.00797 0.49099 0.0
C300 C 0.49623 0.98298 0.99729 0.0
C301 C 0.45932 0.97099 0.99054 0.0
C302 C 0.54069 -0.00419 0.00757 0.0
C303 C 0.57758 0.00785 0.01436 0.0
C304 C 0.99572 0.49594 0.49671 0.0
C305 C 0.95884 0.50796 0.48996 0.0
C306 C 0.0402 0.48311 0.50704 0.0
C307 C 0.07714 0.47112 0.51391 0.0
C308 C 0.04019 0.49635 0.00776 0.0
C309 C 0.0771 0.50831 0.01448 0.0
C310 C 0.99573 0.4835 0.99747 0.0
C311 C 0.95885 0.47142 0.99063 0.0
C312 C 0.04287 0.04295 0.26156 0.0
C313 C 0.08419 0.04678 0.27613 0.0
C314 C 0.99388 0.04292 0.24308 0.0
C315 C 0.95256 0.04671 0.22857 0.0
C316 C 0.04289 0.93671 0.76155 0.0
C317 C 0.08421 0.93283 0.77615 0.0
C318 C 0.99391 0.93674 0.74307 0.0
C319 C 0.9526 0.93291 0.72859 0.0
C320 C 0.49356 0.54299 0.24313 0.0
C321 C 0.45225 0.54674 0.22866 0.0
C322 C 0.54255 0.54303 0.26159 0.0
C323 C 0.58387 0.54685 0.27616 0.0
C324 C 0.54259 0.4365 0.76158 0.0
C325 C 0.58389 0.43263 0.7761 0.0
C326 C 0.49362 0.43656 0.74317 0.0
C327 C 0.45231 0.4328 0.72872 0.0
C328 C 0.26664 0.25645 0.51193 0.0
C329 C 0.26462 0.28571 0.52472 0.0
C330 C 0.26947 0.22228 0.49681 0.0
C331 C 0.272 0.1932 0.48331 0.0
C332 C 0.76924 0.25681 0.99508 0.0
C333 C 0.77122 0.28605 0.98213 0.0
C334 C 0.76651 0.22255 0.00977 0.0
C335 C 0.76441 0.19336 0.02292 0.0
C336 C 0.76966 0.72227 0.49678 0.0
C337 C 0.77198 0.69316 0.4833 0.0
C338 C 0.76663 0.75646 0.51166 0.0
C339 C 0.76451 0.78567 0.52462 0.0
C340 C 0.26914 0.75716 0.99693 0.0
C341 C 0.27154 0.78626 0.98351 0.0
C342 C 0.26613 0.72297 0.01181 0.0
C343 C 0.26402 0.69375 0.0247 0.0
loop_
_geom_bond_atom_site_label_1
_geom_bond_atom_site_label_2
_geom_bond_distance
_geom_bond_site_symmetry_2
_ccdc_geom_bond_type
C0 C1 1.351 . S
C0 N3 1.368 . S
C0 H5 0.931 . S
C1 C0 1.351 . S
C1 N2 1.373 . S
C1 H29 0.930 . S
N2 C1 1.373 . S
N2 C4 1.340 . S
N3 C0 1.368 . S
N3 C4 1.321 . S
N3 Co6 2.135 . S
C4 N2 1.340 . S
C4 N3 1.321 . S
C4 H28 0.930 . S
H5 C0 0.931 . S
Co6 N3 2.135 . S
Co6 N9 2.121 . S
Co6 O14 2.055 . S
Co6 O17 2.039 . S
Co6 N20 2.140 . S
C7 O8 1.227 . S
C7 O17 1.265 . S
O8 C7 1.227 . S
N9 Co6 2.121 . S
N9 C11 1.375 . S
N9 C12 1.313 . S
C10 C11 1.338 . S
C10 N13 1.377 . S
C10 H30 0.930 . S
C11 N9 1.375 . S
C11 C10 1.338 . S
C11 H15 0.931 . S
C12 N9 1.313 . S
C12 N13 1.344 . S
C12 H16 0.930 . S
N13 C10 1.377 . S
N13 C12 1.344 . S
O14 Co6 2.055 . S
O14 C18 1.253 . S
H15 C11 0.931 . S
H16 C12 0.930 . S
O17 Co6 2.039 . S
O17 C7 1.265 . S
C18 O14 1.253 . S
C18 O19 1.227 . S
O19 C18 1.227 . S
N20 Co6 2.140 . S
N20 C23 1.346 . S
N20 C24 1.345 . S
C21 C22 1.387 . S
C21 C25 1.391 . S
C22 C21 1.387 . S
C22 C23 1.369 . S
C22 H31 0.929 . S
C23 N20 1.346 . S
C23 C22 1.369 . S
C23 H26 0.928 . S
C24 N20 1.345 . S
C24 C25 1.371 . S
C24 H27 0.931 . S
C25 C21 1.391 . S
C25 C24 1.371 . S
C25 H32 0.930 . S
H26 C23 0.928 . S
H27 C24 0.931 . S
H28 C4 0.930 . S
H29 C1 0.930 . S
H30 C10 0.930 . S
H31 C22 0.929 . S
H32 C25 0.930 . S
C33 C34 1.351 . S
C33 N36 1.368 . S
C33 H38 0.931 . S
C34 C33 1.351 . S
C34 N35 1.373 . S
C34 H62 0.930 . S
N35 C34 1.373 . S
N35 C37 1.340 . S
N36 C33 1.368 . S
N36 C37 1.321 . S
N36 Co39 2.135 . S
C37 N35 1.340 . S
C37 N36 1.321 . S
C37 H61 0.930 . S
H38 C33 0.931 . S
Co39 N36 2.135 . S
Co39 N42 2.121 . S
Co39 O47 2.055 . S
Co39 O50 2.039 . S
Co39 N53 2.140 . S
C40 O41 1.227 . S
C40 O50 1.265 1_556 S
O41 C40 1.227 . S
N42 Co39 2.121 . S
N42 C44 1.375 1_554 S
N42 C45 1.313 . S
C43 C44 1.338 . S
C43 N46 1.377 1_556 S
C43 H63 0.930 . S
C44 N42 1.375 1_556 S
C44 C43 1.338 . S
C44 H48 0.931 . S
C45 N42 1.313 . S
C45 N46 1.344 . S
C45 H49 0.930 . S
N46 C43 1.377 1_554 S
N46 C45 1.344 . S
O47 Co39 2.055 . S
O47 C51 1.253 . S
H48 C44 0.931 . S
H49 C45 0.930 . S
O50 Co39 2.039 . S
O50 C40 1.265 1_554 S
C51 O47 1.253 . S
C51 O52 1.227 . S
O52 C51 1.227 . S
N53 Co39 2.140 . S
N53 C56 1.346 . S
N53 C57 1.345 . S
C54 C55 1.387 . S
C54 C58 1.391 . S
C55 C54 1.387 . S
C55 C56 1.369 . S
C55 H64 0.929 . S
C56 N53 1.346 . S
C56 C55 1.369 . S
C56 H59 0.928 . S
C57 N53 1.345 . S
C57 C58 1.371 . S
C57 H60 0.931 . S
C58 C54 1.391 . S
C58 C57 1.371 . S
C58 H65 0.930 . S
H59 C56 0.928 . S
H60 C57 0.931 . S
H61 C37 0.930 . S
H62 C34 0.930 . S
H63 C43 0.930 . S
H64 C55 0.929 . S
H65 C58 0.930 . S
C66 C67 1.351 . S
C66 N69 1.368 . S
C66 H71 0.931 . S
C67 C66 1.351 . S
C67 N68 1.373 . S
C67 H95 0.930 . S
N68 C67 1.373 . S
N68 C70 1.340 . S
N69 C66 1.368 . S
N69 C70 1.321 . S
N69 Co72 2.135 . S
C70 N68 1.340 . S
C70 N69 1.321 . S
C70 H94 0.930 . S
H71 C66 0.931 . S
Co72 N69 2.135 . S
Co72 N75 2.121 . S
Co72 O80 2.055 . S
Co72 O83 2.039 . S
Co72 N86 2.140 . S
C73 O74 1.227 . S
C73 O83 1.265 . S
O74 C73 1.227 . S
N75 Co72 2.121 . S
N75 C77 1.375 . S
N75 C78 1.313 . S
C76 C77 1.338 . S
C76 N79 1.377 . S
C76 H96 0.930 . S
C77 N75 1.375 . S
C77 C76 1.338 . S
C77 H81 0.931 . S
C78 N75 1.313 . S
C78 N79 1.344 . S
C78 H82 0.930 . S
N79 C76 1.377 . S
N79 C78 1.344 . S
O80 Co72 2.055 . S
O80 C84 1.253 . S
H81 C77 0.931 . S
H82 C78 0.930 . S
O83 Co72 2.039 . S
O83 C73 1.265 . S
C84 O80 1.253 . S
C84 O85 1.227 . S
O85 C84 1.227 . S
N86 Co72 2.140 . S
N86 C89 1.346 . S
N86 C90 1.345 . S
C87 C88 1.387 . S
C87 C91 1.391 . S
C88 C87 1.387 . S
C88 C89 1.369 . S
C88 H97 0.929 . S
C89 N86 1.346 . S
C89 C88 1.369 . S
C89 H92 0.928 . S
C90 N86 1.345 . S
C90 C91 1.371 . S
C90 H93 0.931 . S
C91 C87 1.391 . S
C91 C90 1.371 . S
C91 H98 0.930 . S
H92 C89 0.928 . S
H93 C90 0.931 . S
H94 C70 0.930 . S
H95 C67 0.930 . S
H96 C76 0.930 . S
H97 C88 0.929 . S
H98 C91 0.930 . S
C99 C100 1.351 . S
C99 N102 1.368 . S
C99 H104 0.931 . S
C100 C99 1.351 . S
C100 N101 1.373 . S
C100 H128 0.930 . S
N101 C100 1.373 . S
N101 C103 1.340 . S
N102 C99 1.368 . S
N102 C103 1.321 . S
N102 Co105 2.135 . S
C103 N101 1.340 . S
C103 N102 1.321 . S
C103 H127 0.930 . S
H104 C99 0.931 . S
Co105 N102 2.135 . S
Co105 N108 2.121 . S
Co105 O113 2.055 . S
Co105 O116 2.039 . S
Co105 N119 2.140 . S
C106 O107 1.227 . S
C106 O116 1.265 1_554 S
O107 C106 1.227 . S
N108 Co105 2.121 . S
N108 C110 1.375 1_556 S
N108 C111 1.313 . S
C109 C110 1.338 . S
C109 N112 1.377 1_554 S
C109 H129 0.930 . S
C110 N108 1.375 1_554 S
C110 C109 1.338 . S
C110 H114 0.931 . S
C111 N108 1.313 . S
C111 N112 1.344 . S
C111 H115 0.930 . S
N112 C109 1.377 1_556 S
N112 C111 1.344 . S
O113 Co105 2.055 . S
O113 C117 1.253 . S
H114 C110 0.931 . S
H115 C111 0.930 . S
O116 Co105 2.039 . S
O116 C106 1.265 1_556 S
C117 O113 1.253 . S
C117 O118 1.227 . S
O118 C117 1.227 . S
N119 Co105 2.140 . S
N119 C122 1.346 . S
N119 C123 1.345 . S
C120 C121 1.387 . S
C120 C124 1.391 . S
C121 C120 1.387 . S
C121 C122 1.369 . S
C121 H130 0.929 . S
C122 N119 1.346 . S
C122 C121 1.369 . S
C122 H125 0.928 . S
C123 N119 1.345 . S
C123 C124 1.371 . S
C123 H126 0.931 . S
C124 C120 1.391 . S
C124 C123 1.371 . S
C124 H131 0.930 . S
H125 C122 0.928 . S
H126 C123 0.931 . S
H127 C103 0.930 . S
H128 C100 0.930 . S
H129 C109 0.930 . S
H130 C121 0.929 . S
H131 C124 0.930 . S
C132 C133 1.351 . S
C132 N135 1.368 . S
C132 H137 0.931 . S
C133 C132 1.351 . S
C133 N134 1.373 . S
C133 H161 0.930 . S
N134 C133 1.373 . S
N134 C136 1.340 . S
N135 C132 1.368 . S
N135 C136 1.321 . S
N135 Co138 2.135 . S
C136 N134 1.340 . S
C136 N135 1.321 . S
C136 H160 0.930 . S
H137 C132 0.931 . S
Co138 N135 2.135 . S
Co138 N141 2.121 . S
Co138 O146 2.055 . S
Co138 O149 2.039 . S
Co138 N152 2.140 . S
C139 O140 1.227 . S
C139 O149 1.265 . S
O140 C139 1.227 . S
N141 Co138 2.121 . S
N141 C143 1.375 . S
N141 C144 1.313 . S
C142 C143 1.338 . S
C142 N145 1.377 . S
C142 H162 0.930 . S
C143 N141 1.375 . S
C143 C142 1.338 . S
C143 H147 0.931 . S
C144 N141 1.313 . S
C144 N145 1.344 . S
C144 H148 0.930 . S
N145 C142 1.377 . S
N145 C144 1.344 . S
O146 Co138 2.055 . S
O146 C150 1.253 . S
H147 C143 0.931 . S
H148 C144 0.930 . S
O149 Co138 2.039 . S
O149 C139 1.265 . S
C150 O146 1.253 . S
C150 O151 1.227 . S
O151 C150 1.227 . S
N152 Co138 2.140 . S
N152 C155 1.346 . S
N152 C156 1.345 . S
C153 C154 1.387 . S
C153 C157 1.391 . S
C154 C153 1.387 . S
C154 C155 1.369 . S
C154 H163 0.929 . S
C155 N152 1.346 . S
C155 C154 1.369 . S
C155 H158 0.928 . S
C156 N152 1.345 . S
C156 C157 1.371 . S
C156 H159 0.931 . S
C157 C153 1.391 . S
C157 C156 1.371 . S
C157 H164 0.930 . S
H158 C155 0.928 . S
H159 C156 0.931 . S
H160 C136 0.930 . S
H161 C133 0.930 . S
H162 C142 0.930 . S
H163 C154 0.929 . S
H164 C157 0.930 . S
C165 C166 1.351 . S
C165 N168 1.368 . S
C165 H170 0.931 . S
C166 C165 1.351 . S
C166 N167 1.373 . S
C166 H194 0.930 . S
N167 C166 1.373 . S
N167 C169 1.340 . S
N168 C165 1.368 . S
N168 C169 1.321 . S
N168 Co171 2.135 . S
C169 N167 1.340 . S
C169 N168 1.321 . S
C169 H193 0.930 . S
H170 C165 0.931 . S
Co171 N168 2.135 . S
Co171 N174 2.121 . S
Co171 O179 2.055 . S
Co171 O182 2.039 . S
Co171 N185 2.140 . S
C172 O173 1.227 . S
C172 O182 1.265 1_556 S
O173 C172 1.227 . S
N174 Co171 2.121 . S
N174 C176 1.375 1_554 S
N174 C177 1.313 . S
C175 C176 1.338 . S
C175 N178 1.377 1_556 S
C175 H195 0.930 . S
C176 N174 1.375 1_556 S
C176 C175 1.338 . S
C176 H180 0.931 . S
C177 N174 1.313 . S
C177 N178 1.344 . S
C177 H181 0.930 . S
N178 C175 1.377 1_554 S
N178 C177 1.344 . S
O179 Co171 2.055 . S
O179 C183 1.253 . S
H180 C176 0.931 . S
H181 C177 0.930 . S
O182 Co171 2.039 . S
O182 C172 1.265 1_554 S
C183 O179 1.253 . S
C183 O184 1.227 . S
O184 C183 1.227 . S
N185 Co171 2.140 . S
N185 C188 1.346 . S
N185 C189 1.345 . S
C186 C187 1.387 . S
C186 C190 1.391 . S
C187 C186 1.387 . S
C187 C188 1.369 . S
C187 H196 0.929 . S
C188 N185 1.346 . S
C188 C187 1.369 . S
C188 H191 0.928 . S
C189 N185 1.345 . S
C189 C190 1.371 . S
C189 H192 0.931 . S
C190 C186 1.391 . S
C190 C189 1.371 . S
C190 H197 0.930 . S
H191 C188 0.928 . S
H192 C189 0.931 . S
H193 C169 0.930 . S
H194 C166 0.930 . S
H195 C175 0.930 . S
H196 C187 0.929 . S
H197 C190 0.930 . S
C198 C199 1.351 . S
C198 N201 1.368 . S
C198 H203 0.931 . S
C199 C198 1.351 . S
C199 N200 1.373 . S
C199 H227 0.930 . S
N200 C199 1.373 . S
N200 C202 1.340 . S
N201 C198 1.368 . S
N201 C202 1.321 . S
N201 Co204 2.135 . S
C202 N200 1.340 . S
C202 N201 1.321 . S
C202 H226 0.930 . S
H203 C198 0.931 . S
Co204 N201 2.135 . S
Co204 N207 2.121 . S
Co204 O212 2.055 . S
Co204 O215 2.039 . S
Co204 N218 2.140 . S
C205 O206 1.227 . S
C205 O215 1.265 . S
O206 C205 1.227 . S
N207 Co204 2.121 . S
N207 C209 1.375 . S
N207 C210 1.313 . S
C208 C209 1.338 . S
C208 N211 1.377 . S
C208 H228 0.930 . S
C209 N207 1.375 . S
C209 C208 1.338 . S
C209 H213 0.931 . S
C210 N207 1.313 . S
C210 N211 1.344 . S
C210 H214 0.930 . S
N211 C208 1.377 . S
N211 C210 1.344 . S
O212 Co204 2.055 . S
O212 C216 1.253 . S
H213 C209 0.931 . S
H214 C210 0.930 . S
O215 Co204 2.039 . S
O215 C205 1.265 . S
C216 O212 1.253 . S
C216 O217 1.227 . S
O217 C216 1.227 . S
N218 Co204 2.140 . S
N218 C221 1.346 . S
N218 C222 1.345 . S
C219 C220 1.387 . S
C219 C223 1.391 . S
C220 C219 1.387 . S
C220 C221 1.369 . S
C220 H229 0.929 . S
C221 N218 1.346 . S
C221 C220 1.369 . S
C221 H224 0.928 . S
C222 N218 1.345 . S
C222 C223 1.371 . S
C222 H225 0.931 . S
C223 C219 1.391 . S
C223 C222 1.371 . S
C223 H230 0.930 . S
H224 C221 0.928 . S
H225 C222 0.931 . S
H226 C202 0.930 . S
H227 C199 0.930 . S
H228 C208 0.930 . S
H229 C220 0.929 . S
H230 C223 0.930 . S
C231 C232 1.351 . S
C231 N234 1.368 . S
C231 H236 0.931 . S
C232 C231 1.351 . S
C232 N233 1.373 . S
C232 H260 0.930 . S
N233 C232 1.373 . S
N233 C235 1.340 . S
N234 C231 1.368 . S
N234 C235 1.321 . S
N234 Co237 2.135 . S
C235 N233 1.340 . S
C235 N234 1.321 . S
C235 H259 0.930 . S
H236 C231 0.931 . S
Co237 N234 2.135 . S
Co237 N240 2.121 . S
Co237 O245 2.055 . S
Co237 O248 2.039 . S
Co237 N251 2.140 . S
C238 O239 1.227 . S
C238 O248 1.265 1_554 S
O239 C238 1.227 . S
N240 Co237 2.121 . S
N240 C242 1.375 1_556 S
N240 C243 1.313 . S
C241 C242 1.338 . S
C241 N244 1.377 1_554 S
C241 H261 0.930 . S
C242 N240 1.375 1_554 S
C242 C241 1.338 . S
C242 H246 0.931 . S
C243 N240 1.313 . S
C243 N244 1.344 . S
C243 H247 0.930 . S
N244 C241 1.377 1_556 S
N244 C243 1.344 . S
O245 Co237 2.055 . S
O245 C249 1.253 . S
H246 C242 0.931 . S
H247 C243 0.930 . S
O248 Co237 2.039 . S
O248 C238 1.265 1_556 S
C249 O245 1.253 . S
C249 O250 1.227 . S
O250 C249 1.227 . S
N251 Co237 2.140 . S
N251 C254 1.346 . S
N251 C255 1.345 . S
C252 C253 1.387 . S
C252 C256 1.391 . S
C253 C252 1.387 . S
C253 C254 1.369 . S
C253 H262 0.929 . S
C254 N251 1.346 . S
C254 C253 1.369 . S
C254 H257 0.928 . S
C255 N251 1.345 . S
C255 C256 1.371 . S
C255 H258 0.931 . S
C256 C252 1.391 . S
C256 C255 1.371 . S
C256 H263 0.930 . S
H257 C254 0.928 . S
H258 C255 0.931 . S
H259 C235 0.930 . S
H260 C232 0.930 . S
H261 C241 0.930 . S
H262 C253 0.929 . S
H263 C256 0.930 . S
C264 C265 1.161 1_545 S
C264 C266 1.390 . S
C265 C264 1.161 1_565 S
C266 C264 1.390 . S
C266 C267 1.170 . S
C267 C266 1.170 . S
C268 C269 1.170 . S
C268 C270 1.380 1_545 S
C269 C268 1.170 . S
C270 C268 1.380 1_565 S
C270 C271 1.170 . S
C271 C270 1.170 . S
C272 C273 1.170 . S
C272 C274 1.380 1_565 S
C273 C272 1.170 . S
C274 C272 1.380 1_545 S
C274 C275 1.170 . S
C275 C274 1.170 . S
C276 C277 1.170 . S
C276 C278 1.380 . S
C277 C276 1.170 . S
C278 C276 1.380 . S
C278 C279 1.170 1_565 S
C279 C278 1.170 1_545 S
C280 C281 1.170 . S
C280 C282 1.380 . S
C281 C280 1.170 . S
C282 C280 1.380 . S
C282 C283 1.170 . S
C283 C282 1.170 . S
C284 C285 1.170 . S
C284 C286 1.380 . S
C285 C284 1.170 . S
C286 C284 1.380 . S
C286 C287 1.170 . S
C287 C286 1.170 . S
C288 C289 1.170 . S
C288 C290 1.380 . S
C289 C288 1.170 . S
C290 C288 1.380 . S
C290 C291 1.170 . S
C291 C290 1.170 . S
C292 C293 1.170 . S
C292 C294 1.380 . S
C293 C292 1.170 . S
C294 C292 1.380 . S
C294 C295 1.170 . S
C295 C294 1.170 . S
C296 C297 1.170 . S
C296 C298 1.380 1_565 S
C297 C296 1.170 . S
C298 C296 1.380 1_545 S
C298 C299 1.170 . S
C299 C298 1.170 . S
C300 C301 1.170 . S
C300 C302 1.380 1_566 S
C301 C300 1.170 . S
C302 C300 1.380 1_544 S
C302 C303 1.170 . S
C303 C302 1.170 . S
C304 C305 1.170 . S
C304 C306 1.380 1_655 S
C305 C304 1.170 . S
C306 C304 1.380 1_455 S
C306 C307 1.170 . S
C307 C306 1.170 . S
C308 C309 1.170 . S
C308 C310 1.380 1_454 S
C309 C308 1.170 . S
C310 C308 1.380 1_656 S
C310 C311 1.170 . S
C311 C310 1.170 . S
C312 C313 1.170 . S
C312 C314 1.380 1_455 S
C313 C312 1.170 . S
C314 C312 1.380 1_655 S
C314 C315 1.170 . S
C315 C314 1.170 . S
C316 C317 1.170 . S
C316 C318 1.380 1_455 S
C317 C316 1.170 . S
C318 C316 1.380 1_655 S
C318 C319 1.170 . S
C319 C318 1.170 . S
C320 C321 1.170 . S
C320 C322 1.380 . S
C321 C320 1.170 . S
C322 C320 1.380 . S
C322 C323 1.170 . S
C323 C322 1.170 . S
C324 C325 1.170 . S
C324 C326 1.380 . S
C325 C324 1.170 . S
C326 C324 1.380 . S
C326 C327 1.170 . S
C327 C326 1.170 . S
C328 C329 1.170 . S
C328 C330 1.380 . S
C329 C328 1.170 . S
C330 C328 1.380 . S
C330 C331 1.170 . S
C331 C330 1.170 . S
C332 C333 1.170 . S
C332 C334 1.380 1_556 S
C333 C332 1.170 . S
C334 C332 1.380 1_554 S
C334 C335 1.170 . S
C335 C334 1.170 . S
C336 C337 1.170 . S
C336 C338 1.380 . S
C337 C336 1.170 . S
C338 C336 1.380 . S
C338 C339 1.170 . S
C339 C338 1.170 . S
C340 C341 1.170 . S
C340 C342 1.380 1_556 S
C341 C340 1.170 . S
C342 C340 1.380 1_554 S
C342 C343 1.170 . S
C343 C342 1.170 . S
C265 C106 1.139 . S
C267 C18 1.141 . S
C269 C51 1.147 . S
C271 C73 1.119 . S
C273 C84 1.147 . S
C275 C40 1.116 . S
C277 C117 1.135 . S
C279 C7 1.136 . S
C281 C150 1.139 . S
C283 C238 1.119 . S
C285 C183 1.148 . S
C287 C205 1.115 . S
C289 C172 1.109 . S
C291 C216 1.147 . S
C293 C249 1.136 . S
C295 C139 1.133 . S
C297 N79 1.869 . S
C299 N13 1.847 . S
C301 N112 1.868 . S
C303 N46 1.853 . S
C305 N145 1.869 . S
C307 N211 1.848 . S
C309 N178 1.868 . S
C311 N244 1.846 . S
C313 N2 1.218 . S
C315 N35 1.251 . S
C317 N101 1.209 . S
C319 N68 1.226 . S
C321 N167 1.237 . S
C323 N134 1.217 . S
C325 N233 1.228 . S
C327 N200 1.207 . S
C329 C219 1.617 . S
C331 C21 1.623 . S
C333 C252 1.629 . S
C335 C54 1.607 . S
C337 C153 1.607 . S
C339 C87 1.630 . S
C341 C120 1.603 . S
C343 C186 1.621 . S
