# Generated by pormake.
# Topology twf-e, (6)-cn, num edge types: 1
# Building blocks:
#     Node 0, Type 0, BuildingBlock: VOLQOD_clean_sbu_1, # of connection points: 6
#     Node 1, Type 0, BuildingBlock: VOLQOD_clean_sbu_1, # of connection points: 6
#     Node 2, Type 0, BuildingBlock: VOLQOD_clean_sbu_1, # of connection points: 6
#     Node 3, Type 0, BuildingBlock: VOLQOD_clean_sbu_1, # of connection points: 6
#     Node 4, Type 0, BuildingBlock: VOLQOD_clean_sbu_1, # of connection points: 6
#     Node 5, Type 0, BuildingBlock: VOLQOD_clean_sbu_1, # of connection points: 6
#     Node 6, Type 0, BuildingBlock: VOLQOD_clean_sbu_1, # of connection points: 6
#     Node 7, Type 0, BuildingBlock: VOLQOD_clean_sbu_1, # of connection points: 6
#     Node 8, Type 0, BuildingBlock: VOLQOD_clean_sbu_1, # of connection points: 6
#     Node 9, Type 0, BuildingBlock: VOLQOD_clean_sbu_1, # of connection points: 6
#     Node 10, Type 0, BuildingBlock: VOLQOD_clean_sbu_1, # of connection points: 6
#     Node 11, Type 0, BuildingBlock: VOLQOD_clean_sbu_1, # of connection points: 6
#     Node 12, Type 0, BuildingBlock: VOLQOD_clean_sbu_1, # of connection points: 6
#     Node 13, Type 0, BuildingBlock: VOLQOD_clean_sbu_1, # of connection points: 6
#     Node 14, Type 0, BuildingBlock: VOLQOD_clean_sbu_1, # of connection points: 6
#     Node 15, Type 0, BuildingBlock: VOLQOD_clean_sbu_1, # of connection points: 6
#     Node 16, Type 0, BuildingBlock: VOLQOD_clean_sbu_1, # of connection points: 6
#     Node 17, Type 0, BuildingBlock: VOLQOD_clean_sbu_1, # of connection points: 6
#     Node 18, Type 0, BuildingBlock: VOLQOD_clean_sbu_1, # of connection points: 6
#     Node 19, Type 0, BuildingBlock: VOLQOD_clean_sbu_1, # of connection points: 6
#     Node 20, Type 0, BuildingBlock: VOLQOD_clean_sbu_1, # of connection points: 6
#     Node 21, Type 0, BuildingBlock: VOLQOD_clean_sbu_1, # of connection points: 6
#     Node 22, Type 0, BuildingBlock: VOLQOD_clean_sbu_1, # of connection points: 6
#     Node 23, Type 0, BuildingBlock: VOLQOD_clean_sbu_1, # of connection points: 6
#     Node 24, Type 0, BuildingBlock: VOLQOD_clean_sbu_1, # of connection points: 6
#     Node 25, Type 0, BuildingBlock: VOLQOD_clean_sbu_1, # of connection points: 6
#     Node 26, Type 0, BuildingBlock: VOLQOD_clean_sbu_1, # of connection points: 6
#     Node 27, Type 0, BuildingBlock: VOLQOD_clean_sbu_1, # of connection points: 6
#     Node 28, Type 0, BuildingBlock: VOLQOD_clean_sbu_1, # of connection points: 6
#     Node 29, Type 0, BuildingBlock: VOLQOD_clean_sbu_1, # of connection points: 6
#     Node 30, Type 0, BuildingBlock: VOLQOD_clean_sbu_1, # of connection points: 6
#     Node 31, Type 0, BuildingBlock: VOLQOD_clean_sbu_1, # of connection points: 6
#     Node 32, Type 0, BuildingBlock: VOLQOD_clean_sbu_1, # of connection points: 6
#     Node 33, Type 0, BuildingBlock: VOLQOD_clean_sbu_1, # of connection points: 6
#     Node 34, Type 0, BuildingBlock: VOLQOD_clean_sbu_1, # of connection points: 6
#     Node 35, Type 0, BuildingBlock: VOLQOD_clean_sbu_1, # of connection points: 6
#     Node 36, Type 0, BuildingBlock: VOLQOD_clean_sbu_1, # of connection points: 6
#     Node 37, Type 0, BuildingBlock: VOLQOD_clean_sbu_1, # of connection points: 6
#     Node 38, Type 0, BuildingBlock: VOLQOD_clean_sbu_1, # of connection points: 6
#     Node 39, Type 0, BuildingBlock: VOLQOD_clean_sbu_1, # of connection points: 6
#     Node 40, Type 0, BuildingBlock: VOLQOD_clean_sbu_1, # of connection points: 6
#     Node 41, Type 0, BuildingBlock: VOLQOD_clean_sbu_1, # of connection points: 6
#     Node 42, Type 0, BuildingBlock: VOLQOD_clean_sbu_1, # of connection points: 6
#     Node 43, Type 0, BuildingBlock: VOLQOD_clean_sbu_1, # of connection points: 6
#     Node 44, Type 0, BuildingBlock: VOLQOD_clean_sbu_1, # of connection points: 6
#     Node 45, Type 0, BuildingBlock: VOLQOD_clean_sbu_1, # of connection points: 6
#     Node 46, Type 0, BuildingBlock: VOLQOD_clean_sbu_1, # of connection points: 6
#     Node 47, Type 0, BuildingBlock: VOLQOD_clean_sbu_1, # of connection points: 6
#     Edge 48, Type (0, 0), None
#     Edge 49, Type (0, 0), None
#     Edge 50, Type (0, 0), None
#     Edge 51, Type (0, 0), None
#     Edge 52, Type (0, 0), None
#     Edge 53, Type (0, 0), None
#     Edge 54, Type (0, 0), None
#     Edge 55, Type (0, 0), None
#     Edge 56, Type (0, 0), None
#     Edge 57, Type (0, 0), None
#     Edge 58, Type (0, 0), None
#     Edge 59, Type (0, 0), None
#     Edge 60, Type (0, 0), None
#     Edge 61, Type (0, 0), None
#     Edge 62, Type (0, 0), None
#     Edge 63, Type (0, 0), None
#     Edge 64, Type (0, 0), None
#     Edge 65, Type (0, 0), None
#     Edge 66, Type (0, 0), None
#     Edge 67, Type (0, 0), None
#     Edge 68, Type (0, 0), None
#     Edge 69, Type (0, 0), None
#     Edge 70, Type (0, 0), None
#     Edge 71, Type (0, 0), None
#     Edge 72, Type (0, 0), None
#     Edge 73, Type (0, 0), None
#     Edge 74, Type (0, 0), None
#     Edge 75, Type (0, 0), None
#     Edge 76, Type (0, 0), None
#     Edge 77, Type (0, 0), None
#     Edge 78, Type (0, 0), None
#     Edge 79, Type (0, 0), None
#     Edge 80, Type (0, 0), None
#     Edge 81, Type (0, 0), None
#     Edge 82, Type (0, 0), None
#     Edge 83, Type (0, 0), None
#     Edge 84, Type (0, 0), None
#     Edge 85, Type (0, 0), None
#     Edge 86, Type (0, 0), None
#     Edge 87, Type (0, 0), None
#     Edge 88, Type (0, 0), None
#     Edge 89, Type (0, 0), None
#     Edge 90, Type (0, 0), None
#     Edge 91, Type (0, 0), None
#     Edge 92, Type (0, 0), None
#     Edge 93, Type (0, 0), None
#     Edge 94, Type (0, 0), None
#     Edge 95, Type (0, 0), None
#     Edge 96, Type (0, 0), None
#     Edge 97, Type (0, 0), None
#     Edge 98, Type (0, 0), None
#     Edge 99, Type (0, 0), None
#     Edge 100, Type (0, 0), None
#     Edge 101, Type (0, 0), None
#     Edge 102, Type (0, 0), None
#     Edge 103, Type (0, 0), None
#     Edge 104, Type (0, 0), None
#     Edge 105, Type (0, 0), None
#     Edge 106, Type (0, 0), None
#     Edge 107, Type (0, 0), None
#     Edge 108, Type (0, 0), None
#     Edge 109, Type (0, 0), None
#     Edge 110, Type (0, 0), None
#     Edge 111, Type (0, 0), None
#     Edge 112, Type (0, 0), None
#     Edge 113, Type (0, 0), None
#     Edge 114, Type (0, 0), None
#     Edge 115, Type (0, 0), None
#     Edge 116, Type (0, 0), None
#     Edge 117, Type (0, 0), None
#     Edge 118, Type (0, 0), None
#     Edge 119, Type (0, 0), None
#     Edge 120, Type (0, 0), None
#     Edge 121, Type (0, 0), None
#     Edge 122, Type (0, 0), None
#     Edge 123, Type (0, 0), None
#     Edge 124, Type (0, 0), None
#     Edge 125, Type (0, 0), None
#     Edge 126, Type (0, 0), None
#     Edge 127, Type (0, 0), None
#     Edge 128, Type (0, 0), None
#     Edge 129, Type (0, 0), None
#     Edge 130, Type (0, 0), None
#     Edge 131, Type (0, 0), None
#     Edge 132, Type (0, 0), None
#     Edge 133, Type (0, 0), None
#     Edge 134, Type (0, 0), None
#     Edge 135, Type (0, 0), None
#     Edge 136, Type (0, 0), None
#     Edge 137, Type (0, 0), None
#     Edge 138, Type (0, 0), None
#     Edge 139, Type (0, 0), None
#     Edge 140, Type (0, 0), None
#     Edge 141, Type (0, 0), None
#     Edge 142, Type (0, 0), None
#     Edge 143, Type (0, 0), None
#     Edge 144, Type (0, 0), None
#     Edge 145, Type (0, 0), None
#     Edge 146, Type (0, 0), None
#     Edge 147, Type (0, 0), None
#     Edge 148, Type (0, 0), None
#     Edge 149, Type (0, 0), None
#     Edge 150, Type (0, 0), None
#     Edge 151, Type (0, 0), None
#     Edge 152, Type (0, 0), None
#     Edge 153, Type (0, 0), None
#     Edge 154, Type (0, 0), None
#     Edge 155, Type (0, 0), None
#     Edge 156, Type (0, 0), None
#     Edge 157, Type (0, 0), None
#     Edge 158, Type (0, 0), None
#     Edge 159, Type (0, 0), None
#     Edge 160, Type (0, 0), None
#     Edge 161, Type (0, 0), None
#     Edge 162, Type (0, 0), None
#     Edge 163, Type (0, 0), None
#     Edge 164, Type (0, 0), None
#     Edge 165, Type (0, 0), None
#     Edge 166, Type (0, 0), None
#     Edge 167, Type (0, 0), None
#     Edge 168, Type (0, 0), None
#     Edge 169, Type (0, 0), None
#     Edge 170, Type (0, 0), None
#     Edge 171, Type (0, 0), None
#     Edge 172, Type (0, 0), None
#     Edge 173, Type (0, 0), None
#     Edge 174, Type (0, 0), None
#     Edge 175, Type (0, 0), None
#     Edge 176, Type (0, 0), None
#     Edge 177, Type (0, 0), None
#     Edge 178, Type (0, 0), None
#     Edge 179, Type (0, 0), None
#     Edge 180, Type (0, 0), None
#     Edge 181, Type (0, 0), None
#     Edge 182, Type (0, 0), None
#     Edge 183, Type (0, 0), None
#     Edge 184, Type (0, 0), None
#     Edge 185, Type (0, 0), None
#     Edge 186, Type (0, 0), None
#     Edge 187, Type (0, 0), None
#     Edge 188, Type (0, 0), None
#     Edge 189, Type (0, 0), None
#     Edge 190, Type (0, 0), None
#     Edge 191, Type (0, 0), None
# Relax obj value: 0.432
# Max RMSD: 0.161
# Mean RMSD: 0.160
data_MOF--net-twf-e--node1-VOLQOD_clean_sbu_1--edge1-none
_symmetry_space_group_name_H-M    P1
_symmetry_Int_Tables_number       1
_symmetry_cell_setting            triclinic
loop_
_symmetry_equiv_pos_as_xyz
'x, y, z'
_cell_length_a     33.051079
_cell_length_b     32.677655
_cell_length_c     33.01424
_cell_angle_alpha  90.004824
_cell_angle_beta   90.168706
_cell_angle_gamma 90.028707
loop_
_atom_site_label
_atom_site_type_symbol
_atom_site_fract_x
_atom_site_fract_y
_atom_site_fract_z
_atom_type_partial_charge
O0 O 0.04807 0.10739 0.37839 0.0
Zn1 Zn -0.00101 0.13802 0.39429 0.0
O2 O -0.00185 0.18565 0.36209 0.0
Zn3 Zn -0.00219 0.23217 0.39717 0.0
Zn4 Zn 0.04526 0.18827 0.32883 0.0
Zn5 Zn 0.95116 0.18748 0.32788 0.0
O6 O 0.948 0.26478 0.38531 0.0
O7 O 0.90912 0.21421 0.36338 0.0
O8 O -0.00229 0.14833 0.45665 0.0
O9 O -0.00374 0.21613 0.45721 0.0
O10 O 0.0491 0.26379 0.38971 0.0
O11 O 0.08762 0.21443 0.36469 0.0
O12 O 0.03233 0.2236 0.27912 0.0
O13 O 0.95304 0.10414 0.3752 0.0
O14 O 0.96472 0.22302 0.27828 0.0
O15 O 0.93015 0.12967 0.31674 0.0
C16 C 0.0685 0.1044 0.34583 0.0
C17 C 0.91344 0.24782 0.38233 0.0
C18 C 0.08363 0.24716 0.38512 0.0
C19 C -0.00327 0.18213 0.47621 0.0
C20 C -0.0014 0.23497 0.26357 0.0
C21 C 0.93111 0.10135 0.34342 0.0
O22 O 0.06602 0.13101 0.31762 0.0
O23 O 0.73931 0.95687 0.39019 0.0
Zn24 Zn 0.7609 0.00796 0.36239 0.0
O25 O 0.8168 0.00477 0.36438 0.0
Zn26 Zn 0.83817 0.04406 0.39953 0.0
Zn27 Zn 0.82757 0.95827 0.39518 0.0
Zn28 Zn 0.84351 0.00528 0.31165 0.0
O29 O 0.89176 0.05676 0.37968 0.0
O30 O 0.88031 0.05748 0.31297 0.0
O31 O 0.74457 0.06171 0.3881 0.0
O32 O 0.80412 0.09292 0.3947 0.0
O33 O 0.83945 0.03001 0.45998 0.0
O34 O 0.82107 0.96525 0.4571 0.0
O35 O 0.88135 0.9415 0.38 0.0
O36 O 0.74549 0.0074 0.30517 0.0
O37 O 0.88268 0.95499 0.31338 0.0
O38 O 0.79849 0.00478 0.26389 0.0
C39 C 0.7546 0.92095 0.3886 0.0
C40 C 0.90043 0.0691 0.3443 0.0
C41 C 0.8293 -0.00291 0.47781 0.0
C42 C 0.76573 0.09363 0.39549 0.0
C43 C 0.89713 0.93748 0.34518 0.0
C44 C 0.75994 0.00609 0.26951 0.0
O45 O 0.79046 0.91596 0.37659 0.0
O46 O 0.95149 0.90618 0.37688 0.0
Zn47 Zn 0.00041 0.87539 0.39408 0.0
O48 O 0.00188 0.82783 0.36176 0.0
Zn49 Zn 0.00156 0.78109 0.39655 0.0
Zn50 Zn 0.95518 0.82552 0.32747 0.0
Zn51 Zn 0.04923 0.8258 0.32859 0.0
O52 O 0.05208 0.74882 0.38716 0.0
O53 O 0.09108 0.79904 0.36464 0.0
O54 O 0.00132 0.86466 0.45649 0.0
O55 O 0.0016 0.79683 0.45667 0.0
O56 O 0.95084 0.74913 0.38645 0.0
O57 O 0.91263 0.79934 0.36261 0.0
O58 O 0.96874 0.78984 0.27832 0.0
O59 O 0.04667 0.90927 0.3762 0.0
O60 O 0.03635 0.79007 0.27877 0.0
O61 O 0.06991 0.88373 0.31797 0.0
C62 C 0.93129 0.90931 0.34401 0.0
C63 C 0.08671 0.76556 0.38379 0.0
C64 C 0.91641 0.76612 0.38228 0.0
C65 C 0.00161 0.83073 0.47587 0.0
C66 C 0.00261 0.77814 0.26353 0.0
C67 C 0.06875 0.91203 0.34467 0.0
O68 O 0.93407 0.88277 0.31577 0.0
O69 O 0.26196 0.05664 0.38782 0.0
Zn70 Zn 0.24021 0.00573 0.35924 0.0
O71 O 0.18379 0.00896 0.3646 0.0
Zn72 Zn 0.16319 0.96888 0.39936 0.0
Zn73 Zn 0.17281 0.05493 0.39631 0.0
Zn74 Zn 0.15484 0.00853 0.31356 0.0
O75 O 0.10877 0.95633 0.38104 0.0
O76 O 0.11875 0.95628 0.31431 0.0
O77 O 0.25631 0.95184 0.38578 0.0
O78 O 0.19691 0.92025 0.39181 0.0
O79 O 0.16336 0.98165 0.46017 0.0
O80 O 0.17932 0.04712 0.45824 0.0
O81 O 0.11871 0.07212 0.38179 0.0
O82 O 0.25514 0.00662 0.30048 0.0
O83 O 0.11611 0.05838 0.31533 0.0
O84 O 0.1971 0.00988 0.26571 0.0
C85 C 0.24601 0.09233 0.38854 0.0
C86 C 0.09935 0.94426 0.34572 0.0
C87 C 0.17227 0.0147 0.4785 0.0
C88 C 0.23526 0.91987 0.39345 0.0
C89 C 0.10239 0.07611 0.34712 0.0
C90 C 0.23598 0.00866 0.26699 0.0
O91 O 0.20974 0.09734 0.37761 0.0
O92 O 0.05008 0.90191 0.62262 0.0
Zn93 Zn 0.00218 0.87034 0.60465 0.0
O94 O 0.0024 0.82144 0.6359 0.0
Zn95 Zn 0.00161 0.7765 0.59854 0.0
Zn96 Zn 0.04919 0.81728 0.67044 0.0
Zn97 Zn 0.95541 0.81897 0.67012 0.0
O98 O 0.95032 0.74508 0.60619 0.0
O99 O 0.91303 0.79297 0.63567 0.0
O100 O 0.00219 0.86272 0.54204 0.0
O101 O 0.00161 0.79509 0.5391 0.0
O102 O 0.05176 0.74291 0.60584 0.0
O103 O 0.09079 0.78861 0.6367 0.0
O104 O 0.03485 0.78369 0.72142 0.0
O105 O 0.95402 0.90209 0.62191 0.0
O106 O 0.96736 0.78466 0.72077 0.0
O107 O 0.93236 0.87517 0.68011 0.0
C108 C 0.07373 0.90216 0.65321 0.0
C109 C 0.91613 0.76143 0.61352 0.0
C110 C 0.08661 0.75726 0.61435 0.0
C111 C 0.00185 0.82972 0.52127 0.0
C112 C 0.0008 0.77306 0.73669 0.0
C113 C 0.93129 0.90302 0.65305 0.0
O114 O 0.07384 0.87346 0.6795 0.0
O115 O 0.10335 0.0546 0.62308 0.0
Zn116 Zn 0.13583 0.00673 0.60642 0.0
O117 O 0.18396 0.00802 0.63758 0.0
Zn118 Zn 0.22789 0.01144 0.59984 0.0
Zn119 Zn 0.18612 0.05545 0.67213 0.0
Zn120 Zn 0.18806 0.96031 0.67179 0.0
O121 O 0.2565 0.95747 0.60014 0.0
O122 O 0.21789 0.91844 0.63965 0.0
O123 O 0.14381 0.00667 0.54458 0.0
O124 O 0.20937 0.01995 0.54062 0.0
O125 O 0.26262 0.0593 0.61499 0.0
O126 O 0.21343 0.09825 0.63865 0.0
O127 O 0.22035 0.04236 0.72273 0.0
O128 O 0.10506 0.95797 0.62322 0.0
O129 O 0.22084 0.9741 0.72262 0.0
O130 O 0.1329 0.93418 0.68021 0.0
C131 C 0.10205 0.07827 0.6537 0.0
C132 C 0.24593 0.92255 0.61377 0.0
C133 C 0.24667 0.09441 0.61994 0.0
C134 C 0.17511 0.01471 0.52352 0.0
C135 C 0.2319 0.00826 0.73802 0.0
C136 C 0.10478 0.93396 0.65357 0.0
O137 O 0.12989 0.07869 0.68065 0.0
O138 O 0.95114 0.10969 0.62211 0.0
Zn139 Zn -0.00084 0.14155 0.60467 0.0
O140 O -0.00063 0.19032 0.63608 0.0
Zn141 Zn -0.00138 0.23555 0.5991 0.0
Zn142 Zn 0.95232 0.1928 0.67026 0.0
Zn143 Zn 0.04608 0.19418 0.67063 0.0
O144 O 0.05005 0.26765 0.60464 0.0
O145 O 0.08828 0.22255 0.63737 0.0
O146 O -0.00147 0.14969 0.54212 0.0
O147 O -0.0035 0.21733 0.53964 0.0
O148 O 0.94842 0.26816 0.60877 0.0
O149 O 0.91045 0.21942 0.63582 0.0
O150 O 0.96449 0.22704 0.72087 0.0
O151 O 0.04729 0.10991 0.62227 0.0
O152 O 0.03199 0.22773 0.72149 0.0
O153 O 0.07007 0.13793 0.67979 0.0
C154 C 0.92803 0.10874 0.65297 0.0
C155 C 0.08466 0.25345 0.61432 0.0
C156 C 0.91403 0.25171 0.61488 0.0
C157 C -0.00298 0.18282 0.5216 0.0
C158 C -0.00199 0.23853 0.73673 0.0
C159 C 0.07047 0.10948 0.65324 0.0
O160 O 0.92866 0.13669 0.67995 0.0
O161 O 0.8979 0.95735 0.62243 0.0
Zn162 Zn 0.86521 0.00495 0.60576 0.0
O163 O 0.81709 0.00364 0.63668 0.0
Zn164 Zn 0.77325 1e-05 0.59869 0.0
Zn165 Zn 0.81494 0.95602 0.671 0.0
Zn166 Zn 0.81297 0.05144 0.67074 0.0
O167 O 0.74455 0.05381 0.59868 0.0
O168 O 0.78254 0.09329 0.63857 0.0
O169 O 0.85735 0.00519 0.54409 0.0
O170 O 0.79196 0.99106 0.53956 0.0
O171 O 0.73815 0.9528 0.61449 0.0
O172 O 0.78739 0.91327 0.63713 0.0
O173 O 0.78089 0.96915 0.72158 0.0
O174 O 0.89626 0.0534 0.62254 0.0
O175 O 0.78056 0.03743 0.72161 0.0
O176 O 0.8684 0.07734 0.67929 0.0
C177 C 0.89937 0.93385 0.65315 0.0
C178 C 0.7545 0.08883 0.61254 0.0
C179 C 0.75389 0.91752 0.61874 0.0
C180 C 0.82624 -0.0033 0.52278 0.0
C181 C 0.76951 0.00326 0.73695 0.0
C182 C 0.89667 0.07728 0.65296 0.0
O183 O 0.8714 0.93314 0.67981 0.0
O184 O 0.37592 0.05561 0.10164 0.0
Zn185 Zn 0.39214 0.00747 0.13358 0.0
O186 O 0.36148 0.00852 0.18193 0.0
Zn187 Zn 0.39984 0.01174 0.22562 0.0
Zn188 Zn 0.32726 0.05629 0.18447 0.0
Zn189 Zn 0.32735 0.96067 0.18588 0.0
O190 O 0.39926 0.95818 0.25475 0.0
O191 O 0.35964 0.91878 0.21641 0.0
O192 O 0.45368 0.00666 0.14076 0.0
O193 O 0.45896 0.01963 0.20638 0.0
O194 O 0.38522 0.05919 0.26098 0.0
O195 O 0.36126 0.09885 0.21238 0.0
O196 O 0.27693 0.043 0.219 0.0
O197 O 0.37534 0.95934 0.10227 0.0
O198 O 0.2768 0.97481 0.21902 0.0
O199 O 0.31904 0.93461 0.13026 0.0
C200 C 0.3456 0.07957 0.10041 0.0
C201 C 0.38543 0.92319 0.24471 0.0
C202 C 0.38018 0.09454 0.24563 0.0
C203 C 0.47534 0.01429 0.17182 0.0
C204 C 0.2613 0.00891 0.23005 0.0
C205 C 0.34532 0.93501 0.10191 0.0
O206 O 0.31871 0.08002 0.12819 0.0
O207 O 0.95172 0.38409 0.1055 0.0
Zn208 Zn -0.00055 0.40108 0.13754 0.0
O209 O -0.00047 0.36828 0.18469 0.0
Zn210 Zn 0.00012 0.40377 0.23072 0.0
Zn211 Zn 0.95246 0.33439 0.18721 0.0
Zn212 Zn 0.04595 0.33337 0.18636 0.0
O213 O 0.05073 0.39319 0.26241 0.0
O214 O 0.08828 0.36765 0.21301 0.0
O215 O -0.00034 0.46351 0.14769 0.0
O216 O 0.00128 0.46432 0.21476 0.0
O217 O 0.94899 0.39582 0.26216 0.0
O218 O 0.91062 0.36956 0.21348 0.0
O219 O 0.96506 0.28347 0.22121 0.0
O220 O 0.0471 0.38467 0.10537 0.0
O221 O 0.0326 0.28237 0.22032 0.0
O222 O 0.06839 0.3247 0.12995 0.0
C223 C 0.92945 0.35227 0.10379 0.0
C224 C 0.08497 0.38792 0.24558 0.0
C225 C 0.91449 0.39036 0.24571 0.0
C226 C 0.00072 0.48332 0.18102 0.0
C227 C -0.00127 0.26741 0.23202 0.0
C228 C 0.06932 0.3529 0.10314 0.0
O229 O 0.93013 0.32472 0.13119 0.0
O230 O 0.60776 0.05519 0.25741 0.0
Zn231 Zn 0.63522 0.00388 0.23615 0.0
O232 O 0.63338 0.00631 0.17999 0.0
Zn233 Zn 0.59829 0.96629 0.15964 0.0
Zn234 Zn 0.60265 0.05282 0.16858 0.0
Zn235 Zn 0.68613 0.00588 0.15333 0.0
O236 O 0.61805 0.95163 0.10635 0.0
O237 O 0.68496 0.95361 0.11632 0.0
O238 O 0.60943 0.95055 0.25368 0.0
O239 O 0.60319 0.91815 0.19473 0.0
O240 O 0.53784 0.98043 0.15875 0.0
O241 O 0.54095 0.04575 0.17521 0.0
O242 O 0.61802 0.06954 0.11456 0.0
O243 O 0.69225 0.00438 0.25167 0.0
O244 O 0.68468 0.05675 0.1145 0.0
O245 O 0.73364 0.00627 0.19871 0.0
C246 C 0.60905 0.09098 0.2418 0.0
C247 C 0.65366 0.94053 0.09704 0.0
C248 C 0.52019 0.01366 0.16822 0.0
C249 C 0.60222 0.91818 0.23314 0.0
C250 C 0.6531 0.07421 0.09956 0.0
C251 C 0.7279 0.00534 0.23731 0.0
O252 O 0.62038 0.09575 0.20562 0.0
O253 O 0.04867 0.62811 0.10577 0.0
Zn254 Zn 0.0013 0.61141 0.13812 0.0
O255 O 0.00168 0.64416 0.18534 0.0
Zn256 Zn 0.0018 0.6084 0.23117 0.0
Zn257 Zn 0.04867 0.67834 0.18737 0.0
Zn258 Zn 0.95515 0.6788 0.18757 0.0
O259 O 0.95115 0.61764 0.26296 0.0
O260 O 0.91303 0.64444 0.21441 0.0
O261 O 0.00106 0.54898 0.14791 0.0
O262 O 0.00148 0.54785 0.21497 0.0
O263 O 0.05285 0.61756 0.2626 0.0
O264 O 0.09071 0.6431 0.21341 0.0
O265 O 0.03628 0.72952 0.22135 0.0
O266 O 0.95344 0.62813 0.10636 0.0
O267 O 0.96873 0.72993 0.22106 0.0
O268 O 0.93228 0.68785 0.1315 0.0
C269 C 0.07096 0.65987 0.10379 0.0
C270 C 0.91669 0.62358 0.24661 0.0
C271 C 0.08713 0.62241 0.24572 0.0
C272 C 0.00114 0.52901 0.18114 0.0
C273 C 0.00259 0.74535 0.23232 0.0
C274 C 0.93119 0.65989 0.10448 0.0
O275 O 0.07054 0.6876 0.13106 0.0
O276 O 0.37984 0.95844 0.89637 0.0
Zn277 Zn 0.39659 0.00697 0.86429 0.0
O278 O 0.36425 0.00703 0.81679 0.0
Zn279 Zn 0.39943 0.00676 0.77076 0.0
Zn280 Zn 0.32998 0.95984 0.81431 0.0
Zn281 Zn 0.33078 0.05483 0.81408 0.0
O282 O 0.39139 0.05829 0.73912 0.0
O283 O 0.36556 0.09705 0.78764 0.0
O284 O 0.45847 0.0065 0.8541 0.0
O285 O 0.45918 0.00587 0.78701 0.0
O286 O 0.38971 0.95586 0.73855 0.0
O287 O 0.36391 0.91725 0.78717 0.0
O288 O 0.27924 0.97388 0.78085 0.0
O289 O 0.3802 0.0559 0.89595 0.0
O290 O 0.28001 0.04222 0.78037 0.0
O291 O 0.32181 0.07825 0.86977 0.0
C292 C 0.34874 0.93536 0.89766 0.0
C293 C 0.38616 0.09315 0.75552 0.0
C294 C 0.38421 0.92099 0.75483 0.0
C295 C 0.47802 0.00596 0.82077 0.0
C296 C 0.2641 0.00817 0.76957 0.0
C297 C 0.34917 0.07908 0.89713 0.0
O298 O 0.32138 0.93618 0.87025 0.0
O299 O 0.04534 0.38639 0.89718 0.0
Zn300 Zn -0.00313 0.40152 0.86465 0.0
O301 O -0.00399 0.36837 0.81822 0.0
Zn302 Zn -0.00528 0.40132 0.77058 0.0
Zn303 Zn 0.04437 0.33672 0.81499 0.0
Zn304 Zn 0.94866 0.33507 0.8154 0.0
O305 O 0.94535 0.38912 0.73864 0.0
O306 O 0.90626 0.37125 0.7893 0.0
O307 O -0.00366 0.46287 0.85202 0.0
O308 O -0.00372 0.46301 0.78467 0.0
O309 O 0.0412 0.38576 0.73645 0.0
O310 O 0.08393 0.3736 0.78626 0.0
O311 O 0.03107 0.28582 0.78087 0.0
O312 O 0.94934 0.38523 0.8971 0.0
O313 O 0.96328 0.28487 0.78054 0.0
O314 O 0.92691 0.32587 0.87179 0.0
C315 C 0.0688 0.35546 0.8985 0.0
C316 C 0.91095 0.38882 0.75538 0.0
C317 C 0.07658 0.38747 0.75112 0.0
C318 C -0.00361 0.48227 0.81845 0.0
C319 C -0.00258 0.2701 0.76918 0.0
C320 C 0.92672 0.35369 0.89903 0.0
O321 O 0.06878 0.32818 0.87077 0.0
O322 O 0.62192 0.05337 0.89455 0.0
Zn323 Zn 0.60514 0.00491 0.86287 0.0
O324 O 0.63724 0.00472 0.81546 0.0
Zn325 Zn 0.60127 0.00499 0.76991 0.0
Zn326 Zn 0.67183 0.05172 0.81314 0.0
Zn327 Zn 0.67088 0.95697 0.81301 0.0
O328 O 0.60935 0.95355 0.73814 0.0
O329 O 0.63618 0.91485 0.78638 0.0
O330 O 0.54324 0.00531 0.85364 0.0
O331 O 0.54161 0.00544 0.78663 0.0
O332 O 0.6101 0.0563 0.7381 0.0
O333 O 0.63816 0.09447 0.78606 0.0
O334 O 0.72243 0.03769 0.77977 0.0
O335 O 0.62152 0.95631 0.89451 0.0
O336 O 0.72161 0.96938 0.77939 0.0
O337 O 0.67976 0.93345 0.86882 0.0
C338 C 0.65292 0.07652 0.89605 0.0
C339 C 0.61519 0.91869 0.7544 0.0
C340 C 0.61686 0.09106 0.75423 0.0
C341 C 0.52322 0.00553 0.82053 0.0
C342 C 0.7375 0.00339 0.76853 0.0
C343 C 0.65232 0.93291 0.89595 0.0
O344 O 0.68051 0.07556 0.86905 0.0
O345 O 0.9512 0.62597 0.89802 0.0
Zn346 Zn -0.00175 0.60914 0.86486 0.0
O347 O -0.00308 0.64232 0.81823 0.0
Zn348 Zn -0.00457 0.60825 0.77115 0.0
Zn349 Zn 0.95092 0.67741 0.81629 0.0
Zn350 Zn 0.04481 0.67478 0.81577 0.0
O351 O 0.04503 0.61846 0.73922 0.0
O352 O 0.08504 0.63798 0.78964 0.0
O353 O -0.00259 0.54724 0.85241 0.0
O354 O -0.00436 0.54725 0.78524 0.0
O355 O 0.94511 0.61914 0.7394 0.0
O356 O 0.90775 0.64373 0.78925 0.0
O357 O 0.96577 0.72784 0.78159 0.0
O358 O 0.04729 0.62473 0.89664 0.0
O359 O 0.03333 0.72522 0.78064 0.0
O360 O 0.06845 0.68435 0.87135 0.0
C361 C 0.92911 0.65787 0.9004 0.0
C362 C 0.07963 0.62002 0.75605 0.0
C363 C 0.91085 0.62446 0.75602 0.0
C364 C -0.00351 0.52789 0.81876 0.0
C365 C -3e-05 0.7417 0.7694 0.0
C366 C 0.06985 0.65638 0.89831 0.0
O367 O 0.92944 0.68583 0.87325 0.0
O368 O 0.10205 0.38517 0.04964 0.0
Zn369 Zn 0.1339 0.40269 0.00175 0.0
O370 O 0.1806 0.36976 0.00221 0.0
Zn371 Zn 0.22743 0.40408 0.00299 0.0
Zn372 Zn 0.18352 0.33464 0.04814 0.0
Zn373 Zn 0.18251 0.33698 0.95444 0.0
O374 O 0.25851 0.39385 0.95285 0.0
O375 O 0.20758 0.37382 0.91372 0.0
O376 O 0.14611 0.4649 0.00241 0.0
O377 O 0.2132 0.46496 0.00255 0.0
O378 O 0.25963 0.39394 0.05327 0.0
O379 O 0.21057 0.36831 0.09104 0.0
O380 O 0.21841 0.2848 0.03312 0.0
O381 O 0.10167 0.387 0.95289 0.0
O382 O 0.21849 0.28688 0.96549 0.0
O383 O 0.12668 0.32738 0.93139 0.0
C384 C 0.10036 0.3532 0.07179 0.0
C385 C 0.24101 0.39215 0.91855 0.0
C386 C 0.24345 0.38804 0.08769 0.0
C387 C 0.17974 0.48431 0.00242 0.0
C388 C 0.23038 0.27085 -0.00112 0.0
C389 C 0.09984 0.35546 0.93015 0.0
O390 O 0.12743 0.32529 0.07064 0.0
O391 O 0.10248 0.62618 0.95339 0.0
Zn392 Zn 0.13493 0.61123 0.00193 0.0
O393 O 0.18154 0.6441 0.00199 0.0
Zn394 Zn 0.22874 0.61065 0.00308 0.0
Zn395 Zn 0.18482 0.67575 0.95349 0.0
Zn396 Zn 0.18483 0.67761 0.04922 0.0
O397 O 0.26081 0.62254 0.05237 0.0
O398 O 0.21063 0.64133 0.09167 0.0
O399 O 0.14685 0.54962 0.00286 0.0
O400 O 0.21409 0.54904 0.0017 0.0
O401 O 0.26295 0.62606 0.95657 0.0
O402 O 0.21331 0.63883 0.91385 0.0
O403 O 0.21897 0.72681 0.96647 0.0
O404 O 0.1032 0.62828 0.04978 0.0
O405 O 0.21971 0.72754 0.03432 0.0
O406 O 0.12895 0.6877 0.07145 0.0
C407 C 0.10134 0.65678 0.92947 0.0
C408 C 0.24418 0.62317 0.08684 0.0
C409 C 0.24828 0.62462 0.92115 0.0
C410 C 0.18023 0.52998 0.00229 0.0
C411 C 0.23083 0.74244 0.00013 0.0
C412 C 0.10171 0.65997 0.07227 0.0
O413 O 0.12909 0.68402 0.92914 0.0
O414 O 0.37977 0.11198 0.95156 0.0
Zn415 Zn 0.39606 0.1444 -0.00064 0.0
O416 O 0.36433 0.19283 -0.00189 0.0
Zn417 Zn 0.40077 0.23844 -0.00058 0.0
Zn418 Zn 0.33071 0.19632 0.95077 0.0
Zn419 Zn 0.32977 0.19502 0.04482 0.0
O420 O 0.38988 0.2707 0.0496 0.0
O421 O 0.36414 0.22115 0.0873 0.0
O422 O 0.45818 0.15315 7e-05 0.0
O423 O 0.46039 0.22085 0.00153 0.0
O424 O 0.39486 0.27105 0.94845 0.0
O425 O 0.36495 0.22492 0.90914 0.0
O426 O 0.27912 0.2294 0.96431 0.0
O427 O 0.37821 0.11242 0.04719 0.0
O428 O 0.27927 0.22883 0.03193 0.0
O429 O 0.31942 0.13878 0.06765 0.0
C430 C 0.34922 0.11105 0.92795 0.0
C431 C 0.3848 0.25366 0.08389 0.0
C432 C 0.38709 0.25643 0.91352 0.0
C433 C 0.47851 0.18638 0.00117 0.0
C434 C 0.26349 0.24 -0.00175 0.0
C435 C 0.34653 0.11105 0.06911 0.0
O436 O 0.32268 0.13949 0.92733 0.0
O437 O 0.89542 0.38487 0.95397 0.0
Zn438 Zn 0.86419 0.40076 0.00266 0.0
O439 O 0.81728 0.36824 0.00336 0.0
Zn440 Zn 0.77094 0.40269 0.00537 0.0
Zn441 Zn 0.81329 0.33647 0.9551 0.0
Zn442 Zn 0.81473 0.334 0.05027 0.0
O443 O 0.73866 0.38845 0.05377 0.0
O444 O 0.78922 0.36982 0.09294 0.0
O445 O 0.8535 0.46276 0.00394 0.0
O446 O 0.78641 0.46387 0.00692 0.0
O447 O 0.73736 0.39231 0.95699 0.0
O448 O 0.78574 0.37344 0.91483 0.0
O449 O 0.77928 0.28563 0.96786 0.0
O450 O 0.89655 0.38358 0.04997 0.0
O451 O 0.78006 0.2836 0.03562 0.0
O452 O 0.87099 0.32431 0.07212 0.0
C453 C 0.89613 0.35374 0.9307 0.0
C454 C 0.75564 0.38799 0.0882 0.0
C455 C 0.75206 0.39069 0.9216 0.0
C456 C 0.82035 0.48268 0.00591 0.0
C457 C 0.76838 0.26919 0.00135 0.0
C458 C 0.89831 0.35199 0.07254 0.0
O459 O 0.86836 0.3266 0.93113 0.0
O460 O 0.62075 0.90037 0.94971 0.0
Zn461 Zn 0.60495 0.87 -0.00124 0.0
O462 O 0.63712 0.82215 -0.0002 0.0
Zn463 Zn 0.60135 0.77602 0.00196 0.0
Zn464 Zn 0.67025 0.81747 0.95254 0.0
Zn465 Zn 0.67154 0.82199 0.04708 0.0
O466 O 0.61454 0.74451 0.05212 0.0
O467 O 0.63609 0.79617 0.08974 0.0
O468 O 0.54282 0.8604 0.00037 0.0
O469 O 0.54153 0.79277 0.0046 0.0
O470 O 0.60632 0.7429 0.95116 0.0
O471 O 0.63555 0.78863 0.91117 0.0
O472 O 0.72114 0.78417 0.96714 0.0
O473 O 0.62342 0.90465 0.04449 0.0
O474 O 0.7218 0.78683 0.03478 0.0
O475 O 0.68222 0.88034 0.06736 0.0
C476 C 0.65191 0.90136 0.92711 0.0
C477 C 0.61714 0.76248 0.08624 0.0
C478 C 0.6135 0.75716 0.916 0.0
C479 C 0.52293 0.82695 0.003 0.0
C480 C 0.73693 0.77427 0.00129 0.0
C481 C 0.65514 0.90822 0.06632 0.0
O482 O 0.67911 0.8736 0.92819 0.0
O483 O 0.89797 0.62792 0.05112 0.0
Zn484 Zn 0.86563 0.61031 0.00371 0.0
O485 O 0.81886 0.6432 0.00458 0.0
Zn486 Zn 0.77265 0.60822 0.00582 0.0
Zn487 Zn 0.81629 0.6783 0.05066 0.0
Zn488 Zn 0.81664 0.67643 0.95719 0.0
O489 O 0.74246 0.61523 0.95449 0.0
O490 O 0.79162 0.64006 0.91579 0.0
O491 O 0.85439 0.54789 0.00448 0.0
O492 O 0.78745 0.54761 0.00756 0.0
O493 O 0.74 0.62006 0.05525 0.0
O494 O 0.78981 0.64413 0.09328 0.0
O495 O 0.78144 0.72861 0.03639 0.0
O496 O 0.89699 0.6263 0.95483 0.0
O497 O 0.78104 0.72663 0.96878 0.0
O498 O 0.87233 0.68648 0.93437 0.0
C499 C 0.89981 0.65975 0.07342 0.0
C500 C 0.75953 0.61935 0.92025 0.0
C501 C 0.75671 0.62478 0.0897 0.0
C502 C 0.82091 0.52835 0.00625 0.0
C503 C 0.76949 0.74279 0.00218 0.0
C504 C 0.89885 0.65814 0.93255 0.0
O505 O 0.87258 0.68751 0.07278 0.0
O506 O 0.37749 0.90202 0.04844 0.0
Zn507 Zn 0.3955 0.87005 0.00045 0.0
O508 O 0.36352 0.8218 -0.00073 0.0
Zn509 Zn 0.39939 0.77573 0.00048 0.0
Zn510 Zn 0.32907 0.81958 0.04608 0.0
Zn511 Zn 0.32969 0.81856 0.95208 0.0
O512 O 0.3936 0.74354 0.94912 0.0
O513 O 0.36318 0.78967 0.91022 0.0
O514 O 0.45772 0.86046 0.00153 0.0
O515 O 0.45906 0.79273 0.00309 0.0
O516 O 0.38824 0.74335 0.05057 0.0
O517 O 0.36331 0.79326 0.08833 0.0
O518 O 0.2789 0.78529 0.03333 0.0
O519 O 0.37931 0.90249 0.95229 0.0
O520 O 0.27841 0.78523 0.96572 0.0
O521 O 0.32183 0.87536 0.92847 0.0
C522 C 0.346 0.90335 0.07069 0.0
C523 C 0.38512 0.75801 0.91429 0.0
C524 C 0.38334 0.7604 0.08489 0.0
C525 C 0.47763 0.82695 0.00287 0.0
C526 C 0.26316 0.77409 -0.00036 0.0
C527 C 0.34867 0.90356 0.92875 0.0
O528 O 0.31882 0.87566 0.06937 0.0
O529 O 0.62245 0.10748 0.04556 0.0
Zn530 Zn 0.6051 0.14095 -0.00177 0.0
O531 O 0.63751 0.18866 -0.00154 0.0
Zn532 Zn 0.6028 0.2355 0.00061 0.0
Zn533 Zn 0.67184 0.18872 0.04552 0.0
Zn534 Zn 0.67083 0.19286 0.95146 0.0
O535 O 0.60914 0.26893 0.95002 0.0
O536 O 0.63677 0.22217 0.91008 0.0
O537 O 0.54311 0.15185 -0.00096 0.0
O538 O 0.54286 0.21959 0.00251 0.0
O539 O 0.61533 0.26624 0.05154 0.0
O540 O 0.63676 0.21399 0.08845 0.0
O541 O 0.72156 0.22435 0.03384 0.0
O542 O 0.6215 0.10941 0.94983 0.0
O543 O 0.72138 0.22646 0.96621 0.0
O544 O 0.67944 0.13649 0.92741 0.0
C545 C 0.65485 0.10371 0.06636 0.0
C546 C 0.61595 0.25447 0.91486 0.0
C547 C 0.61823 0.24793 0.08547 0.0
C548 C 0.52377 0.18567 0.00117 0.0
C549 C 0.7367 0.23691 0.0004 0.0
C550 C 0.65253 0.10838 0.92698 0.0
O551 O 0.68283 0.13064 0.06528 0.0
O552 O 0.54807 0.6074 0.8784 0.0
Zn553 Zn 0.499 0.63803 0.8943 0.0
O554 O 0.49815 0.68567 0.86209 0.0
Zn555 Zn 0.49781 0.73219 0.89717 0.0
Zn556 Zn 0.54527 0.68829 0.82883 0.0
Zn557 Zn 0.45116 0.6875 0.82789 0.0
O558 O 0.44801 0.76482 0.88529 0.0
O559 O 0.40912 0.71423 0.86339 0.0
O560 O 0.49771 0.64836 0.95665 0.0
O561 O 0.49626 0.71616 0.95721 0.0
O562 O 0.54909 0.76382 0.8897 0.0
O563 O 0.58763 0.71446 0.8647 0.0
O564 O 0.53233 0.72362 0.77912 0.0
O565 O 0.45305 0.60415 0.87521 0.0
O566 O 0.46472 0.72303 0.77828 0.0
O567 O 0.43015 0.62968 0.81675 0.0
C568 C 0.5685 0.60441 0.84583 0.0
C569 C 0.41345 0.74787 0.88229 0.0
C570 C 0.58362 0.74721 0.88509 0.0
C571 C 0.49673 0.68215 0.97621 0.0
C572 C 0.4986 0.73498 0.76357 0.0
C573 C 0.43112 0.60136 0.84343 0.0
O574 O 0.56603 0.63102 0.81762 0.0
O575 O 0.2393 0.45689 0.89014 0.0
Zn576 Zn 0.26091 0.50796 0.86235 0.0
O577 O 0.31681 0.50476 0.86437 0.0
Zn578 Zn 0.33816 0.54407 0.89951 0.0
Zn579 Zn 0.32758 0.45826 0.89518 0.0
Zn580 Zn 0.34353 0.50528 0.81165 0.0
O581 O 0.39176 0.55676 0.87968 0.0
O582 O 0.38033 0.55748 0.81298 0.0
O583 O 0.24458 0.56171 0.88805 0.0
O584 O 0.30412 0.59294 0.89465 0.0
O585 O 0.33942 0.53003 0.95997 0.0
O586 O 0.32109 0.46525 0.9571 0.0
O587 O 0.38136 0.44148 0.88 0.0
O588 O 0.24553 0.5074 0.80513 0.0
O589 O 0.3827 0.45498 0.81338 0.0
O590 O 0.29853 0.50477 0.76386 0.0
C591 C 0.25458 0.42097 0.88855 0.0
C592 C 0.40044 0.5691 0.8443 0.0
C593 C 0.3293 0.4971 0.97781 0.0
C594 C 0.26573 0.59363 0.89542 0.0
C595 C 0.39715 0.43747 0.84518 0.0
C596 C 0.25998 0.50609 0.76948 0.0
O597 O 0.29047 0.41594 0.87662 0.0
O598 O 0.4515 0.40616 0.87689 0.0
Zn599 Zn 0.50042 0.37537 0.89408 0.0
O600 O 0.50188 0.32781 0.86177 0.0
Zn601 Zn 0.50157 0.28106 0.89655 0.0
Zn602 Zn 0.45519 0.32551 0.82747 0.0
Zn603 Zn 0.54924 0.32579 0.82859 0.0
O604 O 0.55208 0.24878 0.88715 0.0
O605 O 0.59109 0.29901 0.86465 0.0
O606 O 0.50133 0.36463 0.95649 0.0
O607 O 0.5016 0.2968 0.95667 0.0
O608 O 0.45085 0.2491 0.88644 0.0
O609 O 0.41264 0.29932 0.86262 0.0
O610 O 0.46874 0.28983 0.77832 0.0
O611 O 0.54668 0.40925 0.87621 0.0
O612 O 0.53635 0.29005 0.77877 0.0
O613 O 0.56992 0.38371 0.81798 0.0
C614 C 0.4313 0.4093 0.84401 0.0
C615 C 0.5867 0.26551 0.88376 0.0
C616 C 0.41642 0.26608 0.88225 0.0
C617 C 0.50162 0.33069 0.97587 0.0
C618 C 0.50261 0.27813 0.76353 0.0
C619 C 0.56877 0.41201 0.84469 0.0
O620 O 0.43409 0.38276 0.81578 0.0
O621 O 0.76198 0.55664 0.88777 0.0
Zn622 Zn 0.74022 0.50574 0.8592 0.0
O623 O 0.6838 0.50896 0.86459 0.0
Zn624 Zn 0.66324 0.46884 0.89934 0.0
Zn625 Zn 0.6728 0.55493 0.89632 0.0
Zn626 Zn 0.65483 0.50853 0.81355 0.0
O627 O 0.6088 0.45629 0.88105 0.0
O628 O 0.61874 0.45628 0.81431 0.0
O629 O 0.75634 0.45187 0.88574 0.0
O630 O 0.69696 0.42021 0.89171 0.0
O631 O 0.66345 0.48158 0.96015 0.0
O632 O 0.67928 0.54709 0.95825 0.0
O633 O 0.6187 0.57212 0.88179 0.0
O634 O 0.75513 0.50663 0.80044 0.0
O635 O 0.61611 0.55839 0.81533 0.0
O636 O 0.69709 0.50988 0.76568 0.0
C637 C 0.74603 0.59233 0.8885 0.0
C638 C 0.59937 0.44424 0.84573 0.0
C639 C 0.6723 0.51464 0.97849 0.0
C640 C 0.73531 0.41987 0.89335 0.0
C641 C 0.60239 0.57611 0.84712 0.0
C642 C 0.73597 0.50866 0.76696 0.0
O643 O 0.70973 0.59736 0.87767 0.0
O644 O 0.55008 0.4019 0.12261 0.0
Zn645 Zn 0.50218 0.37033 0.10465 0.0
O646 O 0.5024 0.32143 0.1359 0.0
Zn647 Zn 0.50161 0.27648 0.09856 0.0
Zn648 Zn 0.5492 0.31728 0.17044 0.0
Zn649 Zn 0.45541 0.31896 0.17012 0.0
O650 O 0.45033 0.24505 0.10623 0.0
O651 O 0.41303 0.29295 0.13567 0.0
O652 O 0.50219 0.36269 0.04204 0.0
O653 O 0.50161 0.29506 0.03911 0.0
O654 O 0.55175 0.24288 0.10587 0.0
O655 O 0.5908 0.2886 0.13671 0.0
O656 O 0.53485 0.28369 0.22142 0.0
O657 O 0.45401 0.40208 0.1219 0.0
O658 O 0.46736 0.28466 0.22078 0.0
O659 O 0.43235 0.37517 0.1801 0.0
C660 C 0.57372 0.40215 0.1532 0.0
C661 C 0.41615 0.26138 0.11357 0.0
C662 C 0.5866 0.25722 0.1144 0.0
C663 C 0.50185 0.32969 0.02128 0.0
C664 C 0.5008 0.27306 0.23669 0.0
C665 C 0.43129 0.40302 0.15304 0.0
O666 O 0.57384 0.37345 0.1795 0.0
O667 O 0.60336 0.55459 0.12306 0.0
Zn668 Zn 0.63583 0.50673 0.10641 0.0
O669 O 0.68397 0.50801 0.13757 0.0
Zn670 Zn 0.72791 0.51141 0.09984 0.0
Zn671 Zn 0.68613 0.55544 0.17211 0.0
Zn672 Zn 0.68806 0.4603 0.17179 0.0
O673 O 0.75654 0.45746 0.10019 0.0
O674 O 0.71789 0.41842 0.13966 0.0
O675 O 0.64382 0.50666 0.04457 0.0
O676 O 0.7094 0.51987 0.04062 0.0
O677 O 0.76264 0.55929 0.11495 0.0
O678 O 0.71345 0.59824 0.13865 0.0
O679 O 0.72036 0.54235 0.22272 0.0
O680 O 0.60506 0.45796 0.12321 0.0
O681 O 0.72083 0.47409 0.22262 0.0
O682 O 0.63289 0.43418 0.18021 0.0
C683 C 0.60206 0.57827 0.15368 0.0
C684 C 0.74597 0.42254 0.11383 0.0
C685 C 0.7467 0.59439 0.11996 0.0
C686 C 0.67513 0.51466 0.02351 0.0
C687 C 0.73191 0.50825 0.23802 0.0
C688 C 0.60478 0.43395 0.15357 0.0
O689 O 0.6299 0.57869 0.18063 0.0
O690 O 0.45114 0.6097 0.1221 0.0
Zn691 Zn 0.49916 0.64156 0.10467 0.0
O692 O 0.49938 0.69032 0.13607 0.0
Zn693 Zn 0.49863 0.73556 0.09911 0.0
Zn694 Zn 0.45233 0.6928 0.17026 0.0
Zn695 Zn 0.5461 0.69418 0.17062 0.0
O696 O 0.55004 0.76767 0.10466 0.0
O697 O 0.58829 0.72256 0.13736 0.0
O698 O 0.49854 0.64972 0.04212 0.0
O699 O 0.4965 0.71736 0.03965 0.0
O700 O 0.44845 0.76819 0.10881 0.0
O701 O 0.41045 0.71943 0.13582 0.0
O702 O 0.46451 0.72704 0.22087 0.0
O703 O 0.5473 0.60991 0.12226 0.0
O704 O 0.532 0.72772 0.22149 0.0
O705 O 0.57008 0.63792 0.17977 0.0
C706 C 0.42804 0.60875 0.15296 0.0
C707 C 0.58465 0.75349 0.11436 0.0
C708 C 0.41405 0.75176 0.11493 0.0
C709 C 0.49702 0.68284 0.0216 0.0
C710 C 0.49803 0.73853 0.23673 0.0
C711 C 0.57048 0.60948 0.15322 0.0
O712 O 0.42866 0.63669 0.17994 0.0
O713 O 0.3979 0.45735 0.12241 0.0
Zn714 Zn 0.36521 0.50495 0.10575 0.0
O715 O 0.31709 0.50364 0.13667 0.0
Zn716 Zn 0.27324 0.50002 0.09868 0.0
Zn717 Zn 0.31493 0.45602 0.17099 0.0
Zn718 Zn 0.31297 0.55145 0.17074 0.0
O719 O 0.24453 0.55381 0.0987 0.0
O720 O 0.28253 0.5933 0.13858 0.0
O721 O 0.35734 0.50519 0.04408 0.0
O722 O 0.29195 0.49109 0.03955 0.0
O723 O 0.23813 0.45282 0.11447 0.0
O724 O 0.28738 0.41327 0.13712 0.0
O725 O 0.28088 0.46915 0.22157 0.0
O726 O 0.39626 0.5534 0.12254 0.0
O727 O 0.28056 0.53743 0.22161 0.0
O728 O 0.3684 0.57734 0.17928 0.0
C729 C 0.39937 0.43384 0.15314 0.0
C730 C 0.25446 0.58883 0.11259 0.0
C731 C 0.25385 0.41754 0.11877 0.0
C732 C 0.32624 0.49672 0.02277 0.0
C733 C 0.26951 0.50326 0.23695 0.0
C734 C 0.39668 0.57728 0.15295 0.0
O735 O 0.37139 0.43314 0.17979 0.0
O736 O 0.87594 0.55561 0.60163 0.0
Zn737 Zn 0.89215 0.50747 0.63358 0.0
O738 O 0.86149 0.50851 0.68193 0.0
Zn739 Zn 0.89985 0.51172 0.72563 0.0
Zn740 Zn 0.82727 0.55629 0.68447 0.0
Zn741 Zn 0.82735 0.46067 0.68587 0.0
O742 O 0.89923 0.45818 0.75477 0.0
O743 O 0.85962 0.41877 0.71642 0.0
O744 O 0.95369 0.50665 0.64076 0.0
O745 O 0.95897 0.51957 0.70639 0.0
O746 O 0.88525 0.55918 0.76099 0.0
O747 O 0.86126 0.59884 0.71239 0.0
O748 O 0.77693 0.543 0.71897 0.0
O749 O 0.87535 0.45933 0.60227 0.0
O750 O 0.77678 0.47481 0.71899 0.0
O751 O 0.81905 0.43461 0.63025 0.0
C752 C 0.84562 0.57957 0.60041 0.0
C753 C 0.88537 0.42319 0.74475 0.0
C754 C 0.88016 0.59453 0.74566 0.0
C755 C 0.97535 0.51425 0.67183 0.0
C756 C 0.76129 0.50891 0.73002 0.0
C757 C 0.84534 0.43501 0.6019 0.0
O758 O 0.81873 0.58002 0.62818 0.0
O759 O 0.45172 0.88411 0.6055 0.0
Zn760 Zn 0.49945 0.90109 0.63754 0.0
O761 O 0.49952 0.86828 0.68469 0.0
Zn762 Zn 0.50012 0.90376 0.73074 0.0
Zn763 Zn 0.45246 0.8344 0.68721 0.0
Zn764 Zn 0.54595 0.83338 0.68635 0.0
O765 O 0.55071 0.89316 0.76243 0.0
O766 O 0.58828 0.86766 0.71302 0.0
O767 O 0.49966 0.96351 0.64772 0.0
O768 O 0.50128 0.96432 0.71478 0.0
O769 O 0.449 0.89579 0.76219 0.0
O770 O 0.41062 0.86957 0.71349 0.0
O771 O 0.46506 0.78348 0.7212 0.0
O772 O 0.5471 0.88469 0.60537 0.0
O773 O 0.5326 0.78238 0.72031 0.0
O774 O 0.56839 0.82472 0.62995 0.0
C775 C 0.42944 0.8523 0.60379 0.0
C776 C 0.58496 0.88788 0.74563 0.0
C777 C 0.4145 0.89032 0.74575 0.0
C778 C 0.50072 0.98332 0.68105 0.0
C779 C 0.49873 0.76742 0.73202 0.0
C780 C 0.56933 0.85292 0.60314 0.0
O781 O 0.43012 0.82474 0.63118 0.0
O782 O 0.10782 0.55518 0.75742 0.0
Zn783 Zn 0.13526 0.50388 0.73613 0.0
O784 O 0.13339 0.50631 0.67998 0.0
Zn785 Zn 0.09831 0.46626 0.65966 0.0
Zn786 Zn 0.10265 0.55282 0.66856 0.0
Zn787 Zn 0.18614 0.50588 0.6533 0.0
O788 O 0.11804 0.45161 0.60635 0.0
O789 O 0.18496 0.45361 0.6163 0.0
O790 O 0.10947 0.45056 0.75368 0.0
O791 O 0.10325 0.41812 0.69475 0.0
O792 O 0.03785 0.48039 0.6588 0.0
O793 O 0.04095 0.54573 0.67517 0.0
O794 O 0.11802 0.56954 0.61454 0.0
O795 O 0.19229 0.50437 0.75164 0.0
O796 O 0.18469 0.55675 0.61448 0.0
O797 O 0.23367 0.50627 0.69867 0.0
C798 C 0.1091 0.59097 0.7418 0.0
C799 C 0.15366 0.44052 0.59704 0.0
C800 C 0.02019 0.51363 0.66823 0.0
C801 C 0.1023 0.41818 0.73316 0.0
C802 C 0.1531 0.57421 0.59954 0.0
C803 C 0.22793 0.50534 0.73727 0.0
O804 O 0.12034 0.59577 0.7056 0.0
O805 O 0.54867 0.12809 0.60577 0.0
Zn806 Zn 0.50129 0.1114 0.63813 0.0
O807 O 0.50168 0.14415 0.68534 0.0
Zn808 Zn 0.5018 0.1084 0.73119 0.0
Zn809 Zn 0.54867 0.17833 0.68737 0.0
Zn810 Zn 0.45514 0.17879 0.68757 0.0
O811 O 0.45117 0.11767 0.76298 0.0
O812 O 0.41302 0.14444 0.71442 0.0
O813 O 0.50106 0.04897 0.64794 0.0
O814 O 0.50148 0.04785 0.715 0.0
O815 O 0.55283 0.11758 0.76263 0.0
O816 O 0.59071 0.14308 0.71342 0.0
O817 O 0.53628 0.22951 0.72135 0.0
O818 O 0.45343 0.1281 0.60636 0.0
O819 O 0.46873 0.22992 0.72106 0.0
O820 O 0.43227 0.18782 0.63149 0.0
C821 C 0.57097 0.15985 0.60379 0.0
C822 C 0.4167 0.12363 0.74665 0.0
C823 C 0.58711 0.12246 0.74576 0.0
C824 C 0.50114 0.029 0.68117 0.0
C825 C 0.50259 0.24534 0.73232 0.0
C826 C 0.43118 0.15986 0.60448 0.0
O827 O 0.57055 0.18757 0.63105 0.0
O828 O 0.87985 0.45843 0.39636 0.0
Zn829 Zn 0.8966 0.50697 0.36428 0.0
O830 O 0.86426 0.50703 0.31678 0.0
Zn831 Zn 0.89943 0.50675 0.27074 0.0
Zn832 Zn 0.82999 0.45983 0.3143 0.0
Zn833 Zn 0.83079 0.55483 0.31407 0.0
O834 O 0.89137 0.55828 0.23909 0.0
O835 O 0.86557 0.59705 0.28762 0.0
O836 O 0.95848 0.5065 0.35407 0.0
O837 O 0.95918 0.50586 0.28698 0.0
O838 O 0.88969 0.45588 0.23852 0.0
O839 O 0.86391 0.41725 0.28716 0.0
O840 O 0.77925 0.47388 0.28085 0.0
O841 O 0.88021 0.5559 0.39594 0.0
O842 O 0.78002 0.54222 0.28037 0.0
O843 O 0.82183 0.57825 0.36977 0.0
C844 C 0.84875 0.43536 0.39765 0.0
C845 C 0.88611 0.59314 0.25548 0.0
C846 C 0.88417 0.421 0.25479 0.0
C847 C 0.97802 0.50595 0.32074 0.0
C848 C 0.7641 0.50816 0.26956 0.0
C849 C 0.84919 0.57908 0.39713 0.0
O850 O 0.82139 0.43618 0.37024 0.0
O851 O 0.54535 0.8864 0.39717 0.0
Zn852 Zn 0.49688 0.90153 0.36464 0.0
O853 O 0.49602 0.86837 0.31822 0.0
Zn854 Zn 0.49478 0.9013 0.27056 0.0
Zn855 Zn 0.54439 0.83672 0.315 0.0
Zn856 Zn 0.44867 0.83509 0.31539 0.0
O857 O 0.4454 0.88915 0.23861 0.0
O858 O 0.40629 0.87127 0.28928 0.0
O859 O 0.49637 0.96287 0.35198 0.0
O860 O 0.4964 0.963 0.28463 0.0
O861 O 0.54122 0.88561 0.23643 0.0
O862 O 0.58396 0.87361 0.28628 0.0
O863 O 0.53108 0.78582 0.28087 0.0
O864 O 0.44935 0.88525 0.39709 0.0
O865 O 0.4633 0.78487 0.28054 0.0
O866 O 0.42692 0.82589 0.37178 0.0
C867 C 0.5688 0.85547 0.39851 0.0
C868 C 0.411 0.88881 0.25534 0.0
C869 C 0.57659 0.88739 0.25111 0.0
C870 C 0.49648 0.98226 0.31841 0.0
C871 C 0.49744 0.7701 0.26918 0.0
C872 C 0.42673 0.85371 0.39901 0.0
O873 O 0.56878 0.82817 0.37078 0.0
O874 O 0.12191 0.55338 0.39454 0.0
Zn875 Zn 0.10513 0.50491 0.36285 0.0
O876 O 0.13724 0.50472 0.31545 0.0
Zn877 Zn 0.10128 0.50499 0.26989 0.0
Zn878 Zn 0.17183 0.55173 0.31314 0.0
Zn879 Zn 0.17088 0.45697 0.31301 0.0
O880 O 0.10938 0.45357 0.23811 0.0
O881 O 0.13618 0.41484 0.28637 0.0
O882 O 0.04324 0.50531 0.35362 0.0
O883 O 0.04161 0.50543 0.2866 0.0
O884 O 0.11012 0.55628 0.23807 0.0
O885 O 0.13815 0.59448 0.28605 0.0
O886 O 0.22243 0.53769 0.27977 0.0
O887 O 0.12151 0.45631 0.3945 0.0
O888 O 0.22161 0.46938 0.27939 0.0
O889 O 0.17975 0.43344 0.36881 0.0
C890 C 0.15291 0.57653 0.39604 0.0
C891 C 0.11524 0.41871 0.25436 0.0
C892 C 0.11691 0.59104 0.25418 0.0
C893 C 0.02322 0.50552 0.3205 0.0
C894 C 0.2375 0.50339 0.26853 0.0
C895 C 0.15231 0.4329 0.39594 0.0
O896 O 0.1805 0.57556 0.36904 0.0
O897 O 0.4512 0.12594 0.39801 0.0
Zn898 Zn 0.49826 0.10913 0.36484 0.0
O899 O 0.49692 0.14232 0.31823 0.0
Zn900 Zn 0.49548 0.10826 0.27113 0.0
Zn901 Zn 0.45092 0.1774 0.31629 0.0
Zn902 Zn 0.54482 0.17478 0.31578 0.0
O903 O 0.54505 0.11858 0.23918 0.0
O904 O 0.58505 0.13797 0.28966 0.0
O905 O 0.49743 0.04723 0.35237 0.0
O906 O 0.49575 0.04724 0.28519 0.0
O907 O 0.44513 0.1191 0.23939 0.0
O908 O 0.40776 0.14373 0.28923 0.0
O909 O 0.46578 0.22783 0.2816 0.0
O910 O 0.54729 0.12471 0.39664 0.0
O911 O 0.53333 0.22522 0.28064 0.0
O912 O 0.56843 0.18434 0.37136 0.0
C913 C 0.42911 0.15785 0.40039 0.0
C914 C 0.57965 0.1201 0.25602 0.0
C915 C 0.41088 0.12448 0.25599 0.0
C916 C 0.49658 0.02788 0.31871 0.0
C917 C 0.49998 0.2417 0.2694 0.0
C918 C 0.56984 0.15637 0.39832 0.0
O919 O 0.42944 0.18581 0.37325 0.0
O920 O 0.60206 0.88519 0.54964 0.0
Zn921 Zn 0.63392 0.9027 0.50175 0.0
O922 O 0.68062 0.86976 0.5022 0.0
Zn923 Zn 0.72745 0.90407 0.50295 0.0
Zn924 Zn 0.68353 0.83464 0.54814 0.0
Zn925 Zn 0.6825 0.83698 0.45444 0.0
O926 O 0.75855 0.89374 0.45284 0.0
O927 O 0.70757 0.87382 0.41372 0.0
O928 O 0.64615 0.9649 0.5024 0.0
O929 O 0.71325 0.96495 0.50245 0.0
O930 O 0.75964 0.89397 0.55325 0.0
O931 O 0.71059 0.86831 0.59104 0.0
O932 O 0.71842 0.7848 0.53312 0.0
O933 O 0.60168 0.88701 0.45289 0.0
O934 O 0.71849 0.78688 0.46549 0.0
O935 O 0.62667 0.82737 0.4314 0.0
C936 C 0.60037 0.85322 0.5718 0.0
C937 C 0.74104 0.89207 0.41854 0.0
C938 C 0.74349 0.88802 0.58767 0.0
C939 C 0.67978 0.98431 0.50235 0.0
C940 C 0.73038 0.77085 0.49888 0.0
C941 C 0.59984 0.85547 0.43016 0.0
O942 O 0.62744 0.82531 0.57064 0.0
O943 O 0.60248 0.12617 0.45339 0.0
Zn944 Zn 0.63494 0.11122 0.50193 0.0
O945 O 0.68154 0.1441 0.50198 0.0
Zn946 Zn 0.72876 0.11067 0.50304 0.0
Zn947 Zn 0.6848 0.17574 0.45348 0.0
Zn948 Zn 0.68484 0.1776 0.54922 0.0
O949 O 0.76083 0.12251 0.55233 0.0
O950 O 0.71066 0.14132 0.59166 0.0
O951 O 0.64689 0.04962 0.50284 0.0
O952 O 0.71413 0.04905 0.50159 0.0
O953 O 0.76296 0.12619 0.45655 0.0
O954 O 0.71328 0.13882 0.41383 0.0
O955 O 0.71897 0.22681 0.46646 0.0
O956 O 0.60321 0.12826 0.54978 0.0
O957 O 0.71971 0.22753 0.53431 0.0
O958 O 0.62896 0.18768 0.57145 0.0
C959 C 0.60133 0.15677 0.42948 0.0
C960 C 0.74421 0.12318 0.58681 0.0
C961 C 0.74828 0.12469 0.42114 0.0
C962 C 0.68028 0.02998 0.50222 0.0
C963 C 0.73083 0.24243 0.50012 0.0
C964 C 0.60172 0.15994 0.57227 0.0
O965 O 0.62908 0.18402 0.42915 0.0
O966 O 0.87979 0.61199 0.45155 0.0
Zn967 Zn 0.89607 0.64441 0.49935 0.0
O968 O 0.86433 0.69284 0.4981 0.0
Zn969 Zn 0.90077 0.73846 0.49943 0.0
Zn970 Zn 0.83072 0.69632 0.45076 0.0
Zn971 Zn 0.82978 0.69502 0.54482 0.0
O972 O 0.88985 0.77074 0.54958 0.0
O973 O 0.86415 0.72117 0.5873 0.0
O974 O 0.95818 0.65318 0.50007 0.0
O975 O 0.96039 0.72088 0.50154 0.0
O976 O 0.89485 0.77108 0.44846 0.0
O977 O 0.86495 0.72494 0.40913 0.0
O978 O 0.77912 0.72939 0.46431 0.0
O979 O 0.87823 0.61243 0.54719 0.0
O980 O 0.77928 0.72883 0.53192 0.0
O981 O 0.81944 0.63879 0.56765 0.0
C982 C 0.84924 0.61105 0.42794 0.0
C983 C 0.88475 0.75371 0.58388 0.0
C984 C 0.88705 0.75647 0.41353 0.0
C985 C 0.97851 0.68641 0.50117 0.0
C986 C 0.76349 0.74 0.49825 0.0
C987 C 0.84655 0.61105 0.5691 0.0
O988 O 0.82269 0.63949 0.42733 0.0
O989 O 0.39541 0.88488 0.45396 0.0
Zn990 Zn 0.36417 0.90077 0.50265 0.0
O991 O 0.31728 0.86824 0.50334 0.0
Zn992 Zn 0.2709 0.90265 0.50529 0.0
Zn993 Zn 0.3133 0.83648 0.45507 0.0
Zn994 Zn 0.31473 0.83402 0.55026 0.0
O995 O 0.23863 0.88848 0.55372 0.0
O996 O 0.2892 0.86985 0.59291 0.0
O997 O 0.35344 0.96275 0.50391 0.0
O998 O 0.28634 0.96385 0.50673 0.0
O999 O 0.2373 0.89206 0.45697 0.0
O1000 O 0.28577 0.87348 0.41481 0.0
O1001 O 0.27929 0.78564 0.46783 0.0
O1002 O 0.39654 0.8836 0.54997 0.0
O1003 O 0.28005 0.78361 0.5356 0.0
O1004 O 0.37098 0.82434 0.57212 0.0
C1005 C 0.39614 0.85375 0.43069 0.0
C1006 C 0.25561 0.88799 0.58815 0.0
C1007 C 0.25202 0.89058 0.42158 0.0
C1008 C 0.32027 0.98267 0.50579 0.0
C1009 C 0.26838 0.7692 0.50132 0.0
C1010 C 0.3983 0.85202 0.57253 0.0
O1011 O 0.36838 0.82661 0.43112 0.0
O1012 O 0.12074 0.40036 0.44971 0.0
Zn1013 Zn 0.10494 0.36999 0.49875 0.0
O1014 O 0.13711 0.32214 0.49979 0.0
Zn1015 Zn 0.10135 0.276 0.50196 0.0
Zn1016 Zn 0.17024 0.31746 0.45253 0.0
Zn1017 Zn 0.17153 0.32198 0.54708 0.0
O1018 O 0.11455 0.24448 0.55211 0.0
O1019 O 0.13608 0.29616 0.58974 0.0
O1020 O 0.04281 0.36037 0.50037 0.0
O1021 O 0.04153 0.29274 0.5046 0.0
O1022 O 0.10633 0.24287 0.45117 0.0
O1023 O 0.13554 0.28861 0.41116 0.0
O1024 O 0.22113 0.28416 0.46713 0.0
O1025 O 0.12341 0.40464 0.54449 0.0
O1026 O 0.22179 0.28682 0.53477 0.0
O1027 O 0.18222 0.38033 0.56735 0.0
C1028 C 0.1519 0.40135 0.4271 0.0
C1029 C 0.11718 0.26244 0.58622 0.0
C1030 C 0.11353 0.25711 0.41601 0.0
C1031 C 0.02293 0.32692 0.503 0.0
C1032 C 0.23693 0.27426 0.50127 0.0
C1033 C 0.15513 0.40821 0.56631 0.0
O1034 O 0.17909 0.37359 0.42818 0.0
O1035 O 0.39795 0.12788 0.55112 0.0
Zn1036 Zn 0.3656 0.11028 0.50369 0.0
O1037 O 0.31884 0.14319 0.50456 0.0
Zn1038 Zn 0.27261 0.10824 0.50576 0.0
Zn1039 Zn 0.31628 0.17828 0.55064 0.0
Zn1040 Zn 0.31665 0.17643 0.45717 0.0
O1041 O 0.24239 0.11539 0.45447 0.0
O1042 O 0.29165 0.14004 0.41578 0.0
O1043 O 0.35433 0.04787 0.50445 0.0
O1044 O 0.28738 0.04761 0.5074 0.0
O1045 O 0.23999 0.12001 0.55521 0.0
O1046 O 0.28978 0.14412 0.59326 0.0
O1047 O 0.28144 0.2286 0.53637 0.0
O1048 O 0.39697 0.12627 0.45481 0.0
O1049 O 0.28103 0.22662 0.46876 0.0
O1050 O 0.37234 0.18647 0.43437 0.0
C1051 C 0.3998 0.15972 0.57342 0.0
C1052 C 0.2595 0.11944 0.42023 0.0
C1053 C 0.25667 0.1248 0.58967 0.0
C1054 C 0.32084 0.02834 0.50614 0.0
C1055 C 0.26949 0.24278 0.50216 0.0
C1056 C 0.39885 0.15812 0.43254 0.0
O1057 O 0.37257 0.18748 0.57277 0.0
O1058 O 0.8775 0.40201 0.54843 0.0
Zn1059 Zn 0.8955 0.37004 0.50044 0.0
O1060 O 0.86352 0.32179 0.49926 0.0
Zn1061 Zn 0.89938 0.27571 0.50048 0.0
Zn1062 Zn 0.82907 0.31958 0.54607 0.0
Zn1063 Zn 0.82969 0.31856 0.45206 0.0
O1064 O 0.89359 0.24351 0.44914 0.0
O1065 O 0.86318 0.28965 0.4102 0.0
O1066 O 0.95772 0.36043 0.50153 0.0
O1067 O 0.95906 0.2927 0.5031 0.0
O1068 O 0.8882 0.24332 0.55055 0.0
O1069 O 0.86331 0.29325 0.58833 0.0
O1070 O 0.7789 0.28529 0.53332 0.0
O1071 O 0.87933 0.40247 0.45228 0.0
O1072 O 0.77841 0.28523 0.46571 0.0
O1073 O 0.82184 0.37536 0.42846 0.0
C1074 C 0.84602 0.40335 0.57068 0.0
C1075 C 0.88508 0.25797 0.4143 0.0
C1076 C 0.88328 0.26035 0.58487 0.0
C1077 C 0.97763 0.32692 0.50287 0.0
C1078 C 0.76316 0.27409 0.49963 0.0
C1079 C 0.84868 0.40355 0.42874 0.0
O1080 O 0.81883 0.37566 0.56936 0.0
O1081 O 0.12245 0.60749 0.54555 0.0
Zn1082 Zn 0.1051 0.64097 0.49821 0.0
O1083 O 0.13751 0.68867 0.49845 0.0
Zn1084 Zn 0.1028 0.73552 0.50061 0.0
Zn1085 Zn 0.17184 0.68874 0.54551 0.0
Zn1086 Zn 0.17082 0.69287 0.45144 0.0
O1087 O 0.10915 0.76896 0.45003 0.0
O1088 O 0.13676 0.72219 0.41006 0.0
O1089 O 0.04311 0.65188 0.49904 0.0
O1090 O 0.04287 0.71962 0.50251 0.0
O1091 O 0.11536 0.76628 0.55152 0.0
O1092 O 0.13675 0.71401 0.58844 0.0
O1093 O 0.22156 0.72437 0.53382 0.0
O1094 O 0.12148 0.60943 0.44982 0.0
O1095 O 0.22137 0.72647 0.46619 0.0
O1096 O 0.17942 0.6365 0.42739 0.0
C1097 C 0.15485 0.60372 0.56634 0.0
C1098 C 0.11598 0.75452 0.41486 0.0
C1099 C 0.11827 0.74797 0.58545 0.0
C1100 C 0.02377 0.6857 0.50117 0.0
C1101 C 0.23669 0.73693 0.50038 0.0
C1102 C 0.15251 0.6084 0.42697 0.0
O1103 O 0.18283 0.63065 0.56526 0.0
loop_
_geom_bond_atom_site_label_1
_geom_bond_atom_site_label_2
_geom_bond_distance
_geom_bond_site_symmetry_2
_ccdc_geom_bond_type
O0 Zn1 1.953 . S
O0 C16 1.225 . S
Zn1 O0 1.953 . S
Zn1 O2 1.949 . S
Zn1 O8 1.919 . S
Zn1 O13 1.924 1_455 S
O2 Zn1 1.949 . S
O2 Zn3 1.923 . S
O2 Zn4 1.950 . S
O2 Zn5 1.945 1_455 S
Zn3 O2 1.923 . S
Zn3 O6 1.933 1_455 S
Zn3 O9 1.941 . S
Zn3 O10 1.965 . S
Zn4 O2 1.950 . S
Zn4 O11 1.938 . S
Zn4 O12 1.906 . S
Zn4 O22 1.953 . S
Zn5 O2 1.945 1_655 S
Zn5 O7 1.932 . S
Zn5 O14 1.977 . S
Zn5 O15 1.910 . S
O6 Zn3 1.933 1_655 S
O6 C17 1.226 . S
O7 Zn5 1.932 . S
O7 C17 1.307 . S
O8 Zn1 1.919 . S
O8 C19 1.253 . S
O9 Zn3 1.941 . S
O9 C19 1.283 . S
O10 Zn3 1.965 . S
O10 C18 1.303 . S
O11 Zn4 1.938 . S
O11 C18 1.247 . S
O12 Zn4 1.906 . S
O12 C20 1.303 1_455 S
O13 Zn1 1.924 1_655 S
O13 C21 1.311 . S
O14 Zn5 1.977 . S
O14 C20 1.272 . S
O15 Zn5 1.910 . S
O15 C21 1.231 . S
C16 O0 1.225 . S
C16 O22 1.298 . S
C17 O6 1.226 . S
C17 O7 1.307 . S
C18 O10 1.303 . S
C18 O11 1.247 . S
C19 O8 1.253 . S
C19 O9 1.283 . S
C20 O12 1.303 1_655 S
C20 O14 1.272 . S
C21 O13 1.311 . S
C21 O15 1.231 . S
O22 Zn4 1.953 . S
O22 C16 1.298 . S
O23 Zn24 1.953 1_565 S
O23 C39 1.225 . S
Zn24 O23 1.953 1_545 S
Zn24 O25 1.949 . S
Zn24 O31 1.919 . S
Zn24 O36 1.924 . S
O25 Zn24 1.949 . S
O25 Zn26 1.923 . S
O25 Zn27 1.950 1_545 S
O25 Zn28 1.945 . S
Zn26 O25 1.923 . S
Zn26 O29 1.933 . S
Zn26 O32 1.941 . S
Zn26 O33 1.965 . S
Zn27 O25 1.950 1_565 S
Zn27 O34 1.938 . S
Zn27 O35 1.906 . S
Zn27 O45 1.953 . S
Zn28 O25 1.945 . S
Zn28 O30 1.932 . S
Zn28 O37 1.977 1_545 S
Zn28 O38 1.910 . S
O29 Zn26 1.933 . S
O29 C40 1.226 . S
O30 Zn28 1.932 . S
O30 C40 1.307 . S
O31 Zn24 1.919 . S
O31 C42 1.253 . S
O32 Zn26 1.941 . S
O32 C42 1.283 . S
O33 Zn26 1.965 . S
O33 C41 1.303 1_545 S
O34 Zn27 1.938 . S
O34 C41 1.247 . S
O35 Zn27 1.906 . S
O35 C43 1.304 . S
O36 Zn24 1.924 . S
O36 C44 1.311 . S
O37 Zn28 1.977 1_565 S
O37 C43 1.272 . S
O38 Zn28 1.910 . S
O38 C44 1.231 . S
C39 O23 1.225 . S
C39 O45 1.298 . S
C40 O29 1.226 . S
C40 O30 1.307 . S
C41 O33 1.303 1_565 S
C41 O34 1.247 . S
C42 O31 1.253 . S
C42 O32 1.283 . S
C43 O35 1.304 . S
C43 O37 1.272 . S
C44 O36 1.311 . S
C44 O38 1.231 . S
O45 Zn27 1.953 . S
O45 C39 1.298 . S
O46 Zn47 1.953 1_655 S
O46 C62 1.225 . S
Zn47 O46 1.953 1_455 S
Zn47 O48 1.949 . S
Zn47 O54 1.919 . S
Zn47 O59 1.924 . S
O48 Zn47 1.949 . S
O48 Zn49 1.923 . S
O48 Zn50 1.950 1_455 S
O48 Zn51 1.945 . S
Zn49 O48 1.923 . S
Zn49 O52 1.933 . S
Zn49 O55 1.941 1_455 S
Zn49 O56 1.965 1_455 S
Zn50 O48 1.950 1_655 S
Zn50 O57 1.938 . S
Zn50 O58 1.906 . S
Zn50 O68 1.953 . S
Zn51 O48 1.945 . S
Zn51 O53 1.932 . S
Zn51 O60 1.977 . S
Zn51 O61 1.910 . S
O52 Zn49 1.933 . S
O52 C63 1.226 . S
O53 Zn51 1.932 . S
O53 C63 1.307 . S
O54 Zn47 1.919 . S
O54 C65 1.253 . S
O55 Zn49 1.941 1_655 S
O55 C65 1.283 1_655 S
O56 Zn49 1.965 1_655 S
O56 C64 1.303 . S
O57 Zn50 1.938 . S
O57 C64 1.247 . S
O58 Zn50 1.906 . S
O58 C66 1.304 1_655 S
O59 Zn47 1.924 . S
O59 C67 1.311 . S
O60 Zn51 1.977 . S
O60 C66 1.272 . S
O61 Zn51 1.910 . S
O61 C67 1.231 . S
C62 O46 1.225 . S
C62 O68 1.298 . S
C63 O52 1.226 . S
C63 O53 1.307 . S
C64 O56 1.303 . S
C64 O57 1.247 . S
C65 O54 1.253 . S
C65 O55 1.283 1_455 S
C66 O58 1.304 1_455 S
C66 O60 1.272 . S
C67 O59 1.311 . S
C67 O61 1.231 . S
O68 Zn50 1.953 . S
O68 C62 1.298 . S
O69 Zn70 1.956 . S
O69 C85 1.225 . S
Zn70 O69 1.956 . S
Zn70 O71 1.949 . S
Zn70 O77 1.916 1_545 S
Zn70 O82 1.925 . S
O71 Zn70 1.949 . S
O71 Zn72 1.923 1_545 S
O71 Zn73 1.950 . S
O71 Zn74 1.945 . S
Zn72 O71 1.923 1_565 S
Zn72 O75 1.933 . S
Zn72 O78 1.941 . S
Zn72 O79 1.965 . S
Zn73 O71 1.950 . S
Zn73 O80 1.938 . S
Zn73 O81 1.906 . S
Zn73 O91 1.953 . S
Zn74 O71 1.945 . S
Zn74 O76 1.932 1_545 S
Zn74 O83 1.977 . S
Zn74 O84 1.910 . S
O75 Zn72 1.933 . S
O75 C86 1.226 . S
O76 Zn74 1.932 1_565 S
O76 C86 1.307 . S
O77 Zn70 1.916 1_565 S
O77 C88 1.253 . S
O78 Zn72 1.941 . S
O78 C88 1.283 . S
O79 Zn72 1.965 . S
O79 C87 1.303 1_565 S
O80 Zn73 1.938 . S
O80 C87 1.247 . S
O81 Zn73 1.906 . S
O81 C89 1.304 . S
O82 Zn70 1.925 . S
O82 C90 1.311 . S
O83 Zn74 1.977 . S
O83 C89 1.272 . S
O84 Zn74 1.910 . S
O84 C90 1.231 . S
C85 O69 1.225 . S
C85 O91 1.298 . S
C86 O75 1.226 . S
C86 O76 1.307 . S
C87 O79 1.303 1_545 S
C87 O80 1.247 . S
C88 O77 1.253 . S
C88 O78 1.283 . S
C89 O81 1.304 . S
C89 O83 1.272 . S
C90 O82 1.311 . S
C90 O84 1.231 . S
O91 Zn73 1.953 . S
O91 C85 1.298 . S
O92 Zn93 1.953 . S
O92 C108 1.225 . S
Zn93 O92 1.953 . S
Zn93 O94 1.949 . S
Zn93 O100 1.919 . S
Zn93 O105 1.924 1_455 S
O94 Zn93 1.949 . S
O94 Zn95 1.923 . S
O94 Zn96 1.950 . S
O94 Zn97 1.945 1_455 S
Zn95 O94 1.923 . S
Zn95 O98 1.933 1_455 S
Zn95 O101 1.941 . S
Zn95 O102 1.965 . S
Zn96 O94 1.950 . S
Zn96 O103 1.938 . S
Zn96 O104 1.906 . S
Zn96 O114 1.953 . S
Zn97 O94 1.945 1_655 S
Zn97 O99 1.932 . S
Zn97 O106 1.977 . S
Zn97 O107 1.910 . S
O98 Zn95 1.933 1_655 S
O98 C109 1.226 . S
O99 Zn97 1.932 . S
O99 C109 1.307 . S
O100 Zn93 1.919 . S
O100 C111 1.253 . S
O101 Zn95 1.941 . S
O101 C111 1.283 . S
O102 Zn95 1.965 . S
O102 C110 1.303 . S
O103 Zn96 1.938 . S
O103 C110 1.247 . S
O104 Zn96 1.906 . S
O104 C112 1.313 . S
O105 Zn93 1.924 1_655 S
O105 C113 1.311 . S
O106 Zn97 1.977 . S
O106 C112 1.264 1_655 S
O107 Zn97 1.910 . S
O107 C113 1.231 . S
C108 O92 1.225 . S
C108 O114 1.298 . S
C109 O98 1.226 . S
C109 O99 1.307 . S
C110 O102 1.303 . S
C110 O103 1.247 . S
C111 O100 1.253 . S
C111 O101 1.283 . S
C112 O104 1.313 . S
C112 O106 1.264 1_455 S
C113 O105 1.311 . S
C113 O107 1.231 . S
O114 Zn96 1.953 . S
O114 C108 1.298 . S
O115 Zn116 1.953 . S
O115 C131 1.225 . S
Zn116 O115 1.953 . S
Zn116 O117 1.949 . S
Zn116 O123 1.919 . S
Zn116 O128 1.924 1_545 S
O117 Zn116 1.949 . S
O117 Zn118 1.923 . S
O117 Zn119 1.950 . S
O117 Zn120 1.945 1_545 S
Zn118 O117 1.923 . S
Zn118 O121 1.933 1_545 S
Zn118 O124 1.941 . S
Zn118 O125 1.965 . S
Zn119 O117 1.950 . S
Zn119 O126 1.938 . S
Zn119 O127 1.906 . S
Zn119 O137 1.953 . S
Zn120 O117 1.945 1_565 S
Zn120 O122 1.932 . S
Zn120 O129 1.977 . S
Zn120 O130 1.910 . S
O121 Zn118 1.933 1_565 S
O121 C132 1.226 . S
O122 Zn120 1.932 . S
O122 C132 1.307 . S
O123 Zn116 1.919 . S
O123 C134 1.253 . S
O124 Zn118 1.941 . S
O124 C134 1.283 . S
O125 Zn118 1.965 . S
O125 C133 1.303 . S
O126 Zn119 1.938 . S
O126 C133 1.247 . S
O127 Zn119 1.906 . S
O127 C135 1.304 . S
O128 Zn116 1.924 1_565 S
O128 C136 1.311 . S
O129 Zn120 1.977 . S
O129 C135 1.272 1_565 S
O130 Zn120 1.910 . S
O130 C136 1.231 . S
C131 O115 1.225 . S
C131 O137 1.298 . S
C132 O121 1.226 . S
C132 O122 1.307 . S
C133 O125 1.303 . S
C133 O126 1.247 . S
C134 O123 1.253 . S
C134 O124 1.283 . S
C135 O127 1.304 . S
C135 O129 1.272 1_545 S
C136 O128 1.311 . S
C136 O130 1.231 . S
O137 Zn119 1.953 . S
O137 C131 1.298 . S
O138 Zn139 1.953 1_655 S
O138 C154 1.225 . S
Zn139 O138 1.953 1_455 S
Zn139 O140 1.949 . S
Zn139 O146 1.919 . S
Zn139 O151 1.924 . S
O140 Zn139 1.949 . S
O140 Zn141 1.923 . S
O140 Zn142 1.950 1_455 S
O140 Zn143 1.945 . S
Zn141 O140 1.923 . S
Zn141 O144 1.933 . S
Zn141 O147 1.941 1_455 S
Zn141 O148 1.965 1_455 S
Zn142 O140 1.950 1_655 S
Zn142 O149 1.938 . S
Zn142 O150 1.906 . S
Zn142 O160 1.953 . S
Zn143 O140 1.945 . S
Zn143 O145 1.932 . S
Zn143 O152 1.977 . S
Zn143 O153 1.910 . S
O144 Zn141 1.933 . S
O144 C155 1.226 . S
O145 Zn143 1.932 . S
O145 C155 1.307 . S
O146 Zn139 1.919 . S
O146 C157 1.253 . S
O147 Zn141 1.941 1_655 S
O147 C157 1.283 1_655 S
O148 Zn141 1.965 1_655 S
O148 C156 1.303 . S
O149 Zn142 1.938 . S
O149 C156 1.247 . S
O150 Zn142 1.906 . S
O150 C158 1.304 1_655 S
O151 Zn139 1.924 . S
O151 C159 1.311 . S
O152 Zn143 1.977 . S
O152 C158 1.272 . S
O153 Zn143 1.910 . S
O153 C159 1.231 . S
C154 O138 1.225 . S
C154 O160 1.298 . S
C155 O144 1.226 . S
C155 O145 1.307 . S
C156 O148 1.303 . S
C156 O149 1.247 . S
C157 O146 1.253 . S
C157 O147 1.283 1_455 S
C158 O150 1.304 1_455 S
C158 O152 1.272 . S
C159 O151 1.311 . S
C159 O153 1.231 . S
O160 Zn142 1.953 . S
O160 C154 1.298 . S
O161 Zn162 1.953 1_565 S
O161 C177 1.225 . S
Zn162 O161 1.953 1_545 S
Zn162 O163 1.949 . S
Zn162 O169 1.919 . S
Zn162 O174 1.924 . S
O163 Zn162 1.949 . S
O163 Zn164 1.923 . S
O163 Zn165 1.950 1_545 S
O163 Zn166 1.945 . S
Zn164 O163 1.923 . S
Zn164 O167 1.933 . S
Zn164 O170 1.941 1_545 S
Zn164 O171 1.965 1_545 S
Zn165 O163 1.950 1_565 S
Zn165 O172 1.938 . S
Zn165 O173 1.906 . S
Zn165 O183 1.953 . S
Zn166 O163 1.945 . S
Zn166 O168 1.932 . S
Zn166 O175 1.977 . S
Zn166 O176 1.910 . S
O167 Zn164 1.933 . S
O167 C178 1.226 . S
O168 Zn166 1.932 . S
O168 C178 1.307 . S
O169 Zn162 1.919 . S
O169 C180 1.253 . S
O170 Zn164 1.941 1_565 S
O170 C180 1.283 1_565 S
O171 Zn164 1.965 1_565 S
O171 C179 1.303 . S
O172 Zn165 1.938 . S
O172 C179 1.247 . S
O173 Zn165 1.906 . S
O173 C181 1.304 1_565 S
O174 Zn162 1.924 . S
O174 C182 1.311 . S
O175 Zn166 1.977 . S
O175 C181 1.272 . S
O176 Zn166 1.910 . S
O176 C182 1.231 . S
C177 O161 1.225 . S
C177 O183 1.298 . S
C178 O167 1.226 . S
C178 O168 1.307 . S
C179 O171 1.303 . S
C179 O172 1.247 . S
C180 O169 1.253 . S
C180 O170 1.283 1_545 S
C181 O173 1.304 1_545 S
C181 O175 1.272 . S
C182 O174 1.311 . S
C182 O176 1.231 . S
O183 Zn165 1.953 . S
O183 C177 1.298 . S
O184 Zn185 1.953 . S
O184 C200 1.225 . S
Zn185 O184 1.953 . S
Zn185 O186 1.949 . S
Zn185 O192 1.919 . S
Zn185 O197 1.924 1_545 S
O186 Zn185 1.949 . S
O186 Zn187 1.923 . S
O186 Zn188 1.950 . S
O186 Zn189 1.945 1_545 S
Zn187 O186 1.923 . S
Zn187 O190 1.933 1_545 S
Zn187 O193 1.941 . S
Zn187 O194 1.965 . S
Zn188 O186 1.950 . S
Zn188 O195 1.938 . S
Zn188 O196 1.906 . S
Zn188 O206 1.953 . S
Zn189 O186 1.945 1_565 S
Zn189 O191 1.932 . S
Zn189 O198 1.977 . S
Zn189 O199 1.910 . S
O190 Zn187 1.933 1_565 S
O190 C201 1.226 . S
O191 Zn189 1.932 . S
O191 C201 1.307 . S
O192 Zn185 1.919 . S
O192 C203 1.253 . S
O193 Zn187 1.941 . S
O193 C203 1.283 . S
O194 Zn187 1.965 . S
O194 C202 1.303 . S
O195 Zn188 1.938 . S
O195 C202 1.247 . S
O196 Zn188 1.906 . S
O196 C204 1.331 . S
O197 Zn185 1.924 1_565 S
O197 C205 1.311 . S
O198 Zn189 1.977 . S
O198 C204 1.249 1_565 S
O199 Zn189 1.910 . S
O199 C205 1.231 . S
C200 O184 1.225 . S
C200 O206 1.298 . S
C201 O190 1.226 . S
C201 O191 1.307 . S
C202 O194 1.303 . S
C202 O195 1.247 . S
C203 O192 1.253 . S
C203 O193 1.283 . S
C204 O196 1.331 . S
C204 O198 1.249 1_545 S
C205 O197 1.311 . S
C205 O199 1.231 . S
O206 Zn188 1.953 . S
O206 C200 1.298 . S
O207 Zn208 1.953 1_655 S
O207 C223 1.225 . S
Zn208 O207 1.953 1_455 S
Zn208 O209 1.949 . S
Zn208 O215 1.919 . S
Zn208 O220 1.924 . S
O209 Zn208 1.949 . S
O209 Zn210 1.923 . S
O209 Zn211 1.950 1_455 S
O209 Zn212 1.945 . S
Zn210 O209 1.923 . S
Zn210 O213 1.933 . S
Zn210 O216 1.941 1_455 S
Zn210 O217 1.965 1_455 S
Zn211 O209 1.950 1_655 S
Zn211 O218 1.938 . S
Zn211 O219 1.906 . S
Zn211 O229 1.953 . S
Zn212 O209 1.945 . S
Zn212 O214 1.932 . S
Zn212 O221 1.977 . S
Zn212 O222 1.910 . S
O213 Zn210 1.933 . S
O213 C224 1.226 . S
O214 Zn212 1.932 . S
O214 C224 1.307 . S
O215 Zn208 1.919 . S
O215 C226 1.253 . S
O216 Zn210 1.941 1_655 S
O216 C226 1.283 1_655 S
O217 Zn210 1.965 1_655 S
O217 C225 1.303 . S
O218 Zn211 1.938 . S
O218 C225 1.247 . S
O219 Zn211 1.906 . S
O219 C227 1.304 1_655 S
O220 Zn208 1.924 . S
O220 C228 1.311 . S
O221 Zn212 1.977 . S
O221 C227 1.272 . S
O222 Zn212 1.910 . S
O222 C228 1.231 . S
C223 O207 1.225 . S
C223 O229 1.298 . S
C224 O213 1.226 . S
C224 O214 1.307 . S
C225 O217 1.303 . S
C225 O218 1.247 . S
C226 O215 1.253 . S
C226 O216 1.283 1_455 S
C227 O219 1.304 1_455 S
C227 O221 1.272 . S
C228 O220 1.311 . S
C228 O222 1.231 . S
O229 Zn211 1.953 . S
O229 C223 1.298 . S
O230 Zn231 1.954 . S
O230 C246 1.225 . S
Zn231 O230 1.954 . S
Zn231 O232 1.949 . S
Zn231 O238 1.917 1_545 S
Zn231 O243 1.925 . S
O232 Zn231 1.949 . S
O232 Zn233 1.923 1_545 S
O232 Zn234 1.950 . S
O232 Zn235 1.945 . S
Zn233 O232 1.923 1_565 S
Zn233 O236 1.933 . S
Zn233 O239 1.941 . S
Zn233 O240 1.965 . S
Zn234 O232 1.950 . S
Zn234 O241 1.938 . S
Zn234 O242 1.906 . S
Zn234 O252 1.953 . S
Zn235 O232 1.945 . S
Zn235 O237 1.932 1_545 S
Zn235 O244 1.977 . S
Zn235 O245 1.910 . S
O236 Zn233 1.933 . S
O236 C247 1.226 . S
O237 Zn235 1.932 1_565 S
O237 C247 1.307 . S
O238 Zn231 1.917 1_565 S
O238 C249 1.253 . S
O239 Zn233 1.941 . S
O239 C249 1.283 . S
O240 Zn233 1.965 . S
O240 C248 1.303 1_565 S
O241 Zn234 1.938 . S
O241 C248 1.247 . S
O242 Zn234 1.906 . S
O242 C250 1.304 . S
O243 Zn231 1.925 . S
O243 C251 1.311 . S
O244 Zn235 1.977 . S
O244 C250 1.272 . S
O245 Zn235 1.910 . S
O245 C251 1.231 . S
C246 O230 1.225 . S
C246 O252 1.298 . S
C247 O236 1.226 . S
C247 O237 1.307 . S
C248 O240 1.303 1_545 S
C248 O241 1.247 . S
C249 O238 1.253 . S
C249 O239 1.283 . S
C250 O242 1.304 . S
C250 O244 1.272 . S
C251 O243 1.311 . S
C251 O245 1.231 . S
O252 Zn234 1.953 . S
O252 C246 1.298 . S
O253 Zn254 1.953 . S
O253 C269 1.225 . S
Zn254 O253 1.953 . S
Zn254 O255 1.949 . S
Zn254 O261 1.919 . S
Zn254 O266 1.924 1_455 S
O255 Zn254 1.949 . S
O255 Zn256 1.923 . S
O255 Zn257 1.950 . S
O255 Zn258 1.945 1_455 S
Zn256 O255 1.923 . S
Zn256 O259 1.933 1_455 S
Zn256 O262 1.941 . S
Zn256 O263 1.965 . S
Zn257 O255 1.950 . S
Zn257 O264 1.938 . S
Zn257 O265 1.906 . S
Zn257 O275 1.953 . S
Zn258 O255 1.945 1_655 S
Zn258 O260 1.932 . S
Zn258 O267 1.977 . S
Zn258 O268 1.910 . S
O259 Zn256 1.933 1_655 S
O259 C270 1.226 . S
O260 Zn258 1.932 . S
O260 C270 1.307 . S
O261 Zn254 1.919 . S
O261 C272 1.253 . S
O262 Zn256 1.941 . S
O262 C272 1.283 . S
O263 Zn256 1.965 . S
O263 C271 1.303 . S
O264 Zn257 1.938 . S
O264 C271 1.247 . S
O265 Zn257 1.906 . S
O265 C273 1.316 . S
O266 Zn254 1.924 1_655 S
O266 C274 1.311 . S
O267 Zn258 1.977 . S
O267 C273 1.262 1_655 S
O268 Zn258 1.910 . S
O268 C274 1.231 . S
C269 O253 1.225 . S
C269 O275 1.298 . S
C270 O259 1.226 . S
C270 O260 1.307 . S
C271 O263 1.303 . S
C271 O264 1.247 . S
C272 O261 1.253 . S
C272 O262 1.283 . S
C273 O265 1.316 . S
C273 O267 1.262 1_455 S
C274 O266 1.311 . S
C274 O268 1.231 . S
O275 Zn257 1.953 . S
O275 C269 1.298 . S
O276 Zn277 1.953 1_565 S
O276 C292 1.225 . S
Zn277 O276 1.953 1_545 S
Zn277 O278 1.949 . S
Zn277 O284 1.919 . S
Zn277 O289 1.924 . S
O278 Zn277 1.949 . S
O278 Zn279 1.923 . S
O278 Zn280 1.950 1_545 S
O278 Zn281 1.945 . S
Zn279 O278 1.923 . S
Zn279 O282 1.933 . S
Zn279 O285 1.941 1_545 S
Zn279 O286 1.965 1_545 S
Zn280 O278 1.950 1_565 S
Zn280 O287 1.938 . S
Zn280 O288 1.906 . S
Zn280 O298 1.953 . S
Zn281 O278 1.945 . S
Zn281 O283 1.932 . S
Zn281 O290 1.977 . S
Zn281 O291 1.910 . S
O282 Zn279 1.933 . S
O282 C293 1.226 . S
O283 Zn281 1.932 . S
O283 C293 1.307 . S
O284 Zn277 1.919 . S
O284 C295 1.253 . S
O285 Zn279 1.941 1_565 S
O285 C295 1.283 1_565 S
O286 Zn279 1.965 1_565 S
O286 C294 1.303 . S
O287 Zn280 1.938 . S
O287 C294 1.247 . S
O288 Zn280 1.906 . S
O288 C296 1.304 1_565 S
O289 Zn277 1.924 . S
O289 C297 1.311 . S
O290 Zn281 1.977 . S
O290 C296 1.272 . S
O291 Zn281 1.910 . S
O291 C297 1.231 . S
C292 O276 1.225 . S
C292 O298 1.298 . S
C293 O282 1.226 . S
C293 O283 1.307 . S
C294 O286 1.303 . S
C294 O287 1.247 . S
C295 O284 1.253 . S
C295 O285 1.283 1_545 S
C296 O288 1.304 1_545 S
C296 O290 1.272 . S
C297 O289 1.311 . S
C297 O291 1.231 . S
O298 Zn280 1.953 . S
O298 C292 1.298 . S
O299 Zn300 1.953 . S
O299 C315 1.225 . S
Zn300 O299 1.953 . S
Zn300 O301 1.949 . S
Zn300 O307 1.919 . S
Zn300 O312 1.924 1_455 S
O301 Zn300 1.949 . S
O301 Zn302 1.923 . S
O301 Zn303 1.950 . S
O301 Zn304 1.945 1_455 S
Zn302 O301 1.923 . S
Zn302 O305 1.933 1_455 S
Zn302 O308 1.941 . S
Zn302 O309 1.965 . S
Zn303 O301 1.950 . S
Zn303 O310 1.938 . S
Zn303 O311 1.906 . S
Zn303 O321 1.953 . S
Zn304 O301 1.945 1_655 S
Zn304 O306 1.932 . S
Zn304 O313 1.977 . S
Zn304 O314 1.910 . S
O305 Zn302 1.933 1_655 S
O305 C316 1.226 . S
O306 Zn304 1.932 . S
O306 C316 1.307 . S
O307 Zn300 1.919 . S
O307 C318 1.253 . S
O308 Zn302 1.941 . S
O308 C318 1.283 . S
O309 Zn302 1.965 . S
O309 C317 1.303 . S
O310 Zn303 1.938 . S
O310 C317 1.247 . S
O311 Zn303 1.906 . S
O311 C319 1.297 1_455 S
O312 Zn300 1.924 1_655 S
O312 C320 1.311 . S
O313 Zn304 1.977 . S
O313 C319 1.277 . S
O314 Zn304 1.910 . S
O314 C320 1.231 . S
C315 O299 1.225 . S
C315 O321 1.298 . S
C316 O305 1.226 . S
C316 O306 1.307 . S
C317 O309 1.303 . S
C317 O310 1.247 . S
C318 O307 1.253 . S
C318 O308 1.283 . S
C319 O311 1.297 1_655 S
C319 O313 1.277 . S
C320 O312 1.311 . S
C320 O314 1.231 . S
O321 Zn303 1.953 . S
O321 C315 1.298 . S
O322 Zn323 1.953 . S
O322 C338 1.225 . S
Zn323 O322 1.953 . S
Zn323 O324 1.949 . S
Zn323 O330 1.919 . S
Zn323 O335 1.924 1_545 S
O324 Zn323 1.949 . S
O324 Zn325 1.923 . S
O324 Zn326 1.950 . S
O324 Zn327 1.945 1_545 S
Zn325 O324 1.923 . S
Zn325 O328 1.933 1_545 S
Zn325 O331 1.941 . S
Zn325 O332 1.965 . S
Zn326 O324 1.950 . S
Zn326 O333 1.938 . S
Zn326 O334 1.906 . S
Zn326 O344 1.953 . S
Zn327 O324 1.945 1_565 S
Zn327 O329 1.932 . S
Zn327 O336 1.977 . S
Zn327 O337 1.910 . S
O328 Zn325 1.933 1_565 S
O328 C339 1.226 . S
O329 Zn327 1.932 . S
O329 C339 1.307 . S
O330 Zn323 1.919 . S
O330 C341 1.253 . S
O331 Zn325 1.941 . S
O331 C341 1.283 . S
O332 Zn325 1.965 . S
O332 C340 1.303 . S
O333 Zn326 1.938 . S
O333 C340 1.247 . S
O334 Zn326 1.906 . S
O334 C342 1.317 . S
O335 Zn323 1.924 1_565 S
O335 C343 1.311 . S
O336 Zn327 1.977 . S
O336 C342 1.261 1_565 S
O337 Zn327 1.910 . S
O337 C343 1.231 . S
C338 O322 1.225 . S
C338 O344 1.298 . S
C339 O328 1.226 . S
C339 O329 1.307 . S
C340 O332 1.303 . S
C340 O333 1.247 . S
C341 O330 1.253 . S
C341 O331 1.283 . S
C342 O334 1.317 . S
C342 O336 1.261 1_545 S
C343 O335 1.311 . S
C343 O337 1.231 . S
O344 Zn326 1.953 . S
O344 C338 1.298 . S
O345 Zn346 1.953 1_655 S
O345 C361 1.225 . S
Zn346 O345 1.953 1_455 S
Zn346 O347 1.949 . S
Zn346 O353 1.919 . S
Zn346 O358 1.924 . S
O347 Zn346 1.949 . S
O347 Zn348 1.923 . S
O347 Zn349 1.950 1_455 S
O347 Zn350 1.945 . S
Zn348 O347 1.923 . S
Zn348 O351 1.933 . S
Zn348 O354 1.941 1_455 S
Zn348 O355 1.965 1_455 S
Zn349 O347 1.950 1_655 S
Zn349 O356 1.938 . S
Zn349 O357 1.906 . S
Zn349 O367 1.953 . S
Zn350 O347 1.945 . S
Zn350 O352 1.932 . S
Zn350 O359 1.977 . S
Zn350 O360 1.910 . S
O351 Zn348 1.933 . S
O351 C362 1.226 . S
O352 Zn350 1.932 . S
O352 C362 1.307 . S
O353 Zn346 1.919 . S
O353 C364 1.253 . S
O354 Zn348 1.941 1_655 S
O354 C364 1.283 1_655 S
O355 Zn348 1.965 1_655 S
O355 C363 1.303 . S
O356 Zn349 1.938 . S
O356 C363 1.247 . S
O357 Zn349 1.906 . S
O357 C365 1.304 1_655 S
O358 Zn346 1.924 . S
O358 C366 1.311 . S
O359 Zn350 1.977 . S
O359 C365 1.272 . S
O360 Zn350 1.910 . S
O360 C366 1.231 . S
C361 O345 1.225 . S
C361 O367 1.298 . S
C362 O351 1.226 . S
C362 O352 1.307 . S
C363 O355 1.303 . S
C363 O356 1.247 . S
C364 O353 1.253 . S
C364 O354 1.283 1_455 S
C365 O357 1.304 1_455 S
C365 O359 1.272 . S
C366 O358 1.311 . S
C366 O360 1.231 . S
O367 Zn349 1.953 . S
O367 C361 1.298 . S
O368 Zn369 1.953 . S
O368 C384 1.225 . S
Zn369 O368 1.953 . S
Zn369 O370 1.949 . S
Zn369 O376 1.919 . S
Zn369 O381 1.924 1_554 S
O370 Zn369 1.949 . S
O370 Zn371 1.923 . S
O370 Zn372 1.950 . S
O370 Zn373 1.945 1_554 S
Zn371 O370 1.923 . S
Zn371 O374 1.933 1_554 S
Zn371 O377 1.941 . S
Zn371 O378 1.965 . S
Zn372 O370 1.950 . S
Zn372 O379 1.938 . S
Zn372 O380 1.906 . S
Zn372 O390 1.953 . S
Zn373 O370 1.945 1_556 S
Zn373 O375 1.932 . S
Zn373 O382 1.977 . S
Zn373 O383 1.910 . S
O374 Zn371 1.933 1_556 S
O374 C385 1.226 . S
O375 Zn373 1.932 . S
O375 C385 1.307 . S
O376 Zn369 1.919 . S
O376 C387 1.253 . S
O377 Zn371 1.941 . S
O377 C387 1.283 . S
O378 Zn371 1.965 . S
O378 C386 1.303 . S
O379 Zn372 1.938 . S
O379 C386 1.247 . S
O380 Zn372 1.906 . S
O380 C388 1.306 1_554 S
O381 Zn369 1.924 1_556 S
O381 C389 1.311 . S
O382 Zn373 1.977 . S
O382 C388 1.270 . S
O383 Zn373 1.910 . S
O383 C389 1.231 . S
C384 O368 1.225 . S
C384 O390 1.298 . S
C385 O374 1.226 . S
C385 O375 1.307 . S
C386 O378 1.303 . S
C386 O379 1.247 . S
C387 O376 1.253 . S
C387 O377 1.283 . S
C388 O380 1.306 1_556 S
C388 O382 1.270 . S
C389 O381 1.311 . S
C389 O383 1.231 . S
O390 Zn372 1.953 . S
O390 C384 1.298 . S
O391 Zn392 1.953 1_556 S
O391 C407 1.225 . S
Zn392 O391 1.953 1_554 S
Zn392 O393 1.949 . S
Zn392 O399 1.919 . S
Zn392 O404 1.924 . S
O393 Zn392 1.949 . S
O393 Zn394 1.923 . S
O393 Zn395 1.950 1_554 S
O393 Zn396 1.945 . S
Zn394 O393 1.923 . S
Zn394 O397 1.933 . S
Zn394 O400 1.941 1_554 S
Zn394 O401 1.965 1_554 S
Zn395 O393 1.950 1_556 S
Zn395 O402 1.938 . S
Zn395 O403 1.906 . S
Zn395 O413 1.953 . S
Zn396 O393 1.945 . S
Zn396 O398 1.932 . S
Zn396 O405 1.977 . S
Zn396 O406 1.910 . S
O397 Zn394 1.933 . S
O397 C408 1.226 . S
O398 Zn396 1.932 . S
O398 C408 1.307 . S
O399 Zn392 1.919 . S
O399 C410 1.253 . S
O400 Zn394 1.941 1_556 S
O400 C410 1.283 1_556 S
O401 Zn394 1.965 1_556 S
O401 C409 1.303 . S
O402 Zn395 1.938 . S
O402 C409 1.247 . S
O403 Zn395 1.906 . S
O403 C411 1.304 1_556 S
O404 Zn392 1.924 . S
O404 C412 1.311 . S
O405 Zn396 1.977 . S
O405 C411 1.272 . S
O406 Zn396 1.910 . S
O406 C412 1.231 . S
C407 O391 1.225 . S
C407 O413 1.298 . S
C408 O397 1.226 . S
C408 O398 1.307 . S
C409 O401 1.303 . S
C409 O402 1.247 . S
C410 O399 1.253 . S
C410 O400 1.283 1_554 S
C411 O403 1.304 1_554 S
C411 O405 1.272 . S
C412 O404 1.311 . S
C412 O406 1.231 . S
O413 Zn395 1.953 . S
O413 C407 1.298 . S
O414 Zn415 1.953 1_556 S
O414 C430 1.225 . S
Zn415 O414 1.953 1_554 S
Zn415 O416 1.949 . S
Zn415 O422 1.919 . S
Zn415 O427 1.924 . S
O416 Zn415 1.949 . S
O416 Zn417 1.923 . S
O416 Zn418 1.950 1_554 S
O416 Zn419 1.945 . S
Zn417 O416 1.923 . S
Zn417 O420 1.933 . S
Zn417 O423 1.941 1_554 S
Zn417 O424 1.965 1_554 S
Zn418 O416 1.950 1_556 S
Zn418 O425 1.938 . S
Zn418 O426 1.906 . S
Zn418 O436 1.953 . S
Zn419 O416 1.945 . S
Zn419 O421 1.932 . S
Zn419 O428 1.977 . S
Zn419 O429 1.910 . S
O420 Zn417 1.933 . S
O420 C431 1.226 . S
O421 Zn419 1.932 . S
O421 C431 1.307 . S
O422 Zn415 1.919 . S
O422 C433 1.253 . S
O423 Zn417 1.941 1_556 S
O423 C433 1.283 1_556 S
O424 Zn417 1.965 1_556 S
O424 C432 1.303 . S
O425 Zn418 1.938 . S
O425 C432 1.247 . S
O426 Zn418 1.906 . S
O426 C434 1.304 1_556 S
O427 Zn415 1.924 . S
O427 C435 1.311 . S
O428 Zn419 1.977 . S
O428 C434 1.272 . S
O429 Zn419 1.910 . S
O429 C435 1.231 . S
C430 O414 1.225 . S
C430 O436 1.298 . S
C431 O420 1.226 . S
C431 O421 1.307 . S
C432 O424 1.303 . S
C432 O425 1.247 . S
C433 O422 1.253 . S
C433 O423 1.283 1_554 S
C434 O426 1.304 1_554 S
C434 O428 1.272 . S
C435 O427 1.311 . S
C435 O429 1.231 . S
O436 Zn418 1.953 . S
O436 C430 1.298 . S
O437 Zn438 1.953 1_556 S
O437 C453 1.225 . S
Zn438 O437 1.953 1_554 S
Zn438 O439 1.949 . S
Zn438 O445 1.919 . S
Zn438 O450 1.924 . S
O439 Zn438 1.949 . S
O439 Zn440 1.923 . S
O439 Zn441 1.950 1_554 S
O439 Zn442 1.945 . S
Zn440 O439 1.923 . S
Zn440 O443 1.933 . S
Zn440 O446 1.941 1_554 S
Zn440 O447 1.965 1_554 S
Zn441 O439 1.950 1_556 S
Zn441 O448 1.938 . S
Zn441 O449 1.906 . S
Zn441 O459 1.953 . S
Zn442 O439 1.945 . S
Zn442 O444 1.932 . S
Zn442 O451 1.977 . S
Zn442 O452 1.910 . S
O443 Zn440 1.933 . S
O443 C454 1.226 . S
O444 Zn442 1.932 . S
O444 C454 1.307 . S
O445 Zn438 1.919 . S
O445 C456 1.253 . S
O446 Zn440 1.941 1_556 S
O446 C456 1.283 1_556 S
O447 Zn440 1.965 1_556 S
O447 C455 1.303 . S
O448 Zn441 1.938 . S
O448 C455 1.247 . S
O449 Zn441 1.906 . S
O449 C457 1.304 1_556 S
O450 Zn438 1.924 . S
O450 C458 1.311 . S
O451 Zn442 1.977 . S
O451 C457 1.272 . S
O452 Zn442 1.910 . S
O452 C458 1.231 . S
C453 O437 1.225 . S
C453 O459 1.298 . S
C454 O443 1.226 . S
C454 O444 1.307 . S
C455 O447 1.303 . S
C455 O448 1.247 . S
C456 O445 1.253 . S
C456 O446 1.283 1_554 S
C457 O449 1.304 1_554 S
C457 O451 1.272 . S
C458 O450 1.311 . S
C458 O452 1.231 . S
O459 Zn441 1.953 . S
O459 C453 1.298 . S
O460 Zn461 1.953 1_556 S
O460 C476 1.225 . S
Zn461 O460 1.953 1_554 S
Zn461 O462 1.949 . S
Zn461 O468 1.919 . S
Zn461 O473 1.924 . S
O462 Zn461 1.949 . S
O462 Zn463 1.923 . S
O462 Zn464 1.950 1_554 S
O462 Zn465 1.945 . S
Zn463 O462 1.923 . S
Zn463 O466 1.933 . S
Zn463 O469 1.941 1_554 S
Zn463 O470 1.965 1_554 S
Zn464 O462 1.950 1_556 S
Zn464 O471 1.938 . S
Zn464 O472 1.906 . S
Zn464 O482 1.953 . S
Zn465 O462 1.945 . S
Zn465 O467 1.932 . S
Zn465 O474 1.977 . S
Zn465 O475 1.910 . S
O466 Zn463 1.933 . S
O466 C477 1.226 . S
O467 Zn465 1.932 . S
O467 C477 1.307 . S
O468 Zn461 1.919 . S
O468 C479 1.253 . S
O469 Zn463 1.941 1_556 S
O469 C479 1.283 1_556 S
O470 Zn463 1.965 1_556 S
O470 C478 1.303 . S
O471 Zn464 1.938 . S
O471 C478 1.247 . S
O472 Zn464 1.906 . S
O472 C480 1.304 1_556 S
O473 Zn461 1.924 . S
O473 C481 1.311 . S
O474 Zn465 1.977 . S
O474 C480 1.272 . S
O475 Zn465 1.910 . S
O475 C481 1.231 . S
C476 O460 1.225 . S
C476 O482 1.298 . S
C477 O466 1.226 . S
C477 O467 1.307 . S
C478 O470 1.303 . S
C478 O471 1.247 . S
C479 O468 1.253 . S
C479 O469 1.283 1_554 S
C480 O472 1.304 1_554 S
C480 O474 1.272 . S
C481 O473 1.311 . S
C481 O475 1.231 . S
O482 Zn464 1.953 . S
O482 C476 1.298 . S
O483 Zn484 1.953 . S
O483 C499 1.225 . S
Zn484 O483 1.953 . S
Zn484 O485 1.949 . S
Zn484 O491 1.919 . S
Zn484 O496 1.924 1_554 S
O485 Zn484 1.949 . S
O485 Zn486 1.923 . S
O485 Zn487 1.950 . S
O485 Zn488 1.945 1_554 S
Zn486 O485 1.923 . S
Zn486 O489 1.933 1_554 S
Zn486 O492 1.941 . S
Zn486 O493 1.965 . S
Zn487 O485 1.950 . S
Zn487 O494 1.938 . S
Zn487 O495 1.906 . S
Zn487 O505 1.953 . S
Zn488 O485 1.945 1_556 S
Zn488 O490 1.932 . S
Zn488 O497 1.977 . S
Zn488 O498 1.910 . S
O489 Zn486 1.933 1_556 S
O489 C500 1.226 . S
O490 Zn488 1.932 . S
O490 C500 1.307 . S
O491 Zn484 1.919 . S
O491 C502 1.253 . S
O492 Zn486 1.941 . S
O492 C502 1.283 . S
O493 Zn486 1.965 . S
O493 C501 1.303 . S
O494 Zn487 1.938 . S
O494 C501 1.247 . S
O495 Zn487 1.906 . S
O495 C503 1.304 . S
O496 Zn484 1.924 1_556 S
O496 C504 1.311 . S
O497 Zn488 1.977 . S
O497 C503 1.271 1_556 S
O498 Zn488 1.910 . S
O498 C504 1.231 . S
C499 O483 1.225 . S
C499 O505 1.298 . S
C500 O489 1.226 . S
C500 O490 1.307 . S
C501 O493 1.303 . S
C501 O494 1.247 . S
C502 O491 1.253 . S
C502 O492 1.283 . S
C503 O495 1.304 . S
C503 O497 1.271 1_554 S
C504 O496 1.311 . S
C504 O498 1.231 . S
O505 Zn487 1.953 . S
O505 C499 1.298 . S
O506 Zn507 1.953 . S
O506 C522 1.225 . S
Zn507 O506 1.953 . S
Zn507 O508 1.949 . S
Zn507 O514 1.919 . S
Zn507 O519 1.924 1_554 S
O508 Zn507 1.949 . S
O508 Zn509 1.923 . S
O508 Zn510 1.950 . S
O508 Zn511 1.945 1_554 S
Zn509 O508 1.923 . S
Zn509 O512 1.933 1_554 S
Zn509 O515 1.941 . S
Zn509 O516 1.965 . S
Zn510 O508 1.950 . S
Zn510 O517 1.938 . S
Zn510 O518 1.906 . S
Zn510 O528 1.953 . S
Zn511 O508 1.945 1_556 S
Zn511 O513 1.932 . S
Zn511 O520 1.977 . S
Zn511 O521 1.910 . S
O512 Zn509 1.933 1_556 S
O512 C523 1.226 . S
O513 Zn511 1.932 . S
O513 C523 1.307 . S
O514 Zn507 1.919 . S
O514 C525 1.253 . S
O515 Zn509 1.941 . S
O515 C525 1.283 . S
O516 Zn509 1.965 . S
O516 C524 1.303 . S
O517 Zn510 1.938 . S
O517 C524 1.247 . S
O518 Zn510 1.906 . S
O518 C526 1.308 . S
O519 Zn507 1.924 1_556 S
O519 C527 1.311 . S
O520 Zn511 1.977 . S
O520 C526 1.268 1_556 S
O521 Zn511 1.910 . S
O521 C527 1.231 . S
C522 O506 1.225 . S
C522 O528 1.298 . S
C523 O512 1.226 . S
C523 O513 1.307 . S
C524 O516 1.303 . S
C524 O517 1.247 . S
C525 O514 1.253 . S
C525 O515 1.283 . S
C526 O518 1.308 . S
C526 O520 1.268 1_554 S
C527 O519 1.311 . S
C527 O521 1.231 . S
O528 Zn510 1.953 . S
O528 C522 1.298 . S
O529 Zn530 1.953 . S
O529 C545 1.225 . S
Zn530 O529 1.953 . S
Zn530 O531 1.949 . S
Zn530 O537 1.919 . S
Zn530 O542 1.924 1_554 S
O531 Zn530 1.949 . S
O531 Zn532 1.923 . S
O531 Zn533 1.950 . S
O531 Zn534 1.945 1_554 S
Zn532 O531 1.923 . S
Zn532 O535 1.933 1_554 S
Zn532 O538 1.941 . S
Zn532 O539 1.965 . S
Zn533 O531 1.950 . S
Zn533 O540 1.938 . S
Zn533 O541 1.906 . S
Zn533 O551 1.953 . S
Zn534 O531 1.945 1_556 S
Zn534 O536 1.932 . S
Zn534 O543 1.977 . S
Zn534 O544 1.910 . S
O535 Zn532 1.933 1_556 S
O535 C546 1.226 . S
O536 Zn534 1.932 . S
O536 C546 1.307 . S
O537 Zn530 1.919 . S
O537 C548 1.253 . S
O538 Zn532 1.941 . S
O538 C548 1.283 . S
O539 Zn532 1.965 . S
O539 C547 1.303 . S
O540 Zn533 1.938 . S
O540 C547 1.247 . S
O541 Zn533 1.906 . S
O541 C549 1.302 . S
O542 Zn530 1.924 1_556 S
O542 C550 1.311 . S
O543 Zn534 1.977 . S
O543 C549 1.274 1_556 S
O544 Zn534 1.910 . S
O544 C550 1.231 . S
C545 O529 1.225 . S
C545 O551 1.298 . S
C546 O535 1.226 . S
C546 O536 1.307 . S
C547 O539 1.303 . S
C547 O540 1.247 . S
C548 O537 1.253 . S
C548 O538 1.283 . S
C549 O541 1.302 . S
C549 O543 1.274 1_554 S
C550 O542 1.311 . S
C550 O544 1.231 . S
O551 Zn533 1.953 . S
O551 C545 1.298 . S
O552 Zn553 1.953 . S
O552 C568 1.225 . S
Zn553 O552 1.953 . S
Zn553 O554 1.949 . S
Zn553 O560 1.919 . S
Zn553 O565 1.924 . S
O554 Zn553 1.949 . S
O554 Zn555 1.923 . S
O554 Zn556 1.950 . S
O554 Zn557 1.945 . S
Zn555 O554 1.923 . S
Zn555 O558 1.933 . S
Zn555 O561 1.941 . S
Zn555 O562 1.965 . S
Zn556 O554 1.950 . S
Zn556 O563 1.938 . S
Zn556 O564 1.906 . S
Zn556 O574 1.953 . S
Zn557 O554 1.945 . S
Zn557 O559 1.932 . S
Zn557 O566 1.977 . S
Zn557 O567 1.910 . S
O558 Zn555 1.933 . S
O558 C569 1.226 . S
O559 Zn557 1.932 . S
O559 C569 1.307 . S
O560 Zn553 1.919 . S
O560 C571 1.253 . S
O561 Zn555 1.941 . S
O561 C571 1.283 . S
O562 Zn555 1.965 . S
O562 C570 1.303 . S
O563 Zn556 1.938 . S
O563 C570 1.247 . S
O564 Zn556 1.906 . S
O564 C572 1.304 . S
O565 Zn553 1.924 . S
O565 C573 1.311 . S
O566 Zn557 1.977 . S
O566 C572 1.272 . S
O567 Zn557 1.910 . S
O567 C573 1.231 . S
C568 O552 1.225 . S
C568 O574 1.298 . S
C569 O558 1.226 . S
C569 O559 1.307 . S
C570 O562 1.303 . S
C570 O563 1.247 . S
C571 O560 1.253 . S
C571 O561 1.283 . S
C572 O564 1.304 . S
C572 O566 1.272 . S
C573 O565 1.311 . S
C573 O567 1.231 . S
O574 Zn556 1.953 . S
O574 C568 1.298 . S
O575 Zn576 1.953 . S
O575 C591 1.225 . S
Zn576 O575 1.953 . S
Zn576 O577 1.949 . S
Zn576 O583 1.919 . S
Zn576 O588 1.924 . S
O577 Zn576 1.949 . S
O577 Zn578 1.923 . S
O577 Zn579 1.950 . S
O577 Zn580 1.945 . S
Zn578 O577 1.923 . S
Zn578 O581 1.933 . S
Zn578 O584 1.941 . S
Zn578 O585 1.965 . S
Zn579 O577 1.950 . S
Zn579 O586 1.938 . S
Zn579 O587 1.906 . S
Zn579 O597 1.953 . S
Zn580 O577 1.945 . S
Zn580 O582 1.932 . S
Zn580 O589 1.977 . S
Zn580 O590 1.910 . S
O581 Zn578 1.933 . S
O581 C592 1.226 . S
O582 Zn580 1.932 . S
O582 C592 1.307 . S
O583 Zn576 1.919 . S
O583 C594 1.253 . S
O584 Zn578 1.941 . S
O584 C594 1.283 . S
O585 Zn578 1.965 . S
O585 C593 1.303 . S
O586 Zn579 1.938 . S
O586 C593 1.247 . S
O587 Zn579 1.906 . S
O587 C595 1.304 . S
O588 Zn576 1.924 . S
O588 C596 1.311 . S
O589 Zn580 1.977 . S
O589 C595 1.272 . S
O590 Zn580 1.910 . S
O590 C596 1.231 . S
C591 O575 1.225 . S
C591 O597 1.298 . S
C592 O581 1.226 . S
C592 O582 1.307 . S
C593 O585 1.303 . S
C593 O586 1.247 . S
C594 O583 1.253 . S
C594 O584 1.283 . S
C595 O587 1.304 . S
C595 O589 1.272 . S
C596 O588 1.311 . S
C596 O590 1.231 . S
O597 Zn579 1.953 . S
O597 C591 1.298 . S
O598 Zn599 1.953 . S
O598 C614 1.225 . S
Zn599 O598 1.953 . S
Zn599 O600 1.949 . S
Zn599 O606 1.919 . S
Zn599 O611 1.924 . S
O600 Zn599 1.949 . S
O600 Zn601 1.923 . S
O600 Zn602 1.950 . S
O600 Zn603 1.945 . S
Zn601 O600 1.923 . S
Zn601 O604 1.933 . S
Zn601 O607 1.941 . S
Zn601 O608 1.965 . S
Zn602 O600 1.950 . S
Zn602 O609 1.938 . S
Zn602 O610 1.906 . S
Zn602 O620 1.953 . S
Zn603 O600 1.945 . S
Zn603 O605 1.932 . S
Zn603 O612 1.977 . S
Zn603 O613 1.910 . S
O604 Zn601 1.933 . S
O604 C615 1.226 . S
O605 Zn603 1.932 . S
O605 C615 1.307 . S
O606 Zn599 1.919 . S
O606 C617 1.253 . S
O607 Zn601 1.941 . S
O607 C617 1.283 . S
O608 Zn601 1.965 . S
O608 C616 1.303 . S
O609 Zn602 1.938 . S
O609 C616 1.247 . S
O610 Zn602 1.906 . S
O610 C618 1.304 . S
O611 Zn599 1.924 . S
O611 C619 1.311 . S
O612 Zn603 1.977 . S
O612 C618 1.272 . S
O613 Zn603 1.910 . S
O613 C619 1.231 . S
C614 O598 1.225 . S
C614 O620 1.298 . S
C615 O604 1.226 . S
C615 O605 1.307 . S
C616 O608 1.303 . S
C616 O609 1.247 . S
C617 O606 1.253 . S
C617 O607 1.283 . S
C618 O610 1.304 . S
C618 O612 1.272 . S
C619 O611 1.311 . S
C619 O613 1.231 . S
O620 Zn602 1.953 . S
O620 C614 1.298 . S
O621 Zn622 1.953 . S
O621 C637 1.225 . S
Zn622 O621 1.953 . S
Zn622 O623 1.949 . S
Zn622 O629 1.919 . S
Zn622 O634 1.924 . S
O623 Zn622 1.949 . S
O623 Zn624 1.923 . S
O623 Zn625 1.950 . S
O623 Zn626 1.945 . S
Zn624 O623 1.923 . S
Zn624 O627 1.933 . S
Zn624 O630 1.941 . S
Zn624 O631 1.965 . S
Zn625 O623 1.950 . S
Zn625 O632 1.938 . S
Zn625 O633 1.906 . S
Zn625 O643 1.953 . S
Zn626 O623 1.945 . S
Zn626 O628 1.932 . S
Zn626 O635 1.977 . S
Zn626 O636 1.910 . S
O627 Zn624 1.933 . S
O627 C638 1.226 . S
O628 Zn626 1.932 . S
O628 C638 1.307 . S
O629 Zn622 1.919 . S
O629 C640 1.253 . S
O630 Zn624 1.941 . S
O630 C640 1.283 . S
O631 Zn624 1.965 . S
O631 C639 1.303 . S
O632 Zn625 1.938 . S
O632 C639 1.247 . S
O633 Zn625 1.906 . S
O633 C641 1.304 . S
O634 Zn622 1.924 . S
O634 C642 1.311 . S
O635 Zn626 1.977 . S
O635 C641 1.272 . S
O636 Zn626 1.910 . S
O636 C642 1.231 . S
C637 O621 1.225 . S
C637 O643 1.298 . S
C638 O627 1.226 . S
C638 O628 1.307 . S
C639 O631 1.303 . S
C639 O632 1.247 . S
C640 O629 1.253 . S
C640 O630 1.283 . S
C641 O633 1.304 . S
C641 O635 1.272 . S
C642 O634 1.311 . S
C642 O636 1.231 . S
O643 Zn625 1.953 . S
O643 C637 1.298 . S
O644 Zn645 1.953 . S
O644 C660 1.225 . S
Zn645 O644 1.953 . S
Zn645 O646 1.949 . S
Zn645 O652 1.919 . S
Zn645 O657 1.924 . S
O646 Zn645 1.949 . S
O646 Zn647 1.923 . S
O646 Zn648 1.950 . S
O646 Zn649 1.945 . S
Zn647 O646 1.923 . S
Zn647 O650 1.933 . S
Zn647 O653 1.941 . S
Zn647 O654 1.965 . S
Zn648 O646 1.950 . S
Zn648 O655 1.938 . S
Zn648 O656 1.906 . S
Zn648 O666 1.953 . S
Zn649 O646 1.945 . S
Zn649 O651 1.932 . S
Zn649 O658 1.977 . S
Zn649 O659 1.910 . S
O650 Zn647 1.933 . S
O650 C661 1.226 . S
O651 Zn649 1.932 . S
O651 C661 1.307 . S
O652 Zn645 1.919 . S
O652 C663 1.253 . S
O653 Zn647 1.941 . S
O653 C663 1.283 . S
O654 Zn647 1.965 . S
O654 C662 1.303 . S
O655 Zn648 1.938 . S
O655 C662 1.247 . S
O656 Zn648 1.906 . S
O656 C664 1.304 . S
O657 Zn645 1.924 . S
O657 C665 1.311 . S
O658 Zn649 1.977 . S
O658 C664 1.272 . S
O659 Zn649 1.910 . S
O659 C665 1.231 . S
C660 O644 1.225 . S
C660 O666 1.298 . S
C661 O650 1.226 . S
C661 O651 1.307 . S
C662 O654 1.303 . S
C662 O655 1.247 . S
C663 O652 1.253 . S
C663 O653 1.283 . S
C664 O656 1.304 . S
C664 O658 1.272 . S
C665 O657 1.311 . S
C665 O659 1.231 . S
O666 Zn648 1.953 . S
O666 C660 1.298 . S
O667 Zn668 1.953 . S
O667 C683 1.225 . S
Zn668 O667 1.953 . S
Zn668 O669 1.949 . S
Zn668 O675 1.919 . S
Zn668 O680 1.924 . S
O669 Zn668 1.949 . S
O669 Zn670 1.923 . S
O669 Zn671 1.950 . S
O669 Zn672 1.945 . S
Zn670 O669 1.923 . S
Zn670 O673 1.933 . S
Zn670 O676 1.941 . S
Zn670 O677 1.965 . S
Zn671 O669 1.950 . S
Zn671 O678 1.938 . S
Zn671 O679 1.906 . S
Zn671 O689 1.953 . S
Zn672 O669 1.945 . S
Zn672 O674 1.932 . S
Zn672 O681 1.977 . S
Zn672 O682 1.910 . S
O673 Zn670 1.933 . S
O673 C684 1.226 . S
O674 Zn672 1.932 . S
O674 C684 1.307 . S
O675 Zn668 1.919 . S
O675 C686 1.253 . S
O676 Zn670 1.941 . S
O676 C686 1.283 . S
O677 Zn670 1.965 . S
O677 C685 1.303 . S
O678 Zn671 1.938 . S
O678 C685 1.247 . S
O679 Zn671 1.906 . S
O679 C687 1.304 . S
O680 Zn668 1.924 . S
O680 C688 1.311 . S
O681 Zn672 1.977 . S
O681 C687 1.272 . S
O682 Zn672 1.910 . S
O682 C688 1.231 . S
C683 O667 1.225 . S
C683 O689 1.298 . S
C684 O673 1.226 . S
C684 O674 1.307 . S
C685 O677 1.303 . S
C685 O678 1.247 . S
C686 O675 1.253 . S
C686 O676 1.283 . S
C687 O679 1.304 . S
C687 O681 1.272 . S
C688 O680 1.311 . S
C688 O682 1.231 . S
O689 Zn671 1.953 . S
O689 C683 1.298 . S
O690 Zn691 1.953 . S
O690 C706 1.225 . S
Zn691 O690 1.953 . S
Zn691 O692 1.949 . S
Zn691 O698 1.919 . S
Zn691 O703 1.924 . S
O692 Zn691 1.949 . S
O692 Zn693 1.923 . S
O692 Zn694 1.950 . S
O692 Zn695 1.945 . S
Zn693 O692 1.923 . S
Zn693 O696 1.933 . S
Zn693 O699 1.941 . S
Zn693 O700 1.965 . S
Zn694 O692 1.950 . S
Zn694 O701 1.938 . S
Zn694 O702 1.906 . S
Zn694 O712 1.953 . S
Zn695 O692 1.945 . S
Zn695 O697 1.932 . S
Zn695 O704 1.977 . S
Zn695 O705 1.910 . S
O696 Zn693 1.933 . S
O696 C707 1.226 . S
O697 Zn695 1.932 . S
O697 C707 1.307 . S
O698 Zn691 1.919 . S
O698 C709 1.253 . S
O699 Zn693 1.941 . S
O699 C709 1.283 . S
O700 Zn693 1.965 . S
O700 C708 1.303 . S
O701 Zn694 1.938 . S
O701 C708 1.247 . S
O702 Zn694 1.906 . S
O702 C710 1.304 . S
O703 Zn691 1.924 . S
O703 C711 1.311 . S
O704 Zn695 1.977 . S
O704 C710 1.272 . S
O705 Zn695 1.910 . S
O705 C711 1.231 . S
C706 O690 1.225 . S
C706 O712 1.298 . S
C707 O696 1.226 . S
C707 O697 1.307 . S
C708 O700 1.303 . S
C708 O701 1.247 . S
C709 O698 1.253 . S
C709 O699 1.283 . S
C710 O702 1.304 . S
C710 O704 1.272 . S
C711 O703 1.311 . S
C711 O705 1.231 . S
O712 Zn694 1.953 . S
O712 C706 1.298 . S
O713 Zn714 1.953 . S
O713 C729 1.225 . S
Zn714 O713 1.953 . S
Zn714 O715 1.949 . S
Zn714 O721 1.919 . S
Zn714 O726 1.924 . S
O715 Zn714 1.949 . S
O715 Zn716 1.923 . S
O715 Zn717 1.950 . S
O715 Zn718 1.945 . S
Zn716 O715 1.923 . S
Zn716 O719 1.933 . S
Zn716 O722 1.941 . S
Zn716 O723 1.965 . S
Zn717 O715 1.950 . S
Zn717 O724 1.938 . S
Zn717 O725 1.906 . S
Zn717 O735 1.953 . S
Zn718 O715 1.945 . S
Zn718 O720 1.932 . S
Zn718 O727 1.977 . S
Zn718 O728 1.910 . S
O719 Zn716 1.933 . S
O719 C730 1.226 . S
O720 Zn718 1.932 . S
O720 C730 1.307 . S
O721 Zn714 1.919 . S
O721 C732 1.253 . S
O722 Zn716 1.941 . S
O722 C732 1.283 . S
O723 Zn716 1.965 . S
O723 C731 1.303 . S
O724 Zn717 1.938 . S
O724 C731 1.247 . S
O725 Zn717 1.906 . S
O725 C733 1.304 . S
O726 Zn714 1.924 . S
O726 C734 1.311 . S
O727 Zn718 1.977 . S
O727 C733 1.272 . S
O728 Zn718 1.910 . S
O728 C734 1.231 . S
C729 O713 1.225 . S
C729 O735 1.298 . S
C730 O719 1.226 . S
C730 O720 1.307 . S
C731 O723 1.303 . S
C731 O724 1.247 . S
C732 O721 1.253 . S
C732 O722 1.283 . S
C733 O725 1.304 . S
C733 O727 1.272 . S
C734 O726 1.311 . S
C734 O728 1.231 . S
O735 Zn717 1.953 . S
O735 C729 1.298 . S
O736 Zn737 1.953 . S
O736 C752 1.225 . S
Zn737 O736 1.953 . S
Zn737 O738 1.949 . S
Zn737 O744 1.919 . S
Zn737 O749 1.924 . S
O738 Zn737 1.949 . S
O738 Zn739 1.923 . S
O738 Zn740 1.950 . S
O738 Zn741 1.945 . S
Zn739 O738 1.923 . S
Zn739 O742 1.933 . S
Zn739 O745 1.941 . S
Zn739 O746 1.965 . S
Zn740 O738 1.950 . S
Zn740 O747 1.938 . S
Zn740 O748 1.906 . S
Zn740 O758 1.953 . S
Zn741 O738 1.945 . S
Zn741 O743 1.932 . S
Zn741 O750 1.977 . S
Zn741 O751 1.910 . S
O742 Zn739 1.933 . S
O742 C753 1.226 . S
O743 Zn741 1.932 . S
O743 C753 1.307 . S
O744 Zn737 1.919 . S
O744 C755 1.253 . S
O745 Zn739 1.941 . S
O745 C755 1.283 . S
O746 Zn739 1.965 . S
O746 C754 1.303 . S
O747 Zn740 1.938 . S
O747 C754 1.247 . S
O748 Zn740 1.906 . S
O748 C756 1.304 . S
O749 Zn737 1.924 . S
O749 C757 1.311 . S
O750 Zn741 1.977 . S
O750 C756 1.272 . S
O751 Zn741 1.910 . S
O751 C757 1.231 . S
C752 O736 1.225 . S
C752 O758 1.298 . S
C753 O742 1.226 . S
C753 O743 1.307 . S
C754 O746 1.303 . S
C754 O747 1.247 . S
C755 O744 1.253 . S
C755 O745 1.283 . S
C756 O748 1.304 . S
C756 O750 1.272 . S
C757 O749 1.311 . S
C757 O751 1.231 . S
O758 Zn740 1.953 . S
O758 C752 1.298 . S
O759 Zn760 1.953 . S
O759 C775 1.225 . S
Zn760 O759 1.953 . S
Zn760 O761 1.949 . S
Zn760 O767 1.919 . S
Zn760 O772 1.924 . S
O761 Zn760 1.949 . S
O761 Zn762 1.923 . S
O761 Zn763 1.950 . S
O761 Zn764 1.945 . S
Zn762 O761 1.923 . S
Zn762 O765 1.933 . S
Zn762 O768 1.941 . S
Zn762 O769 1.965 . S
Zn763 O761 1.950 . S
Zn763 O770 1.938 . S
Zn763 O771 1.906 . S
Zn763 O781 1.953 . S
Zn764 O761 1.945 . S
Zn764 O766 1.932 . S
Zn764 O773 1.977 . S
Zn764 O774 1.910 . S
O765 Zn762 1.933 . S
O765 C776 1.226 . S
O766 Zn764 1.932 . S
O766 C776 1.307 . S
O767 Zn760 1.919 . S
O767 C778 1.253 . S
O768 Zn762 1.941 . S
O768 C778 1.283 . S
O769 Zn762 1.965 . S
O769 C777 1.303 . S
O770 Zn763 1.938 . S
O770 C777 1.247 . S
O771 Zn763 1.906 . S
O771 C779 1.304 . S
O772 Zn760 1.924 . S
O772 C780 1.311 . S
O773 Zn764 1.977 . S
O773 C779 1.272 . S
O774 Zn764 1.910 . S
O774 C780 1.231 . S
C775 O759 1.225 . S
C775 O781 1.298 . S
C776 O765 1.226 . S
C776 O766 1.307 . S
C777 O769 1.303 . S
C777 O770 1.247 . S
C778 O767 1.253 . S
C778 O768 1.283 . S
C779 O771 1.304 . S
C779 O773 1.272 . S
C780 O772 1.311 . S
C780 O774 1.231 . S
O781 Zn763 1.953 . S
O781 C775 1.298 . S
O782 Zn783 1.953 . S
O782 C798 1.225 . S
Zn783 O782 1.953 . S
Zn783 O784 1.949 . S
Zn783 O790 1.919 . S
Zn783 O795 1.924 . S
O784 Zn783 1.949 . S
O784 Zn785 1.923 . S
O784 Zn786 1.950 . S
O784 Zn787 1.945 . S
Zn785 O784 1.923 . S
Zn785 O788 1.933 . S
Zn785 O791 1.941 . S
Zn785 O792 1.965 . S
Zn786 O784 1.950 . S
Zn786 O793 1.938 . S
Zn786 O794 1.906 . S
Zn786 O804 1.953 . S
Zn787 O784 1.945 . S
Zn787 O789 1.932 . S
Zn787 O796 1.977 . S
Zn787 O797 1.910 . S
O788 Zn785 1.933 . S
O788 C799 1.226 . S
O789 Zn787 1.932 . S
O789 C799 1.307 . S
O790 Zn783 1.919 . S
O790 C801 1.253 . S
O791 Zn785 1.941 . S
O791 C801 1.283 . S
O792 Zn785 1.965 . S
O792 C800 1.303 . S
O793 Zn786 1.938 . S
O793 C800 1.247 . S
O794 Zn786 1.906 . S
O794 C802 1.304 . S
O795 Zn783 1.924 . S
O795 C803 1.311 . S
O796 Zn787 1.977 . S
O796 C802 1.272 . S
O797 Zn787 1.910 . S
O797 C803 1.231 . S
C798 O782 1.225 . S
C798 O804 1.298 . S
C799 O788 1.226 . S
C799 O789 1.307 . S
C800 O792 1.303 . S
C800 O793 1.247 . S
C801 O790 1.253 . S
C801 O791 1.283 . S
C802 O794 1.304 . S
C802 O796 1.272 . S
C803 O795 1.311 . S
C803 O797 1.231 . S
O804 Zn786 1.953 . S
O804 C798 1.298 . S
O805 Zn806 1.953 . S
O805 C821 1.225 . S
Zn806 O805 1.953 . S
Zn806 O807 1.949 . S
Zn806 O813 1.919 . S
Zn806 O818 1.924 . S
O807 Zn806 1.949 . S
O807 Zn808 1.923 . S
O807 Zn809 1.950 . S
O807 Zn810 1.945 . S
Zn808 O807 1.923 . S
Zn808 O811 1.933 . S
Zn808 O814 1.941 . S
Zn808 O815 1.965 . S
Zn809 O807 1.950 . S
Zn809 O816 1.938 . S
Zn809 O817 1.906 . S
Zn809 O827 1.953 . S
Zn810 O807 1.945 . S
Zn810 O812 1.932 . S
Zn810 O819 1.977 . S
Zn810 O820 1.910 . S
O811 Zn808 1.933 . S
O811 C822 1.226 . S
O812 Zn810 1.932 . S
O812 C822 1.307 . S
O813 Zn806 1.919 . S
O813 C824 1.253 . S
O814 Zn808 1.941 . S
O814 C824 1.283 . S
O815 Zn808 1.965 . S
O815 C823 1.303 . S
O816 Zn809 1.938 . S
O816 C823 1.247 . S
O817 Zn809 1.906 . S
O817 C825 1.304 . S
O818 Zn806 1.924 . S
O818 C826 1.311 . S
O819 Zn810 1.977 . S
O819 C825 1.272 . S
O820 Zn810 1.910 . S
O820 C826 1.231 . S
C821 O805 1.225 . S
C821 O827 1.298 . S
C822 O811 1.226 . S
C822 O812 1.307 . S
C823 O815 1.303 . S
C823 O816 1.247 . S
C824 O813 1.253 . S
C824 O814 1.283 . S
C825 O817 1.304 . S
C825 O819 1.272 . S
C826 O818 1.311 . S
C826 O820 1.231 . S
O827 Zn809 1.953 . S
O827 C821 1.298 . S
O828 Zn829 1.953 . S
O828 C844 1.225 . S
Zn829 O828 1.953 . S
Zn829 O830 1.949 . S
Zn829 O836 1.919 . S
Zn829 O841 1.924 . S
O830 Zn829 1.949 . S
O830 Zn831 1.923 . S
O830 Zn832 1.950 . S
O830 Zn833 1.945 . S
Zn831 O830 1.923 . S
Zn831 O834 1.933 . S
Zn831 O837 1.941 . S
Zn831 O838 1.965 . S
Zn832 O830 1.950 . S
Zn832 O839 1.938 . S
Zn832 O840 1.906 . S
Zn832 O850 1.953 . S
Zn833 O830 1.945 . S
Zn833 O835 1.932 . S
Zn833 O842 1.977 . S
Zn833 O843 1.910 . S
O834 Zn831 1.933 . S
O834 C845 1.226 . S
O835 Zn833 1.932 . S
O835 C845 1.307 . S
O836 Zn829 1.919 . S
O836 C847 1.253 . S
O837 Zn831 1.941 . S
O837 C847 1.283 . S
O838 Zn831 1.965 . S
O838 C846 1.303 . S
O839 Zn832 1.938 . S
O839 C846 1.247 . S
O840 Zn832 1.906 . S
O840 C848 1.304 . S
O841 Zn829 1.924 . S
O841 C849 1.311 . S
O842 Zn833 1.977 . S
O842 C848 1.272 . S
O843 Zn833 1.910 . S
O843 C849 1.231 . S
C844 O828 1.225 . S
C844 O850 1.298 . S
C845 O834 1.226 . S
C845 O835 1.307 . S
C846 O838 1.303 . S
C846 O839 1.247 . S
C847 O836 1.253 . S
C847 O837 1.283 . S
C848 O840 1.304 . S
C848 O842 1.272 . S
C849 O841 1.311 . S
C849 O843 1.231 . S
O850 Zn832 1.953 . S
O850 C844 1.298 . S
O851 Zn852 1.953 . S
O851 C867 1.225 . S
Zn852 O851 1.953 . S
Zn852 O853 1.949 . S
Zn852 O859 1.919 . S
Zn852 O864 1.924 . S
O853 Zn852 1.949 . S
O853 Zn854 1.923 . S
O853 Zn855 1.950 . S
O853 Zn856 1.945 . S
Zn854 O853 1.923 . S
Zn854 O857 1.933 . S
Zn854 O860 1.941 . S
Zn854 O861 1.965 . S
Zn855 O853 1.950 . S
Zn855 O862 1.938 . S
Zn855 O863 1.906 . S
Zn855 O873 1.953 . S
Zn856 O853 1.945 . S
Zn856 O858 1.932 . S
Zn856 O865 1.977 . S
Zn856 O866 1.910 . S
O857 Zn854 1.933 . S
O857 C868 1.226 . S
O858 Zn856 1.932 . S
O858 C868 1.307 . S
O859 Zn852 1.919 . S
O859 C870 1.253 . S
O860 Zn854 1.941 . S
O860 C870 1.283 . S
O861 Zn854 1.965 . S
O861 C869 1.303 . S
O862 Zn855 1.938 . S
O862 C869 1.247 . S
O863 Zn855 1.906 . S
O863 C871 1.304 . S
O864 Zn852 1.924 . S
O864 C872 1.311 . S
O865 Zn856 1.977 . S
O865 C871 1.272 . S
O866 Zn856 1.910 . S
O866 C872 1.231 . S
C867 O851 1.225 . S
C867 O873 1.298 . S
C868 O857 1.226 . S
C868 O858 1.307 . S
C869 O861 1.303 . S
C869 O862 1.247 . S
C870 O859 1.253 . S
C870 O860 1.283 . S
C871 O863 1.304 . S
C871 O865 1.272 . S
C872 O864 1.311 . S
C872 O866 1.231 . S
O873 Zn855 1.953 . S
O873 C867 1.298 . S
O874 Zn875 1.953 . S
O874 C890 1.225 . S
Zn875 O874 1.953 . S
Zn875 O876 1.949 . S
Zn875 O882 1.919 . S
Zn875 O887 1.924 . S
O876 Zn875 1.949 . S
O876 Zn877 1.923 . S
O876 Zn878 1.950 . S
O876 Zn879 1.945 . S
Zn877 O876 1.923 . S
Zn877 O880 1.933 . S
Zn877 O883 1.941 . S
Zn877 O884 1.965 . S
Zn878 O876 1.950 . S
Zn878 O885 1.938 . S
Zn878 O886 1.906 . S
Zn878 O896 1.953 . S
Zn879 O876 1.945 . S
Zn879 O881 1.932 . S
Zn879 O888 1.977 . S
Zn879 O889 1.910 . S
O880 Zn877 1.933 . S
O880 C891 1.226 . S
O881 Zn879 1.932 . S
O881 C891 1.307 . S
O882 Zn875 1.919 . S
O882 C893 1.253 . S
O883 Zn877 1.941 . S
O883 C893 1.283 . S
O884 Zn877 1.965 . S
O884 C892 1.303 . S
O885 Zn878 1.938 . S
O885 C892 1.247 . S
O886 Zn878 1.906 . S
O886 C894 1.304 . S
O887 Zn875 1.924 . S
O887 C895 1.311 . S
O888 Zn879 1.977 . S
O888 C894 1.272 . S
O889 Zn879 1.910 . S
O889 C895 1.231 . S
C890 O874 1.225 . S
C890 O896 1.298 . S
C891 O880 1.226 . S
C891 O881 1.307 . S
C892 O884 1.303 . S
C892 O885 1.247 . S
C893 O882 1.253 . S
C893 O883 1.283 . S
C894 O886 1.304 . S
C894 O888 1.272 . S
C895 O887 1.311 . S
C895 O889 1.231 . S
O896 Zn878 1.953 . S
O896 C890 1.298 . S
O897 Zn898 1.953 . S
O897 C913 1.225 . S
Zn898 O897 1.953 . S
Zn898 O899 1.949 . S
Zn898 O905 1.919 . S
Zn898 O910 1.924 . S
O899 Zn898 1.949 . S
O899 Zn900 1.923 . S
O899 Zn901 1.950 . S
O899 Zn902 1.945 . S
Zn900 O899 1.923 . S
Zn900 O903 1.933 . S
Zn900 O906 1.941 . S
Zn900 O907 1.965 . S
Zn901 O899 1.950 . S
Zn901 O908 1.938 . S
Zn901 O909 1.906 . S
Zn901 O919 1.953 . S
Zn902 O899 1.945 . S
Zn902 O904 1.932 . S
Zn902 O911 1.977 . S
Zn902 O912 1.910 . S
O903 Zn900 1.933 . S
O903 C914 1.226 . S
O904 Zn902 1.932 . S
O904 C914 1.307 . S
O905 Zn898 1.919 . S
O905 C916 1.253 . S
O906 Zn900 1.941 . S
O906 C916 1.283 . S
O907 Zn900 1.965 . S
O907 C915 1.303 . S
O908 Zn901 1.938 . S
O908 C915 1.247 . S
O909 Zn901 1.906 . S
O909 C917 1.304 . S
O910 Zn898 1.924 . S
O910 C918 1.311 . S
O911 Zn902 1.977 . S
O911 C917 1.272 . S
O912 Zn902 1.910 . S
O912 C918 1.231 . S
C913 O897 1.225 . S
C913 O919 1.298 . S
C914 O903 1.226 . S
C914 O904 1.307 . S
C915 O907 1.303 . S
C915 O908 1.247 . S
C916 O905 1.253 . S
C916 O906 1.283 . S
C917 O909 1.304 . S
C917 O911 1.272 . S
C918 O910 1.311 . S
C918 O912 1.231 . S
O919 Zn901 1.953 . S
O919 C913 1.298 . S
O920 Zn921 1.953 . S
O920 C936 1.225 . S
Zn921 O920 1.953 . S
Zn921 O922 1.949 . S
Zn921 O928 1.919 . S
Zn921 O933 1.924 . S
O922 Zn921 1.949 . S
O922 Zn923 1.923 . S
O922 Zn924 1.950 . S
O922 Zn925 1.945 . S
Zn923 O922 1.923 . S
Zn923 O926 1.933 . S
Zn923 O929 1.941 . S
Zn923 O930 1.965 . S
Zn924 O922 1.950 . S
Zn924 O931 1.938 . S
Zn924 O932 1.906 . S
Zn924 O942 1.953 . S
Zn925 O922 1.945 . S
Zn925 O927 1.932 . S
Zn925 O934 1.977 . S
Zn925 O935 1.910 . S
O926 Zn923 1.933 . S
O926 C937 1.226 . S
O927 Zn925 1.932 . S
O927 C937 1.307 . S
O928 Zn921 1.919 . S
O928 C939 1.253 . S
O929 Zn923 1.941 . S
O929 C939 1.283 . S
O930 Zn923 1.965 . S
O930 C938 1.303 . S
O931 Zn924 1.938 . S
O931 C938 1.247 . S
O932 Zn924 1.906 . S
O932 C940 1.304 . S
O933 Zn921 1.924 . S
O933 C941 1.311 . S
O934 Zn925 1.977 . S
O934 C940 1.272 . S
O935 Zn925 1.910 . S
O935 C941 1.231 . S
C936 O920 1.225 . S
C936 O942 1.298 . S
C937 O926 1.226 . S
C937 O927 1.307 . S
C938 O930 1.303 . S
C938 O931 1.247 . S
C939 O928 1.253 . S
C939 O929 1.283 . S
C940 O932 1.304 . S
C940 O934 1.272 . S
C941 O933 1.311 . S
C941 O935 1.231 . S
O942 Zn924 1.953 . S
O942 C936 1.298 . S
O943 Zn944 1.953 . S
O943 C959 1.225 . S
Zn944 O943 1.953 . S
Zn944 O945 1.949 . S
Zn944 O951 1.919 . S
Zn944 O956 1.924 . S
O945 Zn944 1.949 . S
O945 Zn946 1.923 . S
O945 Zn947 1.950 . S
O945 Zn948 1.945 . S
Zn946 O945 1.923 . S
Zn946 O949 1.933 . S
Zn946 O952 1.941 . S
Zn946 O953 1.965 . S
Zn947 O945 1.950 . S
Zn947 O954 1.938 . S
Zn947 O955 1.906 . S
Zn947 O965 1.953 . S
Zn948 O945 1.945 . S
Zn948 O950 1.932 . S
Zn948 O957 1.977 . S
Zn948 O958 1.910 . S
O949 Zn946 1.933 . S
O949 C960 1.226 . S
O950 Zn948 1.932 . S
O950 C960 1.307 . S
O951 Zn944 1.919 . S
O951 C962 1.253 . S
O952 Zn946 1.941 . S
O952 C962 1.283 . S
O953 Zn946 1.965 . S
O953 C961 1.303 . S
O954 Zn947 1.938 . S
O954 C961 1.247 . S
O955 Zn947 1.906 . S
O955 C963 1.304 . S
O956 Zn944 1.924 . S
O956 C964 1.311 . S
O957 Zn948 1.977 . S
O957 C963 1.272 . S
O958 Zn948 1.910 . S
O958 C964 1.231 . S
C959 O943 1.225 . S
C959 O965 1.298 . S
C960 O949 1.226 . S
C960 O950 1.307 . S
C961 O953 1.303 . S
C961 O954 1.247 . S
C962 O951 1.253 . S
C962 O952 1.283 . S
C963 O955 1.304 . S
C963 O957 1.272 . S
C964 O956 1.311 . S
C964 O958 1.231 . S
O965 Zn947 1.953 . S
O965 C959 1.298 . S
O966 Zn967 1.953 . S
O966 C982 1.225 . S
Zn967 O966 1.953 . S
Zn967 O968 1.949 . S
Zn967 O974 1.919 . S
Zn967 O979 1.924 . S
O968 Zn967 1.949 . S
O968 Zn969 1.923 . S
O968 Zn970 1.950 . S
O968 Zn971 1.945 . S
Zn969 O968 1.923 . S
Zn969 O972 1.933 . S
Zn969 O975 1.941 . S
Zn969 O976 1.965 . S
Zn970 O968 1.950 . S
Zn970 O977 1.938 . S
Zn970 O978 1.906 . S
Zn970 O988 1.953 . S
Zn971 O968 1.945 . S
Zn971 O973 1.932 . S
Zn971 O980 1.977 . S
Zn971 O981 1.910 . S
O972 Zn969 1.933 . S
O972 C983 1.226 . S
O973 Zn971 1.932 . S
O973 C983 1.307 . S
O974 Zn967 1.919 . S
O974 C985 1.253 . S
O975 Zn969 1.941 . S
O975 C985 1.283 . S
O976 Zn969 1.965 . S
O976 C984 1.303 . S
O977 Zn970 1.938 . S
O977 C984 1.247 . S
O978 Zn970 1.906 . S
O978 C986 1.304 . S
O979 Zn967 1.924 . S
O979 C987 1.311 . S
O980 Zn971 1.977 . S
O980 C986 1.272 . S
O981 Zn971 1.910 . S
O981 C987 1.231 . S
C982 O966 1.225 . S
C982 O988 1.298 . S
C983 O972 1.226 . S
C983 O973 1.307 . S
C984 O976 1.303 . S
C984 O977 1.247 . S
C985 O974 1.253 . S
C985 O975 1.283 . S
C986 O978 1.304 . S
C986 O980 1.272 . S
C987 O979 1.311 . S
C987 O981 1.231 . S
O988 Zn970 1.953 . S
O988 C982 1.298 . S
O989 Zn990 1.953 . S
O989 C1005 1.225 . S
Zn990 O989 1.953 . S
Zn990 O991 1.949 . S
Zn990 O997 1.919 . S
Zn990 O1002 1.924 . S
O991 Zn990 1.949 . S
O991 Zn992 1.923 . S
O991 Zn993 1.950 . S
O991 Zn994 1.945 . S
Zn992 O991 1.923 . S
Zn992 O995 1.933 . S
Zn992 O998 1.941 . S
Zn992 O999 1.965 . S
Zn993 O991 1.950 . S
Zn993 O1000 1.938 . S
Zn993 O1001 1.906 . S
Zn993 O1011 1.953 . S
Zn994 O991 1.945 . S
Zn994 O996 1.932 . S
Zn994 O1003 1.977 . S
Zn994 O1004 1.910 . S
O995 Zn992 1.933 . S
O995 C1006 1.226 . S
O996 Zn994 1.932 . S
O996 C1006 1.307 . S
O997 Zn990 1.919 . S
O997 C1008 1.253 . S
O998 Zn992 1.941 . S
O998 C1008 1.283 . S
O999 Zn992 1.965 . S
O999 C1007 1.303 . S
O1000 Zn993 1.938 . S
O1000 C1007 1.247 . S
O1001 Zn993 1.906 . S
O1001 C1009 1.304 . S
O1002 Zn990 1.924 . S
O1002 C1010 1.311 . S
O1003 Zn994 1.977 . S
O1003 C1009 1.272 . S
O1004 Zn994 1.910 . S
O1004 C1010 1.231 . S
C1005 O989 1.225 . S
C1005 O1011 1.298 . S
C1006 O995 1.226 . S
C1006 O996 1.307 . S
C1007 O999 1.303 . S
C1007 O1000 1.247 . S
C1008 O997 1.253 . S
C1008 O998 1.283 . S
C1009 O1001 1.304 . S
C1009 O1003 1.272 . S
C1010 O1002 1.311 . S
C1010 O1004 1.231 . S
O1011 Zn993 1.953 . S
O1011 C1005 1.298 . S
O1012 Zn1013 1.953 . S
O1012 C1028 1.225 . S
Zn1013 O1012 1.953 . S
Zn1013 O1014 1.949 . S
Zn1013 O1020 1.919 . S
Zn1013 O1025 1.924 . S
O1014 Zn1013 1.949 . S
O1014 Zn1015 1.923 . S
O1014 Zn1016 1.950 . S
O1014 Zn1017 1.945 . S
Zn1015 O1014 1.923 . S
Zn1015 O1018 1.933 . S
Zn1015 O1021 1.941 . S
Zn1015 O1022 1.965 . S
Zn1016 O1014 1.950 . S
Zn1016 O1023 1.938 . S
Zn1016 O1024 1.906 . S
Zn1016 O1034 1.953 . S
Zn1017 O1014 1.945 . S
Zn1017 O1019 1.932 . S
Zn1017 O1026 1.977 . S
Zn1017 O1027 1.910 . S
O1018 Zn1015 1.933 . S
O1018 C1029 1.226 . S
O1019 Zn1017 1.932 . S
O1019 C1029 1.307 . S
O1020 Zn1013 1.919 . S
O1020 C1031 1.253 . S
O1021 Zn1015 1.941 . S
O1021 C1031 1.283 . S
O1022 Zn1015 1.965 . S
O1022 C1030 1.303 . S
O1023 Zn1016 1.938 . S
O1023 C1030 1.247 . S
O1024 Zn1016 1.906 . S
O1024 C1032 1.304 . S
O1025 Zn1013 1.924 . S
O1025 C1033 1.311 . S
O1026 Zn1017 1.977 . S
O1026 C1032 1.272 . S
O1027 Zn1017 1.910 . S
O1027 C1033 1.231 . S
C1028 O1012 1.225 . S
C1028 O1034 1.298 . S
C1029 O1018 1.226 . S
C1029 O1019 1.307 . S
C1030 O1022 1.303 . S
C1030 O1023 1.247 . S
C1031 O1020 1.253 . S
C1031 O1021 1.283 . S
C1032 O1024 1.304 . S
C1032 O1026 1.272 . S
C1033 O1025 1.311 . S
C1033 O1027 1.231 . S
O1034 Zn1016 1.953 . S
O1034 C1028 1.298 . S
O1035 Zn1036 1.953 . S
O1035 C1051 1.225 . S
Zn1036 O1035 1.953 . S
Zn1036 O1037 1.949 . S
Zn1036 O1043 1.919 . S
Zn1036 O1048 1.924 . S
O1037 Zn1036 1.949 . S
O1037 Zn1038 1.923 . S
O1037 Zn1039 1.950 . S
O1037 Zn1040 1.945 . S
Zn1038 O1037 1.923 . S
Zn1038 O1041 1.933 . S
Zn1038 O1044 1.941 . S
Zn1038 O1045 1.965 . S
Zn1039 O1037 1.950 . S
Zn1039 O1046 1.938 . S
Zn1039 O1047 1.906 . S
Zn1039 O1057 1.953 . S
Zn1040 O1037 1.945 . S
Zn1040 O1042 1.932 . S
Zn1040 O1049 1.977 . S
Zn1040 O1050 1.910 . S
O1041 Zn1038 1.933 . S
O1041 C1052 1.226 . S
O1042 Zn1040 1.932 . S
O1042 C1052 1.307 . S
O1043 Zn1036 1.919 . S
O1043 C1054 1.253 . S
O1044 Zn1038 1.941 . S
O1044 C1054 1.283 . S
O1045 Zn1038 1.965 . S
O1045 C1053 1.303 . S
O1046 Zn1039 1.938 . S
O1046 C1053 1.247 . S
O1047 Zn1039 1.906 . S
O1047 C1055 1.304 . S
O1048 Zn1036 1.924 . S
O1048 C1056 1.311 . S
O1049 Zn1040 1.977 . S
O1049 C1055 1.272 . S
O1050 Zn1040 1.910 . S
O1050 C1056 1.231 . S
C1051 O1035 1.225 . S
C1051 O1057 1.298 . S
C1052 O1041 1.226 . S
C1052 O1042 1.307 . S
C1053 O1045 1.303 . S
C1053 O1046 1.247 . S
C1054 O1043 1.253 . S
C1054 O1044 1.283 . S
C1055 O1047 1.304 . S
C1055 O1049 1.272 . S
C1056 O1048 1.311 . S
C1056 O1050 1.231 . S
O1057 Zn1039 1.953 . S
O1057 C1051 1.298 . S
O1058 Zn1059 1.953 . S
O1058 C1074 1.225 . S
Zn1059 O1058 1.953 . S
Zn1059 O1060 1.949 . S
Zn1059 O1066 1.919 . S
Zn1059 O1071 1.924 . S
O1060 Zn1059 1.949 . S
O1060 Zn1061 1.923 . S
O1060 Zn1062 1.950 . S
O1060 Zn1063 1.945 . S
Zn1061 O1060 1.923 . S
Zn1061 O1064 1.933 . S
Zn1061 O1067 1.941 . S
Zn1061 O1068 1.965 . S
Zn1062 O1060 1.950 . S
Zn1062 O1069 1.938 . S
Zn1062 O1070 1.906 . S
Zn1062 O1080 1.953 . S
Zn1063 O1060 1.945 . S
Zn1063 O1065 1.932 . S
Zn1063 O1072 1.977 . S
Zn1063 O1073 1.910 . S
O1064 Zn1061 1.933 . S
O1064 C1075 1.226 . S
O1065 Zn1063 1.932 . S
O1065 C1075 1.307 . S
O1066 Zn1059 1.919 . S
O1066 C1077 1.253 . S
O1067 Zn1061 1.941 . S
O1067 C1077 1.283 . S
O1068 Zn1061 1.965 . S
O1068 C1076 1.303 . S
O1069 Zn1062 1.938 . S
O1069 C1076 1.247 . S
O1070 Zn1062 1.906 . S
O1070 C1078 1.304 . S
O1071 Zn1059 1.924 . S
O1071 C1079 1.311 . S
O1072 Zn1063 1.977 . S
O1072 C1078 1.272 . S
O1073 Zn1063 1.910 . S
O1073 C1079 1.231 . S
C1074 O1058 1.225 . S
C1074 O1080 1.298 . S
C1075 O1064 1.226 . S
C1075 O1065 1.307 . S
C1076 O1068 1.303 . S
C1076 O1069 1.247 . S
C1077 O1066 1.253 . S
C1077 O1067 1.283 . S
C1078 O1070 1.304 . S
C1078 O1072 1.272 . S
C1079 O1071 1.311 . S
C1079 O1073 1.231 . S
O1080 Zn1062 1.953 . S
O1080 C1074 1.298 . S
O1081 Zn1082 1.953 . S
O1081 C1097 1.225 . S
Zn1082 O1081 1.953 . S
Zn1082 O1083 1.949 . S
Zn1082 O1089 1.919 . S
Zn1082 O1094 1.924 . S
O1083 Zn1082 1.949 . S
O1083 Zn1084 1.923 . S
O1083 Zn1085 1.950 . S
O1083 Zn1086 1.945 . S
Zn1084 O1083 1.923 . S
Zn1084 O1087 1.933 . S
Zn1084 O1090 1.941 . S
Zn1084 O1091 1.965 . S
Zn1085 O1083 1.950 . S
Zn1085 O1092 1.938 . S
Zn1085 O1093 1.906 . S
Zn1085 O1103 1.953 . S
Zn1086 O1083 1.945 . S
Zn1086 O1088 1.932 . S
Zn1086 O1095 1.977 . S
Zn1086 O1096 1.910 . S
O1087 Zn1084 1.933 . S
O1087 C1098 1.226 . S
O1088 Zn1086 1.932 . S
O1088 C1098 1.307 . S
O1089 Zn1082 1.919 . S
O1089 C1100 1.253 . S
O1090 Zn1084 1.941 . S
O1090 C1100 1.283 . S
O1091 Zn1084 1.965 . S
O1091 C1099 1.303 . S
O1092 Zn1085 1.938 . S
O1092 C1099 1.247 . S
O1093 Zn1085 1.906 . S
O1093 C1101 1.304 . S
O1094 Zn1082 1.924 . S
O1094 C1102 1.311 . S
O1095 Zn1086 1.977 . S
O1095 C1101 1.272 . S
O1096 Zn1086 1.910 . S
O1096 C1102 1.231 . S
C1097 O1081 1.225 . S
C1097 O1103 1.298 . S
C1098 O1087 1.226 . S
C1098 O1088 1.307 . S
C1099 O1091 1.303 . S
C1099 O1092 1.247 . S
C1100 O1089 1.253 . S
C1100 O1090 1.283 . S
C1101 O1093 1.304 . S
C1101 O1095 1.272 . S
C1102 O1094 1.311 . S
C1102 O1096 1.231 . S
O1103 Zn1085 1.953 . S
O1103 C1097 1.298 . S
C157 C19 1.854 . S
C180 C41 1.949 1_545 S
C111 C65 1.858 . S
C134 C87 1.944 . S
C248 C203 1.955 . S
C272 C226 1.838 . S
C341 C295 1.852 . S
C364 C318 1.838 . S
C410 C387 1.836 . S
C548 C433 1.850 . S
C502 C456 1.831 . S
C479 C525 1.861 . S
C571 C709 1.854 1_556 S
C593 C732 1.949 1_556 S
C617 C663 1.858 1_556 S
C639 C686 1.944 1_556 S
C755 C800 1.955 1_655 S
C778 C824 1.838 1_565 S
C847 C893 1.852 1_655 S
C916 C870 1.838 1_545 S
C939 C962 1.836 1_565 S
C1100 C985 1.850 1_455 S
C1008 C1054 1.831 1_565 S
C1031 C1077 1.861 1_455 S
C20 C227 1.968 1_655 S
C44 C251 1.831 . S
C66 C273 1.968 . S
C204 C90 1.911 . S
C365 C112 2.016 . S
C296 C135 1.975 . S
C319 C158 2.005 1_655 S
C181 C342 1.987 . S
C434 C388 2.008 1_554 S
C526 C411 2.003 . S
C457 C549 1.987 . S
C503 C480 1.996 . S
C572 C779 1.968 . S
C803 C596 1.831 . S
C825 C618 1.964 . S
C642 C756 1.905 . S
C917 C664 2.013 . S
C687 C848 1.975 . S
C710 C871 2.008 . S
C733 C894 1.983 . S
C940 C986 2.008 . S
C1078 C963 2.001 . S
C1101 C1009 1.988 . S
C1032 C1055 1.996 . S
C16 C89 1.560 . S
C21 C40 1.507 . S
C62 C43 1.569 . S
C86 C67 1.498 . S
C136 C108 1.515 . S
C159 C131 1.503 . S
C154 C182 1.518 . S
C113 C177 1.503 . S
C200 C435 1.513 . S
C223 C458 1.482 . S
C247 C481 1.511 . S
C269 C412 1.484 . S
C292 C527 1.497 . S
C389 C315 1.479 . S
C550 C338 1.493 . S
C361 C504 1.481 . S
C384 C228 1.492 . S
C407 C366 1.479 . S
C430 C297 1.495 . S
C320 C453 1.483 . S
C343 C476 1.504 . S
C274 C499 1.486 . S
C205 C522 1.521 . S
C545 C250 1.560 . S
C568 C641 1.560 . S
C592 C573 1.507 . S
C595 C614 1.569 . S
C619 C638 1.498 . S
C660 C688 1.515 . S
C711 C683 1.503 . S
C734 C706 1.518 . S
C729 C665 1.503 . S
C752 C987 1.513 . S
C1010 C775 1.482 . S
C1033 C799 1.511 . S
C821 C964 1.483 . S
C1079 C844 1.497 . S
C867 C941 1.479 . S
C890 C1102 1.493 . S
C913 C1056 1.481 . S
C780 C936 1.492 . S
C918 C959 1.479 . S
C849 C982 1.495 . S
C1005 C872 1.483 . S
C895 C1028 1.504 . S
C1051 C826 1.486 . S
C1074 C757 1.521 . S
C802 C1097 1.560 . S
C18 C1030 1.213 . S
C961 C42 1.122 . S
C64 C984 1.209 . S
C88 C1007 1.122 . S
C110 C1099 1.199 . S
C133 C1053 1.190 . S
C156 C1076 1.195 . S
C179 C938 1.185 . S
C202 C915 1.189 . S
C225 C846 1.202 . S
C249 C869 1.118 . S
C271 C892 1.202 . S
C294 C777 1.202 . S
C317 C801 1.118 . S
C340 C823 1.202 . S
C363 C754 1.189 . S
C386 C731 1.185 . S
C409 C594 1.122 . S
C432 C616 1.209 . S
C455 C640 1.122 . S
C478 C570 1.213 . S
C501 C685 1.190 . S
C524 C708 1.195 . S
C547 C662 1.199 . S
C109 C983 1.360 . S
C132 C1006 1.359 . S
C155 C1029 1.371 . S
C178 C960 1.359 . S
C17 C1075 1.365 . S
C39 C937 1.454 . S
C63 C1098 1.359 . S
C1052 C85 1.441 . S
C339 C776 1.354 . S
C362 C798 1.454 . S
C293 C822 1.355 . S
C316 C753 1.369 . S
C246 C914 1.454 . S
C270 C845 1.355 . S
C201 C868 1.369 . S
C224 C891 1.354 . S
C500 C637 1.441 . S
C454 C684 1.359 . S
C477 C707 1.371 . S
C408 C730 1.359 . S
C431 C661 1.360 . S
C385 C591 1.454 . S
C546 C615 1.359 . S
C523 C569 1.365 . S
