# Generated by pormake.
# Topology lcy-e, (6)-cn, num edge types: 1
# Building blocks:
#     Node 0, Type 0, BuildingBlock: UKALOJ_clean_sbu_0, # of connection points: 6
#     Node 1, Type 0, BuildingBlock: UKALOJ_clean_sbu_0, # of connection points: 6
#     Node 2, Type 0, BuildingBlock: UKALOJ_clean_sbu_0, # of connection points: 6
#     Node 3, Type 0, BuildingBlock: UKALOJ_clean_sbu_0, # of connection points: 6
#     Node 4, Type 0, BuildingBlock: UKALOJ_clean_sbu_0, # of connection points: 6
#     Node 5, Type 0, BuildingBlock: UKALOJ_clean_sbu_0, # of connection points: 6
#     Node 6, Type 0, BuildingBlock: UKALOJ_clean_sbu_0, # of connection points: 6
#     Node 7, Type 0, BuildingBlock: UKALOJ_clean_sbu_0, # of connection points: 6
#     Node 8, Type 0, BuildingBlock: UKALOJ_clean_sbu_0, # of connection points: 6
#     Node 9, Type 0, BuildingBlock: UKALOJ_clean_sbu_0, # of connection points: 6
#     Node 10, Type 0, BuildingBlock: UKALOJ_clean_sbu_0, # of connection points: 6
#     Node 11, Type 0, BuildingBlock: UKALOJ_clean_sbu_0, # of connection points: 6
#     Edge 12, Type (0, 0), BuildingBlock: XIVTED_clean_linker_0, # of connection points: 2
#     Edge 13, Type (0, 0), BuildingBlock: XIVTED_clean_linker_0, # of connection points: 2
#     Edge 14, Type (0, 0), BuildingBlock: XIVTED_clean_linker_0, # of connection points: 2
#     Edge 15, Type (0, 0), BuildingBlock: XIVTED_clean_linker_0, # of connection points: 2
#     Edge 16, Type (0, 0), BuildingBlock: XIVTED_clean_linker_0, # of connection points: 2
#     Edge 17, Type (0, 0), BuildingBlock: XIVTED_clean_linker_0, # of connection points: 2
#     Edge 18, Type (0, 0), BuildingBlock: XIVTED_clean_linker_0, # of connection points: 2
#     Edge 19, Type (0, 0), BuildingBlock: XIVTED_clean_linker_0, # of connection points: 2
#     Edge 20, Type (0, 0), BuildingBlock: XIVTED_clean_linker_0, # of connection points: 2
#     Edge 21, Type (0, 0), BuildingBlock: XIVTED_clean_linker_0, # of connection points: 2
#     Edge 22, Type (0, 0), BuildingBlock: XIVTED_clean_linker_0, # of connection points: 2
#     Edge 23, Type (0, 0), BuildingBlock: XIVTED_clean_linker_0, # of connection points: 2
#     Edge 24, Type (0, 0), BuildingBlock: XIVTED_clean_linker_0, # of connection points: 2
#     Edge 25, Type (0, 0), BuildingBlock: XIVTED_clean_linker_0, # of connection points: 2
#     Edge 26, Type (0, 0), BuildingBlock: XIVTED_clean_linker_0, # of connection points: 2
#     Edge 27, Type (0, 0), BuildingBlock: XIVTED_clean_linker_0, # of connection points: 2
#     Edge 28, Type (0, 0), BuildingBlock: XIVTED_clean_linker_0, # of connection points: 2
#     Edge 29, Type (0, 0), BuildingBlock: XIVTED_clean_linker_0, # of connection points: 2
#     Edge 30, Type (0, 0), BuildingBlock: XIVTED_clean_linker_0, # of connection points: 2
#     Edge 31, Type (0, 0), BuildingBlock: XIVTED_clean_linker_0, # of connection points: 2
#     Edge 32, Type (0, 0), BuildingBlock: XIVTED_clean_linker_0, # of connection points: 2
#     Edge 33, Type (0, 0), BuildingBlock: XIVTED_clean_linker_0, # of connection points: 2
#     Edge 34, Type (0, 0), BuildingBlock: XIVTED_clean_linker_0, # of connection points: 2
#     Edge 35, Type (0, 0), BuildingBlock: XIVTED_clean_linker_0, # of connection points: 2
#     Edge 36, Type (0, 0), BuildingBlock: XIVTED_clean_linker_0, # of connection points: 2
#     Edge 37, Type (0, 0), BuildingBlock: XIVTED_clean_linker_0, # of connection points: 2
#     Edge 38, Type (0, 0), BuildingBlock: XIVTED_clean_linker_0, # of connection points: 2
#     Edge 39, Type (0, 0), BuildingBlock: XIVTED_clean_linker_0, # of connection points: 2
#     Edge 40, Type (0, 0), BuildingBlock: XIVTED_clean_linker_0, # of connection points: 2
#     Edge 41, Type (0, 0), BuildingBlock: XIVTED_clean_linker_0, # of connection points: 2
#     Edge 42, Type (0, 0), BuildingBlock: XIVTED_clean_linker_0, # of connection points: 2
#     Edge 43, Type (0, 0), BuildingBlock: XIVTED_clean_linker_0, # of connection points: 2
#     Edge 44, Type (0, 0), BuildingBlock: XIVTED_clean_linker_0, # of connection points: 2
#     Edge 45, Type (0, 0), BuildingBlock: XIVTED_clean_linker_0, # of connection points: 2
#     Edge 46, Type (0, 0), BuildingBlock: XIVTED_clean_linker_0, # of connection points: 2
#     Edge 47, Type (0, 0), BuildingBlock: XIVTED_clean_linker_0, # of connection points: 2
# Relax obj value: 0.283
# Max RMSD: 0.290
# Mean RMSD: 0.290
data_MOF--net-lcy-e--node1-UKALOJ_clean_sbu_0--edge1-XIVTED_clean_linker_0
_symmetry_space_group_name_H-M    P1
_symmetry_Int_Tables_number       1
_symmetry_cell_setting            triclinic
loop_
_symmetry_equiv_pos_as_xyz
'x, y, z'
_cell_length_a     39.351167
_cell_length_b     39.316479
_cell_length_c     39.297699
_cell_angle_alpha  90.224775
_cell_angle_beta   89.797936
_cell_angle_gamma 90.16577
loop_
_atom_site_label
_atom_site_type_symbol
_atom_site_fract_x
_atom_site_fract_y
_atom_site_fract_z
_atom_type_partial_charge
Zn0 Zn 0.09822 0.22949 0.43054 0.0
O1 O 0.13441 0.26213 0.44989 0.0
C2 C 0.15299 0.18156 0.40965 0.0
Zn3 Zn 0.11082 0.19165 0.47005 0.0
C4 C 0.15004 0.25608 0.4773 0.0
O5 O 0.14543 0.22771 0.49226 0.0
C6 C 0.05789 0.16735 0.42214 0.0
O7 O 0.07326 0.21121 0.50067 0.0
O8 O 0.06197 0.25245 0.46492 0.0
N9 N 0.12266 0.15619 0.50569 0.0
C10 C 0.10378 0.13098 0.51926 0.0
C11 C 0.15476 0.12387 0.53588 0.0
N12 N 0.1543 0.15184 0.51616 0.0
N13 N 0.12343 0.1101 0.53787 0.0
C14 C 0.10759 0.28061 0.37161 0.0
C15 C 0.0573 0.28441 0.35195 0.0
N16 N 0.08702 0.26285 0.39258 0.0
N17 N 0.05576 0.2654 0.3804 0.0
N18 N 0.08954 0.29434 0.34611 0.0
H19 H 0.15617 0.26333 0.39154 0.0
H20 H 0.15286 0.30814 0.3837 0.0
H21 H 0.15732 0.27924 0.34864 0.0
C22 C 0.14562 0.28253 0.37418 0.0
C23 C 0.06595 0.12774 0.51568 0.0
H24 H 0.05403 0.15263 0.51067 0.0
H25 H 0.05463 0.11673 0.53909 0.0
H26 H 0.06008 0.11054 0.4941 0.0
O27 O 0.07595 0.1572 0.44682 0.0
O28 O 0.06148 0.1974 0.41136 0.0
C29 C 0.05707 0.23803 0.49359 0.0
O30 O 0.13475 0.2054 0.39794 0.0
O31 O 0.14873 0.172 0.44004 0.0
Zn32 Zn 0.01205 0.85093 0.69729 0.0
O33 O 0.98307 0.89024 0.71623 0.0
C34 C 0.0565 0.90371 0.66723 0.0
Zn35 Zn 0.05363 0.86538 0.73171 0.0
C36 C -0.00821 0.90697 0.74231 0.0
O37 O 0.02041 0.9014 0.75616 0.0
C38 C 0.07242 0.80844 0.68523 0.0
O39 O 0.03853 0.82969 0.7673 0.0
O40 O -0.00778 0.81923 0.73785 0.0
N41 N 0.09282 0.88071 0.76133 0.0
C42 C 0.11992 0.8635 0.77282 0.0
C43 C 0.12756 0.91582 0.78529 0.0
N44 N 0.09752 0.9132 0.76914 0.0
N45 N 0.14228 0.88503 0.78744 0.0
C46 C 0.95238 0.856 0.6469 0.0
C47 C 0.94691 0.80479 0.62962 0.0
N48 N 0.97396 0.83685 0.66517 0.0
N49 N 0.97041 0.80501 0.65452 0.0
N50 N 0.93506 0.83645 0.62474 0.0
H51 H 0.93202 0.90057 0.67052 0.0
H52 H 0.93899 0.905 0.62556 0.0
H53 H 0.97435 0.90606 0.65438 0.0
C54 C 0.94947 0.89405 0.64926 0.0
C55 C 0.12368 0.82554 0.77132 0.0
H56 H 0.09871 0.81271 0.76972 0.0
H57 H 0.13727 0.81617 0.79412 0.0
H58 H 0.13874 0.81852 0.74849 0.0
O59 O 0.08543 0.82904 0.70655 0.0
O60 O 0.04117 0.81095 0.67811 0.0
C61 C 0.00999 0.81497 0.76461 0.0
O62 O 0.03247 0.88381 0.65867 0.0
O63 O 0.06876 0.90163 0.69686 0.0
Zn64 Zn 0.37337 0.78435 0.97664 0.0
O65 O 0.40692 0.76489 0.01058 0.0
C66 C 0.43335 0.80773 0.93702 0.0
Zn67 Zn 0.38991 0.74675 0.93842 0.0
C68 C 0.42267 0.7374 0.00538 0.0
O69 O 0.41977 0.72194 0.97698 0.0
C70 C 0.33939 0.79611 0.91175 0.0
O71 O 0.34977 0.71507 0.95107 0.0
O72 O 0.33605 0.74764 -0.0054 0.0
N73 N 0.40659 0.71367 0.90232 0.0
C74 C 0.39105 0.70212 0.87411 0.0
C75 C 0.44275 0.68618 0.87139 0.0
N76 N 0.4387 0.70368 0.9007 0.0
N77 N 0.4133 0.68539 0.85407 0.0
C78 C 0.37609 0.8454 0.02579 0.0
C79 C 0.32376 0.85567 0.03533 0.0
N80 N 0.358 0.82025 0.011 0.0
N81 N 0.32548 0.82654 0.01713 0.0
N82 N 0.3552 0.86817 0.04065 0.0
H83 H 0.42586 0.82185 0.0244 0.0
H84 H 0.42265 0.85894 0.05125 0.0
H85 H 0.42362 0.86338 0.00591 0.0
C86 C 0.4142 0.84723 0.02696 0.0
C87 C 0.35381 0.70572 0.86684 0.0
H88 H 0.34997 0.72747 0.84949 0.0
H89 H 0.33893 0.71029 0.89028 0.0
H90 H 0.34399 0.68249 0.85407 0.0
O91 O 0.35921 0.77271 0.90143 0.0
O92 O 0.33934 0.80431 0.94288 0.0
C93 C 0.33174 0.72042 0.97729 0.0
O94 O 0.41131 0.81878 0.95796 0.0
O95 O 0.43071 0.77763 0.92587 0.0
Zn96 Zn 0.48311 0.12166 0.1967 0.0
O97 O 0.51117 0.08064 0.21305 0.0
C98 C 0.43578 0.07149 0.16597 0.0
Zn99 Zn 0.44139 0.10835 0.23105 0.0
C100 C 0.50231 0.0644 0.23937 0.0
O101 O 0.47425 0.0713 0.25406 0.0
C102 C 0.42437 0.16683 0.18708 0.0
O103 O 0.45745 0.14315 0.26688 0.0
O104 O 0.50458 0.15141 0.23797 0.0
N105 N 0.40239 0.09384 0.26129 0.0
C106 C 0.37574 0.11178 0.27299 0.0
C107 C 0.36707 0.05981 0.28593 0.0
N108 N 0.3971 0.06157 0.26941 0.0
N109 N 0.35307 0.09094 0.28801 0.0
C110 C 0.5357 0.1204 0.13864 0.0
C111 C 0.55581 0.17082 0.13985 0.0
N112 N 0.52126 0.13648 0.16523 0.0
N113 N 0.53387 0.16777 0.1661 0.0
N114 N 0.55704 0.14152 0.12208 0.0
H115 H 0.52245 0.06869 0.15219 0.0
H116 H 0.55361 0.0725 0.11866 0.0
H117 H 0.50977 0.08178 0.11037 0.0
C118 C 0.53014 0.08367 0.12968 0.0
C119 C 0.37258 0.14979 0.27123 0.0
H120 H 0.39778 0.16222 0.26993 0.0
H121 H 0.3587 0.15969 0.29379 0.0
H122 H 0.35804 0.15676 0.24817 0.0
O123 O 0.41021 0.14575 0.20707 0.0
O124 O 0.45558 0.16343 0.18004 0.0
C125 C 0.48663 0.15654 0.26456 0.0
O126 O 0.4604 0.09061 0.15711 0.0
O127 O 0.42474 0.07316 0.19616 0.0
Zn128 Zn 0.61332 0.25669 0.54682 0.0
O129 O 0.65305 0.22815 0.52879 0.0
C130 C 0.66463 0.30842 0.56382 0.0
Zn131 Zn 0.61787 0.29358 0.50656 0.0
C132 C 0.66282 0.23245 0.49844 0.0
O133 O 0.65138 0.25746 0.4815 0.0
C134 C 0.56623 0.31426 0.55684 0.0
O135 O 0.57835 0.27354 0.47912 0.0
O136 O 0.57986 0.22893 0.5124 0.0
N137 N 0.62735 0.32782 0.4698 0.0
C138 C 0.60811 0.35307 0.45751 0.0
C139 C 0.65731 0.35778 0.43495 0.0
N140 N 0.65787 0.3306 0.45569 0.0
N141 N 0.62645 0.37241 0.436 0.0
C142 C 0.62329 0.21103 0.60914 0.0
C143 C 0.57442 0.18789 0.61437 0.0
N144 N 0.60395 0.22225 0.58346 0.0
N145 N 0.57363 0.20784 0.58662 0.0
N146 N 0.60521 0.1898 0.62906 0.0
H147 H 0.67251 0.22522 0.58896 0.0
H148 H 0.67386 0.19794 0.62566 0.0
H149 H 0.66269 0.24207 0.63038 0.0
C150 C 0.66025 0.21941 0.61363 0.0
C151 C 0.57105 0.35785 0.46526 0.0
H152 H 0.55867 0.33337 0.47158 0.0
H153 H 0.5578 0.3693 0.44323 0.0
H154 H 0.56826 0.37526 0.48735 0.0
O155 O 0.58324 0.32764 0.53272 0.0
O156 O 0.57299 0.28418 0.56571 0.0
C157 C 0.56843 0.24376 0.48604 0.0
O158 O 0.64766 0.28548 0.57917 0.0
O159 O 0.65805 0.31453 0.53299 0.0
Zn160 Zn 0.93421 0.40532 0.73687 0.0
O161 O 0.95857 0.37801 0.69992 0.0
C162 C 0.90053 0.34142 0.76464 0.0
Zn163 Zn 0.96306 0.37628 0.77569 0.0
C164 C 0.97945 0.35426 0.70526 0.0
O165 O 0.98687 0.34618 0.73576 0.0
C166 C 0.91571 0.42893 0.80471 0.0
O167 O -0.00031 0.41272 0.7694 0.0
O168 O 0.97348 0.44405 0.73165 0.0
N169 N -0.00794 0.35392 0.81239 0.0
C170 C 0.00461 0.36713 0.84146 0.0
C171 C 0.01971 0.31513 0.8394 0.0
N172 N 0.00146 0.32159 0.81113 0.0
N173 N 0.02156 0.34324 0.859 0.0
C174 C 0.88161 0.4109 0.67967 0.0
C175 C 0.86533 0.46235 0.68344 0.0
N176 N 0.90299 0.42682 0.70132 0.0
N177 N 0.89304 0.45895 0.70331 0.0
N178 N 0.85791 0.43254 0.66819 0.0
H179 H 0.90482 0.36058 0.67871 0.0
H180 H 0.87499 0.36891 0.64517 0.0
H181 H 0.85989 0.36148 0.68741 0.0
C182 C 0.88075 0.37333 0.67247 0.0
C183 C 0.00221 0.40383 0.85197 0.0
H184 H -0.003 0.42074 0.8303 0.0
H185 H 0.02617 0.41225 0.86424 0.0
H186 H 0.98139 0.40662 0.87082 0.0
O187 O 0.93737 0.40681 0.81384 0.0
O188 O 0.9101 0.43339 0.77341 0.0
C189 C -0.00059 0.43853 0.75031 0.0
O190 O 0.89638 0.36582 0.74399 0.0
O191 O 0.92739 0.33947 0.78195 0.0
Zn192 Zn 0.87572 0.73819 0.05041 0.0
O193 O 0.84219 0.77361 0.03298 0.0
C194 C 0.81576 0.69553 0.06811 0.0
Zn195 Zn 0.8607 0.70336 0.00905 0.0
C196 C 0.82737 0.77055 0.00466 0.0
O197 O 0.83107 0.74352 0.9871 0.0
C198 C 0.91065 0.67287 0.05651 0.0
O199 O 0.90151 0.71953 0.98025 0.0
O200 O 0.91394 0.76007 0.01698 0.0
N201 N 0.84569 0.67051 0.97209 0.0
C202 C 0.86172 0.64342 0.95862 0.0
C203 C 0.81036 0.64164 0.94156 0.0
N204 N 0.81382 0.66951 0.96134 0.0
N205 N 0.83997 0.62465 0.9399 0.0
C206 C 0.86914 0.78075 0.11586 0.0
C207 C 0.92066 0.78853 0.1306 0.0
N208 N 0.88888 0.76884 0.09036 0.0
N209 N 0.9209 0.77387 0.09948 0.0
N210 N 0.88846 0.79257 0.14156 0.0
H211 H 0.82088 0.78231 0.08925 0.0
H212 H 0.82188 0.80513 0.12898 0.0
H213 H 0.82045 0.75962 0.12863 0.0
C214 C 0.83098 0.78209 0.11537 0.0
C215 C 0.89892 0.63613 0.96242 0.0
H216 H 0.91353 0.65948 0.96818 0.0
H217 H 0.90914 0.62437 0.93881 0.0
H218 H 0.9026 0.61795 0.9835 0.0
O219 O 0.89125 0.66463 0.032 0.0
O220 O 0.9099 0.70297 0.06795 0.0
C221 C 0.9192 0.74519 0.98851 0.0
O222 O 0.83713 0.71572 0.08152 0.0
O223 O 0.81926 0.68721 0.0372 0.0
Zn224 Zn 0.52585 0.61759 0.25646 0.0
O225 O 0.50702 0.65863 0.23072 0.0
C226 C 0.54465 0.66718 0.30994 0.0
Zn227 Zn 0.48565 0.62433 0.29427 0.0
C228 C 0.47789 0.67084 0.23674 0.0
O229 O 0.46068 0.66026 0.2621 0.0
C230 C 0.53534 0.57047 0.31192 0.0
O231 O 0.45733 0.58641 0.27138 0.0
O232 O 0.49229 0.58542 0.2278 0.0
N233 N 0.44993 0.62945 0.33129 0.0
C234 C 0.43479 0.6056 0.35072 0.0
C235 C 0.42352 0.6539 0.37282 0.0
N236 N 0.44264 0.65947 0.34486 0.0
N237 N 0.41807 0.62032 0.37681 0.0
C238 C 0.58762 0.63122 0.20979 0.0
C239 C 0.59297 0.58355 0.18423 0.0
N240 N 0.56239 0.61083 0.22077 0.0
N241 N 0.56566 0.58127 0.20483 0.0
N242 N 0.60731 0.61455 0.18712 0.0
H243 H 0.5672 0.67932 0.22698 0.0
H244 H 0.60326 0.68266 0.19869 0.0
H245 H 0.60905 0.66949 0.24206 0.0
C246 C 0.59185 0.66783 0.21983 0.0
C247 C 0.43884 0.56778 0.34652 0.0
H248 H 0.45735 0.56066 0.32672 0.0
H249 H 0.41398 0.55648 0.33949 0.0
H250 H 0.44673 0.55633 0.37102 0.0
O251 O 0.51173 0.58833 0.32484 0.0
O252 O 0.545 0.57623 0.28177 0.0
C253 C 0.46498 0.57548 0.24205 0.0
O254 O 0.55796 0.65009 0.28583 0.0
O255 O 0.51359 0.66272 0.31722 0.0
Zn256 Zn 0.19229 0.47239 0.10003 0.0
O257 O 0.20712 0.50357 0.0604 0.0
C258 C 0.16642 0.4238 0.04803 0.0
Zn259 Zn 0.22966 0.43344 0.08673 0.0
C260 C 0.23518 0.49791 0.04558 0.0
O261 O 0.25132 0.4705 0.05182 0.0
C262 C 0.18688 0.41158 0.14413 0.0
O263 O 0.26204 0.45216 0.12364 0.0
O264 O 0.22967 0.4969 0.13125 0.0
N265 N 0.26439 0.3974 0.07306 0.0
C266 C 0.28548 0.37879 0.09244 0.0
C267 C 0.28764 0.35824 0.04218 0.0
N268 N 0.26587 0.38469 0.0418 0.0
N269 N 0.30046 0.3544 0.0736 0.0
C270 C 0.12956 0.51911 0.10016 0.0
C271 C 0.12832 0.53637 0.15168 0.0
N272 N 0.15701 0.5063 0.1158 0.0
N273 N 0.15628 0.51708 0.14777 0.0
N274 N 0.11093 0.53767 0.12227 0.0
H275 H 0.1455 0.50999 0.04819 0.0
H276 H 0.10954 0.53801 0.05285 0.0
H277 H 0.10461 0.49302 0.05941 0.0
C278 C 0.12205 0.51492 0.06297 0.0
C279 C 0.29007 0.38303 0.13016 0.0
H280 H 0.30986 0.40265 0.13475 0.0
H281 H 0.29853 0.35903 0.14216 0.0
H282 H 0.26632 0.39134 0.1427 0.0
O283 O 0.20748 0.39857 0.1228 0.0
O284 O 0.17781 0.44218 0.14059 0.0
C285 C 0.2569 0.48078 0.13748 0.0
O286 O 0.15601 0.44707 0.06806 0.0
O287 O 0.19724 0.41468 0.0493 0.0
Zn288 Zn 0.75208 0.05412 0.88189 0.0
O289 O 0.78373 0.03396 0.84481 0.0
C290 C 0.70257 0.06888 0.82646 0.0
Zn291 Zn 0.71535 0.01322 0.87233 0.0
C292 C 0.77883 0.00457 0.83257 0.0
O293 O 0.75201 0.98822 0.84042 0.0
C294 C 0.6907 0.0635 0.9231 0.0
O295 O 0.73561 0.9883 0.91336 0.0
O296 O 0.77841 0.0241 0.91845 0.0
N297 N 0.68183 0.97477 0.86425 0.0
C298 C 0.65716 0.96162 0.88408 0.0
C299 C 0.65385 0.93716 0.83567 0.0
N300 N 0.67983 0.95948 0.83422 0.0
N301 N 0.63905 0.93826 0.8666 0.0
C302 C 0.79859 0.11437 0.86441 0.0
C303 C 0.80577 0.1384 0.91259 0.0
N304 N 0.78422 0.09418 0.88811 0.0
N305 N 0.78893 0.10899 0.91807 0.0
N306 N 0.81231 0.14213 0.87915 0.0
H307 H 0.77884 0.0887 0.81897 0.0
H308 H 0.82215 0.10197 0.81679 0.0
H309 H 0.78889 0.13287 0.81379 0.0
C310 C 0.79661 0.10897 0.82651 0.0
C311 C 0.65195 0.97031 0.92093 0.0
H312 H 0.67593 0.97881 0.93289 0.0
H313 H 0.64192 0.94802 0.93504 0.0
H314 H 0.6332 0.9912 0.92307 0.0
O315 O 0.68023 0.03888 0.90483 0.0
O316 O 0.72098 0.07398 0.91966 0.0
C317 C 0.76322 -0.00306 0.92746 0.0
O318 O 0.72466 0.08276 0.84547 0.0
O319 O 0.69492 0.03795 0.83093 0.0
Zn320 Zn 0.74008 0.935 0.39144 0.0
O321 O 0.70897 0.94657 0.35086 0.0
C322 C 0.78816 0.90494 0.34151 0.0
Zn323 Zn 0.77853 0.97122 0.37436 0.0
C324 C 0.71487 0.97286 0.33334 0.0
O325 O 0.7421 0.98967 0.33824 0.0
C326 C 0.80144 0.93285 0.43431 0.0
O327 O 0.7617 0.0072 0.40815 0.0
O328 O 0.71665 0.97616 0.42001 0.0
N329 N 0.81369 0.00354 0.35557 0.0
C330 C 0.84081 0.018 0.37048 0.0
C331 C 0.84386 0.02901 0.31742 0.0
N332 N 0.81546 0.01049 0.32263 0.0
N333 N 0.86029 0.03363 0.34704 0.0
C334 C 0.68785 0.87703 0.39242 0.0
C335 C 0.68071 0.8679 0.44546 0.0
N336 N 0.70566 0.9009 0.40933 0.0
N337 N 0.70109 0.89536 0.44229 0.0
N338 N 0.67218 0.85608 0.41448 0.0
H339 H 0.66655 0.8961 0.34642 0.0
H340 H 0.67281 0.85111 0.34565 0.0
H341 H 0.70858 0.87949 0.34137 0.0
C342 C 0.68397 0.8755 0.35438 0.0
C343 C 0.84744 0.01823 0.40808 0.0
H344 H 0.82344 0.01625 0.42271 0.0
H345 H 0.86087 0.0419 0.4157 0.0
H346 H 0.86381 -0.00369 0.41465 0.0
O347 O 0.81345 0.95204 0.41125 0.0
O348 O 0.77069 0.92351 0.43273 0.0
C349 C 0.73344 0.0038 0.42318 0.0
O350 O 0.76493 0.89532 0.36195 0.0
O351 O 0.7963 0.936 0.34046 0.0
Zn352 Zn 0.2902 0.48987 0.64544 0.0
O353 O 0.26317 0.45384 0.61949 0.0
C354 C 0.3203 0.51567 0.5789 0.0
Zn355 Zn 0.26131 0.52999 0.61838 0.0
C356 C 0.24034 0.46036 0.59793 0.0
O357 O 0.23319 0.49121 0.59109 0.0
C358 C 0.31367 0.55696 0.66692 0.0
O359 O 0.22744 0.52589 0.65797 0.0
O360 O 0.25332 0.48568 0.6863 0.0
N361 N 0.23221 0.56774 0.5982 0.0
C362 C 0.22174 0.5972 0.61233 0.0
C363 C 0.2014 0.59507 0.56216 0.0
N364 N 0.21958 0.56644 0.567 0.0
N365 N 0.20283 0.61494 0.59011 0.0
C366 C 0.34203 0.43188 0.64859 0.0
C367 C 0.35889 0.43378 0.69996 0.0
N368 N 0.32121 0.45338 0.6654 0.0
N369 N 0.33147 0.4542 0.69749 0.0
N370 N 0.36587 0.41948 0.66956 0.0
H371 H 0.31616 0.42999 0.59981 0.0
H372 H 0.34773 0.39754 0.60633 0.0
H373 H 0.36079 0.44026 0.59801 0.0
C374 C 0.34123 0.42461 0.61104 0.0
C375 C 0.22798 0.60786 0.64855 0.0
H376 H 0.20523 0.62068 0.65926 0.0
H377 H 0.24939 0.62624 0.64913 0.0
H378 H 0.23441 0.58623 0.66506 0.0
O379 O 0.29149 0.56711 0.64581 0.0
O380 O 0.31722 0.52546 0.67199 0.0
C381 C 0.22825 0.50595 0.68311 0.0
O382 O 0.32569 0.49579 0.6037 0.0
O383 O 0.2939 0.5338 0.57835 0.0
H384 H 0.16818 0.31647 0.44873 0.0
H385 H 0.23245 0.39718 0.62338 0.0
H386 H 0.1735 0.2605 0.54289 0.0
H387 H 0.21192 0.45704 0.534 0.0
H388 H 0.21333 0.34647 0.59348 0.0
H389 H 0.18885 0.36702 0.47815 0.0
C390 C 0.17419 0.31465 0.47554 0.0
C391 C 0.16889 0.28422 0.49348 0.0
C392 C 0.21273 0.37064 0.58038 0.0
C393 C 0.19212 0.34226 0.52734 0.0
C394 C 0.22354 0.39967 0.59745 0.0
C395 C 0.22382 0.43131 0.58102 0.0
C396 C 0.20234 0.3731 0.54644 0.0
C397 C 0.21188 0.43313 0.54757 0.0
C398 C 0.18572 0.34365 0.49234 0.0
C399 C 0.17726 0.28337 0.52807 0.0
N400 N 0.20185 0.40424 0.53119 0.0
N401 N 0.18825 0.3121 0.54396 0.0
H402 H 0.80265 0.94014 0.83991 0.0
H403 H 0.95764 0.95859 0.71302 0.0
H404 H 0.82037 0.03386 0.78593 0.0
H405 H 0.96527 0.90094 0.80568 0.0
H406 H 0.90385 0.98273 0.73342 0.0
H407 H 0.85786 0.91907 0.81953 0.0
C408 C 0.81771 0.95577 0.82289 0.0
C409 C 0.80702 0.98853 0.81415 0.0
C410 C 0.91768 0.96537 0.74957 0.0
C411 C 0.86991 0.96512 0.79156 0.0
C412 C 0.94844 0.952 0.73818 0.0
C413 C 0.96604 0.92856 0.7582 0.0
C414 C 0.90402 0.95416 0.78058 0.0
C415 C 0.95273 0.91972 0.79006 0.0
C416 C 0.84936 0.94406 0.81186 0.0
C417 C 0.82777 0.0083 0.79289 0.0
N418 N 0.92208 0.93213 0.80011 0.0
N419 N 0.85828 -0.00375 0.78219 0.0
H420 H 0.33286 0.69093 0.03973 0.0
H421 H 0.20711 0.53905 -0.00213 0.0
H422 H 0.2859 0.68356 0.94107 0.0
H423 H 0.29793 0.52427 0.05686 0.0
H424 H 0.22797 0.59568 0.98148 0.0
H425 H 0.31031 0.63421 0.05367 0.0
C426 C 0.3167 0.6779 0.02157 0.0
C427 C 0.3106 0.69203 0.98949 0.0
C428 C 0.24357 0.57974 -0.00252 0.0
C429 C 0.2856 0.62726 0.00481 0.0
C430 C 0.23194 0.54737 0.00644 0.0
C431 C 0.2513 0.52675 0.02797 0.0
C432 C 0.27411 0.59197 0.01127 0.0
C433 C 0.28276 0.53906 0.03941 0.0
C434 C 0.30447 0.64537 0.02922 0.0
C435 C 0.29061 0.67363 0.96629 0.0
N436 N 0.29295 0.57116 0.0314 0.0
N437 N 0.27869 0.64219 0.97442 0.0
H438 H 0.53669 0.01201 0.21044 0.0
H439 H 0.69263 0.03802 0.33172 0.0
H440 H 0.52833 0.07125 0.30256 0.0
H441 H 0.6723 0.93783 0.29152 0.0
H442 H 0.63742 0.05703 0.31004 0.0
H443 H 0.59047 0.98824 0.23121 0.0
C444 C 0.5457 0.01904 0.23553 0.0
C445 C 0.52793 0.04287 0.2553 0.0
C446 C 0.6454 0.03104 0.30557 0.0
C447 C 0.58987 0.01781 0.27791 0.0
C448 C 0.67704 0.02041 0.31729 0.0
C449 C 0.68696 0.98649 0.31294 0.0
C450 C 0.6241 0.00772 0.28886 0.0
C451 C 0.66548 0.96428 0.29501 0.0
C452 C 0.57641 0.00587 0.24711 0.0
C453 C 0.54099 0.05222 0.28709 0.0
N454 N 0.63496 0.97531 0.28345 0.0
N455 N 0.57163 0.04015 0.2972 0.0
H456 H 0.71614 0.19764 0.5238 0.0
H457 H 0.6721 0.03384 0.41266 0.0
H458 H 0.64742 0.20092 0.43875 0.0
H459 H 0.76546 0.04381 0.46884 0.0
H460 H 0.65773 0.09282 0.42805 0.0
H461 H 0.73253 0.13994 0.50734 0.0
C462 C 0.70546 0.18655 0.50091 0.0
C463 C 0.68085 0.20407 0.48226 0.0
C464 C 0.6811 0.08185 0.43741 0.0
C465 C 0.6979 0.13757 0.46442 0.0
C466 C 0.68887 0.04808 0.4293 0.0
C467 C 0.71964 0.03402 0.44013 0.0
C468 C 0.70419 0.10128 0.45667 0.0
C469 C 0.74124 0.05375 0.46053 0.0
C470 C 0.71439 0.15349 0.49182 0.0
C471 C 0.667 0.18838 0.45334 0.0
N472 N 0.73313 0.08641 0.46813 0.0
N473 N 0.67526 0.15566 0.44561 0.0
H474 H 0.05259 0.43556 0.79392 0.0
H475 H 0.17638 0.55134 0.68476 0.0
H476 H 0.01938 0.48669 0.70281 0.0
H477 H 0.20862 0.4564 0.72903 0.0
H478 H 0.11933 0.54174 0.70697 0.0
H479 H 0.10961 0.45781 0.78506 0.0
C480 C 0.05704 0.45203 0.7723 0.0
C481 C 0.03116 0.45871 0.74857 0.0
C482 C 0.13908 0.52339 0.71231 0.0
C483 C 0.09659 0.48458 0.73891 0.0
C484 C 0.17174 0.52877 0.69984 0.0
C485 C 0.19728 0.50419 0.70446 0.0
C486 C 0.13195 0.49362 0.73022 0.0
C487 C 0.18974 0.47585 0.72467 0.0
C488 C 0.0897 0.46458 0.76737 0.0
C489 C 0.03853 0.4807 0.72154 0.0
N490 N 0.15753 0.47115 0.73659 0.0
N491 N 0.07081 0.49267 0.71724 0.0
H492 H 0.8241 0.96737 0.91616 0.0
H493 H 0.78157 0.81039 0.03663 0.0
H494 H 0.73676 0.96573 0.98256 0.0
H495 H 0.84025 0.80121 0.94427 0.0
H496 H 0.76945 0.86969 0.02262 0.0
H497 H 0.83847 0.90971 0.93475 0.0
C498 C 0.80899 0.95547 0.93595 0.0
C499 C 0.77954 0.9712 0.94833 0.0
C500 C 0.78445 0.85454 0.0051 0.0
C501 C 0.79477 0.9053 0.96842 0.0
C502 C 0.79086 0.82067 0.01278 0.0
C503 C 0.81124 0.80098 0.99112 0.0
C504 C 0.79929 0.86891 0.976 0.0
C505 C 0.82367 0.81549 0.96107 0.0
C506 C 0.81665 0.92234 0.94586 0.0
C507 C 0.75996 0.95441 0.97293 0.0
N508 N 0.81788 0.84889 0.95456 0.0
N509 N 0.76774 0.92214 0.982 0.0
H510 H 0.42943 0.52171 0.26593 0.0
H511 H 0.2805 0.54583 0.13399 0.0
H512 H 0.44058 0.5868 0.17856 0.0
H513 H 0.29749 0.44943 0.18297 0.0
H514 H 0.33445 0.56681 0.15765 0.0
H515 H 0.37716 0.49828 0.24141 0.0
C516 C 0.42126 0.53029 0.2411 0.0
C517 C 0.43938 0.55563 0.2238 0.0
C518 C 0.32609 0.5412 0.16341 0.0
C519 C 0.37915 0.53049 0.19668 0.0
C520 C 0.29517 0.5295 0.1505 0.0
C521 C 0.28467 0.49608 0.15697 0.0
C522 C 0.34602 0.51941 0.18329 0.0
C523 C 0.30483 0.47546 0.17767 0.0
C524 C 0.3914 0.51723 0.22734 0.0
C525 C 0.42754 0.56669 0.19217 0.0
N526 N 0.33458 0.4875 0.19026 0.0
N527 N 0.3977 0.55442 0.17978 0.0
H528 H 0.5504 0.15141 0.2913 0.0
H529 H 0.51209 0.26552 0.45368 0.0
H530 H 0.45258 0.1978 0.30807 0.0
H531 H 0.58418 0.18332 0.45625 0.0
H532 H 0.49192 0.24506 0.3984 0.0
H533 H 0.56757 0.16935 0.3488 0.0
C534 C 0.53298 0.16623 0.30673 0.0
C535 C 0.50024 0.17359 0.29497 0.0
C536 C 0.51164 0.23104 0.41136 0.0
C537 C 0.51921 0.1933 0.36053 0.0
C538 C 0.52278 0.24242 0.44304 0.0
C539 C 0.5493 0.22563 0.45964 0.0
C540 C 0.52791 0.20333 0.39576 0.0
C541 C 0.56315 0.19644 0.44447 0.0
C542 C 0.54249 0.17585 0.33966 0.0
C543 C 0.47817 0.19195 0.31622 0.0
N544 N 0.55271 0.18651 0.41297 0.0
N545 N 0.48807 0.20126 0.34796 0.0
H546 H 0.03704 0.3047 0.4991 0.0
H547 H 0.00149 0.28792 0.69934 0.0
H548 H 0.0348 0.20874 0.55215 0.0
H549 H 0.98774 0.38052 0.64246 0.0
H550 H 0.01628 0.2585 0.64595 0.0
H551 H 0.01811 0.33303 0.55138 0.0
C552 C 0.03176 0.28951 0.52145 0.0
C553 C 0.03775 0.25441 0.52135 0.0
C554 C 0.01011 0.2853 0.64529 0.0
C555 C 0.01718 0.28661 0.58141 0.0
C556 C 0.00212 0.30209 0.67576 0.0
C557 C -0.00664 0.33657 0.67522 0.0
C558 C 0.0095 0.30333 0.61436 0.0
C559 C -0.00587 0.35379 0.64396 0.0
C560 C 0.02137 0.30569 0.55143 0.0
C561 C 0.03082 0.23597 0.55119 0.0
N562 N 0.00197 0.33701 0.61484 0.0
N563 N 0.02133 0.25233 0.58013 0.0
H564 H 0.04237 0.77203 0.80761 0.0
H565 H 0.91318 0.80721 0.95937 0.0
H566 H 0.94745 0.82424 0.7928 0.0
H567 H 0.97075 0.71428 0.95468 0.0
H568 H 0.9353 0.82267 0.90289 0.0
H569 H 0.02404 0.75682 0.8654 0.0
C570 C 0.01729 0.77947 0.81629 0.0
C571 C -0.00399 0.7987 0.79529 0.0
C572 C 0.94366 0.79928 0.91464 0.0
C573 C 0.97586 0.78322 0.86168 0.0
C574 C 0.93168 0.79085 0.94708 0.0
C575 C 0.94085 0.75983 0.96182 0.0
C576 C 0.96524 0.77668 0.89723 0.0
C577 C 0.96373 0.73875 0.94431 0.0
C578 C 0.00706 0.77116 0.84928 0.0
C579 C 0.96417 0.80861 0.80795 0.0
N580 N 0.9752 0.74754 0.91288 0.0
N581 N 0.95522 0.80118 0.84058 0.0
H582 H 0.50371 0.72658 0.20618 0.0
H583 H 0.4073 0.67718 0.03494 0.0
H584 H 0.42047 0.65527 0.20253 0.0
H585 H 0.47087 0.76606 0.04458 0.0
H586 H 0.4169 0.66464 0.09527 0.0
H587 H 0.49317 0.74132 0.14685 0.0
C588 C 0.48216 0.71526 0.19322 0.0
C589 C 0.46256 0.69014 0.20917 0.0
C590 C 0.4293 0.6865 0.08398 0.0
C591 C 0.45175 0.70504 0.14096 0.0
C592 C 0.42459 0.69307 0.04943 0.0
C593 C 0.43893 0.72226 0.03493 0.0
C594 C 0.44853 0.70931 0.10378 0.0
C595 C 0.45997 0.74296 0.05492 0.0
C596 C 0.4766 0.72308 0.1592 0.0
C597 C 0.43563 0.67531 0.19118 0.0
N598 N 0.46395 0.73624 0.08846 0.0
N599 N 0.4314 0.68247 0.15767 0.0
H600 H 0.0841 0.27281 0.28123 0.0
H601 H 0.16937 0.43849 0.20488 0.0
H602 H 0.12471 0.35295 0.34406 0.0
H603 H 0.17581 0.34258 0.15149 0.0
H604 H 0.14574 0.4093 0.25406 0.0
H605 H 0.10997 0.29987 0.23085 0.0
C606 C 0.09821 0.29632 0.28415 0.0
C607 C 0.10234 0.31102 0.31641 0.0
C608 C 0.15245 0.39456 0.23169 0.0
C609 C 0.13172 0.34175 0.25972 0.0
C610 C 0.16581 0.41118 0.20355 0.0
C611 C 0.17442 0.39286 0.17408 0.0
C612 C 0.147 0.35938 0.23027 0.0
C613 C 0.16955 0.35752 0.17384 0.0
C614 C 0.11319 0.31146 0.25568 0.0
C615 C 0.1211 0.3411 0.31943 0.0
N616 N 0.15573 0.34184 0.20151 0.0
N617 N 0.13495 0.35567 0.29136 0.0
H618 H 0.87223 0.86234 0.62928 0.0
H619 H 0.87098 0.92738 0.43742 0.0
H620 H 0.95229 0.83778 0.55865 0.0
H621 H 0.77927 0.91034 0.49559 0.0
H622 H 0.90401 0.90266 0.48422 0.0
H623 H 0.83958 0.88752 0.58249 0.0
C624 C 0.88249 0.86192 0.60367 0.0
C625 C 0.91437 0.8477 0.59724 0.0
C626 C 0.87665 0.90445 0.48659 0.0
C627 C 0.87831 0.87704 0.54425 0.0
C628 C 0.8579 0.91873 0.46011 0.0
C629 C 0.82242 0.92068 0.46266 0.0
C630 C 0.85971 0.89276 0.51586 0.0
C631 C 0.80659 0.90904 0.4925 0.0
C632 C 0.86415 0.87632 0.57714 0.0
C633 C 0.92738 0.84813 0.56406 0.0
N634 N 0.82535 0.89567 0.51798 0.0
N635 N 0.90937 0.86285 0.53867 0.0
H636 H 0.30494 0.62573 0.67782 0.0
H637 H 0.43315 0.62346 0.83275 0.0
H638 H 0.37157 0.54183 0.70055 0.0
H639 H 0.3817 0.71419 0.8004 0.0
H640 H 0.41609 0.59535 0.77978 0.0
H641 H 0.33705 0.6612 0.71797 0.0
C642 C 0.32656 0.61496 0.69083 0.0
C643 C 0.33507 0.58064 0.68655 0.0
C644 C 0.40869 0.62153 0.78407 0.0
C645 C 0.37172 0.62069 0.73228 0.0
C646 C 0.4185 0.63744 0.81422 0.0
C647 C 0.40753 0.67049 0.82128 0.0
C648 C 0.38767 0.6389 0.76106 0.0
C649 C 0.38912 0.68802 0.79643 0.0
C650 C 0.34489 0.63515 0.71371 0.0
C651 C 0.36356 0.56798 0.70374 0.0
N652 N 0.37917 0.6718 0.7676 0.0
N653 N 0.38054 0.58785 0.72615 0.0
H654 H 0.62252 0.15679 0.10907 0.0
H655 H 0.62277 0.05242 0.93469 0.0
H656 H 0.53223 0.11413 0.06415 0.0
H657 H 0.70886 0.1104 0.97088 0.0
H658 H 0.58852 0.07603 0.98106 0.0
H659 H 0.65436 0.14207 0.05729 0.0
C660 C 0.60952 0.14442 0.08815 0.0
C661 C 0.57521 0.13553 0.09104 0.0
C662 C 0.61485 0.08376 0.97866 0.0
C663 C 0.61092 0.11866 0.03214 0.0
C664 C 0.63442 0.07016 0.9523 0.0
C665 C 0.66878 0.07911 0.94921 0.0
C666 C 0.6299 0.10623 0.00213 0.0
C667 C 0.68249 0.1026 0.97244 0.0
C668 C 0.62754 0.13599 0.05871 0.0
C669 C 0.55907 0.12002 0.06328 0.0
N670 N 0.66308 0.11512 -0.0019 0.0
N671 N 0.57716 0.11169 0.03506 0.0
H672 H 0.59391 0.12449 0.6456 0.0
H673 H 0.71193 0.1358 0.80996 0.0
H674 H 0.6384 0.21782 0.68227 0.0
H675 H 0.65538 0.04583 0.78132 0.0
H676 H 0.68474 0.16668 0.76369 0.0
H677 H 0.61493 0.09529 0.69629 0.0
C678 C 0.60806 0.13871 0.6645 0.0
C679 C 0.61547 0.17314 0.65957 0.0
C680 C 0.67816 0.14023 0.76769 0.0
C681 C 0.63948 0.14044 0.71719 0.0
C682 C 0.69372 0.1226 0.79402 0.0
C683 C 0.68598 0.08821 0.79933 0.0
C684 C 0.65491 0.12322 0.74653 0.0
C685 C 0.66218 0.07231 0.77801 0.0
C686 C 0.62009 0.12219 0.69329 0.0
C687 C 0.63343 0.19088 0.68473 0.0
N688 N 0.64759 0.08994 0.75241 0.0
N689 N 0.64515 0.17424 0.7124 0.0
H690 H 0.183 0.37617 0.00025 0.0
H691 H -0.00217 0.37023 0.9177 0.0
H692 H 0.09779 0.43356 0.03915 0.0
H693 H 0.08646 0.32561 0.87135 0.0
H694 H 0.03193 0.38619 0.96733 0.0
H695 H 0.14604 0.35062 0.95767 0.0
C696 C 0.15645 0.38338 -7e-05 0.0
C697 C 0.14355 0.40743 0.02309 0.0
C698 C 0.04392 0.37267 0.94647 0.0
C699 C 0.10103 0.37804 0.97426 0.0
C700 C 0.02451 0.36367 0.91822 0.0
C701 C 0.03976 0.34743 0.8903 0.0
C702 C 0.07876 0.36515 0.94676 0.0
C703 C 0.07403 0.33837 0.8924 0.0
C704 C 0.13536 0.3687 0.97556 0.0
C705 C 0.1089 0.4155 0.02154 0.0
N706 N 0.09256 0.34774 0.92002 0.0
N707 N 0.08885 0.40095 -0.00262 0.0
H708 H 0.85244 0.91246 0.31906 0.0
H709 H 0.8429 0.76171 0.18325 0.0
H710 H 0.7664 0.84446 0.31259 0.0
H711 H 0.91104 0.84731 0.17626 0.0
H712 H 0.82082 0.78413 0.23717 0.0
H713 H 0.88086 0.88029 0.27452 0.0
C714 C 0.83964 0.89043 0.30842 0.0
C715 C 0.80674 0.88141 0.31901 0.0
C716 C 0.84062 0.79798 0.22387 0.0
C717 C 0.83917 0.84461 0.26764 0.0
C718 C 0.85291 0.78546 0.19296 0.0
C719 C 0.87773 0.80362 0.17474 0.0
C720 C 0.8538 0.82849 0.23687 0.0
C721 C 0.89145 0.83303 0.18935 0.0
C722 C 0.85591 0.87213 0.28294 0.0
C723 C 0.79167 0.8523 0.30491 0.0
N724 N 0.87906 0.84478 0.21946 0.0
N725 N 0.80787 0.8351 0.27944 0.0
H726 H 0.31186 0.49134 0.51552 0.0
H727 H 0.43854 0.63123 0.44111 0.0
H728 H 0.37981 0.55034 0.57806 0.0
H729 H 0.37016 0.57133 0.37995 0.0
H730 H 0.42167 0.59824 0.4913 0.0
H731 H 0.33971 0.51386 0.46469 0.0
C732 C 0.33363 0.50806 0.51837 0.0
C733 C 0.34403 0.51885 0.55063 0.0
C734 C 0.41039 0.59221 0.46691 0.0
C735 C 0.3747 0.54612 0.49308 0.0
C736 C 0.41965 0.61131 0.43852 0.0
C737 C 0.40554 0.60382 0.40671 0.0
C738 C 0.38672 0.56564 0.46329 0.0
C739 C 0.38166 0.57753 0.40416 0.0
C740 C 0.34919 0.52131 0.48946 0.0
C741 C 0.37161 0.54116 0.55339 0.0
N742 N 0.37294 0.55935 0.43213 0.0
N743 N 0.38573 0.5546 0.52485 0.0
H744 H 0.18974 0.12585 0.42654 0.0
H745 H 0.30428 0.12914 0.25892 0.0
H746 H 0.1753 0.1982 0.34541 0.0
H747 H 0.32763 0.07061 0.34818 0.0
H748 H 0.25165 0.14843 0.28607 0.0
H749 H 0.23491 0.09922 0.39394 0.0
C750 C 0.19603 0.13614 0.40176 0.0
C751 C 0.17903 0.1646 0.3888 0.0
C752 C 0.26821 0.1313 0.29969 0.0
C753 C 0.23087 0.13405 0.35133 0.0
C754 C 0.29824 0.12054 0.28435 0.0
C755 C 0.32057 0.09931 0.30203 0.0
C756 C 0.26045 0.12037 0.33274 0.0
C757 C 0.31111 0.08741 0.33414 0.0
C758 C 0.22183 0.12082 0.38315 0.0
C759 C 0.18797 0.17646 0.35639 0.0
N760 N 0.28183 0.09843 0.34871 0.0
N761 N 0.21356 0.16123 0.33879 0.0
H762 H 0.08326 0.0593 0.51338 0.0
H763 H 0.11213 0.94352 0.67685 0.0
H764 H 0.14555 0.08833 0.59869 0.0
H765 H 0.03019 0.9255 0.60613 0.0
H766 H 0.13014 -0.0079 0.64336 0.0
H767 H 0.06815 0.00653 0.5426 0.0
C768 C 0.09319 0.05486 0.53858 0.0
C769 C 0.11464 0.07872 0.55433 0.0
C770 C 0.1083 0.97751 0.63501 0.0
C771 C 0.0988 0.01783 0.5871 0.0
C772 C 0.098 0.94964 0.65407 0.0
C773 C 0.06934 0.9306 0.64444 0.0
C774 C 0.08992 0.98657 0.60598 0.0
C775 C 0.05235 0.93957 0.61448 0.0
C776 C 0.08493 0.02455 0.55501 0.0
C777 C 0.12853 0.07075 0.58603 0.0
N778 N 0.06279 0.96715 0.59635 0.0
N779 N 0.12025 0.04102 0.60147 0.0
H780 H 0.16733 0.9096 0.84612 0.0
H781 H 0.32378 0.78113 0.84492 0.0
H782 H 0.19177 0.84525 0.7606 0.0
H783 H 0.30142 0.85174 0.92638 0.0
H784 H 0.27945 0.80793 0.81065 0.0
H785 H 0.22067 0.89306 0.8731 0.0
C786 C 0.18412 0.89206 0.83308 0.0
C787 C 0.17478 0.87769 0.80189 0.0
C788 C 0.28455 0.81769 0.83594 0.0
C789 C 0.23555 0.85852 0.83222 0.0
C790 C 0.30978 0.80233 0.85548 0.0
C791 C 0.31575 0.81366 0.88879 0.0
C792 C 0.26539 0.84448 0.84993 0.0
C793 C 0.29725 0.84165 0.90105 0.0
C794 C 0.21448 0.88255 0.84837 0.0
C795 C 0.19747 0.85555 0.78548 0.0
N796 N 0.27273 0.85585 0.88176 0.0
N797 N 0.22669 0.84622 0.80106 0.0
H798 H 0.37637 0.03781 0.17561 0.0
H799 H 0.3972 0.916 0.0142 0.0
H800 H 0.45905 0.04778 0.10378 0.0
H801 H 0.33086 0.89504 0.09898 0.0
H802 H 0.41451 0.96934 0.04142 0.0
H803 H 0.35334 0.99134 0.14201 0.0
C804 C 0.38966 0.03037 0.15257 0.0
C805 C 0.4201 0.04639 0.14279 0.0
C806 C 0.39622 0.95308 0.05412 0.0
C807 C 0.39368 -0.00717 0.10416 0.0
C808 C 0.38666 0.9225 0.03882 0.0
C809 C 0.36365 0.90062 0.05519 0.0
C810 C 0.3822 0.96203 0.08573 0.0
C811 C 0.34911 0.91107 0.08599 0.0
C812 C 0.37643 0.00374 0.13342 0.0
C813 C 0.43574 0.03597 0.11239 0.0
N814 N 0.35885 0.94096 0.10046 0.0
N815 N 0.4225 0.00953 0.09425 0.0
H816 H 0.80401 0.4095 0.70307 0.0
H817 H 0.70788 0.35276 0.53336 0.0
H818 H 0.84071 0.43025 0.60209 0.0
H819 H 0.68299 0.31094 0.63187 0.0
H820 H 0.75165 0.38746 0.55938 0.0
H821 H 0.75415 0.38054 0.67872 0.0
C822 C 0.8008 0.40874 0.67571 0.0
C823 C 0.8258 0.42259 0.65433 0.0
C824 C 0.7367 0.37075 0.57541 0.0
C825 C 0.76988 0.38903 0.62639 0.0
C826 C 0.71158 0.3508 0.56059 0.0
C827 C 0.69167 0.3287 0.58047 0.0
C828 C 0.74218 0.36891 0.61053 0.0
C829 C 0.69783 0.32747 0.61559 0.0
C830 C 0.77277 0.39191 0.66186 0.0
C831 C 0.82148 0.42034 0.61916 0.0
N832 N 0.72261 0.34737 0.62956 0.0
N833 N 0.79407 0.40372 0.60622 0.0
H834 H 0.85869 0.46553 0.79344 0.0
H835 H 0.87139 0.56995 0.96707 0.0
H836 H 0.93188 0.44261 0.87159 0.0
H837 H 0.81922 0.60494 0.87769 0.0
H838 H 0.88484 0.51667 0.93766 0.0
H839 H 0.83429 0.50915 0.82992 0.0
C840 C 0.86946 0.46945 0.81849 0.0
C841 C 0.89788 0.45093 0.82927 0.0
C842 C 0.87042 0.53598 0.92451 0.0
C843 C 0.87007 0.50106 0.87106 0.0
C844 C 0.86315 0.56648 0.94107 0.0
C845 C 0.84553 0.59226 0.92406 0.0
C846 C 0.85945 0.53114 0.89094 0.0
C847 C 0.83347 0.58581 0.89125 0.0
C848 C 0.85549 0.49441 0.83927 0.0
C849 C 0.91025 0.45659 0.8622 0.0
N850 N 0.84097 0.55596 0.87555 0.0
N851 N 0.89654 0.4816 0.88186 0.0
H852 H 0.80194 0.7021 0.13652 0.0
H853 H 0.6235 0.60479 0.12141 0.0
H854 H 0.76266 0.65882 0.04337 0.0
H855 H 0.66065 0.64804 0.21507 0.0
H856 H 0.67558 0.62336 0.09273 0.0
H857 H 0.75118 0.68177 0.16647 0.0
C858 C 0.78265 0.68846 0.12238 0.0
C859 C 0.78635 0.68248 0.08736 0.0
C860 C 0.67232 0.629 0.11953 0.0
C861 C 0.7286 0.65893 0.12136 0.0
C862 C 0.64268 0.61839 0.13577 0.0
C863 C 0.63763 0.62573 0.17026 0.0
C864 C 0.69719 0.64681 0.13809 0.0
C865 C 0.66321 0.64302 0.18812 0.0
C866 C 0.75377 0.67675 0.13948 0.0
C867 C 0.76086 0.66412 0.07038 0.0
N868 N 0.69194 0.6531 0.17179 0.0
N869 N 0.73307 0.65311 0.08752 0.0
H870 H 0.5947 0.426 0.46481 0.0
H871 H 0.58478 0.52737 0.28992 0.0
H872 H 0.63779 0.38937 0.37072 0.0
H873 H 0.52286 0.55142 0.37776 0.0
H874 H 0.6106 0.48109 0.32143 0.0
H875 H 0.57449 0.47673 0.43549 0.0
C876 C 0.59954 0.42864 0.43783 0.0
C877 C 0.61676 0.40325 0.41966 0.0
C878 C 0.59143 0.49653 0.33383 0.0
C879 C 0.59477 0.4612 0.3863 0.0
C880 C 0.57666 0.52297 0.3159 0.0
C881 C 0.55149 0.54311 0.33125 0.0
C882 C 0.58104 0.49025 0.36736 0.0
C883 C 0.54208 0.53637 0.36497 0.0
C884 C 0.5883 0.45759 0.4212 0.0
C885 C 0.62408 0.40837 0.38525 0.0
N886 N 0.55686 0.51036 0.38194 0.0
N887 N 0.61275 0.43676 0.36948 0.0
H888 H 0.36427 0.35727 0.0972 0.0
H889 H 0.3553 0.17258 0.17913 0.0
H890 H 0.28021 0.28944 0.07938 0.0
H891 H 0.4501 0.22418 0.15843 0.0
H892 H 0.32515 0.21802 0.14899 0.0
H893 H 0.39494 0.31089 0.12533 0.0
C894 C 0.35273 0.33228 0.09878 0.0
C895 C 0.32023 0.32658 0.08573 0.0
C896 C 0.35255 0.21925 0.15111 0.0
C897 C 0.35409 0.27413 0.11852 0.0
C898 C 0.36968 0.19355 0.16848 0.0
C899 C 0.40519 0.19464 0.17116 0.0
C900 C 0.37111 0.24634 0.13694 0.0
C901 C 0.4227 0.22226 0.15679 0.0
C902 C 0.36996 0.30598 0.11489 0.0
C903 C 0.3056 0.29425 0.08879 0.0
N904 N 0.40547 0.24708 0.14042 0.0
N905 N 0.32253 0.26915 0.10522 0.0
H906 H 0.89961 0.27928 0.73595 0.0
H907 H 0.78772 0.20529 0.88879 0.0
H908 H 0.8471 0.34332 0.80788 0.0
H909 H 0.8606 0.14758 0.83067 0.0
H910 H 0.80065 0.25543 0.85386 0.0
H911 H 0.87332 0.22928 0.76202 0.0
C912 C 0.88124 0.28276 0.75627 0.0
C913 C 0.875 0.31511 0.76969 0.0
C914 C 0.81376 0.23177 0.84875 0.0
C915 C 0.84649 0.25847 0.80077 0.0
C916 C 0.80676 0.20346 0.86891 0.0
C917 C 0.82314 0.17254 0.86232 0.0
C918 C 0.83722 0.22888 0.82188 0.0
C919 C 0.84723 0.17099 0.8361 0.0
C920 C 0.86678 0.2543 0.77157 0.0
C921 C 0.85194 0.31859 0.79665 0.0
N922 N 0.85347 0.19876 0.8167 0.0
N923 N 0.83885 0.29044 0.81179 0.0
H924 H 0.0937 0.59945 0.14585 0.0
H925 H 0.92216 0.60595 0.03877 0.0
H926 H 0.05566 0.51399 0.08844 0.0
H927 H 0.95574 0.68534 0.10721 0.0
H928 H 0.9686 0.57001 0.0589 0.0
H929 H 0.04084 0.62985 0.13466 0.0
C930 C 0.07411 0.58721 0.13085 0.0
C931 C 0.07935 0.55485 0.11696 0.0
C932 C 0.96554 0.59522 0.06965 0.0
C933 C 0.01896 0.58906 0.10403 0.0
C934 C 0.93914 0.61576 0.05806 0.0
C935 C 0.93555 0.64895 0.0707 0.0
C936 C 0.98836 0.60811 0.09397 0.0
C937 C 0.95781 0.6601 0.09629 0.0
C938 C 0.04398 0.60443 0.12444 0.0
C939 C 0.05313 0.5396 0.09819 0.0
N940 N 0.98343 0.63987 0.1068 0.0
N941 N 0.02411 0.55701 0.09191 0.0
H942 H 0.70074 0.80162 0.38518 0.0
H943 H 0.52174 0.70925 0.36017 0.0
H944 H 0.6068 0.83966 0.42641 0.0
H945 H 0.61287 0.68131 0.30532 0.0
H946 H 0.5542 0.75143 0.39191 0.0
H947 H 0.67077 0.75116 0.36389 0.0
C948 C 0.67378 0.79881 0.3901 0.0
C949 C 0.65582 0.82454 0.40695 0.0
C950 C 0.56713 0.736 0.37303 0.0
C951 C 0.62144 0.76766 0.38276 0.0
C952 C 0.54863 0.71193 0.35482 0.0
C953 C 0.56458 0.69202 0.32972 0.0
C954 C 0.60184 0.74022 0.36616 0.0
C955 C 0.5995 0.69642 0.32412 0.0
C956 C 0.6567 0.77028 0.37791 0.0
C957 C 0.62115 0.82018 0.41324 0.0
N958 N 0.61697 0.72022 0.34213 0.0
N959 N 0.60487 0.79233 0.40075 0.0
H960 H 0.54496 0.38096 0.55018 0.0
H961 H 0.38782 0.35529 0.67806 0.0
H962 H 0.52429 0.28814 0.60507 0.0
H963 H 0.41534 0.45245 0.63611 0.0
H964 H 0.43906 0.33044 0.6522 0.0
H965 H 0.49803 0.40833 0.58129 0.0
C966 C 0.53066 0.3664 0.56869 0.0
C967 C 0.53853 0.33223 0.57491 0.0
C968 C 0.43419 0.35732 0.64895 0.0
C969 C 0.48512 0.36315 0.61048 0.0
C970 C 0.40517 0.37135 0.66389 0.0
C971 C 0.39786 0.4057 0.65909 0.0
C972 C 0.4557 0.37791 0.62891 0.0
C973 C 0.42054 0.42576 0.6402 0.0
C974 C 0.50399 0.382 0.58653 0.0
C975 C 0.51922 0.31455 0.59933 0.0
N976 N 0.44837 0.41153 0.6255 0.0
N977 N 0.49344 0.33014 0.61604 0.0
H978 H 0.13648 0.62713 0.57923 0.0
H979 H 0.14155 0.79927 0.68795 0.0
H980 H 0.22903 0.67356 0.61478 0.0
H981 H 0.05026 0.7578 0.64315 0.0
H982 H 0.17456 0.75488 0.65934 0.0
H983 H 0.10477 0.67717 0.59882 0.0
C984 C 0.15007 0.64822 0.59069 0.0
C985 C 0.1851 0.64619 0.59616 0.0
C986 C 0.14731 0.75562 0.65568 0.0
C987 C 0.14939 0.703 0.61907 0.0
C988 C 0.12845 0.78082 0.6722 0.0
C989 C 0.09308 0.78205 0.66822 0.0
C990 C 0.13063 0.73145 0.63517 0.0
C991 C 0.07747 0.75775 0.64711 0.0
C992 C 0.13207 0.67661 0.60209 0.0
C993 C 0.20182 0.674 0.61103 0.0
N994 N 0.09632 0.73337 0.63154 0.0
N995 N 0.18376 0.70114 0.62241 0.0
H996 H 0.44573 0.87558 0.94987 0.0
H997 H 0.62599 0.87226 0.85438 0.0
H998 H 0.48758 0.78736 0.89923 0.0
H999 H 0.58396 0.96252 0.90033 0.0
H1000 H 0.5749 0.84072 0.87098 0.0
H1001 H 0.49601 0.90825 0.93264 0.0
C1002 C 0.46546 0.86308 0.93526 0.0
C1003 C 0.46257 0.82866 0.92622 0.0
C1004 C 0.57688 0.86739 0.87768 0.0
C1005 C 0.51984 0.86575 0.90629 0.0
C1006 C 0.60598 0.88527 0.86819 0.0
C1007 C 0.6094 0.91963 0.87685 0.0
C1008 C 0.55089 0.88417 0.89568 0.0
C1009 C 0.58274 0.93569 0.89435 0.0
C1010 C 0.49408 0.88173 0.92533 0.0
C1011 C 0.48869 0.81384 0.90684 0.0
N1012 N 0.55457 0.91779 0.90331 0.0
N1013 N 0.51621 0.83243 0.89762 0.0
H1014 H 0.9143 0.00768 0.37973 0.0
H1015 H 0.01458 0.18368 0.37101 0.0
H1016 H 0.87979 0.09494 0.3239 0.0
H1017 H 0.04376 0.10034 0.43589 0.0
H1018 H 0.97024 0.14824 0.34654 0.0
H1019 H 0.96693 0.03791 0.39344 0.0
C1020 C 0.91799 0.03332 0.37046 0.0
C1021 C 0.8926 0.04953 0.35172 0.0
C1022 C 0.9864 0.13763 0.36603 0.0
C1023 C 0.95247 0.0839 0.3666 0.0
C1024 C 0.01173 0.15785 0.38009 0.0
C1025 C 0.03247 0.14511 0.40607 0.0
C1026 C 0.98167 0.10444 0.37805 0.0
C1027 C 0.0279 0.11136 0.41644 0.0
C1028 C 0.94798 0.05044 0.37804 0.0
C1029 C 0.8988 0.08204 0.33888 0.0
N1030 N 0.00271 0.09222 0.40257 0.0
N1031 N 0.92806 0.09846 0.34696 0.0
loop_
_geom_bond_atom_site_label_1
_geom_bond_atom_site_label_2
_geom_bond_distance
_geom_bond_site_symmetry_2
_ccdc_geom_bond_type
Zn0 O1 2.055 . S
Zn0 O8 2.046 . S
Zn0 N16 2.036 . S
Zn0 O28 2.053 . S
Zn0 O30 2.066 . S
O1 Zn0 2.055 . S
O1 C4 1.259 . S
C2 O30 1.256 . S
C2 O31 1.244 . S
Zn3 O5 2.046 . S
Zn3 O7 2.055 . S
Zn3 N9 2.036 . S
Zn3 O27 2.066 . S
Zn3 O31 2.053 . S
C4 O1 1.259 . S
C4 O5 1.254 . S
O5 Zn3 2.046 . S
O5 C4 1.254 . S
C6 O27 1.256 . S
C6 O28 1.244 . S
O7 Zn3 2.055 . S
O7 C29 1.259 . S
O8 Zn0 2.046 . S
O8 C29 1.254 . S
N9 Zn3 2.036 . S
N9 C10 1.298 . S
N9 N12 1.398 . S
C10 N9 1.298 . S
C10 N13 1.367 . S
C10 C23 1.481 . S
C11 N12 1.299 . S
C11 N13 1.379 . S
N12 N9 1.398 . S
N12 C11 1.299 . S
N13 C10 1.367 . S
N13 C11 1.379 . S
C14 N16 1.298 . S
C14 N18 1.367 . S
C14 C22 1.481 . S
C15 N17 1.299 . S
C15 N18 1.379 . S
N16 Zn0 2.036 . S
N16 C14 1.298 . S
N16 N17 1.398 . S
N17 C15 1.299 . S
N17 N16 1.398 . S
N18 C14 1.367 . S
N18 C15 1.379 . S
H19 C22 0.980 . S
H20 C22 0.981 . S
H21 C22 0.981 . S
C22 C14 1.481 . S
C22 H19 0.980 . S
C22 H20 0.981 . S
C22 H21 0.981 . S
C23 C10 1.481 . S
C23 H24 0.980 . S
C23 H25 0.981 . S
C23 H26 0.981 . S
H24 C23 0.980 . S
H25 C23 0.981 . S
H26 C23 0.981 . S
O27 Zn3 2.066 . S
O27 C6 1.256 . S
O28 Zn0 2.053 . S
O28 C6 1.244 . S
C29 O7 1.259 . S
C29 O8 1.254 . S
O30 Zn0 2.066 . S
O30 C2 1.256 . S
O31 C2 1.244 . S
O31 Zn3 2.053 . S
Zn32 O33 2.055 . S
Zn32 O40 2.046 . S
Zn32 N48 2.036 . S
Zn32 O60 2.053 1_655 S
Zn32 O62 2.066 1_655 S
O33 Zn32 2.055 . S
O33 C36 1.259 . S
C34 O62 1.256 . S
C34 O63 1.244 . S
Zn35 O37 2.046 . S
Zn35 O39 2.055 . S
Zn35 N41 2.036 . S
Zn35 O59 2.066 . S
Zn35 O63 2.053 . S
C36 O33 1.259 . S
C36 O37 1.254 1_655 S
O37 Zn35 2.046 . S
O37 C36 1.254 1_455 S
C38 O59 1.256 . S
C38 O60 1.244 . S
O39 Zn35 2.055 . S
O39 C61 1.259 1_455 S
O40 Zn32 2.046 . S
O40 C61 1.254 . S
N41 Zn35 2.036 . S
N41 C42 1.298 . S
N41 N44 1.398 . S
C42 N41 1.298 . S
C42 N45 1.367 . S
C42 C55 1.481 . S
C43 N44 1.299 . S
C43 N45 1.379 . S
N44 N41 1.398 . S
N44 C43 1.299 . S
N45 C42 1.367 . S
N45 C43 1.379 . S
C46 N48 1.298 . S
C46 N50 1.367 . S
C46 C54 1.481 . S
C47 N49 1.299 . S
C47 N50 1.379 . S
N48 Zn32 2.036 . S
N48 C46 1.298 . S
N48 N49 1.398 . S
N49 C47 1.299 . S
N49 N48 1.398 . S
N50 C46 1.367 . S
N50 C47 1.379 . S
H51 C54 0.980 . S
H52 C54 0.981 . S
H53 C54 0.981 . S
C54 C46 1.481 . S
C54 H51 0.980 . S
C54 H52 0.981 . S
C54 H53 0.981 . S
C55 C42 1.481 . S
C55 H56 0.980 . S
C55 H57 0.981 . S
C55 H58 0.981 . S
H56 C55 0.980 . S
H57 C55 0.981 . S
H58 C55 0.981 . S
O59 Zn35 2.066 . S
O59 C38 1.256 . S
O60 Zn32 2.053 1_455 S
O60 C38 1.244 . S
C61 O39 1.259 1_655 S
C61 O40 1.254 . S
O62 Zn32 2.066 1_455 S
O62 C34 1.256 . S
O63 C34 1.244 . S
O63 Zn35 2.053 . S
Zn64 O65 2.055 . S
Zn64 O72 2.046 . S
Zn64 N80 2.036 . S
Zn64 O92 2.053 1_554 S
Zn64 O94 2.066 1_554 S
O65 Zn64 2.055 . S
O65 C68 1.259 . S
C66 O94 1.256 . S
C66 O95 1.244 . S
Zn67 O69 2.046 . S
Zn67 O71 2.055 . S
Zn67 N73 2.036 . S
Zn67 O91 2.066 . S
Zn67 O95 2.053 . S
C68 O65 1.259 . S
C68 O69 1.254 1_554 S
O69 Zn67 2.046 . S
O69 C68 1.254 1_556 S
C70 O91 1.256 . S
C70 O92 1.244 . S
O71 Zn67 2.055 . S
O71 C93 1.259 1_556 S
O72 Zn64 2.046 . S
O72 C93 1.254 . S
N73 Zn67 2.036 . S
N73 C74 1.298 . S
N73 N76 1.398 . S
C74 N73 1.298 . S
C74 N77 1.367 . S
C74 C87 1.481 . S
C75 N76 1.299 . S
C75 N77 1.379 . S
N76 N73 1.398 . S
N76 C75 1.299 . S
N77 C74 1.367 . S
N77 C75 1.379 . S
C78 N80 1.298 . S
C78 N82 1.367 . S
C78 C86 1.481 . S
C79 N81 1.299 . S
C79 N82 1.379 . S
N80 Zn64 2.036 . S
N80 C78 1.298 . S
N80 N81 1.398 . S
N81 C79 1.299 . S
N81 N80 1.398 . S
N82 C78 1.367 . S
N82 C79 1.379 . S
H83 C86 0.980 . S
H84 C86 0.981 . S
H85 C86 0.981 . S
C86 C78 1.481 . S
C86 H83 0.980 . S
C86 H84 0.981 . S
C86 H85 0.981 . S
C87 C74 1.481 . S
C87 H88 0.980 . S
C87 H89 0.981 . S
C87 H90 0.981 . S
H88 C87 0.980 . S
H89 C87 0.981 . S
H90 C87 0.981 . S
O91 Zn67 2.066 . S
O91 C70 1.256 . S
O92 Zn64 2.053 1_556 S
O92 C70 1.244 . S
C93 O71 1.259 1_554 S
C93 O72 1.254 . S
O94 Zn64 2.066 1_556 S
O94 C66 1.256 . S
O95 C66 1.244 . S
O95 Zn67 2.053 . S
Zn96 O97 2.055 . S
Zn96 O104 2.046 . S
Zn96 N112 2.036 . S
Zn96 O124 2.053 . S
Zn96 O126 2.066 . S
O97 Zn96 2.055 . S
O97 C100 1.259 . S
C98 O126 1.256 . S
C98 O127 1.244 . S
Zn99 O101 2.046 . S
Zn99 O103 2.055 . S
Zn99 N105 2.036 . S
Zn99 O123 2.066 . S
Zn99 O127 2.053 . S
C100 O97 1.259 . S
C100 O101 1.254 . S
O101 Zn99 2.046 . S
O101 C100 1.254 . S
C102 O123 1.256 . S
C102 O124 1.244 . S
O103 Zn99 2.055 . S
O103 C125 1.259 . S
O104 Zn96 2.046 . S
O104 C125 1.254 . S
N105 Zn99 2.036 . S
N105 C106 1.298 . S
N105 N108 1.398 . S
C106 N105 1.298 . S
C106 N109 1.367 . S
C106 C119 1.481 . S
C107 N108 1.299 . S
C107 N109 1.379 . S
N108 N105 1.398 . S
N108 C107 1.299 . S
N109 C106 1.367 . S
N109 C107 1.379 . S
C110 N112 1.298 . S
C110 N114 1.367 . S
C110 C118 1.481 . S
C111 N113 1.299 . S
C111 N114 1.379 . S
N112 Zn96 2.036 . S
N112 C110 1.298 . S
N112 N113 1.398 . S
N113 C111 1.299 . S
N113 N112 1.398 . S
N114 C110 1.367 . S
N114 C111 1.379 . S
H115 C118 0.980 . S
H116 C118 0.981 . S
H117 C118 0.981 . S
C118 C110 1.481 . S
C118 H115 0.980 . S
C118 H116 0.981 . S
C118 H117 0.981 . S
C119 C106 1.481 . S
C119 H120 0.980 . S
C119 H121 0.981 . S
C119 H122 0.981 . S
H120 C119 0.980 . S
H121 C119 0.981 . S
H122 C119 0.981 . S
O123 Zn99 2.066 . S
O123 C102 1.256 . S
O124 Zn96 2.053 . S
O124 C102 1.244 . S
C125 O103 1.259 . S
C125 O104 1.254 . S
O126 Zn96 2.066 . S
O126 C98 1.256 . S
O127 C98 1.244 . S
O127 Zn99 2.053 . S
Zn128 O129 2.055 . S
Zn128 O136 2.046 . S
Zn128 N144 2.036 . S
Zn128 O156 2.053 . S
Zn128 O158 2.066 . S
O129 Zn128 2.055 . S
O129 C132 1.259 . S
C130 O158 1.256 . S
C130 O159 1.244 . S
Zn131 O133 2.046 . S
Zn131 O135 2.055 . S
Zn131 N137 2.036 . S
Zn131 O155 2.066 . S
Zn131 O159 2.053 . S
C132 O129 1.259 . S
C132 O133 1.254 . S
O133 Zn131 2.046 . S
O133 C132 1.254 . S
C134 O155 1.256 . S
C134 O156 1.244 . S
O135 Zn131 2.055 . S
O135 C157 1.259 . S
O136 Zn128 2.046 . S
O136 C157 1.254 . S
N137 Zn131 2.036 . S
N137 C138 1.298 . S
N137 N140 1.398 . S
C138 N137 1.298 . S
C138 N141 1.367 . S
C138 C151 1.481 . S
C139 N140 1.299 . S
C139 N141 1.379 . S
N140 N137 1.398 . S
N140 C139 1.299 . S
N141 C138 1.367 . S
N141 C139 1.379 . S
C142 N144 1.298 . S
C142 N146 1.367 . S
C142 C150 1.481 . S
C143 N145 1.299 . S
C143 N146 1.379 . S
N144 Zn128 2.036 . S
N144 C142 1.298 . S
N144 N145 1.398 . S
N145 C143 1.299 . S
N145 N144 1.398 . S
N146 C142 1.367 . S
N146 C143 1.379 . S
H147 C150 0.980 . S
H148 C150 0.981 . S
H149 C150 0.981 . S
C150 C142 1.481 . S
C150 H147 0.980 . S
C150 H148 0.981 . S
C150 H149 0.981 . S
C151 C138 1.481 . S
C151 H152 0.980 . S
C151 H153 0.981 . S
C151 H154 0.981 . S
H152 C151 0.980 . S
H153 C151 0.981 . S
H154 C151 0.981 . S
O155 Zn131 2.066 . S
O155 C134 1.256 . S
O156 Zn128 2.053 . S
O156 C134 1.244 . S
C157 O135 1.259 . S
C157 O136 1.254 . S
O158 Zn128 2.066 . S
O158 C130 1.256 . S
O159 C130 1.244 . S
O159 Zn131 2.053 . S
Zn160 O161 2.055 . S
Zn160 O168 2.046 . S
Zn160 N176 2.036 . S
Zn160 O188 2.053 . S
Zn160 O190 2.066 . S
O161 Zn160 2.055 . S
O161 C164 1.259 1_655 S
C162 O190 1.256 . S
C162 O191 1.244 . S
Zn163 O165 2.046 . S
Zn163 O167 2.055 . S
Zn163 N169 2.036 . S
Zn163 O187 2.066 1_455 S
Zn163 O191 2.053 1_455 S
C164 O161 1.259 1_455 S
C164 O165 1.254 . S
O165 Zn163 2.046 . S
O165 C164 1.254 . S
C166 O187 1.256 . S
C166 O188 1.244 . S
O167 Zn163 2.055 . S
O167 C189 1.259 . S
O168 Zn160 2.046 . S
O168 C189 1.254 1_655 S
N169 Zn163 2.036 . S
N169 C170 1.298 . S
N169 N172 1.398 . S
C170 N169 1.298 . S
C170 N173 1.367 . S
C170 C183 1.481 . S
C171 N172 1.299 . S
C171 N173 1.379 . S
N172 N169 1.398 . S
N172 C171 1.299 . S
N173 C170 1.367 . S
N173 C171 1.379 . S
C174 N176 1.298 . S
C174 N178 1.367 . S
C174 C182 1.481 . S
C175 N177 1.299 . S
C175 N178 1.379 . S
N176 Zn160 2.036 . S
N176 C174 1.298 . S
N176 N177 1.398 . S
N177 C175 1.299 . S
N177 N176 1.398 . S
N178 C174 1.367 . S
N178 C175 1.379 . S
H179 C182 0.980 . S
H180 C182 0.981 . S
H181 C182 0.981 . S
C182 C174 1.481 . S
C182 H179 0.980 . S
C182 H180 0.981 . S
C182 H181 0.981 . S
C183 C170 1.481 . S
C183 H184 0.980 . S
C183 H185 0.981 . S
C183 H186 0.981 . S
H184 C183 0.980 . S
H185 C183 0.981 . S
H186 C183 0.981 . S
O187 Zn163 2.066 1_655 S
O187 C166 1.256 . S
O188 Zn160 2.053 . S
O188 C166 1.244 . S
C189 O167 1.259 . S
C189 O168 1.254 1_455 S
O190 Zn160 2.066 . S
O190 C162 1.256 . S
O191 C162 1.244 . S
O191 Zn163 2.053 1_655 S
Zn192 O193 2.055 . S
Zn192 O200 2.046 . S
Zn192 N208 2.036 . S
Zn192 O220 2.053 . S
Zn192 O222 2.066 . S
O193 Zn192 2.055 . S
O193 C196 1.259 1_554 S
C194 O222 1.256 . S
C194 O223 1.244 . S
Zn195 O197 2.046 . S
Zn195 O199 2.055 . S
Zn195 N201 2.036 . S
Zn195 O219 2.066 1_556 S
Zn195 O223 2.053 1_556 S
C196 O193 1.259 1_556 S
C196 O197 1.254 . S
O197 Zn195 2.046 . S
O197 C196 1.254 . S
C198 O219 1.256 . S
C198 O220 1.244 . S
O199 Zn195 2.055 . S
O199 C221 1.259 . S
O200 Zn192 2.046 . S
O200 C221 1.254 1_554 S
N201 Zn195 2.036 . S
N201 C202 1.298 . S
N201 N204 1.398 . S
C202 N201 1.298 . S
C202 N205 1.367 . S
C202 C215 1.481 . S
C203 N204 1.299 . S
C203 N205 1.379 . S
N204 N201 1.398 . S
N204 C203 1.299 . S
N205 C202 1.367 . S
N205 C203 1.379 . S
C206 N208 1.298 . S
C206 N210 1.367 . S
C206 C214 1.481 . S
C207 N209 1.299 . S
C207 N210 1.379 . S
N208 Zn192 2.036 . S
N208 C206 1.298 . S
N208 N209 1.398 . S
N209 C207 1.299 . S
N209 N208 1.398 . S
N210 C206 1.367 . S
N210 C207 1.379 . S
H211 C214 0.980 . S
H212 C214 0.981 . S
H213 C214 0.981 . S
C214 C206 1.481 . S
C214 H211 0.980 . S
C214 H212 0.981 . S
C214 H213 0.981 . S
C215 C202 1.481 . S
C215 H216 0.980 . S
C215 H217 0.981 . S
C215 H218 0.981 . S
H216 C215 0.980 . S
H217 C215 0.981 . S
H218 C215 0.981 . S
O219 Zn195 2.066 1_554 S
O219 C198 1.256 . S
O220 Zn192 2.053 . S
O220 C198 1.244 . S
C221 O199 1.259 . S
C221 O200 1.254 1_556 S
O222 Zn192 2.066 . S
O222 C194 1.256 . S
O223 C194 1.244 . S
O223 Zn195 2.053 1_554 S
Zn224 O225 2.055 . S
Zn224 O232 2.046 . S
Zn224 N240 2.036 . S
Zn224 O252 2.053 . S
Zn224 O254 2.066 . S
O225 Zn224 2.055 . S
O225 C228 1.259 . S
C226 O254 1.256 . S
C226 O255 1.244 . S
Zn227 O229 2.046 . S
Zn227 O231 2.055 . S
Zn227 N233 2.036 . S
Zn227 O251 2.066 . S
Zn227 O255 2.053 . S
C228 O225 1.259 . S
C228 O229 1.254 . S
O229 Zn227 2.046 . S
O229 C228 1.254 . S
C230 O251 1.256 . S
C230 O252 1.244 . S
O231 Zn227 2.055 . S
O231 C253 1.259 . S
O232 Zn224 2.046 . S
O232 C253 1.254 . S
N233 Zn227 2.036 . S
N233 C234 1.298 . S
N233 N236 1.398 . S
C234 N233 1.298 . S
C234 N237 1.367 . S
C234 C247 1.481 . S
C235 N236 1.299 . S
C235 N237 1.379 . S
N236 N233 1.398 . S
N236 C235 1.299 . S
N237 C234 1.367 . S
N237 C235 1.379 . S
C238 N240 1.298 . S
C238 N242 1.367 . S
C238 C246 1.481 . S
C239 N241 1.299 . S
C239 N242 1.379 . S
N240 Zn224 2.036 . S
N240 C238 1.298 . S
N240 N241 1.398 . S
N241 C239 1.299 . S
N241 N240 1.398 . S
N242 C238 1.367 . S
N242 C239 1.379 . S
H243 C246 0.980 . S
H244 C246 0.981 . S
H245 C246 0.981 . S
C246 C238 1.481 . S
C246 H243 0.980 . S
C246 H244 0.981 . S
C246 H245 0.981 . S
C247 C234 1.481 . S
C247 H248 0.980 . S
C247 H249 0.981 . S
C247 H250 0.981 . S
H248 C247 0.980 . S
H249 C247 0.981 . S
H250 C247 0.981 . S
O251 Zn227 2.066 . S
O251 C230 1.256 . S
O252 Zn224 2.053 . S
O252 C230 1.244 . S
C253 O231 1.259 . S
C253 O232 1.254 . S
O254 Zn224 2.066 . S
O254 C226 1.256 . S
O255 C226 1.244 . S
O255 Zn227 2.053 . S
Zn256 O257 2.055 . S
Zn256 O264 2.046 . S
Zn256 N272 2.036 . S
Zn256 O284 2.053 . S
Zn256 O286 2.066 . S
O257 Zn256 2.055 . S
O257 C260 1.259 . S
C258 O286 1.256 . S
C258 O287 1.244 . S
Zn259 O261 2.046 . S
Zn259 O263 2.055 . S
Zn259 N265 2.036 . S
Zn259 O283 2.066 . S
Zn259 O287 2.053 . S
C260 O257 1.259 . S
C260 O261 1.254 . S
O261 Zn259 2.046 . S
O261 C260 1.254 . S
C262 O283 1.256 . S
C262 O284 1.244 . S
O263 Zn259 2.055 . S
O263 C285 1.259 . S
O264 Zn256 2.046 . S
O264 C285 1.254 . S
N265 Zn259 2.036 . S
N265 C266 1.298 . S
N265 N268 1.398 . S
C266 N265 1.298 . S
C266 N269 1.367 . S
C266 C279 1.481 . S
C267 N268 1.299 . S
C267 N269 1.379 . S
N268 N265 1.398 . S
N268 C267 1.299 . S
N269 C266 1.367 . S
N269 C267 1.379 . S
C270 N272 1.298 . S
C270 N274 1.367 . S
C270 C278 1.481 . S
C271 N273 1.299 . S
C271 N274 1.379 . S
N272 Zn256 2.036 . S
N272 C270 1.298 . S
N272 N273 1.398 . S
N273 C271 1.299 . S
N273 N272 1.398 . S
N274 C270 1.367 . S
N274 C271 1.379 . S
H275 C278 0.980 . S
H276 C278 0.981 . S
H277 C278 0.981 . S
C278 C270 1.481 . S
C278 H275 0.980 . S
C278 H276 0.981 . S
C278 H277 0.981 . S
C279 C266 1.481 . S
C279 H280 0.980 . S
C279 H281 0.981 . S
C279 H282 0.981 . S
H280 C279 0.980 . S
H281 C279 0.981 . S
H282 C279 0.981 . S
O283 Zn259 2.066 . S
O283 C262 1.256 . S
O284 Zn256 2.053 . S
O284 C262 1.244 . S
C285 O263 1.259 . S
C285 O264 1.254 . S
O286 Zn256 2.066 . S
O286 C258 1.256 . S
O287 C258 1.244 . S
O287 Zn259 2.053 . S
Zn288 O289 2.055 . S
Zn288 O296 2.046 . S
Zn288 N304 2.036 . S
Zn288 O316 2.053 . S
Zn288 O318 2.066 . S
O289 Zn288 2.055 . S
O289 C292 1.259 1_545 S
C290 O318 1.256 . S
C290 O319 1.244 . S
Zn291 O293 2.046 . S
Zn291 O295 2.055 . S
Zn291 N297 2.036 . S
Zn291 O315 2.066 1_565 S
Zn291 O319 2.053 1_565 S
C292 O289 1.259 1_565 S
C292 O293 1.254 . S
O293 Zn291 2.046 . S
O293 C292 1.254 . S
C294 O315 1.256 . S
C294 O316 1.244 . S
O295 Zn291 2.055 . S
O295 C317 1.259 . S
O296 Zn288 2.046 . S
O296 C317 1.254 1_545 S
N297 Zn291 2.036 . S
N297 C298 1.298 . S
N297 N300 1.398 . S
C298 N297 1.298 . S
C298 N301 1.367 . S
C298 C311 1.481 . S
C299 N300 1.299 . S
C299 N301 1.379 . S
N300 N297 1.398 . S
N300 C299 1.299 . S
N301 C298 1.367 . S
N301 C299 1.379 . S
C302 N304 1.298 . S
C302 N306 1.367 . S
C302 C310 1.481 . S
C303 N305 1.299 . S
C303 N306 1.379 . S
N304 Zn288 2.036 . S
N304 C302 1.298 . S
N304 N305 1.398 . S
N305 C303 1.299 . S
N305 N304 1.398 . S
N306 C302 1.367 . S
N306 C303 1.379 . S
H307 C310 0.980 . S
H308 C310 0.981 . S
H309 C310 0.981 . S
C310 C302 1.481 . S
C310 H307 0.980 . S
C310 H308 0.981 . S
C310 H309 0.981 . S
C311 C298 1.481 . S
C311 H312 0.980 . S
C311 H313 0.981 . S
C311 H314 0.981 . S
H312 C311 0.980 . S
H313 C311 0.981 . S
H314 C311 0.981 . S
O315 Zn291 2.066 1_545 S
O315 C294 1.256 . S
O316 Zn288 2.053 . S
O316 C294 1.244 . S
C317 O295 1.259 . S
C317 O296 1.254 1_565 S
O318 Zn288 2.066 . S
O318 C290 1.256 . S
O319 C290 1.244 . S
O319 Zn291 2.053 1_545 S
Zn320 O321 2.055 . S
Zn320 O328 2.046 . S
Zn320 N336 2.036 . S
Zn320 O348 2.053 . S
Zn320 O350 2.066 . S
O321 Zn320 2.055 . S
O321 C324 1.259 1_565 S
C322 O350 1.256 . S
C322 O351 1.244 . S
Zn323 O325 2.046 . S
Zn323 O327 2.055 . S
Zn323 N329 2.036 . S
Zn323 O347 2.066 1_545 S
Zn323 O351 2.053 1_545 S
C324 O321 1.259 1_545 S
C324 O325 1.254 . S
O325 Zn323 2.046 . S
O325 C324 1.254 . S
C326 O347 1.256 . S
C326 O348 1.244 . S
O327 Zn323 2.055 . S
O327 C349 1.259 . S
O328 Zn320 2.046 . S
O328 C349 1.254 1_565 S
N329 Zn323 2.036 . S
N329 C330 1.298 . S
N329 N332 1.398 . S
C330 N329 1.298 . S
C330 N333 1.367 . S
C330 C343 1.481 . S
C331 N332 1.299 . S
C331 N333 1.379 . S
N332 N329 1.398 . S
N332 C331 1.299 . S
N333 C330 1.367 . S
N333 C331 1.379 . S
C334 N336 1.298 . S
C334 N338 1.367 . S
C334 C342 1.481 . S
C335 N337 1.299 . S
C335 N338 1.379 . S
N336 Zn320 2.036 . S
N336 C334 1.298 . S
N336 N337 1.398 . S
N337 C335 1.299 . S
N337 N336 1.398 . S
N338 C334 1.367 . S
N338 C335 1.379 . S
H339 C342 0.980 . S
H340 C342 0.981 . S
H341 C342 0.981 . S
C342 C334 1.481 . S
C342 H339 0.980 . S
C342 H340 0.981 . S
C342 H341 0.981 . S
C343 C330 1.481 . S
C343 H344 0.980 . S
C343 H345 0.981 . S
C343 H346 0.981 . S
H344 C343 0.980 . S
H345 C343 0.981 . S
H346 C343 0.981 . S
O347 Zn323 2.066 1_565 S
O347 C326 1.256 . S
O348 Zn320 2.053 . S
O348 C326 1.244 . S
C349 O327 1.259 . S
C349 O328 1.254 1_545 S
O350 Zn320 2.066 . S
O350 C322 1.256 . S
O351 C322 1.244 . S
O351 Zn323 2.053 1_565 S
Zn352 O353 2.055 . S
Zn352 O360 2.046 . S
Zn352 N368 2.036 . S
Zn352 O380 2.053 . S
Zn352 O382 2.066 . S
O353 Zn352 2.055 . S
O353 C356 1.259 . S
C354 O382 1.256 . S
C354 O383 1.244 . S
Zn355 O357 2.046 . S
Zn355 O359 2.055 . S
Zn355 N361 2.036 . S
Zn355 O379 2.066 . S
Zn355 O383 2.053 . S
C356 O353 1.259 . S
C356 O357 1.254 . S
O357 Zn355 2.046 . S
O357 C356 1.254 . S
C358 O379 1.256 . S
C358 O380 1.244 . S
O359 Zn355 2.055 . S
O359 C381 1.259 . S
O360 Zn352 2.046 . S
O360 C381 1.254 . S
N361 Zn355 2.036 . S
N361 C362 1.298 . S
N361 N364 1.398 . S
C362 N361 1.298 . S
C362 N365 1.367 . S
C362 C375 1.481 . S
C363 N364 1.299 . S
C363 N365 1.379 . S
N364 N361 1.398 . S
N364 C363 1.299 . S
N365 C362 1.367 . S
N365 C363 1.379 . S
C366 N368 1.298 . S
C366 N370 1.367 . S
C366 C374 1.481 . S
C367 N369 1.299 . S
C367 N370 1.379 . S
N368 Zn352 2.036 . S
N368 C366 1.298 . S
N368 N369 1.398 . S
N369 C367 1.299 . S
N369 N368 1.398 . S
N370 C366 1.367 . S
N370 C367 1.379 . S
H371 C374 0.980 . S
H372 C374 0.981 . S
H373 C374 0.981 . S
C374 C366 1.481 . S
C374 H371 0.980 . S
C374 H372 0.981 . S
C374 H373 0.981 . S
C375 C362 1.481 . S
C375 H376 0.980 . S
C375 H377 0.981 . S
C375 H378 0.981 . S
H376 C375 0.980 . S
H377 C375 0.981 . S
H378 C375 0.981 . S
O379 Zn355 2.066 . S
O379 C358 1.256 . S
O380 Zn352 2.053 . S
O380 C358 1.244 . S
C381 O359 1.259 . S
C381 O360 1.254 . S
O382 Zn352 2.066 . S
O382 C354 1.256 . S
O383 C354 1.244 . S
O383 Zn355 2.053 . S
H384 C390 0.930 . S
H385 C394 0.930 . S
H386 C399 0.929 . S
H387 C397 0.929 . S
H388 C392 0.929 . S
H389 C398 0.929 . S
C390 H384 0.930 . S
C390 C391 1.367 . S
C390 C398 1.378 . S
C391 C390 1.367 . S
C391 C399 1.433 . S
C392 H388 0.929 . S
C392 C394 1.378 . S
C392 C396 1.350 . S
C393 C396 1.463 . S
C393 C398 1.350 . S
C393 N401 1.427 . S
C394 H385 0.930 . S
C394 C392 1.378 . S
C394 C395 1.367 . S
C395 C394 1.367 . S
C395 C397 1.433 . S
C396 C392 1.350 . S
C396 C393 1.463 . S
C396 N400 1.427 . S
C397 H387 0.929 . S
C397 C395 1.433 . S
C397 N400 1.384 . S
C398 H389 0.929 . S
C398 C390 1.378 . S
C398 C393 1.350 . S
C399 H386 0.929 . S
C399 C391 1.433 . S
C399 N401 1.384 . S
N400 C396 1.427 . S
N400 C397 1.384 . S
N401 C393 1.427 . S
N401 C399 1.384 . S
H402 C408 0.930 . S
H403 C412 0.930 . S
H404 C417 0.929 . S
H405 C415 0.929 . S
H406 C410 0.929 1_545 S
H407 C416 0.929 . S
C408 H402 0.930 . S
C408 C409 1.367 . S
C408 C416 1.378 . S
C409 C408 1.367 . S
C409 C417 1.433 1_565 S
C410 H406 0.929 1_565 S
C410 C412 1.378 . S
C410 C414 1.350 . S
C411 C414 1.463 . S
C411 C416 1.350 . S
C411 N419 1.427 1_565 S
C412 H403 0.930 . S
C412 C410 1.378 . S
C412 C413 1.367 . S
C413 C412 1.367 . S
C413 C415 1.433 . S
C414 C410 1.350 . S
C414 C411 1.463 . S
C414 N418 1.427 . S
C415 H405 0.929 . S
C415 C413 1.433 . S
C415 N418 1.384 . S
C416 H407 0.929 . S
C416 C408 1.378 . S
C416 C411 1.350 . S
C417 H404 0.929 . S
C417 C409 1.433 1_545 S
C417 N419 1.384 . S
N418 C414 1.427 . S
N418 C415 1.384 . S
N419 C411 1.427 1_545 S
N419 C417 1.384 . S
H420 C426 0.930 . S
H421 C430 0.930 . S
H422 C435 0.924 1_556 S
H423 C433 0.929 . S
H424 C428 0.929 . S
H425 C434 0.929 . S
C426 H420 0.930 . S
C426 C427 1.367 . S
C426 C434 1.378 . S
C427 C426 1.367 . S
C427 C435 1.433 . S
C428 H424 0.929 . S
C428 C430 1.378 . S
C428 C432 1.350 . S
C429 C432 1.463 . S
C429 C434 1.350 . S
C429 N437 1.427 . S
C430 H421 0.930 . S
C430 C428 1.378 . S
C430 C431 1.367 . S
C431 C430 1.367 . S
C431 C433 1.433 . S
C432 C428 1.350 . S
C432 C429 1.463 . S
C432 N436 1.427 . S
C433 H423 0.929 . S
C433 C431 1.433 . S
C433 N436 1.384 . S
C434 H425 0.929 . S
C434 C426 1.378 . S
C434 C429 1.350 . S
C435 H422 0.924 1_554 S
C435 C427 1.433 . S
C435 N437 1.384 . S
N436 C432 1.427 . S
N436 C433 1.384 . S
N437 C429 1.427 . S
N437 C435 1.384 . S
H438 C444 0.930 . S
H439 C448 0.930 . S
H440 C453 0.929 . S
H441 C451 0.929 . S
H442 C446 0.929 . S
H443 C452 0.929 . S
C444 H438 0.930 . S
C444 C445 1.367 . S
C444 C452 1.378 . S
C445 C444 1.367 . S
C445 C453 1.433 . S
C446 H442 0.929 . S
C446 C448 1.378 . S
C446 C450 1.350 . S
C447 C450 1.463 . S
C447 C452 1.350 . S
C447 N455 1.427 . S
C448 H439 0.930 . S
C448 C446 1.378 . S
C448 C449 1.367 . S
C449 C448 1.367 . S
C449 C451 1.433 . S
C450 C446 1.350 . S
C450 C447 1.463 . S
C450 N454 1.427 . S
C451 H441 0.929 . S
C451 C449 1.433 . S
C451 N454 1.384 . S
C452 H443 0.929 . S
C452 C444 1.378 . S
C452 C447 1.350 . S
C453 H440 0.929 . S
C453 C445 1.433 . S
C453 N455 1.384 . S
N454 C450 1.427 . S
N454 C451 1.384 . S
N455 C447 1.427 . S
N455 C453 1.384 . S
H456 C462 0.930 . S
H457 C466 0.930 . S
H458 C471 0.929 . S
H459 C469 0.929 . S
H460 C464 0.929 . S
H461 C470 0.929 . S
C462 H456 0.930 . S
C462 C463 1.367 . S
C462 C470 1.378 . S
C463 C462 1.367 . S
C463 C471 1.433 . S
C464 H460 0.929 . S
C464 C466 1.378 . S
C464 C468 1.350 . S
C465 C468 1.463 . S
C465 C470 1.350 . S
C465 N473 1.427 . S
C466 H457 0.930 . S
C466 C464 1.378 . S
C466 C467 1.367 . S
C467 C466 1.367 . S
C467 C469 1.433 . S
C468 C464 1.350 . S
C468 C465 1.463 . S
C468 N472 1.427 . S
C469 H459 0.929 . S
C469 C467 1.433 . S
C469 N472 1.384 . S
C470 H461 0.929 . S
C470 C462 1.378 . S
C470 C465 1.350 . S
C471 H458 0.929 . S
C471 C463 1.433 . S
C471 N473 1.384 . S
N472 C468 1.427 . S
N472 C469 1.384 . S
N473 C465 1.427 . S
N473 C471 1.384 . S
H474 C480 0.930 . S
H475 C484 0.930 . S
H476 C489 0.929 . S
H477 C487 0.929 . S
H478 C482 0.929 . S
H479 C488 0.929 . S
C480 H474 0.930 . S
C480 C481 1.367 . S
C480 C488 1.378 . S
C481 C480 1.367 . S
C481 C489 1.433 . S
C482 H478 0.929 . S
C482 C484 1.378 . S
C482 C486 1.350 . S
C483 C486 1.463 . S
C483 C488 1.350 . S
C483 N491 1.427 . S
C484 H475 0.930 . S
C484 C482 1.378 . S
C484 C485 1.367 . S
C485 C484 1.367 . S
C485 C487 1.433 . S
C486 C482 1.350 . S
C486 C483 1.463 . S
C486 N490 1.427 . S
C487 H477 0.929 . S
C487 C485 1.433 . S
C487 N490 1.384 . S
C488 H479 0.929 . S
C488 C480 1.378 . S
C488 C483 1.350 . S
C489 H476 0.929 . S
C489 C481 1.433 . S
C489 N491 1.384 . S
N490 C486 1.427 . S
N490 C487 1.384 . S
N491 C483 1.427 . S
N491 C489 1.384 . S
H492 C498 0.930 . S
H493 C502 0.930 . S
H494 C507 0.929 . S
H495 C505 0.929 . S
H496 C500 0.929 1_554 S
H497 C506 0.929 . S
C498 H492 0.930 . S
C498 C499 1.367 . S
C498 C506 1.378 . S
C499 C498 1.367 . S
C499 C507 1.433 . S
C500 H496 0.929 1_556 S
C500 C502 1.378 1_556 S
C500 C504 1.350 . S
C501 C504 1.463 . S
C501 C506 1.350 . S
C501 N509 1.427 . S
C502 H493 0.930 . S
C502 C500 1.378 1_554 S
C502 C503 1.367 1_554 S
C503 C502 1.367 1_556 S
C503 C505 1.433 . S
C504 C500 1.350 . S
C504 C501 1.463 . S
C504 N508 1.427 . S
C505 H495 0.929 . S
C505 C503 1.433 . S
C505 N508 1.384 . S
C506 H497 0.929 . S
C506 C498 1.378 . S
C506 C501 1.350 . S
C507 H494 0.929 . S
C507 C499 1.433 . S
C507 N509 1.384 . S
N508 C504 1.427 . S
N508 C505 1.384 . S
N509 C501 1.427 . S
N509 C507 1.384 . S
H510 C516 0.930 . S
H511 C520 0.930 . S
H512 C525 0.929 . S
H513 C523 0.929 . S
H514 C518 0.929 . S
H515 C524 0.929 . S
C516 H510 0.930 . S
C516 C517 1.367 . S
C516 C524 1.378 . S
C517 C516 1.367 . S
C517 C525 1.433 . S
C518 H514 0.929 . S
C518 C520 1.378 . S
C518 C522 1.350 . S
C519 C522 1.463 . S
C519 C524 1.350 . S
C519 N527 1.427 . S
C520 H511 0.930 . S
C520 C518 1.378 . S
C520 C521 1.367 . S
C521 C520 1.367 . S
C521 C523 1.433 . S
C522 C518 1.350 . S
C522 C519 1.463 . S
C522 N526 1.427 . S
C523 H513 0.929 . S
C523 C521 1.433 . S
C523 N526 1.384 . S
C524 H515 0.929 . S
C524 C516 1.378 . S
C524 C519 1.350 . S
C525 H512 0.929 . S
C525 C517 1.433 . S
C525 N527 1.384 . S
N526 C522 1.427 . S
N526 C523 1.384 . S
N527 C519 1.427 . S
N527 C525 1.384 . S
H528 C534 0.930 . S
H529 C538 0.930 . S
H530 C543 0.929 . S
H531 C541 0.929 . S
H532 C536 0.929 . S
H533 C542 0.929 . S
C534 H528 0.930 . S
C534 C535 1.367 . S
C534 C542 1.378 . S
C535 C534 1.367 . S
C535 C543 1.433 . S
C536 H532 0.929 . S
C536 C538 1.378 . S
C536 C540 1.350 . S
C537 C540 1.463 . S
C537 C542 1.350 . S
C537 N545 1.427 . S
C538 H529 0.930 . S
C538 C536 1.378 . S
C538 C539 1.367 . S
C539 C538 1.367 . S
C539 C541 1.433 . S
C540 C536 1.350 . S
C540 C537 1.463 . S
C540 N544 1.427 . S
C541 H531 0.929 . S
C541 C539 1.433 . S
C541 N544 1.384 . S
C542 H533 0.929 . S
C542 C534 1.378 . S
C542 C537 1.350 . S
C543 H530 0.929 . S
C543 C535 1.433 . S
C543 N545 1.384 . S
N544 C540 1.427 . S
N544 C541 1.384 . S
N545 C537 1.427 . S
N545 C543 1.384 . S
H546 C552 0.930 . S
H547 C556 0.930 1_655 S
H548 C561 0.929 . S
H549 C559 0.929 . S
H550 C554 0.929 . S
H551 C560 0.929 . S
C552 H546 0.930 . S
C552 C553 1.367 . S
C552 C560 1.378 . S
C553 C552 1.367 . S
C553 C561 1.433 . S
C554 H550 0.929 . S
C554 C556 1.378 . S
C554 C558 1.350 . S
C555 C558 1.463 . S
C555 C560 1.350 . S
C555 N563 1.427 . S
C556 H547 0.930 1_455 S
C556 C554 1.378 . S
C556 C557 1.367 . S
C557 C556 1.367 . S
C557 C559 1.433 . S
C558 C554 1.350 . S
C558 C555 1.463 . S
C558 N562 1.427 . S
C559 H549 0.929 . S
C559 C557 1.433 . S
C559 N562 1.384 . S
C560 H551 0.929 . S
C560 C552 1.378 . S
C560 C555 1.350 . S
C561 H548 0.929 . S
C561 C553 1.433 . S
C561 N563 1.384 . S
N562 C558 1.427 . S
N562 C559 1.384 . S
N563 C555 1.427 . S
N563 C561 1.384 . S
H564 C570 0.930 . S
H565 C574 0.930 . S
H566 C579 0.929 . S
H567 C577 0.929 . S
H568 C572 0.929 . S
H569 C578 0.929 . S
C570 H564 0.930 . S
C570 C571 1.367 1_455 S
C570 C578 1.378 . S
C571 C570 1.367 1_655 S
C571 C579 1.433 . S
C572 H568 0.929 . S
C572 C574 1.378 . S
C572 C576 1.350 . S
C573 C576 1.463 . S
C573 C578 1.350 1_655 S
C573 N581 1.427 . S
C574 H565 0.930 . S
C574 C572 1.378 . S
C574 C575 1.367 . S
C575 C574 1.367 . S
C575 C577 1.433 . S
C576 C572 1.350 . S
C576 C573 1.463 . S
C576 N580 1.427 . S
C577 H567 0.929 . S
C577 C575 1.433 . S
C577 N580 1.384 . S
C578 H569 0.929 . S
C578 C570 1.378 . S
C578 C573 1.350 1_455 S
C579 H566 0.929 . S
C579 C571 1.433 . S
C579 N581 1.384 . S
N580 C576 1.427 . S
N580 C577 1.384 . S
N581 C573 1.427 . S
N581 C579 1.384 . S
H582 C588 0.930 . S
H583 C592 0.930 . S
H584 C597 0.929 . S
H585 C595 0.929 . S
H586 C590 0.929 . S
H587 C596 0.929 . S
C588 H582 0.930 . S
C588 C589 1.367 . S
C588 C596 1.378 . S
C589 C588 1.367 . S
C589 C597 1.433 . S
C590 H586 0.929 . S
C590 C592 1.378 . S
C590 C594 1.350 . S
C591 C594 1.463 . S
C591 C596 1.350 . S
C591 N599 1.427 . S
C592 H583 0.930 . S
C592 C590 1.378 . S
C592 C593 1.367 . S
C593 C592 1.367 . S
C593 C595 1.433 . S
C594 C590 1.350 . S
C594 C591 1.463 . S
C594 N598 1.427 . S
C595 H585 0.929 . S
C595 C593 1.433 . S
C595 N598 1.384 . S
C596 H587 0.929 . S
C596 C588 1.378 . S
C596 C591 1.350 . S
C597 H584 0.929 . S
C597 C589 1.433 . S
C597 N599 1.384 . S
N598 C594 1.427 . S
N598 C595 1.384 . S
N599 C591 1.427 . S
N599 C597 1.384 . S
H600 C606 0.930 . S
H601 C610 0.930 . S
H602 C615 0.929 . S
H603 C613 0.929 . S
H604 C608 0.929 . S
H605 C614 0.929 . S
C606 H600 0.930 . S
C606 C607 1.367 . S
C606 C614 1.378 . S
C607 C606 1.367 . S
C607 C615 1.433 . S
C608 H604 0.929 . S
C608 C610 1.378 . S
C608 C612 1.350 . S
C609 C612 1.463 . S
C609 C614 1.350 . S
C609 N617 1.427 . S
C610 H601 0.930 . S
C610 C608 1.378 . S
C610 C611 1.367 . S
C611 C610 1.367 . S
C611 C613 1.433 . S
C612 C608 1.350 . S
C612 C609 1.463 . S
C612 N616 1.427 . S
C613 H603 0.929 . S
C613 C611 1.433 . S
C613 N616 1.384 . S
C614 H605 0.929 . S
C614 C606 1.378 . S
C614 C609 1.350 . S
C615 H602 0.929 . S
C615 C607 1.433 . S
C615 N617 1.384 . S
N616 C612 1.427 . S
N616 C613 1.384 . S
N617 C609 1.427 . S
N617 C615 1.384 . S
H618 C624 0.930 . S
H619 C628 0.930 . S
H620 C633 0.929 . S
H621 C631 0.929 . S
H622 C626 0.929 . S
H623 C632 0.929 . S
C624 H618 0.930 . S
C624 C625 1.367 . S
C624 C632 1.378 . S
C625 C624 1.367 . S
C625 C633 1.433 . S
C626 H622 0.929 . S
C626 C628 1.378 . S
C626 C630 1.350 . S
C627 C630 1.463 . S
C627 C632 1.350 . S
C627 N635 1.427 . S
C628 H619 0.930 . S
C628 C626 1.378 . S
C628 C629 1.367 . S
C629 C628 1.367 . S
C629 C631 1.433 . S
C630 C626 1.350 . S
C630 C627 1.463 . S
C630 N634 1.427 . S
C631 H621 0.929 . S
C631 C629 1.433 . S
C631 N634 1.384 . S
C632 H623 0.929 . S
C632 C624 1.378 . S
C632 C627 1.350 . S
C633 H620 0.929 . S
C633 C625 1.433 . S
C633 N635 1.384 . S
N634 C630 1.427 . S
N634 C631 1.384 . S
N635 C627 1.427 . S
N635 C633 1.384 . S
H636 C642 0.930 . S
H637 C646 0.930 . S
H638 C651 0.929 . S
H639 C649 0.929 . S
H640 C644 0.929 . S
H641 C650 0.929 . S
C642 H636 0.930 . S
C642 C643 1.367 . S
C642 C650 1.378 . S
C643 C642 1.367 . S
C643 C651 1.433 . S
C644 H640 0.929 . S
C644 C646 1.378 . S
C644 C648 1.350 . S
C645 C648 1.463 . S
C645 C650 1.350 . S
C645 N653 1.427 . S
C646 H637 0.930 . S
C646 C644 1.378 . S
C646 C647 1.367 . S
C647 C646 1.367 . S
C647 C649 1.433 . S
C648 C644 1.350 . S
C648 C645 1.463 . S
C648 N652 1.427 . S
C649 H639 0.929 . S
C649 C647 1.433 . S
C649 N652 1.384 . S
C650 H641 0.929 . S
C650 C642 1.378 . S
C650 C645 1.350 . S
C651 H638 0.929 . S
C651 C643 1.433 . S
C651 N653 1.384 . S
N652 C648 1.427 . S
N652 C649 1.384 . S
N653 C645 1.427 . S
N653 C651 1.384 . S
H654 C660 0.930 . S
H655 C664 0.930 . S
H656 C669 0.929 . S
H657 C667 0.929 . S
H658 C662 0.929 1_554 S
H659 C668 0.929 . S
C660 H654 0.930 . S
C660 C661 1.367 . S
C660 C668 1.378 . S
C661 C660 1.367 . S
C661 C669 1.433 . S
C662 H658 0.929 1_556 S
C662 C664 1.378 . S
C662 C666 1.350 1_556 S
C663 C666 1.463 . S
C663 C668 1.350 . S
C663 N671 1.427 . S
C664 H655 0.930 . S
C664 C662 1.378 . S
C664 C665 1.367 . S
C665 C664 1.367 . S
C665 C667 1.433 . S
C666 C662 1.350 1_554 S
C666 C663 1.463 . S
C666 N670 1.427 1_554 S
C667 H657 0.929 . S
C667 C665 1.433 . S
C667 N670 1.384 . S
C668 H659 0.929 . S
C668 C660 1.378 . S
C668 C663 1.350 . S
C669 H656 0.929 . S
C669 C661 1.433 . S
C669 N671 1.384 . S
N670 C666 1.427 1_556 S
N670 C667 1.384 . S
N671 C663 1.427 . S
N671 C669 1.384 . S
H672 C678 0.930 . S
H673 C682 0.930 . S
H674 C687 0.929 . S
H675 C685 0.929 . S
H676 C680 0.929 . S
H677 C686 0.929 . S
C678 H672 0.930 . S
C678 C679 1.367 . S
C678 C686 1.378 . S
C679 C678 1.367 . S
C679 C687 1.433 . S
C680 H676 0.929 . S
C680 C682 1.378 . S
C680 C684 1.350 . S
C681 C684 1.463 . S
C681 C686 1.350 . S
C681 N689 1.427 . S
C682 H673 0.930 . S
C682 C680 1.378 . S
C682 C683 1.367 . S
C683 C682 1.367 . S
C683 C685 1.433 . S
C684 C680 1.350 . S
C684 C681 1.463 . S
C684 N688 1.427 . S
C685 H675 0.929 . S
C685 C683 1.433 . S
C685 N688 1.384 . S
C686 H677 0.929 . S
C686 C678 1.378 . S
C686 C681 1.350 . S
C687 H674 0.929 . S
C687 C679 1.433 . S
C687 N689 1.384 . S
N688 C684 1.427 . S
N688 C685 1.384 . S
N689 C681 1.427 . S
N689 C687 1.384 . S
H690 C696 0.930 . S
H691 C700 0.930 . S
H692 C705 0.929 . S
H693 C703 0.929 . S
H694 C698 0.929 . S
H695 C704 0.929 1_556 S
C696 H690 0.930 . S
C696 C697 1.367 . S
C696 C704 1.378 . S
C697 C696 1.367 . S
C697 C705 1.433 . S
C698 H694 0.929 . S
C698 C700 1.378 . S
C698 C702 1.350 . S
C699 C702 1.463 . S
C699 C704 1.350 1_556 S
C699 N707 1.427 1_556 S
C700 H691 0.930 . S
C700 C698 1.378 . S
C700 C701 1.367 . S
C701 C700 1.367 . S
C701 C703 1.433 . S
C702 C698 1.350 . S
C702 C699 1.463 . S
C702 N706 1.427 . S
C703 H693 0.929 . S
C703 C701 1.433 . S
C703 N706 1.384 . S
C704 H695 0.929 1_554 S
C704 C696 1.378 . S
C704 C699 1.350 1_554 S
C705 H692 0.929 . S
C705 C697 1.433 . S
C705 N707 1.384 . S
N706 C702 1.427 . S
N706 C703 1.384 . S
N707 C699 1.427 1_554 S
N707 C705 1.384 . S
H708 C714 0.930 . S
H709 C718 0.930 . S
H710 C723 0.929 . S
H711 C721 0.929 . S
H712 C716 0.929 . S
H713 C722 0.929 . S
C714 H708 0.930 . S
C714 C715 1.367 . S
C714 C722 1.378 . S
C715 C714 1.367 . S
C715 C723 1.433 . S
C716 H712 0.929 . S
C716 C718 1.378 . S
C716 C720 1.350 . S
C717 C720 1.463 . S
C717 C722 1.350 . S
C717 N725 1.427 . S
C718 H709 0.930 . S
C718 C716 1.378 . S
C718 C719 1.367 . S
C719 C718 1.367 . S
C719 C721 1.433 . S
C720 C716 1.350 . S
C720 C717 1.463 . S
C720 N724 1.427 . S
C721 H711 0.929 . S
C721 C719 1.433 . S
C721 N724 1.384 . S
C722 H713 0.929 . S
C722 C714 1.378 . S
C722 C717 1.350 . S
C723 H710 0.929 . S
C723 C715 1.433 . S
C723 N725 1.384 . S
N724 C720 1.427 . S
N724 C721 1.384 . S
N725 C717 1.427 . S
N725 C723 1.384 . S
H726 C732 0.930 . S
H727 C736 0.930 . S
H728 C741 0.929 . S
H729 C739 0.929 . S
H730 C734 0.929 . S
H731 C740 0.929 . S
C732 H726 0.930 . S
C732 C733 1.367 . S
C732 C740 1.378 . S
C733 C732 1.367 . S
C733 C741 1.433 . S
C734 H730 0.929 . S
C734 C736 1.378 . S
C734 C738 1.350 . S
C735 C738 1.463 . S
C735 C740 1.350 . S
C735 N743 1.427 . S
C736 H727 0.930 . S
C736 C734 1.378 . S
C736 C737 1.367 . S
C737 C736 1.367 . S
C737 C739 1.433 . S
C738 C734 1.350 . S
C738 C735 1.463 . S
C738 N742 1.427 . S
C739 H729 0.929 . S
C739 C737 1.433 . S
C739 N742 1.384 . S
C740 H731 0.929 . S
C740 C732 1.378 . S
C740 C735 1.350 . S
C741 H728 0.929 . S
C741 C733 1.433 . S
C741 N743 1.384 . S
N742 C738 1.427 . S
N742 C739 1.384 . S
N743 C735 1.427 . S
N743 C741 1.384 . S
H744 C750 0.930 . S
H745 C754 0.930 . S
H746 C759 0.929 . S
H747 C757 0.929 . S
H748 C752 0.929 . S
H749 C758 0.929 . S
C750 H744 0.930 . S
C750 C751 1.367 . S
C750 C758 1.378 . S
C751 C750 1.367 . S
C751 C759 1.433 . S
C752 H748 0.929 . S
C752 C754 1.378 . S
C752 C756 1.350 . S
C753 C756 1.463 . S
C753 C758 1.350 . S
C753 N761 1.427 . S
C754 H745 0.930 . S
C754 C752 1.378 . S
C754 C755 1.367 . S
C755 C754 1.367 . S
C755 C757 1.433 . S
C756 C752 1.350 . S
C756 C753 1.463 . S
C756 N760 1.427 . S
C757 H747 0.929 . S
C757 C755 1.433 . S
C757 N760 1.384 . S
C758 H749 0.929 . S
C758 C750 1.378 . S
C758 C753 1.350 . S
C759 H746 0.929 . S
C759 C751 1.433 . S
C759 N761 1.384 . S
N760 C756 1.427 . S
N760 C757 1.384 . S
N761 C753 1.427 . S
N761 C759 1.384 . S
H762 C768 0.930 . S
H763 C772 0.930 . S
H764 C777 0.929 . S
H765 C775 0.929 . S
H766 C770 0.929 . S
H767 C776 0.929 . S
C768 H762 0.930 . S
C768 C769 1.367 . S
C768 C776 1.378 . S
C769 C768 1.367 . S
C769 C777 1.433 . S
C770 H766 0.929 . S
C770 C772 1.378 . S
C770 C774 1.350 1_565 S
C771 C774 1.463 . S
C771 C776 1.350 . S
C771 N779 1.427 . S
C772 H763 0.930 . S
C772 C770 1.378 . S
C772 C773 1.367 . S
C773 C772 1.367 . S
C773 C775 1.433 . S
C774 C770 1.350 1_545 S
C774 C771 1.463 . S
C774 N778 1.427 . S
C775 H765 0.929 . S
C775 C773 1.433 . S
C775 N778 1.384 1_565 S
C776 H767 0.929 . S
C776 C768 1.378 . S
C776 C771 1.350 . S
C777 H764 0.929 . S
C777 C769 1.433 . S
C777 N779 1.384 . S
N778 C774 1.427 . S
N778 C775 1.384 1_545 S
N779 C771 1.427 . S
N779 C777 1.384 . S
H780 C786 0.930 . S
H781 C790 0.930 . S
H782 C795 0.929 . S
H783 C793 0.929 . S
H784 C788 0.929 . S
H785 C794 0.929 . S
C786 H780 0.930 . S
C786 C787 1.367 . S
C786 C794 1.378 . S
C787 C786 1.367 . S
C787 C795 1.433 . S
C788 H784 0.929 . S
C788 C790 1.378 . S
C788 C792 1.350 . S
C789 C792 1.463 . S
C789 C794 1.350 . S
C789 N797 1.427 . S
C790 H781 0.930 . S
C790 C788 1.378 . S
C790 C791 1.367 . S
C791 C790 1.367 . S
C791 C793 1.433 . S
C792 C788 1.350 . S
C792 C789 1.463 . S
C792 N796 1.427 . S
C793 H783 0.929 . S
C793 C791 1.433 . S
C793 N796 1.384 . S
C794 H785 0.929 . S
C794 C786 1.378 . S
C794 C789 1.350 . S
C795 H782 0.929 . S
C795 C787 1.433 . S
C795 N797 1.384 . S
N796 C792 1.427 . S
N796 C793 1.384 . S
N797 C789 1.427 . S
N797 C795 1.384 . S
H798 C804 0.930 . S
H799 C808 0.930 . S
H800 C813 0.929 . S
H801 C811 0.929 . S
H802 C806 0.929 . S
H803 C812 0.929 . S
C804 H798 0.930 . S
C804 C805 1.367 . S
C804 C812 1.378 1_545 S
C805 C804 1.367 . S
C805 C813 1.433 . S
C806 H802 0.929 . S
C806 C808 1.378 . S
C806 C810 1.350 . S
C807 C810 1.463 . S
C807 C812 1.350 . S
C807 N815 1.427 1_565 S
C808 H799 0.930 . S
C808 C806 1.378 . S
C808 C809 1.367 . S
C809 C808 1.367 . S
C809 C811 1.433 . S
C810 C806 1.350 . S
C810 C807 1.463 . S
C810 N814 1.427 . S
C811 H801 0.929 . S
C811 C809 1.433 . S
C811 N814 1.384 . S
C812 H803 0.929 . S
C812 C804 1.378 1_565 S
C812 C807 1.350 . S
C813 H800 0.929 . S
C813 C805 1.433 . S
C813 N815 1.384 . S
N814 C810 1.427 . S
N814 C811 1.384 . S
N815 C807 1.427 1_545 S
N815 C813 1.384 . S
H816 C822 0.930 . S
H817 C826 0.930 . S
H818 C831 0.929 . S
H819 C829 0.929 . S
H820 C824 0.929 . S
H821 C830 0.929 . S
C822 H816 0.930 . S
C822 C823 1.367 . S
C822 C830 1.378 . S
C823 C822 1.367 . S
C823 C831 1.433 . S
C824 H820 0.929 . S
C824 C826 1.378 . S
C824 C828 1.350 . S
C825 C828 1.463 . S
C825 C830 1.350 . S
C825 N833 1.427 . S
C826 H817 0.930 . S
C826 C824 1.378 . S
C826 C827 1.367 . S
C827 C826 1.367 . S
C827 C829 1.433 . S
C828 C824 1.350 . S
C828 C825 1.463 . S
C828 N832 1.427 . S
C829 H819 0.929 . S
C829 C827 1.433 . S
C829 N832 1.384 . S
C830 H821 0.929 . S
C830 C822 1.378 . S
C830 C825 1.350 . S
C831 H818 0.929 . S
C831 C823 1.433 . S
C831 N833 1.384 . S
N832 C828 1.427 . S
N832 C829 1.384 . S
N833 C825 1.427 . S
N833 C831 1.384 . S
H834 C840 0.930 . S
H835 C844 0.930 . S
H836 C849 0.929 . S
H837 C847 0.929 . S
H838 C842 0.929 . S
H839 C848 0.929 . S
C840 H834 0.930 . S
C840 C841 1.367 . S
C840 C848 1.378 . S
C841 C840 1.367 . S
C841 C849 1.433 . S
C842 H838 0.929 . S
C842 C844 1.378 . S
C842 C846 1.350 . S
C843 C846 1.463 . S
C843 C848 1.350 . S
C843 N851 1.427 . S
C844 H835 0.930 . S
C844 C842 1.378 . S
C844 C845 1.367 . S
C845 C844 1.367 . S
C845 C847 1.433 . S
C846 C842 1.350 . S
C846 C843 1.463 . S
C846 N850 1.427 . S
C847 H837 0.929 . S
C847 C845 1.433 . S
C847 N850 1.384 . S
C848 H839 0.929 . S
C848 C840 1.378 . S
C848 C843 1.350 . S
C849 H836 0.929 . S
C849 C841 1.433 . S
C849 N851 1.384 . S
N850 C846 1.427 . S
N850 C847 1.384 . S
N851 C843 1.427 . S
N851 C849 1.384 . S
H852 C858 0.930 . S
H853 C862 0.930 . S
H854 C867 0.929 . S
H855 C865 0.929 . S
H856 C860 0.929 . S
H857 C866 0.929 . S
C858 H852 0.930 . S
C858 C859 1.367 . S
C858 C866 1.378 . S
C859 C858 1.367 . S
C859 C867 1.433 . S
C860 H856 0.929 . S
C860 C862 1.378 . S
C860 C864 1.350 . S
C861 C864 1.463 . S
C861 C866 1.350 . S
C861 N869 1.427 . S
C862 H853 0.930 . S
C862 C860 1.378 . S
C862 C863 1.367 . S
C863 C862 1.367 . S
C863 C865 1.433 . S
C864 C860 1.350 . S
C864 C861 1.463 . S
C864 N868 1.427 . S
C865 H855 0.929 . S
C865 C863 1.433 . S
C865 N868 1.384 . S
C866 H857 0.929 . S
C866 C858 1.378 . S
C866 C861 1.350 . S
C867 H854 0.929 . S
C867 C859 1.433 . S
C867 N869 1.384 . S
N868 C864 1.427 . S
N868 C865 1.384 . S
N869 C861 1.427 . S
N869 C867 1.384 . S
H870 C876 0.930 . S
H871 C880 0.930 . S
H872 C885 0.929 . S
H873 C883 0.929 . S
H874 C878 0.929 . S
H875 C884 0.929 . S
C876 H870 0.930 . S
C876 C877 1.367 . S
C876 C884 1.378 . S
C877 C876 1.367 . S
C877 C885 1.433 . S
C878 H874 0.929 . S
C878 C880 1.378 . S
C878 C882 1.350 . S
C879 C882 1.463 . S
C879 C884 1.350 . S
C879 N887 1.427 . S
C880 H871 0.930 . S
C880 C878 1.378 . S
C880 C881 1.367 . S
C881 C880 1.367 . S
C881 C883 1.433 . S
C882 C878 1.350 . S
C882 C879 1.463 . S
C882 N886 1.427 . S
C883 H873 0.929 . S
C883 C881 1.433 . S
C883 N886 1.384 . S
C884 H875 0.929 . S
C884 C876 1.378 . S
C884 C879 1.350 . S
C885 H872 0.929 . S
C885 C877 1.433 . S
C885 N887 1.384 . S
N886 C882 1.427 . S
N886 C883 1.384 . S
N887 C879 1.427 . S
N887 C885 1.384 . S
H888 C894 0.930 . S
H889 C898 0.930 . S
H890 C903 0.929 . S
H891 C901 0.929 . S
H892 C896 0.929 . S
H893 C902 0.929 . S
C894 H888 0.930 . S
C894 C895 1.367 . S
C894 C902 1.378 . S
C895 C894 1.367 . S
C895 C903 1.433 . S
C896 H892 0.929 . S
C896 C898 1.378 . S
C896 C900 1.350 . S
C897 C900 1.463 . S
C897 C902 1.350 . S
C897 N905 1.427 . S
C898 H889 0.930 . S
C898 C896 1.378 . S
C898 C899 1.367 . S
C899 C898 1.367 . S
C899 C901 1.433 . S
C900 C896 1.350 . S
C900 C897 1.463 . S
C900 N904 1.427 . S
C901 H891 0.929 . S
C901 C899 1.433 . S
C901 N904 1.384 . S
C902 H893 0.929 . S
C902 C894 1.378 . S
C902 C897 1.350 . S
C903 H890 0.929 . S
C903 C895 1.433 . S
C903 N905 1.384 . S
N904 C900 1.427 . S
N904 C901 1.384 . S
N905 C897 1.427 . S
N905 C903 1.384 . S
H906 C912 0.930 . S
H907 C916 0.930 . S
H908 C921 0.929 . S
H909 C919 0.929 . S
H910 C914 0.929 . S
H911 C920 0.929 . S
C912 H906 0.930 . S
C912 C913 1.367 . S
C912 C920 1.378 . S
C913 C912 1.367 . S
C913 C921 1.433 . S
C914 H910 0.929 . S
C914 C916 1.378 . S
C914 C918 1.350 . S
C915 C918 1.463 . S
C915 C920 1.350 . S
C915 N923 1.427 . S
C916 H907 0.930 . S
C916 C914 1.378 . S
C916 C917 1.367 . S
C917 C916 1.367 . S
C917 C919 1.433 . S
C918 C914 1.350 . S
C918 C915 1.463 . S
C918 N922 1.427 . S
C919 H909 0.929 . S
C919 C917 1.433 . S
C919 N922 1.384 . S
C920 H911 0.929 . S
C920 C912 1.378 . S
C920 C915 1.350 . S
C921 H908 0.929 . S
C921 C913 1.433 . S
C921 N923 1.384 . S
N922 C918 1.427 . S
N922 C919 1.384 . S
N923 C915 1.427 . S
N923 C921 1.384 . S
H924 C930 0.930 . S
H925 C934 0.930 . S
H926 C939 0.929 . S
H927 C937 0.929 . S
H928 C932 0.929 . S
H929 C938 0.929 . S
C930 H924 0.930 . S
C930 C931 1.367 . S
C930 C938 1.378 . S
C931 C930 1.367 . S
C931 C939 1.433 . S
C932 H928 0.929 . S
C932 C934 1.378 . S
C932 C936 1.350 1_655 S
C933 C936 1.463 . S
C933 C938 1.350 . S
C933 N941 1.427 . S
C934 H925 0.930 . S
C934 C932 1.378 . S
C934 C935 1.367 . S
C935 C934 1.367 . S
C935 C937 1.433 . S
C936 C932 1.350 1_455 S
C936 C933 1.463 . S
C936 N940 1.427 . S
C937 H927 0.929 . S
C937 C935 1.433 . S
C937 N940 1.384 1_655 S
C938 H929 0.929 . S
C938 C930 1.378 . S
C938 C933 1.350 . S
C939 H926 0.929 . S
C939 C931 1.433 . S
C939 N941 1.384 . S
N940 C936 1.427 . S
N940 C937 1.384 1_455 S
N941 C933 1.427 . S
N941 C939 1.384 . S
H942 C948 0.930 . S
H943 C952 0.930 . S
H944 C957 0.929 . S
H945 C955 0.929 . S
H946 C950 0.929 . S
H947 C956 0.929 . S
C948 H942 0.930 . S
C948 C949 1.367 . S
C948 C956 1.378 . S
C949 C948 1.367 . S
C949 C957 1.433 . S
C950 H946 0.929 . S
C950 C952 1.378 . S
C950 C954 1.350 . S
C951 C954 1.463 . S
C951 C956 1.350 . S
C951 N959 1.427 . S
C952 H943 0.930 . S
C952 C950 1.378 . S
C952 C953 1.367 . S
C953 C952 1.367 . S
C953 C955 1.433 . S
C954 C950 1.350 . S
C954 C951 1.463 . S
C954 N958 1.427 . S
C955 H945 0.929 . S
C955 C953 1.433 . S
C955 N958 1.384 . S
C956 H947 0.929 . S
C956 C948 1.378 . S
C956 C951 1.350 . S
C957 H944 0.929 . S
C957 C949 1.433 . S
C957 N959 1.384 . S
N958 C954 1.427 . S
N958 C955 1.384 . S
N959 C951 1.427 . S
N959 C957 1.384 . S
H960 C966 0.930 . S
H961 C970 0.930 . S
H962 C975 0.929 . S
H963 C973 0.929 . S
H964 C968 0.929 . S
H965 C974 0.929 . S
C966 H960 0.930 . S
C966 C967 1.367 . S
C966 C974 1.378 . S
C967 C966 1.367 . S
C967 C975 1.433 . S
C968 H964 0.929 . S
C968 C970 1.378 . S
C968 C972 1.350 . S
C969 C972 1.463 . S
C969 C974 1.350 . S
C969 N977 1.427 . S
C970 H961 0.930 . S
C970 C968 1.378 . S
C970 C971 1.367 . S
C971 C970 1.367 . S
C971 C973 1.433 . S
C972 C968 1.350 . S
C972 C969 1.463 . S
C972 N976 1.427 . S
C973 H963 0.929 . S
C973 C971 1.433 . S
C973 N976 1.384 . S
C974 H965 0.929 . S
C974 C966 1.378 . S
C974 C969 1.350 . S
C975 H962 0.929 . S
C975 C967 1.433 . S
C975 N977 1.384 . S
N976 C972 1.427 . S
N976 C973 1.384 . S
N977 C969 1.427 . S
N977 C975 1.384 . S
H978 C984 0.930 . S
H979 C988 0.930 . S
H980 C993 0.929 . S
H981 C991 0.929 . S
H982 C986 0.929 . S
H983 C992 0.929 . S
C984 H978 0.930 . S
C984 C985 1.367 . S
C984 C992 1.378 . S
C985 C984 1.367 . S
C985 C993 1.433 . S
C986 H982 0.929 . S
C986 C988 1.378 . S
C986 C990 1.350 . S
C987 C990 1.463 . S
C987 C992 1.350 . S
C987 N995 1.427 . S
C988 H979 0.930 . S
C988 C986 1.378 . S
C988 C989 1.367 . S
C989 C988 1.367 . S
C989 C991 1.433 . S
C990 C986 1.350 . S
C990 C987 1.463 . S
C990 N994 1.427 . S
C991 H981 0.929 . S
C991 C989 1.433 . S
C991 N994 1.384 . S
C992 H983 0.929 . S
C992 C984 1.378 . S
C992 C987 1.350 . S
C993 H980 0.929 . S
C993 C985 1.433 . S
C993 N995 1.384 . S
N994 C990 1.427 . S
N994 C991 1.384 . S
N995 C987 1.427 . S
N995 C993 1.384 . S
H996 C1002 0.930 . S
H997 C1006 0.930 . S
H998 C1011 0.929 . S
H999 C1009 0.929 . S
H1000 C1004 0.929 . S
H1001 C1010 0.929 . S
C1002 H996 0.930 . S
C1002 C1003 1.367 . S
C1002 C1010 1.378 . S
C1003 C1002 1.367 . S
C1003 C1011 1.433 . S
C1004 H1000 0.929 . S
C1004 C1006 1.378 . S
C1004 C1008 1.350 . S
C1005 C1008 1.463 . S
C1005 C1010 1.350 . S
C1005 N1013 1.427 . S
C1006 H997 0.930 . S
C1006 C1004 1.378 . S
C1006 C1007 1.367 . S
C1007 C1006 1.367 . S
C1007 C1009 1.433 . S
C1008 C1004 1.350 . S
C1008 C1005 1.463 . S
C1008 N1012 1.427 . S
C1009 H999 0.929 . S
C1009 C1007 1.433 . S
C1009 N1012 1.384 . S
C1010 H1001 0.929 . S
C1010 C1002 1.378 . S
C1010 C1005 1.350 . S
C1011 H998 0.929 . S
C1011 C1003 1.433 . S
C1011 N1013 1.384 . S
N1012 C1008 1.427 . S
N1012 C1009 1.384 . S
N1013 C1005 1.427 . S
N1013 C1011 1.384 . S
H1014 C1020 0.930 . S
H1015 C1024 0.930 . S
H1016 C1029 0.929 . S
H1017 C1027 0.929 . S
H1018 C1022 0.927 1_655 S
H1019 C1028 0.929 . S
C1020 H1014 0.930 . S
C1020 C1021 1.367 . S
C1020 C1028 1.378 . S
C1021 C1020 1.367 . S
C1021 C1029 1.433 . S
C1022 H1018 0.927 1_455 S
C1022 C1024 1.378 . S
C1022 C1026 1.350 1_455 S
C1023 C1026 1.463 . S
C1023 C1028 1.350 . S
C1023 N1031 1.427 . S
C1024 H1015 0.930 . S
C1024 C1022 1.378 . S
C1024 C1025 1.367 . S
C1025 C1024 1.367 . S
C1025 C1027 1.433 . S
C1026 C1022 1.350 1_655 S
C1026 C1023 1.463 . S
C1026 N1030 1.427 1_655 S
C1027 H1017 0.929 . S
C1027 C1025 1.433 . S
C1027 N1030 1.384 . S
C1028 H1019 0.929 . S
C1028 C1020 1.378 . S
C1028 C1023 1.350 . S
C1029 H1016 0.929 . S
C1029 C1021 1.433 . S
C1029 N1031 1.384 . S
N1030 C1026 1.427 1_455 S
N1030 C1027 1.384 . S
N1031 C1023 1.427 . S
N1031 C1029 1.384 . S
C391 C4 1.340 . S
C395 C356 1.340 . S
C409 C292 1.347 . S
C413 C36 1.359 . S
C427 C93 1.339 . S
C431 C260 1.350 . S
C445 C100 1.349 . S
C449 C324 1.339 . S
C463 C132 1.358 . S
C467 C349 1.347 . S
C481 C189 1.343 . S
C485 C381 1.338 . S
C499 C317 1.342 . S
C503 C196 1.354 . S
C517 C253 1.353 . S
C521 C285 1.341 . S
C535 C125 1.338 . S
C539 C157 1.348 . S
C553 C29 1.346 . S
C557 C164 1.358 . S
C571 C61 1.348 . S
C575 C221 1.338 . S
C589 C228 1.358 . S
C593 C68 1.346 . S
C607 N18 1.266 . S
C611 C262 1.271 . S
C625 N50 1.270 . S
C629 C326 1.272 . S
C643 C358 1.272 . S
C647 N77 1.270 . S
C661 N114 1.267 . S
C665 C294 1.271 . S
C679 N146 1.269 . S
C683 C290 1.272 . S
C697 C258 1.271 . S
C701 N173 1.268 . S
C715 C322 1.271 . S
C719 N210 1.266 . S
C733 C354 1.271 . S
C737 N237 1.266 . S
C751 C2 1.271 . S
C755 N109 1.270 . S
C769 N13 1.270 . S
C773 C34 1.272 . S
C787 N45 1.267 . S
C791 C70 1.271 . S
C805 C98 1.271 . S
C809 N82 1.266 . S
C823 N178 1.266 . S
C827 C130 1.271 . S
C841 C166 1.271 . S
C845 N205 1.268 . S
C859 C194 1.272 . S
C863 N242 1.270 . S
C877 N141 1.266 . S
C881 C230 1.271 . S
C895 N269 1.267 . S
C899 C102 1.271 . S
C913 C162 1.271 . S
C917 N306 1.266 . S
C931 N274 1.270 . S
C935 C198 1.272 . S
C949 N338 1.270 . S
C953 C226 1.272 . S
C967 C134 1.272 . S
C971 N370 1.271 . S
C985 N365 1.267 . S
C989 C38 1.271 . S
C1003 C66 1.272 . S
C1007 N301 1.268 . S
C1021 N333 1.268 . S
C1025 C6 1.271 . S
