# Generated by pormake.
# Topology ecj, (8)-cn, num edge types: 1
# Building blocks:
#     Node 0, Type 0, BuildingBlock: TAGTUT_clean_sbu_3, # of connection points: 8
#     Node 1, Type 0, BuildingBlock: TAGTUT_clean_sbu_3, # of connection points: 8
#     Node 2, Type 0, BuildingBlock: TAGTUT_clean_sbu_3, # of connection points: 8
#     Node 3, Type 0, BuildingBlock: TAGTUT_clean_sbu_3, # of connection points: 8
#     Node 4, Type 0, BuildingBlock: TAGTUT_clean_sbu_3, # of connection points: 8
#     Node 5, Type 0, BuildingBlock: TAGTUT_clean_sbu_3, # of connection points: 8
#     Node 6, Type 0, BuildingBlock: TAGTUT_clean_sbu_3, # of connection points: 8
#     Node 7, Type 0, BuildingBlock: TAGTUT_clean_sbu_3, # of connection points: 8
#     Node 8, Type 0, BuildingBlock: TAGTUT_clean_sbu_3, # of connection points: 8
#     Node 9, Type 0, BuildingBlock: TAGTUT_clean_sbu_3, # of connection points: 8
#     Node 10, Type 0, BuildingBlock: TAGTUT_clean_sbu_3, # of connection points: 8
#     Node 11, Type 0, BuildingBlock: TAGTUT_clean_sbu_3, # of connection points: 8
#     Node 12, Type 0, BuildingBlock: TAGTUT_clean_sbu_3, # of connection points: 8
#     Node 13, Type 0, BuildingBlock: TAGTUT_clean_sbu_3, # of connection points: 8
#     Node 14, Type 0, BuildingBlock: TAGTUT_clean_sbu_3, # of connection points: 8
#     Node 15, Type 0, BuildingBlock: TAGTUT_clean_sbu_3, # of connection points: 8
#     Edge 16, Type (0, 0), None
#     Edge 17, Type (0, 0), None
#     Edge 18, Type (0, 0), None
#     Edge 19, Type (0, 0), None
#     Edge 20, Type (0, 0), None
#     Edge 21, Type (0, 0), None
#     Edge 22, Type (0, 0), None
#     Edge 23, Type (0, 0), None
#     Edge 24, Type (0, 0), None
#     Edge 25, Type (0, 0), None
#     Edge 26, Type (0, 0), None
#     Edge 27, Type (0, 0), None
#     Edge 28, Type (0, 0), None
#     Edge 29, Type (0, 0), None
#     Edge 30, Type (0, 0), None
#     Edge 31, Type (0, 0), None
#     Edge 32, Type (0, 0), None
#     Edge 33, Type (0, 0), None
#     Edge 34, Type (0, 0), None
#     Edge 35, Type (0, 0), None
#     Edge 36, Type (0, 0), None
#     Edge 37, Type (0, 0), None
#     Edge 38, Type (0, 0), None
#     Edge 39, Type (0, 0), None
#     Edge 40, Type (0, 0), None
#     Edge 41, Type (0, 0), None
#     Edge 42, Type (0, 0), None
#     Edge 43, Type (0, 0), None
#     Edge 44, Type (0, 0), None
#     Edge 45, Type (0, 0), None
#     Edge 46, Type (0, 0), None
#     Edge 47, Type (0, 0), None
#     Edge 48, Type (0, 0), None
#     Edge 49, Type (0, 0), None
#     Edge 50, Type (0, 0), None
#     Edge 51, Type (0, 0), None
#     Edge 52, Type (0, 0), None
#     Edge 53, Type (0, 0), None
#     Edge 54, Type (0, 0), None
#     Edge 55, Type (0, 0), None
#     Edge 56, Type (0, 0), None
#     Edge 57, Type (0, 0), None
#     Edge 58, Type (0, 0), None
#     Edge 59, Type (0, 0), None
#     Edge 60, Type (0, 0), None
#     Edge 61, Type (0, 0), None
#     Edge 62, Type (0, 0), None
#     Edge 63, Type (0, 0), None
#     Edge 64, Type (0, 0), None
#     Edge 65, Type (0, 0), None
#     Edge 66, Type (0, 0), None
#     Edge 67, Type (0, 0), None
#     Edge 68, Type (0, 0), None
#     Edge 69, Type (0, 0), None
#     Edge 70, Type (0, 0), None
#     Edge 71, Type (0, 0), None
#     Edge 72, Type (0, 0), None
#     Edge 73, Type (0, 0), None
#     Edge 74, Type (0, 0), None
#     Edge 75, Type (0, 0), None
#     Edge 76, Type (0, 0), None
#     Edge 77, Type (0, 0), None
#     Edge 78, Type (0, 0), None
#     Edge 79, Type (0, 0), None
# Relax obj value: 0.245
# Max RMSD: 0.289
# Mean RMSD: 0.289
data_MOF--net-ecj--node1-TAGTUT_clean_sbu_3--edge1-none
_symmetry_space_group_name_H-M    P1
_symmetry_Int_Tables_number       1
_symmetry_cell_setting            triclinic
loop_
_symmetry_equiv_pos_as_xyz
'x, y, z'
_cell_length_a     30.554336
_cell_length_b     27.930422
_cell_length_c     10.145607
_cell_angle_alpha  89.99079
_cell_angle_beta   89.988618
_cell_angle_gamma 90.005851
loop_
_atom_site_label
_atom_site_type_symbol
_atom_site_fract_x
_atom_site_fract_y
_atom_site_fract_z
_atom_type_partial_charge
C0 C 0.13015 0.27195 0.0348 0.0
C1 C 0.16144 0.27482 0.45556 0.0
C2 C 0.10607 0.39353 0.52321 0.0
Mg3 Mg 0.05113 0.32261 0.89104 0.0
Mg4 Mg 0.02498 0.44061 0.86848 0.0
O5 O 0.05266 0.39094 0.95571 0.0
Mg6 Mg 0.09935 0.38091 0.09329 0.0
O7 O 0.14085 0.35486 0.22398 0.0
Mg8 Mg 0.09913 0.30457 0.29267 0.0
Mg9 Mg 0.18012 0.38093 0.34546 0.0
C10 C 0.05505 0.48823 0.16407 0.0
O11 O 0.1582 0.41068 -0.0177 0.0
O12 O -0.00988 0.32595 0.77528 0.0
O13 O 0.21105 0.40176 0.13873 0.0
O14 O 0.0845 0.35745 0.71584 0.0
O15 O 0.96417 0.4004 0.79206 0.0
O16 O 0.07081 0.43696 0.6987 0.0
O17 O 0.04559 0.35207 0.21721 0.0
O18 O 0.00561 0.31153 0.07697 0.0
C19 C 0.00874 0.33866 0.17854 0.0
C20 C 0.96077 0.35636 0.75202 0.0
O21 O 0.08142 0.45364 0.19047 0.0
O22 O 0.15975 0.26627 0.33622 0.0
O23 O 0.03326 0.49027 0.05324 0.0
O24 O 0.09549 0.35392 0.4691 0.0
O25 O 0.17414 0.31677 0.4896 0.0
O26 O 0.13545 0.42113 0.4735 0.0
O27 O 0.11738 0.3123 -0.00933 0.0
O28 O 0.10868 0.25346 0.12718 0.0
C29 C 0.089 0.39809 0.65746 0.0
C30 C 0.19863 0.4107 0.01698 0.0
C31 C 0.80063 0.77206 0.389 0.0
C32 C 0.76929 0.77473 -0.03172 0.0
C33 C 0.82452 0.89358 0.90039 0.0
Mg34 Mg 0.87957 0.82279 0.53275 0.0
Mg35 Mg 0.90557 0.94084 0.55526 0.0
O36 O 0.87804 0.89111 0.46787 0.0
Mg37 Mg 0.83134 0.88103 0.33032 0.0
O38 O 0.78983 0.85489 0.19972 0.0
Mg39 Mg 0.8316 0.80464 0.1311 0.0
Mg40 Mg 0.75054 0.88088 0.07813 0.0
C41 C 0.87557 0.98838 0.25948 0.0
O42 O 0.77248 0.91084 0.44114 0.0
O43 O 0.94056 0.82623 0.64866 0.0
O44 O 0.71964 0.90192 0.28465 0.0
O45 O 0.84615 0.85756 0.70783 0.0
O46 O -0.03362 0.90076 0.63215 0.0
O47 O 0.85969 0.9371 0.72486 0.0
O48 O 0.8851 0.85219 0.20651 0.0
O49 O 0.92508 0.81169 0.3469 0.0
C50 C 0.92195 0.83881 0.24529 0.0
C51 C -0.03017 0.85672 0.67219 0.0
O52 O 0.84924 0.95376 0.23302 0.0
O53 O 0.77102 0.76623 0.08765 0.0
O54 O 0.89731 0.99047 0.3704 0.0
O55 O 0.83515 0.85399 0.95454 0.0
O56 O 0.75656 0.81666 0.93413 0.0
O57 O 0.79513 0.92115 0.95008 0.0
O58 O 0.81335 0.81243 0.43305 0.0
O59 O 0.82214 0.75357 0.29673 0.0
C60 C 0.84157 0.89819 0.76615 0.0
C61 C 0.73205 0.91093 0.40636 0.0
C62 C 0.42187 0.67951 0.67817 0.0
C63 C 0.46988 0.66144 0.25123 0.0
C64 C 0.34176 0.61965 0.15646 0.0
Mg65 Mg 0.33172 0.71316 0.79163 0.0
Mg66 Mg 0.25056 0.63699 0.8449 0.0
O67 O 0.2898 0.66304 0.7232 0.0
Mg68 Mg 0.33119 0.63688 0.59225 0.0
O69 O 0.37782 0.62678 0.45456 0.0
Mg70 Mg 0.37952 0.69513 0.39002 0.0
Mg71 Mg 0.40571 0.57715 0.36783 0.0
C72 C 0.23185 0.60716 0.51663 0.0
O73 O 0.34906 0.56419 0.68973 0.0
O74 O 0.27126 0.75164 0.83569 0.0
O75 O 0.3974 0.5276 0.55297 0.0
O76 O 0.33535 0.66381 -0.03194 0.0
O77 O 0.25666 0.70115 -0.01098 0.0
O78 O 0.29524 0.59671 -0.0273 0.0
O79 O 0.31326 0.70553 0.48936 0.0
O80 O 0.32216 0.76423 0.62605 0.0
C81 C 0.30041 0.74573 0.53431 0.0
C82 C 0.26943 0.74308 0.95501 0.0
O83 O 0.27226 0.60716 0.48175 0.0
O84 O 0.44048 0.69181 0.27431 0.0
O85 O 0.21948 0.61614 0.63842 0.0
O86 O 0.3462 0.66029 0.21484 0.0
O87 O 0.46654 0.61742 0.29149 0.0
O88 O 0.35997 0.58079 0.19781 0.0
O89 O 0.38504 0.66554 0.71545 0.0
O90 O 0.42509 0.70628 0.57591 0.0
C91 C 0.32472 0.62421 0.02219 0.0
C92 C 0.37552 0.52966 0.66367 0.0
C93 C 0.50871 0.17944 0.7453 0.0
C94 C 0.46068 0.16133 0.17246 0.0
C95 C 0.58893 0.11996 0.2669 0.0
Mg96 Mg 0.59886 0.21345 0.63182 0.0
Mg97 Mg 0.68007 0.13744 0.57849 0.0
O98 O 0.64079 0.16334 0.70026 0.0
Mg99 Mg 0.59938 0.13708 0.83107 0.0
O100 O 0.55271 0.12691 -0.03129 0.0
Mg101 Mg 0.55095 0.19526 0.03331 0.0
Mg102 Mg 0.52502 0.07721 0.05575 0.0
C103 C 0.6987 0.10737 0.90672 0.0
O104 O 0.58153 0.06439 0.73354 0.0
O105 O 0.65933 0.25202 0.58815 0.0
O106 O 0.53328 0.02772 0.87048 0.0
O107 O 0.59532 0.16416 0.45525 0.0
O108 O 0.67392 0.2017 0.4345 0.0
O109 O 0.63549 0.0971 0.45061 0.0
O110 O 0.61721 0.20574 0.93402 0.0
O111 O 0.6083 0.2645 0.79748 0.0
C112 C 0.63002 0.246 0.88929 0.0
C113 C 0.6612 0.24362 0.46876 0.0
O114 O 0.65829 0.10737 0.94161 0.0
O115 O 0.48997 0.19181 0.14906 0.0
O116 O 0.71107 0.11643 0.78497 0.0
O117 O 0.58435 0.16059 0.20853 0.0
O118 O 0.46416 0.11729 0.13243 0.0
O119 O 0.57085 0.08103 0.22555 0.0
O120 O 0.54557 0.1657 0.70777 0.0
O121 O 0.50543 0.20628 0.84737 0.0
C122 C 0.606 0.12458 0.4011 0.0
C123 C 0.55509 0.02983 0.75966 0.0
C124 C 0.13 0.74604 0.38888 0.0
C125 C 0.16135 0.74339 -0.03182 0.0
C126 C 0.10613 0.62454 0.90031 0.0
Mg127 Mg 0.05105 0.69529 0.53264 0.0
Mg128 Mg 0.02507 0.57725 0.55536 0.0
O129 O 0.05257 0.62697 0.46784 0.0
Mg130 Mg 0.09928 0.63705 0.33026 0.0
O131 O 0.14079 0.66319 0.1996 0.0
Mg132 Mg 0.09904 0.71345 0.131 0.0
Mg133 Mg 0.18011 0.63723 0.07803 0.0
C134 C 0.05505 0.52969 0.25958 0.0
O135 O 0.15815 0.60727 0.44113 0.0
O136 O -0.00994 0.69187 0.64857 0.0
O137 O 0.211 0.61624 0.28462 0.0
O138 O 0.08448 0.66055 0.70775 0.0
O139 O 0.96425 0.61733 0.63221 0.0
O140 O 0.07095 0.58101 0.72489 0.0
O141 O 0.04553 0.66588 0.20641 0.0
O142 O 0.00554 0.70637 0.34679 0.0
C143 C 0.00867 0.67925 0.2452 0.0
C144 C 0.96079 0.66138 0.67216 0.0
O145 O 0.08138 0.56431 0.23304 0.0
O146 O 0.15962 0.75187 0.08755 0.0
O147 O 0.03332 0.5276 0.37055 0.0
O148 O 0.09549 0.66412 0.95445 0.0
O149 O 0.17408 0.70146 0.93401 0.0
O150 O 0.13553 0.59698 0.94999 0.0
O151 O 0.11727 0.70565 0.43291 0.0
O152 O 0.1085 0.76453 0.2966 0.0
C153 C 0.08907 0.61993 0.76611 0.0
C154 C 0.19857 0.60721 0.40634 0.0
C155 C 0.50877 0.83861 0.67826 0.0
C156 C 0.46072 0.85671 0.25137 0.0
C157 C 0.58883 0.89853 0.15645 0.0
Mg158 Mg 0.59893 0.805 0.79169 0.0
Mg159 Mg 0.68004 0.8812 0.84489 0.0
O160 O 0.64083 0.85513 0.72319 0.0
Mg161 Mg 0.59943 0.88127 0.59227 0.0
O162 O 0.5528 0.89138 0.45461 0.0
Mg163 Mg 0.5511 0.82303 0.39008 0.0
Mg164 Mg 0.52488 0.94101 0.36796 0.0
C165 C 0.69877 0.91104 0.51664 0.0
O166 O 0.58155 0.95393 0.68979 0.0
O167 O 0.65943 0.76657 0.83568 0.0
O168 O 0.53318 0.99053 0.55316 0.0
O169 O 0.59526 0.85436 -0.03192 0.0
O170 O 0.67395 0.81705 -0.01096 0.0
O171 O 0.63534 0.92149 -0.02737 0.0
O172 O 0.61737 0.81263 0.48935 0.0
O173 O 0.60852 0.75393 0.62615 0.0
C174 C 0.63023 0.77243 0.53427 0.0
C175 C 0.66121 0.77511 0.955 0.0
O176 O 0.65836 0.91102 0.48174 0.0
O177 O 0.49013 0.82635 0.27442 0.0
O178 O 0.71113 0.90206 0.63841 0.0
O179 O 0.58441 0.85788 0.21485 0.0
O180 O 0.46406 0.90073 0.29165 0.0
O181 O 0.57062 0.93738 0.19784 0.0
O182 O 0.54559 0.85259 0.71551 0.0
O183 O 0.50554 0.81185 0.57602 0.0
C184 C 0.60587 0.89397 0.02216 0.0
C185 C 0.55507 0.98845 0.66384 0.0
C186 C 0.3007 0.27189 0.88927 0.0
C187 C 0.26929 0.27441 0.4688 0.0
C188 C 0.32443 0.39343 0.40064 0.0
Mg189 Mg 0.37953 0.32275 0.033 0.0
Mg190 Mg 0.40551 0.44079 0.05543 0.0
O191 O 0.37787 0.39109 -0.03171 0.0
Mg192 Mg 0.33124 0.38095 0.83057 0.0
O193 O 0.2898 0.35474 0.69995 0.0
Mg194 Mg 0.33164 0.30455 0.63145 0.0
Mg195 Mg 0.25044 0.38059 0.57835 0.0
C196 C 0.37549 0.48825 0.75942 0.0
O197 O 0.27232 0.41064 0.94134 0.0
O198 O 0.44052 0.3262 0.14893 0.0
O199 O 0.21948 0.40158 0.78491 0.0
O200 O 0.34606 0.35741 0.20809 0.0
O201 O 0.46636 0.40071 0.13214 0.0
O202 O 0.35963 0.43696 0.22514 0.0
O203 O 0.38505 0.35226 0.70677 0.0
O204 O 0.42508 0.31184 0.84717 0.0
C205 C 0.42193 0.33907 0.7458 0.0
C206 C 0.46983 0.35668 0.17225 0.0
O207 O 0.34909 0.45367 0.73319 0.0
O208 O 0.27111 0.26602 0.58821 0.0
O209 O 0.39727 0.49034 0.87028 0.0
O210 O 0.33512 0.35387 0.45484 0.0
O211 O 0.25661 0.31633 0.43445 0.0
O212 O 0.29497 0.42093 0.45025 0.0
O213 O 0.31334 0.3123 0.93326 0.0
O214 O 0.32227 0.25344 0.79709 0.0
C215 C 0.34149 0.39805 0.2664 0.0
C216 C 0.23189 0.41065 0.90659 0.0
C217 C 0.92183 0.17981 0.1789 0.0
C218 C -0.03009 0.16163 0.75172 0.0
C219 C 0.84177 0.1199 0.657 0.0
Mg220 Mg 0.83162 0.21341 0.2922 0.0
Mg221 Mg 0.75057 0.1371 0.34533 0.0
O222 O 0.78978 0.16321 0.22366 0.0
Mg223 Mg 0.83124 0.13711 0.09278 0.0
O224 O 0.87795 0.12704 0.95526 0.0
Mg225 Mg 0.87957 0.19538 0.89062 0.0
Mg226 Mg 0.90568 0.07738 0.86821 0.0
C227 C 0.73198 0.10729 0.01697 0.0
O228 O 0.84916 0.06439 0.19015 0.0
O229 O 0.77109 0.25179 0.33622 0.0
O230 O 0.89739 0.02777 0.05309 0.0
O231 O 0.83529 0.16408 0.46866 0.0
O232 O 0.75654 0.20125 0.48948 0.0
O233 O 0.79528 0.0969 0.47321 0.0
O234 O 0.81327 0.20575 -0.01017 0.0
O235 O 0.82202 0.26445 0.12662 0.0
C236 C 0.80035 0.24593 0.03475 0.0
C237 C 0.7693 0.2432 0.45553 0.0
O238 O 0.77239 0.10733 -0.01791 0.0
O239 O 0.94057 0.19205 0.77502 0.0
O240 O 0.71959 0.11625 0.13875 0.0
O241 O 0.84628 0.16053 0.71538 0.0
O242 O -0.0335 0.11758 0.79176 0.0
O243 O 0.8599 0.08101 0.69838 0.0
O244 O 0.885 0.16585 0.21613 0.0
O245 O 0.92509 0.20658 0.07662 0.0
C246 C 0.8247 0.12447 0.52278 0.0
C247 C 0.87557 0.02983 0.16389 0.0
C248 C 0.8006 0.74603 0.88904 0.0
C249 C 0.76936 0.74336 0.46835 0.0
C250 C 0.8245 0.62448 0.40063 0.0
Mg251 Mg 0.87949 0.69527 0.03284 0.0
Mg252 Mg 0.90554 0.57726 0.05545 0.0
O253 O 0.87791 0.62694 -0.03182 0.0
Mg254 Mg 0.83126 0.63703 0.83051 0.0
O255 O 0.78981 0.66318 0.69978 0.0
Mg256 Mg 0.83162 0.71341 0.63123 0.0
Mg257 Mg 0.75047 0.63726 0.57827 0.0
C258 C 0.87551 0.52966 0.75979 0.0
O259 O 0.77234 0.60733 0.94137 0.0
O260 O 0.94047 0.69187 0.14872 0.0
O261 O 0.71951 0.61643 0.78495 0.0
O262 O 0.84607 0.66051 0.20798 0.0
O263 O -0.03364 0.61739 0.13199 0.0
O264 O 0.8597 0.58099 0.22517 0.0
O265 O 0.88506 0.6658 0.7067 0.0
O266 O 0.92505 0.7063 0.84699 0.0
C267 C 0.92192 0.67916 0.74545 0.0
C268 C -0.03021 0.66142 0.17206 0.0
O269 O 0.84915 0.56426 0.73332 0.0
O270 O 0.7711 0.7519 0.58768 0.0
O271 O 0.89727 0.52761 0.87067 0.0
O272 O 0.83516 0.66407 0.45474 0.0
O273 O 0.75661 0.70144 0.43419 0.0
O274 O 0.79505 0.59696 0.45029 0.0
O275 O 0.81328 0.70565 0.93313 0.0
O276 O 0.82212 0.76451 0.79678 0.0
C277 C 0.84153 0.61988 0.26637 0.0
C278 C 0.73191 0.60741 0.90667 0.0
C279 C 0.13011 0.24617 0.53481 0.0
C280 C 0.1615 0.24329 0.9556 0.0
C281 C 0.106 0.12464 0.02344 0.0
Mg282 Mg 0.0511 0.19557 0.39119 0.0
Mg283 Mg 0.02487 0.0776 0.3687 0.0
O284 O 0.05255 0.12724 0.45598 0.0
Mg285 Mg 0.0993 0.13723 0.59346 0.0
O286 O 0.14087 0.16328 0.72405 0.0
Mg287 Mg 0.09917 0.21359 0.79278 0.0
Mg288 Mg 0.18005 0.13712 0.84568 0.0
C289 C 0.055 0.02991 0.66425 0.0
O290 O 0.15807 0.10735 0.48249 0.0
O291 O -0.00995 0.19233 0.27551 0.0
O292 O 0.21091 0.11608 0.63905 0.0
O293 O 0.08441 0.16072 0.21599 0.0
O294 O 0.96408 0.11787 0.29215 0.0
O295 O 0.0707 0.08122 0.19895 0.0
O296 O 0.04563 0.16612 0.7174 0.0
O297 O 0.00566 0.20669 0.57718 0.0
C298 C 0.00879 0.17951 0.67866 0.0
C299 C 0.96068 0.16193 0.25219 0.0
O300 O 0.08136 0.0645 0.69068 0.0
O301 O 0.15982 0.25188 0.83627 0.0
O302 O 0.03319 0.02789 0.55345 0.0
O303 O 0.09549 0.16426 -0.03071 0.0
O304 O 0.17418 0.20133 -0.01028 0.0
O305 O 0.13533 0.09699 -0.02626 0.0
O306 O 0.11735 0.20581 0.49075 0.0
O307 O 0.10869 0.26466 0.62724 0.0
C308 C 0.08891 0.12008 0.15766 0.0
C309 C 0.19848 0.10715 0.51729 0.0
C310 C 0.50868 0.33892 0.24571 0.0
C311 C 0.46079 0.357 0.67272 0.0
C312 C 0.58898 0.39858 0.76721 0.0
Mg313 Mg 0.59876 0.30507 0.13214 0.0
Mg314 Mg 0.68011 0.38097 0.07871 0.0
O315 O 0.64075 0.35515 0.2004 0.0
Mg316 Mg 0.59943 0.3814 0.33139 0.0
O317 O 0.55284 0.39157 0.46921 0.0
Mg318 Mg 0.55109 0.32321 0.53372 0.0
Mg319 Mg 0.52501 0.4412 0.55602 0.0
C320 C 0.69884 0.41086 0.40699 0.0
O321 O 0.58158 0.45413 0.23396 0.0
O322 O 0.65914 0.2664 0.08824 0.0
O323 O 0.53329 0.49074 0.37086 0.0
O324 O 0.59526 0.35441 0.95563 0.0
O325 O 0.67384 0.31678 0.93464 0.0
O326 O 0.63556 0.42138 0.9509 0.0
O327 O 0.6173 0.31273 0.43425 0.0
O328 O 0.60826 0.25399 0.29776 0.0
C329 C 0.63006 0.27248 0.38942 0.0
C330 C 0.66107 0.27487 -0.03111 0.0
O331 O 0.65842 0.41102 0.44181 0.0
O332 O 0.49017 0.3266 0.64958 0.0
O333 O 0.7112 0.40178 0.28525 0.0
O334 O 0.5845 0.35794 0.70882 0.0
O335 O 0.46416 0.40102 0.63244 0.0
O336 O 0.57079 0.43745 0.72593 0.0
O337 O 0.54552 0.35283 0.20828 0.0
O338 O 0.50546 0.31213 0.34793 0.0
C339 C 0.60599 0.39397 0.90148 0.0
C340 C 0.55513 0.48867 0.26009 0.0
C341 C 0.30061 0.7718 0.03454 0.0
C342 C 0.26914 0.77453 0.45521 0.0
C343 C 0.3245 0.89335 0.52318 0.0
Mg344 Mg 0.37956 0.82256 0.8909 0.0
Mg345 Mg 0.40561 0.94058 0.86841 0.0
O346 O 0.37796 0.89089 0.95561 0.0
Mg347 Mg 0.33125 0.88081 0.09323 0.0
O348 O 0.28973 0.85468 0.22385 0.0
Mg349 Mg 0.33149 0.80443 0.2925 0.0
Mg350 Mg 0.25046 0.8807 0.34547 0.0
C351 C 0.37557 0.98806 0.1644 0.0
O352 O 0.2724 0.91057 -0.01771 0.0
O353 O 0.44058 0.82594 0.77505 0.0
O354 O 0.21954 0.90165 0.13877 0.0
O355 O 0.34616 0.8573 0.71572 0.0
O356 O 0.46645 0.90044 0.79171 0.0
O357 O 0.35975 0.93684 0.69867 0.0
O358 O 0.38499 0.85202 0.21715 0.0
O359 O 0.42505 0.8116 0.07683 0.0
C360 C 0.42187 0.83877 0.1783 0.0
C361 C 0.4699 0.8564 0.75169 0.0
O362 O 0.34914 0.95351 0.1906 0.0
O363 O 0.27085 0.76606 0.33583 0.0
O364 O 0.39738 0.99014 0.05356 0.0
O365 O 0.33508 0.85375 0.46903 0.0
O366 O 0.25649 0.81647 0.48953 0.0
O367 O 0.2951 0.92093 0.47353 0.0
O368 O 0.31332 0.8122 -0.00944 0.0
O369 O 0.32203 0.75333 0.12698 0.0
C370 C 0.3416 0.89794 0.65739 0.0
C371 C 0.23197 0.91063 0.01702 0.0
C372 C 0.80056 0.27184 0.53498 0.0
C373 C 0.76902 0.27466 0.95568 0.0
C374 C 0.82445 0.39335 0.02368 0.0
Mg375 Mg 0.87958 0.32254 0.39135 0.0
Mg376 Mg 0.90555 0.4406 0.36858 0.0
O377 O 0.87812 0.39085 0.45626 0.0
Mg378 Mg 0.83134 0.38081 0.59369 0.0
O379 O 0.78975 0.35475 0.72425 0.0
Mg380 Mg 0.83141 0.30442 0.79303 0.0
Mg381 Mg 0.75047 0.38082 0.84579 0.0
C382 C 0.87553 0.48819 0.66429 0.0
O383 O 0.77254 0.41064 0.4826 0.0
O384 O 0.9406 0.32594 0.27551 0.0
O385 O 0.71965 0.40182 0.63907 0.0
O386 O 0.84618 0.35732 0.21618 0.0
O387 O -0.03363 0.40051 0.29164 0.0
O388 O 0.85964 0.43687 0.19911 0.0
O389 O 0.88503 0.3519 0.71769 0.0
O390 O 0.92503 0.31141 0.5773 0.0
C391 C 0.92188 0.33849 0.67897 0.0
C392 C -0.03014 0.35645 0.25181 0.0
O393 O 0.84924 0.45355 0.69089 0.0
O394 O 0.77071 0.26616 0.83631 0.0
O395 O 0.89725 0.49028 0.55332 0.0
O396 O 0.83502 0.35374 -0.03047 0.0
O397 O 0.75637 0.3166 -0.01007 0.0
O398 O 0.79512 0.42099 -0.02606 0.0
O399 O 0.81334 0.31222 0.49102 0.0
O400 O 0.82193 0.25334 0.62751 0.0
C401 C 0.84155 0.39794 0.15786 0.0
C402 C 0.73211 0.41078 0.51734 0.0
C403 C 0.42183 0.1791 0.24591 0.0
C404 C 0.46988 0.16141 0.67223 0.0
C405 C 0.34178 0.11947 0.76743 0.0
Mg406 Mg 0.33181 0.21296 0.13228 0.0
Mg407 Mg 0.25056 0.13696 0.07879 0.0
O408 O 0.28981 0.16287 0.20056 0.0
Mg409 Mg 0.33113 0.13664 0.3316 0.0
O410 O 0.37768 0.12653 0.46948 0.0
Mg411 Mg 0.37943 0.19492 0.53377 0.0
Mg412 Mg 0.4058 0.077 0.55592 0.0
C413 C 0.23177 0.10704 0.40702 0.0
O414 O 0.34903 0.06395 0.23419 0.0
O415 O 0.27146 0.25162 0.0882 0.0
O416 O 0.3975 0.02746 0.37074 0.0
O417 O 0.33543 0.16362 0.95582 0.0
O418 O 0.25682 0.20117 0.93475 0.0
O419 O 0.29521 0.09659 0.95114 0.0
O420 O 0.3132 0.20529 0.43443 0.0
O421 O 0.32225 0.26402 0.29785 0.0
C422 C 0.30044 0.24554 0.38953 0.0
C423 C 0.26959 0.24309 -0.03111 0.0
O424 O 0.27217 0.10695 0.44196 0.0
O425 O 0.44038 0.19169 0.64945 0.0
O426 O 0.21944 0.11611 0.28526 0.0
O427 O 0.34612 0.16011 0.70897 0.0
O428 O 0.46661 0.1174 0.63187 0.0
O429 O 0.36009 0.08065 0.72616 0.0
O430 O 0.38501 0.16522 0.2085 0.0
O431 O 0.42504 0.20599 0.34791 0.0
C432 C 0.32476 0.12403 0.90173 0.0
C433 C 0.37557 0.02948 0.26012 0.0
C434 C 0.62999 0.74639 0.03443 0.0
C435 C 0.66146 0.74363 0.45508 0.0
C436 C 0.60611 0.62481 0.5231 0.0
Mg437 Mg 0.55106 0.69561 0.89079 0.0
Mg438 Mg 0.52503 0.57758 0.86843 0.0
O439 O 0.55267 0.62728 0.95558 0.0
Mg440 Mg 0.59937 0.63738 0.09316 0.0
O441 O 0.64088 0.66352 0.22372 0.0
Mg442 Mg 0.59911 0.71375 0.29239 0.0
Mg443 Mg 0.68013 0.63747 0.34535 0.0
C444 C 0.55512 0.53009 0.16435 0.0
O445 O 0.65822 0.60761 -0.01772 0.0
O446 O 0.49004 0.69221 0.77498 0.0
O447 O 0.71107 0.61647 0.13877 0.0
O448 O 0.58447 0.66087 0.71563 0.0
O449 O 0.46419 0.6177 0.7917 0.0
O450 O 0.57089 0.58133 0.69866 0.0
O451 O 0.54562 0.66615 0.21707 0.0
O452 O 0.50558 0.70659 0.07673 0.0
C453 C 0.50875 0.67939 0.17817 0.0
C454 C 0.46073 0.66174 0.75164 0.0
O455 O 0.58151 0.56467 0.19058 0.0
O456 O 0.65972 0.75212 0.3357 0.0
O457 O 0.53332 0.528 0.05353 0.0
O458 O 0.59552 0.66441 0.46893 0.0
O459 O 0.67411 0.70169 0.48938 0.0
O460 O 0.6355 0.59723 0.47343 0.0
O461 O 0.61729 0.706 -0.00958 0.0
O462 O 0.60853 0.76485 0.12684 0.0
C463 C 0.58903 0.62023 0.65733 0.0
C464 C 0.69865 0.60748 0.01705 0.0
C465 C 0.13003 0.77209 0.88901 0.0
C466 C 0.16124 0.77473 0.46829 0.0
C467 C 0.10613 0.89362 0.40059 0.0
Mg468 Mg 0.05113 0.82283 0.0329 0.0
Mg469 Mg 0.02506 0.94083 0.05549 0.0
O470 O 0.05272 0.89117 -0.03176 0.0
Mg471 Mg 0.09936 0.88109 0.83052 0.0
O472 O 0.1408 0.85493 0.69974 0.0
Mg473 Mg 0.09898 0.80471 0.63127 0.0
Mg474 Mg 0.18016 0.88083 0.57821 0.0
C475 C 0.05503 0.98843 0.75975 0.0
O476 O 0.15828 0.91079 0.94134 0.0
O477 O -0.00984 0.82621 0.14885 0.0
O478 O 0.21112 0.90166 0.78491 0.0
O479 O 0.08457 0.8576 0.20798 0.0
O480 O 0.96425 0.90068 0.13206 0.0
O481 O 0.07091 0.93711 0.22515 0.0
O482 O 0.04556 0.85233 0.70678 0.0
O483 O 0.00556 0.81182 0.84711 0.0
C484 C 0.0087 0.83895 0.74552 0.0
C485 C 0.96083 0.85665 0.17217 0.0
O486 O 0.08143 0.95387 0.73332 0.0
O487 O 0.15946 0.76617 0.58762 0.0
O488 O 0.03327 0.99047 0.87065 0.0
O489 O 0.09545 0.85405 0.45474 0.0
O490 O 0.17401 0.81665 0.43415 0.0
O491 O 0.13559 0.92113 0.45019 0.0
O492 O 0.11735 0.81247 0.93313 0.0
O493 O 0.10847 0.75361 0.79686 0.0
C494 C 0.08909 0.89823 0.26634 0.0
C495 C 0.19871 0.91071 0.90662 0.0
loop_
_geom_bond_atom_site_label_1
_geom_bond_atom_site_label_2
_geom_bond_distance
_geom_bond_site_symmetry_2
_ccdc_geom_bond_type
C0 O27 1.312 1_554 S
C0 O28 1.208 . S
C1 O22 1.331 . S
C1 O25 1.244 . S
C2 O24 1.264 . S
C2 O26 1.273 . S
Mg3 O5 1.936 . S
Mg3 O12 2.081 . S
Mg3 O14 2.023 . S
Mg3 O18 2.031 1_556 S
Mg3 O27 2.291 . S
Mg4 O5 1.963 . S
Mg4 O15 1.942 . S
Mg4 O16 1.955 . S
Mg4 O23 1.986 1_556 S
O5 Mg3 1.936 . S
O5 Mg4 1.963 . S
O5 Mg6 1.915 1_556 S
Mg6 O5 1.915 1_554 S
Mg6 O7 1.915 . S
Mg6 O11 2.013 . S
Mg6 O17 2.114 . S
Mg6 O21 2.013 . S
Mg6 O27 2.114 1_554 S
O7 Mg6 1.915 . S
O7 Mg8 1.936 . S
O7 Mg9 1.963 . S
Mg8 O7 1.936 . S
Mg8 O17 2.291 . S
Mg8 O22 2.081 . S
Mg8 O24 2.023 . S
Mg8 O28 2.031 . S
Mg9 O7 1.963 . S
Mg9 O13 1.986 . S
Mg9 O25 1.942 . S
Mg9 O26 1.955 . S
C10 O21 1.191 . S
C10 O23 1.307 . S
O11 Mg6 2.013 . S
O11 C30 1.191 . S
O12 Mg3 2.081 . S
O12 C20 1.331 . S
O13 Mg9 1.986 . S
O13 C30 1.307 . S
O14 Mg3 2.023 . S
O14 C29 1.264 . S
O15 Mg4 1.942 . S
O15 C20 1.244 . S
O16 Mg4 1.955 . S
O16 C29 1.273 . S
O17 Mg6 2.114 . S
O17 Mg8 2.291 . S
O17 C19 1.312 . S
O18 Mg3 2.031 1_554 S
O18 C19 1.208 . S
C19 O17 1.312 . S
C19 O18 1.208 . S
C20 O12 1.331 . S
C20 O15 1.244 . S
O21 Mg6 2.013 . S
O21 C10 1.191 . S
O22 C1 1.331 . S
O22 Mg8 2.081 . S
O23 Mg4 1.986 1_554 S
O23 C10 1.307 . S
O24 C2 1.264 . S
O24 Mg8 2.023 . S
O25 C1 1.244 . S
O25 Mg9 1.942 . S
O26 C2 1.273 . S
O26 Mg9 1.955 . S
O27 C0 1.312 1_556 S
O27 Mg3 2.291 . S
O27 Mg6 2.114 1_556 S
O28 C0 1.208 . S
O28 Mg8 2.031 . S
C29 O14 1.264 . S
C29 O16 1.273 . S
C30 O11 1.191 . S
C30 O13 1.307 . S
C31 O58 1.312 . S
C31 O59 1.208 . S
C32 O53 1.331 . S
C32 O56 1.244 . S
C33 O55 1.264 . S
C33 O57 1.273 . S
Mg34 O36 1.936 . S
Mg34 O43 2.081 . S
Mg34 O45 2.023 . S
Mg34 O49 2.031 . S
Mg34 O58 2.291 . S
Mg35 O36 1.963 . S
Mg35 O46 1.942 . S
Mg35 O47 1.955 . S
Mg35 O54 1.986 1_565 S
O36 Mg34 1.936 . S
O36 Mg35 1.963 . S
O36 Mg37 1.915 . S
Mg37 O36 1.915 . S
Mg37 O38 1.915 . S
Mg37 O42 2.013 . S
Mg37 O48 2.114 . S
Mg37 O52 2.013 . S
Mg37 O58 2.114 . S
O38 Mg37 1.915 . S
O38 Mg39 1.936 . S
O38 Mg40 1.963 . S
Mg39 O38 1.936 . S
Mg39 O48 2.291 . S
Mg39 O53 2.081 . S
Mg39 O55 2.023 1_554 S
Mg39 O59 2.031 . S
Mg40 O38 1.963 . S
Mg40 O44 1.986 . S
Mg40 O56 1.942 . S
Mg40 O57 1.955 1_554 S
C41 O52 1.191 . S
C41 O54 1.307 1_565 S
O42 Mg37 2.013 . S
O42 C61 1.191 . S
O43 Mg34 2.081 . S
O43 C51 1.331 . S
O44 Mg40 1.986 . S
O44 C61 1.307 . S
O45 Mg34 2.023 . S
O45 C60 1.264 . S
O46 Mg35 1.942 . S
O46 C51 1.244 . S
O47 Mg35 1.955 . S
O47 C60 1.273 . S
O48 Mg37 2.114 . S
O48 Mg39 2.291 . S
O48 C50 1.312 . S
O49 Mg34 2.031 . S
O49 C50 1.208 . S
C50 O48 1.312 . S
C50 O49 1.208 . S
C51 O43 1.331 . S
C51 O46 1.244 . S
O52 Mg37 2.013 . S
O52 C41 1.191 . S
O53 C32 1.331 . S
O53 Mg39 2.081 . S
O54 Mg35 1.986 1_545 S
O54 C41 1.307 1_545 S
O55 C33 1.264 . S
O55 Mg39 2.023 1_556 S
O56 C32 1.244 . S
O56 Mg40 1.942 . S
O57 C33 1.273 . S
O57 Mg40 1.955 1_556 S
O58 C31 1.312 . S
O58 Mg34 2.291 . S
O58 Mg37 2.114 . S
O59 C31 1.208 . S
O59 Mg39 2.031 . S
C60 O45 1.264 . S
C60 O47 1.273 . S
C61 O42 1.191 . S
C61 O44 1.307 . S
C62 O89 1.312 . S
C62 O90 1.208 . S
C63 O84 1.331 . S
C63 O87 1.244 . S
C64 O86 1.264 . S
C64 O88 1.273 . S
Mg65 O67 1.936 . S
Mg65 O74 2.081 . S
Mg65 O76 2.023 1_556 S
Mg65 O80 2.031 . S
Mg65 O89 2.291 . S
Mg66 O67 1.963 . S
Mg66 O77 1.942 . S
Mg66 O78 1.955 1_556 S
Mg66 O85 1.986 . S
O67 Mg65 1.936 . S
O67 Mg66 1.963 . S
O67 Mg68 1.915 . S
Mg68 O67 1.915 . S
Mg68 O69 1.915 . S
Mg68 O73 2.013 . S
Mg68 O79 2.114 . S
Mg68 O83 2.013 . S
Mg68 O89 2.114 . S
O69 Mg68 1.915 . S
O69 Mg70 1.936 . S
O69 Mg71 1.963 . S
Mg70 O69 1.936 . S
Mg70 O79 2.291 . S
Mg70 O84 2.081 . S
Mg70 O86 2.023 . S
Mg70 O90 2.031 . S
Mg71 O69 1.963 . S
Mg71 O75 1.986 . S
Mg71 O87 1.942 . S
Mg71 O88 1.955 . S
C72 O83 1.191 . S
C72 O85 1.307 . S
O73 Mg68 2.013 . S
O73 C92 1.191 . S
O74 Mg65 2.081 . S
O74 C82 1.331 . S
O75 Mg71 1.986 . S
O75 C92 1.307 . S
O76 Mg65 2.023 1_554 S
O76 C91 1.264 . S
O77 Mg66 1.942 . S
O77 C82 1.244 . S
O78 Mg66 1.955 1_554 S
O78 C91 1.273 . S
O79 Mg68 2.114 . S
O79 Mg70 2.291 . S
O79 C81 1.312 . S
O80 Mg65 2.031 . S
O80 C81 1.208 . S
C81 O79 1.312 . S
C81 O80 1.208 . S
C82 O74 1.331 . S
C82 O77 1.244 . S
O83 Mg68 2.013 . S
O83 C72 1.191 . S
O84 C63 1.331 . S
O84 Mg70 2.081 . S
O85 Mg66 1.986 . S
O85 C72 1.307 . S
O86 C64 1.264 . S
O86 Mg70 2.023 . S
O87 C63 1.244 . S
O87 Mg71 1.942 . S
O88 C64 1.273 . S
O88 Mg71 1.955 . S
O89 C62 1.312 . S
O89 Mg65 2.291 . S
O89 Mg68 2.114 . S
O90 C62 1.208 . S
O90 Mg70 2.031 . S
C91 O76 1.264 . S
C91 O78 1.273 . S
C92 O73 1.191 . S
C92 O75 1.307 . S
C93 O120 1.312 . S
C93 O121 1.208 . S
C94 O115 1.331 . S
C94 O118 1.244 . S
C95 O117 1.264 . S
C95 O119 1.273 . S
Mg96 O98 1.936 . S
Mg96 O105 2.081 . S
Mg96 O107 2.023 . S
Mg96 O111 2.031 . S
Mg96 O120 2.291 . S
Mg97 O98 1.963 . S
Mg97 O108 1.942 . S
Mg97 O109 1.955 . S
Mg97 O116 1.986 . S
O98 Mg96 1.936 . S
O98 Mg97 1.963 . S
O98 Mg99 1.915 . S
Mg99 O98 1.915 . S
Mg99 O100 1.915 1_556 S
Mg99 O104 2.013 . S
Mg99 O110 2.114 1_556 S
Mg99 O114 2.013 . S
Mg99 O120 2.114 . S
O100 Mg99 1.915 1_554 S
O100 Mg101 1.936 . S
O100 Mg102 1.963 . S
Mg101 O100 1.936 . S
Mg101 O110 2.291 . S
Mg101 O115 2.081 . S
Mg101 O117 2.023 . S
Mg101 O121 2.031 1_554 S
Mg102 O100 1.963 . S
Mg102 O106 1.986 1_544 S
Mg102 O118 1.942 . S
Mg102 O119 1.955 . S
C103 O114 1.191 . S
C103 O116 1.307 . S
O104 Mg99 2.013 . S
O104 C123 1.191 . S
O105 Mg96 2.081 . S
O105 C113 1.331 . S
O106 Mg102 1.986 1_566 S
O106 C123 1.307 1_565 S
O107 Mg96 2.023 . S
O107 C122 1.264 . S
O108 Mg97 1.942 . S
O108 C113 1.244 . S
O109 Mg97 1.955 . S
O109 C122 1.273 . S
O110 Mg99 2.114 1_554 S
O110 Mg101 2.291 . S
O110 C112 1.312 1_554 S
O111 Mg96 2.031 . S
O111 C112 1.208 . S
C112 O110 1.312 1_556 S
C112 O111 1.208 . S
C113 O105 1.331 . S
C113 O108 1.244 . S
O114 Mg99 2.013 . S
O114 C103 1.191 . S
O115 C94 1.331 . S
O115 Mg101 2.081 . S
O116 Mg97 1.986 . S
O116 C103 1.307 . S
O117 C95 1.264 . S
O117 Mg101 2.023 . S
O118 C94 1.244 . S
O118 Mg102 1.942 . S
O119 C95 1.273 . S
O119 Mg102 1.955 . S
O120 C93 1.312 . S
O120 Mg96 2.291 . S
O120 Mg99 2.114 . S
O121 C93 1.208 . S
O121 Mg101 2.031 1_556 S
C122 O107 1.264 . S
C122 O109 1.273 . S
C123 O104 1.191 . S
C123 O106 1.307 1_545 S
C124 O151 1.312 . S
C124 O152 1.208 . S
C125 O146 1.331 . S
C125 O149 1.244 . S
C126 O148 1.264 . S
C126 O150 1.273 . S
Mg127 O129 1.936 . S
Mg127 O136 2.081 . S
Mg127 O138 2.023 . S
Mg127 O142 2.031 . S
Mg127 O151 2.291 . S
Mg128 O129 1.963 . S
Mg128 O139 1.942 . S
Mg128 O140 1.955 . S
Mg128 O147 1.986 . S
O129 Mg127 1.936 . S
O129 Mg128 1.963 . S
O129 Mg130 1.915 . S
Mg130 O129 1.915 . S
Mg130 O131 1.915 . S
Mg130 O135 2.013 . S
Mg130 O141 2.114 . S
Mg130 O145 2.013 . S
Mg130 O151 2.114 . S
O131 Mg130 1.915 . S
O131 Mg132 1.936 . S
O131 Mg133 1.963 . S
Mg132 O131 1.936 . S
Mg132 O141 2.291 . S
Mg132 O146 2.081 . S
Mg132 O148 2.023 1_554 S
Mg132 O152 2.031 . S
Mg133 O131 1.963 . S
Mg133 O137 1.986 . S
Mg133 O149 1.942 . S
Mg133 O150 1.955 1_554 S
C134 O145 1.191 . S
C134 O147 1.307 . S
O135 Mg130 2.013 . S
O135 C154 1.191 . S
O136 Mg127 2.081 . S
O136 C144 1.331 . S
O137 Mg133 1.986 . S
O137 C154 1.307 . S
O138 Mg127 2.023 . S
O138 C153 1.264 . S
O139 Mg128 1.942 . S
O139 C144 1.244 . S
O140 Mg128 1.955 . S
O140 C153 1.273 . S
O141 Mg130 2.114 . S
O141 Mg132 2.291 . S
O141 C143 1.312 . S
O142 Mg127 2.031 . S
O142 C143 1.208 . S
C143 O141 1.312 . S
C143 O142 1.208 . S
C144 O136 1.331 . S
C144 O139 1.244 . S
O145 Mg130 2.013 . S
O145 C134 1.191 . S
O146 C125 1.331 . S
O146 Mg132 2.081 . S
O147 Mg128 1.986 . S
O147 C134 1.307 . S
O148 C126 1.264 . S
O148 Mg132 2.023 1_556 S
O149 C125 1.244 . S
O149 Mg133 1.942 . S
O150 C126 1.273 . S
O150 Mg133 1.955 1_556 S
O151 C124 1.312 . S
O151 Mg127 2.291 . S
O151 Mg130 2.114 . S
O152 C124 1.208 . S
O152 Mg132 2.031 . S
C153 O138 1.264 . S
C153 O140 1.273 . S
C154 O135 1.191 . S
C154 O137 1.307 . S
C155 O182 1.312 . S
C155 O183 1.208 . S
C156 O177 1.331 . S
C156 O180 1.244 . S
C157 O179 1.264 . S
C157 O181 1.273 . S
Mg158 O160 1.936 . S
Mg158 O167 2.081 . S
Mg158 O169 2.023 1_556 S
Mg158 O173 2.031 . S
Mg158 O182 2.291 . S
Mg159 O160 1.963 . S
Mg159 O170 1.942 . S
Mg159 O171 1.955 1_556 S
Mg159 O178 1.986 . S
O160 Mg158 1.936 . S
O160 Mg159 1.963 . S
O160 Mg161 1.915 . S
Mg161 O160 1.915 . S
Mg161 O162 1.915 . S
Mg161 O166 2.013 . S
Mg161 O172 2.114 . S
Mg161 O176 2.013 . S
Mg161 O182 2.114 . S
O162 Mg161 1.915 . S
O162 Mg163 1.936 . S
O162 Mg164 1.963 . S
Mg163 O162 1.936 . S
Mg163 O172 2.291 . S
Mg163 O177 2.081 . S
Mg163 O179 2.023 . S
Mg163 O183 2.031 . S
Mg164 O162 1.963 . S
Mg164 O168 1.986 1_565 S
Mg164 O180 1.942 . S
Mg164 O181 1.955 . S
C165 O176 1.191 . S
C165 O178 1.307 . S
O166 Mg161 2.013 . S
O166 C185 1.191 . S
O167 Mg158 2.081 . S
O167 C175 1.331 . S
O168 Mg164 1.986 1_545 S
O168 C185 1.307 1_545 S
O169 Mg158 2.023 1_554 S
O169 C184 1.264 . S
O170 Mg159 1.942 . S
O170 C175 1.244 . S
O171 Mg159 1.955 1_554 S
O171 C184 1.273 . S
O172 Mg161 2.114 . S
O172 Mg163 2.291 . S
O172 C174 1.312 . S
O173 Mg158 2.031 . S
O173 C174 1.208 . S
C174 O172 1.312 . S
C174 O173 1.208 . S
C175 O167 1.331 . S
C175 O170 1.244 . S
O176 Mg161 2.013 . S
O176 C165 1.191 . S
O177 C156 1.331 . S
O177 Mg163 2.081 . S
O178 Mg159 1.986 . S
O178 C165 1.307 . S
O179 C157 1.264 . S
O179 Mg163 2.023 . S
O180 C156 1.244 . S
O180 Mg164 1.942 . S
O181 C157 1.273 . S
O181 Mg164 1.955 . S
O182 C155 1.312 . S
O182 Mg158 2.291 . S
O182 Mg161 2.114 . S
O183 C155 1.208 . S
O183 Mg163 2.031 . S
C184 O169 1.264 . S
C184 O171 1.273 . S
C185 O166 1.191 . S
C185 O168 1.307 1_565 S
C186 O213 1.312 1_556 S
C186 O214 1.208 . S
C187 O208 1.331 . S
C187 O211 1.244 . S
C188 O210 1.264 . S
C188 O212 1.273 . S
Mg189 O191 1.936 . S
Mg189 O198 2.081 . S
Mg189 O200 2.023 . S
Mg189 O204 2.031 1_554 S
Mg189 O213 2.291 . S
Mg190 O191 1.963 . S
Mg190 O201 1.942 . S
Mg190 O202 1.955 . S
Mg190 O209 1.986 1_554 S
O191 Mg189 1.936 . S
O191 Mg190 1.963 . S
O191 Mg192 1.915 1_554 S
Mg192 O191 1.915 1_556 S
Mg192 O193 1.915 . S
Mg192 O197 2.013 . S
Mg192 O203 2.114 . S
Mg192 O207 2.013 . S
Mg192 O213 2.114 1_556 S
O193 Mg192 1.915 . S
O193 Mg194 1.936 . S
O193 Mg195 1.963 . S
Mg194 O193 1.936 . S
Mg194 O203 2.291 . S
Mg194 O208 2.081 . S
Mg194 O210 2.023 . S
Mg194 O214 2.031 . S
Mg195 O193 1.963 . S
Mg195 O199 1.986 . S
Mg195 O211 1.942 . S
Mg195 O212 1.955 . S
C196 O207 1.191 . S
C196 O209 1.307 . S
O197 Mg192 2.013 . S
O197 C216 1.191 . S
O198 Mg189 2.081 . S
O198 C206 1.331 . S
O199 Mg195 1.986 . S
O199 C216 1.307 . S
O200 Mg189 2.023 . S
O200 C215 1.264 . S
O201 Mg190 1.942 . S
O201 C206 1.244 . S
O202 Mg190 1.955 . S
O202 C215 1.273 . S
O203 Mg192 2.114 . S
O203 Mg194 2.291 . S
O203 C205 1.312 . S
O204 Mg189 2.031 1_556 S
O204 C205 1.208 . S
C205 O203 1.312 . S
C205 O204 1.208 . S
C206 O198 1.331 . S
C206 O201 1.244 . S
O207 Mg192 2.013 . S
O207 C196 1.191 . S
O208 C187 1.331 . S
O208 Mg194 2.081 . S
O209 Mg190 1.986 1_556 S
O209 C196 1.307 . S
O210 C188 1.264 . S
O210 Mg194 2.023 . S
O211 C187 1.244 . S
O211 Mg195 1.942 . S
O212 C188 1.273 . S
O212 Mg195 1.955 . S
O213 C186 1.312 1_554 S
O213 Mg189 2.291 . S
O213 Mg192 2.114 1_554 S
O214 C186 1.208 . S
O214 Mg194 2.031 . S
C215 O200 1.264 . S
C215 O202 1.273 . S
C216 O197 1.191 . S
C216 O199 1.307 . S
C217 O244 1.312 . S
C217 O245 1.208 . S
C218 O239 1.331 . S
C218 O242 1.244 . S
C219 O241 1.264 . S
C219 O243 1.273 . S
Mg220 O222 1.936 . S
Mg220 O229 2.081 . S
Mg220 O231 2.023 . S
Mg220 O235 2.031 . S
Mg220 O244 2.291 . S
Mg221 O222 1.963 . S
Mg221 O232 1.942 . S
Mg221 O233 1.955 . S
Mg221 O240 1.986 . S
O222 Mg220 1.936 . S
O222 Mg221 1.963 . S
O222 Mg223 1.915 . S
Mg223 O222 1.915 . S
Mg223 O224 1.915 1_554 S
Mg223 O228 2.013 . S
Mg223 O234 2.114 1_554 S
Mg223 O238 2.013 . S
Mg223 O244 2.114 . S
O224 Mg223 1.915 1_556 S
O224 Mg225 1.936 . S
O224 Mg226 1.963 . S
Mg225 O224 1.936 . S
Mg225 O234 2.291 . S
Mg225 O239 2.081 . S
Mg225 O241 2.023 . S
Mg225 O245 2.031 1_556 S
Mg226 O224 1.963 . S
Mg226 O230 1.986 1_546 S
Mg226 O242 1.942 . S
Mg226 O243 1.955 . S
C227 O238 1.191 . S
C227 O240 1.307 . S
O228 Mg223 2.013 . S
O228 C247 1.191 . S
O229 Mg220 2.081 . S
O229 C237 1.331 . S
O230 Mg226 1.986 1_564 S
O230 C247 1.307 1_565 S
O231 Mg220 2.023 . S
O231 C246 1.264 . S
O232 Mg221 1.942 . S
O232 C237 1.244 . S
O233 Mg221 1.955 . S
O233 C246 1.273 . S
O234 Mg223 2.114 1_556 S
O234 Mg225 2.291 . S
O234 C236 1.312 1_556 S
O235 Mg220 2.031 . S
O235 C236 1.208 . S
C236 O234 1.312 1_554 S
C236 O235 1.208 . S
C237 O229 1.331 . S
C237 O232 1.244 . S
O238 Mg223 2.013 . S
O238 C227 1.191 . S
O239 C218 1.331 . S
O239 Mg225 2.081 . S
O240 Mg221 1.986 . S
O240 C227 1.307 . S
O241 C219 1.264 . S
O241 Mg225 2.023 . S
O242 C218 1.244 . S
O242 Mg226 1.942 . S
O243 C219 1.273 . S
O243 Mg226 1.955 . S
O244 C217 1.312 . S
O244 Mg220 2.291 . S
O244 Mg223 2.114 . S
O245 C217 1.208 . S
O245 Mg225 2.031 1_554 S
C246 O231 1.264 . S
C246 O233 1.273 . S
C247 O228 1.191 . S
C247 O230 1.307 1_545 S
C248 O275 1.312 1_556 S
C248 O276 1.208 . S
C249 O270 1.331 . S
C249 O273 1.244 . S
C250 O272 1.264 . S
C250 O274 1.273 . S
Mg251 O253 1.936 . S
Mg251 O260 2.081 . S
Mg251 O262 2.023 . S
Mg251 O266 2.031 1_554 S
Mg251 O275 2.291 . S
Mg252 O253 1.963 . S
Mg252 O263 1.942 . S
Mg252 O264 1.955 . S
Mg252 O271 1.986 1_554 S
O253 Mg251 1.936 . S
O253 Mg252 1.963 . S
O253 Mg254 1.915 1_554 S
Mg254 O253 1.915 1_556 S
Mg254 O255 1.915 . S
Mg254 O259 2.013 . S
Mg254 O265 2.114 . S
Mg254 O269 2.013 . S
Mg254 O275 2.114 1_556 S
O255 Mg254 1.915 . S
O255 Mg256 1.936 . S
O255 Mg257 1.963 . S
Mg256 O255 1.936 . S
Mg256 O265 2.291 . S
Mg256 O270 2.081 . S
Mg256 O272 2.023 . S
Mg256 O276 2.031 . S
Mg257 O255 1.963 . S
Mg257 O261 1.986 . S
Mg257 O273 1.942 . S
Mg257 O274 1.955 . S
C258 O269 1.191 . S
C258 O271 1.307 . S
O259 Mg254 2.013 . S
O259 C278 1.191 . S
O260 Mg251 2.081 . S
O260 C268 1.331 . S
O261 Mg257 1.986 . S
O261 C278 1.307 . S
O262 Mg251 2.023 . S
O262 C277 1.264 . S
O263 Mg252 1.942 . S
O263 C268 1.244 . S
O264 Mg252 1.955 . S
O264 C277 1.273 . S
O265 Mg254 2.114 . S
O265 Mg256 2.291 . S
O265 C267 1.312 . S
O266 Mg251 2.031 1_556 S
O266 C267 1.208 . S
C267 O265 1.312 . S
C267 O266 1.208 . S
C268 O260 1.331 . S
C268 O263 1.244 . S
O269 Mg254 2.013 . S
O269 C258 1.191 . S
O270 C249 1.331 . S
O270 Mg256 2.081 . S
O271 Mg252 1.986 1_556 S
O271 C258 1.307 . S
O272 C250 1.264 . S
O272 Mg256 2.023 . S
O273 C249 1.244 . S
O273 Mg257 1.942 . S
O274 C250 1.273 . S
O274 Mg257 1.955 . S
O275 C248 1.312 1_554 S
O275 Mg251 2.291 . S
O275 Mg254 2.114 1_554 S
O276 C248 1.208 . S
O276 Mg256 2.031 . S
C277 O262 1.264 . S
C277 O264 1.273 . S
C278 O259 1.191 . S
C278 O261 1.307 . S
C279 O306 1.312 . S
C279 O307 1.208 . S
C280 O301 1.331 . S
C280 O304 1.244 . S
C281 O303 1.264 . S
C281 O305 1.273 . S
Mg282 O284 1.936 . S
Mg282 O291 2.081 . S
Mg282 O293 2.023 . S
Mg282 O297 2.031 . S
Mg282 O306 2.291 . S
Mg283 O284 1.963 . S
Mg283 O294 1.942 . S
Mg283 O295 1.955 . S
Mg283 O302 1.986 1_545 S
O284 Mg282 1.936 . S
O284 Mg283 1.963 . S
O284 Mg285 1.915 . S
Mg285 O284 1.915 . S
Mg285 O286 1.915 . S
Mg285 O290 2.013 . S
Mg285 O296 2.114 . S
Mg285 O300 2.013 . S
Mg285 O306 2.114 . S
O286 Mg285 1.915 . S
O286 Mg287 1.936 . S
O286 Mg288 1.963 . S
Mg287 O286 1.936 . S
Mg287 O296 2.291 . S
Mg287 O301 2.081 . S
Mg287 O303 2.023 1_556 S
Mg287 O307 2.031 . S
Mg288 O286 1.963 . S
Mg288 O292 1.986 . S
Mg288 O304 1.942 . S
Mg288 O305 1.955 1_556 S
C289 O300 1.191 . S
C289 O302 1.307 1_545 S
O290 Mg285 2.013 . S
O290 C309 1.191 . S
O291 Mg282 2.081 . S
O291 C299 1.331 . S
O292 Mg288 1.986 . S
O292 C309 1.307 . S
O293 Mg282 2.023 . S
O293 C308 1.264 . S
O294 Mg283 1.942 . S
O294 C299 1.244 . S
O295 Mg283 1.955 . S
O295 C308 1.273 . S
O296 Mg285 2.114 . S
O296 Mg287 2.291 . S
O296 C298 1.312 . S
O297 Mg282 2.031 . S
O297 C298 1.208 . S
C298 O296 1.312 . S
C298 O297 1.208 . S
C299 O291 1.331 . S
C299 O294 1.244 . S
O300 Mg285 2.013 . S
O300 C289 1.191 . S
O301 C280 1.331 . S
O301 Mg287 2.081 . S
O302 Mg283 1.986 1_565 S
O302 C289 1.307 1_565 S
O303 C281 1.264 . S
O303 Mg287 2.023 1_554 S
O304 C280 1.244 . S
O304 Mg288 1.942 . S
O305 C281 1.273 . S
O305 Mg288 1.955 1_554 S
O306 C279 1.312 . S
O306 Mg282 2.291 . S
O306 Mg285 2.114 . S
O307 C279 1.208 . S
O307 Mg287 2.031 . S
C308 O293 1.264 . S
C308 O295 1.273 . S
C309 O290 1.191 . S
C309 O292 1.307 . S
C310 O337 1.312 . S
C310 O338 1.208 . S
C311 O332 1.331 . S
C311 O335 1.244 . S
C312 O334 1.264 . S
C312 O336 1.273 . S
Mg313 O315 1.936 . S
Mg313 O322 2.081 . S
Mg313 O324 2.023 1_554 S
Mg313 O328 2.031 . S
Mg313 O337 2.291 . S
Mg314 O315 1.963 . S
Mg314 O325 1.942 . S
Mg314 O326 1.955 1_554 S
Mg314 O333 1.986 . S
O315 Mg313 1.936 . S
O315 Mg314 1.963 . S
O315 Mg316 1.915 . S
Mg316 O315 1.915 . S
Mg316 O317 1.915 . S
Mg316 O321 2.013 . S
Mg316 O327 2.114 . S
Mg316 O331 2.013 . S
Mg316 O337 2.114 . S
O317 Mg316 1.915 . S
O317 Mg318 1.936 . S
O317 Mg319 1.963 . S
Mg318 O317 1.936 . S
Mg318 O327 2.291 . S
Mg318 O332 2.081 . S
Mg318 O334 2.023 . S
Mg318 O338 2.031 . S
Mg319 O317 1.963 . S
Mg319 O323 1.986 . S
Mg319 O335 1.942 . S
Mg319 O336 1.955 . S
C320 O331 1.191 . S
C320 O333 1.307 . S
O321 Mg316 2.013 . S
O321 C340 1.191 . S
O322 Mg313 2.081 . S
O322 C330 1.331 . S
O323 Mg319 1.986 . S
O323 C340 1.307 . S
O324 Mg313 2.023 1_556 S
O324 C339 1.264 . S
O325 Mg314 1.942 . S
O325 C330 1.244 . S
O326 Mg314 1.955 1_556 S
O326 C339 1.273 . S
O327 Mg316 2.114 . S
O327 Mg318 2.291 . S
O327 C329 1.312 . S
O328 Mg313 2.031 . S
O328 C329 1.208 . S
C329 O327 1.312 . S
C329 O328 1.208 . S
C330 O322 1.331 . S
C330 O325 1.244 . S
O331 Mg316 2.013 . S
O331 C320 1.191 . S
O332 C311 1.331 . S
O332 Mg318 2.081 . S
O333 Mg314 1.986 . S
O333 C320 1.307 . S
O334 C312 1.264 . S
O334 Mg318 2.023 . S
O335 C311 1.244 . S
O335 Mg319 1.942 . S
O336 C312 1.273 . S
O336 Mg319 1.955 . S
O337 C310 1.312 . S
O337 Mg313 2.291 . S
O337 Mg316 2.114 . S
O338 C310 1.208 . S
O338 Mg318 2.031 . S
C339 O324 1.264 . S
C339 O326 1.273 . S
C340 O321 1.191 . S
C340 O323 1.307 . S
C341 O368 1.312 1_554 S
C341 O369 1.208 . S
C342 O363 1.331 . S
C342 O366 1.244 . S
C343 O365 1.264 . S
C343 O367 1.273 . S
Mg344 O346 1.936 . S
Mg344 O353 2.081 . S
Mg344 O355 2.023 . S
Mg344 O359 2.031 1_556 S
Mg344 O368 2.291 . S
Mg345 O346 1.963 . S
Mg345 O356 1.942 . S
Mg345 O357 1.955 . S
Mg345 O364 1.986 1_566 S
O346 Mg344 1.936 . S
O346 Mg345 1.963 . S
O346 Mg347 1.915 1_556 S
Mg347 O346 1.915 1_554 S
Mg347 O348 1.915 . S
Mg347 O352 2.013 . S
Mg347 O358 2.114 . S
Mg347 O362 2.013 . S
Mg347 O368 2.114 1_554 S
O348 Mg347 1.915 . S
O348 Mg349 1.936 . S
O348 Mg350 1.963 . S
Mg349 O348 1.936 . S
Mg349 O358 2.291 . S
Mg349 O363 2.081 . S
Mg349 O365 2.023 . S
Mg349 O369 2.031 . S
Mg350 O348 1.963 . S
Mg350 O354 1.986 . S
Mg350 O366 1.942 . S
Mg350 O367 1.955 . S
C351 O362 1.191 . S
C351 O364 1.307 1_565 S
O352 Mg347 2.013 . S
O352 C371 1.191 . S
O353 Mg344 2.081 . S
O353 C361 1.331 . S
O354 Mg350 1.986 . S
O354 C371 1.307 . S
O355 Mg344 2.023 . S
O355 C370 1.264 . S
O356 Mg345 1.942 . S
O356 C361 1.244 . S
O357 Mg345 1.955 . S
O357 C370 1.273 . S
O358 Mg347 2.114 . S
O358 Mg349 2.291 . S
O358 C360 1.312 . S
O359 Mg344 2.031 1_554 S
O359 C360 1.208 . S
C360 O358 1.312 . S
C360 O359 1.208 . S
C361 O353 1.331 . S
C361 O356 1.244 . S
O362 Mg347 2.013 . S
O362 C351 1.191 . S
O363 C342 1.331 . S
O363 Mg349 2.081 . S
O364 Mg345 1.986 1_544 S
O364 C351 1.307 1_545 S
O365 C343 1.264 . S
O365 Mg349 2.023 . S
O366 C342 1.244 . S
O366 Mg350 1.942 . S
O367 C343 1.273 . S
O367 Mg350 1.955 . S
O368 C341 1.312 1_556 S
O368 Mg344 2.291 . S
O368 Mg347 2.114 1_556 S
O369 C341 1.208 . S
O369 Mg349 2.031 . S
C370 O355 1.264 . S
C370 O357 1.273 . S
C371 O352 1.191 . S
C371 O354 1.307 . S
C372 O399 1.312 . S
C372 O400 1.208 . S
C373 O394 1.331 . S
C373 O397 1.244 . S
C374 O396 1.264 . S
C374 O398 1.273 . S
Mg375 O377 1.936 . S
Mg375 O384 2.081 . S
Mg375 O386 2.023 . S
Mg375 O390 2.031 . S
Mg375 O399 2.291 . S
Mg376 O377 1.963 . S
Mg376 O387 1.942 . S
Mg376 O388 1.955 . S
Mg376 O395 1.986 . S
O377 Mg375 1.936 . S
O377 Mg376 1.963 . S
O377 Mg378 1.915 . S
Mg378 O377 1.915 . S
Mg378 O379 1.915 . S
Mg378 O383 2.013 . S
Mg378 O389 2.114 . S
Mg378 O393 2.013 . S
Mg378 O399 2.114 . S
O379 Mg378 1.915 . S
O379 Mg380 1.936 . S
O379 Mg381 1.963 . S
Mg380 O379 1.936 . S
Mg380 O389 2.291 . S
Mg380 O394 2.081 . S
Mg380 O396 2.023 1_556 S
Mg380 O400 2.031 . S
Mg381 O379 1.963 . S
Mg381 O385 1.986 . S
Mg381 O397 1.942 . S
Mg381 O398 1.955 1_556 S
C382 O393 1.191 . S
C382 O395 1.307 . S
O383 Mg378 2.013 . S
O383 C402 1.191 . S
O384 Mg375 2.081 . S
O384 C392 1.331 . S
O385 Mg381 1.986 . S
O385 C402 1.307 . S
O386 Mg375 2.023 . S
O386 C401 1.264 . S
O387 Mg376 1.942 . S
O387 C392 1.244 . S
O388 Mg376 1.955 . S
O388 C401 1.273 . S
O389 Mg378 2.114 . S
O389 Mg380 2.291 . S
O389 C391 1.312 . S
O390 Mg375 2.031 . S
O390 C391 1.208 . S
C391 O389 1.312 . S
C391 O390 1.208 . S
C392 O384 1.331 . S
C392 O387 1.244 . S
O393 Mg378 2.013 . S
O393 C382 1.191 . S
O394 C373 1.331 . S
O394 Mg380 2.081 . S
O395 Mg376 1.986 . S
O395 C382 1.307 . S
O396 C374 1.264 . S
O396 Mg380 2.023 1_554 S
O397 C373 1.244 . S
O397 Mg381 1.942 . S
O398 C374 1.273 . S
O398 Mg381 1.955 1_554 S
O399 C372 1.312 . S
O399 Mg375 2.291 . S
O399 Mg378 2.114 . S
O400 C372 1.208 . S
O400 Mg380 2.031 . S
C401 O386 1.264 . S
C401 O388 1.273 . S
C402 O383 1.191 . S
C402 O385 1.307 . S
C403 O430 1.312 . S
C403 O431 1.208 . S
C404 O425 1.331 . S
C404 O428 1.244 . S
C405 O427 1.264 . S
C405 O429 1.273 . S
Mg406 O408 1.936 . S
Mg406 O415 2.081 . S
Mg406 O417 2.023 1_554 S
Mg406 O421 2.031 . S
Mg406 O430 2.291 . S
Mg407 O408 1.963 . S
Mg407 O418 1.942 . S
Mg407 O419 1.955 1_554 S
Mg407 O426 1.986 . S
O408 Mg406 1.936 . S
O408 Mg407 1.963 . S
O408 Mg409 1.915 . S
Mg409 O408 1.915 . S
Mg409 O410 1.915 . S
Mg409 O414 2.013 . S
Mg409 O420 2.114 . S
Mg409 O424 2.013 . S
Mg409 O430 2.114 . S
O410 Mg409 1.915 . S
O410 Mg411 1.936 . S
O410 Mg412 1.963 . S
Mg411 O410 1.936 . S
Mg411 O420 2.291 . S
Mg411 O425 2.081 . S
Mg411 O427 2.023 . S
Mg411 O431 2.031 . S
Mg412 O410 1.963 . S
Mg412 O416 1.986 1_545 S
Mg412 O428 1.942 . S
Mg412 O429 1.955 . S
C413 O424 1.191 . S
C413 O426 1.307 . S
O414 Mg409 2.013 . S
O414 C433 1.191 . S
O415 Mg406 2.081 . S
O415 C423 1.331 . S
O416 Mg412 1.986 1_565 S
O416 C433 1.307 1_565 S
O417 Mg406 2.023 1_556 S
O417 C432 1.264 . S
O418 Mg407 1.942 . S
O418 C423 1.244 . S
O419 Mg407 1.955 1_556 S
O419 C432 1.273 . S
O420 Mg409 2.114 . S
O420 Mg411 2.291 . S
O420 C422 1.312 . S
O421 Mg406 2.031 . S
O421 C422 1.208 . S
C422 O420 1.312 . S
C422 O421 1.208 . S
C423 O415 1.331 . S
C423 O418 1.244 . S
O424 Mg409 2.013 . S
O424 C413 1.191 . S
O425 C404 1.331 . S
O425 Mg411 2.081 . S
O426 Mg407 1.986 . S
O426 C413 1.307 . S
O427 C405 1.264 . S
O427 Mg411 2.023 . S
O428 C404 1.244 . S
O428 Mg412 1.942 . S
O429 C405 1.273 . S
O429 Mg412 1.955 . S
O430 C403 1.312 . S
O430 Mg406 2.291 . S
O430 Mg409 2.114 . S
O431 C403 1.208 . S
O431 Mg411 2.031 . S
C432 O417 1.264 . S
C432 O419 1.273 . S
C433 O414 1.191 . S
C433 O416 1.307 1_545 S
C434 O461 1.312 1_554 S
C434 O462 1.208 . S
C435 O456 1.331 . S
C435 O459 1.244 . S
C436 O458 1.264 . S
C436 O460 1.273 . S
Mg437 O439 1.936 . S
Mg437 O446 2.081 . S
Mg437 O448 2.023 . S
Mg437 O452 2.031 1_556 S
Mg437 O461 2.291 . S
Mg438 O439 1.963 . S
Mg438 O449 1.942 . S
Mg438 O450 1.955 . S
Mg438 O457 1.986 1_556 S
O439 Mg437 1.936 . S
O439 Mg438 1.963 . S
O439 Mg440 1.915 1_556 S
Mg440 O439 1.915 1_554 S
Mg440 O441 1.915 . S
Mg440 O445 2.013 . S
Mg440 O451 2.114 . S
Mg440 O455 2.013 . S
Mg440 O461 2.114 1_554 S
O441 Mg440 1.915 . S
O441 Mg442 1.936 . S
O441 Mg443 1.963 . S
Mg442 O441 1.936 . S
Mg442 O451 2.291 . S
Mg442 O456 2.081 . S
Mg442 O458 2.023 . S
Mg442 O462 2.031 . S
Mg443 O441 1.963 . S
Mg443 O447 1.986 . S
Mg443 O459 1.942 . S
Mg443 O460 1.955 . S
C444 O455 1.191 . S
C444 O457 1.307 . S
O445 Mg440 2.013 . S
O445 C464 1.191 . S
O446 Mg437 2.081 . S
O446 C454 1.331 . S
O447 Mg443 1.986 . S
O447 C464 1.307 . S
O448 Mg437 2.023 . S
O448 C463 1.264 . S
O449 Mg438 1.942 . S
O449 C454 1.244 . S
O450 Mg438 1.955 . S
O450 C463 1.273 . S
O451 Mg440 2.114 . S
O451 Mg442 2.291 . S
O451 C453 1.312 . S
O452 Mg437 2.031 1_554 S
O452 C453 1.208 . S
C453 O451 1.312 . S
C453 O452 1.208 . S
C454 O446 1.331 . S
C454 O449 1.244 . S
O455 Mg440 2.013 . S
O455 C444 1.191 . S
O456 C435 1.331 . S
O456 Mg442 2.081 . S
O457 Mg438 1.986 1_554 S
O457 C444 1.307 . S
O458 C436 1.264 . S
O458 Mg442 2.023 . S
O459 C435 1.244 . S
O459 Mg443 1.942 . S
O460 C436 1.273 . S
O460 Mg443 1.955 . S
O461 C434 1.312 1_556 S
O461 Mg437 2.291 . S
O461 Mg440 2.114 1_556 S
O462 C434 1.208 . S
O462 Mg442 2.031 . S
C463 O448 1.264 . S
C463 O450 1.273 . S
C464 O445 1.191 . S
C464 O447 1.307 . S
C465 O492 1.312 1_556 S
C465 O493 1.208 . S
C466 O487 1.331 . S
C466 O490 1.244 . S
C467 O489 1.264 . S
C467 O491 1.273 . S
Mg468 O470 1.936 . S
Mg468 O477 2.081 . S
Mg468 O479 2.023 . S
Mg468 O483 2.031 1_554 S
Mg468 O492 2.291 . S
Mg469 O470 1.963 . S
Mg469 O480 1.942 . S
Mg469 O481 1.955 . S
Mg469 O488 1.986 1_564 S
O470 Mg468 1.936 . S
O470 Mg469 1.963 . S
O470 Mg471 1.915 1_554 S
Mg471 O470 1.915 1_556 S
Mg471 O472 1.915 . S
Mg471 O476 2.013 . S
Mg471 O482 2.114 . S
Mg471 O486 2.013 . S
Mg471 O492 2.114 1_556 S
O472 Mg471 1.915 . S
O472 Mg473 1.936 . S
O472 Mg474 1.963 . S
Mg473 O472 1.936 . S
Mg473 O482 2.291 . S
Mg473 O487 2.081 . S
Mg473 O489 2.023 . S
Mg473 O493 2.031 . S
Mg474 O472 1.963 . S
Mg474 O478 1.986 . S
Mg474 O490 1.942 . S
Mg474 O491 1.955 . S
C475 O486 1.191 . S
C475 O488 1.307 1_565 S
O476 Mg471 2.013 . S
O476 C495 1.191 . S
O477 Mg468 2.081 . S
O477 C485 1.331 . S
O478 Mg474 1.986 . S
O478 C495 1.307 . S
O479 Mg468 2.023 . S
O479 C494 1.264 . S
O480 Mg469 1.942 . S
O480 C485 1.244 . S
O481 Mg469 1.955 . S
O481 C494 1.273 . S
O482 Mg471 2.114 . S
O482 Mg473 2.291 . S
O482 C484 1.312 . S
O483 Mg468 2.031 1_556 S
O483 C484 1.208 . S
C484 O482 1.312 . S
C484 O483 1.208 . S
C485 O477 1.331 . S
C485 O480 1.244 . S
O486 Mg471 2.013 . S
O486 C475 1.191 . S
O487 C466 1.331 . S
O487 Mg473 2.081 . S
O488 Mg469 1.986 1_546 S
O488 C475 1.307 1_545 S
O489 C467 1.264 . S
O489 Mg473 2.023 . S
O490 C466 1.244 . S
O490 Mg474 1.942 . S
O491 C467 1.273 . S
O491 Mg474 1.955 . S
O492 C465 1.312 1_554 S
O492 Mg468 2.291 . S
O492 Mg471 2.114 1_554 S
O493 C465 1.208 . S
O493 Mg473 2.031 . S
C494 O479 1.264 . S
C494 O481 1.273 . S
C495 O476 1.191 . S
C495 O478 1.307 . S
C216 C30 1.312 1_556 S
C247 C41 1.312 1_545 S
C154 C72 1.312 . S
C123 C185 1.312 1_545 S
C464 C278 1.312 1_554 S
C475 C289 1.312 1_565 S
C320 C402 1.312 . S
C351 C433 1.312 1_565 S
C165 C61 1.312 . S
C196 C92 1.312 . S
C103 C227 1.312 1_556 S
C134 C10 1.312 . S
C309 C413 1.312 . S
C340 C444 1.312 . S
C495 C371 1.312 1_556 S
C258 C382 1.312 . S
C29 C2 0.891 . S
C33 C60 0.891 . S
C91 C64 0.891 . S
C95 C122 0.891 . S
C153 C126 0.891 . S
C157 C184 0.891 . S
C215 C188 0.891 . S
C246 C219 0.891 . S
C277 C250 0.891 . S
C281 C308 0.891 . S
C312 C339 0.891 . S
C343 C370 0.891 . S
C401 C374 0.891 . S
C432 C405 0.891 . S
C436 C463 0.891 . S
C467 C494 0.891 . S
C0 C280 3.646 1_554 S
C50 C485 3.646 1_655 S
C81 C342 3.646 . S
C93 C404 3.646 . S
C466 C124 3.646 . S
C155 C361 3.646 . S
C186 C423 3.646 1_556 S
C217 C299 3.646 1_655 S
C32 C248 3.646 1_554 S
C298 C218 3.646 1_455 S
C329 C113 3.646 . S
C360 C156 3.646 . S
C372 C237 3.646 . S
C94 C403 3.646 . S
C434 C175 3.646 1_554 S
C484 C51 3.646 1_455 S
C435 C174 3.646 . S
C311 C205 3.646 . S
C236 C373 3.646 1_554 S
C143 C268 3.646 1_455 S
C330 C112 3.646 1_554 S
C19 C392 3.646 1_455 S
C31 C249 3.646 . S
C454 C62 3.646 . S
C422 C187 3.646 . S
C63 C453 3.646 . S
C125 C465 3.646 1_554 S
C20 C391 3.646 1_455 S
C82 C341 3.646 1_556 S
C267 C144 3.646 1_655 S
C279 C1 3.646 . S
C310 C206 3.646 . S
