# Generated by pormake.
# Topology whd, (6)-cn, num edge types: 1
# Building blocks:
#     Node 0, Type 0, BuildingBlock: IZENUY_clean_sbu_0, # of connection points: 6
#     Node 1, Type 0, BuildingBlock: IZENUY_clean_sbu_0, # of connection points: 6
#     Node 2, Type 0, BuildingBlock: IZENUY_clean_sbu_0, # of connection points: 6
#     Node 3, Type 0, BuildingBlock: IZENUY_clean_sbu_0, # of connection points: 6
#     Node 4, Type 0, BuildingBlock: IZENUY_clean_sbu_0, # of connection points: 6
#     Node 5, Type 0, BuildingBlock: IZENUY_clean_sbu_0, # of connection points: 6
#     Node 6, Type 0, BuildingBlock: IZENUY_clean_sbu_0, # of connection points: 6
#     Node 7, Type 0, BuildingBlock: IZENUY_clean_sbu_0, # of connection points: 6
#     Node 8, Type 0, BuildingBlock: IZENUY_clean_sbu_0, # of connection points: 6
#     Node 9, Type 0, BuildingBlock: IZENUY_clean_sbu_0, # of connection points: 6
#     Node 10, Type 0, BuildingBlock: IZENUY_clean_sbu_0, # of connection points: 6
#     Node 11, Type 0, BuildingBlock: IZENUY_clean_sbu_0, # of connection points: 6
#     Node 12, Type 0, BuildingBlock: IZENUY_clean_sbu_0, # of connection points: 6
#     Node 13, Type 0, BuildingBlock: IZENUY_clean_sbu_0, # of connection points: 6
#     Node 14, Type 0, BuildingBlock: IZENUY_clean_sbu_0, # of connection points: 6
#     Node 15, Type 0, BuildingBlock: IZENUY_clean_sbu_0, # of connection points: 6
#     Edge 16, Type (0, 0), BuildingBlock: XUDNAN_clean_linker_2, # of connection points: 2
#     Edge 17, Type (0, 0), BuildingBlock: XUDNAN_clean_linker_2, # of connection points: 2
#     Edge 18, Type (0, 0), BuildingBlock: XUDNAN_clean_linker_2, # of connection points: 2
#     Edge 19, Type (0, 0), BuildingBlock: XUDNAN_clean_linker_2, # of connection points: 2
#     Edge 20, Type (0, 0), BuildingBlock: XUDNAN_clean_linker_2, # of connection points: 2
#     Edge 21, Type (0, 0), BuildingBlock: XUDNAN_clean_linker_2, # of connection points: 2
#     Edge 22, Type (0, 0), BuildingBlock: XUDNAN_clean_linker_2, # of connection points: 2
#     Edge 23, Type (0, 0), BuildingBlock: XUDNAN_clean_linker_2, # of connection points: 2
#     Edge 24, Type (0, 0), BuildingBlock: XUDNAN_clean_linker_2, # of connection points: 2
#     Edge 25, Type (0, 0), BuildingBlock: XUDNAN_clean_linker_2, # of connection points: 2
#     Edge 26, Type (0, 0), BuildingBlock: XUDNAN_clean_linker_2, # of connection points: 2
#     Edge 27, Type (0, 0), BuildingBlock: XUDNAN_clean_linker_2, # of connection points: 2
#     Edge 28, Type (0, 0), BuildingBlock: XUDNAN_clean_linker_2, # of connection points: 2
#     Edge 29, Type (0, 0), BuildingBlock: XUDNAN_clean_linker_2, # of connection points: 2
#     Edge 30, Type (0, 0), BuildingBlock: XUDNAN_clean_linker_2, # of connection points: 2
#     Edge 31, Type (0, 0), BuildingBlock: XUDNAN_clean_linker_2, # of connection points: 2
#     Edge 32, Type (0, 0), BuildingBlock: XUDNAN_clean_linker_2, # of connection points: 2
#     Edge 33, Type (0, 0), BuildingBlock: XUDNAN_clean_linker_2, # of connection points: 2
#     Edge 34, Type (0, 0), BuildingBlock: XUDNAN_clean_linker_2, # of connection points: 2
#     Edge 35, Type (0, 0), BuildingBlock: XUDNAN_clean_linker_2, # of connection points: 2
#     Edge 36, Type (0, 0), BuildingBlock: XUDNAN_clean_linker_2, # of connection points: 2
#     Edge 37, Type (0, 0), BuildingBlock: XUDNAN_clean_linker_2, # of connection points: 2
#     Edge 38, Type (0, 0), BuildingBlock: XUDNAN_clean_linker_2, # of connection points: 2
#     Edge 39, Type (0, 0), BuildingBlock: XUDNAN_clean_linker_2, # of connection points: 2
#     Edge 40, Type (0, 0), BuildingBlock: XUDNAN_clean_linker_2, # of connection points: 2
#     Edge 41, Type (0, 0), BuildingBlock: XUDNAN_clean_linker_2, # of connection points: 2
#     Edge 42, Type (0, 0), BuildingBlock: XUDNAN_clean_linker_2, # of connection points: 2
#     Edge 43, Type (0, 0), BuildingBlock: XUDNAN_clean_linker_2, # of connection points: 2
#     Edge 44, Type (0, 0), BuildingBlock: XUDNAN_clean_linker_2, # of connection points: 2
#     Edge 45, Type (0, 0), BuildingBlock: XUDNAN_clean_linker_2, # of connection points: 2
#     Edge 46, Type (0, 0), BuildingBlock: XUDNAN_clean_linker_2, # of connection points: 2
#     Edge 47, Type (0, 0), BuildingBlock: XUDNAN_clean_linker_2, # of connection points: 2
#     Edge 48, Type (0, 0), BuildingBlock: XUDNAN_clean_linker_2, # of connection points: 2
#     Edge 49, Type (0, 0), BuildingBlock: XUDNAN_clean_linker_2, # of connection points: 2
#     Edge 50, Type (0, 0), BuildingBlock: XUDNAN_clean_linker_2, # of connection points: 2
#     Edge 51, Type (0, 0), BuildingBlock: XUDNAN_clean_linker_2, # of connection points: 2
#     Edge 52, Type (0, 0), BuildingBlock: XUDNAN_clean_linker_2, # of connection points: 2
#     Edge 53, Type (0, 0), BuildingBlock: XUDNAN_clean_linker_2, # of connection points: 2
#     Edge 54, Type (0, 0), BuildingBlock: XUDNAN_clean_linker_2, # of connection points: 2
#     Edge 55, Type (0, 0), BuildingBlock: XUDNAN_clean_linker_2, # of connection points: 2
#     Edge 56, Type (0, 0), BuildingBlock: XUDNAN_clean_linker_2, # of connection points: 2
#     Edge 57, Type (0, 0), BuildingBlock: XUDNAN_clean_linker_2, # of connection points: 2
#     Edge 58, Type (0, 0), BuildingBlock: XUDNAN_clean_linker_2, # of connection points: 2
#     Edge 59, Type (0, 0), BuildingBlock: XUDNAN_clean_linker_2, # of connection points: 2
#     Edge 60, Type (0, 0), BuildingBlock: XUDNAN_clean_linker_2, # of connection points: 2
#     Edge 61, Type (0, 0), BuildingBlock: XUDNAN_clean_linker_2, # of connection points: 2
#     Edge 62, Type (0, 0), BuildingBlock: XUDNAN_clean_linker_2, # of connection points: 2
#     Edge 63, Type (0, 0), BuildingBlock: XUDNAN_clean_linker_2, # of connection points: 2
# Relax obj value: 0.274
# Max RMSD: 0.227
# Mean RMSD: 0.227
data_MOF--net-whd--node1-IZENUY_clean_sbu_0--edge1-XUDNAN_clean_linker_2
_symmetry_space_group_name_H-M    P1
_symmetry_Int_Tables_number       1
_symmetry_cell_setting            triclinic
loop_
_symmetry_equiv_pos_as_xyz
'x, y, z'
_cell_length_a     51.082525
_cell_length_b     51.323057
_cell_length_c     29.091266
_cell_angle_alpha  89.991492
_cell_angle_beta   90.017289
_cell_angle_gamma 90.003262
loop_
_atom_site_label
_atom_site_type_symbol
_atom_site_fract_x
_atom_site_fract_y
_atom_site_fract_z
_atom_type_partial_charge
Fe0 Fe 0.17461 0.36468 0.32292 0.0
Fe1 Fe 0.16346 0.41781 0.36682 0.0
O2 O 0.18311 0.39779 0.33144 0.0
Fe3 Fe 0.21115 0.41106 0.30424 0.0
O4 O 0.20904 0.39009 0.25289 0.0
O5 O 0.17165 0.36955 0.26164 0.0
O6 O 0.13894 0.37008 0.32604 0.0
C7 C 0.12559 0.3907 0.32068 0.0
C8 C 0.23025 0.36371 0.33077 0.0
O9 O 0.13506 0.41264 0.33084 0.0
C10 C 0.21144 0.43521 0.39244 0.0
O11 O 0.17681 0.35764 0.38375 0.0
O12 O 0.154 0.39162 0.40638 0.0
O13 O 0.23253 0.38818 0.33324 0.0
O14 O 0.20881 0.35337 0.31819 0.0
C15 C 0.17648 0.45094 0.29256 0.0
O16 O 0.19062 0.42412 0.40486 0.0
O17 O 0.21844 0.43468 0.35058 0.0
C18 C 0.1645 0.36977 0.41456 0.0
O19 O 0.16934 0.44789 0.33389 0.0
O20 O 0.19131 0.4346 0.27331 0.0
C21 C 0.18959 0.37809 0.2361 0.0
Fe22 Fe 0.36164 0.83739 0.67499 0.0
Fe23 Fe 0.40767 0.80014 0.69223 0.0
O24 O 0.39494 0.82885 0.66675 0.0
Fe25 Fe 0.4155 0.84914 0.63348 0.0
O26 O 0.40989 0.87657 0.67097 0.0
O27 O 0.36713 0.87294 0.67337 0.0
O28 O 0.36636 0.83949 0.73629 0.0
C29 C 0.37499 0.82135 0.76116 0.0
C30 C 0.36754 0.84876 0.58409 0.0
O31 O 0.38645 0.80183 0.74355 0.0
C32 C 0.43251 0.80158 0.60464 0.0
O33 O 0.34987 0.80337 0.67837 0.0
O34 O 0.38455 0.77989 0.66157 0.0
O35 O 0.38948 0.85912 0.59331 0.0
O36 O 0.3551 0.83604 0.61403 0.0
C37 C 0.44816 0.83388 0.70795 0.0
O38 O 0.43147 0.7934 0.64576 0.0
O39 O 0.4224 0.82308 0.59387 0.0
C40 C 0.36003 0.78214 0.66476 0.0
O41 O 0.4315 0.81849 0.72474 0.0
O42 O 0.44537 0.84279 0.66755 0.0
C43 C 0.38781 0.88601 0.68043 0.0
Fe44 Fe 0.79904 0.59974 0.30325 0.0
Fe45 Fe 0.83111 0.64837 0.32666 0.0
O46 O 0.82569 0.6145 0.33215 0.0
Fe47 Fe 0.84714 0.59561 0.36644 0.0
O48 O 0.84429 0.56584 0.33142 0.0
O49 O 0.82072 0.57808 0.27196 0.0
O50 O 0.80062 0.62168 0.25325 0.0
C51 C 0.81947 0.63535 0.23824 0.0
C52 C 0.80037 0.57366 0.38975 0.0
O53 O 0.836 0.6452 0.26535 0.0
C54 C 0.84014 0.64196 0.41799 0.0
O55 O 0.77533 0.62045 0.33236 0.0
O56 O 0.79647 0.65693 0.31938 0.0
O57 O 0.82055 0.58552 0.40343 0.0
O58 O 0.79314 0.57505 0.34809 0.0
C59 C 0.88245 0.6278 0.32546 0.0
O60 O 0.82652 0.65312 0.38766 0.0
O61 O 0.85355 0.62188 0.40827 0.0
C62 C 0.77581 0.64504 0.33106 0.0
O63 O 0.86678 0.64638 0.33312 0.0
O64 O 0.87531 0.60452 0.33131 0.0
C65 C 0.83655 0.56243 0.2905 0.0
Fe66 Fe 0.60126 0.20704 0.69142 0.0
Fe67 Fe 0.59481 0.16024 0.62691 0.0
O68 O 0.61478 0.17953 0.66319 0.0
Fe69 Fe 0.64818 0.17148 0.67165 0.0
O70 O 0.6432 0.16769 0.73278 0.0
O71 O 0.62249 0.20469 0.74241 0.0
O72 O 0.57805 0.18675 0.72189 0.0
C73 C 0.56174 0.17191 0.70257 0.0
C74 C 0.64844 0.22684 0.66516 0.0
O75 O 0.5647 0.16495 0.66106 0.0
C76 C 0.64332 0.16254 0.57948 0.0
O77 O 0.57716 0.21458 0.64605 0.0
O78 O 0.58772 0.18783 0.59046 0.0
O79 O 0.65902 0.2056 0.67777 0.0
O80 O 0.62385 0.22882 0.66261 0.0
C81 C 0.62296 0.12224 0.67066 0.0
O82 O 0.62115 0.15222 0.58643 0.0
O83 O 0.65541 0.17434 0.61099 0.0
C84 C 0.57649 0.20825 0.60399 0.0
O85 O 0.60068 0.13109 0.66056 0.0
O86 O 0.64334 0.1361 0.667 0.0
C87 C 0.6344 0.18517 0.75885 0.0
Fe88 Fe 0.17041 0.64532 0.67686 0.0
Fe89 Fe 0.15609 0.59392 0.62966 0.0
O90 O 0.17717 0.6119 0.66615 0.0
Fe91 Fe 0.20447 0.5961 0.69188 0.0
O92 O 0.19326 0.60404 0.74919 0.0
O93 O 0.18176 0.64483 0.73664 0.0
O94 O 0.1381 0.63799 0.69936 0.0
C95 C 0.12078 0.6255 0.67794 0.0
C96 C 0.22403 0.6466 0.66882 0.0
O97 O 0.12652 0.61259 0.64251 0.0
C98 C 0.20572 0.57273 0.60813 0.0
O99 O 0.15773 0.65149 0.61859 0.0
O100 O 0.164 0.61465 0.5812 0.0
O101 O 0.22582 0.62494 0.6896 0.0
O102 O 0.20219 0.65543 0.65589 0.0
C103 C 0.16315 0.55922 0.69939 0.0
O104 O 0.18111 0.57117 0.60981 0.0
O105 O 0.21805 0.58668 0.63637 0.0
C106 C 0.16042 0.63901 0.58117 0.0
O107 O 0.14712 0.57259 0.67637 0.0
O108 O 0.18748 0.56446 0.69906 0.0
C109 C 0.18635 0.62611 0.76378 0.0
Fe110 Fe 0.59015 0.8512 0.36526 0.0
Fe111 Fe 0.64391 0.83413 0.33021 0.0
O112 O 0.60946 0.82977 0.33215 0.0
Fe113 Fe 0.59415 0.80438 0.30105 0.0
O114 O 0.5639 0.82305 0.2891 0.0
O115 O 0.57278 0.86239 0.31485 0.0
O116 O 0.61182 0.87937 0.35843 0.0
C117 C 0.62735 0.88475 0.32596 0.0
C118 C 0.56534 0.80269 0.37946 0.0
O119 O 0.64046 0.86694 0.307 0.0
C120 C 0.64116 0.78096 0.33451 0.0
O121 O 0.60654 0.84073 0.41699 0.0
O122 O 0.64644 0.84605 0.38981 0.0
O123 O 0.58037 0.79014 0.35318 0.0
O124 O 0.56465 0.82729 0.37834 0.0
C125 C 0.63059 0.82135 0.23897 0.0
O126 O 0.64978 0.80165 0.35245 0.0
O127 O 0.62168 0.7814 0.30738 0.0
C128 C 0.63092 0.84206 0.42304 0.0
O129 O 0.64732 0.82275 0.2709 0.0
O130 O 0.60675 0.81705 0.24726 0.0
C131 C 0.55965 0.84746 0.28928 0.0
Fe132 Fe 0.83766 0.36579 0.67797 0.0
Fe133 Fe 0.84909 0.41896 0.63431 0.0
O134 O 0.82925 0.39892 0.66941 0.0
Fe135 Fe 0.80107 0.41203 0.69629 0.0
O136 O 0.80331 0.39117 0.74771 0.0
O137 O 0.84079 0.37077 0.73914 0.0
O138 O 0.87322 0.37093 0.67409 0.0
C139 C 0.8868 0.39131 0.67991 0.0
C140 C 0.78225 0.36458 0.66984 0.0
O141 O 0.87749 0.41347 0.6706 0.0
C142 C 0.8008 0.43569 0.60823 0.0
O143 O 0.83524 0.35879 0.61729 0.0
O144 O 0.85833 0.39268 0.59463 0.0
O145 O 0.77986 0.38901 0.66701 0.0
O146 O 0.80358 0.35451 0.68335 0.0
C147 C 0.83516 0.45239 0.70823 0.0
O148 O 0.82207 0.42554 0.59587 0.0
O149 O 0.79389 0.43554 0.65002 0.0
C150 C 0.84767 0.37086 0.58656 0.0
O151 O 0.8432 0.44912 0.66741 0.0
O152 O 0.82055 0.43576 0.72722 0.0
C153 C 0.82286 0.37937 0.76467 0.0
Fe154 Fe 0.41517 0.20772 0.30397 0.0
Fe155 Fe 0.41786 0.1585 0.36373 0.0
O156 O 0.39955 0.18013 0.32865 0.0
Fe157 Fe 0.36587 0.17379 0.31856 0.0
O158 O 0.36592 0.18602 0.25946 0.0
O159 O 0.4068 0.19754 0.24625 0.0
O160 O 0.44673 0.19097 0.29535 0.0
C161 C 0.45228 0.16688 0.29383 0.0
C162 C 0.36483 0.22705 0.32908 0.0
O163 O 0.43929 0.15022 0.31622 0.0
C164 C 0.37293 0.16231 0.41359 0.0
O165 O 0.42496 0.22027 0.36001 0.0
O166 O 0.44091 0.18309 0.3842 0.0
O167 O 0.35598 0.20518 0.34133 0.0
O168 O 0.38636 0.22898 0.30775 0.0
C169 C 0.38431 0.124 0.31606 0.0
O170 O 0.39742 0.16577 0.41308 0.0
O171 O 0.36004 0.16033 0.37639 0.0
C172 C 0.43915 0.20754 0.38735 0.0
O173 O 0.39855 0.12937 0.35025 0.0
O174 O 0.37285 0.14187 0.29433 0.0
C175 C 0.38444 0.19102 0.23202 0.0
Fe176 Fe 0.67267 0.86243 0.83173 0.0
Fe177 Fe 0.65596 0.91614 0.86464 0.0
O178 O 0.6769 0.89657 0.83068 0.0
Fe179 Fe 0.70169 0.91093 0.79636 0.0
O180 O 0.69813 0.88712 0.74889 0.0
O181 O 0.66558 0.86181 0.77149 0.0
O182 O 0.63711 0.86375 0.84156 0.0
C183 C 0.62082 0.88136 0.83095 0.0
C184 C 0.72778 0.86749 0.8271 0.0
O185 O 0.62724 0.90508 0.83294 0.0
C186 C 0.70326 0.93919 0.88096 0.0
O187 O 0.67985 0.86128 0.89236 0.0
O188 O 0.65133 0.89152 0.91013 0.0
O189 O 0.72753 0.89199 0.82378 0.0
O190 O 0.70704 0.85448 0.82159 0.0
C191 C 0.66284 0.94698 0.78473 0.0
O192 O 0.68338 0.92799 0.89746 0.0
O193 O 0.709 0.93711 0.8385 0.0
C194 C 0.66639 0.87307 0.92194 0.0
O195 O 0.65697 0.94473 0.82672 0.0
O196 O 0.6781 0.93099 0.7658 0.0
C197 C 0.68021 0.87059 0.74029 0.0
Fe198 Fe 0.91461 0.35262 0.13501 0.0
Fe199 Fe 0.86358 0.33564 0.18103 0.0
O200 O 0.89752 0.33087 0.17143 0.0
Fe201 Fe 0.91471 0.3048 0.19793 0.0
O202 O 0.94548 0.32356 0.20501 0.0
O203 O 0.93505 0.36321 0.1822 0.0
O204 O 0.89363 0.38091 0.1459 0.0
C205 C 0.87949 0.38639 0.1801 0.0
C206 C 0.93862 0.3044 0.11468 0.0
O207 O 0.86881 0.36851 0.20297 0.0
C208 C 0.86529 0.28215 0.17475 0.0
O209 O 0.89489 0.34295 0.08632 0.0
O210 O 0.8571 0.34726 0.1221 0.0
O211 O 0.92501 0.29154 0.14271 0.0
O212 O 0.93919 0.32895 0.11652 0.0
C213 C 0.88318 0.32137 0.26854 0.0
O214 O 0.85548 0.30323 0.16057 0.0
O215 O 0.88698 0.2819 0.19604 0.0
C216 C 0.87025 0.34489 0.08524 0.0
O217 O 0.86436 0.32487 0.24098 0.0
O218 O 0.90587 0.31582 0.25483 0.0
C219 C 0.94958 0.34803 0.20497 0.0
Fe220 Fe 0.35171 0.09669 0.867 0.0
Fe221 Fe 0.3036 0.09632 0.80408 0.0
O222 O 0.33009 0.11341 0.82972 0.0
Fe223 Fe 0.33554 0.14692 0.81827 0.0
O224 O 0.36833 0.14068 0.79634 0.0
O225 O 0.38048 0.11689 0.85481 0.0
O226 O 0.36196 0.07544 0.82087 0.0
C227 C 0.34653 0.06098 0.79847 0.0
C228 C 0.34517 0.14174 0.91443 0.0
O229 O 0.32202 0.0654 0.79809 0.0
C230 C 0.28183 0.14622 0.82525 0.0
O231 O 0.32764 0.07286 0.88677 0.0
O232 O 0.2902 0.08684 0.85974 0.0
O233 O 0.34761 0.15409 0.87677 0.0
O234 O 0.34239 0.11728 0.91476 0.0
C235 C 0.32074 0.12644 0.73167 0.0
O236 O 0.281 0.12428 0.80519 0.0
O237 O 0.30325 0.15591 0.83848 0.0
C238 C 0.30298 0.0735 0.88832 0.0
O239 O 0.31468 0.10421 0.74667 0.0
O240 O 0.32454 0.1455 0.75841 0.0
C241 C 0.38615 0.13016 0.81968 0.0
Fe242 Fe 0.09447 0.70869 0.1916 0.0
Fe243 Fe 0.08987 0.65884 0.13373 0.0
O244 O 0.10913 0.68036 0.16758 0.0
Fe245 Fe 0.14273 0.67327 0.17732 0.0
O246 O 0.14317 0.68589 0.23617 0.0
O247 O 0.10263 0.6986 0.24944 0.0
O248 O 0.06255 0.69321 0.20065 0.0
C249 C 0.05609 0.66943 0.20415 0.0
C250 C 0.14512 0.72643 0.1656 0.0
O251 O 0.06807 0.65197 0.18184 0.0
C252 C 0.13477 0.66084 0.08287 0.0
O253 O 0.08493 0.7211 0.13537 0.0
O254 O 0.06808 0.68409 0.11186 0.0
O255 O 0.15337 0.70428 0.15366 0.0
O256 O 0.12383 0.729 0.18733 0.0
C257 C 0.12303 0.62389 0.18171 0.0
O258 O 0.11034 0.66454 0.08382 0.0
O259 O 0.14797 0.65923 0.11978 0.0
C260 C 0.07135 0.70832 0.10709 0.0
O261 O 0.10814 0.62925 0.14838 0.0
O262 O 0.13521 0.64168 0.20239 0.0
C263 C 0.1248 0.69143 0.26362 0.0
Fe264 Fe 0.66227 0.09216 0.12984 0.0
Fe265 Fe 0.71104 0.09376 0.1909 0.0
O266 O 0.68397 0.10999 0.16537 0.0
Fe267 Fe 0.67812 0.14359 0.17517 0.0
O268 O 0.64541 0.13738 0.19779 0.0
O269 O 0.63324 0.11192 0.14163 0.0
O270 O 0.65301 0.07154 0.17765 0.0
C271 C 0.66914 0.05772 0.19971 0.0
C272 C 0.66811 0.1365 0.07955 0.0
O273 O 0.69356 0.0624 0.19804 0.0
C274 C 0.73189 0.14382 0.16824 0.0
O275 O 0.68676 0.06869 0.11041 0.0
O276 O 0.72414 0.08428 0.13494 0.0
O277 O 0.66591 0.14965 0.11641 0.0
O278 O 0.67057 0.11202 0.08067 0.0
C279 C 0.69367 0.12436 0.26239 0.0
O280 O 0.73296 0.12214 0.18901 0.0
O281 O 0.71033 0.15284 0.15424 0.0
C282 C 0.71128 0.0707 0.1068 0.0
O283 O 0.70015 0.10202 0.24834 0.0
O284 O 0.68929 0.14301 0.23497 0.0
C285 C 0.6276 0.12594 0.17578 0.0
Fe286 Fe 0.14593 0.33629 0.82222 0.0
Fe287 Fe 0.09706 0.30227 0.8051 0.0
O288 O 0.1125 0.32908 0.83281 0.0
Fe289 Fe 0.09436 0.34885 0.87095 0.0
O290 O 0.09995 0.37745 0.83636 0.0
O291 O 0.14228 0.37194 0.82764 0.0
O292 O 0.13962 0.34058 0.76154 0.0
C293 C 0.12941 0.32373 0.7357 0.0
C294 C 0.14345 0.3446 0.9149 0.0
O295 O 0.11672 0.30469 0.75219 0.0
C296 C 0.07529 0.30137 0.89525 0.0
O297 O 0.15557 0.30197 0.81465 0.0
O298 O 0.12002 0.27938 0.83052 0.0
O299 O 0.12194 0.35624 0.90874 0.0
O300 O 0.15451 0.33262 0.88245 0.0
C301 C 0.05882 0.33953 0.79872 0.0
O302 O 0.07448 0.29508 0.85308 0.0
O303 O 0.08757 0.32141 0.90786 0.0
C304 C 0.14462 0.28081 0.82654 0.0
O305 O 0.07312 0.32348 0.77749 0.0
O306 O 0.06332 0.34534 0.84018 0.0
C307 C 0.12203 0.38613 0.82477 0.0
Fe308 Fe 0.29833 0.91096 0.19221 0.0
Fe309 Fe 0.33497 0.86458 0.17488 0.0
O310 O 0.32637 0.89757 0.16527 0.0
Fe311 Fe 0.34587 0.91729 0.12917 0.0
O312 O 0.34017 0.94764 0.16159 0.0
O313 O 0.3181 0.93477 0.22239 0.0
O314 O 0.30073 0.89044 0.2441 0.0
C315 C 0.32056 0.87925 0.26133 0.0
C316 C 0.29789 0.93466 0.10353 0.0
O317 O 0.33836 0.8703 0.23593 0.0
C318 C 0.34447 0.86873 0.08293 0.0
O319 O 0.27706 0.88774 0.16379 0.0
O320 O 0.30082 0.85326 0.18068 0.0
O321 O 0.31861 0.92336 0.09127 0.0
O322 O 0.29086 0.93426 0.14538 0.0
C323 C 0.38398 0.89055 0.17518 0.0
O324 O 0.33238 0.85688 0.11438 0.0
O325 O 0.35502 0.89069 0.09018 0.0
C326 C 0.27944 0.86331 0.16712 0.0
O327 O 0.37056 0.86993 0.17073 0.0
O328 O 0.37444 0.91242 0.16482 0.0
C329 C 0.33301 0.95093 0.20287 0.0
Fe330 Fe 0.91125 0.70906 0.80234 0.0
Fe331 Fe 0.9112 0.661 0.86471 0.0
O332 O 0.89402 0.68363 0.83032 0.0
Fe333 Fe 0.85974 0.68038 0.82353 0.0
O334 O 0.85901 0.69285 0.7646 0.0
O335 O 0.90053 0.69757 0.74632 0.0
O336 O 0.94124 0.68979 0.79327 0.0
C337 C 0.9449 0.66534 0.79277 0.0
C338 C 0.86373 0.73333 0.83108 0.0
O339 O 0.93048 0.65029 0.81593 0.0
C340 C 0.86819 0.66915 0.91786 0.0
O341 O 0.92356 0.72207 0.85664 0.0
O342 O 0.9366 0.68398 0.88237 0.0
O343 O 0.854 0.71258 0.8469 0.0
O344 O 0.8842 0.73277 0.80634 0.0
C345 C 0.87395 0.62917 0.82015 0.0
O346 O 0.89283 0.67051 0.91529 0.0
O347 O 0.85433 0.66758 0.88178 0.0
C348 C 0.93734 0.7086 0.88372 0.0
O349 O 0.88911 0.63359 0.85357 0.0
O350 O 0.86309 0.64775 0.79915 0.0
C351 C 0.87698 0.69415 0.73488 0.0
H352 H 0.168 0.4996 0.3285 0.0
H353 H 0.16766 0.45605 0.20069 0.0
H354 H 0.15306 0.49549 0.15906 0.0
H355 H 0.11204 0.53973 0.30635 0.0
H356 H 0.12581 0.56872 0.33156 0.0
H357 H 0.13581 0.53711 0.35194 0.0
H358 H 0.1842 0.54849 0.33577 0.0
H359 H 0.17469 0.58023 0.31533 0.0
H360 H 0.19375 0.55903 0.27908 0.0
H361 H 0.1364 0.53864 0.13229 0.0
H362 H 0.12342 0.58435 0.11971 0.0
H363 H 0.13795 0.60133 0.26366 0.0
C364 C 0.16479 0.49842 0.29176 0.0
C365 C 0.16873 0.47479 0.2677 0.0
C366 C 0.16477 0.474 0.2196 0.0
C367 C 0.15638 0.49624 0.19578 0.0
C368 C 0.15253 0.5192 0.2205 0.0
C369 C 0.157 0.52061 0.26727 0.0
C370 C 0.1524 0.548 0.28518 0.0
C371 C 0.1302 0.5484 0.32087 0.0
C372 C 0.17777 0.55962 0.30501 0.0
C373 C 0.14436 0.5617 0.24121 0.0
C374 C 0.14426 0.54458 0.2045 0.0
C375 C 0.13661 0.55229 0.16064 0.0
C376 C 0.12913 0.57826 0.15393 0.0
C377 C 0.12974 0.59635 0.19069 0.0
C378 C 0.1375 0.58793 0.2349 0.0
H379 H 0.48714 0.8698 0.68896 0.0
H380 H 0.46393 0.81056 0.78762 0.0
H381 H 0.5043 0.81833 0.83149 0.0
H382 H 0.55528 0.85504 0.68857 0.0
H383 H 0.56594 0.88845 0.68481 0.0
H384 H 0.53465 0.87909 0.66155 0.0
H385 H 0.51188 0.91405 0.7118 0.0
H386 H 0.54313 0.92349 0.73528 0.0
H387 H 0.51691 0.91391 0.77314 0.0
H388 H 0.54823 0.82961 0.86157 0.0
H389 H 0.59286 0.8455 0.8782 0.0
H390 H 0.58752 0.89941 0.76377 0.0
C391 C 0.4905 0.85856 0.71991 0.0
C392 C 0.4723 0.83948 0.73464 0.0
C393 C 0.47745 0.82528 0.77548 0.0
C394 C 0.50037 0.82955 0.80076 0.0
C395 C 0.51792 0.84831 0.78521 0.0
C396 C 0.51325 0.86278 0.74599 0.0
C397 C 0.53569 0.8815 0.73676 0.0
C398 C 0.54865 0.87566 0.69016 0.0
C399 C 0.52634 0.90993 0.73942 0.0
C400 C 0.55382 0.87491 0.77648 0.0
C401 C 0.54311 0.85564 0.80385 0.0
C402 C 0.55668 0.84498 0.84086 0.0
C403 C 0.582 0.85407 0.84999 0.0
C404 C 0.59335 0.87386 0.82265 0.0
C405 C 0.57896 0.88467 0.78579 0.0
H406 H 0.86963 0.41049 0.26307 0.0
H407 H 0.8744 0.42451 0.11618 0.0
H408 H 0.86387 0.47085 0.12866 0.0
H409 H 0.81682 0.45508 0.288 0.0
H410 H 0.83069 0.46632 0.34142 0.0
H411 H 0.83769 0.43389 0.32122 0.0
H412 H 0.88741 0.4434 0.3255 0.0
H413 H 0.88054 0.47579 0.34603 0.0
H414 H 0.90056 0.47125 0.29564 0.0
H415 H 0.85167 0.51519 0.15615 0.0
H416 H 0.84113 0.55579 0.19794 0.0
H417 H 0.84736 0.51439 0.32758 0.0
C418 C 0.86824 0.42335 0.23363 0.0
C419 C 0.87265 0.41394 0.18862 0.0
C420 C 0.87113 0.43136 0.15093 0.0
C421 C 0.86509 0.45769 0.15764 0.0
C422 C 0.86104 0.46645 0.20234 0.0
C423 C 0.86278 0.44994 0.2398 0.0
C424 C 0.8586 0.46477 0.28434 0.0
C425 C 0.83451 0.4544 0.31025 0.0
C426 C 0.88325 0.46374 0.31466 0.0
C427 C 0.85393 0.49205 0.26587 0.0
C428 C 0.85524 0.49248 0.21845 0.0
C429 C 0.8508 0.51519 0.19332 0.0
C430 C 0.8448 0.53812 0.21728 0.0
C431 C 0.84371 0.53827 0.26588 0.0
C432 C 0.8485 0.51493 0.29041 0.0
H433 H 0.40884 0.14288 0.73662 0.0
H434 H 0.42627 0.13039 0.88105 0.0
H435 H 0.47282 0.13975 0.86643 0.0
H436 H 0.46766 0.11216 0.69376 0.0
H437 H 0.47164 0.13471 0.64675 0.0
H438 H 0.43944 0.12781 0.66886 0.0
H439 H 0.432 0.17741 0.68317 0.0
H440 H 0.46416 0.18395 0.66057 0.0
H441 H 0.4554 0.19522 0.7172 0.0
H442 H 0.51697 0.15188 0.83746 0.0
H443 H 0.55704 0.16322 0.7943 0.0
H444 H 0.51228 0.16483 0.66752 0.0
C445 C 0.42249 0.14227 0.76511 0.0
C446 C 0.41395 0.13602 0.81002 0.0
C447 C 0.43239 0.13505 0.84636 0.0
C448 C 0.45887 0.14042 0.83846 0.0
C449 C 0.46671 0.14638 0.79389 0.0
C450 C 0.44919 0.14712 0.75768 0.0
C451 C 0.46309 0.15325 0.71287 0.0
C452 C 0.46029 0.13063 0.67854 0.0
C453 C 0.45307 0.17898 0.69224 0.0
C454 C 0.49109 0.15588 0.72972 0.0
C455 C 0.49262 0.15214 0.77668 0.0
C456 C 0.51611 0.15462 0.8006 0.0
C457 C 0.53872 0.16111 0.77588 0.0
C458 C 0.53774 0.16462 0.72767 0.0
C459 C 0.51362 0.16182 0.7043 0.0
H460 H 0.18963 0.5136 0.71802 0.0
H461 H 0.1142 0.55166 0.73294 0.0
H462 H 0.09622 0.51196 0.76866 0.0
H463 H 0.1637 0.45134 0.68718 0.0
H464 H 0.18814 0.43276 0.71756 0.0
H465 H 0.19598 0.46466 0.69581 0.0
H466 H 0.21011 0.47955 0.77704 0.0
H467 H 0.20255 0.44765 0.79926 0.0
H468 H 0.18762 0.4761 0.82442 0.0
H469 H 0.08589 0.46843 0.80042 0.0
H470 H 0.08344 0.42291 0.82625 0.0
H471 H 0.16519 0.41184 0.78974 0.0
C472 C 0.16946 0.51365 0.72949 0.0
C473 C 0.15332 0.53573 0.72307 0.0
C474 C 0.12687 0.53493 0.73756 0.0
C475 C 0.11649 0.51251 0.75795 0.0
C476 C 0.13276 0.49097 0.7633 0.0
C477 C 0.15863 0.49123 0.74946 0.0
C478 C 0.1714 0.46491 0.75747 0.0
C479 C 0.18031 0.45269 0.71178 0.0
C480 C 0.19427 0.4672 0.79159 0.0
C481 C 0.14866 0.44995 0.77818 0.0
C482 C 0.12662 0.46545 0.78121 0.0
C483 C 0.10303 0.45608 0.79841 0.0
C484 C 0.10185 0.43013 0.81293 0.0
C485 C 0.12413 0.41372 0.81019 0.0
C486 C 0.14787 0.42389 0.79262 0.0
H487 H 0.51432 0.82169 0.26718 0.0
H488 H 0.55174 0.89754 0.2613 0.0
H489 H 0.51114 0.91656 0.22959 0.0
H490 H 0.475 0.82785 0.16308 0.0
H491 H 0.44717 0.81143 0.18782 0.0
H492 H 0.47975 0.8035 0.20698 0.0
H493 H 0.46619 0.81365 0.29088 0.0
H494 H 0.43363 0.82188 0.27209 0.0
H495 H 0.45255 0.84509 0.30461 0.0
H496 H 0.46611 0.9277 0.20197 0.0
H497 H 0.41977 0.93024 0.17886 0.0
H498 H 0.41121 0.84722 0.20401 0.0
C499 C 0.51413 0.84218 0.2583 0.0
C500 C 0.53624 0.85813 0.2662 0.0
C501 C 0.53503 0.88499 0.2553 0.0
C502 C 0.51208 0.89596 0.23732 0.0
C503 C 0.49046 0.87982 0.23076 0.0
C504 C 0.49126 0.85352 0.24085 0.0
C505 C 0.4649 0.84079 0.2327 0.0
C506 C 0.46683 0.81964 0.19541 0.0
C507 C 0.45366 0.82971 0.27774 0.0
C508 C 0.44921 0.86402 0.21614 0.0
C509 C 0.46434 0.88633 0.21535 0.0
C510 C 0.4541 0.91033 0.20216 0.0
C511 C 0.42771 0.91156 0.18915 0.0
C512 C 0.41181 0.88891 0.18931 0.0
C513 C 0.42283 0.86486 0.20314 0.0
H514 H 0.86413 0.60552 0.73652 0.0
H515 H 0.86701 0.59125 0.88347 0.0
H516 H 0.85664 0.54496 0.8704 0.0
H517 H 0.81131 0.55969 0.71006 0.0
H518 H 0.8259 0.54902 0.65696 0.0
H519 H 0.83183 0.58156 0.67757 0.0
H520 H 0.88172 0.57329 0.67387 0.0
H521 H 0.87592 0.54068 0.65338 0.0
H522 H 0.89549 0.54586 0.70415 0.0
H523 H 0.84621 0.5006 0.84252 0.0
H524 H 0.83796 0.45961 0.80063 0.0
H525 H 0.84442 0.50096 0.67092 0.0
C526 C 0.86219 0.59264 0.76581 0.0
C527 C 0.86617 0.60193 0.81104 0.0
C528 C 0.86404 0.58448 0.84857 0.0
C529 C 0.8581 0.55818 0.84152 0.0
C530 C 0.85467 0.54947 0.79665 0.0
C531 C 0.85675 0.56604 0.75931 0.0
C532 C 0.85331 0.55113 0.7146 0.0
C533 C 0.82914 0.56094 0.68827 0.0
C534 C 0.8781 0.55285 0.68476 0.0
C535 C 0.84913 0.52368 0.73282 0.0
C536 C 0.8497 0.52334 0.78029 0.0
C537 C 0.8458 0.50053 0.80533 0.0
C538 C 0.84112 0.47737 0.78127 0.0
C539 C 0.84075 0.47706 0.73264 0.0
C540 C 0.84494 0.50055 0.70813 0.0
H541 H 0.60519 0.14 0.2586 0.0
H542 H 0.58688 0.12314 0.11591 0.0
H543 H 0.54016 0.1311 0.13123 0.0
H544 H 0.5457 0.10849 0.3049 0.0
H545 H 0.54295 0.13198 0.35073 0.0
H546 H 0.57459 0.12395 0.32733 0.0
H547 H 0.5819 0.17358 0.31187 0.0
H548 H 0.54968 0.18073 0.33342 0.0
H549 H 0.55876 0.19092 0.27634 0.0
H550 H 0.49564 0.1416 0.16081 0.0
H551 H 0.45563 0.15357 0.20418 0.0
H552 H 0.50183 0.16249 0.32812 0.0
C553 C 0.59131 0.13812 0.23064 0.0
C554 C 0.59969 0.1311 0.18598 0.0
C555 C 0.58092 0.12844 0.15039 0.0
C556 C 0.55432 0.13294 0.15871 0.0
C557 C 0.54665 0.13974 0.20299 0.0
C558 C 0.56448 0.1421 0.23853 0.0
C559 C 0.55078 0.1491 0.28314 0.0
C560 C 0.55368 0.12708 0.31864 0.0
C561 C 0.56089 0.17515 0.30228 0.0
C562 C 0.52267 0.15121 0.26662 0.0
C563 C 0.52074 0.14545 0.22033 0.0
C564 C 0.49685 0.14603 0.19712 0.0
C565 C 0.47429 0.15276 0.22186 0.0
C566 C 0.47589 0.15868 0.26914 0.0
C567 C 0.50029 0.15785 0.29189 0.0
H568 H 0.65514 0.9958 0.81958 0.0
H569 H 0.65277 0.95146 0.69272 0.0
H570 H 0.64 0.99134 0.65026 0.0
H571 H 0.60119 0.03962 0.79542 0.0
H572 H 0.617 0.06754 0.82072 0.0
H573 H 0.62421 0.03532 0.8418 0.0
H574 H 0.67357 0.04278 0.82706 0.0
H575 H 0.66669 0.07508 0.80619 0.0
H576 H 0.68444 0.05241 0.7706 0.0
H577 H 0.62728 0.03606 0.62193 0.0
H578 H 0.61947 0.08316 0.60852 0.0
H579 H 0.63352 0.09881 0.75274 0.0
C580 C 0.65157 0.99444 0.78295 0.0
C581 C 0.65454 0.97053 0.75939 0.0
C582 C 0.65043 0.9696 0.71132 0.0
C583 C 0.64311 0.9921 0.68703 0.0
C584 C 0.64043 0.01542 0.71126 0.0
C585 C 0.64484 0.01681 0.75808 0.0
C586 C 0.6423 0.04455 0.77549 0.0
C587 C 0.61984 0.04688 0.81042 0.0
C588 C 0.6683 0.05427 0.79603 0.0
C589 C 0.63582 0.05858 0.73112 0.0
C590 C 0.63442 0.04136 0.6946 0.0
C591 C 0.62838 0.0497 0.65022 0.0
C592 C 0.62391 0.07637 0.64292 0.0
C593 C 0.6259 0.09426 0.67965 0.0
C594 C 0.63189 0.08531 0.72424 0.0
H595 H 0.09818 0.34718 0.29255 0.0
H596 H 0.09029 0.43062 0.31366 0.0
H597 H 0.04433 0.42832 0.28845 0.0
H598 H 0.05812 0.34403 0.19019 0.0
H599 H 0.04402 0.31295 0.20501 0.0
H600 H 0.07638 0.32123 0.22477 0.0
H601 H 0.06166 0.31227 0.30871 0.0
H602 H 0.02922 0.30433 0.2889 0.0
H603 H 0.03373 0.32937 0.33162 0.0
H604 H 0.99953 0.41741 0.26014 0.0
H605 H 0.9587 0.3985 0.22946 0.0
H606 H 0.99505 0.32203 0.22721 0.0
C607 C 0.08678 0.36496 0.29204 0.0
C608 C 0.09791 0.38907 0.30539 0.0
C609 C 0.08229 0.4119 0.3038 0.0
C610 C 0.05611 0.41081 0.28952 0.0
C611 C 0.04576 0.38678 0.27681 0.0
C612 C 0.06057 0.36426 0.27775 0.0
C613 C 0.04467 0.34101 0.26168 0.0
C614 C 0.05651 0.32912 0.2178 0.0
C615 C 0.04217 0.32054 0.30002 0.0
C616 C 0.01859 0.35399 0.25185 0.0
C617 C 0.01972 0.38042 0.2607 0.0
C618 C 0.99836 0.39673 0.25321 0.0
C619 C 0.97526 0.3858 0.23576 0.0
C620 C 0.97362 0.35878 0.22619 0.0
C621 C 0.99557 0.34268 0.23479 0.0
H622 H 0.34401 0.91368 0.7074 0.0
H623 H 0.42829 0.92031 0.69068 0.0
H624 H 0.4264 0.96576 0.71718 0.0
H625 H 0.32795 0.97856 0.66951 0.0
H626 H 0.30223 0.98317 0.71112 0.0
H627 H 0.30987 0.9509 0.69078 0.0
H628 H 0.3173 0.93529 0.77471 0.0
H629 H 0.30923 0.96747 0.79489 0.0
H630 H 0.33995 0.95275 0.81091 0.0
H631 H 0.41592 0.01014 0.74577 0.0
H632 H 0.39734 0.05094 0.77626 0.0
H633 H 0.31975 0.01634 0.77448 0.0
C634 C 0.36205 0.92471 0.70919 0.0
C635 C 0.38628 0.91336 0.69665 0.0
C636 C 0.40946 0.92847 0.69988 0.0
C637 C 0.40862 0.95436 0.7149 0.0
C638 C 0.38448 0.96495 0.72675 0.0
C639 C 0.36161 0.95066 0.72428 0.0
C640 C 0.33832 0.9668 0.73968 0.0
C641 C 0.31842 0.97005 0.70042 0.0
C642 C 0.32546 0.95486 0.78261 0.0
C643 C 0.35173 0.9924 0.75087 0.0
C644 C 0.37837 0.99081 0.74322 0.0
C645 C 0.39508 0.01167 0.75184 0.0
C646 C 0.38433 0.03476 0.76918 0.0
C647 C 0.3571 0.03688 0.7776 0.0
C648 C 0.34059 0.01543 0.7679 0.0
H649 H 0.01955 0.63003 0.19171 0.0
H650 H 0.04001 0.69513 0.27997 0.0
H651 H 0.99954 0.68859 0.32425 0.0
H652 H 0.95222 0.64476 0.18505 0.0
H653 H 0.9409 0.61151 0.18577 0.0
H654 H 0.97292 0.61903 0.16361 0.0
H655 H 0.99374 0.58644 0.22102 0.0
H656 H 0.96171 0.57877 0.24326 0.0
H657 H 0.98714 0.58976 0.28161 0.0
H658 H 0.9557 0.67878 0.35374 0.0
H659 H 0.91031 0.66502 0.3689 0.0
H660 H 0.91687 0.6054 0.26385 0.0
C661 C 0.01572 0.64245 0.22103 0.0
C662 C 0.03295 0.66305 0.23255 0.0
C663 C 0.02705 0.6793 0.27049 0.0
C664 C 1.00416 0.67569 0.29599 0.0
C665 C 0.98726 0.65572 0.28321 0.0
C666 C 0.99266 0.63924 0.24683 0.0
C667 C 0.97003 0.62052 0.23878 0.0
C668 C 0.95833 0.62419 0.19044 0.0
C669 C 0.97868 0.59219 0.24665 0.0
C670 C 0.95104 0.62942 0.2758 0.0
C671 C 0.96156 0.64972 0.30098 0.0
C672 C 0.94736 0.66262 0.33484 0.0
C673 C 0.92158 0.65476 0.34306 0.0
C674 C 0.91029 0.63403 0.31787 0.0
C675 C 0.92532 0.62093 0.28422 0.0
H676 H 0.69201 0.00931 0.20291 0.0
H677 H 0.62413 0.05304 0.24834 0.0
H678 H 0.60681 0.01366 0.28668 0.0
H679 H 0.65605 0.95052 0.17692 0.0
H680 H 0.68188 0.92891 0.19503 0.0
H681 H 0.68972 0.96081 0.17314 0.0
H682 H 0.71537 0.97113 0.24778 0.0
H683 H 0.70761 0.93927 0.26994 0.0
H684 H 0.69926 0.96793 0.30263 0.0
H685 H 0.59723 0.97036 0.3208 0.0
H686 H 0.59407 0.92458 0.34511 0.0
H687 H 0.66673 0.9073 0.27376 0.0
C688 C 0.67366 0.01056 0.22144 0.0
C689 C 0.65948 0.0342 0.22336 0.0
C690 C 0.63525 0.03508 0.24677 0.0
C691 C 0.62532 0.01287 0.26864 0.0
C692 C 0.63965 0.98982 0.266 0.0
C693 C 0.66314 0.98835 0.2426 0.0
C694 C 0.67386 0.96075 0.24318 0.0
C695 C 0.67546 0.94959 0.19416 0.0
C696 C 0.70061 0.95972 0.26733 0.0
C697 C 0.65291 0.94707 0.27125 0.0
C698 C 0.6335 0.96433 0.28419 0.0
C699 C 0.61226 0.95662 0.31083 0.0
C700 C 0.61073 0.93055 0.32463 0.0
C701 C 0.6302 0.91231 0.31155 0.0
C702 C 0.65153 0.92075 0.28429 0.0
H703 H 0.91605 0.34653 0.68814 0.0
H704 H 0.91999 0.43041 0.70673 0.0
H705 H 0.96546 0.42619 0.73447 0.0
H706 H 0.9523 0.32941 0.78775 0.0
H707 H 0.96893 0.3023 0.76134 0.0
H708 H 0.93708 0.31197 0.74107 0.0
H709 H 0.95551 0.31706 0.65859 0.0
H710 H 0.98747 0.30744 0.67859 0.0
H711 H 0.98331 0.33798 0.64884 0.0
H712 H 0.00898 0.41271 0.76555 0.0
H713 H 0.04851 0.39093 0.79581 0.0
H714 H 0.01776 0.31599 0.75346 0.0
C715 C 0.92651 0.36406 0.69773 0.0
C716 C 0.9144 0.38885 0.69516 0.0
C717 C 0.92883 0.41125 0.70815 0.0
C718 C 0.95468 0.40904 0.72396 0.0
C719 C 0.96595 0.38434 0.72617 0.0
C720 C 0.95242 0.36224 0.71317 0.0
C721 C 0.96894 0.33795 0.71987 0.0
C722 C 0.95604 0.31932 0.75457 0.0
C723 C 0.97411 0.32431 0.67372 0.0
C724 C 0.99379 0.34981 0.73922 0.0
C725 C 0.99154 0.37661 0.74266 0.0
C726 C 0.01113 0.39182 0.76235 0.0
C727 C 0.03347 0.37931 0.77943 0.0
C728 C 0.03624 0.35194 0.77614 0.0
C729 C 0.01632 0.33702 0.75522 0.0
H730 H 0.36911 0.10181 0.23395 0.0
H731 H 0.38456 0.08406 0.37736 0.0
H732 H 0.3725 0.03822 0.36387 0.0
H733 H 0.31401 0.05846 0.21896 0.0
H734 H 0.32332 0.04878 0.16169 0.0
H735 H 0.33233 0.08049 0.18301 0.0
H736 H 0.3811 0.07042 0.16518 0.0
H737 H 0.37203 0.03868 0.14411 0.0
H738 H 0.396 0.04165 0.18929 0.0
H739 H 0.35688 0.99499 0.3364 0.0
H740 H 0.34277 0.95557 0.2943 0.0
H741 H 0.34069 0.9999 0.16733 0.0
C742 C 0.36991 0.08822 0.26242 0.0
C743 C 0.3777 0.09647 0.30673 0.0
C744 C 0.37879 0.07813 0.34309 0.0
C745 C 0.37185 0.05207 0.33585 0.0
C746 C 0.36423 0.04453 0.2919 0.0
C747 C 0.36353 0.06191 0.2556 0.0
C748 C 0.35552 0.04836 0.21144 0.0
C749 C 0.32977 0.0597 0.19268 0.0
C750 C 0.37747 0.04987 0.17538 0.0
C751 C 0.35176 0.02072 0.22877 0.0
C752 C 0.35652 0.01909 0.27544 0.0
C753 C 0.35334 0.99591 0.29976 0.0
C754 C 0.34524 0.97369 0.27567 0.0
C755 C 0.34089 0.97472 0.22768 0.0
C756 C 0.34425 0.99854 0.20396 0.0
H757 H 0.09459 0.66716 0.71492 0.0
H758 H 0.08498 0.5866 0.6732 0.0
H759 H 0.03854 0.58802 0.69701 0.0
H760 H 0.05224 0.66643 0.81347 0.0
H761 H 0.03934 0.69852 0.8018 0.0
H762 H 0.07186 0.69011 0.7833 0.0
H763 H 0.05875 0.70347 0.70019 0.0
H764 H 0.02605 0.71102 0.71921 0.0
H765 H 0.03102 0.688 0.67324 0.0
H766 H 0.99377 0.59773 0.7283 0.0
H767 H 0.95293 0.61586 0.76104 0.0
H768 H 0.99097 0.69093 0.77707 0.0
C769 C 0.08268 0.64984 0.71107 0.0
C770 C 0.09323 0.62673 0.69255 0.0
C771 C 0.07709 0.60451 0.68725 0.0
C772 C 0.05077 0.60511 0.70074 0.0
C773 C 0.04084 0.62825 0.71861 0.0
C774 C 0.05619 0.65029 0.7233 0.0
C775 C 0.04044 0.67293 0.74186 0.0
C776 C 0.05165 0.68253 0.78788 0.0
C777 C 0.03898 0.69516 0.70651 0.0
C778 C 0.01404 0.65997 0.74809 0.0
C779 C 0.01469 0.63418 0.73454 0.0
C780 C 0.99292 0.61797 0.73862 0.0
C781 C 0.96987 0.62839 0.75728 0.0
C782 C 0.96876 0.6548 0.77109 0.0
C783 C 0.99111 0.67077 0.76604 0.0
H784 H 0.19859 0.52104 0.61154 0.0
H785 H 0.24195 0.58103 0.54 0.0
H786 H 0.25629 0.54841 0.48212 0.0
H787 H 0.24455 0.46431 0.5825 0.0
H788 H 0.21684 0.44275 0.57722 0.0
H789 H 0.21604 0.46924 0.6179 0.0
H790 H 0.17289 0.48558 0.58092 0.0
H791 H 0.17393 0.45955 0.53989 0.0
H792 H 0.17224 0.49284 0.52026 0.0
H793 H 0.2576 0.51157 0.42432 0.0
H794 H 0.2462 0.47478 0.37327 0.0
H795 H 0.20275 0.43882 0.48456 0.0
C796 C 0.21202 0.52698 0.58466 0.0
C797 C 0.21951 0.55327 0.58013 0.0
C798 C 0.23652 0.56077 0.54425 0.0
C799 C 0.24468 0.54237 0.51134 0.0
C800 C 0.23601 0.51663 0.51565 0.0
C801 C 0.22042 0.50889 0.55208 0.0
C802 C 0.21088 0.48118 0.54629 0.0
C803 C 0.2228 0.46331 0.58316 0.0
C804 C 0.18072 0.47974 0.54682 0.0
C805 C 0.2219 0.47507 0.49932 0.0
C806 C 0.23688 0.49542 0.48253 0.0
C807 C 0.24651 0.49526 0.43762 0.0
C808 C 0.23995 0.47424 0.40883 0.0
C809 C 0.22361 0.45388 0.42492 0.0
C810 C 0.21548 0.45394 0.47131 0.0
H811 H 0.43438 0.8113 0.51286 0.0
H812 H 0.47076 0.76461 0.61945 0.0
H813 H 0.50549 0.75166 0.56481 0.0
H814 H 0.45521 0.76953 0.41051 0.0
H815 H 0.4602 0.79849 0.37658 0.0
H816 H 0.43489 0.79774 0.41975 0.0
H817 H 0.45489 0.83918 0.45691 0.0
H818 H 0.48026 0.83964 0.41439 0.0
H819 H 0.48875 0.83885 0.47454 0.0
H820 H 0.54078 0.75128 0.50376 0.0
H821 H 0.5729 0.76466 0.4442 0.0
H822 H 0.51369 0.81258 0.37962 0.0
C823 C 0.44912 0.79758 0.52434 0.0
C824 C 0.44985 0.78896 0.57042 0.0
C825 C 0.46964 0.77128 0.58419 0.0
C826 C 0.48945 0.76379 0.55331 0.0
C827 C 0.48893 0.77384 0.50868 0.0
C828 C 0.46898 0.79013 0.49415 0.0
C829 C 0.47462 0.80149 0.44722 0.0
C830 C 0.45507 0.79119 0.41139 0.0
C831 C 0.47465 0.83155 0.44841 0.0
C832 C 0.5017 0.79062 0.43896 0.0
C833 C 0.50938 0.77399 0.47391 0.0
C834 C 0.53472 0.76371 0.47566 0.0
C835 C 0.55282 0.77129 0.44172 0.0
C836 C 0.54549 0.78933 0.40738 0.0
C837 C 0.51948 0.79838 0.40526 0.0
H838 H 0.80388 0.48785 0.61339 0.0
H839 H 0.77389 0.42493 0.52968 0.0
H840 H 0.76197 0.45655 0.46871 0.0
H841 H 0.75903 0.54202 0.57155 0.0
H842 H 0.78593 0.56476 0.57267 0.0
H843 H 0.78476 0.53829 0.61339 0.0
H844 H 0.83134 0.52357 0.58594 0.0
H845 H 0.83175 0.55013 0.54577 0.0
H846 H 0.83648 0.51722 0.52575 0.0
H847 H 0.75962 0.49362 0.41312 0.0
H848 H 0.77065 0.53155 0.36483 0.0
H849 H 0.80537 0.56978 0.48311 0.0
C850 C 0.79361 0.48106 0.58307 0.0
C851 C 0.7888 0.45431 0.57648 0.0
C852 C 0.77687 0.44556 0.53552 0.0
C853 C 0.77006 0.46338 0.50091 0.0
C854 C 0.77574 0.48971 0.50776 0.0
C855 C 0.78739 0.4985 0.54784 0.0
C856 C 0.79581 0.52668 0.54365 0.0
C857 C 0.78047 0.54397 0.57731 0.0
C858 C 0.82559 0.52955 0.55068 0.0
C859 C 0.78802 0.53213 0.4944 0.0
C860 C 0.77579 0.51084 0.47469 0.0
C861 C 0.76874 0.51057 0.4284 0.0
C862 C 0.77506 0.53225 0.40123 0.0
C863 C 0.78882 0.55366 0.42023 0.0
C864 C 0.79462 0.55382 0.46772 0.0
H865 H 0.49114 0.20141 0.38301 0.0
H866 H 0.43033 0.24163 0.45826 0.0
H867 H 0.46291 0.25464 0.51738 0.0
H868 H 0.51967 0.17269 0.47138 0.0
H869 H 0.55306 0.17536 0.45187 0.0
H870 H 0.52686 0.17545 0.41091 0.0
H871 H 0.54287 0.22034 0.37869 0.0
H872 H 0.56958 0.21911 0.41922 0.0
H873 H 0.54809 0.24697 0.41788 0.0
H874 H 0.49971 0.25463 0.57527 0.0
H875 H 0.53648 0.24193 0.62568 0.0
H876 H 0.57322 0.20202 0.51119 0.0
C877 C 0.48503 0.21393 0.411 0.0
C878 C 0.45853 0.22087 0.41621 0.0
C879 C 0.45076 0.23666 0.45351 0.0
C880 C 0.46914 0.24407 0.48712 0.0
C881 C 0.4951 0.23588 0.4821 0.0
C882 C 0.50309 0.22154 0.44434 0.0
C883 C 0.53098 0.21209 0.44947 0.0
C884 C 0.53271 0.18215 0.44573 0.0
C885 C 0.54895 0.22542 0.41423 0.0
C886 C 0.53682 0.22148 0.49761 0.0
C887 C 0.51627 0.23583 0.51547 0.0
C888 C 0.51618 0.24404 0.5612 0.0
C889 C 0.53718 0.23673 0.58963 0.0
C890 C 0.55774 0.22099 0.57235 0.0
C891 C 0.55792 0.21424 0.52531 0.0
H892 H 0.70809 0.01865 0.10894 0.0
H893 H 0.74104 0.08264 0.0315 0.0
H894 H 0.75104 0.05245 0.96717 0.0
H895 H 0.75225 0.96473 0.06076 0.0
H896 H 0.72508 0.94232 0.06109 0.0
H897 H 0.72739 0.96728 0.1045 0.0
H898 H 0.68099 0.98329 0.08277 0.0
H899 H 0.67863 0.95884 0.03897 0.0
H900 H 0.67425 0.99268 0.0242 0.0
H901 H 0.74807 0.01738 0.90591 0.0
H902 H 0.73337 0.98141 0.85534 0.0
H903 H 0.70265 0.94063 0.97419 0.0
C904 C 0.71869 0.02592 0.07932 0.0
C905 C 0.72443 0.05265 0.07522 0.0
C906 C 0.73728 0.06199 0.03553 0.0
C907 C 0.74288 0.04498 -0.00114 0.0
C908 C 0.73579 0.01876 0.00301 0.0
C909 C 0.7244 0.00923 0.0428 0.0
C910 C 0.71514 0.98145 0.03686 0.0
C911 C 0.73092 0.96285 0.06762 0.0
C912 C 0.68551 0.97896 0.04621 0.0
C913 C 0.7215 0.9773 0.98667 0.0
C914 C 0.73393 0.99871 0.96778 0.0
C915 C 0.73901 1.00025 0.92065 0.0
C916 C 0.73061 0.97972 0.89213 0.0
C917 C 0.71693 0.9582 0.91085 0.0
C918 C 0.71323 0.95673 0.95888 0.0
H919 H 0.99027 0.31387 0.11603 0.0
H920 H 0.93117 0.26742 0.04794 0.0
H921 H 0.96392 0.25382 0.98956 0.0
H922 H 0.01713 0.34 0.02312 0.0
H923 H 0.05073 0.3396 0.04213 0.0
H924 H 0.02482 0.34027 0.08365 0.0
H925 H 0.04308 0.29849 0.12169 0.0
H926 H 0.06929 0.29768 0.08023 0.0
H927 H 0.04837 0.2697 0.08745 0.0
H928 H 1.0003 0.25343 0.93066 0.0
H929 H 0.03639 0.26545 0.87825 0.0
H930 H 0.07204 0.31099 0.98722 0.0
C931 C 0.9846 0.3 0.08977 0.0
C932 C 0.95848 0.29141 0.08631 0.0
C933 C 0.95131 0.27374 0.05132 0.0
C934 C 0.96978 0.26598 0.01814 0.0
C935 C 0.9953 0.27568 0.02138 0.0
C936 C 1.0028 0.29192 0.05701 0.0
C937 C 0.03026 0.30223 0.05023 0.0
C938 C 0.03072 0.33228 0.04971 0.0
C939 C 0.04885 0.29136 0.08709 0.0
C940 C 0.03639 0.29094 0.0035 0.0
C941 C 0.01634 0.27516 0.98776 0.0
C942 C 0.01642 0.26515 0.94315 0.0
C943 C 0.03702 0.2721 0.91356 0.0
C944 C 0.05708 0.28917 0.92858 0.0
C945 C 0.05717 0.29771 0.97473 0.0
H946 H 0.31227 0.02209 0.88607 0.0
H947 H 0.26588 0.08061 0.95548 0.0
H948 H 0.25197 0.04758 0.01302 0.0
H949 H 0.26783 0.9643 0.91223 0.0
H950 H 0.2959 0.94336 0.91912 0.0
H951 H 0.29695 0.96999 0.87876 0.0
H952 H 0.33878 0.98747 0.91847 0.0
H953 H 0.33768 0.96117 0.95901 0.0
H954 H 0.33808 0.99437 0.97926 0.0
H955 H 0.25091 0.01048 0.07075 0.0
H956 H 0.26214 0.97357 0.12169 0.0
H957 H 0.30809 0.93917 0.01197 0.0
C958 C 0.29836 0.02762 0.91245 0.0
C959 C 0.28984 0.05363 0.91645 0.0
C960 C 0.27214 0.06057 0.95165 0.0
C961 C 0.26422 0.04194 0.98436 0.0
C962 C 0.27382 0.0165 0.98052 0.0
C963 C 0.29014 0.00928 0.94477 0.0
C964 C 0.3003 0.98181 0.95077 0.0
C965 C 0.28959 0.9638 0.91298 0.0
C966 C 0.33048 0.98121 0.952 0.0
C967 C 0.28859 0.97519 0.99702 0.0
C968 C 0.27293 0.99514 0.01336 0.0
C969 C 0.26255 0.99449 0.05775 0.0
C970 C 0.26902 0.97339 0.08649 0.0
C971 C 0.28596 0.95341 0.07085 0.0
C972 C 0.29488 0.95396 0.0249 0.0
H973 H 0.98681 0.69145 0.88898 0.0
H974 H 0.93523 0.75157 0.94073 0.0
H975 H 0.96948 0.76486 0.99688 0.0
H976 H 0.00777 0.66989 0.99085 0.0
H977 H 0.04089 0.66272 0.97356 0.0
H978 H 0.01518 0.6626 0.93163 0.0
H979 H 0.04088 0.69598 0.88352 0.0
H980 H 0.06671 0.69708 0.92558 0.0
H981 H 0.05055 0.72672 0.90817 0.0
H982 H 0.00637 0.76527 0.05683 0.0
H983 H 0.04045 0.75218 0.1133 0.0
H984 H 0.0668 0.69188 0.0203 0.0
C985 C 0.98306 0.70799 0.91119 0.0
C986 C 0.95856 0.72058 0.91075 0.0
C987 C 0.9541 0.74195 0.94035 0.0
C988 C 0.97345 0.74957 0.97224 0.0
C989 C 0.99716 0.7359 0.97314 0.0
C990 C 1.00205 0.71576 0.94269 0.0
C991 C 0.02727 0.70176 0.95378 0.0
C992 C 0.02246 0.67255 0.96304 0.0
C993 C 0.04758 0.70566 0.91548 0.0
C994 C 0.0352 0.71605 0.99683 0.0
C995 C 0.01809 0.73613 0.00717 0.0
C996 C 0.02023 0.75007 0.04833 0.0
C997 C 0.03968 0.74264 0.08011 0.0
C998 C 0.05627 0.72126 0.07058 0.0
C999 C 0.05456 0.70859 0.02784 0.0
H1000 H 0.14606 0.36958 0.18423 0.0
H1001 H 0.23076 0.37379 0.17601 0.0
H1002 H 0.22858 0.36324 0.093 0.0
H1003 H 0.13616 0.31704 0.10373 0.0
H1004 H 0.10711 0.33133 0.07918 0.0
H1005 H 0.11549 0.33773 0.13825 0.0
H1006 H 0.11442 0.38738 0.12231 0.0
H1007 H 0.10585 0.38109 0.06334 0.0
H1008 H 0.13417 0.40066 0.07661 0.0
H1009 H 0.21677 0.35141 0.01063 0.0
H1010 H 0.19612 0.34405 0.93452 0.0
H1011 H 0.11938 0.35044 0.99732 0.0
C1012 C 0.16418 0.36806 0.16504 0.0
C1013 C 0.1886 0.37223 0.18648 0.0
C1014 C 0.21185 0.37063 0.16012 0.0
C1015 C 0.2108 0.36452 0.11309 0.0
C1016 C 0.18635 0.36041 0.09301 0.0
C1017 C 0.16345 0.36244 0.1181 0.0
C1018 C 0.13958 0.35873 0.08806 0.0
C1019 C 0.12366 0.33478 0.10323 0.0
C1020 C 0.12251 0.38344 0.08755 0.0
C1021 C 0.15261 0.35426 0.04209 0.0
C1022 C 0.17958 0.3549 0.0456 0.0
C1023 C 0.19567 0.35098 0.00744 0.0
C1024 C 0.18382 0.34673 0.96447 0.0
C1025 C 0.15623 0.34693 0.96015 0.0
C1026 C 0.14055 0.35049 -0.00041 0.0
H1027 H 0.35163 0.89268 0.00035 0.0
H1028 H 0.3451 0.81645 0.06383 0.0
H1029 H 0.35245 0.79564 0.98814 0.0
H1030 H 0.3173 0.87584 0.89612 0.0
H1031 H 0.33766 0.8961 0.86029 0.0
H1032 H 0.33235 0.90471 0.91955 0.0
H1033 H 0.38244 0.90552 0.93314 0.0
H1034 H 0.38792 0.89681 0.87398 0.0
H1035 H 0.40171 0.87716 0.91928 0.0
H1036 H 0.36293 0.78339 0.90582 0.0
H1037 H 0.37155 0.78064 0.82213 0.0
H1038 H 0.36821 0.86497 0.81287 0.0
C1039 C 0.35183 0.8716 0.99832 0.0
C1040 C 0.34808 0.85612 0.03785 0.0
C1041 C 0.34798 0.82862 0.03383 0.0
C1042 C 0.35221 0.81666 0.99109 0.0
C1043 C 0.35604 0.83252 0.95276 0.0
C1044 C 0.35552 0.8594 0.95592 0.0
C1045 C 0.35942 0.87206 0.90948 0.0
C1046 C 0.33524 0.88812 0.89554 0.0
C1047 C 0.38436 0.88887 0.90896 0.0
C1048 C 0.36247 0.8481 0.87971 0.0
C1049 C 0.36075 0.82547 0.90528 0.0
C1050 C 0.36403 0.80096 0.88535 0.0
C1051 C 0.36901 0.79958 0.83794 0.0
C1052 C 0.37025 0.82256 0.81111 0.0
C1053 C 0.36695 0.84705 0.83244 0.0
H1054 H 0.89114 0.67144 0.00337 0.0
H1055 H 0.81662 0.65869 0.93489 0.0
H1056 H 0.79583 0.65015 0.00974 0.0
H1057 H 0.88438 0.62171 0.08708 0.0
H1058 H 0.89948 0.64002 0.13283 0.0
H1059 H 0.90843 0.64633 0.07404 0.0
H1060 H 0.89644 0.69505 0.08436 0.0
H1061 H 0.88752 0.68886 0.14327 0.0
H1062 H 0.86427 0.70373 0.10473 0.0
H1063 H 0.78368 0.64006 0.09087 0.0
H1064 H 0.78051 0.63136 0.17415 0.0
H1065 H 0.86245 0.65197 0.19033 0.0
C1066 C 0.87041 0.66707 0.00411 0.0
C1067 C 0.85555 0.66566 0.96317 0.0
C1068 C 0.82845 0.65989 0.96572 0.0
C1069 C 0.81642 0.65499 0.00808 0.0
C1070 C 0.8317 0.65616 0.04763 0.0
C1071 C 0.85803 0.66226 0.04615 0.0
C1072 C 0.87004 0.66184 0.09376 0.0
C1073 C 0.89186 0.64124 0.0971 0.0
C1074 C 0.88016 0.68899 0.10732 0.0
C1075 C 0.84639 0.65417 0.12205 0.0
C1076 C 0.8245 0.65095 0.09475 0.0
C1077 C 0.8006 0.6428 0.11274 0.0
C1078 C 0.79901 0.63782 0.16001 0.0
C1079 C 0.82116 0.64121 0.18869 0.0
C1080 C 0.84508 0.64961 0.16935 0.0
H1081 H 0.67138 0.11449 0.99377 0.0
H1082 H 0.65597 0.18777 0.06344 0.0
H1083 H 0.64689 0.20859 0.98863 0.0
H1084 H 0.70305 0.1423 0.89305 0.0
H1085 H 0.68878 0.1188 0.8544 0.0
H1086 H 0.69519 0.11003 0.91329 0.0
H1087 H 0.64665 0.09666 0.92312 0.0
H1088 H 0.64001 0.10568 0.86448 0.0
H1089 H 0.62122 0.11995 0.91045 0.0
H1090 H 0.63691 0.22075 0.90673 0.0
H1091 H 0.62872 0.22381 0.82319 0.0
H1092 H 0.65145 0.14276 0.80744 0.0
C1093 C 0.66631 0.13497 0.99339 0.0
C1094 C 0.66433 0.14947 0.03458 0.0
C1095 C 0.65763 0.17624 0.0324 0.0
C1096 C 0.65242 0.18825 0.99007 0.0
C1097 C 0.65415 0.17328 0.95025 0.0
C1098 C 0.66112 0.14727 0.95151 0.0
C1099 C 0.66111 0.13539 0.90387 0.0
C1100 C 0.68868 0.12609 0.89036 0.0
C1101 C 0.64104 0.11311 0.9003 0.0
C1102 C 0.65278 0.15874 0.87568 0.0
C1103 C 0.64883 0.18039 0.90304 0.0
C1104 C 0.64018 0.204 0.88488 0.0
C1105 C 0.63551 0.20552 0.83744 0.0
C1106 C 0.63963 0.1836 0.80875 0.0
C1107 C 0.64843 0.15997 0.82833 0.0
H1108 H 0.14882 0.65398 0.80908 0.0
H1109 H 0.21818 0.60684 0.83076 0.0
H1110 H 0.21364 0.6126 0.91483 0.0
H1111 H 0.15777 0.69941 0.9038 0.0
H1112 H 0.12349 0.70009 0.91846 0.0
H1113 H 0.13338 0.69409 0.85998 0.0
H1114 H 0.10671 0.65131 0.85988 0.0
H1115 H 0.09695 0.65684 0.91854 0.0
H1116 H 0.11315 0.62692 0.90305 0.0
H1117 H 0.20172 0.62351 0.99591 0.0
H1118 H 0.18111 0.63541 0.0696 0.0
H1119 H 0.11742 0.67278 0.99581 0.0
C1120 C 0.16324 0.64525 0.83164 0.0
C1121 C 0.18411 0.63032 0.81372 0.0
C1122 C 0.20219 0.61848 0.84404 0.0
C1123 C 0.1998 0.62171 0.8917 0.0
C1124 C 0.17893 0.63643 0.90839 0.0
C1125 C 0.16075 0.64775 0.87938 0.0
C1126 C 0.13909 0.66095 0.90638 0.0
C1127 C 0.13841 0.69039 0.89657 0.0
C1128 C 0.1124 0.64824 0.89636 0.0
C1129 C 0.14806 0.65542 0.95509 0.0
C1130 C 0.17124 0.64153 0.95539 0.0
C1131 C 0.18353 0.63432 0.99617 0.0
C1132 C 0.17171 0.64126 0.03786 0.0
C1133 C 0.14763 0.65496 0.03849 0.0
C1134 C 0.13576 0.66218 0.99644 0.0
H1135 H 0.605 0.84579 0.16912 0.0
H1136 H 0.67667 0.80467 0.20272 0.0
H1137 H 0.69331 0.81267 0.12415 0.0
H1138 H 0.59976 0.82573 0.04951 0.0
H1139 H 0.58846 0.8572 0.03045 0.0
H1140 H 0.58139 0.84631 0.088 0.0
H1141 H 0.60296 0.88812 0.12069 0.0
H1142 H 0.61032 0.89904 0.06331 0.0
H1143 H 0.63621 0.89591 0.10507 0.0
H1144 H 0.70221 0.82547 0.04289 0.0
H1145 H 0.70367 0.84372 0.96439 0.0
H1146 H 0.62742 0.87912 0.98565 0.0
C1147 C 0.62396 0.83807 0.15949 0.0
C1148 C 0.63949 0.82432 0.19136 0.0
C1149 C 0.66452 0.81512 0.17838 0.0
C1150 C 0.67408 0.81954 0.13398 0.0
C1151 C 0.65848 0.83354 0.10347 0.0
C1152 C 0.63404 0.84282 0.11566 0.0
C1153 C 0.62198 0.85874 0.07735 0.0
C1154 C 0.59638 0.84624 0.06032 0.0
C1155 C 0.61762 0.88713 0.09252 0.0
C1156 C 0.64339 0.8568 0.04163 0.0
C1157 C 0.66417 0.84201 0.05727 0.0
C1158 C 0.6861 0.83713 0.03022 0.0
C1159 C 0.68673 0.84755 0.98577 0.0
C1160 C 0.66571 0.86288 0.96918 0.0
C1161 C 0.64387 0.86768 0.99765 0.0
H1162 H 0.86454 0.36074 0.81357 0.0
H1163 H 0.7839 0.38615 0.82862 0.0
H1164 H 0.78639 0.37755 0.91212 0.0
H1165 H 0.86277 0.30909 0.89863 0.0
H1166 H 0.89548 0.31568 0.91881 0.0
H1167 H 0.88685 0.3225 0.85998 0.0
H1168 H 0.90185 0.37038 0.87014 0.0
H1169 H 0.9106 0.36372 0.9289 0.0
H1170 H 0.88808 0.38973 0.91585 0.0
H1171 H 0.79817 0.36715 0.99431 0.0
H1172 H 0.81894 0.35792 0.06921 0.0
H1173 H 0.89197 0.34004 -0.00044 0.0
C1174 C 0.84728 0.36425 0.83426 0.0
C1175 C 0.82396 0.37394 0.81452 0.0
C1176 C 0.80196 0.37867 0.84299 0.0
C1177 C 0.80315 0.37376 0.8904 0.0
C1178 C 0.82648 0.36422 0.9087 0.0
C1179 C 0.84817 0.35962 0.88151 0.0
C1180 C 0.87127 0.35052 0.90979 0.0
C1181 C 0.87957 0.3228 0.89597 0.0
C1182 C 0.8943 0.36974 0.90594 0.0
C1183 C 0.85928 0.35095 0.95729 0.0
C1184 C 0.83338 0.35866 0.95595 0.0
C1185 C 0.81842 0.361 0.99577 0.0
C1186 C 0.83039 0.35569 0.03815 0.0
C1187 C 0.85711 0.34832 0.04033 0.0
C1188 C 0.87153 0.34563 -0.00084 0.0
H1189 H 0.33296 0.12519 0.0015 0.0
H1190 H 0.36971 0.18861 0.92667 0.0
H1191 H 0.38253 0.20903 9e-05 0.0
H1192 H 0.30781 0.16525 0.09615 0.0
H1193 H 0.31376 0.14028 0.1385 0.0
H1194 H 0.30644 0.13136 0.07999 0.0
H1195 H 0.34916 0.10435 0.07696 0.0
H1196 H 0.35708 0.11365 0.13497 0.0
H1197 H 0.38 0.11995 0.08927 0.0
H1198 H 0.39551 0.21999 0.08121 0.0
H1199 H 0.40329 0.22328 0.16509 0.0
H1200 H 0.3554 0.15464 0.18705 0.0
C1201 C 0.34342 0.14355 0.00058 0.0
C1202 C 0.35037 0.15529 0.95836 0.0
C1203 C 0.36403 0.17932 0.95858 0.0
C1204 C 0.3715 0.19103 0.0001 0.0
C1205 C 0.36479 0.17868 0.04108 0.0
C1206 C 0.35068 0.1557 0.04169 0.0
C1207 C 0.34616 0.14631 0.09041 0.0
C1208 C 0.3168 0.14578 0.10193 0.0
C1209 C 0.35886 0.11948 0.09833 0.0
C1210 C 0.36025 0.16742 0.11702 0.0
C1211 C 0.37112 0.18576 0.08794 0.0
C1212 C 0.38667 0.20605 0.1044 0.0
C1213 C 0.39108 0.20771 0.15192 0.0
C1214 C 0.37956 0.18948 0.18225 0.0
C1215 C 0.36389 0.16919 0.16453 0.0
H1216 H 0.66352 0.87567 0.46837 0.0
H1217 H 0.62001 0.80362 0.48278 0.0
H1218 H 0.63407 0.80026 0.56377 0.0
H1219 H 0.71796 0.86005 0.55006 0.0
H1220 H 0.71862 0.89267 0.57297 0.0
H1221 H 0.70926 0.88726 0.51397 0.0
H1222 H 0.6656 0.91165 0.52826 0.0
H1223 H 0.6748 0.91711 0.58717 0.0
H1224 H 0.64436 0.90098 0.57403 0.0
H1225 H 0.6484 0.80654 0.64291 0.0
H1226 H 0.65965 0.82347 0.71922 0.0
H1227 H 0.69256 0.89306 0.65686 0.0
C1228 C 0.65766 0.8589 0.48851 0.0
C1229 C 0.64112 0.83964 0.46978 0.0
C1230 C 0.63289 0.81837 0.49694 0.0
C1231 C 0.6409 0.81624 0.54268 0.0
C1232 C 0.65686 0.83574 0.56065 0.0
C1233 C 0.66504 0.8568 0.53472 0.0
C1234 C 0.67924 0.87664 0.56429 0.0
C1235 C 0.70798 0.8793 0.54943 0.0
C1236 C 0.66515 0.90315 0.56338 0.0
C1237 C 0.67704 0.86375 0.61102 0.0
C1238 C 0.66452 0.83993 0.60767 0.0
C1239 C 0.65849 0.825 0.64604 0.0
C1240 C 0.66485 0.83489 0.68925 0.0
C1241 C 0.67696 0.8596 0.69388 0.0
C1242 C 0.6837 0.87395 0.65419 0.0
H1243 H 0.84652 0.39327 0.5018 0.0
H1244 H 0.85952 0.31983 0.57189 0.0
H1245 H 0.86991 0.29881 0.49749 0.0
H1246 H 0.81441 0.36447 0.40214 0.0
H1247 H 0.82816 0.38766 0.36237 0.0
H1248 H 0.82218 0.39701 0.42112 0.0
H1249 H 0.87066 0.41078 0.42969 0.0
H1250 H 0.87685 0.4014 0.37107 0.0
H1251 H 0.89619 0.38762 0.41687 0.0
H1252 H 0.88251 0.287 0.41657 0.0
H1253 H 0.89094 0.2837 0.33276 0.0
H1254 H 0.86505 0.36344 0.31479 0.0
C1255 C 0.85153 0.37275 0.50127 0.0
C1256 C 0.85249 0.35809 0.54223 0.0
C1257 C 0.85869 0.33125 0.54061 0.0
C1258 C 0.86469 0.31923 0.49866 0.0
C1259 C 0.86376 0.33425 0.45879 0.0
C1260 C 0.85683 0.3603 0.4596 0.0
C1261 C 0.85638 0.3718 0.41168 0.0
C1262 C 0.82863 0.38075 0.39857 0.0
C1263 C 0.87621 0.39422 0.40709 0.0
C1264 C 0.86469 0.34829 0.38393 0.0
C1265 C 0.86918 0.32692 0.41179 0.0
C1266 C 0.87863 0.30344 0.39428 0.0
C1267 C 0.88343 0.30174 0.34692 0.0
C1268 C 0.87822 0.3232 0.31793 0.0
C1269 C 0.86866 0.34667 0.33653 0.0
H1270 H 0.3577 0.15499 0.68679 0.0
H1271 H 0.28964 0.10613 0.66441 0.0
H1272 H 0.29424 0.11216 0.58032 0.0
H1273 H 0.34792 0.20033 0.59285 0.0
H1274 H 0.38219 0.2019 0.57831 0.0
H1275 H 0.3724 0.1954 0.63669 0.0
H1276 H 0.39956 0.15267 0.63686 0.0
H1277 H 0.4099 0.15958 0.57896 0.0
H1278 H 0.39433 0.12895 0.59217 0.0
H1279 H 0.30613 0.12375 0.49923 0.0
H1280 H 0.32687 0.13622 0.42593 0.0
H1281 H 0.38936 0.1748 0.50088 0.0
C1282 C 0.34358 0.14592 0.66408 0.0
C1283 C 0.32305 0.13046 0.68175 0.0
C1284 C 0.30537 0.11818 0.65127 0.0
C1285 C 0.30779 0.12157 0.60362 0.0
C1286 C 0.3283 0.13689 0.58718 0.0
C1287 C 0.34611 0.14856 0.61643 0.0
C1288 C 0.36753 0.16235 0.58983 0.0
C1289 C 0.36749 0.19174 0.60003 0.0
C1290 C 0.39443 0.15016 0.60003 0.0
C1291 C 0.35885 0.1568 0.54101 0.0
C1292 C 0.336 0.14237 0.54031 0.0
C1293 C 0.32406 0.13499 0.49931 0.0
C1294 C 0.33595 0.14226 0.45785 0.0
C1295 C 0.35977 0.15644 0.45768 0.0
C1296 C 0.37123 0.16388 0.49992 0.0
H1297 H 0.17118 0.62159 0.49384 0.0
H1298 H 0.13791 0.68684 0.56884 0.0
H1299 H 0.12645 0.7081 0.49555 0.0
H1300 H 0.19899 0.66006 0.40024 0.0
H1301 H 0.19162 0.63577 0.35737 0.0
H1302 H 0.19798 0.62607 0.41583 0.0
H1303 H 0.15356 0.60196 0.41764 0.0
H1304 H 0.14656 0.61211 0.35968 0.0
H1305 H 0.12389 0.61964 0.40516 0.0
H1306 H 0.11481 0.72029 0.4146 0.0
H1307 H 0.10782 0.72455 0.33064 0.0
H1308 H 0.15143 0.6532 0.30829 0.0
C1309 C 0.16169 0.64045 0.49486 0.0
C1310 C 0.15537 0.65251 0.53711 0.0
C1311 C 0.14302 0.67724 0.53693 0.0
C1312 C 0.13636 0.68946 0.49548 0.0
C1313 C 0.1425 0.67688 0.45449 0.0
C1314 C 0.15521 0.6531 0.45378 0.0
C1315 C 0.15942 0.6437 0.40499 0.0
C1316 C 0.18875 0.64127 0.39397 0.0
C1317 C 0.145 0.61782 0.3964 0.0
C1318 C 0.14692 0.66582 0.37847 0.0
C1319 C 0.137 0.68462 0.40768 0.0
C1320 C 0.12291 0.70597 0.39131 0.0
C1321 C 0.11897 0.70821 0.34375 0.0
C1322 C 0.12952 0.68947 0.31334 0.0
C1323 C 0.14376 0.66813 0.33093 0.0
H1324 H 0.6227 0.16772 0.49362 0.0
H1325 H 0.69347 0.1463 0.56668 0.0
H1326 H 0.71461 0.13451 0.4929 0.0
H1327 H 0.62407 0.11903 0.40834 0.0
H1328 H 0.61354 0.13974 0.36186 0.0
H1329 H 0.6037 0.147 0.41987 0.0
H1330 H 0.62325 0.19322 0.41314 0.0
H1331 H 0.63257 0.18639 0.35465 0.0
H1332 H 0.65684 0.19721 0.39542 0.0
H1333 H 0.726 0.1207 0.41215 0.0
H1334 H 0.72939 0.11195 0.32849 0.0
H1335 H 0.65318 0.1471 0.30751 0.0
C1336 C 0.64272 0.16074 0.49384 0.0
C1337 C 0.65655 0.15772 0.53546 0.0
C1338 C 0.68273 0.1488 0.53486 0.0
C1339 C 0.69479 0.14197 0.49326 0.0
C1340 C 0.68055 0.14487 0.4527 0.0
C1341 C 0.65531 0.15462 0.45254 0.0
C1342 C 0.64458 0.15653 0.40414 0.0
C1343 C 0.62001 0.13954 0.39829 0.0
C1344 C 0.639 0.18504 0.39108 0.0
C1345 C 0.66747 0.14568 0.37721 0.0
C1346 C 0.68791 0.13875 0.40589 0.0
C1347 C 0.71038 0.12652 0.38923 0.0
C1348 C 0.7121 0.12151 0.3419 0.0
C1349 C 0.69172 0.12923 0.31199 0.0
C1350 C 0.66922 0.14153 0.32983 0.0
H1351 H 0.13855 0.36739 0.68457 0.0
H1352 H 0.1313 0.28334 0.67443 0.0
H1353 H 0.14089 0.28581 0.59119 0.0
H1354 H 0.10668 0.3812 0.57716 0.0
H1355 H 0.12733 0.40869 0.56396 0.0
H1356 H 0.12101 0.40011 0.62294 0.0
H1357 H 0.17087 0.39707 0.6381 0.0
H1358 H 0.17733 0.40552 0.5791 0.0
H1359 H 0.19068 0.37594 0.60289 0.0
H1360 H 0.15289 0.29741 0.50972 0.0
H1361 H 0.16177 0.3177 0.43411 0.0
H1362 H 0.15802 0.39429 0.49689 0.0
C1363 C 0.13912 0.3495 0.66482 0.0
C1364 C 0.13441 0.32514 0.68584 0.0
C1365 C 0.13484 0.30219 0.65887 0.0
C1366 C 0.14039 0.3034 0.61169 0.0
C1367 C 0.14507 0.32773 0.59205 0.0
C1368 C 0.14413 0.35041 0.61763 0.0
C1369 C 0.14862 0.37419 0.58784 0.0
C1370 C 0.12447 0.39209 0.58798 0.0
C1371 C 0.17335 0.38904 0.60289 0.0
C1372 C 0.15238 0.36131 0.54152 0.0
C1373 C 0.15062 0.33449 0.54476 0.0
C1374 C 0.1541 0.31839 0.50666 0.0
C1375 C 0.15922 0.33005 0.46397 0.0
C1376 C 0.16031 0.3575 0.45976 0.0
C1377 C 0.15693 0.37325 0.49911 0.0
H1378 H 0.39232 0.85697 0.50197 0.0
H1379 H 0.31534 0.85042 0.56397 0.0
H1380 H 0.29487 0.85817 0.4882 0.0
H1381 H 0.37681 0.90714 0.41964 0.0
H1382 H 0.39674 0.89328 0.37475 0.0
H1383 H 0.40533 0.88813 0.43411 0.0
H1384 H 0.40477 0.83827 0.4212 0.0
H1385 H 0.39623 0.8432 0.36178 0.0
H1386 H 0.37589 0.82303 0.39781 0.0
H1387 H 0.28283 0.86821 0.4063 0.0
H1388 H 0.28001 0.87607 0.32254 0.0
H1389 H 0.36474 0.87298 0.31313 0.0
C1390 C 0.37116 0.85737 0.49957 0.0
C1391 C 0.35537 0.85337 0.53879 0.0
C1392 C 0.32776 0.85348 0.53428 0.0
C1393 C 0.31598 0.85794 0.49147 0.0
C1394 C 0.33208 0.86183 0.45344 0.0
C1395 C 0.35907 0.86128 0.45695 0.0
C1396 C 0.37188 0.865 0.41044 0.0
C1397 C 0.38867 0.88987 0.40971 0.0
C1398 C 0.38814 0.84093 0.39702 0.0
C1399 C 0.34786 0.86782 0.38031 0.0
C1400 C 0.32511 0.86627 0.40586 0.0
C1401 C 0.30049 0.86924 0.38584 0.0
C1402 C 0.29907 0.87377 0.33834 0.0
C1403 C 0.32212 0.87487 0.31141 0.0
C1404 C 0.34678 0.87185 0.33281 0.0
H1405 H 0.89987 0.66416 0.66893 0.0
H1406 H 0.83688 0.71912 0.69256 0.0
H1407 H 0.82171 0.71313 0.61246 0.0
H1408 H 0.91288 0.6798 0.54835 0.0
H1409 H 0.91795 0.64623 0.53251 0.0
H1410 H 0.92545 0.65698 0.58998 0.0
H1411 H 0.89478 0.62132 0.62297 0.0
H1412 H 0.887 0.6106 0.56565 0.0
H1413 H 0.86115 0.62002 0.60439 0.0
H1414 H 0.81265 0.7002 0.53128 0.0
H1415 H 0.80906 0.67999 0.45463 0.0
H1416 H 0.87629 0.63113 0.48531 0.0
C1417 C 0.8833 0.67536 0.65667 0.0
C1418 C 0.86976 0.69248 0.68617 0.0
C1419 C 0.84758 0.70616 0.66996 0.0
C1420 C 0.83887 0.70288 0.62468 0.0
C1421 C 0.85233 0.68549 0.59652 0.0
C1422 C 0.87396 0.67181 0.61189 0.0
C1423 C 0.88354 0.65278 0.57585 0.0
C1424 C 0.91162 0.65935 0.56078 0.0
C1425 C 0.88148 0.62452 0.59326 0.0
C1426 C 0.86403 0.65805 0.53775 0.0
C1427 C 0.84633 0.67712 0.5503 0.0
C1428 C 0.82642 0.68528 0.52097 0.0
C1429 C 0.82456 0.67369 0.4775 0.0
C1430 C 0.84239 0.65399 0.46396 0.0
C1431 C 0.86232 0.64608 0.49467 0.0
H1432 H 0.31129 0.23039 0.33567 0.0
H1433 H 0.38196 0.27728 0.33602 0.0
H1434 H 0.35517 0.31722 0.3421 0.0
H1435 H 0.27491 0.27256 0.26415 0.0
H1436 H 0.24407 0.26721 0.29274 0.0
H1437 H 0.26875 0.24218 0.29333 0.0
H1438 H 0.26742 0.24128 0.38236 0.0
H1439 H 0.24266 0.2663 0.38205 0.0
H1440 H 0.27251 0.27104 0.41404 0.0
H1441 H 0.32072 0.35212 0.34503 0.0
H1442 H 0.28123 0.37962 0.34034 0.0
H1443 H 0.23278 0.31015 0.33447 0.0
C1444 C 0.32112 0.24904 0.33794 0.0
C1445 C 0.34873 0.25074 0.33586 0.0
C1446 C 0.36085 0.27554 0.33771 0.0
C1447 C 0.3458 0.29832 0.34131 0.0
C1448 C 0.31862 0.296 0.34264 0.0
C1449 C 0.30637 0.27201 0.34078 0.0
C1450 C 0.27684 0.27504 0.33937 0.0
C1451 C 0.26549 0.26357 0.29474 0.0
C1452 C 0.26411 0.26268 0.382 0.0
C1453 C 0.27443 0.30447 0.34024 0.0
C1454 C 0.29875 0.31617 0.34274 0.0
C1455 C 0.30156 0.34317 0.34322 0.0
C1456 C 0.27897 0.35864 0.34057 0.0
C1457 C 0.25382 0.34711 0.33691 0.0
C1458 C 0.25166 0.31962 0.3372 0.0
H1459 H 0.22689 0.69991 0.66293 0.0
H1460 H 0.2748 0.6301 0.6631 0.0
H1461 H 0.31463 0.65726 0.65674 0.0
H1462 H 0.2668 0.73858 0.58407 0.0
H1463 H 0.26186 0.7684 0.61562 0.0
H1464 H 0.23703 0.74346 0.61619 0.0
H1465 H 0.23846 0.74258 0.70522 0.0
H1466 H 0.26327 0.76749 0.70492 0.0
H1467 H 0.26924 0.73704 0.73396 0.0
H1468 H 0.3492 0.69197 0.65214 0.0
H1469 H 0.37638 0.73159 0.65528 0.0
H1470 H 0.30613 0.77911 0.66218 0.0
C1471 C 0.24575 0.69033 0.66089 0.0
C1472 C 0.24777 0.66286 0.66303 0.0
C1473 C 0.27282 0.65109 0.66139 0.0
C1474 C 0.29552 0.66635 0.6576 0.0
C1475 C 0.29287 0.69338 0.65596 0.0
C1476 C 0.26864 0.70529 0.6579 0.0
C1477 C 0.27131 0.73473 0.65874 0.0
C1478 C 0.25849 0.74701 0.61611 0.0
C1479 C 0.2599 0.74612 0.70337 0.0
C1480 C 0.30084 0.73752 0.65731 0.0
C1481 C 0.31286 0.71343 0.65508 0.0
C1482 C 0.34 0.71094 0.65384 0.0
C1483 C 0.35528 0.73362 0.65556 0.0
C1484 C 0.34345 0.75856 0.6591 0.0
C1485 C 0.31581 0.7604 0.65953 0.0
H1486 H 0.69333 0.77596 0.35429 0.0
H1487 H 0.62361 0.7308 0.32449 0.0
H1488 H 0.64986 0.69026 0.32707 0.0
H1489 H 0.73493 0.74024 0.28225 0.0
H1490 H 0.76324 0.74276 0.31899 0.0
H1491 H 0.73846 0.76765 0.32051 0.0
H1492 H 0.73296 0.76074 0.40824 0.0
H1493 H 0.7578 0.73582 0.40702 0.0
H1494 H 0.72584 0.72862 0.42999 0.0
H1495 H 0.68457 0.65469 0.32933 0.0
H1496 H 0.72482 0.62785 0.3258 0.0
H1497 H 0.77171 0.69699 0.35007 0.0
C1498 C 0.68345 0.75751 0.34935 0.0
C1499 C 0.65634 0.7565 0.33979 0.0
C1500 C 0.64432 0.732 0.33216 0.0
C1501 C 0.65907 0.70888 0.3337 0.0
C1502 C 0.68586 0.7106 0.34251 0.0
C1503 C 0.69793 0.73434 0.34999 0.0
C1504 C 0.72729 0.73123 0.35477 0.0
C1505 C 0.74182 0.74636 0.31687 0.0
C1506 C 0.7365 0.7396 0.40287 0.0
C1507 C 0.72994 0.70209 0.34824 0.0
C1508 C 0.70583 0.69041 0.34195 0.0
C1509 C 0.70353 0.66365 0.3344 0.0
C1510 C 0.72649 0.64854 0.33255 0.0
C1511 C 0.75142 0.66031 0.33748 0.0
C1512 C 0.75297 0.6874 0.34601 0.0
H1513 H 0.77895 0.31167 0.6823 0.0
H1514 H 0.73303 0.37896 0.64111 0.0
H1515 H 0.69418 0.35073 0.63207 0.0
H1516 H 0.74823 0.265 0.6053 0.0
H1517 H 0.74952 0.23892 0.64675 0.0
H1518 H 0.77394 0.26425 0.64775 0.0
H1519 H 0.76284 0.27389 0.73301 0.0
H1520 H 0.73839 0.24863 0.73227 0.0
H1521 H 0.72954 0.28131 0.74879 0.0
H1522 H 0.65981 0.31525 0.63072 0.0
H1523 H 0.63275 0.27555 0.63732 0.0
H1524 H 0.70141 0.23168 0.67939 0.0
C1525 C 0.76081 0.32051 0.67097 0.0
C1526 C 0.7591 0.3476 0.66241 0.0
C1527 C 0.73488 0.35829 0.64791 0.0
C1528 C 0.71269 0.3424 0.64261 0.0
C1529 C 0.71504 0.31584 0.65181 0.0
C1530 C 0.73851 0.30498 0.66559 0.0
C1531 C 0.7357 0.27606 0.67472 0.0
C1532 C 0.75286 0.26012 0.64165 0.0
C1533 C 0.74198 0.26961 0.72519 0.0
C1534 C 0.70689 0.27236 0.6644 0.0
C1535 C 0.69532 0.29549 0.65105 0.0
C1536 C 0.6687 0.297 0.6409 0.0
C1537 C 0.65348 0.27432 0.64481 0.0
C1538 C 0.6649 0.25042 0.65886 0.0
C1539 C 0.69204 0.24955 0.66834 0.0
H1540 H 0.73371 0.81692 0.85352 0.0
H1541 H 0.77819 0.88518 0.813 0.0
H1542 H 0.81899 0.85904 0.81548 0.0
H1543 H 0.78317 0.78923 0.93121 0.0
H1544 H 0.77532 0.7563 0.91465 0.0
H1545 H 0.75035 0.78109 0.91348 0.0
H1546 H 0.74109 0.77059 0.82783 0.0
H1547 H 0.76604 0.74588 0.82868 0.0
H1548 H 0.76758 0.77179 0.78694 0.0
H1549 H 0.85422 0.82367 0.81449 0.0
H1550 H 0.88064 0.78323 0.81352 0.0
H1551 H 0.81257 0.73912 0.85718 0.0
C1552 C 0.75206 0.82654 0.84572 0.0
C1553 C 0.75275 0.8531 0.8329 0.0
C1554 C 0.77719 0.8649 0.8231 0.0
C1555 C 0.80045 0.85018 0.82437 0.0
C1556 C 0.79892 0.82384 0.83616 0.0
C1557 C 0.77532 0.81227 0.84721 0.0
C1558 C 0.77855 0.78349 0.85692 0.0
C1559 C 0.77143 0.77717 0.90705 0.0
C1560 C 0.76236 0.76698 0.82307 0.0
C1561 C 0.80759 0.78039 0.84853 0.0
C1562 C 0.81909 0.80384 0.8367 0.0
C1563 C 0.84546 0.80531 0.82443 0.0
C1564 C 0.8603 0.78223 0.82388 0.0
C1565 C 0.84878 0.758 0.83566 0.0
C1566 C 0.82215 0.75733 0.84877 0.0
H1567 H 0.73609 0.19564 0.14359 0.0
H1568 H 0.7823 0.12896 0.1868 0.0
H1569 H 0.82186 0.15649 0.1882 0.0
H1570 H 0.78668 0.22613 0.07113 0.0
H1571 H 0.77763 0.25867 0.08817 0.0
H1572 H 0.75329 0.23326 0.08675 0.0
H1573 H 0.74185 0.24257 0.17194 0.0
H1574 H 0.76619 0.26791 0.17366 0.0
H1575 H 0.76741 0.2416 0.21465 0.0
H1576 H 0.85589 0.19186 0.19051 0.0
H1577 H 0.88189 0.23237 0.19274 0.0
H1578 H 0.81382 0.27622 0.14783 0.0
C1579 C 0.7546 0.18668 0.15255 0.0
C1580 C 0.756 0.16002 0.16493 0.0
C1581 C 0.78062 0.14927 0.17711 0.0
C1582 C 0.80327 0.16476 0.17796 0.0
C1583 C 0.8011 0.19102 0.16642 0.0
C1584 C 0.77743 0.2019 0.15373 0.0
C1585 C 0.78024 0.23094 0.14518 0.0
C1586 C 0.7741 0.23764 0.09481 0.0
C1587 C 0.7629 0.24667 0.17834 0.0
C1588 C 0.80908 0.23475 0.15577 0.0
C1589 C 0.82077 0.21144 0.1677 0.0
C1590 C 0.847 0.21018 0.18078 0.0
C1591 C 0.86161 0.23335 0.18204 0.0
C1592 C 0.85003 0.25756 0.17031 0.0
C1593 C 0.82342 0.25806 0.15654 0.0
H1594 H 0.19808 0.27745 0.83415 0.0
H1595 H 0.12789 0.22988 0.82801 0.0
H1596 H 0.15518 0.19012 0.83005 0.0
H1597 H 0.23761 0.23813 0.76241 0.0
H1598 H 0.2672 0.24306 0.79503 0.0
H1599 H 0.24209 0.26765 0.79506 0.0
H1600 H 0.24009 0.26583 0.88402 0.0
H1601 H 0.26526 0.24124 0.88428 0.0
H1602 H 0.23439 0.23506 0.9122 0.0
H1603 H 0.1906 0.15547 0.82687 0.0
H1604 H 0.23101 0.12893 0.8234 0.0
H1605 H 0.27771 0.19924 0.83518 0.0
C1606 C 0.18839 0.25868 0.83355 0.0
C1607 C 0.16079 0.25684 0.83076 0.0
C1608 C 0.14896 0.23185 0.83027 0.0
C1609 C 0.16432 0.20913 0.83133 0.0
C1610 C 0.19147 0.21167 0.83348 0.0
C1611 C 0.20337 0.23584 0.83511 0.0
C1612 C 0.23292 0.2333 0.8369 0.0
C1613 C 0.24569 0.2463 0.79485 0.0
C1614 C 0.2438 0.24452 0.88204 0.0
C1615 C 0.23584 0.20395 0.83528 0.0
C1616 C 0.21173 0.19178 0.83317 0.0
C1617 C 0.20957 0.16479 0.82909 0.0
C1618 C 0.23262 0.14987 0.82702 0.0
C1619 C 0.25754 0.16194 0.82945 0.0
C1620 C 0.259 0.18935 0.83401 0.0
H1621 H 0.19887 0.72949 0.16204 0.0
H1622 H 0.12832 0.77632 0.154 0.0
H1623 H 0.15521 0.81617 0.14793 0.0
H1624 H 0.23333 0.77269 0.23421 0.0
H1625 H 0.26492 0.76713 0.20841 0.0
H1626 H 0.24037 0.74199 0.20674 0.0
H1627 H 0.24405 0.74001 0.11798 0.0
H1628 H 0.26872 0.76511 0.11938 0.0
H1629 H 0.23975 0.76936 0.08478 0.0
H1630 H 0.18947 0.85104 0.14661 0.0
H1631 H 0.22866 0.87879 0.15344 0.0
H1632 H 0.27721 0.80966 0.16591 0.0
C1633 C 0.18913 0.7481 0.15796 0.0
C1634 C 0.16151 0.74983 0.15797 0.0
C1635 C 0.14945 0.77458 0.15389 0.0
C1636 C 0.16456 0.7973 0.15028 0.0
C1637 C 0.19173 0.795 0.15121 0.0
C1638 C 0.20395 0.77107 0.15509 0.0
C1639 C 0.2334 0.77424 0.15884 0.0
C1640 C 0.24359 0.76337 0.20478 0.0
C1641 C 0.2473 0.76142 0.11779 0.0
C1642 C 0.23577 0.80369 0.15702 0.0
C1643 C 0.21151 0.81524 0.15201 0.0
C1644 C 0.20859 0.84221 0.15034 0.0
C1645 C 0.23102 0.85783 0.15427 0.0
C1646 C 0.25609 0.84648 0.16035 0.0
C1647 C 0.25837 0.81899 0.16134 0.0
loop_
_geom_bond_atom_site_label_1
_geom_bond_atom_site_label_2
_geom_bond_distance
_geom_bond_site_symmetry_2
_ccdc_geom_bond_type
Fe0 O2 1.918 . S
Fe0 O5 1.997 . S
Fe0 O6 2.002 . S
Fe0 O11 1.976 . S
Fe0 O14 1.996 . S
Fe1 O2 1.918 . S
Fe1 O9 1.997 . S
Fe1 O12 1.996 . S
Fe1 O16 1.976 . S
Fe1 O19 2.002 . S
O2 Fe0 1.918 . S
O2 Fe1 1.918 . S
O2 Fe3 1.918 . S
Fe3 O2 1.918 . S
Fe3 O4 2.002 . S
Fe3 O13 1.976 . S
Fe3 O17 1.996 . S
Fe3 O20 1.997 . S
O4 Fe3 2.002 . S
O4 C21 1.295 . S
O5 Fe0 1.997 . S
O5 C21 1.235 . S
O6 Fe0 2.002 . S
O6 C7 1.295 . S
C7 O6 1.295 . S
C7 O9 1.235 . S
C8 O13 1.287 . S
C8 O14 1.255 . S
O9 Fe1 1.997 . S
O9 C7 1.235 . S
C10 O16 1.287 . S
C10 O17 1.255 . S
O11 Fe0 1.976 . S
O11 C18 1.287 . S
O12 Fe1 1.996 . S
O12 C18 1.255 . S
O13 Fe3 1.976 . S
O13 C8 1.287 . S
O14 Fe0 1.996 . S
O14 C8 1.255 . S
C15 O19 1.295 . S
C15 O20 1.235 . S
O16 Fe1 1.976 . S
O16 C10 1.287 . S
O17 Fe3 1.996 . S
O17 C10 1.255 . S
C18 O11 1.287 . S
C18 O12 1.255 . S
O19 Fe1 2.002 . S
O19 C15 1.295 . S
O20 Fe3 1.997 . S
O20 C15 1.235 . S
C21 O4 1.295 . S
C21 O5 1.235 . S
Fe22 O24 1.918 . S
Fe22 O27 1.997 . S
Fe22 O28 2.002 . S
Fe22 O33 1.976 . S
Fe22 O36 1.996 . S
Fe23 O24 1.918 . S
Fe23 O31 1.997 . S
Fe23 O34 1.996 . S
Fe23 O38 1.976 . S
Fe23 O41 2.002 . S
O24 Fe22 1.918 . S
O24 Fe23 1.918 . S
O24 Fe25 1.918 . S
Fe25 O24 1.918 . S
Fe25 O26 2.002 . S
Fe25 O35 1.976 . S
Fe25 O39 1.996 . S
Fe25 O42 1.997 . S
O26 Fe25 2.002 . S
O26 C43 1.295 . S
O27 Fe22 1.997 . S
O27 C43 1.235 . S
O28 Fe22 2.002 . S
O28 C29 1.295 . S
C29 O28 1.295 . S
C29 O31 1.235 . S
C30 O35 1.287 . S
C30 O36 1.255 . S
O31 Fe23 1.997 . S
O31 C29 1.235 . S
C32 O38 1.287 . S
C32 O39 1.255 . S
O33 Fe22 1.976 . S
O33 C40 1.287 . S
O34 Fe23 1.996 . S
O34 C40 1.255 . S
O35 Fe25 1.976 . S
O35 C30 1.287 . S
O36 Fe22 1.996 . S
O36 C30 1.255 . S
C37 O41 1.295 . S
C37 O42 1.235 . S
O38 Fe23 1.976 . S
O38 C32 1.287 . S
O39 Fe25 1.996 . S
O39 C32 1.255 . S
C40 O33 1.287 . S
C40 O34 1.255 . S
O41 Fe23 2.002 . S
O41 C37 1.295 . S
O42 Fe25 1.997 . S
O42 C37 1.235 . S
C43 O26 1.295 . S
C43 O27 1.235 . S
Fe44 O46 1.918 . S
Fe44 O49 1.997 . S
Fe44 O50 2.002 . S
Fe44 O55 1.976 . S
Fe44 O58 1.996 . S
Fe45 O46 1.918 . S
Fe45 O53 1.997 . S
Fe45 O56 1.996 . S
Fe45 O60 1.976 . S
Fe45 O63 2.002 . S
O46 Fe44 1.918 . S
O46 Fe45 1.918 . S
O46 Fe47 1.918 . S
Fe47 O46 1.918 . S
Fe47 O48 2.002 . S
Fe47 O57 1.976 . S
Fe47 O61 1.996 . S
Fe47 O64 1.997 . S
O48 Fe47 2.002 . S
O48 C65 1.295 . S
O49 Fe44 1.997 . S
O49 C65 1.235 . S
O50 Fe44 2.002 . S
O50 C51 1.295 . S
C51 O50 1.295 . S
C51 O53 1.235 . S
C52 O57 1.287 . S
C52 O58 1.255 . S
O53 Fe45 1.997 . S
O53 C51 1.235 . S
C54 O60 1.287 . S
C54 O61 1.255 . S
O55 Fe44 1.976 . S
O55 C62 1.287 . S
O56 Fe45 1.996 . S
O56 C62 1.255 . S
O57 Fe47 1.976 . S
O57 C52 1.287 . S
O58 Fe44 1.996 . S
O58 C52 1.255 . S
C59 O63 1.295 . S
C59 O64 1.235 . S
O60 Fe45 1.976 . S
O60 C54 1.287 . S
O61 Fe47 1.996 . S
O61 C54 1.255 . S
C62 O55 1.287 . S
C62 O56 1.255 . S
O63 Fe45 2.002 . S
O63 C59 1.295 . S
O64 Fe47 1.997 . S
O64 C59 1.235 . S
C65 O48 1.295 . S
C65 O49 1.235 . S
Fe66 O68 1.918 . S
Fe66 O71 1.997 . S
Fe66 O72 2.002 . S
Fe66 O77 1.976 . S
Fe66 O80 1.996 . S
Fe67 O68 1.918 . S
Fe67 O75 1.997 . S
Fe67 O78 1.996 . S
Fe67 O82 1.976 . S
Fe67 O85 2.002 . S
O68 Fe66 1.918 . S
O68 Fe67 1.918 . S
O68 Fe69 1.918 . S
Fe69 O68 1.918 . S
Fe69 O70 2.002 . S
Fe69 O79 1.976 . S
Fe69 O83 1.996 . S
Fe69 O86 1.997 . S
O70 Fe69 2.002 . S
O70 C87 1.295 . S
O71 Fe66 1.997 . S
O71 C87 1.235 . S
O72 Fe66 2.002 . S
O72 C73 1.295 . S
C73 O72 1.295 . S
C73 O75 1.235 . S
C74 O79 1.287 . S
C74 O80 1.255 . S
O75 Fe67 1.997 . S
O75 C73 1.235 . S
C76 O82 1.287 . S
C76 O83 1.255 . S
O77 Fe66 1.976 . S
O77 C84 1.287 . S
O78 Fe67 1.996 . S
O78 C84 1.255 . S
O79 Fe69 1.976 . S
O79 C74 1.287 . S
O80 Fe66 1.996 . S
O80 C74 1.255 . S
C81 O85 1.295 . S
C81 O86 1.235 . S
O82 Fe67 1.976 . S
O82 C76 1.287 . S
O83 Fe69 1.996 . S
O83 C76 1.255 . S
C84 O77 1.287 . S
C84 O78 1.255 . S
O85 Fe67 2.002 . S
O85 C81 1.295 . S
O86 Fe69 1.997 . S
O86 C81 1.235 . S
C87 O70 1.295 . S
C87 O71 1.235 . S
Fe88 O90 1.918 . S
Fe88 O93 1.997 . S
Fe88 O94 2.002 . S
Fe88 O99 1.976 . S
Fe88 O102 1.996 . S
Fe89 O90 1.918 . S
Fe89 O97 1.997 . S
Fe89 O100 1.996 . S
Fe89 O104 1.976 . S
Fe89 O107 2.002 . S
O90 Fe88 1.918 . S
O90 Fe89 1.918 . S
O90 Fe91 1.918 . S
Fe91 O90 1.918 . S
Fe91 O92 2.002 . S
Fe91 O101 1.976 . S
Fe91 O105 1.996 . S
Fe91 O108 1.997 . S
O92 Fe91 2.002 . S
O92 C109 1.295 . S
O93 Fe88 1.997 . S
O93 C109 1.235 . S
O94 Fe88 2.002 . S
O94 C95 1.295 . S
C95 O94 1.295 . S
C95 O97 1.235 . S
C96 O101 1.287 . S
C96 O102 1.255 . S
O97 Fe89 1.997 . S
O97 C95 1.235 . S
C98 O104 1.287 . S
C98 O105 1.255 . S
O99 Fe88 1.976 . S
O99 C106 1.287 . S
O100 Fe89 1.996 . S
O100 C106 1.255 . S
O101 Fe91 1.976 . S
O101 C96 1.287 . S
O102 Fe88 1.996 . S
O102 C96 1.255 . S
C103 O107 1.295 . S
C103 O108 1.235 . S
O104 Fe89 1.976 . S
O104 C98 1.287 . S
O105 Fe91 1.996 . S
O105 C98 1.255 . S
C106 O99 1.287 . S
C106 O100 1.255 . S
O107 Fe89 2.002 . S
O107 C103 1.295 . S
O108 Fe91 1.997 . S
O108 C103 1.235 . S
C109 O92 1.295 . S
C109 O93 1.235 . S
Fe110 O112 1.918 . S
Fe110 O115 1.997 . S
Fe110 O116 2.002 . S
Fe110 O121 1.976 . S
Fe110 O124 1.996 . S
Fe111 O112 1.918 . S
Fe111 O119 1.997 . S
Fe111 O122 1.996 . S
Fe111 O126 1.976 . S
Fe111 O129 2.002 . S
O112 Fe110 1.918 . S
O112 Fe111 1.918 . S
O112 Fe113 1.918 . S
Fe113 O112 1.918 . S
Fe113 O114 2.002 . S
Fe113 O123 1.976 . S
Fe113 O127 1.996 . S
Fe113 O130 1.997 . S
O114 Fe113 2.002 . S
O114 C131 1.295 . S
O115 Fe110 1.997 . S
O115 C131 1.235 . S
O116 Fe110 2.002 . S
O116 C117 1.295 . S
C117 O116 1.295 . S
C117 O119 1.235 . S
C118 O123 1.287 . S
C118 O124 1.255 . S
O119 Fe111 1.997 . S
O119 C117 1.235 . S
C120 O126 1.287 . S
C120 O127 1.255 . S
O121 Fe110 1.976 . S
O121 C128 1.287 . S
O122 Fe111 1.996 . S
O122 C128 1.255 . S
O123 Fe113 1.976 . S
O123 C118 1.287 . S
O124 Fe110 1.996 . S
O124 C118 1.255 . S
C125 O129 1.295 . S
C125 O130 1.235 . S
O126 Fe111 1.976 . S
O126 C120 1.287 . S
O127 Fe113 1.996 . S
O127 C120 1.255 . S
C128 O121 1.287 . S
C128 O122 1.255 . S
O129 Fe111 2.002 . S
O129 C125 1.295 . S
O130 Fe113 1.997 . S
O130 C125 1.235 . S
C131 O114 1.295 . S
C131 O115 1.235 . S
Fe132 O134 1.918 . S
Fe132 O137 1.997 . S
Fe132 O138 2.002 . S
Fe132 O143 1.976 . S
Fe132 O146 1.996 . S
Fe133 O134 1.918 . S
Fe133 O141 1.997 . S
Fe133 O144 1.996 . S
Fe133 O148 1.976 . S
Fe133 O151 2.002 . S
O134 Fe132 1.918 . S
O134 Fe133 1.918 . S
O134 Fe135 1.918 . S
Fe135 O134 1.918 . S
Fe135 O136 2.002 . S
Fe135 O145 1.976 . S
Fe135 O149 1.996 . S
Fe135 O152 1.997 . S
O136 Fe135 2.002 . S
O136 C153 1.295 . S
O137 Fe132 1.997 . S
O137 C153 1.235 . S
O138 Fe132 2.002 . S
O138 C139 1.295 . S
C139 O138 1.295 . S
C139 O141 1.235 . S
C140 O145 1.287 . S
C140 O146 1.255 . S
O141 Fe133 1.997 . S
O141 C139 1.235 . S
C142 O148 1.287 . S
C142 O149 1.255 . S
O143 Fe132 1.976 . S
O143 C150 1.287 . S
O144 Fe133 1.996 . S
O144 C150 1.255 . S
O145 Fe135 1.976 . S
O145 C140 1.287 . S
O146 Fe132 1.996 . S
O146 C140 1.255 . S
C147 O151 1.295 . S
C147 O152 1.235 . S
O148 Fe133 1.976 . S
O148 C142 1.287 . S
O149 Fe135 1.996 . S
O149 C142 1.255 . S
C150 O143 1.287 . S
C150 O144 1.255 . S
O151 Fe133 2.002 . S
O151 C147 1.295 . S
O152 Fe135 1.997 . S
O152 C147 1.235 . S
C153 O136 1.295 . S
C153 O137 1.235 . S
Fe154 O156 1.918 . S
Fe154 O159 1.997 . S
Fe154 O160 2.002 . S
Fe154 O165 1.976 . S
Fe154 O168 1.996 . S
Fe155 O156 1.918 . S
Fe155 O163 1.997 . S
Fe155 O166 1.996 . S
Fe155 O170 1.976 . S
Fe155 O173 2.002 . S
O156 Fe154 1.918 . S
O156 Fe155 1.918 . S
O156 Fe157 1.918 . S
Fe157 O156 1.918 . S
Fe157 O158 2.002 . S
Fe157 O167 1.976 . S
Fe157 O171 1.996 . S
Fe157 O174 1.997 . S
O158 Fe157 2.002 . S
O158 C175 1.295 . S
O159 Fe154 1.997 . S
O159 C175 1.235 . S
O160 Fe154 2.002 . S
O160 C161 1.295 . S
C161 O160 1.295 . S
C161 O163 1.235 . S
C162 O167 1.287 . S
C162 O168 1.255 . S
O163 Fe155 1.997 . S
O163 C161 1.235 . S
C164 O170 1.287 . S
C164 O171 1.255 . S
O165 Fe154 1.976 . S
O165 C172 1.287 . S
O166 Fe155 1.996 . S
O166 C172 1.255 . S
O167 Fe157 1.976 . S
O167 C162 1.287 . S
O168 Fe154 1.996 . S
O168 C162 1.255 . S
C169 O173 1.295 . S
C169 O174 1.235 . S
O170 Fe155 1.976 . S
O170 C164 1.287 . S
O171 Fe157 1.996 . S
O171 C164 1.255 . S
C172 O165 1.287 . S
C172 O166 1.255 . S
O173 Fe155 2.002 . S
O173 C169 1.295 . S
O174 Fe157 1.997 . S
O174 C169 1.235 . S
C175 O158 1.295 . S
C175 O159 1.235 . S
Fe176 O178 1.918 . S
Fe176 O181 1.997 . S
Fe176 O182 2.002 . S
Fe176 O187 1.976 . S
Fe176 O190 1.996 . S
Fe177 O178 1.918 . S
Fe177 O185 1.997 . S
Fe177 O188 1.996 . S
Fe177 O192 1.976 . S
Fe177 O195 2.002 . S
O178 Fe176 1.918 . S
O178 Fe177 1.918 . S
O178 Fe179 1.918 . S
Fe179 O178 1.918 . S
Fe179 O180 2.002 . S
Fe179 O189 1.976 . S
Fe179 O193 1.996 . S
Fe179 O196 1.997 . S
O180 Fe179 2.002 . S
O180 C197 1.295 . S
O181 Fe176 1.997 . S
O181 C197 1.235 . S
O182 Fe176 2.002 . S
O182 C183 1.295 . S
C183 O182 1.295 . S
C183 O185 1.235 . S
C184 O189 1.287 . S
C184 O190 1.255 . S
O185 Fe177 1.997 . S
O185 C183 1.235 . S
C186 O192 1.287 . S
C186 O193 1.255 . S
O187 Fe176 1.976 . S
O187 C194 1.287 . S
O188 Fe177 1.996 . S
O188 C194 1.255 . S
O189 Fe179 1.976 . S
O189 C184 1.287 . S
O190 Fe176 1.996 . S
O190 C184 1.255 . S
C191 O195 1.295 . S
C191 O196 1.235 . S
O192 Fe177 1.976 . S
O192 C186 1.287 . S
O193 Fe179 1.996 . S
O193 C186 1.255 . S
C194 O187 1.287 . S
C194 O188 1.255 . S
O195 Fe177 2.002 . S
O195 C191 1.295 . S
O196 Fe179 1.997 . S
O196 C191 1.235 . S
C197 O180 1.295 . S
C197 O181 1.235 . S
Fe198 O200 1.918 . S
Fe198 O203 1.997 . S
Fe198 O204 2.002 . S
Fe198 O209 1.976 . S
Fe198 O212 1.996 . S
Fe199 O200 1.918 . S
Fe199 O207 1.997 . S
Fe199 O210 1.996 . S
Fe199 O214 1.976 . S
Fe199 O217 2.002 . S
O200 Fe198 1.918 . S
O200 Fe199 1.918 . S
O200 Fe201 1.918 . S
Fe201 O200 1.918 . S
Fe201 O202 2.002 . S
Fe201 O211 1.976 . S
Fe201 O215 1.996 . S
Fe201 O218 1.997 . S
O202 Fe201 2.002 . S
O202 C219 1.295 . S
O203 Fe198 1.997 . S
O203 C219 1.235 . S
O204 Fe198 2.002 . S
O204 C205 1.295 . S
C205 O204 1.295 . S
C205 O207 1.235 . S
C206 O211 1.287 . S
C206 O212 1.255 . S
O207 Fe199 1.997 . S
O207 C205 1.235 . S
C208 O214 1.287 . S
C208 O215 1.255 . S
O209 Fe198 1.976 . S
O209 C216 1.287 . S
O210 Fe199 1.996 . S
O210 C216 1.255 . S
O211 Fe201 1.976 . S
O211 C206 1.287 . S
O212 Fe198 1.996 . S
O212 C206 1.255 . S
C213 O217 1.295 . S
C213 O218 1.235 . S
O214 Fe199 1.976 . S
O214 C208 1.287 . S
O215 Fe201 1.996 . S
O215 C208 1.255 . S
C216 O209 1.287 . S
C216 O210 1.255 . S
O217 Fe199 2.002 . S
O217 C213 1.295 . S
O218 Fe201 1.997 . S
O218 C213 1.235 . S
C219 O202 1.295 . S
C219 O203 1.235 . S
Fe220 O222 1.918 . S
Fe220 O225 1.997 . S
Fe220 O226 2.002 . S
Fe220 O231 1.976 . S
Fe220 O234 1.996 . S
Fe221 O222 1.918 . S
Fe221 O229 1.997 . S
Fe221 O232 1.996 . S
Fe221 O236 1.976 . S
Fe221 O239 2.002 . S
O222 Fe220 1.918 . S
O222 Fe221 1.918 . S
O222 Fe223 1.918 . S
Fe223 O222 1.918 . S
Fe223 O224 2.002 . S
Fe223 O233 1.976 . S
Fe223 O237 1.996 . S
Fe223 O240 1.997 . S
O224 Fe223 2.002 . S
O224 C241 1.295 . S
O225 Fe220 1.997 . S
O225 C241 1.235 . S
O226 Fe220 2.002 . S
O226 C227 1.295 . S
C227 O226 1.295 . S
C227 O229 1.235 . S
C228 O233 1.287 . S
C228 O234 1.255 . S
O229 Fe221 1.997 . S
O229 C227 1.235 . S
C230 O236 1.287 . S
C230 O237 1.255 . S
O231 Fe220 1.976 . S
O231 C238 1.287 . S
O232 Fe221 1.996 . S
O232 C238 1.255 . S
O233 Fe223 1.976 . S
O233 C228 1.287 . S
O234 Fe220 1.996 . S
O234 C228 1.255 . S
C235 O239 1.295 . S
C235 O240 1.235 . S
O236 Fe221 1.976 . S
O236 C230 1.287 . S
O237 Fe223 1.996 . S
O237 C230 1.255 . S
C238 O231 1.287 . S
C238 O232 1.255 . S
O239 Fe221 2.002 . S
O239 C235 1.295 . S
O240 Fe223 1.997 . S
O240 C235 1.235 . S
C241 O224 1.295 . S
C241 O225 1.235 . S
Fe242 O244 1.918 . S
Fe242 O247 1.997 . S
Fe242 O248 2.002 . S
Fe242 O253 1.976 . S
Fe242 O256 1.996 . S
Fe243 O244 1.918 . S
Fe243 O251 1.997 . S
Fe243 O254 1.996 . S
Fe243 O258 1.976 . S
Fe243 O261 2.002 . S
O244 Fe242 1.918 . S
O244 Fe243 1.918 . S
O244 Fe245 1.918 . S
Fe245 O244 1.918 . S
Fe245 O246 2.002 . S
Fe245 O255 1.976 . S
Fe245 O259 1.996 . S
Fe245 O262 1.997 . S
O246 Fe245 2.002 . S
O246 C263 1.295 . S
O247 Fe242 1.997 . S
O247 C263 1.235 . S
O248 Fe242 2.002 . S
O248 C249 1.295 . S
C249 O248 1.295 . S
C249 O251 1.235 . S
C250 O255 1.287 . S
C250 O256 1.255 . S
O251 Fe243 1.997 . S
O251 C249 1.235 . S
C252 O258 1.287 . S
C252 O259 1.255 . S
O253 Fe242 1.976 . S
O253 C260 1.287 . S
O254 Fe243 1.996 . S
O254 C260 1.255 . S
O255 Fe245 1.976 . S
O255 C250 1.287 . S
O256 Fe242 1.996 . S
O256 C250 1.255 . S
C257 O261 1.295 . S
C257 O262 1.235 . S
O258 Fe243 1.976 . S
O258 C252 1.287 . S
O259 Fe245 1.996 . S
O259 C252 1.255 . S
C260 O253 1.287 . S
C260 O254 1.255 . S
O261 Fe243 2.002 . S
O261 C257 1.295 . S
O262 Fe245 1.997 . S
O262 C257 1.235 . S
C263 O246 1.295 . S
C263 O247 1.235 . S
Fe264 O266 1.918 . S
Fe264 O269 1.997 . S
Fe264 O270 2.002 . S
Fe264 O275 1.976 . S
Fe264 O278 1.996 . S
Fe265 O266 1.918 . S
Fe265 O273 1.997 . S
Fe265 O276 1.996 . S
Fe265 O280 1.976 . S
Fe265 O283 2.002 . S
O266 Fe264 1.918 . S
O266 Fe265 1.918 . S
O266 Fe267 1.918 . S
Fe267 O266 1.918 . S
Fe267 O268 2.002 . S
Fe267 O277 1.976 . S
Fe267 O281 1.996 . S
Fe267 O284 1.997 . S
O268 Fe267 2.002 . S
O268 C285 1.295 . S
O269 Fe264 1.997 . S
O269 C285 1.235 . S
O270 Fe264 2.002 . S
O270 C271 1.295 . S
C271 O270 1.295 . S
C271 O273 1.235 . S
C272 O277 1.287 . S
C272 O278 1.255 . S
O273 Fe265 1.997 . S
O273 C271 1.235 . S
C274 O280 1.287 . S
C274 O281 1.255 . S
O275 Fe264 1.976 . S
O275 C282 1.287 . S
O276 Fe265 1.996 . S
O276 C282 1.255 . S
O277 Fe267 1.976 . S
O277 C272 1.287 . S
O278 Fe264 1.996 . S
O278 C272 1.255 . S
C279 O283 1.295 . S
C279 O284 1.235 . S
O280 Fe265 1.976 . S
O280 C274 1.287 . S
O281 Fe267 1.996 . S
O281 C274 1.255 . S
C282 O275 1.287 . S
C282 O276 1.255 . S
O283 Fe265 2.002 . S
O283 C279 1.295 . S
O284 Fe267 1.997 . S
O284 C279 1.235 . S
C285 O268 1.295 . S
C285 O269 1.235 . S
Fe286 O288 1.918 . S
Fe286 O291 1.997 . S
Fe286 O292 2.002 . S
Fe286 O297 1.976 . S
Fe286 O300 1.996 . S
Fe287 O288 1.918 . S
Fe287 O295 1.997 . S
Fe287 O298 1.996 . S
Fe287 O302 1.976 . S
Fe287 O305 2.002 . S
O288 Fe286 1.918 . S
O288 Fe287 1.918 . S
O288 Fe289 1.918 . S
Fe289 O288 1.918 . S
Fe289 O290 2.002 . S
Fe289 O299 1.976 . S
Fe289 O303 1.996 . S
Fe289 O306 1.997 . S
O290 Fe289 2.002 . S
O290 C307 1.295 . S
O291 Fe286 1.997 . S
O291 C307 1.235 . S
O292 Fe286 2.002 . S
O292 C293 1.295 . S
C293 O292 1.295 . S
C293 O295 1.235 . S
C294 O299 1.287 . S
C294 O300 1.255 . S
O295 Fe287 1.997 . S
O295 C293 1.235 . S
C296 O302 1.287 . S
C296 O303 1.255 . S
O297 Fe286 1.976 . S
O297 C304 1.287 . S
O298 Fe287 1.996 . S
O298 C304 1.255 . S
O299 Fe289 1.976 . S
O299 C294 1.287 . S
O300 Fe286 1.996 . S
O300 C294 1.255 . S
C301 O305 1.295 . S
C301 O306 1.235 . S
O302 Fe287 1.976 . S
O302 C296 1.287 . S
O303 Fe289 1.996 . S
O303 C296 1.255 . S
C304 O297 1.287 . S
C304 O298 1.255 . S
O305 Fe287 2.002 . S
O305 C301 1.295 . S
O306 Fe289 1.997 . S
O306 C301 1.235 . S
C307 O290 1.295 . S
C307 O291 1.235 . S
Fe308 O310 1.918 . S
Fe308 O313 1.997 . S
Fe308 O314 2.002 . S
Fe308 O319 1.976 . S
Fe308 O322 1.996 . S
Fe309 O310 1.918 . S
Fe309 O317 1.997 . S
Fe309 O320 1.996 . S
Fe309 O324 1.976 . S
Fe309 O327 2.002 . S
O310 Fe308 1.918 . S
O310 Fe309 1.918 . S
O310 Fe311 1.918 . S
Fe311 O310 1.918 . S
Fe311 O312 2.002 . S
Fe311 O321 1.976 . S
Fe311 O325 1.996 . S
Fe311 O328 1.997 . S
O312 Fe311 2.002 . S
O312 C329 1.295 . S
O313 Fe308 1.997 . S
O313 C329 1.235 . S
O314 Fe308 2.002 . S
O314 C315 1.295 . S
C315 O314 1.295 . S
C315 O317 1.235 . S
C316 O321 1.287 . S
C316 O322 1.255 . S
O317 Fe309 1.997 . S
O317 C315 1.235 . S
C318 O324 1.287 . S
C318 O325 1.255 . S
O319 Fe308 1.976 . S
O319 C326 1.287 . S
O320 Fe309 1.996 . S
O320 C326 1.255 . S
O321 Fe311 1.976 . S
O321 C316 1.287 . S
O322 Fe308 1.996 . S
O322 C316 1.255 . S
C323 O327 1.295 . S
C323 O328 1.235 . S
O324 Fe309 1.976 . S
O324 C318 1.287 . S
O325 Fe311 1.996 . S
O325 C318 1.255 . S
C326 O319 1.287 . S
C326 O320 1.255 . S
O327 Fe309 2.002 . S
O327 C323 1.295 . S
O328 Fe311 1.997 . S
O328 C323 1.235 . S
C329 O312 1.295 . S
C329 O313 1.235 . S
Fe330 O332 1.918 . S
Fe330 O335 1.997 . S
Fe330 O336 2.002 . S
Fe330 O341 1.976 . S
Fe330 O344 1.996 . S
Fe331 O332 1.918 . S
Fe331 O339 1.997 . S
Fe331 O342 1.996 . S
Fe331 O346 1.976 . S
Fe331 O349 2.002 . S
O332 Fe330 1.918 . S
O332 Fe331 1.918 . S
O332 Fe333 1.918 . S
Fe333 O332 1.918 . S
Fe333 O334 2.002 . S
Fe333 O343 1.976 . S
Fe333 O347 1.996 . S
Fe333 O350 1.997 . S
O334 Fe333 2.002 . S
O334 C351 1.295 . S
O335 Fe330 1.997 . S
O335 C351 1.235 . S
O336 Fe330 2.002 . S
O336 C337 1.295 . S
C337 O336 1.295 . S
C337 O339 1.235 . S
C338 O343 1.287 . S
C338 O344 1.255 . S
O339 Fe331 1.997 . S
O339 C337 1.235 . S
C340 O346 1.287 . S
C340 O347 1.255 . S
O341 Fe330 1.976 . S
O341 C348 1.287 . S
O342 Fe331 1.996 . S
O342 C348 1.255 . S
O343 Fe333 1.976 . S
O343 C338 1.287 . S
O344 Fe330 1.996 . S
O344 C338 1.255 . S
C345 O349 1.295 . S
C345 O350 1.235 . S
O346 Fe331 1.976 . S
O346 C340 1.287 . S
O347 Fe333 1.996 . S
O347 C340 1.255 . S
C348 O341 1.287 . S
C348 O342 1.255 . S
O349 Fe331 2.002 . S
O349 C345 1.295 . S
O350 Fe333 1.997 . S
O350 C345 1.235 . S
C351 O334 1.295 . S
C351 O335 1.235 . S
H352 C364 0.930 . S
H353 C366 0.930 . S
H354 C367 0.930 . S
H355 C371 0.959 . S
H356 C371 0.959 . S
H357 C371 0.961 . S
H358 C372 0.960 . S
H359 C372 0.961 . S
H360 C372 0.959 . S
H361 C375 0.929 . S
H362 C376 0.931 . S
H363 C378 0.930 . S
C364 H352 0.930 . S
C364 C365 1.399 . S
C364 C369 1.399 . S
C365 C364 1.399 . S
C365 C366 1.376 . S
C366 H353 0.930 . S
C366 C365 1.376 . S
C366 C367 1.388 . S
C367 H354 0.930 . S
C367 C366 1.388 . S
C367 C368 1.390 . S
C368 C367 1.390 . S
C368 C369 1.394 . S
C368 C374 1.465 . S
C369 C364 1.399 . S
C369 C368 1.394 . S
C369 C370 1.516 . S
C370 C369 1.516 . S
C370 C371 1.502 . S
C370 C372 1.561 . S
C370 C373 1.526 . S
C371 H355 0.959 . S
C371 H356 0.959 . S
C371 H357 0.961 . S
C371 C370 1.502 . S
C372 H358 0.960 . S
C372 H359 0.961 . S
C372 H360 0.959 . S
C372 C370 1.561 . S
C373 C370 1.526 . S
C373 C374 1.396 . S
C373 C378 1.390 . S
C374 C368 1.465 . S
C374 C373 1.396 . S
C374 C375 1.399 . S
C375 H361 0.929 . S
C375 C374 1.399 . S
C375 C376 1.385 . S
C376 H362 0.931 . S
C376 C375 1.385 . S
C376 C377 1.389 . S
C377 C376 1.389 . S
C377 C378 1.387 . S
C378 H363 0.930 . S
C378 C373 1.390 . S
C378 C377 1.387 . S
H379 C391 0.930 . S
H380 C393 0.930 . S
H381 C394 0.930 . S
H382 C398 0.959 . S
H383 C398 0.959 . S
H384 C398 0.961 . S
H385 C399 0.960 . S
H386 C399 0.961 . S
H387 C399 0.959 . S
H388 C402 0.929 . S
H389 C403 0.931 . S
H390 C405 0.930 . S
C391 H379 0.930 . S
C391 C392 1.399 . S
C391 C396 1.399 . S
C392 C391 1.399 . S
C392 C393 1.376 . S
C393 H380 0.930 . S
C393 C392 1.376 . S
C393 C394 1.388 . S
C394 H381 0.930 . S
C394 C393 1.388 . S
C394 C395 1.390 . S
C395 C394 1.390 . S
C395 C396 1.394 . S
C395 C401 1.465 . S
C396 C391 1.399 . S
C396 C395 1.394 . S
C396 C397 1.516 . S
C397 C396 1.516 . S
C397 C398 1.502 . S
C397 C399 1.561 . S
C397 C400 1.526 . S
C398 H382 0.959 . S
C398 H383 0.959 . S
C398 H384 0.961 . S
C398 C397 1.502 . S
C399 H385 0.960 . S
C399 H386 0.961 . S
C399 H387 0.959 . S
C399 C397 1.561 . S
C400 C397 1.526 . S
C400 C401 1.396 . S
C400 C405 1.390 . S
C401 C395 1.465 . S
C401 C400 1.396 . S
C401 C402 1.399 . S
C402 H388 0.929 . S
C402 C401 1.399 . S
C402 C403 1.385 . S
C403 H389 0.931 . S
C403 C402 1.385 . S
C403 C404 1.389 . S
C404 C403 1.389 . S
C404 C405 1.387 . S
C405 H390 0.930 . S
C405 C400 1.390 . S
C405 C404 1.387 . S
H406 C418 0.930 . S
H407 C420 0.930 . S
H408 C421 0.930 . S
H409 C425 0.959 . S
H410 C425 0.959 . S
H411 C425 0.961 . S
H412 C426 0.960 . S
H413 C426 0.961 . S
H414 C426 0.959 . S
H415 C429 0.929 . S
H416 C430 0.931 . S
H417 C432 0.930 . S
C418 H406 0.930 . S
C418 C419 1.399 . S
C418 C423 1.399 . S
C419 C418 1.399 . S
C419 C420 1.376 . S
C420 H407 0.930 . S
C420 C419 1.376 . S
C420 C421 1.388 . S
C421 H408 0.930 . S
C421 C420 1.388 . S
C421 C422 1.390 . S
C422 C421 1.390 . S
C422 C423 1.394 . S
C422 C428 1.465 . S
C423 C418 1.399 . S
C423 C422 1.394 . S
C423 C424 1.516 . S
C424 C423 1.516 . S
C424 C425 1.502 . S
C424 C426 1.561 . S
C424 C427 1.526 . S
C425 H409 0.959 . S
C425 H410 0.959 . S
C425 H411 0.961 . S
C425 C424 1.502 . S
C426 H412 0.960 . S
C426 H413 0.961 . S
C426 H414 0.959 . S
C426 C424 1.561 . S
C427 C424 1.526 . S
C427 C428 1.396 . S
C427 C432 1.390 . S
C428 C422 1.465 . S
C428 C427 1.396 . S
C428 C429 1.399 . S
C429 H415 0.929 . S
C429 C428 1.399 . S
C429 C430 1.385 . S
C430 H416 0.931 . S
C430 C429 1.385 . S
C430 C431 1.389 . S
C431 C430 1.389 . S
C431 C432 1.387 . S
C432 H417 0.930 . S
C432 C427 1.390 . S
C432 C431 1.387 . S
H433 C445 0.930 . S
H434 C447 0.930 . S
H435 C448 0.930 . S
H436 C452 0.959 . S
H437 C452 0.959 . S
H438 C452 0.961 . S
H439 C453 0.960 . S
H440 C453 0.961 . S
H441 C453 0.959 . S
H442 C456 0.929 . S
H443 C457 0.931 . S
H444 C459 0.930 . S
C445 H433 0.930 . S
C445 C446 1.399 . S
C445 C450 1.399 . S
C446 C445 1.399 . S
C446 C447 1.376 . S
C447 H434 0.930 . S
C447 C446 1.376 . S
C447 C448 1.388 . S
C448 H435 0.930 . S
C448 C447 1.388 . S
C448 C449 1.390 . S
C449 C448 1.390 . S
C449 C450 1.394 . S
C449 C455 1.465 . S
C450 C445 1.399 . S
C450 C449 1.394 . S
C450 C451 1.516 . S
C451 C450 1.516 . S
C451 C452 1.502 . S
C451 C453 1.561 . S
C451 C454 1.526 . S
C452 H436 0.959 . S
C452 H437 0.959 . S
C452 H438 0.961 . S
C452 C451 1.502 . S
C453 H439 0.960 . S
C453 H440 0.961 . S
C453 H441 0.959 . S
C453 C451 1.561 . S
C454 C451 1.526 . S
C454 C455 1.396 . S
C454 C459 1.390 . S
C455 C449 1.465 . S
C455 C454 1.396 . S
C455 C456 1.399 . S
C456 H442 0.929 . S
C456 C455 1.399 . S
C456 C457 1.385 . S
C457 H443 0.931 . S
C457 C456 1.385 . S
C457 C458 1.389 . S
C458 C457 1.389 . S
C458 C459 1.387 . S
C459 H444 0.930 . S
C459 C454 1.390 . S
C459 C458 1.387 . S
H460 C472 0.930 . S
H461 C474 0.930 . S
H462 C475 0.930 . S
H463 C479 0.959 . S
H464 C479 0.959 . S
H465 C479 0.961 . S
H466 C480 0.960 . S
H467 C480 0.961 . S
H468 C480 0.959 . S
H469 C483 0.929 . S
H470 C484 0.931 . S
H471 C486 0.930 . S
C472 H460 0.930 . S
C472 C473 1.399 . S
C472 C477 1.399 . S
C473 C472 1.399 . S
C473 C474 1.376 . S
C474 H461 0.930 . S
C474 C473 1.376 . S
C474 C475 1.388 . S
C475 H462 0.930 . S
C475 C474 1.388 . S
C475 C476 1.390 . S
C476 C475 1.390 . S
C476 C477 1.394 . S
C476 C482 1.465 . S
C477 C472 1.399 . S
C477 C476 1.394 . S
C477 C478 1.516 . S
C478 C477 1.516 . S
C478 C479 1.502 . S
C478 C480 1.561 . S
C478 C481 1.526 . S
C479 H463 0.959 . S
C479 H464 0.959 . S
C479 H465 0.961 . S
C479 C478 1.502 . S
C480 H466 0.960 . S
C480 H467 0.961 . S
C480 H468 0.959 . S
C480 C478 1.561 . S
C481 C478 1.526 . S
C481 C482 1.396 . S
C481 C486 1.390 . S
C482 C476 1.465 . S
C482 C481 1.396 . S
C482 C483 1.399 . S
C483 H469 0.929 . S
C483 C482 1.399 . S
C483 C484 1.385 . S
C484 H470 0.931 . S
C484 C483 1.385 . S
C484 C485 1.389 . S
C485 C484 1.389 . S
C485 C486 1.387 . S
C486 H471 0.930 . S
C486 C481 1.390 . S
C486 C485 1.387 . S
H487 C499 0.930 . S
H488 C501 0.930 . S
H489 C502 0.930 . S
H490 C506 0.959 . S
H491 C506 0.959 . S
H492 C506 0.961 . S
H493 C507 0.960 . S
H494 C507 0.961 . S
H495 C507 0.959 . S
H496 C510 0.929 . S
H497 C511 0.931 . S
H498 C513 0.930 . S
C499 H487 0.930 . S
C499 C500 1.399 . S
C499 C504 1.399 . S
C500 C499 1.399 . S
C500 C501 1.376 . S
C501 H488 0.930 . S
C501 C500 1.376 . S
C501 C502 1.388 . S
C502 H489 0.930 . S
C502 C501 1.388 . S
C502 C503 1.390 . S
C503 C502 1.390 . S
C503 C504 1.394 . S
C503 C509 1.465 . S
C504 C499 1.399 . S
C504 C503 1.394 . S
C504 C505 1.516 . S
C505 C504 1.516 . S
C505 C506 1.502 . S
C505 C507 1.561 . S
C505 C508 1.526 . S
C506 H490 0.959 . S
C506 H491 0.959 . S
C506 H492 0.961 . S
C506 C505 1.502 . S
C507 H493 0.960 . S
C507 H494 0.961 . S
C507 H495 0.959 . S
C507 C505 1.561 . S
C508 C505 1.526 . S
C508 C509 1.396 . S
C508 C513 1.390 . S
C509 C503 1.465 . S
C509 C508 1.396 . S
C509 C510 1.399 . S
C510 H496 0.929 . S
C510 C509 1.399 . S
C510 C511 1.385 . S
C511 H497 0.931 . S
C511 C510 1.385 . S
C511 C512 1.389 . S
C512 C511 1.389 . S
C512 C513 1.387 . S
C513 H498 0.930 . S
C513 C508 1.390 . S
C513 C512 1.387 . S
H514 C526 0.930 . S
H515 C528 0.930 . S
H516 C529 0.930 . S
H517 C533 0.959 . S
H518 C533 0.959 . S
H519 C533 0.961 . S
H520 C534 0.960 . S
H521 C534 0.961 . S
H522 C534 0.959 . S
H523 C537 0.929 . S
H524 C538 0.931 . S
H525 C540 0.930 . S
C526 H514 0.930 . S
C526 C527 1.399 . S
C526 C531 1.399 . S
C527 C526 1.399 . S
C527 C528 1.376 . S
C528 H515 0.930 . S
C528 C527 1.376 . S
C528 C529 1.388 . S
C529 H516 0.930 . S
C529 C528 1.388 . S
C529 C530 1.390 . S
C530 C529 1.390 . S
C530 C531 1.394 . S
C530 C536 1.465 . S
C531 C526 1.399 . S
C531 C530 1.394 . S
C531 C532 1.516 . S
C532 C531 1.516 . S
C532 C533 1.502 . S
C532 C534 1.561 . S
C532 C535 1.526 . S
C533 H517 0.959 . S
C533 H518 0.959 . S
C533 H519 0.961 . S
C533 C532 1.502 . S
C534 H520 0.960 . S
C534 H521 0.961 . S
C534 H522 0.959 . S
C534 C532 1.561 . S
C535 C532 1.526 . S
C535 C536 1.396 . S
C535 C540 1.390 . S
C536 C530 1.465 . S
C536 C535 1.396 . S
C536 C537 1.399 . S
C537 H523 0.929 . S
C537 C536 1.399 . S
C537 C538 1.385 . S
C538 H524 0.931 . S
C538 C537 1.385 . S
C538 C539 1.389 . S
C539 C538 1.389 . S
C539 C540 1.387 . S
C540 H525 0.930 . S
C540 C535 1.390 . S
C540 C539 1.387 . S
H541 C553 0.930 . S
H542 C555 0.930 . S
H543 C556 0.930 . S
H544 C560 0.959 . S
H545 C560 0.959 . S
H546 C560 0.961 . S
H547 C561 0.960 . S
H548 C561 0.961 . S
H549 C561 0.959 . S
H550 C564 0.929 . S
H551 C565 0.931 . S
H552 C567 0.930 . S
C553 H541 0.930 . S
C553 C554 1.399 . S
C553 C558 1.399 . S
C554 C553 1.399 . S
C554 C555 1.376 . S
C555 H542 0.930 . S
C555 C554 1.376 . S
C555 C556 1.388 . S
C556 H543 0.930 . S
C556 C555 1.388 . S
C556 C557 1.390 . S
C557 C556 1.390 . S
C557 C558 1.394 . S
C557 C563 1.465 . S
C558 C553 1.399 . S
C558 C557 1.394 . S
C558 C559 1.516 . S
C559 C558 1.516 . S
C559 C560 1.502 . S
C559 C561 1.561 . S
C559 C562 1.526 . S
C560 H544 0.959 . S
C560 H545 0.959 . S
C560 H546 0.961 . S
C560 C559 1.502 . S
C561 H547 0.960 . S
C561 H548 0.961 . S
C561 H549 0.959 . S
C561 C559 1.561 . S
C562 C559 1.526 . S
C562 C563 1.396 . S
C562 C567 1.390 . S
C563 C557 1.465 . S
C563 C562 1.396 . S
C563 C564 1.399 . S
C564 H550 0.929 . S
C564 C563 1.399 . S
C564 C565 1.385 . S
C565 H551 0.931 . S
C565 C564 1.385 . S
C565 C566 1.389 . S
C566 C565 1.389 . S
C566 C567 1.387 . S
C567 H552 0.930 . S
C567 C562 1.390 . S
C567 C566 1.387 . S
H568 C580 0.930 . S
H569 C582 0.930 . S
H570 C583 0.930 . S
H571 C587 0.959 . S
H572 C587 0.959 . S
H573 C587 0.961 . S
H574 C588 0.960 . S
H575 C588 0.961 . S
H576 C588 0.959 . S
H577 C591 0.929 . S
H578 C592 0.931 . S
H579 C594 0.930 . S
C580 H568 0.930 . S
C580 C581 1.399 . S
C580 C585 1.399 1_565 S
C581 C580 1.399 . S
C581 C582 1.376 . S
C582 H569 0.930 . S
C582 C581 1.376 . S
C582 C583 1.388 1_565 S
C583 H570 0.930 . S
C583 C582 1.388 1_545 S
C583 C584 1.390 . S
C584 C583 1.390 . S
C584 C585 1.394 . S
C584 C590 1.465 . S
C585 C580 1.399 1_545 S
C585 C584 1.394 . S
C585 C586 1.516 . S
C586 C585 1.516 . S
C586 C587 1.502 . S
C586 C588 1.561 . S
C586 C589 1.526 . S
C587 H571 0.959 . S
C587 H572 0.959 . S
C587 H573 0.961 . S
C587 C586 1.502 . S
C588 H574 0.960 . S
C588 H575 0.961 . S
C588 H576 0.959 . S
C588 C586 1.561 . S
C589 C586 1.526 . S
C589 C590 1.396 . S
C589 C594 1.390 . S
C590 C584 1.465 . S
C590 C589 1.396 . S
C590 C591 1.399 . S
C591 H577 0.929 . S
C591 C590 1.399 . S
C591 C592 1.385 . S
C592 H578 0.931 . S
C592 C591 1.385 . S
C592 C593 1.389 . S
C593 C592 1.389 . S
C593 C594 1.387 . S
C594 H579 0.930 . S
C594 C589 1.390 . S
C594 C593 1.387 . S
H595 C607 0.930 . S
H596 C609 0.930 . S
H597 C610 0.930 . S
H598 C614 0.959 . S
H599 C614 0.959 . S
H600 C614 0.961 . S
H601 C615 0.960 . S
H602 C615 0.961 . S
H603 C615 0.959 . S
H604 C618 0.929 . S
H605 C619 0.931 . S
H606 C621 0.930 . S
C607 H595 0.930 . S
C607 C608 1.399 . S
C607 C612 1.399 . S
C608 C607 1.399 . S
C608 C609 1.376 . S
C609 H596 0.930 . S
C609 C608 1.376 . S
C609 C610 1.388 . S
C610 H597 0.930 . S
C610 C609 1.388 . S
C610 C611 1.390 . S
C611 C610 1.390 . S
C611 C612 1.394 . S
C611 C617 1.465 . S
C612 C607 1.399 . S
C612 C611 1.394 . S
C612 C613 1.516 . S
C613 C612 1.516 . S
C613 C614 1.502 . S
C613 C615 1.561 . S
C613 C616 1.526 . S
C614 H598 0.959 . S
C614 H599 0.959 . S
C614 H600 0.961 . S
C614 C613 1.502 . S
C615 H601 0.960 . S
C615 H602 0.961 . S
C615 H603 0.959 . S
C615 C613 1.561 . S
C616 C613 1.526 . S
C616 C617 1.396 . S
C616 C621 1.390 . S
C617 C611 1.465 . S
C617 C616 1.396 . S
C617 C618 1.399 1_455 S
C618 H604 0.929 . S
C618 C617 1.399 1_655 S
C618 C619 1.385 . S
C619 H605 0.931 . S
C619 C618 1.385 . S
C619 C620 1.389 . S
C620 C619 1.389 . S
C620 C621 1.387 1_655 S
C621 H606 0.930 . S
C621 C616 1.390 . S
C621 C620 1.387 1_455 S
H622 C634 0.930 . S
H623 C636 0.930 . S
H624 C637 0.930 . S
H625 C641 0.959 . S
H626 C641 0.959 . S
H627 C641 0.961 . S
H628 C642 0.960 . S
H629 C642 0.961 . S
H630 C642 0.959 . S
H631 C645 0.929 . S
H632 C646 0.931 . S
H633 C648 0.930 . S
C634 H622 0.930 . S
C634 C635 1.399 . S
C634 C639 1.399 . S
C635 C634 1.399 . S
C635 C636 1.376 . S
C636 H623 0.930 . S
C636 C635 1.376 . S
C636 C637 1.388 . S
C637 H624 0.930 . S
C637 C636 1.388 . S
C637 C638 1.390 . S
C638 C637 1.390 . S
C638 C639 1.394 . S
C638 C644 1.465 . S
C639 C634 1.399 . S
C639 C638 1.394 . S
C639 C640 1.516 . S
C640 C639 1.516 . S
C640 C641 1.502 . S
C640 C642 1.561 . S
C640 C643 1.526 . S
C641 H625 0.959 . S
C641 H626 0.959 . S
C641 H627 0.961 . S
C641 C640 1.502 . S
C642 H628 0.960 . S
C642 H629 0.961 . S
C642 H630 0.959 . S
C642 C640 1.561 . S
C643 C640 1.526 . S
C643 C644 1.396 . S
C643 C648 1.396 . S
C644 C638 1.465 . S
C644 C643 1.396 . S
C644 C645 1.399 1_565 S
C645 H631 0.929 . S
C645 C644 1.399 1_545 S
C645 C646 1.385 . S
C646 H632 0.931 . S
C646 C645 1.385 . S
C646 C647 1.389 . S
C647 C646 1.389 . S
C647 C648 1.379 1_545 S
C648 H633 0.930 . S
C648 C643 1.396 . S
C648 C647 1.379 1_565 S
H649 C661 0.930 . S
H650 C663 0.930 . S
H651 C664 0.930 . S
H652 C668 0.959 . S
H653 C668 0.959 . S
H654 C668 0.961 . S
H655 C669 0.979 . S
H656 C669 0.961 . S
H657 C669 0.959 . S
H658 C672 0.929 . S
H659 C673 0.931 . S
H660 C675 0.930 . S
C661 H649 0.930 . S
C661 C662 1.399 . S
C661 C666 1.399 1_455 S
C662 C661 1.399 . S
C662 C663 1.376 . S
C663 H650 0.930 . S
C663 C662 1.376 . S
C663 C664 1.388 1_455 S
C664 H651 0.930 . S
C664 C663 1.388 1_655 S
C664 C665 1.390 . S
C665 C664 1.390 . S
C665 C666 1.394 . S
C665 C671 1.465 . S
C666 C661 1.399 1_655 S
C666 C665 1.394 . S
C666 C667 1.516 . S
C667 C666 1.516 . S
C667 C668 1.502 . S
C667 C669 1.561 . S
C667 C670 1.526 . S
C668 H652 0.959 . S
C668 H653 0.959 . S
C668 H654 0.961 . S
C668 C667 1.502 . S
C669 H655 0.979 . S
C669 H656 0.961 . S
C669 H657 0.959 . S
C669 C667 1.561 . S
C670 C667 1.526 . S
C670 C671 1.396 . S
C670 C675 1.390 . S
C671 C665 1.465 . S
C671 C670 1.396 . S
C671 C672 1.399 . S
C672 H658 0.929 . S
C672 C671 1.399 . S
C672 C673 1.385 . S
C673 H659 0.931 . S
C673 C672 1.385 . S
C673 C674 1.389 . S
C674 C673 1.389 . S
C674 C675 1.387 . S
C675 H660 0.930 . S
C675 C670 1.390 . S
C675 C674 1.387 . S
H676 C688 0.930 . S
H677 C690 0.930 . S
H678 C691 0.930 . S
H679 C695 0.959 . S
H680 C695 0.959 . S
H681 C695 0.961 . S
H682 C696 0.960 . S
H683 C696 0.961 . S
H684 C696 0.959 . S
H685 C699 0.929 . S
H686 C700 0.931 . S
H687 C702 0.930 . S
C688 H676 0.930 . S
C688 C689 1.399 . S
C688 C693 1.399 1_545 S
C689 C688 1.399 . S
C689 C690 1.376 . S
C690 H677 0.930 . S
C690 C689 1.376 . S
C690 C691 1.388 1_545 S
C691 H678 0.930 . S
C691 C690 1.388 1_565 S
C691 C692 1.390 . S
C692 C691 1.390 . S
C692 C693 1.394 . S
C692 C698 1.465 . S
C693 C688 1.399 1_565 S
C693 C692 1.394 . S
C693 C694 1.516 . S
C694 C693 1.516 . S
C694 C695 1.502 . S
C694 C696 1.561 . S
C694 C697 1.526 . S
C695 H679 0.959 . S
C695 H680 0.959 . S
C695 H681 0.961 . S
C695 C694 1.502 . S
C696 H682 0.960 . S
C696 H683 0.961 . S
C696 H684 0.959 . S
C696 C694 1.561 . S
C697 C694 1.526 . S
C697 C698 1.396 . S
C697 C702 1.390 . S
C698 C692 1.465 . S
C698 C697 1.396 . S
C698 C699 1.399 . S
C699 H685 0.929 . S
C699 C698 1.399 . S
C699 C700 1.385 . S
C700 H686 0.931 . S
C700 C699 1.385 . S
C700 C701 1.389 . S
C701 C700 1.389 . S
C701 C702 1.387 . S
C702 H687 0.930 . S
C702 C697 1.390 . S
C702 C701 1.387 . S
H703 C715 0.930 . S
H704 C717 0.930 . S
H705 C718 0.930 . S
H706 C722 0.959 . S
H707 C722 0.959 . S
H708 C722 0.961 . S
H709 C723 0.960 . S
H710 C723 0.961 . S
H711 C723 0.959 . S
H712 C726 0.929 . S
H713 C727 0.931 . S
H714 C729 0.930 . S
C715 H703 0.930 . S
C715 C716 1.399 . S
C715 C720 1.399 . S
C716 C715 1.399 . S
C716 C717 1.376 . S
C717 H704 0.930 . S
C717 C716 1.376 . S
C717 C718 1.388 . S
C718 H705 0.930 . S
C718 C717 1.388 . S
C718 C719 1.390 . S
C719 C718 1.390 . S
C719 C720 1.394 . S
C719 C725 1.465 . S
C720 C715 1.399 . S
C720 C719 1.394 . S
C720 C721 1.516 . S
C721 C720 1.516 . S
C721 C722 1.502 . S
C721 C723 1.561 . S
C721 C724 1.526 . S
C722 H706 0.959 . S
C722 H707 0.959 . S
C722 H708 0.961 . S
C722 C721 1.502 . S
C723 H709 0.960 . S
C723 H710 0.961 . S
C723 H711 0.959 . S
C723 C721 1.561 . S
C724 C721 1.526 . S
C724 C725 1.396 . S
C724 C729 1.390 1_655 S
C725 C719 1.465 . S
C725 C724 1.396 . S
C725 C726 1.399 . S
C726 H712 0.929 . S
C726 C725 1.399 . S
C726 C727 1.385 1_655 S
C727 H713 0.931 . S
C727 C726 1.385 1_455 S
C727 C728 1.389 . S
C728 C727 1.389 . S
C728 C729 1.387 . S
C729 H714 0.930 . S
C729 C724 1.390 1_455 S
C729 C728 1.387 . S
H730 C742 0.930 . S
H731 C744 0.930 . S
H732 C745 0.930 . S
H733 C749 0.959 . S
H734 C749 0.959 . S
H735 C749 0.961 . S
H736 C750 0.960 . S
H737 C750 0.961 . S
H738 C750 0.959 . S
H739 C753 0.929 . S
H740 C754 0.931 . S
H741 C756 0.930 1_545 S
C742 H730 0.930 . S
C742 C743 1.399 . S
C742 C747 1.399 . S
C743 C742 1.399 . S
C743 C744 1.376 . S
C744 H731 0.930 . S
C744 C743 1.376 . S
C744 C745 1.388 . S
C745 H732 0.930 . S
C745 C744 1.388 . S
C745 C746 1.390 . S
C746 C745 1.390 . S
C746 C747 1.394 . S
C746 C752 1.465 . S
C747 C742 1.399 . S
C747 C746 1.394 . S
C747 C748 1.516 . S
C748 C747 1.516 . S
C748 C749 1.502 . S
C748 C750 1.561 . S
C748 C751 1.526 . S
C749 H733 0.959 . S
C749 H734 0.959 . S
C749 H735 0.961 . S
C749 C748 1.502 . S
C750 H736 0.960 . S
C750 H737 0.961 . S
C750 H738 0.959 . S
C750 C748 1.561 . S
C751 C748 1.526 . S
C751 C752 1.396 . S
C751 C756 1.385 1_545 S
C752 C746 1.465 . S
C752 C751 1.396 . S
C752 C753 1.399 1_545 S
C753 H739 0.929 . S
C753 C752 1.399 1_565 S
C753 C754 1.385 . S
C754 H740 0.931 . S
C754 C753 1.385 . S
C754 C755 1.389 . S
C755 C754 1.389 . S
C755 C756 1.392 . S
C756 H741 0.930 1_565 S
C756 C751 1.385 1_565 S
C756 C755 1.392 . S
H757 C769 0.930 . S
H758 C771 0.930 . S
H759 C772 0.930 . S
H760 C776 0.959 . S
H761 C776 0.959 . S
H762 C776 0.961 . S
H763 C777 0.960 . S
H764 C777 0.961 . S
H765 C777 0.959 . S
H766 C780 0.929 . S
H767 C781 0.931 . S
H768 C783 0.931 . S
C769 H757 0.930 . S
C769 C770 1.399 . S
C769 C774 1.399 . S
C770 C769 1.399 . S
C770 C771 1.376 . S
C771 H758 0.930 . S
C771 C770 1.376 . S
C771 C772 1.388 . S
C772 H759 0.930 . S
C772 C771 1.388 . S
C772 C773 1.390 . S
C773 C772 1.390 . S
C773 C774 1.394 . S
C773 C779 1.465 . S
C774 C769 1.399 . S
C774 C773 1.394 . S
C774 C775 1.516 . S
C775 C774 1.516 . S
C775 C776 1.502 . S
C775 C777 1.561 . S
C775 C778 1.526 . S
C776 H760 0.959 . S
C776 H761 0.959 . S
C776 H762 0.961 . S
C776 C775 1.502 . S
C777 H763 0.960 . S
C777 H764 0.961 . S
C777 H765 0.959 . S
C777 C775 1.561 . S
C778 C775 1.526 . S
C778 C779 1.396 . S
C778 C783 1.409 . S
C779 C773 1.465 . S
C779 C778 1.396 . S
C779 C780 1.399 1_455 S
C780 H766 0.929 . S
C780 C779 1.399 1_655 S
C780 C781 1.385 . S
C781 H767 0.931 . S
C781 C780 1.385 . S
C781 C782 1.389 . S
C782 C781 1.389 . S
C782 C783 1.367 1_655 S
C783 H768 0.931 . S
C783 C778 1.409 . S
C783 C782 1.367 1_455 S
H784 C796 0.930 . S
H785 C798 0.930 . S
H786 C799 0.930 . S
H787 C803 0.959 . S
H788 C803 0.959 . S
H789 C803 0.961 . S
H790 C804 0.960 . S
H791 C804 0.961 . S
H792 C804 0.959 . S
H793 C807 0.929 . S
H794 C808 0.931 . S
H795 C810 0.930 . S
C796 H784 0.930 . S
C796 C797 1.399 . S
C796 C801 1.399 . S
C797 C796 1.399 . S
C797 C798 1.376 . S
C798 H785 0.930 . S
C798 C797 1.376 . S
C798 C799 1.388 . S
C799 H786 0.930 . S
C799 C798 1.388 . S
C799 C800 1.390 . S
C800 C799 1.390 . S
C800 C801 1.394 . S
C800 C806 1.465 . S
C801 C796 1.399 . S
C801 C800 1.394 . S
C801 C802 1.516 . S
C802 C801 1.516 . S
C802 C803 1.502 . S
C802 C804 1.561 . S
C802 C805 1.526 . S
C803 H787 0.959 . S
C803 H788 0.959 . S
C803 H789 0.961 . S
C803 C802 1.502 . S
C804 H790 0.960 . S
C804 H791 0.961 . S
C804 H792 0.959 . S
C804 C802 1.561 . S
C805 C802 1.526 . S
C805 C806 1.396 . S
C805 C810 1.390 . S
C806 C800 1.465 . S
C806 C805 1.396 . S
C806 C807 1.399 . S
C807 H793 0.929 . S
C807 C806 1.399 . S
C807 C808 1.385 . S
C808 H794 0.931 . S
C808 C807 1.385 . S
C808 C809 1.389 . S
C809 C808 1.389 . S
C809 C810 1.387 . S
C810 H795 0.930 . S
C810 C805 1.390 . S
C810 C809 1.387 . S
H811 C823 0.930 . S
H812 C825 0.930 . S
H813 C826 0.930 . S
H814 C830 0.959 . S
H815 C830 0.959 . S
H816 C830 0.961 . S
H817 C831 0.960 . S
H818 C831 0.961 . S
H819 C831 0.959 . S
H820 C834 0.929 . S
H821 C835 0.931 . S
H822 C837 0.930 . S
C823 H811 0.930 . S
C823 C824 1.399 . S
C823 C828 1.399 . S
C824 C823 1.399 . S
C824 C825 1.376 . S
C825 H812 0.930 . S
C825 C824 1.376 . S
C825 C826 1.388 . S
C826 H813 0.930 . S
C826 C825 1.388 . S
C826 C827 1.390 . S
C827 C826 1.390 . S
C827 C828 1.394 . S
C827 C833 1.465 . S
C828 C823 1.399 . S
C828 C827 1.394 . S
C828 C829 1.516 . S
C829 C828 1.516 . S
C829 C830 1.502 . S
C829 C831 1.561 . S
C829 C832 1.526 . S
C830 H814 0.959 . S
C830 H815 0.959 . S
C830 H816 0.961 . S
C830 C829 1.502 . S
C831 H817 0.960 . S
C831 H818 0.961 . S
C831 H819 0.959 . S
C831 C829 1.561 . S
C832 C829 1.526 . S
C832 C833 1.396 . S
C832 C837 1.390 . S
C833 C827 1.465 . S
C833 C832 1.396 . S
C833 C834 1.399 . S
C834 H820 0.929 . S
C834 C833 1.399 . S
C834 C835 1.385 . S
C835 H821 0.931 . S
C835 C834 1.385 . S
C835 C836 1.389 . S
C836 C835 1.389 . S
C836 C837 1.387 . S
C837 H822 0.930 . S
C837 C832 1.390 . S
C837 C836 1.387 . S
H838 C850 0.930 . S
H839 C852 0.930 . S
H840 C853 0.930 . S
H841 C857 0.959 . S
H842 C857 0.959 . S
H843 C857 0.961 . S
H844 C858 0.960 . S
H845 C858 0.961 . S
H846 C858 0.959 . S
H847 C861 0.929 . S
H848 C862 0.931 . S
H849 C864 0.930 . S
C850 H838 0.930 . S
C850 C851 1.399 . S
C850 C855 1.399 . S
C851 C850 1.399 . S
C851 C852 1.376 . S
C852 H839 0.930 . S
C852 C851 1.376 . S
C852 C853 1.388 . S
C853 H840 0.930 . S
C853 C852 1.388 . S
C853 C854 1.390 . S
C854 C853 1.390 . S
C854 C855 1.394 . S
C854 C860 1.465 . S
C855 C850 1.399 . S
C855 C854 1.394 . S
C855 C856 1.516 . S
C856 C855 1.516 . S
C856 C857 1.502 . S
C856 C858 1.561 . S
C856 C859 1.526 . S
C857 H841 0.959 . S
C857 H842 0.959 . S
C857 H843 0.961 . S
C857 C856 1.502 . S
C858 H844 0.960 . S
C858 H845 0.961 . S
C858 H846 0.959 . S
C858 C856 1.561 . S
C859 C856 1.526 . S
C859 C860 1.396 . S
C859 C864 1.390 . S
C860 C854 1.465 . S
C860 C859 1.396 . S
C860 C861 1.399 . S
C861 H847 0.929 . S
C861 C860 1.399 . S
C861 C862 1.385 . S
C862 H848 0.931 . S
C862 C861 1.385 . S
C862 C863 1.389 . S
C863 C862 1.389 . S
C863 C864 1.387 . S
C864 H849 0.930 . S
C864 C859 1.390 . S
C864 C863 1.387 . S
H865 C877 0.930 . S
H866 C879 0.930 . S
H867 C880 0.930 . S
H868 C884 0.959 . S
H869 C884 0.959 . S
H870 C884 0.961 . S
H871 C885 0.960 . S
H872 C885 0.961 . S
H873 C885 0.959 . S
H874 C888 0.929 . S
H875 C889 0.931 . S
H876 C891 0.930 . S
C877 H865 0.930 . S
C877 C878 1.399 . S
C877 C882 1.399 . S
C878 C877 1.399 . S
C878 C879 1.376 . S
C879 H866 0.930 . S
C879 C878 1.376 . S
C879 C880 1.388 . S
C880 H867 0.930 . S
C880 C879 1.388 . S
C880 C881 1.390 . S
C881 C880 1.390 . S
C881 C882 1.394 . S
C881 C887 1.465 . S
C882 C877 1.399 . S
C882 C881 1.394 . S
C882 C883 1.516 . S
C883 C882 1.516 . S
C883 C884 1.502 . S
C883 C885 1.561 . S
C883 C886 1.526 . S
C884 H868 0.959 . S
C884 H869 0.959 . S
C884 H870 0.961 . S
C884 C883 1.502 . S
C885 H871 0.960 . S
C885 H872 0.961 . S
C885 H873 0.959 . S
C885 C883 1.561 . S
C886 C883 1.526 . S
C886 C887 1.396 . S
C886 C891 1.390 . S
C887 C881 1.465 . S
C887 C886 1.396 . S
C887 C888 1.399 . S
C888 H874 0.929 . S
C888 C887 1.399 . S
C888 C889 1.385 . S
C889 H875 0.931 . S
C889 C888 1.385 . S
C889 C890 1.389 . S
C890 C889 1.389 . S
C890 C891 1.387 . S
C891 H876 0.930 . S
C891 C886 1.390 . S
C891 C890 1.387 . S
H892 C904 0.930 . S
H893 C906 0.930 . S
H894 C907 0.930 1_556 S
H895 C911 0.959 . S
H896 C911 0.959 . S
H897 C911 0.961 . S
H898 C912 0.960 . S
H899 C912 0.961 . S
H900 C912 0.959 . S
H901 C915 0.929 1_545 S
H902 C916 0.931 . S
H903 C918 0.930 . S
C904 H892 0.930 . S
C904 C905 1.399 . S
C904 C909 1.399 . S
C905 C904 1.399 . S
C905 C906 1.376 . S
C906 H893 0.930 . S
C906 C905 1.376 . S
C906 C907 1.388 . S
C907 H894 0.930 1_554 S
C907 C906 1.388 . S
C907 C908 1.390 . S
C908 C907 1.390 . S
C908 C909 1.394 . S
C908 C914 1.465 1_544 S
C909 C904 1.399 . S
C909 C908 1.394 . S
C909 C910 1.516 1_545 S
C910 C909 1.516 1_565 S
C910 C911 1.502 . S
C910 C912 1.561 . S
C910 C913 1.526 1_554 S
C911 H895 0.959 . S
C911 H896 0.959 . S
C911 H897 0.961 . S
C911 C910 1.502 . S
C912 H898 0.960 . S
C912 H899 0.961 . S
C912 H900 0.959 . S
C912 C910 1.561 . S
C913 C910 1.526 1_556 S
C913 C914 1.396 . S
C913 C918 1.390 . S
C914 C908 1.465 1_566 S
C914 C913 1.396 . S
C914 C915 1.399 . S
C915 H901 0.929 1_565 S
C915 C914 1.399 . S
C915 C916 1.385 . S
C916 H902 0.931 . S
C916 C915 1.385 . S
C916 C917 1.389 . S
C917 C916 1.389 . S
C917 C918 1.387 . S
C918 H903 0.930 . S
C918 C913 1.390 . S
C918 C917 1.387 . S
H919 C931 0.930 . S
H920 C933 0.930 . S
H921 C934 0.930 . S
H922 C938 0.959 . S
H923 C938 0.959 . S
H924 C938 0.961 . S
H925 C939 0.960 1_554 S
H926 C939 0.961 1_455 S
H927 C939 0.959 . S
H928 C942 0.929 . S
H929 C943 0.931 . S
H930 C945 0.930 . S
C931 H919 0.930 . S
C931 C932 1.399 . S
C931 C936 1.399 . S
C932 C931 1.399 . S
C932 C933 1.376 . S
C933 H920 0.930 . S
C933 C932 1.376 . S
C933 C934 1.388 . S
C934 H921 0.930 . S
C934 C933 1.388 . S
C934 C935 1.390 . S
C935 C934 1.390 . S
C935 C936 1.394 . S
C935 C941 1.465 1_654 S
C936 C931 1.399 . S
C936 C935 1.394 . S
C936 C937 1.516 1_655 S
C937 C936 1.516 1_455 S
C937 C938 1.502 . S
C937 C939 1.561 1_454 S
C937 C940 1.526 1_554 S
C938 H922 0.959 . S
C938 H923 0.959 . S
C938 H924 0.961 . S
C938 C937 1.502 . S
C939 H925 0.960 1_556 S
C939 H926 0.961 1_655 S
C939 H927 0.959 . S
C939 C937 1.561 1_656 S
C940 C937 1.526 1_556 S
C940 C941 1.396 . S
C940 C945 1.390 . S
C941 C935 1.465 1_456 S
C941 C940 1.396 . S
C941 C942 1.399 . S
C942 H928 0.929 . S
C942 C941 1.399 . S
C942 C943 1.385 . S
C943 H929 0.931 . S
C943 C942 1.385 . S
C943 C944 1.389 . S
C944 C943 1.389 . S
C944 C945 1.387 . S
C945 H930 0.930 . S
C945 C940 1.390 . S
C945 C944 1.387 . S
H946 C958 0.930 . S
H947 C960 0.930 . S
H948 C961 0.930 1_554 S
H949 C965 0.959 . S
H950 C965 0.959 . S
H951 C965 0.961 . S
H952 C966 0.960 . S
H953 C966 0.961 . S
H954 C966 0.959 . S
H955 C969 0.929 1_545 S
H956 C970 0.931 . S
H957 C972 0.930 . S
C958 H946 0.930 . S
C958 C959 1.399 . S
C958 C963 1.399 . S
C959 C958 1.399 . S
C959 C960 1.376 . S
C960 H947 0.930 . S
C960 C959 1.376 . S
C960 C961 1.388 . S
C961 H948 0.930 1_556 S
C961 C960 1.388 . S
C961 C962 1.390 . S
C962 C961 1.390 . S
C962 C963 1.394 . S
C962 C968 1.465 1_546 S
C963 C958 1.399 . S
C963 C962 1.394 . S
C963 C964 1.516 1_545 S
C964 C963 1.516 1_565 S
C964 C965 1.502 . S
C964 C966 1.561 . S
C964 C967 1.526 1_556 S
C965 H949 0.959 . S
C965 H950 0.959 . S
C965 H951 0.961 . S
C965 C964 1.502 . S
C966 H952 0.960 . S
C966 H953 0.961 . S
C966 H954 0.959 . S
C966 C964 1.561 . S
C967 C964 1.526 1_554 S
C967 C968 1.396 . S
C967 C972 1.390 . S
C968 C962 1.465 1_564 S
C968 C967 1.396 . S
C968 C969 1.399 . S
C969 H955 0.929 1_565 S
C969 C968 1.399 . S
C969 C970 1.385 . S
C970 H956 0.931 . S
C970 C969 1.385 . S
C970 C971 1.389 . S
C971 C970 1.389 . S
C971 C972 1.387 . S
C972 H957 0.930 . S
C972 C967 1.390 . S
C972 C971 1.387 . S
H973 C985 0.930 . S
H974 C987 0.930 . S
H975 C988 0.930 1_554 S
H976 C992 0.959 . S
H977 C992 0.959 . S
H978 C992 0.961 . S
H979 C993 0.962 1_655 S
H980 C993 0.961 . S
H981 C993 0.959 1_654 S
H982 C996 0.929 1_655 S
H983 C997 0.931 . S
H984 C999 0.930 . S
C985 H973 0.930 . S
C985 C986 1.399 . S
C985 C990 1.399 . S
C986 C985 1.399 . S
C986 C987 1.376 . S
C987 H974 0.930 . S
C987 C986 1.376 . S
C987 C988 1.388 . S
C988 H975 0.930 1_556 S
C988 C987 1.388 . S
C988 C989 1.390 . S
C989 C988 1.390 . S
C989 C990 1.394 . S
C989 C995 1.465 1_656 S
C990 C985 1.399 . S
C990 C989 1.394 . S
C990 C991 1.516 1_655 S
C991 C990 1.516 1_455 S
C991 C992 1.502 . S
C991 C993 1.561 . S
C991 C994 1.526 1_556 S
C992 H976 0.959 . S
C992 H977 0.959 . S
C992 H978 0.961 . S
C992 C991 1.502 . S
C993 H979 0.962 1_455 S
C993 H980 0.961 . S
C993 H981 0.959 1_456 S
C993 C991 1.561 . S
C994 C991 1.526 1_554 S
C994 C995 1.396 . S
C994 C999 1.390 . S
C995 C989 1.465 1_454 S
C995 C994 1.396 . S
C995 C996 1.399 . S
C996 H982 0.929 1_455 S
C996 C995 1.399 . S
C996 C997 1.385 . S
C997 H983 0.931 . S
C997 C996 1.385 . S
C997 C998 1.389 . S
C998 C997 1.389 . S
C998 C999 1.387 . S
C999 H984 0.930 . S
C999 C994 1.390 . S
C999 C998 1.387 . S
H1000 C1012 0.930 . S
H1001 C1014 0.930 . S
H1002 C1015 0.930 . S
H1003 C1019 0.959 . S
H1004 C1019 0.959 . S
H1005 C1019 0.961 . S
H1006 C1020 0.960 . S
H1007 C1020 0.961 . S
H1008 C1020 0.959 . S
H1009 C1023 0.929 . S
H1010 C1024 0.931 . S
H1011 C1026 0.930 . S
C1012 H1000 0.930 . S
C1012 C1013 1.399 . S
C1012 C1017 1.399 . S
C1013 C1012 1.399 . S
C1013 C1014 1.376 . S
C1014 H1001 0.930 . S
C1014 C1013 1.376 . S
C1014 C1015 1.388 . S
C1015 H1002 0.930 . S
C1015 C1014 1.388 . S
C1015 C1016 1.390 . S
C1016 C1015 1.390 . S
C1016 C1017 1.394 . S
C1016 C1022 1.465 . S
C1017 C1012 1.399 . S
C1017 C1016 1.394 . S
C1017 C1018 1.516 . S
C1018 C1017 1.516 . S
C1018 C1019 1.502 . S
C1018 C1020 1.561 . S
C1018 C1021 1.526 . S
C1019 H1003 0.959 . S
C1019 H1004 0.959 . S
C1019 H1005 0.961 . S
C1019 C1018 1.502 . S
C1020 H1006 0.960 . S
C1020 H1007 0.961 . S
C1020 H1008 0.959 . S
C1020 C1018 1.561 . S
C1021 C1018 1.526 . S
C1021 C1022 1.396 . S
C1021 C1026 1.390 1_554 S
C1022 C1016 1.465 . S
C1022 C1021 1.396 . S
C1022 C1023 1.399 . S
C1023 H1009 0.929 . S
C1023 C1022 1.399 . S
C1023 C1024 1.385 1_554 S
C1024 H1010 0.931 . S
C1024 C1023 1.385 1_556 S
C1024 C1025 1.389 . S
C1025 C1024 1.389 . S
C1025 C1026 1.387 . S
C1026 H1011 0.930 . S
C1026 C1021 1.390 1_556 S
C1026 C1025 1.387 . S
H1027 C1039 0.930 . S
H1028 C1041 0.930 . S
H1029 C1042 0.930 . S
H1030 C1046 0.959 . S
H1031 C1046 0.959 . S
H1032 C1046 0.961 . S
H1033 C1047 0.960 . S
H1034 C1047 0.961 . S
H1035 C1047 0.959 . S
H1036 C1050 0.929 . S
H1037 C1051 0.931 . S
H1038 C1053 0.930 . S
C1039 H1027 0.930 . S
C1039 C1040 1.399 1_556 S
C1039 C1044 1.399 . S
C1040 C1039 1.399 1_554 S
C1040 C1041 1.376 . S
C1041 H1028 0.930 . S
C1041 C1040 1.376 . S
C1041 C1042 1.388 . S
C1042 H1029 0.930 . S
C1042 C1041 1.388 . S
C1042 C1043 1.390 1_554 S
C1043 C1042 1.390 1_556 S
C1043 C1044 1.394 . S
C1043 C1049 1.465 . S
C1044 C1039 1.399 . S
C1044 C1043 1.394 . S
C1044 C1045 1.516 . S
C1045 C1044 1.516 . S
C1045 C1046 1.502 . S
C1045 C1047 1.561 . S
C1045 C1048 1.526 . S
C1046 H1030 0.959 . S
C1046 H1031 0.959 . S
C1046 H1032 0.961 . S
C1046 C1045 1.502 . S
C1047 H1033 0.960 . S
C1047 H1034 0.961 . S
C1047 H1035 0.959 . S
C1047 C1045 1.561 . S
C1048 C1045 1.526 . S
C1048 C1049 1.396 . S
C1048 C1053 1.390 . S
C1049 C1043 1.465 . S
C1049 C1048 1.396 . S
C1049 C1050 1.399 . S
C1050 H1036 0.929 . S
C1050 C1049 1.399 . S
C1050 C1051 1.385 . S
C1051 H1037 0.931 . S
C1051 C1050 1.385 . S
C1051 C1052 1.389 . S
C1052 C1051 1.389 . S
C1052 C1053 1.387 . S
C1053 H1038 0.930 . S
C1053 C1048 1.390 . S
C1053 C1052 1.387 . S
H1054 C1066 0.930 . S
H1055 C1068 0.930 . S
H1056 C1069 0.930 . S
H1057 C1073 0.959 . S
H1058 C1073 0.959 . S
H1059 C1073 0.961 . S
H1060 C1074 0.960 . S
H1061 C1074 0.961 . S
H1062 C1074 0.959 . S
H1063 C1077 0.929 . S
H1064 C1078 0.931 . S
H1065 C1080 0.930 . S
C1066 H1054 0.930 . S
C1066 C1067 1.399 . S
C1066 C1071 1.399 1_556 S
C1067 C1066 1.399 . S
C1067 C1068 1.376 . S
C1068 H1055 0.930 . S
C1068 C1067 1.376 . S
C1068 C1069 1.388 1_556 S
C1069 H1056 0.930 . S
C1069 C1068 1.388 1_554 S
C1069 C1070 1.390 . S
C1070 C1069 1.390 . S
C1070 C1071 1.394 . S
C1070 C1076 1.465 . S
C1071 C1066 1.399 1_554 S
C1071 C1070 1.394 . S
C1071 C1072 1.516 . S
C1072 C1071 1.516 . S
C1072 C1073 1.502 . S
C1072 C1074 1.561 . S
C1072 C1075 1.526 . S
C1073 H1057 0.959 . S
C1073 H1058 0.959 . S
C1073 H1059 0.961 . S
C1073 C1072 1.502 . S
C1074 H1060 0.960 . S
C1074 H1061 0.961 . S
C1074 H1062 0.959 . S
C1074 C1072 1.561 . S
C1075 C1072 1.526 . S
C1075 C1076 1.396 . S
C1075 C1080 1.390 . S
C1076 C1070 1.465 . S
C1076 C1075 1.396 . S
C1076 C1077 1.399 . S
C1077 H1063 0.929 . S
C1077 C1076 1.399 . S
C1077 C1078 1.385 . S
C1078 H1064 0.931 . S
C1078 C1077 1.385 . S
C1078 C1079 1.389 . S
C1079 C1078 1.389 . S
C1079 C1080 1.387 . S
C1080 H1065 0.930 . S
C1080 C1075 1.390 . S
C1080 C1079 1.387 . S
H1081 C1093 0.931 . S
H1082 C1095 0.930 . S
H1083 C1096 0.930 . S
H1084 C1100 0.959 . S
H1085 C1100 0.959 . S
H1086 C1100 0.961 . S
H1087 C1101 0.960 . S
H1088 C1101 0.961 . S
H1089 C1101 0.959 . S
H1090 C1104 0.929 . S
H1091 C1105 0.931 . S
H1092 C1107 0.930 . S
C1093 H1081 0.931 . S
C1093 C1094 1.387 1_556 S
C1093 C1098 1.410 . S
C1094 C1093 1.387 1_554 S
C1094 C1095 1.376 . S
C1095 H1082 0.930 . S
C1095 C1094 1.376 . S
C1095 C1096 1.388 . S
C1096 H1083 0.930 . S
C1096 C1095 1.388 . S
C1096 C1097 1.390 1_554 S
C1097 C1096 1.390 1_556 S
C1097 C1098 1.394 . S
C1097 C1103 1.465 . S
C1098 C1093 1.410 . S
C1098 C1097 1.394 . S
C1098 C1099 1.516 . S
C1099 C1098 1.516 . S
C1099 C1100 1.502 . S
C1099 C1101 1.561 . S
C1099 C1102 1.526 . S
C1100 H1084 0.959 . S
C1100 H1085 0.959 . S
C1100 H1086 0.961 . S
C1100 C1099 1.502 . S
C1101 H1087 0.960 . S
C1101 H1088 0.961 . S
C1101 H1089 0.959 . S
C1101 C1099 1.561 . S
C1102 C1099 1.526 . S
C1102 C1103 1.396 . S
C1102 C1107 1.390 . S
C1103 C1097 1.465 . S
C1103 C1102 1.396 . S
C1103 C1104 1.399 . S
C1104 H1090 0.929 . S
C1104 C1103 1.399 . S
C1104 C1105 1.385 . S
C1105 H1091 0.931 . S
C1105 C1104 1.385 . S
C1105 C1106 1.389 . S
C1106 C1105 1.389 . S
C1106 C1107 1.387 . S
C1107 H1092 0.930 . S
C1107 C1102 1.390 . S
C1107 C1106 1.387 . S
H1108 C1120 0.930 . S
H1109 C1122 0.930 . S
H1110 C1123 0.930 . S
H1111 C1127 0.959 . S
H1112 C1127 0.959 . S
H1113 C1127 0.961 . S
H1114 C1128 0.960 . S
H1115 C1128 0.961 . S
H1116 C1128 0.959 . S
H1117 C1131 0.929 . S
H1118 C1132 0.931 . S
H1119 C1134 0.930 . S
C1120 H1108 0.930 . S
C1120 C1121 1.399 . S
C1120 C1125 1.399 . S
C1121 C1120 1.399 . S
C1121 C1122 1.376 . S
C1122 H1109 0.930 . S
C1122 C1121 1.376 . S
C1122 C1123 1.388 . S
C1123 H1110 0.930 . S
C1123 C1122 1.388 . S
C1123 C1124 1.390 . S
C1124 C1123 1.390 . S
C1124 C1125 1.394 . S
C1124 C1130 1.465 . S
C1125 C1120 1.399 . S
C1125 C1124 1.394 . S
C1125 C1126 1.516 . S
C1126 C1125 1.516 . S
C1126 C1127 1.502 . S
C1126 C1128 1.561 . S
C1126 C1129 1.526 . S
C1127 H1111 0.959 . S
C1127 H1112 0.959 . S
C1127 H1113 0.961 . S
C1127 C1126 1.502 . S
C1128 H1114 0.960 . S
C1128 H1115 0.961 . S
C1128 H1116 0.959 . S
C1128 C1126 1.561 . S
C1129 C1126 1.526 . S
C1129 C1130 1.396 . S
C1129 C1134 1.390 1_556 S
C1130 C1124 1.465 . S
C1130 C1129 1.396 . S
C1130 C1131 1.399 . S
C1131 H1117 0.929 . S
C1131 C1130 1.399 . S
C1131 C1132 1.385 1_556 S
C1132 H1118 0.931 . S
C1132 C1131 1.385 1_554 S
C1132 C1133 1.389 . S
C1133 C1132 1.389 . S
C1133 C1134 1.387 . S
C1134 H1119 0.930 . S
C1134 C1129 1.390 1_554 S
C1134 C1133 1.387 . S
H1135 C1147 0.930 . S
H1136 C1149 0.930 . S
H1137 C1150 0.930 . S
H1138 C1154 0.959 . S
H1139 C1154 0.959 . S
H1140 C1154 0.961 . S
H1141 C1155 0.960 . S
H1142 C1155 0.961 . S
H1143 C1155 0.959 . S
H1144 C1158 0.929 . S
H1145 C1159 0.931 . S
H1146 C1161 0.930 . S
C1147 H1135 0.930 . S
C1147 C1148 1.399 . S
C1147 C1152 1.399 . S
C1148 C1147 1.399 . S
C1148 C1149 1.376 . S
C1149 H1136 0.930 . S
C1149 C1148 1.376 . S
C1149 C1150 1.388 . S
C1150 H1137 0.930 . S
C1150 C1149 1.388 . S
C1150 C1151 1.390 . S
C1151 C1150 1.390 . S
C1151 C1152 1.394 . S
C1151 C1157 1.465 . S
C1152 C1147 1.399 . S
C1152 C1151 1.394 . S
C1152 C1153 1.516 . S
C1153 C1152 1.516 . S
C1153 C1154 1.502 . S
C1153 C1155 1.561 . S
C1153 C1156 1.526 . S
C1154 H1138 0.959 . S
C1154 H1139 0.959 . S
C1154 H1140 0.961 . S
C1154 C1153 1.502 . S
C1155 H1141 0.960 . S
C1155 H1142 0.961 . S
C1155 H1143 0.959 . S
C1155 C1153 1.561 . S
C1156 C1153 1.526 . S
C1156 C1157 1.396 . S
C1156 C1161 1.390 1_554 S
C1157 C1151 1.465 . S
C1157 C1156 1.396 . S
C1157 C1158 1.399 . S
C1158 H1144 0.929 . S
C1158 C1157 1.399 . S
C1158 C1159 1.385 1_554 S
C1159 H1145 0.931 . S
C1159 C1158 1.385 1_556 S
C1159 C1160 1.389 . S
C1160 C1159 1.389 . S
C1160 C1161 1.387 . S
C1161 H1146 0.930 . S
C1161 C1156 1.390 1_556 S
C1161 C1160 1.387 . S
H1162 C1174 0.930 . S
H1163 C1176 0.930 . S
H1164 C1177 0.930 . S
H1165 C1181 0.959 . S
H1166 C1181 0.959 . S
H1167 C1181 0.961 . S
H1168 C1182 0.960 . S
H1169 C1182 0.961 . S
H1170 C1182 0.959 . S
H1171 C1185 0.929 . S
H1172 C1186 0.931 . S
H1173 C1188 0.930 . S
C1174 H1162 0.930 . S
C1174 C1175 1.399 . S
C1174 C1179 1.399 . S
C1175 C1174 1.399 . S
C1175 C1176 1.376 . S
C1176 H1163 0.930 . S
C1176 C1175 1.376 . S
C1176 C1177 1.388 . S
C1177 H1164 0.930 . S
C1177 C1176 1.388 . S
C1177 C1178 1.390 . S
C1178 C1177 1.390 . S
C1178 C1179 1.394 . S
C1178 C1184 1.465 . S
C1179 C1174 1.399 . S
C1179 C1178 1.394 . S
C1179 C1180 1.516 . S
C1180 C1179 1.516 . S
C1180 C1181 1.502 . S
C1180 C1182 1.561 . S
C1180 C1183 1.526 . S
C1181 H1165 0.959 . S
C1181 H1166 0.959 . S
C1181 H1167 0.961 . S
C1181 C1180 1.502 . S
C1182 H1168 0.960 . S
C1182 H1169 0.961 . S
C1182 H1170 0.959 . S
C1182 C1180 1.561 . S
C1183 C1180 1.526 . S
C1183 C1184 1.396 . S
C1183 C1188 1.390 1_556 S
C1184 C1178 1.465 . S
C1184 C1183 1.396 . S
C1184 C1185 1.399 . S
C1185 H1171 0.929 . S
C1185 C1184 1.399 . S
C1185 C1186 1.385 1_556 S
C1186 H1172 0.931 . S
C1186 C1185 1.385 1_554 S
C1186 C1187 1.389 . S
C1187 C1186 1.389 . S
C1187 C1188 1.387 . S
C1188 H1173 0.930 . S
C1188 C1183 1.390 1_554 S
C1188 C1187 1.387 . S
H1189 C1201 0.930 . S
H1190 C1203 0.930 . S
H1191 C1204 0.930 . S
H1192 C1208 0.959 . S
H1193 C1208 0.959 . S
H1194 C1208 0.961 . S
H1195 C1209 0.960 . S
H1196 C1209 0.961 . S
H1197 C1209 0.959 . S
H1198 C1212 0.929 . S
H1199 C1213 0.931 . S
H1200 C1215 0.930 . S
C1201 H1189 0.930 . S
C1201 C1202 1.399 . S
C1201 C1206 1.399 1_556 S
C1202 C1201 1.399 . S
C1202 C1203 1.376 . S
C1203 H1190 0.930 . S
C1203 C1202 1.376 . S
C1203 C1204 1.388 1_556 S
C1204 H1191 0.930 . S
C1204 C1203 1.388 1_554 S
C1204 C1205 1.390 . S
C1205 C1204 1.390 . S
C1205 C1206 1.394 . S
C1205 C1211 1.465 . S
C1206 C1201 1.399 1_554 S
C1206 C1205 1.394 . S
C1206 C1207 1.516 . S
C1207 C1206 1.516 . S
C1207 C1208 1.502 . S
C1207 C1209 1.561 . S
C1207 C1210 1.526 . S
C1208 H1192 0.959 . S
C1208 H1193 0.959 . S
C1208 H1194 0.961 . S
C1208 C1207 1.502 . S
C1209 H1195 0.960 . S
C1209 H1196 0.961 . S
C1209 H1197 0.959 . S
C1209 C1207 1.561 . S
C1210 C1207 1.526 . S
C1210 C1211 1.396 . S
C1210 C1215 1.390 . S
C1211 C1205 1.465 . S
C1211 C1210 1.396 . S
C1211 C1212 1.399 . S
C1212 H1198 0.929 . S
C1212 C1211 1.399 . S
C1212 C1213 1.385 . S
C1213 H1199 0.931 . S
C1213 C1212 1.385 . S
C1213 C1214 1.389 . S
C1214 C1213 1.389 . S
C1214 C1215 1.387 . S
C1215 H1200 0.930 . S
C1215 C1210 1.390 . S
C1215 C1214 1.387 . S
H1216 C1228 0.930 . S
H1217 C1230 0.930 . S
H1218 C1231 0.930 . S
H1219 C1235 0.959 . S
H1220 C1235 0.959 . S
H1221 C1235 0.961 . S
H1222 C1236 0.960 . S
H1223 C1236 0.961 . S
H1224 C1236 0.959 . S
H1225 C1239 0.929 . S
H1226 C1240 0.931 . S
H1227 C1242 0.930 . S
C1228 H1216 0.930 . S
C1228 C1229 1.399 . S
C1228 C1233 1.399 . S
C1229 C1228 1.399 . S
C1229 C1230 1.376 . S
C1230 H1217 0.930 . S
C1230 C1229 1.376 . S
C1230 C1231 1.388 . S
C1231 H1218 0.930 . S
C1231 C1230 1.388 . S
C1231 C1232 1.390 . S
C1232 C1231 1.390 . S
C1232 C1233 1.394 . S
C1232 C1238 1.465 . S
C1233 C1228 1.399 . S
C1233 C1232 1.394 . S
C1233 C1234 1.516 . S
C1234 C1233 1.516 . S
C1234 C1235 1.502 . S
C1234 C1236 1.561 . S
C1234 C1237 1.526 . S
C1235 H1219 0.959 . S
C1235 H1220 0.959 . S
C1235 H1221 0.961 . S
C1235 C1234 1.502 . S
C1236 H1222 0.960 . S
C1236 H1223 0.961 . S
C1236 H1224 0.959 . S
C1236 C1234 1.561 . S
C1237 C1234 1.526 . S
C1237 C1238 1.396 . S
C1237 C1242 1.390 . S
C1238 C1232 1.465 . S
C1238 C1237 1.396 . S
C1238 C1239 1.399 . S
C1239 H1225 0.929 . S
C1239 C1238 1.399 . S
C1239 C1240 1.385 . S
C1240 H1226 0.931 . S
C1240 C1239 1.385 . S
C1240 C1241 1.389 . S
C1241 C1240 1.389 . S
C1241 C1242 1.387 . S
C1242 H1227 0.930 . S
C1242 C1237 1.390 . S
C1242 C1241 1.387 . S
H1243 C1255 0.930 . S
H1244 C1257 0.930 . S
H1245 C1258 0.930 . S
H1246 C1262 0.959 . S
H1247 C1262 0.959 . S
H1248 C1262 0.961 . S
H1249 C1263 0.960 . S
H1250 C1263 0.961 . S
H1251 C1263 0.959 . S
H1252 C1266 0.929 . S
H1253 C1267 0.931 . S
H1254 C1269 0.930 . S
C1255 H1243 0.930 . S
C1255 C1256 1.399 . S
C1255 C1260 1.399 . S
C1256 C1255 1.399 . S
C1256 C1257 1.376 . S
C1257 H1244 0.930 . S
C1257 C1256 1.376 . S
C1257 C1258 1.388 . S
C1258 H1245 0.930 . S
C1258 C1257 1.388 . S
C1258 C1259 1.390 . S
C1259 C1258 1.390 . S
C1259 C1260 1.394 . S
C1259 C1265 1.465 . S
C1260 C1255 1.399 . S
C1260 C1259 1.394 . S
C1260 C1261 1.516 . S
C1261 C1260 1.516 . S
C1261 C1262 1.502 . S
C1261 C1263 1.561 . S
C1261 C1264 1.526 . S
C1262 H1246 0.959 . S
C1262 H1247 0.959 . S
C1262 H1248 0.961 . S
C1262 C1261 1.502 . S
C1263 H1249 0.960 . S
C1263 H1250 0.961 . S
C1263 H1251 0.959 . S
C1263 C1261 1.561 . S
C1264 C1261 1.526 . S
C1264 C1265 1.396 . S
C1264 C1269 1.390 . S
C1265 C1259 1.465 . S
C1265 C1264 1.396 . S
C1265 C1266 1.399 . S
C1266 H1252 0.929 . S
C1266 C1265 1.399 . S
C1266 C1267 1.385 . S
C1267 H1253 0.931 . S
C1267 C1266 1.385 . S
C1267 C1268 1.389 . S
C1268 C1267 1.389 . S
C1268 C1269 1.387 . S
C1269 H1254 0.930 . S
C1269 C1264 1.390 . S
C1269 C1268 1.387 . S
H1270 C1282 0.930 . S
H1271 C1284 0.930 . S
H1272 C1285 0.930 . S
H1273 C1289 0.959 . S
H1274 C1289 0.959 . S
H1275 C1289 0.961 . S
H1276 C1290 0.960 . S
H1277 C1290 0.961 . S
H1278 C1290 0.959 . S
H1279 C1293 0.929 . S
H1280 C1294 0.931 . S
H1281 C1296 0.930 . S
C1282 H1270 0.930 . S
C1282 C1283 1.399 . S
C1282 C1287 1.399 . S
C1283 C1282 1.399 . S
C1283 C1284 1.376 . S
C1284 H1271 0.930 . S
C1284 C1283 1.376 . S
C1284 C1285 1.388 . S
C1285 H1272 0.930 . S
C1285 C1284 1.388 . S
C1285 C1286 1.390 . S
C1286 C1285 1.390 . S
C1286 C1287 1.394 . S
C1286 C1292 1.465 . S
C1287 C1282 1.399 . S
C1287 C1286 1.394 . S
C1287 C1288 1.516 . S
C1288 C1287 1.516 . S
C1288 C1289 1.502 . S
C1288 C1290 1.561 . S
C1288 C1291 1.526 . S
C1289 H1273 0.959 . S
C1289 H1274 0.959 . S
C1289 H1275 0.961 . S
C1289 C1288 1.502 . S
C1290 H1276 0.960 . S
C1290 H1277 0.961 . S
C1290 H1278 0.959 . S
C1290 C1288 1.561 . S
C1291 C1288 1.526 . S
C1291 C1292 1.396 . S
C1291 C1296 1.390 . S
C1292 C1286 1.465 . S
C1292 C1291 1.396 . S
C1292 C1293 1.399 . S
C1293 H1279 0.929 . S
C1293 C1292 1.399 . S
C1293 C1294 1.385 . S
C1294 H1280 0.931 . S
C1294 C1293 1.385 . S
C1294 C1295 1.389 . S
C1295 C1294 1.389 . S
C1295 C1296 1.387 . S
C1296 H1281 0.930 . S
C1296 C1291 1.390 . S
C1296 C1295 1.387 . S
H1297 C1309 0.930 . S
H1298 C1311 0.930 . S
H1299 C1312 0.930 . S
H1300 C1316 0.959 . S
H1301 C1316 0.959 . S
H1302 C1316 0.961 . S
H1303 C1317 0.960 . S
H1304 C1317 0.961 . S
H1305 C1317 0.959 . S
H1306 C1320 0.929 . S
H1307 C1321 0.931 . S
H1308 C1323 0.930 . S
C1309 H1297 0.930 . S
C1309 C1310 1.399 . S
C1309 C1314 1.399 . S
C1310 C1309 1.399 . S
C1310 C1311 1.376 . S
C1311 H1298 0.930 . S
C1311 C1310 1.376 . S
C1311 C1312 1.388 . S
C1312 H1299 0.930 . S
C1312 C1311 1.388 . S
C1312 C1313 1.390 . S
C1313 C1312 1.390 . S
C1313 C1314 1.394 . S
C1313 C1319 1.465 . S
C1314 C1309 1.399 . S
C1314 C1313 1.394 . S
C1314 C1315 1.516 . S
C1315 C1314 1.516 . S
C1315 C1316 1.502 . S
C1315 C1317 1.561 . S
C1315 C1318 1.526 . S
C1316 H1300 0.959 . S
C1316 H1301 0.959 . S
C1316 H1302 0.961 . S
C1316 C1315 1.502 . S
C1317 H1303 0.960 . S
C1317 H1304 0.961 . S
C1317 H1305 0.959 . S
C1317 C1315 1.561 . S
C1318 C1315 1.526 . S
C1318 C1319 1.396 . S
C1318 C1323 1.390 . S
C1319 C1313 1.465 . S
C1319 C1318 1.396 . S
C1319 C1320 1.399 . S
C1320 H1306 0.929 . S
C1320 C1319 1.399 . S
C1320 C1321 1.385 . S
C1321 H1307 0.931 . S
C1321 C1320 1.385 . S
C1321 C1322 1.389 . S
C1322 C1321 1.389 . S
C1322 C1323 1.387 . S
C1323 H1308 0.930 . S
C1323 C1318 1.390 . S
C1323 C1322 1.387 . S
H1324 C1336 0.930 . S
H1325 C1338 0.930 . S
H1326 C1339 0.930 . S
H1327 C1343 0.959 . S
H1328 C1343 0.959 . S
H1329 C1343 0.961 . S
H1330 C1344 0.960 . S
H1331 C1344 0.961 . S
H1332 C1344 0.959 . S
H1333 C1347 0.929 . S
H1334 C1348 0.931 . S
H1335 C1350 0.930 . S
C1336 H1324 0.930 . S
C1336 C1337 1.399 . S
C1336 C1341 1.399 . S
C1337 C1336 1.399 . S
C1337 C1338 1.376 . S
C1338 H1325 0.930 . S
C1338 C1337 1.376 . S
C1338 C1339 1.388 . S
C1339 H1326 0.930 . S
C1339 C1338 1.388 . S
C1339 C1340 1.390 . S
C1340 C1339 1.390 . S
C1340 C1341 1.394 . S
C1340 C1346 1.465 . S
C1341 C1336 1.399 . S
C1341 C1340 1.394 . S
C1341 C1342 1.516 . S
C1342 C1341 1.516 . S
C1342 C1343 1.502 . S
C1342 C1344 1.561 . S
C1342 C1345 1.526 . S
C1343 H1327 0.959 . S
C1343 H1328 0.959 . S
C1343 H1329 0.961 . S
C1343 C1342 1.502 . S
C1344 H1330 0.960 . S
C1344 H1331 0.961 . S
C1344 H1332 0.959 . S
C1344 C1342 1.561 . S
C1345 C1342 1.526 . S
C1345 C1346 1.396 . S
C1345 C1350 1.390 . S
C1346 C1340 1.465 . S
C1346 C1345 1.396 . S
C1346 C1347 1.399 . S
C1347 H1333 0.929 . S
C1347 C1346 1.399 . S
C1347 C1348 1.385 . S
C1348 H1334 0.931 . S
C1348 C1347 1.385 . S
C1348 C1349 1.389 . S
C1349 C1348 1.389 . S
C1349 C1350 1.387 . S
C1350 H1335 0.930 . S
C1350 C1345 1.390 . S
C1350 C1349 1.387 . S
H1351 C1363 0.930 . S
H1352 C1365 0.930 . S
H1353 C1366 0.930 . S
H1354 C1370 0.959 . S
H1355 C1370 0.959 . S
H1356 C1370 0.961 . S
H1357 C1371 0.960 . S
H1358 C1371 0.961 . S
H1359 C1371 0.959 . S
H1360 C1374 0.929 . S
H1361 C1375 0.931 . S
H1362 C1377 0.930 . S
C1363 H1351 0.930 . S
C1363 C1364 1.399 . S
C1363 C1368 1.399 . S
C1364 C1363 1.399 . S
C1364 C1365 1.376 . S
C1365 H1352 0.930 . S
C1365 C1364 1.376 . S
C1365 C1366 1.388 . S
C1366 H1353 0.930 . S
C1366 C1365 1.388 . S
C1366 C1367 1.390 . S
C1367 C1366 1.390 . S
C1367 C1368 1.394 . S
C1367 C1373 1.465 . S
C1368 C1363 1.399 . S
C1368 C1367 1.394 . S
C1368 C1369 1.516 . S
C1369 C1368 1.516 . S
C1369 C1370 1.502 . S
C1369 C1371 1.561 . S
C1369 C1372 1.526 . S
C1370 H1354 0.959 . S
C1370 H1355 0.959 . S
C1370 H1356 0.961 . S
C1370 C1369 1.502 . S
C1371 H1357 0.960 . S
C1371 H1358 0.961 . S
C1371 H1359 0.959 . S
C1371 C1369 1.561 . S
C1372 C1369 1.526 . S
C1372 C1373 1.396 . S
C1372 C1377 1.390 . S
C1373 C1367 1.465 . S
C1373 C1372 1.396 . S
C1373 C1374 1.399 . S
C1374 H1360 0.929 . S
C1374 C1373 1.399 . S
C1374 C1375 1.385 . S
C1375 H1361 0.931 . S
C1375 C1374 1.385 . S
C1375 C1376 1.389 . S
C1376 C1375 1.389 . S
C1376 C1377 1.387 . S
C1377 H1362 0.930 . S
C1377 C1372 1.390 . S
C1377 C1376 1.387 . S
H1378 C1390 0.930 . S
H1379 C1392 0.930 . S
H1380 C1393 0.930 . S
H1381 C1397 0.959 . S
H1382 C1397 0.959 . S
H1383 C1397 0.961 . S
H1384 C1398 0.960 . S
H1385 C1398 0.961 . S
H1386 C1398 0.959 . S
H1387 C1401 0.929 . S
H1388 C1402 0.931 . S
H1389 C1404 0.930 . S
C1390 H1378 0.930 . S
C1390 C1391 1.399 . S
C1390 C1395 1.399 . S
C1391 C1390 1.399 . S
C1391 C1392 1.376 . S
C1392 H1379 0.930 . S
C1392 C1391 1.376 . S
C1392 C1393 1.388 . S
C1393 H1380 0.930 . S
C1393 C1392 1.388 . S
C1393 C1394 1.390 . S
C1394 C1393 1.390 . S
C1394 C1395 1.394 . S
C1394 C1400 1.465 . S
C1395 C1390 1.399 . S
C1395 C1394 1.394 . S
C1395 C1396 1.516 . S
C1396 C1395 1.516 . S
C1396 C1397 1.502 . S
C1396 C1398 1.561 . S
C1396 C1399 1.526 . S
C1397 H1381 0.959 . S
C1397 H1382 0.959 . S
C1397 H1383 0.961 . S
C1397 C1396 1.502 . S
C1398 H1384 0.960 . S
C1398 H1385 0.961 . S
C1398 H1386 0.959 . S
C1398 C1396 1.561 . S
C1399 C1396 1.526 . S
C1399 C1400 1.396 . S
C1399 C1404 1.390 . S
C1400 C1394 1.465 . S
C1400 C1399 1.396 . S
C1400 C1401 1.399 . S
C1401 H1387 0.929 . S
C1401 C1400 1.399 . S
C1401 C1402 1.385 . S
C1402 H1388 0.931 . S
C1402 C1401 1.385 . S
C1402 C1403 1.389 . S
C1403 C1402 1.389 . S
C1403 C1404 1.387 . S
C1404 H1389 0.930 . S
C1404 C1399 1.390 . S
C1404 C1403 1.387 . S
H1405 C1417 0.930 . S
H1406 C1419 0.930 . S
H1407 C1420 0.930 . S
H1408 C1424 0.959 . S
H1409 C1424 0.959 . S
H1410 C1424 0.961 . S
H1411 C1425 0.960 . S
H1412 C1425 0.961 . S
H1413 C1425 0.959 . S
H1414 C1428 0.929 . S
H1415 C1429 0.931 . S
H1416 C1431 0.930 . S
C1417 H1405 0.930 . S
C1417 C1418 1.399 . S
C1417 C1422 1.399 . S
C1418 C1417 1.399 . S
C1418 C1419 1.376 . S
C1419 H1406 0.930 . S
C1419 C1418 1.376 . S
C1419 C1420 1.388 . S
C1420 H1407 0.930 . S
C1420 C1419 1.388 . S
C1420 C1421 1.390 . S
C1421 C1420 1.390 . S
C1421 C1422 1.394 . S
C1421 C1427 1.465 . S
C1422 C1417 1.399 . S
C1422 C1421 1.394 . S
C1422 C1423 1.516 . S
C1423 C1422 1.516 . S
C1423 C1424 1.502 . S
C1423 C1425 1.561 . S
C1423 C1426 1.526 . S
C1424 H1408 0.959 . S
C1424 H1409 0.959 . S
C1424 H1410 0.961 . S
C1424 C1423 1.502 . S
C1425 H1411 0.960 . S
C1425 H1412 0.961 . S
C1425 H1413 0.959 . S
C1425 C1423 1.561 . S
C1426 C1423 1.526 . S
C1426 C1427 1.396 . S
C1426 C1431 1.390 . S
C1427 C1421 1.465 . S
C1427 C1426 1.396 . S
C1427 C1428 1.399 . S
C1428 H1414 0.929 . S
C1428 C1427 1.399 . S
C1428 C1429 1.385 . S
C1429 H1415 0.931 . S
C1429 C1428 1.385 . S
C1429 C1430 1.389 . S
C1430 C1429 1.389 . S
C1430 C1431 1.387 . S
C1431 H1416 0.930 . S
C1431 C1426 1.390 . S
C1431 C1430 1.387 . S
H1432 C1444 0.930 . S
H1433 C1446 0.930 . S
H1434 C1447 0.930 . S
H1435 C1451 0.959 . S
H1436 C1451 0.959 . S
H1437 C1451 0.961 . S
H1438 C1452 0.960 . S
H1439 C1452 0.961 . S
H1440 C1452 0.959 . S
H1441 C1455 0.929 . S
H1442 C1456 0.931 . S
H1443 C1458 0.930 . S
C1444 H1432 0.930 . S
C1444 C1445 1.399 . S
C1444 C1449 1.399 . S
C1445 C1444 1.399 . S
C1445 C1446 1.376 . S
C1446 H1433 0.930 . S
C1446 C1445 1.376 . S
C1446 C1447 1.388 . S
C1447 H1434 0.930 . S
C1447 C1446 1.388 . S
C1447 C1448 1.390 . S
C1448 C1447 1.390 . S
C1448 C1449 1.394 . S
C1448 C1454 1.465 . S
C1449 C1444 1.399 . S
C1449 C1448 1.394 . S
C1449 C1450 1.516 . S
C1450 C1449 1.516 . S
C1450 C1451 1.502 . S
C1450 C1452 1.561 . S
C1450 C1453 1.526 . S
C1451 H1435 0.959 . S
C1451 H1436 0.959 . S
C1451 H1437 0.961 . S
C1451 C1450 1.502 . S
C1452 H1438 0.960 . S
C1452 H1439 0.961 . S
C1452 H1440 0.959 . S
C1452 C1450 1.561 . S
C1453 C1450 1.526 . S
C1453 C1454 1.396 . S
C1453 C1458 1.390 . S
C1454 C1448 1.465 . S
C1454 C1453 1.396 . S
C1454 C1455 1.399 . S
C1455 H1441 0.929 . S
C1455 C1454 1.399 . S
C1455 C1456 1.385 . S
C1456 H1442 0.931 . S
C1456 C1455 1.385 . S
C1456 C1457 1.389 . S
C1457 C1456 1.389 . S
C1457 C1458 1.387 . S
C1458 H1443 0.930 . S
C1458 C1453 1.390 . S
C1458 C1457 1.387 . S
H1459 C1471 0.930 . S
H1460 C1473 0.930 . S
H1461 C1474 0.930 . S
H1462 C1478 0.959 . S
H1463 C1478 0.959 . S
H1464 C1478 0.961 . S
H1465 C1479 0.960 . S
H1466 C1479 0.961 . S
H1467 C1479 0.959 . S
H1468 C1482 0.929 . S
H1469 C1483 0.931 . S
H1470 C1485 0.930 . S
C1471 H1459 0.930 . S
C1471 C1472 1.399 . S
C1471 C1476 1.399 . S
C1472 C1471 1.399 . S
C1472 C1473 1.376 . S
C1473 H1460 0.930 . S
C1473 C1472 1.376 . S
C1473 C1474 1.388 . S
C1474 H1461 0.930 . S
C1474 C1473 1.388 . S
C1474 C1475 1.390 . S
C1475 C1474 1.390 . S
C1475 C1476 1.394 . S
C1475 C1481 1.465 . S
C1476 C1471 1.399 . S
C1476 C1475 1.394 . S
C1476 C1477 1.516 . S
C1477 C1476 1.516 . S
C1477 C1478 1.502 . S
C1477 C1479 1.561 . S
C1477 C1480 1.526 . S
C1478 H1462 0.959 . S
C1478 H1463 0.959 . S
C1478 H1464 0.961 . S
C1478 C1477 1.502 . S
C1479 H1465 0.960 . S
C1479 H1466 0.961 . S
C1479 H1467 0.959 . S
C1479 C1477 1.561 . S
C1480 C1477 1.526 . S
C1480 C1481 1.396 . S
C1480 C1485 1.390 . S
C1481 C1475 1.465 . S
C1481 C1480 1.396 . S
C1481 C1482 1.399 . S
C1482 H1468 0.929 . S
C1482 C1481 1.399 . S
C1482 C1483 1.385 . S
C1483 H1469 0.931 . S
C1483 C1482 1.385 . S
C1483 C1484 1.389 . S
C1484 C1483 1.389 . S
C1484 C1485 1.387 . S
C1485 H1470 0.930 . S
C1485 C1480 1.390 . S
C1485 C1484 1.387 . S
H1486 C1498 0.930 . S
H1487 C1500 0.930 . S
H1488 C1501 0.930 . S
H1489 C1505 0.959 . S
H1490 C1505 0.959 . S
H1491 C1505 0.961 . S
H1492 C1506 0.960 . S
H1493 C1506 0.961 . S
H1494 C1506 0.959 . S
H1495 C1509 0.929 . S
H1496 C1510 0.931 . S
H1497 C1512 0.930 . S
C1498 H1486 0.930 . S
C1498 C1499 1.399 . S
C1498 C1503 1.399 . S
C1499 C1498 1.399 . S
C1499 C1500 1.376 . S
C1500 H1487 0.930 . S
C1500 C1499 1.376 . S
C1500 C1501 1.388 . S
C1501 H1488 0.930 . S
C1501 C1500 1.388 . S
C1501 C1502 1.390 . S
C1502 C1501 1.390 . S
C1502 C1503 1.394 . S
C1502 C1508 1.465 . S
C1503 C1498 1.399 . S
C1503 C1502 1.394 . S
C1503 C1504 1.516 . S
C1504 C1503 1.516 . S
C1504 C1505 1.502 . S
C1504 C1506 1.561 . S
C1504 C1507 1.526 . S
C1505 H1489 0.959 . S
C1505 H1490 0.959 . S
C1505 H1491 0.961 . S
C1505 C1504 1.502 . S
C1506 H1492 0.960 . S
C1506 H1493 0.961 . S
C1506 H1494 0.959 . S
C1506 C1504 1.561 . S
C1507 C1504 1.526 . S
C1507 C1508 1.396 . S
C1507 C1512 1.390 . S
C1508 C1502 1.465 . S
C1508 C1507 1.396 . S
C1508 C1509 1.399 . S
C1509 H1495 0.929 . S
C1509 C1508 1.399 . S
C1509 C1510 1.385 . S
C1510 H1496 0.931 . S
C1510 C1509 1.385 . S
C1510 C1511 1.389 . S
C1511 C1510 1.389 . S
C1511 C1512 1.387 . S
C1512 H1497 0.930 . S
C1512 C1507 1.390 . S
C1512 C1511 1.387 . S
H1513 C1525 0.930 . S
H1514 C1527 0.930 . S
H1515 C1528 0.930 . S
H1516 C1532 0.959 . S
H1517 C1532 0.959 . S
H1518 C1532 0.961 . S
H1519 C1533 0.960 . S
H1520 C1533 0.961 . S
H1521 C1533 0.959 . S
H1522 C1536 0.929 . S
H1523 C1537 0.931 . S
H1524 C1539 0.930 . S
C1525 H1513 0.930 . S
C1525 C1526 1.399 . S
C1525 C1530 1.399 . S
C1526 C1525 1.399 . S
C1526 C1527 1.376 . S
C1527 H1514 0.930 . S
C1527 C1526 1.376 . S
C1527 C1528 1.388 . S
C1528 H1515 0.930 . S
C1528 C1527 1.388 . S
C1528 C1529 1.390 . S
C1529 C1528 1.390 . S
C1529 C1530 1.394 . S
C1529 C1535 1.465 . S
C1530 C1525 1.399 . S
C1530 C1529 1.394 . S
C1530 C1531 1.516 . S
C1531 C1530 1.516 . S
C1531 C1532 1.502 . S
C1531 C1533 1.561 . S
C1531 C1534 1.526 . S
C1532 H1516 0.959 . S
C1532 H1517 0.959 . S
C1532 H1518 0.961 . S
C1532 C1531 1.502 . S
C1533 H1519 0.960 . S
C1533 H1520 0.961 . S
C1533 H1521 0.959 . S
C1533 C1531 1.561 . S
C1534 C1531 1.526 . S
C1534 C1535 1.396 . S
C1534 C1539 1.390 . S
C1535 C1529 1.465 . S
C1535 C1534 1.396 . S
C1535 C1536 1.399 . S
C1536 H1522 0.929 . S
C1536 C1535 1.399 . S
C1536 C1537 1.385 . S
C1537 H1523 0.931 . S
C1537 C1536 1.385 . S
C1537 C1538 1.389 . S
C1538 C1537 1.389 . S
C1538 C1539 1.387 . S
C1539 H1524 0.930 . S
C1539 C1534 1.390 . S
C1539 C1538 1.387 . S
H1540 C1552 0.930 . S
H1541 C1554 0.930 . S
H1542 C1555 0.930 . S
H1543 C1559 0.959 . S
H1544 C1559 0.959 . S
H1545 C1559 0.961 . S
H1546 C1560 0.960 . S
H1547 C1560 0.961 . S
H1548 C1560 0.959 . S
H1549 C1563 0.929 . S
H1550 C1564 0.931 . S
H1551 C1566 0.930 . S
C1552 H1540 0.930 . S
C1552 C1553 1.399 . S
C1552 C1557 1.399 . S
C1553 C1552 1.399 . S
C1553 C1554 1.376 . S
C1554 H1541 0.930 . S
C1554 C1553 1.376 . S
C1554 C1555 1.388 . S
C1555 H1542 0.930 . S
C1555 C1554 1.388 . S
C1555 C1556 1.390 . S
C1556 C1555 1.390 . S
C1556 C1557 1.394 . S
C1556 C1562 1.465 . S
C1557 C1552 1.399 . S
C1557 C1556 1.394 . S
C1557 C1558 1.516 . S
C1558 C1557 1.516 . S
C1558 C1559 1.502 . S
C1558 C1560 1.561 . S
C1558 C1561 1.526 . S
C1559 H1543 0.959 . S
C1559 H1544 0.959 . S
C1559 H1545 0.961 . S
C1559 C1558 1.502 . S
C1560 H1546 0.960 . S
C1560 H1547 0.961 . S
C1560 H1548 0.959 . S
C1560 C1558 1.561 . S
C1561 C1558 1.526 . S
C1561 C1562 1.396 . S
C1561 C1566 1.390 . S
C1562 C1556 1.465 . S
C1562 C1561 1.396 . S
C1562 C1563 1.399 . S
C1563 H1549 0.929 . S
C1563 C1562 1.399 . S
C1563 C1564 1.385 . S
C1564 H1550 0.931 . S
C1564 C1563 1.385 . S
C1564 C1565 1.389 . S
C1565 C1564 1.389 . S
C1565 C1566 1.387 . S
C1566 H1551 0.930 . S
C1566 C1561 1.390 . S
C1566 C1565 1.387 . S
H1567 C1579 0.930 . S
H1568 C1581 0.930 . S
H1569 C1582 0.930 . S
H1570 C1586 0.959 . S
H1571 C1586 0.959 . S
H1572 C1586 0.961 . S
H1573 C1587 0.960 . S
H1574 C1587 0.961 . S
H1575 C1587 0.959 . S
H1576 C1590 0.929 . S
H1577 C1591 0.931 . S
H1578 C1593 0.930 . S
C1579 H1567 0.930 . S
C1579 C1580 1.399 . S
C1579 C1584 1.399 . S
C1580 C1579 1.399 . S
C1580 C1581 1.376 . S
C1581 H1568 0.930 . S
C1581 C1580 1.376 . S
C1581 C1582 1.388 . S
C1582 H1569 0.930 . S
C1582 C1581 1.388 . S
C1582 C1583 1.390 . S
C1583 C1582 1.390 . S
C1583 C1584 1.394 . S
C1583 C1589 1.465 . S
C1584 C1579 1.399 . S
C1584 C1583 1.394 . S
C1584 C1585 1.516 . S
C1585 C1584 1.516 . S
C1585 C1586 1.502 . S
C1585 C1587 1.561 . S
C1585 C1588 1.526 . S
C1586 H1570 0.959 . S
C1586 H1571 0.959 . S
C1586 H1572 0.961 . S
C1586 C1585 1.502 . S
C1587 H1573 0.960 . S
C1587 H1574 0.961 . S
C1587 H1575 0.959 . S
C1587 C1585 1.561 . S
C1588 C1585 1.526 . S
C1588 C1589 1.396 . S
C1588 C1593 1.390 . S
C1589 C1583 1.465 . S
C1589 C1588 1.396 . S
C1589 C1590 1.399 . S
C1590 H1576 0.929 . S
C1590 C1589 1.399 . S
C1590 C1591 1.385 . S
C1591 H1577 0.931 . S
C1591 C1590 1.385 . S
C1591 C1592 1.389 . S
C1592 C1591 1.389 . S
C1592 C1593 1.387 . S
C1593 H1578 0.930 . S
C1593 C1588 1.390 . S
C1593 C1592 1.387 . S
H1594 C1606 0.930 . S
H1595 C1608 0.930 . S
H1596 C1609 0.930 . S
H1597 C1613 0.959 . S
H1598 C1613 0.959 . S
H1599 C1613 0.961 . S
H1600 C1614 0.960 . S
H1601 C1614 0.961 . S
H1602 C1614 0.959 . S
H1603 C1617 0.929 . S
H1604 C1618 0.931 . S
H1605 C1620 0.930 . S
C1606 H1594 0.930 . S
C1606 C1607 1.399 . S
C1606 C1611 1.399 . S
C1607 C1606 1.399 . S
C1607 C1608 1.376 . S
C1608 H1595 0.930 . S
C1608 C1607 1.376 . S
C1608 C1609 1.388 . S
C1609 H1596 0.930 . S
C1609 C1608 1.388 . S
C1609 C1610 1.390 . S
C1610 C1609 1.390 . S
C1610 C1611 1.394 . S
C1610 C1616 1.465 . S
C1611 C1606 1.399 . S
C1611 C1610 1.394 . S
C1611 C1612 1.516 . S
C1612 C1611 1.516 . S
C1612 C1613 1.502 . S
C1612 C1614 1.561 . S
C1612 C1615 1.526 . S
C1613 H1597 0.959 . S
C1613 H1598 0.959 . S
C1613 H1599 0.961 . S
C1613 C1612 1.502 . S
C1614 H1600 0.960 . S
C1614 H1601 0.961 . S
C1614 H1602 0.959 . S
C1614 C1612 1.561 . S
C1615 C1612 1.526 . S
C1615 C1616 1.396 . S
C1615 C1620 1.390 . S
C1616 C1610 1.465 . S
C1616 C1615 1.396 . S
C1616 C1617 1.399 . S
C1617 H1603 0.929 . S
C1617 C1616 1.399 . S
C1617 C1618 1.385 . S
C1618 H1604 0.931 . S
C1618 C1617 1.385 . S
C1618 C1619 1.389 . S
C1619 C1618 1.389 . S
C1619 C1620 1.387 . S
C1620 H1605 0.930 . S
C1620 C1615 1.390 . S
C1620 C1619 1.387 . S
H1621 C1633 0.930 . S
H1622 C1635 0.930 . S
H1623 C1636 0.930 . S
H1624 C1640 0.959 . S
H1625 C1640 0.959 . S
H1626 C1640 0.961 . S
H1627 C1641 0.960 . S
H1628 C1641 0.961 . S
H1629 C1641 0.959 . S
H1630 C1644 0.929 . S
H1631 C1645 0.931 . S
H1632 C1647 0.930 . S
C1633 H1621 0.930 . S
C1633 C1634 1.399 . S
C1633 C1638 1.399 . S
C1634 C1633 1.399 . S
C1634 C1635 1.376 . S
C1635 H1622 0.930 . S
C1635 C1634 1.376 . S
C1635 C1636 1.388 . S
C1636 H1623 0.930 . S
C1636 C1635 1.388 . S
C1636 C1637 1.390 . S
C1637 C1636 1.390 . S
C1637 C1638 1.394 . S
C1637 C1643 1.465 . S
C1638 C1633 1.399 . S
C1638 C1637 1.394 . S
C1638 C1639 1.516 . S
C1639 C1638 1.516 . S
C1639 C1640 1.502 . S
C1639 C1641 1.561 . S
C1639 C1642 1.526 . S
C1640 H1624 0.959 . S
C1640 H1625 0.959 . S
C1640 H1626 0.961 . S
C1640 C1639 1.502 . S
C1641 H1627 0.960 . S
C1641 H1628 0.961 . S
C1641 H1629 0.959 . S
C1641 C1639 1.561 . S
C1642 C1639 1.526 . S
C1642 C1643 1.396 . S
C1642 C1647 1.390 . S
C1643 C1637 1.465 . S
C1643 C1642 1.396 . S
C1643 C1644 1.399 . S
C1644 H1630 0.929 . S
C1644 C1643 1.399 . S
C1644 C1645 1.385 . S
C1645 H1631 0.931 . S
C1645 C1644 1.385 . S
C1645 C1646 1.389 . S
C1646 C1645 1.389 . S
C1646 C1647 1.387 . S
C1647 H1632 0.930 . S
C1647 C1642 1.390 . S
C1647 C1646 1.387 . S
C365 C15 1.403 . S
C377 C257 1.449 . S
C392 C37 1.458 . S
C404 C183 1.451 . S
C419 C205 1.451 . S
C431 C65 1.451 . S
C446 C241 1.459 . S
C458 C73 1.447 . S
C473 C103 1.416 . S
C485 C307 1.458 . S
C500 C131 1.411 . S
C512 C323 1.454 . S
C527 C345 1.442 . S
C539 C147 1.455 . S
C554 C285 1.432 . S
C566 C161 1.443 . S
C581 C191 1.445 . S
C593 C81 1.434 . S
C608 C7 1.448 . S
C620 C219 1.459 . S
C635 C43 1.448 . S
C647 C227 1.454 . S
C662 C249 1.430 . S
C674 C59 1.435 . S
C689 C271 1.422 . S
C701 C117 1.459 . S
C716 C139 1.464 . S
C728 C301 1.425 . S
C743 C169 1.446 . S
C755 C329 1.455 . S
C770 C95 1.441 . S
C782 C337 1.460 . S
C797 C98 1.031 . S
C809 C10 1.038 . S
C824 C32 1.059 . S
C836 C118 1.073 . S
C851 C142 1.027 . S
C863 C52 1.026 . S
C878 C172 1.004 . S
C890 C84 0.997 . S
C905 C282 1.033 . S
C917 C186 1.042 . S
C932 C206 1.007 . S
C944 C296 0.999 . S
C959 C238 1.028 . S
C971 C316 1.034 . S
C986 C348 1.026 . S
C998 C260 1.013 . S
C1013 C21 1.436 . S
C1025 C294 1.453 . S
C1040 C318 1.458 . S
C1052 C29 1.463 . S
C1067 C340 1.465 . S
C1079 C51 1.446 . S
C1094 C272 1.459 . S
C1106 C87 1.463 . S
C1121 C109 1.427 . S
C1133 C252 1.452 . S
C1148 C125 1.436 . S
C1160 C194 1.465 . S
C1175 C153 1.460 . S
C1187 C216 1.469 . S
C1202 C228 1.467 . S
C1214 C175 1.447 . S
C1229 C128 1.461 . S
C1241 C197 1.436 . S
C1256 C150 1.456 . S
C1268 C213 1.463 . S
C1283 C235 1.460 . S
C1295 C164 1.469 . S
C1310 C106 1.452 . S
C1322 C263 1.414 . S
C1337 C76 1.460 . S
C1349 C279 1.459 . S
C1364 C293 1.429 . S
C1376 C18 1.441 . S
C1391 C30 1.461 . S
C1403 C315 1.436 . S
C1418 C351 1.452 . S
C1430 C54 1.466 . S
C1445 C162 1.172 . S
C1457 C8 1.165 . S
C1472 C96 1.189 . S
C1484 C40 1.189 . S
C1499 C120 1.161 . S
C1511 C62 1.159 . S
C1526 C140 1.135 . S
C1538 C74 1.147 . S
C1553 C184 1.187 . S
C1565 C338 1.185 . S
C1580 C274 1.133 . S
C1592 C208 1.145 . S
C1607 C304 1.171 . S
C1619 C230 1.164 . S
C1634 C250 1.179 . S
C1646 C326 1.174 . S
