# Generated by pormake.
# Topology afw, (4)-cn, num edge types: 1
# Building blocks:
#     Node 0, Type 0, BuildingBlock: NAHDIM_clean_sbu_0, # of connection points: 4
#     Node 1, Type 0, BuildingBlock: NAHDIM_clean_sbu_0, # of connection points: 4
#     Node 2, Type 0, BuildingBlock: NAHDIM_clean_sbu_0, # of connection points: 4
#     Node 3, Type 0, BuildingBlock: NAHDIM_clean_sbu_0, # of connection points: 4
#     Node 4, Type 0, BuildingBlock: NAHDIM_clean_sbu_0, # of connection points: 4
#     Node 5, Type 0, BuildingBlock: NAHDIM_clean_sbu_0, # of connection points: 4
#     Node 6, Type 0, BuildingBlock: NAHDIM_clean_sbu_0, # of connection points: 4
#     Node 7, Type 0, BuildingBlock: NAHDIM_clean_sbu_0, # of connection points: 4
#     Node 8, Type 0, BuildingBlock: NAHDIM_clean_sbu_0, # of connection points: 4
#     Edge 9, Type (0, 0), BuildingBlock: TEMPAE_clean_linker_10, # of connection points: 2
#     Edge 10, Type (0, 0), BuildingBlock: TEMPAE_clean_linker_10, # of connection points: 2
#     Edge 11, Type (0, 0), BuildingBlock: TEMPAE_clean_linker_10, # of connection points: 2
#     Edge 12, Type (0, 0), BuildingBlock: TEMPAE_clean_linker_10, # of connection points: 2
#     Edge 13, Type (0, 0), BuildingBlock: TEMPAE_clean_linker_10, # of connection points: 2
#     Edge 14, Type (0, 0), BuildingBlock: TEMPAE_clean_linker_10, # of connection points: 2
#     Edge 15, Type (0, 0), BuildingBlock: TEMPAE_clean_linker_10, # of connection points: 2
#     Edge 16, Type (0, 0), BuildingBlock: TEMPAE_clean_linker_10, # of connection points: 2
#     Edge 17, Type (0, 0), BuildingBlock: TEMPAE_clean_linker_10, # of connection points: 2
#     Edge 18, Type (0, 0), BuildingBlock: TEMPAE_clean_linker_10, # of connection points: 2
#     Edge 19, Type (0, 0), BuildingBlock: TEMPAE_clean_linker_10, # of connection points: 2
#     Edge 20, Type (0, 0), BuildingBlock: TEMPAE_clean_linker_10, # of connection points: 2
#     Edge 21, Type (0, 0), BuildingBlock: TEMPAE_clean_linker_10, # of connection points: 2
#     Edge 22, Type (0, 0), BuildingBlock: TEMPAE_clean_linker_10, # of connection points: 2
#     Edge 23, Type (0, 0), BuildingBlock: TEMPAE_clean_linker_10, # of connection points: 2
#     Edge 24, Type (0, 0), BuildingBlock: TEMPAE_clean_linker_10, # of connection points: 2
#     Edge 25, Type (0, 0), BuildingBlock: TEMPAE_clean_linker_10, # of connection points: 2
#     Edge 26, Type (0, 0), BuildingBlock: TEMPAE_clean_linker_10, # of connection points: 2
# Relax obj value: 0.264
# Max RMSD: 0.263
# Mean RMSD: 0.246
data_MOF--net-afw--node1-NAHDIM_clean_sbu_0--edge1-TEMPAE_clean_linker_10
_symmetry_space_group_name_H-M    P1
_symmetry_Int_Tables_number       1
_symmetry_cell_setting            triclinic
loop_
_symmetry_equiv_pos_as_xyz
'x, y, z'
_cell_length_a     39.562551
_cell_length_b     41.939268
_cell_length_c     35.804048
_cell_angle_alpha  92.781714
_cell_angle_beta   90.93469
_cell_angle_gamma 118.6498
loop_
_atom_site_label
_atom_site_type_symbol
_atom_site_fract_x
_atom_site_fract_y
_atom_site_fract_z
_atom_type_partial_charge
C0 C 0.0003 0.24 0.93833 0.0
O1 O 0.00735 0.25227 0.97361 0.0
O2 O 0.02398 0.16777 0.97925 0.0
Zn3 Zn 0.97687 0.17377 0.97299 0.0
O4 O 0.96974 0.19566 0.02102 0.0
C5 C 0.90104 0.11227 0.98115 0.0
O6 O 0.89473 0.13619 0.00047 0.0
O7 O 0.9845 0.20586 0.93057 0.0
C8 C 0.97037 0.18119 0.05118 0.0
O9 O 0.97665 0.1531 0.04983 0.0
C10 C 0.05851 0.1924 0.97562 0.0
O11 O 0.06539 0.2251 0.96745 0.0
O12 O 0.93236 0.12312 0.96428 0.0
C13 C 0.7564 0.72575 0.04612 0.0
O14 O 0.73475 0.7221 0.0163 0.0
O15 O 0.86812 0.81112 0.01223 0.0
Zn16 Zn 0.81089 0.79178 0.01361 0.0
O17 O 0.78588 0.77127 0.9628 0.0
C18 C 0.8255 0.86171 0.04558 0.0
O19 O 0.85463 0.86066 0.06253 0.0
O20 O 0.78934 0.75377 0.05102 0.0
C21 C 0.79193 0.79403 0.93821 0.0
O22 O 0.81601 0.82864 0.94659 0.0
C23 C 0.88412 0.79728 -0.00849 0.0
O24 O 0.86254 0.76821 0.96943 0.0
O25 O 0.80122 0.83387 0.02577 0.0
C26 C 0.2889 0.00273 0.93029 0.0
O27 O 0.29624 -0.00428 0.96393 0.0
O28 O 0.18264 0.97803 0.9674 0.0
Zn29 Zn 0.23611 0.02058 0.96874 0.0
O30 O 0.26428 0.02615 0.01782 0.0
C31 C 0.24041 0.0917 0.98515 0.0
O32 O 0.26171 0.09431 0.01486 0.0
O33 O 0.26458 0.01402 0.92597 0.0
C34 C 0.24773 0.02291 0.0486 0.0
O35 O 0.21132 0.01504 0.04806 0.0
C36 C 0.17174 0.94788 0.98216 0.0
O37 O 0.19718 0.94195 0.00021 0.0
O38 O 0.22872 0.06416 0.96203 0.0
C39 C 0.69678 0.5383 0.23414 0.0
O40 O 0.70662 0.51265 0.22915 0.0
O41 O 0.73136 0.50427 0.30871 0.0
Zn42 Zn 0.69269 0.52202 0.31263 0.0
O43 O 0.70653 0.55804 0.35632 0.0
C44 C 0.63423 0.44851 0.30403 0.0
O45 O 0.65714 0.44851 0.27787 0.0
O46 O 0.68915 0.54572 0.26668 0.0
C47 C 0.70545 0.54816 0.38942 0.0
O48 O 0.697 0.51435 0.39445 0.0
C49 C 0.76613 0.52071 0.29922 0.0
O50 O 0.78147 0.5548 0.29054 0.0
O51 O 0.64226 0.47833 0.32198 0.0
C52 C 0.38034 0.07308 0.40083 0.0
O53 O 0.36001 0.06786 0.36957 0.0
O54 O 0.49615 0.13676 0.36076 0.0
Zn55 Zn 0.44184 0.129 0.3614 0.0
O56 O 0.41327 0.10504 0.31224 0.0
C57 C 0.47244 0.20171 0.3921 0.0
O58 O 0.49056 0.19044 0.41457 0.0
O59 O 0.41524 0.09813 0.40363 0.0
C60 C 0.41001 0.12412 0.28736 0.0
O61 O 0.42629 0.1596 0.29377 0.0
C62 C 0.51966 0.16029 0.33982 0.0
O63 O 0.50687 0.17639 0.31734 0.0
O64 O 0.44672 0.17874 0.36884 0.0
C65 C 0.95113 0.33303 0.395 0.0
O66 O 0.96257 0.35188 0.36514 0.0
O67 O 0.88709 0.34812 0.33859 0.0
Zn68 Zn 0.88371 0.30013 0.34931 0.0
O69 O 0.90299 0.28202 0.30628 0.0
C70 C 0.80792 0.27653 0.37495 0.0
O71 O 0.82531 0.3093 0.39186 0.0
O72 O 0.91661 0.30744 0.39528 0.0
C73 C 0.87975 0.25777 0.28225 0.0
O74 O 0.84247 0.24434 0.28581 0.0
C75 C 0.88055 0.35526 0.30604 0.0
O76 O 0.8734 0.33132 0.27786 0.0
O77 O 0.82779 0.26544 0.35639 0.0
C78 C 0.31863 0.89426 0.59693 0.0
O79 O 0.29848 0.89188 0.62648 0.0
O80 O 0.39792 0.85731 0.64221 0.0
Zn81 Zn 0.34621 0.8551 0.6407 0.0
O82 O 0.3406 0.87908 0.68796 0.0
C83 C 0.27855 0.78872 0.659 0.0
O84 O 0.27144 0.81069 0.68085 0.0
O85 O 0.34031 0.87966 0.59648 0.0
C86 C 0.36475 0.91127 0.69985 0.0
O87 O 0.39526 0.93023 0.68056 0.0
C88 C 0.42718 0.87788 0.62432 0.0
O89 O 0.4254 0.90159 0.60282 0.0
O90 O 0.30729 0.80209 0.63826 0.0
C91 C 0.15372 0.40372 0.73978 0.0
O92 O 0.18012 0.39741 0.72459 0.0
O93 O 0.23212 0.46824 0.687 0.0
Zn94 Zn 0.17654 0.4569 0.68499 0.0
O95 O 0.14793 0.42874 0.63766 0.0
C96 C 0.19877 0.53086 0.70852 0.0
O97 O 0.22125 0.526 0.73235 0.0
O98 O 0.14802 0.42887 0.728 0.0
C99 C 0.11472 0.42607 0.63336 0.0
O100 O 0.10255 0.44051 0.65972 0.0
C101 C 0.24946 0.46788 0.65755 0.0
O102 O 0.22978 0.45694 0.62531 0.0
O103 O 0.17619 0.50452 0.68603 0.0
C104 C 0.65232 0.69151 0.58802 0.0
O105 O 0.67582 0.71253 0.61574 0.0
O106 O 0.54252 0.66406 0.63705 0.0
Zn107 Zn 0.59586 0.70332 0.62758 0.0
O108 O 0.62939 0.71638 0.67429 0.0
C109 C 0.60776 0.77802 0.62615 0.0
O110 O 0.63509 0.78655 0.65212 0.0
O111 O 0.6174 0.68481 0.58706 0.0
C112 C 0.61808 0.72127 0.70595 0.0
O113 O 0.58347 0.71804 0.70822 0.0
C114 C 0.53397 0.63236 0.64657 0.0
O115 O 0.56152 0.62373 0.65135 0.0
O116 O 0.58988 0.74562 0.61162 0.0
C117 C 0.20396 0.11552 0.94883 0.0
C118 C 0.22391 0.11654 0.98198 0.0
C119 C 0.1818 0.13337 0.94744 0.0
C120 C 0.17938 0.15247 0.98007 0.0
C121 C 0.2018 0.15594 0.01277 0.0
C122 C 0.22398 0.13801 0.01329 0.0
C123 C 0.15871 0.12943 0.91186 0.0
C124 C 0.20003 0.17616 0.04808 0.0
C125 C 0.12793 0.20854 0.97001 0.0
C126 C 0.09031 0.18348 0.97894 0.0
C127 C 0.15766 0.19927 0.97108 0.0
C128 C 0.14946 0.16421 0.98138 0.0
C129 C 0.11179 0.13921 -0.00861 0.0
C130 C 0.08271 0.14914 -0.00999 0.0
C131 C 0.19751 0.22656 0.96026 0.0
C132 C 0.1019 0.10157 0.0027 0.0
H133 H 0.2042 0.09936 0.92436 0.0
H134 H 0.23945 0.13903 0.03898 0.0
H135 H 0.1277 0.11098 0.91593 0.0
H136 H 0.16174 0.15612 0.90487 0.0
H137 H 0.16771 0.11803 0.88774 0.0
H138 H 0.22331 0.18105 0.06903 0.0
H139 H 0.20221 0.2027 0.04177 0.0
H140 H 0.17184 0.15997 0.06079 0.0
H141 H 0.13403 0.23515 0.96147 0.0
H142 H 0.0538 0.1297 -0.00281 0.0
H143 H 0.20489 0.21625 0.93424 0.0
H144 H 0.21924 0.23022 0.98239 0.0
H145 H 0.19981 0.25349 0.9555 0.0
H146 H 0.10616 0.08601 0.97898 0.0
H147 H 0.07163 0.08599 0.01118 0.0
H148 H 0.12138 0.10347 0.02635 0.0
C149 C 0.79825 0.89915 0.01897 0.0
C150 C 0.8258 0.89691 0.04236 0.0
C151 C 0.80272 0.93301 0.00949 0.0
C152 C 0.83553 0.96526 0.02366 0.0
C153 C 0.86172 0.96321 0.04962 0.0
C154 C 0.85647 0.92904 0.05874 0.0
C155 C 0.7738 0.93408 0.98226 0.0
C156 C 0.89693 -0.00297 0.06565 0.0
C157 C 0.88497 0.04766 0.96663 0.0
C158 C 0.87735 0.07294 -0.01343 0.0
C159 C 0.86938 0.0117 0.977 0.0
C160 C 0.84548 0.00074 0.00801 0.0
C161 C 0.83502 0.02521 0.02625 0.0
C162 C 0.8511 0.06112 0.01529 0.0
C163 C 0.88084 0.98627 0.95647 0.0
C164 C 0.80912 0.01435 0.05902 0.0
H165 H 0.77421 0.87446 0.00643 0.0
H166 H 0.87767 0.9276 0.07712 0.0
H167 H 0.7668 0.95586 -0.00877 0.0
H168 H 0.78634 0.94029 0.95434 0.0
H169 H 0.74668 0.90767 0.97932 0.0
H170 H 0.91232 -0.00898 0.08816 0.0
H171 H 0.91717 0.00974 0.04308 0.0
H172 H 0.88876 0.01729 0.07716 0.0
H173 H 0.90484 0.05645 0.94411 0.0
H174 H 0.84486 0.08041 0.03075 0.0
H175 H 0.855 0.95987 0.9483 0.0
H176 H 0.89969 0.98063 0.97524 0.0
H177 H 0.89661 -0.00214 0.9309 0.0
H178 H 0.78419 0.98671 0.05343 0.0
H179 H 0.7982 0.03385 0.06559 0.0
H180 H 0.8255 0.01358 0.08409 0.0
C181 C 0.94928 0.84496 0.01625 0.0
C182 C 0.92672 0.81499 -0.00879 0.0
C183 C 0.98956 0.86359 0.01498 0.0
C184 C 0.0078 0.85209 -0.01207 0.0
C185 C 0.98535 0.82119 0.96332 0.0
C186 C 0.94502 0.80295 0.96528 0.0
C187 C 0.01249 0.89637 0.04181 0.0
C188 C 0.00383 0.80818 0.93409 0.0
C189 C 0.10392 0.92693 0.95954 0.0
C190 C 0.13012 0.92114 0.98122 0.0
C191 C 0.06411 0.90382 0.96049 0.0
C192 C 0.05004 0.87419 0.98376 0.0
C193 C 0.07631 0.86737 0.00474 0.0
C194 C 0.11612 0.89093 0.00317 0.0
C195 C 0.03706 0.91194 0.93756 0.0
C196 C 0.06231 0.836 0.02986 0.0
H197 H 0.93543 0.85433 0.03656 0.0
H198 H 0.92782 0.77977 0.9459 0.0
H199 H 0.03552 0.89351 0.05689 0.0
H200 H 0.02677 0.92124 0.02597 0.0
H201 H 0.99418 0.90032 0.06273 0.0
H202 H 0.98271 0.7821 0.91911 0.0
H203 H 0.01711 0.82901 0.91326 0.0
H204 H 0.02722 0.8045 0.94718 0.0
H205 H 0.11445 0.95003 0.94225 0.0
H206 H 0.13617 0.88624 0.01996 0.0
H207 H 0.01965 0.9194 0.95646 0.0
H208 H 0.01668 0.8874 0.91997 0.0
H209 H 0.05267 0.9346 0.91907 0.0
H210 H 0.04673 0.84064 0.05318 0.0
H211 H 0.08636 0.8326 0.04189 0.0
H212 H 0.04165 0.81026 0.01412 0.0
C213 C 0.87995 0.41132 0.33211 0.0
C214 C 0.87491 0.38727 0.30127 0.0
C215 C 0.86818 0.43784 0.32984 0.0
C216 C 0.85099 0.44033 0.29591 0.0
C217 C 0.84879 0.41819 0.26385 0.0
C218 C 0.86081 0.39189 0.2669 0.0
C219 C 0.87128 0.46111 0.36462 0.0
C220 C 0.83087 0.42022 0.22709 0.0
C221 C 0.77053 0.46402 0.30618 0.0
C222 C 0.78844 0.50072 0.29773 0.0
C223 C 0.79061 0.44421 0.30533 0.0
C224 C 0.82972 0.46143 0.29578 0.0
C225 C 0.84806 0.49838 0.28694 0.0
C226 C 0.82715 0.51767 0.28802 0.0
C227 C 0.76992 0.4048 0.31494 0.0
C228 C 0.88972 0.51751 0.27661 0.0
H229 H 0.89131 0.40828 0.35867 0.0
H230 H 0.85721 0.37369 0.2428 0.0
H231 H 0.88234 0.48991 0.35804 0.0
H232 H 0.84222 0.45149 0.37583 0.0
H233 H 0.89048 0.45987 0.38683 0.0
H234 H 0.83698 0.4057 0.2036 0.0
H235 H 0.79915 0.40761 0.22925 0.0
H236 H 0.84155 0.44894 0.22041 0.0
H237 H 0.7406 0.45058 0.3136 0.0
H238 H 0.84115 0.54599 0.2814 0.0
H239 H 0.78467 0.40099 0.3396 0.0
H240 H 0.77075 0.38713 0.29128 0.0
H241 H 0.73931 0.3954 0.32133 0.0
H242 H 0.90835 0.51772 0.30022 0.0
H243 H 0.89947 0.54604 0.26956 0.0
H244 H 0.89395 0.50258 0.2523 0.0
C245 C 0.52458 0.26598 0.40339 0.0
C246 C 0.48851 0.24101 0.38678 0.0
C247 C 0.54447 0.30166 0.39202 0.0
C248 C 0.52764 0.31268 0.36369 0.0
C249 C 0.48981 0.28862 0.34924 0.0
C250 C 0.47071 0.25296 0.36087 0.0
C251 C 0.5848 0.32652 0.40814 0.0
C252 C 0.47067 0.29957 0.31943 0.0
C253 C 0.57997 0.41321 0.34558 0.0
C254 C 0.60336 0.41366 0.31632 0.0
C255 C 0.55393 0.38034 0.36046 0.0
C256 C 0.55156 0.34733 0.34589 0.0
C257 C 0.57399 0.3475 0.3154 0.0
C258 C 0.59944 0.38064 0.30087 0.0
C259 C 0.53013 0.3811 0.39267 0.0
C260 C 0.57236 0.31282 0.29914 0.0
H261 H 0.5385 0.25705 0.42354 0.0
H262 H 0.44265 0.23392 0.34816 0.0
H263 H 0.6059 0.33005 0.38651 0.0
H264 H 0.58842 0.35385 0.41639 0.0
H265 H 0.59188 0.31551 0.43291 0.0
H266 H 0.43933 0.28017 0.31558 0.0
H267 H 0.47459 0.32722 0.32649 0.0
H268 H 0.48428 0.30038 0.29239 0.0
H269 H 0.58273 0.43862 0.35758 0.0
H270 H 0.61734 0.38071 0.27824 0.0
H271 H 0.54019 0.37393 0.41845 0.0
H272 H 0.4994 0.36057 0.38707 0.0
H273 H 0.53217 0.4083 0.39802 0.0
H274 H 0.5826 0.30087 0.32067 0.0
H275 H 0.59036 0.31745 0.2744 0.0
H276 H 0.54221 0.29246 0.29069 0.0
C277 C 0.58729 0.19949 0.32142 0.0
C278 C 0.56151 0.17267 0.34389 0.0
C279 C 0.62726 0.21393 0.32703 0.0
C280 C 0.64183 0.20134 0.35588 0.0
C281 C 0.61599 0.1736 0.37804 0.0
C282 C 0.5761 0.15953 0.37173 0.0
C283 C 0.6539 0.24339 0.30269 0.0
C284 C 0.63051 0.1596 0.40913 0.0
C285 C 0.74633 0.22285 0.35011 0.0
C286 C 0.7653 0.25497 0.37333 0.0
C287 C 0.706 0.20443 0.34501 0.0
C288 C 0.68415 0.21838 0.3637 0.0
C289 C 0.703 0.24994 0.38832 0.0
C290 C 0.74335 0.26788 0.3928 0.0
C291 C 0.68691 0.17088 0.31849 0.0
C292 C 0.68065 0.26553 0.40893 0.0
H293 H 0.5763 0.20978 0.29983 0.0
H294 H 0.5564 0.13886 0.38928 0.0
H295 H 0.67143 0.26899 0.32014 0.0
H296 H 0.67418 0.2355 0.28942 0.0
H297 H 0.63795 0.24892 0.28034 0.0
H298 H 0.60669 0.13662 0.4225 0.0
H299 H 0.65071 0.15042 0.39821 0.0
H300 H 0.64675 0.1819 0.43089 0.0
H301 H 0.76304 0.21266 0.33494 0.0
H302 H 0.75774 0.2926 0.41089 0.0
H303 H 0.67342 0.17647 0.29403 0.0
H304 H 0.6636 0.14807 0.33243 0.0
H305 H 0.70768 0.16208 0.30818 0.0
H306 H 0.66656 0.27505 0.38855 0.0
H307 H 0.69936 0.28878 0.42893 0.0
H308 H 0.65751 0.24422 0.42455 0.0
C309 C 0.46183 0.84594 0.64764 0.0
C310 C 0.46137 0.87224 0.62522 0.0
C311 C 0.49161 0.83698 0.64609 0.0
C312 C 0.52198 0.85496 0.62171 0.0
C313 C 0.52289 0.88295 0.60047 0.0
C314 C 0.49242 0.8912 0.60235 0.0
C315 C 0.48949 0.80695 0.66928 0.0
C316 C 0.5551 0.90305 0.5746 0.0
C317 C 0.60351 0.83472 0.64261 0.0
C318 C 0.59228 0.80318 0.61915 0.0
C319 C 0.58291 0.8542 0.64147 0.0
C320 C 0.5504 0.84168 0.61642 0.0
C321 C 0.54134 0.81199 0.59027 0.0
C322 C 0.56246 0.79317 0.5919 0.0
C323 C 0.59395 0.88622 0.66925 0.0
C324 C 0.50706 0.79789 0.56288 0.0
H325 H 0.4382 0.83138 0.66568 0.0
H326 H 0.49241 0.91173 0.58511 0.0
H327 H 0.48606 0.78362 0.65054 0.0
H328 H 0.51661 0.81662 0.68643 0.0
H329 H 0.46503 0.79703 0.68826 0.0
H330 H 0.55496 0.92773 0.56484 0.0
H331 H 0.58351 0.9112 0.58869 0.0
H332 H 0.55194 0.88483 0.54973 0.0
H333 H 0.62682 0.84293 0.66347 0.0
H334 H 0.55402 0.76921 0.57319 0.0
H335 H 0.5738 0.87764 0.69246 0.0
H336 H 0.59175 0.90855 0.65595 0.0
H337 H 0.62373 0.89689 0.68135 0.0
H338 H 0.48009 0.78434 0.57825 0.0
H339 H 0.50702 0.77793 0.5413 0.0
H340 H 0.50666 0.82061 0.54865 0.0
C341 C 0.23041 0.73412 0.69046 0.0
C342 C 0.25784 0.74897 0.66312 0.0
C343 C 0.21514 0.69743 0.6985 0.0
C344 C 0.22778 0.67528 0.67882 0.0
C345 C 0.25374 0.68959 0.64974 0.0
C346 C 0.26832 0.7262 0.64215 0.0
C347 C 0.18707 0.68293 0.72932 0.0
C348 C 0.2678 0.66678 0.62798 0.0
C349 C 0.23309 0.59798 0.72401 0.0
C350 C 0.20289 0.56749 0.70469 0.0
C351 C 0.24037 0.63328 0.71708 0.0
C352 C 0.21668 0.63814 0.6904 0.0
C353 C 0.18479 0.60744 0.67241 0.0
C354 C 0.17834 0.57243 0.67966 0.0
C355 C 0.2747 0.6654 0.73686 0.0
C356 C 0.15861 0.61156 0.64416 0.0
H357 H 0.22196 0.75145 0.70664 0.0
H358 H 0.28924 0.73733 0.62075 0.0
H359 H 0.16207 0.6563 0.72 0.0
H360 H 0.20143 0.67841 0.75381 0.0
H361 H 0.17632 0.70201 0.73849 0.0
H362 H 0.2859 0.68125 0.60459 0.0
H363 H 0.28511 0.65948 0.64699 0.0
H364 H 0.24302 0.641 0.61636 0.0
H365 H 0.25207 0.5944 0.74351 0.0
H366 H 0.15468 0.54896 0.66487 0.0
H367 H 0.26592 0.68465 0.74998 0.0
H368 H 0.29653 0.68034 0.71621 0.0
H369 H 0.28844 0.65702 0.75883 0.0
H370 H 0.14963 0.63136 0.65532 0.0
H371 H 0.1324 0.58526 0.63633 0.0
H372 H 0.17442 0.62235 0.61846 0.0
C373 C 0.3115 0.48605 0.62604 0.0
C374 C 0.29209 0.48491 0.65879 0.0
C375 C 0.35179 0.50668 0.62551 0.0
C376 C 0.37312 0.52672 0.65849 0.0
C377 C 0.35393 0.52392 0.69218 0.0
C378 C 0.31363 0.50297 0.69195 0.0
C379 C 0.37124 0.50875 0.58909 0.0
C380 C 0.37566 0.54481 0.72795 0.0
C381 C 0.48256 0.56974 0.66027 0.0
C382 C 0.49305 0.60532 0.6509 0.0
C383 C 0.44362 0.54381 0.66326 0.0
C384 C 0.41463 0.55376 0.65667 0.0
C385 C 0.42511 0.58972 0.64766 0.0
C386 C 0.46412 0.61502 0.64492 0.0
C387 C 0.43346 0.50574 0.67307 0.0
C388 C 0.39506 0.60146 0.64049 0.0
H389 H 0.29513 0.47192 0.60037 0.0
H390 H 0.29892 0.50213 0.71746 0.0
H391 H 0.38208 0.53634 0.57872 0.0
H392 H 0.39646 0.50428 0.59336 0.0
H393 H 0.35133 0.48844 0.56716 0.0
H394 H 0.35733 0.5363 0.75258 0.0
H395 H 0.40121 0.54106 0.73317 0.0
H396 H 0.38628 0.57432 0.72531 0.0
H397 H 0.50473 0.56203 0.66499 0.0
H398 H 0.47189 0.64243 0.63776 0.0
H399 H 0.41551 0.4859 0.64992 0.0
H400 H 0.4161 0.4986 0.69836 0.0
H401 H 0.45944 0.50263 0.67836 0.0
H402 H 0.37552 0.58473 0.61644 0.0
H403 H 0.40806 0.6306 0.63433 0.0
H404 H 0.37714 0.59698 0.66522 0.0
C405 C 0.04408 0.30207 0.91786 0.0
C406 C 0.01715 0.26555 0.90848 0.0
C407 C 0.0647 0.3255 0.89023 0.0
C408 C 0.0578 0.31221 0.85227 0.0
C409 C 0.02916 0.27595 0.8424 0.0
C410 C 0.00929 0.25294 0.87068 0.0
C411 C 0.09519 0.36396 0.90183 0.0
C412 C 0.02058 0.26105 0.8021 0.0
C413 C 0.09559 0.38146 0.77837 0.0
C414 C 0.12949 0.38068 0.76889 0.0
C415 C 0.07167 0.35899 0.80516 0.0
C416 C 0.08222 0.3356 0.82322 0.0
C417 C 0.11652 0.33487 0.81398 0.0
C418 C 0.13964 0.35727 0.78671 0.0
C419 C 0.03506 0.36014 0.81401 0.0
C420 C 0.12891 0.31055 0.83303 0.0
H421 H 0.05035 0.31203 0.94701 0.0
H422 H 0.98834 0.2248 0.86323 0.0
H423 H 0.12403 0.36751 0.89514 0.0
H424 H 0.09058 0.38373 0.88598 0.0
H425 H 0.09536 0.37074 0.93224 0.0
H426 H -0.00489 0.23344 0.79885 0.0
H427 H 0.01531 0.27949 0.78461 0.0
H428 H 0.04586 0.25954 0.79111 0.0
H429 H 0.08742 0.3993 0.76446 0.0
H430 H 0.16582 0.35662 0.77956 0.0
H431 H 0.03581 0.36841 0.84404 0.0
H432 H 0.00985 0.3326 0.80889 0.0
H433 H 0.03066 0.37938 0.79695 0.0
H434 H 0.13229 0.3171 0.86372 0.0
H435 H 0.15656 0.31344 0.82284 0.0
H436 H 0.1064 0.28167 0.82815 0.0
C437 C 0.74296 0.74557 0.8935 0.0
C438 C 0.76904 0.78243 0.90235 0.0
C439 C 0.71882 0.73461 0.86102 0.0
C440 C 0.72075 0.76119 0.83698 0.0
C441 C 0.74761 0.79833 0.8453 0.0
C442 C 0.77153 0.8085 0.87785 0.0
C443 C 0.6907 0.69471 0.85283 0.0
C444 C 0.75044 0.82744 0.8203 0.0
C445 C 0.67998 0.73221 0.73715 0.0
C446 C 0.64401 0.73097 0.73965 0.0
C447 C 0.70513 0.7417 0.7687 0.0
C448 C 0.69409 0.75029 0.80351 0.0
C449 C 0.65778 0.74896 0.8063 0.0
C450 C 0.63311 0.73924 0.77431 0.0
C451 C 0.74358 0.74271 0.76473 0.0
C452 C 0.64515 0.7581 0.84301 0.0
H453 H 0.74093 0.72526 0.91227 0.0
H454 H 0.79157 0.83705 0.88451 0.0
H455 H 0.66074 0.69035 0.85302 0.0
H456 H 0.6949 0.6856 0.8245 0.0
H457 H 0.69389 0.67735 0.87356 0.0
H458 H 0.77361 0.85497 0.8302 0.0
H459 H 0.75613 0.82128 0.79133 0.0
H460 H 0.72262 0.82787 0.81913 0.0
H461 H 0.68859 0.72577 0.71048 0.0
H462 H 0.60539 0.73837 0.77644 0.0
H463 H 0.7463 0.72418 0.78419 0.0
H464 H 0.76731 0.77056 0.77246 0.0
H465 H 0.7475 0.73463 0.73579 0.0
H466 H 0.64515 0.73987 0.86444 0.0
H467 H 0.61588 0.75547 0.84052 0.0
H468 H 0.66581 0.78641 0.85333 0.0
C469 C 0.32448 0.90656 0.75426 0.0
C470 C 0.35773 0.92716 0.73468 0.0
C471 C 0.31655 0.92119 0.78678 0.0
C472 C 0.34252 0.95731 0.80014 0.0
C473 C 0.37643 0.97816 0.78088 0.0
C474 C 0.38364 0.96282 0.74828 0.0
C475 C 0.28001 0.8981 0.80653 0.0
C476 C 0.40476 0.01676 0.79446 0.0
C477 C 0.29695 0.00096 0.86132 0.0
C478 C 0.30627 -0.0052 0.89728 0.0
C479 C 0.31012 -0.0096 0.82943 0.0
C480 C 0.33319 0.97332 0.83364 0.0
C481 C 0.34421 0.96857 0.86987 0.0
C482 C 0.33058 0.97937 0.90132 0.0
C483 C 0.2978 -0.00405 0.79122 0.0
C484 C 0.36893 0.95058 0.87538 0.0
H485 H 0.30431 0.87895 0.74401 0.0
H486 H 0.40943 0.97886 0.73332 0.0
H487 H 0.28705 0.8959 0.83609 0.0
H488 H 0.2614 0.91119 0.80681 0.0
H489 H 0.2633 0.87021 0.79295 0.0
H490 H 0.43048 0.02883 0.77713 0.0
H491 H 0.39053 0.03399 0.79388 0.0
H492 H 0.41444 0.01756 0.82391 0.0
H493 H 0.27842 0.01313 0.85794 0.0
H494 H 0.33812 0.97474 0.92902 0.0
H495 H 0.27808 0.96912 0.77675 0.0
H496 H 0.32317 0.0096 0.77375 0.0
H497 H 0.28272 0.01249 0.7928 0.0
H498 H 0.35249 0.92145 0.86543 0.0
H499 H 0.37817 0.95227 0.90521 0.0
H500 H 0.39495 0.96336 0.8586 0.0
C501 C 0.38141 0.1278 0.22616 0.0
C502 C 0.38687 0.10661 0.25222 0.0
C503 C 0.35852 0.1117 0.1933 0.0
C504 C 0.34078 0.07348 0.18622 0.0
C505 C 0.34654 0.05191 0.21213 0.0
C506 C 0.36949 0.06874 0.24491 0.0
C507 C 0.35301 0.13561 0.16631 0.0
C508 C 0.32821 0.01109 0.20533 0.0
C509 C 0.25387 0.03384 0.11824 0.0
C510 C 0.27043 0.03192 0.08445 0.0
C511 C 0.27616 0.046 0.15193 0.0
C512 C 0.31587 0.05631 0.15178 0.0
C513 C 0.33234 0.05284 0.11808 0.0
C514 C 0.30942 0.04072 0.08478 0.0
C515 C 0.2576 0.04931 0.18738 0.0
C516 C 0.37453 0.06334 0.11689 0.0
H517 H 0.39472 0.15706 0.23157 0.0
H518 H 0.37363 0.05218 0.2649 0.0
H519 H 0.36281 0.13201 0.13834 0.0
H520 H 0.32194 0.1275 0.16292 0.0
H521 H 0.36908 0.16492 0.17583 0.0
H522 H 0.3363 -0.00168 0.22781 0.0
H523 H 0.29636 -0.00099 0.20356 0.0
H524 H 0.33697 0.00413 0.17818 0.0
H525 H 0.22373 0.02695 0.11825 0.0
H526 H 0.32237 0.03904 0.05883 0.0
H527 H 0.26995 0.07844 0.19699 0.0
H528 H 0.26376 0.03542 0.21001 0.0
H529 H 0.22585 0.03751 0.18335 0.0
H530 H 0.39235 0.09317 0.1229 0.0
H531 H 0.38205 0.05596 0.08922 0.0
H532 H 0.38237 0.04987 0.13875 0.0
C533 C 0.95662 0.175 0.11907 0.0
C534 C 0.96076 0.19378 0.08665 0.0
C535 C 0.94493 0.18522 0.15223 0.0
C536 C 0.93731 0.21493 0.15288 0.0
C537 C 0.94237 0.23456 0.12053 0.0
C538 C 0.95403 0.22373 0.08777 0.0
C539 C 0.93985 0.16372 0.18628 0.0
C540 C 0.93462 0.26649 0.12027 0.0
C541 C 0.8689 0.2196 0.22297 0.0
C542 C 0.89456 0.24582 0.24992 0.0
C543 C 0.8825 0.20888 0.19151 0.0
C544 C 0.9227 0.22478 0.18695 0.0
C545 C 0.94878 0.25083 0.21431 0.0
C546 C 0.93439 0.26106 0.24551 0.0
C547 C 0.85384 0.18095 0.16284 0.0
C548 C 0.99185 0.2683 0.21031 0.0
H549 H 0.96179 0.15183 0.1184 0.0
H550 H 0.9573 0.23846 0.06285 0.0
H551 H 0.95709 0.18217 0.21059 0.0
H552 H 0.90919 0.15042 0.19378 0.0
H553 H 0.94864 0.14239 0.18165 0.0
H554 H 0.94141 0.27973 0.09324 0.0
H555 H 0.90383 0.25725 0.12549 0.0
H556 H 0.952 0.28711 0.14308 0.0
H557 H 0.83809 0.20765 0.22622 0.0
H558 H 0.95441 0.28129 0.26626 0.0
H559 H 0.8597 0.1577 0.1587 0.0
H560 H 0.85693 0.19319 0.13547 0.0
H561 H 0.82357 0.1704 0.17114 0.0
H562 H 0.00087 0.24706 0.20707 0.0
H563 H 0.00826 0.28717 0.23473 0.0
H564 H -0.00017 0.28375 0.1847 0.0
C565 C 0.71456 0.55863 0.16942 0.0
C566 C 0.69852 0.56119 0.20332 0.0
C567 C 0.72057 0.58324 0.14183 0.0
C568 C 0.71013 0.61088 0.14833 0.0
C569 C 0.69204 0.61236 0.18162 0.0
C570 C 0.6865 0.58752 0.20874 0.0
C571 C 0.7399 0.58082 0.10659 0.0
C572 C 0.68027 0.6413 0.18944 0.0
C573 C 0.76839 0.69982 0.10295 0.0
C574 C 0.74376 0.69667 0.07271 0.0
C575 C 0.75771 0.67201 0.12765 0.0
C576 C 0.72144 0.6403 0.1221 0.0
C577 C 0.69623 0.63702 0.09189 0.0
C578 C 0.70772 0.66527 0.06748 0.0
C579 C 0.7854 0.67652 0.1596 0.0
C580 C 0.65725 0.60364 0.08532 0.0
H581 H 0.72379 0.53827 0.16496 0.0
H582 H 0.67372 0.58946 0.23472 0.0
H583 H 0.72333 0.58131 0.08153 0.0
H584 H 0.76908 0.6048 0.10646 0.0
H585 H 0.74283 0.55576 0.10417 0.0
H586 H 0.6631 0.63648 0.21482 0.0
H587 H 0.7064 0.66834 0.19356 0.0
H588 H 0.66308 0.64244 0.16526 0.0
H589 H 0.79631 0.72395 0.1072 0.0
H590 H 0.68853 0.66264 0.04418 0.0
H591 H 0.79266 0.65403 0.15757 0.0
H592 H 0.77166 0.67504 0.1867 0.0
H593 H 0.81258 0.70282 0.1599 0.0
H594 H 0.6608 0.57907 0.08084 0.0
H595 H 0.6409 0.60543 0.06072 0.0
H596 H 0.6399 0.5998 0.11039 0.0
C597 C 0.10085 0.3893 0.57234 0.0
C598 C 0.09088 0.40897 0.59858 0.0
C599 C 0.07892 0.37414 0.53869 0.0
C600 C 0.04669 0.37927 0.53104 0.0
C601 C 0.03632 0.39877 0.55761 0.0
C602 C 0.05839 0.41317 0.59115 0.0
C603 C 0.09046 0.35307 0.51114 0.0
C604 C 0.00238 0.40516 0.55026 0.0
C605 C 0.01152 0.3765 0.43136 0.0
C606 C 0.97725 0.3432 0.42858 0.0
C607 C 0.03512 0.38805 0.46419 0.0
C608 C 0.0244 0.36549 0.49475 0.0
C609 C 0.99075 0.33112 0.49152 0.0
C610 C 0.96737 0.32047 0.45852 0.0
C611 C 0.07061 0.42507 0.46675 0.0
C612 C 0.97876 0.30613 0.52337 0.0
H613 H 0.12584 0.38583 0.57804 0.0
H614 H 0.05058 0.42843 0.61124 0.0
H615 H 0.06565 0.32566 0.50403 0.0
H616 H 0.09882 0.36723 0.48477 0.0
H617 H 0.11499 0.34986 0.5222 0.0
H618 H -0.00213 0.4205 0.57406 0.0
H619 H 0.00693 0.42066 0.52488 0.0
H620 H 0.97567 0.37876 0.54483 0.0
H621 H 0.01934 0.3942 0.40831 0.0
H622 H 0.94108 0.29453 0.45638 0.0
H623 H 0.09631 0.42277 0.47558 0.0
H624 H 0.06705 0.44305 0.48828 0.0
H625 H 0.07618 0.4383 0.43972 0.0
H626 H 0.00324 0.30246 0.53355 0.0
H627 H 0.95398 0.27896 0.5151 0.0
H628 H 0.97049 0.31851 0.54715 0.0
C629 C 0.69696 0.55957 0.45687 0.0
C630 C 0.70785 0.5729 0.42142 0.0
C631 C 0.69296 0.5811 0.48582 0.0
C632 C 0.70026 0.61679 0.4791 0.0
C633 C 0.71401 0.63129 0.44426 0.0
C634 C 0.71756 0.60911 0.41577 0.0
C635 C 0.67836 0.56476 0.5227 0.0
C636 C 0.7225 0.66937 0.4362 0.0
C637 C 0.63973 0.65069 0.53059 0.0
C638 C 0.6655 0.67385 0.55939 0.0
C639 C 0.65091 0.63223 0.50421 0.0
C640 C 0.68885 0.63709 0.50661 0.0
C641 C 0.71527 0.66084 0.53521 0.0
C642 C 0.70326 0.67897 0.56135 0.0
C643 C 0.62189 0.60715 0.47401 0.0
C644 C 0.75599 0.66672 0.53844 0.0
H645 H 0.68965 0.53169 0.46153 0.0
H646 H 0.72649 0.61976 0.38856 0.0
H647 H 0.69608 0.58387 0.54641 0.0
H648 H 0.64835 0.55978 0.52551 0.0
H649 H 0.67859 0.53855 0.52506 0.0
H650 H 0.7378 0.6782 0.4098 0.0
H651 H 0.69505 0.6704 0.43371 0.0
H652 H 0.74026 0.68908 0.4595 0.0
H653 H 0.61052 0.6466 0.52883 0.0
H654 H 0.72334 0.69684 0.58354 0.0
H655 H 0.6172 0.57902 0.47611 0.0
H656 H 0.63309 0.61585 0.44599 0.0
H657 H 0.59365 0.60665 0.47591 0.0
H658 H 0.75551 0.64061 0.54341 0.0
H659 H 0.77336 0.687 0.56157 0.0
H660 H 0.77055 0.67614 0.51184 0.0
C661 C 0.30251 0.93953 0.5699 0.0
C662 C 0.31945 0.91689 0.5662 0.0
C663 C 0.30712 0.96422 0.54279 0.0
C664 C 0.32903 0.96613 0.51132 0.0
C665 C 0.34443 0.942 0.50649 0.0
C666 C 0.33951 0.91772 0.53403 0.0
C667 C 0.2902 -0.01051 0.54878 0.0
C668 C 0.36773 0.943 0.47312 0.0
C669 C 0.32914 0.01556 0.42533 0.0
C670 C 0.36446 0.04769 0.43098 0.0
C671 C 0.31619 -0.01072 0.45207 0.0
C672 C 0.33912 -0.00457 0.48515 0.0
C673 C 0.37377 0.02864 0.49184 0.0
C674 C 0.38603 0.05435 0.46467 0.0
C675 C 0.27899 0.95423 0.4441 0.0
C676 C 0.39889 0.03633 0.52693 0.0
H677 H 0.28686 0.93895 0.59464 0.0
H678 H 0.35236 0.90006 0.53079 0.0
H679 H 0.31379 0.01769 0.55521 0.0
H680 H 0.27442 -0.01032 0.52297 0.0
H681 H 0.27023 0.98171 0.57219 0.0
H682 H 0.37496 0.92045 0.47197 0.0
H683 H 0.35166 0.94131 0.44676 0.0
H684 H 0.395 0.96923 0.47441 0.0
H685 H 0.31223 0.01028 0.39942 0.0
H686 H 0.41317 0.07927 0.46942 0.0
H687 H 0.26064 0.94784 0.46868 0.0
H688 H 0.28546 0.93147 0.43874 0.0
H689 H 0.26239 0.95541 0.41937 0.0
H690 H 0.3816 0.03201 0.55211 0.0
H691 H 0.42333 0.06457 0.52922 0.0
H692 H 0.41077 0.01714 0.52702 0.0
loop_
_geom_bond_atom_site_label_1
_geom_bond_atom_site_label_2
_geom_bond_distance
_geom_bond_site_symmetry_2
_ccdc_geom_bond_type
C0 O1 1.160 . S
C0 O7 1.185 . S
O1 C0 1.160 . S
O2 Zn3 1.900 . S
O2 C10 1.299 . S
Zn3 O2 1.900 . S
Zn3 O4 2.032 . S
Zn3 O7 2.086 1_554 S
Zn3 O12 1.977 1_454 S
O4 Zn3 2.032 . S
O4 C8 1.278 . S
C5 O6 1.203 . S
C5 O12 1.267 1_554 S
O6 C5 1.203 . S
O7 C0 1.185 . S
O7 Zn3 2.086 1_556 S
C8 O4 1.278 . S
C8 O9 1.211 1_455 S
O9 C8 1.211 1_655 S
C10 O2 1.299 . S
C10 O11 1.273 . S
O11 C10 1.273 . S
O12 Zn3 1.977 1_656 S
O12 C5 1.267 1_556 S
C13 O14 1.160 . S
C13 O20 1.185 . S
O14 C13 1.160 . S
O15 Zn16 1.899 . S
O15 C23 1.284 1_554 S
Zn16 O15 1.899 . S
Zn16 O17 2.032 1_554 S
Zn16 O20 2.086 . S
Zn16 O25 1.977 . S
O17 Zn16 2.032 1_556 S
O17 C21 1.278 . S
C18 O19 1.203 1_554 S
C18 O25 1.267 . S
O19 C18 1.203 1_556 S
O20 C13 1.185 . S
O20 Zn16 2.086 . S
C21 O17 1.278 . S
C21 O22 1.211 . S
O22 C21 1.211 . S
C23 O15 1.284 1_556 S
C23 O24 1.273 . S
O24 C23 1.273 . S
O25 Zn16 1.977 . S
O25 C18 1.267 . S
C26 O27 1.160 . S
C26 O33 1.185 1_565 S
O27 C26 1.160 . S
O28 Zn29 1.899 1_565 S
O28 C36 1.284 1_556 S
Zn29 O28 1.899 1_545 S
Zn29 O30 2.032 1_556 S
Zn29 O33 2.086 . S
Zn29 O38 1.977 . S
O30 Zn29 2.032 1_554 S
O30 C34 1.278 . S
C31 O32 1.203 . S
C31 O38 1.267 1_554 S
O32 C31 1.203 . S
O33 C26 1.185 1_545 S
O33 Zn29 2.086 . S
C34 O30 1.278 . S
C34 O35 1.211 . S
O35 C34 1.211 . S
C36 O28 1.284 1_554 S
C36 O37 1.273 . S
O37 C36 1.273 . S
O38 Zn29 1.977 . S
O38 C31 1.267 1_556 S
C39 O40 1.160 . S
C39 O46 1.185 . S
O40 C39 1.160 . S
O41 Zn42 1.899 . S
O41 C49 1.284 . S
Zn42 O41 1.899 . S
Zn42 O43 2.032 . S
Zn42 O46 2.086 . S
Zn42 O51 1.977 . S
O43 Zn42 2.032 . S
O43 C47 1.278 . S
C44 O45 1.203 . S
C44 O51 1.267 . S
O45 C44 1.203 . S
O46 C39 1.185 . S
O46 Zn42 2.086 . S
C47 O43 1.278 . S
C47 O48 1.211 . S
O48 C47 1.211 . S
C49 O41 1.284 . S
C49 O50 1.273 . S
O50 C49 1.273 . S
O51 Zn42 1.977 . S
O51 C44 1.267 . S
C52 O53 1.160 . S
C52 O59 1.185 . S
O53 C52 1.160 . S
O54 Zn55 1.899 . S
O54 C62 1.284 . S
Zn55 O54 1.899 . S
Zn55 O56 2.032 . S
Zn55 O59 2.086 . S
Zn55 O64 1.977 . S
O56 Zn55 2.032 . S
O56 C60 1.278 . S
C57 O58 1.203 . S
C57 O64 1.267 . S
O58 C57 1.203 . S
O59 C52 1.185 . S
O59 Zn55 2.086 . S
C60 O56 1.278 . S
C60 O61 1.211 . S
O61 C60 1.211 . S
C62 O54 1.284 . S
C62 O63 1.273 . S
O63 C62 1.273 . S
O64 Zn55 1.977 . S
O64 C57 1.267 . S
C65 O66 1.160 . S
C65 O72 1.185 . S
O66 C65 1.160 . S
O67 Zn68 1.899 . S
O67 C75 1.284 . S
Zn68 O67 1.899 . S
Zn68 O69 2.032 . S
Zn68 O72 2.086 . S
Zn68 O77 1.977 . S
O69 Zn68 2.032 . S
O69 C73 1.278 . S
C70 O71 1.203 . S
C70 O77 1.267 . S
O71 C70 1.203 . S
O72 C65 1.185 . S
O72 Zn68 2.086 . S
C73 O69 1.278 . S
C73 O74 1.211 . S
O74 C73 1.211 . S
C75 O67 1.284 . S
C75 O76 1.273 . S
O76 C75 1.273 . S
O77 Zn68 1.977 . S
O77 C70 1.267 . S
C78 O79 1.160 . S
C78 O85 1.185 . S
O79 C78 1.160 . S
O80 Zn81 1.899 . S
O80 C88 1.284 . S
Zn81 O80 1.899 . S
Zn81 O82 2.032 . S
Zn81 O85 2.086 . S
Zn81 O90 1.977 . S
O82 Zn81 2.032 . S
O82 C86 1.278 . S
C83 O84 1.203 . S
C83 O90 1.267 . S
O84 C83 1.203 . S
O85 C78 1.185 . S
O85 Zn81 2.086 . S
C86 O82 1.278 . S
C86 O87 1.211 . S
O87 C86 1.211 . S
C88 O80 1.284 . S
C88 O89 1.273 . S
O89 C88 1.273 . S
O90 Zn81 1.977 . S
O90 C83 1.267 . S
C91 O92 1.160 . S
C91 O98 1.185 . S
O92 C91 1.160 . S
O93 Zn94 1.899 . S
O93 C101 1.284 . S
Zn94 O93 1.899 . S
Zn94 O95 2.032 . S
Zn94 O98 2.086 . S
Zn94 O103 1.977 . S
O95 Zn94 2.032 . S
O95 C99 1.278 . S
C96 O97 1.203 . S
C96 O103 1.267 . S
O97 C96 1.203 . S
O98 C91 1.185 . S
O98 Zn94 2.086 . S
C99 O95 1.278 . S
C99 O100 1.211 . S
O100 C99 1.211 . S
C101 O93 1.284 . S
C101 O102 1.273 . S
O102 C101 1.273 . S
O103 Zn94 1.977 . S
O103 C96 1.267 . S
C104 O105 1.160 . S
C104 O111 1.185 . S
O105 C104 1.160 . S
O106 Zn107 1.899 . S
O106 C114 1.284 . S
Zn107 O106 1.899 . S
Zn107 O108 2.032 . S
Zn107 O111 2.086 . S
Zn107 O116 1.977 . S
O108 Zn107 2.032 . S
O108 C112 1.278 . S
C109 O110 1.203 . S
C109 O116 1.267 . S
O110 C109 1.203 . S
O111 C104 1.185 . S
O111 Zn107 2.086 . S
C112 O108 1.278 . S
C112 O113 1.211 . S
O113 C112 1.211 . S
C114 O106 1.284 . S
C114 O115 1.273 . S
O115 C114 1.273 . S
O116 Zn107 1.977 . S
O116 C109 1.267 . S
C117 C118 1.391 . S
C117 C119 1.394 . S
C117 H133 0.931 . S
C118 C117 1.391 . S
C118 C122 1.376 1_556 S
C119 C117 1.394 . S
C119 C120 1.369 1_556 S
C119 C123 1.531 . S
C120 C119 1.369 1_554 S
C120 C121 1.410 . S
C120 C128 1.503 . S
C121 C120 1.410 . S
C121 C122 1.392 . S
C121 C124 1.511 . S
C122 C118 1.376 1_554 S
C122 C121 1.392 . S
C122 H134 0.929 . S
C123 C119 1.531 . S
C123 H135 0.960 . S
C123 H136 0.962 . S
C123 H137 0.960 . S
C124 C121 1.511 . S
C124 H138 0.961 . S
C124 H139 0.961 . S
C124 H140 0.961 . S
C125 C126 1.370 . S
C125 C127 1.363 . S
C125 H141 0.931 . S
C126 C125 1.370 . S
C126 C130 1.408 1_554 S
C127 C125 1.363 . S
C127 C128 1.370 . S
C127 C131 1.524 . S
C128 C120 1.503 . S
C128 C127 1.370 . S
C128 C129 1.403 1_554 S
C129 C128 1.403 1_556 S
C129 C130 1.404 . S
C129 C132 1.539 . S
C130 C126 1.408 1_556 S
C130 C129 1.404 . S
C130 H142 0.930 . S
C131 C127 1.524 . S
C131 H143 0.956 . S
C131 H144 0.961 . S
C131 H145 0.961 . S
C132 C129 1.539 . S
C132 H146 0.958 . S
C132 H147 0.961 . S
C132 H148 0.960 . S
H133 C117 0.931 . S
H134 C122 0.929 . S
H135 C123 0.960 . S
H136 C123 0.962 . S
H137 C123 0.960 . S
H138 C124 0.961 . S
H139 C124 0.961 . S
H140 C124 0.961 . S
H141 C125 0.931 . S
H142 C130 0.930 . S
H143 C131 0.956 . S
H144 C131 0.961 . S
H145 C131 0.961 . S
H146 C132 0.958 . S
H147 C132 0.961 . S
H148 C132 0.960 . S
C149 C150 1.391 . S
C149 C151 1.394 . S
C149 H165 0.931 . S
C150 C149 1.391 . S
C150 C154 1.376 . S
C151 C149 1.394 . S
C151 C152 1.369 . S
C151 C155 1.531 1_554 S
C152 C151 1.369 . S
C152 C153 1.410 . S
C152 C160 1.503 1_565 S
C153 C152 1.410 . S
C153 C154 1.392 . S
C153 C156 1.511 1_565 S
C154 C150 1.376 . S
C154 C153 1.392 . S
C154 H166 0.929 . S
C155 C151 1.531 1_556 S
C155 H167 0.960 1_566 S
C155 H168 0.962 . S
C155 H169 0.960 . S
C156 C153 1.511 1_545 S
C156 H170 0.961 1_545 S
C156 H171 0.961 . S
C156 H172 0.961 . S
C157 C158 1.370 1_556 S
C157 C159 1.363 . S
C157 H173 0.931 . S
C158 C157 1.370 1_554 S
C158 C162 1.408 . S
C159 C157 1.363 . S
C159 C160 1.370 1_556 S
C159 C163 1.524 . S
C160 C152 1.503 1_545 S
C160 C159 1.370 1_554 S
C160 C161 1.403 . S
C161 C160 1.403 . S
C161 C162 1.404 . S
C161 C164 1.539 . S
C162 C158 1.408 . S
C162 C161 1.404 . S
C162 H174 0.930 . S
C163 C159 1.524 . S
C163 H175 0.956 . S
C163 H176 0.961 . S
C163 H177 0.961 . S
C164 C161 1.539 . S
C164 H178 0.958 . S
C164 H179 0.961 . S
C164 H180 0.960 . S
H165 C149 0.931 . S
H166 C154 0.929 . S
H167 C155 0.960 1_544 S
H168 C155 0.962 . S
H169 C155 0.960 . S
H170 C156 0.961 1_565 S
H171 C156 0.961 . S
H172 C156 0.961 . S
H173 C157 0.931 . S
H174 C162 0.930 . S
H175 C163 0.956 . S
H176 C163 0.961 . S
H177 C163 0.961 . S
H178 C164 0.958 . S
H179 C164 0.961 . S
H180 C164 0.960 . S
C181 C182 1.391 1_554 S
C181 C183 1.394 . S
C181 H197 0.931 . S
C182 C181 1.391 1_556 S
C182 C186 1.376 . S
C183 C181 1.394 . S
C183 C184 1.369 1_655 S
C183 C187 1.532 . S
C184 C183 1.369 1_455 S
C184 C185 1.410 1_454 S
C184 C192 1.503 . S
C185 C184 1.410 1_656 S
C185 C186 1.392 . S
C185 C188 1.511 1_655 S
C186 C182 1.376 . S
C186 C185 1.392 . S
C186 H198 0.929 . S
C187 C183 1.532 . S
C187 H199 0.934 1_655 S
C187 H200 0.968 1_655 S
C187 H201 0.980 . S
C188 C185 1.511 1_455 S
C188 H202 0.961 1_455 S
C188 H203 0.961 . S
C188 H204 0.961 . S
C189 C190 1.370 1_556 S
C189 C191 1.363 . S
C189 H205 0.931 . S
C190 C189 1.370 1_554 S
C190 C194 1.408 . S
C191 C189 1.363 . S
C191 C192 1.370 1_556 S
C191 C195 1.524 . S
C192 C184 1.503 . S
C192 C191 1.370 1_554 S
C192 C193 1.403 . S
C193 C192 1.403 . S
C193 C194 1.404 . S
C193 C196 1.539 . S
C194 C190 1.408 . S
C194 C193 1.404 . S
C194 H206 0.930 . S
C195 C191 1.524 . S
C195 H207 0.956 . S
C195 H208 0.961 . S
C195 H209 0.961 . S
C196 C193 1.539 . S
C196 H210 0.958 . S
C196 H211 0.961 . S
C196 H212 0.960 . S
H197 C181 0.931 . S
H198 C186 0.929 . S
H199 C187 0.934 1_455 S
H200 C187 0.968 1_455 S
H201 C187 0.980 . S
H202 C188 0.961 1_655 S
H203 C188 0.961 . S
H204 C188 0.961 . S
H205 C189 0.931 . S
H206 C194 0.930 . S
H207 C195 0.956 . S
H208 C195 0.961 . S
H209 C195 0.961 . S
H210 C196 0.958 . S
H211 C196 0.961 . S
H212 C196 0.960 . S
C213 C214 1.391 . S
C213 C215 1.394 . S
C213 H229 0.931 . S
C214 C213 1.391 . S
C214 C218 1.376 . S
C215 C213 1.394 . S
C215 C216 1.369 . S
C215 C219 1.531 . S
C216 C215 1.369 . S
C216 C217 1.410 . S
C216 C224 1.503 . S
C217 C216 1.410 . S
C217 C218 1.392 . S
C217 C220 1.511 . S
C218 C214 1.376 . S
C218 C217 1.392 . S
C218 H230 0.929 . S
C219 C215 1.531 . S
C219 H231 0.960 . S
C219 H232 0.962 . S
C219 H233 0.960 . S
C220 C217 1.511 . S
C220 H234 0.961 . S
C220 H235 0.961 . S
C220 H236 0.961 . S
C221 C222 1.370 . S
C221 C223 1.363 . S
C221 H237 0.931 . S
C222 C221 1.370 . S
C222 C226 1.408 . S
C223 C221 1.363 . S
C223 C224 1.370 . S
C223 C227 1.524 . S
C224 C216 1.503 . S
C224 C223 1.370 . S
C224 C225 1.403 . S
C225 C224 1.403 . S
C225 C226 1.404 . S
C225 C228 1.539 . S
C226 C222 1.408 . S
C226 C225 1.404 . S
C226 H238 0.930 . S
C227 C223 1.524 . S
C227 H239 0.956 . S
C227 H240 0.961 . S
C227 H241 0.961 . S
C228 C225 1.539 . S
C228 H242 0.958 . S
C228 H243 0.961 . S
C228 H244 0.960 . S
H229 C213 0.931 . S
H230 C218 0.929 . S
H231 C219 0.960 . S
H232 C219 0.962 . S
H233 C219 0.960 . S
H234 C220 0.961 . S
H235 C220 0.961 . S
H236 C220 0.961 . S
H237 C221 0.931 . S
H238 C226 0.930 . S
H239 C227 0.956 . S
H240 C227 0.961 . S
H241 C227 0.961 . S
H242 C228 0.958 . S
H243 C228 0.961 . S
H244 C228 0.960 . S
C245 C246 1.391 . S
C245 C247 1.394 . S
C245 H261 0.931 . S
C246 C245 1.391 . S
C246 C250 1.376 . S
C247 C245 1.394 . S
C247 C248 1.369 . S
C247 C251 1.531 . S
C248 C247 1.369 . S
C248 C249 1.410 . S
C248 C256 1.503 . S
C249 C248 1.410 . S
C249 C250 1.392 . S
C249 C252 1.511 . S
C250 C246 1.376 . S
C250 C249 1.392 . S
C250 H262 0.929 . S
C251 C247 1.531 . S
C251 H263 0.960 . S
C251 H264 0.962 . S
C251 H265 0.960 . S
C252 C249 1.511 . S
C252 H266 0.961 . S
C252 H267 0.961 . S
C252 H268 0.961 . S
C253 C254 1.370 . S
C253 C255 1.363 . S
C253 H269 0.931 . S
C254 C253 1.370 . S
C254 C258 1.408 . S
C255 C253 1.363 . S
C255 C256 1.370 . S
C255 C259 1.524 . S
C256 C248 1.503 . S
C256 C255 1.370 . S
C256 C257 1.403 . S
C257 C256 1.403 . S
C257 C258 1.404 . S
C257 C260 1.539 . S
C258 C254 1.408 . S
C258 C257 1.404 . S
C258 H270 0.930 . S
C259 C255 1.524 . S
C259 H271 0.956 . S
C259 H272 0.961 . S
C259 H273 0.961 . S
C260 C257 1.539 . S
C260 H274 0.958 . S
C260 H275 0.961 . S
C260 H276 0.960 . S
H261 C245 0.931 . S
H262 C250 0.929 . S
H263 C251 0.960 . S
H264 C251 0.962 . S
H265 C251 0.960 . S
H266 C252 0.961 . S
H267 C252 0.961 . S
H268 C252 0.961 . S
H269 C253 0.931 . S
H270 C258 0.930 . S
H271 C259 0.956 . S
H272 C259 0.961 . S
H273 C259 0.961 . S
H274 C260 0.958 . S
H275 C260 0.961 . S
H276 C260 0.960 . S
C277 C278 1.391 . S
C277 C279 1.394 . S
C277 H293 0.931 . S
C278 C277 1.391 . S
C278 C282 1.376 . S
C279 C277 1.394 . S
C279 C280 1.369 . S
C279 C283 1.531 . S
C280 C279 1.369 . S
C280 C281 1.410 . S
C280 C288 1.503 . S
C281 C280 1.410 . S
C281 C282 1.392 . S
C281 C284 1.511 . S
C282 C278 1.376 . S
C282 C281 1.392 . S
C282 H294 0.929 . S
C283 C279 1.531 . S
C283 H295 0.960 . S
C283 H296 0.962 . S
C283 H297 0.960 . S
C284 C281 1.511 . S
C284 H298 0.961 . S
C284 H299 0.961 . S
C284 H300 0.961 . S
C285 C286 1.370 . S
C285 C287 1.363 . S
C285 H301 0.931 . S
C286 C285 1.370 . S
C286 C290 1.408 . S
C287 C285 1.363 . S
C287 C288 1.370 . S
C287 C291 1.524 . S
C288 C280 1.503 . S
C288 C287 1.370 . S
C288 C289 1.403 . S
C289 C288 1.403 . S
C289 C290 1.404 . S
C289 C292 1.539 . S
C290 C286 1.408 . S
C290 C289 1.404 . S
C290 H302 0.930 . S
C291 C287 1.524 . S
C291 H303 0.956 . S
C291 H304 0.961 . S
C291 H305 0.961 . S
C292 C289 1.539 . S
C292 H306 0.958 . S
C292 H307 0.961 . S
C292 H308 0.960 . S
H293 C277 0.931 . S
H294 C282 0.929 . S
H295 C283 0.960 . S
H296 C283 0.962 . S
H297 C283 0.960 . S
H298 C284 0.961 . S
H299 C284 0.961 . S
H300 C284 0.961 . S
H301 C285 0.931 . S
H302 C290 0.930 . S
H303 C291 0.956 . S
H304 C291 0.961 . S
H305 C291 0.961 . S
H306 C292 0.958 . S
H307 C292 0.961 . S
H308 C292 0.960 . S
C309 C310 1.391 . S
C309 C311 1.394 . S
C309 H325 0.931 . S
C310 C309 1.391 . S
C310 C314 1.376 . S
C311 C309 1.394 . S
C311 C312 1.369 . S
C311 C315 1.531 . S
C312 C311 1.369 . S
C312 C313 1.410 . S
C312 C320 1.503 . S
C313 C312 1.410 . S
C313 C314 1.392 . S
C313 C316 1.511 . S
C314 C310 1.376 . S
C314 C313 1.392 . S
C314 H326 0.929 . S
C315 C311 1.531 . S
C315 H327 0.960 . S
C315 H328 0.962 . S
C315 H329 0.960 . S
C316 C313 1.511 . S
C316 H330 0.961 . S
C316 H331 0.961 . S
C316 H332 0.961 . S
C317 C318 1.370 . S
C317 C319 1.363 . S
C317 H333 0.931 . S
C318 C317 1.370 . S
C318 C322 1.408 . S
C319 C317 1.363 . S
C319 C320 1.370 . S
C319 C323 1.524 . S
C320 C312 1.503 . S
C320 C319 1.370 . S
C320 C321 1.403 . S
C321 C320 1.403 . S
C321 C322 1.404 . S
C321 C324 1.539 . S
C322 C318 1.408 . S
C322 C321 1.404 . S
C322 H334 0.930 . S
C323 C319 1.524 . S
C323 H335 0.956 . S
C323 H336 0.961 . S
C323 H337 0.961 . S
C324 C321 1.539 . S
C324 H338 0.958 . S
C324 H339 0.961 . S
C324 H340 0.960 . S
H325 C309 0.931 . S
H326 C314 0.929 . S
H327 C315 0.960 . S
H328 C315 0.962 . S
H329 C315 0.960 . S
H330 C316 0.961 . S
H331 C316 0.961 . S
H332 C316 0.961 . S
H333 C317 0.931 . S
H334 C322 0.930 . S
H335 C323 0.956 . S
H336 C323 0.961 . S
H337 C323 0.961 . S
H338 C324 0.958 . S
H339 C324 0.961 . S
H340 C324 0.960 . S
C341 C342 1.391 . S
C341 C343 1.394 . S
C341 H357 0.931 . S
C342 C341 1.391 . S
C342 C346 1.376 . S
C343 C341 1.394 . S
C343 C344 1.369 . S
C343 C347 1.531 . S
C344 C343 1.369 . S
C344 C345 1.410 . S
C344 C352 1.503 . S
C345 C344 1.410 . S
C345 C346 1.392 . S
C345 C348 1.511 . S
C346 C342 1.376 . S
C346 C345 1.392 . S
C346 H358 0.929 . S
C347 C343 1.531 . S
C347 H359 0.960 . S
C347 H360 0.962 . S
C347 H361 0.960 . S
C348 C345 1.511 . S
C348 H362 0.961 . S
C348 H363 0.961 . S
C348 H364 0.961 . S
C349 C350 1.370 . S
C349 C351 1.363 . S
C349 H365 0.931 . S
C350 C349 1.370 . S
C350 C354 1.408 . S
C351 C349 1.363 . S
C351 C352 1.370 . S
C351 C355 1.524 . S
C352 C344 1.503 . S
C352 C351 1.370 . S
C352 C353 1.403 . S
C353 C352 1.403 . S
C353 C354 1.404 . S
C353 C356 1.539 . S
C354 C350 1.408 . S
C354 C353 1.404 . S
C354 H366 0.930 . S
C355 C351 1.524 . S
C355 H367 0.956 . S
C355 H368 0.961 . S
C355 H369 0.961 . S
C356 C353 1.539 . S
C356 H370 0.958 . S
C356 H371 0.961 . S
C356 H372 0.960 . S
H357 C341 0.931 . S
H358 C346 0.929 . S
H359 C347 0.960 . S
H360 C347 0.962 . S
H361 C347 0.960 . S
H362 C348 0.961 . S
H363 C348 0.961 . S
H364 C348 0.961 . S
H365 C349 0.931 . S
H366 C354 0.930 . S
H367 C355 0.956 . S
H368 C355 0.961 . S
H369 C355 0.961 . S
H370 C356 0.958 . S
H371 C356 0.961 . S
H372 C356 0.960 . S
C373 C374 1.391 . S
C373 C375 1.394 . S
C373 H389 0.931 . S
C374 C373 1.391 . S
C374 C378 1.376 . S
C375 C373 1.394 . S
C375 C376 1.369 . S
C375 C379 1.531 . S
C376 C375 1.369 . S
C376 C377 1.410 . S
C376 C384 1.503 . S
C377 C376 1.410 . S
C377 C378 1.392 . S
C377 C380 1.511 . S
C378 C374 1.376 . S
C378 C377 1.392 . S
C378 H390 0.929 . S
C379 C375 1.531 . S
C379 H391 0.960 . S
C379 H392 0.962 . S
C379 H393 0.960 . S
C380 C377 1.511 . S
C380 H394 0.961 . S
C380 H395 0.961 . S
C380 H396 0.961 . S
C381 C382 1.370 . S
C381 C383 1.363 . S
C381 H397 0.931 . S
C382 C381 1.370 . S
C382 C386 1.408 . S
C383 C381 1.363 . S
C383 C384 1.370 . S
C383 C387 1.524 . S
C384 C376 1.503 . S
C384 C383 1.370 . S
C384 C385 1.403 . S
C385 C384 1.403 . S
C385 C386 1.404 . S
C385 C388 1.539 . S
C386 C382 1.408 . S
C386 C385 1.404 . S
C386 H398 0.930 . S
C387 C383 1.524 . S
C387 H399 0.956 . S
C387 H400 0.961 . S
C387 H401 0.961 . S
C388 C385 1.539 . S
C388 H402 0.958 . S
C388 H403 0.961 . S
C388 H404 0.960 . S
H389 C373 0.931 . S
H390 C378 0.929 . S
H391 C379 0.960 . S
H392 C379 0.962 . S
H393 C379 0.960 . S
H394 C380 0.961 . S
H395 C380 0.961 . S
H396 C380 0.961 . S
H397 C381 0.931 . S
H398 C386 0.930 . S
H399 C387 0.956 . S
H400 C387 0.961 . S
H401 C387 0.961 . S
H402 C388 0.958 . S
H403 C388 0.961 . S
H404 C388 0.960 . S
C405 C406 1.391 . S
C405 C407 1.394 . S
C405 H421 0.931 . S
C406 C405 1.391 . S
C406 C410 1.376 . S
C407 C405 1.394 . S
C407 C408 1.369 . S
C407 C411 1.531 . S
C408 C407 1.369 . S
C408 C409 1.410 . S
C408 C416 1.503 . S
C409 C408 1.410 . S
C409 C410 1.392 . S
C409 C412 1.511 . S
C410 C406 1.376 . S
C410 C409 1.392 . S
C410 H422 0.929 . S
C411 C407 1.531 . S
C411 H423 0.960 . S
C411 H424 0.962 . S
C411 H425 0.960 . S
C412 C409 1.511 . S
C412 H426 0.961 . S
C412 H427 0.961 . S
C412 H428 0.961 . S
C413 C414 1.370 . S
C413 C415 1.363 . S
C413 H429 0.931 . S
C414 C413 1.370 . S
C414 C418 1.408 . S
C415 C413 1.363 . S
C415 C416 1.370 . S
C415 C419 1.524 . S
C416 C408 1.503 . S
C416 C415 1.370 . S
C416 C417 1.403 . S
C417 C416 1.403 . S
C417 C418 1.404 . S
C417 C420 1.539 . S
C418 C414 1.408 . S
C418 C417 1.404 . S
C418 H430 0.930 . S
C419 C415 1.524 . S
C419 H431 0.956 . S
C419 H432 0.961 . S
C419 H433 0.961 . S
C420 C417 1.539 . S
C420 H434 0.958 . S
C420 H435 0.961 . S
C420 H436 0.960 . S
H421 C405 0.931 . S
H422 C410 0.929 . S
H423 C411 0.960 . S
H424 C411 0.962 . S
H425 C411 0.960 . S
H426 C412 0.961 . S
H427 C412 0.961 . S
H428 C412 0.961 . S
H429 C413 0.931 . S
H430 C418 0.930 . S
H431 C419 0.956 . S
H432 C419 0.961 . S
H433 C419 0.961 . S
H434 C420 0.958 . S
H435 C420 0.961 . S
H436 C420 0.960 . S
C437 C438 1.391 . S
C437 C439 1.394 . S
C437 H453 0.931 . S
C438 C437 1.391 . S
C438 C442 1.376 . S
C439 C437 1.394 . S
C439 C440 1.369 . S
C439 C443 1.531 . S
C440 C439 1.369 . S
C440 C441 1.410 . S
C440 C448 1.503 . S
C441 C440 1.410 . S
C441 C442 1.392 . S
C441 C444 1.511 . S
C442 C438 1.376 . S
C442 C441 1.392 . S
C442 H454 0.929 . S
C443 C439 1.531 . S
C443 H455 0.960 . S
C443 H456 0.962 . S
C443 H457 0.960 . S
C444 C441 1.511 . S
C444 H458 0.961 . S
C444 H459 0.961 . S
C444 H460 0.961 . S
C445 C446 1.370 . S
C445 C447 1.363 . S
C445 H461 0.931 . S
C446 C445 1.370 . S
C446 C450 1.408 . S
C447 C445 1.363 . S
C447 C448 1.370 . S
C447 C451 1.524 . S
C448 C440 1.503 . S
C448 C447 1.370 . S
C448 C449 1.403 . S
C449 C448 1.403 . S
C449 C450 1.404 . S
C449 C452 1.539 . S
C450 C446 1.408 . S
C450 C449 1.404 . S
C450 H462 0.930 . S
C451 C447 1.524 . S
C451 H463 0.956 . S
C451 H464 0.961 . S
C451 H465 0.961 . S
C452 C449 1.539 . S
C452 H466 0.958 . S
C452 H467 0.961 . S
C452 H468 0.960 . S
H453 C437 0.931 . S
H454 C442 0.929 . S
H455 C443 0.960 . S
H456 C443 0.962 . S
H457 C443 0.960 . S
H458 C444 0.961 . S
H459 C444 0.961 . S
H460 C444 0.961 . S
H461 C445 0.931 . S
H462 C450 0.930 . S
H463 C451 0.956 . S
H464 C451 0.961 . S
H465 C451 0.961 . S
H466 C452 0.958 . S
H467 C452 0.961 . S
H468 C452 0.960 . S
C469 C470 1.391 . S
C469 C471 1.394 . S
C469 H485 0.931 . S
C470 C469 1.391 . S
C470 C474 1.376 . S
C471 C469 1.394 . S
C471 C472 1.369 . S
C471 C475 1.531 . S
C472 C471 1.369 . S
C472 C473 1.410 . S
C472 C480 1.503 . S
C473 C472 1.410 . S
C473 C474 1.392 . S
C473 C476 1.511 . S
C474 C470 1.376 . S
C474 C473 1.392 . S
C474 H486 0.929 . S
C475 C471 1.531 . S
C475 H487 0.960 . S
C475 H488 0.962 . S
C475 H489 0.960 . S
C476 C473 1.511 . S
C476 H490 0.961 . S
C476 H491 0.961 . S
C476 H492 0.961 . S
C477 C478 1.370 1_545 S
C477 C479 1.363 1_545 S
C477 H493 0.931 . S
C478 C477 1.370 1_565 S
C478 C482 1.408 . S
C479 C477 1.363 1_565 S
C479 C480 1.370 . S
C479 C483 1.524 1_565 S
C480 C472 1.503 . S
C480 C479 1.370 . S
C480 C481 1.403 . S
C481 C480 1.403 . S
C481 C482 1.404 . S
C481 C484 1.539 . S
C482 C478 1.408 . S
C482 C481 1.404 . S
C482 H494 0.930 . S
C483 C479 1.524 1_545 S
C483 H495 0.956 . S
C483 H496 0.961 . S
C483 H497 0.961 . S
C484 C481 1.539 . S
C484 H498 0.958 . S
C484 H499 0.961 . S
C484 H500 0.960 . S
H485 C469 0.931 . S
H486 C474 0.929 . S
H487 C475 0.960 . S
H488 C475 0.962 . S
H489 C475 0.960 . S
H490 C476 0.961 . S
H491 C476 0.961 . S
H492 C476 0.961 . S
H493 C477 0.931 . S
H494 C482 0.930 . S
H495 C483 0.956 . S
H496 C483 0.961 . S
H497 C483 0.961 . S
H498 C484 0.958 . S
H499 C484 0.961 . S
H500 C484 0.960 . S
C501 C502 1.391 . S
C501 C503 1.394 . S
C501 H517 0.931 . S
C502 C501 1.391 . S
C502 C506 1.376 . S
C503 C501 1.394 . S
C503 C504 1.369 . S
C503 C507 1.531 . S
C504 C503 1.369 . S
C504 C505 1.410 . S
C504 C512 1.503 . S
C505 C504 1.410 . S
C505 C506 1.392 . S
C505 C508 1.511 . S
C506 C502 1.376 . S
C506 C505 1.392 . S
C506 H518 0.929 . S
C507 C503 1.531 . S
C507 H519 0.960 . S
C507 H520 0.962 . S
C507 H521 0.960 . S
C508 C505 1.511 . S
C508 H522 0.961 . S
C508 H523 0.961 . S
C508 H524 0.961 . S
C509 C510 1.370 . S
C509 C511 1.363 . S
C509 H525 0.931 . S
C510 C509 1.370 . S
C510 C514 1.408 . S
C511 C509 1.363 . S
C511 C512 1.370 . S
C511 C515 1.524 . S
C512 C504 1.503 . S
C512 C511 1.370 . S
C512 C513 1.403 . S
C513 C512 1.403 . S
C513 C514 1.404 . S
C513 C516 1.539 . S
C514 C510 1.408 . S
C514 C513 1.404 . S
C514 H526 0.930 . S
C515 C511 1.524 . S
C515 H527 0.956 . S
C515 H528 0.961 . S
C515 H529 0.961 . S
C516 C513 1.539 . S
C516 H530 0.958 . S
C516 H531 0.961 . S
C516 H532 0.960 . S
H517 C501 0.931 . S
H518 C506 0.929 . S
H519 C507 0.960 . S
H520 C507 0.962 . S
H521 C507 0.960 . S
H522 C508 0.961 . S
H523 C508 0.961 . S
H524 C508 0.961 . S
H525 C509 0.931 . S
H526 C514 0.930 . S
H527 C515 0.956 . S
H528 C515 0.961 . S
H529 C515 0.961 . S
H530 C516 0.958 . S
H531 C516 0.961 . S
H532 C516 0.960 . S
C533 C534 1.391 . S
C533 C535 1.394 1_455 S
C533 H549 0.931 . S
C534 C533 1.391 . S
C534 C538 1.376 1_455 S
C535 C533 1.394 1_655 S
C535 C536 1.369 . S
C535 C539 1.531 1_655 S
C536 C535 1.369 . S
C536 C537 1.410 . S
C536 C544 1.503 . S
C537 C536 1.410 . S
C537 C538 1.392 . S
C537 C540 1.511 . S
C538 C534 1.376 1_655 S
C538 C537 1.392 . S
C538 H550 0.929 . S
C539 C535 1.531 1_455 S
C539 H551 0.960 . S
C539 H552 0.962 1_455 S
C539 H553 0.960 . S
C540 C537 1.511 . S
C540 H554 0.961 . S
C540 H555 0.961 . S
C540 H556 0.961 . S
C541 C542 1.370 . S
C541 C543 1.363 . S
C541 H557 0.931 . S
C542 C541 1.370 . S
C542 C546 1.408 . S
C543 C541 1.363 . S
C543 C544 1.370 . S
C543 C547 1.524 . S
C544 C536 1.503 . S
C544 C543 1.370 . S
C544 C545 1.403 . S
C545 C544 1.403 . S
C545 C546 1.404 . S
C545 C548 1.539 1_655 S
C546 C542 1.408 . S
C546 C545 1.404 . S
C546 H558 0.930 . S
C547 C543 1.524 . S
C547 H559 0.956 . S
C547 H560 0.961 . S
C547 H561 0.961 . S
C548 C545 1.539 1_455 S
C548 H562 0.958 . S
C548 H563 0.961 . S
C548 H564 0.960 . S
H549 C533 0.931 . S
H550 C538 0.929 . S
H551 C539 0.960 . S
H552 C539 0.962 1_655 S
H553 C539 0.960 . S
H554 C540 0.961 . S
H555 C540 0.961 . S
H556 C540 0.961 . S
H557 C541 0.931 . S
H558 C546 0.930 . S
H559 C547 0.956 . S
H560 C547 0.961 . S
H561 C547 0.961 . S
H562 C548 0.958 . S
H563 C548 0.961 . S
H564 C548 0.960 . S
C565 C566 1.391 . S
C565 C567 1.394 . S
C565 H581 0.931 . S
C566 C565 1.391 . S
C566 C570 1.376 . S
C567 C565 1.394 . S
C567 C568 1.369 . S
C567 C571 1.531 . S
C568 C567 1.369 . S
C568 C569 1.410 . S
C568 C576 1.503 . S
C569 C568 1.410 . S
C569 C570 1.392 . S
C569 C572 1.511 . S
C570 C566 1.376 . S
C570 C569 1.392 . S
C570 H582 0.929 . S
C571 C567 1.531 . S
C571 H583 0.960 . S
C571 H584 0.962 . S
C571 H585 0.960 . S
C572 C569 1.511 . S
C572 H586 0.961 . S
C572 H587 0.961 . S
C572 H588 0.961 . S
C573 C574 1.370 . S
C573 C575 1.363 . S
C573 H589 0.931 . S
C574 C573 1.370 . S
C574 C578 1.408 . S
C575 C573 1.363 . S
C575 C576 1.370 . S
C575 C579 1.524 . S
C576 C568 1.503 . S
C576 C575 1.370 . S
C576 C577 1.403 . S
C577 C576 1.403 . S
C577 C578 1.404 . S
C577 C580 1.539 . S
C578 C574 1.408 . S
C578 C577 1.404 . S
C578 H590 0.930 . S
C579 C575 1.524 . S
C579 H591 0.956 . S
C579 H592 0.961 . S
C579 H593 0.961 . S
C580 C577 1.539 . S
C580 H594 0.958 . S
C580 H595 0.961 . S
C580 H596 0.960 . S
H581 C565 0.931 . S
H582 C570 0.929 . S
H583 C571 0.960 . S
H584 C571 0.962 . S
H585 C571 0.960 . S
H586 C572 0.961 . S
H587 C572 0.961 . S
H588 C572 0.961 . S
H589 C573 0.931 . S
H590 C578 0.930 . S
H591 C579 0.956 . S
H592 C579 0.961 . S
H593 C579 0.961 . S
H594 C580 0.958 . S
H595 C580 0.961 . S
H596 C580 0.960 . S
C597 C598 1.391 . S
C597 C599 1.394 . S
C597 H613 0.931 . S
C598 C597 1.391 . S
C598 C602 1.376 . S
C599 C597 1.394 . S
C599 C600 1.369 . S
C599 C603 1.531 . S
C600 C599 1.369 . S
C600 C601 1.410 . S
C600 C608 1.503 . S
C601 C600 1.410 . S
C601 C602 1.392 . S
C601 C604 1.511 . S
C602 C598 1.376 . S
C602 C601 1.392 . S
C602 H614 0.929 . S
C603 C599 1.531 . S
C603 H615 0.960 . S
C603 H616 0.962 . S
C603 H617 0.960 . S
C604 C601 1.511 . S
C604 H618 0.961 . S
C604 H619 0.961 . S
C604 H620 0.961 . S
C605 C606 1.370 1_455 S
C605 C607 1.363 . S
C605 H621 0.931 . S
C606 C605 1.370 1_655 S
C606 C610 1.408 . S
C607 C605 1.363 . S
C607 C608 1.370 . S
C607 C611 1.524 . S
C608 C600 1.503 . S
C608 C607 1.370 . S
C608 C609 1.403 1_455 S
C609 C608 1.403 1_655 S
C609 C610 1.404 . S
C609 C612 1.539 . S
C610 C606 1.408 . S
C610 C609 1.404 . S
C610 H622 0.930 . S
C611 C607 1.524 . S
C611 H623 0.956 . S
C611 H624 0.961 . S
C611 H625 0.961 . S
C612 C609 1.539 . S
C612 H626 0.958 . S
C612 H627 0.961 . S
C612 H628 0.960 . S
H613 C597 0.931 . S
H614 C602 0.929 . S
H615 C603 0.960 . S
H616 C603 0.962 . S
H617 C603 0.960 . S
H618 C604 0.961 . S
H619 C604 0.961 . S
H620 C604 0.961 . S
H621 C605 0.931 . S
H622 C610 0.930 . S
H623 C611 0.956 . S
H624 C611 0.961 . S
H625 C611 0.961 . S
H626 C612 0.958 . S
H627 C612 0.961 . S
H628 C612 0.960 . S
C629 C630 1.391 . S
C629 C631 1.394 . S
C629 H645 0.931 . S
C630 C629 1.391 . S
C630 C634 1.376 . S
C631 C629 1.394 . S
C631 C632 1.369 . S
C631 C635 1.531 . S
C632 C631 1.369 . S
C632 C633 1.410 . S
C632 C640 1.503 . S
C633 C632 1.410 . S
C633 C634 1.392 . S
C633 C636 1.511 . S
C634 C630 1.376 . S
C634 C633 1.392 . S
C634 H646 0.929 . S
C635 C631 1.531 . S
C635 H647 0.960 . S
C635 H648 0.962 . S
C635 H649 0.960 . S
C636 C633 1.511 . S
C636 H650 0.961 . S
C636 H651 0.961 . S
C636 H652 0.961 . S
C637 C638 1.370 . S
C637 C639 1.363 . S
C637 H653 0.931 . S
C638 C637 1.370 . S
C638 C642 1.408 . S
C639 C637 1.363 . S
C639 C640 1.370 . S
C639 C643 1.524 . S
C640 C632 1.503 . S
C640 C639 1.370 . S
C640 C641 1.403 . S
C641 C640 1.403 . S
C641 C642 1.404 . S
C641 C644 1.539 . S
C642 C638 1.408 . S
C642 C641 1.404 . S
C642 H654 0.930 . S
C643 C639 1.524 . S
C643 H655 0.956 . S
C643 H656 0.961 . S
C643 H657 0.961 . S
C644 C641 1.539 . S
C644 H658 0.958 . S
C644 H659 0.961 . S
C644 H660 0.960 . S
H645 C629 0.931 . S
H646 C634 0.929 . S
H647 C635 0.960 . S
H648 C635 0.962 . S
H649 C635 0.960 . S
H650 C636 0.961 . S
H651 C636 0.961 . S
H652 C636 0.961 . S
H653 C637 0.931 . S
H654 C642 0.930 . S
H655 C643 0.956 . S
H656 C643 0.961 . S
H657 C643 0.961 . S
H658 C644 0.958 . S
H659 C644 0.961 . S
H660 C644 0.960 . S
C661 C662 1.391 . S
C661 C663 1.394 1_565 S
C661 H677 0.931 . S
C662 C661 1.391 . S
C662 C666 1.376 . S
C663 C661 1.394 1_545 S
C663 C664 1.369 . S
C663 C667 1.531 . S
C664 C663 1.369 . S
C664 C665 1.410 1_545 S
C664 C672 1.503 . S
C665 C664 1.410 1_565 S
C665 C666 1.392 . S
C665 C668 1.511 . S
C666 C662 1.376 . S
C666 C665 1.392 . S
C666 H678 0.929 . S
C667 C663 1.531 . S
C667 H679 0.960 . S
C667 H680 0.962 . S
C667 H681 0.960 . S
C668 C665 1.511 . S
C668 H682 0.961 . S
C668 H683 0.961 . S
C668 H684 0.961 . S
C669 C670 1.370 . S
C669 C671 1.363 . S
C669 H685 0.931 . S
C670 C669 1.370 . S
C670 C674 1.408 . S
C671 C669 1.363 . S
C671 C672 1.370 . S
C671 C675 1.524 1_545 S
C672 C664 1.503 . S
C672 C671 1.370 . S
C672 C673 1.403 . S
C673 C672 1.403 . S
C673 C674 1.404 . S
C673 C676 1.539 . S
C674 C670 1.408 . S
C674 C673 1.404 . S
C674 H686 0.930 . S
C675 C671 1.524 1_565 S
C675 H687 0.956 . S
C675 H688 0.961 . S
C675 H689 0.961 . S
C676 C673 1.539 . S
C676 H690 0.958 . S
C676 H691 0.961 . S
C676 H692 0.960 . S
H677 C661 0.931 . S
H678 C666 0.929 . S
H679 C667 0.960 . S
H680 C667 0.962 . S
H681 C667 0.960 . S
H682 C668 0.961 . S
H683 C668 0.961 . S
H684 C668 0.961 . S
H685 C669 0.931 . S
H686 C674 0.930 . S
H687 C675 0.956 . S
H688 C675 0.961 . S
H689 C675 0.961 . S
H690 C676 0.958 . S
H691 C676 0.961 . S
H692 C676 0.960 . S
C118 C31 0.951 1_556 S
C126 C10 1.000 . S
C150 C18 1.025 . S
C158 C5 0.954 . S
C182 C23 1.023 . S
C190 C36 1.020 . S
C214 C75 1.017 . S
C222 C49 1.002 . S
C246 C57 0.872 . S
C254 C44 0.950 . S
C278 C62 0.984 . S
C286 C70 0.947 . S
C310 C88 1.002 . S
C318 C109 0.972 . S
C342 C83 0.943 . S
C350 C96 0.919 . S
C374 C101 0.975 . S
C382 C114 0.985 . S
C406 C0 1.255 . S
C414 C91 1.293 . S
C438 C21 1.298 . S
C446 C112 1.295 . S
C470 C86 1.212 . S
C478 C26 1.242 . S
C502 C60 1.233 . S
C510 C34 1.252 . S
C534 C8 1.315 . S
C542 C73 1.303 . S
C566 C39 1.310 . S
C574 C13 1.296 . S
C598 C99 1.272 . S
C606 C65 1.263 . S
C630 C47 1.294 . S
C638 C104 1.304 . S
C662 C78 1.287 . S
C670 C52 1.291 . S
