# Generated by pormake.
# Topology una, (4)-cn, num edge types: 1
# Building blocks:
#     Node 0, Type 0, BuildingBlock: CEKHIL_clean_sbu_0, # of connection points: 4
#     Node 1, Type 0, BuildingBlock: CEKHIL_clean_sbu_0, # of connection points: 4
#     Node 2, Type 0, BuildingBlock: CEKHIL_clean_sbu_0, # of connection points: 4
#     Node 3, Type 0, BuildingBlock: CEKHIL_clean_sbu_0, # of connection points: 4
#     Node 4, Type 0, BuildingBlock: CEKHIL_clean_sbu_0, # of connection points: 4
#     Node 5, Type 0, BuildingBlock: CEKHIL_clean_sbu_0, # of connection points: 4
#     Node 6, Type 0, BuildingBlock: CEKHIL_clean_sbu_0, # of connection points: 4
#     Node 7, Type 0, BuildingBlock: CEKHIL_clean_sbu_0, # of connection points: 4
#     Node 8, Type 0, BuildingBlock: CEKHIL_clean_sbu_0, # of connection points: 4
#     Node 9, Type 0, BuildingBlock: CEKHIL_clean_sbu_0, # of connection points: 4
#     Node 10, Type 0, BuildingBlock: CEKHIL_clean_sbu_0, # of connection points: 4
#     Node 11, Type 0, BuildingBlock: CEKHIL_clean_sbu_0, # of connection points: 4
#     Edge 12, Type (0, 0), BuildingBlock: EYOCIG_clean_linker_4, # of connection points: 2
#     Edge 13, Type (0, 0), BuildingBlock: EYOCIG_clean_linker_4, # of connection points: 2
#     Edge 14, Type (0, 0), BuildingBlock: EYOCIG_clean_linker_4, # of connection points: 2
#     Edge 15, Type (0, 0), BuildingBlock: EYOCIG_clean_linker_4, # of connection points: 2
#     Edge 16, Type (0, 0), BuildingBlock: EYOCIG_clean_linker_4, # of connection points: 2
#     Edge 17, Type (0, 0), BuildingBlock: EYOCIG_clean_linker_4, # of connection points: 2
#     Edge 18, Type (0, 0), BuildingBlock: EYOCIG_clean_linker_4, # of connection points: 2
#     Edge 19, Type (0, 0), BuildingBlock: EYOCIG_clean_linker_4, # of connection points: 2
#     Edge 20, Type (0, 0), BuildingBlock: EYOCIG_clean_linker_4, # of connection points: 2
#     Edge 21, Type (0, 0), BuildingBlock: EYOCIG_clean_linker_4, # of connection points: 2
#     Edge 22, Type (0, 0), BuildingBlock: EYOCIG_clean_linker_4, # of connection points: 2
#     Edge 23, Type (0, 0), BuildingBlock: EYOCIG_clean_linker_4, # of connection points: 2
#     Edge 24, Type (0, 0), BuildingBlock: EYOCIG_clean_linker_4, # of connection points: 2
#     Edge 25, Type (0, 0), BuildingBlock: EYOCIG_clean_linker_4, # of connection points: 2
#     Edge 26, Type (0, 0), BuildingBlock: EYOCIG_clean_linker_4, # of connection points: 2
#     Edge 27, Type (0, 0), BuildingBlock: EYOCIG_clean_linker_4, # of connection points: 2
#     Edge 28, Type (0, 0), BuildingBlock: EYOCIG_clean_linker_4, # of connection points: 2
#     Edge 29, Type (0, 0), BuildingBlock: EYOCIG_clean_linker_4, # of connection points: 2
#     Edge 30, Type (0, 0), BuildingBlock: EYOCIG_clean_linker_4, # of connection points: 2
#     Edge 31, Type (0, 0), BuildingBlock: EYOCIG_clean_linker_4, # of connection points: 2
#     Edge 32, Type (0, 0), BuildingBlock: EYOCIG_clean_linker_4, # of connection points: 2
#     Edge 33, Type (0, 0), BuildingBlock: EYOCIG_clean_linker_4, # of connection points: 2
#     Edge 34, Type (0, 0), BuildingBlock: EYOCIG_clean_linker_4, # of connection points: 2
#     Edge 35, Type (0, 0), BuildingBlock: EYOCIG_clean_linker_4, # of connection points: 2
# Relax obj value: 0.021
# Max RMSD: 0.036
# Mean RMSD: 0.036
data_MOF--net-una--node1-CEKHIL_clean_sbu_0--edge1-EYOCIG_clean_linker_4
_symmetry_space_group_name_H-M    P1
_symmetry_Int_Tables_number       1
_symmetry_cell_setting            triclinic
loop_
_symmetry_equiv_pos_as_xyz
'x, y, z'
_cell_length_a     45.600765
_cell_length_b     45.62924
_cell_length_c     17.213873
_cell_angle_alpha  90.026846
_cell_angle_beta   89.983957
_cell_angle_gamma 120.04732
loop_
_atom_site_label
_atom_site_type_symbol
_atom_site_fract_x
_atom_site_fract_y
_atom_site_fract_z
_atom_type_partial_charge
Co0 Co 0.13234 0.43776 0.02461 0.0
O1 O 0.10315 0.43543 0.94125 0.0
O2 O 0.08584 0.40317 0.04654 0.0
C3 C 0.17157 0.43824 0.94457 0.0
O4 O 0.15573 0.43192 0.12075 0.0
Co5 Co 0.20425 0.4997 0.04025 0.0
O6 O 0.21041 0.47352 0.12337 0.0
C7 C 0.14509 0.50594 0.08179 0.0
C8 C 0.07865 0.41109 0.97939 0.0
C9 C 0.18584 0.44628 0.14989 0.0
O10 O 0.12574 0.47365 0.07739 0.0
O11 O 0.17644 0.52144 0.0634 0.0
O12 O 0.14536 0.40984 0.965 0.0
O13 O 0.17259 0.46547 0.96924 0.0
Co14 Co 0.69769 0.13064 0.19212 0.0
O15 O 0.67133 0.10162 0.10784 0.0
O16 O 0.68577 0.08414 0.21358 0.0
C17 C 0.73685 0.17023 0.11326 0.0
O18 O 0.72641 0.15358 0.28927 0.0
Co19 Co 0.708 0.2026 0.209 0.0
O20 O 0.74007 0.20836 0.29256 0.0
C21 C 0.64206 0.14343 0.24786 0.0
C22 C 0.67108 0.07707 0.14592 0.0
C23 C 0.74231 0.18356 0.31899 0.0
O24 O 0.65482 0.12391 0.24355 0.0
O25 O 0.65825 0.17486 0.23043 0.0
O26 O 0.73904 0.14402 0.13352 0.0
O27 O 0.71052 0.17109 0.13754 0.0
Co28 Co 0.56892 0.69609 0.35804 0.0
O29 O 0.57162 0.66951 0.27436 0.0
O30 O 0.6037 0.68445 0.37994 0.0
C31 C 0.56824 0.73475 0.27835 0.0
O32 O 0.57457 0.72505 0.45459 0.0
Co33 Co 0.50698 0.70629 0.37369 0.0
O34 O 0.53311 0.73827 0.45757 0.0
C35 C 0.5006 0.64073 0.4145 0.0
C36 C 0.59606 0.66955 0.3125 0.0
C37 C 0.56024 0.74073 0.48414 0.0
O38 O 0.53289 0.65347 0.41018 0.0
O39 O 0.48526 0.65672 0.39631 0.0
O40 O 0.59676 0.7372 0.2987 0.0
O41 O 0.54111 0.70849 0.30306 0.0
Co42 Co 0.87576 0.5678 0.52536 0.0
O43 O 0.90451 0.56986 0.4411 0.0
O44 O 0.92243 0.60219 0.54624 0.0
C45 C 0.83619 0.56741 0.44651 0.0
O46 O 0.8531 0.57405 0.62237 0.0
Co47 Co 0.80358 0.50631 0.54283 0.0
O48 O 0.79831 0.53281 0.62668 0.0
C49 C 0.86254 0.49951 0.58321 0.0
C50 C 0.92927 0.59416 0.47881 0.0
C51 C 0.82321 0.55994 0.65264 0.0
O52 O 0.88223 0.53174 0.5777 0.0
O53 O 0.83108 0.48425 0.56588 0.0
O54 O 0.86262 0.59578 0.46622 0.0
O55 O 0.83513 0.54019 0.47115 0.0
Co56 Co 0.31048 0.87416 0.6915 0.0
O57 O 0.33749 0.9033 0.60804 0.0
O58 O 0.32216 0.92063 0.71266 0.0
C59 C 0.27206 0.83471 0.61127 0.0
O60 O 0.28104 0.85108 0.78763 0.0
Co61 Co 0.29993 0.80206 0.70894 0.0
O62 O 0.26755 0.79636 0.79169 0.0
C63 C 0.36557 0.86125 0.74997 0.0
C64 C 0.33733 0.92778 0.64557 0.0
C65 C 0.26509 0.82114 0.81746 0.0
O66 O 0.35289 0.88081 0.74495 0.0
O67 O 0.34952 0.82986 0.73206 0.0
O68 O 0.26964 0.86084 0.631 0.0
O69 O 0.29817 0.8338 0.63702 0.0
Co70 Co 0.43888 0.30924 0.85799 0.0
O71 O 0.43615 0.33557 0.77385 0.0
O72 O 0.40422 0.32112 0.87963 0.0
C73 C 0.43925 0.27013 0.77894 0.0
O74 O 0.43339 0.28057 0.95503 0.0
Co75 Co 0.50094 0.29946 0.87362 0.0
O76 O 0.47493 0.26745 0.95752 0.0
C77 C 0.50729 0.36503 0.91391 0.0
C78 C 0.41187 0.33585 0.812 0.0
C79 C 0.44782 0.26495 0.98441 0.0
O80 O 0.47498 0.35212 0.90946 0.0
O81 O 0.52272 0.34907 0.8961 0.0
O82 O 0.41085 0.26789 0.79949 0.0
O83 O 0.46649 0.29653 0.80292 0.0
Co84 Co 0.56897 0.87425 0.91612 0.0
O85 O 0.57192 0.90373 0.99955 0.0
O86 O 0.60377 0.92058 0.89357 0.0
C87 C 0.56829 0.83497 0.99604 0.0
O88 O 0.57441 0.85075 0.81969 0.0
Co89 Co 0.50692 0.80215 0.90099 0.0
O90 O 0.53292 0.79606 0.81718 0.0
C91 C 0.50056 0.86138 0.86065 0.0
C92 C 0.59629 0.92803 0.96096 0.0
C93 C 0.56005 0.8207 0.79039 0.0
O94 O 0.5329 0.88086 0.86426 0.0
O95 O 0.48521 0.83006 0.87907 0.0
O96 O 0.59681 0.86098 0.97537 0.0
O97 O 0.54115 0.83412 0.97147 0.0
Co98 Co 0.69752 0.56822 0.08275 0.0
O99 O 0.67065 0.57097 0.16567 0.0
O100 O 0.68605 0.60304 0.06011 0.0
C101 C 0.73593 0.56747 0.16353 0.0
O102 O 0.72689 0.57386 0.98693 0.0
Co103 Co 0.70739 0.50623 0.06768 0.0
O104 O 0.74003 0.53238 0.98486 0.0
C105 C 0.64199 0.49999 0.02561 0.0
C106 C 0.67086 0.59541 0.12721 0.0
C107 C 0.74274 0.55957 0.95812 0.0
O108 O 0.65493 0.5323 0.0299 0.0
O109 O 0.65784 0.48455 0.04418 0.0
O110 O 0.73847 0.59597 0.1428 0.0
O111 O 0.70968 0.54036 0.13853 0.0
Co112 Co 0.1322 0.69592 0.24878 0.0
O113 O 0.10307 0.66903 0.33234 0.0
O114 O 0.08573 0.68415 0.22739 0.0
C115 C 0.17182 0.73451 0.32839 0.0
O116 O 0.15523 0.72516 0.15247 0.0
Co117 Co 0.2042 0.70616 0.23109 0.0
O118 O 0.20996 0.73854 0.14834 0.0
C119 C 0.14479 0.64049 0.19175 0.0
C120 C 0.07855 0.66893 0.29441 0.0
C121 C 0.18519 0.74105 0.12261 0.0
O122 O 0.12542 0.6534 0.19581 0.0
O123 O 0.1762 0.65645 0.20968 0.0
O124 O 0.1456 0.73687 0.30888 0.0
O125 O 0.17263 0.70831 0.30303 0.0
Co126 Co 0.43865 0.13055 0.41564 0.0
O127 O 0.43564 0.10099 0.49888 0.0
O128 O 0.40391 0.08418 0.39274 0.0
C129 C 0.43908 0.16972 0.49592 0.0
O130 O 0.43338 0.15423 0.31932 0.0
Co131 Co 0.50079 0.20247 0.40149 0.0
O132 O 0.47507 0.20885 0.31751 0.0
C133 C 0.50708 0.1434 0.35926 0.0
C134 C 0.41136 0.07668 0.46009 0.0
C135 C 0.44793 0.18435 0.29032 0.0
O136 O 0.47476 0.12394 0.36367 0.0
O137 O 0.52252 0.17472 0.37777 0.0
O138 O 0.41065 0.1437 0.47481 0.0
O139 O 0.4663 0.17061 0.47167 0.0
Co140 Co 0.3105 0.43724 0.5821 0.0
O141 O 0.3371 0.43449 0.66565 0.0
O142 O 0.32272 0.40297 0.55922 0.0
C143 C 0.27133 0.43714 0.66176 0.0
O144 O 0.2817 0.43175 0.48538 0.0
Co145 Co 0.29965 0.49881 0.56793 0.0
O146 O 0.26814 0.47295 0.48304 0.0
C147 C 0.36557 0.50598 0.52683 0.0
C148 C 0.33752 0.41045 0.62676 0.0
C149 C 0.266 0.44605 0.45589 0.0
O150 O 0.35308 0.47374 0.53078 0.0
O151 O 0.3493 0.52103 0.54526 0.0
O152 O 0.26927 0.40886 0.64083 0.0
O153 O 0.29754 0.46449 0.63771 0.0
Co154 Co 0.87587 0.30939 0.74958 0.0
O155 O 0.9051 0.33635 0.83288 0.0
O156 O 0.92241 0.3216 0.72724 0.0
C157 C 0.8368 0.27051 0.82975 0.0
O158 O 0.85266 0.28008 0.65334 0.0
Co159 Co 0.80367 0.29857 0.73383 0.0
O160 O 0.79781 0.26629 0.65066 0.0
C161 C 0.86249 0.36453 0.69401 0.0
C162 C 0.92963 0.33669 0.79445 0.0
C163 C 0.82258 0.26399 0.62414 0.0
O164 O 0.88207 0.35182 0.69727 0.0
O165 O 0.83116 0.34832 0.71252 0.0
O166 O 0.86307 0.26847 0.80921 0.0
O167 O 0.83558 0.29657 0.80495 0.0
C168 C 0.20613 0.42578 0.2705 0.0
C169 C 0.19313 0.43184 0.21635 0.0
C170 C 0.22615 0.42581 0.33351 0.0
C171 C 0.24485 0.43183 0.3884 0.0
C172 C 0.80273 0.2232 0.5034 0.0
C173 C 0.81558 0.24232 0.55759 0.0
C174 C 0.78267 0.20313 0.44047 0.0
C175 C 0.76373 0.1904 0.38593 0.0
C176 C 0.58067 0.78097 0.60579 0.0
C177 C 0.57462 0.76213 0.55117 0.0
C178 C 0.58057 0.80086 0.66893 0.0
C179 C 0.57442 0.81359 0.72347 0.0
C180 C 0.80388 0.58059 0.77466 0.0
C181 C 0.81658 0.57454 0.71984 0.0
C182 C 0.78376 0.58036 0.83769 0.0
C183 C 0.76459 0.57406 0.89177 0.0
C184 C 0.22452 0.80166 0.93853 0.0
C185 C 0.24351 0.81435 0.88409 0.0
C186 C 0.20462 0.78168 1.0017 0.0
C187 C 0.192 0.76266 0.0561 0.0
C188 C 0.4278 0.20466 0.16893 0.0
C189 C 0.43379 0.19173 0.22337 0.0
C190 C 0.4277 0.22466 0.10601 0.0
C191 C 0.43359 0.24352 0.05149 0.0
C192 C 0.12552 0.54844 0.12701 0.0
C193 C 0.13132 0.52646 0.10756 0.0
C194 C 0.12539 0.57829 0.14789 0.0
C195 C 0.13104 0.60608 0.16672 0.0
C196 C 0.57984 0.12431 0.29187 0.0
C197 C 0.60762 0.12987 0.27289 0.0
C198 C 0.54992 0.12431 0.31319 0.0
C199 C 0.52777 0.12985 0.33301 0.0
C200 C 0.42752 0.54914 0.48152 0.0
C201 C 0.39981 0.52701 0.50108 0.0
C202 C 0.4575 0.57889 0.46002 0.0
C203 C 0.47979 0.6065 0.44044 0.0
C204 C 0.8815 0.4566 0.62907 0.0
C205 C 0.87601 0.47874 0.60921 0.0
C206 C 0.88146 0.42669 0.65025 0.0
C207 C 0.8759 0.39891 0.66903 0.0
C208 C 0.42755 0.88033 0.79545 0.0
C209 C 0.39986 0.8748 0.77585 0.0
C210 C 0.4575 0.88038 0.81647 0.0
C211 C 0.47974 0.87489 0.83541 0.0
C212 C 0.55008 0.42718 0.95873 0.0
C213 C 0.52797 0.39939 0.93941 0.0
C214 C 0.57996 0.45715 0.98002 0.0
C215 C 0.60769 0.47932 0.99959 0.0
C216 C 0.23201 0.43891 0.77176 0.0
C217 C 0.24998 0.43813 0.72152 0.0
C218 C 0.21186 0.43946 0.83325 0.0
C219 C 0.19369 0.43935 0.88412 0.0
C220 C 0.77605 0.21122 1.00291 0.0
C221 C 0.75803 0.19261 0.05332 0.0
C222 C 0.79637 0.23163 0.94126 0.0
C223 C 0.81471 0.24951 0.89032 0.0
C224 C 0.56613 0.77363 0.168 0.0
C225 C 0.56683 0.75574 0.21842 0.0
C226 C 0.56615 0.79404 0.1066 0.0
C227 C 0.56688 0.81262 0.05608 0.0
C228 C 0.79503 0.56561 0.3366 0.0
C229 C 0.8137 0.56618 0.38681 0.0
C230 C 0.77458 0.56556 0.27507 0.0
C231 C 0.75677 0.56612 0.22411 0.0
C232 C 0.21317 0.77341 0.43853 0.0
C233 C 0.19444 0.75548 0.3882 0.0
C234 C 0.23358 0.7938 0.50005 0.0
C235 C 0.25133 0.81231 0.55089 0.0
C236 C 0.44083 0.23085 0.6685 0.0
C237 C 0.44038 0.24892 0.71895 0.0
C238 C 0.44076 0.2104 0.60696 0.0
C239 C 0.44023 0.19194 0.55624 0.0
C240 C 0.0192 0.37947 0.9092 0.0
C241 C 0.04553 0.39267 0.94493 0.0
C242 C 0.98919 0.36453 0.86414 0.0
C243 C 0.96279 0.35141 0.82869 0.0
C244 C 0.62889 0.98762 0.03047 0.0
C245 C 0.61522 0.9612 0.99506 0.0
C246 C 0.64395 0.01769 0.07535 0.0
C247 C 0.65674 0.04403 0.11108 0.0
C248 C 0.64367 0.62779 0.19681 0.0
C249 C 0.65654 0.61427 0.16127 0.0
C250 C 0.62857 0.6427 0.24193 0.0
C251 C 0.61495 0.65538 0.27778 0.0
C252 C 0.01887 0.64091 0.36378 0.0
C253 C 0.04538 0.65412 0.32869 0.0
C254 C 0.98869 0.62576 0.40826 0.0
C255 C 0.9623 0.61244 0.44379 0.0
C256 C 0.37911 0.01704 0.52941 0.0
C257 C 0.39257 0.04345 0.49393 0.0
C258 C 0.36426 0.98703 0.57451 0.0
C259 C 0.35154 0.96074 0.61041 0.0
C260 C 0.365 0.37831 0.69617 0.0
C261 C 0.35205 0.39178 0.66078 0.0
C262 C 0.37993 0.36324 0.74128 0.0
C263 C 0.39329 0.35032 0.77724 0.0
loop_
_geom_bond_atom_site_label_1
_geom_bond_atom_site_label_2
_geom_bond_distance
_geom_bond_site_symmetry_2
_ccdc_geom_bond_type
Co0 O1 2.216 1_554 S
Co0 O2 2.091 . S
Co0 O4 2.004 . S
Co0 O10 2.021 . S
Co0 O12 2.137 1_554 S
Co0 O13 2.244 1_554 S
O1 Co0 2.216 1_556 S
O1 C8 1.247 . S
O2 Co0 2.091 . S
O2 C8 1.261 1_554 S
C3 O12 1.247 . S
C3 O13 1.272 . S
O4 Co0 2.004 . S
O4 C9 1.259 . S
Co5 O6 2.061 . S
Co5 O11 2.052 . S
Co5 O13 2.135 1_554 S
O6 Co5 2.061 . S
O6 C9 1.235 . S
C7 O10 1.238 . S
C7 O11 1.241 . S
C8 O1 1.247 . S
C8 O2 1.261 1_556 S
C9 O4 1.259 . S
C9 O6 1.235 . S
O10 Co0 2.021 . S
O10 C7 1.238 . S
O11 Co5 2.052 . S
O11 C7 1.241 . S
O12 Co0 2.137 1_556 S
O12 C3 1.247 . S
O13 Co0 2.244 1_556 S
O13 C3 1.272 . S
O13 Co5 2.135 1_556 S
Co14 O15 2.216 . S
Co14 O16 2.091 . S
Co14 O18 2.004 . S
Co14 O24 2.021 . S
Co14 O26 2.137 . S
Co14 O27 2.244 . S
O15 Co14 2.216 . S
O15 C22 1.247 . S
O16 Co14 2.091 . S
O16 C22 1.261 . S
C17 O26 1.247 . S
C17 O27 1.272 . S
O18 Co14 2.004 . S
O18 C23 1.259 . S
Co19 O20 2.061 . S
Co19 O25 2.052 . S
Co19 O27 2.135 . S
O20 Co19 2.061 . S
O20 C23 1.235 . S
C21 O24 1.238 . S
C21 O25 1.241 . S
C22 O15 1.247 . S
C22 O16 1.261 . S
C23 O18 1.259 . S
C23 O20 1.235 . S
O24 Co14 2.021 . S
O24 C21 1.238 . S
O25 Co19 2.052 . S
O25 C21 1.241 . S
O26 Co14 2.137 . S
O26 C17 1.247 . S
O27 Co14 2.244 . S
O27 C17 1.272 . S
O27 Co19 2.135 . S
Co28 O29 2.216 . S
Co28 O30 2.091 . S
Co28 O32 2.004 . S
Co28 O38 2.021 . S
Co28 O40 2.137 . S
Co28 O41 2.244 . S
O29 Co28 2.216 . S
O29 C36 1.247 . S
O30 Co28 2.091 . S
O30 C36 1.261 . S
C31 O40 1.247 . S
C31 O41 1.272 . S
O32 Co28 2.004 . S
O32 C37 1.259 . S
Co33 O34 2.061 . S
Co33 O39 2.052 . S
Co33 O41 2.135 . S
O34 Co33 2.061 . S
O34 C37 1.235 . S
C35 O38 1.238 . S
C35 O39 1.241 . S
C36 O29 1.247 . S
C36 O30 1.261 . S
C37 O32 1.259 . S
C37 O34 1.235 . S
O38 Co28 2.021 . S
O38 C35 1.238 . S
O39 Co33 2.052 . S
O39 C35 1.241 . S
O40 Co28 2.137 . S
O40 C31 1.247 . S
O41 Co28 2.244 . S
O41 C31 1.272 . S
O41 Co33 2.135 . S
Co42 O43 2.216 . S
Co42 O44 2.091 . S
Co42 O46 2.004 . S
Co42 O52 2.021 . S
Co42 O54 2.137 . S
Co42 O55 2.244 . S
O43 Co42 2.216 . S
O43 C50 1.247 . S
O44 Co42 2.091 . S
O44 C50 1.261 . S
C45 O54 1.247 . S
C45 O55 1.272 . S
O46 Co42 2.004 . S
O46 C51 1.259 . S
Co47 O48 2.061 . S
Co47 O53 2.052 . S
Co47 O55 2.135 . S
O48 Co47 2.061 . S
O48 C51 1.235 . S
C49 O52 1.238 . S
C49 O53 1.241 . S
C50 O43 1.247 . S
C50 O44 1.261 . S
C51 O46 1.259 . S
C51 O48 1.235 . S
O52 Co42 2.021 . S
O52 C49 1.238 . S
O53 Co47 2.052 . S
O53 C49 1.241 . S
O54 Co42 2.137 . S
O54 C45 1.247 . S
O55 Co42 2.244 . S
O55 C45 1.272 . S
O55 Co47 2.135 . S
Co56 O57 2.216 . S
Co56 O58 2.091 . S
Co56 O60 2.004 . S
Co56 O66 2.021 . S
Co56 O68 2.137 . S
Co56 O69 2.244 . S
O57 Co56 2.216 . S
O57 C64 1.247 . S
O58 Co56 2.091 . S
O58 C64 1.261 . S
C59 O68 1.247 . S
C59 O69 1.272 . S
O60 Co56 2.004 . S
O60 C65 1.259 . S
Co61 O62 2.061 . S
Co61 O67 2.052 . S
Co61 O69 2.135 . S
O62 Co61 2.061 . S
O62 C65 1.235 . S
C63 O66 1.238 . S
C63 O67 1.241 . S
C64 O57 1.247 . S
C64 O58 1.261 . S
C65 O60 1.259 . S
C65 O62 1.235 . S
O66 Co56 2.021 . S
O66 C63 1.238 . S
O67 Co61 2.052 . S
O67 C63 1.241 . S
O68 Co56 2.137 . S
O68 C59 1.247 . S
O69 Co56 2.244 . S
O69 C59 1.272 . S
O69 Co61 2.135 . S
Co70 O71 2.216 . S
Co70 O72 2.091 . S
Co70 O74 2.004 . S
Co70 O80 2.021 . S
Co70 O82 2.137 . S
Co70 O83 2.244 . S
O71 Co70 2.216 . S
O71 C78 1.247 . S
O72 Co70 2.091 . S
O72 C78 1.261 . S
C73 O82 1.247 . S
C73 O83 1.272 . S
O74 Co70 2.004 . S
O74 C79 1.259 . S
Co75 O76 2.061 . S
Co75 O81 2.052 . S
Co75 O83 2.135 . S
O76 Co75 2.061 . S
O76 C79 1.235 . S
C77 O80 1.238 . S
C77 O81 1.241 . S
C78 O71 1.247 . S
C78 O72 1.261 . S
C79 O74 1.259 . S
C79 O76 1.235 . S
O80 Co70 2.021 . S
O80 C77 1.238 . S
O81 Co75 2.052 . S
O81 C77 1.241 . S
O82 Co70 2.137 . S
O82 C73 1.247 . S
O83 Co70 2.244 . S
O83 C73 1.272 . S
O83 Co75 2.135 . S
Co84 O85 2.216 . S
Co84 O86 2.091 . S
Co84 O88 2.004 . S
Co84 O94 2.021 . S
Co84 O96 2.137 . S
Co84 O97 2.244 . S
O85 Co84 2.216 . S
O85 C92 1.247 . S
O86 Co84 2.091 . S
O86 C92 1.261 . S
C87 O96 1.247 . S
C87 O97 1.272 . S
O88 Co84 2.004 . S
O88 C93 1.259 . S
Co89 O90 2.061 . S
Co89 O95 2.052 . S
Co89 O97 2.135 . S
O90 Co89 2.061 . S
O90 C93 1.235 . S
C91 O94 1.238 . S
C91 O95 1.241 . S
C92 O85 1.247 . S
C92 O86 1.261 . S
C93 O88 1.259 . S
C93 O90 1.235 . S
O94 Co84 2.021 . S
O94 C91 1.238 . S
O95 Co89 2.052 . S
O95 C91 1.241 . S
O96 Co84 2.137 . S
O96 C87 1.247 . S
O97 Co84 2.244 . S
O97 C87 1.272 . S
O97 Co89 2.135 . S
Co98 O99 2.216 . S
Co98 O100 2.091 . S
Co98 O102 2.004 1_554 S
Co98 O108 2.021 . S
Co98 O110 2.137 . S
Co98 O111 2.244 . S
O99 Co98 2.216 . S
O99 C106 1.247 . S
O100 Co98 2.091 . S
O100 C106 1.261 . S
C101 O110 1.247 . S
C101 O111 1.272 . S
O102 Co98 2.004 1_556 S
O102 C107 1.259 . S
Co103 O104 2.061 1_554 S
Co103 O109 2.052 . S
Co103 O111 2.135 . S
O104 Co103 2.061 1_556 S
O104 C107 1.235 . S
C105 O108 1.238 . S
C105 O109 1.241 . S
C106 O99 1.247 . S
C106 O100 1.261 . S
C107 O102 1.259 . S
C107 O104 1.235 . S
O108 Co98 2.021 . S
O108 C105 1.238 . S
O109 Co103 2.052 . S
O109 C105 1.241 . S
O110 Co98 2.137 . S
O110 C101 1.247 . S
O111 Co98 2.244 . S
O111 C101 1.272 . S
O111 Co103 2.135 . S
Co112 O113 2.216 . S
Co112 O114 2.091 . S
Co112 O116 2.004 . S
Co112 O122 2.021 . S
Co112 O124 2.137 . S
Co112 O125 2.244 . S
O113 Co112 2.216 . S
O113 C120 1.247 . S
O114 Co112 2.091 . S
O114 C120 1.261 . S
C115 O124 1.247 . S
C115 O125 1.272 . S
O116 Co112 2.004 . S
O116 C121 1.259 . S
Co117 O118 2.061 . S
Co117 O123 2.052 . S
Co117 O125 2.135 . S
O118 Co117 2.061 . S
O118 C121 1.235 . S
C119 O122 1.238 . S
C119 O123 1.241 . S
C120 O113 1.247 . S
C120 O114 1.261 . S
C121 O116 1.259 . S
C121 O118 1.235 . S
O122 Co112 2.021 . S
O122 C119 1.238 . S
O123 Co117 2.052 . S
O123 C119 1.241 . S
O124 Co112 2.137 . S
O124 C115 1.247 . S
O125 Co112 2.244 . S
O125 C115 1.272 . S
O125 Co117 2.135 . S
Co126 O127 2.216 . S
Co126 O128 2.091 . S
Co126 O130 2.004 . S
Co126 O136 2.021 . S
Co126 O138 2.137 . S
Co126 O139 2.244 . S
O127 Co126 2.216 . S
O127 C134 1.247 . S
O128 Co126 2.091 . S
O128 C134 1.261 . S
C129 O138 1.247 . S
C129 O139 1.272 . S
O130 Co126 2.004 . S
O130 C135 1.259 . S
Co131 O132 2.061 . S
Co131 O137 2.052 . S
Co131 O139 2.135 . S
O132 Co131 2.061 . S
O132 C135 1.235 . S
C133 O136 1.238 . S
C133 O137 1.241 . S
C134 O127 1.247 . S
C134 O128 1.261 . S
C135 O130 1.259 . S
C135 O132 1.235 . S
O136 Co126 2.021 . S
O136 C133 1.238 . S
O137 Co131 2.052 . S
O137 C133 1.241 . S
O138 Co126 2.137 . S
O138 C129 1.247 . S
O139 Co126 2.244 . S
O139 C129 1.272 . S
O139 Co131 2.135 . S
Co140 O141 2.216 . S
Co140 O142 2.091 . S
Co140 O144 2.004 . S
Co140 O150 2.021 . S
Co140 O152 2.137 . S
Co140 O153 2.244 . S
O141 Co140 2.216 . S
O141 C148 1.247 . S
O142 Co140 2.091 . S
O142 C148 1.261 . S
C143 O152 1.247 . S
C143 O153 1.272 . S
O144 Co140 2.004 . S
O144 C149 1.259 . S
Co145 O146 2.061 . S
Co145 O151 2.052 . S
Co145 O153 2.135 . S
O146 Co145 2.061 . S
O146 C149 1.235 . S
C147 O150 1.238 . S
C147 O151 1.241 . S
C148 O141 1.247 . S
C148 O142 1.261 . S
C149 O144 1.259 . S
C149 O146 1.235 . S
O150 Co140 2.021 . S
O150 C147 1.238 . S
O151 Co145 2.052 . S
O151 C147 1.241 . S
O152 Co140 2.137 . S
O152 C143 1.247 . S
O153 Co140 2.244 . S
O153 C143 1.272 . S
O153 Co145 2.135 . S
Co154 O155 2.216 . S
Co154 O156 2.091 . S
Co154 O158 2.004 . S
Co154 O164 2.021 . S
Co154 O166 2.137 . S
Co154 O167 2.244 . S
O155 Co154 2.216 . S
O155 C162 1.247 . S
O156 Co154 2.091 . S
O156 C162 1.261 . S
C157 O166 1.247 . S
C157 O167 1.272 . S
O158 Co154 2.004 . S
O158 C163 1.259 . S
Co159 O160 2.061 . S
Co159 O165 2.052 . S
Co159 O167 2.135 . S
O160 Co159 2.061 . S
O160 C163 1.235 . S
C161 O164 1.238 . S
C161 O165 1.241 . S
C162 O155 1.247 . S
C162 O156 1.261 . S
C163 O158 1.259 . S
C163 O160 1.235 . S
O164 Co154 2.021 . S
O164 C161 1.238 . S
O165 Co159 2.052 . S
O165 C161 1.241 . S
O166 Co154 2.137 . S
O166 C157 1.247 . S
O167 Co154 2.244 . S
O167 C157 1.272 . S
O167 Co159 2.135 . S
C168 C169 1.170 . S
C168 C170 1.380 . S
C169 C168 1.170 . S
C170 C168 1.380 . S
C170 C171 1.170 . S
C171 C170 1.170 . S
C172 C173 1.170 . S
C172 C174 1.380 . S
C173 C172 1.170 . S
C174 C172 1.380 . S
C174 C175 1.170 . S
C175 C174 1.170 . S
C176 C177 1.170 . S
C176 C178 1.380 . S
C177 C176 1.170 . S
C178 C176 1.380 . S
C178 C179 1.170 . S
C179 C178 1.170 . S
C180 C181 1.170 . S
C180 C182 1.380 . S
C181 C180 1.170 . S
C182 C180 1.380 . S
C182 C183 1.170 . S
C183 C182 1.170 . S
C184 C185 1.170 . S
C184 C186 1.380 . S
C185 C184 1.170 . S
C186 C184 1.380 . S
C186 C187 1.170 1_556 S
C187 C186 1.170 1_554 S
C188 C189 1.170 . S
C188 C190 1.380 . S
C189 C188 1.170 . S
C190 C188 1.380 . S
C190 C191 1.170 . S
C191 C190 1.170 . S
C192 C193 1.170 . S
C192 C194 1.380 . S
C193 C192 1.170 . S
C194 C192 1.380 . S
C194 C195 1.170 . S
C195 C194 1.170 . S
C196 C197 1.170 . S
C196 C198 1.380 . S
C197 C196 1.170 . S
C198 C196 1.380 . S
C198 C199 1.170 . S
C199 C198 1.170 . S
C200 C201 1.170 . S
C200 C202 1.380 . S
C201 C200 1.170 . S
C202 C200 1.380 . S
C202 C203 1.170 . S
C203 C202 1.170 . S
C204 C205 1.170 . S
C204 C206 1.380 . S
C205 C204 1.170 . S
C206 C204 1.380 . S
C206 C207 1.170 . S
C207 C206 1.170 . S
C208 C209 1.170 . S
C208 C210 1.380 . S
C209 C208 1.170 . S
C210 C208 1.380 . S
C210 C211 1.170 . S
C211 C210 1.170 . S
C212 C213 1.170 . S
C212 C214 1.380 . S
C213 C212 1.170 . S
C214 C212 1.380 . S
C214 C215 1.170 . S
C215 C214 1.170 . S
C216 C217 1.170 . S
C216 C218 1.380 . S
C217 C216 1.170 . S
C218 C216 1.380 . S
C218 C219 1.170 . S
C219 C218 1.170 . S
C220 C221 1.170 1_556 S
C220 C222 1.380 . S
C221 C220 1.170 1_554 S
C222 C220 1.380 . S
C222 C223 1.170 . S
C223 C222 1.170 . S
C224 C225 1.170 . S
C224 C226 1.380 . S
C225 C224 1.170 . S
C226 C224 1.380 . S
C226 C227 1.170 . S
C227 C226 1.170 . S
C228 C229 1.170 . S
C228 C230 1.380 . S
C229 C228 1.170 . S
C230 C228 1.380 . S
C230 C231 1.170 . S
C231 C230 1.170 . S
C232 C233 1.170 . S
C232 C234 1.380 . S
C233 C232 1.170 . S
C234 C232 1.380 . S
C234 C235 1.170 . S
C235 C234 1.170 . S
C236 C237 1.170 . S
C236 C238 1.380 . S
C237 C236 1.170 . S
C238 C236 1.380 . S
C238 C239 1.170 . S
C239 C238 1.170 . S
C240 C241 1.170 . S
C240 C242 1.380 1_455 S
C241 C240 1.170 . S
C242 C240 1.380 1_655 S
C242 C243 1.170 . S
C243 C242 1.170 . S
C244 C245 1.170 1_554 S
C244 C246 1.380 1_565 S
C245 C244 1.170 1_556 S
C246 C244 1.380 1_545 S
C246 C247 1.170 . S
C247 C246 1.170 . S
C248 C249 1.170 . S
C248 C250 1.380 . S
C249 C248 1.170 . S
C250 C248 1.380 . S
C250 C251 1.170 . S
C251 C250 1.170 . S
C252 C253 1.170 . S
C252 C254 1.380 1_455 S
C253 C252 1.170 . S
C254 C252 1.380 1_655 S
C254 C255 1.170 . S
C255 C254 1.170 . S
C256 C257 1.170 . S
C256 C258 1.380 1_545 S
C257 C256 1.170 . S
C258 C256 1.380 1_565 S
C258 C259 1.170 . S
C259 C258 1.170 . S
C260 C261 1.170 . S
C260 C262 1.380 . S
C261 C260 1.170 . S
C262 C260 1.380 . S
C262 C263 1.170 . S
C263 C262 1.170 . S
C169 C9 1.411 . S
C171 C149 1.434 . S
C173 C163 1.427 . S
C175 C23 1.444 . S
C177 C37 1.419 . S
C179 C93 1.419 . S
C181 C51 1.445 . S
C183 C107 1.417 . S
C185 C65 1.432 . S
C187 C121 1.442 . S
C189 C135 1.420 . S
C191 C79 1.418 1_554 S
C193 C7 1.569 . S
C195 C119 1.569 . S
C197 C21 1.569 . S
C199 C133 1.566 . S
C201 C147 1.539 . S
C203 C35 1.540 . S
C205 C49 1.553 . S
C207 C161 1.559 . S
C209 C63 1.541 . S
C211 C91 1.546 . S
C213 C77 1.569 . S
C215 C105 1.567 1_556 S
C217 C143 1.428 . S
C219 C3 1.428 . S
C221 C17 1.428 . S
C223 C157 1.427 . S
C225 C31 1.432 . S
C227 C87 1.432 1_554 S
C229 C45 1.429 . S
C231 C101 1.428 . S
C233 C115 1.432 . S
C235 C59 1.431 . S
C237 C73 1.427 . S
C239 C129 1.427 . S
C241 C8 1.419 . S
C243 C162 1.427 . S
C245 C92 1.431 . S
C247 C22 1.426 . S
C249 C106 1.432 . S
C251 C36 1.424 . S
C253 C120 1.430 . S
C255 C50 1.418 . S
C257 C134 1.434 . S
C259 C64 1.422 . S
C261 C148 1.434 . S
C263 C78 1.419 . S
