# Generated by pormake.
# Topology snk, (6)-cn, num edge types: 1
# Building blocks:
#     Node 0, Type 0, BuildingBlock: JUFBIX_clean_sbu_0, # of connection points: 6
#     Node 1, Type 0, BuildingBlock: JUFBIX_clean_sbu_0, # of connection points: 6
#     Node 2, Type 0, BuildingBlock: JUFBIX_clean_sbu_0, # of connection points: 6
#     Node 3, Type 0, BuildingBlock: JUFBIX_clean_sbu_0, # of connection points: 6
#     Node 4, Type 0, BuildingBlock: JUFBIX_clean_sbu_0, # of connection points: 6
#     Node 5, Type 0, BuildingBlock: JUFBIX_clean_sbu_0, # of connection points: 6
#     Node 6, Type 0, BuildingBlock: JUFBIX_clean_sbu_0, # of connection points: 6
#     Node 7, Type 0, BuildingBlock: JUFBIX_clean_sbu_0, # of connection points: 6
#     Edge 8, Type (0, 0), BuildingBlock: AJUNOK_clean_linker_0, # of connection points: 2
#     Edge 9, Type (0, 0), BuildingBlock: AJUNOK_clean_linker_0, # of connection points: 2
#     Edge 10, Type (0, 0), BuildingBlock: AJUNOK_clean_linker_0, # of connection points: 2
#     Edge 11, Type (0, 0), BuildingBlock: AJUNOK_clean_linker_0, # of connection points: 2
#     Edge 12, Type (0, 0), BuildingBlock: AJUNOK_clean_linker_0, # of connection points: 2
#     Edge 13, Type (0, 0), BuildingBlock: AJUNOK_clean_linker_0, # of connection points: 2
#     Edge 14, Type (0, 0), BuildingBlock: AJUNOK_clean_linker_0, # of connection points: 2
#     Edge 15, Type (0, 0), BuildingBlock: AJUNOK_clean_linker_0, # of connection points: 2
#     Edge 16, Type (0, 0), BuildingBlock: AJUNOK_clean_linker_0, # of connection points: 2
#     Edge 17, Type (0, 0), BuildingBlock: AJUNOK_clean_linker_0, # of connection points: 2
#     Edge 18, Type (0, 0), BuildingBlock: AJUNOK_clean_linker_0, # of connection points: 2
#     Edge 19, Type (0, 0), BuildingBlock: AJUNOK_clean_linker_0, # of connection points: 2
#     Edge 20, Type (0, 0), BuildingBlock: AJUNOK_clean_linker_0, # of connection points: 2
#     Edge 21, Type (0, 0), BuildingBlock: AJUNOK_clean_linker_0, # of connection points: 2
#     Edge 22, Type (0, 0), BuildingBlock: AJUNOK_clean_linker_0, # of connection points: 2
#     Edge 23, Type (0, 0), BuildingBlock: AJUNOK_clean_linker_0, # of connection points: 2
#     Edge 24, Type (0, 0), BuildingBlock: AJUNOK_clean_linker_0, # of connection points: 2
#     Edge 25, Type (0, 0), BuildingBlock: AJUNOK_clean_linker_0, # of connection points: 2
#     Edge 26, Type (0, 0), BuildingBlock: AJUNOK_clean_linker_0, # of connection points: 2
#     Edge 27, Type (0, 0), BuildingBlock: AJUNOK_clean_linker_0, # of connection points: 2
#     Edge 28, Type (0, 0), BuildingBlock: AJUNOK_clean_linker_0, # of connection points: 2
#     Edge 29, Type (0, 0), BuildingBlock: AJUNOK_clean_linker_0, # of connection points: 2
#     Edge 30, Type (0, 0), BuildingBlock: AJUNOK_clean_linker_0, # of connection points: 2
#     Edge 31, Type (0, 0), BuildingBlock: AJUNOK_clean_linker_0, # of connection points: 2
# Relax obj value: 0.202
# Max RMSD: 0.117
# Mean RMSD: 0.080
data_MOF--net-snk--node1-JUFBIX_clean_sbu_0--edge1-AJUNOK_clean_linker_0
_symmetry_space_group_name_H-M    P1
_symmetry_Int_Tables_number       1
_symmetry_cell_setting            triclinic
loop_
_symmetry_equiv_pos_as_xyz
'x, y, z'
_cell_length_a     35.200149
_cell_length_b     35.219569
_cell_length_c     10.919857
_cell_angle_alpha  105.70689
_cell_angle_beta   105.76459
_cell_angle_gamma 94.810969
loop_
_atom_site_label
_atom_site_type_symbol
_atom_site_fract_x
_atom_site_fract_y
_atom_site_fract_z
_atom_type_partial_charge
Co0 Co 1.05212 1.05347 0.50631 0.0
C1 C 1.03712 0.13403 0.551 0.0
Co2 Co 0.10388 0.10219 0.60278 0.0
C3 C 0.99345 0.99435 0.50055 0.0
C4 C 0.96957 1.02456 0.35895 0.0
N5 N 1.00425 1.01893 0.43702 0.0
N6 N 0.95364 0.98784 0.47744 0.0
C7 C 0.93817 1.00569 0.38501 0.0
H8 H 1.01467 0.98668 0.57878 0.0
H9 H 0.96732 1.04595 0.30355 0.0
C10 C 0.11846 1.021 0.5551 0.0
N11 N 0.15273 0.13665 0.67495 0.0
C12 C 0.16673 0.15595 0.60193 0.0
C13 C 0.18571 0.12865 0.75502 0.0
N14 N 0.20569 0.1544 0.61627 0.0
C15 C 0.21837 0.1389 0.71694 0.0
C16 C 0.07713 0.08138 0.79041 0.0
O17 O 0.08087 1.01022 0.50338 0.0
O18 O 0.1327 1.05816 0.60041 0.0
O19 O 0.10317 0.10574 0.77734 0.0
O20 O 1.05223 1.05667 0.68617 0.0
O21 O 0.07476 0.14557 0.60237 0.0
H22 H 0.18497 0.10936 0.81676 0.0
H23 H 0.14728 0.16343 0.51975 0.0
O24 O 1.02335 0.09681 0.50989 0.0
O25 O 1.05214 1.05034 0.33041 0.0
O26 O 0.10381 0.09856 0.42363 0.0
C27 C 0.07835 0.07487 0.31866 0.0
H28 H 0.90726 1.00974 0.35347 0.0
H29 H 0.24711 0.12941 0.74484 0.0
Co30 Co 0.33731 0.79281 0.77782 0.0
C31 C 0.25456 0.75933 0.7038 0.0
Co32 Co 0.29663 0.8372 0.77934 0.0
C33 C 0.40182 0.74962 0.86321 0.0
C34 C 0.36232 0.71995 0.66533 0.0
N35 N 0.36954 0.75358 0.76918 0.0
N36 N 0.41457 0.71467 0.82164 0.0
C37 C 0.38973 0.69593 0.69763 0.0
H38 H 0.4144 0.77087 0.96227 0.0
H39 H 0.33763 0.71263 0.57389 0.0
C40 C 0.37914 0.8706 0.85213 0.0
N41 N 0.265 0.87705 0.79014 0.0
C42 C 0.23568 0.88466 0.69477 0.0
C43 C 0.27119 0.90855 0.90051 0.0
N44 N 0.22382 0.91971 0.74224 0.0
C45 C 0.24605 0.93476 0.87126 0.0
C46 C 0.32223 0.81822 1.01889 0.0
O47 O 0.38387 0.8342 0.83434 0.0
O48 O 0.34374 0.87833 0.83789 0.0
O49 O 0.30112 0.8395 0.96042 0.0
O50 O 0.34204 0.79614 0.95705 0.0
O51 O 0.24982 0.79573 0.72031 0.0
H52 H 0.29396 0.91319 0.9949 0.0
H53 H 0.22479 0.8661 0.5914 0.0
O54 O 0.2901 0.75164 0.72084 0.0
O55 O 0.33243 0.78973 0.59822 0.0
O56 O 0.29256 0.83417 0.59852 0.0
C57 C 0.31218 0.81116 0.53819 0.0
H58 H 0.39057 0.66629 0.63674 0.0
H59 H 0.24523 0.96351 0.93786 0.0
Co60 Co 0.58889 1.04275 0.02294 0.0
C61 C 0.62432 0.12469 0.09591 0.0
Co62 Co 0.54573 0.08458 0.02292 0.0
C63 C 0.62972 0.97695 0.9349 0.0
C64 C 0.66145 1.01642 0.13109 0.0
N65 N 0.62722 1.00973 0.02968 0.0
N66 N 0.66432 0.96335 0.97355 0.0
C67 C 0.68441 0.98816 0.09639 0.0
H68 H 0.60766 0.96458 0.83721 0.0
H69 H 0.66989 1.04129 0.22227 0.0
C70 C 0.51083 1.00231 0.95037 0.0
N71 N 0.50703 0.11746 1.01487 0.0
C72 C 0.5018 0.14823 0.11109 0.0
C73 C 0.47487 0.11213 0.90712 0.0
N74 N 0.46766 0.16198 0.06667 0.0
C75 C 0.45061 0.13931 0.93886 0.0
C76 C 0.56363 1.05835 0.78216 0.0
O77 O 0.54704 0.99711 0.96699 0.0
O78 O 0.50354 1.03793 0.96541 0.0
O79 O 0.54281 0.07993 0.84125 0.0
O80 O 0.58528 1.0381 0.84349 0.0
O81 O 0.58829 0.13074 0.08061 0.0
H82 H 0.46857 0.08882 0.81292 0.0
H83 H 0.52151 0.15903 0.21302 0.0
O84 O 0.63069 0.08881 0.07901 0.0
O85 O 0.59232 1.04754 0.20273 0.0
O86 O 0.54925 0.08883 0.20432 0.0
C87 C 0.57161 0.06855 0.2638 0.0
H88 H 0.71423 0.9867 0.15463 0.0
H89 H 0.42181 0.14129 0.875 0.0
Co90 Co 0.33902 0.33749 0.31271 0.0
C91 C 0.25734 0.35107 0.26611 0.0
Co92 Co 0.29043 0.28553 0.21675 0.0
C93 C 0.39422 0.3999 0.31685 0.0
C94 C 0.36473 0.41982 0.46345 0.0
N95 N 0.37257 0.38651 0.38482 0.0
N96 N 0.39544 0.43933 0.33496 0.0
C97 C 0.37832 0.45249 0.43112 0.0
H98 H 0.40238 0.38017 0.23687 0.0
H99 H 0.34423 0.4197 0.52144 0.0
C100 C 0.37217 0.27206 0.26511 0.0
N101 N 0.25733 0.23623 0.14347 0.0
C102 C 0.23837 0.21992 0.21279 0.0
C103 C 0.26446 0.20469 0.05472 0.0
N104 N 0.23756 0.1802 0.18218 0.0
C105 C 0.25302 0.17008 0.08062 0.0
C106 C 0.31194 0.31246 0.02925 0.0
O107 O 0.38312 0.30969 0.31604 0.0
O108 O 0.335 0.25787 0.22088 0.0
O109 O 0.28722 0.28656 0.04151 0.0
O110 O 0.33597 0.33771 0.13399 0.0
O111 O 0.24617 0.31342 0.21484 0.0
H112 H 0.28332 0.20714 0.9928 0.0
H113 H 0.23208 0.2373 0.3011 0.0
O114 O 0.29456 0.3651 0.30786 0.0
O115 O 0.34209 0.33675 0.48695 0.0
O116 O 0.29381 0.28505 0.39592 0.0
C117 C 0.31814 0.31033 0.50006 0.0
H118 H 0.3705 0.48199 0.45997 0.0
H119 H 0.26082 0.1411 0.04194 0.0
Co120 Co 0.83843 0.29254 0.27289 0.0
C121 C 0.75657 0.25693 0.19989 0.0
Co122 Co 0.79645 0.33563 0.27233 0.0
C123 C 0.90492 0.25278 0.36325 0.0
C124 C 0.86554 0.22009 0.1678 0.0
N125 N 0.87187 0.25454 0.26779 0.0
N126 N 0.91908 0.21844 0.32639 0.0
C127 C 0.89431 0.19773 0.20407 0.0
H128 H 0.91715 0.27521 0.46017 0.0
H129 H 0.84062 0.21112 0.07654 0.0
C130 C 0.8787 0.37065 0.34473 0.0
N131 N 0.76321 0.37412 0.27919 0.0
C132 C 0.73219 0.37901 0.18273 0.0
C133 C 0.76826 0.40624 0.38662 0.0
N134 N 0.71798 0.41287 0.2268 0.0
C135 C 0.74065 0.43011 0.35452 0.0
C136 C 0.82273 0.31793 0.51351 0.0
O137 O 0.8839 0.33449 0.32852 0.0
O138 O 0.84305 0.37797 0.32964 0.0
O139 O 0.80108 0.3387 0.4542 0.0
O140 O 0.84302 0.29634 0.45237 0.0
O141 O 0.75044 0.29291 0.21483 0.0
H142 H 0.7916 0.41275 0.48097 0.0
H143 H 0.72145 0.35921 0.08098 0.0
O144 O 0.79251 0.25061 0.217 0.0
O145 O 0.83367 0.28894 0.0929 0.0
O146 O 0.79226 0.33194 0.09092 0.0
C147 C 0.8126 0.30962 0.03165 0.0
H148 H 0.89615 0.16791 0.14727 0.0
H149 H 0.73836 0.45877 0.41816 0.0
Co150 Co 0.83066 0.83085 0.7956 0.0
C151 C 0.75023 0.84626 0.75272 0.0
Co152 Co 0.78164 0.77945 0.69922 0.0
C153 C 0.88849 0.89142 0.80147 0.0
C154 C 0.86171 0.91192 0.95587 0.0
N155 N 0.86517 0.87858 0.86561 0.0
N156 N 0.89701 0.93145 0.83976 0.0
C157 C 0.88112 0.94482 0.9389 0.0
H158 H 0.89419 0.87231 0.71461 0.0
H159 H 0.84182 0.91268 1.01629 0.0
C160 C 0.86274 0.76455 0.74354 0.0
N161 N 0.74695 0.73077 0.62775 0.0
C162 C 0.72703 0.7175 0.70065 0.0
C163 C 0.75492 0.69739 0.54987 0.0
N164 N 0.72802 0.67857 0.68825 0.0
C165 C 0.74398 0.6652 0.58917 0.0
C166 C 0.80227 0.80638 0.51163 0.0
O167 O 0.87381 0.80205 0.79642 0.0
O168 O 0.8255 0.75057 0.70043 0.0
O169 O 0.77789 0.78026 0.52438 0.0
O170 O 0.82705 0.83113 0.616 0.0
O171 O 0.73847 0.80871 0.70034 0.0
H172 H 0.77448 0.69751 0.48873 0.0
H173 H 0.71938 0.73745 0.78138 0.0
O174 O 0.78753 0.85984 0.79415 0.0
O175 O 0.83424 0.83041 0.97162 0.0
O176 O 0.78542 0.77939 0.87857 0.0
C177 C 0.80946 0.80451 0.98354 0.0
H178 H 0.87937 0.97582 0.98339 0.0
H179 H 0.75322 0.63629 0.5632 0.0
Co180 Co 0.54185 0.54207 0.98401 0.0
C181 C 0.52887 0.62367 0.03025 0.0
Co182 Co 0.59422 0.59 0.07896 0.0
C183 C 0.47668 0.48772 0.97155 0.0
C184 C 0.4609 0.51587 0.81884 0.0
N185 N 0.49264 0.50923 0.90828 0.0
N186 N 0.43662 0.48417 0.93565 0.0
C187 C 0.42617 0.50094 0.83736 0.0
H188 H 0.49408 0.48064 0.05799 0.0
H189 H 0.46288 0.53583 0.76012 0.0
C190 C 0.60707 0.50822 0.03086 0.0
N191 N 0.64358 0.62289 0.15407 0.0
C192 C 0.65976 0.64297 0.08727 0.0
C193 C 0.67521 0.6155 0.2419 0.0
N194 N 0.69959 0.64444 0.11865 0.0
C195 C 0.70985 0.62807 0.21801 0.0
C196 C 0.56623 0.56844 0.26562 0.0
O197 O 0.56932 0.49761 0.98137 0.0
O198 O 0.62161 0.54528 0.07409 0.0
O199 O 0.59268 0.59258 0.25325 0.0
O200 O 0.54059 0.54482 0.16089 0.0
O201 O 0.56658 0.6345 0.08166 0.0
H202 H 0.6729 0.59596 0.30177 0.0
H203 H 0.6423 0.64972 0.99993 0.0
O204 O 0.51453 0.58658 0.98804 0.0
O205 O 0.54346 0.53924 0.81116 0.0
O206 O 0.5953 0.58719 0.90077 0.0
C207 C 0.56985 0.5629 0.79703 0.0
H208 H 0.39647 0.50685 0.79573 0.0
H209 H 0.73901 0.6205 0.25625 0.0
Co210 Co 0.08857 0.54352 0.51442 0.0
C211 C 0.1219 0.62633 0.58815 0.0
Co212 Co 1.04417 0.58415 0.51274 0.0
C213 C 0.13192 0.47905 0.4305 0.0
C214 C 0.16148 0.51875 0.6281 0.0
N215 N 0.1279 0.51144 0.52382 0.0
N216 N 0.16685 0.46631 0.47295 0.0
C217 C 0.18553 0.49128 0.59676 0.0
H218 H 0.11069 0.46635 0.3314 0.0
H219 H 0.16871 0.54348 0.71927 0.0
C220 C 1.01082 0.50165 0.44051 0.0
N221 N 1.0041 0.61545 0.50096 0.0
C222 C 0.99678 0.64552 0.59454 0.0
C223 C 0.97186 0.60782 0.39179 0.0
N224 N 0.96108 0.65637 0.54732 0.0
C225 C 0.94545 0.63276 0.42004 0.0
C226 C 1.06269 0.55891 0.27312 0.0
O227 O 1.04718 0.49683 0.457 0.0
O228 O 1.00318 0.53706 0.45573 0.0
O229 O 1.04152 0.57937 0.33345 0.0
O230 O 0.08543 0.53905 0.33323 0.0
O231 O 0.08541 0.63095 0.57037 0.0
H232 H 0.96687 0.58418 0.2992 0.0
H233 H 1.01602 0.65758 0.6969 0.0
O234 O 0.12971 0.59087 0.57234 0.0
O235 O 0.09128 0.54829 0.69591 0.0
O236 O 1.04732 0.58871 0.69169 0.0
C237 C 0.06974 0.56914 0.75396 0.0
H238 H 0.21513 0.49046 0.65824 0.0
H239 H 0.91625 0.63263 0.35382 0.0
C240 C 0.19636 0.12792 0.37582 0.0
C241 C 0.22127 0.14969 0.50586 0.0
C242 C 0.20455 0.13361 0.26354 0.0
C243 C 0.23857 0.15991 0.27914 0.0
H244 H 0.1686 0.10926 0.36148 0.0
H245 H 0.18232 0.12089 0.16628 0.0
S246 S 0.32119 0.20975 0.5926 0.0
N247 N 0.28632 0.18905 0.64118 0.0
N248 N 0.30318 0.19808 0.42816 0.0
C249 C 0.26746 0.17533 0.40612 0.0
C250 C 0.25848 0.17055 0.52076 0.0
C251 C 0.13024 0.95368 0.58063 0.0
C252 C 0.14544 0.9916 0.57702 0.0
C253 C 0.15613 0.92865 0.62635 0.0
C254 C 0.19785 0.94078 0.66931 0.0
H255 H 0.09826 0.94425 0.55551 0.0
H256 H 0.14358 0.90081 0.63564 0.0
S257 S 0.25296 1.03378 0.66114 0.0
N258 N 0.20527 1.0374 0.60546 0.0
N259 N 0.25331 0.99058 0.69322 0.0
C260 C 0.21335 0.97712 0.65777 0.0
C261 C 0.18729 1.00246 0.61091 0.0
C262 C 0.40712 0.94323 0.89247 0.0
C263 C 0.41369 0.90353 0.88034 0.0
C264 C 0.43828 0.97448 0.91298 0.0
C265 C 0.47783 0.96784 0.92238 0.0
H266 H 0.37743 0.9504 0.88549 0.0
H267 H 0.43119 1.00426 0.92211 0.0
S268 S 0.51168 0.86947 0.89738 0.0
N269 N 0.46343 0.85958 0.87937 0.0
N270 N 0.52159 0.91784 0.91773 0.0
C271 C 0.48492 0.92826 0.91041 0.0
C272 C 0.45312 0.89638 0.8896 0.0
C273 C 0.46106 0.23114 0.17636 0.0
C274 C 0.44872 0.18966 0.14279 0.0
C275 C 0.43759 0.2583 0.22581 0.0
C276 C 0.40104 0.24459 0.24221 0.0
H277 H 0.4877 0.24238 0.15694 0.0
H278 H 0.44684 0.28992 0.24311 0.0
S279 S 0.35893 0.13861 0.18383 0.0
N280 N 0.40028 0.13627 0.14023 0.0
N281 N 0.35632 0.18667 0.23416 0.0
C282 C 0.3901 0.20314 0.21716 0.0
C283 C 0.41388 0.17581 0.16691 0.0
C284 C 0.95667 0.99238 0.70852 0.0
C285 C 0.93533 0.97894 0.57069 0.0
C286 C 0.94254 0.97915 0.79979 0.0
C287 C 0.90624 0.95302 0.75581 0.0
H288 H 0.98512 1.01223 0.74538 0.0
H289 H 0.96097 0.98744 0.90323 0.0
S290 S 0.83405 0.91805 0.4139 0.0
N291 N 0.87314 0.94386 0.39945 0.0
N292 N 0.84539 0.92021 0.57305 0.0
C293 C 0.88237 0.94318 0.62165 0.0
C294 C 0.89715 0.95602 0.52829 0.0
C295 C 0.9675 0.14806 0.49465 0.0
C296 C 1.0087 0.16169 0.52278 0.0
C297 C 0.93844 0.16817 0.4373 0.0
C298 C 0.94932 0.20298 0.40741 0.0
H299 H 0.95743 0.12034 0.51046 0.0
H300 H 0.90709 0.15554 0.41062 0.0
S301 S 1.05239 0.25339 0.47029 0.0
N302 N 1.05871 0.21395 0.52344 0.0
N303 N 1.00347 0.25209 0.41716 0.0
C304 C 0.99013 0.21864 0.44273 0.0
C305 C 1.02002 0.19795 0.50049 0.0
C306 C 0.6832 0.22942 0.15882 0.0
C307 C 0.72293 0.22284 0.17065 0.0
C308 C 0.65177 0.198 0.13651 0.0
C309 C 0.65841 0.15834 0.12525 0.0
H310 H 0.67621 0.25921 0.16732 0.0
H311 H 0.62193 0.20494 0.12754 0.0
S312 S 0.75686 0.12459 0.14882 0.0
N313 N 0.76672 0.1729 0.16901 0.0
N314 N 0.70848 0.11468 0.12812 0.0
C315 C 0.69804 0.15141 0.13711 0.0
C316 C 0.72992 0.18328 0.1594 0.0
C317 C 0.73681 0.91597 0.81381 0.0
C318 C 0.72264 0.87471 0.7811 0.0
C319 C 0.71629 0.94475 0.87002 0.0
C320 C 0.68053 0.93354 0.89406 0.0
H321 H 0.76515 0.92628 0.80227 0.0
H322 H 0.72926 0.97611 0.90013 0.0
S323 S 0.62848 0.83025 0.81745 0.0
N324 N 0.66891 0.82433 0.76975 0.0
N325 N 0.63003 0.87909 0.87389 0.0
C326 C 0.66442 0.89273 0.85416 0.0
C327 C 0.68552 0.86312 0.79765 0.0
C328 C 0.74558 0.67958 0.04054 0.0
C329 C 0.72004 0.64481 0.02293 0.0
C330 C 0.7518 0.6883 0.9297 0.0
C331 C 0.73131 0.66322 0.79879 0.0
H332 H 0.75749 0.70172 0.1382 0.0
H333 H 0.7702 0.71635 0.94569 0.0
S334 S 0.6733 0.56203 0.70776 0.0
N335 N 0.68364 0.57984 0.87179 0.0
N336 N 0.69372 0.5976 0.66132 0.0
C337 C 0.71099 0.62557 0.78224 0.0
C338 C 0.70566 0.61609 0.89555 0.0
C339 C 0.64841 0.4196 0.12103 0.0
C340 C 0.68984 0.43148 0.15057 0.0
C341 C 0.62103 0.44304 0.07224 0.0
C342 C 0.63447 0.47916 0.05272 0.0
H343 H 0.63743 0.39337 0.14309 0.0
H344 H 0.58953 0.43416 0.05804 0.0
S345 S 0.74009 0.52009 0.10079 0.0
N346 N 0.74279 0.47909 0.14636 0.0
N347 N 0.692 0.52301 0.05393 0.0
C348 C 0.6758 0.48964 0.0739 0.0
C349 C 0.70335 0.46587 0.12331 0.0
C350 C 0.93814 0.47403 0.40145 0.0
C351 C 0.97779 0.46725 0.41283 0.0
C352 C 0.90679 0.44305 0.38157 0.0
C353 C 0.91327 0.40349 0.37213 0.0
H354 H 0.93109 0.50375 0.40852 0.0
H355 H 0.87706 0.4503 0.37297 0.0
S356 S 1.01142 0.36913 0.39524 0.0
N357 N 1.02149 0.41731 0.413 0.0
N358 N 0.96306 0.35948 0.37587 0.0
C359 C 0.95279 0.3962 0.38335 0.0
C360 C 0.98477 0.42781 0.40348 0.0
C361 C 0.87684 0.69573 0.65904 0.0
C362 C 0.89149 0.7371 0.71731 0.0
C363 C 0.9006 0.66932 0.61026 0.0
C364 C 0.94017 0.68292 0.61923 0.0
H365 H 0.84611 0.68367 0.64535 0.0
H366 H 0.8875 0.63807 0.5607 0.0
S367 S 0.99476 0.78703 0.77412 0.0
N368 N 0.9496 0.78979 0.79 0.0
N369 N 0.99431 0.7394 0.69895 0.0
C370 C 0.9563 0.72349 0.68484 0.0
C371 C 0.93195 0.75076 0.7338 0.0
C372 C 0.37866 0.43379 0.09668 0.0
C373 C 0.39659 0.45682 0.2318 0.0
C374 C 0.38821 0.44515 0.99449 0.0
C375 C 0.41476 0.48044 0.02507 0.0
H376 H 0.35931 0.40547 0.07093 0.0
H377 H 0.37771 0.4248 0.89347 0.0
S378 S 0.4573 0.55793 0.35518 0.0
N379 N 0.43381 0.52071 0.38645 0.0
N380 N 0.45038 0.54337 0.19235 0.0
C381 C 0.42729 0.50688 0.1564 0.0
C382 C 0.41839 0.4948 0.26084 0.0
C383 C 0.45945 0.63809 0.96598 0.0
C384 C 0.50099 0.6521 1.00441 0.0
C385 C 0.43141 0.65989 0.91321 0.0
C386 C 0.44356 0.69689 0.8985 0.0
H387 H 0.44834 0.60901 0.9704 0.0
H388 H 0.3999 0.64705 0.87852 0.0
S389 S 0.54784 0.74929 0.995 0.0
N390 N 0.55257 0.70713 0.03255 0.0
N391 N 0.4992 0.74839 0.93481 0.0
C392 C 0.48459 0.71279 0.94462 0.0
C393 C 0.51348 0.69035 0.99757 0.0
C394 C 0.2262 0.6864 0.65803 0.0
C395 C 0.21974 0.7262 0.67191 0.0
C396 C 0.19476 0.65487 0.6328 0.0
C397 C 0.15496 0.66122 0.62006 0.0
H398 H 0.25601 0.67935 0.66712 0.0
H399 H 0.20189 0.62507 0.62275 0.0
S400 S 0.12124 0.75967 0.6481 0.0
N401 N 0.16978 0.76993 0.67107 0.0
N402 N 0.11112 0.71108 0.62382 0.0
C403 C 0.14797 0.70087 0.63379 0.0
C404 C 0.18007 0.73308 0.65948 0.0
C405 C 0.24353 0.42067 0.33098 0.0
C406 C 0.22917 0.37923 0.29221 0.0
C407 C 0.22187 0.44891 0.38329 0.0
C408 C 0.18465 0.43708 0.39717 0.0
H409 H 0.27276 0.43155 0.32699 0.0
H410 H 0.23497 0.48033 0.41807 0.0
S411 S 0.13142 0.33316 0.30033 0.0
N412 N 0.17366 0.32808 0.2635 0.0
N413 N 0.13265 0.38184 0.3603 0.0
C414 C 0.16845 0.39615 0.35103 0.0
C415 C 0.19075 0.36705 0.29859 0.0
C416 C 1.06365 1.04458 0.94504 0.0
C417 C 0.0769 0.08064 0.92521 0.0
C418 C 1.06401 1.04294 0.07239 0.0
C419 C 0.07814 0.07721 0.18494 0.0
H420 H 1.05373 1.01718 0.86203 0.0
H421 H 1.05375 1.01448 0.08306 0.0
S422 S 0.11339 0.17962 0.18506 0.0
N423 N 0.103 0.15175 0.02798 0.0
N424 N 0.10322 0.14883 0.26649 0.0
C425 C 0.0909 0.11358 0.16605 0.0
C426 C 0.09055 0.11523 0.03655 0.0
C427 C 0.29415 0.83738 0.34109 0.0
C428 C 0.31425 0.81155 0.40408 0.0
C429 C 0.29748 0.83988 0.21811 0.0
C430 C 0.32113 0.81674 0.15289 0.0
H431 H 0.27581 0.85608 0.38731 0.0
H432 H 0.28116 0.86005 0.17369 0.0
S433 S 0.38004 0.74429 0.27517 0.0
N434 N 0.35875 0.7622 0.39098 0.0
N435 N 0.36506 0.76702 0.16126 0.0
C436 C 0.34146 0.79081 0.21487 0.0
C437 C 0.33798 0.78815 0.33978 0.0
C438 C 0.54245 0.08332 0.58308 0.0
C439 C 0.56531 1.05948 0.64834 0.0
C440 C 0.54523 0.08673 0.46046 0.0
C441 C 0.57107 0.06652 0.39785 0.0
H442 H 0.52228 0.09971 0.62718 0.0
H443 H 0.52671 0.10518 0.41411 0.0
S444 S 0.63784 1.00041 0.52739 0.0
N445 N 0.61489 1.01537 0.64063 0.0
N446 N 0.62024 1.02184 0.41163 0.0
C447 C 0.59423 1.04265 0.46228 0.0
C448 C 0.59129 1.03907 0.58681 0.0
C449 C 0.27985 0.29733 0.78244 0.0
C450 C 0.31414 0.31192 0.8951 0.0
C451 C 0.28142 0.29654 0.65461 0.0
C452 C 0.31738 0.31021 0.63487 0.0
H453 H 0.25148 0.28682 0.79322 0.0
H454 H 0.25419 0.28552 0.57092 0.0
S455 S 0.41671 0.34587 0.89354 0.0
N456 N 0.38594 0.33622 0.97568 0.0
N457 N 0.38864 0.33582 0.73679 0.0
C458 C 0.35205 0.32389 0.74603 0.0
C459 C 0.35052 0.32438 0.87571 0.0
C460 C 0.79418 0.33591 0.83472 0.0
C461 C 0.81462 0.31023 0.89765 0.0
C462 C 0.79757 0.33879 0.71219 0.0
C463 C 0.82163 0.3162 0.64732 0.0
H464 H 0.77555 0.35422 0.88075 0.0
H465 H 0.78098 0.35882 0.66782 0.0
S466 S 0.8814 0.24422 0.76927 0.0
N467 N 0.85978 0.26153 0.88464 0.0
N468 N 0.86623 0.26706 0.6558 0.0
C469 C 0.84228 0.2904 0.70918 0.0
C470 C 0.83872 0.28735 0.83363 0.0
C471 C 0.83961 0.81887 0.35723 0.0
C472 C 0.80321 0.80665 0.37709 0.0
C473 C 0.84146 0.81812 0.22968 0.0
C474 C 0.80701 0.80495 0.11736 0.0
H475 H 0.86697 0.82875 0.44064 0.0
H476 H 0.87013 0.82757 0.21884 0.0
S477 S 0.7037 0.77376 0.1185 0.0
N478 N 0.73161 0.78311 0.27513 0.0
N479 N 0.73486 0.78269 0.03673 0.0
C480 C 0.77029 0.79364 0.13668 0.0
C481 C 0.76846 0.79412 0.26611 0.0
C482 C 0.58669 0.59804 0.6424 0.0
C483 C 0.5695 0.56337 0.66142 0.0
C484 C 0.58547 0.59948 0.51416 0.0
C485 C 0.56672 0.56643 0.4 0.0
H486 H 0.60105 0.62437 0.72712 0.0
H487 H 0.59907 0.62682 0.50444 0.0
S488 S 0.51935 0.46769 0.39659 0.0
N489 N 0.53441 0.49472 0.55563 0.0
N490 N 0.53255 0.49728 0.3157 0.0
C491 C 0.55002 0.53138 0.41808 0.0
C492 C 0.55117 0.52994 0.54837 0.0
C493 C 0.09124 0.5441 0.95276 0.0
C494 C 0.0683 0.56799 0.88797 0.0
C495 C 0.08873 0.54071 0.07568 0.0
C496 C 1.06311 0.56101 0.13907 0.0
H497 H 0.11123 0.5276 0.90798 0.0
H498 H 0.10724 0.52216 0.12155 0.0
S499 S 0.99647 0.62754 1.0115 0.0
N500 N 1.01903 0.61239 0.89727 0.0
N501 N 1.01421 0.60601 0.12687 0.0
C502 C 1.03993 0.585 0.07523 0.0
C503 C 1.04259 0.58853 0.95038 0.0
loop_
_geom_bond_atom_site_label_1
_geom_bond_atom_site_label_2
_geom_bond_distance
_geom_bond_site_symmetry_2
_ccdc_geom_bond_type
Co0 N5 2.057 . S
Co0 O17 2.021 1_655 S
Co0 O20 2.062 . S
Co0 O24 2.117 1_565 S
Co0 O25 2.020 . S
C1 O21 1.259 . S
C1 O24 1.258 . S
Co2 N11 2.057 . S
Co2 O18 2.117 1_545 S
Co2 O19 2.020 . S
Co2 O21 2.021 1_455 S
Co2 O26 2.062 . S
C3 N5 1.316 . S
C3 N6 1.347 . S
C3 H8 0.931 . S
C4 N5 1.375 . S
C4 C7 1.350 . S
C4 H9 0.930 . S
N5 Co0 2.057 . S
N5 C3 1.316 . S
N5 C4 1.375 . S
N6 C3 1.347 . S
N6 C7 1.373 . S
C7 C4 1.350 . S
C7 N6 1.373 . S
C7 H28 0.931 . S
H8 C3 0.931 . S
H9 C4 0.930 . S
C10 O17 1.259 . S
C10 O18 1.258 . S
N11 Co2 2.057 . S
N11 C12 1.316 . S
N11 C13 1.375 . S
C12 N11 1.316 . S
C12 N14 1.347 . S
C12 H23 0.931 . S
C13 N11 1.375 . S
C13 C15 1.350 . S
C13 H22 0.930 . S
N14 C12 1.347 . S
N14 C15 1.373 . S
C15 C13 1.350 . S
C15 N14 1.373 . S
C15 H29 0.931 . S
C16 O19 1.256 . S
C16 O20 1.255 1_445 S
O17 Co0 2.021 1_455 S
O17 C10 1.259 . S
O18 Co2 2.117 1_565 S
O18 C10 1.258 . S
O19 Co2 2.020 . S
O19 C16 1.256 . S
O20 Co0 2.062 . S
O20 C16 1.255 1_665 S
O21 C1 1.259 . S
O21 Co2 2.021 1_655 S
H22 C13 0.930 . S
H23 C12 0.931 . S
O24 Co0 2.117 1_545 S
O24 C1 1.258 . S
O25 Co0 2.020 . S
O25 C27 1.256 . S
O26 Co2 2.062 . S
O26 C27 1.255 1_445 S
C27 O25 1.256 . S
C27 O26 1.255 1_665 S
H28 C7 0.931 . S
H29 C15 0.931 . S
Co30 N35 2.057 . S
Co30 O47 2.021 . S
Co30 O50 2.062 . S
Co30 O54 2.117 . S
Co30 O55 2.020 . S
C31 O51 1.259 . S
C31 O54 1.258 . S
Co32 N41 2.057 . S
Co32 O48 2.117 . S
Co32 O49 2.020 . S
Co32 O51 2.021 . S
Co32 O56 2.062 . S
C33 N35 1.316 . S
C33 N36 1.347 . S
C33 H38 0.931 . S
C34 N35 1.375 . S
C34 C37 1.350 . S
C34 H39 0.930 . S
N35 Co30 2.057 . S
N35 C33 1.316 . S
N35 C34 1.375 . S
N36 C33 1.347 . S
N36 C37 1.373 . S
C37 C34 1.350 . S
C37 N36 1.373 . S
C37 H58 0.931 . S
H38 C33 0.931 . S
H39 C34 0.930 . S
C40 O47 1.259 . S
C40 O48 1.258 . S
N41 Co32 2.057 . S
N41 C42 1.316 . S
N41 C43 1.375 . S
C42 N41 1.316 . S
C42 N44 1.347 . S
C42 H53 0.931 . S
C43 N41 1.375 . S
C43 C45 1.350 . S
C43 H52 0.930 . S
N44 C42 1.347 . S
N44 C45 1.373 . S
C45 C43 1.350 . S
C45 N44 1.373 . S
C45 H59 0.931 . S
C46 O49 1.256 . S
C46 O50 1.255 . S
O47 Co30 2.021 . S
O47 C40 1.259 . S
O48 Co32 2.117 . S
O48 C40 1.258 . S
O49 Co32 2.020 . S
O49 C46 1.256 . S
O50 Co30 2.062 . S
O50 C46 1.255 . S
O51 C31 1.259 . S
O51 Co32 2.021 . S
H52 C43 0.930 . S
H53 C42 0.931 . S
O54 Co30 2.117 . S
O54 C31 1.258 . S
O55 Co30 2.020 . S
O55 C57 1.256 . S
O56 Co32 2.062 . S
O56 C57 1.255 . S
C57 O55 1.256 . S
C57 O56 1.255 . S
H58 C37 0.931 . S
H59 C45 0.931 . S
Co60 N65 2.057 . S
Co60 O77 2.021 . S
Co60 O80 2.062 . S
Co60 O84 2.117 1_566 S
Co60 O85 2.020 1_556 S
C61 O81 1.259 . S
C61 O84 1.258 . S
Co62 N71 2.057 . S
Co62 O78 2.117 1_544 S
Co62 O79 2.020 1_554 S
Co62 O81 2.021 . S
Co62 O86 2.062 . S
C63 N65 1.316 . S
C63 N66 1.347 . S
C63 H68 0.931 . S
C64 N65 1.375 1_554 S
C64 C67 1.350 1_554 S
C64 H69 0.930 . S
N65 Co60 2.057 . S
N65 C63 1.316 . S
N65 C64 1.375 1_556 S
N66 C63 1.347 . S
N66 C67 1.373 . S
C67 C64 1.350 1_556 S
C67 N66 1.373 . S
C67 H88 0.931 . S
H68 C63 0.931 . S
H69 C64 0.930 . S
C70 O77 1.259 . S
C70 O78 1.258 . S
N71 Co62 2.057 . S
N71 C72 1.316 . S
N71 C73 1.375 1_554 S
C72 N71 1.316 . S
C72 N74 1.347 . S
C72 H83 0.931 . S
C73 N71 1.375 1_556 S
C73 C75 1.350 1_556 S
C73 H82 0.930 . S
N74 C72 1.347 . S
N74 C75 1.373 . S
C75 C73 1.350 1_554 S
C75 N74 1.373 . S
C75 H89 0.931 . S
C76 O79 1.256 1_565 S
C76 O80 1.255 . S
O77 Co60 2.021 . S
O77 C70 1.259 . S
O78 Co62 2.117 1_566 S
O78 C70 1.258 . S
O79 Co62 2.020 1_556 S
O79 C76 1.256 1_545 S
O80 Co60 2.062 . S
O80 C76 1.255 . S
O81 C61 1.259 . S
O81 Co62 2.021 . S
H82 C73 0.930 . S
H83 C72 0.931 . S
O84 Co60 2.117 1_544 S
O84 C61 1.258 . S
O85 Co60 2.020 1_554 S
O85 C87 1.256 1_565 S
O86 Co62 2.062 . S
O86 C87 1.255 . S
C87 O85 1.256 1_545 S
C87 O86 1.255 . S
H88 C67 0.931 . S
H89 C75 0.931 . S
Co90 N95 2.057 . S
Co90 O107 2.021 . S
Co90 O110 2.062 . S
Co90 O114 2.117 . S
Co90 O115 2.020 . S
C91 O111 1.259 . S
C91 O114 1.258 . S
Co92 N101 2.057 . S
Co92 O108 2.117 . S
Co92 O109 2.020 . S
Co92 O111 2.021 . S
Co92 O116 2.062 . S
C93 N95 1.316 . S
C93 N96 1.347 . S
C93 H98 0.931 . S
C94 N95 1.375 . S
C94 C97 1.350 . S
C94 H99 0.930 . S
N95 Co90 2.057 . S
N95 C93 1.316 . S
N95 C94 1.375 . S
N96 C93 1.347 . S
N96 C97 1.373 . S
C97 C94 1.350 . S
C97 N96 1.373 . S
C97 H118 0.931 . S
H98 C93 0.931 . S
H99 C94 0.930 . S
C100 O107 1.259 . S
C100 O108 1.258 . S
N101 Co92 2.057 . S
N101 C102 1.316 . S
N101 C103 1.375 . S
C102 N101 1.316 . S
C102 N104 1.347 . S
C102 H113 0.931 . S
C103 N101 1.375 . S
C103 C105 1.350 . S
C103 H112 0.930 . S
N104 C102 1.347 . S
N104 C105 1.373 . S
C105 C103 1.350 . S
C105 N104 1.373 . S
C105 H119 0.931 . S
C106 O109 1.256 . S
C106 O110 1.255 . S
O107 Co90 2.021 . S
O107 C100 1.259 . S
O108 Co92 2.117 . S
O108 C100 1.258 . S
O109 Co92 2.020 . S
O109 C106 1.256 . S
O110 Co90 2.062 . S
O110 C106 1.255 . S
O111 C91 1.259 . S
O111 Co92 2.021 . S
H112 C103 0.930 . S
H113 C102 0.931 . S
O114 Co90 2.117 . S
O114 C91 1.258 . S
O115 Co90 2.020 . S
O115 C117 1.256 . S
O116 Co92 2.062 . S
O116 C117 1.255 . S
C117 O115 1.256 . S
C117 O116 1.255 . S
H118 C97 0.931 . S
H119 C105 0.931 . S
Co120 N125 2.057 . S
Co120 O137 2.021 . S
Co120 O140 2.062 . S
Co120 O144 2.117 . S
Co120 O145 2.020 . S
C121 O141 1.259 . S
C121 O144 1.258 . S
Co122 N131 2.057 . S
Co122 O138 2.117 . S
Co122 O139 2.020 . S
Co122 O141 2.021 . S
Co122 O146 2.062 . S
C123 N125 1.316 . S
C123 N126 1.347 . S
C123 H128 0.931 . S
C124 N125 1.375 . S
C124 C127 1.350 . S
C124 H129 0.930 . S
N125 Co120 2.057 . S
N125 C123 1.316 . S
N125 C124 1.375 . S
N126 C123 1.347 . S
N126 C127 1.373 . S
C127 C124 1.350 . S
C127 N126 1.373 . S
C127 H148 0.931 . S
H128 C123 0.931 . S
H129 C124 0.930 . S
C130 O137 1.259 . S
C130 O138 1.258 . S
N131 Co122 2.057 . S
N131 C132 1.316 . S
N131 C133 1.375 . S
C132 N131 1.316 . S
C132 N134 1.347 . S
C132 H143 0.931 . S
C133 N131 1.375 . S
C133 C135 1.350 . S
C133 H142 0.930 . S
N134 C132 1.347 . S
N134 C135 1.373 . S
C135 C133 1.350 . S
C135 N134 1.373 . S
C135 H149 0.931 . S
C136 O139 1.256 . S
C136 O140 1.255 . S
O137 Co120 2.021 . S
O137 C130 1.259 . S
O138 Co122 2.117 . S
O138 C130 1.258 . S
O139 Co122 2.020 . S
O139 C136 1.256 . S
O140 Co120 2.062 . S
O140 C136 1.255 . S
O141 C121 1.259 . S
O141 Co122 2.021 . S
H142 C133 0.930 . S
H143 C132 0.931 . S
O144 Co120 2.117 . S
O144 C121 1.258 . S
O145 Co120 2.020 . S
O145 C147 1.256 . S
O146 Co122 2.062 . S
O146 C147 1.255 . S
C147 O145 1.256 . S
C147 O146 1.255 . S
H148 C127 0.931 . S
H149 C135 0.931 . S
Co150 N155 2.057 . S
Co150 O167 2.021 . S
Co150 O170 2.062 . S
Co150 O174 2.117 . S
Co150 O175 2.020 . S
C151 O171 1.259 . S
C151 O174 1.258 . S
Co152 N161 2.057 . S
Co152 O168 2.117 . S
Co152 O169 2.020 . S
Co152 O171 2.021 . S
Co152 O176 2.062 . S
C153 N155 1.316 . S
C153 N156 1.347 . S
C153 H158 0.931 . S
C154 N155 1.375 . S
C154 C157 1.350 . S
C154 H159 0.930 . S
N155 Co150 2.057 . S
N155 C153 1.316 . S
N155 C154 1.375 . S
N156 C153 1.347 . S
N156 C157 1.373 . S
C157 C154 1.350 . S
C157 N156 1.373 . S
C157 H178 0.931 . S
H158 C153 0.931 . S
H159 C154 0.930 . S
C160 O167 1.259 . S
C160 O168 1.258 . S
N161 Co152 2.057 . S
N161 C162 1.316 . S
N161 C163 1.375 . S
C162 N161 1.316 . S
C162 N164 1.347 . S
C162 H173 0.931 . S
C163 N161 1.375 . S
C163 C165 1.350 . S
C163 H172 0.930 . S
N164 C162 1.347 . S
N164 C165 1.373 . S
C165 C163 1.350 . S
C165 N164 1.373 . S
C165 H179 0.931 . S
C166 O169 1.256 . S
C166 O170 1.255 . S
O167 Co150 2.021 . S
O167 C160 1.259 . S
O168 Co152 2.117 . S
O168 C160 1.258 . S
O169 Co152 2.020 . S
O169 C166 1.256 . S
O170 Co150 2.062 . S
O170 C166 1.255 . S
O171 C151 1.259 . S
O171 Co152 2.021 . S
H172 C163 0.930 . S
H173 C162 0.931 . S
O174 Co150 2.117 . S
O174 C151 1.258 . S
O175 Co150 2.020 . S
O175 C177 1.256 . S
O176 Co152 2.062 . S
O176 C177 1.255 . S
C177 O175 1.256 . S
C177 O176 1.255 . S
H178 C157 0.931 . S
H179 C165 0.931 . S
Co180 N185 2.057 . S
Co180 O197 2.021 1_556 S
Co180 O200 2.062 1_556 S
Co180 O204 2.117 . S
Co180 O205 2.020 . S
C181 O201 1.259 . S
C181 O204 1.258 . S
Co182 N191 2.057 . S
Co182 O198 2.117 . S
Co182 O199 2.020 . S
Co182 O201 2.021 1_554 S
Co182 O206 2.062 1_554 S
C183 N185 1.316 1_554 S
C183 N186 1.347 . S
C183 H188 0.931 . S
C184 N185 1.375 . S
C184 C187 1.350 . S
C184 H189 0.930 . S
N185 Co180 2.057 . S
N185 C183 1.316 1_556 S
N185 C184 1.375 . S
N186 C183 1.347 . S
N186 C187 1.373 1_554 S
C187 C184 1.350 . S
C187 N186 1.373 1_556 S
C187 H208 0.931 . S
H188 C183 0.931 . S
H189 C184 0.930 . S
C190 O197 1.259 . S
C190 O198 1.258 . S
N191 Co182 2.057 . S
N191 C192 1.316 1_554 S
N191 C193 1.375 . S
C192 N191 1.316 1_556 S
C192 N194 1.347 . S
C192 H203 0.931 . S
C193 N191 1.375 . S
C193 C195 1.350 . S
C193 H202 0.930 . S
N194 C192 1.347 . S
N194 C195 1.373 1_556 S
C195 C193 1.350 . S
C195 N194 1.373 1_554 S
C195 H209 0.931 . S
C196 O199 1.256 . S
C196 O200 1.255 . S
O197 Co180 2.021 1_554 S
O197 C190 1.259 . S
O198 Co182 2.117 . S
O198 C190 1.258 . S
O199 Co182 2.020 . S
O199 C196 1.256 . S
O200 Co180 2.062 1_554 S
O200 C196 1.255 . S
O201 C181 1.259 . S
O201 Co182 2.021 1_556 S
H202 C193 0.930 . S
H203 C192 0.931 . S
O204 Co180 2.117 . S
O204 C181 1.258 . S
O205 Co180 2.020 . S
O205 C207 1.256 . S
O206 Co182 2.062 1_556 S
O206 C207 1.255 . S
C207 O205 1.256 . S
C207 O206 1.255 . S
H208 C187 0.931 . S
H209 C195 0.931 . S
Co210 N215 2.057 . S
Co210 O227 2.021 1_455 S
Co210 O230 2.062 . S
Co210 O234 2.117 . S
Co210 O235 2.020 . S
C211 O231 1.259 . S
C211 O234 1.258 . S
Co212 N221 2.057 . S
Co212 O228 2.117 . S
Co212 O229 2.020 . S
Co212 O231 2.021 1_655 S
Co212 O236 2.062 . S
C213 N215 1.316 . S
C213 N216 1.347 . S
C213 H218 0.931 . S
C214 N215 1.375 . S
C214 C217 1.350 . S
C214 H219 0.930 . S
N215 Co210 2.057 . S
N215 C213 1.316 . S
N215 C214 1.375 . S
N216 C213 1.347 . S
N216 C217 1.373 . S
C217 C214 1.350 . S
C217 N216 1.373 . S
C217 H238 0.931 . S
H218 C213 0.931 . S
H219 C214 0.930 . S
C220 O227 1.259 . S
C220 O228 1.258 . S
N221 Co212 2.057 . S
N221 C222 1.316 . S
N221 C223 1.375 . S
C222 N221 1.316 . S
C222 N224 1.347 . S
C222 H233 0.931 . S
C223 N221 1.375 . S
C223 C225 1.350 . S
C223 H232 0.930 . S
N224 C222 1.347 . S
N224 C225 1.373 . S
C225 C223 1.350 . S
C225 N224 1.373 . S
C225 H239 0.931 . S
C226 O229 1.256 . S
C226 O230 1.255 1_655 S
O227 Co210 2.021 1_655 S
O227 C220 1.259 . S
O228 Co212 2.117 . S
O228 C220 1.258 . S
O229 Co212 2.020 . S
O229 C226 1.256 . S
O230 Co210 2.062 . S
O230 C226 1.255 1_455 S
O231 C211 1.259 . S
O231 Co212 2.021 1_455 S
H232 C223 0.930 . S
H233 C222 0.931 . S
O234 Co210 2.117 . S
O234 C211 1.258 . S
O235 Co210 2.020 . S
O235 C237 1.256 . S
O236 Co212 2.062 . S
O236 C237 1.255 1_655 S
C237 O235 1.256 . S
C237 O236 1.255 1_455 S
H238 C217 0.931 . S
H239 C225 0.931 . S
C240 C241 1.369 . S
C240 C242 1.419 . S
C240 H244 0.930 . S
C241 C240 1.369 . S
C241 C250 1.429 . S
C242 C240 1.419 . S
C242 C243 1.363 . S
C242 H245 0.929 . S
C243 C242 1.363 . S
C243 C249 1.428 . S
H244 C240 0.930 . S
H245 C242 0.929 . S
S246 N247 1.613 . S
S246 N248 1.610 . S
N247 S246 1.613 . S
N247 C250 1.350 . S
N248 S246 1.610 . S
N248 C249 1.351 . S
C249 C243 1.428 . S
C249 N248 1.351 . S
C249 C250 1.434 . S
C250 C241 1.429 . S
C250 N247 1.350 . S
C250 C249 1.434 . S
C251 C252 1.369 . S
C251 C253 1.419 . S
C251 H255 0.930 . S
C252 C251 1.369 . S
C252 C261 1.429 . S
C253 C251 1.419 . S
C253 C254 1.363 . S
C253 H256 0.929 . S
C254 C253 1.363 . S
C254 C260 1.428 . S
H255 C251 0.930 . S
H256 C253 0.929 . S
S257 N258 1.613 . S
S257 N259 1.610 . S
N258 S257 1.613 . S
N258 C261 1.350 . S
N259 S257 1.610 . S
N259 C260 1.351 . S
C260 C254 1.428 . S
C260 N259 1.351 . S
C260 C261 1.434 . S
C261 C252 1.429 . S
C261 N258 1.350 . S
C261 C260 1.434 . S
C262 C263 1.369 . S
C262 C264 1.419 . S
C262 H266 0.930 1_556 S
C263 C262 1.369 . S
C263 C272 1.429 . S
C264 C262 1.419 . S
C264 C265 1.363 . S
C264 H267 0.929 1_556 S
C265 C264 1.363 . S
C265 C271 1.428 . S
H266 C262 0.930 1_554 S
H267 C264 0.929 1_554 S
S268 N269 1.613 . S
S268 N270 1.610 . S
N269 S268 1.613 . S
N269 C272 1.350 . S
N270 S268 1.610 . S
N270 C271 1.351 . S
C271 C265 1.428 . S
C271 N270 1.351 . S
C271 C272 1.434 . S
C272 C263 1.429 . S
C272 N269 1.350 . S
C272 C271 1.434 . S
C273 C274 1.369 . S
C273 C275 1.419 . S
C273 H277 0.930 1_554 S
C274 C273 1.369 . S
C274 C283 1.429 . S
C275 C273 1.419 . S
C275 C276 1.363 . S
C275 H278 0.929 . S
C276 C275 1.363 . S
C276 C282 1.428 . S
H277 C273 0.930 1_556 S
H278 C275 0.929 . S
S279 N280 1.613 . S
S279 N281 1.610 . S
N280 S279 1.613 . S
N280 C283 1.350 . S
N281 S279 1.610 . S
N281 C282 1.351 . S
C282 C276 1.428 . S
C282 N281 1.351 . S
C282 C283 1.434 . S
C283 C274 1.429 . S
C283 N280 1.350 . S
C283 C282 1.434 . S
C284 C285 1.369 . S
C284 C286 1.419 . S
C284 H288 0.930 . S
C285 C284 1.369 . S
C285 C294 1.429 . S
C286 C284 1.419 . S
C286 C287 1.363 . S
C286 H289 0.929 . S
C287 C286 1.363 . S
C287 C293 1.428 . S
H288 C284 0.930 . S
H289 C286 0.929 . S
S290 N291 1.613 . S
S290 N292 1.610 . S
N291 S290 1.613 . S
N291 C294 1.350 . S
N292 S290 1.610 . S
N292 C293 1.351 . S
C293 C287 1.428 . S
C293 N292 1.351 . S
C293 C294 1.434 . S
C294 C285 1.429 . S
C294 N291 1.350 . S
C294 C293 1.434 . S
C295 C296 1.369 . S
C295 C297 1.419 . S
C295 H299 0.930 . S
C296 C295 1.369 . S
C296 C305 1.429 . S
C297 C295 1.419 . S
C297 C298 1.363 . S
C297 H300 0.929 . S
C298 C297 1.363 . S
C298 C304 1.428 . S
H299 C295 0.930 . S
H300 C297 0.929 . S
S301 N302 1.613 . S
S301 N303 1.610 . S
N302 S301 1.613 . S
N302 C305 1.350 . S
N303 S301 1.610 . S
N303 C304 1.351 . S
C304 C298 1.428 . S
C304 N303 1.351 . S
C304 C305 1.434 . S
C305 C296 1.429 . S
C305 N302 1.350 . S
C305 C304 1.434 . S
C306 C307 1.369 . S
C306 C308 1.419 . S
C306 H310 0.930 1_554 S
C307 C306 1.369 . S
C307 C316 1.429 . S
C308 C306 1.419 . S
C308 C309 1.363 . S
C308 H311 0.929 1_554 S
C309 C308 1.363 . S
C309 C315 1.428 . S
H310 C306 0.930 1_556 S
H311 C308 0.929 1_556 S
S312 N313 1.613 . S
S312 N314 1.610 . S
N313 S312 1.613 . S
N313 C316 1.350 . S
N314 S312 1.610 . S
N314 C315 1.351 . S
C315 C309 1.428 . S
C315 N314 1.351 . S
C315 C316 1.434 . S
C316 C307 1.429 . S
C316 N313 1.350 . S
C316 C315 1.434 . S
C317 C318 1.369 . S
C317 C319 1.419 . S
C317 H321 0.930 . S
C318 C317 1.369 . S
C318 C327 1.429 . S
C319 C317 1.419 . S
C319 C320 1.363 . S
C319 H322 0.929 . S
C320 C319 1.363 . S
C320 C326 1.428 . S
H321 C317 0.930 . S
H322 C319 0.929 . S
S323 N324 1.613 1_554 S
S323 N325 1.610 . S
N324 S323 1.613 1_556 S
N324 C327 1.350 . S
N325 S323 1.610 . S
N325 C326 1.351 1_554 S
C326 C320 1.428 . S
C326 N325 1.351 1_556 S
C326 C327 1.434 . S
C327 C318 1.429 . S
C327 N324 1.350 . S
C327 C326 1.434 . S
C328 C329 1.369 . S
C328 C330 1.419 . S
C328 H332 0.930 1_556 S
C329 C328 1.369 . S
C329 C338 1.429 . S
C330 C328 1.419 . S
C330 C331 1.363 . S
C330 H333 0.929 . S
C331 C330 1.363 . S
C331 C337 1.428 . S
H332 C328 0.930 1_554 S
H333 C330 0.929 . S
S334 N335 1.613 . S
S334 N336 1.610 . S
N335 S334 1.613 . S
N335 C338 1.350 . S
N336 S334 1.610 . S
N336 C337 1.351 . S
C337 C331 1.428 . S
C337 N336 1.351 . S
C337 C338 1.434 . S
C338 C329 1.429 . S
C338 N335 1.350 . S
C338 C337 1.434 . S
C339 C340 1.369 . S
C339 C341 1.419 . S
C339 H343 0.930 . S
C340 C339 1.369 . S
C340 C349 1.429 . S
C341 C339 1.419 . S
C341 C342 1.363 . S
C341 H344 0.929 . S
C342 C341 1.363 . S
C342 C348 1.428 . S
H343 C339 0.930 . S
H344 C341 0.929 . S
S345 N346 1.613 . S
S345 N347 1.610 . S
N346 S345 1.613 . S
N346 C349 1.350 . S
N347 S345 1.610 . S
N347 C348 1.351 . S
C348 C342 1.428 . S
C348 N347 1.351 . S
C348 C349 1.434 . S
C349 C340 1.429 . S
C349 N346 1.350 . S
C349 C348 1.434 . S
C350 C351 1.369 . S
C350 C352 1.419 . S
C350 H354 0.930 . S
C351 C350 1.369 . S
C351 C360 1.429 . S
C352 C350 1.419 . S
C352 C353 1.363 . S
C352 H355 0.929 . S
C353 C352 1.363 . S
C353 C359 1.428 . S
H354 C350 0.930 . S
H355 C352 0.929 . S
S356 N357 1.613 . S
S356 N358 1.610 . S
N357 S356 1.613 . S
N357 C360 1.350 . S
N358 S356 1.610 . S
N358 C359 1.351 . S
C359 C353 1.428 . S
C359 N358 1.351 . S
C359 C360 1.434 . S
C360 C351 1.429 . S
C360 N357 1.350 . S
C360 C359 1.434 . S
C361 C362 1.369 . S
C361 C363 1.419 . S
C361 H365 0.930 . S
C362 C361 1.369 . S
C362 C371 1.429 . S
C363 C361 1.419 . S
C363 C364 1.363 . S
C363 H366 0.929 . S
C364 C363 1.363 . S
C364 C370 1.428 . S
H365 C361 0.930 . S
H366 C363 0.929 . S
S367 N368 1.613 . S
S367 N369 1.610 . S
N368 S367 1.613 . S
N368 C371 1.350 . S
N369 S367 1.610 . S
N369 C370 1.351 . S
C370 C364 1.428 . S
C370 N369 1.351 . S
C370 C371 1.434 . S
C371 C362 1.429 . S
C371 N368 1.350 . S
C371 C370 1.434 . S
C372 C373 1.369 . S
C372 C374 1.419 . S
C372 H376 0.930 . S
C373 C372 1.369 . S
C373 C382 1.429 . S
C374 C372 1.419 . S
C374 C375 1.363 . S
C374 H377 0.929 1_554 S
C375 C374 1.363 . S
C375 C381 1.428 . S
H376 C372 0.930 . S
H377 C374 0.929 1_556 S
S378 N379 1.613 . S
S378 N380 1.610 . S
N379 S378 1.613 . S
N379 C382 1.350 . S
N380 S378 1.610 . S
N380 C381 1.351 . S
C381 C375 1.428 . S
C381 N380 1.351 . S
C381 C382 1.434 . S
C382 C373 1.429 . S
C382 N379 1.350 . S
C382 C381 1.434 . S
C383 C384 1.369 . S
C383 C385 1.419 . S
C383 H387 0.930 . S
C384 C383 1.369 . S
C384 C393 1.429 1_556 S
C385 C383 1.419 . S
C385 C386 1.363 . S
C385 H388 0.929 . S
C386 C385 1.363 . S
C386 C392 1.428 . S
H387 C383 0.930 . S
H388 C385 0.929 . S
S389 N390 1.613 . S
S389 N391 1.610 . S
N390 S389 1.613 . S
N390 C393 1.350 . S
N391 S389 1.610 . S
N391 C392 1.351 1_554 S
C392 C386 1.428 . S
C392 N391 1.351 1_556 S
C392 C393 1.434 1_556 S
C393 C384 1.429 1_554 S
C393 N390 1.350 . S
C393 C392 1.434 1_554 S
C394 C395 1.369 . S
C394 C396 1.419 . S
C394 H398 0.930 . S
C395 C394 1.369 . S
C395 C404 1.429 . S
C396 C394 1.419 . S
C396 C397 1.363 . S
C396 H399 0.929 . S
C397 C396 1.363 . S
C397 C403 1.428 . S
H398 C394 0.930 . S
H399 C396 0.929 . S
S400 N401 1.613 . S
S400 N402 1.610 . S
N401 S400 1.613 . S
N401 C404 1.350 . S
N402 S400 1.610 . S
N402 C403 1.351 . S
C403 C397 1.428 . S
C403 N402 1.351 . S
C403 C404 1.434 . S
C404 C395 1.429 . S
C404 N401 1.350 . S
C404 C403 1.434 . S
C405 C406 1.369 . S
C405 C407 1.419 . S
C405 H409 0.930 . S
C406 C405 1.369 . S
C406 C415 1.429 . S
C407 C405 1.419 . S
C407 C408 1.363 . S
C407 H410 0.929 . S
C408 C407 1.363 . S
C408 C414 1.428 . S
H409 C405 0.930 . S
H410 C407 0.929 . S
S411 N412 1.613 . S
S411 N413 1.610 . S
N412 S411 1.613 . S
N412 C415 1.350 . S
N413 S411 1.610 . S
N413 C414 1.351 . S
C414 C408 1.428 . S
C414 N413 1.351 . S
C414 C415 1.434 . S
C415 C406 1.429 . S
C415 N412 1.350 . S
C415 C414 1.434 . S
C416 C417 1.369 1_665 S
C416 C418 1.419 1_556 S
C416 H420 0.930 . S
C417 C416 1.369 1_445 S
C417 C426 1.429 . S
C418 C416 1.419 1_554 S
C418 C419 1.363 . S
C418 H421 0.929 . S
C419 C418 1.363 . S
C419 C425 1.428 1_665 S
H420 C416 0.930 . S
H421 C418 0.929 . S
S422 N423 1.613 1_554 S
S422 N424 1.610 . S
N423 S422 1.613 1_556 S
N423 C426 1.350 . S
N424 S422 1.610 . S
N424 C425 1.351 . S
C425 C419 1.428 1_445 S
C425 N424 1.351 . S
C425 C426 1.434 1_554 S
C426 C417 1.429 . S
C426 N423 1.350 . S
C426 C425 1.434 1_556 S
C427 C428 1.369 . S
C427 C429 1.419 . S
C427 H431 0.930 . S
C428 C427 1.369 . S
C428 C437 1.429 . S
C429 C427 1.419 . S
C429 C430 1.363 . S
C429 H432 0.929 . S
C430 C429 1.363 . S
C430 C436 1.428 . S
H431 C427 0.930 . S
H432 C429 0.929 . S
S433 N434 1.613 . S
S433 N435 1.610 . S
N434 S433 1.613 . S
N434 C437 1.350 . S
N435 S433 1.610 . S
N435 C436 1.351 . S
C436 C430 1.428 . S
C436 N435 1.351 . S
C436 C437 1.434 . S
C437 C428 1.429 . S
C437 N434 1.350 . S
C437 C436 1.434 . S
C438 C439 1.368 . S
C438 C440 1.419 . S
C438 H442 0.930 . S
C439 C438 1.368 . S
C439 C448 1.426 1_565 S
C440 C438 1.419 . S
C440 C441 1.363 1_565 S
C440 H443 0.929 . S
C441 C440 1.363 1_545 S
C441 C447 1.428 . S
H442 C438 0.930 . S
H443 C440 0.929 . S
S444 N445 1.613 . S
S444 N446 1.610 . S
N445 S444 1.613 . S
N445 C448 1.350 . S
N446 S444 1.610 . S
N446 C447 1.351 . S
C447 C441 1.428 . S
C447 N446 1.351 . S
C447 C448 1.434 . S
C448 C439 1.426 1_545 S
C448 N445 1.350 . S
C448 C447 1.434 . S
C449 C450 1.369 . S
C449 C451 1.419 . S
C449 H453 0.930 . S
C450 C449 1.369 . S
C450 C459 1.429 . S
C451 C449 1.419 . S
C451 C452 1.363 . S
C451 H454 0.929 . S
C452 C451 1.363 . S
C452 C458 1.428 . S
H453 C449 0.930 . S
H454 C451 0.929 . S
S455 N456 1.613 . S
S455 N457 1.610 . S
N456 S455 1.613 . S
N456 C459 1.350 . S
N457 S455 1.610 . S
N457 C458 1.351 . S
C458 C452 1.428 . S
C458 N457 1.351 . S
C458 C459 1.434 . S
C459 C450 1.429 . S
C459 N456 1.350 . S
C459 C458 1.434 . S
C460 C461 1.369 . S
C460 C462 1.419 . S
C460 H464 0.930 . S
C461 C460 1.369 . S
C461 C470 1.429 . S
C462 C460 1.419 . S
C462 C463 1.363 . S
C462 H465 0.929 . S
C463 C462 1.363 . S
C463 C469 1.428 . S
H464 C460 0.930 . S
H465 C462 0.929 . S
S466 N467 1.613 . S
S466 N468 1.610 . S
N467 S466 1.613 . S
N467 C470 1.350 . S
N468 S466 1.610 . S
N468 C469 1.351 . S
C469 C463 1.428 . S
C469 N468 1.351 . S
C469 C470 1.434 . S
C470 C461 1.429 . S
C470 N467 1.350 . S
C470 C469 1.434 . S
C471 C472 1.369 . S
C471 C473 1.419 . S
C471 H475 0.930 . S
C472 C471 1.369 . S
C472 C481 1.429 . S
C473 C471 1.419 . S
C473 C474 1.363 . S
C473 H476 0.929 . S
C474 C473 1.363 . S
C474 C480 1.428 . S
H475 C471 0.930 . S
H476 C473 0.929 . S
S477 N478 1.613 . S
S477 N479 1.610 . S
N478 S477 1.613 . S
N478 C481 1.350 . S
N479 S477 1.610 . S
N479 C480 1.351 . S
C480 C474 1.428 . S
C480 N479 1.351 . S
C480 C481 1.434 . S
C481 C472 1.429 . S
C481 N478 1.350 . S
C481 C480 1.434 . S
C482 C483 1.369 . S
C482 C484 1.419 . S
C482 H486 0.930 . S
C483 C482 1.369 . S
C483 C492 1.429 . S
C484 C482 1.419 . S
C484 C485 1.363 . S
C484 H487 0.929 . S
C485 C484 1.363 . S
C485 C491 1.428 . S
H486 C482 0.930 . S
H487 C484 0.929 . S
S488 N489 1.613 . S
S488 N490 1.610 . S
N489 S488 1.613 . S
N489 C492 1.350 . S
N490 S488 1.610 . S
N490 C491 1.351 . S
C491 C485 1.428 . S
C491 N490 1.351 . S
C491 C492 1.434 . S
C492 C483 1.429 . S
C492 N489 1.350 . S
C492 C491 1.434 . S
C493 C494 1.369 . S
C493 C495 1.419 1_556 S
C493 H497 0.930 . S
C494 C493 1.369 . S
C494 C503 1.429 1_455 S
C495 C493 1.419 1_554 S
C495 C496 1.363 1_455 S
C495 H498 0.929 . S
C496 C495 1.363 1_655 S
C496 C502 1.428 . S
H497 C493 0.930 . S
H498 C495 0.929 . S
S499 N500 1.613 1_554 S
S499 N501 1.610 . S
N500 S499 1.613 1_556 S
N500 C503 1.350 . S
N501 S499 1.610 . S
N501 C502 1.351 . S
C502 C496 1.428 . S
C502 N501 1.351 . S
C502 C503 1.434 1_554 S
C503 C494 1.429 1_655 S
C503 N500 1.350 . S
C503 C502 1.434 1_556 S
C241 N14 0.758 . S
C243 N104 0.743 . S
C252 C10 1.507 . S
C254 N44 1.474 . S
C263 C40 2.814 . S
C265 C70 2.818 . S
C274 N74 1.475 . S
C276 C100 1.504 . S
C285 N6 0.758 . S
C287 N156 0.752 . S
C296 C1 1.504 . S
C298 N126 1.480 . S
C307 C121 2.815 . S
C309 C61 2.813 . S
C318 C151 1.504 . S
C320 N66 1.482 . S
C329 N194 0.745 . S
C331 N164 0.756 . S
C340 N134 1.473 . S
C342 C190 1.507 . S
C351 C220 2.815 . S
C353 C130 2.817 . S
C362 C160 1.504 . S
C364 N224 1.481 . S
C373 N96 0.743 . S
C375 N186 0.743 . S
C384 C181 1.506 . S
C386 N36 1.479 . S
C395 C31 2.814 . S
C397 C211 2.812 . S
C406 C91 1.506 . S
C408 N216 1.477 . S
C417 C16 1.386 . S
C419 C27 1.382 . S
C428 C57 1.328 . S
C430 C46 1.326 1_554 S
C439 C76 1.330 . S
C441 C87 1.328 . S
C450 C106 1.381 1_556 S
C452 C117 1.386 . S
C461 C147 1.327 1_556 S
C463 C136 1.327 . S
C472 C166 1.387 . S
C474 C177 1.382 1_554 S
C483 C207 1.385 . S
C485 C196 1.383 . S
C494 C237 1.327 . S
C496 C226 1.327 . S
