# Generated by pormake.
# Topology fcu, (12)-cn, num edge types: 1
# Building blocks:
#     Node 0, Type 0, BuildingBlock: QEWDON_clean_sbu_0, # of connection points: 12
#     Node 1, Type 0, BuildingBlock: QEWDON_clean_sbu_0, # of connection points: 12
#     Node 2, Type 0, BuildingBlock: QEWDON_clean_sbu_0, # of connection points: 12
#     Node 3, Type 0, BuildingBlock: QEWDON_clean_sbu_0, # of connection points: 12
#     Edge 4, Type (0, 0), BuildingBlock: XIVTED_clean_linker_0, # of connection points: 2
#     Edge 5, Type (0, 0), BuildingBlock: XIVTED_clean_linker_0, # of connection points: 2
#     Edge 6, Type (0, 0), BuildingBlock: XIVTED_clean_linker_0, # of connection points: 2
#     Edge 7, Type (0, 0), BuildingBlock: XIVTED_clean_linker_0, # of connection points: 2
#     Edge 8, Type (0, 0), BuildingBlock: XIVTED_clean_linker_0, # of connection points: 2
#     Edge 9, Type (0, 0), BuildingBlock: XIVTED_clean_linker_0, # of connection points: 2
#     Edge 10, Type (0, 0), BuildingBlock: XIVTED_clean_linker_0, # of connection points: 2
#     Edge 11, Type (0, 0), BuildingBlock: XIVTED_clean_linker_0, # of connection points: 2
#     Edge 12, Type (0, 0), BuildingBlock: XIVTED_clean_linker_0, # of connection points: 2
#     Edge 13, Type (0, 0), BuildingBlock: XIVTED_clean_linker_0, # of connection points: 2
#     Edge 14, Type (0, 0), BuildingBlock: XIVTED_clean_linker_0, # of connection points: 2
#     Edge 15, Type (0, 0), BuildingBlock: XIVTED_clean_linker_0, # of connection points: 2
#     Edge 16, Type (0, 0), BuildingBlock: XIVTED_clean_linker_0, # of connection points: 2
#     Edge 17, Type (0, 0), BuildingBlock: XIVTED_clean_linker_0, # of connection points: 2
#     Edge 18, Type (0, 0), BuildingBlock: XIVTED_clean_linker_0, # of connection points: 2
#     Edge 19, Type (0, 0), BuildingBlock: XIVTED_clean_linker_0, # of connection points: 2
#     Edge 20, Type (0, 0), BuildingBlock: XIVTED_clean_linker_0, # of connection points: 2
#     Edge 21, Type (0, 0), BuildingBlock: XIVTED_clean_linker_0, # of connection points: 2
#     Edge 22, Type (0, 0), BuildingBlock: XIVTED_clean_linker_0, # of connection points: 2
#     Edge 23, Type (0, 0), BuildingBlock: XIVTED_clean_linker_0, # of connection points: 2
#     Edge 24, Type (0, 0), BuildingBlock: XIVTED_clean_linker_0, # of connection points: 2
#     Edge 25, Type (0, 0), BuildingBlock: XIVTED_clean_linker_0, # of connection points: 2
#     Edge 26, Type (0, 0), BuildingBlock: XIVTED_clean_linker_0, # of connection points: 2
#     Edge 27, Type (0, 0), BuildingBlock: XIVTED_clean_linker_0, # of connection points: 2
# Relax obj value: 0.042
# Max RMSD: 0.120
# Mean RMSD: 0.109
data_MOF--net-fcu--node1-QEWDON_clean_sbu_0--edge1-XIVTED_clean_linker_0
_symmetry_space_group_name_H-M    P1
_symmetry_Int_Tables_number       1
_symmetry_cell_setting            triclinic
loop_
_symmetry_equiv_pos_as_xyz
'x, y, z'
_cell_length_a     27.730246
_cell_length_b     27.532276
_cell_length_c     27.388795
_cell_angle_alpha  90.031649
_cell_angle_beta   90.277915
_cell_angle_gamma 89.492916
loop_
_atom_site_label
_atom_site_type_symbol
_atom_site_fract_x
_atom_site_fract_y
_atom_site_fract_z
_atom_type_partial_charge
Zn0 Zn 0.8973 0.87826 0.97034 0.0
Zn1 Zn 0.92295 0.88297 0.08853 0.0
O2 O 0.90322 0.92259 0.02941 0.0
H3 H 0.89684 0.95705 0.02817 0.0
C4 C 0.02367 0.85151 0.90724 0.0
O5 O 0.00384 0.84114 0.94938 0.0
Zn6 Zn 0.03603 0.11607 0.07918 0.0
Zn7 Zn 0.04343 0.1139 0.95913 0.0
O8 O 0.04368 0.07264 0.02047 0.0
H9 H 0.04134 0.0377 0.01995 0.0
Zn10 Zn 0.07717 0.92914 0.96357 0.0
O11 O 0.03718 0.94085 0.02461 0.0
Zn12 Zn 0.08352 0.94989 0.08111 0.0
H13 H 0.00366 0.95068 0.02416 0.0
Zn14 Zn 0.88492 0.06483 0.97994 0.0
O15 O 0.92479 0.04596 0.03891 0.0
H16 H 0.95568 0.0296 0.03743 0.0
Zn17 Zn 0.88042 0.04322 0.09594 0.0
C18 C 0.94541 0.112 0.9054 0.0
O19 O 0.96317 0.06792 0.90013 0.0
O20 O 0.90593 0.80692 0.99116 0.0
O21 O 0.91887 0.81094 0.07164 0.0
O22 O 0.04523 0.18607 0.97628 0.0
O23 O 0.04723 0.18703 0.05771 0.0
O24 O 0.14999 0.92744 0.97808 0.0
O25 O 0.1524 0.93719 0.05876 0.0
C26 C 0.86603 0.94431 0.14915 0.0
O27 O 0.81221 0.06911 0.99453 0.0
O28 O 0.81171 0.05952 0.07521 0.0
O29 O 0.0891 0.09453 0.90167 0.0
C30 C 0.91336 0.78641 0.03233 0.0
O31 O 0.84828 0.89467 0.91305 0.0
C32 C 0.09762 0.05006 0.13359 0.0
O33 O 0.0533 0.88648 0.90481 0.0
C34 C 0.0487 0.20904 0.01651 0.0
O35 O 0.9123 0.1195 0.93647 0.0
C36 C 0.02348 0.88491 0.13635 0.0
O37 O 0.87778 0.89982 0.14458 0.0
O38 O 0.88333 0.97377 0.11827 0.0
C39 C 0.17358 0.9304 0.01799 0.0
O40 O 0.08479 0.09456 0.13076 0.0
O41 O 0.07887 0.02044 0.10325 0.0
C42 C 0.94286 0.11304 0.14287 0.0
O43 O 0.06597 0.90179 0.13437 0.0
O44 O -0.00779 0.9003 0.10565 0.0
C45 C 0.78967 0.06741 0.03493 0.0
O46 O 0.90293 0.09102 0.14722 0.0
O47 O 0.96922 0.10287 0.10619 0.0
C48 C 0.11345 0.05524 0.90278 0.0
O49 O 0.10829 0.02573 0.94003 0.0
C50 C 0.82263 0.93323 0.9141 0.0
O51 O 0.82739 0.96291 0.95136 0.0
Zn52 Zn 0.88188 0.46163 0.43237 0.0
Zn53 Zn 0.87943 0.57916 0.44667 0.0
O54 O 0.92312 0.52189 0.43613 0.0
H55 H 0.90682 0.49114 0.43395 0.0
C56 C 0.83201 0.42364 0.56185 0.0
O57 O 0.84089 0.4617 0.53456 0.0
Zn58 Zn 0.08728 0.54466 0.57805 0.0
Zn59 Zn 0.08876 0.42912 0.59811 0.0
O60 O 0.04468 0.48811 0.59178 0.0
H61 H 0.01021 0.48691 0.58708 0.0
Zn62 Zn 0.91802 0.45537 0.61349 0.0
O63 O 0.92064 0.51494 0.57045 0.0
Zn64 Zn 0.92622 0.56858 0.61835 0.0
H65 H 0.93426 0.51474 0.53805 0.0
Zn66 Zn 0.02501 0.4395 0.40022 0.0
O67 O 0.02129 0.49812 0.44508 0.0
H68 H 0.01092 0.49787 0.47872 0.0
Zn69 Zn 0.03432 0.5569 0.40409 0.0
C70 C 0.05782 0.36736 0.4728 0.0
O71 O 0.06312 0.40652 0.49965 0.0
O72 O 0.81156 0.48061 0.41652 0.0
O73 O 0.81086 0.56145 0.42358 0.0
O74 O 0.15979 0.44769 0.60805 0.0
O75 O 0.15676 0.52667 0.59136 0.0
O76 O 0.911 0.46988 0.68681 0.0
O77 O 0.89702 0.54932 0.68349 0.0
C78 C 0.94646 0.63311 0.38933 0.0
O79 O 0.05599 0.45568 0.33399 0.0
O80 O 0.05584 0.53658 0.33633 0.0
O81 O 0.06529 0.37202 0.64099 0.0
C82 C 0.78973 0.52146 0.41351 0.0
O83 O 0.90891 0.39909 0.39785 0.0
C84 C 0.02905 0.60755 0.63818 0.0
O85 O 0.86151 0.41145 0.59534 0.0
C86 C 0.18036 0.48865 0.60388 0.0
O87 O 0.0412 0.37164 0.42967 0.0
C88 C 0.88095 0.6319 0.54675 0.0
O89 O 0.90351 0.63455 0.40535 0.0
O90 O 0.9731 0.59759 0.40264 0.0
C91 C 0.89632 0.50909 0.70666 0.0
O92 O 0.07207 0.59989 0.62466 0.0
O93 O -0.00303 0.57939 0.62159 0.0
C94 C 0.10282 0.58734 0.47876 0.0
O95 O 0.89392 0.62825 0.59125 0.0
O96 O 0.88626 0.59519 0.51889 0.0
C97 C 0.06465 0.49659 0.31428 0.0
O98 O 0.09068 0.59182 0.43414 0.0
O99 O 0.07577 0.56387 0.50753 0.0
C100 C 0.04155 0.38074 0.67961 0.0
O101 O 0.03079 0.42598 0.69073 0.0
C102 C 0.93258 0.4017 0.35825 0.0
O103 O 0.94137 0.44467 0.3396 0.0
Zn104 Zn 0.38765 0.89107 0.4682 0.0
Zn105 Zn 0.40673 0.89128 0.58716 0.0
O106 O 0.39883 0.93409 0.52765 0.0
H107 H 0.40434 0.96861 0.52607 0.0
C108 C 0.50719 0.84182 0.41726 0.0
O109 O 0.50804 0.82585 0.46246 0.0
Zn110 Zn 0.53989 0.09927 0.58704 0.0
Zn111 Zn 0.56453 0.10073 0.46986 0.0
O112 O 0.5474 0.05744 0.52721 0.0
H113 H 0.5329 0.02602 0.52322 0.0
Zn114 Zn 0.5572 0.92315 0.46295 0.0
O115 O 0.52348 0.93443 0.52734 0.0
Zn116 Zn 0.5737 0.93288 0.58028 0.0
H117 H 0.49197 0.9492 0.53041 0.0
Zn118 Zn 0.36923 0.08314 0.47218 0.0
O119 O 0.41163 0.06651 0.53051 0.0
H120 H 0.44326 0.05188 0.52749 0.0
Zn121 Zn 0.36985 0.0636 0.5905 0.0
C122 C 0.40572 0.11654 0.37572 0.0
O123 O 0.40407 0.07004 0.36511 0.0
O124 O 0.37487 0.82099 0.49011 0.0
O125 O 0.38275 0.82328 0.57126 0.0
O126 O 0.57482 0.1711 0.49183 0.0
O127 O 0.56085 0.16787 0.57185 0.0
O128 O 0.62769 0.90229 0.47253 0.0
O129 O 0.63839 0.9106 0.5527 0.0
C130 C 0.35393 0.96397 0.64391 0.0
O131 O 0.29964 0.09736 0.49311 0.0
O132 O 0.30203 0.09012 0.57419 0.0
O133 O 0.60949 0.07551 0.41362 0.0
C134 C 0.37269 0.80058 0.53182 0.0
O135 O 0.34539 0.91559 0.40861 0.0
C136 C 0.593 0.02735 0.64276 0.0
O137 O 0.52327 0.88397 0.40829 0.0
C138 C 0.57283 0.19136 0.53364 0.0
O139 O 0.39441 0.13045 0.41849 0.0
C140 C 0.50964 0.86915 0.63255 0.0
O141 O 0.36569 0.91922 0.64129 0.0
O142 O 0.37022 -0.00736 0.61152 0.0
C143 C 0.65425 0.89918 0.51044 0.0
O144 O 0.58163 0.07223 0.64177 0.0
O145 O 0.57669 0.00062 0.60863 0.0
C146 C 0.44455 0.1165 0.6407 0.0
O147 O 0.55316 0.88297 0.6293 0.0
O148 O 0.4776 0.89116 0.60712 0.0
C149 C 0.27942 0.10058 0.53468 0.0
O150 O 0.40001 0.10612 0.64279 0.0
O151 O 0.46988 0.09745 0.60701 0.0
C152 C 0.63565 0.03749 0.41744 0.0
O153 O 0.63378 0.01184 0.4578 0.0
C154 C 0.33104 0.95929 0.40302 0.0
O155 O 0.3437 0.99197 0.4355 0.0
Zn156 Zn 0.41604 0.60595 0.05572 0.0
Zn157 Zn 0.44627 0.61625 0.94318 0.0
O158 O 0.43587 0.56788 0.9961 0.0
H159 H 0.44946 0.53547 0.99699 0.0
C160 C 0.53036 0.59506 0.15428 0.0
O161 O 0.51166 0.5514 0.15535 0.0
Zn162 Zn 0.53775 0.39108 0.94983 0.0
Zn163 Zn 0.53081 0.40497 0.06807 0.0
O164 O 0.53287 0.4403 1.00348 0.0
H165 H 0.5215 0.47326 0.99918 0.0
Zn166 Zn 0.58455 0.55818 0.0673 0.0
O167 O 0.54982 0.56505 1.0025 0.0
Zn168 Zn 0.59736 0.55171 0.9495 0.0
H169 H 0.56296 0.56251 0.03509 0.0
Zn170 Zn 0.3902 0.44067 0.04617 0.0
O171 O 0.43069 0.43924 0.98509 0.0
H172 H 0.41442 0.43923 0.01616 0.0
Zn173 Zn 0.38834 0.45293 0.92699 0.0
C174 C 0.42321 0.35297 0.09906 0.0
O175 O 0.42858 0.33689 0.05421 0.0
O176 O 0.42037 0.67987 0.04659 0.0
O177 O 0.43259 0.68517 0.96659 0.0
O178 O 0.54123 0.33087 0.06032 0.0
O179 O 0.54462 0.32388 0.97926 0.0
O180 O 0.65845 0.55368 0.05805 0.0
O181 O 0.66524 0.55672 0.97701 0.0
C182 C 0.39314 0.55592 0.87708 0.0
O183 O 0.3183 0.44174 0.02863 0.0
O184 O 0.31732 0.44344 0.94714 0.0
O185 O 0.56124 0.4406 0.12775 0.0
C186 C 0.4248 0.70511 1.00793 0.0
O187 O 0.35159 0.58437 0.08544 0.0
C188 C 0.6117 0.44985 0.90921 0.0
O189 O 0.56106 0.6054 0.12168 0.0
C190 C 0.54557 0.305 0.02187 0.0
O191 O 0.40878 0.39645 0.10562 0.0
C192 C 0.54371 0.61869 0.89073 0.0
O193 O 0.40678 0.59925 0.88448 0.0
O194 O 0.40155 0.52405 0.90989 0.0
C195 C 0.68422 0.55519 0.01962 0.0
O196 O 0.5969 0.40625 0.90926 0.0
O197 O 0.58582 0.48197 0.93014 0.0
C198 C 0.44896 0.38453 0.87702 0.0
O199 O 0.58553 0.59963 0.893 0.0
O200 O 0.51459 0.60747 0.92432 0.0
C201 C 0.2954 0.441 0.98819 0.0
O202 O 0.40742 0.40424 0.87365 0.0
O203 O 0.47565 0.39745 0.91239 0.0
C204 C 0.54724 0.43289 0.17115 0.0
O205 O 0.5126 0.40157 0.17865 0.0
C206 C 0.34581 0.54318 0.10521 0.0
O207 O 0.38274 0.5132 0.10894 0.0
H208 H 0.9188 0.11415 0.23891 0.0
H209 H -0.01764 0.39409 0.27211 0.0
H210 H -0.00579 0.19696 0.1305 0.0
H211 H 0.914 0.30709 0.38259 0.0
H212 H -0.00367 0.3206 0.22374 0.0
H213 H 0.92644 0.18179 0.29593 0.0
C214 C 0.93792 0.14631 0.22741 0.0
C215 C 0.95613 0.14989 0.17984 0.0
C216 C 0.97871 0.31751 0.25878 0.0
C217 C 0.96404 0.22822 0.24471 0.0
C218 C 0.97064 0.35951 0.28645 0.0
C219 C 0.94621 0.35695 0.33119 0.0
C220 C 0.96208 0.27257 0.27584 0.0
C221 C 0.93243 0.311 0.34809 0.0
C222 C 0.94216 0.18503 0.25998 0.0
C223 C -0.01954 0.19238 0.16695 0.0
N224 N 0.94008 0.27081 0.3202 0.0
N225 N -0.0169 0.23022 0.19892 0.0
H226 H 0.82494 0.0347 0.16537 0.0
H227 H 0.69007 0.9542 0.40974 0.0
H228 H 0.83018 0.88898 0.22302 0.0
H229 H 0.6579 0.08835 0.33436 0.0
H230 H 0.74599 0.93202 0.34461 0.0
H231 H 0.76834 0.05752 0.22985 0.0
C232 C 0.81418 0.00746 0.19134 0.0
C233 C 0.83214 0.95973 0.18824 0.0
C234 C 0.72661 0.96626 0.34222 0.0
C235 C 0.76771 0.98575 0.26282 0.0
C236 C 0.69463 0.97899 0.37948 0.0
C237 C 0.66904 0.02319 0.37757 0.0
C238 C 0.73357 -0.00188 0.30284 0.0
C239 C 0.67668 0.05384 0.33735 0.0
C240 C 0.7818 0.02052 0.22826 0.0
C241 C 0.81712 0.92615 0.22359 0.0
N242 N 0.70836 0.04083 0.30172 0.0
N243 N 0.78597 0.9398 0.25934 0.0
H244 H 0.94658 0.88184 0.19758 0.0
H245 H 0.02952 0.63612 0.3335 0.0
H246 H 0.07716 0.80495 0.16112 0.0
H247 H 0.8988 0.71626 0.36489 0.0
H248 H 0.04952 0.69723 0.27139 0.0
H249 H 0.92896 0.82044 0.25912 0.0
C250 C 0.97063 0.85107 0.20151 0.0
C251 C 0.0121 0.84731 0.17292 0.0
C252 C 0.01658 0.7014 0.2921 0.0
C253 C -0.00599 0.77786 0.24519 0.0
C254 C 0.00527 0.66662 0.32765 0.0
C255 C 0.96231 0.67085 0.35433 0.0
C256 C -0.01526 0.74062 0.2834 0.0
C257 C 0.93218 0.71117 0.34512 0.0
C258 C 0.96126 0.81646 0.23738 0.0
C259 C 0.04431 0.80866 0.18206 0.0
N260 N 0.94388 0.74419 0.31051 0.0
N261 N 0.03453 0.77526 0.21727 0.0
H262 H 0.2955 0.04958 0.37958 0.0
H263 H 0.13777 0.95896 0.15098 0.0
H264 H 0.29325 0.90032 0.3314 0.0
H265 H 0.14119 0.10707 0.20208 0.0
H266 H 0.19622 0.93655 0.21453 0.0
H267 H 0.24088 0.07117 0.31273 0.0
C268 C 0.28364 0.02129 0.3549 0.0
C269 C 0.29901 0.97297 0.36137 0.0
C270 C 0.18419 0.97397 0.21174 0.0
C271 C 0.23596 -0.00245 0.28438 0.0
C272 C 0.15069 0.98679 0.17532 0.0
C273 C 0.13413 0.03495 0.17092 0.0
C274 C 0.20132 0.00959 0.24417 0.0
C275 C 0.15264 0.06943 0.20383 0.0
C276 C 0.25234 0.03367 0.31663 0.0
C277 C 0.28236 0.93802 0.32796 0.0
N278 N 0.18498 0.05608 0.23891 0.0
N279 N 0.25168 0.95095 0.29107 0.0
H280 H 0.96461 0.77197 0.8989 0.0
H281 H 0.07728 0.69241 0.64385 0.0
H282 H 0.06414 0.85904 0.81661 0.0
H283 H 0.95849 0.61629 0.70859 0.0
H284 H 0.06908 0.75576 0.70535 0.0
H285 H 0.95799 0.71649 0.82909 0.0
C286 C -0.01527 0.77971 0.86607 0.0
C287 C 0.01539 0.82005 0.86392 0.0
C288 C 0.04427 0.72562 0.70597 0.0
C289 C 0.00808 0.75657 0.78395 0.0
C290 C 0.04894 0.68937 0.67076 0.0
C291 C 0.01853 0.64894 0.67114 0.0
C292 C 0.00945 0.72123 0.74272 0.0
C293 C -0.01762 0.64701 0.70678 0.0
C294 C -0.01915 0.74803 0.82619 0.0
C295 C 0.04034 0.82831 0.82026 0.0
N296 N -0.02074 0.68231 0.74167 0.0
N297 N 0.03647 0.79669 0.78236 0.0
H298 H 0.14193 0.11271 0.82609 0.0
H299 H 0.3191 0.90907 0.718 0.0
H300 H 0.16556 0.97148 0.89063 0.0
H301 H 0.31348 0.05508 0.66092 0.0
H302 H 0.26156 0.93219 0.78031 0.0
H303 H 0.20222 0.09288 0.76372 0.0
C304 C 0.15968 0.07753 0.82715 0.0
C305 C 0.1487 0.04371 0.86381 0.0
C306 C 0.27282 0.95938 0.75428 0.0
C307 C 0.21769 0.02093 0.79263 0.0
C308 C 0.30587 0.9462 0.71848 0.0
C309 C 0.32101 0.98007 0.68352 0.0
C310 C 0.2542 0.00689 0.75546 0.0
C311 C 0.30254 0.02764 0.68659 0.0
C312 C 0.19422 0.06634 0.79163 0.0
C313 C 0.1729 -0.00123 0.86335 0.0
N314 N 0.26985 0.03962 0.72177 0.0
N315 N 0.20609 0.98874 0.82839 0.0
H316 H 0.06475 0.28411 0.67156 0.0
H317 H 0.92298 0.20859 0.91338 0.0
H318 H -0.01181 0.38609 0.76334 0.0
H319 H 0.0065 0.10748 0.827 0.0
H320 H 0.94771 0.2742 0.85946 0.0
H321 H 0.04399 0.21893 0.72797 0.0
C322 C 0.04349 0.29281 0.70352 0.0
C323 C 0.02819 0.34068 0.71273 0.0
C324 C 0.96071 0.2377 0.85229 0.0
C325 C 0.00442 0.26618 0.77755 0.0
C326 C 0.94657 0.20016 0.88307 0.0
C327 C 0.9623 0.15234 0.87441 0.0
C328 C -0.00938 0.22742 0.8123 0.0
C329 C -0.00673 0.14374 0.83489 0.0
C330 C 0.03178 0.25557 0.73581 0.0
C331 C 0.00082 0.34977 0.75479 0.0
N332 N 0.00618 0.18088 0.80512 0.0
N333 N -0.01021 0.31286 0.78558 0.0
H334 H 0.63972 0.93793 0.65185 0.0
H335 H 0.76561 0.01403 0.90526 0.0
H336 H 0.61881 0.07508 0.72547 0.0
H337 H 0.79976 0.87939 0.83195 0.0
H338 H 0.70858 0.03393 0.84043 0.0
H339 H 0.69499 0.91254 0.71802 0.0
C340 C 0.64641 0.96253 0.68191 0.0
C341 C 0.6246 0.00881 0.68285 0.0
C342 C 0.72842 -5e-05 0.8383 0.0
C343 C 0.68772 0.98012 0.7585 0.0
C344 C 0.76112 0.98852 0.87552 0.0
C345 C 0.78773 0.94497 0.87422 0.0
C346 C 0.72188 0.96768 0.79905 0.0
C347 C 0.78013 0.91345 0.83447 0.0
C348 C 0.67809 0.9481 0.71958 0.0
C349 C 0.63484 0.03919 0.72277 0.0
N350 N 0.74795 0.92541 0.79845 0.0
N351 N 0.66548 0.02437 0.75866 0.0
H352 H 0.23594 0.44335 0.06748 0.0
H353 H 0.05086 0.26791 0.93604 0.0
H354 H 0.23616 0.41077 0.91334 0.0
H355 H 0.0809 0.2679 0.09093 0.0
H356 H 0.09691 0.34246 0.92783 0.0
H357 H 0.15876 0.40248 0.07519 0.0
C358 C 0.21928 0.42859 0.03497 0.0
C359 C 0.24339 0.42921 0.98993 0.0
C360 C 0.0925 0.32673 0.96376 0.0
C361 C 0.1549 0.38226 0.99866 0.0
C362 C 0.06613 0.28414 0.96861 0.0
C363 C 0.06332 0.26063 0.01409 0.0
C364 C 0.11612 0.34608 1.00465 0.0
C365 C 0.08292 0.28414 0.05501 0.0
C366 C 0.17517 0.4052 0.03949 0.0
C367 C 0.21938 0.41044 0.94894 0.0
N368 N 0.10937 0.32507 0.04915 0.0
N369 N 0.17687 0.38682 0.95447 0.0
H370 H 0.41232 0.76853 0.93151 0.0
H371 H 0.23517 0.92027 0.09617 0.0
H372 H 0.40708 0.76086 0.08889 0.0
H373 H 0.23183 0.91721 0.9385 0.0
H374 H 0.31599 0.88454 0.09444 0.0
H375 H 0.36673 0.8446 0.93454 0.0
C376 C 0.40276 0.78343 0.96682 0.0
C377 C 0.4118 0.75726 1.00992 0.0
C378 C 0.29798 0.89264 0.06019 0.0
C379 C 0.35906 0.84387 0.01351 0.0
C380 C 0.25175 0.91302 0.06114 0.0
C381 C 0.22597 0.92003 0.01744 0.0
C382 C 0.31827 0.87889 0.01528 0.0
C383 C 0.24975 0.91099 0.97317 0.0
C384 C 0.37655 0.82688 0.9685 0.0
C385 C 0.39946 0.77898 0.0546 0.0
N386 N 0.29415 0.88989 0.97325 0.0
N387 N 0.37262 0.82042 0.05518 0.0
H388 H 0.55407 0.23721 0.94915 0.0
H389 H 0.73234 0.08451 0.11465 0.0
H390 H 0.56818 0.25432 0.10531 0.0
H391 H 0.72897 0.08161 0.95699 0.0
H392 H 0.654 0.12571 0.11421 0.0
H393 H 0.59756 0.16016 0.95474 0.0
C394 C 0.56544 0.22434 0.9848 0.0
C395 C 0.55918 0.2532 0.02659 0.0
C396 C 0.66994 0.11508 0.07976 0.0
C397 C 0.60952 0.1653 0.03308 0.0
C398 C 0.71471 0.09152 0.07994 0.0
C399 C 0.73801 0.08106 0.0357 0.0
C400 C 0.64855 0.12831 0.03506 0.0
C401 C 0.71298 0.09017 0.99196 0.0
C402 C 0.59031 0.18027 0.98794 0.0
C403 C 0.57347 0.23394 0.07192 0.0
N404 N 0.67005 0.11413 0.99273 0.0
N405 N 0.59911 0.19172 0.07382 0.0
H406 H 0.90054 0.73014 0.11394 0.0
H407 H 0.75241 0.55743 0.94744 0.0
H408 H 0.91244 0.72105 0.9571 0.0
H409 H 0.73621 0.56972 0.10368 0.0
H410 H 0.8323 0.59291 0.95443 0.0
H411 H 0.86451 0.64962 0.11456 0.0
C412 C 0.89691 0.71068 0.07975 0.0
C413 C 0.90741 0.73322 0.03516 0.0
C414 C 0.81178 0.58682 0.98738 0.0
C415 C 0.86561 0.64158 0.03556 0.0
C416 C 0.76603 0.56658 0.98337 0.0
C417 C 0.73671 0.56265 0.02477 0.0
C418 C 0.82779 0.60401 0.03294 0.0
C419 C 0.7569 0.57365 0.07052 0.0
C420 C 0.87621 0.66466 0.0801 0.0
C421 C 0.90307 0.7058 0.99217 0.0
N422 N 0.80069 0.59515 0.07324 0.0
N423 N 0.88127 0.66193 0.99329 0.0
H424 H 0.64343 0.5373 0.87577 0.0
H425 H 0.88615 0.42962 0.76596 0.0
H426 H 0.68855 0.38853 0.89407 0.0
H427 H 0.84089 0.57937 0.75078 0.0
H428 H 0.82206 0.41736 0.82522 0.0
H429 H 0.72132 0.55618 0.84063 0.0
C430 C 0.66999 0.50883 0.87324 0.0
C431 C 0.65938 0.46162 0.8884 0.0
C432 C 0.82666 0.45312 0.80959 0.0
C433 C 0.74897 0.48229 0.84687 0.0
C434 C 0.8635 0.46029 0.7759 0.0
C435 C 0.86823 0.50535 0.75234 0.0
C436 C 0.79419 0.49118 0.81965 0.0
C437 C 0.83821 0.54381 0.76734 0.0
C438 C 0.71457 0.51947 0.85282 0.0
C439 C 0.69502 0.42554 0.88268 0.0
N440 N 0.80188 0.5356 0.79932 0.0
N441 N 0.73813 0.43656 0.86212 0.0
H442 H 0.23911 0.41919 0.64565 0.0
H443 H 0.3358 0.61622 0.82392 0.0
H444 H 0.23167 0.57258 0.61315 0.0
H445 H 0.39875 0.47302 0.82258 0.0
H446 H 0.29828 0.59978 0.745 0.0
H447 H 0.30177 0.43548 0.70625 0.0
C448 C 0.25162 0.4561 0.65007 0.0
C449 C 0.22882 0.49483 0.6255 0.0
C450 C 0.32016 0.57169 0.76202 0.0
C451 C 0.2995 0.5136 0.69534 0.0
C452 C 0.3411 0.58087 0.80729 0.0
C453 C 0.36832 0.54469 0.83093 0.0
C454 C 0.32627 0.52587 0.7403 0.0
C455 C 0.37513 0.50014 0.80725 0.0
C456 C 0.28725 0.46536 0.68489 0.0
C457 C 0.24719 0.54174 0.63218 0.0
N458 N 0.35371 0.49157 0.7634 0.0
N459 N 0.28051 0.55001 0.66751 0.0
H460 H 0.07916 0.5741 0.25375 0.0
H461 H 0.3198 0.45896 0.15137 0.0
H462 H 0.11647 0.4226 0.2723 0.0
H463 H 0.2633 0.59803 0.10441 0.0
H464 H 0.24243 0.44198 0.1901 0.0
H465 H 0.14156 0.58064 0.19175 0.0
C466 C 0.09981 0.54194 0.24406 0.0
C467 C 0.0932 0.49798 0.26891 0.0
C468 C 0.24682 0.47597 0.17082 0.0
C469 C 0.16545 0.50547 0.19875 0.0
C470 C 0.29107 0.48578 0.14895 0.0
C471 C 0.29831 0.53035 0.12542 0.0
C472 C 0.20981 0.51117 0.16949 0.0
C473 C 0.2596 0.56347 0.12277 0.0
C474 C 0.13555 0.5457 0.20869 0.0
C475 C 0.12066 0.45737 0.25446 0.0
N476 N 0.21726 0.55346 0.14507 0.0
N477 N 0.15633 0.46235 0.22105 0.0
H478 H 0.53984 0.41056 0.26817 0.0
H479 H 0.75249 0.58818 0.34934 0.0
H480 H 0.61172 0.50791 0.16933 0.0
H481 H 0.71879 0.45421 0.42252 0.0
H482 H 0.68324 0.57568 0.29461 0.0
H483 H 0.58839 0.44278 0.33542 0.0
C484 C 0.56534 0.43915 0.26067 0.0
C485 C 0.57233 0.45595 0.21289 0.0
C486 C 0.69045 0.54969 0.32347 0.0
C487 C 0.62755 0.49324 0.28978 0.0
C488 C 0.72958 0.55704 0.355 0.0
C489 C 0.74157 0.5219 0.39022 0.0
C490 C 0.66293 0.50731 0.32784 0.0
C491 C 0.71105 0.48191 0.3956 0.0
C492 C 0.59301 0.45749 0.29909 0.0
C493 C 0.60568 0.49334 0.20547 0.0
N494 N 0.6734 0.47546 0.36447 0.0
N495 N 0.63232 0.51051 0.24347 0.0
H496 H 0.37039 0.73028 0.4617 0.0
H497 H 0.12333 0.63663 0.56285 0.0
H498 H 0.31952 0.76348 0.60665 0.0
H499 H 0.18763 0.58369 0.4302 0.0
H500 H 0.20006 0.67353 0.58572 0.0
H501 H 0.31157 0.66523 0.45604 0.0
C502 C 0.34764 0.72298 0.49286 0.0
C503 C 0.34907 0.75289 0.53428 0.0
C504 C 0.19779 0.65295 0.5521 0.0
C505 C 0.28067 0.67955 0.52756 0.0
C506 C 0.15406 0.63151 0.53941 0.0
C507 C 0.14946 0.60666 0.49511 0.0
C508 C 0.23692 0.64996 0.51976 0.0
C509 C 0.18977 0.60288 0.46466 0.0
C510 C 0.31387 0.68595 0.48957 0.0
C511 C 0.31925 0.74153 0.57384 0.0
N512 N 0.23172 0.62465 0.47735 0.0
N513 N 0.28533 0.7065 0.56903 0.0
H514 H 0.05072 0.27873 0.42781 0.0
H515 H 0.24073 0.15424 0.60948 0.0
H516 H 0.10801 0.34763 0.55695 0.0
H517 H 0.21051 0.10399 0.46334 0.0
H518 H 0.17367 0.2124 0.60213 0.0
H519 H 0.09145 0.2032 0.45159 0.0
C520 C 0.07124 0.27783 0.46156 0.0
C521 C 0.07643 0.3198 0.49017 0.0
C522 C 0.1811 0.18786 0.57212 0.0
C523 C 0.12305 0.23341 0.51758 0.0
C524 C 0.21908 0.15435 0.57645 0.0
C525 C 0.23173 0.12491 0.53659 0.0
C526 C 0.15558 0.19155 0.52778 0.0
C527 C 0.20247 0.12665 0.49464 0.0
C528 C 0.09442 0.23466 0.47514 0.0
C529 C 0.10305 0.31626 0.53378 0.0
N530 N 0.16623 0.15994 0.49106 0.0
N531 N 0.12584 0.274 0.54588 0.0
H532 H 0.82463 0.65025 0.46541 0.0
H533 H 0.72602 0.89234 0.57931 0.0
H534 H 0.89058 0.72005 0.5897 0.0
H535 H 0.68941 0.84762 0.43267 0.0
H536 H 0.79346 0.83495 0.57883 0.0
H537 H 0.78146 0.7261 0.44696 0.0
C538 C 0.83091 0.68174 0.48809 0.0
C539 C 0.86063 0.6786 0.52951 0.0
C540 C 0.77126 0.83832 0.54635 0.0
C541 C 0.81089 0.765 0.50937 0.0
C542 C 0.73273 0.87118 0.54664 0.0
C543 C 0.70138 0.87405 0.50643 0.0
C544 C 0.77787 0.80744 0.50597 0.0
C545 C 0.71222 0.84611 0.46483 0.0
C546 C 0.80617 0.72504 0.47769 0.0
C547 C 0.86719 0.72052 0.55793 0.0
N548 N 0.7489 0.8131 0.4661 0.0
N549 N 0.84195 0.76168 0.5478 0.0
H550 H 0.5917 0.24093 0.61826 0.0
H551 H 0.77167 0.41987 0.48298 0.0
H552 H 0.60084 0.25356 0.46133 0.0
H553 H 0.78676 0.37138 0.63197 0.0
H554 H 0.69455 0.377 0.47732 0.0
H555 H 0.64619 0.30954 0.62638 0.0
C556 C 0.60418 0.2588 0.58549 0.0
C557 C 0.59309 0.24042 0.53902 0.0
C558 C 0.71459 0.37628 0.51135 0.0
C559 C 0.65565 0.3184 0.54817 0.0
C560 C 0.75846 0.40055 0.51449 0.0
C561 C 0.78568 0.39849 0.55764 0.0
C562 C 0.69789 0.35033 0.55194 0.0
C563 C 0.76726 0.37305 0.59765 0.0
C564 C 0.63552 0.29778 0.59019 0.0
C565 C 0.60957 0.2657 0.4979 0.0
N566 N 0.72456 0.34979 0.59376 0.0
N567 N 0.64089 0.30288 0.50342 0.0
H568 H 0.49566 0.29819 0.89541 0.0
H569 H 0.48231 0.20476 0.61923 0.0
H570 H 0.43373 0.38386 0.77894 0.0
H571 H 0.44693 0.1117 0.73996 0.0
H572 H 0.49584 0.27181 0.67701 0.0
H573 H 0.50792 0.23071 0.83739 0.0
C574 C 0.48584 0.30318 0.85743 0.0
C575 C 0.46359 0.34647 0.84182 0.0
C576 C 0.4864 0.2363 0.69084 0.0
C577 C 0.47817 0.27028 0.77558 0.0
C578 C 0.47928 0.198 0.65803 0.0
C579 C 0.46412 0.15266 0.67509 0.0
C580 C 0.479 0.22884 0.74098 0.0
C581 C 0.45902 0.14612 0.72559 0.0
C582 C 0.49255 0.2647 0.82454 0.0
C583 C 0.45082 0.35093 0.79238 0.0
N584 N 0.46637 0.18384 0.75686 0.0
N585 N 0.45836 0.31336 0.76097 0.0
H586 H 0.55546 0.78344 0.62492 0.0
H587 H 0.46468 0.68027 0.88129 0.0
H588 H 0.44518 0.85633 0.70833 0.0
H589 H 0.59182 0.63129 0.80521 0.0
H590 H 0.44667 0.73623 0.8138 0.0
H591 H 0.5567 0.71757 0.68414 0.0
C592 C 0.53061 0.7849 0.65533 0.0
C593 C 0.50016 0.82525 0.6618 0.0
C594 C 0.47828 0.71294 0.81183 0.0
C595 C 0.50253 0.7505 0.73113 0.0
C596 C 0.48858 0.68089 0.8504 0.0
C597 C 0.53003 0.65113 0.84935 0.0
C598 C 0.50943 0.71483 0.7716 0.0
C599 C 0.55967 0.6537 0.80806 0.0
C600 C 0.53164 0.74747 0.68944 0.0
C601 C 0.46889 0.82556 0.70193 0.0
N602 N 0.54884 0.6849 0.77111 0.0
N603 N 0.47134 0.78898 0.73564 0.0
H604 H 0.48506 0.58134 0.24209 0.0
H605 H 0.51136 0.86039 0.31924 0.0
H606 H 0.54531 0.69272 0.15048 0.0
H607 H 0.47965 0.74638 0.42211 0.0
H608 H 0.50777 0.80122 0.2531 0.0
H609 H 0.46844 0.64304 0.30465 0.0
C610 C 0.49436 0.6188 0.23496 0.0
C611 C 0.51705 0.63187 0.19125 0.0
C612 C 0.50114 0.78919 0.29009 0.0
C613 C 0.49792 0.70243 0.2623 0.0
C614 C 0.50296 0.82303 0.32791 0.0
C615 C 0.49664 0.80819 0.37646 0.0
C616 C 0.49293 0.74008 0.30075 0.0
C617 C 0.4854 0.75933 0.3853 0.0
C618 C 0.48495 0.65392 0.27067 0.0
C619 C 0.52832 0.6809 0.18388 0.0
N620 N 0.48445 0.72686 0.34785 0.0
N621 N 0.51879 0.7143 0.21907 0.0
H622 H 0.40251 0.21596 0.38249 0.0
H623 H 0.45519 0.25843 0.09825 0.0
H624 H 0.4328 0.09984 0.2809 0.0
H625 H 0.40492 0.371 0.19579 0.0
H626 H 0.45774 0.20168 0.16691 0.0
H627 H 0.41363 0.27472 0.31676 0.0
C628 C 0.4119 0.20277 0.34647 0.0
C629 C 0.41636 0.15275 0.3372 0.0
C630 C 0.44638 0.23886 0.17334 0.0
C631 C 0.42908 0.22005 0.26159 0.0
C632 C 0.44495 0.27134 0.13414 0.0
C633 C 0.42929 0.31948 0.1411 0.0
C634 C 0.43208 0.25456 0.21995 0.0
C635 C 0.41693 0.33418 0.18858 0.0
C636 C 0.41814 0.23641 0.3089 0.0
C637 C 0.42869 0.13797 0.28973 0.0
N638 N 0.41832 0.30181 0.22607 0.0
N639 N 0.43439 0.17142 0.25371 0.0
loop_
_geom_bond_atom_site_label_1
_geom_bond_atom_site_label_2
_geom_bond_distance
_geom_bond_site_symmetry_2
_ccdc_geom_bond_type
Zn0 O2 1.933 1_556 S
Zn0 O20 1.985 . S
Zn0 O31 1.955 . S
Zn1 O2 1.911 . S
Zn1 O21 1.970 . S
Zn1 O37 1.945 . S
Zn1 O44 1.981 . S
O2 Zn0 1.933 1_554 S
O2 Zn1 1.911 . S
O2 H3 0.841 . S
H3 O2 0.841 . S
C4 O5 1.246 . S
C4 O33 1.276 1_655 S
O5 C4 1.246 . S
Zn6 O8 1.911 . S
Zn6 O23 1.970 . S
Zn6 O40 1.945 . S
Zn6 O47 1.981 . S
Zn7 O8 1.933 1_556 S
Zn7 O22 1.985 . S
Zn7 O29 1.955 . S
O8 Zn6 1.911 . S
O8 Zn7 1.933 1_554 S
O8 H9 0.841 . S
H9 O8 0.841 . S
Zn10 O11 1.933 1_556 S
Zn10 O24 1.985 . S
Zn10 O33 1.955 . S
O11 Zn10 1.933 1_554 S
O11 Zn12 1.911 . S
O11 H13 0.841 . S
Zn12 O11 1.911 . S
Zn12 O25 1.970 . S
Zn12 O41 1.981 . S
Zn12 O43 1.945 . S
H13 O11 0.841 . S
Zn14 O15 1.933 1_556 S
Zn14 O27 1.985 . S
Zn14 O35 1.955 . S
O15 Zn14 1.933 1_554 S
O15 H16 0.841 . S
O15 Zn17 1.911 . S
H16 O15 0.841 . S
Zn17 O15 1.911 . S
Zn17 O28 1.970 . S
Zn17 O38 1.981 . S
Zn17 O46 1.945 . S
C18 O19 1.246 . S
C18 O35 1.276 1_455 S
O19 C18 1.246 . S
O20 Zn0 1.985 . S
O20 C30 1.245 1_556 S
O21 Zn1 1.970 . S
O21 C30 1.263 . S
O22 Zn7 1.985 . S
O22 C34 1.245 1_556 S
O23 Zn6 1.970 . S
O23 C34 1.263 . S
O24 Zn10 1.985 . S
O24 C39 1.245 1_556 S
O25 Zn12 1.970 . S
O25 C39 1.263 . S
C26 O37 1.262 1_545 S
C26 O38 1.245 . S
O27 Zn14 1.985 . S
O27 C45 1.245 1_556 S
O28 Zn17 1.970 . S
O28 C45 1.263 . S
O29 Zn7 1.955 . S
O29 C48 1.280 . S
C30 O20 1.245 1_554 S
C30 O21 1.263 . S
O31 Zn0 1.955 . S
O31 C50 1.276 1_565 S
C32 O40 1.262 . S
C32 O41 1.245 1_545 S
O33 C4 1.276 1_455 S
O33 Zn10 1.955 . S
C34 O22 1.245 1_554 S
C34 O23 1.263 . S
O35 Zn14 1.955 . S
O35 C18 1.276 1_655 S
C36 O43 1.267 . S
C36 O44 1.242 1_455 S
O37 Zn1 1.945 . S
O37 C26 1.262 1_565 S
O38 Zn17 1.981 . S
O38 C26 1.245 . S
C39 O24 1.245 1_554 S
C39 O25 1.263 . S
O40 Zn6 1.945 . S
O40 C32 1.262 . S
O41 Zn12 1.981 . S
O41 C32 1.245 1_565 S
C42 O46 1.262 1_455 S
C42 O47 1.245 . S
O43 Zn12 1.945 . S
O43 C36 1.267 . S
O44 Zn1 1.981 . S
O44 C36 1.242 1_655 S
C45 O27 1.245 1_554 S
C45 O28 1.263 . S
O46 Zn17 1.945 . S
O46 C42 1.262 1_655 S
O47 Zn6 1.981 . S
O47 C42 1.245 . S
C48 O29 1.280 . S
C48 O49 1.243 1_545 S
O49 C48 1.243 1_565 S
C50 O31 1.276 1_545 S
C50 O51 1.246 . S
O51 C50 1.246 . S
Zn52 O54 1.933 . S
Zn52 O72 1.985 . S
Zn52 O83 1.955 . S
Zn53 O54 1.911 . S
Zn53 O73 1.970 . S
Zn53 O89 1.945 . S
Zn53 O96 1.981 . S
O54 Zn52 1.933 . S
O54 Zn53 1.911 . S
O54 H55 0.841 . S
H55 O54 0.841 . S
C56 O57 1.246 . S
C56 O85 1.276 . S
O57 C56 1.246 . S
Zn58 O60 1.911 . S
Zn58 O75 1.970 . S
Zn58 O92 1.945 . S
Zn58 O99 1.981 . S
Zn59 O60 1.933 . S
Zn59 O74 1.985 . S
Zn59 O81 1.955 . S
O60 Zn58 1.911 . S
O60 Zn59 1.933 . S
O60 H61 0.841 . S
H61 O60 0.841 . S
Zn62 O63 1.933 . S
Zn62 O76 1.985 . S
Zn62 O85 1.955 . S
O63 Zn62 1.933 . S
O63 Zn64 1.911 . S
O63 H65 0.841 . S
Zn64 O63 1.911 . S
Zn64 O77 1.970 . S
Zn64 O93 1.981 . S
Zn64 O95 1.945 . S
H65 O63 0.841 . S
Zn66 O67 1.933 . S
Zn66 O79 1.985 . S
Zn66 O87 1.955 . S
O67 Zn66 1.933 . S
O67 H68 0.841 . S
O67 Zn69 1.911 . S
H68 O67 0.841 . S
Zn69 O67 1.911 . S
Zn69 O80 1.970 . S
Zn69 O90 1.981 . S
Zn69 O98 1.945 . S
C70 O71 1.246 . S
C70 O87 1.276 . S
O71 C70 1.246 . S
O72 Zn52 1.985 . S
O72 C82 1.245 . S
O73 Zn53 1.970 . S
O73 C82 1.263 . S
O74 Zn59 1.985 . S
O74 C86 1.245 . S
O75 Zn58 1.970 . S
O75 C86 1.263 . S
O76 Zn62 1.985 . S
O76 C91 1.245 . S
O77 Zn64 1.970 . S
O77 C91 1.263 . S
C78 O89 1.262 . S
C78 O90 1.245 1_655 S
O79 Zn66 1.985 . S
O79 C97 1.245 . S
O80 Zn69 1.970 . S
O80 C97 1.263 . S
O81 Zn59 1.955 . S
O81 C100 1.276 1_455 S
C82 O72 1.245 . S
C82 O73 1.263 . S
O83 Zn52 1.955 . S
O83 C102 1.276 1_655 S
C84 O92 1.268 . S
C84 O93 1.242 1_455 S
O85 C56 1.276 . S
O85 Zn62 1.955 . S
C86 O74 1.245 . S
C86 O75 1.263 . S
O87 Zn66 1.955 . S
O87 C70 1.276 . S
C88 O95 1.262 . S
C88 O96 1.245 . S
O89 Zn53 1.945 . S
O89 C78 1.262 . S
O90 Zn69 1.981 . S
O90 C78 1.245 1_455 S
C91 O76 1.245 . S
C91 O77 1.263 . S
O92 Zn58 1.945 . S
O92 C84 1.268 . S
O93 Zn64 1.981 . S
O93 C84 1.242 1_655 S
C94 O98 1.262 . S
C94 O99 1.245 . S
O95 Zn64 1.945 . S
O95 C88 1.262 . S
O96 Zn53 1.981 . S
O96 C88 1.245 . S
C97 O79 1.245 . S
C97 O80 1.263 . S
O98 Zn69 1.945 . S
O98 C94 1.262 . S
O99 Zn58 1.981 . S
O99 C94 1.245 . S
C100 O81 1.276 1_655 S
C100 O101 1.246 . S
O101 C100 1.246 . S
C102 O83 1.276 1_455 S
C102 O103 1.246 . S
O103 C102 1.246 . S
Zn104 O106 1.933 . S
Zn104 O124 1.985 . S
Zn104 O135 1.955 . S
Zn105 O106 1.911 . S
Zn105 O125 1.970 . S
Zn105 O141 1.945 . S
Zn105 O148 1.981 . S
O106 Zn104 1.933 . S
O106 Zn105 1.911 . S
O106 H107 0.841 . S
H107 O106 0.841 . S
C108 O109 1.246 . S
C108 O137 1.276 . S
O109 C108 1.246 . S
Zn110 O112 1.911 . S
Zn110 O127 1.970 . S
Zn110 O144 1.945 . S
Zn110 O151 1.981 . S
Zn111 O112 1.933 . S
Zn111 O126 1.985 . S
Zn111 O133 1.955 . S
O112 Zn110 1.911 . S
O112 Zn111 1.933 . S
O112 H113 0.841 . S
H113 O112 0.841 . S
Zn114 O115 1.933 . S
Zn114 O128 1.985 . S
Zn114 O137 1.955 . S
O115 Zn114 1.933 . S
O115 Zn116 1.911 . S
O115 H117 0.841 . S
Zn116 O115 1.911 . S
Zn116 O129 1.970 . S
Zn116 O145 1.981 . S
Zn116 O147 1.945 . S
H117 O115 0.841 . S
Zn118 O119 1.933 . S
Zn118 O131 1.985 . S
Zn118 O139 1.955 . S
O119 Zn118 1.933 . S
O119 H120 0.841 . S
O119 Zn121 1.911 . S
H120 O119 0.841 . S
Zn121 O119 1.911 . S
Zn121 O132 1.970 . S
Zn121 O142 1.981 . S
Zn121 O150 1.945 . S
C122 O123 1.246 . S
C122 O139 1.276 . S
O123 C122 1.246 . S
O124 Zn104 1.985 . S
O124 C134 1.245 . S
O125 Zn105 1.970 . S
O125 C134 1.263 . S
O126 Zn111 1.985 . S
O126 C138 1.245 . S
O127 Zn110 1.970 . S
O127 C138 1.263 . S
O128 Zn114 1.985 . S
O128 C143 1.245 . S
O129 Zn116 1.970 . S
O129 C143 1.263 . S
C130 O141 1.262 1_545 S
C130 O142 1.245 . S
O131 Zn118 1.985 . S
O131 C149 1.245 . S
O132 Zn121 1.970 . S
O132 C149 1.263 . S
O133 Zn111 1.955 . S
O133 C152 1.279 . S
C134 O124 1.245 . S
C134 O125 1.263 . S
O135 Zn104 1.955 . S
O135 C154 1.276 1_565 S
C136 O144 1.262 . S
C136 O145 1.245 1_545 S
O137 C108 1.276 . S
O137 Zn114 1.955 . S
C138 O126 1.245 . S
C138 O127 1.263 . S
O139 Zn118 1.955 . S
O139 C122 1.276 . S
C140 O147 1.262 . S
C140 O148 1.245 . S
O141 Zn105 1.945 . S
O141 C130 1.262 1_565 S
O142 Zn121 1.981 . S
O142 C130 1.245 . S
C143 O128 1.245 . S
C143 O129 1.263 . S
O144 Zn110 1.945 . S
O144 C136 1.262 . S
O145 Zn116 1.981 . S
O145 C136 1.245 1_565 S
C146 O150 1.262 . S
C146 O151 1.245 . S
O147 Zn116 1.945 . S
O147 C140 1.262 . S
O148 Zn105 1.981 . S
O148 C140 1.245 . S
C149 O131 1.245 . S
C149 O132 1.263 . S
O150 Zn121 1.945 . S
O150 C146 1.262 . S
O151 Zn110 1.981 . S
O151 C146 1.245 . S
C152 O133 1.279 . S
C152 O153 1.244 1_545 S
O153 C152 1.244 1_565 S
C154 O135 1.276 1_545 S
C154 O155 1.246 . S
O155 C154 1.246 . S
Zn156 O158 1.933 . S
Zn156 O176 1.985 . S
Zn156 O187 1.955 . S
Zn157 O158 1.911 1_556 S
Zn157 O177 1.970 . S
Zn157 O193 1.945 . S
Zn157 O200 1.981 . S
O158 Zn156 1.933 . S
O158 Zn157 1.911 1_554 S
O158 H159 0.841 . S
H159 O158 0.841 . S
C160 O161 1.246 . S
C160 O189 1.276 . S
O161 C160 1.246 . S
Zn162 O164 1.911 1_556 S
Zn162 O179 1.970 . S
Zn162 O196 1.945 . S
Zn162 O203 1.981 . S
Zn163 O164 1.933 . S
Zn163 O178 1.985 . S
Zn163 O185 1.955 . S
O164 Zn162 1.911 1_554 S
O164 Zn163 1.933 . S
O164 H165 0.841 . S
H165 O164 0.841 . S
Zn166 O167 1.933 . S
Zn166 O180 1.985 . S
Zn166 O189 1.955 . S
O167 Zn166 1.933 . S
O167 Zn168 1.911 1_554 S
O167 H169 0.841 . S
Zn168 O167 1.911 1_556 S
Zn168 O181 1.970 . S
Zn168 O197 1.981 . S
Zn168 O199 1.945 . S
H169 O167 0.841 . S
Zn170 O171 1.933 . S
Zn170 O183 1.985 . S
Zn170 O191 1.955 . S
O171 Zn170 1.933 . S
O171 H172 0.841 . S
O171 Zn173 1.911 1_554 S
H172 O171 0.841 . S
Zn173 O171 1.911 1_556 S
Zn173 O184 1.970 . S
Zn173 O194 1.981 . S
Zn173 O202 1.945 . S
C174 O175 1.246 . S
C174 O191 1.276 . S
O175 C174 1.246 . S
O176 Zn156 1.985 . S
O176 C186 1.245 . S
O177 Zn157 1.970 . S
O177 C186 1.263 1_556 S
O178 Zn163 1.985 . S
O178 C190 1.245 . S
O179 Zn162 1.970 . S
O179 C190 1.263 1_556 S
O180 Zn166 1.985 . S
O180 C195 1.245 . S
O181 Zn168 1.970 . S
O181 C195 1.263 1_556 S
C182 O193 1.262 . S
C182 O194 1.245 . S
O183 Zn170 1.985 . S
O183 C201 1.245 . S
O184 Zn173 1.970 . S
O184 C201 1.263 1_556 S
O185 Zn163 1.955 . S
O185 C204 1.276 . S
C186 O176 1.245 . S
C186 O177 1.263 1_554 S
O187 Zn156 1.955 . S
O187 C206 1.276 . S
C188 O196 1.262 . S
C188 O197 1.245 . S
O189 C160 1.276 . S
O189 Zn166 1.955 . S
C190 O178 1.245 . S
C190 O179 1.263 1_554 S
O191 Zn170 1.955 . S
O191 C174 1.276 . S
C192 O199 1.262 . S
C192 O200 1.245 . S
O193 Zn157 1.945 . S
O193 C182 1.262 . S
O194 Zn173 1.981 . S
O194 C182 1.245 . S
C195 O180 1.245 . S
C195 O181 1.263 1_554 S
O196 Zn162 1.945 . S
O196 C188 1.262 . S
O197 Zn168 1.981 . S
O197 C188 1.245 . S
C198 O202 1.262 . S
C198 O203 1.245 . S
O199 Zn168 1.945 . S
O199 C192 1.262 . S
O200 Zn157 1.981 . S
O200 C192 1.245 . S
C201 O183 1.245 . S
C201 O184 1.263 1_554 S
O202 Zn173 1.945 . S
O202 C198 1.262 . S
O203 Zn162 1.981 . S
O203 C198 1.245 . S
C204 O185 1.276 . S
C204 O205 1.246 . S
O205 C204 1.246 . S
C206 O187 1.276 . S
C206 O207 1.246 . S
O207 C206 1.246 . S
H208 C214 0.930 . S
H209 C218 0.930 . S
H210 C223 0.929 . S
H211 C221 0.929 . S
H212 C216 0.929 . S
H213 C222 0.929 . S
C214 H208 0.930 . S
C214 C215 1.367 1_655 S
C214 C222 1.378 . S
C215 C214 1.367 1_455 S
C215 C223 1.433 . S
C216 H212 0.929 . S
C216 C218 1.378 . S
C216 C220 1.350 . S
C217 C220 1.463 . S
C217 C222 1.350 1_455 S
C217 N225 1.427 . S
C218 H209 0.930 . S
C218 C216 1.378 . S
C218 C219 1.367 . S
C219 C218 1.367 . S
C219 C221 1.433 1_455 S
C220 C216 1.350 . S
C220 C217 1.463 . S
C220 N224 1.427 1_455 S
C221 H211 0.929 . S
C221 C219 1.433 1_655 S
C221 N224 1.384 . S
C222 H213 0.929 . S
C222 C214 1.378 . S
C222 C217 1.350 1_655 S
C223 H210 0.929 . S
C223 C215 1.433 . S
C223 N225 1.384 . S
N224 C220 1.427 1_655 S
N224 C221 1.384 . S
N225 C217 1.427 . S
N225 C223 1.384 . S
H226 C232 0.930 . S
H227 C236 0.930 . S
H228 C241 0.929 . S
H229 C239 0.929 . S
H230 C234 0.929 . S
H231 C240 0.929 . S
C232 H226 0.930 . S
C232 C233 1.367 . S
C232 C240 1.378 . S
C233 C232 1.367 . S
C233 C241 1.433 1_545 S
C234 H230 0.929 . S
C234 C236 1.378 . S
C234 C238 1.350 . S
C235 C238 1.463 1_545 S
C235 C240 1.350 . S
C235 N243 1.427 1_545 S
C236 H227 0.930 . S
C236 C234 1.378 . S
C236 C237 1.367 . S
C237 C236 1.367 . S
C237 C239 1.433 1_565 S
C238 C234 1.350 . S
C238 C235 1.463 1_565 S
C238 N242 1.427 1_565 S
C239 H229 0.929 . S
C239 C237 1.433 1_545 S
C239 N242 1.384 . S
C240 H231 0.929 . S
C240 C232 1.378 . S
C240 C235 1.350 . S
C241 H228 0.929 . S
C241 C233 1.433 1_565 S
C241 N243 1.384 . S
N242 C238 1.427 1_545 S
N242 C239 1.384 . S
N243 C235 1.427 1_565 S
N243 C241 1.384 . S
H244 C250 0.930 . S
H245 C254 0.930 . S
H246 C259 0.929 . S
H247 C257 0.929 . S
H248 C252 0.929 . S
H249 C258 0.929 . S
C250 H244 0.930 . S
C250 C251 1.367 . S
C250 C258 1.378 . S
C251 C250 1.367 . S
C251 C259 1.433 1_655 S
C252 H248 0.929 . S
C252 C254 1.378 . S
C252 C256 1.350 . S
C253 C256 1.463 1_655 S
C253 C258 1.350 . S
C253 N261 1.427 1_655 S
C254 H245 0.930 . S
C254 C252 1.378 . S
C254 C255 1.367 . S
C255 C254 1.367 . S
C255 C257 1.433 1_455 S
C256 C252 1.350 . S
C256 C253 1.463 1_455 S
C256 N260 1.427 1_455 S
C257 H247 0.929 . S
C257 C255 1.433 1_655 S
C257 N260 1.384 . S
C258 H249 0.929 . S
C258 C250 1.378 . S
C258 C253 1.350 . S
C259 H246 0.929 . S
C259 C251 1.433 1_455 S
C259 N261 1.384 . S
N260 C256 1.427 1_655 S
N260 C257 1.384 . S
N261 C253 1.427 1_455 S
N261 C259 1.384 . S
H262 C268 0.930 . S
H263 C272 0.930 . S
H264 C277 0.929 . S
H265 C275 0.929 . S
H266 C270 0.929 . S
H267 C276 0.929 . S
C268 H262 0.930 . S
C268 C269 1.367 . S
C268 C276 1.378 . S
C269 C268 1.367 . S
C269 C277 1.433 1_545 S
C270 H266 0.929 . S
C270 C272 1.378 . S
C270 C274 1.350 1_565 S
C271 C274 1.463 . S
C271 C276 1.350 . S
C271 N279 1.427 1_545 S
C272 H263 0.930 . S
C272 C270 1.378 . S
C272 C273 1.367 . S
C273 C272 1.367 . S
C273 C275 1.433 1_565 S
C274 C270 1.350 1_545 S
C274 C271 1.463 . S
C274 N278 1.427 . S
C275 H265 0.929 . S
C275 C273 1.433 1_545 S
C275 N278 1.384 . S
C276 H267 0.929 . S
C276 C268 1.378 . S
C276 C271 1.350 . S
C277 H264 0.929 . S
C277 C269 1.433 1_565 S
C277 N279 1.384 . S
N278 C274 1.427 . S
N278 C275 1.384 . S
N279 C271 1.427 1_565 S
N279 C277 1.384 . S
H280 C286 0.930 . S
H281 C290 0.930 . S
H282 C295 0.929 1_455 S
H283 C293 0.929 . S
H284 C288 0.929 . S
H285 C294 0.929 . S
C286 H280 0.930 . S
C286 C287 1.367 . S
C286 C294 1.378 . S
C287 C286 1.367 . S
C287 C295 1.433 . S
C288 H284 0.929 . S
C288 C290 1.378 . S
C288 C292 1.350 1_455 S
C289 C292 1.463 . S
C289 C294 1.350 . S
C289 N297 1.424 1_655 S
C290 H281 0.930 . S
C290 C288 1.378 . S
C290 C291 1.367 1_455 S
C291 C290 1.367 1_655 S
C291 C293 1.433 . S
C292 C288 1.350 1_655 S
C292 C289 1.463 . S
C292 N296 1.427 . S
C293 H283 0.929 . S
C293 C291 1.433 . S
C293 N296 1.384 . S
C294 H285 0.929 . S
C294 C286 1.378 . S
C294 C289 1.350 . S
C295 H282 0.929 1_655 S
C295 C287 1.433 . S
C295 N297 1.384 1_655 S
N296 C292 1.427 . S
N296 C293 1.384 . S
N297 C289 1.424 1_455 S
N297 C295 1.384 1_455 S
H298 C304 0.930 . S
H299 C308 0.930 . S
H300 C313 0.929 . S
H301 C311 0.929 . S
H302 C306 0.929 . S
H303 C312 0.929 . S
C304 H298 0.930 . S
C304 C305 1.367 1_545 S
C304 C312 1.378 . S
C305 C304 1.367 1_565 S
C305 C313 1.433 . S
C306 H302 0.929 . S
C306 C308 1.378 . S
C306 C310 1.350 1_565 S
C307 C310 1.463 . S
C307 C312 1.350 . S
C307 N315 1.427 1_545 S
C308 H299 0.930 . S
C308 C306 1.378 . S
C308 C309 1.367 1_565 S
C309 C308 1.367 1_545 S
C309 C311 1.433 . S
C310 C306 1.350 1_545 S
C310 C307 1.463 . S
C310 N314 1.427 . S
C311 H301 0.929 . S
C311 C309 1.433 . S
C311 N314 1.384 . S
C312 H303 0.929 . S
C312 C304 1.378 . S
C312 C307 1.350 . S
C313 H300 0.929 . S
C313 C305 1.433 . S
C313 N315 1.384 . S
N314 C310 1.427 . S
N314 C311 1.384 . S
N315 C307 1.427 1_565 S
N315 C313 1.384 . S
H316 C322 0.930 . S
H317 C326 0.930 . S
H318 C331 0.929 . S
H319 C329 0.929 . S
H320 C324 0.929 . S
H321 C330 0.929 . S
C322 H316 0.930 . S
C322 C323 1.367 1_455 S
C322 C330 1.378 . S
C323 C322 1.367 1_655 S
C323 C331 1.433 . S
C324 H320 0.929 . S
C324 C326 1.378 . S
C324 C328 1.350 1_655 S
C325 C328 1.463 1_655 S
C325 C330 1.350 1_655 S
C325 N333 1.427 . S
C326 H317 0.930 . S
C326 C324 1.378 . S
C326 C327 1.367 1_655 S
C327 C326 1.367 1_455 S
C327 C329 1.433 . S
C328 C324 1.350 1_455 S
C328 C325 1.463 1_455 S
C328 N332 1.427 . S
C329 H319 0.929 . S
C329 C327 1.433 . S
C329 N332 1.384 . S
C330 H321 0.929 . S
C330 C322 1.378 . S
C330 C325 1.350 1_455 S
C331 H318 0.929 . S
C331 C323 1.433 . S
C331 N333 1.384 . S
N332 C328 1.427 . S
N332 C329 1.384 . S
N333 C325 1.427 . S
N333 C331 1.384 . S
H334 C340 0.930 . S
H335 C344 0.930 . S
H336 C349 0.929 . S
H337 C347 0.929 . S
H338 C342 0.929 . S
H339 C348 0.929 . S
C340 H334 0.930 . S
C340 C341 1.367 . S
C340 C348 1.378 . S
C341 C340 1.367 . S
C341 C349 1.433 1_565 S
C342 H338 0.929 . S
C342 C344 1.378 . S
C342 C346 1.350 . S
C343 C346 1.463 . S
C343 C348 1.350 1_545 S
C343 N351 1.427 . S
C344 H335 0.930 . S
C344 C342 1.378 . S
C344 C345 1.367 . S
C345 C344 1.367 . S
C345 C347 1.433 1_545 S
C346 C342 1.350 . S
C346 C343 1.463 . S
C346 N350 1.427 1_545 S
C347 H337 0.929 . S
C347 C345 1.433 1_565 S
C347 N350 1.384 . S
C348 H339 0.929 . S
C348 C340 1.378 . S
C348 C343 1.350 1_565 S
C349 H336 0.929 . S
C349 C341 1.433 1_545 S
C349 N351 1.384 . S
N350 C346 1.427 1_565 S
N350 C347 1.384 . S
N351 C343 1.427 . S
N351 C349 1.384 . S
H352 C358 0.930 . S
H353 C362 0.930 . S
H354 C367 0.929 . S
H355 C365 0.929 . S
H356 C360 0.929 . S
H357 C366 0.929 . S
C358 H352 0.930 . S
C358 C359 1.367 . S
C358 C366 1.378 . S
C359 C358 1.367 . S
C359 C367 1.433 1_554 S
C360 H356 0.929 . S
C360 C362 1.378 . S
C360 C364 1.350 1_556 S
C361 C364 1.463 . S
C361 C366 1.350 . S
C361 N369 1.427 1_554 S
C362 H353 0.930 . S
C362 C360 1.378 . S
C362 C363 1.367 1_556 S
C363 C362 1.367 1_554 S
C363 C365 1.433 . S
C364 C360 1.350 1_554 S
C364 C361 1.463 . S
C364 N368 1.427 . S
C365 H355 0.929 . S
C365 C363 1.433 . S
C365 N368 1.384 . S
C366 H357 0.929 . S
C366 C358 1.378 . S
C366 C361 1.350 . S
C367 H354 0.929 . S
C367 C359 1.433 1_556 S
C367 N369 1.384 . S
N368 C364 1.427 . S
N368 C365 1.384 . S
N369 C361 1.427 1_556 S
N369 C367 1.384 . S
H370 C376 0.930 . S
H371 C380 0.930 . S
H372 C385 0.929 . S
H373 C383 0.929 . S
H374 C378 0.929 . S
H375 C384 0.929 . S
C376 H370 0.930 . S
C376 C377 1.367 1_556 S
C376 C384 1.378 . S
C377 C376 1.367 1_554 S
C377 C385 1.433 . S
C378 H374 0.929 . S
C378 C380 1.378 . S
C378 C382 1.350 . S
C379 C382 1.463 . S
C379 C384 1.350 1_554 S
C379 N387 1.427 . S
C380 H371 0.930 . S
C380 C378 1.378 . S
C380 C381 1.367 . S
C381 C380 1.367 . S
C381 C383 1.433 1_554 S
C382 C378 1.350 . S
C382 C379 1.463 . S
C382 N386 1.427 1_554 S
C383 H373 0.929 . S
C383 C381 1.433 1_556 S
C383 N386 1.384 . S
C384 H375 0.929 . S
C384 C376 1.378 . S
C384 C379 1.350 1_556 S
C385 H372 0.929 . S
C385 C377 1.433 . S
C385 N387 1.384 . S
N386 C382 1.427 1_556 S
N386 C383 1.384 . S
N387 C379 1.427 . S
N387 C385 1.384 . S
H388 C394 0.930 . S
H389 C398 0.930 . S
H390 C403 0.929 . S
H391 C401 0.929 . S
H392 C396 0.929 . S
H393 C402 0.929 . S
C394 H388 0.930 . S
C394 C395 1.367 1_556 S
C394 C402 1.378 . S
C395 C394 1.367 1_554 S
C395 C403 1.433 . S
C396 H392 0.929 . S
C396 C398 1.378 . S
C396 C400 1.350 . S
C397 C400 1.463 . S
C397 C402 1.350 1_554 S
C397 N405 1.427 . S
C398 H389 0.930 . S
C398 C396 1.378 . S
C398 C399 1.367 . S
C399 C398 1.367 . S
C399 C401 1.433 1_554 S
C400 C396 1.350 . S
C400 C397 1.463 . S
C400 N404 1.427 1_554 S
C401 H391 0.929 . S
C401 C399 1.433 1_556 S
C401 N404 1.384 . S
C402 H393 0.929 . S
C402 C394 1.378 . S
C402 C397 1.350 1_556 S
C403 H390 0.929 . S
C403 C395 1.433 . S
C403 N405 1.384 . S
N404 C400 1.427 1_556 S
N404 C401 1.384 . S
N405 C397 1.427 . S
N405 C403 1.384 . S
H406 C412 0.930 . S
H407 C416 0.930 . S
H408 C421 0.929 . S
H409 C419 0.929 . S
H410 C414 0.929 . S
H411 C420 0.929 . S
C412 H406 0.930 . S
C412 C413 1.367 . S
C412 C420 1.378 . S
C413 C412 1.367 . S
C413 C421 1.433 1_554 S
C414 H410 0.929 . S
C414 C416 1.378 . S
C414 C418 1.350 1_556 S
C415 C418 1.463 . S
C415 C420 1.350 . S
C415 N423 1.427 1_554 S
C416 H407 0.930 . S
C416 C414 1.378 . S
C416 C417 1.367 1_556 S
C417 C416 1.367 1_554 S
C417 C419 1.433 . S
C418 C414 1.350 1_554 S
C418 C415 1.463 . S
C418 N422 1.427 . S
C419 H409 0.929 . S
C419 C417 1.433 . S
C419 N422 1.384 . S
C420 H411 0.929 . S
C420 C412 1.378 . S
C420 C415 1.350 . S
C421 H408 0.929 . S
C421 C413 1.433 1_556 S
C421 N423 1.384 . S
N422 C418 1.427 . S
N422 C419 1.384 . S
N423 C415 1.427 1_556 S
N423 C421 1.384 . S
H424 C430 0.930 . S
H425 C434 0.930 . S
H426 C439 0.929 . S
H427 C437 0.929 . S
H428 C432 0.929 . S
H429 C438 0.929 . S
C430 H424 0.930 . S
C430 C431 1.367 . S
C430 C438 1.378 . S
C431 C430 1.367 . S
C431 C439 1.433 . S
C432 H428 0.929 . S
C432 C434 1.378 . S
C432 C436 1.350 . S
C433 C436 1.463 . S
C433 C438 1.350 . S
C433 N441 1.427 . S
C434 H425 0.930 . S
C434 C432 1.378 . S
C434 C435 1.367 . S
C435 C434 1.367 . S
C435 C437 1.433 . S
C436 C432 1.350 . S
C436 C433 1.463 . S
C436 N440 1.427 . S
C437 H427 0.929 . S
C437 C435 1.433 . S
C437 N440 1.384 . S
C438 H429 0.929 . S
C438 C430 1.378 . S
C438 C433 1.350 . S
C439 H426 0.929 . S
C439 C431 1.433 . S
C439 N441 1.384 . S
N440 C436 1.427 . S
N440 C437 1.384 . S
N441 C433 1.427 . S
N441 C439 1.384 . S
H442 C448 0.930 . S
H443 C452 0.930 . S
H444 C457 0.929 . S
H445 C455 0.929 . S
H446 C450 0.929 . S
H447 C456 0.929 . S
C448 H442 0.930 . S
C448 C449 1.367 . S
C448 C456 1.378 . S
C449 C448 1.367 . S
C449 C457 1.433 . S
C450 H446 0.929 . S
C450 C452 1.378 . S
C450 C454 1.350 . S
C451 C454 1.463 . S
C451 C456 1.350 . S
C451 N459 1.427 . S
C452 H443 0.930 . S
C452 C450 1.378 . S
C452 C453 1.367 . S
C453 C452 1.367 . S
C453 C455 1.433 . S
C454 C450 1.350 . S
C454 C451 1.463 . S
C454 N458 1.427 . S
C455 H445 0.929 . S
C455 C453 1.433 . S
C455 N458 1.384 . S
C456 H447 0.929 . S
C456 C448 1.378 . S
C456 C451 1.350 . S
C457 H444 0.929 . S
C457 C449 1.433 . S
C457 N459 1.384 . S
N458 C454 1.427 . S
N458 C455 1.384 . S
N459 C451 1.427 . S
N459 C457 1.384 . S
H460 C466 0.930 . S
H461 C470 0.930 . S
H462 C475 0.929 . S
H463 C473 0.929 . S
H464 C468 0.929 . S
H465 C474 0.929 . S
C466 H460 0.930 . S
C466 C467 1.367 . S
C466 C474 1.378 . S
C467 C466 1.367 . S
C467 C475 1.433 . S
C468 H464 0.929 . S
C468 C470 1.378 . S
C468 C472 1.350 . S
C469 C472 1.463 . S
C469 C474 1.350 . S
C469 N477 1.427 . S
C470 H461 0.930 . S
C470 C468 1.378 . S
C470 C471 1.367 . S
C471 C470 1.367 . S
C471 C473 1.433 . S
C472 C468 1.350 . S
C472 C469 1.463 . S
C472 N476 1.427 . S
C473 H463 0.929 . S
C473 C471 1.433 . S
C473 N476 1.384 . S
C474 H465 0.929 . S
C474 C466 1.378 . S
C474 C469 1.350 . S
C475 H462 0.929 . S
C475 C467 1.433 . S
C475 N477 1.384 . S
N476 C472 1.427 . S
N476 C473 1.384 . S
N477 C469 1.427 . S
N477 C475 1.384 . S
H478 C484 0.930 . S
H479 C488 0.930 . S
H480 C493 0.929 . S
H481 C491 0.929 . S
H482 C486 0.929 . S
H483 C492 0.929 . S
C484 H478 0.930 . S
C484 C485 1.367 . S
C484 C492 1.378 . S
C485 C484 1.367 . S
C485 C493 1.433 . S
C486 H482 0.929 . S
C486 C488 1.378 . S
C486 C490 1.350 . S
C487 C490 1.463 . S
C487 C492 1.350 . S
C487 N495 1.427 . S
C488 H479 0.930 . S
C488 C486 1.378 . S
C488 C489 1.367 . S
C489 C488 1.367 . S
C489 C491 1.433 . S
C490 C486 1.350 . S
C490 C487 1.463 . S
C490 N494 1.427 . S
C491 H481 0.929 . S
C491 C489 1.433 . S
C491 N494 1.384 . S
C492 H483 0.929 . S
C492 C484 1.378 . S
C492 C487 1.350 . S
C493 H480 0.929 . S
C493 C485 1.433 . S
C493 N495 1.384 . S
N494 C490 1.427 . S
N494 C491 1.384 . S
N495 C487 1.427 . S
N495 C493 1.384 . S
H496 C502 0.930 . S
H497 C506 0.930 . S
H498 C511 0.929 . S
H499 C509 0.929 . S
H500 C504 0.929 . S
H501 C510 0.929 . S
C502 H496 0.930 . S
C502 C503 1.367 . S
C502 C510 1.378 . S
C503 C502 1.367 . S
C503 C511 1.433 . S
C504 H500 0.929 . S
C504 C506 1.378 . S
C504 C508 1.350 . S
C505 C508 1.463 . S
C505 C510 1.350 . S
C505 N513 1.427 . S
C506 H497 0.930 . S
C506 C504 1.378 . S
C506 C507 1.367 . S
C507 C506 1.367 . S
C507 C509 1.433 . S
C508 C504 1.350 . S
C508 C505 1.463 . S
C508 N512 1.427 . S
C509 H499 0.929 . S
C509 C507 1.433 . S
C509 N512 1.384 . S
C510 H501 0.929 . S
C510 C502 1.378 . S
C510 C505 1.350 . S
C511 H498 0.929 . S
C511 C503 1.433 . S
C511 N513 1.384 . S
N512 C508 1.427 . S
N512 C509 1.384 . S
N513 C505 1.427 . S
N513 C511 1.384 . S
H514 C520 0.930 . S
H515 C524 0.930 . S
H516 C529 0.929 . S
H517 C527 0.929 . S
H518 C522 0.929 . S
H519 C528 0.929 . S
C520 H514 0.930 . S
C520 C521 1.367 . S
C520 C528 1.378 . S
C521 C520 1.367 . S
C521 C529 1.433 . S
C522 H518 0.929 . S
C522 C524 1.378 . S
C522 C526 1.350 . S
C523 C526 1.463 . S
C523 C528 1.350 . S
C523 N531 1.427 . S
C524 H515 0.930 . S
C524 C522 1.378 . S
C524 C525 1.367 . S
C525 C524 1.367 . S
C525 C527 1.433 . S
C526 C522 1.350 . S
C526 C523 1.463 . S
C526 N530 1.427 . S
C527 H517 0.929 . S
C527 C525 1.433 . S
C527 N530 1.384 . S
C528 H519 0.929 . S
C528 C520 1.378 . S
C528 C523 1.350 . S
C529 H516 0.929 . S
C529 C521 1.433 . S
C529 N531 1.384 . S
N530 C526 1.427 . S
N530 C527 1.384 . S
N531 C523 1.427 . S
N531 C529 1.384 . S
H532 C538 0.930 . S
H533 C542 0.930 . S
H534 C547 0.929 . S
H535 C545 0.929 . S
H536 C540 0.929 . S
H537 C546 0.929 . S
C538 H532 0.930 . S
C538 C539 1.367 . S
C538 C546 1.378 . S
C539 C538 1.367 . S
C539 C547 1.433 . S
C540 H536 0.929 . S
C540 C542 1.378 . S
C540 C544 1.350 . S
C541 C544 1.463 . S
C541 C546 1.350 . S
C541 N549 1.427 . S
C542 H533 0.930 . S
C542 C540 1.378 . S
C542 C543 1.367 . S
C543 C542 1.367 . S
C543 C545 1.433 . S
C544 C540 1.350 . S
C544 C541 1.463 . S
C544 N548 1.427 . S
C545 H535 0.929 . S
C545 C543 1.433 . S
C545 N548 1.384 . S
C546 H537 0.929 . S
C546 C538 1.378 . S
C546 C541 1.350 . S
C547 H534 0.929 . S
C547 C539 1.433 . S
C547 N549 1.384 . S
N548 C544 1.427 . S
N548 C545 1.384 . S
N549 C541 1.427 . S
N549 C547 1.384 . S
H550 C556 0.930 . S
H551 C560 0.930 . S
H552 C565 0.929 . S
H553 C563 0.929 . S
H554 C558 0.929 . S
H555 C564 0.929 . S
C556 H550 0.930 . S
C556 C557 1.367 . S
C556 C564 1.378 . S
C557 C556 1.367 . S
C557 C565 1.433 . S
C558 H554 0.929 . S
C558 C560 1.378 . S
C558 C562 1.350 . S
C559 C562 1.463 . S
C559 C564 1.350 . S
C559 N567 1.427 . S
C560 H551 0.930 . S
C560 C558 1.378 . S
C560 C561 1.367 . S
C561 C560 1.367 . S
C561 C563 1.433 . S
C562 C558 1.350 . S
C562 C559 1.463 . S
C562 N566 1.427 . S
C563 H553 0.929 . S
C563 C561 1.433 . S
C563 N566 1.384 . S
C564 H555 0.929 . S
C564 C556 1.378 . S
C564 C559 1.350 . S
C565 H552 0.929 . S
C565 C557 1.433 . S
C565 N567 1.384 . S
N566 C562 1.427 . S
N566 C563 1.384 . S
N567 C559 1.427 . S
N567 C565 1.384 . S
H568 C574 0.930 . S
H569 C578 0.930 . S
H570 C583 0.929 . S
H571 C581 0.929 . S
H572 C576 0.929 . S
H573 C582 0.929 . S
C574 H568 0.930 . S
C574 C575 1.367 . S
C574 C582 1.378 . S
C575 C574 1.367 . S
C575 C583 1.433 . S
C576 H572 0.929 . S
C576 C578 1.378 . S
C576 C580 1.350 . S
C577 C580 1.463 . S
C577 C582 1.350 . S
C577 N585 1.427 . S
C578 H569 0.930 . S
C578 C576 1.378 . S
C578 C579 1.367 . S
C579 C578 1.367 . S
C579 C581 1.433 . S
C580 C576 1.350 . S
C580 C577 1.463 . S
C580 N584 1.427 . S
C581 H571 0.929 . S
C581 C579 1.433 . S
C581 N584 1.384 . S
C582 H573 0.929 . S
C582 C574 1.378 . S
C582 C577 1.350 . S
C583 H570 0.929 . S
C583 C575 1.433 . S
C583 N585 1.384 . S
N584 C580 1.427 . S
N584 C581 1.384 . S
N585 C577 1.427 . S
N585 C583 1.384 . S
H586 C592 0.930 . S
H587 C596 0.930 . S
H588 C601 0.929 . S
H589 C599 0.929 . S
H590 C594 0.929 . S
H591 C600 0.929 . S
C592 H586 0.930 . S
C592 C593 1.367 . S
C592 C600 1.378 . S
C593 C592 1.367 . S
C593 C601 1.433 . S
C594 H590 0.929 . S
C594 C596 1.378 . S
C594 C598 1.350 . S
C595 C598 1.463 . S
C595 C600 1.350 . S
C595 N603 1.427 . S
C596 H587 0.930 . S
C596 C594 1.378 . S
C596 C597 1.367 . S
C597 C596 1.367 . S
C597 C599 1.433 . S
C598 C594 1.350 . S
C598 C595 1.463 . S
C598 N602 1.427 . S
C599 H589 0.929 . S
C599 C597 1.433 . S
C599 N602 1.384 . S
C600 H591 0.929 . S
C600 C592 1.378 . S
C600 C595 1.350 . S
C601 H588 0.929 . S
C601 C593 1.433 . S
C601 N603 1.384 . S
N602 C598 1.427 . S
N602 C599 1.384 . S
N603 C595 1.427 . S
N603 C601 1.384 . S
H604 C610 0.930 . S
H605 C614 0.930 . S
H606 C619 0.929 . S
H607 C617 0.929 . S
H608 C612 0.929 . S
H609 C618 0.929 . S
C610 H604 0.930 . S
C610 C611 1.367 . S
C610 C618 1.378 . S
C611 C610 1.367 . S
C611 C619 1.433 . S
C612 H608 0.929 . S
C612 C614 1.378 . S
C612 C616 1.350 . S
C613 C616 1.463 . S
C613 C618 1.350 . S
C613 N621 1.427 . S
C614 H605 0.930 . S
C614 C612 1.378 . S
C614 C615 1.367 . S
C615 C614 1.367 . S
C615 C617 1.433 . S
C616 C612 1.350 . S
C616 C613 1.463 . S
C616 N620 1.427 . S
C617 H607 0.929 . S
C617 C615 1.433 . S
C617 N620 1.384 . S
C618 H609 0.929 . S
C618 C610 1.378 . S
C618 C613 1.350 . S
C619 H606 0.929 . S
C619 C611 1.433 . S
C619 N621 1.384 . S
N620 C616 1.427 . S
N620 C617 1.384 . S
N621 C613 1.427 . S
N621 C619 1.384 . S
H622 C628 0.930 . S
H623 C632 0.930 . S
H624 C637 0.929 . S
H625 C635 0.929 . S
H626 C630 0.929 . S
H627 C636 0.929 . S
C628 H622 0.930 . S
C628 C629 1.367 . S
C628 C636 1.378 . S
C629 C628 1.367 . S
C629 C637 1.433 . S
C630 H626 0.929 . S
C630 C632 1.378 . S
C630 C634 1.350 . S
C631 C634 1.463 . S
C631 C636 1.350 . S
C631 N639 1.427 . S
C632 H623 0.930 . S
C632 C630 1.378 . S
C632 C633 1.367 . S
C633 C632 1.367 . S
C633 C635 1.433 . S
C634 C630 1.350 . S
C634 C631 1.463 . S
C634 N638 1.427 . S
C635 H625 0.929 . S
C635 C633 1.433 . S
C635 N638 1.384 . S
C636 H627 0.929 . S
C636 C628 1.378 . S
C636 C631 1.350 . S
C637 H624 0.929 . S
C637 C629 1.433 . S
C637 N639 1.384 . S
N638 C634 1.427 . S
N638 C635 1.384 . S
N639 C631 1.427 . S
N639 C637 1.384 . S
C215 C42 1.875 . S
C219 C102 1.842 . S
C233 C26 1.749 . S
C237 C152 1.734 1_565 S
C251 C36 1.784 1_655 S
C255 C78 1.759 1_455 S
C269 C154 1.742 . S
C273 C32 1.757 1_565 S
C287 C4 1.815 . S
C291 C84 1.832 1_655 S
C305 C48 1.709 1_565 S
C309 C130 1.724 . S
C323 C100 1.897 . S
C327 C18 1.904 . S
C341 C136 1.746 1_565 S
C345 C50 1.732 . S
C359 C201 0.732 . S
C363 C34 0.714 . S
C377 C186 0.706 . S
C381 C39 0.703 . S
C395 C190 0.727 . S
C399 C45 0.707 . S
C413 C30 0.705 . S
C417 C195 0.715 . S
C431 C188 1.249 . S
C435 C91 1.289 . S
C449 C86 1.305 . S
C453 C182 1.270 . S
C467 C97 1.380 . S
C471 C206 1.320 . S
C485 C204 1.343 . S
C489 C82 1.377 . S
C503 C134 1.140 . S
C507 C94 1.108 . S
C521 C70 1.163 . S
C525 C149 1.208 . S
C539 C88 1.093 . S
C543 C143 1.132 . S
C557 C138 1.228 . S
C561 C56 1.174 . S
C575 C198 1.761 . S
C579 C146 1.763 . S
C593 C140 1.747 . S
C597 C192 1.752 . S
C611 C160 1.903 . S
C615 C108 1.903 . S
C629 C122 1.910 . S
C633 C174 1.919 . S
