# Generated by pormake.
# Topology vbk, (5)-cn, num edge types: 1
# Building blocks:
#     Node 0, Type 0, BuildingBlock: XOMCOT_clean_sbu_1, # of connection points: 5
#     Node 1, Type 0, BuildingBlock: XOMCOT_clean_sbu_1, # of connection points: 5
#     Node 2, Type 0, BuildingBlock: XOMCOT_clean_sbu_1, # of connection points: 5
#     Node 3, Type 0, BuildingBlock: XOMCOT_clean_sbu_1, # of connection points: 5
#     Node 4, Type 0, BuildingBlock: XOMCOT_clean_sbu_1, # of connection points: 5
#     Node 5, Type 0, BuildingBlock: XOMCOT_clean_sbu_1, # of connection points: 5
#     Node 6, Type 0, BuildingBlock: XOMCOT_clean_sbu_1, # of connection points: 5
#     Node 7, Type 0, BuildingBlock: XOMCOT_clean_sbu_1, # of connection points: 5
#     Node 8, Type 0, BuildingBlock: XOMCOT_clean_sbu_1, # of connection points: 5
#     Node 9, Type 0, BuildingBlock: XOMCOT_clean_sbu_1, # of connection points: 5
#     Node 10, Type 0, BuildingBlock: XOMCOT_clean_sbu_1, # of connection points: 5
#     Node 11, Type 0, BuildingBlock: XOMCOT_clean_sbu_1, # of connection points: 5
#     Node 12, Type 0, BuildingBlock: XOMCOT_clean_sbu_1, # of connection points: 5
#     Node 13, Type 0, BuildingBlock: XOMCOT_clean_sbu_1, # of connection points: 5
#     Node 14, Type 0, BuildingBlock: XOMCOT_clean_sbu_1, # of connection points: 5
#     Node 15, Type 0, BuildingBlock: XOMCOT_clean_sbu_1, # of connection points: 5
#     Edge 16, Type (0, 0), BuildingBlock: EZIPEK_clean_linker_0, # of connection points: 2
#     Edge 17, Type (0, 0), BuildingBlock: EZIPEK_clean_linker_0, # of connection points: 2
#     Edge 18, Type (0, 0), BuildingBlock: EZIPEK_clean_linker_0, # of connection points: 2
#     Edge 19, Type (0, 0), BuildingBlock: EZIPEK_clean_linker_0, # of connection points: 2
#     Edge 20, Type (0, 0), BuildingBlock: EZIPEK_clean_linker_0, # of connection points: 2
#     Edge 21, Type (0, 0), BuildingBlock: EZIPEK_clean_linker_0, # of connection points: 2
#     Edge 22, Type (0, 0), BuildingBlock: EZIPEK_clean_linker_0, # of connection points: 2
#     Edge 23, Type (0, 0), BuildingBlock: EZIPEK_clean_linker_0, # of connection points: 2
#     Edge 24, Type (0, 0), BuildingBlock: EZIPEK_clean_linker_0, # of connection points: 2
#     Edge 25, Type (0, 0), BuildingBlock: EZIPEK_clean_linker_0, # of connection points: 2
#     Edge 26, Type (0, 0), BuildingBlock: EZIPEK_clean_linker_0, # of connection points: 2
#     Edge 27, Type (0, 0), BuildingBlock: EZIPEK_clean_linker_0, # of connection points: 2
#     Edge 28, Type (0, 0), BuildingBlock: EZIPEK_clean_linker_0, # of connection points: 2
#     Edge 29, Type (0, 0), BuildingBlock: EZIPEK_clean_linker_0, # of connection points: 2
#     Edge 30, Type (0, 0), BuildingBlock: EZIPEK_clean_linker_0, # of connection points: 2
#     Edge 31, Type (0, 0), BuildingBlock: EZIPEK_clean_linker_0, # of connection points: 2
#     Edge 32, Type (0, 0), BuildingBlock: EZIPEK_clean_linker_0, # of connection points: 2
#     Edge 33, Type (0, 0), BuildingBlock: EZIPEK_clean_linker_0, # of connection points: 2
#     Edge 34, Type (0, 0), BuildingBlock: EZIPEK_clean_linker_0, # of connection points: 2
#     Edge 35, Type (0, 0), BuildingBlock: EZIPEK_clean_linker_0, # of connection points: 2
#     Edge 36, Type (0, 0), BuildingBlock: EZIPEK_clean_linker_0, # of connection points: 2
#     Edge 37, Type (0, 0), BuildingBlock: EZIPEK_clean_linker_0, # of connection points: 2
#     Edge 38, Type (0, 0), BuildingBlock: EZIPEK_clean_linker_0, # of connection points: 2
#     Edge 39, Type (0, 0), BuildingBlock: EZIPEK_clean_linker_0, # of connection points: 2
#     Edge 40, Type (0, 0), BuildingBlock: EZIPEK_clean_linker_0, # of connection points: 2
#     Edge 41, Type (0, 0), BuildingBlock: EZIPEK_clean_linker_0, # of connection points: 2
#     Edge 42, Type (0, 0), BuildingBlock: EZIPEK_clean_linker_0, # of connection points: 2
#     Edge 43, Type (0, 0), BuildingBlock: EZIPEK_clean_linker_0, # of connection points: 2
#     Edge 44, Type (0, 0), BuildingBlock: EZIPEK_clean_linker_0, # of connection points: 2
#     Edge 45, Type (0, 0), BuildingBlock: EZIPEK_clean_linker_0, # of connection points: 2
#     Edge 46, Type (0, 0), BuildingBlock: EZIPEK_clean_linker_0, # of connection points: 2
#     Edge 47, Type (0, 0), BuildingBlock: EZIPEK_clean_linker_0, # of connection points: 2
#     Edge 48, Type (0, 0), BuildingBlock: EZIPEK_clean_linker_0, # of connection points: 2
#     Edge 49, Type (0, 0), BuildingBlock: EZIPEK_clean_linker_0, # of connection points: 2
#     Edge 50, Type (0, 0), BuildingBlock: EZIPEK_clean_linker_0, # of connection points: 2
#     Edge 51, Type (0, 0), BuildingBlock: EZIPEK_clean_linker_0, # of connection points: 2
#     Edge 52, Type (0, 0), BuildingBlock: EZIPEK_clean_linker_0, # of connection points: 2
#     Edge 53, Type (0, 0), BuildingBlock: EZIPEK_clean_linker_0, # of connection points: 2
#     Edge 54, Type (0, 0), BuildingBlock: EZIPEK_clean_linker_0, # of connection points: 2
#     Edge 55, Type (0, 0), BuildingBlock: EZIPEK_clean_linker_0, # of connection points: 2
# Relax obj value: 0.081
# Max RMSD: 0.146
# Mean RMSD: 0.146
data_MOF--net-vbk--node1-XOMCOT_clean_sbu_1--edge1-EZIPEK_clean_linker_0
_symmetry_space_group_name_H-M    P1
_symmetry_Int_Tables_number       1
_symmetry_cell_setting            triclinic
loop_
_symmetry_equiv_pos_as_xyz
'x, y, z'
_cell_length_a     51.478573
_cell_length_b     34.800306
_cell_length_c     21.026968
_cell_angle_alpha  90.002481
_cell_angle_beta   90.319289
_cell_angle_gamma 89.761699
loop_
_atom_site_label
_atom_site_type_symbol
_atom_site_fract_x
_atom_site_fract_y
_atom_site_fract_z
_atom_type_partial_charge
C0 C 0.12047 0.21603 0.05408 0.0
C1 C 0.09388 0.21876 0.0559 0.0
N2 N 0.08467 0.18671 0.08295 0.0
N3 N 0.12834 0.18177 0.07816 0.0
C4 C 0.10586 0.16517 0.09776 0.0
H5 H 0.13339 0.23773 0.03561 0.0
Co6 Co 0.16461 0.16702 0.08703 0.0
C7 C 0.14113 0.09087 0.03616 0.0
O8 O 0.11858 0.10502 0.0187 0.0
N9 N 0.20074 0.15196 0.09969 0.0
C10 C 0.24147 0.13028 0.08628 0.0
C11 C 0.2177 0.13715 0.05708 0.0
C12 C 0.21468 0.15188 0.15511 0.0
N13 N 0.23946 0.13975 0.14806 0.0
O14 O 0.15961 0.16196 0.17567 0.0
H15 H 0.2132 0.13189 0.00754 0.0
H16 H 0.20709 0.16053 0.20064 0.0
O17 O 0.15812 0.11199 0.06421 0.0
C18 C 0.16165 0.19786 0.18959 0.0
O19 O 0.16206 0.22325 0.14335 0.0
N20 N 0.17055 0.1803 0.00117 0.0
C21 C 0.16692 0.23212 0.9001 0.0
C22 C 0.14862 0.20277 0.9077 0.0
C23 C 0.15161 0.17599 0.95617 0.0
C24 C 0.18934 0.2075 -0.00714 0.0
C25 C 0.18857 0.23246 0.94078 0.0
H26 H 0.13588 0.15657 0.96322 0.0
H27 H 0.20363 0.21265 0.02968 0.0
H28 H 0.10497 0.13769 0.12174 0.0
H29 H 0.0821 0.24219 0.03773 0.0
H30 H 0.2589 0.11949 0.06382 0.0
H31 H 0.13126 0.20159 0.87841 0.0
H32 H 0.20343 0.2542 0.93603 0.0
C33 C 0.44541 0.81525 0.55909 0.0
C34 C 0.47207 0.81514 0.55678 0.0
N35 N 0.48061 0.84903 0.57904 0.0
N36 N 0.43694 0.84929 0.58212 0.0
C37 C 0.45898 0.86939 0.59403 0.0
H38 H 0.43298 0.79147 0.54637 0.0
Co39 Co 0.40154 0.86124 0.59743 0.0
C40 C 0.39698 0.93628 0.52902 0.0
O41 O 0.3784 0.92196 0.49359 0.0
N42 N 0.36511 0.8731 0.61428 0.0
C43 C 0.32208 0.88063 0.60185 0.0
C44 C 0.34536 0.87591 0.57138 0.0
C45 C 0.35271 0.87646 0.6712 0.0
N46 N 0.32666 0.88076 0.66459 0.0
O47 O 0.4104 0.86937 0.68549 0.0
H48 H 0.34714 0.87279 0.52054 0.0
H49 H 0.36226 0.87458 0.71694 0.0
O50 O 0.40785 0.91573 0.57251 0.0
C51 C 0.40769 0.83436 0.70341 0.0
O52 O 0.39759 0.80986 0.6627 0.0
N53 N 0.39375 0.84496 0.51506 0.0
C54 C 0.39373 0.79305 0.41505 0.0
C55 C 0.40706 0.82795 0.40951 0.0
C56 C 0.40723 0.85348 0.46101 0.0
C57 C 0.37993 0.81171 0.51928 0.0
C58 C 0.37966 0.78544 0.47001 0.0
H59 H 0.41996 0.87799 0.45959 0.0
H60 H 0.37054 0.80399 0.56322 0.0
H61 H 0.45924 0.89788 0.61464 0.0
H62 H 0.48436 0.7916 0.54153 0.0
H63 H 0.30307 0.88256 0.57976 0.0
H64 H 0.41832 0.83428 0.36746 0.0
H65 H 0.36929 0.75863 0.47568 0.0
C66 C 0.12218 0.81268 0.92742 0.0
C67 C 0.09554 0.80996 0.92591 0.0
N68 N 0.08601 0.84131 0.89653 0.0
N69 N 0.12963 0.84616 0.90068 0.0
C70 C 0.10699 0.86258 0.88074 0.0
H71 H 0.13537 0.79112 0.94577 0.0
Co72 Co 0.16489 0.86121 0.88801 0.0
C73 C 0.14188 0.93471 0.94809 0.0
O74 O 0.12065 0.91893 0.9699 0.0
N75 N 0.20013 0.87663 0.87398 0.0
C76 C 0.23879 0.90388 0.89062 0.0
C77 C 0.21421 0.89851 0.91454 0.0
C78 C 0.21675 0.86921 0.82541 0.0
N79 N 0.24031 0.88547 0.83459 0.0
O80 O 0.15674 0.86914 0.79983 0.0
H81 H 0.20708 0.90972 0.95918 0.0
H82 H 0.21191 0.85224 0.78399 0.0
O83 O 0.15816 0.91516 0.91521 0.0
C84 C 0.16101 0.83396 0.78408 0.0
O85 O 0.17104 0.81064 0.82705 0.0
N86 N 0.17356 0.84509 0.9705 0.0
C87 C 0.17696 0.79243 0.06902 0.0
C88 C 0.16024 0.82401 0.07372 0.0
C89 C 0.15875 0.85013 0.02354 0.0
C90 C 0.19127 0.81575 0.96791 0.0
C91 C 0.19332 0.78907 0.0168 0.0
H92 H 0.14356 0.87112 0.02482 0.0
H93 H 0.20229 0.81066 0.92517 0.0
H94 H 0.10587 0.88965 0.85549 0.0
H95 H 0.08399 0.78665 0.94457 0.0
H96 H 0.25435 0.92014 0.91244 0.0
H97 H 0.14747 0.82721 0.11417 0.0
H98 H 0.20666 0.76504 0.01259 0.0
C99 C 0.43969 0.21518 0.42769 0.0
C100 C 0.46617 0.21747 0.42176 0.0
N101 N 0.47443 0.1863 0.39006 0.0
N102 N 0.43104 0.18193 0.40187 0.0
C103 C 0.45279 0.1657 0.37682 0.0
H104 H 0.42739 0.23661 0.44965 0.0
Co105 Co 0.39482 0.16821 0.39664 0.0
C106 C 0.41914 0.09067 0.44064 0.0
O107 O 0.4424 0.10392 0.4532 0.0
N108 N 0.35832 0.15446 0.38755 0.0
C109 C 0.31717 0.13606 0.40428 0.0
C110 C 0.34113 0.14302 0.43222 0.0
C111 C 0.34418 0.15265 0.33251 0.0
N112 N 0.3192 0.1423 0.34143 0.0
O113 O 0.39835 0.16348 0.30738 0.0
H114 H 0.34549 0.14024 0.48234 0.0
H115 H 0.3517 0.15895 0.28588 0.0
O116 O 0.40147 0.11275 0.41695 0.0
C117 C 0.39611 0.19929 0.29317 0.0
O118 O 0.39564 0.22476 0.33935 0.0
N119 N 0.39074 0.18081 0.48364 0.0
C120 C 0.3988 0.2316 0.58497 0.0
C121 C 0.41506 0.19958 0.57589 0.0
C122 C 0.40978 0.17337 0.52744 0.0
C123 C 0.3738 0.21051 0.49365 0.0
C124 C 0.37676 0.2351 0.54579 0.0
H125 H 0.42372 0.15099 0.51978 0.0
H126 H 0.35938 0.21764 0.45794 0.0
H127 H 0.45284 0.1392 0.34987 0.0
H128 H 0.47854 0.24017 0.43967 0.0
H129 H 0.29957 0.12753 0.42831 0.0
H130 H 0.43253 0.19566 0.60412 0.0
H131 H 0.36331 0.25883 0.55175 0.0
C132 C 0.94018 0.81342 0.91705 0.0
C133 C 0.96667 0.8094 0.91329 0.0
N134 N 0.97636 0.84169 0.88799 0.0
N135 N 0.93297 0.84866 0.89602 0.0
C136 C 0.95557 0.86467 0.87625 0.0
H137 H 0.92693 0.79208 0.93522 0.0
Co138 Co 0.89729 0.86513 0.89211 0.0
C139 C 0.92234 0.94144 0.93983 0.0
O140 O 0.94564 0.92825 0.95313 0.0
N141 N 0.86132 0.88184 0.88461 0.0
C142 C 0.82028 0.90078 0.90262 0.0
C143 C 0.84407 0.89202 0.93016 0.0
C144 C 0.84752 0.88679 0.82968 0.0
N145 N 0.8226 0.89721 0.83929 0.0
O146 O 0.90083 0.87063 0.80302 0.0
H147 H 0.84811 0.89215 0.98062 0.0
H148 H 0.85508 0.882 0.78257 0.0
O149 O 0.90508 0.91953 0.91475 0.0
C150 C 0.89628 0.83524 0.78922 0.0
O151 O 0.89288 0.81055 0.83577 0.0
N152 N 0.89322 0.85152 0.97822 0.0
C153 C 0.90002 0.79968 0.07832 0.0
C154 C 0.91733 0.83021 0.06929 0.0
C155 C 0.91279 0.85694 0.02131 0.0
C156 C 0.87555 0.8229 0.98766 0.0
C157 C 0.87791 0.79781 0.03926 0.0
H158 H 0.92745 0.87807 0.01346 0.0
H159 H 0.86086 0.8171 0.95203 0.0
H160 H 0.95688 0.89265 0.85411 0.0
H161 H 0.97809 0.78505 0.92941 0.0
H162 H 0.80249 0.90788 0.92723 0.0
H163 H 0.93489 0.83265 0.0976 0.0
H164 H 0.86382 0.77508 0.04513 0.0
C165 C 0.61949 0.21869 0.38238 0.0
C166 C 0.59291 0.22105 0.3779 0.0
N167 N 0.58359 0.1855 0.36864 0.0
N168 N 0.6272 0.18165 0.37737 0.0
C169 C 0.60474 0.1621 0.36696 0.0
H170 H 0.6325 0.24253 0.39069 0.0
Co171 Co 0.66331 0.16836 0.38235 0.0
C172 C 0.64091 0.09454 0.4471 0.0
O173 O 0.61854 0.10813 0.46648 0.0
N174 N 0.69959 0.15604 0.38327 0.0
C175 C 0.73752 0.1257 0.39728 0.0
C176 C 0.71239 0.12983 0.41925 0.0
C177 C 0.71773 0.16819 0.34121 0.0
N178 N 0.7407 0.14954 0.34751 0.0
O179 O 0.6616 0.15177 0.29571 0.0
H180 H 0.70375 0.11338 0.45723 0.0
H181 H 0.71408 0.18954 0.30508 0.0
O182 O 0.65673 0.1156 0.41566 0.0
C183 C 0.66393 0.18341 0.26563 0.0
O184 O 0.66664 0.21535 0.29828 0.0
N185 N 0.66545 0.18964 0.46599 0.0
C186 C 0.6619 0.24191 0.56724 0.0
C187 C 0.64169 0.21632 0.55359 0.0
C188 C 0.6444 0.1893 0.50528 0.0
C189 C 0.68552 0.21419 0.47888 0.0
C190 C 0.68457 0.2394 0.53079 0.0
H191 H 0.628 0.17147 0.49535 0.0
H192 H 0.70182 0.21627 0.44702 0.0
H193 H 0.60375 0.13146 0.35889 0.0
H194 H 0.58118 0.24676 0.38291 0.0
H195 H 0.75188 0.10527 0.41423 0.0
H196 H 0.62363 0.21741 0.57979 0.0
H197 H 0.7008 0.25836 0.53999 0.0
C198 C 0.93957 0.21656 0.04261 0.0
C199 C 0.96627 0.21758 0.04205 0.0
N200 N 0.97527 0.18581 0.07118 0.0
N201 N 0.93157 0.18391 0.07114 0.0
C202 C 0.95393 0.16579 0.08855 0.0
H203 H 0.92674 0.23877 0.0247 0.0
Co204 Co 0.89625 0.1711 0.08755 0.0
C205 C 0.8939 0.09331 0.0295 0.0
O206 O 0.8745 0.10517 -0.00608 0.0
N207 N 0.86006 0.15853 0.10728 0.0
C208 C 0.81703 0.14903 0.10041 0.0
C209 C 0.83975 0.15292 0.06694 0.0
C210 C 0.84859 0.15728 0.16573 0.0
N211 N 0.82254 0.15198 0.16261 0.0
O212 O 0.90532 0.16794 0.17522 0.0
H213 H 0.84075 0.15316 0.0157 0.0
H214 H 0.85881 0.16118 0.2102 0.0
O215 O 0.90422 0.11601 0.07056 0.0
C216 C 0.90191 0.20366 0.18752 0.0
O217 O 0.89088 0.22538 0.14371 0.0
N218 N 0.88817 0.18197 0.00222 0.0
C219 C 0.89156 0.22845 0.89492 0.0
C220 C 0.90713 0.19542 0.90103 0.0
C221 C 0.90449 0.17177 0.95402 0.0
C222 C 0.87214 0.21312 -0.00437 0.0
C223 C 0.87268 0.2357 0.94099 0.0
H224 H 0.91834 0.14879 0.96038 0.0
H225 H 0.86048 0.22271 0.03521 0.0
H226 H 0.95458 0.13887 0.11428 0.0
H227 H 0.97823 0.24028 0.02292 0.0
H228 H 0.79777 0.14514 0.08054 0.0
H229 H 0.92218 0.18903 0.86676 0.0
H230 H 0.86016 0.26073 0.93762 0.0
C231 C 0.62595 0.8151 0.60685 0.0
C232 C 0.59926 0.81333 0.60712 0.0
N233 N 0.58983 0.8493 0.6024 0.0
N234 N 0.63347 0.85207 0.60191 0.0
C235 C 0.6109 0.87243 0.59971 0.0
H236 H 0.63914 0.79087 0.60915 0.0
Co237 Co 0.66885 0.86651 0.5985 0.0
C238 C 0.66857 0.93845 0.52351 0.0
O239 O 0.68637 0.92251 0.48762 0.0
N240 N 0.7056 0.88143 0.59839 0.0
C241 C 0.74862 0.88452 0.58197 0.0
C242 C 0.72473 0.87671 0.55485 0.0
C243 C 0.71878 0.89473 0.65018 0.0
N244 N 0.7448 0.89529 0.64248 0.0
O245 O 0.66678 0.87774 0.68751 0.0
H246 H 0.72207 0.86671 0.50669 0.0
H247 H 0.7097 0.90315 0.694 0.0
O248 O 0.65921 0.91963 0.57078 0.0
C249 C 0.67441 0.84529 0.70989 0.0
O250 O 0.68309 0.81913 0.67012 0.0
N251 N 0.66997 0.84739 0.51468 0.0
C252 C 0.66074 0.7952 0.4155 0.0
C253 C 0.64402 0.82662 0.42596 0.0
C254 C 0.64962 0.85324 0.47382 0.0
C255 C 0.68567 0.81601 0.50698 0.0
C256 C 0.68245 0.79114 0.45548 0.0
H257 H 0.63584 0.87607 0.48257 0.0
H258 H 0.70004 0.80889 0.54282 0.0
H259 H 0.60985 0.90336 0.595 0.0
H260 H 0.58759 0.78757 0.60952 0.0
H261 H 0.76742 0.88019 0.56023 0.0
H262 H 0.6265 0.83036 0.39783 0.0
H263 H 0.69584 0.76733 0.44969 0.0
C264 C 0.62034 0.71437 0.05559 0.0
C265 C 0.59369 0.71429 0.05435 0.0
N266 N 0.58552 0.68048 0.07745 0.0
N267 N 0.62924 0.6805 0.07862 0.0
C268 C 0.60739 0.66033 0.09191 0.0
H269 H 0.6325 0.73833 0.04253 0.0
Co270 Co 0.66498 0.67018 0.09411 0.0
C271 C 0.67047 0.59534 0.02384 0.0
O272 O 0.68567 0.61261 0.98317 0.0
N273 N 0.7017 0.65995 0.11122 0.0
C274 C 0.74459 0.65204 0.09802 0.0
C275 C 0.72101 0.65615 0.06793 0.0
C276 C 0.71461 0.65775 0.16796 0.0
N277 N 0.7406 0.6532 0.16087 0.0
O278 O 0.65666 0.66202 0.18246 0.0
H279 H 0.71869 0.65785 0.01702 0.0
H280 H 0.70544 0.66028 0.21385 0.0
O281 O 0.66037 0.61453 0.06996 0.0
C282 C 0.65889 0.69725 0.19993 0.0
O283 O 0.66837 0.72182 0.15877 0.0
N284 N 0.67228 0.68747 0.01163 0.0
C285 C 0.67233 0.74126 0.91366 0.0
C286 C 0.65882 0.7065 0.90653 0.0
C287 C 0.65845 0.6802 0.95717 0.0
C288 C 0.68623 0.72057 0.01735 0.0
C289 C 0.68636 0.74778 0.96947 0.0
H290 H 0.64545 0.6559 0.9548 0.0
H291 H 0.69578 0.72762 0.06162 0.0
H292 H 0.60747 0.63215 0.11366 0.0
H293 H 0.58115 0.73778 0.03975 0.0
H294 H 0.76337 0.6493 0.07551 0.0
H295 H 0.64744 0.70095 0.86407 0.0
H296 H 0.6967 0.77449 0.97694 0.0
C297 C 0.94254 0.3154 0.5497 0.0
C298 C 0.96922 0.31355 0.54844 0.0
N299 N 0.9786 0.34689 0.57097 0.0
N300 N 0.93495 0.34994 0.57244 0.0
C301 C 0.95751 0.36848 0.58565 0.0
H302 H 0.92937 0.29308 0.53433 0.0
Co303 Co 0.89974 0.36551 0.58208 0.0
C304 C 0.90229 0.44375 0.52662 0.0
O305 O 0.88535 0.43301 0.48356 0.0
N306 N 0.86357 0.38139 0.59477 0.0
C307 C 0.82158 0.39723 0.58058 0.0
C308 C 0.8452 0.39186 0.55141 0.0
C309 C 0.85009 0.38122 0.65045 0.0
N310 N 0.82474 0.39036 0.64282 0.0
O311 O 0.90567 0.36532 0.6716 0.0
H312 H 0.84794 0.39332 0.50067 0.0
H313 H 0.85818 0.37332 0.69606 0.0
O314 O 0.90983 0.4203 0.57028 0.0
C315 C 0.89943 0.33007 0.68067 0.0
O316 O 0.88835 0.3115 0.63325 0.0
N317 N 0.89437 0.35702 0.49502 0.0
C318 C 0.90025 0.30895 0.39068 0.0
C319 C 0.91753 0.33941 0.4011 0.0
C320 C 0.91353 0.3643 0.45199 0.0
C321 C 0.87668 0.32869 0.48355 0.0
C322 C 0.87853 0.3056 0.42986 0.0
H323 H 0.92829 0.38533 0.46227 0.0
H324 H 0.8626 0.32108 0.51926 0.0
H325 H 0.95852 0.39715 0.60537 0.0
H326 H 0.98092 0.28962 0.5321 0.0
H327 H 0.80326 0.40389 0.55753 0.0
H328 H 0.93475 0.34274 0.37226 0.0
H329 H 0.86466 0.28263 0.42288 0.0
C330 C 0.62636 0.31114 0.92479 0.0
C331 C 0.59972 0.31042 0.92759 0.0
N332 N 0.59071 0.34556 0.91256 0.0
N333 N 0.63437 0.34676 0.90887 0.0
C334 C 0.61204 0.36726 0.90146 0.0
H335 H 0.63913 0.28676 0.93179 0.0
Co336 Co 0.66974 0.35892 0.8945 0.0
C337 C 0.67359 0.43108 0.97337 0.0
O338 O 0.68896 0.41289 0.01321 0.0
N339 N 0.70593 0.37112 0.87842 0.0
C340 C 0.74866 0.38108 0.89106 0.0
C341 C 0.72548 0.3749 0.92152 0.0
C342 C 0.71823 0.37527 0.82165 0.0
N343 N 0.74405 0.38123 0.82829 0.0
O344 O 0.66065 0.37085 0.8075 0.0
H345 H 0.72358 0.37171 0.9723 0.0
H346 H 0.70886 0.37294 0.77586 0.0
O347 O 0.66408 0.4132 0.925 0.0
C348 C 0.66332 0.33666 0.78539 0.0
O349 O 0.67324 0.31021 0.82311 0.0
N350 N 0.678 0.33825 0.97481 0.0
C351 C 0.6771 0.27902 0.06419 0.0
C352 C 0.66372 0.31369 0.07547 0.0
C353 C 0.66381 0.34269 0.02916 0.0
C354 C 0.69245 0.30571 0.9658 0.0
C355 C 0.69199 0.27567 0.00923 0.0
H356 H 0.6505 0.36663 0.03393 0.0
H357 H 0.70231 0.30102 0.92125 0.0
H358 H 0.61136 0.39702 0.88661 0.0
H359 H 0.58777 0.28574 0.93823 0.0
H360 H 0.7676 0.38399 0.91312 0.0
H361 H 0.65156 0.31687 0.11701 0.0
H362 H 0.70206 0.24912 -0.00184 0.0
C363 C 0.94581 0.71949 0.43111 0.0
C364 C 0.97242 0.72242 0.42924 0.0
N365 N 0.98182 0.69161 0.39838 0.0
N366 N 0.93825 0.68633 0.40324 0.0
C367 C 0.96079 0.67045 0.38208 0.0
H368 H 0.93272 0.74079 0.4503 0.0
Co369 Co 0.90295 0.67115 0.38953 0.0
C370 C 0.92672 0.59851 0.4517 0.0
O371 O 0.94836 0.61483 0.47029 0.0
N372 N 0.86755 0.65599 0.37392 0.0
C373 C 0.82816 0.63093 0.3894 0.0
C374 C 0.85265 0.63582 0.41474 0.0
C375 C 0.85141 0.66292 0.32367 0.0
N376 N 0.82743 0.64799 0.33215 0.0
O377 O 0.91142 0.662 0.30215 0.0
H378 H 0.85898 0.62582 0.46079 0.0
H379 H 0.85683 0.67879 0.28165 0.0
O380 O 0.90964 0.61748 0.41967 0.0
C381 C 0.90739 0.69707 0.28528 0.0
O382 O 0.89715 0.72086 0.32695 0.0
N383 N 0.89409 0.68825 0.47099 0.0
C384 C 0.89056 0.74131 0.56872 0.0
C385 C 0.90685 0.70929 0.575 0.0
C386 C 0.90842 0.68292 0.52518 0.0
C387 C 0.8768 0.71804 0.46674 0.0
C388 C 0.8747 0.74496 0.51518 0.0
H389 H 0.92302 0.66093 0.52805 0.0
H390 H 0.8661 0.72312 0.4232 0.0
H391 H 0.9618 0.64378 0.3557 0.0
H392 H 0.98405 0.74552 0.44867 0.0
H393 H 0.81206 0.61616 0.41135 0.0
H394 H 0.91915 0.70579 0.6166 0.0
H395 H 0.86167 0.7693 0.50977 0.0
C396 C 0.44496 0.31458 0.93886 0.0
C397 C 0.47164 0.31247 0.94098 0.0
N398 N 0.4812 0.34385 0.91236 0.0
N399 N 0.43748 0.34771 0.91061 0.0
C400 C 0.46018 0.3644 0.89308 0.0
H401 H 0.43179 0.2929 0.95583 0.0
Co402 Co 0.40226 0.36219 0.89353 0.0
C403 C 0.42413 0.43587 0.95604 0.0
O404 O 0.44529 0.41988 0.97897 0.0
N405 N 0.36701 0.37684 0.87489 0.0
C406 C 0.32728 0.40181 0.88717 0.0
C407 C 0.35136 0.39671 0.91467 0.0
C408 C 0.35174 0.37025 0.82304 0.0
N409 N 0.32757 0.38516 0.82959 0.0
O410 O 0.41176 0.37049 0.80634 0.0
H411 H 0.3569 0.40638 0.96146 0.0
H412 H 0.35793 0.35472 0.78125 0.0
O413 O 0.40797 0.41631 0.92245 0.0
C414 C 0.40833 0.3352 0.79007 0.0
O415 O 0.39826 0.31157 0.83202 0.0
N416 N 0.39238 0.34553 0.97464 0.0
C417 C 0.38756 0.29296 0.07298 0.0
C418 C 0.40297 0.32569 0.08084 0.0
C419 C 0.40526 0.35175 0.03063 0.0
C420 C 0.37585 0.31509 0.96866 0.0
C421 C 0.37329 0.28828 0.01709 0.0
H422 H 0.41923 0.37435 0.03512 0.0
H423 H 0.36623 0.30941 0.9239 0.0
H424 H 0.46132 0.39126 0.86731 0.0
H425 H 0.48321 0.28957 0.96167 0.0
H426 H 0.31076 0.41644 0.90783 0.0
H427 H 0.41423 0.32984 0.12394 0.0
H428 H 0.36114 0.26326 0.01002 0.0
C429 C 0.1279 0.7184 0.41919 0.0
C430 C 0.10142 0.72286 0.41575 0.0
N431 N 0.0914 0.69129 0.38853 0.0
N432 N 0.13477 0.68355 0.39604 0.0
C433 C 0.11198 0.66833 0.37528 0.0
H434 H 0.14137 0.73914 0.43859 0.0
Co435 Co 0.17026 0.66639 0.39088 0.0
C436 C 0.14439 0.59002 0.43482 0.0
O437 O 0.12144 0.60381 0.44933 0.0
N438 N 0.20602 0.64908 0.3821 0.0
C439 C 0.24667 0.62766 0.39891 0.0
C440 C 0.22314 0.63672 0.42691 0.0
C441 C 0.21964 0.64542 0.32698 0.0
N442 N 0.24432 0.63329 0.33592 0.0
O443 O 0.16609 0.66239 0.30159 0.0
H444 H 0.21915 0.63512 0.47722 0.0
H445 H 0.21207 0.65209 0.2803 0.0
O446 O 0.16191 0.61178 0.41086 0.0
C447 C 0.17041 0.69797 0.28897 0.0
O448 O 0.17377 0.72214 0.33638 0.0
N449 N 0.17507 0.67841 0.47766 0.0
C450 C 0.16889 0.72978 0.57859 0.0
C451 C 0.15147 0.69937 0.56913 0.0
C452 C 0.15572 0.67282 0.52075 0.0
C453 C 0.19305 0.70655 0.48799 0.0
C454 C 0.19098 0.73141 0.53995 0.0
H455 H 0.14092 0.6519 0.51249 0.0
H456 H 0.20767 0.71236 0.4526 0.0
H457 H 0.11038 0.64086 0.35152 0.0
H458 H 0.09023 0.74694 0.43354 0.0
H459 H 0.2643 0.61872 0.42306 0.0
H460 H 0.13395 0.69701 0.59714 0.0
H461 H 0.20521 0.75395 0.54624 0.0
C462 C 0.44047 0.71849 0.10197 0.0
C463 C 0.46719 0.72016 0.10207 0.0
N464 N 0.47656 0.68404 0.1031 0.0
N465 N 0.43289 0.68142 0.10265 0.0
C466 C 0.45544 0.66099 0.10415 0.0
H467 H 0.42731 0.74277 0.09996 0.0
Co468 Co 0.39766 0.66592 0.09916 0.0
C469 C 0.40039 0.59295 0.02845 0.0
O470 O 0.38353 0.60761 0.98817 0.0
N471 N 0.36124 0.64946 0.09859 0.0
C472 C 0.31856 0.6425 0.07914 0.0
C473 C 0.34243 0.6511 0.05314 0.0
C474 C 0.34801 0.63708 0.15059 0.0
N475 N 0.32212 0.63429 0.14095 0.0
O476 O 0.39964 0.65716 0.18868 0.0
H477 H 0.34528 0.6595 0.00428 0.0
H478 H 0.35694 0.63081 0.19587 0.0
O479 O 0.40813 0.6127 0.07647 0.0
C480 C 0.39182 0.69022 0.2078 0.0
O481 O 0.38331 0.71508 0.16538 0.0
N482 N 0.39628 0.68294 0.01408 0.0
C483 C 0.40543 0.73497 0.91513 0.0
C484 C 0.42238 0.70394 0.92657 0.0
C485 C 0.41678 0.67729 0.97413 0.0
C486 C 0.38001 0.71353 0.00458 0.0
C487 C 0.38327 0.73835 0.95317 0.0
H488 H 0.43072 0.65492 0.98367 0.0
H489 H 0.36528 0.72034 0.0393 0.0
H490 H 0.45646 0.62995 0.10477 0.0
H491 H 0.47891 0.7459 0.10021 0.0
H492 H 0.29988 0.64453 0.05549 0.0
H493 H 0.44015 0.70065 0.89973 0.0
H494 H 0.36965 0.76181 0.94629 0.0
C495 C 0.12368 0.31344 0.55533 0.0
C496 C 0.09701 0.31281 0.55229 0.0
N497 N 0.08804 0.34722 0.57135 0.0
N498 N 0.13171 0.34825 0.57573 0.0
C499 C 0.10939 0.36834 0.58534 0.0
H500 H 0.13646 0.28957 0.54494 0.0
Co501 Co 0.16711 0.36116 0.58957 0.0
C502 C 0.16935 0.43532 0.51832 0.0
O503 O 0.18746 0.42114 0.48154 0.0
N504 N 0.20348 0.37406 0.60481 0.0
C505 C 0.24626 0.38243 0.59088 0.0
C506 C 0.22269 0.37754 0.56118 0.0
C507 C 0.21645 0.37728 0.66126 0.0
N508 N 0.24235 0.38205 0.65377 0.0
O509 O 0.15898 0.37037 0.67725 0.0
H510 H 0.22039 0.37446 0.51042 0.0
H511 H 0.2075 0.37479 0.70734 0.0
O512 O 0.15969 0.41501 0.56326 0.0
C513 C 0.16275 0.33562 0.69557 0.0
O514 O 0.17318 0.31126 0.65522 0.0
N515 N 0.17443 0.34389 0.50778 0.0
C516 C 0.17384 0.29107 0.40942 0.0
C517 C 0.15963 0.32535 0.40411 0.0
C518 C 0.15986 0.35139 0.45465 0.0
C519 C 0.18906 0.31114 0.51186 0.0
C520 C 0.18901 0.28429 0.46327 0.0
H521 H 0.14656 0.3754 0.45354 0.0
H522 H 0.19938 0.30422 0.55523 0.0
H523 H 0.10875 0.3975 0.60315 0.0
H524 H 0.08504 0.28869 0.53842 0.0
H525 H 0.26502 0.38459 0.56815 0.0
H526 H 0.14747 0.33085 0.36286 0.0
H527 H 0.20006 0.25789 0.46841 0.0
C528 C 0.27044 0.17537 0.2172 0.0
C529 C 0.25992 0.13995 0.19612 0.0
C530 C 0.28977 0.10564 0.26904 0.0
C531 C 0.29863 0.14124 0.2937 0.0
N532 N 0.29371 0.20973 0.30019 0.0
N533 N 0.25711 0.07146 0.20689 0.0
C534 C 0.2879 0.17606 0.27017 0.0
C535 C 0.26897 0.10503 0.22342 0.0
N536 N 0.26452 0.20822 0.1847 0.0
N537 N 0.30175 0.07253 0.28824 0.0
H538 H 0.24197 0.07043 0.17371 0.0
H539 H 0.26091 0.04527 0.22904 0.0
H540 H 0.31677 0.07239 0.32177 0.0
H541 H 0.29811 0.04577 0.26804 0.0
H542 H 0.27336 0.23454 0.19372 0.0
H543 H 0.2525 0.20823 0.14458 0.0
H544 H 0.2847 0.2358 0.28939 0.0
H545 H 0.30583 0.21078 0.34007 0.0
C546 C 0.27783 0.85034 0.78864 0.0
C547 C 0.26261 0.88427 0.793 0.0
C548 C 0.29302 0.91744 0.72211 0.0
C549 C 0.3068 0.88258 0.71297 0.0
N550 N 0.31089 0.81464 0.73106 0.0
N551 N 0.2536 0.94884 0.75902 0.0
C552 C 0.29892 0.84869 0.74487 0.0
C553 C 0.26974 0.91759 0.75857 0.0
N554 N 0.27242 0.8201 0.82768 0.0
N555 N 0.30259 0.95047 0.69636 0.0
H556 H 0.23631 0.94939 0.78463 0.0
H557 H 0.2562 0.97291 0.73044 0.0
H558 H 0.31969 0.95086 0.66991 0.0
H559 H 0.29496 0.97765 0.70538 0.0
H560 H 0.28419 0.79582 0.83173 0.0
H561 H 0.25706 0.82065 0.85982 0.0
H562 H 0.30443 0.78812 0.74736 0.0
H563 H 0.32638 0.81264 0.69946 0.0
C564 C 0.7754 0.93156 0.71181 0.0
C565 C 0.7642 0.8962 0.69281 0.0
C566 C 0.78938 0.86261 0.77595 0.0
C567 C 0.80203 0.89743 0.79184 0.0
N568 N 0.80895 0.96453 0.77316 0.0
N569 N 0.76232 0.82735 0.70128 0.0
C570 C 0.79548 0.93185 0.75927 0.0
C571 C 0.77178 0.86149 0.72334 0.0
N572 N 0.76649 0.96475 0.68467 0.0
N573 N 0.7937 0.83085 0.81274 0.0
H574 H 0.74843 0.82564 0.66514 0.0
H575 H 0.76916 0.80064 0.71629 0.0
H576 H 0.80657 0.83085 0.85121 0.0
H577 H 0.7833 0.8054 0.80826 0.0
H578 H 0.77199 0.99208 0.69945 0.0
H579 H 0.75228 0.96481 0.64905 0.0
H580 H 0.80704 0.99009 0.74791 0.0
H581 H 0.82321 0.96532 0.80862 0.0
C582 C 0.77816 0.18283 0.29753 0.0
C583 C 0.76221 0.14987 0.30303 0.0
C584 C 0.7894 0.11661 0.22411 0.0
C585 C 0.8037 0.15074 0.21381 0.0
N586 N 0.80945 0.21818 0.23431 0.0
N587 N 0.74964 0.08792 0.26276 0.0
C588 C 0.79758 0.18437 0.24914 0.0
C589 C 0.7671 0.11733 0.26407 0.0
N590 N 0.77498 0.21233 0.33959 0.0
N591 N 0.79758 0.08324 0.19644 0.0
H592 H 0.73263 0.0882 0.28943 0.0
H593 H 0.75067 0.06514 0.23075 0.0
H594 H 0.8141 0.08188 0.16797 0.0
H595 H 0.78957 0.0565 0.20654 0.0
H596 H 0.78749 0.23571 0.34255 0.0
H597 H 0.76092 0.21177 0.37512 0.0
H598 H 0.80409 0.24457 0.25363 0.0
H599 H 0.82341 0.2203 0.19876 0.0
C600 C 0.77412 0.61634 0.21961 0.0
C601 C 0.76083 0.65151 0.20892 0.0
C602 C 0.79066 0.68396 0.28319 0.0
C603 C 0.80528 0.64954 0.28941 0.0
N604 N 0.81307 0.5841 0.25871 0.0
N605 N 0.75789 0.71981 0.22388 0.0
C606 C 0.7975 0.61595 0.2564 0.0
C607 C 0.76942 0.68563 0.23924 0.0
N608 N 0.76396 0.58327 0.19518 0.0
N609 N 0.79674 0.71468 0.32073 0.0
H610 H 0.74227 0.72177 0.19223 0.0
H611 H 0.76482 0.74637 0.23894 0.0
H612 H 0.81224 0.71416 0.35292 0.0
H613 H 0.78542 0.73947 0.32349 0.0
H614 H 0.7712 0.55598 0.20532 0.0
H615 H 0.74677 0.58303 0.16858 0.0
H616 H 0.80999 0.55962 0.23131 0.0
H617 H 0.83038 0.58334 0.28474 0.0
C618 C 0.79288 0.352 0.70343 0.0
C619 C 0.80434 0.38801 0.68965 0.0
C620 C 0.77384 0.41991 0.76237 0.0
C621 C 0.76348 0.38364 0.77907 0.0
N622 N 0.76458 0.31481 0.77207 0.0
N623 N 0.80778 0.45574 0.70826 0.0
C624 C 0.77336 0.34955 0.75113 0.0
C625 C 0.7953 0.42191 0.71976 0.0
N626 N 0.80036 0.32038 0.66955 0.0
N627 N 0.76266 0.45235 0.78675 0.0
H628 H 0.82333 0.45767 0.67682 0.0
H629 H 0.80389 0.48128 0.73218 0.0
H630 H 0.74704 0.45131 0.81809 0.0
H631 H 0.76762 0.48012 0.77324 0.0
H632 H 0.79116 0.29386 0.67227 0.0
H633 H 0.81488 0.32135 0.63524 0.0
H634 H 0.77265 0.28856 0.75878 0.0
H635 H 0.75012 0.31232 0.80631 0.0
C636 C 0.27602 0.41791 0.71293 0.0
C637 C 0.26258 0.38311 0.70176 0.0
C638 C 0.29144 0.34991 0.77771 0.0
C639 C 0.30614 0.384 0.78488 0.0
N640 N 0.31471 0.44918 0.75462 0.0
N641 N 0.25919 0.31481 0.71627 0.0
C642 C 0.29898 0.41774 0.75122 0.0
C643 C 0.27069 0.34875 0.73246 0.0
N644 N 0.26635 0.45121 0.68768 0.0
N645 N 0.29696 0.31906 0.81562 0.0
H646 H 0.244 0.31314 0.68338 0.0
H647 H 0.26583 0.28811 0.7318 0.0
H648 H 0.31216 0.31919 0.84867 0.0
H649 H 0.28547 0.29456 0.81773 0.0
H650 H 0.27369 0.47832 0.6981 0.0
H651 H 0.24949 0.45187 0.65989 0.0
H652 H 0.31212 0.47372 0.727 0.0
H653 H 0.3317 0.44951 0.78194 0.0
C654 C 0.27255 0.59788 0.25958 0.0
C655 C 0.26476 0.63284 0.28863 0.0
C656 C 0.29316 0.66862 0.21623 0.0
C657 C 0.30233 0.63358 0.18988 0.0
N658 N 0.30302 0.56472 0.18975 0.0
N659 N 0.27168 0.70026 0.30452 0.0
C660 C 0.29267 0.59808 0.2127 0.0
C661 C 0.27618 0.6679 0.26952 0.0
N662 N 0.26019 0.56474 0.27602 0.0
N663 N 0.3006 0.70269 0.18994 0.0
H664 H 0.25992 0.70021 0.34477 0.0
H665 H 0.28122 0.72618 0.29715 0.0
H666 H 0.31405 0.70442 0.15319 0.0
H667 H 0.29236 0.72905 0.20209 0.0
H668 H 0.26307 0.53856 0.25317 0.0
H669 H 0.24578 0.5641 0.31071 0.0
H670 H 0.29874 0.53766 0.20783 0.0
H671 H 0.31718 0.56449 0.15441 0.0
C672 C 1.01524 0.18957 0.13715 0.0
C673 C 1.00244 0.17678 0.08116 0.0
C674 C 0.04456 0.1625 0.03193 0.0
C675 C 0.05742 0.17698 0.08669 0.0
N676 N 0.05607 0.19803 0.19499 0.0
N677 N 1.00379 0.14462 0.98062 0.0
C678 C 0.04298 0.18816 0.1408 0.0
C679 C 1.01687 0.16083 0.03044 0.0
N680 N 1.00074 0.20473 0.18525 0.0
N681 N 0.059 0.15231 0.98026 0.0
H682 H 0.98354 0.14389 0.97865 0.0
H683 H 1.01269 0.12975 0.94371 0.0
H684 H 0.07926 0.15259 0.98094 0.0
H685 H 0.05117 0.14506 0.93619 0.0
H686 H 1.0085 0.21794 0.22539 0.0
H687 H 0.98047 0.20505 0.18384 0.0
H688 H 0.04717 0.20431 0.23804 0.0
H689 H 0.07633 0.19754 0.19764 0.0
C690 C 0.55062 0.86318 0.5372 0.0
C691 C 0.56255 0.85919 0.59776 0.0
C692 C 0.5196 0.85578 0.64794 0.0
C693 C 0.50767 0.85899 0.58724 0.0
N694 N 0.51083 0.87403 0.47644 0.0
N695 N 0.55918 0.86065 0.7112 0.0
C696 C 0.52299 0.86563 0.53262 0.0
C697 C 0.54716 0.85862 0.65335 0.0
N698 N 0.56574 0.8625 0.48407 0.0
N699 N 0.50467 0.84773 0.69968 0.0
H700 H 0.57929 0.8632 0.71535 0.0
H701 H 0.54934 0.86332 0.75409 0.0
H702 H 0.48449 0.84588 0.69712 0.0
H703 H 0.51225 0.84081 0.74423 0.0
H704 H 0.55836 0.8612 0.43796 0.0
H705 H 0.58597 0.86126 0.48644 0.0
H706 H 0.52057 0.88213 0.43535 0.0
H707 H 0.49063 0.87592 0.47272 0.0
C708 C 1.01784 0.84134 0.82916 0.0
C709 C 1.00372 0.85067 0.8847 0.0
C710 C 0.04454 0.86396 0.94167 0.0
C711 C 0.05869 0.85018 0.88872 0.0
N712 N 0.05988 0.82722 0.78132 0.0
N713 N 1.00261 0.87178 -0.00679 0.0
C714 C 0.0456 0.8399 0.83172 0.0
C715 C 1.01685 0.86293 0.94052 0.0
N716 N 1.00441 0.83328 0.77462 0.0
N717 N 0.05789 0.87764 -0.00685 0.0
H718 H 0.98234 0.87228 -0.00731 0.0
H719 H 1.01054 0.8774 0.03781 0.0
H720 H 0.07814 0.87783 -0.00495 0.0
H721 H 0.04927 0.89084 0.0321 0.0
H722 H 1.01301 0.82816 0.73078 0.0
H723 H 0.98415 0.83382 0.77275 0.0
H724 H 0.05198 0.8161 0.73964 0.0
H725 H 0.08013 0.82711 0.78204 0.0
C726 C 0.54077 0.18303 0.31488 0.0
C727 C 0.55626 0.17578 0.36955 0.0
C728 C 0.51675 0.16393 0.43152 0.0
C729 C 0.50139 0.17655 0.37942 0.0
N730 N 0.49793 0.19816 0.27151 0.0
N731 N 0.5595 0.16092 0.48084 0.0
C732 C 0.51317 0.18546 0.32059 0.0
C733 C 0.54436 0.1659 0.42793 0.0
N734 N 0.55276 0.18803 0.25785 0.0
N735 N 0.50466 0.15052 0.48466 0.0
H736 H 0.57971 0.16211 0.47942 0.0
H737 H 0.55217 0.15782 0.52656 0.0
H738 H 0.48446 0.14945 0.48823 0.0
H739 H 0.51438 0.13773 0.52273 0.0
H740 H 0.543 0.19086 0.21464 0.0
H741 H 0.57289 0.18647 0.25373 0.0
H742 H 0.50513 0.20875 0.22887 0.0
H743 H 0.47773 0.19958 0.27479 0.0
C744 C 0.51965 0.67773 0.15452 0.0
C745 C 0.50378 0.6736 0.09973 0.0
C746 C 0.54271 0.6612 0.03554 0.0
C747 C 0.55857 0.67103 0.08825 0.0
N748 N 0.56283 0.68925 0.19787 0.0
N749 N 0.49954 0.6618 0.98768 0.0
C750 C 0.54722 0.67879 0.14816 0.0
C751 C 0.51513 0.66471 0.0402 0.0
N752 N 0.50807 0.6807 0.21251 0.0
N753 N 0.55433 0.649 0.98092 0.0
H754 H 0.47937 0.66399 0.99014 0.0
H755 H 0.50648 0.65913 0.94151 0.0
H756 H 0.57449 0.64657 0.97716 0.0
H757 H 0.54424 0.63855 0.94159 0.0
H758 H 0.51817 0.68095 0.2555 0.0
H759 H 0.48794 0.67962 0.21742 0.0
H760 H 0.55589 0.69947 0.2411 0.0
H761 H 0.58303 0.68934 0.19466 0.0
C762 C 0.04697 0.36939 0.52186 0.0
C763 C 0.06083 0.3572 0.57672 0.0
C764 C 1.01969 0.34609 0.63255 0.0
C765 C 1.00585 0.35629 0.57658 0.0
N766 N 1.00511 0.38374 0.47213 0.0
N767 N 0.06142 0.34106 0.68744 0.0
C768 C 1.01923 0.37027 0.52266 0.0
C769 C 0.0474 0.34815 0.63337 0.0
N770 N 0.06059 0.3784 0.46838 0.0
N771 N 1.00618 0.33271 0.68362 0.0
H772 H 0.08165 0.34245 0.68841 0.0
H773 H 0.05325 0.3365 0.73191 0.0
H774 H 0.98592 0.3319 0.68417 0.0
H775 H 1.01476 0.32125 0.72434 0.0
H776 H 0.05214 0.38436 0.42443 0.0
H777 H 0.08086 0.37894 0.46789 0.0
H778 H 1.01316 0.39671 0.43233 0.0
H779 H 0.98484 0.38389 0.47191 0.0
C780 C 0.52219 0.3463 0.85085 0.0
C781 C 0.50847 0.35342 0.90795 0.0
C782 C 0.54972 0.36446 0.96452 0.0
C783 C 0.56346 0.35564 0.90823 0.0
N784 N 0.56367 0.34594 0.79547 0.0
N785 N 0.50807 0.37661 0.01527 0.0
C786 C 0.54986 0.34937 0.85041 0.0
C787 C 0.522 0.3651 0.96354 0.0
N788 N 0.50872 0.33462 0.79822 0.0
N789 N 0.56342 0.37048 0.0194 0.0
H790 H 0.4878 0.37696 0.01526 0.0
H791 H 0.5163 0.38823 0.05623 0.0
H792 H 0.58368 0.37149 0.02024 0.0
H793 H 0.55501 0.37317 0.06405 0.0
H794 H 0.51739 0.32514 0.75647 0.0
H795 H 0.48851 0.3329 0.79737 0.0
H796 H 0.55529 0.34382 0.75049 0.0
H797 H 0.58386 0.34826 0.79473 0.0
C798 C 1.0236 0.66914 0.44308 0.0
C799 C 1.0091 0.68283 0.39024 0.0
C800 C 0.04954 0.69173 0.33016 0.0
C801 C 0.06402 0.68245 0.38556 0.0
N802 N 0.0659 0.66093 0.49383 0.0
N803 N 1.00715 0.70512 0.28248 0.0
C804 C 0.05128 0.67008 0.4415 0.0
C805 C 1.02179 0.69292 0.33295 0.0
N806 N 1.0106 0.65557 0.49482 0.0
N807 N 0.06262 0.7 0.27555 0.0
H808 H 0.98691 0.70489 0.2833 0.0
H809 H 1.01471 0.71596 0.24043 0.0
H810 H 0.08288 0.69963 0.27351 0.0
H811 H 0.05377 0.70528 0.23185 0.0
H812 H 1.01946 0.64253 0.53382 0.0
H813 H 0.99037 0.6554 0.49702 0.0
H814 H 0.05831 0.65514 0.53851 0.0
H815 H 0.08615 0.6602 0.49289 0.0
C816 C 0.1475 0.04392 0.94684 0.0
C817 C 0.14781 0.05147 0.01337 0.0
C818 C 0.15353 0.98255 0.03312 0.0
C819 C 0.14788 0.97478 0.9681 0.0
N820 N 0.13891 0.99806 0.86244 0.0
N821 N 0.15062 0.02777 0.12077 0.0
C822 C 0.14502 1.00549 0.92455 0.0
C823 C 0.15106 0.02075 0.05686 0.0
N824 N 0.15039 0.07353 0.90497 0.0
N825 N 0.162 0.95352 0.07168 0.0
H826 H 0.14949 0.05542 0.1397 0.0
H827 H 0.14976 1.00612 0.15487 0.0
H828 H 0.16545 0.92595 0.05446 0.0
H829 H 0.1685 0.95771 0.11814 0.0
H830 H 0.15254 0.06974 0.85615 0.0
H831 H 0.15377 0.10151 0.92009 0.0
H832 H 0.13343 0.01931 0.83011 0.0
H833 H 0.13775 0.97026 0.8441 0.0
C834 C 0.38699 1.00686 0.52896 0.0
C835 C 0.40478 0.97664 0.51594 0.0
C836 C 0.42969 0.01998 0.44732 0.0
C837 C 0.41291 0.05101 0.46352 0.0
N838 N 0.37936 0.0754 0.53307 0.0
N839 N 0.44604 0.95641 0.47404 0.0
C840 C 0.39251 0.04487 0.50787 0.0
C841 C 0.42715 0.98391 0.47891 0.0
N842 N 0.36464 0.9992 0.56135 0.0
N843 N 0.44733 0.02441 0.39953 0.0
H844 H 0.44489 0.93001 0.49721 0.0
H845 H 0.46395 0.96118 0.4527 0.0
H846 H 0.44913 0.04985 0.37371 0.0
H847 H 0.45832 1.00186 0.38114 0.0
H848 H 0.3493 0.01869 0.56492 0.0
H849 H 0.36083 0.9725 0.58182 0.0
H850 H 0.36632 0.07295 0.57053 0.0
H851 H 0.38326 0.10376 0.52118 0.0
C852 C 0.89395 0.98478 0.00769 0.0
C853 C 0.91512 0.98031 0.96486 0.0
C854 C 0.92705 0.04778 0.98397 0.0
C855 C 0.90366 0.05357 0.01814 0.0
N856 N 0.8637 0.0281 0.05934 0.0
N857 N 0.94979 1.00951 0.90544 0.0
C858 C 0.88677 0.02217 0.02889 0.0
C859 C 0.93122 1.01234 0.95147 0.0
N860 N 0.88164 0.95326 0.0315 0.0
N861 N 0.94539 0.07597 0.98282 0.0
H862 H 0.95287 0.98453 0.87907 0.0
H863 H 0.96032 0.03294 0.88893 0.0
H864 H 0.94325 0.10166 0.00754 0.0
H865 H 0.96382 0.07217 0.96356 0.0
H866 H 0.86799 0.95461 0.0678 0.0
H867 H 0.88694 0.92532 0.02003 0.0
H868 H 0.84899 1.00764 0.06089 0.0
H869 H 0.85872 0.05427 0.08036 0.0
C870 C 0.64738 0.02443 0.42211 0.0
C871 C 0.64849 0.05483 0.4668 0.0
C872 C 0.6626 1.00909 0.54998 0.0
C873 C 0.65951 0.97816 0.50645 0.0
N874 N 0.64465 0.95585 0.40381 0.0
N875 N 0.65438 0.0762 0.57502 0.0
C876 C 0.65077 0.98576 0.4432 0.0
C877 C 0.65514 0.0471 0.53135 0.0
N878 N 0.6433 0.03252 0.35919 0.0
N879 N 0.67414 1.00264 0.60776 0.0
H880 H 0.65082 0.10479 0.56272 0.0
H881 H 0.65577 0.07175 0.62388 0.0
H882 H 0.68009 0.9755 0.6231 0.0
H883 H 0.67978 0.02451 0.6386 0.0
H884 H 0.64537 1.01232 0.32304 0.0
H885 H 0.63975 0.06025 0.34231 0.0
H886 H 0.63543 0.95922 0.35996 0.0
H887 H 0.64655 0.92721 0.41725 0.0
C888 C 0.69327 0.53229 0.01735 0.0
C889 C 0.66931 0.55243 0.0195 0.0
C890 C 0.64672 0.49215 -0.00821 0.0
C891 C 0.67112 0.47373 0.98184 0.0
N892 N 0.71745 0.48044 0.96935 0.0
N893 N 0.62305 0.55264 0.00176 0.0
C894 C 0.69432 0.49509 0.99008 0.0
C895 C 0.64588 0.53265 0.00498 0.0
N896 N 0.7151 0.54846 0.04291 0.0
N897 N 0.6245 0.47089 0.99086 0.0
H898 H 0.62178 0.58186 0.01248 0.0
H899 H 0.60579 0.54084 0.98479 0.0
H900 H 0.62446 0.44149 0.9812 0.0
H901 H 0.60644 0.48178 0.00409 0.0
H902 H 0.73264 0.53366 0.04779 0.0
H903 H 0.71478 0.57497 0.06601 0.0
H904 H 0.73459 0.49627 0.96894 0.0
H905 H 0.71885 0.45425 0.94553 0.0
C906 C 0.93481 0.49144 0.48815 0.0
C907 C 0.91174 0.48385 0.52224 0.0
C908 C 0.90047 0.55236 0.51834 0.0
C909 C 0.92121 0.55888 0.47522 0.0
N910 N 0.95727 0.53374 0.41516 0.0
N911 N 0.87167 0.50632 0.56774 0.0
C912 C 0.93834 0.52821 0.45955 0.0
C913 C 0.89437 0.51418 0.53698 0.0
N914 N 0.95335 0.46344 0.48333 0.0
N915 N 0.8874 0.58268 0.54425 0.0
H916 H 0.86743 0.4792 0.58608 0.0
H917 H 0.85657 0.52614 0.57223 0.0
H918 H 0.89171 0.61102 0.53335 0.0
H919 H 0.87403 0.57996 0.58095 0.0
H920 H 0.97163 0.46788 0.46378 0.0
H921 H 0.95136 0.43678 0.50523 0.0
H922 H 0.96865 0.51161 0.39681 0.0
H923 H 0.96018 0.56 0.39243 0.0
C924 C 0.43538 0.50622 0.95975 0.0
C925 C 0.41804 0.47613 0.97583 0.0
C926 C 0.39038 0.52256 0.03248 0.0
C927 C 0.40835 0.5522 0.01898 0.0
N928 N 0.45076 0.57061 0.98264 0.0
N929 N 0.38311 0.45428 0.0427 0.0
C930 C 0.43177 0.54347 0.98669 0.0
C931 C 0.39661 0.4839 0.01633 0.0
N932 N 0.45476 0.49955 0.91691 0.0
N933 N 0.36718 0.53136 0.06042 0.0
H934 H 0.38775 0.42564 0.03434 0.0
H935 H 0.3691 0.45798 0.07771 0.0
H936 H 0.36261 0.55884 0.0769 0.0
H937 H 0.35193 0.51191 0.06398 0.0
H938 H 0.46635 0.52117 0.89813 0.0
H939 H 0.45781 0.47282 0.89569 0.0
H940 H 0.46924 0.56513 0.96484 0.0
H941 H 0.44892 0.59757 0.00351 0.0
C942 C 0.13439 0.51922 0.44063 0.0
C943 C 0.15097 0.5503 0.45706 0.0
C944 C 0.1784 0.50592 0.51951 0.0
C945 C 0.16094 0.47555 0.50612 0.0
N946 N 0.11951 0.45483 0.46543 0.0
N947 N 0.18485 0.57448 0.52637 0.0
C948 C 0.13796 0.48276 0.4705 0.0
C949 C 0.17198 0.54402 0.50029 0.0
N950 N 0.11594 0.52404 0.39425 0.0
N951 N 0.2013 0.49835 0.55042 0.0
H952 H 0.18017 0.60288 0.51622 0.0
H953 H 0.19839 0.5718 0.56311 0.0
H954 H 0.20586 0.47146 0.56951 0.0
H955 H 0.21635 0.51818 0.55397 0.0
H956 H 0.10501 0.50155 0.37558 0.0
H957 H 0.11327 0.54988 0.36989 0.0
H958 H 0.10125 0.4594 0.4452 0.0
H959 H 0.12148 0.4281 0.48728 0.0
C960 C 0.14337 0.28189 0.75072 0.0
C961 C 0.15403 0.31895 0.75654 0.0
C962 C 0.1656 0.30279 0.86615 0.0
C963 C 0.16242 0.26288 0.85154 0.0
N964 N 0.15424 0.21582 0.76854 0.0
N965 N 0.17512 0.36589 0.82277 0.0
C966 C 0.15274 0.25265 0.79067 0.0
C967 C 0.16494 0.33009 0.81547 0.0
N968 N 0.12572 0.27428 0.70409 0.0
N969 N 0.16793 0.31487 0.92764 0.0
H970 H 0.17341 0.38688 0.78757 0.0
H971 H 0.1859 0.37389 0.86272 0.0
H972 H 0.16597 0.29636 0.96627 0.0
H973 H 0.16858 0.34384 0.94011 0.0
H974 H 0.11682 0.24755 0.69918 0.0
H975 H 0.11795 0.29645 0.67666 0.0
H976 H 0.14864 0.20842 0.72239 0.0
H977 H 0.16406 0.19403 0.79294 0.0
C978 C 0.41729 0.74239 0.35137 0.0
C979 C 0.39423 0.7635 0.36459 0.0
C980 C 0.3696 0.71933 0.29853 0.0
C981 C 0.39288 0.70366 0.2744 0.0
N982 N 0.43958 0.70031 0.27744 0.0
N983 N 0.34883 0.77548 0.3422 0.0
C984 C 0.417 0.71475 0.30139 0.0
C985 C 0.37045 0.75287 0.33585 0.0
N986 N 0.43916 0.74802 0.38726 0.0
N987 N 0.34659 0.70178 0.28613 0.0
H988 H 0.34887 0.80132 0.36738 0.0
H989 H 0.33166 0.77053 0.31702 0.0
H990 H 0.34586 0.67585 0.2619 0.0
H991 H 0.32922 0.71003 0.30748 0.0
H992 H 0.45567 0.73077 0.38368 0.0
H993 H 0.44004 0.76787 0.42435 0.0
H994 H 0.4578 0.7111 0.28952 0.0
H995 H 0.43989 0.67846 0.24355 0.0
C996 C 0.15821 0.73408 0.12104 0.0
C997 C 0.17755 0.76302 0.11935 0.0
C998 C 0.19689 0.73797 0.21663 0.0
C999 C 0.17508 0.7133 0.2245 0.0
N1000 N 0.13388 0.68954 0.18604 0.0
N1001 N 0.21439 0.79475 0.16661 0.0
C1002 C 0.15564 0.71114 0.17661 0.0
C1003 C 0.19688 0.76522 0.1669 0.0
N1004 N 0.14238 0.7286 0.06949 0.0
N1005 N 0.21762 0.73574 0.25733 0.0
H1006 H 0.21545 0.81501 0.13019 0.0
H1007 H 0.22665 0.80105 0.20473 0.0
H1008 H 0.21806 0.71798 0.29697 0.0
H1009 H 0.23524 0.7494 0.24913 0.0
H1010 H 0.12959 0.70563 0.0653 0.0
H1011 H 0.14373 0.74517 0.02835 0.0
H1012 H 0.11759 0.69079 0.15653 0.0
H1013 H 0.13133 0.67203 0.22566 0.0
C1014 C 0.42532 0.27924 0.73455 0.0
C1015 C 0.41583 0.31724 0.72879 0.0
C1016 C 0.40369 0.30194 0.6191 0.0
C1017 C 0.40557 0.26178 0.63338 0.0
N1018 N 0.41253 0.21405 0.71608 0.0
N1019 N 0.39549 0.36542 0.66282 0.0
C1020 C 0.41519 0.25074 0.69406 0.0
C1021 C 0.40511 0.32913 0.6699 0.0
N1022 N 0.44222 0.26997 0.78227 0.0
N1023 N 0.40172 0.31427 0.55768 0.0
H1024 H 0.39724 0.38621 0.69824 0.0
H1025 H 0.38489 0.37397 0.62282 0.0
H1026 H 0.40311 0.29564 0.51902 0.0
H1027 H 0.402 0.34329 0.54536 0.0
H1028 H 0.45045 0.24264 0.78679 0.0
H1029 H 0.44986 0.29099 0.81226 0.0
H1030 H 0.41792 0.20609 0.76214 0.0
H1031 H 0.40187 0.19317 0.69195 0.0
C1032 C 0.90452 0.70264 0.16514 0.0
C1033 C 0.91501 0.71475 0.22408 0.0
C1034 C 0.91478 0.78097 0.18826 0.0
C1035 C 0.90566 0.76964 0.12745 0.0
N1036 N 0.90143 0.71684 0.05259 0.0
N1037 N 0.94119 0.76202 0.27755 0.0
C1038 C 0.90346 0.72949 0.11382 0.0
C1039 C 0.92451 0.75265 0.22962 0.0
N1040 N 0.89474 0.66652 0.15855 0.0
N1041 N 0.91222 0.81795 0.20919 0.0
H1042 H 0.94871 0.74105 0.30782 0.0
H1043 H 0.94947 0.78922 0.28181 0.0
H1044 H 0.90206 0.83897 0.1838 0.0
H1045 H 0.91722 0.82619 0.25535 0.0
H1046 H 0.88429 0.65789 0.11845 0.0
H1047 H 0.89616 0.64599 0.19452 0.0
H1048 H 0.90153 0.68776 0.04072 0.0
H1049 H 0.90284 0.73522 0.01361 0.0
C1050 C 0.64875 0.25877 0.67897 0.0
C1051 C 0.65898 0.27074 0.61975 0.0
C1052 C 0.66531 0.33553 0.6648 0.0
C1053 C 0.65406 0.32292 0.72233 0.0
N1054 N 0.62413 0.27901 0.77003 0.0
N1055 N 0.66858 0.32482 0.55111 0.0
C1056 C 0.64165 0.28688 0.72368 0.0
C1057 C 0.66474 0.31055 0.61076 0.0
N1058 N 0.64763 0.22078 0.69511 0.0
N1059 N 0.67697 0.37055 0.66203 0.0
H1060 H 0.66645 0.30812 0.51026 0.0
H1061 H 0.67095 0.35402 0.54199 0.0
H1062 H 0.67593 0.39018 0.69941 0.0
H1063 H 0.6882 0.3793 0.62359 0.0
H1064 H 0.64185 0.21158 0.74005 0.0
H1065 H 0.65556 0.19902 0.66709 0.0
H1066 H 0.61362 0.25345 0.7715 0.0
H1067 H 0.61807 0.30037 0.8013 0.0
C1068 C 0.89946 0.29627 0.85431 0.0
C1069 C 0.89606 0.25622 0.84221 0.0
C1070 C 0.90763 0.26759 0.73238 0.0
C1071 C 0.90398 0.30776 0.74015 0.0
N1072 N 0.89451 0.36051 0.81185 0.0
N1073 N 0.89087 0.20617 0.76315 0.0
C1074 C 0.89953 0.32245 0.80215 0.0
C1075 C 0.89847 0.24245 0.77934 0.0
N1076 N 0.90378 0.30923 0.91472 0.0
N1077 N 0.91993 0.25335 0.68014 0.0
H1078 H 0.88176 0.18766 0.79493 0.0
H1079 H 0.89081 0.19648 0.71619 0.0
H1080 H 0.9287 0.27132 0.64714 0.0
H1081 H 0.92421 0.2242 0.6747 0.0
H1082 H 0.90842 0.33773 0.92478 0.0
H1083 H 0.90583 0.29085 0.95357 0.0
H1084 H 0.88826 0.37121 0.85551 0.0
H1085 H 0.89499 0.38102 0.77594 0.0
C1086 C 0.65786 0.72604 0.37459 0.0
C1087 C 0.65539 0.7665 0.36368 0.0
C1088 C 0.63986 0.75169 0.25715 0.0
C1089 C 0.65008 0.71399 0.26142 0.0
N1090 N 0.66875 0.66435 0.3275 0.0
N1091 N 0.64966 0.81684 0.28468 0.0
C1092 C 0.65883 0.70052 0.32136 0.0
C1093 C 0.64757 0.77922 0.3024 0.0
N1094 N 0.65826 0.71187 0.43508 0.0
N1095 N 0.62401 0.76161 0.20769 0.0
H1096 H 0.65866 0.83757 0.31284 0.0
H1097 H 0.64562 0.82612 0.23847 0.0
H1098 H 0.61754 0.74111 0.17524 0.0
H1099 H 0.61516 0.78856 0.2042 0.0
H1100 H 0.65825 0.68252 0.44498 0.0
H1101 H 0.6554 0.72928 0.47483 0.0
H1102 H 0.67809 0.65489 0.36878 0.0
H1103 H 0.66852 0.64452 0.29038 0.0
C1104 C 0.64808 0.7913 0.84864 0.0
C1105 C 0.67169 0.7721 0.8648 0.0
C1106 C 0.69559 0.82043 0.80562 0.0
C1107 C 0.67235 0.83353 0.77718 0.0
N1108 N 0.62574 0.83226 0.7724 0.0
N1109 N 0.71804 0.76555 0.84911 0.0
C1110 C 0.64828 0.81962 0.79967 0.0
C1111 C 0.69554 0.78597 0.84079 0.0
N1112 N 0.62578 0.78347 0.881 0.0
N1113 N 0.71773 0.84117 0.79909 0.0
H1114 H 0.71868 0.73887 0.87168 0.0
H1115 H 0.73545 0.77326 0.82756 0.0
H1116 H 0.71753 0.86783 0.77684 0.0
H1117 H 0.73487 0.83449 0.82339 0.0
H1118 H 0.60866 0.79913 0.87482 0.0
H1119 H 0.625 0.7637 0.91818 0.0
H1120 H 0.60778 0.81953 0.78062 0.0
H1121 H 0.62541 0.8548 0.73972 0.0
C1122 C 0.90398 0.21168 0.30751 0.0
C1123 C 0.91108 0.22351 0.24569 0.0
C1124 C 0.91245 0.29018 0.27934 0.0
C1125 C 0.90572 0.27915 0.34183 0.0
N1126 N 0.90554 0.2276 0.41952 0.0
N1127 N 0.93482 0.27008 0.18495 0.0
C1128 C 0.90478 0.23922 0.35752 0.0
C1129 C 0.91999 0.26144 0.23634 0.0
N1130 N 0.89569 0.17512 0.31842 0.0
N1131 N 0.90981 0.32728 0.25901 0.0
H1132 H 0.94161 0.24852 0.15502 0.0
H1133 H 0.94286 0.2972 0.17778 0.0
H1134 H 0.90158 0.34892 0.2867 0.0
H1135 H 0.91287 0.33529 0.21184 0.0
H1136 H 0.88729 0.16674 0.36121 0.0
H1137 H 0.89639 0.15367 0.28397 0.0
H1138 H 0.90681 0.19879 0.43278 0.0
H1139 H 0.90801 0.24677 0.45716 0.0
C1140 C 0.69042 0.19259 0.17171 0.0
C1141 C 0.66541 0.18659 0.19602 0.0
C1142 C 0.64783 0.23002 0.1152 0.0
C1143 C 0.6733 0.24475 0.10564 0.0
N1144 N 0.71948 0.23988 0.12832 0.0
N1145 N 0.61949 0.19461 0.186 0.0
C1146 C 0.69495 0.22547 0.1337 0.0
C1147 C 0.64378 0.2031 0.16492 0.0
N1148 N 0.7098 0.16749 0.18725 0.0
N1149 N 0.6278 0.24118 0.07647 0.0
H1150 H 0.61658 0.17353 0.22058 0.0
H1151 H 0.60281 0.2091 0.17096 0.0
H1152 H 0.63033 0.25971 0.03811 0.0
H1153 H 0.60934 0.22913 0.07841 0.0
H1154 H 0.72841 0.16895 0.16811 0.0
H1155 H 0.706 0.14313 0.21468 0.0
H1156 H 0.73537 0.22836 0.15277 0.0
H1157 H 0.72357 0.26543 0.10463 0.0
C1158 C 0.8699 0.7692 0.66468 0.0
C1159 C 0.88975 0.77085 0.61886 0.0
C1160 C 0.91159 0.82238 0.67772 0.0
C1161 C 0.89176 0.82055 0.72416 0.0
N1162 N 0.84877 0.79892 0.7538 0.0
N1163 N 0.92565 0.80451 0.57176 0.0
C1164 C 0.86976 0.79638 0.71452 0.0
C1165 C 0.90932 0.79941 0.62203 0.0
N1166 N 0.85203 0.74017 0.6628 0.0
N1167 N 0.93339 0.84369 0.68871 0.0
H1168 H 0.92451 0.78791 0.53057 0.0
H1169 H 0.93868 0.82722 0.56851 0.0
H1170 H 0.93569 0.86135 0.72832 0.0
H1171 H 0.94993 0.84213 0.66054 0.0
H1172 H 0.83928 0.73425 0.69976 0.0
H1173 H 0.85109 0.71993 0.62628 0.0
H1174 H 0.83098 0.78605 0.7439 0.0
H1175 H 0.84837 0.81607 0.79412 0.0
C1176 C 0.36635 0.26233 0.16615 0.0
C1177 C 0.38707 0.26288 0.12256 0.0
C1178 C 0.40937 0.21092 0.1804 0.0
C1179 C 0.39025 0.21376 0.2285 0.0
N1180 N 0.35066 0.2428 0.26877 0.0
N1181 N 0.42428 0.23163 0.07646 0.0
C1182 C 0.36841 0.2389 0.22096 0.0
C1183 C 0.40735 0.23515 0.12601 0.0
N1184 N 0.34461 0.28415 0.15493 0.0
N1185 N 0.43046 0.18746 0.18926 0.0
H1186 H 0.42313 0.24889 0.03607 0.0
H1187 H 0.43811 0.2099 0.07258 0.0
H1188 H 0.43222 0.16858 0.2275 0.0
H1189 H 0.44684 0.18759 0.16051 0.0
H1190 H 0.32731 0.28107 0.17979 0.0
H1191 H 0.34296 0.30346 0.1172 0.0
H1192 H 0.33684 0.26466 0.27081 0.0
H1193 H 0.35058 0.22573 0.30927 0.0
C1194 C 0.14423 0.7779 0.7284 0.0
C1195 C 0.15386 0.81569 0.72274 0.0
C1196 C 0.16576 0.8002 0.61326 0.0
C1197 C 0.16331 0.76013 0.62727 0.0
N1198 N 0.15619 0.71232 0.70933 0.0
N1199 N 0.17473 0.86326 0.65757 0.0
C1200 C 0.15394 0.74923 0.68783 0.0
C1201 C 0.16469 0.82732 0.66418 0.0
N1202 N 0.12722 0.76902 0.77545 0.0
N1203 N 0.16796 0.81257 0.55196 0.0
H1204 H 0.17335 0.88398 0.69321 0.0
H1205 H 0.18538 0.87153 0.61786 0.0
H1206 H 0.16647 0.79407 0.51313 0.0
H1207 H 0.16804 0.84161 0.53978 0.0
H1208 H 0.11884 0.7419 0.77975 0.0
H1209 H 0.1195 0.79031 0.80462 0.0
H1210 H 0.15098 0.70438 0.75536 0.0
H1211 H 0.16627 0.69104 0.68465 0.0
C1212 C 0.40777 0.83055 0.82427 0.0
C1213 C 0.41694 0.81774 0.76463 0.0
C1214 C 0.41965 0.7522 0.80378 0.0
C1215 C 0.41112 0.76419 0.86469 0.0
N1216 N 0.40736 0.81794 0.93761 0.0
N1217 N 0.44374 0.77131 0.71128 0.0
C1218 C 0.40838 0.80448 0.87673 0.0
C1219 C 0.42751 0.78034 0.75998 0.0
N1220 N 0.3978 0.86667 0.83068 0.0
N1221 N 0.41809 0.71472 0.7849 0.0
H1222 H 0.4503 0.79242 0.6802 0.0
H1223 H 0.45283 0.74456 0.7074 0.0
H1224 H 0.40907 0.69353 0.81181 0.0
H1225 H 0.42265 0.70596 0.73883 0.0
H1226 H 0.38812 0.87574 0.87147 0.0
H1227 H 0.39847 0.88688 0.79417 0.0
H1228 H 0.40712 0.84717 0.94845 0.0
H1229 H 0.40992 0.8001 0.97702 0.0
C1230 C 0.19014 0.23715 0.25965 0.0
C1231 C 0.16807 0.21253 0.25364 0.0
C1232 C 0.15166 0.23561 0.35603 0.0
C1233 C 0.17272 0.26183 0.35884 0.0
N1234 N 0.21554 0.28025 0.32495 0.0
N1235 N 0.12804 0.18745 0.29507 0.0
C1236 C 0.19314 0.26003 0.31455 0.0
C1237 C 0.14921 0.21071 0.3025 0.0
N1238 N 0.20717 0.24142 0.21038 0.0
N1239 N 0.13438 0.23436 0.40517 0.0
H1240 H 0.12601 0.16838 0.25718 0.0
H1241 H 0.11204 0.18744 0.32498 0.0
H1242 H 0.13566 0.25248 0.44454 0.0
H1243 H 0.11963 0.21423 0.4094 0.0
H1244 H 0.22081 0.26336 0.20787 0.0
H1245 H 0.20675 0.22505 0.16911 0.0
H1246 H 0.2326 0.27551 0.29968 0.0
H1247 H 0.21795 0.2997 0.36218 0.0
loop_
_geom_bond_atom_site_label_1
_geom_bond_atom_site_label_2
_geom_bond_distance
_geom_bond_site_symmetry_2
_ccdc_geom_bond_type
C0 C1 1.351 . S
C0 N3 1.368 . S
C0 H5 0.931 . S
C1 C0 1.351 . S
C1 N2 1.373 . S
C1 H29 0.930 . S
N2 C1 1.373 . S
N2 C4 1.340 . S
N3 C0 1.368 . S
N3 C4 1.321 . S
N3 Co6 2.135 . S
C4 N2 1.340 . S
C4 N3 1.321 . S
C4 H28 0.930 . S
H5 C0 0.931 . S
Co6 N3 2.135 . S
Co6 N9 2.121 . S
Co6 O14 2.055 . S
Co6 O17 2.039 . S
Co6 N20 2.140 . S
C7 O8 1.227 . S
C7 O17 1.265 . S
O8 C7 1.227 . S
N9 Co6 2.121 . S
N9 C11 1.375 . S
N9 C12 1.313 . S
C10 C11 1.338 . S
C10 N13 1.377 . S
C10 H30 0.930 . S
C11 N9 1.375 . S
C11 C10 1.338 . S
C11 H15 0.931 . S
C12 N9 1.313 . S
C12 N13 1.344 . S
C12 H16 0.930 . S
N13 C10 1.377 . S
N13 C12 1.344 . S
O14 Co6 2.055 . S
O14 C18 1.253 . S
H15 C11 0.931 . S
H16 C12 0.930 . S
O17 Co6 2.039 . S
O17 C7 1.265 . S
C18 O14 1.253 . S
C18 O19 1.227 . S
O19 C18 1.227 . S
N20 Co6 2.140 . S
N20 C23 1.346 1_554 S
N20 C24 1.345 . S
C21 C22 1.387 . S
C21 C25 1.391 . S
C22 C21 1.387 . S
C22 C23 1.369 . S
C22 H31 0.929 . S
C23 N20 1.346 1_556 S
C23 C22 1.369 . S
C23 H26 0.928 . S
C24 N20 1.345 . S
C24 C25 1.371 1_554 S
C24 H27 0.931 . S
C25 C21 1.391 . S
C25 C24 1.371 1_556 S
C25 H32 0.930 . S
H26 C23 0.928 . S
H27 C24 0.931 . S
H28 C4 0.930 . S
H29 C1 0.930 . S
H30 C10 0.930 . S
H31 C22 0.929 . S
H32 C25 0.930 . S
C33 C34 1.351 . S
C33 N36 1.368 . S
C33 H38 0.931 . S
C34 C33 1.351 . S
C34 N35 1.373 . S
C34 H62 0.930 . S
N35 C34 1.373 . S
N35 C37 1.340 . S
N36 C33 1.368 . S
N36 C37 1.321 . S
N36 Co39 2.135 . S
C37 N35 1.340 . S
C37 N36 1.321 . S
C37 H61 0.930 . S
H38 C33 0.931 . S
Co39 N36 2.135 . S
Co39 N42 2.121 . S
Co39 O47 2.055 . S
Co39 O50 2.039 . S
Co39 N53 2.140 . S
C40 O41 1.227 . S
C40 O50 1.265 . S
O41 C40 1.227 . S
N42 Co39 2.121 . S
N42 C44 1.375 . S
N42 C45 1.313 . S
C43 C44 1.338 . S
C43 N46 1.377 . S
C43 H63 0.930 . S
C44 N42 1.375 . S
C44 C43 1.338 . S
C44 H48 0.931 . S
C45 N42 1.313 . S
C45 N46 1.344 . S
C45 H49 0.930 . S
N46 C43 1.377 . S
N46 C45 1.344 . S
O47 Co39 2.055 . S
O47 C51 1.253 . S
H48 C44 0.931 . S
H49 C45 0.930 . S
O50 Co39 2.039 . S
O50 C40 1.265 . S
C51 O47 1.253 . S
C51 O52 1.227 . S
O52 C51 1.227 . S
N53 Co39 2.140 . S
N53 C56 1.346 . S
N53 C57 1.345 . S
C54 C55 1.387 . S
C54 C58 1.391 . S
C55 C54 1.387 . S
C55 C56 1.369 . S
C55 H64 0.929 . S
C56 N53 1.346 . S
C56 C55 1.369 . S
C56 H59 0.928 . S
C57 N53 1.345 . S
C57 C58 1.371 . S
C57 H60 0.931 . S
C58 C54 1.391 . S
C58 C57 1.371 . S
C58 H65 0.930 . S
H59 C56 0.928 . S
H60 C57 0.931 . S
H61 C37 0.930 . S
H62 C34 0.930 . S
H63 C43 0.930 . S
H64 C55 0.929 . S
H65 C58 0.930 . S
C66 C67 1.351 . S
C66 N69 1.368 . S
C66 H71 0.931 . S
C67 C66 1.351 . S
C67 N68 1.373 . S
C67 H95 0.930 . S
N68 C67 1.373 . S
N68 C70 1.340 . S
N69 C66 1.368 . S
N69 C70 1.321 . S
N69 Co72 2.135 . S
C70 N68 1.340 . S
C70 N69 1.321 . S
C70 H94 0.930 . S
H71 C66 0.931 . S
Co72 N69 2.135 . S
Co72 N75 2.121 . S
Co72 O80 2.055 . S
Co72 O83 2.039 . S
Co72 N86 2.140 . S
C73 O74 1.227 . S
C73 O83 1.265 . S
O74 C73 1.227 . S
N75 Co72 2.121 . S
N75 C77 1.375 . S
N75 C78 1.313 . S
C76 C77 1.338 . S
C76 N79 1.377 . S
C76 H96 0.930 . S
C77 N75 1.375 . S
C77 C76 1.338 . S
C77 H81 0.931 . S
C78 N75 1.313 . S
C78 N79 1.344 . S
C78 H82 0.930 . S
N79 C76 1.377 . S
N79 C78 1.344 . S
O80 Co72 2.055 . S
O80 C84 1.253 . S
H81 C77 0.931 . S
H82 C78 0.930 . S
O83 Co72 2.039 . S
O83 C73 1.265 . S
C84 O80 1.253 . S
C84 O85 1.227 . S
O85 C84 1.227 . S
N86 Co72 2.140 . S
N86 C89 1.346 1_556 S
N86 C90 1.345 . S
C87 C88 1.387 . S
C87 C91 1.391 . S
C88 C87 1.387 . S
C88 C89 1.369 . S
C88 H97 0.929 . S
C89 N86 1.346 1_554 S
C89 C88 1.369 . S
C89 H92 0.928 . S
C90 N86 1.345 . S
C90 C91 1.371 1_556 S
C90 H93 0.931 . S
C91 C87 1.391 . S
C91 C90 1.371 1_554 S
C91 H98 0.930 . S
H92 C89 0.928 . S
H93 C90 0.931 . S
H94 C70 0.930 . S
H95 C67 0.930 . S
H96 C76 0.930 . S
H97 C88 0.929 . S
H98 C91 0.930 . S
C99 C100 1.351 . S
C99 N102 1.368 . S
C99 H104 0.931 . S
C100 C99 1.351 . S
C100 N101 1.373 . S
C100 H128 0.930 . S
N101 C100 1.373 . S
N101 C103 1.340 . S
N102 C99 1.368 . S
N102 C103 1.321 . S
N102 Co105 2.135 . S
C103 N101 1.340 . S
C103 N102 1.321 . S
C103 H127 0.930 . S
H104 C99 0.931 . S
Co105 N102 2.135 . S
Co105 N108 2.121 . S
Co105 O113 2.055 . S
Co105 O116 2.039 . S
Co105 N119 2.140 . S
C106 O107 1.227 . S
C106 O116 1.265 . S
O107 C106 1.227 . S
N108 Co105 2.121 . S
N108 C110 1.375 . S
N108 C111 1.313 . S
C109 C110 1.338 . S
C109 N112 1.377 . S
C109 H129 0.930 . S
C110 N108 1.375 . S
C110 C109 1.338 . S
C110 H114 0.931 . S
C111 N108 1.313 . S
C111 N112 1.344 . S
C111 H115 0.930 . S
N112 C109 1.377 . S
N112 C111 1.344 . S
O113 Co105 2.055 . S
O113 C117 1.253 . S
H114 C110 0.931 . S
H115 C111 0.930 . S
O116 Co105 2.039 . S
O116 C106 1.265 . S
C117 O113 1.253 . S
C117 O118 1.227 . S
O118 C117 1.227 . S
N119 Co105 2.140 . S
N119 C122 1.346 . S
N119 C123 1.345 . S
C120 C121 1.387 . S
C120 C124 1.391 . S
C121 C120 1.387 . S
C121 C122 1.369 . S
C121 H130 0.929 . S
C122 N119 1.346 . S
C122 C121 1.369 . S
C122 H125 0.928 . S
C123 N119 1.345 . S
C123 C124 1.371 . S
C123 H126 0.931 . S
C124 C120 1.391 . S
C124 C123 1.371 . S
C124 H131 0.930 . S
H125 C122 0.928 . S
H126 C123 0.931 . S
H127 C103 0.930 . S
H128 C100 0.930 . S
H129 C109 0.930 . S
H130 C121 0.929 . S
H131 C124 0.930 . S
C132 C133 1.351 . S
C132 N135 1.368 . S
C132 H137 0.931 . S
C133 C132 1.351 . S
C133 N134 1.373 . S
C133 H161 0.930 . S
N134 C133 1.373 . S
N134 C136 1.340 . S
N135 C132 1.368 . S
N135 C136 1.321 . S
N135 Co138 2.135 . S
C136 N134 1.340 . S
C136 N135 1.321 . S
C136 H160 0.930 . S
H137 C132 0.931 . S
Co138 N135 2.135 . S
Co138 N141 2.121 . S
Co138 O146 2.055 . S
Co138 O149 2.039 . S
Co138 N152 2.140 . S
C139 O140 1.227 . S
C139 O149 1.265 . S
O140 C139 1.227 . S
N141 Co138 2.121 . S
N141 C143 1.375 . S
N141 C144 1.313 . S
C142 C143 1.338 . S
C142 N145 1.377 . S
C142 H162 0.930 . S
C143 N141 1.375 . S
C143 C142 1.338 . S
C143 H147 0.931 . S
C144 N141 1.313 . S
C144 N145 1.344 . S
C144 H148 0.930 . S
N145 C142 1.377 . S
N145 C144 1.344 . S
O146 Co138 2.055 . S
O146 C150 1.253 . S
H147 C143 0.931 . S
H148 C144 0.930 . S
O149 Co138 2.039 . S
O149 C139 1.265 . S
C150 O146 1.253 . S
C150 O151 1.227 . S
O151 C150 1.227 . S
N152 Co138 2.140 . S
N152 C155 1.346 1_556 S
N152 C156 1.345 . S
C153 C154 1.387 . S
C153 C157 1.391 . S
C154 C153 1.387 . S
C154 C155 1.369 . S
C154 H163 0.929 . S
C155 N152 1.346 1_554 S
C155 C154 1.369 . S
C155 H158 0.928 . S
C156 N152 1.345 . S
C156 C157 1.371 1_556 S
C156 H159 0.931 . S
C157 C153 1.391 . S
C157 C156 1.371 1_554 S
C157 H164 0.930 . S
H158 C155 0.928 . S
H159 C156 0.931 . S
H160 C136 0.930 . S
H161 C133 0.930 . S
H162 C142 0.930 . S
H163 C154 0.929 . S
H164 C157 0.930 . S
C165 C166 1.351 . S
C165 N168 1.368 . S
C165 H170 0.931 . S
C166 C165 1.351 . S
C166 N167 1.373 . S
C166 H194 0.930 . S
N167 C166 1.373 . S
N167 C169 1.340 . S
N168 C165 1.368 . S
N168 C169 1.321 . S
N168 Co171 2.135 . S
C169 N167 1.340 . S
C169 N168 1.321 . S
C169 H193 0.930 . S
H170 C165 0.931 . S
Co171 N168 2.135 . S
Co171 N174 2.121 . S
Co171 O179 2.055 . S
Co171 O182 2.039 . S
Co171 N185 2.140 . S
C172 O173 1.227 . S
C172 O182 1.265 . S
O173 C172 1.227 . S
N174 Co171 2.121 . S
N174 C176 1.375 . S
N174 C177 1.313 . S
C175 C176 1.338 . S
C175 N178 1.377 . S
C175 H195 0.930 . S
C176 N174 1.375 . S
C176 C175 1.338 . S
C176 H180 0.931 . S
C177 N174 1.313 . S
C177 N178 1.344 . S
C177 H181 0.930 . S
N178 C175 1.377 . S
N178 C177 1.344 . S
O179 Co171 2.055 . S
O179 C183 1.253 . S
H180 C176 0.931 . S
H181 C177 0.930 . S
O182 Co171 2.039 . S
O182 C172 1.265 . S
C183 O179 1.253 . S
C183 O184 1.227 . S
O184 C183 1.227 . S
N185 Co171 2.140 . S
N185 C188 1.346 . S
N185 C189 1.345 . S
C186 C187 1.387 . S
C186 C190 1.391 . S
C187 C186 1.387 . S
C187 C188 1.369 . S
C187 H196 0.929 . S
C188 N185 1.346 . S
C188 C187 1.369 . S
C188 H191 0.928 . S
C189 N185 1.345 . S
C189 C190 1.371 . S
C189 H192 0.931 . S
C190 C186 1.391 . S
C190 C189 1.371 . S
C190 H197 0.930 . S
H191 C188 0.928 . S
H192 C189 0.931 . S
H193 C169 0.930 . S
H194 C166 0.930 . S
H195 C175 0.930 . S
H196 C187 0.929 . S
H197 C190 0.930 . S
C198 C199 1.351 . S
C198 N201 1.368 . S
C198 H203 0.931 . S
C199 C198 1.351 . S
C199 N200 1.373 . S
C199 H227 0.930 . S
N200 C199 1.373 . S
N200 C202 1.340 . S
N201 C198 1.368 . S
N201 C202 1.321 . S
N201 Co204 2.135 . S
C202 N200 1.340 . S
C202 N201 1.321 . S
C202 H226 0.930 . S
H203 C198 0.931 . S
Co204 N201 2.135 . S
Co204 N207 2.121 . S
Co204 O212 2.055 . S
Co204 O215 2.039 . S
Co204 N218 2.140 . S
C205 O206 1.227 . S
C205 O215 1.265 . S
O206 C205 1.227 . S
N207 Co204 2.121 . S
N207 C209 1.375 . S
N207 C210 1.313 . S
C208 C209 1.338 . S
C208 N211 1.377 . S
C208 H228 0.930 . S
C209 N207 1.375 . S
C209 C208 1.338 . S
C209 H213 0.931 . S
C210 N207 1.313 . S
C210 N211 1.344 . S
C210 H214 0.930 . S
N211 C208 1.377 . S
N211 C210 1.344 . S
O212 Co204 2.055 . S
O212 C216 1.253 . S
H213 C209 0.931 . S
H214 C210 0.930 . S
O215 Co204 2.039 . S
O215 C205 1.265 . S
C216 O212 1.253 . S
C216 O217 1.227 . S
O217 C216 1.227 . S
N218 Co204 2.140 . S
N218 C221 1.346 1_554 S
N218 C222 1.345 . S
C219 C220 1.387 . S
C219 C223 1.391 . S
C220 C219 1.387 . S
C220 C221 1.369 . S
C220 H229 0.929 . S
C221 N218 1.346 1_556 S
C221 C220 1.369 . S
C221 H224 0.928 . S
C222 N218 1.345 . S
C222 C223 1.371 1_554 S
C222 H225 0.931 . S
C223 C219 1.391 . S
C223 C222 1.371 1_556 S
C223 H230 0.930 . S
H224 C221 0.928 . S
H225 C222 0.931 . S
H226 C202 0.930 . S
H227 C199 0.930 . S
H228 C208 0.930 . S
H229 C220 0.929 . S
H230 C223 0.930 . S
C231 C232 1.351 . S
C231 N234 1.368 . S
C231 H236 0.931 . S
C232 C231 1.351 . S
C232 N233 1.373 . S
C232 H260 0.930 . S
N233 C232 1.373 . S
N233 C235 1.340 . S
N234 C231 1.368 . S
N234 C235 1.321 . S
N234 Co237 2.135 . S
C235 N233 1.340 . S
C235 N234 1.321 . S
C235 H259 0.930 . S
H236 C231 0.931 . S
Co237 N234 2.135 . S
Co237 N240 2.121 . S
Co237 O245 2.055 . S
Co237 O248 2.039 . S
Co237 N251 2.140 . S
C238 O239 1.227 . S
C238 O248 1.265 . S
O239 C238 1.227 . S
N240 Co237 2.121 . S
N240 C242 1.375 . S
N240 C243 1.313 . S
C241 C242 1.338 . S
C241 N244 1.377 . S
C241 H261 0.930 . S
C242 N240 1.375 . S
C242 C241 1.338 . S
C242 H246 0.931 . S
C243 N240 1.313 . S
C243 N244 1.344 . S
C243 H247 0.930 . S
N244 C241 1.377 . S
N244 C243 1.344 . S
O245 Co237 2.055 . S
O245 C249 1.253 . S
H246 C242 0.931 . S
H247 C243 0.930 . S
O248 Co237 2.039 . S
O248 C238 1.265 . S
C249 O245 1.253 . S
C249 O250 1.227 . S
O250 C249 1.227 . S
N251 Co237 2.140 . S
N251 C254 1.346 . S
N251 C255 1.345 . S
C252 C253 1.387 . S
C252 C256 1.391 . S
C253 C252 1.387 . S
C253 C254 1.369 . S
C253 H262 0.929 . S
C254 N251 1.346 . S
C254 C253 1.369 . S
C254 H257 0.928 . S
C255 N251 1.345 . S
C255 C256 1.371 . S
C255 H258 0.931 . S
C256 C252 1.391 . S
C256 C255 1.371 . S
C256 H263 0.930 . S
H257 C254 0.928 . S
H258 C255 0.931 . S
H259 C235 0.930 . S
H260 C232 0.930 . S
H261 C241 0.930 . S
H262 C253 0.929 . S
H263 C256 0.930 . S
C264 C265 1.351 . S
C264 N267 1.368 . S
C264 H269 0.931 . S
C265 C264 1.351 . S
C265 N266 1.373 . S
C265 H293 0.930 . S
N266 C265 1.373 . S
N266 C268 1.340 . S
N267 C264 1.368 . S
N267 C268 1.321 . S
N267 Co270 2.135 . S
C268 N266 1.340 . S
C268 N267 1.321 . S
C268 H292 0.930 . S
H269 C264 0.931 . S
Co270 N267 2.135 . S
Co270 N273 2.121 . S
Co270 O278 2.055 . S
Co270 O281 2.039 . S
Co270 N284 2.140 . S
C271 O272 1.227 . S
C271 O281 1.265 . S
O272 C271 1.227 . S
N273 Co270 2.121 . S
N273 C275 1.375 . S
N273 C276 1.313 . S
C274 C275 1.338 . S
C274 N277 1.377 . S
C274 H294 0.930 . S
C275 N273 1.375 . S
C275 C274 1.338 . S
C275 H279 0.931 . S
C276 N273 1.313 . S
C276 N277 1.344 . S
C276 H280 0.930 . S
N277 C274 1.377 . S
N277 C276 1.344 . S
O278 Co270 2.055 . S
O278 C282 1.253 . S
H279 C275 0.931 . S
H280 C276 0.930 . S
O281 Co270 2.039 . S
O281 C271 1.265 . S
C282 O278 1.253 . S
C282 O283 1.227 . S
O283 C282 1.227 . S
N284 Co270 2.140 . S
N284 C287 1.346 1_554 S
N284 C288 1.345 . S
C285 C286 1.387 . S
C285 C289 1.391 . S
C286 C285 1.387 . S
C286 C287 1.369 . S
C286 H295 0.929 . S
C287 N284 1.346 1_556 S
C287 C286 1.369 . S
C287 H290 0.928 . S
C288 N284 1.345 . S
C288 C289 1.371 1_554 S
C288 H291 0.931 . S
C289 C285 1.391 . S
C289 C288 1.371 1_556 S
C289 H296 0.930 . S
H290 C287 0.928 . S
H291 C288 0.931 . S
H292 C268 0.930 . S
H293 C265 0.930 . S
H294 C274 0.930 . S
H295 C286 0.929 . S
H296 C289 0.930 . S
C297 C298 1.351 . S
C297 N300 1.368 . S
C297 H302 0.931 . S
C298 C297 1.351 . S
C298 N299 1.373 . S
C298 H326 0.930 . S
N299 C298 1.373 . S
N299 C301 1.340 . S
N300 C297 1.368 . S
N300 C301 1.321 . S
N300 Co303 2.135 . S
C301 N299 1.340 . S
C301 N300 1.321 . S
C301 H325 0.930 . S
H302 C297 0.931 . S
Co303 N300 2.135 . S
Co303 N306 2.121 . S
Co303 O311 2.055 . S
Co303 O314 2.039 . S
Co303 N317 2.140 . S
C304 O305 1.227 . S
C304 O314 1.265 . S
O305 C304 1.227 . S
N306 Co303 2.121 . S
N306 C308 1.375 . S
N306 C309 1.313 . S
C307 C308 1.338 . S
C307 N310 1.377 . S
C307 H327 0.930 . S
C308 N306 1.375 . S
C308 C307 1.338 . S
C308 H312 0.931 . S
C309 N306 1.313 . S
C309 N310 1.344 . S
C309 H313 0.930 . S
N310 C307 1.377 . S
N310 C309 1.344 . S
O311 Co303 2.055 . S
O311 C315 1.253 . S
H312 C308 0.931 . S
H313 C309 0.930 . S
O314 Co303 2.039 . S
O314 C304 1.265 . S
C315 O311 1.253 . S
C315 O316 1.227 . S
O316 C315 1.227 . S
N317 Co303 2.140 . S
N317 C320 1.346 . S
N317 C321 1.345 . S
C318 C319 1.387 . S
C318 C322 1.391 . S
C319 C318 1.387 . S
C319 C320 1.369 . S
C319 H328 0.929 . S
C320 N317 1.346 . S
C320 C319 1.369 . S
C320 H323 0.928 . S
C321 N317 1.345 . S
C321 C322 1.371 . S
C321 H324 0.931 . S
C322 C318 1.391 . S
C322 C321 1.371 . S
C322 H329 0.930 . S
H323 C320 0.928 . S
H324 C321 0.931 . S
H325 C301 0.930 . S
H326 C298 0.930 . S
H327 C307 0.930 . S
H328 C319 0.929 . S
H329 C322 0.930 . S
C330 C331 1.351 . S
C330 N333 1.368 . S
C330 H335 0.931 . S
C331 C330 1.351 . S
C331 N332 1.373 . S
C331 H359 0.930 . S
N332 C331 1.373 . S
N332 C334 1.340 . S
N333 C330 1.368 . S
N333 C334 1.321 . S
N333 Co336 2.135 . S
C334 N332 1.340 . S
C334 N333 1.321 . S
C334 H358 0.930 . S
H335 C330 0.931 . S
Co336 N333 2.135 . S
Co336 N339 2.121 . S
Co336 O344 2.055 . S
Co336 O347 2.039 . S
Co336 N350 2.140 . S
C337 O338 1.227 . S
C337 O347 1.265 . S
O338 C337 1.227 . S
N339 Co336 2.121 . S
N339 C341 1.375 . S
N339 C342 1.313 . S
C340 C341 1.338 . S
C340 N343 1.377 . S
C340 H360 0.930 . S
C341 N339 1.375 . S
C341 C340 1.338 . S
C341 H345 0.931 . S
C342 N339 1.313 . S
C342 N343 1.344 . S
C342 H346 0.930 . S
N343 C340 1.377 . S
N343 C342 1.344 . S
O344 Co336 2.055 . S
O344 C348 1.253 . S
H345 C341 0.931 . S
H346 C342 0.930 . S
O347 Co336 2.039 . S
O347 C337 1.265 . S
C348 O344 1.253 . S
C348 O349 1.227 . S
O349 C348 1.227 . S
N350 Co336 2.140 . S
N350 C353 1.346 1_556 S
N350 C354 1.345 . S
C351 C352 1.387 . S
C351 C355 1.391 . S
C352 C351 1.387 . S
C352 C353 1.369 . S
C352 H361 0.929 . S
C353 N350 1.346 1_554 S
C353 C352 1.369 . S
C353 H356 0.928 . S
C354 N350 1.345 . S
C354 C355 1.371 1_556 S
C354 H357 0.931 . S
C355 C351 1.391 . S
C355 C354 1.371 1_554 S
C355 H362 0.930 . S
H356 C353 0.928 . S
H357 C354 0.931 . S
H358 C334 0.930 . S
H359 C331 0.930 . S
H360 C340 0.930 . S
H361 C352 0.929 . S
H362 C355 0.930 . S
C363 C364 1.351 . S
C363 N366 1.368 . S
C363 H368 0.931 . S
C364 C363 1.351 . S
C364 N365 1.373 . S
C364 H392 0.930 . S
N365 C364 1.373 . S
N365 C367 1.340 . S
N366 C363 1.368 . S
N366 C367 1.321 . S
N366 Co369 2.135 . S
C367 N365 1.340 . S
C367 N366 1.321 . S
C367 H391 0.930 . S
H368 C363 0.931 . S
Co369 N366 2.135 . S
Co369 N372 2.121 . S
Co369 O377 2.055 . S
Co369 O380 2.039 . S
Co369 N383 2.140 . S
C370 O371 1.227 . S
C370 O380 1.265 . S
O371 C370 1.227 . S
N372 Co369 2.121 . S
N372 C374 1.375 . S
N372 C375 1.313 . S
C373 C374 1.338 . S
C373 N376 1.377 . S
C373 H393 0.930 . S
C374 N372 1.375 . S
C374 C373 1.338 . S
C374 H378 0.931 . S
C375 N372 1.313 . S
C375 N376 1.344 . S
C375 H379 0.930 . S
N376 C373 1.377 . S
N376 C375 1.344 . S
O377 Co369 2.055 . S
O377 C381 1.253 . S
H378 C374 0.931 . S
H379 C375 0.930 . S
O380 Co369 2.039 . S
O380 C370 1.265 . S
C381 O377 1.253 . S
C381 O382 1.227 . S
O382 C381 1.227 . S
N383 Co369 2.140 . S
N383 C386 1.346 . S
N383 C387 1.345 . S
C384 C385 1.387 . S
C384 C388 1.391 . S
C385 C384 1.387 . S
C385 C386 1.369 . S
C385 H394 0.929 . S
C386 N383 1.346 . S
C386 C385 1.369 . S
C386 H389 0.928 . S
C387 N383 1.345 . S
C387 C388 1.371 . S
C387 H390 0.931 . S
C388 C384 1.391 . S
C388 C387 1.371 . S
C388 H395 0.930 . S
H389 C386 0.928 . S
H390 C387 0.931 . S
H391 C367 0.930 . S
H392 C364 0.930 . S
H393 C373 0.930 . S
H394 C385 0.929 . S
H395 C388 0.930 . S
C396 C397 1.351 . S
C396 N399 1.368 . S
C396 H401 0.931 . S
C397 C396 1.351 . S
C397 N398 1.373 . S
C397 H425 0.930 . S
N398 C397 1.373 . S
N398 C400 1.340 . S
N399 C396 1.368 . S
N399 C400 1.321 . S
N399 Co402 2.135 . S
C400 N398 1.340 . S
C400 N399 1.321 . S
C400 H424 0.930 . S
H401 C396 0.931 . S
Co402 N399 2.135 . S
Co402 N405 2.121 . S
Co402 O410 2.055 . S
Co402 O413 2.039 . S
Co402 N416 2.140 . S
C403 O404 1.227 . S
C403 O413 1.265 . S
O404 C403 1.227 . S
N405 Co402 2.121 . S
N405 C407 1.375 . S
N405 C408 1.313 . S
C406 C407 1.338 . S
C406 N409 1.377 . S
C406 H426 0.930 . S
C407 N405 1.375 . S
C407 C406 1.338 . S
C407 H411 0.931 . S
C408 N405 1.313 . S
C408 N409 1.344 . S
C408 H412 0.930 . S
N409 C406 1.377 . S
N409 C408 1.344 . S
O410 Co402 2.055 . S
O410 C414 1.253 . S
H411 C407 0.931 . S
H412 C408 0.930 . S
O413 Co402 2.039 . S
O413 C403 1.265 . S
C414 O410 1.253 . S
C414 O415 1.227 . S
O415 C414 1.227 . S
N416 Co402 2.140 . S
N416 C419 1.346 1_556 S
N416 C420 1.345 . S
C417 C418 1.387 . S
C417 C421 1.391 . S
C418 C417 1.387 . S
C418 C419 1.369 . S
C418 H427 0.929 . S
C419 N416 1.346 1_554 S
C419 C418 1.369 . S
C419 H422 0.928 . S
C420 N416 1.345 . S
C420 C421 1.371 1_556 S
C420 H423 0.931 . S
C421 C417 1.391 . S
C421 C420 1.371 1_554 S
C421 H428 0.930 . S
H422 C419 0.928 . S
H423 C420 0.931 . S
H424 C400 0.930 . S
H425 C397 0.930 . S
H426 C406 0.930 . S
H427 C418 0.929 . S
H428 C421 0.930 . S
C429 C430 1.351 . S
C429 N432 1.368 . S
C429 H434 0.931 . S
C430 C429 1.351 . S
C430 N431 1.373 . S
C430 H458 0.930 . S
N431 C430 1.373 . S
N431 C433 1.340 . S
N432 C429 1.368 . S
N432 C433 1.321 . S
N432 Co435 2.135 . S
C433 N431 1.340 . S
C433 N432 1.321 . S
C433 H457 0.930 . S
H434 C429 0.931 . S
Co435 N432 2.135 . S
Co435 N438 2.121 . S
Co435 O443 2.055 . S
Co435 O446 2.039 . S
Co435 N449 2.140 . S
C436 O437 1.227 . S
C436 O446 1.265 . S
O437 C436 1.227 . S
N438 Co435 2.121 . S
N438 C440 1.375 . S
N438 C441 1.313 . S
C439 C440 1.338 . S
C439 N442 1.377 . S
C439 H459 0.930 . S
C440 N438 1.375 . S
C440 C439 1.338 . S
C440 H444 0.931 . S
C441 N438 1.313 . S
C441 N442 1.344 . S
C441 H445 0.930 . S
N442 C439 1.377 . S
N442 C441 1.344 . S
O443 Co435 2.055 . S
O443 C447 1.253 . S
H444 C440 0.931 . S
H445 C441 0.930 . S
O446 Co435 2.039 . S
O446 C436 1.265 . S
C447 O443 1.253 . S
C447 O448 1.227 . S
O448 C447 1.227 . S
N449 Co435 2.140 . S
N449 C452 1.346 . S
N449 C453 1.345 . S
C450 C451 1.387 . S
C450 C454 1.391 . S
C451 C450 1.387 . S
C451 C452 1.369 . S
C451 H460 0.929 . S
C452 N449 1.346 . S
C452 C451 1.369 . S
C452 H455 0.928 . S
C453 N449 1.345 . S
C453 C454 1.371 . S
C453 H456 0.931 . S
C454 C450 1.391 . S
C454 C453 1.371 . S
C454 H461 0.930 . S
H455 C452 0.928 . S
H456 C453 0.931 . S
H457 C433 0.930 . S
H458 C430 0.930 . S
H459 C439 0.930 . S
H460 C451 0.929 . S
H461 C454 0.930 . S
C462 C463 1.351 . S
C462 N465 1.368 . S
C462 H467 0.931 . S
C463 C462 1.351 . S
C463 N464 1.373 . S
C463 H491 0.930 . S
N464 C463 1.373 . S
N464 C466 1.340 . S
N465 C462 1.368 . S
N465 C466 1.321 . S
N465 Co468 2.135 . S
C466 N464 1.340 . S
C466 N465 1.321 . S
C466 H490 0.930 . S
H467 C462 0.931 . S
Co468 N465 2.135 . S
Co468 N471 2.121 . S
Co468 O476 2.055 . S
Co468 O479 2.039 . S
Co468 N482 2.140 . S
C469 O470 1.227 . S
C469 O479 1.265 . S
O470 C469 1.227 . S
N471 Co468 2.121 . S
N471 C473 1.375 . S
N471 C474 1.313 . S
C472 C473 1.338 . S
C472 N475 1.377 . S
C472 H492 0.930 . S
C473 N471 1.375 . S
C473 C472 1.338 . S
C473 H477 0.931 . S
C474 N471 1.313 . S
C474 N475 1.344 . S
C474 H478 0.930 . S
N475 C472 1.377 . S
N475 C474 1.344 . S
O476 Co468 2.055 . S
O476 C480 1.253 . S
H477 C473 0.931 . S
H478 C474 0.930 . S
O479 Co468 2.039 . S
O479 C469 1.265 . S
C480 O476 1.253 . S
C480 O481 1.227 . S
O481 C480 1.227 . S
N482 Co468 2.140 . S
N482 C485 1.346 1_554 S
N482 C486 1.345 . S
C483 C484 1.387 . S
C483 C487 1.391 . S
C484 C483 1.387 . S
C484 C485 1.369 . S
C484 H493 0.929 . S
C485 N482 1.346 1_556 S
C485 C484 1.369 . S
C485 H488 0.928 . S
C486 N482 1.345 . S
C486 C487 1.371 1_554 S
C486 H489 0.931 . S
C487 C483 1.391 . S
C487 C486 1.371 1_556 S
C487 H494 0.930 . S
H488 C485 0.928 . S
H489 C486 0.931 . S
H490 C466 0.930 . S
H491 C463 0.930 . S
H492 C472 0.930 . S
H493 C484 0.929 . S
H494 C487 0.930 . S
C495 C496 1.351 . S
C495 N498 1.368 . S
C495 H500 0.931 . S
C496 C495 1.351 . S
C496 N497 1.373 . S
C496 H524 0.930 . S
N497 C496 1.373 . S
N497 C499 1.340 . S
N498 C495 1.368 . S
N498 C499 1.321 . S
N498 Co501 2.135 . S
C499 N497 1.340 . S
C499 N498 1.321 . S
C499 H523 0.930 . S
H500 C495 0.931 . S
Co501 N498 2.135 . S
Co501 N504 2.121 . S
Co501 O509 2.055 . S
Co501 O512 2.039 . S
Co501 N515 2.140 . S
C502 O503 1.227 . S
C502 O512 1.265 . S
O503 C502 1.227 . S
N504 Co501 2.121 . S
N504 C506 1.375 . S
N504 C507 1.313 . S
C505 C506 1.338 . S
C505 N508 1.377 . S
C505 H525 0.930 . S
C506 N504 1.375 . S
C506 C505 1.338 . S
C506 H510 0.931 . S
C507 N504 1.313 . S
C507 N508 1.344 . S
C507 H511 0.930 . S
N508 C505 1.377 . S
N508 C507 1.344 . S
O509 Co501 2.055 . S
O509 C513 1.253 . S
H510 C506 0.931 . S
H511 C507 0.930 . S
O512 Co501 2.039 . S
O512 C502 1.265 . S
C513 O509 1.253 . S
C513 O514 1.227 . S
O514 C513 1.227 . S
N515 Co501 2.140 . S
N515 C518 1.346 . S
N515 C519 1.345 . S
C516 C517 1.387 . S
C516 C520 1.391 . S
C517 C516 1.387 . S
C517 C518 1.369 . S
C517 H526 0.929 . S
C518 N515 1.346 . S
C518 C517 1.369 . S
C518 H521 0.928 . S
C519 N515 1.345 . S
C519 C520 1.371 . S
C519 H522 0.931 . S
C520 C516 1.391 . S
C520 C519 1.371 . S
C520 H527 0.930 . S
H521 C518 0.928 . S
H522 C519 0.931 . S
H523 C499 0.930 . S
H524 C496 0.930 . S
H525 C505 0.930 . S
H526 C517 0.929 . S
H527 C520 0.930 . S
C528 C529 1.363 . S
C528 C534 1.379 . S
C528 N536 1.356 . S
C529 C528 1.363 . S
C529 C535 1.363 . S
C530 C531 1.363 . S
C530 C535 1.379 . S
C530 N537 1.356 . S
C531 C530 1.363 . S
C531 C534 1.363 . S
N532 C534 1.356 . S
N532 H544 0.984 . S
N532 H545 0.985 . S
N533 C535 1.356 . S
N533 H538 0.984 . S
N533 H539 0.985 . S
C534 C528 1.379 . S
C534 C531 1.363 . S
C534 N532 1.356 . S
C535 C529 1.363 . S
C535 C530 1.379 . S
C535 N533 1.356 . S
N536 C528 1.356 . S
N536 H542 0.984 . S
N536 H543 0.984 . S
N537 C530 1.356 . S
N537 H540 0.984 . S
N537 H541 0.985 . S
H538 N533 0.984 . S
H539 N533 0.985 . S
H540 N537 0.984 . S
H541 N537 0.985 . S
H542 N536 0.984 . S
H543 N536 0.984 . S
H544 N532 0.984 . S
H545 N532 0.985 . S
C546 C547 1.363 . S
C546 C552 1.379 . S
C546 N554 1.356 . S
C547 C546 1.363 . S
C547 C553 1.363 . S
C548 C549 1.363 . S
C548 C553 1.379 . S
C548 N555 1.356 . S
C549 C548 1.363 . S
C549 C552 1.363 . S
N550 C552 1.356 . S
N550 H562 0.984 . S
N550 H563 0.985 . S
N551 C553 1.356 . S
N551 H556 0.984 . S
N551 H557 0.985 . S
C552 C546 1.379 . S
C552 C549 1.363 . S
C552 N550 1.356 . S
C553 C547 1.363 . S
C553 C548 1.379 . S
C553 N551 1.356 . S
N554 C546 1.356 . S
N554 H560 0.984 . S
N554 H561 0.984 . S
N555 C548 1.356 . S
N555 H558 0.984 . S
N555 H559 0.985 . S
H556 N551 0.984 . S
H557 N551 0.985 . S
H558 N555 0.984 . S
H559 N555 0.985 . S
H560 N554 0.984 . S
H561 N554 0.984 . S
H562 N550 0.984 . S
H563 N550 0.985 . S
C564 C565 1.363 . S
C564 C570 1.379 . S
C564 N572 1.356 . S
C565 C564 1.363 . S
C565 C571 1.363 . S
C566 C567 1.363 . S
C566 C571 1.379 . S
C566 N573 1.356 . S
C567 C566 1.363 . S
C567 C570 1.363 . S
N568 C570 1.356 . S
N568 H580 0.984 . S
N568 H581 0.985 . S
N569 C571 1.356 . S
N569 H574 0.984 . S
N569 H575 0.985 . S
C570 C564 1.379 . S
C570 C567 1.363 . S
C570 N568 1.356 . S
C571 C565 1.363 . S
C571 C566 1.379 . S
C571 N569 1.356 . S
N572 C564 1.356 . S
N572 H578 0.984 . S
N572 H579 0.984 . S
N573 C566 1.356 . S
N573 H576 0.984 . S
N573 H577 0.985 . S
H574 N569 0.984 . S
H575 N569 0.985 . S
H576 N573 0.984 . S
H577 N573 0.985 . S
H578 N572 0.984 . S
H579 N572 0.984 . S
H580 N568 0.984 . S
H581 N568 0.985 . S
C582 C583 1.363 . S
C582 C588 1.379 . S
C582 N590 1.356 . S
C583 C582 1.363 . S
C583 C589 1.363 . S
C584 C585 1.363 . S
C584 C589 1.379 . S
C584 N591 1.356 . S
C585 C584 1.363 . S
C585 C588 1.363 . S
N586 C588 1.356 . S
N586 H598 0.984 . S
N586 H599 0.985 . S
N587 C589 1.356 . S
N587 H592 0.984 . S
N587 H593 0.985 . S
C588 C582 1.379 . S
C588 C585 1.363 . S
C588 N586 1.356 . S
C589 C583 1.363 . S
C589 C584 1.379 . S
C589 N587 1.356 . S
N590 C582 1.356 . S
N590 H596 0.984 . S
N590 H597 0.984 . S
N591 C584 1.356 . S
N591 H594 0.984 . S
N591 H595 0.985 . S
H592 N587 0.984 . S
H593 N587 0.985 . S
H594 N591 0.984 . S
H595 N591 0.985 . S
H596 N590 0.984 . S
H597 N590 0.984 . S
H598 N586 0.984 . S
H599 N586 0.985 . S
C600 C601 1.363 . S
C600 C606 1.379 . S
C600 N608 1.356 . S
C601 C600 1.363 . S
C601 C607 1.363 . S
C602 C603 1.363 . S
C602 C607 1.379 . S
C602 N609 1.356 . S
C603 C602 1.363 . S
C603 C606 1.363 . S
N604 C606 1.356 . S
N604 H616 0.984 . S
N604 H617 0.985 . S
N605 C607 1.356 . S
N605 H610 0.984 . S
N605 H611 0.985 . S
C606 C600 1.379 . S
C606 C603 1.363 . S
C606 N604 1.356 . S
C607 C601 1.363 . S
C607 C602 1.379 . S
C607 N605 1.356 . S
N608 C600 1.356 . S
N608 H614 0.984 . S
N608 H615 0.984 . S
N609 C602 1.356 . S
N609 H612 0.984 . S
N609 H613 0.985 . S
H610 N605 0.984 . S
H611 N605 0.985 . S
H612 N609 0.984 . S
H613 N609 0.985 . S
H614 N608 0.984 . S
H615 N608 0.984 . S
H616 N604 0.984 . S
H617 N604 0.985 . S
C618 C619 1.363 . S
C618 C624 1.379 . S
C618 N626 1.356 . S
C619 C618 1.363 . S
C619 C625 1.363 . S
C620 C621 1.363 . S
C620 C625 1.379 . S
C620 N627 1.356 . S
C621 C620 1.363 . S
C621 C624 1.363 . S
N622 C624 1.356 . S
N622 H634 0.984 . S
N622 H635 0.985 . S
N623 C625 1.356 . S
N623 H628 0.984 . S
N623 H629 0.985 . S
C624 C618 1.379 . S
C624 C621 1.363 . S
C624 N622 1.356 . S
C625 C619 1.363 . S
C625 C620 1.379 . S
C625 N623 1.356 . S
N626 C618 1.356 . S
N626 H632 0.984 . S
N626 H633 0.984 . S
N627 C620 1.356 . S
N627 H630 0.984 . S
N627 H631 0.985 . S
H628 N623 0.984 . S
H629 N623 0.985 . S
H630 N627 0.984 . S
H631 N627 0.985 . S
H632 N626 0.984 . S
H633 N626 0.984 . S
H634 N622 0.984 . S
H635 N622 0.985 . S
C636 C637 1.363 . S
C636 C642 1.379 . S
C636 N644 1.356 . S
C637 C636 1.363 . S
C637 C643 1.363 . S
C638 C639 1.363 . S
C638 C643 1.379 . S
C638 N645 1.356 . S
C639 C638 1.363 . S
C639 C642 1.363 . S
N640 C642 1.356 . S
N640 H652 0.984 . S
N640 H653 0.985 . S
N641 C643 1.356 . S
N641 H646 0.984 . S
N641 H647 0.985 . S
C642 C636 1.379 . S
C642 C639 1.363 . S
C642 N640 1.356 . S
C643 C637 1.363 . S
C643 C638 1.379 . S
C643 N641 1.356 . S
N644 C636 1.356 . S
N644 H650 0.984 . S
N644 H651 0.984 . S
N645 C638 1.356 . S
N645 H648 0.984 . S
N645 H649 0.985 . S
H646 N641 0.984 . S
H647 N641 0.985 . S
H648 N645 0.984 . S
H649 N645 0.985 . S
H650 N644 0.984 . S
H651 N644 0.984 . S
H652 N640 0.984 . S
H653 N640 0.985 . S
C654 C655 1.363 . S
C654 C660 1.379 . S
C654 N662 1.356 . S
C655 C654 1.363 . S
C655 C661 1.363 . S
C656 C657 1.363 . S
C656 C661 1.379 . S
C656 N663 1.356 . S
C657 C656 1.363 . S
C657 C660 1.363 . S
N658 C660 1.356 . S
N658 H670 0.984 . S
N658 H671 0.985 . S
N659 C661 1.356 . S
N659 H664 0.984 . S
N659 H665 0.985 . S
C660 C654 1.379 . S
C660 C657 1.363 . S
C660 N658 1.356 . S
C661 C655 1.363 . S
C661 C656 1.379 . S
C661 N659 1.356 . S
N662 C654 1.356 . S
N662 H668 0.984 . S
N662 H669 0.984 . S
N663 C656 1.356 . S
N663 H666 0.984 . S
N663 H667 0.985 . S
H664 N659 0.984 . S
H665 N659 0.985 . S
H666 N663 0.984 . S
H667 N663 0.985 . S
H668 N662 0.984 . S
H669 N662 0.984 . S
H670 N658 0.984 . S
H671 N658 0.985 . S
C672 C673 1.363 . S
C672 C678 1.379 1_655 S
C672 N680 1.356 . S
C673 C672 1.363 . S
C673 C679 1.363 . S
C674 C675 1.363 . S
C674 C679 1.379 1_455 S
C674 N681 1.356 1_554 S
C675 C674 1.363 . S
C675 C678 1.363 . S
N676 C678 1.356 . S
N676 H688 0.984 . S
N676 H689 0.985 . S
N677 C679 1.356 1_556 S
N677 H682 0.984 1_556 S
N677 H683 0.985 . S
C678 C672 1.379 1_455 S
C678 C675 1.363 . S
C678 N676 1.356 . S
C679 C673 1.363 . S
C679 C674 1.379 1_655 S
C679 N677 1.356 1_554 S
N680 C672 1.356 . S
N680 H686 0.984 . S
N680 H687 0.984 . S
N681 C674 1.356 1_556 S
N681 H684 0.984 1_556 S
N681 H685 0.985 . S
H682 N677 0.984 1_554 S
H683 N677 0.985 . S
H684 N681 0.984 1_554 S
H685 N681 0.985 . S
H686 N680 0.984 . S
H687 N680 0.984 . S
H688 N676 0.984 . S
H689 N676 0.985 . S
C690 C691 1.363 . S
C690 C696 1.379 . S
C690 N698 1.356 . S
C691 C690 1.363 . S
C691 C697 1.363 . S
C692 C693 1.363 . S
C692 C697 1.379 . S
C692 N699 1.356 . S
C693 C692 1.363 . S
C693 C696 1.363 . S
N694 C696 1.356 . S
N694 H706 0.984 . S
N694 H707 0.985 . S
N695 C697 1.356 . S
N695 H700 0.984 . S
N695 H701 0.985 . S
C696 C690 1.379 . S
C696 C693 1.363 . S
C696 N694 1.356 . S
C697 C691 1.363 . S
C697 C692 1.379 . S
C697 N695 1.356 . S
N698 C690 1.356 . S
N698 H704 0.984 . S
N698 H705 0.984 . S
N699 C692 1.356 . S
N699 H702 0.984 . S
N699 H703 0.985 . S
H700 N695 0.984 . S
H701 N695 0.985 . S
H702 N699 0.984 . S
H703 N699 0.985 . S
H704 N698 0.984 . S
H705 N698 0.984 . S
H706 N694 0.984 . S
H707 N694 0.985 . S
C708 C709 1.363 . S
C708 C714 1.379 1_655 S
C708 N716 1.356 . S
C709 C708 1.363 . S
C709 C715 1.363 . S
C710 C711 1.363 . S
C710 C715 1.379 1_455 S
C710 N717 1.356 1_556 S
C711 C710 1.363 . S
C711 C714 1.363 . S
N712 C714 1.356 . S
N712 H724 0.984 . S
N712 H725 0.985 . S
N713 C715 1.356 1_554 S
N713 H718 0.984 1_554 S
N713 H719 0.985 . S
C714 C708 1.379 1_455 S
C714 C711 1.363 . S
C714 N712 1.356 . S
C715 C709 1.363 . S
C715 C710 1.379 1_655 S
C715 N713 1.356 1_556 S
N716 C708 1.356 . S
N716 H722 0.984 . S
N716 H723 0.984 . S
N717 C710 1.356 1_554 S
N717 H720 0.984 1_554 S
N717 H721 0.985 . S
H718 N713 0.984 1_556 S
H719 N713 0.985 . S
H720 N717 0.984 1_556 S
H721 N717 0.985 . S
H722 N716 0.984 . S
H723 N716 0.984 . S
H724 N712 0.984 . S
H725 N712 0.985 . S
C726 C727 1.363 . S
C726 C732 1.379 . S
C726 N734 1.356 . S
C727 C726 1.363 . S
C727 C733 1.363 . S
C728 C729 1.363 . S
C728 C733 1.379 . S
C728 N735 1.356 . S
C729 C728 1.363 . S
C729 C732 1.363 . S
N730 C732 1.356 . S
N730 H742 0.984 . S
N730 H743 0.985 . S
N731 C733 1.356 . S
N731 H736 0.984 . S
N731 H737 0.985 . S
C732 C726 1.379 . S
C732 C729 1.363 . S
C732 N730 1.356 . S
C733 C727 1.363 . S
C733 C728 1.379 . S
C733 N731 1.356 . S
N734 C726 1.356 . S
N734 H740 0.984 . S
N734 H741 0.984 . S
N735 C728 1.356 . S
N735 H738 0.984 . S
N735 H739 0.985 . S
H736 N731 0.984 . S
H737 N731 0.985 . S
H738 N735 0.984 . S
H739 N735 0.985 . S
H740 N734 0.984 . S
H741 N734 0.984 . S
H742 N730 0.984 . S
H743 N730 0.985 . S
C744 C745 1.363 . S
C744 C750 1.379 . S
C744 N752 1.356 . S
C745 C744 1.363 . S
C745 C751 1.363 . S
C746 C747 1.363 . S
C746 C751 1.379 . S
C746 N753 1.356 1_554 S
C747 C746 1.363 . S
C747 C750 1.363 . S
N748 C750 1.356 . S
N748 H760 0.984 . S
N748 H761 0.985 . S
N749 C751 1.356 1_556 S
N749 H754 0.984 1_556 S
N749 H755 0.985 . S
C750 C744 1.379 . S
C750 C747 1.363 . S
C750 N748 1.356 . S
C751 C745 1.363 . S
C751 C746 1.379 . S
C751 N749 1.356 1_554 S
N752 C744 1.356 . S
N752 H758 0.984 . S
N752 H759 0.984 . S
N753 C746 1.356 1_556 S
N753 H756 0.984 1_556 S
N753 H757 0.985 . S
H754 N749 0.984 1_554 S
H755 N749 0.985 . S
H756 N753 0.984 1_554 S
H757 N753 0.985 . S
H758 N752 0.984 . S
H759 N752 0.984 . S
H760 N748 0.984 . S
H761 N748 0.985 . S
C762 C763 1.363 . S
C762 C768 1.379 1_455 S
C762 N770 1.356 . S
C763 C762 1.363 . S
C763 C769 1.363 . S
C764 C765 1.363 . S
C764 C769 1.379 1_655 S
C764 N771 1.356 . S
C765 C764 1.363 . S
C765 C768 1.363 . S
N766 C768 1.356 . S
N766 H778 0.984 . S
N766 H779 0.985 . S
N767 C769 1.356 . S
N767 H772 0.984 . S
N767 H773 0.985 . S
C768 C762 1.379 1_655 S
C768 C765 1.363 . S
C768 N766 1.356 . S
C769 C763 1.363 . S
C769 C764 1.379 1_455 S
C769 N767 1.356 . S
N770 C762 1.356 . S
N770 H776 0.984 . S
N770 H777 0.984 . S
N771 C764 1.356 . S
N771 H774 0.984 . S
N771 H775 0.985 . S
H772 N767 0.984 . S
H773 N767 0.985 . S
H774 N771 0.984 . S
H775 N771 0.985 . S
H776 N770 0.984 . S
H777 N770 0.984 . S
H778 N766 0.984 . S
H779 N766 0.985 . S
C780 C781 1.363 . S
C780 C786 1.379 . S
C780 N788 1.356 . S
C781 C780 1.363 . S
C781 C787 1.363 . S
C782 C783 1.363 . S
C782 C787 1.379 . S
C782 N789 1.356 1_556 S
C783 C782 1.363 . S
C783 C786 1.363 . S
N784 C786 1.356 . S
N784 H796 0.984 . S
N784 H797 0.985 . S
N785 C787 1.356 1_554 S
N785 H790 0.984 1_554 S
N785 H791 0.985 . S
C786 C780 1.379 . S
C786 C783 1.363 . S
C786 N784 1.356 . S
C787 C781 1.363 . S
C787 C782 1.379 . S
C787 N785 1.356 1_556 S
N788 C780 1.356 . S
N788 H794 0.984 . S
N788 H795 0.984 . S
N789 C782 1.356 1_554 S
N789 H792 0.984 1_554 S
N789 H793 0.985 . S
H790 N785 0.984 1_556 S
H791 N785 0.985 . S
H792 N789 0.984 1_556 S
H793 N789 0.985 . S
H794 N788 0.984 . S
H795 N788 0.984 . S
H796 N784 0.984 . S
H797 N784 0.985 . S
C798 C799 1.363 . S
C798 C804 1.379 1_655 S
C798 N806 1.356 . S
C799 C798 1.363 . S
C799 C805 1.363 . S
C800 C801 1.363 . S
C800 C805 1.379 1_455 S
C800 N807 1.356 . S
C801 C800 1.363 . S
C801 C804 1.363 . S
N802 C804 1.356 . S
N802 H814 0.984 . S
N802 H815 0.985 . S
N803 C805 1.356 . S
N803 H808 0.984 . S
N803 H809 0.985 . S
C804 C798 1.379 1_455 S
C804 C801 1.363 . S
C804 N802 1.356 . S
C805 C799 1.363 . S
C805 C800 1.379 1_655 S
C805 N803 1.356 . S
N806 C798 1.356 . S
N806 H812 0.984 . S
N806 H813 0.984 . S
N807 C800 1.356 . S
N807 H810 0.984 . S
N807 H811 0.985 . S
H808 N803 0.984 . S
H809 N803 0.985 . S
H810 N807 0.984 . S
H811 N807 0.985 . S
H812 N806 0.984 . S
H813 N806 0.984 . S
H814 N802 0.984 . S
H815 N802 0.985 . S
C816 C817 1.363 1_556 S
C816 C822 1.379 . S
C816 N824 1.356 . S
C817 C816 1.363 1_554 S
C817 C823 1.363 1_545 S
C818 C819 1.363 1_554 S
C818 C823 1.379 . S
C818 N825 1.356 . S
C819 C818 1.363 1_556 S
C819 C822 1.363 1_565 S
N820 C822 1.356 1_565 S
N820 H832 0.984 1_565 S
N820 H833 0.985 . S
N821 C823 1.356 1_545 S
N821 H826 0.984 . S
N821 H827 0.985 1_545 S
C822 C816 1.379 . S
C822 C819 1.363 1_545 S
C822 N820 1.356 1_545 S
C823 C817 1.363 1_565 S
C823 C818 1.379 . S
C823 N821 1.356 1_565 S
N824 C816 1.356 . S
N824 H830 0.984 . S
N824 H831 0.984 1_556 S
N825 C818 1.356 . S
N825 H828 0.984 1_554 S
N825 H829 0.985 . S
H826 N821 0.984 . S
H827 N821 0.985 1_565 S
H828 N825 0.984 1_556 S
H829 N825 0.985 . S
H830 N824 0.984 . S
H831 N824 0.984 1_554 S
H832 N820 0.984 1_545 S
H833 N820 0.985 . S
C834 C835 1.363 1_545 S
C834 C840 1.379 . S
C834 N842 1.356 1_545 S
C835 C834 1.363 1_565 S
C835 C841 1.363 . S
C836 C837 1.363 1_565 S
C836 C841 1.379 . S
C836 N843 1.356 1_565 S
C837 C836 1.363 1_545 S
C837 C840 1.363 . S
N838 C840 1.356 . S
N838 H850 0.984 . S
N838 H851 0.985 . S
N839 C841 1.356 . S
N839 H844 0.984 . S
N839 H845 0.985 . S
C840 C834 1.379 . S
C840 C837 1.363 . S
C840 N838 1.356 . S
C841 C835 1.363 . S
C841 C836 1.379 . S
C841 N839 1.356 . S
N842 C834 1.356 1_565 S
N842 H848 0.984 1_565 S
N842 H849 0.984 . S
N843 C836 1.356 1_545 S
N843 H846 0.984 . S
N843 H847 0.985 1_545 S
H844 N839 0.984 . S
H845 N839 0.985 . S
H846 N843 0.984 . S
H847 N843 0.985 1_565 S
H848 N842 0.984 1_545 S
H849 N842 0.984 . S
H850 N838 0.984 . S
H851 N838 0.985 . S
C852 C853 1.363 1_554 S
C852 C858 1.359 1_565 S
C852 N860 1.356 . S
C853 C852 1.363 1_556 S
C853 C859 1.383 . S
C854 C855 1.363 1_556 S
C854 C859 1.359 1_545 S
C854 N861 1.356 . S
C855 C854 1.363 1_554 S
C855 C858 1.383 . S
N856 C858 1.364 . S
N856 H868 0.984 1_545 S
N856 H869 0.985 . S
N857 C859 1.364 . S
N857 H862 0.984 . S
N857 H863 0.985 1_565 S
C858 C852 1.359 1_545 S
C858 C855 1.383 . S
C858 N856 1.364 . S
C859 C853 1.383 . S
C859 C854 1.359 1_565 S
C859 N857 1.364 . S
N860 C852 1.356 . S
N860 H866 0.984 . S
N860 H867 0.984 1_554 S
N861 C854 1.356 . S
N861 H864 0.984 1_556 S
N861 H865 0.985 . S
H862 N857 0.984 . S
H863 N857 0.985 1_545 S
H864 N861 0.984 1_554 S
H865 N861 0.985 . S
H866 N860 0.984 . S
H867 N860 0.984 1_556 S
H868 N856 0.984 1_565 S
H869 N856 0.985 . S
C870 C871 1.363 1_565 S
C870 C876 1.379 . S
C870 N878 1.356 1_565 S
C871 C870 1.363 1_545 S
C871 C877 1.363 . S
C872 C873 1.363 1_545 S
C872 C877 1.379 . S
C872 N879 1.356 1_545 S
C873 C872 1.363 1_565 S
C873 C876 1.363 . S
N874 C876 1.356 . S
N874 H886 0.984 . S
N874 H887 0.985 . S
N875 C877 1.356 . S
N875 H880 0.984 . S
N875 H881 0.985 . S
C876 C870 1.379 . S
C876 C873 1.363 . S
C876 N874 1.356 . S
C877 C871 1.363 . S
C877 C872 1.379 . S
C877 N875 1.356 . S
N878 C870 1.356 1_545 S
N878 H884 0.984 1_545 S
N878 H885 0.984 . S
N879 C872 1.356 1_565 S
N879 H882 0.984 . S
N879 H883 0.985 1_565 S
H880 N875 0.984 . S
H881 N875 0.985 . S
H882 N879 0.984 . S
H883 N879 0.985 1_545 S
H884 N878 0.984 1_565 S
H885 N878 0.984 . S
H886 N874 0.984 . S
H887 N874 0.985 . S
C888 C889 1.363 . S
C888 C894 1.379 . S
C888 N896 1.356 . S
C889 C888 1.363 . S
C889 C895 1.363 1_554 S
C890 C891 1.363 . S
C890 C895 1.379 . S
C890 N897 1.356 . S
C891 C890 1.363 . S
C891 C894 1.363 1_556 S
N892 C894 1.356 1_556 S
N892 H904 0.984 1_556 S
N892 H905 0.985 . S
N893 C895 1.356 1_554 S
N893 H898 0.984 . S
N893 H899 0.985 1_554 S
C894 C888 1.379 . S
C894 C891 1.363 1_554 S
C894 N892 1.356 1_554 S
C895 C889 1.363 1_556 S
C895 C890 1.379 . S
C895 N893 1.356 1_556 S
N896 C888 1.356 . S
N896 H902 0.984 . S
N896 H903 0.984 . S
N897 C890 1.356 . S
N897 H900 0.984 . S
N897 H901 0.985 . S
H898 N893 0.984 . S
H899 N893 0.985 1_556 S
H900 N897 0.984 . S
H901 N897 0.985 . S
H902 N896 0.984 . S
H903 N896 0.984 . S
H904 N892 0.984 1_554 S
H905 N892 0.985 . S
C906 C907 1.363 . S
C906 C912 1.379 . S
C906 N914 1.356 . S
C907 C906 1.363 . S
C907 C913 1.363 . S
C908 C909 1.363 . S
C908 C913 1.379 . S
C908 N915 1.356 . S
C909 C908 1.363 . S
C909 C912 1.363 . S
N910 C912 1.356 . S
N910 H922 0.984 . S
N910 H923 0.985 . S
N911 C913 1.356 . S
N911 H916 0.984 . S
N911 H917 0.985 . S
C912 C906 1.379 . S
C912 C909 1.363 . S
C912 N910 1.356 . S
C913 C907 1.363 . S
C913 C908 1.379 . S
C913 N911 1.356 . S
N914 C906 1.356 . S
N914 H920 0.984 . S
N914 H921 0.984 . S
N915 C908 1.356 . S
N915 H918 0.984 . S
N915 H919 0.985 . S
H916 N911 0.984 . S
H917 N911 0.985 . S
H918 N915 0.984 . S
H919 N915 0.985 . S
H920 N914 0.984 . S
H921 N914 0.984 . S
H922 N910 0.984 . S
H923 N910 0.985 . S
C924 C925 1.363 . S
C924 C930 1.379 . S
C924 N932 1.356 . S
C925 C924 1.363 . S
C925 C931 1.363 1_556 S
C926 C927 1.363 . S
C926 C931 1.379 . S
C926 N933 1.356 . S
C927 C926 1.363 . S
C927 C930 1.363 1_554 S
N928 C930 1.356 1_554 S
N928 H940 0.984 1_554 S
N928 H941 0.985 . S
N929 C931 1.356 1_556 S
N929 H934 0.984 . S
N929 H935 0.985 1_556 S
C930 C924 1.379 . S
C930 C927 1.363 1_556 S
C930 N928 1.356 1_556 S
C931 C925 1.363 1_554 S
C931 C926 1.379 . S
C931 N929 1.356 1_554 S
N932 C924 1.356 . S
N932 H938 0.984 . S
N932 H939 0.984 . S
N933 C926 1.356 . S
N933 H936 0.984 . S
N933 H937 0.985 . S
H934 N929 0.984 . S
H935 N929 0.985 1_554 S
H936 N933 0.984 . S
H937 N933 0.985 . S
H938 N932 0.984 . S
H939 N932 0.984 . S
H940 N928 0.984 1_556 S
H941 N928 0.985 . S
C942 C943 1.363 . S
C942 C948 1.379 . S
C942 N950 1.356 . S
C943 C942 1.363 . S
C943 C949 1.363 . S
C944 C945 1.363 . S
C944 C949 1.379 . S
C944 N951 1.356 . S
C945 C944 1.363 . S
C945 C948 1.363 . S
N946 C948 1.356 . S
N946 H958 0.984 . S
N946 H959 0.985 . S
N947 C949 1.356 . S
N947 H952 0.984 . S
N947 H953 0.985 . S
C948 C942 1.379 . S
C948 C945 1.363 . S
C948 N946 1.356 . S
C949 C943 1.363 . S
C949 C944 1.379 . S
C949 N947 1.356 . S
N950 C942 1.356 . S
N950 H956 0.984 . S
N950 H957 0.984 . S
N951 C944 1.356 . S
N951 H954 0.984 . S
N951 H955 0.985 . S
H952 N947 0.984 . S
H953 N947 0.985 . S
H954 N951 0.984 . S
H955 N951 0.985 . S
H956 N950 0.984 . S
H957 N950 0.984 . S
H958 N946 0.984 . S
H959 N946 0.985 . S
C960 C961 1.363 . S
C960 C966 1.379 . S
C960 N968 1.356 . S
C961 C960 1.363 . S
C961 C967 1.363 . S
C962 C963 1.363 . S
C962 C967 1.379 . S
C962 N969 1.356 . S
C963 C962 1.363 . S
C963 C966 1.363 . S
N964 C966 1.356 . S
N964 H976 0.984 . S
N964 H977 0.985 . S
N965 C967 1.356 . S
N965 H970 0.984 . S
N965 H971 0.985 . S
C966 C960 1.379 . S
C966 C963 1.363 . S
C966 N964 1.356 . S
C967 C961 1.363 . S
C967 C962 1.379 . S
C967 N965 1.356 . S
N968 C960 1.356 . S
N968 H974 0.984 . S
N968 H975 0.984 . S
N969 C962 1.356 . S
N969 H972 0.984 . S
N969 H973 0.985 . S
H970 N965 0.984 . S
H971 N965 0.985 . S
H972 N969 0.984 . S
H973 N969 0.985 . S
H974 N968 0.984 . S
H975 N968 0.984 . S
H976 N964 0.984 . S
H977 N964 0.985 . S
C978 C979 1.363 . S
C978 C984 1.379 . S
C978 N986 1.356 . S
C979 C978 1.363 . S
C979 C985 1.363 . S
C980 C981 1.363 . S
C980 C985 1.379 . S
C980 N987 1.356 . S
C981 C980 1.363 . S
C981 C984 1.363 . S
N982 C984 1.356 . S
N982 H994 0.984 . S
N982 H995 0.985 . S
N983 C985 1.356 . S
N983 H988 0.984 . S
N983 H989 0.985 . S
C984 C978 1.379 . S
C984 C981 1.363 . S
C984 N982 1.356 . S
C985 C979 1.363 . S
C985 C980 1.379 . S
C985 N983 1.356 . S
N986 C978 1.356 . S
N986 H992 0.984 . S
N986 H993 0.984 . S
N987 C980 1.356 . S
N987 H990 0.984 . S
N987 H991 0.985 . S
H988 N983 0.984 . S
H989 N983 0.985 . S
H990 N987 0.984 . S
H991 N987 0.985 . S
H992 N986 0.984 . S
H993 N986 0.984 . S
H994 N982 0.984 . S
H995 N982 0.985 . S
C996 C997 1.363 . S
C996 C1002 1.379 . S
C996 N1004 1.356 . S
C997 C996 1.363 . S
C997 C1003 1.363 . S
C998 C999 1.363 . S
C998 C1003 1.379 . S
C998 N1005 1.356 . S
C999 C998 1.363 . S
C999 C1002 1.363 . S
N1000 C1002 1.356 . S
N1000 H1012 0.984 . S
N1000 H1013 0.985 . S
N1001 C1003 1.356 . S
N1001 H1006 0.984 . S
N1001 H1007 0.985 . S
C1002 C996 1.379 . S
C1002 C999 1.363 . S
C1002 N1000 1.356 . S
C1003 C997 1.363 . S
C1003 C998 1.379 . S
C1003 N1001 1.356 . S
N1004 C996 1.356 . S
N1004 H1010 0.984 . S
N1004 H1011 0.984 . S
N1005 C998 1.356 . S
N1005 H1008 0.984 . S
N1005 H1009 0.985 . S
H1006 N1001 0.984 . S
H1007 N1001 0.985 . S
H1008 N1005 0.984 . S
H1009 N1005 0.985 . S
H1010 N1004 0.984 . S
H1011 N1004 0.984 . S
H1012 N1000 0.984 . S
H1013 N1000 0.985 . S
C1014 C1015 1.363 . S
C1014 C1020 1.379 . S
C1014 N1022 1.356 . S
C1015 C1014 1.363 . S
C1015 C1021 1.363 . S
C1016 C1017 1.363 . S
C1016 C1021 1.379 . S
C1016 N1023 1.356 . S
C1017 C1016 1.363 . S
C1017 C1020 1.363 . S
N1018 C1020 1.356 . S
N1018 H1030 0.984 . S
N1018 H1031 0.985 . S
N1019 C1021 1.356 . S
N1019 H1024 0.984 . S
N1019 H1025 0.985 . S
C1020 C1014 1.379 . S
C1020 C1017 1.363 . S
C1020 N1018 1.356 . S
C1021 C1015 1.363 . S
C1021 C1016 1.379 . S
C1021 N1019 1.356 . S
N1022 C1014 1.356 . S
N1022 H1028 0.984 . S
N1022 H1029 0.984 . S
N1023 C1016 1.356 . S
N1023 H1026 0.984 . S
N1023 H1027 0.985 . S
H1024 N1019 0.984 . S
H1025 N1019 0.985 . S
H1026 N1023 0.984 . S
H1027 N1023 0.985 . S
H1028 N1022 0.984 . S
H1029 N1022 0.984 . S
H1030 N1018 0.984 . S
H1031 N1018 0.985 . S
C1032 C1033 1.363 . S
C1032 C1038 1.379 . S
C1032 N1040 1.356 . S
C1033 C1032 1.363 . S
C1033 C1039 1.363 . S
C1034 C1035 1.363 . S
C1034 C1039 1.379 . S
C1034 N1041 1.356 . S
C1035 C1034 1.363 . S
C1035 C1038 1.363 . S
N1036 C1038 1.356 . S
N1036 H1048 0.984 . S
N1036 H1049 0.985 . S
N1037 C1039 1.356 . S
N1037 H1042 0.984 . S
N1037 H1043 0.985 . S
C1038 C1032 1.379 . S
C1038 C1035 1.363 . S
C1038 N1036 1.356 . S
C1039 C1033 1.363 . S
C1039 C1034 1.379 . S
C1039 N1037 1.356 . S
N1040 C1032 1.356 . S
N1040 H1046 0.984 . S
N1040 H1047 0.984 . S
N1041 C1034 1.356 . S
N1041 H1044 0.984 . S
N1041 H1045 0.985 . S
H1042 N1037 0.984 . S
H1043 N1037 0.985 . S
H1044 N1041 0.984 . S
H1045 N1041 0.985 . S
H1046 N1040 0.984 . S
H1047 N1040 0.984 . S
H1048 N1036 0.984 . S
H1049 N1036 0.985 . S
C1050 C1051 1.363 . S
C1050 C1056 1.379 . S
C1050 N1058 1.356 . S
C1051 C1050 1.363 . S
C1051 C1057 1.363 . S
C1052 C1053 1.363 . S
C1052 C1057 1.379 . S
C1052 N1059 1.356 . S
C1053 C1052 1.363 . S
C1053 C1056 1.363 . S
N1054 C1056 1.356 . S
N1054 H1066 0.984 . S
N1054 H1067 0.985 . S
N1055 C1057 1.356 . S
N1055 H1060 0.984 . S
N1055 H1061 0.985 . S
C1056 C1050 1.379 . S
C1056 C1053 1.363 . S
C1056 N1054 1.356 . S
C1057 C1051 1.363 . S
C1057 C1052 1.379 . S
C1057 N1055 1.356 . S
N1058 C1050 1.356 . S
N1058 H1064 0.984 . S
N1058 H1065 0.984 . S
N1059 C1052 1.356 . S
N1059 H1062 0.984 . S
N1059 H1063 0.985 . S
H1060 N1055 0.984 . S
H1061 N1055 0.985 . S
H1062 N1059 0.984 . S
H1063 N1059 0.985 . S
H1064 N1058 0.984 . S
H1065 N1058 0.984 . S
H1066 N1054 0.984 . S
H1067 N1054 0.985 . S
C1068 C1069 1.363 . S
C1068 C1074 1.379 . S
C1068 N1076 1.356 . S
C1069 C1068 1.363 . S
C1069 C1075 1.363 . S
C1070 C1071 1.363 . S
C1070 C1075 1.379 . S
C1070 N1077 1.356 . S
C1071 C1070 1.363 . S
C1071 C1074 1.363 . S
N1072 C1074 1.356 . S
N1072 H1084 0.984 . S
N1072 H1085 0.985 . S
N1073 C1075 1.356 . S
N1073 H1078 0.984 . S
N1073 H1079 0.985 . S
C1074 C1068 1.379 . S
C1074 C1071 1.363 . S
C1074 N1072 1.356 . S
C1075 C1069 1.363 . S
C1075 C1070 1.379 . S
C1075 N1073 1.356 . S
N1076 C1068 1.356 . S
N1076 H1082 0.984 . S
N1076 H1083 0.984 . S
N1077 C1070 1.356 . S
N1077 H1080 0.984 . S
N1077 H1081 0.985 . S
H1078 N1073 0.984 . S
H1079 N1073 0.985 . S
H1080 N1077 0.984 . S
H1081 N1077 0.985 . S
H1082 N1076 0.984 . S
H1083 N1076 0.984 . S
H1084 N1072 0.984 . S
H1085 N1072 0.985 . S
C1086 C1087 1.363 . S
C1086 C1092 1.379 . S
C1086 N1094 1.356 . S
C1087 C1086 1.363 . S
C1087 C1093 1.363 . S
C1088 C1089 1.363 . S
C1088 C1093 1.379 . S
C1088 N1095 1.356 . S
C1089 C1088 1.363 . S
C1089 C1092 1.363 . S
N1090 C1092 1.356 . S
N1090 H1102 0.984 . S
N1090 H1103 0.985 . S
N1091 C1093 1.356 . S
N1091 H1096 0.984 . S
N1091 H1097 0.985 . S
C1092 C1086 1.379 . S
C1092 C1089 1.363 . S
C1092 N1090 1.356 . S
C1093 C1087 1.363 . S
C1093 C1088 1.379 . S
C1093 N1091 1.356 . S
N1094 C1086 1.356 . S
N1094 H1100 0.984 . S
N1094 H1101 0.984 . S
N1095 C1088 1.356 . S
N1095 H1098 0.984 . S
N1095 H1099 0.985 . S
H1096 N1091 0.984 . S
H1097 N1091 0.985 . S
H1098 N1095 0.984 . S
H1099 N1095 0.985 . S
H1100 N1094 0.984 . S
H1101 N1094 0.984 . S
H1102 N1090 0.984 . S
H1103 N1090 0.985 . S
C1104 C1105 1.363 . S
C1104 C1110 1.379 . S
C1104 N1112 1.356 . S
C1105 C1104 1.363 . S
C1105 C1111 1.363 . S
C1106 C1107 1.363 . S
C1106 C1111 1.379 . S
C1106 N1113 1.356 . S
C1107 C1106 1.363 . S
C1107 C1110 1.363 . S
N1108 C1110 1.356 . S
N1108 H1120 0.984 . S
N1108 H1121 0.985 . S
N1109 C1111 1.356 . S
N1109 H1114 0.984 . S
N1109 H1115 0.985 . S
C1110 C1104 1.379 . S
C1110 C1107 1.363 . S
C1110 N1108 1.356 . S
C1111 C1105 1.363 . S
C1111 C1106 1.379 . S
C1111 N1109 1.356 . S
N1112 C1104 1.356 . S
N1112 H1118 0.984 . S
N1112 H1119 0.984 . S
N1113 C1106 1.356 . S
N1113 H1116 0.984 . S
N1113 H1117 0.985 . S
H1114 N1109 0.984 . S
H1115 N1109 0.985 . S
H1116 N1113 0.984 . S
H1117 N1113 0.985 . S
H1118 N1112 0.984 . S
H1119 N1112 0.984 . S
H1120 N1108 0.984 . S
H1121 N1108 0.985 . S
C1122 C1123 1.363 . S
C1122 C1128 1.379 . S
C1122 N1130 1.356 . S
C1123 C1122 1.363 . S
C1123 C1129 1.363 . S
C1124 C1125 1.363 . S
C1124 C1129 1.379 . S
C1124 N1131 1.356 . S
C1125 C1124 1.363 . S
C1125 C1128 1.363 . S
N1126 C1128 1.356 . S
N1126 H1138 0.984 . S
N1126 H1139 0.985 . S
N1127 C1129 1.356 . S
N1127 H1132 0.984 . S
N1127 H1133 0.985 . S
C1128 C1122 1.379 . S
C1128 C1125 1.363 . S
C1128 N1126 1.356 . S
C1129 C1123 1.363 . S
C1129 C1124 1.379 . S
C1129 N1127 1.356 . S
N1130 C1122 1.356 . S
N1130 H1136 0.984 . S
N1130 H1137 0.984 . S
N1131 C1124 1.356 . S
N1131 H1134 0.984 . S
N1131 H1135 0.985 . S
H1132 N1127 0.984 . S
H1133 N1127 0.985 . S
H1134 N1131 0.984 . S
H1135 N1131 0.985 . S
H1136 N1130 0.984 . S
H1137 N1130 0.984 . S
H1138 N1126 0.984 . S
H1139 N1126 0.985 . S
C1140 C1141 1.363 . S
C1140 C1146 1.379 . S
C1140 N1148 1.356 . S
C1141 C1140 1.363 . S
C1141 C1147 1.363 . S
C1142 C1143 1.363 . S
C1142 C1147 1.379 . S
C1142 N1149 1.356 . S
C1143 C1142 1.363 . S
C1143 C1146 1.363 . S
N1144 C1146 1.356 . S
N1144 H1156 0.984 . S
N1144 H1157 0.985 . S
N1145 C1147 1.356 . S
N1145 H1150 0.984 . S
N1145 H1151 0.985 . S
C1146 C1140 1.379 . S
C1146 C1143 1.363 . S
C1146 N1144 1.356 . S
C1147 C1141 1.363 . S
C1147 C1142 1.379 . S
C1147 N1145 1.356 . S
N1148 C1140 1.356 . S
N1148 H1154 0.984 . S
N1148 H1155 0.984 . S
N1149 C1142 1.356 . S
N1149 H1152 0.984 . S
N1149 H1153 0.985 . S
H1150 N1145 0.984 . S
H1151 N1145 0.985 . S
H1152 N1149 0.984 . S
H1153 N1149 0.985 . S
H1154 N1148 0.984 . S
H1155 N1148 0.984 . S
H1156 N1144 0.984 . S
H1157 N1144 0.985 . S
C1158 C1159 1.363 . S
C1158 C1164 1.379 . S
C1158 N1166 1.356 . S
C1159 C1158 1.363 . S
C1159 C1165 1.363 . S
C1160 C1161 1.363 . S
C1160 C1165 1.379 . S
C1160 N1167 1.356 . S
C1161 C1160 1.363 . S
C1161 C1164 1.363 . S
N1162 C1164 1.356 . S
N1162 H1174 0.984 . S
N1162 H1175 0.985 . S
N1163 C1165 1.356 . S
N1163 H1168 0.984 . S
N1163 H1169 0.985 . S
C1164 C1158 1.379 . S
C1164 C1161 1.363 . S
C1164 N1162 1.356 . S
C1165 C1159 1.363 . S
C1165 C1160 1.379 . S
C1165 N1163 1.356 . S
N1166 C1158 1.356 . S
N1166 H1172 0.984 . S
N1166 H1173 0.984 . S
N1167 C1160 1.356 . S
N1167 H1170 0.984 . S
N1167 H1171 0.985 . S
H1168 N1163 0.984 . S
H1169 N1163 0.985 . S
H1170 N1167 0.984 . S
H1171 N1167 0.985 . S
H1172 N1166 0.984 . S
H1173 N1166 0.984 . S
H1174 N1162 0.984 . S
H1175 N1162 0.985 . S
C1176 C1177 1.363 . S
C1176 C1182 1.379 . S
C1176 N1184 1.356 . S
C1177 C1176 1.363 . S
C1177 C1183 1.363 . S
C1178 C1179 1.363 . S
C1178 C1183 1.379 . S
C1178 N1185 1.356 . S
C1179 C1178 1.363 . S
C1179 C1182 1.363 . S
N1180 C1182 1.356 . S
N1180 H1192 0.984 . S
N1180 H1193 0.985 . S
N1181 C1183 1.356 . S
N1181 H1186 0.984 . S
N1181 H1187 0.985 . S
C1182 C1176 1.379 . S
C1182 C1179 1.363 . S
C1182 N1180 1.356 . S
C1183 C1177 1.363 . S
C1183 C1178 1.379 . S
C1183 N1181 1.356 . S
N1184 C1176 1.356 . S
N1184 H1190 0.984 . S
N1184 H1191 0.984 . S
N1185 C1178 1.356 . S
N1185 H1188 0.984 . S
N1185 H1189 0.985 . S
H1186 N1181 0.984 . S
H1187 N1181 0.985 . S
H1188 N1185 0.984 . S
H1189 N1185 0.985 . S
H1190 N1184 0.984 . S
H1191 N1184 0.984 . S
H1192 N1180 0.984 . S
H1193 N1180 0.985 . S
C1194 C1195 1.363 . S
C1194 C1200 1.379 . S
C1194 N1202 1.356 . S
C1195 C1194 1.363 . S
C1195 C1201 1.363 . S
C1196 C1197 1.363 . S
C1196 C1201 1.379 . S
C1196 N1203 1.356 . S
C1197 C1196 1.363 . S
C1197 C1200 1.363 . S
N1198 C1200 1.356 . S
N1198 H1210 0.984 . S
N1198 H1211 0.985 . S
N1199 C1201 1.356 . S
N1199 H1204 0.984 . S
N1199 H1205 0.985 . S
C1200 C1194 1.379 . S
C1200 C1197 1.363 . S
C1200 N1198 1.356 . S
C1201 C1195 1.363 . S
C1201 C1196 1.379 . S
C1201 N1199 1.356 . S
N1202 C1194 1.356 . S
N1202 H1208 0.984 . S
N1202 H1209 0.984 . S
N1203 C1196 1.356 . S
N1203 H1206 0.984 . S
N1203 H1207 0.985 . S
H1204 N1199 0.984 . S
H1205 N1199 0.985 . S
H1206 N1203 0.984 . S
H1207 N1203 0.985 . S
H1208 N1202 0.984 . S
H1209 N1202 0.984 . S
H1210 N1198 0.984 . S
H1211 N1198 0.985 . S
C1212 C1213 1.363 . S
C1212 C1218 1.379 . S
C1212 N1220 1.356 . S
C1213 C1212 1.363 . S
C1213 C1219 1.363 . S
C1214 C1215 1.363 . S
C1214 C1219 1.379 . S
C1214 N1221 1.356 . S
C1215 C1214 1.363 . S
C1215 C1218 1.363 . S
N1216 C1218 1.356 . S
N1216 H1228 0.984 . S
N1216 H1229 0.985 . S
N1217 C1219 1.356 . S
N1217 H1222 0.984 . S
N1217 H1223 0.985 . S
C1218 C1212 1.379 . S
C1218 C1215 1.363 . S
C1218 N1216 1.356 . S
C1219 C1213 1.363 . S
C1219 C1214 1.379 . S
C1219 N1217 1.356 . S
N1220 C1212 1.356 . S
N1220 H1226 0.984 . S
N1220 H1227 0.984 . S
N1221 C1214 1.356 . S
N1221 H1224 0.984 . S
N1221 H1225 0.985 . S
H1222 N1217 0.984 . S
H1223 N1217 0.985 . S
H1224 N1221 0.984 . S
H1225 N1221 0.985 . S
H1226 N1220 0.984 . S
H1227 N1220 0.984 . S
H1228 N1216 0.984 . S
H1229 N1216 0.985 . S
C1230 C1231 1.363 . S
C1230 C1236 1.379 . S
C1230 N1238 1.356 . S
C1231 C1230 1.363 . S
C1231 C1237 1.363 . S
C1232 C1233 1.363 . S
C1232 C1237 1.379 . S
C1232 N1239 1.356 . S
C1233 C1232 1.363 . S
C1233 C1236 1.363 . S
N1234 C1236 1.356 . S
N1234 H1246 0.984 . S
N1234 H1247 0.985 . S
N1235 C1237 1.356 . S
N1235 H1240 0.984 . S
N1235 H1241 0.985 . S
C1236 C1230 1.379 . S
C1236 C1233 1.363 . S
C1236 N1234 1.356 . S
C1237 C1231 1.363 . S
C1237 C1232 1.379 . S
C1237 N1235 1.356 . S
N1238 C1230 1.356 . S
N1238 H1244 0.984 . S
N1238 H1245 0.984 . S
N1239 C1232 1.356 . S
N1239 H1242 0.984 . S
N1239 H1243 0.985 . S
H1240 N1235 0.984 . S
H1241 N1235 0.985 . S
H1242 N1239 0.984 . S
H1243 N1239 0.985 . S
H1244 N1238 0.984 . S
H1245 N1238 0.984 . S
H1246 N1234 0.984 . S
H1247 N1234 0.985 . S
C529 N13 1.748 . S
C531 N112 1.748 . S
C547 N79 1.748 . S
C549 N46 1.748 . S
C565 N244 1.748 . S
C567 N145 1.748 . S
C583 N178 1.748 . S
C585 N211 1.748 . S
C601 N277 1.748 . S
C603 N376 1.748 . S
C619 N310 1.748 . S
C621 N343 1.748 . S
C637 N508 1.748 . S
C639 N409 1.748 . S
C655 N442 1.748 . S
C657 N475 1.748 . S
C673 N200 1.549 . S
C675 N2 1.549 . S
C691 N233 1.549 . S
C693 N35 1.549 . S
C709 N134 1.549 . S
C711 N68 1.549 . S
C727 N167 1.549 . S
C729 N101 1.549 . S
C745 N464 1.549 . S
C747 N266 1.549 . S
C763 N497 1.549 . S
C765 N299 1.549 . S
C781 N398 1.549 . S
C783 N332 1.549 . S
C799 N365 1.549 . S
C801 N431 1.549 . S
C817 C7 1.579 . S
C819 C73 1.579 . S
C835 C40 1.579 . S
C837 C106 1.579 . S
C853 C139 1.579 . S
C855 C205 1.579 . S
C871 C172 1.579 . S
C873 C238 1.579 . S
C889 C271 1.579 . S
C891 C337 1.579 . S
C907 C304 1.579 . S
C909 C370 1.579 . S
C925 C403 1.579 . S
C927 C469 1.579 . S
C943 C436 1.579 . S
C945 C502 1.579 . S
C961 C513 1.235 . S
C963 C21 1.245 . S
C979 C54 1.245 . S
C981 C480 1.235 . S
C997 C87 1.245 . S
C999 C447 1.235 . S
C1015 C414 1.235 . S
C1017 C120 1.245 . S
C1033 C381 1.235 . S
C1035 C153 1.245 . S
C1051 C186 1.245 . S
C1053 C348 1.235 . S
C1069 C219 1.245 . S
C1071 C315 1.235 . S
C1087 C252 1.245 . S
C1089 C282 1.235 . S
C1105 C285 1.245 . S
C1107 C249 1.235 . S
C1123 C216 1.235 . S
C1125 C318 1.245 . S
C1141 C183 1.235 . S
C1143 C351 1.245 . S
C1159 C384 1.245 . S
C1161 C150 1.235 . S
C1177 C417 1.245 . S
C1179 C117 1.235 . S
C1195 C84 1.235 . S
C1197 C450 1.245 . S
C1213 C51 1.235 . S
C1215 C483 1.245 . S
C1231 C18 1.235 . S
C1233 C516 1.245 . S
