# Generated by pormake.
# Topology vci, (7)-cn, num edge types: 1
# Building blocks:
#     Node 0, Type 0, BuildingBlock: HICVOG_clean_sbu_0, # of connection points: 7
#     Node 1, Type 0, BuildingBlock: HICVOG_clean_sbu_0, # of connection points: 7
#     Node 2, Type 0, BuildingBlock: HICVOG_clean_sbu_0, # of connection points: 7
#     Node 3, Type 0, BuildingBlock: HICVOG_clean_sbu_0, # of connection points: 7
#     Node 4, Type 0, BuildingBlock: HICVOG_clean_sbu_0, # of connection points: 7
#     Node 5, Type 0, BuildingBlock: HICVOG_clean_sbu_0, # of connection points: 7
#     Node 6, Type 0, BuildingBlock: HICVOG_clean_sbu_0, # of connection points: 7
#     Node 7, Type 0, BuildingBlock: HICVOG_clean_sbu_0, # of connection points: 7
#     Node 8, Type 0, BuildingBlock: HICVOG_clean_sbu_0, # of connection points: 7
#     Node 9, Type 0, BuildingBlock: HICVOG_clean_sbu_0, # of connection points: 7
#     Node 10, Type 0, BuildingBlock: HICVOG_clean_sbu_0, # of connection points: 7
#     Node 11, Type 0, BuildingBlock: HICVOG_clean_sbu_0, # of connection points: 7
#     Node 12, Type 0, BuildingBlock: HICVOG_clean_sbu_0, # of connection points: 7
#     Node 13, Type 0, BuildingBlock: HICVOG_clean_sbu_0, # of connection points: 7
#     Node 14, Type 0, BuildingBlock: HICVOG_clean_sbu_0, # of connection points: 7
#     Node 15, Type 0, BuildingBlock: HICVOG_clean_sbu_0, # of connection points: 7
#     Edge 16, Type (0, 0), None
#     Edge 17, Type (0, 0), None
#     Edge 18, Type (0, 0), None
#     Edge 19, Type (0, 0), None
#     Edge 20, Type (0, 0), None
#     Edge 21, Type (0, 0), None
#     Edge 22, Type (0, 0), None
#     Edge 23, Type (0, 0), None
#     Edge 24, Type (0, 0), None
#     Edge 25, Type (0, 0), None
#     Edge 26, Type (0, 0), None
#     Edge 27, Type (0, 0), None
#     Edge 28, Type (0, 0), None
#     Edge 29, Type (0, 0), None
#     Edge 30, Type (0, 0), None
#     Edge 31, Type (0, 0), None
#     Edge 32, Type (0, 0), None
#     Edge 33, Type (0, 0), None
#     Edge 34, Type (0, 0), None
#     Edge 35, Type (0, 0), None
#     Edge 36, Type (0, 0), None
#     Edge 37, Type (0, 0), None
#     Edge 38, Type (0, 0), None
#     Edge 39, Type (0, 0), None
#     Edge 40, Type (0, 0), None
#     Edge 41, Type (0, 0), None
#     Edge 42, Type (0, 0), None
#     Edge 43, Type (0, 0), None
#     Edge 44, Type (0, 0), None
#     Edge 45, Type (0, 0), None
#     Edge 46, Type (0, 0), None
#     Edge 47, Type (0, 0), None
#     Edge 48, Type (0, 0), None
#     Edge 49, Type (0, 0), None
#     Edge 50, Type (0, 0), None
#     Edge 51, Type (0, 0), None
#     Edge 52, Type (0, 0), None
#     Edge 53, Type (0, 0), None
#     Edge 54, Type (0, 0), None
#     Edge 55, Type (0, 0), None
#     Edge 56, Type (0, 0), None
#     Edge 57, Type (0, 0), None
#     Edge 58, Type (0, 0), None
#     Edge 59, Type (0, 0), None
#     Edge 60, Type (0, 0), None
#     Edge 61, Type (0, 0), None
#     Edge 62, Type (0, 0), None
#     Edge 63, Type (0, 0), None
#     Edge 64, Type (0, 0), None
#     Edge 65, Type (0, 0), None
#     Edge 66, Type (0, 0), None
#     Edge 67, Type (0, 0), None
#     Edge 68, Type (0, 0), None
#     Edge 69, Type (0, 0), None
#     Edge 70, Type (0, 0), None
#     Edge 71, Type (0, 0), None
# Relax obj value: 0.172
# Max RMSD: 0.234
# Mean RMSD: 0.232
data_MOF--net-vci--node1-HICVOG_clean_sbu_0--edge1-none
_symmetry_space_group_name_H-M    P1
_symmetry_Int_Tables_number       1
_symmetry_cell_setting            triclinic
loop_
_symmetry_equiv_pos_as_xyz
'x, y, z'
_cell_length_a     48.819646
_cell_length_b     24.215192
_cell_length_c     7.4086747
_cell_angle_alpha  90.17096
_cell_angle_beta   90.023003
_cell_angle_gamma 89.998605
loop_
_atom_site_label
_atom_site_type_symbol
_atom_site_fract_x
_atom_site_fract_y
_atom_site_fract_z
_atom_type_partial_charge
Zn0 Zn 0.14878 0.12583 0.29039 0.0
C1 C 0.11539 0.22971 1.01678 0.0
N2 N 0.11805 0.26411 0.16754 0.0
C3 C 0.11782 0.22954 0.31843 0.0
N4 N 0.11742 0.17689 0.25647 0.0
N5 N 0.11146 0.17757 1.08267 0.0
C6 C 0.11454 0.09206 0.74601 0.0
O7 O 0.13292 0.09986 0.87241 0.0
O8 O 0.14765 0.10858 0.53623 0.0
Zn9 Zn 0.08912 0.11212 1.02998 0.0
N10 N 0.18269 0.16198 0.23882 0.0
C11 C 0.21189 0.20448 1.02489 0.0
C12 C 0.18656 0.1824 1.07054 0.0
C13 C 0.20287 0.16385 0.36536 0.0
N14 N 0.23249 0.20439 0.14836 0.0
C15 C 0.2286 0.18498 0.31849 0.0
O16 O 0.10603 0.04028 1.10185 0.0
C17 C 0.12868 0.01798 1.14072 0.0
O18 O 0.14946 0.04679 0.1834 0.0
H19 H 0.17026 0.18066 0.972 0.0
H20 H 0.19923 0.14718 0.4986 0.0
C21 C 0.03089 0.14125 1.09841 0.0
C22 C 0.00487 0.12913 0.17189 0.0
C23 C 0.0239 0.05393 0.33182 0.0
C24 C 0.04934 0.0651 0.25665 0.0
N25 N 0.05262 0.10845 1.14134 0.0
N26 N 0.00226 0.0858 0.28672 0.0
H27 H 0.03358 0.17462 1.00311 0.0
C28 C 0.12403 0.08957 0.56697 0.0
O29 O 0.10632 0.08308 0.43642 0.0
O30 O 0.08932 0.10088 0.77634 0.0
H31 H 0.06607 0.03784 0.28782 0.0
H32 H 0.21503 0.2214 0.8921 0.0
H33 H 0.02123 0.01943 0.42259 0.0
Zn34 Zn 0.39082 0.86323 0.53496 0.0
C35 C 0.36226 0.74643 0.82295 0.0
N36 N 0.36255 0.71176 0.67159 0.0
C37 C 0.36491 0.74621 0.52146 0.0
N38 N 0.36826 0.79843 0.58804 0.0
N39 N 0.36217 0.79913 0.76166 0.0
C40 C 0.35607 0.88712 1.07135 0.0
O41 O 0.37384 0.89332 0.94117 0.0
O42 O 0.39067 0.87433 0.28098 0.0
Zn43 Zn 0.33082 0.85046 0.79463 0.0
N44 N 0.42744 0.86648 0.64566 0.0
C45 C 0.45639 0.92136 0.83457 0.0
C46 C 0.4309 0.91029 0.75967 0.0
C47 C 0.44904 0.83309 0.60372 0.0
N48 N 0.4779 0.88891 0.79057 0.0
C49 C 0.47513 0.84507 0.67702 0.0
O50 O 0.33022 0.92901 0.68327 0.0
C51 C 0.35113 0.95766 0.64215 0.0
O52 O 0.3739 0.93521 0.60653 0.0
H53 H 0.41427 0.93792 0.79002 0.0
H54 H 0.44621 0.79931 0.50948 0.0
C55 C 0.2767 0.81362 0.87589 0.0
C56 C 0.25129 0.78964 0.83561 0.0
C57 C 0.2682 0.76335 0.54792 0.0
C58 C 0.29316 0.78842 0.58646 0.0
N59 N 0.29684 0.8133 0.74893 0.0
N60 N 0.24771 0.76506 0.67202 0.0
H61 H 0.28015 0.83378 1.00447 0.0
C62 C 0.3655 0.88356 0.25049 0.0
O63 O 0.34703 0.87515 0.37572 0.0
O64 O 0.3323 0.86902 1.0396 0.0
H65 H 0.30936 0.78866 0.48714 0.0
H66 H 0.45921 0.95623 0.92435 0.0
H67 H 0.26513 0.74329 0.41938 0.0
Zn68 Zn 0.08919 0.86336 0.25544 0.0
C69 C 0.11791 0.74601 0.96687 0.0
N70 N 0.11816 0.71142 1.11774 0.0
C71 C 0.11549 0.74581 0.26846 0.0
N72 N 0.1115 0.79791 0.20238 0.0
N73 N 0.11753 0.79868 1.02868 0.0
C74 C 0.12414 0.88601 0.71842 0.0
O75 O 0.10642 0.89255 0.84884 0.0
O76 O 0.08943 0.87456 0.50906 0.0
Zn77 Zn 0.14888 0.84984 0.99531 0.0
N78 N 0.05267 0.86705 0.14421 0.0
C79 C 0.02392 0.92153 0.95367 0.0
C80 C 0.04938 0.91033 1.02863 0.0
C81 C 0.03094 0.83436 0.18765 0.0
N82 N 0.00227 0.88976 0.99925 0.0
C83 C 0.0049 0.8465 1.11437 0.0
O84 O 0.14951 0.92886 1.10241 0.0
C85 C 0.12871 0.95761 0.14495 0.0
O86 O 0.10607 0.93524 0.18366 0.0
H87 H 0.06612 0.93751 0.9971 0.0
H88 H 0.03364 0.80105 0.2832 0.0
C89 C 0.20297 0.81193 0.92025 0.0
C90 C 0.2287 0.79072 0.96693 0.0
C91 C 0.21201 0.771 0.26034 0.0
C92 C 0.18669 0.79315 0.21488 0.0
N93 N 0.1828 0.81372 1.0468 0.0
N94 N 0.2326 0.77116 1.13687 0.0
H95 H 0.19932 0.82869 0.78712 0.0
C96 C 0.11464 0.88342 0.53934 0.0
O97 O 0.13302 0.87559 0.41301 0.0
O98 O 0.14777 0.86711 0.74944 0.0
H99 H 0.17039 0.79481 0.31341 0.0
H100 H 0.02125 0.95599 0.8627 0.0
H101 H 0.21516 0.75394 0.39295 0.0
Zn102 Zn 0.39079 0.11259 0.74934 0.0
C103 C 0.36226 0.22938 0.46099 0.0
N104 N 0.36257 0.26406 0.61234 0.0
C105 C 0.36491 0.22961 0.76248 0.0
N106 N 0.36823 0.17738 0.69597 0.0
N107 N 0.36214 0.17669 0.52232 0.0
C108 C 0.35596 0.08875 0.21262 0.0
O109 O 0.37373 0.08244 0.34291 0.0
O110 O 0.39059 0.10151 1.00332 0.0
Zn111 Zn 0.33079 0.12537 0.48938 0.0
N112 N 0.42741 0.1093 0.63895 0.0
C113 C 0.45635 0.05442 0.45007 0.0
C114 C 0.43086 0.06554 0.52477 0.0
C115 C 0.44903 0.14262 0.68119 0.0
N116 N 0.47787 0.0868 0.49437 0.0
C117 C 0.47512 0.13061 0.60804 0.0
O118 O 0.33022 0.04676 0.60038 0.0
C119 C 0.35113 0.01812 0.64186 0.0
O120 O 0.37388 0.0406 0.67776 0.0
H121 H 0.4142 0.03797 0.49413 0.0
H122 H 0.44622 0.17638 0.77551 0.0
C123 C 0.27664 0.16221 0.40894 0.0
C124 C 0.25123 0.18603 0.44966 0.0
C125 C 0.26818 0.21208 0.73754 0.0
C126 C 0.29316 0.18717 0.69852 0.0
N127 N 0.29681 0.16248 0.53574 0.0
N128 N 0.24766 0.21042 0.61357 0.0
H129 H 0.28008 0.14218 0.28013 0.0
C130 C 0.36541 0.09229 1.03356 0.0
O131 O 0.34695 0.10069 0.90814 0.0
O132 O 0.33221 0.1069 0.24427 0.0
H133 H 0.30939 0.18688 0.79773 0.0
H134 H 0.45915 0.01957 0.36019 0.0
H135 H 0.26513 0.23199 0.86635 0.0
Zn136 Zn 0.89674 0.84805 0.24822 0.0
C137 C 0.86292 0.74539 0.96208 0.0
N138 N 0.86351 0.7107 1.11258 0.0
C139 C 0.86389 0.74511 0.26445 0.0
N140 N 0.86596 0.79759 0.20318 0.0
N141 N 0.86139 0.798 1.02749 0.0
C142 C 0.86374 0.88774 0.70832 0.0
O143 O 0.88229 0.88371 0.83528 0.0
O144 O 0.89558 0.86481 0.49576 0.0
Zn145 Zn 0.83691 0.86033 0.98512 0.0
N146 N 0.9318 0.81068 0.21013 0.0
C147 C 0.95965 0.73029 0.24463 0.0
C148 C 0.93412 0.75606 0.25107 0.0
C149 C 0.9543 0.84046 0.1642 0.0
N150 N 0.98217 0.76029 0.20186 0.0
C151 C 0.98023 0.81488 0.16172 0.0
O152 O 0.84868 0.93436 1.09619 0.0
C153 C 0.87165 0.95747 1.13101 0.0
O154 O 0.89362 0.92908 0.15072 0.0
H155 H 0.91656 0.73266 0.29366 0.0
H156 H 0.95209 0.88413 1.1368 0.0
C157 C 0.77905 0.85192 0.91851 0.0
C158 C 0.75141 0.84189 0.9632 0.0
C159 C 0.76563 0.81517 0.25698 0.0
C160 C 0.79287 0.82502 0.21163 0.0
N161 N 0.79906 0.84347 1.04383 0.0
N162 N 0.7456 0.82388 1.1327 0.0
H163 H 0.78469 0.86663 0.78594 0.0
C164 C 0.87224 0.88484 0.52784 0.0
O165 O 0.8534 0.88597 0.40257 0.0
O166 O 0.83894 0.87725 0.74039 0.0
H167 H 0.80894 0.81853 0.3098 0.0
H168 H 0.96159 0.68689 0.27581 0.0
H169 H 0.76045 0.80086 0.39047 0.0
Zn170 Zn 0.64268 0.11263 0.47968 0.0
C171 C 0.61632 0.2302 0.76924 0.0
N172 N 0.61613 0.26463 0.61798 0.0
C173 C 0.61754 0.23001 0.46703 0.0
N174 N 0.62036 0.17765 0.53273 0.0
N175 N 0.6151 0.17758 0.70774 0.0
C176 C 0.60481 0.09119 1.02814 0.0
O177 O 0.62333 0.08604 0.90223 0.0
O178 O 0.63895 0.09695 0.23575 0.0
Zn179 Zn 0.58277 0.12919 0.74447 0.0
N180 N 0.6814 0.12059 0.53808 0.0
C181 C 0.71592 0.1031 0.75674 0.0
C182 C 0.68845 0.10789 0.71022 0.0
C183 C 0.70099 0.12975 0.40999 0.0
N184 N 0.73546 0.11184 0.6298 0.0
C185 C 0.72898 0.12537 0.45675 0.0
O186 O 0.58459 0.04723 0.65006 0.0
C187 C 0.60617 0.01798 0.62667 0.0
O188 O 0.62915 0.04015 0.58788 0.0
H189 H 0.6728 0.09934 0.809 0.0
H190 H 0.69478 0.13839 0.27268 0.0
C191 C 0.52574 0.13766 0.65566 0.0
C192 C 0.49975 0.16293 0.65332 0.0
C193 C 0.52024 0.24817 0.73217 0.0
C194 C 0.54588 0.22269 0.73814 0.0
N195 N 0.54824 0.16786 0.69942 0.0
N196 N 0.49772 0.21771 0.69163 0.0
H197 H 0.52799 0.09381 0.63087 0.0
C198 C 0.61373 0.08933 0.20794 0.0
O199 O 0.59577 0.0962 0.33737 0.0
O200 O 0.58217 0.11393 0.99455 0.0
H201 H 0.56343 0.2464 0.77967 0.0
H202 H 0.72165 0.0911 0.89188 0.0
H203 H 0.51821 0.29166 0.76278 0.0
Zn204 Zn 0.83689 0.11539 0.30107 0.0
C205 C 0.86385 0.23062 1.02102 0.0
N206 N 0.86352 0.26504 0.17291 0.0
C207 C 0.86288 0.23036 0.32338 0.0
N208 N 0.86125 0.1778 0.25767 0.0
N209 N 0.86587 0.1781 1.08205 0.0
C210 C 0.87237 0.09085 0.75813 0.0
O211 O 0.85352 0.08948 0.88328 0.0
O212 O 0.83904 0.09859 0.54578 0.0
Zn213 Zn 0.89672 0.12768 1.03832 0.0
N214 N 0.79903 0.13205 0.24237 0.0
C215 C 0.76557 0.16028 1.02908 0.0
C216 C 0.79281 0.15048 1.07453 0.0
C217 C 0.77902 0.12356 0.36762 0.0
N218 N 0.74555 0.15153 0.1533 0.0
C219 C 0.75138 0.13353 0.32282 0.0
O220 O 0.89361 0.04665 1.13588 0.0
C221 C 0.87165 0.01825 0.15565 0.0
O222 O 0.84868 0.04136 0.19024 0.0
H223 H 0.80887 0.157 0.97641 0.0
H224 H 0.78468 0.10888 0.50023 0.0
C225 C 0.95426 0.13529 1.12258 0.0
C226 C 0.98019 0.16084 1.12497 0.0
C227 C 0.95962 0.24549 1.04259 0.0
C228 C 0.93407 0.21976 1.03626 0.0
N229 N 0.93176 0.16512 1.07695 0.0
N230 N 0.98215 0.21544 1.08504 0.0
H231 H 0.95205 0.09161 0.14969 0.0
C232 C 0.86386 0.08814 0.5776 0.0
O233 O 0.88238 0.09242 0.45066 0.0
O234 O 0.89569 0.11091 0.7907 0.0
H235 H 0.91652 0.2432 0.99385 0.0
H236 H 0.76038 0.17458 0.89558 0.0
H237 H 0.96157 0.28889 1.01147 0.0
Zn238 Zn 0.58277 0.84639 0.54084 0.0
C239 C 0.61752 0.74563 0.81901 0.0
N240 N 0.61612 0.711 0.66801 0.0
C241 C 0.6163 0.74542 0.51674 0.0
N242 N 0.61508 0.79801 0.57843 0.0
N243 N 0.62028 0.79803 0.75353 0.0
C244 C 0.61381 0.88636 1.07787 0.0
O245 O 0.59584 0.87964 0.94836 0.0
O246 O 0.58224 0.86164 0.29079 0.0
Zn247 Zn 0.6427 0.86297 0.80605 0.0
N248 N 0.54823 0.80777 0.58564 0.0
C249 C 0.52022 0.72747 0.55302 0.0
C250 C 0.54586 0.75293 0.54698 0.0
C251 C 0.52574 0.83798 0.62944 0.0
N252 N 0.49771 0.75794 0.59357 0.0
C253 C 0.49975 0.81272 0.63183 0.0
O254 O 0.62916 0.93547 0.69773 0.0
C255 C 0.60617 0.95762 0.65877 0.0
O256 O 0.5846 0.92835 0.63523 0.0
H257 H 0.56341 0.72921 0.50548 0.0
H258 H 0.52801 0.88182 0.6542 0.0
C259 C 0.70101 0.84571 0.87588 0.0
C260 C 0.72901 0.85002 0.82918 0.0
C261 C 0.71594 0.87219 0.52905 0.0
C262 C 0.68846 0.86747 0.57552 0.0
N263 N 0.68142 0.85487 0.7477 0.0
N264 N 0.73547 0.86346 0.65609 0.0
H265 H 0.69481 0.83716 1.01322 0.0
C266 C 0.60489 0.8844 0.25759 0.0
O267 O 0.6234 0.88944 0.38368 0.0
O268 O 0.63902 0.87872 1.05 0.0
H269 H 0.67282 0.87602 0.47664 0.0
H270 H 0.51818 0.68397 0.5225 0.0
H271 H 0.72166 0.88412 0.39388 0.0
Zn272 Zn 0.58915 0.61222 1.03032 0.0
C273 C 0.61783 0.72959 0.31917 0.0
N274 N 0.6181 0.76418 0.16831 0.0
C275 C 0.61543 0.72979 1.01757 0.0
N276 N 0.61143 0.67769 1.08361 0.0
N277 N 0.61746 0.67692 0.25735 0.0
C278 C 0.62412 0.5896 0.56753 0.0
O279 O 0.6064 0.583 0.43702 0.0
O280 O 0.58939 0.60104 0.77668 0.0
Zn281 Zn 0.64882 0.62579 0.2907 0.0
N282 N 0.55263 0.60851 1.14143 0.0
C283 C 0.5239 0.554 0.33181 0.0
C284 C 0.54935 0.56519 0.25684 0.0
C285 C 0.5309 0.64126 1.09823 0.0
N286 N 0.50225 0.58582 0.28647 0.0
C287 C 0.50487 0.62914 0.17156 0.0
O288 O 0.64947 0.54677 0.18365 0.0
C289 C 0.62868 0.518 1.1409 0.0
O290 O 0.60604 0.54034 1.10208 0.0
H291 H 0.56609 0.53798 0.28826 0.0
H292 H 0.53359 0.67461 1.00286 0.0
C293 C 0.70291 0.66379 0.36545 0.0
C294 C 0.72863 0.68491 0.31854 0.0
C295 C 0.71192 0.70442 1.02497 0.0
C296 C 0.68659 0.68236 1.07068 0.0
N297 N 0.68272 0.66193 0.23895 0.0
N298 N 0.73252 0.70432 0.14841 0.0
H299 H 0.69927 0.64712 0.4987 0.0
C300 C 0.61461 0.5922 0.74655 0.0
O301 O 0.63298 0.60005 0.873 0.0
O302 O 0.64774 0.60854 0.5366 0.0
H303 H 0.67028 0.68064 0.97217 0.0
H304 H 0.52123 0.51951 0.42264 0.0
H305 H 0.71506 0.72134 0.89219 0.0
Zn306 Zn 0.8908 0.36318 0.5355 0.0
C307 C 0.86226 0.24641 0.82355 0.0
N308 N 0.86254 0.21173 0.6722 0.0
C309 C 0.86488 0.24618 0.52206 0.0
N310 N 0.86823 0.2984 0.58863 0.0
N311 N 0.86215 0.2991 0.76225 0.0
C312 C 0.85603 0.38708 1.07193 0.0
O313 O 0.87381 0.39331 0.94174 0.0
O314 O 0.89064 0.37428 0.28151 0.0
Zn315 Zn 0.8308 0.35044 0.79517 0.0
N316 N 0.92742 0.36643 0.64621 0.0
C317 C 0.95637 0.42129 0.8352 0.0
C318 C 0.93088 0.41022 0.76028 0.0
C319 C 0.94902 0.33304 0.60425 0.0
N320 N 0.97788 0.38884 0.79118 0.0
C321 C 0.97511 0.34502 0.67758 0.0
O322 O 0.83022 0.42901 0.68389 0.0
C323 C 0.85113 0.45764 0.64267 0.0
O324 O 0.87389 0.43517 0.60701 0.0
H325 H 0.91424 0.43785 0.79065 0.0
H326 H 0.94619 0.29927 0.50998 0.0
C327 C 0.77667 0.3136 0.87619 0.0
C328 C 0.75127 0.28965 0.83579 0.0
C329 C 0.76818 0.26342 0.54806 0.0
C330 C 0.79314 0.28846 0.58674 0.0
N331 N 0.79682 0.31329 0.74928 0.0
N332 N 0.74768 0.26511 0.67212 0.0
H333 H 0.78012 0.33372 1.00483 0.0
C334 C 0.86547 0.38352 0.25106 0.0
O335 O 0.847 0.37511 0.37631 0.0
O336 O 0.83227 0.36898 1.04017 0.0
H337 H 0.80935 0.28872 0.48746 0.0
H338 H 0.95918 0.45615 0.92502 0.0
H339 H 0.76512 0.24339 0.41946 0.0
Zn340 Zn 0.58916 0.3634 0.2554 0.0
C341 C 0.61786 0.24603 0.96682 0.0
N342 N 0.61813 0.21144 1.11769 0.0
C343 C 0.61546 0.24584 0.26842 0.0
N344 N 0.61146 0.29794 0.20232 0.0
N345 N 0.61749 0.2987 1.02862 0.0
C346 C 0.62411 0.38603 0.71839 0.0
O347 O 0.6064 0.39259 0.84881 0.0
O348 O 0.5894 0.3746 0.50903 0.0
Zn349 Zn 0.64884 0.34985 0.99529 0.0
N350 N 0.55265 0.36711 0.14413 0.0
C351 C 0.52391 0.42159 0.95354 0.0
C352 C 0.54936 0.41039 1.02857 0.0
C353 C 0.53091 0.3344 0.18749 0.0
N354 N 0.50225 0.38981 0.99903 0.0
C355 C 0.50487 0.34654 1.11414 0.0
O356 O 0.64948 0.42886 1.10243 0.0
C357 C 0.62869 0.45763 0.14499 0.0
O358 O 0.60604 0.43527 0.18367 0.0
H359 H 0.5661 0.43758 0.99709 0.0
H360 H 0.5336 0.30109 0.28303 0.0
C361 C 0.70294 0.31191 0.92031 0.0
C362 C 0.72866 0.29071 0.96705 0.0
C363 C 0.71197 0.27103 0.26047 0.0
C364 C 0.68665 0.29316 0.21496 0.0
N365 N 0.68276 0.31371 1.04684 0.0
N366 N 0.73256 0.27118 1.13702 0.0
H367 H 0.69929 0.32865 0.78717 0.0
C368 C 0.61462 0.38345 0.53932 0.0
O369 O 0.63299 0.3756 0.41298 0.0
O370 O 0.64774 0.36712 0.74942 0.0
H371 H 0.67035 0.29484 0.31347 0.0
H372 H 0.52123 0.45604 0.86257 0.0
H373 H 0.71512 0.25399 0.39311 0.0
Zn374 Zn 0.83083 0.62538 0.48989 0.0
C375 C 0.86494 0.72955 0.76347 0.0
N376 N 0.86263 0.76401 0.61329 0.0
C377 C 0.8623 0.72934 0.46193 0.0
N378 N 0.86217 0.67667 0.52343 0.0
N379 N 0.8682 0.67727 0.69715 0.0
C380 C 0.8655 0.59217 1.03436 0.0
O381 O 0.84703 0.6005 0.909 0.0
O382 O 0.83232 0.60689 0.24489 0.0
Zn383 Zn 0.89083 0.61253 0.74992 0.0
N384 N 0.79684 0.66247 0.53596 0.0
C385 C 0.76819 0.71208 0.73764 0.0
C386 C 0.79317 0.68717 0.69871 0.0
C387 C 0.77668 0.66218 0.4091 0.0
N388 N 0.74768 0.71039 0.61362 0.0
C389 C 0.75126 0.68599 0.44974 0.0
O390 O 0.87391 0.54055 0.67827 0.0
C391 C 0.85114 0.51811 0.64239 0.0
O392 O 0.83024 0.54678 0.60096 0.0
H393 H 0.8094 0.6869 0.79797 0.0
H394 H 0.78013 0.64214 0.28033 0.0
C395 C 0.94906 0.64266 0.6814 0.0
C396 C 0.97514 0.63065 0.60818 0.0
C397 C 0.95638 0.55441 0.45044 0.0
C398 C 0.93089 0.56551 0.52524 0.0
N399 N 0.92744 0.60929 0.63933 0.0
N400 N 0.97789 0.58683 0.49458 0.0
H401 H 0.94624 0.67643 0.77566 0.0
C402 C 0.85607 0.5887 0.21344 0.0
O403 O 0.87384 0.58254 0.34378 0.0
O404 O 0.89068 0.60139 1.0039 0.0
H405 H 0.91425 0.5379 0.4948 0.0
H406 H 0.76513 0.73199 0.86642 0.0
H407 H 0.95918 0.51955 0.36063 0.0
Zn408 Zn 0.3967 0.34809 0.24745 0.0
C409 C 0.3629 0.24544 0.96113 0.0
N410 N 0.36349 0.21075 1.11162 0.0
C411 C 0.36386 0.24516 0.26351 0.0
N412 N 0.36592 0.29764 0.20226 0.0
N413 N 0.36136 0.29805 1.02657 0.0
C414 C 0.36367 0.38781 0.70746 0.0
O415 O 0.38222 0.38381 0.83441 0.0
O416 O 0.39551 0.36486 0.49495 0.0
Zn417 Zn 0.33687 0.36038 0.98435 0.0
N418 N 0.43177 0.31071 0.20961 0.0
C419 C 0.45962 0.23034 0.24444 0.0
C420 C 0.43408 0.2561 0.25069 0.0
C421 C 0.45427 0.3405 0.16371 0.0
N422 N 0.48215 0.26034 0.20171 0.0
C423 C 0.4802 0.31492 0.16142 0.0
O424 O 0.34867 0.43441 1.09541 0.0
C425 C 0.37163 0.45751 1.13027 0.0
O426 O 0.3936 0.4291 0.14993 0.0
H427 H 0.41653 0.23271 0.29325 0.0
H428 H 0.45206 0.38415 1.13621 0.0
C429 C 0.27901 0.35196 0.91808 0.0
C430 C 0.25138 0.34194 0.96292 0.0
C431 C 0.26563 0.31523 0.25665 0.0
C432 C 0.29286 0.32508 0.21115 0.0
N433 N 0.29904 0.34353 1.0433 0.0
N434 N 0.24558 0.32393 1.13245 0.0
H435 H 0.28463 0.36667 0.78547 0.0
C436 C 0.37217 0.38489 0.52699 0.0
O437 O 0.35332 0.38598 0.40171 0.0
O438 O 0.33887 0.3773 0.73958 0.0
H439 H 0.30894 0.31859 0.30924 0.0
H440 H 0.46156 0.18696 0.27575 0.0
H441 H 0.26046 0.30094 0.39017 0.0
Zn442 Zn 0.14269 0.61257 0.47973 0.0
C443 C 0.11636 0.73017 0.7693 0.0
N444 N 0.11616 0.7646 0.61803 0.0
C445 C 0.11757 0.72998 0.46708 0.0
N446 N 0.12039 0.67761 0.53279 0.0
N447 N 0.11513 0.67756 0.70781 0.0
C448 C 0.10482 0.59117 1.02819 0.0
O449 O 0.12334 0.58601 0.90228 0.0
O450 O 0.13896 0.5969 0.23581 0.0
Zn451 Zn 0.08278 0.62919 0.74452 0.0
N452 N 0.18142 0.62049 0.53804 0.0
C453 C 0.21596 0.60288 0.75648 0.0
C454 C 0.18848 0.6077 0.71009 0.0
C455 C 0.201 0.62969 0.40991 0.0
N456 N 0.23548 0.61167 0.62949 0.0
C457 C 0.229 0.62528 0.45653 0.0
O458 O 0.08459 0.54723 0.65012 0.0
C459 C 0.10616 0.51795 0.62673 0.0
O460 O 0.12914 0.5401 0.58794 0.0
H461 H 0.17284 0.59911 0.8089 0.0
H462 H 0.19478 0.63839 0.27267 0.0
C463 C 0.02576 0.6377 0.65574 0.0
C464 C -0.00023 0.66298 0.65341 0.0
C465 C 0.02027 0.74821 0.73217 0.0
C466 C 0.04591 0.72273 0.73813 0.0
N467 N 0.04826 0.66789 0.69946 0.0
N468 N -0.00225 0.71776 0.69168 0.0
H469 H 0.02801 0.59385 0.631 0.0
C470 C 0.11374 0.5893 0.208 0.0
O471 O 0.09578 0.59619 0.33742 0.0
O472 O 0.08218 0.61394 0.99459 0.0
H473 H 0.06347 0.74643 0.77962 0.0
H474 H 0.2217 0.59082 0.89154 0.0
H475 H 0.01825 0.79171 0.76275 0.0
Zn476 Zn 0.33689 0.61542 0.30049 0.0
C477 C 0.36387 0.73065 1.02041 0.0
N478 N 0.36355 0.76507 0.17231 0.0
C479 C 0.3629 0.73039 0.32277 0.0
N480 N 0.36125 0.67783 0.25706 0.0
N481 N 0.36587 0.67813 1.08144 0.0
C482 C 0.37238 0.59088 0.75752 0.0
O483 O 0.35353 0.58951 0.88265 0.0
O484 O 0.33905 0.59861 0.54517 0.0
Zn485 Zn 0.39672 0.6277 1.03773 0.0
N486 N 0.29902 0.63207 0.24193 0.0
C487 C 0.26554 0.66025 1.02874 0.0
C488 C 0.29279 0.65048 1.0741 0.0
C489 C 0.27903 0.62355 0.36724 0.0
N490 N 0.24553 0.65147 0.15303 0.0
C491 C 0.25138 0.63348 0.32253 0.0
O492 O 0.3936 0.54667 1.13526 0.0
C493 C 0.37164 0.51828 0.155 0.0
O494 O 0.34867 0.5414 0.18961 0.0
H495 H 0.30884 0.65702 0.97593 0.0
H496 H 0.2847 0.60886 0.49982 0.0
C497 C 0.45426 0.63529 1.12211 0.0
C498 C 0.4802 0.66083 1.12449 0.0
C499 C 0.45964 0.74547 1.04189 0.0
C500 C 0.43409 0.71975 1.03557 0.0
N501 N 0.43177 0.66512 1.07638 0.0
N502 N 0.48216 0.71542 1.08445 0.0
H503 H 0.45205 0.59162 0.14932 0.0
C504 C 0.36387 0.58817 0.57699 0.0
O505 O 0.38239 0.59246 0.45004 0.0
O506 O 0.3957 0.61094 0.7901 0.0
H507 H 0.41654 0.74319 0.99307 0.0
H508 H 0.26033 0.67454 0.89526 0.0
H509 H 0.46159 0.78887 1.01068 0.0
Zn510 Zn 0.14264 0.36289 0.80587 0.0
C511 C 0.11627 0.24536 0.516 0.0
N512 N 0.11607 0.21093 0.66724 0.0
C513 C 0.11748 0.24555 0.81821 0.0
N514 N 0.12031 0.29791 0.75256 0.0
N515 N 0.11506 0.29798 0.57751 0.0
C516 C 0.10475 0.38438 0.25714 0.0
O517 O 0.12326 0.38955 0.38316 0.0
O518 O 0.13889 0.37855 1.04978 0.0
Zn519 Zn 0.08272 0.34639 0.54076 0.0
N520 N 0.18136 0.35486 0.7477 0.0
C521 C 0.21586 0.37214 0.52885 0.0
C522 C 0.18839 0.36743 0.57545 0.0
C523 C 0.20097 0.34575 0.87583 0.0
N524 N 0.23541 0.36345 0.65583 0.0
C525 C 0.22896 0.35005 0.82899 0.0
O526 O 0.08457 0.42835 0.6352 0.0
C527 C 0.10615 0.45759 0.65877 0.0
O528 O 0.12913 0.4354 0.69763 0.0
H529 H 0.17273 0.37593 0.47662 0.0
H530 H 0.19478 0.33722 1.01321 0.0
C531 C 0.02572 0.33794 0.6298 0.0
C532 C -0.00028 0.31268 0.63236 0.0
C533 C 0.0202 0.22742 0.55361 0.0
C534 C 0.04583 0.2529 0.54739 0.0
N535 N 0.0482 0.30774 0.58595 0.0
N536 N -0.00231 0.25789 0.5942 0.0
H537 H 0.02798 0.3818 0.65447 0.0
C538 C 0.11367 0.3862 1.0774 0.0
O539 O 0.09572 0.37933 0.94786 0.0
O540 O 0.0821 0.36164 0.29066 0.0
H541 H 0.06338 0.22918 0.50581 0.0
H542 H 0.22156 0.38404 0.39362 0.0
H543 H 0.01816 0.18392 0.52315 0.0
loop_
_geom_bond_atom_site_label_1
_geom_bond_atom_site_label_2
_geom_bond_distance
_geom_bond_site_symmetry_2
_ccdc_geom_bond_type
Zn0 N4 2.020 . S
Zn0 O8 2.019 . S
Zn0 N10 2.119 . S
Zn0 O18 1.975 . S
C1 N2 1.334 . S
C1 N5 1.336 . S
N2 C1 1.334 . S
N2 C3 1.334 1_556 S
C3 N2 1.334 1_554 S
C3 N4 1.336 . S
N4 Zn0 2.020 . S
N4 C3 1.336 . S
N4 N5 1.354 1_554 S
N5 C1 1.336 . S
N5 N4 1.354 1_556 S
N5 Zn9 2.020 . S
C6 O7 1.244 . S
C6 O30 1.257 . S
O7 C6 1.244 . S
O8 Zn0 2.019 . S
O8 C28 1.257 . S
Zn9 N5 2.020 . S
Zn9 O16 1.975 . S
Zn9 N25 2.119 . S
Zn9 O30 2.019 . S
N10 Zn0 2.119 . S
N10 C12 1.334 1_554 S
N10 C13 1.328 . S
C11 C12 1.391 . S
C11 N14 1.329 1_556 S
C11 H32 0.930 . S
C12 N10 1.334 1_556 S
C12 C11 1.391 . S
C12 H19 0.930 . S
C13 N10 1.328 . S
C13 C15 1.392 . S
C13 H20 0.930 . S
N14 C11 1.329 1_554 S
N14 C15 1.331 . S
C15 C13 1.392 . S
C15 N14 1.331 . S
O16 Zn9 1.975 . S
O16 C17 1.252 1_556 S
C17 O16 1.252 1_554 S
C17 O18 1.252 . S
O18 Zn0 1.975 . S
O18 C17 1.252 . S
H19 C12 0.930 . S
H20 C13 0.930 . S
C21 C22 1.392 . S
C21 N25 1.328 . S
C21 H27 0.930 . S
C22 C21 1.392 . S
C22 N26 1.331 . S
C23 C24 1.391 . S
C23 N26 1.329 1_554 S
C23 H33 0.930 . S
C24 C23 1.391 . S
C24 N25 1.334 1_554 S
C24 H31 0.930 . S
N25 Zn9 2.119 . S
N25 C21 1.328 . S
N25 C24 1.334 1_556 S
N26 C22 1.331 . S
N26 C23 1.329 1_556 S
H27 C21 0.930 . S
C28 O8 1.257 . S
C28 O29 1.244 . S
O29 C28 1.244 . S
O30 C6 1.257 . S
O30 Zn9 2.019 . S
H31 C24 0.930 . S
H32 C11 0.930 . S
H33 C23 0.930 . S
Zn34 N38 2.020 . S
Zn34 O42 2.019 . S
Zn34 N44 2.119 . S
Zn34 O52 1.975 . S
C35 N36 1.334 . S
C35 N39 1.336 . S
N36 C35 1.334 . S
N36 C37 1.334 . S
C37 N36 1.334 . S
C37 N38 1.336 . S
N38 Zn34 2.020 . S
N38 C37 1.336 . S
N38 N39 1.354 . S
N39 C35 1.336 . S
N39 N38 1.354 . S
N39 Zn43 2.020 . S
C40 O41 1.244 . S
C40 O64 1.257 . S
O41 C40 1.244 . S
O42 Zn34 2.019 . S
O42 C62 1.257 . S
Zn43 N39 2.020 . S
Zn43 O50 1.975 . S
Zn43 N59 2.119 . S
Zn43 O64 2.019 . S
N44 Zn34 2.119 . S
N44 C46 1.334 . S
N44 C47 1.328 . S
C45 C46 1.391 . S
C45 N48 1.329 . S
C45 H66 0.930 . S
C46 N44 1.334 . S
C46 C45 1.391 . S
C46 H53 0.930 . S
C47 N44 1.328 . S
C47 C49 1.392 . S
C47 H54 0.930 . S
N48 C45 1.329 . S
N48 C49 1.331 . S
C49 C47 1.392 . S
C49 N48 1.331 . S
O50 Zn43 1.975 . S
O50 C51 1.252 . S
C51 O50 1.252 . S
C51 O52 1.252 . S
O52 Zn34 1.975 . S
O52 C51 1.252 . S
H53 C46 0.930 . S
H54 C47 0.930 . S
C55 C56 1.392 . S
C55 N59 1.328 . S
C55 H61 0.930 . S
C56 C55 1.392 . S
C56 N60 1.331 . S
C57 C58 1.391 . S
C57 N60 1.329 . S
C57 H67 0.930 . S
C58 C57 1.391 . S
C58 N59 1.334 . S
C58 H65 0.930 . S
N59 Zn43 2.119 . S
N59 C55 1.328 . S
N59 C58 1.334 . S
N60 C56 1.331 . S
N60 C57 1.329 . S
H61 C55 0.930 . S
C62 O42 1.257 . S
C62 O63 1.244 . S
O63 C62 1.244 . S
O64 C40 1.257 . S
O64 Zn43 2.019 . S
H65 C58 0.930 . S
H66 C45 0.930 . S
H67 C57 0.930 . S
Zn68 N72 2.020 . S
Zn68 O76 2.019 . S
Zn68 N78 2.119 . S
Zn68 O86 1.975 . S
C69 N70 1.334 1_556 S
C69 N73 1.336 . S
N70 C69 1.334 1_554 S
N70 C71 1.334 . S
C71 N70 1.334 . S
C71 N72 1.336 . S
N72 Zn68 2.020 . S
N72 C71 1.336 . S
N72 N73 1.354 1_554 S
N73 C69 1.336 . S
N73 N72 1.354 1_556 S
N73 Zn77 2.020 . S
C74 O75 1.244 . S
C74 O98 1.257 . S
O75 C74 1.244 . S
O76 Zn68 2.019 . S
O76 C96 1.257 . S
Zn77 N73 2.020 . S
Zn77 O84 1.975 . S
Zn77 N93 2.119 . S
Zn77 O98 2.019 . S
N78 Zn68 2.119 . S
N78 C80 1.334 1_554 S
N78 C81 1.328 . S
C79 C80 1.391 . S
C79 N82 1.329 1_556 S
C79 H100 0.930 . S
C80 N78 1.334 1_556 S
C80 C79 1.391 . S
C80 H87 0.930 . S
C81 N78 1.328 . S
C81 C83 1.392 . S
C81 H88 0.930 . S
N82 C79 1.329 1_554 S
N82 C83 1.331 . S
C83 C81 1.392 . S
C83 N82 1.331 . S
O84 Zn77 1.975 . S
O84 C85 1.252 . S
C85 O84 1.252 . S
C85 O86 1.252 1_556 S
O86 Zn68 1.975 . S
O86 C85 1.252 1_554 S
H87 C80 0.930 . S
H88 C81 0.930 . S
C89 C90 1.392 . S
C89 N93 1.328 . S
C89 H95 0.930 . S
C90 C89 1.392 . S
C90 N94 1.331 . S
C91 C92 1.391 . S
C91 N94 1.329 1_554 S
C91 H101 0.930 . S
C92 C91 1.391 . S
C92 N93 1.334 1_554 S
C92 H99 0.930 . S
N93 Zn77 2.119 . S
N93 C89 1.328 . S
N93 C92 1.334 1_556 S
N94 C90 1.331 . S
N94 C91 1.329 1_556 S
H95 C89 0.930 . S
C96 O76 1.257 . S
C96 O97 1.244 . S
O97 C96 1.244 . S
O98 C74 1.257 . S
O98 Zn77 2.019 . S
H99 C92 0.930 . S
H100 C79 0.930 . S
H101 C91 0.930 . S
Zn102 N106 2.020 . S
Zn102 O110 2.019 . S
Zn102 N112 2.119 . S
Zn102 O120 1.975 . S
C103 N104 1.334 . S
C103 N107 1.336 . S
N104 C103 1.334 . S
N104 C105 1.334 . S
C105 N104 1.334 . S
C105 N106 1.336 . S
N106 Zn102 2.020 . S
N106 C105 1.336 . S
N106 N107 1.354 . S
N107 C103 1.336 . S
N107 N106 1.354 . S
N107 Zn111 2.020 . S
C108 O109 1.244 . S
C108 O132 1.257 . S
O109 C108 1.244 . S
O110 Zn102 2.019 . S
O110 C130 1.257 . S
Zn111 N107 2.020 . S
Zn111 O118 1.975 . S
Zn111 N127 2.119 . S
Zn111 O132 2.019 . S
N112 Zn102 2.119 . S
N112 C114 1.334 . S
N112 C115 1.328 . S
C113 C114 1.391 . S
C113 N116 1.329 . S
C113 H134 0.930 . S
C114 N112 1.334 . S
C114 C113 1.391 . S
C114 H121 0.930 . S
C115 N112 1.328 . S
C115 C117 1.392 . S
C115 H122 0.930 . S
N116 C113 1.329 . S
N116 C117 1.331 . S
C117 C115 1.392 . S
C117 N116 1.331 . S
O118 Zn111 1.975 . S
O118 C119 1.252 . S
C119 O118 1.252 . S
C119 O120 1.252 . S
O120 Zn102 1.975 . S
O120 C119 1.252 . S
H121 C114 0.930 . S
H122 C115 0.930 . S
C123 C124 1.392 . S
C123 N127 1.328 . S
C123 H129 0.930 . S
C124 C123 1.392 . S
C124 N128 1.331 . S
C125 C126 1.391 . S
C125 N128 1.329 . S
C125 H135 0.930 . S
C126 C125 1.391 . S
C126 N127 1.334 . S
C126 H133 0.930 . S
N127 Zn111 2.119 . S
N127 C123 1.328 . S
N127 C126 1.334 . S
N128 C124 1.331 . S
N128 C125 1.329 . S
H129 C123 0.930 . S
C130 O110 1.257 . S
C130 O131 1.244 . S
O131 C130 1.244 . S
O132 C108 1.257 . S
O132 Zn111 2.019 . S
H133 C126 0.930 . S
H134 C113 0.930 . S
H135 C125 0.930 . S
Zn136 N140 2.020 . S
Zn136 O144 2.019 . S
Zn136 N146 2.119 . S
Zn136 O154 1.975 . S
C137 N138 1.334 1_556 S
C137 N141 1.336 . S
N138 C137 1.334 1_554 S
N138 C139 1.334 . S
C139 N138 1.334 . S
C139 N140 1.336 . S
N140 Zn136 2.020 . S
N140 C139 1.336 . S
N140 N141 1.354 1_554 S
N141 C137 1.336 . S
N141 N140 1.354 1_556 S
N141 Zn145 2.020 . S
C142 O143 1.244 . S
C142 O166 1.257 . S
O143 C142 1.244 . S
O144 Zn136 2.019 . S
O144 C164 1.257 . S
Zn145 N141 2.020 . S
Zn145 O152 1.975 . S
Zn145 N161 2.119 . S
Zn145 O166 2.019 . S
N146 Zn136 2.119 . S
N146 C148 1.334 1_554 S
N146 C149 1.328 . S
C147 C148 1.391 . S
C147 N150 1.329 1_556 S
C147 H168 0.930 . S
C148 N146 1.334 1_556 S
C148 C147 1.391 . S
C148 H155 0.930 . S
C149 N146 1.328 . S
C149 C151 1.392 . S
C149 H156 0.930 . S
N150 C147 1.329 1_554 S
N150 C151 1.331 . S
C151 C149 1.392 . S
C151 N150 1.331 . S
O152 Zn145 1.975 . S
O152 C153 1.252 . S
C153 O152 1.252 . S
C153 O154 1.252 1_556 S
O154 Zn136 1.975 . S
O154 C153 1.252 1_554 S
H155 C148 0.930 . S
H156 C149 0.930 . S
C157 C158 1.392 . S
C157 N161 1.328 . S
C157 H163 0.930 . S
C158 C157 1.392 . S
C158 N162 1.331 . S
C159 C160 1.391 . S
C159 N162 1.329 1_554 S
C159 H169 0.930 . S
C160 C159 1.391 . S
C160 N161 1.334 1_554 S
C160 H167 0.930 . S
N161 Zn145 2.119 . S
N161 C157 1.328 . S
N161 C160 1.334 1_556 S
N162 C158 1.331 . S
N162 C159 1.329 1_556 S
H163 C157 0.930 . S
C164 O144 1.257 . S
C164 O165 1.244 . S
O165 C164 1.244 . S
O166 C142 1.257 . S
O166 Zn145 2.019 . S
H167 C160 0.930 . S
H168 C147 0.930 . S
H169 C159 0.930 . S
Zn170 N174 2.020 . S
Zn170 O178 2.019 . S
Zn170 N180 2.119 . S
Zn170 O188 1.975 . S
C171 N172 1.334 . S
C171 N175 1.336 . S
N172 C171 1.334 . S
N172 C173 1.334 . S
C173 N172 1.334 . S
C173 N174 1.336 . S
N174 Zn170 2.020 . S
N174 C173 1.336 . S
N174 N175 1.354 . S
N175 C171 1.336 . S
N175 N174 1.354 . S
N175 Zn179 2.020 . S
C176 O177 1.244 . S
C176 O200 1.257 . S
O177 C176 1.244 . S
O178 Zn170 2.019 . S
O178 C198 1.257 . S
Zn179 N175 2.020 . S
Zn179 O186 1.975 . S
Zn179 N195 2.119 . S
Zn179 O200 2.019 . S
N180 Zn170 2.119 . S
N180 C182 1.334 . S
N180 C183 1.328 . S
C181 C182 1.391 . S
C181 N184 1.329 . S
C181 H202 0.930 . S
C182 N180 1.334 . S
C182 C181 1.391 . S
C182 H189 0.930 . S
C183 N180 1.328 . S
C183 C185 1.392 . S
C183 H190 0.930 . S
N184 C181 1.329 . S
N184 C185 1.331 . S
C185 C183 1.392 . S
C185 N184 1.331 . S
O186 Zn179 1.975 . S
O186 C187 1.252 . S
C187 O186 1.252 . S
C187 O188 1.252 . S
O188 Zn170 1.975 . S
O188 C187 1.252 . S
H189 C182 0.930 . S
H190 C183 0.930 . S
C191 C192 1.392 . S
C191 N195 1.328 . S
C191 H197 0.930 . S
C192 C191 1.392 . S
C192 N196 1.331 . S
C193 C194 1.391 . S
C193 N196 1.329 . S
C193 H203 0.930 . S
C194 C193 1.391 . S
C194 N195 1.334 . S
C194 H201 0.930 . S
N195 Zn179 2.119 . S
N195 C191 1.328 . S
N195 C194 1.334 . S
N196 C192 1.331 . S
N196 C193 1.329 . S
H197 C191 0.930 . S
C198 O178 1.257 . S
C198 O199 1.244 . S
O199 C198 1.244 . S
O200 C176 1.257 . S
O200 Zn179 2.019 . S
H201 C194 0.930 . S
H202 C181 0.930 . S
H203 C193 0.930 . S
Zn204 N208 2.020 . S
Zn204 O212 2.019 . S
Zn204 N214 2.119 . S
Zn204 O222 1.975 . S
C205 N206 1.334 . S
C205 N209 1.336 . S
N206 C205 1.334 . S
N206 C207 1.334 1_556 S
C207 N206 1.334 1_554 S
C207 N208 1.336 . S
N208 Zn204 2.020 . S
N208 C207 1.336 . S
N208 N209 1.354 1_554 S
N209 C205 1.336 . S
N209 N208 1.354 1_556 S
N209 Zn213 2.020 . S
C210 O211 1.244 . S
C210 O234 1.257 . S
O211 C210 1.244 . S
O212 Zn204 2.019 . S
O212 C232 1.257 . S
Zn213 N209 2.020 . S
Zn213 O220 1.975 . S
Zn213 N229 2.119 . S
Zn213 O234 2.019 . S
N214 Zn204 2.119 . S
N214 C216 1.334 1_554 S
N214 C217 1.328 . S
C215 C216 1.391 . S
C215 N218 1.329 1_556 S
C215 H236 0.930 . S
C216 N214 1.334 1_556 S
C216 C215 1.391 . S
C216 H223 0.930 . S
C217 N214 1.328 . S
C217 C219 1.392 . S
C217 H224 0.930 . S
N218 C215 1.329 1_554 S
N218 C219 1.331 . S
C219 C217 1.392 . S
C219 N218 1.331 . S
O220 Zn213 1.975 . S
O220 C221 1.252 1_556 S
C221 O220 1.252 1_554 S
C221 O222 1.252 . S
O222 Zn204 1.975 . S
O222 C221 1.252 . S
H223 C216 0.930 . S
H224 C217 0.930 . S
C225 C226 1.392 . S
C225 N229 1.328 . S
C225 H231 0.930 . S
C226 C225 1.392 . S
C226 N230 1.331 . S
C227 C228 1.391 . S
C227 N230 1.329 1_554 S
C227 H237 0.930 . S
C228 C227 1.391 . S
C228 N229 1.334 1_554 S
C228 H235 0.930 . S
N229 Zn213 2.119 . S
N229 C225 1.328 . S
N229 C228 1.334 1_556 S
N230 C226 1.331 . S
N230 C227 1.329 1_556 S
H231 C225 0.930 . S
C232 O212 1.257 . S
C232 O233 1.244 . S
O233 C232 1.244 . S
O234 C210 1.257 . S
O234 Zn213 2.019 . S
H235 C228 0.930 . S
H236 C215 0.930 . S
H237 C227 0.930 . S
Zn238 N242 2.020 . S
Zn238 O246 2.019 . S
Zn238 N248 2.119 . S
Zn238 O256 1.975 . S
C239 N240 1.334 . S
C239 N243 1.336 . S
N240 C239 1.334 . S
N240 C241 1.334 . S
C241 N240 1.334 . S
C241 N242 1.336 . S
N242 Zn238 2.020 . S
N242 C241 1.336 . S
N242 N243 1.354 . S
N243 C239 1.336 . S
N243 N242 1.354 . S
N243 Zn247 2.020 . S
C244 O245 1.244 . S
C244 O268 1.257 . S
O245 C244 1.244 . S
O246 Zn238 2.019 . S
O246 C266 1.257 . S
Zn247 N243 2.020 . S
Zn247 O254 1.975 . S
Zn247 N263 2.119 . S
Zn247 O268 2.019 . S
N248 Zn238 2.119 . S
N248 C250 1.334 . S
N248 C251 1.328 . S
C249 C250 1.391 . S
C249 N252 1.329 . S
C249 H270 0.930 . S
C250 N248 1.334 . S
C250 C249 1.391 . S
C250 H257 0.930 . S
C251 N248 1.328 . S
C251 C253 1.392 . S
C251 H258 0.930 . S
N252 C249 1.329 . S
N252 C253 1.331 . S
C253 C251 1.392 . S
C253 N252 1.331 . S
O254 Zn247 1.975 . S
O254 C255 1.252 . S
C255 O254 1.252 . S
C255 O256 1.252 . S
O256 Zn238 1.975 . S
O256 C255 1.252 . S
H257 C250 0.930 . S
H258 C251 0.930 . S
C259 C260 1.392 . S
C259 N263 1.328 . S
C259 H265 0.930 . S
C260 C259 1.392 . S
C260 N264 1.331 . S
C261 C262 1.391 . S
C261 N264 1.329 . S
C261 H271 0.930 . S
C262 C261 1.391 . S
C262 N263 1.334 . S
C262 H269 0.930 . S
N263 Zn247 2.119 . S
N263 C259 1.328 . S
N263 C262 1.334 . S
N264 C260 1.331 . S
N264 C261 1.329 . S
H265 C259 0.930 . S
C266 O246 1.257 . S
C266 O267 1.244 . S
O267 C266 1.244 . S
O268 C244 1.257 . S
O268 Zn247 2.019 . S
H269 C262 0.930 . S
H270 C249 0.930 . S
H271 C261 0.930 . S
Zn272 N276 2.020 . S
Zn272 O280 2.019 . S
Zn272 N282 2.119 . S
Zn272 O290 1.975 . S
C273 N274 1.334 1_554 S
C273 N277 1.336 . S
N274 C273 1.334 1_556 S
N274 C275 1.334 . S
C275 N274 1.334 . S
C275 N276 1.336 . S
N276 Zn272 2.020 . S
N276 C275 1.336 . S
N276 N277 1.354 1_556 S
N277 C273 1.336 . S
N277 N276 1.354 1_554 S
N277 Zn281 2.020 . S
C278 O279 1.244 . S
C278 O302 1.257 . S
O279 C278 1.244 . S
O280 Zn272 2.019 . S
O280 C300 1.257 . S
Zn281 N277 2.020 . S
Zn281 O288 1.975 . S
Zn281 N297 2.119 . S
Zn281 O302 2.019 . S
N282 Zn272 2.119 . S
N282 C284 1.334 1_556 S
N282 C285 1.328 . S
C283 C284 1.391 . S
C283 N286 1.329 1_554 S
C283 H304 0.930 . S
C284 N282 1.334 1_554 S
C284 C283 1.391 . S
C284 H291 0.930 . S
C285 N282 1.328 . S
C285 C287 1.392 . S
C285 H292 0.930 . S
N286 C283 1.329 1_556 S
N286 C287 1.331 . S
C287 C285 1.392 . S
C287 N286 1.331 . S
O288 Zn281 1.975 . S
O288 C289 1.252 . S
C289 O288 1.252 . S
C289 O290 1.252 1_554 S
O290 Zn272 1.975 . S
O290 C289 1.252 1_556 S
H291 C284 0.930 . S
H292 C285 0.930 . S
C293 C294 1.392 . S
C293 N297 1.328 . S
C293 H299 0.930 . S
C294 C293 1.392 . S
C294 N298 1.331 . S
C295 C296 1.391 . S
C295 N298 1.329 1_556 S
C295 H305 0.930 . S
C296 C295 1.391 . S
C296 N297 1.334 1_556 S
C296 H303 0.930 . S
N297 Zn281 2.119 . S
N297 C293 1.328 . S
N297 C296 1.334 1_554 S
N298 C294 1.331 . S
N298 C295 1.329 1_554 S
H299 C293 0.930 . S
C300 O280 1.257 . S
C300 O301 1.244 . S
O301 C300 1.244 . S
O302 C278 1.257 . S
O302 Zn281 2.019 . S
H303 C296 0.930 . S
H304 C283 0.930 . S
H305 C295 0.930 . S
Zn306 N310 2.020 . S
Zn306 O314 2.019 . S
Zn306 N316 2.119 . S
Zn306 O324 1.975 . S
C307 N308 1.334 . S
C307 N311 1.336 . S
N308 C307 1.334 . S
N308 C309 1.334 . S
C309 N308 1.334 . S
C309 N310 1.336 . S
N310 Zn306 2.020 . S
N310 C309 1.336 . S
N310 N311 1.354 . S
N311 C307 1.336 . S
N311 N310 1.354 . S
N311 Zn315 2.020 . S
C312 O313 1.244 . S
C312 O336 1.257 . S
O313 C312 1.244 . S
O314 Zn306 2.019 . S
O314 C334 1.257 . S
Zn315 N311 2.020 . S
Zn315 O322 1.975 . S
Zn315 N331 2.119 . S
Zn315 O336 2.019 . S
N316 Zn306 2.119 . S
N316 C318 1.334 . S
N316 C319 1.328 . S
C317 C318 1.391 . S
C317 N320 1.329 . S
C317 H338 0.930 . S
C318 N316 1.334 . S
C318 C317 1.391 . S
C318 H325 0.930 . S
C319 N316 1.328 . S
C319 C321 1.392 . S
C319 H326 0.930 . S
N320 C317 1.329 . S
N320 C321 1.331 . S
C321 C319 1.392 . S
C321 N320 1.331 . S
O322 Zn315 1.975 . S
O322 C323 1.252 . S
C323 O322 1.252 . S
C323 O324 1.252 . S
O324 Zn306 1.975 . S
O324 C323 1.252 . S
H325 C318 0.930 . S
H326 C319 0.930 . S
C327 C328 1.392 . S
C327 N331 1.328 . S
C327 H333 0.930 . S
C328 C327 1.392 . S
C328 N332 1.331 . S
C329 C330 1.391 . S
C329 N332 1.329 . S
C329 H339 0.930 . S
C330 C329 1.391 . S
C330 N331 1.334 . S
C330 H337 0.930 . S
N331 Zn315 2.119 . S
N331 C327 1.328 . S
N331 C330 1.334 . S
N332 C328 1.331 . S
N332 C329 1.329 . S
H333 C327 0.930 . S
C334 O314 1.257 . S
C334 O335 1.244 . S
O335 C334 1.244 . S
O336 C312 1.257 . S
O336 Zn315 2.019 . S
H337 C330 0.930 . S
H338 C317 0.930 . S
H339 C329 0.930 . S
Zn340 N344 2.020 . S
Zn340 O348 2.019 . S
Zn340 N350 2.119 . S
Zn340 O358 1.975 . S
C341 N342 1.334 1_556 S
C341 N345 1.336 . S
N342 C341 1.334 1_554 S
N342 C343 1.334 . S
C343 N342 1.334 . S
C343 N344 1.336 . S
N344 Zn340 2.020 . S
N344 C343 1.336 . S
N344 N345 1.354 1_554 S
N345 C341 1.336 . S
N345 N344 1.354 1_556 S
N345 Zn349 2.020 . S
C346 O347 1.244 . S
C346 O370 1.257 . S
O347 C346 1.244 . S
O348 Zn340 2.019 . S
O348 C368 1.257 . S
Zn349 N345 2.020 . S
Zn349 O356 1.975 . S
Zn349 N365 2.119 . S
Zn349 O370 2.019 . S
N350 Zn340 2.119 . S
N350 C352 1.334 1_554 S
N350 C353 1.328 . S
C351 C352 1.391 . S
C351 N354 1.329 1_556 S
C351 H372 0.930 . S
C352 N350 1.334 1_556 S
C352 C351 1.391 . S
C352 H359 0.930 . S
C353 N350 1.328 . S
C353 C355 1.392 . S
C353 H360 0.930 . S
N354 C351 1.329 1_554 S
N354 C355 1.331 . S
C355 C353 1.392 . S
C355 N354 1.331 . S
O356 Zn349 1.975 . S
O356 C357 1.252 . S
C357 O356 1.252 . S
C357 O358 1.252 1_556 S
O358 Zn340 1.975 . S
O358 C357 1.252 1_554 S
H359 C352 0.930 . S
H360 C353 0.930 . S
C361 C362 1.392 . S
C361 N365 1.328 . S
C361 H367 0.930 . S
C362 C361 1.392 . S
C362 N366 1.331 . S
C363 C364 1.391 . S
C363 N366 1.329 1_554 S
C363 H373 0.930 . S
C364 C363 1.391 . S
C364 N365 1.334 1_554 S
C364 H371 0.930 . S
N365 Zn349 2.119 . S
N365 C361 1.328 . S
N365 C364 1.334 1_556 S
N366 C362 1.331 . S
N366 C363 1.329 1_556 S
H367 C361 0.930 . S
C368 O348 1.257 . S
C368 O369 1.244 . S
O369 C368 1.244 . S
O370 C346 1.257 . S
O370 Zn349 2.019 . S
H371 C364 0.930 . S
H372 C351 0.930 . S
H373 C363 0.930 . S
Zn374 N378 2.020 . S
Zn374 O382 2.019 . S
Zn374 N384 2.119 . S
Zn374 O392 1.975 . S
C375 N376 1.334 . S
C375 N379 1.336 . S
N376 C375 1.334 . S
N376 C377 1.334 . S
C377 N376 1.334 . S
C377 N378 1.336 . S
N378 Zn374 2.020 . S
N378 C377 1.336 . S
N378 N379 1.354 . S
N379 C375 1.336 . S
N379 N378 1.354 . S
N379 Zn383 2.020 . S
C380 O381 1.244 . S
C380 O404 1.257 . S
O381 C380 1.244 . S
O382 Zn374 2.019 . S
O382 C402 1.257 . S
Zn383 N379 2.020 . S
Zn383 O390 1.975 . S
Zn383 N399 2.119 . S
Zn383 O404 2.019 . S
N384 Zn374 2.119 . S
N384 C386 1.334 . S
N384 C387 1.328 . S
C385 C386 1.391 . S
C385 N388 1.329 . S
C385 H406 0.930 . S
C386 N384 1.334 . S
C386 C385 1.391 . S
C386 H393 0.930 . S
C387 N384 1.328 . S
C387 C389 1.392 . S
C387 H394 0.930 . S
N388 C385 1.329 . S
N388 C389 1.331 . S
C389 C387 1.392 . S
C389 N388 1.331 . S
O390 Zn383 1.975 . S
O390 C391 1.252 . S
C391 O390 1.252 . S
C391 O392 1.252 . S
O392 Zn374 1.975 . S
O392 C391 1.252 . S
H393 C386 0.930 . S
H394 C387 0.930 . S
C395 C396 1.392 . S
C395 N399 1.328 . S
C395 H401 0.930 . S
C396 C395 1.392 . S
C396 N400 1.331 . S
C397 C398 1.391 . S
C397 N400 1.329 . S
C397 H407 0.930 . S
C398 C397 1.391 . S
C398 N399 1.334 . S
C398 H405 0.930 . S
N399 Zn383 2.119 . S
N399 C395 1.328 . S
N399 C398 1.334 . S
N400 C396 1.331 . S
N400 C397 1.329 . S
H401 C395 0.930 . S
C402 O382 1.257 . S
C402 O403 1.244 . S
O403 C402 1.244 . S
O404 C380 1.257 . S
O404 Zn383 2.019 . S
H405 C398 0.930 . S
H406 C385 0.930 . S
H407 C397 0.930 . S
Zn408 N412 2.020 . S
Zn408 O416 2.019 . S
Zn408 N418 2.119 . S
Zn408 O426 1.975 . S
C409 N410 1.334 1_556 S
C409 N413 1.336 . S
N410 C409 1.334 1_554 S
N410 C411 1.334 . S
C411 N410 1.334 . S
C411 N412 1.336 . S
N412 Zn408 2.020 . S
N412 C411 1.336 . S
N412 N413 1.354 1_554 S
N413 C409 1.336 . S
N413 N412 1.354 1_556 S
N413 Zn417 2.020 . S
C414 O415 1.244 . S
C414 O438 1.257 . S
O415 C414 1.244 . S
O416 Zn408 2.019 . S
O416 C436 1.257 . S
Zn417 N413 2.020 . S
Zn417 O424 1.975 . S
Zn417 N433 2.119 . S
Zn417 O438 2.019 . S
N418 Zn408 2.119 . S
N418 C420 1.334 1_554 S
N418 C421 1.328 . S
C419 C420 1.391 . S
C419 N422 1.329 1_556 S
C419 H440 0.930 . S
C420 N418 1.334 1_556 S
C420 C419 1.391 . S
C420 H427 0.930 . S
C421 N418 1.328 . S
C421 C423 1.392 . S
C421 H428 0.930 . S
N422 C419 1.329 1_554 S
N422 C423 1.331 . S
C423 C421 1.392 . S
C423 N422 1.331 . S
O424 Zn417 1.975 . S
O424 C425 1.252 . S
C425 O424 1.252 . S
C425 O426 1.252 1_556 S
O426 Zn408 1.975 . S
O426 C425 1.252 1_554 S
H427 C420 0.930 . S
H428 C421 0.930 . S
C429 C430 1.392 . S
C429 N433 1.328 . S
C429 H435 0.930 . S
C430 C429 1.392 . S
C430 N434 1.331 . S
C431 C432 1.391 . S
C431 N434 1.329 1_554 S
C431 H441 0.930 . S
C432 C431 1.391 . S
C432 N433 1.334 1_554 S
C432 H439 0.930 . S
N433 Zn417 2.119 . S
N433 C429 1.328 . S
N433 C432 1.334 1_556 S
N434 C430 1.331 . S
N434 C431 1.329 1_556 S
H435 C429 0.930 . S
C436 O416 1.257 . S
C436 O437 1.244 . S
O437 C436 1.244 . S
O438 C414 1.257 . S
O438 Zn417 2.019 . S
H439 C432 0.930 . S
H440 C419 0.930 . S
H441 C431 0.930 . S
Zn442 N446 2.020 . S
Zn442 O450 2.019 . S
Zn442 N452 2.119 . S
Zn442 O460 1.975 . S
C443 N444 1.334 . S
C443 N447 1.336 . S
N444 C443 1.334 . S
N444 C445 1.334 . S
C445 N444 1.334 . S
C445 N446 1.336 . S
N446 Zn442 2.020 . S
N446 C445 1.336 . S
N446 N447 1.354 . S
N447 C443 1.336 . S
N447 N446 1.354 . S
N447 Zn451 2.020 . S
C448 O449 1.244 . S
C448 O472 1.257 . S
O449 C448 1.244 . S
O450 Zn442 2.019 . S
O450 C470 1.257 . S
Zn451 N447 2.020 . S
Zn451 O458 1.975 . S
Zn451 N467 2.119 . S
Zn451 O472 2.019 . S
N452 Zn442 2.119 . S
N452 C454 1.334 . S
N452 C455 1.328 . S
C453 C454 1.391 . S
C453 N456 1.329 . S
C453 H474 0.930 . S
C454 N452 1.334 . S
C454 C453 1.391 . S
C454 H461 0.930 . S
C455 N452 1.328 . S
C455 C457 1.392 . S
C455 H462 0.930 . S
N456 C453 1.329 . S
N456 C457 1.331 . S
C457 C455 1.392 . S
C457 N456 1.331 . S
O458 Zn451 1.975 . S
O458 C459 1.252 . S
C459 O458 1.252 . S
C459 O460 1.252 . S
O460 Zn442 1.975 . S
O460 C459 1.252 . S
H461 C454 0.930 . S
H462 C455 0.930 . S
C463 C464 1.392 . S
C463 N467 1.328 . S
C463 H469 0.930 . S
C464 C463 1.392 . S
C464 N468 1.331 . S
C465 C466 1.391 . S
C465 N468 1.329 . S
C465 H475 0.930 . S
C466 C465 1.391 . S
C466 N467 1.334 . S
C466 H473 0.930 . S
N467 Zn451 2.119 . S
N467 C463 1.328 . S
N467 C466 1.334 . S
N468 C464 1.331 . S
N468 C465 1.329 . S
H469 C463 0.930 . S
C470 O450 1.257 . S
C470 O471 1.244 . S
O471 C470 1.244 . S
O472 C448 1.257 . S
O472 Zn451 2.019 . S
H473 C466 0.930 . S
H474 C453 0.930 . S
H475 C465 0.930 . S
Zn476 N480 2.020 . S
Zn476 O484 2.019 . S
Zn476 N486 2.119 . S
Zn476 O494 1.975 . S
C477 N478 1.334 . S
C477 N481 1.336 . S
N478 C477 1.334 . S
N478 C479 1.334 1_556 S
C479 N478 1.334 1_554 S
C479 N480 1.336 . S
N480 Zn476 2.020 . S
N480 C479 1.336 . S
N480 N481 1.354 1_554 S
N481 C477 1.336 . S
N481 N480 1.354 1_556 S
N481 Zn485 2.020 . S
C482 O483 1.244 . S
C482 O506 1.257 . S
O483 C482 1.244 . S
O484 Zn476 2.019 . S
O484 C504 1.257 . S
Zn485 N481 2.020 . S
Zn485 O492 1.975 . S
Zn485 N501 2.119 . S
Zn485 O506 2.019 . S
N486 Zn476 2.119 . S
N486 C488 1.334 1_554 S
N486 C489 1.328 . S
C487 C488 1.391 . S
C487 N490 1.329 1_556 S
C487 H508 0.930 . S
C488 N486 1.334 1_556 S
C488 C487 1.391 . S
C488 H495 0.930 . S
C489 N486 1.328 . S
C489 C491 1.392 . S
C489 H496 0.930 . S
N490 C487 1.329 1_554 S
N490 C491 1.331 . S
C491 C489 1.392 . S
C491 N490 1.331 . S
O492 Zn485 1.975 . S
O492 C493 1.252 1_556 S
C493 O492 1.252 1_554 S
C493 O494 1.252 . S
O494 Zn476 1.975 . S
O494 C493 1.252 . S
H495 C488 0.930 . S
H496 C489 0.930 . S
C497 C498 1.392 . S
C497 N501 1.328 . S
C497 H503 0.930 . S
C498 C497 1.392 . S
C498 N502 1.331 . S
C499 C500 1.391 . S
C499 N502 1.329 1_554 S
C499 H509 0.930 . S
C500 C499 1.391 . S
C500 N501 1.334 1_554 S
C500 H507 0.930 . S
N501 Zn485 2.119 . S
N501 C497 1.328 . S
N501 C500 1.334 1_556 S
N502 C498 1.331 . S
N502 C499 1.329 1_556 S
H503 C497 0.930 . S
C504 O484 1.257 . S
C504 O505 1.244 . S
O505 C504 1.244 . S
O506 C482 1.257 . S
O506 Zn485 2.019 . S
H507 C500 0.930 . S
H508 C487 0.930 . S
H509 C499 0.930 . S
Zn510 N514 2.020 . S
Zn510 O518 2.019 . S
Zn510 N520 2.119 . S
Zn510 O528 1.975 . S
C511 N512 1.334 . S
C511 N515 1.336 . S
N512 C511 1.334 . S
N512 C513 1.334 . S
C513 N512 1.334 . S
C513 N514 1.336 . S
N514 Zn510 2.020 . S
N514 C513 1.336 . S
N514 N515 1.354 . S
N515 C511 1.336 . S
N515 N514 1.354 . S
N515 Zn519 2.020 . S
C516 O517 1.244 . S
C516 O540 1.257 . S
O517 C516 1.244 . S
O518 Zn510 2.019 . S
O518 C538 1.257 . S
Zn519 N515 2.020 . S
Zn519 O526 1.975 . S
Zn519 N535 2.119 . S
Zn519 O540 2.019 . S
N520 Zn510 2.119 . S
N520 C522 1.334 . S
N520 C523 1.328 . S
C521 C522 1.391 . S
C521 N524 1.329 . S
C521 H542 0.930 . S
C522 N520 1.334 . S
C522 C521 1.391 . S
C522 H529 0.930 . S
C523 N520 1.328 . S
C523 C525 1.392 . S
C523 H530 0.930 . S
N524 C521 1.329 . S
N524 C525 1.331 . S
C525 C523 1.392 . S
C525 N524 1.331 . S
O526 Zn519 1.975 . S
O526 C527 1.252 . S
C527 O526 1.252 . S
C527 O528 1.252 . S
O528 Zn510 1.975 . S
O528 C527 1.252 . S
H529 C522 0.930 . S
H530 C523 0.930 . S
C531 C532 1.392 . S
C531 N535 1.328 . S
C531 H537 0.930 . S
C532 C531 1.392 . S
C532 N536 1.331 . S
C533 C534 1.391 . S
C533 N536 1.329 . S
C533 H543 0.930 . S
C534 C533 1.391 . S
C534 N535 1.334 . S
C534 H541 0.930 . S
N535 Zn519 2.119 . S
N535 C531 1.328 . S
N535 C534 1.334 . S
N536 C532 1.331 . S
N536 C533 1.329 . S
H537 C531 0.930 . S
C538 O518 1.257 . S
C538 O539 1.244 . S
O539 C538 1.244 . S
O540 C516 1.257 . S
O540 Zn519 2.019 . S
H541 C534 0.930 . S
H542 C521 0.930 . S
H543 C533 0.930 . S
C226 C22 2.135 1_655 S
C49 C253 2.153 . S
C151 C83 2.135 1_655 S
C192 C117 2.153 . S
C287 C498 2.135 . S
C532 C321 2.154 1_455 S
C423 C355 2.135 . S
C464 C396 2.153 1_455 S
C1 C513 3.125 . S
C37 C479 2.892 . S
C445 C71 3.125 . S
C409 C105 2.892 . S
C377 C139 3.125 . S
C341 C171 2.892 . S
C307 C205 3.125 . S
C273 C241 2.892 . S
C239 C275 3.125 . S
C309 C207 2.892 . S
C343 C173 3.125 . S
C137 C375 2.892 . S
C411 C103 3.125 . S
C69 C443 2.892 . S
C477 C35 3.125 . S
C511 C3 2.892 . S
C85 C17 1.590 1_566 S
C51 C119 1.599 1_565 S
C153 C221 1.590 1_566 S
C255 C187 1.599 1_565 S
C357 C289 1.590 1_556 S
C323 C391 1.599 . S
C493 C425 1.590 1_554 S
C527 C459 1.599 . S
C15 C124 1.748 . S
C56 C90 1.748 . S
C260 C158 1.748 . S
C185 C219 1.748 . S
C389 C294 1.748 . S
C328 C362 1.748 . S
C525 C430 1.748 . S
C491 C457 1.748 . S
C6 C28 1.148 . S
C62 C40 1.153 1_554 S
C74 C96 1.148 . S
C130 C108 1.153 1_556 S
C164 C142 1.148 . S
C176 C198 1.153 1_556 S
C210 C232 1.148 . S
C244 C266 1.153 1_556 S
C300 C278 1.148 . S
C312 C334 1.153 1_556 S
C346 C368 1.148 . S
C402 C380 1.153 1_554 S
C436 C414 1.148 . S
C470 C448 1.153 1_554 S
C482 C504 1.148 . S
C516 C538 1.153 1_554 S
