# Generated by pormake.
# Topology neb, (4)-cn, num edge types: 1
# Building blocks:
#     Node 0, Type 0, BuildingBlock: UXUYUI_clean_sbu_0, # of connection points: 4
#     Node 1, Type 0, BuildingBlock: UXUYUI_clean_sbu_0, # of connection points: 4
#     Node 2, Type 0, BuildingBlock: UXUYUI_clean_sbu_0, # of connection points: 4
#     Node 3, Type 0, BuildingBlock: UXUYUI_clean_sbu_0, # of connection points: 4
#     Node 4, Type 0, BuildingBlock: UXUYUI_clean_sbu_0, # of connection points: 4
#     Node 5, Type 0, BuildingBlock: UXUYUI_clean_sbu_0, # of connection points: 4
#     Node 6, Type 0, BuildingBlock: UXUYUI_clean_sbu_0, # of connection points: 4
#     Node 7, Type 0, BuildingBlock: UXUYUI_clean_sbu_0, # of connection points: 4
#     Node 8, Type 0, BuildingBlock: UXUYUI_clean_sbu_0, # of connection points: 4
#     Node 9, Type 0, BuildingBlock: UXUYUI_clean_sbu_0, # of connection points: 4
#     Node 10, Type 0, BuildingBlock: UXUYUI_clean_sbu_0, # of connection points: 4
#     Node 11, Type 0, BuildingBlock: UXUYUI_clean_sbu_0, # of connection points: 4
#     Node 12, Type 0, BuildingBlock: UXUYUI_clean_sbu_0, # of connection points: 4
#     Node 13, Type 0, BuildingBlock: UXUYUI_clean_sbu_0, # of connection points: 4
#     Node 14, Type 0, BuildingBlock: UXUYUI_clean_sbu_0, # of connection points: 4
#     Node 15, Type 0, BuildingBlock: UXUYUI_clean_sbu_0, # of connection points: 4
#     Edge 16, Type (0, 0), BuildingBlock: OJICUG_clean_linker_0, # of connection points: 2
#     Edge 17, Type (0, 0), BuildingBlock: OJICUG_clean_linker_0, # of connection points: 2
#     Edge 18, Type (0, 0), BuildingBlock: OJICUG_clean_linker_0, # of connection points: 2
#     Edge 19, Type (0, 0), BuildingBlock: OJICUG_clean_linker_0, # of connection points: 2
#     Edge 20, Type (0, 0), BuildingBlock: OJICUG_clean_linker_0, # of connection points: 2
#     Edge 21, Type (0, 0), BuildingBlock: OJICUG_clean_linker_0, # of connection points: 2
#     Edge 22, Type (0, 0), BuildingBlock: OJICUG_clean_linker_0, # of connection points: 2
#     Edge 23, Type (0, 0), BuildingBlock: OJICUG_clean_linker_0, # of connection points: 2
#     Edge 24, Type (0, 0), BuildingBlock: OJICUG_clean_linker_0, # of connection points: 2
#     Edge 25, Type (0, 0), BuildingBlock: OJICUG_clean_linker_0, # of connection points: 2
#     Edge 26, Type (0, 0), BuildingBlock: OJICUG_clean_linker_0, # of connection points: 2
#     Edge 27, Type (0, 0), BuildingBlock: OJICUG_clean_linker_0, # of connection points: 2
#     Edge 28, Type (0, 0), BuildingBlock: OJICUG_clean_linker_0, # of connection points: 2
#     Edge 29, Type (0, 0), BuildingBlock: OJICUG_clean_linker_0, # of connection points: 2
#     Edge 30, Type (0, 0), BuildingBlock: OJICUG_clean_linker_0, # of connection points: 2
#     Edge 31, Type (0, 0), BuildingBlock: OJICUG_clean_linker_0, # of connection points: 2
#     Edge 32, Type (0, 0), BuildingBlock: OJICUG_clean_linker_0, # of connection points: 2
#     Edge 33, Type (0, 0), BuildingBlock: OJICUG_clean_linker_0, # of connection points: 2
#     Edge 34, Type (0, 0), BuildingBlock: OJICUG_clean_linker_0, # of connection points: 2
#     Edge 35, Type (0, 0), BuildingBlock: OJICUG_clean_linker_0, # of connection points: 2
#     Edge 36, Type (0, 0), BuildingBlock: OJICUG_clean_linker_0, # of connection points: 2
#     Edge 37, Type (0, 0), BuildingBlock: OJICUG_clean_linker_0, # of connection points: 2
#     Edge 38, Type (0, 0), BuildingBlock: OJICUG_clean_linker_0, # of connection points: 2
#     Edge 39, Type (0, 0), BuildingBlock: OJICUG_clean_linker_0, # of connection points: 2
#     Edge 40, Type (0, 0), BuildingBlock: OJICUG_clean_linker_0, # of connection points: 2
#     Edge 41, Type (0, 0), BuildingBlock: OJICUG_clean_linker_0, # of connection points: 2
#     Edge 42, Type (0, 0), BuildingBlock: OJICUG_clean_linker_0, # of connection points: 2
#     Edge 43, Type (0, 0), BuildingBlock: OJICUG_clean_linker_0, # of connection points: 2
#     Edge 44, Type (0, 0), BuildingBlock: OJICUG_clean_linker_0, # of connection points: 2
#     Edge 45, Type (0, 0), BuildingBlock: OJICUG_clean_linker_0, # of connection points: 2
#     Edge 46, Type (0, 0), BuildingBlock: OJICUG_clean_linker_0, # of connection points: 2
#     Edge 47, Type (0, 0), BuildingBlock: OJICUG_clean_linker_0, # of connection points: 2
# Relax obj value: 0.156
# Max RMSD: 0.184
# Mean RMSD: 0.183
data_MOF--net-neb--node1-UXUYUI_clean_sbu_0--edge1-OJICUG_clean_linker_0
_symmetry_space_group_name_H-M    P1
_symmetry_Int_Tables_number       1
_symmetry_cell_setting            triclinic
loop_
_symmetry_equiv_pos_as_xyz
'x, y, z'
_cell_length_a     55.070451
_cell_length_b     26.096243
_cell_length_c     88.360645
_cell_angle_alpha  90.001507
_cell_angle_beta   90.010142
_cell_angle_gamma 89.995151
loop_
_atom_site_label
_atom_site_type_symbol
_atom_site_fract_x
_atom_site_fract_y
_atom_site_fract_z
_atom_type_partial_charge
Li0 Li 0.10611 0.10654 0.45312 0.0
Li1 Li 0.14712 0.13822 0.45418 0.0
Li2 Li 0.12067 0.16461 0.43378 0.0
Li3 Li 0.1359 0.07829 0.43468 0.0
C4 C 0.09717 0.21065 0.45776 0.0
N5 N 0.0577 0.27455 0.46185 0.0
C6 C 0.09904 0.2535 0.46717 0.0
C7 C 0.07521 0.20028 0.45043 0.0
C8 C 0.07888 0.28534 0.46909 0.0
C9 C 0.05547 0.23305 0.45264 0.0
C10 C 0.13678 0.05206 0.47179 0.0
C11 C 0.14229 0.98793 0.49113 0.0
N12 N 0.13764 0.0238 0.50192 0.0
C13 C 0.13205 0.08831 0.48306 0.0
C14 C 0.14193 0.00147 0.47584 0.0
C15 C 0.13257 0.07326 0.49823 0.0
C16 C 0.06763 0.04015 0.45971 0.0
N17 N 0.07894 0.08331 0.46465 0.0
C18 C 0.05264 0.08775 0.48613 0.0
C19 C 0.07185 0.10731 0.47757 0.0
C20 C 0.04064 0.04296 0.48138 0.0
C21 C 0.04833 0.01928 0.46791 0.0
H22 H 0.0739 0.0215 0.4495 0.0
H23 H 0.08127 0.14134 0.48134 0.0
C24 C 0.17597 0.21446 0.46698 0.0
N25 N 0.17287 0.16281 0.4667 0.0
C26 C 0.19474 0.23618 0.47546 0.0
C27 C 0.20669 0.15111 0.48332 0.0
C28 C 0.18784 0.13098 0.47454 0.0
C29 C 0.21037 0.20438 0.4838 0.0
H30 H 0.16388 0.23877 0.46053 0.0
H31 H 0.18531 0.08996 0.47391 0.0
C32 C 0.09574 0.09141 0.41626 0.0
N33 N 0.08342 0.07164 0.38651 0.0
C34 C 0.11086 0.1078 0.40451 0.0
C35 C 0.07436 0.06496 0.41287 0.0
C36 C 0.10432 0.09744 0.38955 0.0
C37 C 0.06844 0.05535 0.39776 0.0
C38 C 0.17904 0.13129 0.43034 0.0
C39 C 0.19341 0.16274 0.4212 0.0
C40 C 0.18947 0.08889 0.43751 0.0
C41 C 0.21802 0.15129 0.4194 0.0
C42 C 0.21415 0.07876 0.43544 0.0
N43 N 0.2278 0.10991 0.4265 0.0
C44 C 0.13199 0.25286 0.41776 0.0
C45 C 0.09196 0.22376 0.41293 0.0
C46 C 0.12973 0.29065 0.4067 0.0
N47 N 0.11345 0.21978 0.42043 0.0
C48 C 0.08892 0.261 0.4017 0.0
C49 C 0.10819 0.29435 0.39823 0.0
H50 H 0.1488 0.24891 0.42398 0.0
H51 H 0.0775 0.19685 0.41524 0.0
C52 C 0.13474 0.97566 0.42536 0.0
N53 N 0.14451 0.02208 0.42202 0.0
C54 C 0.13665 0.93521 0.41508 0.0
C55 C 0.1594 0.99064 0.39837 0.0
C56 C 0.1571 0.02995 0.40898 0.0
C57 C 0.14857 0.94283 0.40118 0.0
H58 H 0.12454 0.97077 0.43572 0.0
H59 H 0.1642 0.06755 0.40641 0.0
O60 O 0.11685 0.17935 0.45581 0.0
O61 O 0.13618 0.06552 0.45683 0.0
O62 O 0.10187 0.10039 0.43103 0.0
O63 O 0.15495 0.14242 0.43225 0.0
H64 H 0.11593 0.26202 0.47292 0.0
H65 H 0.07333 0.16726 0.44315 0.0
H66 H 0.08008 0.31864 0.47635 0.0
H67 H 0.03838 0.22546 0.44704 0.0
H68 H 0.14624 0.94889 0.49443 0.0
H69 H 0.12806 0.12766 0.48017 0.0
H70 H 0.14557 0.97295 0.46723 0.0
H71 H 0.12895 0.10091 0.50706 0.0
H72 H 0.04718 0.10762 0.49634 0.0
H73 H 0.0399 0.98432 0.46392 0.0
H74 H 0.19685 0.27744 0.47561 0.0
H75 H 0.21855 0.12526 0.48943 0.0
H76 H 0.12752 0.12818 0.4069 0.0
H77 H 0.06248 0.05194 0.42184 0.0
H78 H 0.11587 0.10986 0.38035 0.0
H79 H 0.05195 0.03489 0.39498 0.0
H80 H 0.18562 0.19565 0.41554 0.0
H81 H 0.1787 0.06398 0.4446 0.0
H82 H 0.22936 0.17533 0.41236 0.0
H83 H 0.22245 0.04612 0.44093 0.0
H84 H 0.14486 0.31623 0.40464 0.0
H85 H 0.07205 0.26227 0.39542 0.0
H86 H 0.12828 0.89881 0.4178 0.0
H87 H 0.16842 0.99856 0.38773 0.0
Li88 Li 0.13542 0.17215 0.81654 0.0
Li89 Li 0.11788 0.07968 0.81626 0.0
Li90 Li 0.14647 0.11103 0.79688 0.0
Li91 Li 0.10694 0.14189 0.79691 0.0
C92 C 0.17541 0.08968 0.82021 0.0
N93 N 0.22322 0.058 0.8214 0.0
C94 C 0.1812 0.03796 0.81827 0.0
C95 C 0.19389 0.12527 0.82286 0.0
C96 C 0.2055 0.02272 0.81886 0.0
C97 C 0.21797 0.10848 0.82341 0.0
C98 C 0.07875 0.16706 0.8202 0.0
C99 C 0.0355 0.15775 0.82333 0.0
N100 N 0.03275 0.20901 0.82112 0.0
C101 C 0.07554 0.21967 0.81805 0.0
C102 C 0.05863 0.13579 0.82292 0.0
C103 C 0.05211 0.24013 0.81851 0.0
C104 C 0.141 0.27494 0.82671 0.0
N105 N 0.1439 0.22469 0.8303 0.0
C106 C 0.15474 0.24619 0.85569 0.0
C107 C 0.15086 0.2098 0.84438 0.0
C108 C 0.15124 0.29842 0.85249 0.0
C109 C 0.1447 0.31272 0.83769 0.0
H110 H 0.13508 0.28554 0.81547 0.0
H111 H 0.15277 0.16944 0.84692 0.0
C112 C 0.11706 0.97717 0.82625 0.0
N113 N 0.10976 0.0256 0.82957 0.0
C114 C 0.11468 0.93826 0.837 0.0
C115 C 0.09629 0.99939 0.85408 0.0
C116 C 0.09924 0.03723 0.84306 0.0
C117 C 0.10462 0.94945 0.85124 0.0
H118 H 0.12552 0.96924 0.81545 0.0
H119 H 0.09405 0.07636 0.84547 0.0
C120 C 0.15308 0.20285 0.78461 0.0
N121 N 0.18698 0.24013 0.76439 0.0
C122 C 0.15142 0.19042 0.76927 0.0
C123 C 0.17181 0.23471 0.78966 0.0
C124 C 0.1688 0.20948 0.75922 0.0
C125 C 0.18881 0.25308 0.77926 0.0
C126 C 0.09988 0.04956 0.78478 0.0
C127 C 0.10074 0.06085 0.76933 0.0
C128 C 0.08148 0.01799 0.7904 0.0
C129 C 0.08285 0.04102 0.75977 0.0
C130 C 0.06396 0.99882 0.78047 0.0
N131 N 0.06497 0.0107 0.76549 0.0
C132 C 0.16956 0.042 0.77706 0.0
C133 C 0.19515 0.11032 0.78459 0.0
C134 C 0.18837 0.01997 0.76869 0.0
N135 N 0.17319 0.08641 0.78479 0.0
C136 C 0.21442 0.08986 0.77626 0.0
C137 C 0.21119 0.04393 0.76822 0.0
H138 H 0.1521 0.0232 0.77754 0.0
H139 H 0.19793 0.14478 0.7911 0.0
C140 C 0.08385 0.21026 0.77676 0.0
N141 N 0.08021 0.16649 0.7848 0.0
C142 C 0.06503 0.23163 0.76824 0.0
C143 C 0.03893 0.16257 0.77637 0.0
C144 C 0.05822 0.1427 0.78481 0.0
C145 C 0.04219 0.20774 0.76796 0.0
H146 H 0.10133 0.22901 0.77709 0.0
H147 H 0.05546 0.10873 0.79155 0.0
O148 O 0.1518 0.10553 0.81935 0.0
O149 O 0.10147 0.14617 0.81944 0.0
O150 O 0.13623 0.18465 0.79461 0.0
O151 O 0.11722 0.06856 0.79431 0.0
H152 H 0.16711 0.01002 0.81612 0.0
H153 H 0.18971 0.16551 0.82428 0.0
H154 H 0.21027 0.98288 0.81727 0.0
H155 H 0.23248 0.13561 0.82537 0.0
H156 H 0.01972 0.13401 0.82534 0.0
H157 H 0.09095 0.24428 0.81584 0.0
H158 H 0.06082 0.09492 0.8245 0.0
H159 H 0.04932 0.28073 0.81675 0.0
H160 H 0.16002 0.2335 0.86689 0.0
H161 H 0.14148 0.35246 0.83479 0.0
H162 H 0.12115 0.90011 0.83433 0.0
H163 H 0.08872 0.00969 0.86498 0.0
H164 H 0.13691 0.16616 0.76518 0.0
H165 H 0.17337 0.24464 0.80151 0.0
H166 H 0.16783 0.19992 0.74733 0.0
H167 H 0.20349 0.2775 0.78301 0.0
H168 H 0.11501 0.08482 0.76479 0.0
H169 H 0.0806 0.00882 0.80233 0.0
H170 H 0.08318 0.0497 0.7478 0.0
H171 H 0.04951 0.9746 0.78467 0.0
H172 H 0.18504 0.98471 0.76256 0.0
H173 H 0.23183 0.10917 0.77641 0.0
H174 H 0.06841 0.26631 0.76184 0.0
H175 H 0.02152 0.14333 0.77668 0.0
Li176 Li 0.89777 0.89278 0.54649 0.0
Li177 Li 0.86819 0.9192 0.56569 0.0
Li178 Li 0.88445 0.82888 0.56549 0.0
Li179 Li 0.85484 0.85735 0.54647 0.0
C180 C 0.92555 0.90216 0.573 0.0
N181 N 0.97333 0.91778 0.58139 0.0
C182 C 0.93295 0.9498 0.57857 0.0
C183 C 0.94236 0.86221 0.57199 0.0
C184 C 0.95722 0.95704 0.58266 0.0
C185 C 0.96645 0.87091 0.57621 0.0
C186 C 0.85617 0.97651 0.54097 0.0
C187 C 0.82113 0.03178 0.53963 0.0
N188 N 0.83588 0.07219 0.53649 0.0
C189 C 0.87095 0.01843 0.5375 0.0
C190 C 0.83103 0.98308 0.54186 0.0
C191 C 0.86037 0.06655 0.53537 0.0
C192 C 0.93072 0.89312 0.52149 0.0
N193 N 0.9241 0.91764 0.53442 0.0
C194 C 0.95455 0.98159 0.53045 0.0
C195 C 0.93541 0.96138 0.53891 0.0
C196 C 0.96206 0.95684 0.51713 0.0
C197 C 0.9498 0.91205 0.51265 0.0
H198 H 0.92114 0.85895 0.51799 0.0
H199 H 0.92927 0.98119 0.54893 0.0
C200 C 0.84578 0.96481 0.59124 0.0
N201 N 0.86013 0.97398 0.57901 0.0
C202 C 0.84284 0.00227 0.6024 0.0
C203 C 0.86918 0.05813 0.58805 0.0
C204 C 0.87156 0.0197 0.57717 0.0
C205 C 0.8551 0.04924 0.60104 0.0
H206 H 0.83755 0.92757 0.59273 0.0
H207 H 0.88352 0.02545 0.56764 0.0
C208 C 0.89789 0.77667 0.53907 0.0
N209 N 0.92131 0.68706 0.53099 0.0
C210 C 0.88451 0.73429 0.53416 0.0
C211 C 0.92321 0.77377 0.53956 0.0
C212 C 0.89667 0.68924 0.53022 0.0
C213 C 0.93471 0.72807 0.53551 0.0
C214 C 0.82752 0.83953 0.57213 0.0
C215 C 0.82253 0.78985 0.57717 0.0
C216 C 0.80857 0.87476 0.57064 0.0
C217 C 0.79855 0.77592 0.58029 0.0
C218 C 0.78483 0.85939 0.57388 0.0
N219 N 0.78035 0.81067 0.57858 0.0
C220 C 0.90319 0.78308 0.592 0.0
C221 C 0.88471 0.72516 0.57486 0.0
C222 C 0.90602 0.74415 0.60272 0.0
N223 N 0.89254 0.77304 0.57844 0.0
C224 C 0.88706 0.6852 0.58525 0.0
C225 C 0.89739 0.69469 0.59952 0.0
H226 H 0.90854 0.82182 0.59477 0.0
H227 H 0.87546 0.71851 0.56427 0.0
C228 C 0.81979 0.86054 0.52254 0.0
N229 N 0.82852 0.83277 0.53437 0.0
C230 C 0.80076 0.84143 0.51369 0.0
C231 C 0.80021 0.76545 0.5293 0.0
C232 C 0.81927 0.78588 0.53777 0.0
C233 C 0.79068 0.79316 0.51702 0.0
H234 H 0.82778 0.89729 0.51986 0.0
H235 H 0.82689 0.764 0.54699 0.0
O236 O 0.90185 0.89448 0.56889 0.0
O237 O 0.86624 0.92913 0.54316 0.0
O238 O 0.88625 0.82113 0.54296 0.0
O239 O 0.85088 0.8537 0.56889 0.0
H240 H 0.92016 0.98102 0.57961 0.0
H241 H 0.93681 0.82466 0.56819 0.0
H242 H 0.96323 0.99385 0.58686 0.0
H243 H 0.97965 0.84031 0.57544 0.0
H244 H 0.8017 0.03742 0.54035 0.0
H245 H 0.8904 0.01398 0.53658 0.0
H246 H 0.81925 0.95087 0.5441 0.0
H247 H 0.87162 0.09939 0.53281 0.0
H248 H 0.96305 0.01683 0.53417 0.0
H249 H 0.95502 0.89158 0.5025 0.0
H250 H 0.83213 0.99349 0.61235 0.0
H251 H 0.87885 0.09389 0.58651 0.0
H252 H 0.86493 0.736 0.53349 0.0
H253 H 0.93393 0.8066 0.54285 0.0
H254 H 0.88651 0.65603 0.52653 0.0
H255 H 0.9543 0.72529 0.53589 0.0
H256 H 0.83697 0.7622 0.57854 0.0
H257 H 0.81216 0.9137 0.56717 0.0
H258 H 0.79442 0.73748 0.58408 0.0
H259 H 0.76999 0.88626 0.57272 0.0
H260 H 0.91373 0.7533 0.61367 0.0
H261 H 0.88022 0.64759 0.58231 0.0
H262 H 0.79433 0.86382 0.50418 0.0
H263 H 0.79293 0.7284 0.53244 0.0
Li264 Li 0.88418 0.92072 0.18501 0.0
Li265 Li 0.8545 0.89098 0.20372 0.0
Li266 Li 0.89724 0.85637 0.20331 0.0
Li267 Li 0.86812 0.82992 0.18392 0.0
C268 C 0.89608 0.97433 0.21016 0.0
N269 N 0.91663 0.0696 0.21497 0.0
C270 C 0.88308 0.01237 0.2178 0.0
C271 C 0.91967 0.98454 0.20518 0.0
C272 C 0.89374 0.06034 0.22007 0.0
C273 C 0.9297 0.03298 0.20766 0.0
C274 C 0.82763 0.90919 0.17701 0.0
C275 C 0.78684 0.88599 0.1697 0.0
N276 N 0.78137 0.9364 0.16781 0.0
C277 C 0.82168 0.96069 0.17472 0.0
C278 C 0.81013 0.87147 0.17426 0.0
C279 C 0.79818 0.9737 0.17018 0.0
C280 C 0.90476 0.96917 0.15946 0.0
N281 N 0.89225 0.97763 0.17249 0.0
C282 C 0.88518 0.06479 0.16552 0.0
C283 C 0.8829 0.02451 0.1758 0.0
C284 C 0.89716 0.0567 0.1517 0.0
C285 C 0.90762 0.00855 0.14888 0.0
H286 H 0.91156 0.93123 0.15697 0.0
H287 H 0.87265 0.03004 0.18609 0.0
C288 C 0.81764 0.88623 0.22687 0.0
N289 N 0.828 0.91529 0.21584 0.0
C290 C 0.79844 0.90574 0.2355 0.0
C291 C 0.80165 0.98542 0.22173 0.0
C292 C 0.82049 0.96414 0.21323 0.0
C293 C 0.79031 0.95604 0.23298 0.0
H294 H 0.82441 0.84815 0.22914 0.0
H295 H 0.82947 0.987 0.20472 0.0
C296 C 0.9245 0.83621 0.17874 0.0
N297 N 0.9705 0.79605 0.17474 0.0
C298 C 0.92775 0.78334 0.17728 0.0
C299 C 0.94462 0.86873 0.17789 0.0
C300 C 0.95115 0.76375 0.17534 0.0
C301 C 0.96774 0.84768 0.17593 0.0
C302 C 0.85126 0.77721 0.20919 0.0
C303 C 0.86071 0.73307 0.21595 0.0
C304 C 0.82663 0.77911 0.20544 0.0
C305 C 0.84544 0.69126 0.21858 0.0
C306 C 0.81194 0.73657 0.20826 0.0
N307 N 0.82158 0.69383 0.2147 0.0
C308 C 0.93786 0.86249 0.22357 0.0
C309 C 0.92804 0.77946 0.21465 0.0
C310 C 0.95731 0.84283 0.23194 0.0
N311 N 0.92377 0.83075 0.2151 0.0
C312 C 0.94714 0.75813 0.22291 0.0
C313 C 0.96211 0.78992 0.2317 0.0
H314 H 0.93398 0.90302 0.22393 0.0
H315 H 0.91667 0.75508 0.20776 0.0
C316 C 0.85199 0.79022 0.15614 0.0
N317 N 0.85982 0.77648 0.17017 0.0
C318 C 0.8486 0.75315 0.14494 0.0
C319 C 0.86134 0.68841 0.16282 0.0
C320 C 0.86421 0.72665 0.17373 0.0
C321 C 0.85382 0.70163 0.14814 0.0
H322 H 0.8492 0.83027 0.15351 0.0
H323 H 0.87104 0.71679 0.18481 0.0
O324 O 0.8858 0.92734 0.20762 0.0
O325 O 0.85066 0.89572 0.18135 0.0
O326 O 0.90173 0.85603 0.18085 0.0
O327 O 0.86604 0.81825 0.20627 0.0
H328 H 0.865 0.00495 0.22201 0.0
H329 H 0.93008 0.95539 0.19945 0.0
H330 H 0.88384 0.09018 0.22591 0.0
H331 H 0.94789 0.04143 0.20377 0.0
H332 H 0.77313 0.85716 0.16761 0.0
H333 H 0.835 0.99042 0.17653 0.0
H334 H 0.81449 0.83131 0.17545 0.0
H335 H 0.79332 0.01347 0.16852 0.0
H336 H 0.877 0.10147 0.16816 0.0
H337 H 0.91674 0.0006 0.13828 0.0
H338 H 0.7904 0.88218 0.24425 0.0
H339 H 0.79592 0.02437 0.21945 0.0
H340 H 0.91242 0.7576 0.17784 0.0
H341 H 0.94245 0.90979 0.17862 0.0
H342 H 0.95393 0.72285 0.17434 0.0
H343 H 0.98347 0.87241 0.17532 0.0
H344 H 0.87963 0.73102 0.21914 0.0
H345 H 0.81888 0.81341 0.20064 0.0
H346 H 0.85256 0.65679 0.22374 0.0
H347 H 0.79284 0.73762 0.2054 0.0
H348 H 0.96823 0.86862 0.23872 0.0
H349 H 0.95036 0.71725 0.22225 0.0
H350 H 0.84311 0.76497 0.1337 0.0
H351 H 0.86554 0.64906 0.16572 0.0
Li352 Li 0.14513 0.64136 0.95441 0.0
Li353 Li 0.10316 0.60928 0.95289 0.0
Li354 Li 0.13273 0.58207 0.93428 0.0
Li355 Li 0.11728 0.66983 0.93507 0.0
C356 C 0.13499 0.55176 0.97095 0.0
N357 N 0.13721 0.51793 1.00056 0.0
C358 C 0.12544 0.5818 0.98265 0.0
C359 C 0.14558 0.50447 0.97434 0.0
C360 C 0.12675 0.564 0.99753 0.0
C361 C 0.14658 0.48809 0.98938 0.0
C362 C 0.1062 0.72953 0.95713 0.0
C363 C 0.07515 0.79157 0.95117 0.0
N364 N 0.09024 0.82984 0.95573 0.0
C365 C 0.12129 0.76943 0.9619 0.0
C366 C 0.08285 0.74062 0.95187 0.0
C367 C 0.11292 0.8199 0.96106 0.0
C368 C 0.18252 0.70942 0.96169 0.0
N369 N 0.17237 0.66454 0.96632 0.0
C370 C 0.20067 0.659 0.98682 0.0
C371 C 0.18143 0.63866 0.97844 0.0
C372 C 0.21103 0.706 0.98254 0.0
C373 C 0.20193 0.73094 0.96966 0.0
H374 H 0.1753 0.72887 0.95186 0.0
H375 H 0.17393 0.60221 0.9817 0.0
C376 C 0.07402 0.53206 0.96559 0.0
N377 N 0.07609 0.58378 0.9643 0.0
C378 C 0.0549 0.51052 0.97376 0.0
C379 C 0.04029 0.59587 0.97918 0.0
C380 C 0.05979 0.6158 0.97093 0.0
C381 C 0.03765 0.54248 0.98071 0.0
H382 H 0.08736 0.50747 0.9603 0.0
H383 H 0.06193 0.65677 0.96985 0.0
C384 C 0.17509 0.63611 0.92946 0.0
N385 N 0.22327 0.61492 0.9234 0.0
C386 C 0.18794 0.666 0.91908 0.0
C387 C 0.18673 0.59542 0.93677 0.0
C388 C 0.21229 0.65468 0.91616 0.0
C389 C 0.21109 0.58534 0.93355 0.0
C390 C 0.07813 0.57949 0.92939 0.0
C391 C 0.0788 0.52639 0.92734 0.0
C392 C 0.05573 0.60431 0.93069 0.0
C393 C 0.05704 0.49895 0.92673 0.0
C394 C 0.03437 0.5755 0.93006 0.0
N395 N 0.03546 0.52386 0.92812 0.0
C396 C 0.14903 0.48247 0.92528 0.0
C397 C 0.14054 0.54202 0.90572 0.0
C398 C 0.15342 0.44394 0.91463 0.0
N399 N 0.1424 0.53008 0.92063 0.0
C400 C 0.14473 0.50478 0.8947 0.0
C401 C 0.15087 0.45467 0.8991 0.0
H402 H 0.15023 0.47411 0.93724 0.0
H403 H 0.135 0.5802 0.90242 0.0
C404 C 0.12887 0.76137 0.92057 0.0
N405 N 0.11093 0.72597 0.92195 0.0
C406 C 0.12718 0.79986 0.90967 0.0
C407 C 0.08807 0.76605 0.90223 0.0
C408 C 0.09064 0.72781 0.9132 0.0
C409 C 0.10679 0.80194 0.90015 0.0
H410 H 0.14488 0.7586 0.92763 0.0
H411 H 0.07686 0.69862 0.91437 0.0
O412 O 0.13345 0.5676 0.95622 0.0
O413 O 0.11423 0.67991 0.9576 0.0
O414 O 0.15129 0.6471 0.93247 0.0
O415 O 0.09928 0.60688 0.9304 0.0
H416 H 0.11717 0.6185 0.98031 0.0
H417 H 0.15296 0.48065 0.96543 0.0
H418 H 0.11946 0.58685 0.00668 0.0
H419 H 0.15476 0.45159 0.99215 0.0
H420 H 0.05722 0.80069 0.94697 0.0
H421 H 0.13922 0.7616 0.96628 0.0
H422 H 0.07095 0.71028 0.94811 0.0
H423 H 0.12446 0.85116 0.96466 0.0
H424 H 0.20751 0.63792 0.99648 0.0
H425 H 0.20937 0.76727 0.96597 0.0
H426 H 0.05392 0.46924 0.97483 0.0
H427 H 0.02734 0.62204 0.9842 0.0
H428 H 0.17918 0.69767 0.91334 0.0
H429 H 0.17713 0.57192 0.94488 0.0
H430 H 0.22247 0.67751 0.90815 0.0
H431 H 0.22033 0.55401 0.93913 0.0
H432 H 0.0959 0.50636 0.92642 0.0
H433 H 0.0548 0.64529 0.93233 0.0
H434 H 0.05731 0.45782 0.92524 0.0
H435 H 0.01693 0.5942 0.93116 0.0
H436 H 0.15836 0.406 0.91852 0.0
H437 H 0.14217 0.51468 0.88291 0.0
H438 H 0.14188 0.82715 0.90851 0.0
H439 H 0.07218 0.76613 0.89502 0.0
Li440 Li 0.13123 0.6644 0.31688 0.0
Li441 Li 0.11587 0.57815 0.31597 0.0
Li442 Li 0.14585 0.60599 0.2976 0.0
Li443 Li 0.10493 0.63804 0.29641 0.0
C444 C 0.15597 0.59082 0.33447 0.0
N445 N 0.16814 0.57046 0.3642 0.0
C446 C 0.14092 0.60746 0.34623 0.0
C447 C 0.17719 0.56381 0.33784 0.0
C448 C 0.14739 0.5968 0.36118 0.0
C449 C 0.18304 0.5539 0.35294 0.0
C450 C 0.07277 0.63151 0.32015 0.0
C451 C 0.03769 0.57883 0.31512 0.0
N452 N 0.02393 0.61059 0.3238 0.0
C453 C 0.05829 0.66357 0.32903 0.0
C454 C 0.06241 0.58872 0.31314 0.0
C455 C 0.03364 0.65236 0.33074 0.0
C456 C 0.11992 0.7528 0.33285 0.0
N457 N 0.13843 0.71956 0.33025 0.0
C458 C 0.16284 0.76058 0.34907 0.0
C459 C 0.15985 0.72336 0.33784 0.0
C460 C 0.14361 0.7941 0.35246 0.0
C461 C 0.12214 0.79058 0.34392 0.0
H462 H 0.10316 0.749 0.32656 0.0
H463 H 0.17428 0.69631 0.33559 0.0
C464 C 0.11682 0.47556 0.32528 0.0
N465 N 0.10714 0.52207 0.32863 0.0
C466 C 0.11488 0.43516 0.33557 0.0
C467 C 0.09228 0.49081 0.3523 0.0
C468 C 0.09461 0.53007 0.34168 0.0
C469 C 0.10304 0.44292 0.34949 0.0
H470 H 0.12698 0.47058 0.3149 0.0
H471 H 0.08757 0.56774 0.34425 0.0
C472 C 0.15506 0.71001 0.29295 0.0
N473 N 0.19473 0.77342 0.28897 0.0
C474 C 0.15341 0.75271 0.28347 0.0
C475 C 0.1769 0.69954 0.30041 0.0
C476 C 0.17367 0.78431 0.2816 0.0
C477 C 0.19674 0.73206 0.29825 0.0
C478 C 0.11518 0.55187 0.27886 0.0
C479 C 0.12018 0.58807 0.26762 0.0
C480 C 0.10977 0.50144 0.27477 0.0
C481 C 0.11967 0.57313 0.25244 0.0
C482 C 0.10942 0.48801 0.25946 0.0
N483 N 0.11434 0.52383 0.24871 0.0
C484 C 0.18399 0.53863 0.29115 0.0
C485 C 0.18076 0.60657 0.27347 0.0
C486 C 0.20347 0.5176 0.28315 0.0
N487 N 0.17312 0.58229 0.28623 0.0
C488 C 0.20024 0.58697 0.26514 0.0
C489 C 0.21184 0.54176 0.26993 0.0
H490 H 0.17737 0.51992 0.30127 0.0
H491 H 0.17157 0.6408 0.26964 0.0
C492 C 0.07675 0.71419 0.28286 0.0
N493 N 0.07933 0.66251 0.28376 0.0
C494 C 0.05799 0.7356 0.2743 0.0
C495 C 0.04493 0.65011 0.26765 0.0
C496 C 0.06387 0.63035 0.27642 0.0
C497 C 0.0417 0.70348 0.26653 0.0
H498 H 0.08915 0.73879 0.28898 0.0
H499 H 0.06613 0.58934 0.27744 0.0
O500 O 0.14988 0.60005 0.31971 0.0
O501 O 0.0969 0.64241 0.31832 0.0
O502 O 0.13528 0.67894 0.29485 0.0
O503 O 0.11572 0.56523 0.29383 0.0
H504 H 0.12436 0.62824 0.34384 0.0
H505 H 0.18901 0.55057 0.32886 0.0
H506 H 0.13589 0.6094 0.37038 0.0
H507 H 0.19942 0.533 0.35571 0.0
H508 H 0.02944 0.5459 0.30975 0.0
H509 H 0.06603 0.6968 0.33456 0.0
H510 H 0.07327 0.56332 0.30625 0.0
H511 H 0.02222 0.67688 0.33758 0.0
H512 H 0.17965 0.76172 0.35542 0.0
H513 H 0.10704 0.81629 0.34592 0.0
H514 H 0.12318 0.39869 0.33285 0.0
H515 H 0.08333 0.49883 0.36295 0.0
H516 H 0.13662 0.76131 0.27762 0.0
H517 H 0.17862 0.66661 0.30775 0.0
H518 H 0.17264 0.81749 0.27429 0.0
H519 H 0.21375 0.72438 0.30394 0.0
H520 H 0.12439 0.62729 0.27053 0.0
H521 H 0.10589 0.47297 0.28335 0.0
H522 H 0.1235 0.60075 0.24363 0.0
H523 H 0.10526 0.4491 0.25613 0.0
H524 H 0.21199 0.48299 0.28734 0.0
H525 H 0.20583 0.60644 0.2549 0.0
H526 H 0.05602 0.77686 0.27403 0.0
H527 H 0.03304 0.62379 0.26175 0.0
Li528 Li 0.89608 0.38953 0.04612 0.0
Li529 Li 0.86588 0.41985 0.06512 0.0
Li530 Li 0.88051 0.3321 0.06595 0.0
Li531 Li 0.85267 0.35815 0.04659 0.0
C532 C 0.91423 0.38454 0.0801 0.0
N533 N 0.94251 0.35646 0.10456 0.0
C534 C 0.907 0.39733 0.09478 0.0
C535 C 0.93588 0.35767 0.07784 0.0
C536 C 0.92155 0.38276 0.107 0.0
C537 C 0.94991 0.34376 0.09036 0.0
C538 C 0.86002 0.47975 0.0421 0.0
C539 C 0.8315 0.54961 0.04392 0.0
N540 N 0.85009 0.58352 0.04234 0.0
C541 C 0.87883 0.51526 0.04044 0.0
C542 C 0.83615 0.49699 0.0438 0.0
C543 C 0.87343 0.56757 0.0406 0.0
C544 C 0.92088 0.41002 0.01865 0.0
N545 N 0.92251 0.4123 0.03398 0.0
C546 C 0.96104 0.45404 0.03238 0.0
C547 C 0.94205 0.43364 0.04094 0.0
C548 C 0.95982 0.45299 0.01649 0.0
C549 C 0.93943 0.4302 0.00964 0.0
H550 H 0.90494 0.39341 0.01344 0.0
H551 H 0.94271 0.43558 0.05315 0.0
C552 C 0.83807 0.48202 0.08563 0.0
N553 N 0.85909 0.47738 0.07767 0.0
C554 C 0.83556 0.5208 0.09645 0.0
C555 C 0.87619 0.54945 0.09046 0.0
C556 C 0.8778 0.51062 0.07967 0.0
C557 C 0.85506 0.5542 0.09923 0.0
H558 H 0.82368 0.45444 0.08407 0.0
H559 H 0.89442 0.50553 0.07332 0.0
C560 C 0.89748 0.27549 0.04163 0.0
N561 N 0.92586 0.18956 0.03687 0.0
C562 C 0.88674 0.22706 0.04058 0.0
C563 C 0.92267 0.28015 0.04018 0.0
C564 C 0.9014 0.1841 0.03821 0.0
C565 C 0.93669 0.23628 0.03779 0.0
C566 C 0.82417 0.33768 0.06958 0.0
C567 C 0.82065 0.28628 0.07347 0.0
C568 C 0.80412 0.36842 0.06616 0.0
C569 C 0.79709 0.26646 0.07382 0.0
C570 C 0.78086 0.34714 0.06661 0.0
N571 N 0.77785 0.29703 0.0704 0.0
C572 C 0.87613 0.288 0.09405 0.0
C573 C 0.90352 0.24016 0.07901 0.0
C574 C 0.87872 0.25359 0.10598 0.0
N575 N 0.88804 0.28039 0.08077 0.0
C576 C 0.90645 0.20426 0.09064 0.0
C577 C 0.89362 0.2103 0.10429 0.0
H578 H 0.86441 0.32096 0.09535 0.0
H579 H 0.91353 0.23547 0.06864 0.0
C580 C 0.81453 0.36654 0.0245 0.0
N581 N 0.82644 0.33458 0.03413 0.0
C582 C 0.79535 0.34813 0.01562 0.0
C583 C 0.80115 0.26445 0.02673 0.0
C584 C 0.82016 0.28439 0.03532 0.0
C585 C 0.78847 0.29631 0.01664 0.0
H586 H 0.81998 0.40624 0.02366 0.0
H587 H 0.82974 0.25988 0.04313 0.0
O588 O 0.89988 0.39713 0.06802 0.0
O589 O 0.86501 0.42842 0.0424 0.0
O590 O 0.88337 0.31811 0.04372 0.0
O591 O 0.84714 0.35765 0.06895 0.0
H592 H 0.89016 0.41758 0.09676 0.0
H593 H 0.94168 0.34721 0.06657 0.0
H594 H 0.91611 0.39213 0.11843 0.0
H595 H 0.96665 0.32272 0.08879 0.0
H596 H 0.81313 0.5635 0.0453 0.0
H597 H 0.89742 0.50264 0.03919 0.0
H598 H 0.82138 0.47005 0.04513 0.0
H599 H 0.88782 0.59548 0.03939 0.0
H600 H 0.97651 0.47049 0.03818 0.0
H601 H 0.9375 0.42911 0.99745 0.0
H602 H 0.81907 0.52303 0.1031 0.0
H603 H 0.89154 0.57473 0.09219 0.0
H604 H 0.86734 0.22251 0.04167 0.0
H605 H 0.93138 0.31708 0.04095 0.0
H606 H 0.89332 0.14641 0.03743 0.0
H607 H 0.9562 0.23938 0.03669 0.0
H608 H 0.83593 0.26165 0.07593 0.0
H609 H 0.8065 0.4081 0.063 0.0
H610 H 0.79411 0.22669 0.07673 0.0
H611 H 0.7652 0.37042 0.0639 0.0
H612 H 0.86902 0.26086 0.11642 0.0
H613 H 0.91818 0.17157 0.08879 0.0
H614 H 0.78628 0.37399 0.00788 0.0
H615 H 0.79625 0.22455 0.02814 0.0
Li616 Li 0.86768 0.32644 0.68536 0.0
Li617 Li 0.89774 0.35538 0.7041 0.0
Li618 Li 0.85548 0.3881 0.70366 0.0
Li619 Li 0.8831 0.41472 0.68406 0.0
C620 C 0.86051 0.26685 0.7084 0.0
N621 N 0.84813 0.16423 0.70853 0.0
C622 C 0.87757 0.22997 0.7127 0.0
C623 C 0.83708 0.25158 0.70431 0.0
C624 C 0.87098 0.17828 0.71267 0.0
C625 C 0.8312 0.1995 0.7044 0.0
C626 C 0.91462 0.34669 0.66902 0.0
C627 C 0.95293 0.34807 0.65577 0.0
N628 N 0.941 0.34096 0.64245 0.0
C629 C 0.90279 0.33905 0.65521 0.0
C630 C 0.93993 0.35092 0.66932 0.0
C631 C 0.91642 0.3364 0.64191 0.0
C632 C 0.84088 0.27005 0.66325 0.0
N633 N 0.86027 0.26935 0.67277 0.0
C634 C 0.87518 0.19257 0.66141 0.0
C635 C 0.87707 0.23126 0.67222 0.0
C636 C 0.85591 0.1933 0.65099 0.0
C637 C 0.83824 0.23193 0.65225 0.0
H638 H 0.82815 0.30152 0.66369 0.0
H639 H 0.89253 0.23229 0.67976 0.0
C640 C 0.92875 0.35139 0.73001 0.0
N641 N 0.9247 0.33286 0.71586 0.0
C642 C 0.94808 0.33261 0.73866 0.0
C643 C 0.9586 0.27614 0.71799 0.0
C644 C 0.93921 0.29622 0.70972 0.0
C645 C 0.96318 0.29409 0.73271 0.0
H646 H 0.9168 0.38033 0.73464 0.0
H647 H 0.93543 0.28196 0.69847 0.0
C648 C 0.82766 0.4142 0.68125 0.0
N649 N 0.78354 0.46458 0.68193 0.0
C650 C 0.82675 0.46748 0.67969 0.0
C651 C 0.80613 0.38653 0.68309 0.0
C652 C 0.80426 0.49223 0.68006 0.0
C653 C 0.78401 0.41272 0.68344 0.0
C654 C 0.9053 0.46034 0.70932 0.0
C655 C 0.90191 0.50356 0.71842 0.0
C656 C 0.92839 0.44939 0.70361 0.0
C657 C 0.9217 0.53531 0.72158 0.0
C658 C 0.94772 0.482 0.70705 0.0
N659 N 0.944 0.52395 0.71589 0.0
C660 C 0.81293 0.38167 0.72228 0.0
C661 C 0.82815 0.46518 0.71771 0.0
C662 C 0.79355 0.40174 0.73061 0.0
N663 N 0.82961 0.41353 0.71596 0.0
C664 C 0.8091 0.48687 0.72593 0.0
C665 C 0.79139 0.45508 0.73249 0.0
H666 H 0.81457 0.34074 0.72078 0.0
H667 H 0.84159 0.4896 0.71246 0.0
C668 C 0.8805 0.45769 0.65569 0.0
N669 N 0.89039 0.4671 0.6695 0.0
C670 C 0.88279 0.49311 0.64399 0.0
C671 C 0.90515 0.54836 0.66091 0.0
C672 C 0.90256 0.5115 0.67231 0.0
C673 C 0.89497 0.53958 0.64654 0.0
H674 H 0.87024 0.42299 0.65385 0.0
H675 H 0.9097 0.51929 0.68343 0.0
O676 O 0.86676 0.31758 0.70809 0.0
O677 O 0.90164 0.34906 0.68223 0.0
O678 O 0.84956 0.38942 0.68134 0.0
O679 O 0.88613 0.4286 0.70631 0.0
H680 H 0.89572 0.24108 0.71601 0.0
H681 H 0.8237 0.27954 0.70086 0.0
H682 H 0.88403 0.14931 0.71591 0.0
H683 H 0.8132 0.18712 0.70113 0.0
H684 H 0.97251 0.35139 0.65584 0.0
H685 H 0.88326 0.3355 0.65472 0.0
H686 H 0.9495 0.35611 0.6799 0.0
H687 H 0.90745 0.33072 0.63114 0.0
H688 H 0.88905 0.16318 0.66093 0.0
H689 H 0.82327 0.23423 0.64433 0.0
H690 H 0.95082 0.34718 0.75001 0.0
H691 H 0.96993 0.24695 0.71289 0.0
H692 H 0.84322 0.48961 0.67843 0.0
H693 H 0.80651 0.34536 0.68443 0.0
H694 H 0.80329 0.53346 0.67895 0.0
H695 H 0.76723 0.39182 0.68495 0.0
H696 H 0.88417 0.51243 0.723 0.0
H697 H 0.93132 0.41624 0.69656 0.0
H698 H 0.91933 0.56893 0.72859 0.0
H699 H 0.96568 0.47398 0.70269 0.0
H700 H 0.78052 0.37573 0.73563 0.0
H701 H 0.80802 0.52818 0.72688 0.0
H702 H 0.87484 0.48427 0.63309 0.0
H703 H 0.91432 0.58402 0.66349 0.0
Li704 Li 0.60268 0.1079 0.95404 0.0
Li705 Li 0.64473 0.1424 0.953 0.0
Li706 Li 0.61477 0.16712 0.93409 0.0
Li707 Li 0.63046 0.08053 0.93311 0.0
C708 C 0.59613 0.2128 0.96101 0.0
N709 N 0.55984 0.27777 0.97089 0.0
C710 C 0.59974 0.24323 0.97383 0.0
C711 C 0.57418 0.21572 0.95314 0.0
C712 C 0.58114 0.27575 0.97867 0.0
C713 C 0.55602 0.24872 0.95833 0.0
C714 C 0.65209 0.0345 0.95812 0.0
C715 C 0.69259 0.00362 0.95317 0.0
N716 N 0.68875 0.96411 0.96292 0.0
C717 C 0.64848 0.99349 0.96802 0.0
C718 C 0.67427 0.03957 0.95057 0.0
C719 C 0.66727 0.95835 0.97033 0.0
C720 C 0.56667 0.03817 0.96221 0.0
N721 N 0.57725 0.08277 0.96663 0.0
C722 C 0.55125 0.08744 0.98826 0.0
C723 C 0.57012 0.10735 0.97945 0.0
C724 C 0.53979 0.04159 0.9839 0.0
C725 C 0.5478 0.01685 0.97069 0.0
H726 H 0.57283 0.01932 0.952 0.0
H727 H 0.57911 0.14223 0.9829 0.0
C728 C 0.6766 0.2182 0.96313 0.0
N729 N 0.671 0.16787 0.96503 0.0
C730 C 0.69556 0.24049 0.97132 0.0
C731 C 0.70224 0.15912 0.98366 0.0
C732 C 0.68309 0.13846 0.97526 0.0
C733 C 0.70882 0.21075 0.98168 0.0
H734 H 0.66622 0.24112 0.95524 0.0
H735 H 0.67782 0.0991 0.97706 0.0
C736 C 0.5771 0.09469 0.92286 0.0
N737 N 0.53781 0.07699 0.90409 0.0
C738 C 0.58071 0.07736 0.90805 0.0
C739 C 0.55345 0.10239 0.92816 0.0
C740 C 0.56063 0.06882 0.89873 0.0
C741 C 0.53385 0.09342 0.91848 0.0
C742 C 0.65552 0.17109 0.91796 0.0
C743 C 0.64622 0.15637 0.9039 0.0
C744 C 0.67059 0.21405 0.91894 0.0
C745 C 0.65184 0.18536 0.89108 0.0
C746 C 0.67579 0.24207 0.90586 0.0
N747 N 0.66635 0.22731 0.89232 0.0
C748 C 0.6159 0.26983 0.92506 0.0
C749 C 0.59325 0.21714 0.90841 0.0
C750 C 0.61448 0.31077 0.91493 0.0
N751 N 0.60591 0.22378 0.92147 0.0
C752 C 0.59129 0.25707 0.89798 0.0
C753 C 0.6026 0.3042 0.90099 0.0
H754 H 0.62611 0.27387 0.93546 0.0
H755 H 0.58583 0.18019 0.90562 0.0
C756 C 0.62155 0.98649 0.91914 0.0
N757 N 0.63811 0.0249 0.92017 0.0
C758 C 0.62417 0.94836 0.90821 0.0
C759 C 0.66169 0.98821 0.90022 0.0
C760 C 0.65823 0.02587 0.91126 0.0
C761 C 0.64417 0.94959 0.89834 0.0
H762 H 0.60575 0.98679 0.92642 0.0
H763 H 0.67112 0.05692 0.91235 0.0
O764 O 0.61415 0.18069 0.9562 0.0
O765 O 0.63374 0.06873 0.95557 0.0
O766 O 0.59653 0.10237 0.93226 0.0
O767 O 0.64943 0.14426 0.93072 0.0
H768 H 0.61671 0.24152 0.98 0.0
H769 H 0.57127 0.19312 0.94308 0.0
H770 H 0.58364 0.29938 0.9886 0.0
H771 H 0.53893 0.25133 0.95235 0.0
H772 H 0.70987 0.00712 0.94744 0.0
H773 H 0.63134 0.98889 0.97386 0.0
H774 H 0.67736 0.07101 0.94283 0.0
H775 H 0.66476 0.92646 0.97799 0.0
H776 H 0.54594 0.10737 0.99849 0.0
H777 H 0.53936 0.98175 0.96681 0.0
H778 H 0.69998 0.2804 0.9694 0.0
H779 H 0.71158 0.13507 0.99179 0.0
H780 H 0.59881 0.07093 0.90373 0.0
H781 H 0.5502 0.11486 0.93966 0.0
H782 H 0.56319 0.05568 0.88723 0.0
H783 H 0.51547 0.09934 0.92244 0.0
H784 H 0.63443 0.12344 0.90293 0.0
H785 H 0.6781 0.22586 0.92969 0.0
H786 H 0.64456 0.17466 0.88016 0.0
H787 H 0.68728 0.27561 0.90648 0.0
H788 H 0.62323 0.34666 0.91777 0.0
H789 H 0.58222 0.25009 0.8873 0.0
H790 H 0.61046 0.91878 0.90728 0.0
H791 H 0.67731 0.99061 0.89281 0.0
Li792 Li 0.63629 0.16875 0.3173 0.0
Li793 Li 0.62098 0.08241 0.31765 0.0
Li794 Li 0.64778 0.10984 0.29757 0.0
Li795 Li 0.60672 0.14159 0.2986 0.0
C796 C 0.67928 0.11548 0.32171 0.0
N797 N 0.72791 0.13678 0.32616 0.0
C798 C 0.69327 0.08438 0.33118 0.0
C799 C 0.69002 0.15748 0.31451 0.0
C800 C 0.71783 0.09578 0.33329 0.0
C801 C 0.71463 0.16758 0.3169 0.0
C802 C 0.59606 0.15388 0.33556 0.0
C803 C 0.56841 0.18665 0.35439 0.0
N804 N 0.58361 0.17 0.36548 0.0
C805 C 0.6114 0.13707 0.34716 0.0
C806 C 0.57439 0.17886 0.33919 0.0
C807 C 0.60478 0.14558 0.36221 0.0
C808 C 0.63515 0.27093 0.32685 0.0
N809 N 0.64484 0.22441 0.33016 0.0
C810 C 0.65966 0.25549 0.35388 0.0
C811 C 0.65735 0.2163 0.34322 0.0
C812 C 0.64891 0.3034 0.35108 0.0
C813 C 0.63707 0.31125 0.33717 0.0
H814 H 0.62504 0.27601 0.31646 0.0
H815 H 0.66442 0.17865 0.34577 0.0
C816 C 0.63221 0.99354 0.33338 0.0
N817 N 0.61363 0.0265 0.3307 0.0
C818 C 0.62991 0.95548 0.34436 0.0
C819 C 0.58895 0.98456 0.34919 0.0
C820 C 0.59204 0.02207 0.33806 0.0
C821 C 0.60828 0.95141 0.35272 0.0
H822 H 0.64911 0.99788 0.32728 0.0
H823 H 0.57755 0.04892 0.33574 0.0
C824 C 0.6376 0.19761 0.28041 0.0
N825 N 0.63872 0.2288 0.25054 0.0
C826 C 0.63316 0.16239 0.26881 0.0
C827 C 0.64258 0.24867 0.27682 0.0
C828 C 0.63381 0.17891 0.25378 0.0
C829 C 0.64308 0.26369 0.26165 0.0
C830 C 0.59783 0.03794 0.29325 0.0
C831 C 0.59979 0.99598 0.2835 0.0
C832 C 0.57578 0.04778 0.30053 0.0
C833 C 0.57961 0.96447 0.2812 0.0
C834 C 0.55603 0.01537 0.29794 0.0
N835 N 0.55834 0.97473 0.28841 0.0
C836 C 0.67762 0.03413 0.28557 0.0
C837 C 0.68824 0.11703 0.27689 0.0
C838 C 0.69654 0.0123 0.27726 0.0
N839 N 0.67378 0.08553 0.2852 0.0
C840 C 0.70717 0.09674 0.26822 0.0
C841 C 0.71163 0.0436 0.26833 0.0
H842 H 0.66606 0.01013 0.29248 0.0
H843 H 0.68515 0.15793 0.277 0.0
C844 C 0.56753 0.20685 0.29257 0.0
N845 N 0.57959 0.16534 0.28712 0.0
C846 C 0.54802 0.22765 0.28455 0.0
C847 C 0.55371 0.16261 0.2654 0.0
C848 C 0.57308 0.14299 0.27382 0.0
C849 C 0.54089 0.20565 0.27071 0.0
H850 H 0.57322 0.22402 0.30313 0.0
H851 H 0.58311 0.1103 0.26965 0.0
O852 O 0.65524 0.10445 0.31952 0.0
O853 O 0.60218 0.1465 0.32071 0.0
O854 O 0.63683 0.18269 0.29524 0.0
O855 O 0.6175 0.06901 0.29553 0.0
H856 H 0.68523 0.05179 0.33686 0.0
H857 H 0.67953 0.18213 0.30718 0.0
H858 H 0.72887 0.07203 0.34059 0.0
H859 H 0.72317 0.19991 0.3114 0.0
H860 H 0.55169 0.20595 0.35736 0.0
H861 H 0.62824 0.11766 0.34458 0.0
H862 H 0.56231 0.19211 0.33035 0.0
H863 H 0.6165 0.1328 0.37128 0.0
H864 H 0.66862 0.24743 0.36452 0.0
H865 H 0.62878 0.34774 0.33446 0.0
H866 H 0.64509 0.93006 0.34646 0.0
H867 H 0.57202 0.98299 0.3554 0.0
H868 H 0.62931 0.12269 0.27135 0.0
H869 H 0.64599 0.2764 0.28568 0.0
H870 H 0.63042 0.15207 0.24469 0.0
H871 H 0.64691 0.30311 0.2587 0.0
H872 H 0.61674 0.98791 0.27778 0.0
H873 H 0.57383 0.08014 0.30806 0.0
H874 H 0.58087 0.93186 0.27368 0.0
H875 H 0.53886 0.02255 0.30349 0.0
H876 H 0.69949 0.97137 0.27804 0.0
H877 H 0.71803 0.12252 0.26142 0.0
H878 H 0.53853 0.26041 0.28919 0.0
H879 H 0.54915 0.14482 0.2547 0.0
Li880 Li 0.35336 0.85604 0.04816 0.0
Li881 Li 0.38266 0.82887 0.06726 0.0
Li882 Li 0.36636 0.91844 0.06777 0.0
Li883 Li 0.39632 0.89188 0.04867 0.0
C884 C 0.32445 0.85136 0.07406 0.0
N885 N 0.27555 0.84926 0.08113 0.0
C886 C 0.31417 0.80763 0.08058 0.0
C887 C 0.30991 0.89427 0.07138 0.0
C888 C 0.2894 0.80722 0.084 0.0
C889 C 0.28522 0.89244 0.07498 0.0
C890 C 0.39448 0.7719 0.04334 0.0
C891 C 0.4288 0.71469 0.04178 0.0
N892 N 0.41337 0.67413 0.0408 0.0
C893 C 0.37898 0.72971 0.04211 0.0
C894 C 0.4196 0.76441 0.043 0.0
C895 C 0.38887 0.68058 0.04092 0.0
C896 C 0.32143 0.85531 0.02256 0.0
N897 N 0.32722 0.83188 0.03583 0.0
C898 C 0.29607 0.76938 0.032 0.0
C899 C 0.31509 0.7895 0.04058 0.0
C900 C 0.28933 0.79308 0.01834 0.0
C901 C 0.30236 0.83667 0.01365 0.0
H902 H 0.33162 0.88848 0.01889 0.0
H903 H 0.32044 0.77072 0.05095 0.0
C904 C 0.40928 0.77488 0.09009 0.0
N905 N 0.39052 0.77256 0.08009 0.0
C906 C 0.4123 0.73643 0.10095 0.0
C907 C 0.37684 0.69377 0.09089 0.0
C908 C 0.37468 0.73264 0.08015 0.0
C909 C 0.39555 0.69595 0.10166 0.0
H910 H 0.42126 0.80759 0.0901 0.0
H911 H 0.35977 0.73206 0.0722 0.0
C912 C 0.35461 0.97376 0.04106 0.0
N913 N 0.33419 0.06566 0.03204 0.0
C914 C 0.36939 0.0159 0.03782 0.0
C915 C 0.32945 0.97813 0.03936 0.0
C916 C 0.35873 0.0621 0.03338 0.0
C917 C 0.31947 0.02495 0.03488 0.0
C918 C 0.42309 0.90907 0.07451 0.0
C919 C 0.42711 0.95584 0.08181 0.0
C920 C 0.44287 0.87813 0.07068 0.0
C921 C 0.45089 0.97122 0.08493 0.0
C922 C 0.46637 0.89483 0.07399 0.0
N923 N 0.46987 0.94069 0.08097 0.0
C924 C 0.34659 0.96217 0.09438 0.0
C925 C 0.36674 0.02104 0.07828 0.0
C926 C 0.34358 -6e-05 0.10542 0.0
N927 N 0.35811 0.97322 0.08115 0.0
C928 C 0.36439 0.05978 0.08907 0.0
C929 C 0.35307 0.04915 0.10296 0.0
H930 H 0.34068 0.92344 0.09666 0.0
H931 H 0.37673 0.0284 0.06801 0.0
C932 C 0.43044 0.89123 0.02435 0.0
N933 N 0.42282 0.91725 0.03681 0.0
C934 C 0.44957 0.91022 0.01556 0.0
C935 C 0.45253 0.98253 0.03253 0.0
C936 C 0.43337 0.96222 0.04094 0.0
C937 C 0.46087 0.9566 0.01961 0.0
H938 H 0.4215 0.85595 0.02115 0.0
H939 H 0.42677 0.98269 0.05074 0.0
O940 O 0.34865 0.85223 0.07047 0.0
O941 O 0.3851 0.82027 0.0447 0.0
O942 O 0.36481 0.92803 0.04528 0.0
O943 O 0.39993 0.8938 0.07114 0.0
H944 H 0.32514 0.77422 0.08293 0.0
H945 H 0.31767 0.92892 0.06683 0.0
H946 H 0.28119 0.77349 0.08894 0.0
H947 H 0.27379 0.92543 0.07294 0.0
H948 H 0.44821 0.70836 0.04156 0.0
H949 H 0.35951 0.73475 0.0422 0.0
H950 H 0.43189 0.7966 0.04356 0.0
H951 H 0.37706 0.64757 0.04009 0.0
H952 H 0.28705 0.73502 0.03594 0.0
H953 H 0.29777 0.85651 0.00328 0.0
H954 H 0.4268 0.73972 0.10917 0.0
H955 H 0.36366 0.66295 0.09101 0.0
H956 H 0.38888 0.01317 0.03882 0.0
H957 H 0.31769 0.94566 0.04133 0.0
H958 H 0.36997 0.0951 0.03098 0.0
H959 H 0.30002 0.02885 0.0336 0.0
H960 H 0.41207 0.98007 0.08502 0.0
H961 H 0.44009 0.84156 0.06525 0.0
H962 H 0.45426 0.00743 0.09051 0.0
H963 H 0.48183 0.87132 0.07102 0.0
H964 H 0.33512 0.99001 0.11609 0.0
H965 H 0.37202 0.09724 0.08678 0.0
H966 H 0.45512 0.88928 0.00557 0.0
H967 H 0.46081 0.01806 0.0362 0.0
Li968 Li 0.38558 0.92241 0.6864 0.0
Li969 Li 0.35549 0.89248 0.70523 0.0
Li970 Li 0.39862 0.86098 0.70483 0.0
Li971 Li 0.37067 0.83414 0.68527 0.0
C972 C 0.39273 0.98191 0.7093 0.0
N973 N 0.40516 0.08446 0.70885 0.0
C974 C 0.37512 0.01933 0.71206 0.0
C975 C 0.4167 0.99661 0.70645 0.0
C976 C 0.38176 0.07099 0.71175 0.0
C977 C 0.42261 0.04866 0.70622 0.0
C978 C 0.33746 0.89485 0.67076 0.0
C979 C 0.29908 0.87426 0.65908 0.0
N980 N 0.30869 0.88524 0.64528 0.0
C981 C 0.34688 0.90637 0.65647 0.0
C982 C 0.3133 0.87905 0.6721 0.0
C983 C 0.33208 0.9011 0.64372 0.0
C984 C 0.41304 0.98235 0.66532 0.0
N985 N 0.39255 0.97981 0.67387 0.0
C986 C 0.37617 0.05358 0.66159 0.0
C987 C 0.37449 0.01492 0.67243 0.0
C988 C 0.39668 0.05614 0.65219 0.0
C989 C 0.41559 0.02081 0.65441 0.0
H990 H 0.42689 0.95329 0.66649 0.0
H991 H 0.35825 0.01142 0.67924 0.0
C992 C 0.32506 0.89848 0.73142 0.0
N993 N 0.3285 0.91474 0.71696 0.0
C994 C 0.30574 0.91776 0.73998 0.0
C995 C 0.29398 0.96996 0.71859 0.0
C996 C 0.31336 0.94941 0.71043 0.0
C997 C 0.29006 0.95447 0.73362 0.0
H998 H 0.3375 0.87104 0.73634 0.0
H999 H 0.31664 0.96181 0.69893 0.0
C1000 C 0.42636 0.83676 0.68167 0.0
N1001 N 0.47127 0.78958 0.68071 0.0
C1002 C 0.42812 0.78453 0.67832 0.0
C1003 C 0.44745 0.86503 0.68444 0.0
C1004 C 0.45099 0.76139 0.67789 0.0
C1005 C 0.46998 0.84046 0.68395 0.0
C1006 C 0.35201 0.7824 0.71093 0.0
C1007 C 0.36036 0.73649 0.7172 0.0
C1008 C 0.32717 0.78919 0.70839 0.0
C1009 C 0.3437 0.69794 0.72073 0.0
C1010 C 0.31107 0.74978 0.71211 0.0
N1011 N 0.3196 0.70533 0.71814 0.0
C1012 C 0.43788 0.86861 0.72606 0.0
C1013 C 0.42974 0.78556 0.71648 0.0
C1014 C 0.45726 0.84966 0.73465 0.0
N1015 N 0.42472 0.83651 0.71714 0.0
C1016 C 0.44907 0.76512 0.72472 0.0
C1017 C 0.46317 0.7973 0.73394 0.0
H1018 H 0.4334 0.90891 0.72648 0.0
H1019 H 0.41884 0.76082 0.70941 0.0
C1020 C 0.37232 0.79245 0.65673 0.0
N1021 N 0.36312 0.7821 0.67067 0.0
C1022 C 0.36953 0.75772 0.6449 0.0
C1023 C 0.34798 0.70138 0.66191 0.0
C1024 C 0.35098 0.73766 0.67343 0.0
C1025 C 0.35755 0.71098 0.64742 0.0
H1026 H 0.38229 0.82757 0.65488 0.0
H1027 H 0.34407 0.72949 0.68457 0.0
O1028 O 0.38646 0.93119 0.70916 0.0
O1029 O 0.35172 0.8994 0.68338 0.0
O1030 O 0.4041 0.85996 0.68241 0.0
O1031 O 0.36811 0.82056 0.70748 0.0
H1032 H 0.35651 0.00867 0.71431 0.0
H1033 H 0.43053 0.96816 0.70427 0.0
H1034 H 0.3683 0.10038 0.71379 0.0
H1035 H 0.44105 0.06059 0.70393 0.0
H1036 H 0.28038 0.8619 0.65996 0.0
H1037 H 0.36553 0.91857 0.65518 0.0
H1038 H 0.30554 0.87078 0.68306 0.0
H1039 H 0.33921 0.90952 0.63259 0.0
H1040 H 0.3613 0.08039 0.66031 0.0
H1041 H 0.43158 0.02128 0.64727 0.0
H1042 H 0.30347 0.90509 0.75157 0.0
H1043 H 0.28218 0.99767 0.7132 0.0
H1044 H 0.41202 0.76185 0.67629 0.0
H1045 H 0.44645 0.90539 0.68711 0.0
H1046 H 0.45261 0.72095 0.67539 0.0
H1047 H 0.48643 0.86182 0.68617 0.0
H1048 H 0.37951 0.73066 0.71931 0.0
H1049 H 0.3204 0.82431 0.70354 0.0
H1050 H 0.34992 0.66217 0.72555 0.0
H1051 H 0.29181 0.75451 0.71017 0.0
H1052 H 0.46775 0.87581 0.74157 0.0
H1053 H 0.45276 0.72443 0.72401 0.0
H1054 H 0.37689 0.76735 0.6339 0.0
H1055 H 0.33893 0.6656 0.66448 0.0
Li1056 Li 0.60486 0.6099 0.45514 0.0
Li1057 Li 0.64571 0.64223 0.45406 0.0
Li1058 Li 0.61587 0.66939 0.43553 0.0
Li1059 Li 0.63139 0.58328 0.43483 0.0
C1060 C 0.61476 0.69646 0.47259 0.0
N1061 N 0.61358 0.72501 0.50269 0.0
C1062 C 0.61998 0.66063 0.48389 0.0
C1063 C 0.60896 0.74679 0.47659 0.0
C1064 C 0.61928 0.67582 0.49905 0.0
C1065 C 0.60845 0.76048 0.49187 0.0
C1066 C 0.65504 0.5383 0.45893 0.0
C1067 C 0.69676 0.51618 0.45379 0.0
N1068 N 0.69474 0.47518 0.46321 0.0
C1069 C 0.65338 0.49596 0.46855 0.0
C1070 C 0.6769 0.54855 0.45147 0.0
C1071 C 0.67365 0.4645 0.47057 0.0
C1072 C 0.57651 0.53365 0.46836 0.0
N1073 N 0.57919 0.58534 0.46769 0.0
C1074 C 0.54478 0.59733 0.48379 0.0
C1075 C 0.56377 0.61731 0.47512 0.0
C1076 C 0.54143 0.54393 0.48468 0.0
C1077 C 0.55767 0.51203 0.4768 0.0
H1078 H 0.58887 0.50923 0.46216 0.0
H1079 H 0.5661 0.65834 0.47426 0.0
C1080 C 0.68314 0.71093 0.46079 0.0
N1081 N 0.6728 0.66643 0.46551 0.0
C1082 C 0.7025 0.73231 0.46883 0.0
C1083 C 0.70027 0.66152 0.48641 0.0
C1084 C 0.68084 0.64168 0.47809 0.0
C1085 C 0.71133 0.70753 0.48183 0.0
H1086 H 0.67619 0.73 0.45082 0.0
H1087 H 0.67203 0.60686 0.48179 0.0
C1088 C 0.57292 0.61562 0.43127 0.0
N1089 N 0.52408 0.63601 0.42735 0.0
C1090 C 0.55863 0.58336 0.42232 0.0
C1091 C 0.56237 0.65832 0.43821 0.0
C1092 C 0.53398 0.59432 0.42048 0.0
C1093 C 0.53765 0.66794 0.4361 0.0
C1094 C 0.65623 0.65695 0.41725 0.0
C1095 C 0.64149 0.6398 0.4054 0.0
C1096 C 0.67733 0.68458 0.41401 0.0
C1097 C 0.64815 0.65054 0.39049 0.0
C1098 C 0.68337 0.69456 0.39894 0.0
N1099 N 0.66877 0.67748 0.38759 0.0
C1100 C 0.61661 0.77176 0.426 0.0
C1101 C 0.59482 0.71647 0.4096 0.0
C1102 C 0.61467 0.81185 0.4156 0.0
N1103 N 0.60713 0.72502 0.4227 0.0
C1104 C 0.59251 0.75541 0.39887 0.0
C1105 C 0.60306 0.80353 0.40163 0.0
H1106 H 0.62659 0.77718 0.43642 0.0
H1107 H 0.58796 0.67863 0.40708 0.0
C1108 C 0.62031 0.49428 0.41918 0.0
N1109 N 0.63874 0.5278 0.42164 0.0
C1110 C 0.62256 0.45613 0.40823 0.0
C1111 C 0.66319 0.4863 0.40294 0.0
C1112 C 0.66016 0.52391 0.41405 0.0
C1113 C 0.644 0.45252 0.39967 0.0
H1114 H 0.60357 0.49817 0.42547 0.0
H1115 H 0.67453 0.55118 0.4162 0.0
O1116 O 0.61548 0.68287 0.45764 0.0
O1117 O 0.63525 0.56923 0.45689 0.0
O1118 O 0.59706 0.60497 0.43322 0.0
O1119 O 0.64995 0.64768 0.43198 0.0
H1120 H 0.62447 0.62149 0.48105 0.0
H1121 H 0.60493 0.77498 0.46795 0.0
H1122 H 0.62327 0.6485 0.50791 0.0
H1123 H 0.60399 0.79931 0.49513 0.0
H1124 H 0.71379 0.52369 0.4481 0.0
H1125 H 0.63657 0.48753 0.4744 0.0
H1126 H 0.67863 0.5812 0.44404 0.0
H1127 H 0.67262 0.4316 0.47799 0.0
H1128 H 0.53294 0.62349 0.48979 0.0
H1129 H 0.55562 0.47077 0.47689 0.0
H1130 H 0.7106 0.76763 0.46483 0.0
H1131 H 0.70627 0.64157 0.49649 0.0
H1132 H 0.56652 0.5502 0.41684 0.0
H1133 H 0.57308 0.68385 0.44514 0.0
H1134 H 0.5227 0.56966 0.41359 0.0
H1135 H 0.52925 0.7008 0.44142 0.0
H1136 H 0.62503 0.61859 0.40769 0.0
H1137 H 0.68889 0.69826 0.42306 0.0
H1138 H 0.63689 0.63755 0.38122 0.0
H1139 H 0.69964 0.71593 0.39627 0.0
H1140 H 0.6228 0.84852 0.41829 0.0
H1141 H 0.58373 0.74697 0.38819 0.0
H1142 H 0.60751 0.43022 0.40633 0.0
H1143 H 0.67998 0.48507 0.39657 0.0
Li1144 Li 0.62213 0.58281 0.81704 0.0
Li1145 Li 0.63713 0.66886 0.81542 0.0
Li1146 Li 0.60723 0.64262 0.79723 0.0
Li1147 Li 0.64811 0.60933 0.79613 0.0
C1148 C 0.59738 0.6707 0.83259 0.0
N1149 N 0.58741 0.72274 0.85911 0.0
C1150 C 0.60756 0.65437 0.84626 0.0
C1151 C 0.58197 0.71325 0.83243 0.0
C1152 C 0.60232 0.68122 0.85954 0.0
C1153 C 0.5772 0.73912 0.84596 0.0
C1154 C 0.68058 0.61516 0.81966 0.0
C1155 C 0.71587 0.66734 0.81475 0.0
N1156 N 0.72971 0.63389 0.82281 0.0
C1157 C 0.69514 0.58133 0.8279 0.0
C1158 C 0.691 0.65857 0.81303 0.0
C1159 C 0.71995 0.59147 0.82936 0.0
C1160 C 0.63277 0.49308 0.83267 0.0
N1161 N 0.61502 0.52849 0.83059 0.0
C1162 C 0.5908 0.49018 0.84997 0.0
C1163 C 0.59411 0.52733 0.83876 0.0
C1164 C 0.60924 0.45416 0.85278 0.0
C1165 C 0.63025 0.45536 0.84375 0.0
H1166 H 0.64917 0.495 0.82597 0.0
H1167 H 0.58036 0.55627 0.83693 0.0
C1168 C 0.63635 0.77159 0.82489 0.0
N1169 N 0.64606 0.72497 0.82808 0.0
C1170 C 0.63795 0.81133 0.83542 0.0
C1171 C 0.66073 0.75517 0.85192 0.0
C1172 C 0.65849 0.71637 0.84114 0.0
C1173 C 0.64977 0.80291 0.8493 0.0
H1174 H 0.62618 0.77695 0.81453 0.0
H1175 H 0.66538 0.67851 0.84362 0.0
C1176 C 0.59831 0.53661 0.79297 0.0
N1177 N 0.55947 0.47089 0.78906 0.0
C1178 C 0.60017 0.49512 0.78304 0.0
C1179 C 0.5767 0.54465 0.80093 0.0
C1180 C 0.58033 0.46234 0.78121 0.0
C1181 C 0.55727 0.511 0.79879 0.0
C1182 C 0.6383 0.69403 0.7783 0.0
C1183 C 0.6318 0.65768 0.7674 0.0
C1184 C 0.64543 0.74304 0.77375 0.0
C1185 C 0.63255 0.67105 0.75211 0.0
C1186 C 0.64596 0.75491 0.75833 0.0
N1187 N 0.63955 0.71897 0.74792 0.0
C1188 C 0.57424 0.71715 0.78775 0.0
C1189 C 0.56876 0.63828 0.77496 0.0
C1190 C 0.55539 0.7395 0.77948 0.0
N1191 N 0.58035 0.66727 0.78552 0.0
C1192 C 0.54968 0.65895 0.76649 0.0
C1193 C 0.5427 0.71029 0.76869 0.0
H1194 H 0.58433 0.73987 0.79583 0.0
H1195 H 0.5744 0.59928 0.77293 0.0
C1196 C 0.67498 0.53272 0.78169 0.0
N1197 N 0.67344 0.58437 0.78338 0.0
C1198 C 0.69369 0.51115 0.77313 0.0
C1199 C 0.7089 0.5964 0.76818 0.0
C1200 C 0.68985 0.61634 0.77682 0.0
C1201 C 0.71108 0.54308 0.7663 0.0
H1202 H 0.66183 0.50823 0.7872 0.0
H1203 H 0.68831 0.65729 0.77841 0.0
O1204 O 0.60299 0.64596 0.81938 0.0
O1205 O 0.65631 0.60527 0.81802 0.0
O1206 O 0.61773 0.56864 0.79491 0.0
O1207 O 0.63761 0.68228 0.79339 0.0
H1208 H 0.61984 0.62202 0.84656 0.0
H1209 H 0.57388 0.72638 0.82198 0.0
H1210 H 0.61026 0.66928 0.87017 0.0
H1211 H 0.56543 0.77231 0.84599 0.0
H1212 H 0.72416 0.70073 0.80966 0.0
H1213 H 0.68737 0.54756 0.8331 0.0
H1214 H 0.68007 0.68523 0.80661 0.0
H1215 H 0.73144 0.56559 0.8357 0.0
H1216 H 0.5744 0.49087 0.85674 0.0
H1217 H 0.64472 0.42779 0.84534 0.0
H1218 H 0.62936 0.84773 0.83295 0.0
H1219 H 0.66967 0.7469 0.86256 0.0
H1220 H 0.61679 0.48835 0.77681 0.0
H1221 H 0.57481 0.57666 0.80859 0.0
H1222 H 0.58151 0.43009 0.77355 0.0
H1223 H 0.54044 0.51681 0.80486 0.0
H1224 H 0.62622 0.61956 0.77066 0.0
H1225 H 0.65048 0.77161 0.78206 0.0
H1226 H 0.62755 0.64331 0.74356 0.0
H1227 H 0.65144 0.79271 0.75465 0.0
H1228 H 0.55115 0.77952 0.78133 0.0
H1229 H 0.54042 0.63477 0.75838 0.0
H1230 H 0.69484 0.46986 0.77218 0.0
H1231 H 0.72173 0.62249 0.763 0.0
Li1232 Li 0.39682 0.39205 0.54785 0.0
Li1233 Li 0.36725 0.42152 0.56666 0.0
Li1234 Li 0.38329 0.33055 0.56717 0.0
Li1235 Li 0.35397 0.35738 0.54791 0.0
C1236 C 0.42358 0.41439 0.57322 0.0
N1237 N 0.46959 0.45161 0.57925 0.0
C1238 C 0.42766 0.46716 0.5741 0.0
C1239 C 0.44285 0.38054 0.57572 0.0
C1240 C 0.45106 0.48524 0.57707 0.0
C1241 C 0.46598 0.40009 0.57868 0.0
C1242 C 0.35277 0.47259 0.5409 0.0
C1243 C 0.31627 0.52329 0.54284 0.0
N1244 N 0.32711 0.56121 0.53473 0.0
C1245 C 0.36347 0.51187 0.53245 0.0
C1246 C 0.32893 0.47818 0.54602 0.0
C1247 C 0.35023 0.55644 0.5295 0.0
C1248 C 0.437 0.38492 0.52709 0.0
N1249 N 0.42343 0.41654 0.53594 0.0
C1250 C 0.44722 0.48883 0.52837 0.0
C1251 C 0.42814 0.46762 0.53666 0.0
C1252 C 0.46171 0.45712 0.51926 0.0
C1253 C 0.45644 0.40446 0.5187 0.0
H1254 H 0.43268 0.34465 0.52644 0.0
H1255 H 0.417 0.49202 0.54369 0.0
C1256 C 0.34971 0.46705 0.59333 0.0
N1257 N 0.35901 0.47764 0.57942 0.0
C1258 C 0.34676 0.50612 0.60398 0.0
C1259 C 0.36261 0.56635 0.5857 0.0
C1260 C 0.36508 0.52623 0.57537 0.0
C1261 C 0.35384 0.55631 0.60033 0.0
H1262 H 0.34555 0.42788 0.59636 0.0
H1263 H 0.37295 0.53353 0.56438 0.0
C1264 C 0.39759 0.2751 0.54246 0.0
N1265 N 0.42221 0.18386 0.5383 0.0
C1266 C 0.38635 0.23418 0.53504 0.0
C1267 C 0.42147 0.2698 0.54756 0.0
C1268 C 0.39906 0.18831 0.53309 0.0
C1269 C 0.43359 0.22335 0.54541 0.0
C1270 C 0.32686 0.33913 0.57366 0.0
C1271 C 0.32242 0.28661 0.57504 0.0
C1272 C 0.30792 0.37386 0.5761 0.0
C1273 C 0.29898 0.26962 0.5784 0.0
C1274 C 0.28474 0.35539 0.57946 0.0
N1275 N 0.28076 0.30408 0.5805 0.0
C1276 C 0.40175 0.28932 0.5942 0.0
C1277 C 0.38495 0.22737 0.57761 0.0
C1278 C 0.40515 0.25222 0.6054 0.0
N1279 N 0.39159 0.27644 0.5807 0.0
C1280 C 0.38781 0.18916 0.58852 0.0
C1281 C 0.3976 0.20164 0.60274 0.0
H1282 H 0.40634 0.32886 0.5965 0.0
H1283 H 0.37644 0.21823 0.56693 0.0
C1284 C 0.315 0.36291 0.52629 0.0
N1285 N 0.32743 0.33212 0.53599 0.0
C1286 C 0.29564 0.34338 0.51782 0.0
C1287 C 0.30266 0.26045 0.52912 0.0
C1288 C 0.3217 0.28171 0.53746 0.0
C1289 C 0.28921 0.29138 0.51915 0.0
H1290 H 0.3201 0.4026 0.52504 0.0
H1291 H 0.3321 0.25774 0.54503 0.0
O1292 O 0.40077 0.396 0.57026 0.0
O1293 O 0.36561 0.42904 0.54417 0.0
O1294 O 0.38529 0.32005 0.54472 0.0
O1295 O 0.34972 0.35645 0.57034 0.0
H1296 H 0.41299 0.49395 0.57235 0.0
H1297 H 0.43999 0.33959 0.57555 0.0
H1298 H 0.45448 0.52602 0.57762 0.0
H1299 H 0.48106 0.37429 0.58058 0.0
H1300 H 0.29782 0.52811 0.54679 0.0
H1301 H 0.38174 0.50797 0.52815 0.0
H1302 H 0.32026 0.44781 0.5523 0.0
H1303 H 0.35832 0.58719 0.52302 0.0
H1304 H 0.45077 0.52955 0.52923 0.0
H1305 H 0.46697 0.3788 0.51164 0.0
H1306 H 0.34023 0.49667 0.6152 0.0
H1307 H 0.36816 0.60459 0.58242 0.0
H1308 H 0.36805 0.23778 0.53075 0.0
H1309 H 0.43056 0.30134 0.55305 0.0
H1310 H 0.39054 0.15628 0.52742 0.0
H1311 H 0.45205 0.21874 0.54936 0.0
H1312 H 0.33685 0.25917 0.57338 0.0
H1313 H 0.31109 0.41467 0.57557 0.0
H1314 H 0.29528 0.22904 0.57934 0.0
H1315 H 0.26992 0.38187 0.58131 0.0
H1316 H 0.41246 0.26353 0.61628 0.0
H1317 H 0.38185 0.15053 0.58601 0.0
H1318 H 0.28574 0.36895 0.51041 0.0
H1319 H 0.29883 0.21997 0.53033 0.0
Li1320 Li 0.38483 0.41788 0.18586 0.0
Li1321 Li 0.35522 0.39143 0.20517 0.0
Li1322 Li 0.39819 0.3554 0.20539 0.0
Li1323 Li 0.36851 0.32855 0.18647 0.0
C1324 C 0.39698 0.47305 0.21268 0.0
N1325 N 0.41726 0.56471 0.22203 0.0
C1326 C 0.38223 0.51565 0.21541 0.0
C1327 C 0.42202 0.47686 0.21506 0.0
C1328 C 0.39282 0.56172 0.22002 0.0
C1329 C 0.43194 0.52357 0.21969 0.0
C1330 C 0.32783 0.40783 0.17957 0.0
C1331 C 0.28467 0.39272 0.18093 0.0
N1332 N 0.28064 0.43777 0.17361 0.0
C1333 C 0.32326 0.45378 0.17195 0.0
C1334 C 0.30839 0.37687 0.184 0.0
C1335 C 0.29928 0.46831 0.16908 0.0
C1336 C 0.4049 0.46246 0.15936 0.0
N1337 N 0.39282 0.4728 0.17244 0.0
C1338 C 0.38555 0.55891 0.1644 0.0
C1339 C 0.38339 0.52005 0.17517 0.0
C1340 C 0.39755 0.54902 0.15069 0.0
C1341 C 0.40778 0.50042 0.14836 0.0
H1342 H 0.41137 0.42412 0.15713 0.0
H1343 H 0.37294 0.52677 0.18531 0.0
C1344 C 0.32155 0.39099 0.22975 0.0
N1345 N 0.32894 0.41688 0.21722 0.0
C1346 C 0.30255 0.41007 0.23864 0.0
C1347 C 0.29925 0.48213 0.2216 0.0
C1348 C 0.31828 0.46175 0.21309 0.0
C1349 C 0.29116 0.45638 0.23463 0.0
H1350 H 0.33054 0.35574 0.23291 0.0
H1351 H 0.32464 0.48201 0.2032 0.0
C1352 C 0.42658 0.35221 0.17911 0.0
N1353 N 0.4752 0.35309 0.17134 0.0
C1354 C 0.43684 0.31037 0.17157 0.0
C1355 C 0.44099 0.39475 0.18248 0.0
C1356 C 0.46148 0.31145 0.16781 0.0
C1357 C 0.46553 0.39444 0.1785 0.0
C1358 C 0.35781 0.27087 0.21039 0.0
C1359 C 0.37392 0.22957 0.21111 0.0
C1360 C 0.33283 0.2619 0.21123 0.0
C1361 C 0.36474 0.17982 0.21231 0.0
C1362 C 0.32435 0.21161 0.21245 0.0
N1363 N 0.34035 0.17194 0.21293 0.0
C1364 C 0.42925 0.35227 0.23131 0.0
C1365 C 0.43755 0.29056 0.21234 0.0
C1366 C 0.44815 0.33318 0.24027 0.0
N1367 N 0.42446 0.331 0.21758 0.0
C1368 C 0.45648 0.27014 0.22093 0.0
C1369 C 0.46199 0.29137 0.23513 0.0
H1370 H 0.41827 0.3838 0.23535 0.0
H1371 H 0.43305 0.27355 0.20155 0.0
C1372 C 0.34107 0.27321 0.1642 0.0
N1373 N 0.36052 0.27218 0.17369 0.0
C1374 C 0.33801 0.23474 0.15334 0.0
C1375 C 0.37481 0.19466 0.16241 0.0
C1376 C 0.37701 0.2335 0.17316 0.0
C1377 C 0.3554 0.1956 0.15212 0.0
H1378 H 0.32853 0.30494 0.16456 0.0
H1379 H 0.39244 0.23394 0.18072 0.0
O1380 O 0.38683 0.42739 0.20834 0.0
O1381 O 0.35119 0.39346 0.18273 0.0
O1382 O 0.40252 0.35156 0.18306 0.0
O1383 O 0.36647 0.31982 0.20904 0.0
H1384 H 0.36281 0.51337 0.21388 0.0
H1385 H 0.43373 0.44406 0.21348 0.0
H1386 H 0.3816 0.59506 0.22202 0.0
H1387 H 0.4513 0.52703 0.2215 0.0
H1388 H 0.26946 0.36919 0.18436 0.0
H1389 H 0.33805 0.47802 0.1683 0.0
H1390 H 0.3116 0.341 0.18974 0.0
H1391 H 0.29549 0.50387 0.16325 0.0
H1392 H 0.37732 0.59588 0.16658 0.0
H1393 H 0.41676 0.49104 0.13781 0.0
H1394 H 0.29717 0.38924 0.24869 0.0
H1395 H 0.29087 0.51754 0.21793 0.0
H1396 H 0.42596 0.27731 0.1687 0.0
H1397 H 0.43319 0.42803 0.18783 0.0
H1398 H 0.46967 0.2792 0.16205 0.0
H1399 H 0.47686 0.42719 0.18105 0.0
H1400 H 0.39329 0.23576 0.2106 0.0
H1401 H 0.32009 0.29339 0.21106 0.0
H1402 H 0.37702 0.14749 0.21274 0.0
H1403 H 0.30506 0.20413 0.21305 0.0
H1404 H 0.45156 0.35027 0.25124 0.0
H1405 H 0.46676 0.23818 0.21645 0.0
H1406 H 0.32294 0.23706 0.1455 0.0
H1407 H 0.38849 0.16489 0.1619 0.0
C1408 C 0.26439 0.28604 0.49522 0.0
C1409 C 0.26883 0.26936 0.51011 0.0
H1410 H 0.2426 0.27848 0.47525 0.0
C1411 C 0.25373 0.23107 0.51625 0.0
H1412 H 0.27586 0.31468 0.48997 0.0
C1413 C 0.23489 0.20981 0.5077 0.0
C1414 C 0.23048 0.2267 0.49286 0.0
H1415 H 0.25625 0.21787 0.52776 0.0
H1416 H 0.2235 0.1807 0.51279 0.0
C1417 C 0.24538 0.26516 0.48673 0.0
C1418 C 0.98103 0.97876 0.49203 0.0
C1419 C 0.98232 0.97817 0.50792 0.0
H1420 H 0.99811 0.00041 0.47122 0.0
C1421 C 0.00301 0.99882 0.51499 0.0
H1422 H 0.96521 0.96388 0.48623 0.0
C1423 C 0.02186 0.01978 0.5064 0.0
C1424 C 0.02052 0.02066 0.49051 0.0
H1425 H 0.00479 0.99824 0.5272 0.0
H1426 H 0.03767 0.03465 0.51222 0.0
C1427 C 0.99989 0.99976 0.48343 0.0
C1428 C 0.25517 0.9464 0.75182 0.0
C1429 C 0.26999 0.97728 0.74263 0.0
H1430 H 0.225 0.94321 0.76711 0.0
C1431 C 0.26544 0.03028 0.74203 0.0
H1432 H 0.25812 0.90542 0.75245 0.0
C1433 C 0.24649 0.05189 0.7504 0.0
C1434 C 0.23152 0.02097 0.75948 0.0
H1435 H 0.2767 0.05519 0.73518 0.0
H1436 H 0.24335 0.09278 0.7496 0.0
C1437 C 0.23607 0.96797 0.7601 0.0
C1438 C 0.01757 0.28306 0.759 0.0
C1439 C 0.02186 0.22992 0.75901 0.0
H1440 H 0.99576 0.34499 0.75069 0.0
C1441 C 0.00662 0.19811 0.75038 0.0
H1442 H 0.02884 0.30856 0.76566 0.0
C1443 C 0.98763 0.21895 0.74187 0.0
C1444 C 0.98335 0.27209 0.74184 0.0
H1445 H 0.00955 0.15708 0.75006 0.0
H1446 H 0.97615 0.19333 0.73541 0.0
C1447 C 0.99848 0.30389 0.75055 0.0
C1448 C 0.76966 0.71871 0.5045 0.0
C1449 C 0.77054 0.7715 0.50773 0.0
H1450 H 0.75048 0.65733 0.49373 0.0
C1451 C 0.75189 0.80317 0.50216 0.0
H1452 H 0.78393 0.69326 0.50831 0.0
C1453 C 0.7328 0.78252 0.49368 0.0
C1454 C 0.73182 0.72968 0.49062 0.0
H1455 H 0.75176 0.84383 0.50461 0.0
H1456 H 0.71852 0.80781 0.48977 0.0
C1457 C 0.7505 0.69806 0.4961 0.0
C1458 C 0.75375 0.04803 0.25718 0.0
C1459 C 0.73189 0.02098 0.25929 0.0
H1460 H 0.78926 0.04872 0.24724 0.0
C1461 C 0.72961 0.97202 0.25271 0.0
H1462 H 0.75649 0.08527 0.2623 0.0
C1463 C 0.74866 0.9507 0.24435 0.0
C1464 C 0.7703 0.9781 0.24214 0.0
H1465 H 0.71295 0.9503 0.25381 0.0
H1466 H 0.74627 0.91315 0.23933 0.0
C1467 C 0.77264 0.027 0.24861 0.0
C1468 C 0.0053 0.79202 0.24087 0.0
C1469 C 0.98249 0.76789 0.24061 0.0
H1470 H 0.04196 0.7901 0.24887 0.0
C1471 C 0.97931 0.72239 0.24888 0.0
H1472 H 0.00842 0.82674 0.23444 0.0
C1473 C 0.99845 0.70156 0.25727 0.0
C1474 C 0.02133 0.72553 0.25751 0.0
H1475 H 0.96185 0.70327 0.24909 0.0
H1476 H 0.99515 0.66708 0.26377 0.0
C1477 C 0.02451 0.771 0.24917 0.0
C1478 C 0.2702 0.77188 0.99315 0.0
C1479 C 0.26903 0.77195 0.00907 0.0
H1480 H 0.25295 0.75072 0.97231 0.0
C1481 C 0.24841 0.75079 0.01611 0.0
H1482 H 0.28592 0.78711 0.98733 0.0
C1483 C 0.22969 0.72942 0.00749 0.0
C1484 C 0.23097 0.72905 0.99162 0.0
H1485 H 0.24658 0.75108 0.02831 0.0
H1486 H 0.21402 0.71373 0.01328 0.0
C1487 C 0.25134 0.75086 0.98453 0.0
C1488 C 0.00573 0.47484 0.98495 0.0
C1489 C 0.01732 0.52016 0.98968 0.0
H1490 H 0.9789 0.41777 0.98972 0.0
C1491 C 0.0096 0.54349 0.0032 0.0
H1492 H 0.01097 0.45615 0.97451 0.0
C1493 C 0.99091 0.5219 0.0118 0.0
C1494 C 0.97951 0.47627 0.00717 0.0
H1495 H 0.01824 0.57808 0.00729 0.0
H1496 H 0.98531 0.54127 0.02206 0.0
C1497 C 0.9871 0.45313 0.99359 0.0
C1498 C 0.25324 0.44594 0.25027 0.0
C1499 C 0.27107 0.47802 0.24394 0.0
H1500 H 0.22045 0.44083 0.26321 0.0
C1501 C 0.2694 0.53117 0.24643 0.0
H1502 H 0.25374 0.40494 0.24841 0.0
C1503 C 0.25028 0.55175 0.25488 0.0
C1504 C 0.23236 0.51972 0.2611 0.0
H1505 H 0.28305 0.55697 0.24198 0.0
H1506 H 0.2497 0.59278 0.25668 0.0
C1507 C 0.23413 0.46654 0.25875 0.0
C1508 C 0.75079 0.20514 0.9927 0.0
C1509 C 0.72936 0.23331 0.99038 0.0
H1510 H 0.78632 0.2032 0.00243 0.0
C1511 C 0.72772 0.283 0.99648 0.0
H1512 H 0.75285 0.16716 0.98792 0.0
C1513 C 0.74694 0.30371 0.00486 0.0
C1514 C 0.76827 0.27525 0.00731 0.0
H1515 H 0.71136 0.30552 0.99506 0.0
H1516 H 0.74486 0.34159 0.00969 0.0
C1517 C 0.77 0.22585 1.00102 0.0
C1518 C 0.75516 0.54097 0.75891 0.0
C1519 C 0.73159 0.52078 0.75752 0.0
H1520 H 0.79249 0.5356 0.75238 0.0
C1521 C 0.72786 0.47873 0.74784 0.0
H1522 H 0.75877 0.57276 0.76646 0.0
C1523 C 0.74721 0.45739 0.73975 0.0
C1524 C 0.77079 0.47754 0.74116 0.0
H1525 H 0.70988 0.46269 0.74634 0.0
H1526 H 0.74362 0.42557 0.73221 0.0
C1527 C 0.77451 0.51961 0.75084 0.0
C1528 C 0.518 0.96662 0.99559 0.0
C1529 C 0.51959 0.01973 0.99304 0.0
H1530 H 0.49855 0.90517 0.00612 0.0
C1531 C 0.50164 0.05179 0.99922 0.0
H1532 H 0.53171 0.9409 0.99117 0.0
C1533 C 0.48259 0.0313 0.00775 0.0
C1534 C 0.48103 0.97821 0.01036 0.0
H1535 H 0.50208 0.09275 0.99726 0.0
H1536 H 0.46887 0.05709 0.01212 0.0
C1537 C 0.49897 0.94612 0.00415 0.0
C1538 C 0.48507 0.2162 0.24557 0.0
C1539 C 0.48191 0.26955 0.24451 0.0
H1540 H 0.50573 0.15426 0.25484 0.0
C1541 C 0.49808 0.30176 0.25232 0.0
H1542 H 0.47269 0.19028 0.23991 0.0
C1543 C 0.51713 0.28109 0.26084 0.0
C1544 C 0.52041 0.2277 0.26182 0.0
H1545 H 0.49634 0.34302 0.25158 0.0
H1546 H 0.52959 0.30707 0.26642 0.0
C1547 C 0.50405 0.19554 0.25413 0.0
C1548 C 0.48736 0.78994 0.75796 0.0
C1549 C 0.48384 0.77606 0.74276 0.0
H1550 H 0.50819 0.77926 0.77816 0.0
C1551 C 0.49997 0.74101 0.73608 0.0
H1552 H 0.47505 0.81639 0.76348 0.0
C1553 C 0.51912 0.72005 0.74443 0.0
C1554 C 0.52252 0.73332 0.75972 0.0
H1555 H 0.49795 0.73016 0.72431 0.0
H1556 H 0.53142 0.69385 0.73881 0.0
C1557 C 0.5064 0.76867 0.76636 0.0
C1558 C 0.47904 0.52509 0.5023 0.0
C1559 C 0.48209 0.47907 0.51034 0.0
H1560 H 0.49502 0.58093 0.48767 0.0
C1561 C 0.50477 0.45448 0.5099 0.0
H1562 H 0.46167 0.54457 0.50225 0.0
C1563 C 0.52402 0.47562 0.50168 0.0
C1564 C 0.521 0.52166 0.49359 0.0
H1565 H 0.50776 0.41932 0.51615 0.0
H1566 H 0.54139 0.45618 0.50187 0.0
C1567 C 0.49821 0.54602 0.49398 0.0
C1568 C 0.12538 0.83925 0.37478 0.0
C1569 C 0.1454 0.83115 0.36521 0.0
H1570 H 0.11062 0.88081 0.39346 0.0
C1571 C 0.16692 0.85862 0.36793 0.0
H1572 H 0.10865 0.81813 0.37318 0.0
C1573 C 0.1682 0.89414 0.37978 0.0
C1574 C 0.148 0.90279 0.3892 0.0
H1575 H 0.18264 0.85343 0.36073 0.0
H1576 H 0.18498 0.91492 0.38155 0.0
C1577 C 0.12664 0.87464 0.3866 0.0
C1578 C 0.1263 0.33931 0.37585 0.0
C1579 C 0.10634 0.33138 0.38549 0.0
H1580 H 0.14097 0.3807 0.35712 0.0
C1581 C 0.08484 0.359 0.38283 0.0
H1582 H 0.14301 0.31807 0.37741 0.0
C1583 C 0.08352 0.39447 0.37097 0.0
C1584 C 0.10365 0.40294 0.36149 0.0
H1585 H 0.06917 0.35394 0.39008 0.0
H1586 H 0.06675 0.41536 0.36925 0.0
C1587 C 0.12499 0.37467 0.36403 0.0
C1588 C 0.1429 0.32721 0.87907 0.0
C1589 C 0.1529 0.33733 0.86474 0.0
H1590 H 0.13419 0.35624 0.90103 0.0
C1591 C 0.16349 0.38549 0.86206 0.0
H1592 H 0.13424 0.29082 0.88144 0.0
C1593 C 0.16355 0.42306 0.87335 0.0
C1594 C 0.15294 0.41338 0.88756 0.0
H1595 H 0.17164 0.39422 0.85121 0.0
H1596 H 0.17175 0.45986 0.87091 0.0
C1597 C 0.14291 0.36476 0.89033 0.0
C1598 C 0.0847 0.86794 0.88463 0.0
C1599 C 0.10583 0.83937 0.88753 0.0
H1600 H 0.06773 0.92539 0.87084 0.0
C1601 C 0.12619 0.84627 0.87818 0.0
H1602 H 0.06876 0.8634 0.89169 0.0
C1603 C 0.12554 0.88122 0.86623 0.0
C1604 C 0.10457 0.91041 0.86344 0.0
H1605 H 0.14262 0.82432 0.88003 0.0
H1606 H 0.14166 0.88618 0.85937 0.0
C1607 C 0.08414 0.90347 0.87276 0.0
C1608 C 0.83356 0.1328 0.63367 0.0
C1609 C 0.85535 0.15628 0.63823 0.0
H1610 H 0.81632 0.08058 0.61829 0.0
C1611 C 0.8768 0.14502 0.63028 0.0
H1612 H 0.81676 0.14066 0.6396 0.0
C1613 C 0.87655 0.11084 0.61815 0.0
C1614 C 0.85485 0.08698 0.61363 0.0
H1615 H 0.89381 0.16306 0.63335 0.0
H1616 H 0.89351 0.10247 0.61245 0.0
C1617 C 0.83334 0.09824 0.62154 0.0
C1618 C 0.87578 0.58733 0.625 0.0
C1619 C 0.89598 0.57924 0.63445 0.0
H1620 H 0.86041 0.63 0.60672 0.0
C1621 C 0.91685 0.60947 0.63227 0.0
H1622 H 0.85918 0.56576 0.62657 0.0
C1623 C 0.91747 0.64676 0.62087 0.0
C1624 C 0.8973 0.65437 0.61138 0.0
H1625 H 0.9328 0.60393 0.63924 0.0
H1626 H 0.93382 0.66929 0.61939 0.0
C1627 C 0.87647 0.62425 0.61359 0.0
C1628 C 0.87366 0.59442 0.12211 0.0
C1629 C 0.85419 0.59148 0.11187 0.0
H1630 H 0.88866 0.63125 0.14161 0.0
C1631 C 0.83412 0.62402 0.11388 0.0
H1632 H 0.88924 0.56936 0.12093 0.0
C1633 C 0.83382 0.65968 0.12573 0.0
C1634 C 0.85338 0.66267 0.13592 0.0
H1635 H 0.81889 0.62251 0.10613 0.0
H1636 H 0.81829 0.68481 0.12695 0.0
C1637 C 0.87321 0.62942 0.13404 0.0
C1638 C 0.87506 0.12253 0.1365 0.0
C1639 C 0.89681 0.09678 0.13979 0.0
H1640 H 0.85684 0.17699 0.12255 0.0
C1641 C 0.91768 0.10836 0.1313 0.0
H1642 H 0.85854 0.11359 0.14261 0.0
C1643 C 0.91681 0.14538 0.11983 0.0
C1644 C 0.89498 0.17118 0.11654 0.0
H1645 H 0.93471 0.08915 0.13363 0.0
H1646 H 0.93329 0.15413 0.11367 0.0
C1647 C 0.87412 0.15902 0.12499 0.0
C1648 C 0.62682 0.86652 0.86489 0.0
C1649 C 0.64885 0.84197 0.86148 0.0
H1650 H 0.60814 0.91966 0.87917 0.0
C1651 C 0.66949 0.85323 0.87023 0.0
H1652 H 0.61052 0.85806 0.85849 0.0
C1653 C 0.6681 0.88842 0.88216 0.0
C1654 C 0.64596 0.91244 0.88567 0.0
H1655 H 0.68671 0.8349 0.86783 0.0
H1656 H 0.68423 0.89621 0.88878 0.0
C1657 C 0.62538 0.90125 0.87687 0.0
C1658 C 0.62558 0.37056 0.88637 0.0
C1659 C 0.60369 0.34454 0.88915 0.0
H1660 H 0.6444 0.42567 0.87286 0.0
C1661 C 0.58341 0.35549 0.88003 0.0
H1662 H 0.64164 0.36248 0.89303 0.0
C1663 C 0.58508 0.39136 0.8683 0.0
C1664 C 0.60711 0.41675 0.86539 0.0
H1665 H 0.56626 0.33623 0.88193 0.0
H1666 H 0.56926 0.39846 0.86132 0.0
C1667 C 0.62726 0.40622 0.87465 0.0
C1668 C 0.62698 0.37153 0.36566 0.0
C1669 C 0.64834 0.34335 0.36308 0.0
H1670 H 0.60901 0.42821 0.37903 0.0
C1671 C 0.66853 0.35201 0.37249 0.0
H1672 H 0.61096 0.36535 0.35879 0.0
C1673 C 0.66728 0.38765 0.38431 0.0
C1674 C 0.64577 0.41521 0.387 0.0
H1675 H 0.68531 0.33117 0.37075 0.0
H1676 H 0.68301 0.39293 0.3915 0.0
C1677 C 0.62574 0.40703 0.37744 0.0
C1678 C 0.58365 0.85119 0.37996 0.0
C1679 C 0.60369 0.8432 0.38955 0.0
H1680 H 0.56939 0.89123 0.36072 0.0
C1681 C 0.62498 0.87169 0.38706 0.0
H1682 H 0.56693 0.8301 0.38163 0.0
C1683 C 0.62631 0.90686 0.37519 0.0
C1684 C 0.60644 0.91437 0.36545 0.0
H1685 H 0.64089 0.86602 0.39406 0.0
H1686 H 0.64297 0.92833 0.37369 0.0
C1687 C 0.58499 0.88649 0.36805 0.0
C1688 C 0.33273 0.13263 0.13583 0.0
C1689 C 0.3544 0.15819 0.13951 0.0
H1690 H 0.31531 0.07766 0.12137 0.0
C1691 C 0.37533 0.14847 0.13089 0.0
H1692 H 0.31635 0.13943 0.14232 0.0
C1693 C 0.37468 0.11379 0.11888 0.0
C1694 C 0.35313 0.08767 0.1153 0.0
H1695 H 0.39221 0.16809 0.13335 0.0
H1696 H 0.3912 0.10669 0.11256 0.0
C1697 C 0.33215 0.09727 0.12391 0.0
C1698 C 0.37576 0.61226 0.13437 0.0
C1699 C 0.39751 0.58761 0.13838 0.0
H1700 H 0.35816 0.66549 0.11958 0.0
C1701 C 0.41877 0.59876 0.13021 0.0
H1702 H 0.35905 0.60394 0.14035 0.0
C1703 C 0.41828 0.63423 0.11832 0.0
C1704 C 0.39642 0.65833 0.11422 0.0
H1705 H 0.43577 0.58028 0.13309 0.0
H1706 H 0.43488 0.64227 0.11219 0.0
C1707 C 0.3752 0.64702 0.12238 0.0
C1708 C 0.33541 0.64066 0.63346 0.0
C1709 C 0.35607 0.67188 0.63517 0.0
H1710 H 0.31837 0.57989 0.621 0.0
C1711 C 0.37568 0.66505 0.62517 0.0
H1712 H 0.31986 0.64523 0.64084 0.0
C1713 C 0.37465 0.62828 0.61373 0.0
C1714 C 0.35409 0.59695 0.61207 0.0
H1715 H 0.39214 0.68737 0.62634 0.0
H1716 H 0.39027 0.62344 0.60642 0.0
C1717 C 0.33448 0.60341 0.62206 0.0
C1718 C 0.41843 0.1578 0.62455 0.0
C1719 C 0.39802 0.16321 0.61511 0.0
H1720 H 0.43409 0.11929 0.64369 0.0
C1721 C 0.37741 0.13295 0.61791 0.0
H1722 H 0.43457 0.18057 0.62262 0.0
C1723 C 0.37707 0.09845 0.62996 0.0
C1724 C 0.39739 0.09308 0.63944 0.0
H1725 H 0.36131 0.1367 0.61095 0.0
H1726 H 0.3609 0.07564 0.63181 0.0
C1727 C 0.41819 0.12269 0.63654 0.0
loop_
_geom_bond_atom_site_label_1
_geom_bond_atom_site_label_2
_geom_bond_distance
_geom_bond_site_symmetry_2
_ccdc_geom_bond_type
Li0 N17 1.990 . S
Li0 O60 1.956 . S
Li0 O61 1.970 . S
Li0 O62 1.961 . S
Li1 N25 1.990 . S
Li1 O60 1.970 . S
Li1 O61 1.956 . S
Li1 O63 1.961 . S
Li2 N47 1.990 . S
Li2 O60 1.961 . S
Li2 O62 1.956 . S
Li2 O63 1.970 . S
Li3 N53 1.990 . S
Li3 O61 1.961 . S
Li3 O62 1.970 . S
Li3 O63 1.956 . S
C4 C6 1.348 . S
C4 C7 1.356 . S
C4 O60 1.325 . S
N5 C8 1.314 . S
N5 C9 1.279 . S
C6 C4 1.348 . S
C6 C8 1.353 . S
C6 H64 0.929 . S
C7 C4 1.356 . S
C7 C9 1.358 . S
C7 H65 0.930 . S
C8 N5 1.314 . S
C8 C6 1.353 . S
C8 H66 0.930 . S
C9 N5 1.279 . S
C9 C7 1.358 . S
C9 H67 0.930 . S
C10 C13 1.348 . S
C10 C14 1.355 . S
C10 O61 1.325 . S
C11 N12 1.279 . S
C11 C14 1.360 1_565 S
C11 H68 0.930 . S
N12 C11 1.279 . S
N12 C15 1.314 . S
C13 C10 1.348 . S
C13 C15 1.353 1_545 S
C13 H69 0.929 . S
C14 C10 1.355 . S
C14 C11 1.360 1_545 S
C14 H70 0.929 . S
C15 N12 1.314 . S
C15 C13 1.353 1_565 S
C15 H71 0.930 . S
C16 N17 1.314 . S
C16 C21 1.353 . S
C16 H22 0.930 . S
N17 Li0 1.990 . S
N17 C16 1.314 . S
N17 C19 1.279 . S
C18 C19 1.358 . S
C18 C20 1.356 . S
C18 H72 0.930 . S
C19 N17 1.279 . S
C19 C18 1.358 . S
C19 H23 0.930 . S
C20 C18 1.356 . S
C20 C21 1.348 . S
C21 C16 1.353 . S
C21 C20 1.348 . S
C21 H73 0.929 . S
H22 C16 0.930 . S
H23 C19 0.930 . S
C24 N25 1.314 . S
C24 C26 1.353 . S
C24 H30 0.930 . S
N25 Li1 1.990 . S
N25 C24 1.314 . S
N25 C28 1.279 . S
C26 C24 1.353 . S
C26 C29 1.348 . S
C26 H74 0.929 . S
C27 C28 1.358 . S
C27 C29 1.356 . S
C27 H75 0.930 . S
C28 N25 1.279 . S
C28 C27 1.358 . S
C28 H31 0.930 . S
C29 C26 1.348 . S
C29 C27 1.356 . S
H30 C24 0.930 . S
H31 C28 0.930 . S
C32 C34 1.348 . S
C32 C35 1.356 . S
C32 O62 1.325 . S
N33 C36 1.314 . S
N33 C37 1.279 . S
C34 C32 1.348 . S
C34 C36 1.353 . S
C34 H76 0.929 . S
C35 C32 1.356 . S
C35 C37 1.358 . S
C35 H77 0.930 . S
C36 N33 1.314 . S
C36 C34 1.353 . S
C36 H78 0.930 . S
C37 N33 1.279 . S
C37 C35 1.358 . S
C37 H79 0.930 . S
C38 C39 1.348 . S
C38 C40 1.356 . S
C38 O63 1.325 . S
C39 C38 1.348 . S
C39 C41 1.353 . S
C39 H80 0.929 . S
C40 C38 1.356 . S
C40 C42 1.358 . S
C40 H81 0.930 . S
C41 C39 1.353 . S
C41 N43 1.314 . S
C41 H82 0.930 . S
C42 C40 1.358 . S
C42 N43 1.279 . S
C42 H83 0.930 . S
N43 C41 1.314 . S
N43 C42 1.279 . S
C44 C46 1.353 . S
C44 N47 1.314 . S
C44 H50 0.930 . S
C45 N47 1.279 . S
C45 C48 1.358 . S
C45 H51 0.930 . S
C46 C44 1.353 . S
C46 C49 1.348 . S
C46 H84 0.929 . S
N47 Li2 1.990 . S
N47 C44 1.314 . S
N47 C45 1.279 . S
C48 C45 1.358 . S
C48 C49 1.356 . S
C48 H85 0.930 . S
C49 C46 1.348 . S
C49 C48 1.356 . S
H50 C44 0.930 . S
H51 C45 0.930 . S
C52 N53 1.314 1_565 S
C52 C54 1.353 . S
C52 H58 0.930 . S
N53 Li3 1.990 . S
N53 C52 1.314 1_545 S
N53 C56 1.279 . S
C54 C52 1.353 . S
C54 C57 1.348 . S
C54 H86 0.929 . S
C55 C56 1.358 1_565 S
C55 C57 1.356 . S
C55 H87 0.930 . S
C56 N53 1.279 . S
C56 C55 1.358 1_545 S
C56 H59 0.930 . S
C57 C54 1.348 . S
C57 C55 1.356 . S
H58 C52 0.930 . S
H59 C56 0.930 . S
O60 Li0 1.956 . S
O60 Li1 1.970 . S
O60 Li2 1.961 . S
O60 C4 1.325 . S
O61 Li0 1.970 . S
O61 Li1 1.956 . S
O61 Li3 1.961 . S
O61 C10 1.325 . S
O62 Li0 1.961 . S
O62 Li2 1.956 . S
O62 Li3 1.970 . S
O62 C32 1.325 . S
O63 Li1 1.961 . S
O63 Li2 1.970 . S
O63 Li3 1.956 . S
O63 C38 1.325 . S
H64 C6 0.929 . S
H65 C7 0.930 . S
H66 C8 0.930 . S
H67 C9 0.930 . S
H68 C11 0.930 . S
H69 C13 0.929 . S
H70 C14 0.929 . S
H71 C15 0.930 . S
H72 C18 0.930 . S
H73 C21 0.929 . S
H74 C26 0.929 . S
H75 C27 0.930 . S
H76 C34 0.929 . S
H77 C35 0.930 . S
H78 C36 0.930 . S
H79 C37 0.930 . S
H80 C39 0.929 . S
H81 C40 0.930 . S
H82 C41 0.930 . S
H83 C42 0.930 . S
H84 C46 0.929 . S
H85 C48 0.930 . S
H86 C54 0.929 . S
H87 C55 0.930 . S
Li88 N105 1.990 . S
Li88 O148 1.956 . S
Li88 O149 1.970 . S
Li88 O150 1.961 . S
Li89 N113 1.990 . S
Li89 O148 1.970 . S
Li89 O149 1.956 . S
Li89 O151 1.961 . S
Li90 N135 1.990 . S
Li90 O148 1.961 . S
Li90 O150 1.956 . S
Li90 O151 1.970 . S
Li91 N141 1.990 . S
Li91 O149 1.961 . S
Li91 O150 1.970 . S
Li91 O151 1.956 . S
C92 C94 1.348 . S
C92 C95 1.356 . S
C92 O148 1.325 . S
N93 C96 1.314 . S
N93 C97 1.279 . S
C94 C92 1.348 . S
C94 C96 1.353 . S
C94 H152 0.929 . S
C95 C92 1.356 . S
C95 C97 1.358 . S
C95 H153 0.930 . S
C96 N93 1.314 . S
C96 C94 1.353 . S
C96 H154 0.930 . S
C97 N93 1.279 . S
C97 C95 1.358 . S
C97 H155 0.930 . S
C98 C101 1.348 . S
C98 C102 1.356 . S
C98 O149 1.325 . S
C99 N100 1.279 . S
C99 C102 1.358 . S
C99 H156 0.930 . S
N100 C99 1.279 . S
N100 C103 1.314 . S
C101 C98 1.348 . S
C101 C103 1.353 . S
C101 H157 0.929 . S
C102 C98 1.356 . S
C102 C99 1.358 . S
C102 H158 0.930 . S
C103 N100 1.314 . S
C103 C101 1.353 . S
C103 H159 0.930 . S
C104 N105 1.314 . S
C104 C109 1.353 . S
C104 H110 0.930 . S
N105 Li88 1.990 . S
N105 C104 1.314 . S
N105 C107 1.279 . S
C106 C107 1.358 . S
C106 C108 1.356 . S
C106 H160 0.930 . S
C107 N105 1.279 . S
C107 C106 1.358 . S
C107 H111 0.930 . S
C108 C106 1.356 . S
C108 C109 1.348 . S
C109 C104 1.353 . S
C109 C108 1.348 . S
C109 H161 0.929 . S
H110 C104 0.930 . S
H111 C107 0.930 . S
C112 N113 1.314 1_565 S
C112 C114 1.353 . S
C112 H118 0.930 . S
N113 Li89 1.990 . S
N113 C112 1.314 1_545 S
N113 C116 1.279 . S
C114 C112 1.353 . S
C114 C117 1.348 . S
C114 H162 0.929 . S
C115 C116 1.358 1_565 S
C115 C117 1.356 . S
C115 H163 0.930 . S
C116 N113 1.279 . S
C116 C115 1.358 1_545 S
C116 H119 0.930 . S
C117 C114 1.348 . S
C117 C115 1.356 . S
H118 C112 0.930 . S
H119 C116 0.930 . S
C120 C122 1.348 . S
C120 C123 1.356 . S
C120 O150 1.325 . S
N121 C124 1.314 . S
N121 C125 1.279 . S
C122 C120 1.348 . S
C122 C124 1.353 . S
C122 H164 0.929 . S
C123 C120 1.356 . S
C123 C125 1.358 . S
C123 H165 0.930 . S
C124 N121 1.314 . S
C124 C122 1.353 . S
C124 H166 0.930 . S
C125 N121 1.279 . S
C125 C123 1.358 . S
C125 H167 0.930 . S
C126 C127 1.348 . S
C126 C128 1.355 . S
C126 O151 1.325 . S
C127 C126 1.348 . S
C127 C129 1.353 1_545 S
C127 H168 0.929 . S
C128 C126 1.355 . S
C128 C130 1.360 1_545 S
C128 H169 0.929 . S
C129 C127 1.353 1_565 S
C129 N131 1.314 . S
C129 H170 0.930 . S
C130 C128 1.360 1_565 S
C130 N131 1.279 . S
C130 H171 0.930 . S
N131 C129 1.314 . S
N131 C130 1.279 . S
C132 C134 1.353 . S
C132 N135 1.314 . S
C132 H138 0.930 . S
C133 N135 1.279 . S
C133 C136 1.358 . S
C133 H139 0.930 . S
C134 C132 1.353 . S
C134 C137 1.348 . S
C134 H172 0.929 . S
N135 Li90 1.990 . S
N135 C132 1.314 . S
N135 C133 1.279 . S
C136 C133 1.358 . S
C136 C137 1.356 . S
C136 H173 0.930 . S
C137 C134 1.348 . S
C137 C136 1.356 . S
H138 C132 0.930 . S
H139 C133 0.930 . S
C140 N141 1.314 . S
C140 C142 1.353 . S
C140 H146 0.930 . S
N141 Li91 1.990 . S
N141 C140 1.314 . S
N141 C144 1.279 . S
C142 C140 1.353 . S
C142 C145 1.348 . S
C142 H174 0.929 . S
C143 C144 1.358 . S
C143 C145 1.356 . S
C143 H175 0.930 . S
C144 N141 1.279 . S
C144 C143 1.358 . S
C144 H147 0.930 . S
C145 C142 1.348 . S
C145 C143 1.356 . S
H146 C140 0.930 . S
H147 C144 0.930 . S
O148 Li88 1.956 . S
O148 Li89 1.970 . S
O148 Li90 1.961 . S
O148 C92 1.325 . S
O149 Li88 1.970 . S
O149 Li89 1.956 . S
O149 Li91 1.961 . S
O149 C98 1.325 . S
O150 Li88 1.961 . S
O150 Li90 1.956 . S
O150 Li91 1.970 . S
O150 C120 1.325 . S
O151 Li89 1.961 . S
O151 Li90 1.970 . S
O151 Li91 1.956 . S
O151 C126 1.325 . S
H152 C94 0.929 . S
H153 C95 0.930 . S
H154 C96 0.930 . S
H155 C97 0.930 . S
H156 C99 0.930 . S
H157 C101 0.929 . S
H158 C102 0.930 . S
H159 C103 0.930 . S
H160 C106 0.930 . S
H161 C109 0.929 . S
H162 C114 0.929 . S
H163 C115 0.930 . S
H164 C122 0.929 . S
H165 C123 0.930 . S
H166 C124 0.930 . S
H167 C125 0.930 . S
H168 C127 0.929 . S
H169 C128 0.929 . S
H170 C129 0.930 . S
H171 C130 0.930 . S
H172 C134 0.929 . S
H173 C136 0.930 . S
H174 C142 0.929 . S
H175 C143 0.930 . S
Li176 N193 1.990 . S
Li176 O236 1.956 . S
Li176 O237 1.970 . S
Li176 O238 1.961 . S
Li177 N201 1.990 . S
Li177 O236 1.970 . S
Li177 O237 1.956 . S
Li177 O239 1.961 . S
Li178 N223 1.990 . S
Li178 O236 1.961 . S
Li178 O238 1.956 . S
Li178 O239 1.970 . S
Li179 N229 1.990 . S
Li179 O237 1.961 . S
Li179 O238 1.970 . S
Li179 O239 1.956 . S
C180 C182 1.348 . S
C180 C183 1.356 . S
C180 O236 1.325 . S
N181 C184 1.314 . S
N181 C185 1.279 . S
C182 C180 1.348 . S
C182 C184 1.353 . S
C182 H240 0.929 . S
C183 C180 1.356 . S
C183 C185 1.358 . S
C183 H241 0.930 . S
C184 N181 1.314 . S
C184 C182 1.353 . S
C184 H242 0.930 . S
C185 N181 1.279 . S
C185 C183 1.358 . S
C185 H243 0.930 . S
C186 C189 1.348 . S
C186 C190 1.356 . S
C186 O237 1.325 . S
C187 N188 1.279 . S
C187 C190 1.358 1_545 S
C187 H244 0.930 . S
N188 C187 1.279 . S
N188 C191 1.314 . S
C189 C186 1.348 . S
C189 C191 1.353 1_565 S
C189 H245 0.929 . S
C190 C186 1.356 . S
C190 C187 1.358 1_565 S
C190 H246 0.930 . S
C191 N188 1.314 . S
C191 C189 1.353 1_545 S
C191 H247 0.930 . S
C192 N193 1.314 . S
C192 C197 1.353 . S
C192 H198 0.930 . S
N193 Li176 1.990 . S
N193 C192 1.314 . S
N193 C195 1.279 . S
C194 C195 1.358 . S
C194 C196 1.356 . S
C194 H248 0.930 . S
C195 N193 1.279 . S
C195 C194 1.358 . S
C195 H199 0.930 . S
C196 C194 1.356 . S
C196 C197 1.348 . S
C197 C192 1.353 . S
C197 C196 1.348 . S
C197 H249 0.929 . S
H198 C192 0.930 . S
H199 C195 0.930 . S
C200 N201 1.314 . S
C200 C202 1.353 1_565 S
C200 H206 0.930 . S
N201 Li177 1.990 . S
N201 C200 1.314 . S
N201 C204 1.279 1_565 S
C202 C200 1.353 1_545 S
C202 C205 1.348 . S
C202 H250 0.929 . S
C203 C204 1.358 . S
C203 C205 1.356 . S
C203 H251 0.930 . S
C204 N201 1.279 1_545 S
C204 C203 1.358 . S
C204 H207 0.930 . S
C205 C202 1.348 . S
C205 C203 1.356 . S
H206 C200 0.930 . S
H207 C204 0.930 . S
C208 C210 1.348 . S
C208 C211 1.356 . S
C208 O238 1.325 . S
N209 C212 1.314 . S
N209 C213 1.279 . S
C210 C208 1.348 . S
C210 C212 1.353 . S
C210 H252 0.929 . S
C211 C208 1.356 . S
C211 C213 1.358 . S
C211 H253 0.930 . S
C212 N209 1.314 . S
C212 C210 1.353 . S
C212 H254 0.930 . S
C213 N209 1.279 . S
C213 C211 1.358 . S
C213 H255 0.930 . S
C214 C215 1.348 . S
C214 C216 1.356 . S
C214 O239 1.325 . S
C215 C214 1.348 . S
C215 C217 1.353 . S
C215 H256 0.929 . S
C216 C214 1.356 . S
C216 C218 1.358 . S
C216 H257 0.930 . S
C217 C215 1.353 . S
C217 N219 1.314 . S
C217 H258 0.930 . S
C218 C216 1.358 . S
C218 N219 1.279 . S
C218 H259 0.930 . S
N219 C217 1.314 . S
N219 C218 1.279 . S
C220 C222 1.353 . S
C220 N223 1.314 . S
C220 H226 0.930 . S
C221 N223 1.279 . S
C221 C224 1.358 . S
C221 H227 0.930 . S
C222 C220 1.353 . S
C222 C225 1.348 . S
C222 H260 0.929 . S
N223 Li178 1.990 . S
N223 C220 1.314 . S
N223 C221 1.279 . S
C224 C221 1.358 . S
C224 C225 1.356 . S
C224 H261 0.930 . S
C225 C222 1.348 . S
C225 C224 1.356 . S
H226 C220 0.930 . S
H227 C221 0.930 . S
C228 N229 1.314 . S
C228 C230 1.353 . S
C228 H234 0.930 . S
N229 Li179 1.990 . S
N229 C228 1.314 . S
N229 C232 1.279 . S
C230 C228 1.353 . S
C230 C233 1.348 . S
C230 H262 0.929 . S
C231 C232 1.358 . S
C231 C233 1.356 . S
C231 H263 0.930 . S
C232 N229 1.279 . S
C232 C231 1.358 . S
C232 H235 0.930 . S
C233 C230 1.348 . S
C233 C231 1.356 . S
H234 C228 0.930 . S
H235 C232 0.930 . S
O236 Li176 1.956 . S
O236 Li177 1.970 . S
O236 Li178 1.961 . S
O236 C180 1.325 . S
O237 Li176 1.970 . S
O237 Li177 1.956 . S
O237 Li179 1.961 . S
O237 C186 1.325 . S
O238 Li176 1.961 . S
O238 Li178 1.956 . S
O238 Li179 1.970 . S
O238 C208 1.325 . S
O239 Li177 1.961 . S
O239 Li178 1.970 . S
O239 Li179 1.956 . S
O239 C214 1.325 . S
H240 C182 0.929 . S
H241 C183 0.930 . S
H242 C184 0.930 . S
H243 C185 0.930 . S
H244 C187 0.930 . S
H245 C189 0.929 . S
H246 C190 0.930 . S
H247 C191 0.930 . S
H248 C194 0.930 . S
H249 C197 0.929 . S
H250 C202 0.929 . S
H251 C203 0.930 . S
H252 C210 0.929 . S
H253 C211 0.930 . S
H254 C212 0.930 . S
H255 C213 0.930 . S
H256 C215 0.929 . S
H257 C216 0.930 . S
H258 C217 0.930 . S
H259 C218 0.930 . S
H260 C222 0.929 . S
H261 C224 0.930 . S
H262 C230 0.929 . S
H263 C231 0.930 . S
Li264 N281 1.990 . S
Li264 O324 1.956 . S
Li264 O325 1.970 . S
Li264 O326 1.961 . S
Li265 N289 1.990 . S
Li265 O324 1.970 . S
Li265 O325 1.956 . S
Li265 O327 1.961 . S
Li266 N311 1.990 . S
Li266 O324 1.961 . S
Li266 O326 1.956 . S
Li266 O327 1.970 . S
Li267 N317 1.990 . S
Li267 O325 1.961 . S
Li267 O326 1.970 . S
Li267 O327 1.956 . S
C268 C270 1.348 . S
C268 C271 1.356 . S
C268 O324 1.325 . S
N269 C272 1.314 . S
N269 C273 1.279 . S
C270 C268 1.348 . S
C270 C272 1.353 1_565 S
C270 H328 0.929 . S
C271 C268 1.356 . S
C271 C273 1.358 1_565 S
C271 H329 0.930 . S
C272 N269 1.314 . S
C272 C270 1.353 1_545 S
C272 H330 0.930 . S
C273 N269 1.279 . S
C273 C271 1.358 1_545 S
C273 H331 0.930 . S
C274 C277 1.348 . S
C274 C278 1.356 . S
C274 O325 1.325 . S
C275 N276 1.279 . S
C275 C278 1.358 . S
C275 H332 0.930 . S
N276 C275 1.279 . S
N276 C279 1.314 . S
C277 C274 1.348 . S
C277 C279 1.353 . S
C277 H333 0.929 . S
C278 C274 1.356 . S
C278 C275 1.358 . S
C278 H334 0.930 . S
C279 N276 1.314 . S
C279 C277 1.353 . S
C279 H335 0.930 . S
C280 N281 1.314 . S
C280 C285 1.353 1_565 S
C280 H286 0.930 . S
N281 Li264 1.990 . S
N281 C280 1.314 . S
N281 C283 1.279 1_565 S
C282 C283 1.358 . S
C282 C284 1.356 . S
C282 H336 0.930 . S
C283 N281 1.279 1_545 S
C283 C282 1.358 . S
C283 H287 0.930 . S
C284 C282 1.356 . S
C284 C285 1.348 . S
C285 C280 1.353 1_545 S
C285 C284 1.348 . S
C285 H337 0.929 . S
H286 C280 0.930 . S
H287 C283 0.930 . S
C288 N289 1.314 . S
C288 C290 1.353 . S
C288 H294 0.930 . S
N289 Li265 1.990 . S
N289 C288 1.314 . S
N289 C292 1.279 . S
C290 C288 1.353 . S
C290 C293 1.348 . S
C290 H338 0.929 . S
C291 C292 1.358 . S
C291 C293 1.356 . S
C291 H339 0.930 . S
C292 N289 1.279 . S
C292 C291 1.358 . S
C292 H295 0.930 . S
C293 C290 1.348 . S
C293 C291 1.356 . S
H294 C288 0.930 . S
H295 C292 0.930 . S
C296 C298 1.348 . S
C296 C299 1.356 . S
C296 O326 1.325 . S
N297 C300 1.314 . S
N297 C301 1.279 . S
C298 C296 1.348 . S
C298 C300 1.353 . S
C298 H340 0.929 . S
C299 C296 1.356 . S
C299 C301 1.358 . S
C299 H341 0.930 . S
C300 N297 1.314 . S
C300 C298 1.353 . S
C300 H342 0.930 . S
C301 N297 1.279 . S
C301 C299 1.358 . S
C301 H343 0.930 . S
C302 C303 1.348 . S
C302 C304 1.356 . S
C302 O327 1.325 . S
C303 C302 1.348 . S
C303 C305 1.353 . S
C303 H344 0.929 . S
C304 C302 1.356 . S
C304 C306 1.358 . S
C304 H345 0.930 . S
C305 C303 1.353 . S
C305 N307 1.314 . S
C305 H346 0.930 . S
C306 C304 1.358 . S
C306 N307 1.279 . S
C306 H347 0.930 . S
N307 C305 1.314 . S
N307 C306 1.279 . S
C308 C310 1.353 . S
C308 N311 1.314 . S
C308 H314 0.930 . S
C309 N311 1.279 . S
C309 C312 1.358 . S
C309 H315 0.930 . S
C310 C308 1.353 . S
C310 C313 1.348 . S
C310 H348 0.929 . S
N311 Li266 1.990 . S
N311 C308 1.314 . S
N311 C309 1.279 . S
C312 C309 1.358 . S
C312 C313 1.356 . S
C312 H349 0.930 . S
C313 C310 1.348 . S
C313 C312 1.356 . S
H314 C308 0.930 . S
H315 C309 0.930 . S
C316 N317 1.314 . S
C316 C318 1.353 . S
C316 H322 0.930 . S
N317 Li267 1.990 . S
N317 C316 1.314 . S
N317 C320 1.279 . S
C318 C316 1.353 . S
C318 C321 1.348 . S
C318 H350 0.929 . S
C319 C320 1.358 . S
C319 C321 1.356 . S
C319 H351 0.930 . S
C320 N317 1.279 . S
C320 C319 1.358 . S
C320 H323 0.930 . S
C321 C318 1.348 . S
C321 C319 1.356 . S
H322 C316 0.930 . S
H323 C320 0.930 . S
O324 Li264 1.956 . S
O324 Li265 1.970 . S
O324 Li266 1.961 . S
O324 C268 1.325 . S
O325 Li264 1.970 . S
O325 Li265 1.956 . S
O325 Li267 1.961 . S
O325 C274 1.325 . S
O326 Li264 1.961 . S
O326 Li266 1.956 . S
O326 Li267 1.970 . S
O326 C296 1.325 . S
O327 Li265 1.961 . S
O327 Li266 1.970 . S
O327 Li267 1.956 . S
O327 C302 1.325 . S
H328 C270 0.929 . S
H329 C271 0.930 . S
H330 C272 0.930 . S
H331 C273 0.930 . S
H332 C275 0.930 . S
H333 C277 0.929 . S
H334 C278 0.930 . S
H335 C279 0.930 . S
H336 C282 0.930 . S
H337 C285 0.929 . S
H338 C290 0.929 . S
H339 C291 0.930 . S
H340 C298 0.929 . S
H341 C299 0.930 . S
H342 C300 0.930 . S
H343 C301 0.930 . S
H344 C303 0.929 . S
H345 C304 0.930 . S
H346 C305 0.930 . S
H347 C306 0.930 . S
H348 C310 0.929 . S
H349 C312 0.930 . S
H350 C318 0.929 . S
H351 C319 0.930 . S
Li352 N369 1.990 . S
Li352 O412 1.956 . S
Li352 O413 1.970 . S
Li352 O414 1.961 . S
Li353 N377 1.990 . S
Li353 O412 1.970 . S
Li353 O413 1.956 . S
Li353 O415 1.961 . S
Li354 N399 1.990 . S
Li354 O412 1.961 . S
Li354 O414 1.956 . S
Li354 O415 1.970 . S
Li355 N405 1.990 . S
Li355 O413 1.961 . S
Li355 O414 1.970 . S
Li355 O415 1.956 . S
C356 C358 1.348 . S
C356 C359 1.356 . S
C356 O412 1.325 . S
N357 C360 1.314 . S
N357 C361 1.279 . S
C358 C356 1.348 . S
C358 C360 1.353 . S
C358 H416 0.929 . S
C359 C356 1.356 . S
C359 C361 1.358 . S
C359 H417 0.930 . S
C360 N357 1.314 . S
C360 C358 1.353 . S
C360 H418 0.930 . S
C361 N357 1.279 . S
C361 C359 1.358 . S
C361 H419 0.930 . S
C362 C365 1.348 . S
C362 C366 1.356 . S
C362 O413 1.325 . S
C363 N364 1.279 . S
C363 C366 1.358 . S
C363 H420 0.930 . S
N364 C363 1.279 . S
N364 C367 1.314 . S
C365 C362 1.348 . S
C365 C367 1.353 . S
C365 H421 0.929 . S
C366 C362 1.356 . S
C366 C363 1.358 . S
C366 H422 0.930 . S
C367 N364 1.314 . S
C367 C365 1.353 . S
C367 H423 0.930 . S
C368 N369 1.314 . S
C368 C373 1.353 . S
C368 H374 0.930 . S
N369 Li352 1.990 . S
N369 C368 1.314 . S
N369 C371 1.279 . S
C370 C371 1.358 . S
C370 C372 1.356 . S
C370 H424 0.930 . S
C371 N369 1.279 . S
C371 C370 1.358 . S
C371 H375 0.930 . S
C372 C370 1.356 . S
C372 C373 1.348 . S
C373 C368 1.353 . S
C373 C372 1.348 . S
C373 H425 0.929 . S
H374 C368 0.930 . S
H375 C371 0.930 . S
C376 N377 1.314 . S
C376 C378 1.353 . S
C376 H382 0.930 . S
N377 Li353 1.990 . S
N377 C376 1.314 . S
N377 C380 1.279 . S
C378 C376 1.353 . S
C378 C381 1.348 . S
C378 H426 0.929 . S
C379 C380 1.358 . S
C379 C381 1.356 . S
C379 H427 0.930 . S
C380 N377 1.279 . S
C380 C379 1.358 . S
C380 H383 0.930 . S
C381 C378 1.348 . S
C381 C379 1.356 . S
H382 C376 0.930 . S
H383 C380 0.930 . S
C384 C386 1.348 . S
C384 C387 1.356 . S
C384 O414 1.325 . S
N385 C388 1.314 . S
N385 C389 1.279 . S
C386 C384 1.348 . S
C386 C388 1.353 . S
C386 H428 0.929 . S
C387 C384 1.356 . S
C387 C389 1.358 . S
C387 H429 0.930 . S
C388 N385 1.314 . S
C388 C386 1.353 . S
C388 H430 0.930 . S
C389 N385 1.279 . S
C389 C387 1.358 . S
C389 H431 0.930 . S
C390 C391 1.348 . S
C390 C392 1.356 . S
C390 O415 1.325 . S
C391 C390 1.348 . S
C391 C393 1.353 . S
C391 H432 0.929 . S
C392 C390 1.356 . S
C392 C394 1.358 . S
C392 H433 0.930 . S
C393 C391 1.353 . S
C393 N395 1.314 . S
C393 H434 0.930 . S
C394 C392 1.358 . S
C394 N395 1.279 . S
C394 H435 0.930 . S
N395 C393 1.314 . S
N395 C394 1.279 . S
C396 C398 1.353 . S
C396 N399 1.314 . S
C396 H402 0.930 . S
C397 N399 1.279 . S
C397 C400 1.358 . S
C397 H403 0.930 . S
C398 C396 1.353 . S
C398 C401 1.348 . S
C398 H436 0.929 . S
N399 Li354 1.990 . S
N399 C396 1.314 . S
N399 C397 1.279 . S
C400 C397 1.358 . S
C400 C401 1.356 . S
C400 H437 0.930 . S
C401 C398 1.348 . S
C401 C400 1.356 . S
H402 C396 0.930 . S
H403 C397 0.930 . S
C404 N405 1.314 . S
C404 C406 1.353 . S
C404 H410 0.930 . S
N405 Li355 1.990 . S
N405 C404 1.314 . S
N405 C408 1.279 . S
C406 C404 1.353 . S
C406 C409 1.348 . S
C406 H438 0.929 . S
C407 C408 1.358 . S
C407 C409 1.356 . S
C407 H439 0.930 . S
C408 N405 1.279 . S
C408 C407 1.358 . S
C408 H411 0.930 . S
C409 C406 1.348 . S
C409 C407 1.356 . S
H410 C404 0.930 . S
H411 C408 0.930 . S
O412 Li352 1.956 . S
O412 Li353 1.970 . S
O412 Li354 1.961 . S
O412 C356 1.325 . S
O413 Li352 1.970 . S
O413 Li353 1.956 . S
O413 Li355 1.961 . S
O413 C362 1.325 . S
O414 Li352 1.961 . S
O414 Li354 1.956 . S
O414 Li355 1.970 . S
O414 C384 1.325 . S
O415 Li353 1.961 . S
O415 Li354 1.970 . S
O415 Li355 1.956 . S
O415 C390 1.325 . S
H416 C358 0.929 . S
H417 C359 0.930 . S
H418 C360 0.930 . S
H419 C361 0.930 . S
H420 C363 0.930 . S
H421 C365 0.929 . S
H422 C366 0.930 . S
H423 C367 0.930 . S
H424 C370 0.930 . S
H425 C373 0.929 . S
H426 C378 0.929 . S
H427 C379 0.930 . S
H428 C386 0.929 . S
H429 C387 0.930 . S
H430 C388 0.930 . S
H431 C389 0.930 . S
H432 C391 0.929 . S
H433 C392 0.930 . S
H434 C393 0.930 . S
H435 C394 0.930 . S
H436 C398 0.929 . S
H437 C400 0.930 . S
H438 C406 0.929 . S
H439 C407 0.930 . S
Li440 N457 1.990 . S
Li440 O500 1.956 . S
Li440 O501 1.970 . S
Li440 O502 1.961 . S
Li441 N465 1.990 . S
Li441 O500 1.970 . S
Li441 O501 1.956 . S
Li441 O503 1.961 . S
Li442 N487 1.990 . S
Li442 O500 1.961 . S
Li442 O502 1.956 . S
Li442 O503 1.970 . S
Li443 N493 1.990 . S
Li443 O501 1.961 . S
Li443 O502 1.970 . S
Li443 O503 1.956 . S
C444 C446 1.348 . S
C444 C447 1.356 . S
C444 O500 1.325 . S
N445 C448 1.314 . S
N445 C449 1.279 . S
C446 C444 1.348 . S
C446 C448 1.353 . S
C446 H504 0.929 . S
C447 C444 1.356 . S
C447 C449 1.358 . S
C447 H505 0.930 . S
C448 N445 1.314 . S
C448 C446 1.353 . S
C448 H506 0.930 . S
C449 N445 1.279 . S
C449 C447 1.358 . S
C449 H507 0.930 . S
C450 C453 1.348 . S
C450 C454 1.356 . S
C450 O501 1.325 . S
C451 N452 1.279 . S
C451 C454 1.358 . S
C451 H508 0.930 . S
N452 C451 1.279 . S
N452 C455 1.314 . S
C453 C450 1.348 . S
C453 C455 1.353 . S
C453 H509 0.929 . S
C454 C450 1.356 . S
C454 C451 1.358 . S
C454 H510 0.930 . S
C455 N452 1.314 . S
C455 C453 1.353 . S
C455 H511 0.930 . S
C456 N457 1.314 . S
C456 C461 1.353 . S
C456 H462 0.930 . S
N457 Li440 1.990 . S
N457 C456 1.314 . S
N457 C459 1.279 . S
C458 C459 1.358 . S
C458 C460 1.356 . S
C458 H512 0.930 . S
C459 N457 1.279 . S
C459 C458 1.358 . S
C459 H463 0.930 . S
C460 C458 1.356 . S
C460 C461 1.348 . S
C461 C456 1.353 . S
C461 C460 1.348 . S
C461 H513 0.929 . S
H462 C456 0.930 . S
H463 C459 0.930 . S
C464 N465 1.314 . S
C464 C466 1.353 . S
C464 H470 0.930 . S
N465 Li441 1.990 . S
N465 C464 1.314 . S
N465 C468 1.279 . S
C466 C464 1.353 . S
C466 C469 1.348 . S
C466 H514 0.929 . S
C467 C468 1.358 . S
C467 C469 1.356 . S
C467 H515 0.930 . S
C468 N465 1.279 . S
C468 C467 1.358 . S
C468 H471 0.930 . S
C469 C466 1.348 . S
C469 C467 1.356 . S
H470 C464 0.930 . S
H471 C468 0.930 . S
C472 C474 1.348 . S
C472 C475 1.356 . S
C472 O502 1.325 . S
N473 C476 1.314 . S
N473 C477 1.279 . S
C474 C472 1.348 . S
C474 C476 1.353 . S
C474 H516 0.929 . S
C475 C472 1.356 . S
C475 C477 1.358 . S
C475 H517 0.930 . S
C476 N473 1.314 . S
C476 C474 1.353 . S
C476 H518 0.930 . S
C477 N473 1.279 . S
C477 C475 1.358 . S
C477 H519 0.930 . S
C478 C479 1.348 . S
C478 C480 1.356 . S
C478 O503 1.325 . S
C479 C478 1.348 . S
C479 C481 1.353 . S
C479 H520 0.929 . S
C480 C478 1.356 . S
C480 C482 1.358 . S
C480 H521 0.930 . S
C481 C479 1.353 . S
C481 N483 1.314 . S
C481 H522 0.930 . S
C482 C480 1.358 . S
C482 N483 1.279 . S
C482 H523 0.930 . S
N483 C481 1.314 . S
N483 C482 1.279 . S
C484 C486 1.353 . S
C484 N487 1.314 . S
C484 H490 0.930 . S
C485 N487 1.279 . S
C485 C488 1.358 . S
C485 H491 0.930 . S
C486 C484 1.353 . S
C486 C489 1.348 . S
C486 H524 0.929 . S
N487 Li442 1.990 . S
N487 C484 1.314 . S
N487 C485 1.279 . S
C488 C485 1.358 . S
C488 C489 1.356 . S
C488 H525 0.930 . S
C489 C486 1.348 . S
C489 C488 1.356 . S
H490 C484 0.930 . S
H491 C485 0.930 . S
C492 N493 1.314 . S
C492 C494 1.353 . S
C492 H498 0.930 . S
N493 Li443 1.990 . S
N493 C492 1.314 . S
N493 C496 1.279 . S
C494 C492 1.353 . S
C494 C497 1.348 . S
C494 H526 0.929 . S
C495 C496 1.358 . S
C495 C497 1.356 . S
C495 H527 0.930 . S
C496 N493 1.279 . S
C496 C495 1.358 . S
C496 H499 0.930 . S
C497 C494 1.348 . S
C497 C495 1.356 . S
H498 C492 0.930 . S
H499 C496 0.930 . S
O500 Li440 1.956 . S
O500 Li441 1.970 . S
O500 Li442 1.961 . S
O500 C444 1.325 . S
O501 Li440 1.970 . S
O501 Li441 1.956 . S
O501 Li443 1.961 . S
O501 C450 1.325 . S
O502 Li440 1.961 . S
O502 Li442 1.956 . S
O502 Li443 1.970 . S
O502 C472 1.325 . S
O503 Li441 1.961 . S
O503 Li442 1.970 . S
O503 Li443 1.956 . S
O503 C478 1.325 . S
H504 C446 0.929 . S
H505 C447 0.930 . S
H506 C448 0.930 . S
H507 C449 0.930 . S
H508 C451 0.930 . S
H509 C453 0.929 . S
H510 C454 0.930 . S
H511 C455 0.930 . S
H512 C458 0.930 . S
H513 C461 0.929 . S
H514 C466 0.929 . S
H515 C467 0.930 . S
H516 C474 0.929 . S
H517 C475 0.930 . S
H518 C476 0.930 . S
H519 C477 0.930 . S
H520 C479 0.929 . S
H521 C480 0.930 . S
H522 C481 0.930 . S
H523 C482 0.930 . S
H524 C486 0.929 . S
H525 C488 0.930 . S
H526 C494 0.929 . S
H527 C495 0.930 . S
Li528 N545 1.990 . S
Li528 O588 1.956 . S
Li528 O589 1.970 . S
Li528 O590 1.961 . S
Li529 N553 1.990 . S
Li529 O588 1.970 . S
Li529 O589 1.956 . S
Li529 O591 1.961 . S
Li530 N575 1.990 . S
Li530 O588 1.961 . S
Li530 O590 1.956 . S
Li530 O591 1.970 . S
Li531 N581 1.990 . S
Li531 O589 1.961 . S
Li531 O590 1.970 . S
Li531 O591 1.956 . S
C532 C534 1.348 . S
C532 C535 1.356 . S
C532 O588 1.325 . S
N533 C536 1.314 . S
N533 C537 1.279 . S
C534 C532 1.348 . S
C534 C536 1.353 . S
C534 H592 0.929 . S
C535 C532 1.356 . S
C535 C537 1.358 . S
C535 H593 0.930 . S
C536 N533 1.314 . S
C536 C534 1.353 . S
C536 H594 0.930 . S
C537 N533 1.279 . S
C537 C535 1.358 . S
C537 H595 0.930 . S
C538 C541 1.348 . S
C538 C542 1.356 . S
C538 O589 1.325 . S
C539 N540 1.279 . S
C539 C542 1.358 . S
C539 H596 0.930 . S
N540 C539 1.279 . S
N540 C543 1.314 . S
C541 C538 1.348 . S
C541 C543 1.353 . S
C541 H597 0.929 . S
C542 C538 1.356 . S
C542 C539 1.358 . S
C542 H598 0.930 . S
C543 N540 1.314 . S
C543 C541 1.353 . S
C543 H599 0.930 . S
C544 N545 1.314 . S
C544 C549 1.353 . S
C544 H550 0.930 . S
N545 Li528 1.990 . S
N545 C544 1.314 . S
N545 C547 1.279 . S
C546 C547 1.358 . S
C546 C548 1.356 . S
C546 H600 0.930 . S
C547 N545 1.279 . S
C547 C546 1.358 . S
C547 H551 0.930 . S
C548 C546 1.356 . S
C548 C549 1.348 . S
C549 C544 1.353 . S
C549 C548 1.348 . S
C549 H601 0.929 . S
H550 C544 0.930 . S
H551 C547 0.930 . S
C552 N553 1.314 . S
C552 C554 1.353 . S
C552 H558 0.930 . S
N553 Li529 1.990 . S
N553 C552 1.314 . S
N553 C556 1.279 . S
C554 C552 1.353 . S
C554 C557 1.348 . S
C554 H602 0.929 . S
C555 C556 1.358 . S
C555 C557 1.356 . S
C555 H603 0.930 . S
C556 N553 1.279 . S
C556 C555 1.358 . S
C556 H559 0.930 . S
C557 C554 1.348 . S
C557 C555 1.356 . S
H558 C552 0.930 . S
H559 C556 0.930 . S
C560 C562 1.348 . S
C560 C563 1.356 . S
C560 O590 1.325 . S
N561 C564 1.314 . S
N561 C565 1.279 . S
C562 C560 1.348 . S
C562 C564 1.353 . S
C562 H604 0.929 . S
C563 C560 1.356 . S
C563 C565 1.358 . S
C563 H605 0.930 . S
C564 N561 1.314 . S
C564 C562 1.353 . S
C564 H606 0.930 . S
C565 N561 1.279 . S
C565 C563 1.358 . S
C565 H607 0.930 . S
C566 C567 1.348 . S
C566 C568 1.356 . S
C566 O591 1.325 . S
C567 C566 1.348 . S
C567 C569 1.353 . S
C567 H608 0.929 . S
C568 C566 1.356 . S
C568 C570 1.358 . S
C568 H609 0.930 . S
C569 C567 1.353 . S
C569 N571 1.314 . S
C569 H610 0.930 . S
C570 C568 1.358 . S
C570 N571 1.279 . S
C570 H611 0.930 . S
N571 C569 1.314 . S
N571 C570 1.279 . S
C572 C574 1.353 . S
C572 N575 1.314 . S
C572 H578 0.930 . S
C573 N575 1.279 . S
C573 C576 1.358 . S
C573 H579 0.930 . S
C574 C572 1.353 . S
C574 C577 1.348 . S
C574 H612 0.929 . S
N575 Li530 1.990 . S
N575 C572 1.314 . S
N575 C573 1.279 . S
C576 C573 1.358 . S
C576 C577 1.356 . S
C576 H613 0.930 . S
C577 C574 1.348 . S
C577 C576 1.356 . S
H578 C572 0.930 . S
H579 C573 0.930 . S
C580 N581 1.314 . S
C580 C582 1.353 . S
C580 H586 0.930 . S
N581 Li531 1.990 . S
N581 C580 1.314 . S
N581 C584 1.279 . S
C582 C580 1.353 . S
C582 C585 1.348 . S
C582 H614 0.929 . S
C583 C584 1.358 . S
C583 C585 1.356 . S
C583 H615 0.930 . S
C584 N581 1.279 . S
C584 C583 1.358 . S
C584 H587 0.930 . S
C585 C582 1.348 . S
C585 C583 1.356 . S
H586 C580 0.930 . S
H587 C584 0.930 . S
O588 Li528 1.956 . S
O588 Li529 1.970 . S
O588 Li530 1.961 . S
O588 C532 1.325 . S
O589 Li528 1.970 . S
O589 Li529 1.956 . S
O589 Li531 1.961 . S
O589 C538 1.325 . S
O590 Li528 1.961 . S
O590 Li530 1.956 . S
O590 Li531 1.970 . S
O590 C560 1.325 . S
O591 Li529 1.961 . S
O591 Li530 1.970 . S
O591 Li531 1.956 . S
O591 C566 1.325 . S
H592 C534 0.929 . S
H593 C535 0.930 . S
H594 C536 0.930 . S
H595 C537 0.930 . S
H596 C539 0.930 . S
H597 C541 0.929 . S
H598 C542 0.930 . S
H599 C543 0.930 . S
H600 C546 0.930 . S
H601 C549 0.929 . S
H602 C554 0.929 . S
H603 C555 0.930 . S
H604 C562 0.929 . S
H605 C563 0.930 . S
H606 C564 0.930 . S
H607 C565 0.930 . S
H608 C567 0.929 . S
H609 C568 0.930 . S
H610 C569 0.930 . S
H611 C570 0.930 . S
H612 C574 0.929 . S
H613 C576 0.930 . S
H614 C582 0.929 . S
H615 C583 0.930 . S
Li616 N633 1.990 . S
Li616 O676 1.956 . S
Li616 O677 1.970 . S
Li616 O678 1.961 . S
Li617 N641 1.990 . S
Li617 O676 1.970 . S
Li617 O677 1.956 . S
Li617 O679 1.961 . S
Li618 N663 1.990 . S
Li618 O676 1.961 . S
Li618 O678 1.956 . S
Li618 O679 1.970 . S
Li619 N669 1.990 . S
Li619 O677 1.961 . S
Li619 O678 1.970 . S
Li619 O679 1.956 . S
C620 C622 1.348 . S
C620 C623 1.356 . S
C620 O676 1.325 . S
N621 C624 1.314 . S
N621 C625 1.279 . S
C622 C620 1.348 . S
C622 C624 1.353 . S
C622 H680 0.929 . S
C623 C620 1.356 . S
C623 C625 1.358 . S
C623 H681 0.930 . S
C624 N621 1.314 . S
C624 C622 1.353 . S
C624 H682 0.930 . S
C625 N621 1.279 . S
C625 C623 1.358 . S
C625 H683 0.930 . S
C626 C629 1.348 . S
C626 C630 1.356 . S
C626 O677 1.325 . S
C627 N628 1.279 . S
C627 C630 1.358 . S
C627 H684 0.930 . S
N628 C627 1.279 . S
N628 C631 1.314 . S
C629 C626 1.348 . S
C629 C631 1.353 . S
C629 H685 0.929 . S
C630 C626 1.356 . S
C630 C627 1.358 . S
C630 H686 0.930 . S
C631 N628 1.314 . S
C631 C629 1.353 . S
C631 H687 0.930 . S
C632 N633 1.314 . S
C632 C637 1.353 . S
C632 H638 0.930 . S
N633 Li616 1.990 . S
N633 C632 1.314 . S
N633 C635 1.279 . S
C634 C635 1.358 . S
C634 C636 1.356 . S
C634 H688 0.930 . S
C635 N633 1.279 . S
C635 C634 1.358 . S
C635 H639 0.930 . S
C636 C634 1.356 . S
C636 C637 1.348 . S
C637 C632 1.353 . S
C637 C636 1.348 . S
C637 H689 0.929 . S
H638 C632 0.930 . S
H639 C635 0.930 . S
C640 N641 1.314 . S
C640 C642 1.353 . S
C640 H646 0.930 . S
N641 Li617 1.990 . S
N641 C640 1.314 . S
N641 C644 1.279 . S
C642 C640 1.353 . S
C642 C645 1.348 . S
C642 H690 0.929 . S
C643 C644 1.358 . S
C643 C645 1.356 . S
C643 H691 0.930 . S
C644 N641 1.279 . S
C644 C643 1.358 . S
C644 H647 0.930 . S
C645 C642 1.348 . S
C645 C643 1.356 . S
H646 C640 0.930 . S
H647 C644 0.930 . S
C648 C650 1.348 . S
C648 C651 1.356 . S
C648 O678 1.325 . S
N649 C652 1.314 . S
N649 C653 1.279 . S
C650 C648 1.348 . S
C650 C652 1.353 . S
C650 H692 0.929 . S
C651 C648 1.356 . S
C651 C653 1.358 . S
C651 H693 0.930 . S
C652 N649 1.314 . S
C652 C650 1.353 . S
C652 H694 0.930 . S
C653 N649 1.279 . S
C653 C651 1.358 . S
C653 H695 0.930 . S
C654 C655 1.348 . S
C654 C656 1.356 . S
C654 O679 1.325 . S
C655 C654 1.348 . S
C655 C657 1.353 . S
C655 H696 0.929 . S
C656 C654 1.356 . S
C656 C658 1.358 . S
C656 H697 0.930 . S
C657 C655 1.353 . S
C657 N659 1.314 . S
C657 H698 0.930 . S
C658 C656 1.358 . S
C658 N659 1.279 . S
C658 H699 0.930 . S
N659 C657 1.314 . S
N659 C658 1.279 . S
C660 C662 1.353 . S
C660 N663 1.314 . S
C660 H666 0.930 . S
C661 N663 1.279 . S
C661 C664 1.358 . S
C661 H667 0.930 . S
C662 C660 1.353 . S
C662 C665 1.348 . S
C662 H700 0.929 . S
N663 Li618 1.990 . S
N663 C660 1.314 . S
N663 C661 1.279 . S
C664 C661 1.358 . S
C664 C665 1.356 . S
C664 H701 0.930 . S
C665 C662 1.348 . S
C665 C664 1.356 . S
H666 C660 0.930 . S
H667 C661 0.930 . S
C668 N669 1.314 . S
C668 C670 1.353 . S
C668 H674 0.930 . S
N669 Li619 1.990 . S
N669 C668 1.314 . S
N669 C672 1.279 . S
C670 C668 1.353 . S
C670 C673 1.348 . S
C670 H702 0.929 . S
C671 C672 1.358 . S
C671 C673 1.356 . S
C671 H703 0.930 . S
C672 N669 1.279 . S
C672 C671 1.358 . S
C672 H675 0.930 . S
C673 C670 1.348 . S
C673 C671 1.356 . S
H674 C668 0.930 . S
H675 C672 0.930 . S
O676 Li616 1.956 . S
O676 Li617 1.970 . S
O676 Li618 1.961 . S
O676 C620 1.325 . S
O677 Li616 1.970 . S
O677 Li617 1.956 . S
O677 Li619 1.961 . S
O677 C626 1.325 . S
O678 Li616 1.961 . S
O678 Li618 1.956 . S
O678 Li619 1.970 . S
O678 C648 1.325 . S
O679 Li617 1.961 . S
O679 Li618 1.970 . S
O679 Li619 1.956 . S
O679 C654 1.325 . S
H680 C622 0.929 . S
H681 C623 0.930 . S
H682 C624 0.930 . S
H683 C625 0.930 . S
H684 C627 0.930 . S
H685 C629 0.929 . S
H686 C630 0.930 . S
H687 C631 0.930 . S
H688 C634 0.930 . S
H689 C637 0.929 . S
H690 C642 0.929 . S
H691 C643 0.930 . S
H692 C650 0.929 . S
H693 C651 0.930 . S
H694 C652 0.930 . S
H695 C653 0.930 . S
H696 C655 0.929 . S
H697 C656 0.930 . S
H698 C657 0.930 . S
H699 C658 0.930 . S
H700 C662 0.929 . S
H701 C664 0.930 . S
H702 C670 0.929 . S
H703 C671 0.930 . S
Li704 N721 1.990 . S
Li704 O764 1.956 . S
Li704 O765 1.970 . S
Li704 O766 1.961 . S
Li705 N729 1.990 . S
Li705 O764 1.970 . S
Li705 O765 1.956 . S
Li705 O767 1.961 . S
Li706 N751 1.990 . S
Li706 O764 1.961 . S
Li706 O766 1.956 . S
Li706 O767 1.970 . S
Li707 N757 1.990 . S
Li707 O765 1.961 . S
Li707 O766 1.970 . S
Li707 O767 1.956 . S
C708 C710 1.348 . S
C708 C711 1.356 . S
C708 O764 1.325 . S
N709 C712 1.314 . S
N709 C713 1.279 . S
C710 C708 1.348 . S
C710 C712 1.353 . S
C710 H768 0.929 . S
C711 C708 1.356 . S
C711 C713 1.358 . S
C711 H769 0.930 . S
C712 N709 1.314 . S
C712 C710 1.353 . S
C712 H770 0.930 . S
C713 N709 1.279 . S
C713 C711 1.358 . S
C713 H771 0.930 . S
C714 C717 1.348 . S
C714 C718 1.355 . S
C714 O765 1.325 . S
C715 N716 1.279 . S
C715 C718 1.360 1_565 S
C715 H772 0.930 . S
N716 C715 1.279 . S
N716 C719 1.314 . S
C717 C714 1.348 . S
C717 C719 1.353 1_545 S
C717 H773 0.929 . S
C718 C714 1.355 . S
C718 C715 1.360 1_545 S
C718 H774 0.929 . S
C719 N716 1.314 . S
C719 C717 1.353 1_565 S
C719 H775 0.930 . S
C720 N721 1.314 . S
C720 C725 1.353 . S
C720 H726 0.930 . S
N721 Li704 1.990 . S
N721 C720 1.314 . S
N721 C723 1.279 . S
C722 C723 1.358 . S
C722 C724 1.356 . S
C722 H776 0.930 . S
C723 N721 1.279 . S
C723 C722 1.358 . S
C723 H727 0.930 . S
C724 C722 1.356 . S
C724 C725 1.348 . S
C725 C720 1.353 . S
C725 C724 1.348 . S
C725 H777 0.929 . S
H726 C720 0.930 . S
H727 C723 0.930 . S
C728 N729 1.314 . S
C728 C730 1.353 . S
C728 H734 0.930 . S
N729 Li705 1.990 . S
N729 C728 1.314 . S
N729 C732 1.279 . S
C730 C728 1.353 . S
C730 C733 1.348 . S
C730 H778 0.929 . S
C731 C732 1.358 . S
C731 C733 1.356 . S
C731 H779 0.930 . S
C732 N729 1.279 . S
C732 C731 1.358 . S
C732 H735 0.930 . S
C733 C730 1.348 . S
C733 C731 1.356 . S
H734 C728 0.930 . S
H735 C732 0.930 . S
C736 C738 1.348 . S
C736 C739 1.356 . S
C736 O766 1.325 . S
N737 C740 1.314 . S
N737 C741 1.279 . S
C738 C736 1.348 . S
C738 C740 1.353 . S
C738 H780 0.929 . S
C739 C736 1.356 . S
C739 C741 1.358 . S
C739 H781 0.930 . S
C740 N737 1.314 . S
C740 C738 1.353 . S
C740 H782 0.930 . S
C741 N737 1.279 . S
C741 C739 1.358 . S
C741 H783 0.930 . S
C742 C743 1.348 . S
C742 C744 1.356 . S
C742 O767 1.325 . S
C743 C742 1.348 . S
C743 C745 1.353 . S
C743 H784 0.929 . S
C744 C742 1.356 . S
C744 C746 1.358 . S
C744 H785 0.930 . S
C745 C743 1.353 . S
C745 N747 1.314 . S
C745 H786 0.930 . S
C746 C744 1.358 . S
C746 N747 1.279 . S
C746 H787 0.930 . S
N747 C745 1.314 . S
N747 C746 1.279 . S
C748 C750 1.353 . S
C748 N751 1.314 . S
C748 H754 0.930 . S
C749 N751 1.279 . S
C749 C752 1.358 . S
C749 H755 0.930 . S
C750 C748 1.353 . S
C750 C753 1.348 . S
C750 H788 0.929 . S
N751 Li706 1.990 . S
N751 C748 1.314 . S
N751 C749 1.279 . S
C752 C749 1.358 . S
C752 C753 1.356 . S
C752 H789 0.930 . S
C753 C750 1.348 . S
C753 C752 1.356 . S
H754 C748 0.930 . S
H755 C749 0.930 . S
C756 N757 1.314 1_565 S
C756 C758 1.353 . S
C756 H762 0.930 . S
N757 Li707 1.990 . S
N757 C756 1.314 1_545 S
N757 C760 1.279 . S
C758 C756 1.353 . S
C758 C761 1.348 . S
C758 H790 0.929 . S
C759 C760 1.358 1_565 S
C759 C761 1.356 . S
C759 H791 0.930 . S
C760 N757 1.279 . S
C760 C759 1.358 1_545 S
C760 H763 0.930 . S
C761 C758 1.348 . S
C761 C759 1.356 . S
H762 C756 0.930 . S
H763 C760 0.930 . S
O764 Li704 1.956 . S
O764 Li705 1.970 . S
O764 Li706 1.961 . S
O764 C708 1.325 . S
O765 Li704 1.970 . S
O765 Li705 1.956 . S
O765 Li707 1.961 . S
O765 C714 1.325 . S
O766 Li704 1.961 . S
O766 Li706 1.956 . S
O766 Li707 1.970 . S
O766 C736 1.325 . S
O767 Li705 1.961 . S
O767 Li706 1.970 . S
O767 Li707 1.956 . S
O767 C742 1.325 . S
H768 C710 0.929 . S
H769 C711 0.930 . S
H770 C712 0.930 . S
H771 C713 0.930 . S
H772 C715 0.930 . S
H773 C717 0.929 . S
H774 C718 0.929 . S
H775 C719 0.930 . S
H776 C722 0.930 . S
H777 C725 0.929 . S
H778 C730 0.929 . S
H779 C731 0.930 . S
H780 C738 0.929 . S
H781 C739 0.930 . S
H782 C740 0.930 . S
H783 C741 0.930 . S
H784 C743 0.929 . S
H785 C744 0.930 . S
H786 C745 0.930 . S
H787 C746 0.930 . S
H788 C750 0.929 . S
H789 C752 0.930 . S
H790 C758 0.929 . S
H791 C759 0.930 . S
Li792 N809 1.990 . S
Li792 O852 1.956 . S
Li792 O853 1.970 . S
Li792 O854 1.961 . S
Li793 N817 1.990 . S
Li793 O852 1.970 . S
Li793 O853 1.956 . S
Li793 O855 1.961 . S
Li794 N839 1.990 . S
Li794 O852 1.961 . S
Li794 O854 1.956 . S
Li794 O855 1.970 . S
Li795 N845 1.990 . S
Li795 O853 1.961 . S
Li795 O854 1.970 . S
Li795 O855 1.956 . S
C796 C798 1.348 . S
C796 C799 1.356 . S
C796 O852 1.325 . S
N797 C800 1.314 . S
N797 C801 1.279 . S
C798 C796 1.348 . S
C798 C800 1.353 . S
C798 H856 0.929 . S
C799 C796 1.356 . S
C799 C801 1.358 . S
C799 H857 0.930 . S
C800 N797 1.314 . S
C800 C798 1.353 . S
C800 H858 0.930 . S
C801 N797 1.279 . S
C801 C799 1.358 . S
C801 H859 0.930 . S
C802 C805 1.348 . S
C802 C806 1.356 . S
C802 O853 1.325 . S
C803 N804 1.279 . S
C803 C806 1.358 . S
C803 H860 0.930 . S
N804 C803 1.279 . S
N804 C807 1.314 . S
C805 C802 1.348 . S
C805 C807 1.353 . S
C805 H861 0.929 . S
C806 C802 1.356 . S
C806 C803 1.358 . S
C806 H862 0.930 . S
C807 N804 1.314 . S
C807 C805 1.353 . S
C807 H863 0.930 . S
C808 N809 1.314 . S
C808 C813 1.353 . S
C808 H814 0.930 . S
N809 Li792 1.990 . S
N809 C808 1.314 . S
N809 C811 1.279 . S
C810 C811 1.358 . S
C810 C812 1.356 . S
C810 H864 0.930 . S
C811 N809 1.279 . S
C811 C810 1.358 . S
C811 H815 0.930 . S
C812 C810 1.356 . S
C812 C813 1.348 . S
C813 C808 1.353 . S
C813 C812 1.348 . S
C813 H865 0.929 . S
H814 C808 0.930 . S
H815 C811 0.930 . S
C816 N817 1.314 1_565 S
C816 C818 1.353 . S
C816 H822 0.930 . S
N817 Li793 1.990 . S
N817 C816 1.314 1_545 S
N817 C820 1.279 . S
C818 C816 1.353 . S
C818 C821 1.348 . S
C818 H866 0.929 . S
C819 C820 1.358 1_565 S
C819 C821 1.356 . S
C819 H867 0.930 . S
C820 N817 1.279 . S
C820 C819 1.358 1_545 S
C820 H823 0.930 . S
C821 C818 1.348 . S
C821 C819 1.356 . S
H822 C816 0.930 . S
H823 C820 0.930 . S
C824 C826 1.348 . S
C824 C827 1.356 . S
C824 O854 1.325 . S
N825 C828 1.314 . S
N825 C829 1.279 . S
C826 C824 1.348 . S
C826 C828 1.353 . S
C826 H868 0.929 . S
C827 C824 1.356 . S
C827 C829 1.358 . S
C827 H869 0.930 . S
C828 N825 1.314 . S
C828 C826 1.353 . S
C828 H870 0.930 . S
C829 N825 1.279 . S
C829 C827 1.358 . S
C829 H871 0.930 . S
C830 C831 1.348 . S
C830 C832 1.355 . S
C830 O855 1.325 . S
C831 C830 1.348 . S
C831 C833 1.353 1_545 S
C831 H872 0.929 . S
C832 C830 1.355 . S
C832 C834 1.360 1_545 S
C832 H873 0.929 . S
C833 C831 1.353 1_565 S
C833 N835 1.314 . S
C833 H874 0.930 . S
C834 C832 1.360 1_565 S
C834 N835 1.279 . S
C834 H875 0.930 . S
N835 C833 1.314 . S
N835 C834 1.279 . S
C836 C838 1.353 . S
C836 N839 1.314 . S
C836 H842 0.930 . S
C837 N839 1.279 . S
C837 C840 1.358 . S
C837 H843 0.930 . S
C838 C836 1.353 . S
C838 C841 1.348 . S
C838 H876 0.929 . S
N839 Li794 1.990 . S
N839 C836 1.314 . S
N839 C837 1.279 . S
C840 C837 1.358 . S
C840 C841 1.356 . S
C840 H877 0.930 . S
C841 C838 1.348 . S
C841 C840 1.356 . S
H842 C836 0.930 . S
H843 C837 0.930 . S
C844 N845 1.314 . S
C844 C846 1.353 . S
C844 H850 0.930 . S
N845 Li795 1.990 . S
N845 C844 1.314 . S
N845 C848 1.279 . S
C846 C844 1.353 . S
C846 C849 1.348 . S
C846 H878 0.929 . S
C847 C848 1.358 . S
C847 C849 1.356 . S
C847 H879 0.930 . S
C848 N845 1.279 . S
C848 C847 1.358 . S
C848 H851 0.930 . S
C849 C846 1.348 . S
C849 C847 1.356 . S
H850 C844 0.930 . S
H851 C848 0.930 . S
O852 Li792 1.956 . S
O852 Li793 1.970 . S
O852 Li794 1.961 . S
O852 C796 1.325 . S
O853 Li792 1.970 . S
O853 Li793 1.956 . S
O853 Li795 1.961 . S
O853 C802 1.325 . S
O854 Li792 1.961 . S
O854 Li794 1.956 . S
O854 Li795 1.970 . S
O854 C824 1.325 . S
O855 Li793 1.961 . S
O855 Li794 1.970 . S
O855 Li795 1.956 . S
O855 C830 1.325 . S
H856 C798 0.929 . S
H857 C799 0.930 . S
H858 C800 0.930 . S
H859 C801 0.930 . S
H860 C803 0.930 . S
H861 C805 0.929 . S
H862 C806 0.930 . S
H863 C807 0.930 . S
H864 C810 0.930 . S
H865 C813 0.929 . S
H866 C818 0.929 . S
H867 C819 0.930 . S
H868 C826 0.929 . S
H869 C827 0.930 . S
H870 C828 0.930 . S
H871 C829 0.930 . S
H872 C831 0.929 . S
H873 C832 0.929 . S
H874 C833 0.930 . S
H875 C834 0.930 . S
H876 C838 0.929 . S
H877 C840 0.930 . S
H878 C846 0.929 . S
H879 C847 0.930 . S
Li880 N897 1.990 . S
Li880 O940 1.956 . S
Li880 O941 1.970 . S
Li880 O942 1.961 . S
Li881 N905 1.990 . S
Li881 O940 1.970 . S
Li881 O941 1.956 . S
Li881 O943 1.961 . S
Li882 N927 1.990 . S
Li882 O940 1.961 . S
Li882 O942 1.956 . S
Li882 O943 1.970 . S
Li883 N933 1.990 . S
Li883 O941 1.961 . S
Li883 O942 1.970 . S
Li883 O943 1.956 . S
C884 C886 1.348 . S
C884 C887 1.356 . S
C884 O940 1.325 . S
N885 C888 1.314 . S
N885 C889 1.279 . S
C886 C884 1.348 . S
C886 C888 1.353 . S
C886 H944 0.929 . S
C887 C884 1.356 . S
C887 C889 1.358 . S
C887 H945 0.930 . S
C888 N885 1.314 . S
C888 C886 1.353 . S
C888 H946 0.930 . S
C889 N885 1.279 . S
C889 C887 1.358 . S
C889 H947 0.930 . S
C890 C893 1.348 . S
C890 C894 1.356 . S
C890 O941 1.325 . S
C891 N892 1.279 . S
C891 C894 1.358 . S
C891 H948 0.930 . S
N892 C891 1.279 . S
N892 C895 1.314 . S
C893 C890 1.348 . S
C893 C895 1.353 . S
C893 H949 0.929 . S
C894 C890 1.356 . S
C894 C891 1.358 . S
C894 H950 0.930 . S
C895 N892 1.314 . S
C895 C893 1.353 . S
C895 H951 0.930 . S
C896 N897 1.314 . S
C896 C901 1.353 . S
C896 H902 0.930 . S
N897 Li880 1.990 . S
N897 C896 1.314 . S
N897 C899 1.279 . S
C898 C899 1.358 . S
C898 C900 1.356 . S
C898 H952 0.930 . S
C899 N897 1.279 . S
C899 C898 1.358 . S
C899 H903 0.930 . S
C900 C898 1.356 . S
C900 C901 1.348 . S
C901 C896 1.353 . S
C901 C900 1.348 . S
C901 H953 0.929 . S
H902 C896 0.930 . S
H903 C899 0.930 . S
C904 N905 1.314 . S
C904 C906 1.353 . S
C904 H910 0.930 . S
N905 Li881 1.990 . S
N905 C904 1.314 . S
N905 C908 1.279 . S
C906 C904 1.353 . S
C906 C909 1.348 . S
C906 H954 0.929 . S
C907 C908 1.358 . S
C907 C909 1.356 . S
C907 H955 0.930 . S
C908 N905 1.279 . S
C908 C907 1.358 . S
C908 H911 0.930 . S
C909 C906 1.348 . S
C909 C907 1.356 . S
H910 C904 0.930 . S
H911 C908 0.930 . S
C912 C914 1.348 . S
C912 C915 1.356 . S
C912 O942 1.325 . S
N913 C916 1.314 . S
N913 C917 1.279 . S
C914 C912 1.348 . S
C914 C916 1.353 1_565 S
C914 H956 0.929 . S
C915 C912 1.356 . S
C915 C917 1.358 1_565 S
C915 H957 0.930 . S
C916 N913 1.314 . S
C916 C914 1.353 1_545 S
C916 H958 0.930 . S
C917 N913 1.279 . S
C917 C915 1.358 1_545 S
C917 H959 0.930 . S
C918 C919 1.348 . S
C918 C920 1.356 . S
C918 O943 1.325 . S
C919 C918 1.348 . S
C919 C921 1.353 . S
C919 H960 0.929 . S
C920 C918 1.356 . S
C920 C922 1.358 . S
C920 H961 0.930 . S
C921 C919 1.353 . S
C921 N923 1.314 . S
C921 H962 0.930 . S
C922 C920 1.358 . S
C922 N923 1.279 . S
C922 H963 0.930 . S
N923 C921 1.314 . S
N923 C922 1.279 . S
C924 C926 1.353 1_565 S
C924 N927 1.314 . S
C924 H930 0.930 . S
C925 N927 1.279 1_545 S
C925 C928 1.358 . S
C925 H931 0.930 . S
C926 C924 1.353 1_545 S
C926 C929 1.348 . S
C926 H964 0.929 . S
N927 Li882 1.990 . S
N927 C924 1.314 . S
N927 C925 1.279 1_565 S
C928 C925 1.358 . S
C928 C929 1.356 . S
C928 H965 0.930 . S
C929 C926 1.348 . S
C929 C928 1.356 . S
H930 C924 0.930 . S
H931 C925 0.930 . S
C932 N933 1.314 . S
C932 C934 1.353 . S
C932 H938 0.930 . S
N933 Li883 1.990 . S
N933 C932 1.314 . S
N933 C936 1.279 . S
C934 C932 1.353 . S
C934 C937 1.348 . S
C934 H966 0.929 . S
C935 C936 1.358 . S
C935 C937 1.356 . S
C935 H967 0.930 . S
C936 N933 1.279 . S
C936 C935 1.358 . S
C936 H939 0.930 . S
C937 C934 1.348 . S
C937 C935 1.356 . S
H938 C932 0.930 . S
H939 C936 0.930 . S
O940 Li880 1.956 . S
O940 Li881 1.970 . S
O940 Li882 1.961 . S
O940 C884 1.325 . S
O941 Li880 1.970 . S
O941 Li881 1.956 . S
O941 Li883 1.961 . S
O941 C890 1.325 . S
O942 Li880 1.961 . S
O942 Li882 1.956 . S
O942 Li883 1.970 . S
O942 C912 1.325 . S
O943 Li881 1.961 . S
O943 Li882 1.970 . S
O943 Li883 1.956 . S
O943 C918 1.325 . S
H944 C886 0.929 . S
H945 C887 0.930 . S
H946 C888 0.930 . S
H947 C889 0.930 . S
H948 C891 0.930 . S
H949 C893 0.929 . S
H950 C894 0.930 . S
H951 C895 0.930 . S
H952 C898 0.930 . S
H953 C901 0.929 . S
H954 C906 0.929 . S
H955 C907 0.930 . S
H956 C914 0.929 . S
H957 C915 0.930 . S
H958 C916 0.930 . S
H959 C917 0.930 . S
H960 C919 0.929 . S
H961 C920 0.930 . S
H962 C921 0.930 . S
H963 C922 0.930 . S
H964 C926 0.929 . S
H965 C928 0.930 . S
H966 C934 0.929 . S
H967 C935 0.930 . S
Li968 N985 1.990 . S
Li968 O1028 1.956 . S
Li968 O1029 1.970 . S
Li968 O1030 1.961 . S
Li969 N993 1.990 . S
Li969 O1028 1.970 . S
Li969 O1029 1.956 . S
Li969 O1031 1.961 . S
Li970 N1015 1.990 . S
Li970 O1028 1.961 . S
Li970 O1030 1.956 . S
Li970 O1031 1.970 . S
Li971 N1021 1.990 . S
Li971 O1029 1.961 . S
Li971 O1030 1.970 . S
Li971 O1031 1.956 . S
C972 C974 1.348 . S
C972 C975 1.356 . S
C972 O1028 1.325 . S
N973 C976 1.314 . S
N973 C977 1.279 . S
C974 C972 1.348 . S
C974 C976 1.353 1_565 S
C974 H1032 0.929 . S
C975 C972 1.356 . S
C975 C977 1.358 1_565 S
C975 H1033 0.930 . S
C976 N973 1.314 . S
C976 C974 1.353 1_545 S
C976 H1034 0.930 . S
C977 N973 1.279 . S
C977 C975 1.358 1_545 S
C977 H1035 0.930 . S
C978 C981 1.348 . S
C978 C982 1.356 . S
C978 O1029 1.325 . S
C979 N980 1.279 . S
C979 C982 1.358 . S
C979 H1036 0.930 . S
N980 C979 1.279 . S
N980 C983 1.314 . S
C981 C978 1.348 . S
C981 C983 1.353 . S
C981 H1037 0.929 . S
C982 C978 1.356 . S
C982 C979 1.358 . S
C982 H1038 0.930 . S
C983 N980 1.314 . S
C983 C981 1.353 . S
C983 H1039 0.930 . S
C984 N985 1.314 . S
C984 C989 1.353 1_565 S
C984 H990 0.930 . S
N985 Li968 1.990 . S
N985 C984 1.314 . S
N985 C987 1.279 1_565 S
C986 C987 1.358 . S
C986 C988 1.356 . S
C986 H1040 0.930 . S
C987 N985 1.279 1_545 S
C987 C986 1.358 . S
C987 H991 0.930 . S
C988 C986 1.356 . S
C988 C989 1.348 . S
C989 C984 1.353 1_545 S
C989 C988 1.348 . S
C989 H1041 0.929 . S
H990 C984 0.930 . S
H991 C987 0.930 . S
C992 N993 1.314 . S
C992 C994 1.353 . S
C992 H998 0.930 . S
N993 Li969 1.990 . S
N993 C992 1.314 . S
N993 C996 1.279 . S
C994 C992 1.353 . S
C994 C997 1.348 . S
C994 H1042 0.929 . S
C995 C996 1.358 . S
C995 C997 1.356 . S
C995 H1043 0.930 . S
C996 N993 1.279 . S
C996 C995 1.358 . S
C996 H999 0.930 . S
C997 C994 1.348 . S
C997 C995 1.356 . S
H998 C992 0.930 . S
H999 C996 0.930 . S
C1000 C1002 1.348 . S
C1000 C1003 1.356 . S
C1000 O1030 1.325 . S
N1001 C1004 1.314 . S
N1001 C1005 1.279 . S
C1002 C1000 1.348 . S
C1002 C1004 1.353 . S
C1002 H1044 0.929 . S
C1003 C1000 1.356 . S
C1003 C1005 1.358 . S
C1003 H1045 0.930 . S
C1004 N1001 1.314 . S
C1004 C1002 1.353 . S
C1004 H1046 0.930 . S
C1005 N1001 1.279 . S
C1005 C1003 1.358 . S
C1005 H1047 0.930 . S
C1006 C1007 1.348 . S
C1006 C1008 1.356 . S
C1006 O1031 1.325 . S
C1007 C1006 1.348 . S
C1007 C1009 1.353 . S
C1007 H1048 0.929 . S
C1008 C1006 1.356 . S
C1008 C1010 1.358 . S
C1008 H1049 0.930 . S
C1009 C1007 1.353 . S
C1009 N1011 1.314 . S
C1009 H1050 0.930 . S
C1010 C1008 1.358 . S
C1010 N1011 1.279 . S
C1010 H1051 0.930 . S
N1011 C1009 1.314 . S
N1011 C1010 1.279 . S
C1012 C1014 1.353 . S
C1012 N1015 1.314 . S
C1012 H1018 0.930 . S
C1013 N1015 1.279 . S
C1013 C1016 1.358 . S
C1013 H1019 0.930 . S
C1014 C1012 1.353 . S
C1014 C1017 1.348 . S
C1014 H1052 0.929 . S
N1015 Li970 1.990 . S
N1015 C1012 1.314 . S
N1015 C1013 1.279 . S
C1016 C1013 1.358 . S
C1016 C1017 1.356 . S
C1016 H1053 0.930 . S
C1017 C1014 1.348 . S
C1017 C1016 1.356 . S
H1018 C1012 0.930 . S
H1019 C1013 0.930 . S
C1020 N1021 1.314 . S
C1020 C1022 1.353 . S
C1020 H1026 0.930 . S
N1021 Li971 1.990 . S
N1021 C1020 1.314 . S
N1021 C1024 1.279 . S
C1022 C1020 1.353 . S
C1022 C1025 1.348 . S
C1022 H1054 0.929 . S
C1023 C1024 1.358 . S
C1023 C1025 1.356 . S
C1023 H1055 0.930 . S
C1024 N1021 1.279 . S
C1024 C1023 1.358 . S
C1024 H1027 0.930 . S
C1025 C1022 1.348 . S
C1025 C1023 1.356 . S
H1026 C1020 0.930 . S
H1027 C1024 0.930 . S
O1028 Li968 1.956 . S
O1028 Li969 1.970 . S
O1028 Li970 1.961 . S
O1028 C972 1.325 . S
O1029 Li968 1.970 . S
O1029 Li969 1.956 . S
O1029 Li971 1.961 . S
O1029 C978 1.325 . S
O1030 Li968 1.961 . S
O1030 Li970 1.956 . S
O1030 Li971 1.970 . S
O1030 C1000 1.325 . S
O1031 Li969 1.961 . S
O1031 Li970 1.970 . S
O1031 Li971 1.956 . S
O1031 C1006 1.325 . S
H1032 C974 0.929 . S
H1033 C975 0.930 . S
H1034 C976 0.930 . S
H1035 C977 0.930 . S
H1036 C979 0.930 . S
H1037 C981 0.929 . S
H1038 C982 0.930 . S
H1039 C983 0.930 . S
H1040 C986 0.930 . S
H1041 C989 0.929 . S
H1042 C994 0.929 . S
H1043 C995 0.930 . S
H1044 C1002 0.929 . S
H1045 C1003 0.930 . S
H1046 C1004 0.930 . S
H1047 C1005 0.930 . S
H1048 C1007 0.929 . S
H1049 C1008 0.930 . S
H1050 C1009 0.930 . S
H1051 C1010 0.930 . S
H1052 C1014 0.929 . S
H1053 C1016 0.930 . S
H1054 C1022 0.929 . S
H1055 C1023 0.930 . S
Li1056 N1073 1.990 . S
Li1056 O1116 1.956 . S
Li1056 O1117 1.970 . S
Li1056 O1118 1.961 . S
Li1057 N1081 1.990 . S
Li1057 O1116 1.970 . S
Li1057 O1117 1.956 . S
Li1057 O1119 1.961 . S
Li1058 N1103 1.990 . S
Li1058 O1116 1.961 . S
Li1058 O1118 1.956 . S
Li1058 O1119 1.970 . S
Li1059 N1109 1.990 . S
Li1059 O1117 1.961 . S
Li1059 O1118 1.970 . S
Li1059 O1119 1.956 . S
C1060 C1062 1.348 . S
C1060 C1063 1.356 . S
C1060 O1116 1.325 . S
N1061 C1064 1.314 . S
N1061 C1065 1.279 . S
C1062 C1060 1.348 . S
C1062 C1064 1.353 . S
C1062 H1120 0.929 . S
C1063 C1060 1.356 . S
C1063 C1065 1.358 . S
C1063 H1121 0.930 . S
C1064 N1061 1.314 . S
C1064 C1062 1.353 . S
C1064 H1122 0.930 . S
C1065 N1061 1.279 . S
C1065 C1063 1.358 . S
C1065 H1123 0.930 . S
C1066 C1069 1.348 . S
C1066 C1070 1.356 . S
C1066 O1117 1.325 . S
C1067 N1068 1.279 . S
C1067 C1070 1.358 . S
C1067 H1124 0.930 . S
N1068 C1067 1.279 . S
N1068 C1071 1.314 . S
C1069 C1066 1.348 . S
C1069 C1071 1.353 . S
C1069 H1125 0.929 . S
C1070 C1066 1.356 . S
C1070 C1067 1.358 . S
C1070 H1126 0.930 . S
C1071 N1068 1.314 . S
C1071 C1069 1.353 . S
C1071 H1127 0.930 . S
C1072 N1073 1.314 . S
C1072 C1077 1.353 . S
C1072 H1078 0.930 . S
N1073 Li1056 1.990 . S
N1073 C1072 1.314 . S
N1073 C1075 1.279 . S
C1074 C1075 1.358 . S
C1074 C1076 1.356 . S
C1074 H1128 0.930 . S
C1075 N1073 1.279 . S
C1075 C1074 1.358 . S
C1075 H1079 0.930 . S
C1076 C1074 1.356 . S
C1076 C1077 1.348 . S
C1077 C1072 1.353 . S
C1077 C1076 1.348 . S
C1077 H1129 0.929 . S
H1078 C1072 0.930 . S
H1079 C1075 0.930 . S
C1080 N1081 1.314 . S
C1080 C1082 1.353 . S
C1080 H1086 0.930 . S
N1081 Li1057 1.990 . S
N1081 C1080 1.314 . S
N1081 C1084 1.279 . S
C1082 C1080 1.353 . S
C1082 C1085 1.348 . S
C1082 H1130 0.929 . S
C1083 C1084 1.358 . S
C1083 C1085 1.356 . S
C1083 H1131 0.930 . S
C1084 N1081 1.279 . S
C1084 C1083 1.358 . S
C1084 H1087 0.930 . S
C1085 C1082 1.348 . S
C1085 C1083 1.356 . S
H1086 C1080 0.930 . S
H1087 C1084 0.930 . S
C1088 C1090 1.348 . S
C1088 C1091 1.356 . S
C1088 O1118 1.325 . S
N1089 C1092 1.314 . S
N1089 C1093 1.279 . S
C1090 C1088 1.348 . S
C1090 C1092 1.353 . S
C1090 H1132 0.929 . S
C1091 C1088 1.356 . S
C1091 C1093 1.358 . S
C1091 H1133 0.930 . S
C1092 N1089 1.314 . S
C1092 C1090 1.353 . S
C1092 H1134 0.930 . S
C1093 N1089 1.279 . S
C1093 C1091 1.358 . S
C1093 H1135 0.930 . S
C1094 C1095 1.348 . S
C1094 C1096 1.356 . S
C1094 O1119 1.325 . S
C1095 C1094 1.348 . S
C1095 C1097 1.353 . S
C1095 H1136 0.929 . S
C1096 C1094 1.356 . S
C1096 C1098 1.358 . S
C1096 H1137 0.930 . S
C1097 C1095 1.353 . S
C1097 N1099 1.314 . S
C1097 H1138 0.930 . S
C1098 C1096 1.358 . S
C1098 N1099 1.279 . S
C1098 H1139 0.930 . S
N1099 C1097 1.314 . S
N1099 C1098 1.279 . S
C1100 C1102 1.353 . S
C1100 N1103 1.314 . S
C1100 H1106 0.930 . S
C1101 N1103 1.279 . S
C1101 C1104 1.358 . S
C1101 H1107 0.930 . S
C1102 C1100 1.353 . S
C1102 C1105 1.348 . S
C1102 H1140 0.929 . S
N1103 Li1058 1.990 . S
N1103 C1100 1.314 . S
N1103 C1101 1.279 . S
C1104 C1101 1.358 . S
C1104 C1105 1.356 . S
C1104 H1141 0.930 . S
C1105 C1102 1.348 . S
C1105 C1104 1.356 . S
H1106 C1100 0.930 . S
H1107 C1101 0.930 . S
C1108 N1109 1.314 . S
C1108 C1110 1.353 . S
C1108 H1114 0.930 . S
N1109 Li1059 1.990 . S
N1109 C1108 1.314 . S
N1109 C1112 1.279 . S
C1110 C1108 1.353 . S
C1110 C1113 1.348 . S
C1110 H1142 0.929 . S
C1111 C1112 1.358 . S
C1111 C1113 1.356 . S
C1111 H1143 0.930 . S
C1112 N1109 1.279 . S
C1112 C1111 1.358 . S
C1112 H1115 0.930 . S
C1113 C1110 1.348 . S
C1113 C1111 1.356 . S
H1114 C1108 0.930 . S
H1115 C1112 0.930 . S
O1116 Li1056 1.956 . S
O1116 Li1057 1.970 . S
O1116 Li1058 1.961 . S
O1116 C1060 1.325 . S
O1117 Li1056 1.970 . S
O1117 Li1057 1.956 . S
O1117 Li1059 1.961 . S
O1117 C1066 1.325 . S
O1118 Li1056 1.961 . S
O1118 Li1058 1.956 . S
O1118 Li1059 1.970 . S
O1118 C1088 1.325 . S
O1119 Li1057 1.961 . S
O1119 Li1058 1.970 . S
O1119 Li1059 1.956 . S
O1119 C1094 1.325 . S
H1120 C1062 0.929 . S
H1121 C1063 0.930 . S
H1122 C1064 0.930 . S
H1123 C1065 0.930 . S
H1124 C1067 0.930 . S
H1125 C1069 0.929 . S
H1126 C1070 0.930 . S
H1127 C1071 0.930 . S
H1128 C1074 0.930 . S
H1129 C1077 0.929 . S
H1130 C1082 0.929 . S
H1131 C1083 0.930 . S
H1132 C1090 0.929 . S
H1133 C1091 0.930 . S
H1134 C1092 0.930 . S
H1135 C1093 0.930 . S
H1136 C1095 0.929 . S
H1137 C1096 0.930 . S
H1138 C1097 0.930 . S
H1139 C1098 0.930 . S
H1140 C1102 0.929 . S
H1141 C1104 0.930 . S
H1142 C1110 0.929 . S
H1143 C1111 0.930 . S
Li1144 N1161 1.990 . S
Li1144 O1204 1.956 . S
Li1144 O1205 1.970 . S
Li1144 O1206 1.961 . S
Li1145 N1169 1.990 . S
Li1145 O1204 1.970 . S
Li1145 O1205 1.956 . S
Li1145 O1207 1.961 . S
Li1146 N1191 1.990 . S
Li1146 O1204 1.961 . S
Li1146 O1206 1.956 . S
Li1146 O1207 1.970 . S
Li1147 N1197 1.990 . S
Li1147 O1205 1.961 . S
Li1147 O1206 1.970 . S
Li1147 O1207 1.956 . S
C1148 C1150 1.348 . S
C1148 C1151 1.356 . S
C1148 O1204 1.325 . S
N1149 C1152 1.314 . S
N1149 C1153 1.279 . S
C1150 C1148 1.348 . S
C1150 C1152 1.353 . S
C1150 H1208 0.929 . S
C1151 C1148 1.356 . S
C1151 C1153 1.358 . S
C1151 H1209 0.930 . S
C1152 N1149 1.314 . S
C1152 C1150 1.353 . S
C1152 H1210 0.930 . S
C1153 N1149 1.279 . S
C1153 C1151 1.358 . S
C1153 H1211 0.930 . S
C1154 C1157 1.348 . S
C1154 C1158 1.356 . S
C1154 O1205 1.325 . S
C1155 N1156 1.279 . S
C1155 C1158 1.358 . S
C1155 H1212 0.930 . S
N1156 C1155 1.279 . S
N1156 C1159 1.314 . S
C1157 C1154 1.348 . S
C1157 C1159 1.353 . S
C1157 H1213 0.929 . S
C1158 C1154 1.356 . S
C1158 C1155 1.358 . S
C1158 H1214 0.930 . S
C1159 N1156 1.314 . S
C1159 C1157 1.353 . S
C1159 H1215 0.930 . S
C1160 N1161 1.314 . S
C1160 C1165 1.353 . S
C1160 H1166 0.930 . S
N1161 Li1144 1.990 . S
N1161 C1160 1.314 . S
N1161 C1163 1.279 . S
C1162 C1163 1.358 . S
C1162 C1164 1.356 . S
C1162 H1216 0.930 . S
C1163 N1161 1.279 . S
C1163 C1162 1.358 . S
C1163 H1167 0.930 . S
C1164 C1162 1.356 . S
C1164 C1165 1.348 . S
C1165 C1160 1.353 . S
C1165 C1164 1.348 . S
C1165 H1217 0.929 . S
H1166 C1160 0.930 . S
H1167 C1163 0.930 . S
C1168 N1169 1.314 . S
C1168 C1170 1.353 . S
C1168 H1174 0.930 . S
N1169 Li1145 1.990 . S
N1169 C1168 1.314 . S
N1169 C1172 1.279 . S
C1170 C1168 1.353 . S
C1170 C1173 1.348 . S
C1170 H1218 0.929 . S
C1171 C1172 1.358 . S
C1171 C1173 1.356 . S
C1171 H1219 0.930 . S
C1172 N1169 1.279 . S
C1172 C1171 1.358 . S
C1172 H1175 0.930 . S
C1173 C1170 1.348 . S
C1173 C1171 1.356 . S
H1174 C1168 0.930 . S
H1175 C1172 0.930 . S
C1176 C1178 1.348 . S
C1176 C1179 1.356 . S
C1176 O1206 1.325 . S
N1177 C1180 1.314 . S
N1177 C1181 1.279 . S
C1178 C1176 1.348 . S
C1178 C1180 1.353 . S
C1178 H1220 0.929 . S
C1179 C1176 1.356 . S
C1179 C1181 1.358 . S
C1179 H1221 0.930 . S
C1180 N1177 1.314 . S
C1180 C1178 1.353 . S
C1180 H1222 0.930 . S
C1181 N1177 1.279 . S
C1181 C1179 1.358 . S
C1181 H1223 0.930 . S
C1182 C1183 1.348 . S
C1182 C1184 1.356 . S
C1182 O1207 1.325 . S
C1183 C1182 1.348 . S
C1183 C1185 1.353 . S
C1183 H1224 0.929 . S
C1184 C1182 1.356 . S
C1184 C1186 1.358 . S
C1184 H1225 0.930 . S
C1185 C1183 1.353 . S
C1185 N1187 1.314 . S
C1185 H1226 0.930 . S
C1186 C1184 1.358 . S
C1186 N1187 1.279 . S
C1186 H1227 0.930 . S
N1187 C1185 1.314 . S
N1187 C1186 1.279 . S
C1188 C1190 1.353 . S
C1188 N1191 1.314 . S
C1188 H1194 0.930 . S
C1189 N1191 1.279 . S
C1189 C1192 1.358 . S
C1189 H1195 0.930 . S
C1190 C1188 1.353 . S
C1190 C1193 1.348 . S
C1190 H1228 0.929 . S
N1191 Li1146 1.990 . S
N1191 C1188 1.314 . S
N1191 C1189 1.279 . S
C1192 C1189 1.358 . S
C1192 C1193 1.356 . S
C1192 H1229 0.930 . S
C1193 C1190 1.348 . S
C1193 C1192 1.356 . S
H1194 C1188 0.930 . S
H1195 C1189 0.930 . S
C1196 N1197 1.314 . S
C1196 C1198 1.353 . S
C1196 H1202 0.930 . S
N1197 Li1147 1.990 . S
N1197 C1196 1.314 . S
N1197 C1200 1.279 . S
C1198 C1196 1.353 . S
C1198 C1201 1.348 . S
C1198 H1230 0.929 . S
C1199 C1200 1.358 . S
C1199 C1201 1.356 . S
C1199 H1231 0.930 . S
C1200 N1197 1.279 . S
C1200 C1199 1.358 . S
C1200 H1203 0.930 . S
C1201 C1198 1.348 . S
C1201 C1199 1.356 . S
H1202 C1196 0.930 . S
H1203 C1200 0.930 . S
O1204 Li1144 1.956 . S
O1204 Li1145 1.970 . S
O1204 Li1146 1.961 . S
O1204 C1148 1.325 . S
O1205 Li1144 1.970 . S
O1205 Li1145 1.956 . S
O1205 Li1147 1.961 . S
O1205 C1154 1.325 . S
O1206 Li1144 1.961 . S
O1206 Li1146 1.956 . S
O1206 Li1147 1.970 . S
O1206 C1176 1.325 . S
O1207 Li1145 1.961 . S
O1207 Li1146 1.970 . S
O1207 Li1147 1.956 . S
O1207 C1182 1.325 . S
H1208 C1150 0.929 . S
H1209 C1151 0.930 . S
H1210 C1152 0.930 . S
H1211 C1153 0.930 . S
H1212 C1155 0.930 . S
H1213 C1157 0.929 . S
H1214 C1158 0.930 . S
H1215 C1159 0.930 . S
H1216 C1162 0.930 . S
H1217 C1165 0.929 . S
H1218 C1170 0.929 . S
H1219 C1171 0.930 . S
H1220 C1178 0.929 . S
H1221 C1179 0.930 . S
H1222 C1180 0.930 . S
H1223 C1181 0.930 . S
H1224 C1183 0.929 . S
H1225 C1184 0.930 . S
H1226 C1185 0.930 . S
H1227 C1186 0.930 . S
H1228 C1190 0.929 . S
H1229 C1192 0.930 . S
H1230 C1198 0.929 . S
H1231 C1199 0.930 . S
Li1232 N1249 1.990 . S
Li1232 O1292 1.956 . S
Li1232 O1293 1.970 . S
Li1232 O1294 1.961 . S
Li1233 N1257 1.990 . S
Li1233 O1292 1.970 . S
Li1233 O1293 1.956 . S
Li1233 O1295 1.961 . S
Li1234 N1279 1.990 . S
Li1234 O1292 1.961 . S
Li1234 O1294 1.956 . S
Li1234 O1295 1.970 . S
Li1235 N1285 1.990 . S
Li1235 O1293 1.961 . S
Li1235 O1294 1.970 . S
Li1235 O1295 1.956 . S
C1236 C1238 1.348 . S
C1236 C1239 1.356 . S
C1236 O1292 1.325 . S
N1237 C1240 1.314 . S
N1237 C1241 1.279 . S
C1238 C1236 1.348 . S
C1238 C1240 1.353 . S
C1238 H1296 0.929 . S
C1239 C1236 1.356 . S
C1239 C1241 1.358 . S
C1239 H1297 0.930 . S
C1240 N1237 1.314 . S
C1240 C1238 1.353 . S
C1240 H1298 0.930 . S
C1241 N1237 1.279 . S
C1241 C1239 1.358 . S
C1241 H1299 0.930 . S
C1242 C1245 1.348 . S
C1242 C1246 1.356 . S
C1242 O1293 1.325 . S
C1243 N1244 1.279 . S
C1243 C1246 1.358 . S
C1243 H1300 0.930 . S
N1244 C1243 1.279 . S
N1244 C1247 1.314 . S
C1245 C1242 1.348 . S
C1245 C1247 1.353 . S
C1245 H1301 0.929 . S
C1246 C1242 1.356 . S
C1246 C1243 1.358 . S
C1246 H1302 0.930 . S
C1247 N1244 1.314 . S
C1247 C1245 1.353 . S
C1247 H1303 0.930 . S
C1248 N1249 1.314 . S
C1248 C1253 1.353 . S
C1248 H1254 0.930 . S
N1249 Li1232 1.990 . S
N1249 C1248 1.314 . S
N1249 C1251 1.279 . S
C1250 C1251 1.358 . S
C1250 C1252 1.356 . S
C1250 H1304 0.930 . S
C1251 N1249 1.279 . S
C1251 C1250 1.358 . S
C1251 H1255 0.930 . S
C1252 C1250 1.356 . S
C1252 C1253 1.348 . S
C1253 C1248 1.353 . S
C1253 C1252 1.348 . S
C1253 H1305 0.929 . S
H1254 C1248 0.930 . S
H1255 C1251 0.930 . S
C1256 N1257 1.314 . S
C1256 C1258 1.353 . S
C1256 H1262 0.930 . S
N1257 Li1233 1.990 . S
N1257 C1256 1.314 . S
N1257 C1260 1.279 . S
C1258 C1256 1.353 . S
C1258 C1261 1.348 . S
C1258 H1306 0.929 . S
C1259 C1260 1.358 . S
C1259 C1261 1.356 . S
C1259 H1307 0.930 . S
C1260 N1257 1.279 . S
C1260 C1259 1.358 . S
C1260 H1263 0.930 . S
C1261 C1258 1.348 . S
C1261 C1259 1.356 . S
H1262 C1256 0.930 . S
H1263 C1260 0.930 . S
C1264 C1266 1.348 . S
C1264 C1267 1.356 . S
C1264 O1294 1.325 . S
N1265 C1268 1.314 . S
N1265 C1269 1.279 . S
C1266 C1264 1.348 . S
C1266 C1268 1.353 . S
C1266 H1308 0.929 . S
C1267 C1264 1.356 . S
C1267 C1269 1.358 . S
C1267 H1309 0.930 . S
C1268 N1265 1.314 . S
C1268 C1266 1.353 . S
C1268 H1310 0.930 . S
C1269 N1265 1.279 . S
C1269 C1267 1.358 . S
C1269 H1311 0.930 . S
C1270 C1271 1.348 . S
C1270 C1272 1.356 . S
C1270 O1295 1.325 . S
C1271 C1270 1.348 . S
C1271 C1273 1.353 . S
C1271 H1312 0.929 . S
C1272 C1270 1.356 . S
C1272 C1274 1.358 . S
C1272 H1313 0.930 . S
C1273 C1271 1.353 . S
C1273 N1275 1.314 . S
C1273 H1314 0.930 . S
C1274 C1272 1.358 . S
C1274 N1275 1.279 . S
C1274 H1315 0.930 . S
N1275 C1273 1.314 . S
N1275 C1274 1.279 . S
C1276 C1278 1.353 . S
C1276 N1279 1.314 . S
C1276 H1282 0.930 . S
C1277 N1279 1.279 . S
C1277 C1280 1.358 . S
C1277 H1283 0.930 . S
C1278 C1276 1.353 . S
C1278 C1281 1.348 . S
C1278 H1316 0.929 . S
N1279 Li1234 1.990 . S
N1279 C1276 1.314 . S
N1279 C1277 1.279 . S
C1280 C1277 1.358 . S
C1280 C1281 1.356 . S
C1280 H1317 0.930 . S
C1281 C1278 1.348 . S
C1281 C1280 1.356 . S
H1282 C1276 0.930 . S
H1283 C1277 0.930 . S
C1284 N1285 1.314 . S
C1284 C1286 1.353 . S
C1284 H1290 0.930 . S
N1285 Li1235 1.990 . S
N1285 C1284 1.314 . S
N1285 C1288 1.279 . S
C1286 C1284 1.353 . S
C1286 C1289 1.348 . S
C1286 H1318 0.929 . S
C1287 C1288 1.358 . S
C1287 C1289 1.356 . S
C1287 H1319 0.930 . S
C1288 N1285 1.279 . S
C1288 C1287 1.358 . S
C1288 H1291 0.930 . S
C1289 C1286 1.348 . S
C1289 C1287 1.356 . S
H1290 C1284 0.930 . S
H1291 C1288 0.930 . S
O1292 Li1232 1.956 . S
O1292 Li1233 1.970 . S
O1292 Li1234 1.961 . S
O1292 C1236 1.325 . S
O1293 Li1232 1.970 . S
O1293 Li1233 1.956 . S
O1293 Li1235 1.961 . S
O1293 C1242 1.325 . S
O1294 Li1232 1.961 . S
O1294 Li1234 1.956 . S
O1294 Li1235 1.970 . S
O1294 C1264 1.325 . S
O1295 Li1233 1.961 . S
O1295 Li1234 1.970 . S
O1295 Li1235 1.956 . S
O1295 C1270 1.325 . S
H1296 C1238 0.929 . S
H1297 C1239 0.930 . S
H1298 C1240 0.930 . S
H1299 C1241 0.930 . S
H1300 C1243 0.930 . S
H1301 C1245 0.929 . S
H1302 C1246 0.930 . S
H1303 C1247 0.930 . S
H1304 C1250 0.930 . S
H1305 C1253 0.929 . S
H1306 C1258 0.929 . S
H1307 C1259 0.930 . S
H1308 C1266 0.929 . S
H1309 C1267 0.930 . S
H1310 C1268 0.930 . S
H1311 C1269 0.930 . S
H1312 C1271 0.929 . S
H1313 C1272 0.930 . S
H1314 C1273 0.930 . S
H1315 C1274 0.930 . S
H1316 C1278 0.929 . S
H1317 C1280 0.930 . S
H1318 C1286 0.929 . S
H1319 C1287 0.930 . S
Li1320 N1337 1.990 . S
Li1320 O1380 1.956 . S
Li1320 O1381 1.970 . S
Li1320 O1382 1.961 . S
Li1321 N1345 1.990 . S
Li1321 O1380 1.970 . S
Li1321 O1381 1.956 . S
Li1321 O1383 1.961 . S
Li1322 N1367 1.990 . S
Li1322 O1380 1.961 . S
Li1322 O1382 1.956 . S
Li1322 O1383 1.970 . S
Li1323 N1373 1.990 . S
Li1323 O1381 1.961 . S
Li1323 O1382 1.970 . S
Li1323 O1383 1.956 . S
C1324 C1326 1.348 . S
C1324 C1327 1.356 . S
C1324 O1380 1.325 . S
N1325 C1328 1.314 . S
N1325 C1329 1.279 . S
C1326 C1324 1.348 . S
C1326 C1328 1.353 . S
C1326 H1384 0.929 . S
C1327 C1324 1.356 . S
C1327 C1329 1.358 . S
C1327 H1385 0.930 . S
C1328 N1325 1.314 . S
C1328 C1326 1.353 . S
C1328 H1386 0.930 . S
C1329 N1325 1.279 . S
C1329 C1327 1.358 . S
C1329 H1387 0.930 . S
C1330 C1333 1.348 . S
C1330 C1334 1.356 . S
C1330 O1381 1.325 . S
C1331 N1332 1.279 . S
C1331 C1334 1.358 . S
C1331 H1388 0.930 . S
N1332 C1331 1.279 . S
N1332 C1335 1.314 . S
C1333 C1330 1.348 . S
C1333 C1335 1.353 . S
C1333 H1389 0.929 . S
C1334 C1330 1.356 . S
C1334 C1331 1.358 . S
C1334 H1390 0.930 . S
C1335 N1332 1.314 . S
C1335 C1333 1.353 . S
C1335 H1391 0.930 . S
C1336 N1337 1.314 . S
C1336 C1341 1.353 . S
C1336 H1342 0.930 . S
N1337 Li1320 1.990 . S
N1337 C1336 1.314 . S
N1337 C1339 1.279 . S
C1338 C1339 1.358 . S
C1338 C1340 1.356 . S
C1338 H1392 0.930 . S
C1339 N1337 1.279 . S
C1339 C1338 1.358 . S
C1339 H1343 0.930 . S
C1340 C1338 1.356 . S
C1340 C1341 1.348 . S
C1341 C1336 1.353 . S
C1341 C1340 1.348 . S
C1341 H1393 0.929 . S
H1342 C1336 0.930 . S
H1343 C1339 0.930 . S
C1344 N1345 1.314 . S
C1344 C1346 1.353 . S
C1344 H1350 0.930 . S
N1345 Li1321 1.990 . S
N1345 C1344 1.314 . S
N1345 C1348 1.279 . S
C1346 C1344 1.353 . S
C1346 C1349 1.348 . S
C1346 H1394 0.929 . S
C1347 C1348 1.358 . S
C1347 C1349 1.356 . S
C1347 H1395 0.930 . S
C1348 N1345 1.279 . S
C1348 C1347 1.358 . S
C1348 H1351 0.930 . S
C1349 C1346 1.348 . S
C1349 C1347 1.356 . S
H1350 C1344 0.930 . S
H1351 C1348 0.930 . S
C1352 C1354 1.348 . S
C1352 C1355 1.356 . S
C1352 O1382 1.325 . S
N1353 C1356 1.314 . S
N1353 C1357 1.279 . S
C1354 C1352 1.348 . S
C1354 C1356 1.353 . S
C1354 H1396 0.929 . S
C1355 C1352 1.356 . S
C1355 C1357 1.358 . S
C1355 H1397 0.930 . S
C1356 N1353 1.314 . S
C1356 C1354 1.353 . S
C1356 H1398 0.930 . S
C1357 N1353 1.279 . S
C1357 C1355 1.358 . S
C1357 H1399 0.930 . S
C1358 C1359 1.348 . S
C1358 C1360 1.356 . S
C1358 O1383 1.325 . S
C1359 C1358 1.348 . S
C1359 C1361 1.353 . S
C1359 H1400 0.929 . S
C1360 C1358 1.356 . S
C1360 C1362 1.358 . S
C1360 H1401 0.930 . S
C1361 C1359 1.353 . S
C1361 N1363 1.314 . S
C1361 H1402 0.930 . S
C1362 C1360 1.358 . S
C1362 N1363 1.279 . S
C1362 H1403 0.930 . S
N1363 C1361 1.314 . S
N1363 C1362 1.279 . S
C1364 C1366 1.353 . S
C1364 N1367 1.314 . S
C1364 H1370 0.930 . S
C1365 N1367 1.279 . S
C1365 C1368 1.358 . S
C1365 H1371 0.930 . S
C1366 C1364 1.353 . S
C1366 C1369 1.348 . S
C1366 H1404 0.929 . S
N1367 Li1322 1.990 . S
N1367 C1364 1.314 . S
N1367 C1365 1.279 . S
C1368 C1365 1.358 . S
C1368 C1369 1.356 . S
C1368 H1405 0.930 . S
C1369 C1366 1.348 . S
C1369 C1368 1.356 . S
H1370 C1364 0.930 . S
H1371 C1365 0.930 . S
C1372 N1373 1.314 . S
C1372 C1374 1.353 . S
C1372 H1378 0.930 . S
N1373 Li1323 1.990 . S
N1373 C1372 1.314 . S
N1373 C1376 1.279 . S
C1374 C1372 1.353 . S
C1374 C1377 1.348 . S
C1374 H1406 0.929 . S
C1375 C1376 1.358 . S
C1375 C1377 1.356 . S
C1375 H1407 0.930 . S
C1376 N1373 1.279 . S
C1376 C1375 1.358 . S
C1376 H1379 0.930 . S
C1377 C1374 1.348 . S
C1377 C1375 1.356 . S
H1378 C1372 0.930 . S
H1379 C1376 0.930 . S
O1380 Li1320 1.956 . S
O1380 Li1321 1.970 . S
O1380 Li1322 1.961 . S
O1380 C1324 1.325 . S
O1381 Li1320 1.970 . S
O1381 Li1321 1.956 . S
O1381 Li1323 1.961 . S
O1381 C1330 1.325 . S
O1382 Li1320 1.961 . S
O1382 Li1322 1.956 . S
O1382 Li1323 1.970 . S
O1382 C1352 1.325 . S
O1383 Li1321 1.961 . S
O1383 Li1322 1.970 . S
O1383 Li1323 1.956 . S
O1383 C1358 1.325 . S
H1384 C1326 0.929 . S
H1385 C1327 0.930 . S
H1386 C1328 0.930 . S
H1387 C1329 0.930 . S
H1388 C1331 0.930 . S
H1389 C1333 0.929 . S
H1390 C1334 0.930 . S
H1391 C1335 0.930 . S
H1392 C1338 0.930 . S
H1393 C1341 0.929 . S
H1394 C1346 0.929 . S
H1395 C1347 0.930 . S
H1396 C1354 0.929 . S
H1397 C1355 0.930 . S
H1398 C1356 0.930 . S
H1399 C1357 0.930 . S
H1400 C1359 0.929 . S
H1401 C1360 0.930 . S
H1402 C1361 0.930 . S
H1403 C1362 0.930 . S
H1404 C1366 0.929 . S
H1405 C1368 0.930 . S
H1406 C1374 0.929 . S
H1407 C1375 0.930 . S
C1408 C1409 1.387 . S
C1408 H1412 0.950 . S
C1408 C1417 1.390 . S
C1409 C1408 1.387 . S
C1409 C1411 1.387 . S
H1410 C1417 0.950 . S
C1411 C1409 1.387 . S
C1411 C1413 1.390 . S
C1411 H1415 0.950 . S
H1412 C1408 0.950 . S
C1413 C1411 1.390 . S
C1413 C1414 1.387 . S
C1413 H1416 0.950 . S
C1414 C1413 1.387 . S
C1414 C1417 1.387 . S
H1415 C1411 0.950 . S
H1416 C1413 0.950 . S
C1417 C1408 1.390 . S
C1417 H1410 0.950 . S
C1417 C1414 1.387 . S
C1418 C1419 1.386 . S
C1418 H1422 0.950 . S
C1418 C1427 1.391 1_565 S
C1419 C1418 1.386 . S
C1419 C1421 1.387 1_655 S
H1420 C1427 0.950 . S
C1421 C1419 1.387 1_455 S
C1421 C1423 1.394 . S
C1421 H1425 0.950 . S
H1422 C1418 0.950 . S
C1423 C1421 1.394 . S
C1423 C1424 1.384 1_565 S
C1423 H1426 0.950 . S
C1424 C1423 1.384 1_545 S
C1424 C1427 1.387 1_455 S
H1425 C1421 0.950 . S
H1426 C1423 0.950 . S
C1427 C1418 1.391 1_545 S
C1427 H1420 0.950 . S
C1427 C1424 1.387 1_655 S
C1428 C1429 1.387 . S
C1428 H1432 0.950 . S
C1428 C1437 1.391 1_565 S
C1429 C1428 1.387 . S
C1429 C1431 1.394 . S
H1430 C1437 0.950 . S
C1431 C1429 1.394 . S
C1431 C1433 1.384 1_565 S
C1431 H1435 0.950 . S
H1432 C1428 0.950 . S
C1433 C1431 1.384 1_545 S
C1433 C1434 1.387 . S
C1433 H1436 0.950 . S
C1434 C1433 1.387 . S
C1434 C1437 1.387 . S
H1435 C1431 0.950 . S
H1436 C1433 0.950 . S
C1437 C1428 1.391 1_545 S
C1437 H1430 0.950 . S
C1437 C1434 1.387 . S
C1438 C1439 1.399 . S
C1438 H1442 0.949 . S
C1438 C1447 1.378 1_455 S
C1439 C1438 1.399 . S
C1439 C1441 1.387 . S
H1440 C1447 0.950 . S
C1441 C1439 1.387 . S
C1441 C1443 1.376 1_455 S
C1441 H1445 0.950 . S
H1442 C1438 0.949 . S
C1443 C1441 1.376 1_655 S
C1443 C1444 1.402 . S
C1443 H1446 0.951 . S
C1444 C1443 1.402 . S
C1444 C1447 1.387 . S
H1445 C1441 0.950 . S
H1446 C1443 0.951 . S
C1447 C1438 1.378 1_655 S
C1447 H1440 0.950 . S
C1447 C1444 1.387 . S
C1448 C1449 1.387 . S
C1448 H1452 0.950 . S
C1448 C1457 1.390 . S
C1449 C1448 1.387 . S
C1449 C1451 1.387 . S
H1450 C1457 0.950 . S
C1451 C1449 1.387 . S
C1451 C1453 1.390 . S
C1451 H1455 0.950 . S
H1452 C1448 0.950 . S
C1453 C1451 1.390 . S
C1453 C1454 1.387 . S
C1453 H1456 0.950 . S
C1454 C1453 1.387 . S
C1454 C1457 1.387 . S
H1455 C1451 0.950 . S
H1456 C1453 0.950 . S
C1457 C1448 1.390 . S
C1457 H1450 0.950 . S
C1457 C1454 1.387 . S
C1458 C1459 1.387 . S
C1458 H1462 0.950 . S
C1458 C1467 1.390 . S
C1459 C1458 1.387 . S
C1459 C1461 1.387 1_545 S
H1460 C1467 0.950 . S
C1461 C1459 1.387 1_565 S
C1461 C1463 1.390 . S
C1461 H1465 0.950 . S
H1462 C1458 0.950 . S
C1463 C1461 1.390 . S
C1463 C1464 1.387 . S
C1463 H1466 0.950 . S
C1464 C1463 1.387 . S
C1464 C1467 1.387 1_565 S
H1465 C1461 0.950 . S
H1466 C1463 0.950 . S
C1467 C1458 1.390 . S
C1467 H1460 0.950 . S
C1467 C1464 1.387 1_545 S
C1468 C1469 1.387 . S
C1468 H1472 0.950 . S
C1468 C1477 1.390 1_655 S
C1469 C1468 1.387 . S
C1469 C1471 1.387 . S
H1470 C1477 0.950 . S
C1471 C1469 1.387 . S
C1471 C1473 1.390 1_655 S
C1471 H1475 0.950 . S
H1472 C1468 0.950 . S
C1473 C1471 1.390 1_455 S
C1473 C1474 1.387 . S
C1473 H1476 0.950 . S
C1474 C1473 1.387 . S
C1474 C1477 1.387 . S
H1475 C1471 0.950 . S
H1476 C1473 0.950 . S
C1477 C1468 1.390 1_455 S
C1477 H1470 0.950 . S
C1477 C1474 1.387 . S
C1478 C1479 1.387 1_556 S
C1478 H1482 0.950 . S
C1478 C1487 1.390 . S
C1479 C1478 1.387 1_554 S
C1479 C1481 1.387 . S
H1480 C1487 0.950 . S
C1481 C1479 1.387 . S
C1481 C1483 1.390 . S
C1481 H1485 0.950 . S
H1482 C1478 0.950 . S
C1483 C1481 1.390 . S
C1483 C1484 1.387 1_554 S
C1483 H1486 0.950 . S
C1484 C1483 1.387 1_556 S
C1484 C1487 1.387 . S
H1485 C1481 0.950 . S
H1486 C1483 0.950 . S
C1487 C1478 1.390 . S
C1487 H1480 0.950 . S
C1487 C1484 1.387 . S
C1488 C1489 1.387 . S
C1488 H1492 0.950 . S
C1488 C1497 1.390 1_455 S
C1489 C1488 1.387 . S
C1489 C1491 1.387 1_556 S
H1490 C1497 0.950 . S
C1491 C1489 1.387 1_554 S
C1491 C1493 1.390 1_455 S
C1491 H1495 0.950 . S
H1492 C1488 0.950 . S
C1493 C1491 1.390 1_655 S
C1493 C1494 1.387 . S
C1493 H1496 0.950 . S
C1494 C1493 1.387 . S
C1494 C1497 1.387 1_554 S
H1495 C1491 0.950 . S
H1496 C1493 0.950 . S
C1497 C1488 1.390 1_655 S
C1497 H1490 0.950 . S
C1497 C1494 1.387 1_556 S
C1498 C1499 1.387 . S
C1498 H1502 0.950 . S
C1498 C1507 1.390 . S
C1499 C1498 1.387 . S
C1499 C1501 1.387 . S
H1500 C1507 0.950 . S
C1501 C1499 1.387 . S
C1501 C1503 1.390 . S
C1501 H1505 0.950 . S
H1502 C1498 0.950 . S
C1503 C1501 1.390 . S
C1503 C1504 1.387 . S
C1503 H1506 0.950 . S
C1504 C1503 1.387 . S
C1504 C1507 1.387 . S
H1505 C1501 0.950 . S
H1506 C1503 0.950 . S
C1507 C1498 1.390 . S
C1507 H1500 0.950 . S
C1507 C1504 1.387 . S
C1508 C1509 1.387 1_554 S
C1508 H1512 0.950 . S
C1508 C1517 1.390 . S
C1509 C1508 1.387 1_556 S
C1509 C1511 1.387 . S
H1510 C1517 0.950 . S
C1511 C1509 1.387 . S
C1511 C1513 1.390 . S
C1511 H1515 0.950 . S
H1512 C1508 0.950 . S
C1513 C1511 1.390 . S
C1513 C1514 1.387 1_556 S
C1513 H1516 0.950 . S
C1514 C1513 1.387 1_554 S
C1514 C1517 1.387 . S
H1515 C1511 0.950 . S
H1516 C1513 0.950 . S
C1517 C1508 1.390 . S
C1517 H1510 0.950 . S
C1517 C1514 1.387 . S
C1518 C1519 1.387 . S
C1518 H1522 0.950 . S
C1518 C1527 1.390 . S
C1519 C1518 1.387 . S
C1519 C1521 1.387 . S
H1520 C1527 0.950 . S
C1521 C1519 1.387 . S
C1521 C1523 1.390 . S
C1521 H1525 0.950 . S
H1522 C1518 0.950 . S
C1523 C1521 1.390 . S
C1523 C1524 1.387 . S
C1523 H1526 0.950 . S
C1524 C1523 1.387 . S
C1524 C1527 1.387 . S
H1525 C1521 0.950 . S
H1526 C1523 0.950 . S
C1527 C1518 1.390 . S
C1527 H1520 0.950 . S
C1527 C1524 1.387 . S
C1528 C1529 1.387 1_565 S
C1528 H1532 0.950 . S
C1528 C1537 1.390 . S
C1529 C1528 1.387 1_545 S
C1529 C1531 1.387 1_556 S
H1530 C1537 0.950 . S
C1531 C1529 1.387 1_554 S
C1531 C1533 1.390 . S
C1531 H1535 0.950 . S
H1532 C1528 0.950 . S
C1533 C1531 1.390 . S
C1533 C1534 1.387 1_545 S
C1533 H1536 0.950 . S
C1534 C1533 1.387 1_565 S
C1534 C1537 1.387 1_554 S
H1535 C1531 0.950 . S
H1536 C1533 0.950 . S
C1537 C1528 1.390 . S
C1537 H1530 0.950 . S
C1537 C1534 1.387 1_556 S
C1538 C1539 1.387 . S
C1538 H1542 0.950 . S
C1538 C1547 1.390 . S
C1539 C1538 1.387 . S
C1539 C1541 1.387 . S
H1540 C1547 0.950 . S
C1541 C1539 1.387 . S
C1541 C1543 1.390 . S
C1541 H1545 0.950 . S
H1542 C1538 0.950 . S
C1543 C1541 1.390 . S
C1543 C1544 1.387 . S
C1543 H1546 0.950 . S
C1544 C1543 1.387 . S
C1544 C1547 1.387 . S
H1545 C1541 0.950 . S
H1546 C1543 0.950 . S
C1547 C1538 1.390 . S
C1547 H1540 0.950 . S
C1547 C1544 1.387 . S
C1548 C1549 1.387 . S
C1548 H1552 0.950 . S
C1548 C1557 1.390 . S
C1549 C1548 1.387 . S
C1549 C1551 1.387 . S
H1550 C1557 0.950 . S
C1551 C1549 1.387 . S
C1551 C1553 1.390 . S
C1551 H1555 0.950 . S
H1552 C1548 0.950 . S
C1553 C1551 1.390 . S
C1553 C1554 1.387 . S
C1553 H1556 0.950 . S
C1554 C1553 1.387 . S
C1554 C1557 1.387 . S
H1555 C1551 0.950 . S
H1556 C1553 0.950 . S
C1557 C1548 1.390 . S
C1557 H1550 0.950 . S
C1557 C1554 1.387 . S
C1558 C1559 1.387 . S
C1558 H1562 0.950 . S
C1558 C1567 1.390 . S
C1559 C1558 1.387 . S
C1559 C1561 1.387 . S
H1560 C1567 0.950 . S
C1561 C1559 1.387 . S
C1561 C1563 1.390 . S
C1561 H1565 0.950 . S
H1562 C1558 0.950 . S
C1563 C1561 1.390 . S
C1563 C1564 1.387 . S
C1563 H1566 0.950 . S
C1564 C1563 1.387 . S
C1564 C1567 1.387 . S
H1565 C1561 0.950 . S
H1566 C1563 0.950 . S
C1567 C1558 1.390 . S
C1567 H1560 0.950 . S
C1567 C1564 1.387 . S
C1568 C1569 1.387 . S
C1568 H1572 0.950 . S
C1568 C1577 1.390 . S
C1569 C1568 1.387 . S
C1569 C1571 1.387 . S
H1570 C1577 0.950 . S
C1571 C1569 1.387 . S
C1571 C1573 1.390 . S
C1571 H1575 0.950 . S
H1572 C1568 0.950 . S
C1573 C1571 1.390 . S
C1573 C1574 1.387 . S
C1573 H1576 0.950 . S
C1574 C1573 1.387 . S
C1574 C1577 1.387 . S
H1575 C1571 0.950 . S
H1576 C1573 0.950 . S
C1577 C1568 1.390 . S
C1577 H1570 0.950 . S
C1577 C1574 1.387 . S
C1578 C1579 1.387 . S
C1578 H1582 0.950 . S
C1578 C1587 1.390 . S
C1579 C1578 1.387 . S
C1579 C1581 1.387 . S
H1580 C1587 0.950 . S
C1581 C1579 1.387 . S
C1581 C1583 1.390 . S
C1581 H1585 0.950 . S
H1582 C1578 0.950 . S
C1583 C1581 1.390 . S
C1583 C1584 1.387 . S
C1583 H1586 0.950 . S
C1584 C1583 1.387 . S
C1584 C1587 1.387 . S
H1585 C1581 0.950 . S
H1586 C1583 0.950 . S
C1587 C1578 1.390 . S
C1587 H1580 0.950 . S
C1587 C1584 1.387 . S
C1588 C1589 1.387 . S
C1588 H1592 0.950 . S
C1588 C1597 1.390 . S
C1589 C1588 1.387 . S
C1589 C1591 1.387 . S
H1590 C1597 0.950 . S
C1591 C1589 1.387 . S
C1591 C1593 1.390 . S
C1591 H1595 0.950 . S
H1592 C1588 0.950 . S
C1593 C1591 1.390 . S
C1593 C1594 1.387 . S
C1593 H1596 0.950 . S
C1594 C1593 1.387 . S
C1594 C1597 1.387 . S
H1595 C1591 0.950 . S
H1596 C1593 0.950 . S
C1597 C1588 1.390 . S
C1597 H1590 0.950 . S
C1597 C1594 1.387 . S
C1598 C1599 1.387 . S
C1598 H1602 0.950 . S
C1598 C1607 1.390 . S
C1599 C1598 1.387 . S
C1599 C1601 1.387 . S
H1600 C1607 0.950 . S
C1601 C1599 1.387 . S
C1601 C1603 1.390 . S
C1601 H1605 0.950 . S
H1602 C1598 0.950 . S
C1603 C1601 1.390 . S
C1603 C1604 1.387 . S
C1603 H1606 0.950 . S
C1604 C1603 1.387 . S
C1604 C1607 1.387 . S
H1605 C1601 0.950 . S
H1606 C1603 0.950 . S
C1607 C1598 1.390 . S
C1607 H1600 0.950 . S
C1607 C1604 1.387 . S
C1608 C1609 1.387 . S
C1608 H1612 0.950 . S
C1608 C1617 1.390 . S
C1609 C1608 1.387 . S
C1609 C1611 1.387 . S
H1610 C1617 0.950 . S
C1611 C1609 1.387 . S
C1611 C1613 1.390 . S
C1611 H1615 0.950 . S
H1612 C1608 0.950 . S
C1613 C1611 1.390 . S
C1613 C1614 1.387 . S
C1613 H1616 0.950 . S
C1614 C1613 1.387 . S
C1614 C1617 1.387 . S
H1615 C1611 0.950 . S
H1616 C1613 0.950 . S
C1617 C1608 1.390 . S
C1617 H1610 0.950 . S
C1617 C1614 1.387 . S
C1618 C1619 1.387 . S
C1618 H1622 0.950 . S
C1618 C1627 1.390 . S
C1619 C1618 1.387 . S
C1619 C1621 1.387 . S
H1620 C1627 0.950 . S
C1621 C1619 1.387 . S
C1621 C1623 1.390 . S
C1621 H1625 0.950 . S
H1622 C1618 0.950 . S
C1623 C1621 1.390 . S
C1623 C1624 1.387 . S
C1623 H1626 0.950 . S
C1624 C1623 1.387 . S
C1624 C1627 1.387 . S
H1625 C1621 0.950 . S
H1626 C1623 0.950 . S
C1627 C1618 1.390 . S
C1627 H1620 0.950 . S
C1627 C1624 1.387 . S
C1628 C1629 1.387 . S
C1628 H1632 0.950 . S
C1628 C1637 1.390 . S
C1629 C1628 1.387 . S
C1629 C1631 1.387 . S
H1630 C1637 0.950 . S
C1631 C1629 1.387 . S
C1631 C1633 1.390 . S
C1631 H1635 0.950 . S
H1632 C1628 0.950 . S
C1633 C1631 1.390 . S
C1633 C1634 1.387 . S
C1633 H1636 0.950 . S
C1634 C1633 1.387 . S
C1634 C1637 1.387 . S
H1635 C1631 0.950 . S
H1636 C1633 0.950 . S
C1637 C1628 1.390 . S
C1637 H1630 0.950 . S
C1637 C1634 1.387 . S
C1638 C1639 1.387 . S
C1638 H1642 0.950 . S
C1638 C1647 1.390 . S
C1639 C1638 1.387 . S
C1639 C1641 1.387 . S
H1640 C1647 0.950 . S
C1641 C1639 1.387 . S
C1641 C1643 1.390 . S
C1641 H1645 0.950 . S
H1642 C1638 0.950 . S
C1643 C1641 1.390 . S
C1643 C1644 1.387 . S
C1643 H1646 0.950 . S
C1644 C1643 1.387 . S
C1644 C1647 1.387 . S
H1645 C1641 0.950 . S
H1646 C1643 0.950 . S
C1647 C1638 1.390 . S
C1647 H1640 0.950 . S
C1647 C1644 1.387 . S
C1648 C1649 1.387 . S
C1648 H1652 0.950 . S
C1648 C1657 1.390 . S
C1649 C1648 1.387 . S
C1649 C1651 1.387 . S
H1650 C1657 0.950 . S
C1651 C1649 1.387 . S
C1651 C1653 1.390 . S
C1651 H1655 0.950 . S
H1652 C1648 0.950 . S
C1653 C1651 1.390 . S
C1653 C1654 1.387 . S
C1653 H1656 0.950 . S
C1654 C1653 1.387 . S
C1654 C1657 1.387 . S
H1655 C1651 0.950 . S
H1656 C1653 0.950 . S
C1657 C1648 1.390 . S
C1657 H1650 0.950 . S
C1657 C1654 1.387 . S
C1658 C1659 1.387 . S
C1658 H1662 0.950 . S
C1658 C1667 1.390 . S
C1659 C1658 1.387 . S
C1659 C1661 1.387 . S
H1660 C1667 0.950 . S
C1661 C1659 1.387 . S
C1661 C1663 1.390 . S
C1661 H1665 0.950 . S
H1662 C1658 0.950 . S
C1663 C1661 1.390 . S
C1663 C1664 1.387 . S
C1663 H1666 0.950 . S
C1664 C1663 1.387 . S
C1664 C1667 1.387 . S
H1665 C1661 0.950 . S
H1666 C1663 0.950 . S
C1667 C1658 1.390 . S
C1667 H1660 0.950 . S
C1667 C1664 1.387 . S
C1668 C1669 1.387 . S
C1668 H1672 0.950 . S
C1668 C1677 1.390 . S
C1669 C1668 1.387 . S
C1669 C1671 1.387 . S
H1670 C1677 0.950 . S
C1671 C1669 1.387 . S
C1671 C1673 1.390 . S
C1671 H1675 0.950 . S
H1672 C1668 0.950 . S
C1673 C1671 1.390 . S
C1673 C1674 1.387 . S
C1673 H1676 0.950 . S
C1674 C1673 1.387 . S
C1674 C1677 1.387 . S
H1675 C1671 0.950 . S
H1676 C1673 0.950 . S
C1677 C1668 1.390 . S
C1677 H1670 0.950 . S
C1677 C1674 1.387 . S
C1678 C1679 1.387 . S
C1678 H1682 0.950 . S
C1678 C1687 1.390 . S
C1679 C1678 1.387 . S
C1679 C1681 1.387 . S
H1680 C1687 0.950 . S
C1681 C1679 1.387 . S
C1681 C1683 1.390 . S
C1681 H1685 0.950 . S
H1682 C1678 0.950 . S
C1683 C1681 1.390 . S
C1683 C1684 1.387 . S
C1683 H1686 0.950 . S
C1684 C1683 1.387 . S
C1684 C1687 1.387 . S
H1685 C1681 0.950 . S
H1686 C1683 0.950 . S
C1687 C1678 1.390 . S
C1687 H1680 0.950 . S
C1687 C1684 1.387 . S
C1688 C1689 1.387 . S
C1688 H1692 0.950 . S
C1688 C1697 1.390 . S
C1689 C1688 1.387 . S
C1689 C1691 1.387 . S
H1690 C1697 0.950 . S
C1691 C1689 1.387 . S
C1691 C1693 1.390 . S
C1691 H1695 0.950 . S
H1692 C1688 0.950 . S
C1693 C1691 1.390 . S
C1693 C1694 1.387 . S
C1693 H1696 0.950 . S
C1694 C1693 1.387 . S
C1694 C1697 1.387 . S
H1695 C1691 0.950 . S
H1696 C1693 0.950 . S
C1697 C1688 1.390 . S
C1697 H1690 0.950 . S
C1697 C1694 1.387 . S
C1698 C1699 1.387 . S
C1698 H1702 0.950 . S
C1698 C1707 1.390 . S
C1699 C1698 1.387 . S
C1699 C1701 1.387 . S
H1700 C1707 0.950 . S
C1701 C1699 1.387 . S
C1701 C1703 1.390 . S
C1701 H1705 0.950 . S
H1702 C1698 0.950 . S
C1703 C1701 1.390 . S
C1703 C1704 1.387 . S
C1703 H1706 0.950 . S
C1704 C1703 1.387 . S
C1704 C1707 1.387 . S
H1705 C1701 0.950 . S
H1706 C1703 0.950 . S
C1707 C1698 1.390 . S
C1707 H1700 0.950 . S
C1707 C1704 1.387 . S
C1708 C1709 1.387 . S
C1708 H1712 0.950 . S
C1708 C1717 1.390 . S
C1709 C1708 1.387 . S
C1709 C1711 1.387 . S
H1710 C1717 0.950 . S
C1711 C1709 1.387 . S
C1711 C1713 1.390 . S
C1711 H1715 0.950 . S
H1712 C1708 0.950 . S
C1713 C1711 1.390 . S
C1713 C1714 1.387 . S
C1713 H1716 0.950 . S
C1714 C1713 1.387 . S
C1714 C1717 1.387 . S
H1715 C1711 0.950 . S
H1716 C1713 0.950 . S
C1717 C1708 1.390 . S
C1717 H1710 0.950 . S
C1717 C1714 1.387 . S
C1718 C1719 1.387 . S
C1718 H1722 0.950 . S
C1718 C1727 1.390 . S
C1719 C1718 1.387 . S
C1719 C1721 1.387 . S
H1720 C1727 0.950 . S
C1721 C1719 1.387 . S
C1721 C1723 1.390 . S
C1721 H1725 0.950 . S
H1722 C1718 0.950 . S
C1723 C1721 1.390 . S
C1723 C1724 1.387 . S
C1723 H1726 0.950 . S
C1724 C1723 1.387 . S
C1724 C1727 1.387 . S
H1725 C1721 0.950 . S
H1726 C1723 0.950 . S
C1727 C1718 1.390 . S
C1727 H1720 0.950 . S
C1727 C1724 1.387 . S
C1409 C1289 1.789 . S
C1414 C29 1.793 . S
C1419 C196 1.788 . S
C1424 C20 1.792 . S
C1429 C997 1.789 . S
C1434 C137 1.793 . S
C1439 C145 1.793 . S
C1444 C645 1.789 . S
C1449 C233 1.786 . S
C1454 C1085 1.791 . S
C1459 C841 1.791 . S
C1464 C293 1.787 . S
C1469 C313 1.788 . S
C1474 C497 1.793 . S
C1479 C900 1.789 . S
C1484 C372 1.793 . S
C1489 C381 1.793 . S
C1494 C548 1.789 . S
C1499 C1349 1.788 . S
C1504 C489 1.792 . S
C1509 C733 1.791 . S
C1514 C585 1.787 . S
C1519 C1201 1.790 . S
C1524 C665 1.786 . S
C1529 C724 1.792 . S
C1534 C937 1.788 . S
C1539 C1369 1.787 . S
C1544 C849 1.791 . S
C1549 C1017 1.788 . S
C1554 C1193 1.793 . S
C1559 C1252 1.786 . S
C1564 C1076 1.790 . S
C1569 C460 1.134 . S
C1574 C57 1.134 . S
C1579 C49 1.134 . S
C1584 C469 1.134 . S
C1589 C108 1.135 . S
C1594 C401 1.135 . S
C1599 C409 1.131 . S
C1604 C117 1.131 . S
C1609 C636 1.143 . S
C1614 C205 1.143 . S
C1619 C673 1.140 . S
C1624 C225 1.140 . S
C1629 C557 1.140 . S
C1634 C321 1.140 . S
C1639 C284 1.140 . S
C1644 C577 1.140 . S
C1649 C1173 1.135 . S
C1654 C761 1.135 . S
C1659 C753 1.135 . S
C1664 C1164 1.135 . S
C1669 C812 1.134 . S
C1674 C1113 1.134 . S
C1679 C1105 1.131 . S
C1684 C821 1.131 . S
C1689 C1377 1.143 . S
C1694 C929 1.143 . S
C1699 C1340 1.140 . S
C1704 C909 1.140 . S
C1709 C1025 1.143 . S
C1714 C1261 1.143 . S
C1719 C1281 1.143 . S
C1724 C988 1.143 . S
