# Generated by pormake.
# Topology smc, (6)-cn, num edge types: 1
# Building blocks:
#     Node 0, Type 0, BuildingBlock: KUMBUR_clean_sbu_0, # of connection points: 6
#     Node 1, Type 0, BuildingBlock: KUMBUR_clean_sbu_0, # of connection points: 6
#     Node 2, Type 0, BuildingBlock: KUMBUR_clean_sbu_0, # of connection points: 6
#     Node 3, Type 0, BuildingBlock: KUMBUR_clean_sbu_0, # of connection points: 6
#     Node 4, Type 0, BuildingBlock: KUMBUR_clean_sbu_0, # of connection points: 6
#     Node 5, Type 0, BuildingBlock: KUMBUR_clean_sbu_0, # of connection points: 6
#     Node 6, Type 0, BuildingBlock: KUMBUR_clean_sbu_0, # of connection points: 6
#     Node 7, Type 0, BuildingBlock: KUMBUR_clean_sbu_0, # of connection points: 6
#     Node 8, Type 0, BuildingBlock: KUMBUR_clean_sbu_0, # of connection points: 6
#     Edge 9, Type (0, 0), BuildingBlock: XUDNAN_clean_linker_2, # of connection points: 2
#     Edge 10, Type (0, 0), BuildingBlock: XUDNAN_clean_linker_2, # of connection points: 2
#     Edge 11, Type (0, 0), BuildingBlock: XUDNAN_clean_linker_2, # of connection points: 2
#     Edge 12, Type (0, 0), BuildingBlock: XUDNAN_clean_linker_2, # of connection points: 2
#     Edge 13, Type (0, 0), BuildingBlock: XUDNAN_clean_linker_2, # of connection points: 2
#     Edge 14, Type (0, 0), BuildingBlock: XUDNAN_clean_linker_2, # of connection points: 2
#     Edge 15, Type (0, 0), BuildingBlock: XUDNAN_clean_linker_2, # of connection points: 2
#     Edge 16, Type (0, 0), BuildingBlock: XUDNAN_clean_linker_2, # of connection points: 2
#     Edge 17, Type (0, 0), BuildingBlock: XUDNAN_clean_linker_2, # of connection points: 2
#     Edge 18, Type (0, 0), BuildingBlock: XUDNAN_clean_linker_2, # of connection points: 2
#     Edge 19, Type (0, 0), BuildingBlock: XUDNAN_clean_linker_2, # of connection points: 2
#     Edge 20, Type (0, 0), BuildingBlock: XUDNAN_clean_linker_2, # of connection points: 2
#     Edge 21, Type (0, 0), BuildingBlock: XUDNAN_clean_linker_2, # of connection points: 2
#     Edge 22, Type (0, 0), BuildingBlock: XUDNAN_clean_linker_2, # of connection points: 2
#     Edge 23, Type (0, 0), BuildingBlock: XUDNAN_clean_linker_2, # of connection points: 2
#     Edge 24, Type (0, 0), BuildingBlock: XUDNAN_clean_linker_2, # of connection points: 2
#     Edge 25, Type (0, 0), BuildingBlock: XUDNAN_clean_linker_2, # of connection points: 2
#     Edge 26, Type (0, 0), BuildingBlock: XUDNAN_clean_linker_2, # of connection points: 2
#     Edge 27, Type (0, 0), BuildingBlock: XUDNAN_clean_linker_2, # of connection points: 2
#     Edge 28, Type (0, 0), BuildingBlock: XUDNAN_clean_linker_2, # of connection points: 2
#     Edge 29, Type (0, 0), BuildingBlock: XUDNAN_clean_linker_2, # of connection points: 2
#     Edge 30, Type (0, 0), BuildingBlock: XUDNAN_clean_linker_2, # of connection points: 2
#     Edge 31, Type (0, 0), BuildingBlock: XUDNAN_clean_linker_2, # of connection points: 2
#     Edge 32, Type (0, 0), BuildingBlock: XUDNAN_clean_linker_2, # of connection points: 2
#     Edge 33, Type (0, 0), BuildingBlock: XUDNAN_clean_linker_2, # of connection points: 2
#     Edge 34, Type (0, 0), BuildingBlock: XUDNAN_clean_linker_2, # of connection points: 2
#     Edge 35, Type (0, 0), BuildingBlock: XUDNAN_clean_linker_2, # of connection points: 2
# Relax obj value: 0.110
# Max RMSD: 0.288
# Mean RMSD: 0.288
data_MOF--net-smc--node1-KUMBUR_clean_sbu_0--edge1-XUDNAN_clean_linker_2
_symmetry_space_group_name_H-M    P1
_symmetry_Int_Tables_number       1
_symmetry_cell_setting            triclinic
loop_
_symmetry_equiv_pos_as_xyz
'x, y, z'
_cell_length_a     37.965883
_cell_length_b     37.962103
_cell_length_c     40.82804
_cell_angle_alpha  90.008239
_cell_angle_beta   89.986197
_cell_angle_gamma 119.96317
loop_
_atom_site_label
_atom_site_type_symbol
_atom_site_fract_x
_atom_site_fract_y
_atom_site_fract_z
_atom_type_partial_charge
Tb0 Tb 0.05668 0.49941 0.99645 0.0
C1 C 1.00394 0.34217 0.0735 0.0
C2 C 0.04765 0.31896 0.05084 0.0
C3 C 1.01995 0.29807 0.10562 0.0
C4 C 0.02757 0.34164 0.04811 0.0
C5 C 0.99836 0.31895 0.10196 0.0
C6 C 0.04487 0.29837 0.08017 0.0
C7 C 0.94787 0.33581 0.11966 0.0
N8 N 0.98369 0.36283 0.06908 0.0
C9 C 0.95503 0.35909 0.09133 0.0
C10 C 0.96976 0.31581 0.12509 0.0
Tb11 Tb 0.9932 0.39563 0.01999 0.0
N12 N 0.02782 0.36032 0.0197 0.0
C13 C 0.04465 0.35421 0.99218 0.0
C14 C 0.0681 0.3159 0.02348 0.0
C15 C 0.06594 0.33299 0.99384 0.0
H16 H 0.93716 0.37354 0.0872 0.0
H17 H 0.08028 0.32947 0.97215 0.0
H18 H 0.06038 0.2811 0.08285 0.0
H19 H 0.92526 0.33307 0.1372 0.0
H20 H 0.04251 0.3661 0.96878 0.0
H21 H 0.02431 0.55505 0.1089 0.0
H22 H 0.08404 0.29891 0.02458 0.0
H23 H 0.04732 0.51901 0.91741 0.0
H24 H 0.04575 0.5152 0.0771 0.0
H25 H 1.02104 0.55645 0.88669 0.0
H26 H 1.01659 0.28059 0.12755 0.0
H27 H 1.00025 0.59686 0.08127 0.0
H28 H 0.98315 0.61953 0.02918 0.0
H29 H 0.96389 0.29752 0.14695 0.0
H30 H 0.98028 0.61824 0.96913 0.0
N31 N 0.03352 0.53223 0.03035 0.0
C32 C 0.03501 0.53225 0.06389 0.0
C33 C 1.00929 0.5788 0.06676 0.0
C34 C 1.00736 0.57864 0.03261 0.0
C35 C 1.02287 0.55527 0.08243 0.0
C36 C 1.02009 0.55503 0.0148 0.0
H37 H 0.99373 0.59453 0.91604 0.0
N38 N 0.03107 0.53148 0.96443 0.0
C39 C 1.01952 0.55565 0.91317 0.0
C40 C 1.01857 0.5544 0.98089 0.0
C41 C 0.03368 0.53373 0.93086 0.0
C42 C 1.00438 0.57726 0.92981 0.0
C43 C 1.00444 0.57748 0.96402 0.0
O44 O 0.10923 0.53368 0.9681 0.0
O45 O 0.05654 0.44374 0.00792 0.0
O46 O 0.0259 0.42319 0.06513 0.0
O47 O 0.077 0.4866 0.04576 0.0
O48 O 0.08661 0.4754 0.96648 0.0
O49 O 0.10293 0.55729 0.01383 0.0
O50 O 0.92911 0.36856 0.01752 0.0
O51 O 0.99599 0.45186 0.00514 0.0
O52 O 1.01703 0.46355 0.95402 0.0
O53 O 1.00156 0.39786 0.96705 0.0
O54 O 0.95843 0.42159 0.04295 0.0
O55 O 0.95847 0.33878 0.9963 0.0
C56 C 0.08095 0.44569 0.98533 0.0
C57 C 0.13902 0.60606 0.97076 0.0
C58 C 0.18041 0.68148 0.96852 0.0
C59 C 0.16579 0.64416 0.98614 0.0
C60 C 0.16551 0.67981 0.93666 0.0
C61 C 0.12841 0.60663 0.93784 0.0
C62 C 0.14026 0.6429 0.92148 0.0
C63 C 0.0604 0.45768 0.06928 0.0
C64 C 0.12449 0.56547 0.98715 0.0
C65 C 0.99136 0.60053 0.9817 0.0
C66 C 0.99301 0.60127 0.01589 0.0
C67 C 0.97043 0.45272 0.02429 0.0
C68 C 0.89119 0.29675 0.01753 0.0
C69 C 0.84945 0.28188 0.01041 0.0
C70 C 0.81862 0.24596 0.0256 0.0
C71 C 0.83042 0.22541 0.04776 0.0
C72 C 0.90154 0.27466 0.03917 0.0
C73 C 0.87141 0.23952 0.05427 0.0
C74 C 1.00334 0.42477 0.94576 0.0
C75 C 0.92358 0.33575 0.00326 0.0
H76 H 0.17636 0.64461 0.01085 0.0
H77 H 0.17449 0.70739 0.92284 0.0
H78 H 0.11155 0.57892 0.92407 0.0
H79 H 0.13069 0.64238 0.89642 0.0
H80 H 0.84102 0.29842 0.99351 0.0
H81 H 0.80783 0.19767 0.05954 0.0
H82 H 0.93298 0.28452 0.04449 0.0
H83 H 0.87991 0.22297 0.07106 0.0
Tb84 Tb 0.54627 0.56167 0.9902 0.0
C85 C 0.70546 0.67417 0.06242 0.0
C86 C 0.72541 0.73922 0.03744 0.0
C87 C 0.74913 0.73657 0.09214 0.0
C88 C 0.70394 0.69633 0.0363 0.0
C89 C 0.72952 0.694 0.09004 0.0
C90 C 0.74681 0.75916 0.06595 0.0
C91 C 0.71623 0.62859 0.10987 0.0
N92 N 0.68602 0.63309 0.05947 0.0
C93 C 0.69205 0.61024 0.08234 0.0
C94 C 0.7348 0.67062 0.11388 0.0
Tb95 Tb 0.65095 0.60604 0.01174 0.0
N96 N 0.68441 0.67591 0.00875 0.0
C97 C 0.68856 0.69706 0.98048 0.0
C98 C 0.72647 0.76077 0.00935 0.0
C99 C 0.7086 0.73957 0.98057 0.0
H100 H 0.67892 0.57788 0.07931 0.0
H101 H 0.71053 0.75593 0.95832 0.0
H102 H 0.76316 0.79206 0.0674 0.0
H103 H 0.72077 0.61032 0.12788 0.0
H104 H 0.67587 0.68161 0.95771 0.0
H105 H 0.49248 0.48055 0.10603 0.0
H106 H 0.74249 0.79371 0.00923 0.0
H107 H 0.52537 0.52764 0.91246 0.0
H108 H 0.53065 0.53989 0.07209 0.0
H109 H 0.48657 0.46235 0.88436 0.0
H110 H 0.76724 0.75235 0.11341 0.0
H111 H 0.4523 0.41271 0.08098 0.0
H112 H 0.42861 0.37005 0.03062 0.0
H113 H 0.75377 0.68477 0.13513 0.0
H114 H 0.42718 0.36508 0.97068 0.0
N115 N 0.51457 0.50782 0.0264 0.0
C116 C 0.51435 0.51133 0.05984 0.0
C117 C 0.46947 0.43906 0.06548 0.0
C118 C 0.46908 0.4353 0.03146 0.0
C119 C 0.49214 0.47725 0.07968 0.0
C120 C 0.4921 0.47058 0.01227 0.0
H121 H 0.44865 0.39903 0.91624 0.0
N122 N 0.51465 0.50193 0.96061 0.0
C123 C 0.48843 0.46321 0.91083 0.0
C124 C 0.49222 0.46758 0.97846 0.0
C125 C 0.51139 0.5002 0.92706 0.0
C126 C 0.46684 0.42765 0.92889 0.0
C127 C 0.46817 0.4295 0.96307 0.0
O128 O 0.50982 0.57577 0.96041 0.0
O129 O 0.60104 0.6185 1.00001 0.0
O130 O 0.62469 0.61284 0.05689 0.0
O131 O 0.55965 0.59673 0.03861 0.0
O132 O 0.56769 0.61496 0.95942 0.0
O133 O 0.48906 0.55117 0.00822 0.0
O134 O 0.67864 0.56948 0.0093 0.0
O135 O 0.59502 0.54997 0.99924 0.0
O136 O 0.58163 0.55719 0.94758 0.0
O137 O 0.64654 0.6097 0.9589 0.0
O138 O 0.62691 0.54861 0.03891 0.0
O139 O 0.70735 0.62816 0.98742 0.0
C140 C 0.5975 0.64015 0.97762 0.0
C141 C 0.43777 0.53318 0.96642 0.0
C142 C 0.36236 0.4988 0.96698 0.0
C143 C 0.40066 0.52383 0.9826 0.0
C144 C 0.36212 0.48131 0.93653 0.0
C145 C 0.43526 0.5178 0.93464 0.0
C146 C 0.39808 0.49109 0.92047 0.0
C147 C 0.58938 0.61101 0.06154 0.0
C148 C 0.47918 0.56128 0.98067 0.0
C149 C 0.44553 0.39451 0.98212 0.0
C150 C 0.44624 0.39735 0.01623 0.0
C151 C 0.59572 0.52669 0.02101 0.0
C152 C 0.75051 0.60469 0.00922 0.0
C153 C 0.76557 0.57767 0.00355 0.0
C154 C 0.80194 0.58413 0.01879 0.0
C155 C 0.82275 0.6179 0.03958 0.0
C156 C 0.77293 0.63867 0.02939 0.0
C157 C 0.80848 0.64495 0.04462 0.0
C158 C 0.61981 0.58306 0.93839 0.0
C159 C 0.71115 0.59688 0.99484 0.0
H160 H 0.40168 0.53721 0.00625 0.0
H161 H 0.33374 0.46086 0.92437 0.0
H162 H 0.46205 0.52712 0.92001 0.0
H163 H 0.39711 0.4788 0.89635 0.0
H164 H 0.74887 0.55159 0.9877 0.0
H165 H 0.85082 0.62403 0.05136 0.0
H166 H 0.76304 0.66049 0.03347 0.0
H167 H 0.82524 0.67115 0.0603 0.0
Tb168 Tb 0.48249 0.99203 0.99503 0.0
C169 C 0.36569 0.03441 0.06647 0.0
C170 C 0.30292 0.99521 0.03659 0.0
C171 C 0.30107 1.0149 0.09288 0.0
C172 C 0.34577 1.01513 0.03813 0.0
C173 C 0.34373 0.03577 0.09383 0.0
C174 C 0.28066 0.99435 0.06436 0.0
C175 C 0.40774 0.08034 0.12023 0.0
N176 N 0.40687 0.05364 0.06663 0.0
C177 C 0.42815 0.07707 0.09295 0.0
C178 C 0.36533 0.05932 0.1208 0.0
Tb179 Tb 0.43805 0.05219 0.01884 0.0
N180 N 0.36849 0.01782 0.01156 0.0
C181 C 0.34975 1.0032 0.98198 0.0
C182 C 0.28378 0.97797 0.00689 0.0
C183 C 0.30736 0.98242 0.97938 0.0
H184 H 0.46099 0.09333 0.09286 0.0
H185 H 0.29295 0.97007 0.95604 0.0
H186 H 0.24775 0.97901 0.06369 0.0
H187 H 0.42476 0.09906 0.14083 0.0
H188 H 0.36687 1.00629 0.96014 0.0
H189 H 0.56681 0.02629 0.10952 0.0
H190 H 0.25096 0.96225 0.00472 0.0
H191 H 0.51458 1.00398 0.91668 0.0
H192 H 0.50685 1.0057 0.07627 0.0
H193 H 0.57943 0.03169 0.88752 0.0
H194 H 0.28363 1.01519 0.1138 0.0
H195 H 0.63343 0.04962 0.08349 0.0
H196 H 0.67513 0.06767 0.03237 0.0
H197 H 0.34958 0.06188 0.14201 0.0
H198 H 0.67889 0.07146 0.97236 0.0
N199 N 0.53738 0.01631 0.03019 0.0
C200 C 0.53487 0.01541 0.0637 0.0
C201 C 0.60688 0.04068 0.06832 0.0
C202 C 0.60987 0.04285 0.03422 0.0
C203 C 0.56932 0.02741 0.08308 0.0
C204 C 0.57416 0.03002 0.01554 0.0
H205 H 0.64371 0.05885 0.91841 0.0
N206 N 0.54141 0.0194 0.9644 0.0
C207 C 0.57914 0.03259 0.91401 0.0
C208 C 0.57627 0.03197 0.98168 0.0
C209 C 0.54238 0.01767 0.93083 0.0
C210 C 0.61526 0.04763 0.93151 0.0
C211 C 0.61413 0.0468 0.9657 0.0
O212 O 0.4661 0.94043 0.96588 0.0
O213 O 0.42586 0.99031 0.00585 0.0
O214 O 0.42873 1.01473 0.06195 0.0
O215 O 0.44885 0.96872 0.04378 0.0
O216 O 0.42926 0.96201 0.96414 0.0
O217 O 0.49482 0.94606 0.01204 0.0
O218 O 0.426 0.09047 0.98876 0.0
O219 O 0.493 0.05184 0.00494 0.0
O220 O 0.4863 0.03167 0.9526 0.0
O221 O 0.43726 0.04905 0.96565 0.0
O222 O 0.4983 0.08902 0.0423 0.0
O223 O 0.4628 0.11393 0.03161 0.0
C224 C 0.40423 0.96628 0.98287 0.0
C225 C 0.50864 0.91057 0.96908 0.0
C226 C 0.54107 0.86766 0.96666 0.0
C227 C 0.51825 0.88231 0.9841 0.0
C228 C 0.55608 0.88388 0.93543 0.0
C229 C 0.52166 0.92265 0.93668 0.0
C230 C 0.54615 0.91065 0.92059 0.0
C231 C 0.43278 0.98251 0.06654 0.0
C232 C 0.4822 0.92491 0.98512 0.0
C233 C 0.64963 0.05988 0.98424 0.0
C234 C 0.64747 0.05769 0.01839 0.0
C235 C 0.51861 0.07816 0.02403 0.0
C236 C 0.47739 0.16105 0.98889 0.0
C237 C 0.48174 0.19895 0.99852 0.0
C238 C 0.51101 0.23597 0.98348 0.0
C239 C 0.53531 0.23368 0.95839 0.0
C240 C 0.50245 0.16033 0.96404 0.0
C241 C 0.5309 0.19632 0.94879 0.0
C242 C 0.46208 0.04648 0.94448 0.0
C243 C 0.44837 0.12293 0.00622 0.0
H244 H 0.5067 0.87064 0.00832 0.0
H245 H 0.57476 0.87481 0.92181 0.0
H246 H 0.51208 0.94065 0.92305 0.0
H247 H 0.55657 0.92129 0.89595 0.0
H248 H 0.46237 0.19941 0.01779 0.0
H249 H 0.55873 0.2609 0.94665 0.0
H250 H 0.50047 0.13202 0.95672 0.0
H251 H 0.55023 0.19535 0.92973 0.0
Tb252 Tb 0.72634 0.83432 0.32143 0.0
C253 C 0.67025 0.67002 0.3911 0.0
C254 C 0.70617 0.64173 0.36258 0.0
C255 C 0.68492 0.62217 0.41895 0.0
C256 C 0.68961 0.66775 0.36344 0.0
C257 C 0.66709 0.64687 0.41911 0.0
C258 C 0.70443 0.61958 0.3907 0.0
C259 C 0.627 0.67246 0.44456 0.0
N260 N 0.6536 0.69437 0.39019 0.0
C261 C 0.63105 0.69492 0.41625 0.0
C262 C 0.64537 0.64857 0.44611 0.0
Tb263 Tb 0.66153 0.73002 0.34238 0.0
N264 N 0.69029 0.68942 0.33679 0.0
C265 C 0.70447 0.68375 0.30764 0.0
C266 C 0.72274 0.63774 0.33322 0.0
C267 C 0.72125 0.65833 0.30549 0.0
H268 H 0.61649 0.71306 0.4157 0.0
H269 H 0.73296 0.65463 0.28236 0.0
H270 H 0.71726 0.5997 0.39059 0.0
H271 H 0.60965 0.67357 0.46517 0.0
H272 H 0.70336 0.69886 0.28575 0.0
H273 H 0.69536 0.88477 0.43731 0.0
H274 H 0.73566 0.618 0.33147 0.0
H275 H 0.72026 0.85964 0.24417 0.0
H276 H 0.71119 0.84235 0.40303 0.0
H277 H 0.7052 0.90761 0.21581 0.0
H278 H 0.68307 0.60436 0.4403 0.0
H279 H 0.68027 0.93498 0.4124 0.0
H280 H 0.67339 0.96831 0.36201 0.0
H281 H 0.64208 0.63112 0.46805 0.0
H282 H 0.67654 0.97483 0.30211 0.0
N283 N 0.70609 0.86754 0.35755 0.0
C284 C 0.70548 0.86403 0.391 0.0
C285 C 0.68738 0.91626 0.39682 0.0
C286 C 0.68796 0.91993 0.36277 0.0
C287 C 0.69603 0.88808 0.41095 0.0
C288 C 0.69707 0.89458 0.34349 0.0
H289 H 0.68695 0.95156 0.24757 0.0
N290 N 0.70544 0.8719 0.29174 0.0
C291 C 0.70217 0.90454 0.24217 0.0
C292 C 0.69704 0.89701 0.30962 0.0
C293 C 0.70975 0.87663 0.25841 0.0
C294 C 0.69219 0.92948 0.26018 0.0
C295 C 0.69004 0.92633 0.29431 0.0
O296 O 0.77909 0.86636 0.29302 0.0
O297 O 0.72494 0.77759 0.33011 0.0
O298 O 0.69977 0.75299 0.38549 0.0
O299 O 0.74648 0.82013 0.37019 0.0
O300 O 0.75392 0.80957 0.289 0.0
O301 O 0.7747 0.891 0.33893 0.0
O302 O 0.59747 0.69744 0.34959 0.0
O303 O 0.66498 0.78799 0.33117 0.0
O304 O 0.684 0.80214 0.27911 0.0
O305 O 0.66884 0.73606 0.28956 0.0
O306 O 0.62933 0.7555 0.36932 0.0
O307 O 0.6245 0.68473 0.30859 0.0
C308 C 0.74838 0.77915 0.3068 0.0
C309 C 0.81277 0.9389 0.2957 0.0
C310 C 0.85531 1.01432 0.29537 0.0
C311 C 0.83742 0.97634 0.31246 0.0
C312 C 0.84737 1.0136 0.26161 0.0
C313 C 0.8072 0.94037 0.26176 0.0
C314 C 0.82356 0.97718 0.24519 0.0
C315 C 0.73188 0.78868 0.39154 0.0
C316 C 0.79581 0.89805 0.31211 0.0
C317 C 0.68193 0.95215 0.31348 0.0
C318 C 0.68021 0.94851 0.34757 0.0
C319 C 0.6407 0.78771 0.35241 0.0
C320 C 0.55998 0.63048 0.3264 0.0
C321 C 0.51865 0.61743 0.33378 0.0
C322 C 0.48861 0.5757 0.332 0.0
C323 C 0.50043 0.54742 0.32309 0.0
C324 C 0.57067 0.60108 0.31812 0.0
C325 C 0.5411 0.56 0.31646 0.0
C326 C 0.66965 0.76363 0.26954 0.0
C327 C 0.59074 0.67463 0.324 0.0
H328 H 0.84309 0.97578 0.33839 0.0
H329 H 0.86107 0.04119 0.24717 0.0
H330 H 0.79088 0.91291 0.24744 0.0
H331 H 0.81875 0.97741 0.21907 0.0
H332 H 0.50984 0.6396 0.34036 0.0
H333 H 0.47815 0.5153 0.3219 0.0
H334 H 0.60185 0.60985 0.31234 0.0
H335 H 0.54975 0.53774 0.30986 0.0
Tb336 Tb 0.21413 0.89591 0.33233 0.0
C337 C 0.38305 1.00806 0.39453 0.0
C338 C 0.40602 0.07223 0.36698 0.0
C339 C 0.43234 0.07099 0.42097 0.0
C340 C 0.38174 0.02947 0.36784 0.0
C341 C 0.40901 0.02835 0.42113 0.0
C342 C 0.43071 0.09292 0.39397 0.0
C343 C 0.38828 0.96277 0.44523 0.0
N344 N 0.35961 0.96699 0.39392 0.0
C345 C 0.36242 0.94409 0.4186 0.0
C346 C 0.41148 1.00512 0.44664 0.0
Tb347 Tb 0.32109 0.93867 0.34786 0.0
N348 N 0.35817 1.0082 0.34205 0.0
C349 C 0.35984 0.02808 0.31362 0.0
C350 C 0.40569 0.09274 0.33866 0.0
C351 C 0.38284 0.07049 0.31173 0.0
H352 H 0.34463 0.91135 0.41793 0.0
H353 H 0.38316 0.08594 0.28936 0.0
H354 H 0.4494 0.12576 0.39384 0.0
H355 H 0.39019 0.9445 0.46474 0.0
H356 H 0.34317 1.01176 0.29219 0.0
H357 H 0.18141 0.81612 0.44925 0.0
H358 H 0.4238 0.12557 0.33703 0.0
H359 H 0.18302 0.86016 0.25618 0.0
H360 H 0.21747 0.87391 0.41326 0.0
H361 H 0.14068 0.79432 0.22966 0.0
H362 H 0.45221 0.0872 0.44131 0.0
H363 H 0.13141 0.74918 0.42687 0.0
H364 H 0.09766 0.70576 0.3779 0.0
H365 H 0.43139 0.01951 0.46738 0.0
H366 H 0.08881 0.69928 0.31823 0.0
N367 N 0.18794 0.84228 0.36922 0.0
C368 C 0.19554 0.84594 0.40226 0.0
C369 C 0.1471 0.77491 0.41051 0.0
C370 C 0.14041 0.77056 0.37678 0.0
C371 C 0.17521 0.81263 0.42321 0.0
C372 C 0.16129 0.8052 0.35656 0.0
H373 H 0.10546 0.73177 0.26291 0.0
N374 N 0.17666 0.83545 0.3044 0.0
C375 C 0.14513 0.79577 0.25592 0.0
C376 C 0.15595 0.80158 0.32305 0.0
C377 C 0.1701 0.83307 0.27116 0.0
C378 C 0.12512 0.76062 0.27476 0.0
C379 C 0.12982 0.76327 0.30876 0.0
O380 O 0.16064 0.88832 0.30868 0.0
O381 O 0.27118 0.95177 0.33786 0.0
O382 O 0.29942 0.95229 0.39288 0.0
O383 O 0.23079 0.92985 0.38094 0.0
O384 O 0.23399 0.9473 0.29964 0.0
O385 O 0.17656 0.9137 0.35654 0.0
O386 O 0.3562 0.90932 0.35216 0.0
O387 O 0.26336 0.88452 0.33811 0.0
O388 O 0.24482 0.89457 0.28503 0.0
O389 O 0.31328 0.93987 0.29552 0.0
O390 O 0.29931 0.87869 0.37143 0.0
O391 O 0.36508 0.94942 0.31203 0.0
C392 C 0.26631 0.97267 0.31555 0.0
C393 C 0.10569 0.87101 0.34649 0.0
C394 C 0.03091 0.84113 0.34386 0.0
C395 C 0.07027 0.86581 0.32995 0.0
C396 C 0.02765 0.82156 0.37378 0.0
C397 C 0.10054 0.85053 0.37639 0.0
C398 C 0.06205 0.82604 0.38971 0.0
C399 C 0.26371 0.94812 0.40058 0.0
C400 C 0.14813 0.89909 0.33436 0.0
C401 C 0.10899 0.72887 0.32877 0.0
C402 C 0.11402 0.73257 0.36273 0.0
C403 C 0.26574 0.85877 0.35585 0.0
C404 C 0.42131 0.93964 0.32504 0.0
C405 C 0.43537 0.91222 0.33277 0.0
C406 C 0.47645 0.92301 0.32707 0.0
C407 C 0.50313 0.96154 0.31404 0.0
C408 C 0.44927 0.97821 0.3126 0.0
C409 C 0.48972 0.98894 0.30719 0.0
C410 C 0.28377 0.91613 0.27542 0.0
C411 C 0.37699 0.92614 0.32576 0.0
H412 H 0.07333 0.88125 0.30692 0.0
H413 H 0.99811 0.80236 0.3848 0.0
H414 H 0.12643 0.85394 0.39004 0.0
H415 H 0.0589 0.81065 0.41277 0.0
H416 H 0.41429 0.8823 0.3423 0.0
H417 H 0.53475 0.97077 0.30973 0.0
H418 H 0.43975 0.99991 0.30625 0.0
H419 H 0.5108 0.01864 0.29734 0.0
Tb420 Tb 0.15471 0.32535 0.32907 0.0
C421 C 0.04511 0.3745 0.40333 0.0
C422 C 0.97905 0.32855 0.38039 0.0
C423 C 0.98402 0.35701 0.43461 0.0
C424 C 1.02188 0.34962 0.37814 0.0
C425 C 0.02645 0.37988 0.43126 0.0
C426 C 0.96033 0.33116 0.40925 0.0
C427 C 0.09257 0.43293 0.44881 0.0
N428 N 0.08602 0.39616 0.3991 0.0
C429 C 0.10975 0.42609 0.42097 0.0
C430 C 0.05079 0.40956 0.4541 0.0
Tb431 Tb 0.11106 0.38597 0.35097 0.0
N432 N 0.04114 0.34937 0.35019 0.0
C433 C 1.01887 0.33187 0.32253 0.0
C434 C 0.95633 0.30758 0.3529 0.0
C435 C 0.97635 0.31016 0.32361 0.0
H436 H 0.14187 0.4455 0.41691 0.0
H437 H 0.95904 0.29574 0.30172 0.0
H438 H 0.92751 0.31485 0.41157 0.0
H439 H 0.11154 0.45655 0.46602 0.0
H440 H 0.03349 0.3343 0.29935 0.0
H441 H 0.24107 0.35641 0.44258 0.0
H442 H 0.9234 0.29109 0.35356 0.0
H443 H 0.18458 0.33605 0.25045 0.0
H444 H 0.18103 0.33854 0.41047 0.0
H445 H 0.24754 0.35591 0.22035 0.0
H446 H 0.96915 0.36023 0.45613 0.0
H447 H 0.30626 0.37565 0.41545 0.0
H448 H 0.34514 0.38596 0.36378 0.0
H449 H 0.03754 0.41525 0.47554 0.0
H450 H 0.34667 0.385 0.30373 0.0
N451 N 0.20996 0.3473 0.3637 0.0
C452 C 0.20829 0.34651 0.39729 0.0
C453 C 0.27959 0.36786 0.40074 0.0
C454 C 0.28148 0.36849 0.3666 0.0
C455 C 0.24286 0.35692 0.41611 0.0
C456 C 0.24592 0.35838 0.34846 0.0
H457 H 0.31115 0.37546 0.25033 0.0
N458 N 0.21271 0.35005 0.29772 0.0
C459 C 0.2481 0.3577 0.24682 0.0
C460 C 0.24723 0.35952 0.31454 0.0
C461 C 0.21258 0.34758 0.26416 0.0
C462 C 0.28379 0.36835 0.26381 0.0
C463 C 0.28362 0.36888 0.29802 0.0
O464 O 0.137 0.27328 0.30023 0.0
O465 O 0.09813 0.32311 0.33972 0.0
O466 O 0.10493 0.35434 0.39656 0.0
O467 O 0.12276 0.3064 0.37912 0.0
O468 O 0.10065 0.29443 0.29852 0.0
O469 O 0.16553 0.27849 0.34646 0.0
O470 O 0.14765 0.44998 0.34618 0.0
O471 O 0.16707 0.38589 0.33828 0.0
O472 O 0.16055 0.36696 0.28729 0.0
O473 O 0.10605 0.37608 0.29837 0.0
O474 O 0.16864 0.41942 0.37782 0.0
O475 O 0.08764 0.41923 0.32683 0.0
C476 C 0.07541 0.29753 0.31783 0.0
C477 C 0.17895 0.2428 0.3034 0.0
C478 C 0.21272 0.20113 0.3015 0.0
C479 C 0.18984 0.21575 0.31889 0.0
C480 C 0.22673 0.21647 0.26987 0.0
C481 C 0.19053 0.25346 0.27054 0.0
C482 C 0.21534 0.24184 0.25452 0.0
C483 C 0.10784 0.32164 0.40175 0.0
C484 C 0.15278 0.25744 0.31949 0.0
C485 C 0.31859 0.37788 0.31604 0.0
C486 C 0.31772 0.37837 0.35022 0.0
C487 C 0.19042 0.40988 0.36 0.0
C488 C 0.11243 0.48674 0.34702 0.0
C489 C 0.13906 0.52854 0.34008 0.0
C490 C 0.1335 0.55902 0.35535 0.0
C491 C 0.10112 0.54698 0.37747 0.0
C492 C 0.07962 0.47605 0.36837 0.0
C493 C 0.07433 0.50592 0.38368 0.0
C494 C 0.13389 0.37829 0.278 0.0
C495 C 0.11936 0.45455 0.33269 0.0
H496 H 0.17921 0.20493 0.34346 0.0
H497 H 0.24558 0.20759 0.25629 0.0
H498 H 0.17971 0.27021 0.25655 0.0
H499 H 0.22483 0.2516 0.22956 0.0
H500 H 0.16412 0.53729 0.32321 0.0
H501 H 0.09583 0.56945 0.38935 0.0
H502 H 0.05794 0.44455 0.37332 0.0
H503 H 0.0491 0.49714 0.40033 0.0
Tb504 Tb 0.3907 0.17132 0.66264 0.0
C505 C 0.34138 1.01184 0.73582 0.0
C506 C 0.38812 0.99246 0.71331 0.0
C507 C 0.359 0.96844 0.76727 0.0
C508 C 0.36676 1.01394 0.71088 0.0
C509 C 0.33587 0.98773 0.76372 0.0
C510 C 0.3853 0.97099 0.74213 0.0
C511 C 0.28216 1.00012 0.78078 0.0
N512 N 0.31948 0.03082 0.73138 0.0
C513 C 0.28913 0.02419 0.75297 0.0
C514 C 0.30583 0.98206 0.78633 0.0
Tb515 Tb 0.33031 0.06665 0.68351 0.0
N516 N 0.3673 0.03365 0.68299 0.0
C517 C 0.38543 0.02938 0.6555 0.0
C518 C 0.40965 0.99115 0.68602 0.0
C519 C 0.40738 1.00879 0.65675 0.0
H520 H 0.26954 0.03668 0.74872 0.0
H521 H 0.42227 1.00628 0.63499 0.0
H522 H 0.40183 0.95469 0.74459 0.0
H523 H 0.25825 0.99519 0.79779 0.0
H524 H 0.38339 0.04184 0.63235 0.0
H525 H 0.358 0.22571 0.77605 0.0
H526 H 0.42637 0.97493 0.68681 0.0
H527 H 0.37995 0.19053 0.58383 0.0
H528 H 0.37647 0.18394 0.74411 0.0
H529 H 0.35981 0.23338 0.55381 0.0
H530 H 0.35567 0.9503 0.78877 0.0
H531 H 0.33868 0.27154 0.74883 0.0
H532 H 0.32861 0.30018 0.69717 0.0
H533 H 0.30007 0.9631 0.80775 0.0
H534 H 0.32996 0.30289 0.63714 0.0
N535 N 0.36805 0.20418 0.69721 0.0
C536 C 0.3685 0.20316 0.73082 0.0
C537 C 0.34676 0.25283 0.73416 0.0
C538 C 0.34641 0.25421 0.70002 0.0
C539 C 0.35774 0.22711 0.74958 0.0
C540 C 0.35689 0.22898 0.68193 0.0
H541 H 0.33992 0.27719 0.58379 0.0
N542 N 0.36573 0.2044 0.63117 0.0
C543 C 0.35796 0.2321 0.58027 0.0
C544 C 0.35597 0.22927 0.64799 0.0
C545 C 0.36822 0.2068 0.59759 0.0
C546 C 0.34713 0.25701 0.59727 0.0
C547 C 0.34648 0.25622 0.63147 0.0
O548 O 0.44302 0.20587 0.63415 0.0
O549 O 0.39318 0.11705 0.67324 0.0
O550 O 0.36101 0.09178 0.72949 0.0
O551 O 0.40866 0.15805 0.71291 0.0
O552 O 0.42298 0.14903 0.63271 0.0
O553 O 0.43703 0.22911 0.68018 0.0
O554 O 0.26633 0.03898 0.67818 0.0
O555 O 0.33019 0.12273 0.67105 0.0
O556 O 0.35006 0.13585 0.62049 0.0
O557 O 0.34146 0.07231 0.63103 0.0
O558 O 0.29612 0.09014 0.71016 0.0
O559 O 0.29774 1.01054 0.6585 0.0
C560 C 0.41943 0.12036 0.65182 0.0
C561 C 0.4724 0.27809 0.63708 0.0
C562 C 0.51268 0.3535 0.63495 0.0
C563 C 0.49901 0.31623 0.65242 0.0
C564 C 0.49661 0.35168 0.60353 0.0
C565 C 0.46147 0.27859 0.60424 0.0
C566 C 0.47191 0.31474 0.58825 0.0
C567 C 0.39315 0.12761 0.73525 0.0
C568 C 0.45834 0.23754 0.65334 0.0
C569 C 0.33718 0.282 0.64947 0.0
C570 C 0.33645 0.2805 0.68363 0.0
C571 C 0.3058 0.12166 0.6926 0.0
C572 C 0.22997 0.96701 0.6778 0.0
C573 C 0.18823 0.95163 0.67038 0.0
C574 C 0.15768 0.91501 0.68488 0.0
C575 C 0.16966 0.89429 0.70668 0.0
C576 C 0.24056 0.9446 0.69891 0.0
C577 C 0.21066 0.90884 0.71341 0.0
C578 C 0.33978 0.09832 0.61077 0.0
C579 C 0.26221 1.00657 0.66418 0.0
H580 H 0.51024 0.31677 0.6769 0.0
H581 H 0.50458 0.3792 0.58996 0.0
H582 H 0.44538 0.25095 0.59027 0.0
H583 H 0.46178 0.31413 0.56336 0.0
H584 H 0.17957 0.96825 0.65375 0.0
H585 H 0.14722 0.86608 0.71797 0.0
H586 H 0.27203 0.95467 0.7043 0.0
H587 H 0.21936 0.89212 0.72985 0.0
Tb588 Tb 0.88306 0.23263 0.66184 0.0
C589 C 0.05001 0.34239 0.72958 0.0
C590 C 0.07272 0.40761 0.70406 0.0
C591 C 0.09879 0.40433 0.75759 0.0
C592 C 0.0485 0.3648 0.70381 0.0
C593 C 0.07598 0.3617 0.75643 0.0
C594 C 0.09704 0.42729 0.73146 0.0
C595 C 0.05694 0.29536 0.77786 0.0
N596 N 0.02738 0.30135 0.72754 0.0
C597 C 0.03112 0.27766 0.75105 0.0
C598 C 0.07926 0.33758 0.78072 0.0
Tb599 Tb 0.98799 0.27447 0.68148 0.0
N600 N 0.0254 0.34446 0.67754 0.0
C601 C 0.02794 0.36552 0.64957 0.0
C602 C 0.07304 0.42922 0.67627 0.0
C603 C 0.05112 0.40799 0.64871 0.0
H604 H 1.01445 0.24498 0.74936 0.0
H605 H 0.0522 0.4243 0.62663 0.0
H606 H 0.11558 0.46014 0.7322 0.0
H607 H 0.05955 0.27637 0.79637 0.0
H608 H 1.01205 0.35021 0.6276 0.0
H609 H 0.82812 0.13765 0.77093 0.0
H610 H 0.09119 0.46209 0.67544 0.0
H611 H 0.86143 0.21069 0.58258 0.0
H612 H 0.87186 0.19982 0.74124 0.0
H613 H 0.8147 0.15135 0.54967 0.0
H614 H 0.11858 0.41975 0.77817 0.0
H615 H 0.77907 0.07574 0.74127 0.0
H616 H 0.74734 0.04211 0.68826 0.0
H617 H 0.09921 0.35121 0.80157 0.0
H618 H 0.74316 0.04608 0.62848 0.0
N619 N 0.84888 0.17506 0.69368 0.0
C620 C 0.85078 0.17397 0.7272 0.0
C621 C 0.79851 0.10328 0.7277 0.0
C622 C 0.79625 0.10434 0.69361 0.0
C623 C 0.82599 0.1382 0.74451 0.0
C624 C 0.82256 0.14087 0.67699 0.0
H625 H 0.76929 0.08577 0.57669 0.0
N626 N 0.84717 0.17802 0.62776 0.0
C627 C 0.81663 0.14824 0.57585 0.0
C628 C 0.82144 0.14253 0.64309 0.0
C629 C 0.84377 0.18161 0.59462 0.0
C630 C 0.79091 0.1114 0.59121 0.0
C631 C 0.79255 0.10836 0.62522 0.0
O632 O 0.85114 0.25583 0.63624 0.0
O633 O 0.93833 0.28818 0.67292 0.0
O634 O 0.96501 0.28505 0.72689 0.0
O635 O 0.89628 0.26032 0.71348 0.0
O636 O 0.90721 0.2879 0.6325 0.0
O637 O 0.82555 0.22149 0.68001 0.0
O638 O 1.02015 0.24191 0.68375 0.0
O639 O 0.93074 0.21921 0.67005 0.0
O640 O 0.91635 0.22441 0.61937 0.0
O641 O 0.9801 0.27898 0.62931 0.0
O642 O 0.96398 0.21662 0.70794 0.0
O643 O 0.03305 0.28618 0.64637 0.0
C644 C 0.93599 0.31204 0.65196 0.0
C645 C 0.7786 0.2161 0.63725 0.0
C646 C 0.7032 0.18344 0.63542 0.0
C647 C 0.74054 0.20197 0.65345 0.0
C648 C 0.70511 0.17897 0.60135 0.0
C649 C 0.77831 0.21219 0.60295 0.0
C650 C 0.74212 0.19309 0.58546 0.0
C651 C 0.92807 0.27758 0.73457 0.0
C652 C 0.81892 0.23837 0.65473 0.0
C653 C 0.76558 0.0725 0.64182 0.0
C654 C 0.76794 0.07024 0.67585 0.0
C655 C 0.93181 0.19538 0.69103 0.0
C656 C 0.08688 0.27294 0.65966 0.0
C657 C 0.09947 0.24451 0.66791 0.0
C658 C 0.14062 0.25463 0.66413 0.0
C659 C 0.16885 0.29341 0.65243 0.0
C660 C 0.11631 0.31171 0.6485 0.0
C661 C 0.15683 0.32172 0.64497 0.0
C662 C 0.95399 0.25093 0.60938 0.0
C663 C 0.04288 0.26066 0.65872 0.0
H664 H 0.74013 0.20604 0.67967 0.0
H665 H 0.67801 0.16624 0.58633 0.0
H666 H 0.80624 0.22488 0.5891 0.0
H667 H 0.74284 0.19038 0.5591 0.0
H668 H 0.07731 0.21445 0.67651 0.0
H669 H 0.20056 0.30208 0.64963 0.0
H670 H 0.10797 0.33418 0.64178 0.0
H671 H 0.17905 0.35159 0.63614 0.0
Tb672 Tb 0.81756 0.65855 0.657 0.0
C673 C 0.71131 0.71831 0.72559 0.0
C674 C 0.64595 0.67812 0.69954 0.0
C675 C 0.64981 0.70602 0.75384 0.0
C676 C 0.68865 0.69579 0.69929 0.0
C677 C 0.69237 0.72469 0.75284 0.0
C678 C 0.62659 0.68256 0.72727 0.0
C679 C 0.75906 0.76917 0.77519 0.0
N680 N 0.75226 0.73546 0.72379 0.0
C681 C 0.77636 0.76127 0.74796 0.0
C682 C 0.71686 0.75062 0.77776 0.0
Tb683 Tb 0.77842 0.72431 0.67681 0.0
N684 N 0.70869 0.69329 0.67269 0.0
C685 C 0.68757 0.67585 0.6445 0.0
C686 C 0.62416 0.65777 0.67151 0.0
C687 C 0.64515 0.65712 0.64372 0.0
H688 H 0.80903 0.77588 0.74641 0.0
H689 H 0.62873 0.64252 0.62154 0.0
H690 H 0.59382 0.66901 0.72801 0.0
H691 H 0.77831 0.78948 0.79425 0.0
H692 H 0.70283 0.67555 0.62237 0.0
H693 H 0.90526 0.69755 0.77001 0.0
H694 H 0.59134 0.64367 0.67072 0.0
H695 H 0.84534 0.65916 0.57918 0.0
H696 H 0.84419 0.67533 0.73769 0.0
H697 H 0.90866 0.68095 0.54855 0.0
H698 H 0.63464 0.7102 0.77472 0.0
H699 H 0.97083 0.71834 0.74298 0.0
H700 H 1.01063 0.73196 0.69111 0.0
H701 H 0.70353 0.75674 0.79893 0.0
H702 H 1.01195 0.72951 0.63104 0.0
N703 N 0.87326 0.68287 0.69124 0.0
C704 C 0.87181 0.68404 0.72474 0.0
C705 C 0.94384 0.70878 0.72822 0.0
C706 C 0.94564 0.70837 0.69407 0.0
C707 C 0.90686 0.69691 0.74357 0.0
C708 C 0.90938 0.69476 0.676 0.0
H709 H 0.97433 0.71089 0.57782 0.0
N710 N 0.87481 0.68018 0.6254 0.0
C711 C 0.90969 0.68534 0.5748 0.0
C712 C 0.91019 0.69364 0.6421 0.0
C713 C 0.87389 0.67357 0.59231 0.0
C714 C 0.94662 0.70203 0.59141 0.0
C715 C 0.94715 0.7056 0.6255 0.0
O716 O 0.79588 0.6037 0.63124 0.0
O717 O 0.76275 0.66057 0.66725 0.0
O718 O 0.76771 0.68968 0.72201 0.0
O719 O 0.78498 0.6405 0.70653 0.0
O720 O 0.76364 0.62869 0.62694 0.0
O721 O 0.8296 0.61287 0.67537 0.0
O722 O 0.80987 0.78879 0.68136 0.0
O723 O 0.83159 0.71994 0.66415 0.0
O724 O 0.82305 0.69624 0.61263 0.0
O725 O 0.77449 0.71464 0.62407 0.0
O726 O 0.83874 0.75952 0.70017 0.0
O727 O 0.76771 0.75886 0.64222 0.0
C728 C 0.73997 0.63564 0.64518 0.0
C729 C 0.83666 0.57194 0.63302 0.0
C730 C 0.87016 0.52987 0.63206 0.0
C731 C 0.85096 0.54839 0.64964 0.0
C732 C 0.87484 0.53599 0.59795 0.0
C733 C 0.84134 0.57579 0.5988 0.0
C734 C 0.86079 0.55872 0.5817 0.0
C735 C 0.77028 0.65682 0.72833 0.0
C736 C 0.81346 0.58935 0.65002 0.0
C737 C 0.9833 0.7199 0.64341 0.0
C738 C 0.98253 0.72119 0.67761 0.0
C739 C 0.85785 0.74636 0.68284 0.0
C740 C 0.77952 0.82507 0.65698 0.0
C741 C 0.80782 0.86621 0.6649 0.0
C742 C 0.79743 0.89705 0.661 0.0
C743 C 0.75843 0.88613 0.64957 0.0
C744 C 0.74051 0.81535 0.64619 0.0
C745 C 0.73019 0.84564 0.64256 0.0
C746 C 0.79917 0.71106 0.60338 0.0
C747 C 0.79224 0.79366 0.65591 0.0
H748 H 0.84658 0.54405 0.67584 0.0
H749 H 0.88786 0.52169 0.58318 0.0
H750 H 0.82896 0.59114 0.5847 0.0
H751 H 0.8639 0.56213 0.55536 0.0
H752 H 0.83806 0.87435 0.6732 0.0
H753 H 0.74951 0.90898 0.64666 0.0
H754 H 0.71811 0.7844 0.6398 0.0
H755 H 0.70015 0.83771 0.63398 0.0
H756 H 0.30385 0.50413 0.93241 0.0
H757 H 0.32836 0.47619 0.02969 0.0
H758 H 0.25707 0.45483 0.04591 0.0
H759 H 0.23679 0.54148 0.95518 0.0
H760 H 0.20514 0.51947 0.91962 0.0
H761 H 0.25821 0.53459 0.91796 0.0
H762 H 0.2387 0.46166 0.89951 0.0
H763 H 0.18554 0.44613 0.90183 0.0
H764 H 0.20503 0.41892 0.92467 0.0
H765 H 0.17837 0.4341 0.04959 0.0
H766 H 0.10861 0.42323 0.04116 0.0
H767 H 0.13864 0.46074 0.94013 0.0
C768 C 0.29451 0.4937 0.95728 0.0
C769 C 0.322 0.49174 0.97968 0.0
C770 C 0.30823 0.47838 0.01207 0.0
C771 C 0.26754 0.46576 0.02134 0.0
C772 C 0.24081 0.46653 0.99796 0.0
C773 C 0.25432 0.48059 0.96662 0.0
C774 C 0.2206 0.4783 0.94537 0.0
C775 C 0.23079 0.52099 0.93387 0.0
C776 C 0.21198 0.44954 0.91613 0.0
C777 C 0.18558 0.46076 0.96936 0.0
C778 C 0.19729 0.45413 0.99975 0.0
C779 C 0.16939 0.43939 0.02577 0.0
C780 C 0.12963 0.43314 0.02082 0.0
C781 C 0.11797 0.44151 0.99011 0.0
C782 C 0.14622 0.45391 0.96398 0.0
H783 H 0.53079 0.80176 0.93193 0.0
H784 H 0.56979 0.85812 0.02725 0.0
H785 H 0.59214 0.8083 0.04117 0.0
H786 H 0.4953 0.69775 0.95653 0.0
H787 H 0.51313 0.68637 0.9193 0.0
H788 H 0.49803 0.7244 0.91922 0.0
H789 H 0.56857 0.77668 0.89566 0.0
H790 H 0.58414 0.739 0.89632 0.0
H791 H 0.61395 0.78664 0.91742 0.0
H792 H 0.61305 0.75056 0.04248 0.0
H793 H 0.6237 0.6919 0.03248 0.0
H794 H 0.57464 0.67954 0.93477 0.0
C795 C 0.54373 0.80362 0.95594 0.0
C796 C 0.54852 0.8342 0.97844 0.0
C797 C 0.56531 0.83491 0.00964 0.0
C798 C 0.5785 0.80689 0.01758 0.0
C799 C 0.57481 0.77823 0.99407 0.0
C800 C 0.55737 0.7765 0.96396 0.0
C801 C 0.55714 0.74401 0.94226 0.0
C802 C 0.5133 0.71119 0.93385 0.0
C803 C 0.58246 0.76272 0.91108 0.0
C804 C 0.57725 0.7274 0.96457 0.0
C805 C 0.58726 0.74708 0.99449 0.0
C806 C 0.60513 0.73525 0.01902 0.0
C807 C 0.61131 0.70186 0.01312 0.0
C808 C 0.59993 0.68061 0.98289 0.0
C809 C 0.58391 0.69488 0.9582 0.0
H810 H 0.36626 0.90465 0.93937 0.0
H811 H 0.35027 0.94047 0.03641 0.0
H812 H 0.2915 0.87092 0.04537 0.0
H813 H 0.26011 0.83603 0.91985 0.0
H814 H 0.2717 0.8014 0.89864 0.0
H815 H 0.30863 0.85482 0.89993 0.0
H816 H 0.36137 0.83776 0.92436 0.0
H817 H 0.32439 0.78436 0.92383 0.0
H818 H 0.34944 0.80847 0.96158 0.0
H819 H 0.23465 0.79177 0.04331 0.0
H820 H 0.18664 0.71932 0.02886 0.0
H821 H 0.24689 0.73821 0.93511 0.0
C822 C 0.35012 0.89838 0.96244 0.0
C823 C 0.36346 0.92842 0.9873 0.0
C824 C 0.34103 0.91831 0.01694 0.0
C825 C 0.30761 0.8786 0.02226 0.0
C826 C 0.29696 0.84906 0.99772 0.0
C827 C 0.31767 0.85908 0.96826 0.0
C828 C 0.30249 0.82249 0.94595 0.0
C829 C 0.28466 0.82908 0.91423 0.0
C830 C 0.33644 0.81271 0.93851 0.0
C831 C 0.2697 0.78988 0.96712 0.0
C832 C 0.26645 0.80527 0.99694 0.0
C833 C 0.23725 0.77983 0.01993 0.0
C834 C 0.21028 0.73846 0.0117 0.0
C835 C 0.2126 0.72271 0.98076 0.0
C836 C 0.24373 0.749 0.95888 0.0
H837 H 0.53531 0.30655 0.9466 0.0
H838 H 0.50376 0.25989 0.04589 0.0
H839 H 0.51855 0.32755 0.06481 0.0
H840 H 0.6205 0.40505 0.97115 0.0
H841 H 0.61174 0.43216 0.93887 0.0
H842 H 0.59789 0.37974 0.93312 0.0
H843 H 0.52636 0.36382 0.91832 0.0
H844 H 0.53689 0.41481 0.92651 0.0
H845 H 0.49594 0.37204 0.94758 0.0
H846 H 0.54373 0.402 0.07432 0.0
H847 H 0.57089 0.47617 0.07289 0.0
H848 H 0.58266 0.47564 0.96739 0.0
C849 C 0.53158 0.31031 0.97241 0.0
C850 C 0.51794 0.277 0.99459 0.0
C851 C 0.51319 0.28401 0.02804 0.0
C852 C 0.52197 0.32269 0.03916 0.0
C853 C 0.5357 0.35463 0.01673 0.0
C854 C 0.54052 0.34891 0.98403 0.0
C855 C 0.55669 0.38872 0.96517 0.0
C856 C 0.59922 0.4022 0.95126 0.0
C857 C 0.52721 0.38469 0.93779 0.0
C858 C 0.55894 0.4175 0.99221 0.0
C859 C 0.54771 0.39723 0.0219 0.0
C860 C 0.55151 0.41786 0.05111 0.0
C861 C 0.56694 0.46006 0.05006 0.0
C862 C 0.57704 0.48146 0.01999 0.0
C863 C 0.57329 0.45981 0.99061 0.0
H864 H 0.58051 0.11861 0.06846 0.0
H865 H 0.55658 0.10176 0.96426 0.0
H866 H 0.62992 0.1463 0.95293 0.0
H867 H 0.6597 0.22605 0.0615 0.0
H868 H 0.68987 0.22347 0.09448 0.0
H869 H 0.63545 0.19062 0.09465 0.0
H870 H 0.64339 0.12588 0.09818 0.0
H871 H 0.69727 0.16053 0.1009 0.0
H872 H 0.67785 0.12185 0.0699 0.0
H873 H 0.70765 0.19116 0.9532 0.0
H874 H 0.78153 0.23047 0.96525 0.0
H875 H 0.75484 0.21934 0.06916 0.0
C876 C 0.59083 0.1243 0.04328 0.0
C877 C 0.56291 0.10547 0.01725 0.0
C878 C 0.57745 0.11462 0.98462 0.0
C879 C 0.61912 0.14024 0.97796 0.0
C880 C 0.64609 0.1574 0.00417 0.0
C881 C 0.63244 0.14995 0.03622 0.0
C882 C 0.66762 0.17265 0.05994 0.0
C883 C 0.66287 0.20512 0.07875 0.0
C884 C 0.67166 0.14341 0.08362 0.0
C885 C 0.70337 0.19218 0.03639 0.0
C886 C 0.69032 0.18374 0.00427 0.0
C887 C 0.71805 0.19807 0.9783 0.0
C888 C 0.76004 0.22063 0.98534 0.0
C889 C 0.77419 0.22822 0.01811 0.0
C890 C 0.74513 0.2142 0.04382 0.0
H891 H 0.93034 0.47615 0.06742 0.0
H892 H 0.94766 0.46583 0.96374 0.0
H893 H 0.90314 0.49422 0.95083 0.0
H894 H 0.82318 0.44783 0.05986 0.0
H895 H 0.82578 0.48185 0.09177 0.0
H896 H 0.85875 0.46041 0.09312 0.0
H897 H 0.92307 0.53309 0.09535 0.0
H898 H 0.88864 0.55273 0.09651 0.0
H899 H 0.92747 0.57035 0.06565 0.0
H900 H 0.85745 0.52594 0.94932 0.0
H901 H 0.81747 0.56027 0.95955 0.0
H902 H 0.82919 0.54941 0.06411 0.0
C903 C 0.92476 0.48 0.04202 0.0
C904 C 0.94358 0.46997 0.01657 0.0
C905 C 0.9347 0.47446 0.98365 0.0
C906 C 0.90911 0.49028 0.97609 0.0
C907 C 0.89177 0.50081 1.00171 0.0
C908 C 0.89918 0.49576 0.03406 0.0
C909 C 0.87644 0.50907 0.05701 0.0
C910 C 0.84412 0.47262 0.07659 0.0
C911 C 0.90572 0.54332 0.07998 0.0
C912 C 0.85675 0.52421 0.03263 0.0
C913 C 0.86522 0.51843 1.00082 0.0
C914 C 0.85056 0.53042 0.97416 0.0
C915 C 0.8276 0.54969 0.98017 0.0
C916 C 0.81999 0.55748 0.01258 0.0
C917 C 0.83436 0.54385 0.03903 0.0
H918 H 0.81345 0.82808 0.34614 0.0
H919 H 0.77444 0.73486 0.27191 0.0
H920 H 0.843 0.74268 0.27117 0.0
H921 H 0.91071 0.89106 0.31053 0.0
H922 H 0.93714 0.90959 0.34889 0.0
H923 H 0.88396 0.89402 0.34594 0.0
H924 H 0.86969 0.84592 0.39402 0.0
H925 H 0.92167 0.85805 0.39691 0.0
H926 H 0.88228 0.80592 0.39132 0.0
H927 H 0.91826 0.76299 0.2773 0.0
H928 H 0.99041 0.78995 0.29297 0.0
H929 H 0.98142 0.87134 0.36228 0.0
C930 C 0.81856 0.80747 0.33127 0.0
C931 C 0.78672 0.77753 0.31166 0.0
C932 C 0.79661 0.75495 0.28957 0.0
C933 C 0.83605 0.76004 0.28838 0.0
C934 C 0.86634 0.78919 0.30853 0.0
C935 C 0.85799 0.81251 0.32968 0.0
C936 C 0.89657 0.84362 0.34724 0.0
C937 C 0.90774 0.88715 0.33757 0.0
C938 C 0.89223 0.83792 0.38457 0.0
C939 C 0.92751 0.83301 0.33374 0.0
C940 C 0.90971 0.80215 0.31087 0.0
C941 C 0.93236 0.78725 0.29511 0.0
C942 C 0.97356 0.8031 0.30383 0.0
C943 C 0.99198 0.83349 0.32822 0.0
C944 C 0.96855 0.8489 0.34293 0.0
H945 H 0.20311 0.13518 0.26741 0.0
H946 H 0.24217 0.19286 0.36228 0.0
H947 H 0.26502 0.14353 0.37672 0.0
H948 H 0.16825 0.03203 0.29255 0.0
H949 H 0.18612 0.02038 0.25546 0.0
H950 H 0.17102 0.05839 0.25506 0.0
H951 H 0.24162 0.11046 0.23142 0.0
H952 H 0.25721 0.0728 0.23247 0.0
H953 H 0.28697 0.12062 0.25333 0.0
H954 H 0.28567 0.08539 0.37875 0.0
H955 H 0.29519 0.02583 0.36954 0.0
H956 H 0.24663 1.01308 0.27161 0.0
C957 C 0.2163 0.13755 0.2914 0.0
C958 C 0.22092 0.16831 0.31361 0.0
C959 C 0.23788 0.16954 0.34485 0.0
C960 C 0.25136 0.14181 0.35308 0.0
C961 C 0.24785 0.11298 0.3298 0.0
C962 C 0.23032 0.11084 0.29965 0.0
C963 C 0.23011 0.07819 0.27822 0.0
C964 C 0.18628 0.04531 0.26985 0.0
C965 C 0.25549 0.09664 0.24702 0.0
C966 C 0.2502 0.06183 0.30076 0.0
C967 C 0.26028 0.0818 0.33056 0.0
C968 C 0.27777 0.06989 0.35537 0.0
C969 C 0.28332 0.03602 0.34993 0.0
C970 C 0.27151 1.01434 0.31989 0.0
C971 C 0.25626 0.02887 0.29484 0.0
H972 H 0.99737 0.25677 0.29115 0.0
H973 H 0.07722 0.24083 0.35702 0.0
H974 H 0.0257 0.16967 0.36522 0.0
H975 H 0.89839 0.18285 0.33318 0.0
H976 H 0.87241 0.16422 0.29466 0.0
H977 H 0.91282 0.21626 0.29826 0.0
H978 H 0.95047 0.20581 0.24982 0.0
H979 H 0.91049 0.15377 0.246 0.0
H980 H 0.96228 0.16536 0.25162 0.0
H981 H 0.96859 0.09713 0.36136 0.0
H982 H 0.91266 0.03026 0.34352 0.0
H983 H 0.86693 0.09131 0.28127 0.0
C984 C 1.0028 0.23915 0.30915 0.0
C985 C 0.04013 0.25657 0.32659 0.0
C986 C 0.04768 0.23034 0.34639 0.0
C987 C 1.01862 0.18911 0.3506 0.0
C988 C 0.98178 0.17333 0.33409 0.0
C989 C 0.97367 0.19753 0.3137 0.0
C990 C 0.93344 0.17177 0.29602 0.0
C991 C 0.90242 0.18453 0.30614 0.0
C992 C 0.93956 0.17434 0.25866 0.0
C993 C 0.92113 0.12942 0.30885 0.0
C994 C 0.94927 0.13104 0.33102 0.0
C995 C 0.94595 0.09558 0.3444 0.0
C996 C 0.9137 0.05749 0.33429 0.0
C997 C 0.88491 0.05473 0.31082 0.0
C998 C 0.88836 0.09168 0.29893 0.0
H999 H 0.24843 0.79688 0.39933 0.0
H1000 H 0.24311 0.82068 0.29624 0.0
H1001 H 0.21286 0.74728 0.28424 0.0
H1002 H 0.27473 0.71749 0.38667 0.0
H1003 H 0.24527 0.68733 0.421 0.0
H1004 H 0.26692 0.74176 0.42166 0.0
H1005 H 0.19523 0.73374 0.43131 0.0
H1006 H 0.1754 0.67967 0.43273 0.0
H1007 H 0.15403 0.70031 0.40463 0.0
H1008 H 0.18196 0.67003 0.28369 0.0
H1009 H 0.14946 0.59614 0.29524 0.0
H1010 H 0.17422 0.62231 0.39866 0.0
C1011 C 0.24075 0.7865 0.37427 0.0
C1012 C 0.24707 0.81439 0.34881 0.0
C1013 C 0.23748 0.7998 0.31624 0.0
C1014 C 0.22057 0.75813 0.30917 0.0
C1015 C 0.21394 0.73124 0.33488 0.0
C1016 C 0.22369 0.74487 0.36683 0.0
C1017 C 0.21356 0.70967 0.38997 0.0
C1018 C 0.25244 0.71435 0.40575 0.0
C1019 C 0.18274 0.70569 0.4162 0.0
C1020 C 0.19506 0.67398 0.36632 0.0
C1021 C 0.19636 0.6871 0.33454 0.0
C1022 C 0.18092 0.65954 0.30851 0.0
C1023 C 0.16276 0.61759 0.31523 0.0
C1024 C 0.15947 0.60337 0.34777 0.0
C1025 C 0.17647 0.63222 0.37348 0.0
H1026 H 0.24558 0.44361 0.30758 0.0
H1027 H 0.23758 0.43588 0.41349 0.0
H1028 H 0.31176 0.48075 0.41762 0.0
H1029 H 0.34681 0.45326 0.2938 0.0
H1030 H 0.35797 0.49062 0.26275 0.0
H1031 H 0.30584 0.45329 0.27109 0.0
H1032 H 0.29593 0.51683 0.27833 0.0
H1033 H 0.34979 0.55152 0.27431 0.0
H1034 H 0.32331 0.55272 0.31053 0.0
H1035 H 0.38683 0.5252 0.41111 0.0
H1036 H 0.45877 0.56484 0.3937 0.0
H1037 H 0.42075 0.54779 0.29217 0.0
C1038 C 0.25974 0.45078 0.33152 0.0
C1039 C 0.23586 0.43483 0.36031 0.0
C1040 C 0.25527 0.44675 0.39118 0.0
C1041 C 0.29745 0.47244 0.39378 0.0
C1042 C 0.32021 0.48759 0.36524 0.0
C1043 C 0.30222 0.47756 0.33461 0.0
C1044 C 0.33397 0.50104 0.30819 0.0
C1045 C 0.33611 0.47271 0.28246 0.0
C1046 C 0.32522 0.53238 0.29188 0.0
C1047 C 0.3728 0.52221 0.3286 0.0
C1048 C 0.36378 0.5151 0.36155 0.0
C1049 C 0.39423 0.53114 0.38537 0.0
C1050 C 0.43504 0.55387 0.37532 0.0
C1051 C 0.44535 0.56 0.34172 0.0
C1052 C 0.41368 0.54429 0.31807 0.0
H1053 H 0.50935 0.88847 0.28644 0.0
H1054 H 0.48395 0.89913 0.38826 0.0
H1055 H 0.5236 0.86649 0.40497 0.0
H1056 H 0.50401 0.78577 0.29906 0.0
H1057 H 0.54229 0.79747 0.26822 0.0
H1058 H 0.50808 0.81729 0.26464 0.0
H1059 H 0.56958 0.88766 0.25885 0.0
H1060 H 0.60588 0.87123 0.26629 0.0
H1061 H 0.60499 0.90969 0.29194 0.0
H1062 H 0.56896 0.83655 0.41092 0.0
H1063 H 0.61343 0.8068 0.40624 0.0
H1064 H 0.61178 0.81523 0.30044 0.0
C1065 C 0.51124 0.8828 0.31219 0.0
C1066 C 0.49318 0.89602 0.33614 0.0
C1067 C 0.49686 0.88869 0.36957 0.0
C1068 C 0.51959 0.8704 0.37924 0.0
C1069 C 0.53791 0.85874 0.35516 0.0
C1070 C 0.53298 0.86346 0.32226 0.0
C1071 C 0.55587 0.84793 0.30149 0.0
C1072 C 0.52577 0.80986 0.28221 0.0
C1073 C 0.58599 0.88111 0.27828 0.0
C1074 C 0.57725 0.83696 0.32789 0.0
C1075 C 0.56531 0.84243 0.35863 0.0
C1076 C 0.57863 0.83237 0.38701 0.0
C1077 C 0.60411 0.81563 0.3841 0.0
C1078 C 0.61738 0.80995 0.35314 0.0
C1079 C 0.60354 0.82068 0.32452 0.0
H1080 H 0.62696 0.11878 0.61891 0.0
H1081 H 0.68552 0.2225 0.68439 0.0
H1082 H 0.61801 0.21129 0.70071 0.0
H1083 H 0.55512 0.1416 0.58837 0.0
H1084 H 0.51439 0.08972 0.58479 0.0
H1085 H 0.56637 0.10116 0.58255 0.0
H1086 H 0.55351 0.05097 0.6302 0.0
H1087 H 0.50135 0.03932 0.63226 0.0
H1088 H 0.53291 0.05677 0.6683 0.0
H1089 H 0.54557 0.1967 0.70235 0.0
H1090 H 0.47491 0.17791 0.69222 0.0
H1091 H 0.46118 0.08385 0.62536 0.0
C1092 C 0.62582 0.13894 0.63708 0.0
C1093 C 0.66228 0.17178 0.65027 0.0
C1094 C 0.65863 0.19682 0.67421 0.0
C1095 C 0.62019 0.19081 0.68345 0.0
C1096 C 0.58526 0.15942 0.6688 0.0
C1097 C 0.5877 0.13363 0.64631 0.0
C1098 C 0.54586 0.10441 0.6321 0.0
C1099 C 0.54543 0.10955 0.59474 0.0
C1100 C 0.53263 0.06025 0.64127 0.0
C1101 C 0.51955 0.11853 0.64938 0.0
C1102 C 0.54295 0.14995 0.67074 0.0
C1103 C 0.52666 0.1707 0.68707 0.0
C1104 C 0.48568 0.15894 0.6818 0.0
C1105 C 0.46012 0.12576 0.66126 0.0
C1106 C 0.47813 0.1063 0.64394 0.0
H1107 H 0.97215 0.38943 0.6245 0.0
H1108 H 0.88196 0.31207 0.69493 0.0
H1109 H 0.86317 0.36414 0.70474 0.0
H1110 H 0.99984 0.49058 0.66473 0.0
H1111 H 1.00394 0.51428 0.62558 0.0
H1112 H 1.01625 0.4743 0.62929 0.0
H1113 H 0.96461 0.43415 0.58341 0.0
H1114 H 0.95166 0.47355 0.57984 0.0
H1115 H 0.91245 0.42193 0.58785 0.0
H1116 H 0.84647 0.42065 0.70089 0.0
H1117 H 0.83319 0.47504 0.68281 0.0
H1118 H 0.93495 0.51834 0.61537 0.0
C1119 C 0.9506 0.38473 0.6437 0.0
C1120 C 0.93201 0.34797 0.66194 0.0
C1121 C 0.90031 0.34142 0.68381 0.0
C1122 C 0.88848 0.37068 0.68876 0.0
C1123 C 0.90784 0.40674 0.67098 0.0
C1124 C 0.93842 0.41401 0.6489 0.0
C1125 C 0.95103 0.45325 0.63021 0.0
C1126 C 0.99541 0.48499 0.63791 0.0
C1127 C 0.94453 0.44521 0.59314 0.0
C1128 C 0.92179 0.46588 0.64433 0.0
C1129 C 0.89735 0.43884 0.66804 0.0
C1130 C 0.86601 0.44247 0.68275 0.0
C1131 C 0.85882 0.47384 0.67246 0.0
C1132 C 0.88268 0.50146 0.64749 0.0
C1133 C 0.91549 0.4978 0.63422 0.0
H1134 H 0.69709 0.57581 0.6018 0.0
H1135 H 0.68951 0.61174 0.70097 0.0
H1136 H 0.63051 0.54261 0.71135 0.0
H1137 H 0.58905 0.5084 0.58694 0.0
H1138 H 0.59854 0.47359 0.56373 0.0
H1139 H 0.6359 0.5269 0.56446 0.0
H1140 H 0.68989 0.50907 0.58456 0.0
H1141 H 0.65257 0.45579 0.58467 0.0
H1142 H 0.68062 0.47966 0.62147 0.0
H1143 H 0.57233 0.46353 0.71006 0.0
H1144 H 0.52293 0.39121 0.69613 0.0
H1145 H 0.57674 0.41029 0.59957 0.0
C1146 C 0.68259 0.56968 0.62561 0.0
C1147 C 0.6985 0.59938 0.65068 0.0
C1148 C 0.67835 0.58962 0.68139 0.0
C1149 C 0.64479 0.5502 0.68747 0.0
C1150 C 0.63167 0.52079 0.66257 0.0
C1151 C 0.65009 0.53071 0.63213 0.0
C1152 C 0.63296 0.49425 0.60958 0.0
C1153 C 0.61292 0.5012 0.57941 0.0
C1154 C 0.66598 0.48412 0.59949 0.0
C1155 C 0.60171 0.46179 0.63174 0.0
C1156 C 0.60076 0.47711 0.66224 0.0
C1157 C 0.57313 0.45167 0.68614 0.0
C1158 C 0.54536 0.41038 0.67819 0.0
C1159 C 0.54545 0.39475 0.64663 0.0
C1160 C 0.57512 0.42102 0.6238 0.0
H1161 H 0.83131 0.96517 0.62126 0.0
H1162 H 0.82389 0.92691 0.72218 0.0
H1163 H 0.8576 0.99883 0.74 0.0
H1164 H 0.93483 0.06278 0.63303 0.0
H1165 H 0.92166 0.08968 0.60358 0.0
H1166 H 0.90222 0.03582 0.59899 0.0
H1167 H 0.83165 0.0267 0.59553 0.0
H1168 H 0.8473 0.07889 0.6046 0.0
H1169 H 0.81023 0.03823 0.63017 0.0
H1170 H 0.8875 0.07393 0.7473 0.0
H1171 H 0.91575 0.14804 0.744 0.0
H1172 H 0.90383 0.14011 0.63827 0.0
C1173 C 0.83806 0.97218 0.647 0.0
C1174 C 0.82537 0.94041 0.6704 0.0
C1175 C 0.83396 0.95066 0.70388 0.0
C1176 C 0.85289 0.99147 0.71419 0.0
C1177 C 0.86395 0.02197 0.69067 0.0
C1178 C 0.85807 1.01302 0.65765 0.0
C1179 C 0.87256 0.05179 0.6376 0.0
C1180 C 0.91004 0.06053 0.61709 0.0
C1181 C 0.83841 0.04887 0.61567 0.0
C1182 C 0.88418 0.08349 0.66463 0.0
C1183 C 0.88006 0.06551 0.69496 0.0
C1184 C 0.89071 0.08824 0.72371 0.0
C1185 C 0.90661 0.13038 0.72159 0.0
C1186 C 0.91085 0.14988 0.69108 0.0
C1187 C 0.89957 0.12598 0.66208 0.0
H1188 H 0.91957 0.78758 0.72698 0.0
H1189 H 0.89635 0.76542 0.62304 0.0
H1190 H 0.96983 0.80946 0.6117 0.0
H1191 H 0.99815 0.89359 0.71896 0.0
H1192 H 0.02834 0.89198 0.75236 0.0
H1193 H 0.97399 0.85876 0.75248 0.0
H1194 H 0.98273 0.79476 0.75749 0.0
H1195 H 0.03664 0.82944 0.75981 0.0
H1196 H 1.0169 0.78993 0.72942 0.0
H1197 H 0.04743 0.85632 0.61201 0.0
H1198 H 0.12117 0.89741 0.62431 0.0
H1199 H 0.0937 0.88888 0.72797 0.0
C1200 C 0.93008 0.79194 0.70186 0.0
C1201 C 0.90229 0.77211 0.67594 0.0
C1202 C 0.9171 0.7793 0.64335 0.0
C1203 C 0.95884 0.80459 0.63668 0.0
C1204 C 0.98558 0.82318 0.66282 0.0
C1205 C 0.97172 0.81704 0.6948 0.0
C1206 C 1.00668 0.84055 0.7185 0.0
C1207 C 1.00147 0.87315 0.73664 0.0
C1208 C 1.0109 0.8119 0.74274 0.0
C1209 C 0.0425 0.85981 0.69505 0.0
C1210 C 0.02973 0.85005 0.66296 0.0
C1211 C 0.05761 0.86414 0.63708 0.0
C1212 C 0.09949 0.88776 0.64425 0.0
C1213 C 0.11334 0.89662 0.67705 0.0
C1214 C 0.08414 0.88283 0.70262 0.0
H1215 H 0.27225 0.14324 0.64022 0.0
H1216 H 0.27943 0.14246 0.74613 0.0
H1217 H 0.23447 0.17174 0.75023 0.0
H1218 H 0.26237 0.23457 0.62627 0.0
H1219 H 0.22511 0.20823 0.59522 0.0
H1220 H 0.26249 0.19352 0.60372 0.0
H1221 H 0.19885 0.12013 0.61098 0.0
H1222 H 0.16419 0.13937 0.60691 0.0
H1223 H 0.16297 0.11176 0.64317 0.0
H1224 H 0.19 0.20255 0.74363 0.0
H1225 H 0.15066 0.23518 0.72604 0.0
H1226 H 0.16842 0.21445 0.6246 0.0
C1227 C 0.26494 0.15012 0.66415 0.0
C1228 C 0.28079 0.1421 0.69295 0.0
C1229 C 0.26866 0.1494 0.72382 0.0
C1230 C 0.24291 0.16586 0.7264 0.0
C1231 C 0.22789 0.17359 0.69785 0.0
C1232 C 0.23808 0.16574 0.66722 0.0
C1233 C 0.21468 0.17402 0.64077 0.0
C1234 C 0.24301 0.20438 0.615 0.0
C1235 C 0.18332 0.13394 0.6245 0.0
C1236 C 0.19352 0.19175 0.66113 0.0
C1237 C 0.2004 0.18971 0.6941 0.0
C1238 C 0.18424 0.20412 0.71786 0.0
C1239 C 0.16168 0.22239 0.70771 0.0
C1240 C 0.15595 0.22683 0.67408 0.0
C1241 C 0.1717 0.21077 0.65052 0.0
H1242 H 0.07213 0.38469 0.24984 0.0
H1243 H 0.19427 0.40885 0.22941 0.0
H1244 H 0.19203 0.43873 0.17561 0.0
H1245 H 0.03209 0.35405 0.17164 0.0
H1246 H 1.00052 0.37733 0.17393 0.0
H1247 H 1.01423 0.36104 0.21062 0.0
H1248 H 0.04398 0.4335 0.23418 0.0
H1249 H 0.03079 0.45006 0.19713 0.0
H1250 H 0.08255 0.47618 0.21161 0.0
H1251 H 0.17513 0.46957 0.12327 0.0
H1252 H 0.14255 0.48465 0.07677 0.0
H1253 H 0.0297 0.43288 0.13117 0.0
C1254 C 0.09871 0.39626 0.23428 0.0
C1255 C 0.13347 0.39417 0.24423 0.0
C1256 C 0.16713 0.40962 0.22253 0.0
C1257 C 0.1662 0.4271 0.19199 0.0
C1258 C 0.13139 0.42901 0.18329 0.0
C1259 C 0.0982 0.41349 0.20398 0.0
C1260 C 0.06344 0.41686 0.18904 0.0
C1261 C 0.02529 0.37477 0.18606 0.0
C1262 C 0.05469 0.44587 0.2092 0.0
C1263 C 0.08111 0.43504 0.15581 0.0
C1264 C 0.12095 0.44351 0.15327 0.0
C1265 C 0.1438 0.46238 0.12514 0.0
C1266 C 0.12508 0.47113 0.09878 0.0
C1267 C 0.08333 0.45959 0.09991 0.0
C1268 C 0.06162 0.44209 0.12931 0.0
H1269 H 0.66449 0.69695 0.24031 0.0
H1270 H 0.63946 0.79463 0.22123 0.0
H1271 H 0.60895 0.76246 0.16742 0.0
H1272 H 0.6942 0.68814 0.16211 0.0
H1273 H 0.67155 0.63338 0.16405 0.0
H1274 H 0.68822 0.66314 0.20086 0.0
H1275 H 0.61661 0.62063 0.22567 0.0
H1276 H 0.59935 0.59041 0.18891 0.0
H1277 H 0.57316 0.61582 0.20386 0.0
H1278 H 0.57709 0.71385 0.1151 0.0
H1279 H 0.56141 0.66553 0.06891 0.0
H1280 H 0.61469 0.6057 0.123 0.0
C1281 C 0.65268 0.712 0.22512 0.0
C1282 C 0.65453 0.74858 0.23543 0.0
C1283 C 0.63882 0.76685 0.21405 0.0
C1284 C 0.62098 0.7484 0.18355 0.0
C1285 C 0.61907 0.71168 0.17469 0.0
C1286 C 0.6351 0.69424 0.19506 0.0
C1287 C 0.63175 0.65612 0.18025 0.0
C1288 C 0.67398 0.66047 0.17653 0.0
C1289 C 0.60354 0.61853 0.2009 0.0
C1290 C 0.61268 0.6551 0.14743 0.0
C1291 C 0.604 0.68636 0.1449 0.0
C1292 C 0.58447 0.68983 0.11698 0.0
C1293 C 0.57539 0.66201 0.09081 0.0
C1294 C 0.58722 0.632 0.09199 0.0
C1295 C 0.60522 0.62823 0.12118 0.0
H1296 H 0.44478 1.01044 0.12956 0.0
H1297 H 0.37275 0.90194 0.07213 0.0
H1298 H 0.32375 0.87192 0.11814 0.0
H1299 H 0.4264 0.94911 0.20813 0.0
H1300 H 0.42933 0.98992 0.23268 0.0
H1301 H 0.45907 1.00116 0.19574 0.0
H1302 H 0.42648 0.04283 0.17351 0.0
H1303 H 0.39883 0.0323 0.21132 0.0
H1304 H 0.37153 0.01894 0.17327 0.0
H1305 H 0.27648 0.85894 0.17041 0.0
H1306 H 0.24629 0.85903 0.22473 0.0
H1307 H 0.35458 0.9735 0.24754 0.0
C1308 C 0.41946 0.97975 0.12707 0.0
C1309 C 0.41233 0.95885 0.09688 0.0
C1310 C 0.37871 0.91881 0.09472 0.0
C1311 C 0.35057 0.90157 0.12084 0.0
C1312 C 0.35741 0.92392 0.14976 0.0
C1313 C 0.39229 0.96143 0.1534 0.0
C1314 C 0.39425 0.97855 0.18737 0.0
C1315 C 0.42933 0.97974 0.20715 0.0
C1316 C 0.39805 0.02072 0.18618 0.0
C1317 C 0.35344 0.94706 0.20112 0.0
C1318 C 0.33243 0.9153 0.17958 0.0
C1319 C 0.29324 0.88359 0.18747 0.0
C1320 C 0.27593 0.88409 0.21826 0.0
C1321 C 0.29764 0.91622 0.24082 0.0
C1322 C 0.33672 0.94809 0.2314 0.0
H1323 H 0.39978 0.05095 0.91541 0.0
H1324 H 0.52346 0.07861 0.89721 0.0
H1325 H 0.52224 0.10976 0.84382 0.0
H1326 H 0.36328 0.0218 0.83589 0.0
H1327 H 0.3302 0.04338 0.83725 0.0
H1328 H 0.34279 0.02665 0.87431 0.0
H1329 H 0.36956 0.09773 0.89959 0.0
H1330 H 0.35726 0.11507 0.86252 0.0
H1331 H 0.4083 0.14189 0.87855 0.0
H1332 H 0.50656 0.14156 0.79238 0.0
H1333 H 0.47536 0.15689 0.74558 0.0
H1334 H 0.35982 0.10082 0.79612 0.0
C1335 C 0.42679 0.06339 0.90035 0.0
C1336 C 0.46173 0.062 0.91073 0.0
C1337 C 0.49613 0.07871 0.88982 0.0
C1338 C 0.4958 0.09697 0.85959 0.0
C1339 C 0.46079 0.0982 0.85047 0.0
C1340 C 0.42679 0.08122 0.87028 0.0
C1341 C 0.39196 0.08393 0.85467 0.0
C1342 C 0.35483 0.04137 0.8502 0.0
C1343 C 0.38114 0.11128 0.87505 0.0
C1344 C 0.41078 0.10372 0.82214 0.0
C1345 C 0.45102 0.11329 0.82062 0.0
C1346 C 0.47493 0.13351 0.79338 0.0
C1347 C 0.45689 0.14239 0.76672 0.0
C1348 C 0.41492 0.1299 0.76661 0.0
C1349 C 0.39202 0.11103 0.79525 0.0
H1350 H 1.00943 0.36482 0.91394 0.0
H1351 H 0.96393 0.44824 0.90087 0.0
H1352 H 0.93327 0.41498 0.84764 0.0
H1353 H 0.03703 0.36256 0.82958 0.0
H1354 H 1.02287 0.30964 0.83334 0.0
H1355 H 0.03961 0.34194 0.86873 0.0
H1356 H 0.97203 0.28815 0.89659 0.0
H1357 H 0.95518 0.25866 0.85944 0.0
H1358 H 0.92418 0.2766 0.87839 0.0
H1359 H 0.90251 0.36661 0.79667 0.0
H1360 H 0.88915 0.32135 0.74921 0.0
H1361 H 0.96278 0.27632 0.79322 0.0
C1362 C 0.99324 0.3764 0.89985 0.0
C1363 C 0.98913 0.40926 0.91176 0.0
C1364 C 0.96786 0.42343 0.89227 0.0
C1365 C 0.94993 0.40432 0.86214 0.0
C1366 C 0.9539 0.37132 0.85152 0.0
C1367 C 0.97591 0.35824 0.86965 0.0
C1368 C 0.97778 0.3237 0.85256 0.0
C1369 C 1.022 0.33526 0.84559 0.0
C1370 C 0.956 0.28447 0.87297 0.0
C1371 C 0.95449 0.3199 0.82127 0.0
C1372 C 0.93951 0.34646 0.82161 0.0
C1373 C 0.91502 0.3465 0.79604 0.0
C1374 C 0.90744 0.32041 0.76896 0.0
C1375 C 0.92553 0.29563 0.7667 0.0
C1376 C 0.94857 0.29494 0.79385 0.0
H1377 H 0.77291 0.68991 0.78857 0.0
H1378 H 0.71825 0.57446 0.73772 0.0
H1379 H 0.67152 0.54175 0.78477 0.0
H1380 H 0.76742 0.64429 0.87106 0.0
H1381 H 0.75958 0.68212 0.89113 0.0
H1382 H 0.78909 0.69468 0.854 0.0
H1383 H 0.74251 0.71817 0.82946 0.0
H1384 H 0.71009 0.70323 0.86476 0.0
H1385 H 0.68863 0.68293 0.82511 0.0
H1386 H 0.62456 0.52384 0.83749 0.0
H1387 H 0.59262 0.52116 0.89148 0.0
H1388 H 0.68294 0.6475 0.90777 0.0
C1389 C 0.75183 0.65749 0.78763 0.0
C1390 C 0.74936 0.63484 0.75923 0.0
C1391 C 0.7211 0.59251 0.75915 0.0
C1392 C 0.69412 0.57373 0.78577 0.0
C1393 C 0.69646 0.59732 0.81297 0.0
C1394 C 0.72574 0.6381 0.81437 0.0
C1395 C 0.72337 0.6568 0.84658 0.0
C1396 C 0.76216 0.67025 0.8669 0.0
C1397 C 0.71561 0.69236 0.84108 0.0
C1398 C 0.68701 0.62106 0.86247 0.0
C1399 C 0.67156 0.58679 0.84299 0.0
C1400 C 0.637 0.55059 0.85289 0.0
C1401 C 0.61867 0.54937 0.88353 0.0
C1402 C 0.635 0.58405 0.90417 0.0
C1403 C 0.66949 0.62022 0.89295 0.0
H1404 H 0.70834 0.78192 0.45592 0.0
H1405 H 0.80286 0.78757 0.39371 0.0
H1406 H 0.83301 0.77133 0.4407 0.0
H1407 H 0.77104 0.82247 0.53181 0.0
H1408 H 0.7298 0.78809 0.55789 0.0
H1409 H 0.71922 0.80559 0.52011 0.0
H1410 H 0.67278 0.73069 0.50154 0.0
H1411 H 0.68328 0.71363 0.5395 0.0
H1412 H 0.69318 0.69674 0.50119 0.0
H1413 H 0.84941 0.74758 0.4952 0.0
H1414 H 0.85149 0.7228 0.5511 0.0
H1415 H 0.74459 0.73047 0.57683 0.0
C1416 C 0.73654 0.78171 0.45262 0.0
C1417 C 0.75508 0.78925 0.4213 0.0
C1418 C 0.79016 0.78556 0.41765 0.0
C1419 C 0.80693 0.77524 0.44427 0.0
C1420 C 0.78795 0.76794 0.47477 0.0
C1421 C 0.75362 0.77141 0.4791 0.0
C1422 C 0.73754 0.75968 0.51383 0.0
C1423 C 0.73953 0.79613 0.53198 0.0
C1424 C 0.6941 0.72301 0.51398 0.0
C1425 C 0.76758 0.7484 0.52809 0.0
C1426 C 0.79658 0.75336 0.50537 0.0
C1427 C 0.82684 0.74384 0.51317 0.0
C1428 C 0.82766 0.72941 0.545 0.0
C1429 C 0.7983 0.72435 0.56878 0.0
C1430 C 0.76788 0.73398 0.55969 0.0
H1431 H 0.29565 0.94639 0.46033 0.0
H1432 H 0.23294 0.99961 0.41028 0.0
H1433 H 0.24656 0.04609 0.45746 0.0
H1434 H 0.25574 0.9508 0.54304 0.0
H1435 H 0.30179 0.95944 0.56287 0.0
H1436 H 0.28517 0.93008 0.52565 0.0
H1437 H 0.35485 0.97784 0.50088 0.0
H1438 H 0.3719 1.01002 0.53634 0.0
H1439 H 0.37243 0.03154 0.49685 0.0
H1440 H 0.27491 0.0927 0.51022 0.0
H1441 H 0.30386 0.12461 0.56426 0.0
H1442 H 0.34253 0.03608 0.57981 0.0
C1443 C 0.28389 0.96716 0.4596 0.0
C1444 C 0.26313 0.96922 0.43147 0.0
C1445 C 0.24851 0.99705 0.43158 0.0
C1446 C 0.25648 0.02388 0.45826 0.0
C1447 C 0.27814 0.02185 0.48527 0.0
C1448 C 0.2904 0.9931 0.48641 0.0
C1449 C 0.31179 0.99573 0.51849 0.0
C1450 C 0.28715 0.9567 0.53871 0.0
C1451 C 0.35537 1.00437 0.51273 0.0
C1452 C 0.31165 0.03163 0.53462 0.0
C1453 C 0.29221 0.04661 0.51535 0.0
C1454 C 0.28973 0.08065 0.52547 0.0
C1455 C 0.30664 0.09895 0.55614 0.0
C1456 C 0.32562 0.08309 0.57657 0.0
C1457 C 0.32816 0.04913 0.56513 0.0
H1458 H 1.02137 0.31268 0.58073 0.0
H1459 H 0.92427 0.18979 0.56133 0.0
H1460 H 0.95716 0.19136 0.508 0.0
H1461 H 0.03156 0.35103 0.5024 0.0
H1462 H 0.08634 0.38287 0.50431 0.0
H1463 H 0.05655 0.37024 0.54112 0.0
H1464 H 0.09839 0.34075 0.56648 0.0
H1465 H 0.12891 0.35345 0.52988 0.0
H1466 H 0.10318 0.30193 0.54493 0.0
H1467 H 1.00527 0.20772 0.4564 0.0
H1468 H 0.05292 0.2395 0.41029 0.0
H1469 H 0.11391 0.35323 0.46327 0.0
C1470 C 1.00666 0.28576 0.56553 0.0
C1471 C 0.96993 0.25097 0.57561 0.0
C1472 C 0.95211 0.21692 0.55432 0.0
C1473 C 0.97096 0.21749 0.5241 0.0
C1474 C 1.00771 0.25228 0.51543 0.0
C1475 C 0.02492 0.28584 0.53569 0.0
C1476 C 0.06328 0.32044 0.52089 0.0
C1477 C 0.05918 0.35843 0.51688 0.0
C1478 C 0.10064 0.32968 0.54179 0.0
C1479 C 0.06449 0.30219 0.48814 0.0
C1480 C 0.03317 0.2623 0.48583 0.0
C1481 C 0.02944 0.23905 0.45811 0.0
C1482 C 0.05703 0.25739 0.43185 0.0
C1483 C 0.0874 0.29906 0.43265 0.0
C1484 C 0.09135 0.32124 0.46172 0.0
loop_
_geom_bond_atom_site_label_1
_geom_bond_atom_site_label_2
_geom_bond_distance
_geom_bond_site_symmetry_2
_ccdc_geom_bond_type
Tb0 N31 2.660 1_556 S
Tb0 N38 2.600 . S
Tb0 O44 2.546 . S
Tb0 O45 2.610 1_556 S
Tb0 O47 2.320 1_556 S
Tb0 O48 2.552 . S
Tb0 O49 2.413 1_556 S
Tb0 O51 2.355 1_456 S
Tb0 O52 2.421 . S
Tb0 C64 2.833 . S
C1 C4 1.432 . S
C1 C5 1.414 . S
C1 N8 1.359 1_455 S
C2 C4 1.417 1_556 S
C2 C6 1.432 1_556 S
C2 C14 1.410 . S
C3 C5 1.444 . S
C3 C6 1.317 . S
C3 H26 0.929 . S
C4 C1 1.432 . S
C4 C2 1.417 1_554 S
C4 N12 1.360 1_554 S
C5 C1 1.414 . S
C5 C3 1.444 . S
C5 C10 1.385 . S
C6 C2 1.432 1_554 S
C6 C3 1.317 . S
C6 H18 0.930 . S
C7 C9 1.392 . S
C7 C10 1.370 1_655 S
C7 H19 0.931 . S
N8 C1 1.359 1_655 S
N8 C9 1.327 . S
N8 Tb11 2.600 . S
C9 C7 1.392 . S
C9 N8 1.327 . S
C9 H16 0.930 . S
C10 C5 1.385 . S
C10 C7 1.370 1_455 S
C10 H29 0.930 . S
Tb11 N8 2.600 . S
Tb11 N12 2.660 1_654 S
Tb11 O45 2.362 1_655 S
Tb11 O46 2.421 1_655 S
Tb11 O50 2.546 . S
Tb11 O51 2.618 . S
Tb11 O53 2.320 1_554 S
Tb11 O54 2.552 . S
Tb11 O55 2.413 1_554 S
Tb11 C75 2.833 . S
N12 C4 1.360 1_556 S
N12 Tb11 2.660 1_456 S
N12 C13 1.305 . S
C13 N12 1.305 . S
C13 C15 1.407 . S
C13 H20 0.930 . S
C14 C2 1.410 . S
C14 C15 1.345 . S
C14 H22 0.930 . S
C15 C13 1.407 . S
C15 C14 1.345 . S
C15 H17 0.930 . S
H16 C9 0.930 . S
H17 C15 0.930 . S
H18 C6 0.930 . S
H19 C7 0.931 . S
H20 C13 0.930 . S
H21 C35 0.930 . S
H22 C14 0.930 . S
H23 C41 0.930 . S
H24 C32 0.930 1_455 S
H25 C39 0.931 . S
H26 C3 0.929 . S
H27 C33 0.930 . S
H28 C66 0.930 . S
H29 C10 0.930 . S
H30 C65 0.929 . S
N31 Tb0 2.660 1_554 S
N31 C32 1.305 1_455 S
N31 C36 1.360 1_454 S
C32 H24 0.930 1_655 S
C32 N31 1.305 1_655 S
C32 C35 1.407 . S
C33 H27 0.930 . S
C33 C34 1.410 . S
C33 C35 1.345 . S
C34 C33 1.410 . S
C34 C36 1.417 1_554 S
C34 C66 1.432 1_554 S
C35 H21 0.930 . S
C35 C32 1.407 . S
C35 C33 1.345 . S
C36 N31 1.360 1_656 S
C36 C34 1.417 1_556 S
C36 C40 1.432 . S
H37 C42 0.930 . S
N38 Tb0 2.600 . S
N38 C40 1.359 1_455 S
N38 C41 1.327 . S
C39 H25 0.931 . S
C39 C41 1.392 . S
C39 C42 1.370 1_455 S
C40 C36 1.432 . S
C40 N38 1.359 1_655 S
C40 C43 1.414 . S
C41 H23 0.930 . S
C41 N38 1.327 . S
C41 C39 1.392 . S
C42 H37 0.930 . S
C42 C39 1.370 1_655 S
C42 C43 1.385 . S
C43 C40 1.414 . S
C43 C42 1.385 . S
C43 C65 1.444 . S
O44 Tb0 2.546 . S
O44 C64 1.251 . S
O45 Tb0 2.610 1_554 S
O45 Tb11 2.362 1_455 S
O45 C56 1.283 1_554 S
O46 Tb11 2.421 1_455 S
O46 C63 1.262 . S
O47 Tb0 2.320 1_554 S
O47 C63 1.260 . S
O48 Tb0 2.552 . S
O48 C56 1.243 . S
O49 Tb0 2.413 1_554 S
O49 C64 1.256 1_554 S
O50 Tb11 2.546 . S
O50 C75 1.251 . S
O51 Tb0 2.355 1_654 S
O51 Tb11 2.618 . S
O51 C67 1.291 . S
O52 Tb0 2.421 . S
O52 C74 1.262 1_455 S
O53 Tb11 2.320 1_556 S
O53 C74 1.260 . S
O54 Tb11 2.552 . S
O54 C67 1.243 . S
O55 Tb11 2.413 1_556 S
O55 C75 1.256 1_556 S
C56 O45 1.283 1_556 S
C56 O48 1.243 . S
C57 C59 1.382 1_556 S
C57 C61 1.393 . S
C57 C64 1.500 . S
C58 C59 1.400 . S
C58 C60 1.384 1_554 S
C59 C57 1.382 1_554 S
C59 C58 1.400 . S
C59 H76 0.930 . S
C60 C58 1.384 1_556 S
C60 C62 1.392 . S
C60 H77 0.931 . S
C61 C57 1.393 . S
C61 C62 1.401 . S
C61 H78 0.930 . S
C62 C60 1.392 . S
C62 C61 1.401 . S
C62 H79 0.930 . S
C63 O46 1.262 . S
C63 O47 1.260 . S
C64 Tb0 2.833 . S
C64 O44 1.251 . S
C64 O49 1.256 1_556 S
C64 C57 1.500 . S
C65 H30 0.929 . S
C65 C43 1.444 . S
C65 C66 1.317 . S
C66 H28 0.930 . S
C66 C34 1.432 1_556 S
C66 C65 1.317 . S
C67 O51 1.291 . S
C67 O54 1.243 . S
C68 C69 1.382 1_554 S
C68 C72 1.393 . S
C68 C75 1.500 . S
C69 C68 1.382 1_556 S
C69 C70 1.400 . S
C69 H80 0.930 . S
C70 C69 1.400 . S
C70 C71 1.384 1_556 S
C71 C70 1.384 1_554 S
C71 C73 1.392 . S
C71 H81 0.931 . S
C72 C68 1.393 . S
C72 C73 1.401 . S
C72 H82 0.930 . S
C73 C71 1.392 . S
C73 C72 1.401 . S
C73 H83 0.930 . S
C74 O52 1.262 1_655 S
C74 O53 1.260 . S
C75 Tb11 2.833 . S
C75 O50 1.251 . S
C75 O55 1.256 1_554 S
C75 C68 1.500 . S
H76 C59 0.930 . S
H77 C60 0.931 . S
H78 C61 0.930 . S
H79 C62 0.930 . S
H80 C69 0.930 . S
H81 C71 0.931 . S
H82 C72 0.930 . S
H83 C73 0.930 . S
Tb84 N115 2.660 1_556 S
Tb84 N122 2.600 . S
Tb84 O128 2.546 . S
Tb84 O129 2.610 1_556 S
Tb84 O131 2.320 1_556 S
Tb84 O132 2.552 . S
Tb84 O133 2.413 1_556 S
Tb84 O135 2.355 1_556 S
Tb84 O136 2.421 . S
Tb84 C148 2.833 . S
C85 C88 1.432 . S
C85 C89 1.414 . S
C85 N92 1.359 . S
C86 C88 1.417 1_556 S
C86 C90 1.432 1_556 S
C86 C98 1.410 . S
C87 C89 1.444 . S
C87 C90 1.317 . S
C87 H110 0.929 . S
C88 C85 1.432 . S
C88 C86 1.417 1_554 S
C88 N96 1.360 1_554 S
C89 C85 1.414 . S
C89 C87 1.444 . S
C89 C94 1.385 . S
C90 C86 1.432 1_554 S
C90 C87 1.317 . S
C90 H102 0.930 . S
C91 C93 1.392 . S
C91 C94 1.370 . S
C91 H103 0.931 . S
N92 C85 1.359 . S
N92 C93 1.327 . S
N92 Tb95 2.600 . S
C93 C91 1.392 . S
C93 N92 1.327 . S
C93 H100 0.930 . S
C94 C89 1.385 . S
C94 C91 1.370 . S
C94 H113 0.930 . S
Tb95 N92 2.600 . S
Tb95 N96 2.660 1_554 S
Tb95 O129 2.362 . S
Tb95 O130 2.421 . S
Tb95 O134 2.546 . S
Tb95 O135 2.618 . S
Tb95 O137 2.320 1_554 S
Tb95 O138 2.552 . S
Tb95 O139 2.413 1_554 S
Tb95 C159 2.833 . S
N96 C88 1.360 1_556 S
N96 Tb95 2.660 1_556 S
N96 C97 1.305 . S
C97 N96 1.305 . S
C97 C99 1.407 . S
C97 H104 0.930 . S
C98 C86 1.410 . S
C98 C99 1.345 . S
C98 H106 0.930 . S
C99 C97 1.407 . S
C99 C98 1.345 . S
C99 H101 0.930 . S
H100 C93 0.930 . S
H101 C99 0.930 . S
H102 C90 0.930 . S
H103 C91 0.931 . S
H104 C97 0.930 . S
H105 C119 0.930 . S
H106 C98 0.930 . S
H107 C125 0.930 . S
H108 C116 0.930 . S
H109 C123 0.931 . S
H110 C87 0.929 . S
H111 C117 0.930 . S
H112 C150 0.930 . S
H113 C94 0.930 . S
H114 C149 0.929 . S
N115 Tb84 2.660 1_554 S
N115 C116 1.305 . S
N115 C120 1.360 1_554 S
C116 H108 0.930 . S
C116 N115 1.305 . S
C116 C119 1.407 . S
C117 H111 0.930 . S
C117 C118 1.410 . S
C117 C119 1.345 . S
C118 C117 1.410 . S
C118 C120 1.417 1_554 S
C118 C150 1.432 1_554 S
C119 H105 0.930 . S
C119 C116 1.407 . S
C119 C117 1.345 . S
C120 N115 1.360 1_556 S
C120 C118 1.417 1_556 S
C120 C124 1.432 . S
H121 C126 0.930 . S
N122 Tb84 2.600 . S
N122 C124 1.359 . S
N122 C125 1.327 . S
C123 H109 0.931 . S
C123 C125 1.392 . S
C123 C126 1.370 . S
C124 C120 1.432 . S
C124 N122 1.359 . S
C124 C127 1.414 . S
C125 H107 0.930 . S
C125 N122 1.327 . S
C125 C123 1.392 . S
C126 H121 0.930 . S
C126 C123 1.370 . S
C126 C127 1.385 . S
C127 C124 1.414 . S
C127 C126 1.385 . S
C127 C149 1.444 . S
O128 Tb84 2.546 . S
O128 C148 1.251 . S
O129 Tb84 2.610 1_554 S
O129 Tb95 2.362 . S
O129 C140 1.283 1_554 S
O130 Tb95 2.421 . S
O130 C147 1.262 . S
O131 Tb84 2.320 1_554 S
O131 C147 1.260 . S
O132 Tb84 2.552 . S
O132 C140 1.243 . S
O133 Tb84 2.413 1_554 S
O133 C148 1.256 1_554 S
O134 Tb95 2.546 . S
O134 C159 1.251 . S
O135 Tb84 2.355 1_554 S
O135 Tb95 2.618 . S
O135 C151 1.291 . S
O136 Tb84 2.421 . S
O136 C158 1.262 . S
O137 Tb95 2.320 1_556 S
O137 C158 1.260 . S
O138 Tb95 2.552 . S
O138 C151 1.243 . S
O139 Tb95 2.413 1_556 S
O139 C159 1.256 1_556 S
C140 O129 1.283 1_556 S
C140 O132 1.243 . S
C141 C143 1.382 1_556 S
C141 C145 1.393 . S
C141 C148 1.500 . S
C142 C143 1.400 . S
C142 C144 1.384 1_554 S
C143 C141 1.382 1_554 S
C143 C142 1.400 . S
C143 H160 0.930 . S
C144 C142 1.384 1_556 S
C144 C146 1.392 . S
C144 H161 0.931 . S
C145 C141 1.393 . S
C145 C146 1.401 . S
C145 H162 0.930 . S
C146 C144 1.392 . S
C146 C145 1.401 . S
C146 H163 0.930 . S
C147 O130 1.262 . S
C147 O131 1.260 . S
C148 Tb84 2.833 . S
C148 O128 1.251 . S
C148 O133 1.256 1_556 S
C148 C141 1.500 . S
C149 H114 0.929 . S
C149 C127 1.444 . S
C149 C150 1.317 . S
C150 H112 0.930 . S
C150 C118 1.432 1_556 S
C150 C149 1.317 . S
C151 O135 1.291 . S
C151 O138 1.243 . S
C152 C153 1.382 1_554 S
C152 C156 1.393 . S
C152 C159 1.500 . S
C153 C152 1.382 1_556 S
C153 C154 1.400 . S
C153 H164 0.930 . S
C154 C153 1.400 . S
C154 C155 1.384 1_556 S
C155 C154 1.384 1_554 S
C155 C157 1.392 . S
C155 H165 0.931 . S
C156 C152 1.393 . S
C156 C157 1.401 . S
C156 H166 0.930 . S
C157 C155 1.392 . S
C157 C156 1.401 . S
C157 H167 0.930 . S
C158 O136 1.262 . S
C158 O137 1.260 . S
C159 Tb95 2.833 . S
C159 O134 1.251 . S
C159 O139 1.256 1_554 S
C159 C152 1.500 . S
H160 C143 0.930 . S
H161 C144 0.931 . S
H162 C145 0.930 . S
H163 C146 0.930 . S
H164 C153 0.930 . S
H165 C155 0.931 . S
H166 C156 0.930 . S
H167 C157 0.930 . S
Tb168 N199 2.660 1_566 S
Tb168 N206 2.600 . S
Tb168 O212 2.546 . S
Tb168 O213 2.610 1_556 S
Tb168 O215 2.320 1_556 S
Tb168 O216 2.552 . S
Tb168 O217 2.413 1_556 S
Tb168 O219 2.355 1_566 S
Tb168 O220 2.409 1_565 S
Tb168 C232 2.833 . S
C169 C172 1.432 . S
C169 C173 1.414 . S
C169 N176 1.359 1_565 S
C170 C172 1.417 1_556 S
C170 C174 1.432 1_556 S
C170 C182 1.410 . S
C171 C173 1.444 . S
C171 C174 1.317 . S
C171 H194 0.929 . S
C172 C169 1.432 . S
C172 C170 1.417 1_554 S
C172 N180 1.360 1_564 S
C173 C169 1.414 . S
C173 C171 1.444 . S
C173 C178 1.385 . S
C174 C170 1.432 1_554 S
C174 C171 1.317 . S
C174 H186 0.930 . S
C175 C177 1.392 . S
C175 C178 1.370 1_545 S
C175 H187 0.931 . S
N176 C169 1.359 1_545 S
N176 C177 1.327 . S
N176 Tb179 2.600 . S
C177 C175 1.392 . S
C177 N176 1.327 . S
C177 H184 0.930 . S
C178 C173 1.385 . S
C178 C175 1.370 1_565 S
C178 H197 0.930 . S
Tb179 N176 2.600 . S
Tb179 N180 2.660 1_554 S
Tb179 O213 2.362 1_545 S
Tb179 O214 2.421 . S
Tb179 O218 2.546 . S
Tb179 O219 2.618 . S
Tb179 O221 2.320 1_554 S
Tb179 O222 2.552 . S
Tb179 O223 2.413 1_554 S
Tb179 C243 2.833 . S
N180 C172 1.360 1_546 S
N180 Tb179 2.660 1_556 S
N180 C181 1.305 1_545 S
C181 N180 1.305 1_565 S
C181 C183 1.407 . S
C181 H188 0.935 1_565 S
C182 C170 1.410 . S
C182 C183 1.345 . S
C182 H190 0.930 . S
C183 C181 1.407 . S
C183 C182 1.345 . S
C183 H185 0.930 . S
H184 C177 0.930 . S
H185 C183 0.930 . S
H186 C174 0.930 . S
H187 C175 0.931 . S
H188 C181 0.935 1_545 S
H189 C203 0.930 . S
H190 C182 0.930 . S
H191 C209 0.930 . S
H192 C200 0.930 . S
H193 C207 0.931 . S
H194 C171 0.929 . S
H195 C201 0.930 . S
H196 C234 0.930 . S
H197 C178 0.930 . S
H198 C233 0.929 . S
N199 Tb168 2.660 1_544 S
N199 C200 1.305 . S
N199 C204 1.360 1_554 S
C200 H192 0.930 . S
C200 N199 1.305 . S
C200 C203 1.407 . S
C201 H195 0.930 . S
C201 C202 1.410 . S
C201 C203 1.345 . S
C202 C201 1.410 . S
C202 C204 1.417 1_554 S
C202 C234 1.432 1_554 S
C203 H189 0.930 . S
C203 C200 1.407 . S
C203 C201 1.345 . S
C204 N199 1.360 1_556 S
C204 C202 1.417 1_556 S
C204 C208 1.432 . S
H205 C210 0.930 . S
N206 Tb168 2.600 . S
N206 C208 1.359 1_565 S
N206 C209 1.327 . S
C207 H193 0.931 . S
C207 C209 1.392 . S
C207 C210 1.370 1_565 S
C208 C204 1.432 . S
C208 N206 1.359 1_545 S
C208 C211 1.414 . S
C209 H191 0.930 . S
C209 N206 1.327 . S
C209 C207 1.392 . S
C210 H205 0.930 . S
C210 C207 1.370 1_545 S
C210 C211 1.385 . S
C211 C208 1.414 . S
C211 C210 1.385 . S
C211 C233 1.444 . S
O212 Tb168 2.546 . S
O212 C232 1.251 . S
O213 Tb168 2.610 1_554 S
O213 Tb179 2.362 1_565 S
O213 C224 1.283 1_554 S
O214 Tb179 2.421 . S
O214 C231 1.262 1_545 S
O215 Tb168 2.320 1_554 S
O215 C231 1.260 . S
O216 Tb168 2.552 . S
O216 C224 1.243 . S
O217 Tb168 2.413 1_554 S
O217 C232 1.256 1_554 S
O218 Tb179 2.546 . S
O218 C243 1.251 . S
O219 Tb168 2.355 1_544 S
O219 Tb179 2.618 . S
O219 C235 1.290 . S
O220 Tb168 2.409 1_545 S
O220 C242 1.285 . S
O221 Tb179 2.320 1_556 S
O221 C242 1.260 . S
O222 Tb179 2.552 . S
O222 C235 1.243 . S
O223 Tb179 2.413 1_556 S
O223 C243 1.256 1_556 S
C224 O213 1.283 1_556 S
C224 O216 1.243 . S
C225 C227 1.382 1_556 S
C225 C229 1.393 . S
C225 C232 1.500 . S
C226 C227 1.400 . S
C226 C228 1.384 1_554 S
C227 C225 1.382 1_554 S
C227 C226 1.400 . S
C227 H244 0.930 . S
C228 C226 1.384 1_556 S
C228 C230 1.392 . S
C228 H245 0.931 . S
C229 C225 1.393 . S
C229 C230 1.401 . S
C229 H246 0.930 . S
C230 C228 1.392 . S
C230 C229 1.401 . S
C230 H247 0.930 . S
C231 O214 1.262 1_565 S
C231 O215 1.260 . S
C232 Tb168 2.833 . S
C232 O212 1.251 . S
C232 O217 1.256 1_556 S
C232 C225 1.500 . S
C233 H198 0.929 . S
C233 C211 1.444 . S
C233 C234 1.317 . S
C234 H196 0.930 . S
C234 C202 1.432 1_556 S
C234 C233 1.317 . S
C235 O219 1.290 . S
C235 O222 1.243 . S
C236 C237 1.382 1_554 S
C236 C240 1.393 . S
C236 C243 1.500 . S
C237 C236 1.382 1_556 S
C237 C238 1.400 . S
C237 H248 0.930 . S
C238 C237 1.400 . S
C238 C239 1.384 1_556 S
C239 C238 1.384 1_554 S
C239 C241 1.392 . S
C239 H249 0.931 . S
C240 C236 1.393 . S
C240 C241 1.401 . S
C240 H250 0.930 . S
C241 C239 1.392 . S
C241 C240 1.401 . S
C241 H251 0.930 . S
C242 O220 1.285 . S
C242 O221 1.260 . S
C243 Tb179 2.833 . S
C243 O218 1.251 . S
C243 O223 1.256 1_554 S
C243 C236 1.500 . S
H244 C227 0.930 . S
H245 C228 0.931 . S
H246 C229 0.930 . S
H247 C230 0.930 . S
H248 C237 0.930 . S
H249 C239 0.931 . S
H250 C240 0.930 . S
H251 C241 0.930 . S
Tb252 N283 2.660 . S
Tb252 N290 2.600 . S
Tb252 O296 2.546 . S
Tb252 O297 2.610 . S
Tb252 O299 2.320 . S
Tb252 O300 2.552 . S
Tb252 O301 2.413 . S
Tb252 O303 2.362 . S
Tb252 O304 2.421 . S
Tb252 C316 2.833 . S
C253 C256 1.432 . S
C253 C257 1.414 . S
C253 N260 1.359 . S
C254 C256 1.417 . S
C254 C258 1.432 . S
C254 C266 1.410 . S
C255 C257 1.444 . S
C255 C258 1.317 . S
C255 H278 0.929 . S
C256 C253 1.432 . S
C256 C254 1.417 . S
C256 N264 1.360 . S
C257 C253 1.414 . S
C257 C255 1.444 . S
C257 C262 1.385 . S
C258 C254 1.432 . S
C258 C255 1.317 . S
C258 H270 0.930 . S
C259 C261 1.392 . S
C259 C262 1.370 . S
C259 H271 0.931 . S
N260 C253 1.359 . S
N260 C261 1.327 . S
N260 Tb263 2.600 . S
C261 C259 1.392 . S
C261 N260 1.327 . S
C261 H268 0.930 . S
C262 C257 1.385 . S
C262 C259 1.370 . S
C262 H281 0.930 . S
Tb263 N260 2.600 . S
Tb263 N264 2.660 . S
Tb263 O297 2.362 . S
Tb263 O298 2.421 . S
Tb263 O302 2.546 . S
Tb263 O303 2.610 . S
Tb263 O305 2.320 . S
Tb263 O306 2.552 . S
Tb263 O307 2.413 . S
Tb263 C327 2.833 . S
N264 C256 1.360 . S
N264 Tb263 2.660 . S
N264 C265 1.305 . S
C265 N264 1.305 . S
C265 C267 1.407 . S
C265 H272 0.930 . S
C266 C254 1.410 . S
C266 C267 1.345 . S
C266 H274 0.930 . S
C267 C265 1.407 . S
C267 C266 1.345 . S
C267 H269 0.930 . S
H268 C261 0.930 . S
H269 C267 0.930 . S
H270 C258 0.930 . S
H271 C259 0.931 . S
H272 C265 0.930 . S
H273 C287 0.930 . S
H274 C266 0.930 . S
H275 C293 0.930 . S
H276 C284 0.930 . S
H277 C291 0.931 . S
H278 C255 0.929 . S
H279 C285 0.930 . S
H280 C318 0.930 . S
H281 C262 0.930 . S
H282 C317 0.929 . S
N283 Tb252 2.660 . S
N283 C284 1.305 . S
N283 C288 1.360 . S
C284 H276 0.930 . S
C284 N283 1.305 . S
C284 C287 1.407 . S
C285 H279 0.930 . S
C285 C286 1.410 . S
C285 C287 1.345 . S
C286 C285 1.410 . S
C286 C288 1.417 . S
C286 C318 1.432 . S
C287 H273 0.930 . S
C287 C284 1.407 . S
C287 C285 1.345 . S
C288 N283 1.360 . S
C288 C286 1.417 . S
C288 C292 1.432 . S
H289 C294 0.930 . S
N290 Tb252 2.600 . S
N290 C292 1.359 . S
N290 C293 1.327 . S
C291 H277 0.931 . S
C291 C293 1.392 . S
C291 C294 1.370 . S
C292 C288 1.432 . S
C292 N290 1.359 . S
C292 C295 1.414 . S
C293 H275 0.930 . S
C293 N290 1.327 . S
C293 C291 1.392 . S
C294 H289 0.930 . S
C294 C291 1.370 . S
C294 C295 1.385 . S
C295 C292 1.414 . S
C295 C294 1.385 . S
C295 C317 1.444 . S
O296 Tb252 2.546 . S
O296 C316 1.251 . S
O297 Tb252 2.610 . S
O297 Tb263 2.362 . S
O297 C308 1.283 . S
O298 Tb263 2.421 . S
O298 C315 1.262 . S
O299 Tb252 2.320 . S
O299 C315 1.260 . S
O300 Tb252 2.552 . S
O300 C308 1.243 . S
O301 Tb252 2.413 . S
O301 C316 1.256 . S
O302 Tb263 2.546 . S
O302 C327 1.251 . S
O303 Tb252 2.362 . S
O303 Tb263 2.610 . S
O303 C319 1.283 . S
O304 Tb252 2.421 . S
O304 C326 1.262 . S
O305 Tb263 2.320 . S
O305 C326 1.260 . S
O306 Tb263 2.552 . S
O306 C319 1.243 . S
O307 Tb263 2.413 . S
O307 C327 1.256 . S
C308 O297 1.283 . S
C308 O300 1.243 . S
C309 C311 1.382 . S
C309 C313 1.393 . S
C309 C316 1.500 . S
C310 C311 1.400 1_545 S
C310 C312 1.384 . S
C311 C309 1.382 . S
C311 C310 1.400 1_565 S
C311 H328 0.930 . S
C312 C310 1.384 . S
C312 C314 1.392 . S
C312 H329 0.931 . S
C313 C309 1.393 . S
C313 C314 1.401 1_565 S
C313 H330 0.930 . S
C314 C312 1.392 . S
C314 C313 1.401 1_545 S
C314 H331 0.930 . S
C315 O298 1.262 . S
C315 O299 1.260 . S
C316 Tb252 2.833 . S
C316 O296 1.251 . S
C316 O301 1.256 . S
C316 C309 1.500 . S
C317 H282 0.929 . S
C317 C295 1.444 . S
C317 C318 1.317 . S
C318 H280 0.930 . S
C318 C286 1.432 . S
C318 C317 1.317 . S
C319 O303 1.283 . S
C319 O306 1.243 . S
C320 C321 1.382 . S
C320 C324 1.393 . S
C320 C327 1.500 . S
C321 C320 1.382 . S
C321 C322 1.400 . S
C321 H332 0.930 . S
C322 C321 1.400 . S
C322 C323 1.384 . S
C323 C322 1.384 . S
C323 C325 1.392 . S
C323 H333 0.931 . S
C324 C320 1.393 . S
C324 C325 1.401 . S
C324 H334 0.930 . S
C325 C323 1.392 . S
C325 C324 1.401 . S
C325 H335 0.930 . S
C326 O304 1.262 . S
C326 O305 1.260 . S
C327 Tb263 2.833 . S
C327 O302 1.251 . S
C327 O307 1.256 . S
C327 C320 1.500 . S
H328 C311 0.930 . S
H329 C312 0.931 . S
H330 C313 0.930 . S
H331 C314 0.930 . S
H332 C321 0.930 . S
H333 C323 0.931 . S
H334 C324 0.930 . S
H335 C325 0.930 . S
Tb336 N367 2.660 . S
Tb336 N374 2.600 . S
Tb336 O380 2.546 . S
Tb336 O381 2.610 . S
Tb336 O383 2.320 . S
Tb336 O384 2.552 . S
Tb336 O385 2.413 . S
Tb336 O387 2.362 . S
Tb336 O388 2.421 . S
Tb336 C400 2.833 . S
C337 C340 1.432 . S
C337 C341 1.414 1_565 S
C337 N344 1.359 . S
C338 C340 1.417 1_545 S
C338 C342 1.432 . S
C338 C350 1.410 . S
C339 C341 1.444 . S
C339 C342 1.317 . S
C339 H362 0.929 . S
C340 C337 1.432 . S
C340 C338 1.417 1_565 S
C340 N348 1.360 . S
C341 C337 1.414 1_545 S
C341 C339 1.444 . S
C341 C346 1.385 . S
C342 C338 1.432 . S
C342 C339 1.317 . S
C342 H354 0.930 . S
C343 C345 1.392 . S
C343 C346 1.370 1_565 S
C343 H355 0.931 . S
N344 C337 1.359 . S
N344 C345 1.327 . S
N344 Tb347 2.600 . S
C345 C343 1.392 . S
C345 N344 1.327 . S
C345 H352 0.930 . S
C346 C341 1.385 . S
C346 C343 1.370 1_545 S
C346 H365 0.930 . S
Tb347 N344 2.600 . S
Tb347 N348 2.660 . S
Tb347 O381 2.362 . S
Tb347 O382 2.421 . S
Tb347 O386 2.546 . S
Tb347 O387 2.610 . S
Tb347 O389 2.320 . S
Tb347 O390 2.552 . S
Tb347 O391 2.413 . S
Tb347 C411 2.833 . S
N348 C340 1.360 . S
N348 Tb347 2.660 . S
N348 C349 1.305 . S
C349 N348 1.305 . S
C349 C351 1.407 1_565 S
C349 H356 0.930 . S
C350 C338 1.410 . S
C350 C351 1.345 . S
C350 H358 0.930 . S
C351 C349 1.407 1_545 S
C351 C350 1.345 . S
C351 H353 0.930 . S
H352 C345 0.930 . S
H353 C351 0.930 . S
H354 C342 0.930 . S
H355 C343 0.931 . S
H356 C349 0.930 . S
H357 C371 0.930 . S
H358 C350 0.930 . S
H359 C377 0.930 . S
H360 C368 0.930 . S
H361 C375 0.931 . S
H362 C339 0.929 . S
H363 C369 0.930 . S
H364 C402 0.930 . S
H365 C346 0.930 . S
H366 C401 0.929 . S
N367 Tb336 2.660 . S
N367 C368 1.305 . S
N367 C372 1.360 . S
C368 H360 0.930 . S
C368 N367 1.305 . S
C368 C371 1.407 . S
C369 H363 0.930 . S
C369 C370 1.410 . S
C369 C371 1.345 . S
C370 C369 1.410 . S
C370 C372 1.417 . S
C370 C402 1.432 . S
C371 H357 0.930 . S
C371 C368 1.407 . S
C371 C369 1.345 . S
C372 N367 1.360 . S
C372 C370 1.417 . S
C372 C376 1.432 . S
H373 C378 0.930 . S
N374 Tb336 2.600 . S
N374 C376 1.359 . S
N374 C377 1.327 . S
C375 H361 0.931 . S
C375 C377 1.392 . S
C375 C378 1.370 . S
C376 C372 1.432 . S
C376 N374 1.359 . S
C376 C379 1.414 . S
C377 H359 0.930 . S
C377 N374 1.327 . S
C377 C375 1.392 . S
C378 H373 0.930 . S
C378 C375 1.370 . S
C378 C379 1.385 . S
C379 C376 1.414 . S
C379 C378 1.385 . S
C379 C401 1.444 . S
O380 Tb336 2.546 . S
O380 C400 1.251 . S
O381 Tb336 2.610 . S
O381 Tb347 2.362 . S
O381 C392 1.283 . S
O382 Tb347 2.421 . S
O382 C399 1.262 . S
O383 Tb336 2.320 . S
O383 C399 1.260 . S
O384 Tb336 2.552 . S
O384 C392 1.243 . S
O385 Tb336 2.413 . S
O385 C400 1.256 . S
O386 Tb347 2.546 . S
O386 C411 1.251 . S
O387 Tb336 2.362 . S
O387 Tb347 2.610 . S
O387 C403 1.283 . S
O388 Tb336 2.421 . S
O388 C410 1.262 . S
O389 Tb347 2.320 . S
O389 C410 1.260 . S
O390 Tb347 2.552 . S
O390 C403 1.243 . S
O391 Tb347 2.413 . S
O391 C411 1.256 . S
C392 O381 1.283 . S
C392 O384 1.243 . S
C393 C395 1.382 . S
C393 C397 1.393 . S
C393 C400 1.500 . S
C394 C395 1.400 1_655 S
C394 C396 1.384 . S
C395 C393 1.382 . S
C395 C394 1.400 1_455 S
C395 H412 0.930 . S
C396 C394 1.384 . S
C396 C398 1.392 . S
C396 H413 0.931 . S
C397 C393 1.393 . S
C397 C398 1.401 1_455 S
C397 H414 0.930 . S
C398 C396 1.392 . S
C398 C397 1.401 1_655 S
C398 H415 0.930 . S
C399 O382 1.262 . S
C399 O383 1.260 . S
C400 Tb336 2.833 . S
C400 O380 1.251 . S
C400 O385 1.256 . S
C400 C393 1.500 . S
C401 H366 0.929 . S
C401 C379 1.444 . S
C401 C402 1.317 . S
C402 H364 0.930 . S
C402 C370 1.432 . S
C402 C401 1.317 . S
C403 O387 1.283 . S
C403 O390 1.243 . S
C404 C405 1.382 . S
C404 C408 1.393 . S
C404 C411 1.500 . S
C405 C404 1.382 . S
C405 C406 1.400 . S
C405 H416 0.930 . S
C406 C405 1.400 . S
C406 C407 1.384 . S
C407 C406 1.384 . S
C407 C409 1.392 . S
C407 H417 0.931 . S
C408 C404 1.393 . S
C408 C409 1.401 . S
C408 H418 0.930 . S
C409 C407 1.392 . S
C409 C408 1.401 . S
C409 H419 0.930 . S
C410 O388 1.262 . S
C410 O389 1.260 . S
C411 Tb347 2.833 . S
C411 O386 1.251 . S
C411 O391 1.256 . S
C411 C404 1.500 . S
H412 C395 0.930 . S
H413 C396 0.931 . S
H414 C397 0.930 . S
H415 C398 0.930 . S
H416 C405 0.930 . S
H417 C407 0.931 . S
H418 C408 0.930 . S
H419 C409 0.930 . S
Tb420 N451 2.660 . S
Tb420 N458 2.600 . S
Tb420 O464 2.546 . S
Tb420 O465 2.610 . S
Tb420 O467 2.320 . S
Tb420 O468 2.552 . S
Tb420 O469 2.413 . S
Tb420 O471 2.362 . S
Tb420 O472 2.421 . S
Tb420 C484 2.833 . S
C421 C424 1.432 . S
C421 C425 1.414 1_455 S
C421 N428 1.359 . S
C422 C424 1.417 1_655 S
C422 C426 1.432 . S
C422 C434 1.410 . S
C423 C425 1.444 . S
C423 C426 1.317 . S
C423 H446 0.929 . S
C424 C421 1.432 . S
C424 C422 1.417 1_455 S
C424 N432 1.360 . S
C425 C421 1.414 1_655 S
C425 C423 1.444 . S
C425 C430 1.385 . S
C426 C422 1.432 . S
C426 C423 1.317 . S
C426 H438 0.930 . S
C427 C429 1.392 . S
C427 C430 1.370 1_455 S
C427 H439 0.931 . S
N428 C421 1.359 . S
N428 C429 1.327 . S
N428 Tb431 2.600 . S
C429 C427 1.392 . S
C429 N428 1.327 . S
C429 H436 0.930 . S
C430 C425 1.385 . S
C430 C427 1.370 1_655 S
C430 H449 0.930 . S
Tb431 N428 2.600 . S
Tb431 N432 2.660 . S
Tb431 O465 2.362 . S
Tb431 O466 2.421 . S
Tb431 O470 2.546 . S
Tb431 O471 2.610 . S
Tb431 O473 2.320 . S
Tb431 O474 2.552 . S
Tb431 O475 2.413 . S
Tb431 C495 2.833 . S
N432 C424 1.360 . S
N432 Tb431 2.660 . S
N432 C433 1.305 . S
C433 N432 1.305 . S
C433 C435 1.407 . S
C433 H440 0.930 . S
C434 C422 1.410 . S
C434 C435 1.345 1_655 S
C434 H442 0.930 . S
C435 C433 1.407 . S
C435 C434 1.345 1_455 S
C435 H437 0.930 . S
H436 C429 0.930 . S
H437 C435 0.930 . S
H438 C426 0.930 . S
H439 C427 0.931 . S
H440 C433 0.930 . S
H441 C455 0.930 . S
H442 C434 0.930 . S
H443 C461 0.930 . S
H444 C452 0.930 . S
H445 C459 0.931 . S
H446 C423 0.929 . S
H447 C453 0.930 . S
H448 C486 0.930 . S
H449 C430 0.930 . S
H450 C485 0.929 . S
N451 Tb420 2.660 . S
N451 C452 1.305 . S
N451 C456 1.360 . S
C452 H444 0.930 . S
C452 N451 1.305 . S
C452 C455 1.407 . S
C453 H447 0.930 . S
C453 C454 1.410 . S
C453 C455 1.345 . S
C454 C453 1.410 . S
C454 C456 1.417 . S
C454 C486 1.432 . S
C455 H441 0.930 . S
C455 C452 1.407 . S
C455 C453 1.345 . S
C456 N451 1.360 . S
C456 C454 1.417 . S
C456 C460 1.432 . S
H457 C462 0.930 . S
N458 Tb420 2.600 . S
N458 C460 1.359 . S
N458 C461 1.327 . S
C459 H445 0.931 . S
C459 C461 1.392 . S
C459 C462 1.370 . S
C460 C456 1.432 . S
C460 N458 1.359 . S
C460 C463 1.414 . S
C461 H443 0.930 . S
C461 N458 1.327 . S
C461 C459 1.392 . S
C462 H457 0.930 . S
C462 C459 1.370 . S
C462 C463 1.385 . S
C463 C460 1.414 . S
C463 C462 1.385 . S
C463 C485 1.444 . S
O464 Tb420 2.546 . S
O464 C484 1.251 . S
O465 Tb420 2.610 . S
O465 Tb431 2.362 . S
O465 C476 1.283 . S
O466 Tb431 2.421 . S
O466 C483 1.262 . S
O467 Tb420 2.320 . S
O467 C483 1.260 . S
O468 Tb420 2.552 . S
O468 C476 1.243 . S
O469 Tb420 2.413 . S
O469 C484 1.256 . S
O470 Tb431 2.546 . S
O470 C495 1.251 . S
O471 Tb420 2.362 . S
O471 Tb431 2.610 . S
O471 C487 1.283 . S
O472 Tb420 2.421 . S
O472 C494 1.262 . S
O473 Tb431 2.320 . S
O473 C494 1.260 . S
O474 Tb431 2.552 . S
O474 C487 1.243 . S
O475 Tb431 2.413 . S
O475 C495 1.256 . S
C476 O465 1.283 . S
C476 O468 1.243 . S
C477 C479 1.382 . S
C477 C481 1.393 . S
C477 C484 1.500 . S
C478 C479 1.400 . S
C478 C480 1.384 . S
C479 C477 1.382 . S
C479 C478 1.400 . S
C479 H496 0.930 . S
C480 C478 1.384 . S
C480 C482 1.392 . S
C480 H497 0.931 . S
C481 C477 1.393 . S
C481 C482 1.401 . S
C481 H498 0.930 . S
C482 C480 1.392 . S
C482 C481 1.401 . S
C482 H499 0.930 . S
C483 O466 1.262 . S
C483 O467 1.260 . S
C484 Tb420 2.833 . S
C484 O464 1.251 . S
C484 O469 1.256 . S
C484 C477 1.500 . S
C485 H450 0.929 . S
C485 C463 1.444 . S
C485 C486 1.317 . S
C486 H448 0.930 . S
C486 C454 1.432 . S
C486 C485 1.317 . S
C487 O471 1.283 . S
C487 O474 1.243 . S
C488 C489 1.382 . S
C488 C492 1.393 . S
C488 C495 1.500 . S
C489 C488 1.382 . S
C489 C490 1.400 . S
C489 H500 0.930 . S
C490 C489 1.400 . S
C490 C491 1.384 . S
C491 C490 1.384 . S
C491 C493 1.392 . S
C491 H501 0.931 . S
C492 C488 1.393 . S
C492 C493 1.401 . S
C492 H502 0.930 . S
C493 C491 1.392 . S
C493 C492 1.401 . S
C493 H503 0.930 . S
C494 O472 1.262 . S
C494 O473 1.260 . S
C495 Tb431 2.833 . S
C495 O470 1.251 . S
C495 O475 1.256 . S
C495 C488 1.500 . S
H496 C479 0.930 . S
H497 C480 0.931 . S
H498 C481 0.930 . S
H499 C482 0.930 . S
H500 C489 0.930 . S
H501 C491 0.931 . S
H502 C492 0.930 . S
H503 C493 0.930 . S
Tb504 N535 2.660 . S
Tb504 N542 2.600 . S
Tb504 O548 2.546 . S
Tb504 O549 2.610 . S
Tb504 O551 2.320 . S
Tb504 O552 2.552 . S
Tb504 O553 2.413 . S
Tb504 O555 2.362 . S
Tb504 O556 2.421 . S
Tb504 C568 2.833 . S
C505 C508 1.432 . S
C505 C509 1.412 1_545 S
C505 N512 1.359 . S
C506 C508 1.417 . S
C506 C510 1.432 1_545 S
C506 C518 1.410 . S
C507 C509 1.446 . S
C507 C510 1.317 . S
C507 H530 0.929 . S
C508 C505 1.432 . S
C508 C506 1.417 . S
C508 N516 1.360 . S
C509 C505 1.412 1_565 S
C509 C507 1.446 . S
C509 C514 1.385 . S
C510 C506 1.432 1_565 S
C510 C507 1.317 . S
C510 H522 0.930 . S
C511 C513 1.392 . S
C511 C514 1.370 1_545 S
C511 H523 0.931 . S
N512 C505 1.359 . S
N512 C513 1.327 . S
N512 Tb515 2.600 . S
C513 C511 1.392 . S
C513 N512 1.327 . S
C513 H520 0.930 . S
C514 C509 1.385 . S
C514 C511 1.370 1_565 S
C514 H533 0.930 . S
Tb515 N512 2.600 . S
Tb515 N516 2.660 . S
Tb515 O549 2.362 . S
Tb515 O550 2.421 . S
Tb515 O554 2.546 . S
Tb515 O555 2.610 . S
Tb515 O557 2.320 . S
Tb515 O558 2.552 . S
Tb515 O559 2.413 . S
Tb515 C579 2.833 . S
N516 C508 1.360 . S
N516 Tb515 2.660 . S
N516 C517 1.305 . S
C517 N516 1.305 . S
C517 C519 1.407 . S
C517 H524 0.930 . S
C518 C506 1.410 . S
C518 C519 1.345 . S
C518 H526 0.930 1_545 S
C519 C517 1.407 . S
C519 C518 1.345 . S
C519 H521 0.930 . S
H520 C513 0.930 . S
H521 C519 0.930 . S
H522 C510 0.930 . S
H523 C511 0.931 . S
H524 C517 0.930 . S
H525 C539 0.930 . S
H526 C518 0.930 1_565 S
H527 C545 0.930 . S
H528 C536 0.930 . S
H529 C543 0.931 . S
H530 C507 0.929 . S
H531 C537 0.930 . S
H532 C570 0.930 . S
H533 C514 0.930 . S
H534 C569 0.929 . S
N535 Tb504 2.660 . S
N535 C536 1.305 . S
N535 C540 1.360 . S
C536 H528 0.930 . S
C536 N535 1.305 . S
C536 C539 1.407 . S
C537 H531 0.930 . S
C537 C538 1.410 . S
C537 C539 1.345 . S
C538 C537 1.410 . S
C538 C540 1.417 . S
C538 C570 1.432 . S
C539 H525 0.930 . S
C539 C536 1.407 . S
C539 C537 1.345 . S
C540 N535 1.360 . S
C540 C538 1.417 . S
C540 C544 1.432 . S
H541 C546 0.930 . S
N542 Tb504 2.600 . S
N542 C544 1.359 . S
N542 C545 1.327 . S
C543 H529 0.931 . S
C543 C545 1.392 . S
C543 C546 1.370 . S
C544 C540 1.432 . S
C544 N542 1.359 . S
C544 C547 1.414 . S
C545 H527 0.930 . S
C545 N542 1.327 . S
C545 C543 1.392 . S
C546 H541 0.930 . S
C546 C543 1.370 . S
C546 C547 1.385 . S
C547 C544 1.414 . S
C547 C546 1.385 . S
C547 C569 1.444 . S
O548 Tb504 2.546 . S
O548 C568 1.251 . S
O549 Tb504 2.610 . S
O549 Tb515 2.362 . S
O549 C560 1.283 . S
O550 Tb515 2.421 . S
O550 C567 1.262 . S
O551 Tb504 2.320 . S
O551 C567 1.260 . S
O552 Tb504 2.552 . S
O552 C560 1.243 . S
O553 Tb504 2.413 . S
O553 C568 1.256 . S
O554 Tb515 2.546 . S
O554 C579 1.251 . S
O555 Tb504 2.362 . S
O555 Tb515 2.610 . S
O555 C571 1.283 . S
O556 Tb504 2.421 . S
O556 C578 1.262 . S
O557 Tb515 2.320 . S
O557 C578 1.260 . S
O558 Tb515 2.552 . S
O558 C571 1.243 . S
O559 Tb515 2.413 . S
O559 C579 1.256 . S
C560 O549 1.283 . S
C560 O552 1.243 . S
C561 C563 1.382 . S
C561 C565 1.393 . S
C561 C568 1.500 . S
C562 C563 1.400 . S
C562 C564 1.384 . S
C563 C561 1.382 . S
C563 C562 1.400 . S
C563 H580 0.930 . S
C564 C562 1.384 . S
C564 C566 1.392 . S
C564 H581 0.931 . S
C565 C561 1.393 . S
C565 C566 1.401 . S
C565 H582 0.930 . S
C566 C564 1.392 . S
C566 C565 1.401 . S
C566 H583 0.930 . S
C567 O550 1.262 . S
C567 O551 1.260 . S
C568 Tb504 2.833 . S
C568 O548 1.251 . S
C568 O553 1.256 . S
C568 C561 1.500 . S
C569 H534 0.929 . S
C569 C547 1.444 . S
C569 C570 1.317 . S
C570 H532 0.930 . S
C570 C538 1.432 . S
C570 C569 1.317 . S
C571 O555 1.283 . S
C571 O558 1.243 . S
C572 C573 1.382 . S
C572 C576 1.393 . S
C572 C579 1.500 1_565 S
C573 C572 1.382 . S
C573 C574 1.400 . S
C573 H584 0.930 . S
C574 C573 1.400 . S
C574 C575 1.384 . S
C575 C574 1.384 . S
C575 C577 1.392 . S
C575 H585 0.931 . S
C576 C572 1.393 . S
C576 C577 1.401 . S
C576 H586 0.930 . S
C577 C575 1.392 . S
C577 C576 1.401 . S
C577 H587 0.930 . S
C578 O556 1.262 . S
C578 O557 1.260 . S
C579 Tb515 2.833 . S
C579 O554 1.251 . S
C579 O559 1.256 . S
C579 C572 1.500 1_545 S
H580 C563 0.930 . S
H581 C564 0.931 . S
H582 C565 0.930 . S
H583 C566 0.930 . S
H584 C573 0.930 . S
H585 C575 0.931 . S
H586 C576 0.930 . S
H587 C577 0.930 . S
Tb588 N619 2.660 . S
Tb588 N626 2.600 . S
Tb588 O632 2.546 . S
Tb588 O633 2.610 . S
Tb588 O635 2.320 . S
Tb588 O636 2.552 . S
Tb588 O637 2.413 . S
Tb588 O639 2.362 . S
Tb588 O640 2.421 . S
Tb588 C652 2.833 . S
C589 C592 1.432 . S
C589 C593 1.414 1_655 S
C589 N596 1.359 . S
C590 C592 1.417 1_455 S
C590 C594 1.432 . S
C590 C602 1.410 . S
C591 C593 1.444 . S
C591 C594 1.317 . S
C591 H614 0.929 . S
C592 C589 1.432 . S
C592 C590 1.417 1_655 S
C592 N600 1.360 . S
C593 C589 1.414 1_455 S
C593 C591 1.444 . S
C593 C598 1.385 . S
C594 C590 1.432 . S
C594 C591 1.317 . S
C594 H606 0.930 . S
C595 C597 1.392 . S
C595 C598 1.370 1_655 S
C595 H607 0.931 . S
N596 C589 1.359 . S
N596 C597 1.327 . S
N596 Tb599 2.600 . S
C597 C595 1.392 . S
C597 N596 1.327 . S
C597 H604 0.930 . S
C598 C593 1.385 . S
C598 C595 1.370 1_455 S
C598 H617 0.930 . S
Tb599 N596 2.600 . S
Tb599 N600 2.660 . S
Tb599 O633 2.362 . S
Tb599 O634 2.421 . S
Tb599 O638 2.546 . S
Tb599 O639 2.610 . S
Tb599 O641 2.320 . S
Tb599 O642 2.552 . S
Tb599 O643 2.413 . S
Tb599 C663 2.833 1_655 S
N600 C592 1.360 . S
N600 Tb599 2.660 . S
N600 C601 1.305 . S
C601 N600 1.305 . S
C601 C603 1.407 . S
C601 H608 0.930 . S
C602 C590 1.410 . S
C602 C603 1.345 1_455 S
C602 H610 0.930 . S
C603 C601 1.407 . S
C603 C602 1.345 1_655 S
C603 H605 0.930 . S
H604 C597 0.930 . S
H605 C603 0.930 . S
H606 C594 0.930 . S
H607 C595 0.931 . S
H608 C601 0.930 . S
H609 C623 0.930 . S
H610 C602 0.930 . S
H611 C629 0.930 . S
H612 C620 0.930 . S
H613 C627 0.931 . S
H614 C591 0.929 . S
H615 C621 0.930 . S
H616 C654 0.910 1_565 S
H617 C598 0.930 . S
H618 C653 0.929 1_565 S
N619 Tb588 2.660 . S
N619 C620 1.305 . S
N619 C624 1.360 . S
C620 H612 0.930 . S
C620 N619 1.305 . S
C620 C623 1.407 . S
C621 H615 0.930 . S
C621 C622 1.410 . S
C621 C623 1.345 . S
C622 C621 1.410 . S
C622 C624 1.417 . S
C622 C654 1.446 . S
C623 H609 0.930 . S
C623 C620 1.407 . S
C623 C621 1.345 . S
C624 N619 1.360 . S
C624 C622 1.417 . S
C624 C628 1.432 . S
H625 C630 0.930 . S
N626 Tb588 2.600 . S
N626 C628 1.359 . S
N626 C629 1.327 . S
C627 H613 0.931 . S
C627 C629 1.392 . S
C627 C630 1.370 . S
C628 C624 1.432 . S
C628 N626 1.359 . S
C628 C631 1.414 . S
C629 H611 0.930 . S
C629 N626 1.327 . S
C629 C627 1.392 . S
C630 H625 0.930 . S
C630 C627 1.370 . S
C630 C631 1.385 . S
C631 C628 1.414 . S
C631 C630 1.385 . S
C631 C653 1.444 . S
O632 Tb588 2.546 . S
O632 C652 1.251 . S
O633 Tb588 2.610 . S
O633 Tb599 2.362 . S
O633 C644 1.283 . S
O634 Tb599 2.421 . S
O634 C651 1.262 . S
O635 Tb588 2.320 . S
O635 C651 1.260 . S
O636 Tb588 2.552 . S
O636 C644 1.243 . S
O637 Tb588 2.413 . S
O637 C652 1.256 . S
O638 Tb599 2.546 . S
O638 C663 1.251 1_655 S
O639 Tb588 2.362 . S
O639 Tb599 2.610 . S
O639 C655 1.283 . S
O640 Tb588 2.421 . S
O640 C662 1.262 . S
O641 Tb599 2.320 . S
O641 C662 1.260 . S
O642 Tb599 2.552 . S
O642 C655 1.243 . S
O643 Tb599 2.413 . S
O643 C663 1.256 1_655 S
C644 O633 1.283 . S
C644 O636 1.243 . S
C645 C647 1.382 . S
C645 C649 1.393 . S
C645 C652 1.500 . S
C646 C647 1.400 . S
C646 C648 1.384 . S
C647 C645 1.382 . S
C647 C646 1.400 . S
C647 H664 0.930 . S
C648 C646 1.384 . S
C648 C650 1.392 . S
C648 H665 0.931 . S
C649 C645 1.393 . S
C649 C650 1.401 . S
C649 H666 0.930 . S
C650 C648 1.392 . S
C650 C649 1.401 . S
C650 H667 0.930 . S
C651 O634 1.262 . S
C651 O635 1.260 . S
C652 Tb588 2.833 . S
C652 O632 1.251 . S
C652 O637 1.256 . S
C652 C645 1.500 . S
C653 H618 0.929 1_545 S
C653 C631 1.444 . S
C653 C654 1.322 . S
C654 H616 0.910 1_545 S
C654 C622 1.446 . S
C654 C653 1.322 . S
C655 O639 1.283 . S
C655 O642 1.243 . S
C656 C657 1.382 . S
C656 C660 1.393 . S
C656 C663 1.500 . S
C657 C656 1.382 . S
C657 C658 1.400 . S
C657 H668 0.930 . S
C658 C657 1.400 . S
C658 C659 1.384 . S
C659 C658 1.384 . S
C659 C661 1.392 . S
C659 H669 0.931 . S
C660 C656 1.393 . S
C660 C661 1.401 . S
C660 H670 0.930 . S
C661 C659 1.392 . S
C661 C660 1.401 . S
C661 H671 0.930 . S
C662 O640 1.262 . S
C662 O641 1.260 . S
C663 Tb599 2.833 1_455 S
C663 O638 1.251 1_455 S
C663 O643 1.256 1_455 S
C663 C656 1.500 . S
H664 C647 0.930 . S
H665 C648 0.931 . S
H666 C649 0.930 . S
H667 C650 0.930 . S
H668 C657 0.930 . S
H669 C659 0.931 . S
H670 C660 0.930 . S
H671 C661 0.930 . S
Tb672 N703 2.660 . S
Tb672 N710 2.600 . S
Tb672 O716 2.546 . S
Tb672 O717 2.610 . S
Tb672 O719 2.320 . S
Tb672 O720 2.552 . S
Tb672 O721 2.413 . S
Tb672 O723 2.362 . S
Tb672 O724 2.421 . S
Tb672 C736 2.833 . S
C673 C676 1.432 . S
C673 C677 1.414 . S
C673 N680 1.359 . S
C674 C676 1.417 . S
C674 C678 1.432 . S
C674 C686 1.410 . S
C675 C677 1.444 . S
C675 C678 1.317 . S
C675 H698 0.929 . S
C676 C673 1.432 . S
C676 C674 1.417 . S
C676 N684 1.360 . S
C677 C673 1.414 . S
C677 C675 1.444 . S
C677 C682 1.385 . S
C678 C674 1.432 . S
C678 C675 1.317 . S
C678 H690 0.930 . S
C679 C681 1.392 . S
C679 C682 1.370 . S
C679 H691 0.931 . S
N680 C673 1.359 . S
N680 C681 1.327 . S
N680 Tb683 2.600 . S
C681 C679 1.392 . S
C681 N680 1.327 . S
C681 H688 0.930 . S
C682 C677 1.385 . S
C682 C679 1.370 . S
C682 H701 0.930 . S
Tb683 N680 2.600 . S
Tb683 N684 2.660 . S
Tb683 O717 2.362 . S
Tb683 O718 2.421 . S
Tb683 O722 2.546 . S
Tb683 O723 2.610 . S
Tb683 O725 2.320 . S
Tb683 O726 2.552 . S
Tb683 O727 2.413 . S
Tb683 C747 2.833 . S
N684 C676 1.360 . S
N684 Tb683 2.660 . S
N684 C685 1.305 . S
C685 N684 1.305 . S
C685 C687 1.407 . S
C685 H692 0.930 . S
C686 C674 1.410 . S
C686 C687 1.345 . S
C686 H694 0.930 . S
C687 C685 1.407 . S
C687 C686 1.345 . S
C687 H689 0.930 . S
H688 C681 0.930 . S
H689 C687 0.930 . S
H690 C678 0.930 . S
H691 C679 0.931 . S
H692 C685 0.930 . S
H693 C707 0.930 . S
H694 C686 0.930 . S
H695 C713 0.930 . S
H696 C704 0.930 . S
H697 C711 0.931 . S
H698 C675 0.929 . S
H699 C705 0.930 1_455 S
H700 C738 0.930 . S
H701 C682 0.930 . S
H702 C737 0.929 . S
N703 Tb672 2.660 . S
N703 C704 1.305 . S
N703 C708 1.360 . S
C704 H696 0.930 . S
C704 N703 1.305 . S
C704 C707 1.407 . S
C705 H699 0.930 1_655 S
C705 C706 1.410 . S
C705 C707 1.345 . S
C706 C705 1.410 . S
C706 C708 1.417 . S
C706 C738 1.432 1_655 S
C707 H693 0.930 . S
C707 C704 1.407 . S
C707 C705 1.345 . S
C708 N703 1.360 . S
C708 C706 1.417 . S
C708 C712 1.432 . S
H709 C714 0.930 . S
N710 Tb672 2.600 . S
N710 C712 1.359 . S
N710 C713 1.327 . S
C711 H697 0.931 . S
C711 C713 1.392 . S
C711 C714 1.370 . S
C712 C708 1.432 . S
C712 N710 1.359 . S
C712 C715 1.414 . S
C713 H695 0.930 . S
C713 N710 1.327 . S
C713 C711 1.392 . S
C714 H709 0.930 . S
C714 C711 1.370 . S
C714 C715 1.385 . S
C715 C712 1.414 . S
C715 C714 1.385 . S
C715 C737 1.444 1_655 S
O716 Tb672 2.546 . S
O716 C736 1.251 . S
O717 Tb672 2.610 . S
O717 Tb683 2.362 . S
O717 C728 1.283 . S
O718 Tb683 2.421 . S
O718 C735 1.262 . S
O719 Tb672 2.320 . S
O719 C735 1.260 . S
O720 Tb672 2.552 . S
O720 C728 1.243 . S
O721 Tb672 2.413 . S
O721 C736 1.256 . S
O722 Tb683 2.546 . S
O722 C747 1.251 . S
O723 Tb672 2.362 . S
O723 Tb683 2.610 . S
O723 C739 1.283 . S
O724 Tb672 2.421 . S
O724 C746 1.262 . S
O725 Tb683 2.320 . S
O725 C746 1.260 . S
O726 Tb683 2.552 . S
O726 C739 1.243 . S
O727 Tb683 2.413 . S
O727 C747 1.256 . S
C728 O717 1.283 . S
C728 O720 1.243 . S
C729 C731 1.382 . S
C729 C733 1.393 . S
C729 C736 1.500 . S
C730 C731 1.400 . S
C730 C732 1.384 . S
C731 C729 1.382 . S
C731 C730 1.400 . S
C731 H748 0.930 . S
C732 C730 1.384 . S
C732 C734 1.392 . S
C732 H749 0.931 . S
C733 C729 1.393 . S
C733 C734 1.401 . S
C733 H750 0.930 . S
C734 C732 1.392 . S
C734 C733 1.401 . S
C734 H751 0.930 . S
C735 O718 1.262 . S
C735 O719 1.260 . S
C736 Tb672 2.833 . S
C736 O716 1.251 . S
C736 O721 1.256 . S
C736 C729 1.500 . S
C737 H702 0.929 . S
C737 C715 1.444 1_455 S
C737 C738 1.317 . S
C738 H700 0.930 . S
C738 C706 1.432 1_455 S
C738 C737 1.317 . S
C739 O723 1.283 . S
C739 O726 1.243 . S
C740 C741 1.382 . S
C740 C744 1.393 . S
C740 C747 1.500 . S
C741 C740 1.382 . S
C741 C742 1.400 . S
C741 H752 0.930 . S
C742 C741 1.400 . S
C742 C743 1.384 . S
C743 C742 1.384 . S
C743 C745 1.392 . S
C743 H753 0.931 . S
C744 C740 1.393 . S
C744 C745 1.401 . S
C744 H754 0.930 . S
C745 C743 1.392 . S
C745 C744 1.401 . S
C745 H755 0.930 . S
C746 O724 1.262 . S
C746 O725 1.260 . S
C747 Tb683 2.833 . S
C747 O722 1.251 . S
C747 O727 1.256 . S
C747 C740 1.500 . S
H748 C731 0.930 . S
H749 C732 0.931 . S
H750 C733 0.930 . S
H751 C734 0.930 . S
H752 C741 0.930 . S
H753 C743 0.931 . S
H754 C744 0.930 . S
H755 C745 0.930 . S
H756 C768 0.930 . S
H757 C770 0.930 . S
H758 C771 0.930 . S
H759 C775 0.959 . S
H760 C775 0.959 . S
H761 C775 0.961 . S
H762 C776 0.960 . S
H763 C776 0.961 . S
H764 C776 0.959 . S
H765 C779 0.929 . S
H766 C780 0.931 . S
H767 C782 0.930 . S
C768 H756 0.930 . S
C768 C769 1.399 1_556 S
C768 C773 1.399 . S
C769 C768 1.399 1_554 S
C769 C770 1.376 . S
C770 H757 0.930 . S
C770 C769 1.376 . S
C770 C771 1.388 . S
C771 H758 0.930 . S
C771 C770 1.388 . S
C771 C772 1.390 . S
C772 C771 1.390 . S
C772 C773 1.394 1_554 S
C772 C778 1.465 . S
C773 C768 1.399 . S
C773 C772 1.394 1_556 S
C773 C774 1.516 . S
C774 C773 1.516 . S
C774 C775 1.502 . S
C774 C776 1.561 . S
C774 C777 1.526 . S
C775 H759 0.959 . S
C775 H760 0.959 . S
C775 H761 0.961 . S
C775 C774 1.502 . S
C776 H762 0.960 . S
C776 H763 0.961 . S
C776 H764 0.959 . S
C776 C774 1.561 . S
C777 C774 1.526 . S
C777 C778 1.396 1_556 S
C777 C782 1.390 . S
C778 C772 1.465 . S
C778 C777 1.396 1_554 S
C778 C779 1.399 . S
C779 H765 0.929 . S
C779 C778 1.399 . S
C779 C780 1.385 . S
C780 H766 0.931 . S
C780 C779 1.385 . S
C780 C781 1.389 . S
C781 C780 1.389 . S
C781 C782 1.387 1_554 S
C782 H767 0.930 . S
C782 C777 1.390 . S
C782 C781 1.387 1_556 S
H783 C795 0.930 . S
H784 C797 0.930 . S
H785 C798 0.930 . S
H786 C802 0.959 . S
H787 C802 0.959 . S
H788 C802 0.961 . S
H789 C803 0.960 . S
H790 C803 0.961 . S
H791 C803 0.959 . S
H792 C806 0.929 . S
H793 C807 0.931 . S
H794 C809 0.930 . S
C795 H783 0.930 . S
C795 C796 1.399 1_556 S
C795 C800 1.399 . S
C796 C795 1.399 1_554 S
C796 C797 1.376 . S
C797 H784 0.930 . S
C797 C796 1.376 . S
C797 C798 1.388 . S
C798 H785 0.930 . S
C798 C797 1.388 . S
C798 C799 1.390 . S
C799 C798 1.390 . S
C799 C800 1.394 1_554 S
C799 C805 1.465 . S
C800 C795 1.399 . S
C800 C799 1.394 1_556 S
C800 C801 1.516 . S
C801 C800 1.516 . S
C801 C802 1.502 . S
C801 C803 1.561 . S
C801 C804 1.526 . S
C802 H786 0.959 . S
C802 H787 0.959 . S
C802 H788 0.961 . S
C802 C801 1.502 . S
C803 H789 0.960 . S
C803 H790 0.961 . S
C803 H791 0.959 . S
C803 C801 1.561 . S
C804 C801 1.526 . S
C804 C805 1.396 1_556 S
C804 C809 1.390 . S
C805 C799 1.465 . S
C805 C804 1.396 1_554 S
C805 C806 1.399 . S
C806 H792 0.929 . S
C806 C805 1.399 . S
C806 C807 1.385 . S
C807 H793 0.931 . S
C807 C806 1.385 . S
C807 C808 1.389 . S
C808 C807 1.389 . S
C808 C809 1.387 1_554 S
C809 H794 0.930 . S
C809 C804 1.390 . S
C809 C808 1.387 1_556 S
H810 C822 0.930 . S
H811 C824 0.930 . S
H812 C825 0.930 . S
H813 C829 0.959 . S
H814 C829 0.959 . S
H815 C829 0.961 . S
H816 C830 0.960 . S
H817 C830 0.961 . S
H818 C830 0.959 . S
H819 C833 0.929 . S
H820 C834 0.931 . S
H821 C836 0.930 . S
C822 H810 0.930 . S
C822 C823 1.399 . S
C822 C827 1.399 . S
C823 C822 1.399 . S
C823 C824 1.376 . S
C824 H811 0.930 . S
C824 C823 1.376 . S
C824 C825 1.388 . S
C825 H812 0.930 . S
C825 C824 1.388 . S
C825 C826 1.390 . S
C826 C825 1.390 . S
C826 C827 1.394 . S
C826 C832 1.465 . S
C827 C822 1.399 . S
C827 C826 1.394 . S
C827 C828 1.516 . S
C828 C827 1.516 . S
C828 C829 1.502 1_554 S
C828 C830 1.561 . S
C828 C831 1.526 . S
C829 H813 0.959 . S
C829 H814 0.959 . S
C829 H815 0.961 . S
C829 C828 1.502 1_556 S
C830 H816 0.960 . S
C830 H817 0.961 . S
C830 H818 0.959 . S
C830 C828 1.561 . S
C831 C828 1.526 . S
C831 C832 1.396 . S
C831 C836 1.390 . S
C832 C826 1.465 . S
C832 C831 1.396 . S
C832 C833 1.399 . S
C833 H819 0.929 . S
C833 C832 1.399 . S
C833 C834 1.385 . S
C834 H820 0.931 . S
C834 C833 1.385 . S
C834 C835 1.389 . S
C835 C834 1.389 . S
C835 C836 1.387 . S
C836 H821 0.930 . S
C836 C831 1.390 . S
C836 C835 1.387 . S
H837 C849 0.930 . S
H838 C851 0.930 . S
H839 C852 0.930 . S
H840 C856 0.959 1_554 S
H841 C856 0.959 . S
H842 C856 0.961 . S
H843 C857 0.960 . S
H844 C857 0.961 . S
H845 C857 0.959 . S
H846 C860 0.929 . S
H847 C861 0.931 . S
H848 C863 0.930 . S
C849 H837 0.930 . S
C849 C850 1.399 . S
C849 C854 1.399 . S
C850 C849 1.399 . S
C850 C851 1.376 1_556 S
C851 H838 0.930 . S
C851 C850 1.376 1_554 S
C851 C852 1.388 . S
C852 H839 0.930 . S
C852 C851 1.388 . S
C852 C853 1.390 1_554 S
C853 C852 1.390 1_556 S
C853 C854 1.394 . S
C853 C859 1.462 1_556 S
C854 C849 1.399 . S
C854 C853 1.394 . S
C854 C855 1.516 . S
C855 C854 1.516 . S
C855 C856 1.502 . S
C855 C857 1.561 . S
C855 C858 1.526 . S
C856 H840 0.959 1_556 S
C856 H841 0.959 . S
C856 H842 0.961 . S
C856 C855 1.502 . S
C857 H843 0.960 . S
C857 H844 0.961 . S
C857 H845 0.959 . S
C857 C855 1.561 . S
C858 C855 1.526 . S
C858 C859 1.382 1_556 S
C858 C863 1.390 . S
C859 C853 1.462 1_554 S
C859 C858 1.382 1_554 S
C859 C860 1.414 . S
C860 H846 0.929 . S
C860 C859 1.414 . S
C860 C861 1.385 . S
C861 H847 0.931 . S
C861 C860 1.385 . S
C861 C862 1.389 . S
C862 C861 1.389 . S
C862 C863 1.387 1_554 S
C863 H848 0.930 . S
C863 C858 1.390 . S
C863 C862 1.387 1_556 S
H864 C876 0.930 . S
H865 C878 0.930 . S
H866 C879 0.930 . S
H867 C883 0.959 . S
H868 C883 0.959 . S
H869 C883 0.961 . S
H870 C884 0.960 . S
H871 C884 0.961 . S
H872 C884 0.959 . S
H873 C887 0.929 . S
H874 C888 0.931 . S
H875 C890 0.930 . S
C876 H864 0.930 . S
C876 C877 1.399 1_554 S
C876 C881 1.399 . S
C877 C876 1.399 1_556 S
C877 C878 1.376 . S
C878 H865 0.930 . S
C878 C877 1.376 . S
C878 C879 1.388 . S
C879 H866 0.930 . S
C879 C878 1.388 . S
C879 C880 1.390 . S
C880 C879 1.390 . S
C880 C881 1.394 1_556 S
C880 C886 1.465 . S
C881 C876 1.399 . S
C881 C880 1.394 1_554 S
C881 C882 1.516 . S
C882 C881 1.516 . S
C882 C883 1.502 . S
C882 C884 1.561 . S
C882 C885 1.526 . S
C883 H867 0.959 . S
C883 H868 0.959 . S
C883 H869 0.961 . S
C883 C882 1.502 . S
C884 H870 0.960 . S
C884 H871 0.961 . S
C884 H872 0.959 . S
C884 C882 1.561 . S
C885 C882 1.526 . S
C885 C886 1.396 1_554 S
C885 C890 1.390 . S
C886 C880 1.465 . S
C886 C885 1.396 1_556 S
C886 C887 1.399 . S
C887 H873 0.929 . S
C887 C886 1.399 . S
C887 C888 1.385 . S
C888 H874 0.931 . S
C888 C887 1.385 . S
C888 C889 1.389 . S
C889 C888 1.389 . S
C889 C890 1.387 1_556 S
C890 H875 0.930 . S
C890 C885 1.390 . S
C890 C889 1.387 1_554 S
H891 C903 0.930 . S
H892 C905 0.930 . S
H893 C906 0.930 . S
H894 C910 0.959 . S
H895 C910 0.959 . S
H896 C910 0.961 . S
H897 C911 0.960 . S
H898 C911 0.961 . S
H899 C911 0.959 . S
H900 C914 0.929 . S
H901 C915 0.931 . S
H902 C917 0.930 . S
C903 H891 0.930 . S
C903 C904 1.404 . S
C903 C908 1.399 . S
C904 C903 1.404 . S
C904 C905 1.370 1_554 S
C905 H892 0.930 . S
C905 C904 1.370 1_556 S
C905 C906 1.388 . S
C906 H893 0.930 . S
C906 C905 1.388 . S
C906 C907 1.390 . S
C907 C906 1.390 . S
C907 C908 1.394 1_556 S
C907 C913 1.465 . S
C908 C903 1.399 . S
C908 C907 1.394 1_554 S
C908 C909 1.516 . S
C909 C908 1.516 . S
C909 C910 1.502 . S
C909 C911 1.561 . S
C909 C912 1.526 . S
C910 H894 0.959 . S
C910 H895 0.959 . S
C910 H896 0.961 . S
C910 C909 1.502 . S
C911 H897 0.960 . S
C911 H898 0.961 . S
C911 H899 0.959 . S
C911 C909 1.561 . S
C912 C909 1.526 . S
C912 C913 1.396 1_554 S
C912 C917 1.390 . S
C913 C907 1.465 . S
C913 C912 1.396 1_556 S
C913 C914 1.399 . S
C914 H900 0.929 . S
C914 C913 1.399 . S
C914 C915 1.385 . S
C915 H901 0.931 . S
C915 C914 1.385 . S
C915 C916 1.389 . S
C916 C915 1.389 . S
C916 C917 1.387 1_556 S
C917 H902 0.930 . S
C917 C912 1.390 . S
C917 C916 1.387 1_554 S
H918 C930 0.930 . S
H919 C932 0.930 . S
H920 C933 0.930 . S
H921 C937 0.959 . S
H922 C937 0.959 . S
H923 C937 0.961 . S
H924 C938 0.960 . S
H925 C938 0.961 . S
H926 C938 0.959 . S
H927 C941 0.929 . S
H928 C942 0.931 . S
H929 C944 0.930 . S
C930 H918 0.930 . S
C930 C931 1.399 . S
C930 C935 1.399 . S
C931 C930 1.399 . S
C931 C932 1.376 . S
C932 H919 0.930 . S
C932 C931 1.376 . S
C932 C933 1.388 . S
C933 H920 0.930 . S
C933 C932 1.388 . S
C933 C934 1.390 . S
C934 C933 1.390 . S
C934 C935 1.394 . S
C934 C940 1.465 . S
C935 C930 1.399 . S
C935 C934 1.394 . S
C935 C936 1.516 . S
C936 C935 1.516 . S
C936 C937 1.502 . S
C936 C938 1.561 . S
C936 C939 1.526 . S
C937 H921 0.959 . S
C937 H922 0.959 . S
C937 H923 0.961 . S
C937 C936 1.502 . S
C938 H924 0.960 . S
C938 H925 0.961 . S
C938 H926 0.959 . S
C938 C936 1.561 . S
C939 C936 1.526 . S
C939 C940 1.396 . S
C939 C944 1.390 . S
C940 C934 1.465 . S
C940 C939 1.396 . S
C940 C941 1.399 . S
C941 H927 0.929 . S
C941 C940 1.399 . S
C941 C942 1.385 . S
C942 H928 0.931 . S
C942 C941 1.385 . S
C942 C943 1.389 . S
C943 C942 1.389 . S
C943 C944 1.387 . S
C944 H929 0.930 . S
C944 C939 1.390 . S
C944 C943 1.387 . S
H945 C957 0.930 . S
H946 C959 0.930 . S
H947 C960 0.930 . S
H948 C964 0.959 1_565 S
H949 C964 0.959 . S
H950 C964 0.961 . S
H951 C965 0.960 . S
H952 C965 0.961 . S
H953 C965 0.959 . S
H954 C968 0.929 . S
H955 C969 0.931 . S
H956 C971 0.930 . S
C957 H945 0.930 . S
C957 C958 1.399 . S
C957 C962 1.399 . S
C958 C957 1.399 . S
C958 C959 1.376 . S
C959 H946 0.930 . S
C959 C958 1.376 . S
C959 C960 1.388 . S
C960 H947 0.930 . S
C960 C959 1.388 . S
C960 C961 1.390 . S
C961 C960 1.390 . S
C961 C962 1.394 . S
C961 C967 1.465 . S
C962 C957 1.399 . S
C962 C961 1.394 . S
C962 C963 1.516 . S
C963 C962 1.516 . S
C963 C964 1.502 . S
C963 C965 1.561 . S
C963 C966 1.526 . S
C964 H948 0.959 1_545 S
C964 H949 0.959 . S
C964 H950 0.961 . S
C964 C963 1.502 . S
C965 H951 0.960 . S
C965 H952 0.961 . S
C965 H953 0.959 . S
C965 C963 1.561 . S
C966 C963 1.526 . S
C966 C967 1.396 . S
C966 C971 1.390 1_545 S
C967 C961 1.465 . S
C967 C966 1.396 . S
C967 C968 1.399 . S
C968 H954 0.929 . S
C968 C967 1.399 . S
C968 C969 1.385 1_545 S
C969 H955 0.931 . S
C969 C968 1.385 1_565 S
C969 C970 1.389 . S
C970 C969 1.389 . S
C970 C971 1.387 . S
C971 H956 0.930 . S
C971 C966 1.390 1_565 S
C971 C970 1.387 . S
H972 C984 0.930 . S
H973 C986 0.930 . S
H974 C987 0.930 . S
H975 C991 0.959 . S
H976 C991 0.959 . S
H977 C991 0.961 . S
H978 C992 0.960 . S
H979 C992 0.961 . S
H980 C992 0.959 . S
H981 C995 0.929 . S
H982 C996 0.931 . S
H983 C998 0.930 . S
C984 H972 0.930 . S
C984 C985 1.399 . S
C984 C989 1.399 1_455 S
C985 C984 1.399 . S
C985 C986 1.376 . S
C986 H973 0.930 . S
C986 C985 1.376 . S
C986 C987 1.388 . S
C987 H974 0.930 . S
C987 C986 1.388 . S
C987 C988 1.390 . S
C988 C987 1.390 . S
C988 C989 1.394 1_455 S
C988 C994 1.465 1_455 S
C989 C984 1.399 1_655 S
C989 C988 1.394 1_655 S
C989 C990 1.516 . S
C990 C989 1.516 . S
C990 C991 1.502 . S
C990 C992 1.561 . S
C990 C993 1.526 . S
C991 H975 0.959 . S
C991 H976 0.959 . S
C991 H977 0.961 . S
C991 C990 1.502 . S
C992 H978 0.960 . S
C992 H979 0.961 . S
C992 H980 0.959 . S
C992 C990 1.561 . S
C993 C990 1.526 . S
C993 C994 1.396 . S
C993 C998 1.390 . S
C994 C988 1.465 1_655 S
C994 C993 1.396 . S
C994 C995 1.399 . S
C995 H981 0.929 . S
C995 C994 1.399 . S
C995 C996 1.385 . S
C996 H982 0.931 . S
C996 C995 1.385 . S
C996 C997 1.389 . S
C997 C996 1.389 . S
C997 C998 1.387 . S
C998 H983 0.930 . S
C998 C993 1.390 . S
C998 C997 1.387 . S
H999 C1011 0.930 . S
H1000 C1013 0.930 . S
H1001 C1014 0.930 . S
H1002 C1018 0.959 . S
H1003 C1018 0.959 . S
H1004 C1018 0.961 . S
H1005 C1019 0.960 . S
H1006 C1019 0.961 . S
H1007 C1019 0.959 . S
H1008 C1022 0.929 . S
H1009 C1023 0.931 . S
H1010 C1025 0.930 . S
C1011 H999 0.930 . S
C1011 C1012 1.399 . S
C1011 C1016 1.399 . S
C1012 C1011 1.399 . S
C1012 C1013 1.376 . S
C1013 H1000 0.930 . S
C1013 C1012 1.376 . S
C1013 C1014 1.388 . S
C1014 H1001 0.930 . S
C1014 C1013 1.388 . S
C1014 C1015 1.390 . S
C1015 C1014 1.390 . S
C1015 C1016 1.394 . S
C1015 C1021 1.465 . S
C1016 C1011 1.399 . S
C1016 C1015 1.394 . S
C1016 C1017 1.516 . S
C1017 C1016 1.516 . S
C1017 C1018 1.502 . S
C1017 C1019 1.561 . S
C1017 C1020 1.526 . S
C1018 H1002 0.959 . S
C1018 H1003 0.959 . S
C1018 H1004 0.961 . S
C1018 C1017 1.502 . S
C1019 H1005 0.960 . S
C1019 H1006 0.961 . S
C1019 H1007 0.959 . S
C1019 C1017 1.561 . S
C1020 C1017 1.526 . S
C1020 C1021 1.396 . S
C1020 C1025 1.390 . S
C1021 C1015 1.465 . S
C1021 C1020 1.396 . S
C1021 C1022 1.399 . S
C1022 H1008 0.929 . S
C1022 C1021 1.399 . S
C1022 C1023 1.385 . S
C1023 H1009 0.931 . S
C1023 C1022 1.385 . S
C1023 C1024 1.389 . S
C1024 C1023 1.389 . S
C1024 C1025 1.387 . S
C1025 H1010 0.930 . S
C1025 C1020 1.390 . S
C1025 C1024 1.387 . S
H1026 C1038 0.930 . S
H1027 C1040 0.930 . S
H1028 C1041 0.930 . S
H1029 C1045 0.959 . S
H1030 C1045 0.959 . S
H1031 C1045 0.961 . S
H1032 C1046 0.960 . S
H1033 C1046 0.961 . S
H1034 C1046 0.959 . S
H1035 C1049 0.929 . S
H1036 C1050 0.931 . S
H1037 C1052 0.930 . S
C1038 H1026 0.930 . S
C1038 C1039 1.399 . S
C1038 C1043 1.399 . S
C1039 C1038 1.399 . S
C1039 C1040 1.376 . S
C1040 H1027 0.930 . S
C1040 C1039 1.376 . S
C1040 C1041 1.388 . S
C1041 H1028 0.930 . S
C1041 C1040 1.388 . S
C1041 C1042 1.390 . S
C1042 C1041 1.390 . S
C1042 C1043 1.394 . S
C1042 C1048 1.465 . S
C1043 C1038 1.399 . S
C1043 C1042 1.394 . S
C1043 C1044 1.516 . S
C1044 C1043 1.516 . S
C1044 C1045 1.502 . S
C1044 C1046 1.561 . S
C1044 C1047 1.526 . S
C1045 H1029 0.959 . S
C1045 H1030 0.959 . S
C1045 H1031 0.961 . S
C1045 C1044 1.502 . S
C1046 H1032 0.960 . S
C1046 H1033 0.961 . S
C1046 H1034 0.959 . S
C1046 C1044 1.561 . S
C1047 C1044 1.526 . S
C1047 C1048 1.396 . S
C1047 C1052 1.390 . S
C1048 C1042 1.465 . S
C1048 C1047 1.396 . S
C1048 C1049 1.399 . S
C1049 H1035 0.929 . S
C1049 C1048 1.399 . S
C1049 C1050 1.385 . S
C1050 H1036 0.931 . S
C1050 C1049 1.385 . S
C1050 C1051 1.389 . S
C1051 C1050 1.389 . S
C1051 C1052 1.387 . S
C1052 H1037 0.930 . S
C1052 C1047 1.390 . S
C1052 C1051 1.387 . S
H1053 C1065 0.930 . S
H1054 C1067 0.930 . S
H1055 C1068 0.930 . S
H1056 C1072 0.959 . S
H1057 C1072 0.959 . S
H1058 C1072 0.961 . S
H1059 C1073 0.960 . S
H1060 C1073 0.961 . S
H1061 C1073 0.959 . S
H1062 C1076 0.929 . S
H1063 C1077 0.931 . S
H1064 C1079 0.930 . S
C1065 H1053 0.930 . S
C1065 C1066 1.399 . S
C1065 C1070 1.399 . S
C1066 C1065 1.399 . S
C1066 C1067 1.376 . S
C1067 H1054 0.930 . S
C1067 C1066 1.376 . S
C1067 C1068 1.388 . S
C1068 H1055 0.930 . S
C1068 C1067 1.388 . S
C1068 C1069 1.390 . S
C1069 C1068 1.390 . S
C1069 C1070 1.394 . S
C1069 C1075 1.465 . S
C1070 C1065 1.399 . S
C1070 C1069 1.394 . S
C1070 C1071 1.516 . S
C1071 C1070 1.516 . S
C1071 C1072 1.502 . S
C1071 C1073 1.561 . S
C1071 C1074 1.526 . S
C1072 H1056 0.959 . S
C1072 H1057 0.959 . S
C1072 H1058 0.961 . S
C1072 C1071 1.502 . S
C1073 H1059 0.960 . S
C1073 H1060 0.961 . S
C1073 H1061 0.959 . S
C1073 C1071 1.561 . S
C1074 C1071 1.526 . S
C1074 C1075 1.396 . S
C1074 C1079 1.390 . S
C1075 C1069 1.465 . S
C1075 C1074 1.396 . S
C1075 C1076 1.399 . S
C1076 H1062 0.929 . S
C1076 C1075 1.399 . S
C1076 C1077 1.385 . S
C1077 H1063 0.931 . S
C1077 C1076 1.385 . S
C1077 C1078 1.389 . S
C1078 C1077 1.389 . S
C1078 C1079 1.387 . S
C1079 H1064 0.930 . S
C1079 C1074 1.390 . S
C1079 C1078 1.387 . S
H1080 C1092 0.930 . S
H1081 C1094 0.930 . S
H1082 C1095 0.930 . S
H1083 C1099 0.959 . S
H1084 C1099 0.959 . S
H1085 C1099 0.961 . S
H1086 C1100 0.960 . S
H1087 C1100 0.961 . S
H1088 C1100 0.959 . S
H1089 C1103 0.929 . S
H1090 C1104 0.931 . S
H1091 C1106 0.930 . S
C1092 H1080 0.930 . S
C1092 C1093 1.399 . S
C1092 C1097 1.399 . S
C1093 C1092 1.399 . S
C1093 C1094 1.376 . S
C1094 H1081 0.930 . S
C1094 C1093 1.376 . S
C1094 C1095 1.388 . S
C1095 H1082 0.930 . S
C1095 C1094 1.388 . S
C1095 C1096 1.390 . S
C1096 C1095 1.390 . S
C1096 C1097 1.394 . S
C1096 C1102 1.465 . S
C1097 C1092 1.399 . S
C1097 C1096 1.394 . S
C1097 C1098 1.516 . S
C1098 C1097 1.516 . S
C1098 C1099 1.502 . S
C1098 C1100 1.561 . S
C1098 C1101 1.526 . S
C1099 H1083 0.959 . S
C1099 H1084 0.959 . S
C1099 H1085 0.961 . S
C1099 C1098 1.502 . S
C1100 H1086 0.960 . S
C1100 H1087 0.961 . S
C1100 H1088 0.959 . S
C1100 C1098 1.561 . S
C1101 C1098 1.526 . S
C1101 C1102 1.396 . S
C1101 C1106 1.390 . S
C1102 C1096 1.465 . S
C1102 C1101 1.396 . S
C1102 C1103 1.399 . S
C1103 H1089 0.929 . S
C1103 C1102 1.399 . S
C1103 C1104 1.385 . S
C1104 H1090 0.931 . S
C1104 C1103 1.385 . S
C1104 C1105 1.389 . S
C1105 C1104 1.389 . S
C1105 C1106 1.387 . S
C1106 H1091 0.930 . S
C1106 C1101 1.390 . S
C1106 C1105 1.387 . S
H1107 C1119 0.930 . S
H1108 C1121 0.930 . S
H1109 C1122 0.930 . S
H1110 C1126 0.959 . S
H1111 C1126 0.959 . S
H1112 C1126 0.961 . S
H1113 C1127 0.960 . S
H1114 C1127 0.961 . S
H1115 C1127 0.959 . S
H1116 C1130 0.929 . S
H1117 C1131 0.931 . S
H1118 C1133 0.930 . S
C1119 H1107 0.930 . S
C1119 C1120 1.399 . S
C1119 C1124 1.399 . S
C1120 C1119 1.399 . S
C1120 C1121 1.376 . S
C1121 H1108 0.930 . S
C1121 C1120 1.376 . S
C1121 C1122 1.388 . S
C1122 H1109 0.930 . S
C1122 C1121 1.388 . S
C1122 C1123 1.390 . S
C1123 C1122 1.390 . S
C1123 C1124 1.394 . S
C1123 C1129 1.465 . S
C1124 C1119 1.399 . S
C1124 C1123 1.394 . S
C1124 C1125 1.516 . S
C1125 C1124 1.516 . S
C1125 C1126 1.502 . S
C1125 C1127 1.561 . S
C1125 C1128 1.526 . S
C1126 H1110 0.959 . S
C1126 H1111 0.959 . S
C1126 H1112 0.961 . S
C1126 C1125 1.502 . S
C1127 H1113 0.960 . S
C1127 H1114 0.961 . S
C1127 H1115 0.959 . S
C1127 C1125 1.561 . S
C1128 C1125 1.526 . S
C1128 C1129 1.396 . S
C1128 C1133 1.390 . S
C1129 C1123 1.465 . S
C1129 C1128 1.396 . S
C1129 C1130 1.399 . S
C1130 H1116 0.929 . S
C1130 C1129 1.399 . S
C1130 C1131 1.385 . S
C1131 H1117 0.931 . S
C1131 C1130 1.385 . S
C1131 C1132 1.389 . S
C1132 C1131 1.389 . S
C1132 C1133 1.387 . S
C1133 H1118 0.930 . S
C1133 C1128 1.390 . S
C1133 C1132 1.387 . S
H1134 C1146 0.930 . S
H1135 C1148 0.930 . S
H1136 C1149 0.930 . S
H1137 C1153 0.959 . S
H1138 C1153 0.959 . S
H1139 C1153 0.961 . S
H1140 C1154 0.960 . S
H1141 C1154 0.961 . S
H1142 C1154 0.959 . S
H1143 C1157 0.929 . S
H1144 C1158 0.931 . S
H1145 C1160 0.930 . S
C1146 H1134 0.930 . S
C1146 C1147 1.399 . S
C1146 C1151 1.399 . S
C1147 C1146 1.399 . S
C1147 C1148 1.376 . S
C1148 H1135 0.930 . S
C1148 C1147 1.376 . S
C1148 C1149 1.388 . S
C1149 H1136 0.930 . S
C1149 C1148 1.388 . S
C1149 C1150 1.390 . S
C1150 C1149 1.390 . S
C1150 C1151 1.394 . S
C1150 C1156 1.465 . S
C1151 C1146 1.399 . S
C1151 C1150 1.394 . S
C1151 C1152 1.516 . S
C1152 C1151 1.516 . S
C1152 C1153 1.502 . S
C1152 C1154 1.561 . S
C1152 C1155 1.526 . S
C1153 H1137 0.959 . S
C1153 H1138 0.959 . S
C1153 H1139 0.961 . S
C1153 C1152 1.502 . S
C1154 H1140 0.960 . S
C1154 H1141 0.961 . S
C1154 H1142 0.959 . S
C1154 C1152 1.561 . S
C1155 C1152 1.526 . S
C1155 C1156 1.396 . S
C1155 C1160 1.390 . S
C1156 C1150 1.465 . S
C1156 C1155 1.396 . S
C1156 C1157 1.399 . S
C1157 H1143 0.929 . S
C1157 C1156 1.399 . S
C1157 C1158 1.385 . S
C1158 H1144 0.931 . S
C1158 C1157 1.385 . S
C1158 C1159 1.389 . S
C1159 C1158 1.389 . S
C1159 C1160 1.387 . S
C1160 H1145 0.930 . S
C1160 C1155 1.390 . S
C1160 C1159 1.387 . S
H1161 C1173 0.930 . S
H1162 C1175 0.930 . S
H1163 C1176 0.930 . S
H1164 C1180 0.959 . S
H1165 C1180 0.959 . S
H1166 C1180 0.961 . S
H1167 C1181 0.960 1_565 S
H1168 C1181 0.961 . S
H1169 C1181 0.959 1_565 S
H1170 C1184 0.929 . S
H1171 C1185 0.931 . S
H1172 C1187 0.930 . S
C1173 H1161 0.930 . S
C1173 C1174 1.399 . S
C1173 C1178 1.399 . S
C1174 C1173 1.399 . S
C1174 C1175 1.376 . S
C1175 H1162 0.930 . S
C1175 C1174 1.376 . S
C1175 C1176 1.388 . S
C1176 H1163 0.930 . S
C1176 C1175 1.388 . S
C1176 C1177 1.390 . S
C1177 C1176 1.390 . S
C1177 C1178 1.394 . S
C1177 C1183 1.465 1_565 S
C1178 C1173 1.399 . S
C1178 C1177 1.394 . S
C1178 C1179 1.516 1_565 S
C1179 C1178 1.516 1_545 S
C1179 C1180 1.502 . S
C1179 C1181 1.561 . S
C1179 C1182 1.526 . S
C1180 H1164 0.959 . S
C1180 H1165 0.959 . S
C1180 H1166 0.961 . S
C1180 C1179 1.502 . S
C1181 H1167 0.960 1_545 S
C1181 H1168 0.961 . S
C1181 H1169 0.959 1_545 S
C1181 C1179 1.561 . S
C1182 C1179 1.526 . S
C1182 C1183 1.396 . S
C1182 C1187 1.390 . S
C1183 C1177 1.465 1_545 S
C1183 C1182 1.396 . S
C1183 C1184 1.399 . S
C1184 H1170 0.929 . S
C1184 C1183 1.399 . S
C1184 C1185 1.385 . S
C1185 H1171 0.931 . S
C1185 C1184 1.385 . S
C1185 C1186 1.389 . S
C1186 C1185 1.389 . S
C1186 C1187 1.387 . S
C1187 H1172 0.930 . S
C1187 C1182 1.390 . S
C1187 C1186 1.387 . S
H1188 C1200 0.930 . S
H1189 C1202 0.930 . S
H1190 C1203 0.930 . S
H1191 C1207 0.962 . S
H1192 C1207 0.956 1_455 S
H1193 C1207 0.964 . S
H1194 C1208 0.960 1_655 S
H1195 C1208 0.961 . S
H1196 C1208 0.959 . S
H1197 C1211 0.929 . S
H1198 C1212 0.931 . S
H1199 C1214 0.930 . S
C1200 H1188 0.930 . S
C1200 C1201 1.399 . S
C1200 C1205 1.399 . S
C1201 C1200 1.399 . S
C1201 C1202 1.376 . S
C1202 H1189 0.930 . S
C1202 C1201 1.376 . S
C1202 C1203 1.388 . S
C1203 H1190 0.930 . S
C1203 C1202 1.388 . S
C1203 C1204 1.390 . S
C1204 C1203 1.390 . S
C1204 C1205 1.394 . S
C1204 C1210 1.465 1_655 S
C1205 C1200 1.399 . S
C1205 C1204 1.394 . S
C1205 C1206 1.516 1_655 S
C1206 C1205 1.516 1_455 S
C1206 C1207 1.498 1_455 S
C1206 C1208 1.561 . S
C1206 C1209 1.526 . S
C1207 H1191 0.962 . S
C1207 H1192 0.956 1_655 S
C1207 H1193 0.964 . S
C1207 C1206 1.498 1_655 S
C1208 H1194 0.960 1_455 S
C1208 H1195 0.961 . S
C1208 H1196 0.959 . S
C1208 C1206 1.561 . S
C1209 C1206 1.526 . S
C1209 C1210 1.396 . S
C1209 C1214 1.390 . S
C1210 C1204 1.465 1_455 S
C1210 C1209 1.396 . S
C1210 C1211 1.399 . S
C1211 H1197 0.929 . S
C1211 C1210 1.399 . S
C1211 C1212 1.385 . S
C1212 H1198 0.931 . S
C1212 C1211 1.385 . S
C1212 C1213 1.389 . S
C1213 C1212 1.389 . S
C1213 C1214 1.387 . S
C1214 H1199 0.930 . S
C1214 C1209 1.390 . S
C1214 C1213 1.387 . S
H1215 C1227 0.930 . S
H1216 C1229 0.930 . S
H1217 C1230 0.930 . S
H1218 C1234 0.959 . S
H1219 C1234 0.959 . S
H1220 C1234 0.961 . S
H1221 C1235 0.960 . S
H1222 C1235 0.961 . S
H1223 C1235 0.959 . S
H1224 C1238 0.929 . S
H1225 C1239 0.931 . S
H1226 C1241 0.930 . S
C1227 H1215 0.930 . S
C1227 C1228 1.399 . S
C1227 C1232 1.399 . S
C1228 C1227 1.399 . S
C1228 C1229 1.376 . S
C1229 H1216 0.930 . S
C1229 C1228 1.376 . S
C1229 C1230 1.388 . S
C1230 H1217 0.930 . S
C1230 C1229 1.388 . S
C1230 C1231 1.390 . S
C1231 C1230 1.390 . S
C1231 C1232 1.394 . S
C1231 C1237 1.465 . S
C1232 C1227 1.399 . S
C1232 C1231 1.394 . S
C1232 C1233 1.516 . S
C1233 C1232 1.516 . S
C1233 C1234 1.502 . S
C1233 C1235 1.561 . S
C1233 C1236 1.526 . S
C1234 H1218 0.959 . S
C1234 H1219 0.959 . S
C1234 H1220 0.961 . S
C1234 C1233 1.502 . S
C1235 H1221 0.960 . S
C1235 H1222 0.961 . S
C1235 H1223 0.959 . S
C1235 C1233 1.561 . S
C1236 C1233 1.526 . S
C1236 C1237 1.396 . S
C1236 C1241 1.390 . S
C1237 C1231 1.465 . S
C1237 C1236 1.396 . S
C1237 C1238 1.399 . S
C1238 H1224 0.929 . S
C1238 C1237 1.399 . S
C1238 C1239 1.385 . S
C1239 H1225 0.931 . S
C1239 C1238 1.385 . S
C1239 C1240 1.389 . S
C1240 C1239 1.389 . S
C1240 C1241 1.387 . S
C1241 H1226 0.930 . S
C1241 C1236 1.390 . S
C1241 C1240 1.387 . S
H1242 C1254 0.930 . S
H1243 C1256 0.930 . S
H1244 C1257 0.930 . S
H1245 C1261 0.959 . S
H1246 C1261 0.959 . S
H1247 C1261 0.961 . S
H1248 C1262 0.960 . S
H1249 C1262 0.961 . S
H1250 C1262 0.959 . S
H1251 C1265 0.929 . S
H1252 C1266 0.931 . S
H1253 C1268 0.930 . S
C1254 H1242 0.930 . S
C1254 C1255 1.399 . S
C1254 C1259 1.399 . S
C1255 C1254 1.399 . S
C1255 C1256 1.376 . S
C1256 H1243 0.930 . S
C1256 C1255 1.376 . S
C1256 C1257 1.388 . S
C1257 H1244 0.930 . S
C1257 C1256 1.388 . S
C1257 C1258 1.390 . S
C1258 C1257 1.390 . S
C1258 C1259 1.394 . S
C1258 C1264 1.465 . S
C1259 C1254 1.399 . S
C1259 C1258 1.394 . S
C1259 C1260 1.516 . S
C1260 C1259 1.516 . S
C1260 C1261 1.502 . S
C1260 C1262 1.561 . S
C1260 C1263 1.526 . S
C1261 H1245 0.959 . S
C1261 H1246 0.959 . S
C1261 H1247 0.961 . S
C1261 C1260 1.502 . S
C1262 H1248 0.960 . S
C1262 H1249 0.961 . S
C1262 H1250 0.959 . S
C1262 C1260 1.561 . S
C1263 C1260 1.526 . S
C1263 C1264 1.396 . S
C1263 C1268 1.390 . S
C1264 C1258 1.465 . S
C1264 C1263 1.396 . S
C1264 C1265 1.399 . S
C1265 H1251 0.929 . S
C1265 C1264 1.399 . S
C1265 C1266 1.385 . S
C1266 H1252 0.931 . S
C1266 C1265 1.385 . S
C1266 C1267 1.389 . S
C1267 C1266 1.389 . S
C1267 C1268 1.387 . S
C1268 H1253 0.930 . S
C1268 C1263 1.390 . S
C1268 C1267 1.387 . S
H1269 C1281 0.930 . S
H1270 C1283 0.930 . S
H1271 C1284 0.930 . S
H1272 C1288 0.959 . S
H1273 C1288 0.959 . S
H1274 C1288 0.961 . S
H1275 C1289 0.960 . S
H1276 C1289 0.961 . S
H1277 C1289 0.959 . S
H1278 C1292 0.929 . S
H1279 C1293 0.931 . S
H1280 C1295 0.930 . S
C1281 H1269 0.930 . S
C1281 C1282 1.399 . S
C1281 C1286 1.399 . S
C1282 C1281 1.399 . S
C1282 C1283 1.376 . S
C1283 H1270 0.930 . S
C1283 C1282 1.376 . S
C1283 C1284 1.388 . S
C1284 H1271 0.930 . S
C1284 C1283 1.388 . S
C1284 C1285 1.390 . S
C1285 C1284 1.390 . S
C1285 C1286 1.394 . S
C1285 C1291 1.465 . S
C1286 C1281 1.399 . S
C1286 C1285 1.394 . S
C1286 C1287 1.516 . S
C1287 C1286 1.516 . S
C1287 C1288 1.502 . S
C1287 C1289 1.561 . S
C1287 C1290 1.526 . S
C1288 H1272 0.959 . S
C1288 H1273 0.959 . S
C1288 H1274 0.961 . S
C1288 C1287 1.502 . S
C1289 H1275 0.960 . S
C1289 H1276 0.961 . S
C1289 H1277 0.959 . S
C1289 C1287 1.561 . S
C1290 C1287 1.526 . S
C1290 C1291 1.396 . S
C1290 C1295 1.390 . S
C1291 C1285 1.465 . S
C1291 C1290 1.396 . S
C1291 C1292 1.399 . S
C1292 H1278 0.929 . S
C1292 C1291 1.399 . S
C1292 C1293 1.385 . S
C1293 H1279 0.931 . S
C1293 C1292 1.385 . S
C1293 C1294 1.389 . S
C1294 C1293 1.389 . S
C1294 C1295 1.387 . S
C1295 H1280 0.930 . S
C1295 C1290 1.390 . S
C1295 C1294 1.387 . S
H1296 C1308 0.930 . S
H1297 C1310 0.930 . S
H1298 C1311 0.930 . S
H1299 C1315 0.959 . S
H1300 C1315 0.959 . S
H1301 C1315 0.961 . S
H1302 C1316 0.960 1_545 S
H1303 C1316 0.961 . S
H1304 C1316 0.959 . S
H1305 C1319 0.929 . S
H1306 C1320 0.931 . S
H1307 C1322 0.930 . S
C1308 H1296 0.930 . S
C1308 C1309 1.399 . S
C1308 C1313 1.399 . S
C1309 C1308 1.399 . S
C1309 C1310 1.376 . S
C1310 H1297 0.930 . S
C1310 C1309 1.376 . S
C1310 C1311 1.388 . S
C1311 H1298 0.930 . S
C1311 C1310 1.388 . S
C1311 C1312 1.390 . S
C1312 C1311 1.390 . S
C1312 C1313 1.394 . S
C1312 C1318 1.465 . S
C1313 C1308 1.399 . S
C1313 C1312 1.394 . S
C1313 C1314 1.516 . S
C1314 C1313 1.516 . S
C1314 C1315 1.502 . S
C1314 C1316 1.561 . S
C1314 C1317 1.526 . S
C1315 H1299 0.959 . S
C1315 H1300 0.959 . S
C1315 H1301 0.961 . S
C1315 C1314 1.502 . S
C1316 H1302 0.960 1_565 S
C1316 H1303 0.961 . S
C1316 H1304 0.959 . S
C1316 C1314 1.561 . S
C1317 C1314 1.526 . S
C1317 C1318 1.396 . S
C1317 C1322 1.390 . S
C1318 C1312 1.465 . S
C1318 C1317 1.396 . S
C1318 C1319 1.399 . S
C1319 H1305 0.929 . S
C1319 C1318 1.399 . S
C1319 C1320 1.385 . S
C1320 H1306 0.931 . S
C1320 C1319 1.385 . S
C1320 C1321 1.389 . S
C1321 C1320 1.389 . S
C1321 C1322 1.387 . S
C1322 H1307 0.930 . S
C1322 C1317 1.390 . S
C1322 C1321 1.387 . S
H1323 C1335 0.930 . S
H1324 C1337 0.930 . S
H1325 C1338 0.930 . S
H1326 C1342 0.959 . S
H1327 C1342 0.959 . S
H1328 C1342 0.961 . S
H1329 C1343 0.960 . S
H1330 C1343 0.961 . S
H1331 C1343 0.959 . S
H1332 C1346 0.929 . S
H1333 C1347 0.931 . S
H1334 C1349 0.930 . S
C1335 H1323 0.930 . S
C1335 C1336 1.399 . S
C1335 C1340 1.399 . S
C1336 C1335 1.399 . S
C1336 C1337 1.376 . S
C1337 H1324 0.930 . S
C1337 C1336 1.376 . S
C1337 C1338 1.388 . S
C1338 H1325 0.930 . S
C1338 C1337 1.388 . S
C1338 C1339 1.390 . S
C1339 C1338 1.390 . S
C1339 C1340 1.394 . S
C1339 C1345 1.465 . S
C1340 C1335 1.399 . S
C1340 C1339 1.394 . S
C1340 C1341 1.516 . S
C1341 C1340 1.516 . S
C1341 C1342 1.502 . S
C1341 C1343 1.561 . S
C1341 C1344 1.526 . S
C1342 H1326 0.959 . S
C1342 H1327 0.959 . S
C1342 H1328 0.961 . S
C1342 C1341 1.502 . S
C1343 H1329 0.960 . S
C1343 H1330 0.961 . S
C1343 H1331 0.959 . S
C1343 C1341 1.561 . S
C1344 C1341 1.526 . S
C1344 C1345 1.396 . S
C1344 C1349 1.390 . S
C1345 C1339 1.465 . S
C1345 C1344 1.396 . S
C1345 C1346 1.399 . S
C1346 H1332 0.929 . S
C1346 C1345 1.399 . S
C1346 C1347 1.385 . S
C1347 H1333 0.931 . S
C1347 C1346 1.385 . S
C1347 C1348 1.389 . S
C1348 C1347 1.389 . S
C1348 C1349 1.387 . S
C1349 H1334 0.930 . S
C1349 C1344 1.390 . S
C1349 C1348 1.387 . S
H1350 C1362 0.930 . S
H1351 C1364 0.930 . S
H1352 C1365 0.930 . S
H1353 C1369 0.959 . S
H1354 C1369 0.959 . S
H1355 C1369 0.961 . S
H1356 C1370 0.960 . S
H1357 C1370 0.961 . S
H1358 C1370 0.959 . S
H1359 C1373 0.929 . S
H1360 C1374 0.931 . S
H1361 C1376 0.930 . S
C1362 H1350 0.930 . S
C1362 C1363 1.399 . S
C1362 C1367 1.399 . S
C1363 C1362 1.399 . S
C1363 C1364 1.376 . S
C1364 H1351 0.930 . S
C1364 C1363 1.376 . S
C1364 C1365 1.388 . S
C1365 H1352 0.930 . S
C1365 C1364 1.388 . S
C1365 C1366 1.390 . S
C1366 C1365 1.390 . S
C1366 C1367 1.394 . S
C1366 C1372 1.465 . S
C1367 C1362 1.399 . S
C1367 C1366 1.394 . S
C1367 C1368 1.516 . S
C1368 C1367 1.516 . S
C1368 C1369 1.502 . S
C1368 C1370 1.561 . S
C1368 C1371 1.526 . S
C1369 H1353 0.959 . S
C1369 H1354 0.959 . S
C1369 H1355 0.961 . S
C1369 C1368 1.502 . S
C1370 H1356 0.960 . S
C1370 H1357 0.961 . S
C1370 H1358 0.959 . S
C1370 C1368 1.561 . S
C1371 C1368 1.526 . S
C1371 C1372 1.396 . S
C1371 C1376 1.390 . S
C1372 C1366 1.465 . S
C1372 C1371 1.396 . S
C1372 C1373 1.399 . S
C1373 H1359 0.929 . S
C1373 C1372 1.399 . S
C1373 C1374 1.385 . S
C1374 H1360 0.931 . S
C1374 C1373 1.385 . S
C1374 C1375 1.389 . S
C1375 C1374 1.389 . S
C1375 C1376 1.387 . S
C1376 H1361 0.930 . S
C1376 C1371 1.390 . S
C1376 C1375 1.387 . S
H1377 C1389 0.930 . S
H1378 C1391 0.930 . S
H1379 C1392 0.930 . S
H1380 C1396 0.959 . S
H1381 C1396 0.959 . S
H1382 C1396 0.961 . S
H1383 C1397 0.960 . S
H1384 C1397 0.961 . S
H1385 C1397 0.959 . S
H1386 C1400 0.929 . S
H1387 C1401 0.931 . S
H1388 C1403 0.930 . S
C1389 H1377 0.930 . S
C1389 C1390 1.399 . S
C1389 C1394 1.399 . S
C1390 C1389 1.399 . S
C1390 C1391 1.376 . S
C1391 H1378 0.930 . S
C1391 C1390 1.376 . S
C1391 C1392 1.388 . S
C1392 H1379 0.930 . S
C1392 C1391 1.388 . S
C1392 C1393 1.390 . S
C1393 C1392 1.390 . S
C1393 C1394 1.394 . S
C1393 C1399 1.465 . S
C1394 C1389 1.399 . S
C1394 C1393 1.394 . S
C1394 C1395 1.516 . S
C1395 C1394 1.516 . S
C1395 C1396 1.502 . S
C1395 C1397 1.561 . S
C1395 C1398 1.526 . S
C1396 H1380 0.959 . S
C1396 H1381 0.959 . S
C1396 H1382 0.961 . S
C1396 C1395 1.502 . S
C1397 H1383 0.960 . S
C1397 H1384 0.961 . S
C1397 H1385 0.959 . S
C1397 C1395 1.561 . S
C1398 C1395 1.526 . S
C1398 C1399 1.396 . S
C1398 C1403 1.390 . S
C1399 C1393 1.465 . S
C1399 C1398 1.396 . S
C1399 C1400 1.399 . S
C1400 H1386 0.929 . S
C1400 C1399 1.399 . S
C1400 C1401 1.385 . S
C1401 H1387 0.931 . S
C1401 C1400 1.385 . S
C1401 C1402 1.389 . S
C1402 C1401 1.389 . S
C1402 C1403 1.387 . S
C1403 H1388 0.930 . S
C1403 C1398 1.390 . S
C1403 C1402 1.387 . S
H1404 C1416 0.930 . S
H1405 C1418 0.930 . S
H1406 C1419 0.930 . S
H1407 C1423 0.959 . S
H1408 C1423 0.959 . S
H1409 C1423 0.961 . S
H1410 C1424 0.960 . S
H1411 C1424 0.961 . S
H1412 C1424 0.959 . S
H1413 C1427 0.929 . S
H1414 C1428 0.931 . S
H1415 C1430 0.930 . S
C1416 H1404 0.930 . S
C1416 C1417 1.399 . S
C1416 C1421 1.399 . S
C1417 C1416 1.399 . S
C1417 C1418 1.376 . S
C1418 H1405 0.930 . S
C1418 C1417 1.376 . S
C1418 C1419 1.388 . S
C1419 H1406 0.930 . S
C1419 C1418 1.388 . S
C1419 C1420 1.390 . S
C1420 C1419 1.390 . S
C1420 C1421 1.394 . S
C1420 C1426 1.465 . S
C1421 C1416 1.399 . S
C1421 C1420 1.394 . S
C1421 C1422 1.516 . S
C1422 C1421 1.516 . S
C1422 C1423 1.502 . S
C1422 C1424 1.561 . S
C1422 C1425 1.526 . S
C1423 H1407 0.959 . S
C1423 H1408 0.959 . S
C1423 H1409 0.961 . S
C1423 C1422 1.502 . S
C1424 H1410 0.960 . S
C1424 H1411 0.961 . S
C1424 H1412 0.959 . S
C1424 C1422 1.561 . S
C1425 C1422 1.526 . S
C1425 C1426 1.396 . S
C1425 C1430 1.390 . S
C1426 C1420 1.465 . S
C1426 C1425 1.396 . S
C1426 C1427 1.399 . S
C1427 H1413 0.929 . S
C1427 C1426 1.399 . S
C1427 C1428 1.385 . S
C1428 H1414 0.931 . S
C1428 C1427 1.385 . S
C1428 C1429 1.389 . S
C1429 C1428 1.389 . S
C1429 C1430 1.387 . S
C1430 H1415 0.930 . S
C1430 C1425 1.390 . S
C1430 C1429 1.387 . S
H1431 C1443 0.930 . S
H1432 C1445 0.930 . S
H1433 C1446 0.930 . S
H1434 C1450 0.959 . S
H1435 C1450 0.959 . S
H1436 C1450 0.961 . S
H1437 C1451 0.960 . S
H1438 C1451 0.961 . S
H1439 C1451 0.959 . S
H1440 C1454 0.913 1_565 S
H1441 C1455 0.931 . S
H1442 C1457 0.930 . S
C1443 H1431 0.930 . S
C1443 C1444 1.399 . S
C1443 C1448 1.399 . S
C1444 C1443 1.399 . S
C1444 C1445 1.376 . S
C1445 H1432 0.930 . S
C1445 C1444 1.376 . S
C1445 C1446 1.388 . S
C1446 H1433 0.930 . S
C1446 C1445 1.388 . S
C1446 C1447 1.390 . S
C1447 C1446 1.390 . S
C1447 C1448 1.394 . S
C1447 C1453 1.465 1_565 S
C1448 C1443 1.399 . S
C1448 C1447 1.394 . S
C1448 C1449 1.516 1_565 S
C1449 C1448 1.516 1_545 S
C1449 C1450 1.502 . S
C1449 C1451 1.561 . S
C1449 C1452 1.526 . S
C1450 H1434 0.959 . S
C1450 H1435 0.959 . S
C1450 H1436 0.961 . S
C1450 C1449 1.502 . S
C1451 H1437 0.960 . S
C1451 H1438 0.961 . S
C1451 H1439 0.959 . S
C1451 C1449 1.561 . S
C1452 C1449 1.526 . S
C1452 C1453 1.396 . S
C1452 C1457 1.390 . S
C1453 C1447 1.465 1_545 S
C1453 C1452 1.396 . S
C1453 C1454 1.397 . S
C1454 H1440 0.913 1_545 S
C1454 C1453 1.397 . S
C1454 C1455 1.405 . S
C1455 H1441 0.931 . S
C1455 C1454 1.405 . S
C1455 C1456 1.389 . S
C1456 C1455 1.389 . S
C1456 C1457 1.387 . S
C1457 H1442 0.930 . S
C1457 C1452 1.390 . S
C1457 C1456 1.387 . S
H1458 C1470 0.930 . S
H1459 C1472 0.930 . S
H1460 C1473 0.930 . S
H1461 C1477 0.959 . S
H1462 C1477 0.959 . S
H1463 C1477 0.961 . S
H1464 C1478 0.960 . S
H1465 C1478 0.961 . S
H1466 C1478 0.959 . S
H1467 C1481 0.929 . S
H1468 C1482 0.931 . S
H1469 C1484 0.930 . S
C1470 H1458 0.930 . S
C1470 C1471 1.399 . S
C1470 C1475 1.399 . S
C1471 C1470 1.399 . S
C1471 C1472 1.376 . S
C1472 H1459 0.930 . S
C1472 C1471 1.376 . S
C1472 C1473 1.388 . S
C1473 H1460 0.930 . S
C1473 C1472 1.388 . S
C1473 C1474 1.390 . S
C1474 C1473 1.390 . S
C1474 C1475 1.394 . S
C1474 C1480 1.465 1_655 S
C1475 C1470 1.399 . S
C1475 C1474 1.394 . S
C1475 C1476 1.516 1_655 S
C1476 C1475 1.516 1_455 S
C1476 C1477 1.502 . S
C1476 C1478 1.561 . S
C1476 C1479 1.526 . S
C1477 H1461 0.959 . S
C1477 H1462 0.959 . S
C1477 H1463 0.961 . S
C1477 C1476 1.502 . S
C1478 H1464 0.960 . S
C1478 H1465 0.961 . S
C1478 H1466 0.959 . S
C1478 C1476 1.561 . S
C1479 C1476 1.526 . S
C1479 C1480 1.396 . S
C1479 C1484 1.390 . S
C1480 C1474 1.465 1_455 S
C1480 C1479 1.396 . S
C1480 C1481 1.399 . S
C1481 H1467 0.929 . S
C1481 C1480 1.399 . S
C1481 C1482 1.385 . S
C1482 H1468 0.931 . S
C1482 C1481 1.385 . S
C1482 C1483 1.389 . S
C1483 C1482 1.389 . S
C1483 C1484 1.387 . S
C1484 H1469 0.930 . S
C1484 C1479 1.390 . S
C1484 C1483 1.387 . S
C769 C142 1.165 . S
C781 C56 1.384 1_554 S
C796 C226 1.160 . S
C808 C140 1.386 1_554 S
C823 C224 1.395 1_554 S
C835 C58 1.131 . S
C850 C238 1.142 . S
C862 C151 1.345 . S
C877 C235 1.347 1_556 S
C889 C70 1.245 . S
C904 C67 1.356 . S
C916 C154 1.203 . S
C931 C308 1.327 . S
C943 C394 1.114 . S
C958 C478 1.206 . S
C970 C392 1.363 . S
C985 C476 1.293 . S
C997 C310 1.255 . S
C1012 C403 1.351 . S
C1024 C490 1.235 . S
C1039 C487 1.304 . S
C1051 C322 1.117 . S
C1066 C406 1.095 . S
C1078 C319 1.314 . S
C1093 C646 1.225 . S
C1105 C560 1.278 . S
C1120 C644 1.304 . S
C1132 C730 1.255 . S
C1147 C728 1.315 . S
C1159 C562 1.252 . S
C1174 C742 1.096 . S
C1186 C655 1.325 . S
C1201 C739 1.353 . S
C1213 C574 1.225 . S
C1228 C571 1.306 . S
C1240 C658 1.106 . S
C1255 C494 2.556 . S
C1267 C63 2.644 . S
C1282 C326 2.524 . S
C1294 C147 2.617 . S
C1309 C231 2.608 . S
C1321 C410 2.576 . S
C1336 C242 2.586 . S
C1348 C567 2.629 . S
C1363 C74 2.584 . S
C1375 C651 2.621 . S
C1390 C735 2.618 . S
C1402 C158 2.525 . S
C1417 C315 2.596 . S
C1429 C746 2.538 . S
C1444 C399 2.643 . S
C1456 C578 2.551 . S
C1471 C662 2.583 . S
C1483 C483 2.637 . S
