# Generated by pormake.
# Topology bsn, (6)-cn, num edge types: 1
# Building blocks:
#     Node 0, Type 0, BuildingBlock: PAMTOO_clean_sbu_0, # of connection points: 6
#     Node 1, Type 0, BuildingBlock: PAMTOO_clean_sbu_0, # of connection points: 6
#     Node 2, Type 0, BuildingBlock: PAMTOO_clean_sbu_0, # of connection points: 6
#     Node 3, Type 0, BuildingBlock: PAMTOO_clean_sbu_0, # of connection points: 6
#     Edge 4, Type (0, 0), BuildingBlock: XUDNAN_clean_linker_2, # of connection points: 2
#     Edge 5, Type (0, 0), BuildingBlock: XUDNAN_clean_linker_2, # of connection points: 2
#     Edge 6, Type (0, 0), BuildingBlock: XUDNAN_clean_linker_2, # of connection points: 2
#     Edge 7, Type (0, 0), BuildingBlock: XUDNAN_clean_linker_2, # of connection points: 2
#     Edge 8, Type (0, 0), BuildingBlock: XUDNAN_clean_linker_2, # of connection points: 2
#     Edge 9, Type (0, 0), BuildingBlock: XUDNAN_clean_linker_2, # of connection points: 2
#     Edge 10, Type (0, 0), BuildingBlock: XUDNAN_clean_linker_2, # of connection points: 2
#     Edge 11, Type (0, 0), BuildingBlock: XUDNAN_clean_linker_2, # of connection points: 2
#     Edge 12, Type (0, 0), BuildingBlock: XUDNAN_clean_linker_2, # of connection points: 2
#     Edge 13, Type (0, 0), BuildingBlock: XUDNAN_clean_linker_2, # of connection points: 2
#     Edge 14, Type (0, 0), BuildingBlock: XUDNAN_clean_linker_2, # of connection points: 2
#     Edge 15, Type (0, 0), BuildingBlock: XUDNAN_clean_linker_2, # of connection points: 2
# Relax obj value: 0.035
# Max RMSD: 0.147
# Mean RMSD: 0.147
data_MOF--net-bsn--node1-PAMTOO_clean_sbu_0--edge1-XUDNAN_clean_linker_2
_symmetry_space_group_name_H-M    P1
_symmetry_Int_Tables_number       1
_symmetry_cell_setting            triclinic
loop_
_symmetry_equiv_pos_as_xyz
'x, y, z'
_cell_length_a     51.157388
_cell_length_b     29.21803
_cell_length_c     14.336583
_cell_angle_alpha  83.671986
_cell_angle_beta   97.908385
_cell_angle_gamma 117.50657
loop_
_atom_site_label
_atom_site_type_symbol
_atom_site_fract_x
_atom_site_fract_y
_atom_site_fract_z
_atom_type_partial_charge
Dy0 Dy 0.13499 0.2917 0.38949 0.0
Dy1 Dy 0.0611 0.25286 0.39522 0.0
C2 C 0.08506 0.23073 0.21904 0.0
O3 O 0.12547 0.3602 0.38393 0.0
O4 O 0.08108 0.32139 0.2972 0.0
O5 O 0.17441 0.33429 0.31641 0.0
O6 O 0.1772 0.2975 0.45442 0.0
O7 O 0.08933 0.30058 0.5135 0.0
O8 O 0.12617 0.27726 0.54002 0.0
O9 O 0.07105 0.1913 0.47359 0.0
O10 O 0.11259 0.20516 0.40438 0.0
O11 O 1.03056 0.27764 0.43513 0.0
O12 O 1.01407 0.20082 0.38502 0.0
C13 C 0.10309 0.36341 0.33103 0.0
O14 O 0.11285 0.26007 0.25011 0.0
O15 O 0.06223 0.22097 0.26423 0.0
C16 C 0.21076 0.30318 0.34908 0.0
C17 C 0.24948 0.26856 0.29202 0.0
C18 C 0.2234 0.26242 0.23488 0.0
C19 C 0.20425 0.27937 0.26313 0.0
C20 C 0.23676 0.30967 0.4059 0.0
C21 C 0.25587 0.29258 0.37791 0.0
C22 C 0.1911 0.32194 0.38085 0.0
C23 C 0.10626 0.286 0.57188 0.0
C24 C 0.09003 0.17578 0.45373 0.0
C25 C 0.98075 0.23905 0.36498 0.0
C26 C 0.92662 0.23997 0.29064 0.0
C27 C 0.94312 0.26759 0.37037 0.0
C28 C 0.96977 0.26701 0.40705 0.0
C29 C 0.96483 0.21256 0.28369 0.0
C30 C 0.93808 0.21308 0.2469 0.0
C31 C 1.00724 0.23477 0.41258 0.0
H32 H 0.21784 0.24487 0.16764 0.0
H33 H 0.18438 0.27386 0.21765 0.0
H34 H 0.24228 0.32785 0.47255 0.0
H35 H 0.27538 0.29739 0.42463 0.0
H36 H 0.9349 0.28811 0.40685 0.0
H37 H 0.98142 0.28731 0.47038 0.0
H38 H 0.97268 0.1906 0.24959 0.0
H39 H 0.92621 0.19195 0.18463 0.0
Dy40 Dy 0.11498 0.76559 0.56583 0.0
Dy41 Dy 0.04071 0.71204 0.57079 0.0
C42 C 0.07003 0.76628 0.3837 0.0
O43 O 0.10316 0.83084 0.54519 0.0
O44 O 0.06107 0.79195 0.62271 0.0
O45 O 0.15301 0.77175 0.50518 0.0
O46 O 0.15915 0.81796 0.62212 0.0
O47 O 0.06138 0.6802 0.68796 0.0
O48 O 0.10387 0.75342 0.71383 0.0
O49 O 0.0501 0.65738 0.49875 0.0
O50 O 0.09776 0.68004 0.56604 0.0
O51 O 1.00579 0.68776 0.66168 0.0
O52 O 0.99475 0.67669 0.51192 0.0
C53 C 0.08262 0.83348 0.58707 0.0
O54 O 0.09464 0.76398 0.41809 0.0
O55 O 0.04888 0.75815 0.43534 0.0
C56 C 0.19747 0.79445 0.60775 0.0
C57 C 0.25001 0.78704 0.67834 0.0
C58 C 0.23844 0.77755 0.58373 0.0
C59 C 0.21256 0.78143 0.54884 0.0
C60 C 0.2085 0.80244 0.7031 0.0
C61 C 0.23445 0.79873 0.73794 0.0
C62 C 0.17199 0.80379 0.56657 0.0
C63 C 0.08188 0.71198 0.74656 0.0
C64 C 0.07349 0.64865 0.51664 0.0
C65 C 0.96208 0.69328 0.59286 0.0
C66 C 0.91681 0.72368 0.59682 0.0
C67 C 0.93428 0.72067 0.67986 0.0
C68 C 0.95653 0.70555 0.67795 0.0
C69 C 0.94457 0.69608 0.50986 0.0
C70 C 0.92231 0.71119 0.51177 0.0
C71 C 0.9848 0.67482 0.59221 0.0
H72 H 0.24999 0.76906 0.53556 0.0
H73 H 0.20478 0.77563 0.47483 0.0
H74 H 0.1975 0.81264 0.75051 0.0
H75 H 0.24251 0.80557 0.8115 0.0
H76 H 0.93099 0.73046 0.74651 0.0
H77 H 0.96929 0.70324 0.74356 0.0
H78 H 0.94783 0.68607 0.44333 0.0
H79 H 0.90904 0.71215 0.44659 0.0
Dy80 Dy 0.63481 0.79581 0.84903 0.0
Dy81 Dy 0.5601 0.74244 0.8562 0.0
C82 C 0.59101 0.7975 0.67651 0.0
O83 O 0.62633 0.86299 0.87527 0.0
O84 O 0.57595 0.82217 0.89658 0.0
O85 O 0.67345 0.84387 0.77475 0.0
O86 O 0.67746 0.80076 0.90457 0.0
O87 O 0.58134 0.73368 9e-05 0.0
O88 O 0.62773 0.80239 -0.00718 0.0
O89 O 0.57175 0.68538 0.80742 0.0
O90 O 0.61794 0.71122 0.88503 0.0
O91 O 0.52165 0.7138 0.93325 0.0
O92 O 0.51619 0.70395 0.78313 0.0
C93 C 0.60202 0.86292 0.89825 0.0
O94 O 0.61023 0.78012 0.70745 0.0
O95 O 0.5715 0.79523 0.72893 0.0
C96 C 0.71193 0.8171 0.79463 0.0
C97 C 0.7551 0.79806 0.72434 0.0
C98 C 0.7312 0.79932 0.6639 0.0
C99 C 0.70984 0.8087 0.6986 0.0
C100 C 0.73549 0.81514 0.85512 0.0
C101 C 0.75674 0.80564 0.82062 0.0
C102 C 0.69085 0.83011 0.83344 0.0
C103 C 0.60567 0.77034 0.0404 0.0
C104 C 0.59258 0.67463 0.85132 0.0
C105 C 0.47905 0.71617 0.84556 0.0
C106 C 0.4319 0.74334 0.82381 0.0
C107 C 0.4492 0.74775 0.9108 0.0
C108 C 0.47242 0.73428 0.9216 0.0
C109 C 0.46164 0.71133 0.75878 0.0
C110 C 0.43842 0.72488 0.74794 0.0
C111 C 0.50304 0.70012 0.85756 0.0
H112 H 0.72896 0.79301 0.58958 0.0
H113 H 0.69191 0.80981 0.65013 0.0
H114 H 0.73775 0.82183 0.92932 0.0
H115 H 0.77496 0.8057 0.86914 0.0
H116 H 0.44452 0.76087 0.97133 0.0
H117 H 0.485 0.73773 -0.01005 0.0
H118 H 0.46592 0.69692 0.69909 0.0
H119 H 0.42578 0.72141 0.67969 0.0
Dy120 Dy 0.61611 0.27903 0.09275 0.0
Dy121 Dy 0.54083 0.21065 0.10087 0.0
C122 C 0.57213 0.23678 0.915 0.0
O123 O 0.60053 0.33628 0.11787 0.0
O124 O 0.55158 0.29214 0.05852 0.0
O125 O 0.65425 0.30919 0.0142 0.0
O126 O 0.66002 0.32359 0.16256 0.0
O127 O 0.5641 0.23825 0.24046 0.0
O128 O 0.60671 0.2334 0.22782 0.0
O129 O 0.55765 0.15101 0.11697 0.0
O130 O 0.6043 0.19828 0.063 0.0
O131 O 0.50306 0.16735 0.18171 0.0
O132 O 0.49637 0.18481 0.03207 0.0
C133 C 0.57494 0.33495 0.08384 0.0
O134 O 0.59205 0.27968 0.95244 0.0
O135 O 0.55148 0.20065 0.96283 0.0
C136 C 0.69721 0.30999 0.10444 0.0
C137 C 0.74384 0.28118 0.13546 0.0
C138 C 0.72086 0.26026 0.0626 0.0
C139 C 0.69783 0.2743 0.04749 0.0
C140 C 0.72018 0.33123 0.17674 0.0
C141 C 0.74315 0.31692 0.1923 0.0
C142 C 0.67305 0.32565 0.08883 0.0
C143 C 0.586 0.22856 0.2776 0.0
C144 C 0.58189 0.15435 0.08716 0.0
C145 C 0.45935 0.17752 0.12504 0.0
C146 C 0.40935 0.19121 0.15196 0.0
C147 C 0.43318 0.20304 0.22293 0.0
C148 C 0.45787 0.1961 0.20979 0.0
C149 C 0.43596 0.16714 0.05352 0.0
C150 C 0.41141 0.17401 0.06656 0.0
C151 C 0.48391 0.16594 0.11022 0.0
H152 H 0.72077 0.23334 0.01619 0.0
H153 H 0.68056 0.25718 -0.00911 0.0
H154 H 0.72029 0.35881 0.22168 0.0
H155 H 0.76013 0.33336 0.24992 0.0
H156 H 0.43233 0.21608 0.28977 0.0
H157 H 0.4755 0.20443 0.26651 0.0
H158 H 0.43643 0.15282 -0.0125 0.0
H159 H 0.39386 0.16543 0.00953 0.0
H160 H 0.13335 0.44704 0.44287 0.0
H161 H 0.06001 0.38223 0.22599 0.0
H162 H 0.04501 0.44885 0.24831 0.0
H163 H 0.09542 0.47412 0.59578 0.0
H164 H 0.12583 0.53428 0.63316 0.0
H165 H 0.13305 0.48507 0.59419 0.0
H166 H 0.16511 0.54982 0.46851 0.0
H167 H 0.15843 0.59956 0.50821 0.0
H168 H 0.14971 0.58426 0.38586 0.0
H169 H 0.03483 0.51675 0.30481 0.0
H170 H 0.03327 0.58721 0.38065 0.0
H171 H 0.11354 0.60918 0.55929 0.0
C172 C 0.11466 0.44774 0.39813 0.0
C173 C 0.09795 0.40936 0.33238 0.0
C174 C 0.07326 0.4112 0.27662 0.0
C175 C 0.06448 0.44885 0.28895 0.0
C176 C 0.08071 0.48483 0.35681 0.0
C177 C 0.10558 0.48522 0.40942 0.0
C178 C 0.1184 0.52705 0.48016 0.0
C179 C 0.11815 0.50371 0.58182 0.0
C180 C 0.14977 0.56758 0.45941 0.0
C181 C 0.09656 0.5494 0.4601 0.0
C182 C 0.07497 0.52441 0.38881 0.0
C183 C 0.05181 0.53701 0.36004 0.0
C184 C 0.05099 0.57685 0.4041 0.0
C185 C 0.07325 0.60384 0.47601 0.0
C186 C 0.09622 0.58953 0.50436 0.0
H187 H 0.78399 0.74129 0.80593 0.0
H188 H 0.78039 0.83907 0.55853 0.0
H189 H 0.82057 0.8298 0.49853 0.0
H190 H 0.86301 0.79068 0.83573 0.0
H191 H 0.86199 0.7289 0.87241 0.0
H192 H 0.8323 0.74183 0.89479 0.0
H193 H 0.79432 0.6608 0.8067 0.0
H194 H 0.82389 0.64754 0.78428 0.0
H195 H 0.79912 0.65411 0.68754 0.0
H196 H 0.86234 0.81197 0.46723 0.0
H197 H 0.90166 0.78563 0.46559 0.0
H198 H 0.87807 0.69887 0.73273 0.0
C199 C 0.79167 0.76092 0.73923 0.0
C200 C 0.77879 0.79082 0.68692 0.0
C201 C 0.78943 0.81528 0.5994 0.0
C202 C 0.81244 0.81054 0.56495 0.0
C203 C 0.8247 0.78109 0.61853 0.0
C204 C 0.81462 0.75653 0.70365 0.0
C205 C 0.83169 0.72731 0.74756 0.0
C206 C 0.84823 0.74846 0.84329 0.0
C207 C 0.81102 0.66898 0.75705 0.0
C208 C 0.8531 0.73963 0.67422 0.0
C209 C 0.84866 0.77065 0.60031 0.0
C210 C 0.86585 0.78738 0.52448 0.0
C211 C 0.88807 0.77191 0.52394 0.0
C212 C 0.89305 0.73987 0.59869 0.0
C213 C 0.87519 0.72374 0.6748 0.0
H214 H 0.62002 0.43455 0.06955 0.0
H215 H 0.52418 0.34463 0.04621 0.0
H216 H 0.519 0.42181 -0.01749 0.0
H217 H 0.62138 0.55483 0.13653 0.0
H218 H 0.6522 0.5957 0.06986 0.0
H219 H 0.64855 0.53404 0.12055 0.0
H220 H 0.65075 0.50851 0.95545 0.0
H221 H 0.65377 0.56961 0.9039 0.0
H222 H 0.62446 0.5102 0.85923 0.0
H223 H 0.52358 0.50412 0.90588 0.0
H224 H 0.53754 0.59306 0.843 0.0
H225 H 0.63044 0.63298 0.92103 0.0
C226 C 0.59798 0.43146 0.05324 0.0
C227 C 0.57252 0.38346 0.06221 0.0
C228 C 0.54403 0.38085 0.03918 0.0
C229 C 0.54081 0.42445 0.00278 0.0
C230 C 0.56626 0.47053 -0.00919 0.0
C231 C 0.5943 0.47489 0.01711 0.0
C232 C 0.61785 0.52926 -0.00491 0.0
C233 C 0.63606 0.55498 0.08593 0.0
C234 C 0.63788 0.52936 0.92421 0.0
C235 C 0.59854 0.55425 0.95117 0.0
C236 C 0.56889 0.51932 0.94875 0.0
C237 C 0.54669 0.53218 0.90841 0.0
C238 C 0.55492 0.58275 0.87205 0.0
C239 C 0.5851 0.62005 0.87727 0.0
C240 C 0.6072 0.60534 0.91635 0.0
H241 H 0.90944 0.31753 0.27917 0.0
H242 H 0.87619 0.15547 0.22747 0.0
H243 H 0.82643 0.1489 0.17963 0.0
H244 H 0.8456 0.3035 0.3788 0.0
H245 H 0.8473 0.36364 0.32621 0.0
H246 H 0.8807 0.35642 0.35248 0.0
H247 H 0.8921 0.38172 0.17839 0.0
H248 H 0.85881 0.38927 0.15167 0.0
H249 H 0.86473 0.34638 0.08563 0.0
H250 H 0.77958 0.15876 0.14456 0.0
H251 H 0.73965 0.18496 0.11936 0.0
H252 H 0.80332 0.34114 0.19114 0.0
C253 C 0.89173 0.28061 0.2578 0.0
C254 C 0.89693 0.23705 0.25682 0.0
C255 C 0.87305 0.18966 0.2274 0.0
C256 C 0.84458 0.18542 0.20074 0.0
C257 C 0.84021 0.22892 0.20353 0.0
C258 C 0.86315 0.2757 0.23081 0.0
C259 C 0.85243 0.31639 0.22853 0.0
C260 C 0.85677 0.33614 0.32739 0.0
C261 C 0.86794 0.36108 0.15677 0.0
C262 C 0.81985 0.28509 0.19631 0.0
C263 C 0.81327 0.23472 0.1824 0.0
C264 C 0.78456 0.19827 0.15429 0.0
C265 C 0.762 0.2137 0.13952 0.0
C266 C 0.76815 0.26534 0.15232 0.0
C267 C 0.79762 0.30129 0.18135 0.0
H268 H 0.404 0.26646 0.23967 0.0
H269 H 0.35196 0.12247 0.09983 0.0
H270 H 0.30622 0.12712 0.11963 0.0
H271 H 0.35252 0.24173 0.41228 0.0
H272 H 0.35884 0.30787 0.40898 0.0
H273 H 0.3878 0.29353 0.38433 0.0
H274 H 0.39161 0.34504 0.22353 0.0
H275 H 0.36263 0.35948 0.24764 0.0
H276 H 0.35894 0.32841 0.14136 0.0
H277 H 0.26579 0.14671 0.15412 0.0
H278 H 0.23348 0.1798 0.20176 0.0
H279 H 0.31098 0.31202 0.31805 0.0
C280 C 0.38298 0.23571 0.21387 0.0
C281 C 0.38179 0.19428 0.16729 0.0
C282 C 0.35369 0.15512 0.13408 0.0
C283 C 0.32747 0.15721 0.14554 0.0
C284 C 0.32943 0.19868 0.19068 0.0
C285 C 0.35642 0.23724 0.22452 0.0
C286 C 0.35214 0.27768 0.26984 0.0
C287 C 0.3635 0.28034 0.37511 0.0
C288 C 0.36723 0.33079 0.21744 0.0
C289 C 0.31859 0.25576 0.25608 0.0
C290 C 0.30599 0.21013 0.21031 0.0
C291 C 0.27543 0.18255 0.18966 0.0
C292 C 0.25722 0.20199 0.21644 0.0
C293 C 0.26945 0.24885 0.26332 0.0
C294 C 0.3007 0.27589 0.28322 0.0
H295 H 0.37675 0.69472 0.72456 0.0
H296 H 0.43122 0.82567 0.89706 0.0
H297 H 0.39038 0.84948 0.8817 0.0
H298 H 0.34248 0.75956 0.5625 0.0
H299 H 0.30697 0.70328 0.55088 0.0
H300 H 0.34031 0.69585 0.57683 0.0
H301 H 0.31946 0.63783 0.72548 0.0
H302 H 0.2861 0.64522 0.70017 0.0
H303 H 0.30751 0.66195 0.81304 0.0
H304 H 0.34374 0.85943 0.84757 0.0
H305 H 0.29506 0.85624 0.79332 0.0
H306 H 0.27085 0.71956 0.64116 0.0
C307 C 0.38024 0.72868 0.75848 0.0
C308 C 0.40727 0.7581 0.81259 0.0
C309 C 0.41063 0.8019 0.85666 0.0
C310 C 0.38759 0.81596 0.8479 0.0
C311 C 0.36126 0.78598 0.7946 0.0
C312 C 0.35747 0.74337 0.75031 0.0
C313 C 0.32699 0.71799 0.69654 0.0
C314 C 0.32934 0.71927 0.59039 0.0
C315 C 0.30895 0.66246 0.73621 0.0
C316 C 0.31429 0.75313 0.71727 0.0
C317 C 0.3344 0.79195 0.77431 0.0
C318 C 0.32778 0.8291 0.80313 0.0
C319 C 0.29995 0.82672 0.77246 0.0
C320 C 0.27897 0.78752 0.71331 0.0
C321 C 0.2864 0.75023 0.68574 0.0
H322 H 0.62421 0.96757 0.84331 0.0
H323 H 0.58209 0.85315 0.06511 0.0
H324 H 0.5755 0.91697 0.14323 0.0
H325 H 0.66106 0.08147 -0.00079 0.0
H326 H 0.6544 0.124 0.90897 0.0
H327 H 0.6601 0.07159 0.87659 0.0
H328 H 0.61011 0.03812 0.77158 0.0
H329 H 0.60409 0.0899 0.80481 0.0
H330 H 0.57676 0.0238 0.82314 0.0
H331 H 0.56581 0.98671 0.18415 0.0
H332 H 0.55983 0.06501 0.19736 0.0
H333 H 0.60921 0.13705 0.95443 0.0
C334 C 0.61462 0.95685 0.90993 0.0
C335 C 0.604 0.90571 0.94896 0.0
C336 C 0.59071 0.89235 0.03481 0.0
C337 C 0.58672 0.92825 0.07966 0.0
C338 C 0.59618 0.97769 0.03794 0.0
C339 C 0.61033 0.99263 0.95605 0.0
C340 C 0.61652 0.04766 0.92397 0.0
C341 C 0.65001 0.08329 0.92743 0.0
C342 C 0.60093 0.04996 0.82503 0.0
C343 C 0.60278 0.06008 -0.00122 0.0
C344 C 0.59115 0.01909 0.06364 0.0
C345 C 0.57537 0.01968 0.13516 0.0
C346 C 0.57183 0.06394 0.14168 0.0
C347 C 0.58431 0.10692 0.07769 0.0
C348 C 0.59993 0.10489 0.00538 0.0
H349 H 0.11552 0.92436 0.48925 0.0
H350 H 0.04855 0.85617 0.68701 0.0
H351 H 0.04482 0.93771 0.67946 0.0
H352 H 0.15144 0.0556 0.57446 0.0
H353 H 0.15767 0.08559 0.45744 0.0
H354 H 0.15679 0.0232 0.48424 0.0
H355 H 0.11573 0.98562 0.34664 0.0
H356 H 0.11633 0.04774 0.31987 0.0
H357 H 0.08213 0.99176 0.34346 0.0
H358 H 0.046 0.02444 0.64305 0.0
H359 H 0.05275 0.11116 0.58275 0.0
H360 H 0.11876 0.1229 0.40787 0.0
C361 C 0.10046 0.92682 0.53235 0.0
C362 C 0.08242 0.88387 0.58906 0.0
C363 C 0.06264 0.88852 0.64311 0.0
C364 C 0.06037 0.93471 0.63941 0.0
C365 C 0.07804 0.97594 0.58142 0.0
C366 C 0.09781 0.97258 0.52919 0.0
C367 C 0.11323 0.02177 0.4691 0.0
C368 C 0.14677 0.04809 0.49808 0.0
C369 C 0.10643 0.01106 0.36353 0.0
C370 C 0.09875 0.05303 0.49486 0.0
C371 C 0.07861 0.02595 0.56002 0.0
C372 C 0.06184 0.04617 0.59245 0.0
C373 C 0.06575 0.09541 0.55737 0.0
C374 C 0.08626 0.12392 0.49042 0.0
C375 C 0.10303 0.10231 0.45934 0.0
H376 H 0.12512 0.23002 0.11382 0.0
H377 H 0.03217 0.19104 0.10949 0.0
H378 H 1.02567 0.18226 0.93856 0.0
H379 H 0.13999 0.31215 0.93954 0.0
H380 H 0.16458 0.29752 0.88384 0.0
H381 H 0.16063 0.28148 0.00706 0.0
H382 H 0.14528 0.18554 -0.01632 0.0
H383 H 0.15016 0.20132 0.86 0.0
H384 H 0.11547 0.15114 0.89603 0.0
H385 H 0.03248 0.20617 0.77382 0.0
H386 H 0.0504 0.24797 0.62176 0.0
H387 H 0.13906 0.27097 0.72744 0.0
C388 C 0.10314 0.21747 0.07733 0.0
C389 C 0.07928 0.21203 0.12405 0.0
C390 C 0.0508 0.19558 0.07477 0.0
C391 C 0.04685 0.1902 -0.02235 0.0
C392 C 0.07145 0.20035 0.93202 0.0
C393 C 0.09893 0.21208 -0.01955 0.0
C394 C 0.12276 0.22995 0.91396 0.0
C395 C 0.14845 0.28343 0.93755 0.0
C396 C 0.13407 0.18956 0.91337 0.0
C397 C 0.10502 0.23231 0.822 0.0
C398 C 0.07534 0.21361 0.83369 0.0
C399 C 0.05538 0.21906 0.7627 0.0
C400 C 0.06594 0.24385 0.6773 0.0
C401 C 0.09618 0.26285 0.66384 0.0
C402 C 0.11581 0.25621 0.73632 0.0
H403 H 0.11863 0.77135 0.88883 0.0
H404 H 1.02895 0.65244 0.81993 0.0
H405 H 1.01427 0.66599 0.96699 0.0
H406 H 0.12155 0.73536 0.13516 0.0
H407 H 0.14384 0.80112 0.1686 0.0
H408 H 0.14621 0.78287 0.05553 0.0
H409 H 0.1339 0.85579 0.97576 0.0
H410 H 0.13034 0.87279 0.08881 0.0
H411 H 0.10012 0.85635 -0.00307 0.0
H412 H 1.00904 0.69338 0.11837 0.0
H413 H 1.01652 0.71636 0.28366 0.0
H414 H 0.10983 0.81498 0.25555 0.0
C415 C 0.09597 0.74782 0.90504 0.0
C416 C 0.07482 0.7116 0.84237 0.0
C417 C 0.04549 0.68089 0.86661 0.0
C418 C 0.03681 0.68872 0.94929 0.0
C419 C 0.05785 0.72683 0.00697 0.0
C420 C 0.08701 0.75472 -0.01252 0.0
C421 C 0.10586 0.79011 0.06508 0.0
C422 C 0.13082 0.77652 0.1087 0.0
C423 C 0.11828 0.84714 0.02947 0.0
C424 C 0.08284 0.77675 0.13244 0.0
C425 C 0.05509 0.74142 0.09624 0.0
C426 C 1.03058 0.72123 0.14755 0.0
C427 C 0.03497 0.73492 0.24089 0.0
C428 C 0.06376 0.76737 0.28136 0.0
C429 C 0.0876 0.79047 0.22533 0.0
H430 H 0.5615 0.7258 0.1596 0.0
H431 H 0.65127 0.84761 0.13668 0.0
H432 H 0.65013 0.88187 0.28297 0.0
H433 H 0.53485 0.80283 0.27621 0.0
H434 H 0.51378 0.74868 0.35317 0.0
H435 H 0.51884 0.73805 0.23679 0.0
H436 H 0.54121 0.67659 0.3077 0.0
H437 H 0.53521 0.68573 0.42317 0.0
H438 H 0.57176 0.69896 0.39862 0.0
H439 H 0.64297 0.89778 0.43534 0.0
H440 H 0.63402 0.88239 0.60283 0.0
H441 H 0.5493 0.75146 0.53471 0.0
C442 C 0.58088 0.75963 0.18555 0.0
C443 C 0.60628 0.78422 0.13612 0.0
C444 C 0.63137 0.82811 0.1728 0.0
C445 C 0.63081 0.84861 0.25509 0.0
C446 C 0.60513 0.82466 0.30046 0.0
C447 C 0.58087 0.78045 0.26861 0.0
C448 C 0.55798 0.75787 0.33879 0.0
C449 C 0.52969 0.76213 0.29883 0.0
C450 C 0.55118 0.7015 0.36889 0.0
C451 C 0.57438 0.79397 0.4181 0.0
C452 C 0.60092 0.83374 0.39214 0.0
C453 C 0.62197 0.86788 0.45625 0.0
C454 C 0.61675 0.85903 0.55087 0.0
C455 C 0.59079 0.81662 0.57925 0.0
C456 C 0.56867 0.78529 0.51248 0.0
H457 H 0.54053 0.18527 0.38636 0.0
H458 H 0.63469 0.23479 0.39056 0.0
H459 H 0.63825 0.21928 0.56281 0.0
H460 H 0.54276 0.2486 0.55595 0.0
H461 H 0.51076 0.2022 0.61265 0.0
H462 H 0.51261 0.19787 0.49039 0.0
H463 H 0.50525 0.10384 0.52084 0.0
H464 H 0.50267 0.1073 0.64387 0.0
H465 H 0.52927 0.08948 0.61012 0.0
H466 H 0.63533 0.22739 0.7256 0.0
H467 H 0.6249 0.24975 0.87194 0.0
H468 H 0.5322 0.19133 0.76852 0.0
C469 C 0.56163 0.19109 0.42369 0.0
C470 C 0.5874 0.2119 0.37675 0.0
C471 C 0.61473 0.219 0.42622 0.0
C472 C 0.61688 0.20974 0.52375 0.0
C473 C 0.59135 0.19225 0.56936 0.0
C474 C 0.56399 0.18156 0.52079 0.0
C475 C 0.54114 0.17198 0.58665 0.0
C476 C 0.52599 0.20732 0.55979 0.0
C477 C 0.51824 0.11473 0.59062 0.0
C478 C 0.56087 0.18605 0.67787 0.0
C479 C 0.5895 0.19567 0.66702 0.0
C480 C 0.61285 0.21816 0.73622 0.0
C481 C 0.60689 0.23181 0.81794 0.0
C482 C 0.57788 0.22271 0.82916 0.0
C483 C 0.55446 0.19804 0.76037 0.0
loop_
_geom_bond_atom_site_label_1
_geom_bond_atom_site_label_2
_geom_bond_distance
_geom_bond_site_symmetry_2
_ccdc_geom_bond_type
Dy0 O3 2.307 . S
Dy0 O5 2.395 . S
Dy0 O6 2.379 . S
Dy0 O8 2.339 . S
Dy0 O10 2.298 . S
Dy0 O14 2.275 . S
Dy0 C22 2.738 . S
Dy1 O4 2.298 . S
Dy1 O7 2.275 . S
Dy1 O9 2.307 . S
Dy1 O11 2.395 1_455 S
Dy1 O12 2.379 1_455 S
Dy1 O15 2.339 . S
Dy1 C31 2.738 1_455 S
C2 O14 1.254 . S
C2 O15 1.257 . S
O3 Dy0 2.307 . S
O3 C13 1.266 . S
O4 Dy1 2.298 . S
O4 C13 1.236 . S
O5 Dy0 2.395 . S
O5 C22 1.255 . S
O6 Dy0 2.379 . S
O6 C22 1.249 . S
O7 Dy1 2.275 . S
O7 C23 1.254 . S
O8 Dy0 2.339 . S
O8 C23 1.257 . S
O9 Dy1 2.307 . S
O9 C24 1.266 . S
O10 Dy0 2.298 . S
O10 C24 1.236 . S
O11 Dy1 2.395 1_655 S
O11 C31 1.255 . S
O12 Dy1 2.379 1_655 S
O12 C31 1.249 . S
C13 O3 1.266 . S
C13 O4 1.236 . S
O14 Dy0 2.275 . S
O14 C2 1.254 . S
O15 Dy1 2.339 . S
O15 C2 1.257 . S
C16 C19 1.344 . S
C16 C20 1.328 . S
C16 C22 1.516 . S
C17 C18 1.304 . S
C17 C21 1.323 . S
C18 C17 1.304 . S
C18 C19 1.371 . S
C18 H32 0.930 . S
C19 C16 1.344 . S
C19 C18 1.371 . S
C19 H33 0.931 . S
C20 C16 1.328 . S
C20 C21 1.433 . S
C20 H34 0.931 . S
C21 C17 1.323 . S
C21 C20 1.433 . S
C21 H35 0.933 . S
C22 Dy0 2.738 . S
C22 O5 1.255 . S
C22 O6 1.249 . S
C22 C16 1.516 . S
C23 O7 1.254 . S
C23 O8 1.257 . S
C24 O9 1.266 . S
C24 O10 1.236 . S
C25 C28 1.344 . S
C25 C29 1.328 . S
C25 C31 1.516 . S
C26 C27 1.304 . S
C26 C30 1.323 . S
C27 C26 1.304 . S
C27 C28 1.371 . S
C27 H36 0.930 . S
C28 C25 1.344 . S
C28 C27 1.371 . S
C28 H37 0.931 . S
C29 C25 1.328 . S
C29 C30 1.433 . S
C29 H38 0.931 . S
C30 C26 1.323 . S
C30 C29 1.433 . S
C30 H39 0.933 . S
C31 Dy1 2.738 1_655 S
C31 O11 1.255 . S
C31 O12 1.249 . S
C31 C25 1.516 . S
H32 C18 0.930 . S
H33 C19 0.931 . S
H34 C20 0.931 . S
H35 C21 0.933 . S
H36 C27 0.930 . S
H37 C28 0.931 . S
H38 C29 0.931 . S
H39 C30 0.933 . S
Dy40 O43 2.307 . S
Dy40 O45 2.395 . S
Dy40 O46 2.379 . S
Dy40 O48 2.339 . S
Dy40 O50 2.298 . S
Dy40 O54 2.275 . S
Dy40 C62 2.738 . S
Dy41 O44 2.298 . S
Dy41 O47 2.275 . S
Dy41 O49 2.307 . S
Dy41 O51 2.395 1_455 S
Dy41 O52 2.379 1_455 S
Dy41 O55 2.339 . S
Dy41 C71 2.738 1_455 S
C42 O54 1.254 . S
C42 O55 1.257 . S
O43 Dy40 2.307 . S
O43 C53 1.266 . S
O44 Dy41 2.298 . S
O44 C53 1.236 . S
O45 Dy40 2.395 . S
O45 C62 1.255 . S
O46 Dy40 2.379 . S
O46 C62 1.249 . S
O47 Dy41 2.275 . S
O47 C63 1.254 . S
O48 Dy40 2.339 . S
O48 C63 1.257 . S
O49 Dy41 2.307 . S
O49 C64 1.266 . S
O50 Dy40 2.298 . S
O50 C64 1.236 . S
O51 Dy41 2.395 1_655 S
O51 C71 1.255 . S
O52 Dy41 2.379 1_655 S
O52 C71 1.249 . S
C53 O43 1.266 . S
C53 O44 1.236 . S
O54 Dy40 2.275 . S
O54 C42 1.254 . S
O55 Dy41 2.339 . S
O55 C42 1.257 . S
C56 C59 1.344 . S
C56 C60 1.328 . S
C56 C62 1.516 . S
C57 C58 1.304 . S
C57 C61 1.323 . S
C58 C57 1.304 . S
C58 C59 1.371 . S
C58 H72 0.930 . S
C59 C56 1.344 . S
C59 C58 1.371 . S
C59 H73 0.931 . S
C60 C56 1.328 . S
C60 C61 1.433 . S
C60 H74 0.931 . S
C61 C57 1.323 . S
C61 C60 1.433 . S
C61 H75 0.933 . S
C62 Dy40 2.738 . S
C62 O45 1.255 . S
C62 O46 1.249 . S
C62 C56 1.516 . S
C63 O47 1.254 . S
C63 O48 1.257 . S
C64 O49 1.266 . S
C64 O50 1.236 . S
C65 C68 1.344 . S
C65 C69 1.328 . S
C65 C71 1.516 . S
C66 C67 1.304 . S
C66 C70 1.323 . S
C67 C66 1.304 . S
C67 C68 1.371 . S
C67 H76 0.930 . S
C68 C65 1.344 . S
C68 C67 1.371 . S
C68 H77 0.931 . S
C69 C65 1.328 . S
C69 C70 1.433 . S
C69 H78 0.931 . S
C70 C66 1.323 . S
C70 C69 1.433 . S
C70 H79 0.933 . S
C71 Dy41 2.738 1_655 S
C71 O51 1.255 . S
C71 O52 1.249 . S
C71 C65 1.516 . S
H72 C58 0.930 . S
H73 C59 0.931 . S
H74 C60 0.931 . S
H75 C61 0.933 . S
H76 C67 0.930 . S
H77 C68 0.931 . S
H78 C69 0.931 . S
H79 C70 0.933 . S
Dy80 O83 2.307 . S
Dy80 O85 2.395 . S
Dy80 O86 2.379 . S
Dy80 O88 2.339 1_556 S
Dy80 O90 2.298 . S
Dy80 O94 2.275 . S
Dy80 C102 2.738 . S
Dy81 O84 2.298 . S
Dy81 O87 2.275 . S
Dy81 O89 2.307 . S
Dy81 O91 2.395 . S
Dy81 O92 2.379 . S
Dy81 O95 2.339 . S
Dy81 C111 2.738 . S
C82 O94 1.254 . S
C82 O95 1.257 . S
O83 Dy80 2.307 . S
O83 C93 1.266 . S
O84 Dy81 2.298 . S
O84 C93 1.236 . S
O85 Dy80 2.395 . S
O85 C102 1.255 . S
O86 Dy80 2.379 . S
O86 C102 1.249 . S
O87 Dy81 2.275 . S
O87 C103 1.254 1_556 S
O88 Dy80 2.339 1_554 S
O88 C103 1.257 . S
O89 Dy81 2.307 . S
O89 C104 1.266 . S
O90 Dy80 2.298 . S
O90 C104 1.236 . S
O91 Dy81 2.395 . S
O91 C111 1.255 . S
O92 Dy81 2.379 . S
O92 C111 1.249 . S
C93 O83 1.266 . S
C93 O84 1.236 . S
O94 Dy80 2.275 . S
O94 C82 1.254 . S
O95 Dy81 2.339 . S
O95 C82 1.257 . S
C96 C99 1.344 . S
C96 C100 1.328 . S
C96 C102 1.516 . S
C97 C98 1.304 . S
C97 C101 1.323 . S
C98 C97 1.304 . S
C98 C99 1.371 . S
C98 H112 0.930 . S
C99 C96 1.344 . S
C99 C98 1.371 . S
C99 H113 0.931 . S
C100 C96 1.328 . S
C100 C101 1.433 . S
C100 H114 0.931 1_556 S
C101 C97 1.323 . S
C101 C100 1.433 . S
C101 H115 0.933 1_556 S
C102 Dy80 2.738 . S
C102 O85 1.255 . S
C102 O86 1.249 . S
C102 C96 1.516 . S
C103 O87 1.254 1_554 S
C103 O88 1.257 . S
C104 O89 1.266 . S
C104 O90 1.236 . S
C105 C108 1.344 . S
C105 C109 1.328 . S
C105 C111 1.516 . S
C106 C107 1.304 . S
C106 C110 1.323 . S
C107 C106 1.304 . S
C107 C108 1.371 . S
C107 H116 0.930 1_556 S
C108 C105 1.344 . S
C108 C107 1.371 . S
C108 H117 0.931 . S
C109 C105 1.328 . S
C109 C110 1.433 . S
C109 H118 0.931 . S
C110 C106 1.323 . S
C110 C109 1.433 . S
C110 H119 0.933 . S
C111 Dy81 2.738 . S
C111 O91 1.255 . S
C111 O92 1.249 . S
C111 C105 1.516 . S
H112 C98 0.930 . S
H113 C99 0.931 . S
H114 C100 0.931 1_554 S
H115 C101 0.933 1_554 S
H116 C107 0.930 1_554 S
H117 C108 0.931 . S
H118 C109 0.931 . S
H119 C110 0.933 . S
Dy120 O123 2.307 . S
Dy120 O125 2.395 . S
Dy120 O126 2.379 . S
Dy120 O128 2.339 . S
Dy120 O130 2.298 . S
Dy120 O134 2.275 . S
Dy120 C142 2.738 . S
Dy121 O124 2.298 . S
Dy121 O127 2.275 . S
Dy121 O129 2.307 . S
Dy121 O131 2.395 . S
Dy121 O132 2.379 . S
Dy121 O135 2.339 1_554 S
Dy121 C151 2.738 . S
C122 O134 1.254 1_556 S
C122 O135 1.257 . S
O123 Dy120 2.307 . S
O123 C133 1.266 . S
O124 Dy121 2.298 . S
O124 C133 1.236 . S
O125 Dy120 2.395 . S
O125 C142 1.255 . S
O126 Dy120 2.379 . S
O126 C142 1.249 . S
O127 Dy121 2.275 . S
O127 C143 1.254 . S
O128 Dy120 2.339 . S
O128 C143 1.257 . S
O129 Dy121 2.307 . S
O129 C144 1.266 . S
O130 Dy120 2.298 . S
O130 C144 1.236 . S
O131 Dy121 2.395 . S
O131 C151 1.255 . S
O132 Dy121 2.379 . S
O132 C151 1.249 . S
C133 O123 1.266 . S
C133 O124 1.236 . S
O134 Dy120 2.275 . S
O134 C122 1.254 1_554 S
O135 Dy121 2.339 1_556 S
O135 C122 1.257 . S
C136 C139 1.344 . S
C136 C140 1.328 . S
C136 C142 1.516 . S
C137 C138 1.304 . S
C137 C141 1.323 . S
C138 C137 1.304 . S
C138 C139 1.371 . S
C138 H152 0.930 1_554 S
C139 C136 1.344 . S
C139 C138 1.371 . S
C139 H153 0.931 . S
C140 C136 1.328 . S
C140 C141 1.433 . S
C140 H154 0.931 . S
C141 C137 1.323 . S
C141 C140 1.433 . S
C141 H155 0.933 . S
C142 Dy120 2.738 . S
C142 O125 1.255 . S
C142 O126 1.249 . S
C142 C136 1.516 . S
C143 O127 1.254 . S
C143 O128 1.257 . S
C144 O129 1.266 . S
C144 O130 1.236 . S
C145 C148 1.344 . S
C145 C149 1.328 . S
C145 C151 1.516 . S
C146 C147 1.304 . S
C146 C150 1.323 . S
C147 C146 1.304 . S
C147 C148 1.371 . S
C147 H156 0.930 . S
C148 C145 1.344 . S
C148 C147 1.371 . S
C148 H157 0.931 . S
C149 C145 1.328 . S
C149 C150 1.433 . S
C149 H158 0.931 1_554 S
C150 C146 1.323 . S
C150 C149 1.433 . S
C150 H159 0.930 1_554 S
C151 Dy121 2.738 . S
C151 O131 1.255 . S
C151 O132 1.249 . S
C151 C145 1.516 . S
H152 C138 0.930 1_556 S
H153 C139 0.931 . S
H154 C140 0.931 . S
H155 C141 0.933 . S
H156 C147 0.930 . S
H157 C148 0.931 . S
H158 C149 0.931 1_556 S
H159 C150 0.930 1_556 S
H160 C172 0.930 . S
H161 C174 0.930 . S
H162 C175 0.930 . S
H163 C179 0.945 1_655 S
H164 C179 0.959 . S
H165 C179 0.961 . S
H166 C180 0.960 . S
H167 C180 0.961 . S
H168 C180 0.959 . S
H169 C183 0.929 . S
H170 C184 0.931 . S
H171 C186 0.930 . S
C172 H160 0.930 . S
C172 C173 1.399 . S
C172 C177 1.399 . S
C173 C172 1.399 . S
C173 C174 1.376 . S
C174 H161 0.930 . S
C174 C173 1.376 . S
C174 C175 1.388 . S
C175 H162 0.930 . S
C175 C174 1.388 . S
C175 C176 1.390 . S
C176 C175 1.390 . S
C176 C177 1.394 . S
C176 C182 1.465 . S
C177 C172 1.399 . S
C177 C176 1.394 . S
C177 C178 1.516 . S
C178 C177 1.516 . S
C178 C179 1.502 . S
C178 C180 1.561 . S
C178 C181 1.526 . S
C179 H163 0.945 1_455 S
C179 H164 0.959 . S
C179 H165 0.961 . S
C179 C178 1.502 . S
C180 H166 0.960 . S
C180 H167 0.961 . S
C180 H168 0.959 . S
C180 C178 1.561 . S
C181 C178 1.526 . S
C181 C182 1.396 . S
C181 C186 1.390 . S
C182 C176 1.465 . S
C182 C181 1.396 . S
C182 C183 1.399 . S
C183 H169 0.929 . S
C183 C182 1.399 . S
C183 C184 1.385 . S
C184 H170 0.931 . S
C184 C183 1.385 . S
C184 C185 1.389 . S
C185 C184 1.389 . S
C185 C186 1.387 . S
C186 H171 0.930 . S
C186 C181 1.390 . S
C186 C185 1.387 . S
H187 C199 0.930 . S
H188 C201 0.930 . S
H189 C202 0.930 . S
H190 C206 0.959 . S
H191 C206 0.959 . S
H192 C206 0.961 . S
H193 C207 0.960 . S
H194 C207 0.961 . S
H195 C207 0.959 . S
H196 C210 0.929 . S
H197 C211 0.931 . S
H198 C213 0.930 . S
C199 H187 0.930 . S
C199 C200 1.399 . S
C199 C204 1.399 . S
C200 C199 1.399 . S
C200 C201 1.376 . S
C201 H188 0.930 . S
C201 C200 1.376 . S
C201 C202 1.388 . S
C202 H189 0.930 . S
C202 C201 1.388 . S
C202 C203 1.390 . S
C203 C202 1.390 . S
C203 C204 1.394 . S
C203 C209 1.465 . S
C204 C199 1.399 . S
C204 C203 1.394 . S
C204 C205 1.516 . S
C205 C204 1.516 . S
C205 C206 1.502 . S
C205 C207 1.561 . S
C205 C208 1.526 . S
C206 H190 0.959 . S
C206 H191 0.959 . S
C206 H192 0.961 . S
C206 C205 1.502 . S
C207 H193 0.960 . S
C207 H194 0.961 . S
C207 H195 0.959 . S
C207 C205 1.561 . S
C208 C205 1.526 . S
C208 C209 1.396 . S
C208 C213 1.390 . S
C209 C203 1.465 . S
C209 C208 1.396 . S
C209 C210 1.399 . S
C210 H196 0.929 . S
C210 C209 1.399 . S
C210 C211 1.385 . S
C211 H197 0.931 . S
C211 C210 1.385 . S
C211 C212 1.389 . S
C212 C211 1.389 . S
C212 C213 1.387 . S
C213 H198 0.930 . S
C213 C208 1.390 . S
C213 C212 1.387 . S
H214 C226 0.930 1_556 S
H215 C228 0.930 . S
H216 C229 0.930 . S
H217 C233 0.959 . S
H218 C233 0.959 . S
H219 C233 0.961 . S
H220 C234 0.960 . S
H221 C234 0.961 . S
H222 C234 0.959 . S
H223 C237 0.929 . S
H224 C238 0.931 1_554 S
H225 C240 0.930 . S
C226 H214 0.930 1_554 S
C226 C227 1.399 . S
C226 C231 1.399 1_554 S
C227 C226 1.399 . S
C227 C228 1.376 . S
C228 H215 0.930 . S
C228 C227 1.376 . S
C228 C229 1.388 . S
C229 H216 0.930 . S
C229 C228 1.388 . S
C229 C230 1.390 . S
C230 C229 1.390 . S
C230 C231 1.394 1_554 S
C230 C236 1.465 . S
C231 C226 1.399 1_556 S
C231 C230 1.394 1_556 S
C231 C232 1.516 . S
C232 C231 1.516 . S
C232 C233 1.502 . S
C232 C234 1.561 . S
C232 C235 1.526 . S
C233 H217 0.959 . S
C233 H218 0.959 . S
C233 H219 0.961 . S
C233 C232 1.502 . S
C234 H220 0.960 . S
C234 H221 0.961 . S
C234 H222 0.959 . S
C234 C232 1.561 . S
C235 C232 1.526 . S
C235 C236 1.396 1_556 S
C235 C240 1.390 . S
C236 C230 1.465 . S
C236 C235 1.396 1_554 S
C236 C237 1.399 . S
C237 H223 0.929 . S
C237 C236 1.399 . S
C237 C238 1.385 1_554 S
C238 H224 0.931 1_556 S
C238 C237 1.385 1_556 S
C238 C239 1.389 . S
C239 C238 1.389 . S
C239 C240 1.387 . S
C240 H225 0.930 . S
C240 C235 1.390 . S
C240 C239 1.387 . S
H241 C253 0.930 . S
H242 C255 0.930 . S
H243 C256 0.930 . S
H244 C260 0.959 . S
H245 C260 0.959 . S
H246 C260 0.961 . S
H247 C261 0.960 . S
H248 C261 0.961 . S
H249 C261 0.959 . S
H250 C264 0.929 . S
H251 C265 0.931 . S
H252 C267 0.930 . S
C253 H241 0.930 . S
C253 C254 1.399 . S
C253 C258 1.399 . S
C254 C253 1.399 . S
C254 C255 1.376 . S
C255 H242 0.930 . S
C255 C254 1.376 . S
C255 C256 1.388 . S
C256 H243 0.930 . S
C256 C255 1.388 . S
C256 C257 1.390 . S
C257 C256 1.390 . S
C257 C258 1.394 . S
C257 C263 1.465 . S
C258 C253 1.399 . S
C258 C257 1.394 . S
C258 C259 1.516 . S
C259 C258 1.516 . S
C259 C260 1.502 . S
C259 C261 1.561 . S
C259 C262 1.526 . S
C260 H244 0.959 . S
C260 H245 0.959 . S
C260 H246 0.961 . S
C260 C259 1.502 . S
C261 H247 0.960 . S
C261 H248 0.961 . S
C261 H249 0.959 . S
C261 C259 1.561 . S
C262 C259 1.526 . S
C262 C263 1.396 . S
C262 C267 1.390 . S
C263 C257 1.465 . S
C263 C262 1.396 . S
C263 C264 1.399 . S
C264 H250 0.929 . S
C264 C263 1.399 . S
C264 C265 1.385 . S
C265 H251 0.931 . S
C265 C264 1.385 . S
C265 C266 1.389 . S
C266 C265 1.389 . S
C266 C267 1.387 . S
C267 H252 0.930 . S
C267 C262 1.390 . S
C267 C266 1.387 . S
H268 C280 0.930 . S
H269 C282 0.930 . S
H270 C283 0.930 . S
H271 C287 0.959 . S
H272 C287 0.959 . S
H273 C287 0.961 . S
H274 C288 0.960 . S
H275 C288 0.961 . S
H276 C288 0.959 . S
H277 C291 0.929 . S
H278 C292 0.931 . S
H279 C294 0.930 . S
C280 H268 0.930 . S
C280 C281 1.399 . S
C280 C285 1.399 . S
C281 C280 1.399 . S
C281 C282 1.376 . S
C282 H269 0.930 . S
C282 C281 1.376 . S
C282 C283 1.388 . S
C283 H270 0.930 . S
C283 C282 1.388 . S
C283 C284 1.390 . S
C284 C283 1.390 . S
C284 C285 1.394 . S
C284 C290 1.465 . S
C285 C280 1.399 . S
C285 C284 1.394 . S
C285 C286 1.516 . S
C286 C285 1.516 . S
C286 C287 1.502 . S
C286 C288 1.561 . S
C286 C289 1.526 . S
C287 H271 0.959 . S
C287 H272 0.959 . S
C287 H273 0.961 . S
C287 C286 1.502 . S
C288 H274 0.960 . S
C288 H275 0.961 . S
C288 H276 0.959 . S
C288 C286 1.561 . S
C289 C286 1.526 . S
C289 C290 1.396 . S
C289 C294 1.390 . S
C290 C284 1.465 . S
C290 C289 1.396 . S
C290 C291 1.399 . S
C291 H277 0.929 . S
C291 C290 1.399 . S
C291 C292 1.385 . S
C292 H278 0.931 . S
C292 C291 1.385 . S
C292 C293 1.389 . S
C293 C292 1.389 . S
C293 C294 1.387 . S
C294 H279 0.930 . S
C294 C289 1.390 . S
C294 C293 1.387 . S
H295 C307 0.930 . S
H296 C309 0.930 . S
H297 C310 0.930 . S
H298 C314 0.959 . S
H299 C314 0.959 . S
H300 C314 0.961 . S
H301 C315 0.960 . S
H302 C315 0.961 . S
H303 C315 0.959 . S
H304 C318 0.929 . S
H305 C319 0.931 . S
H306 C321 0.930 . S
C307 H295 0.930 . S
C307 C308 1.399 . S
C307 C312 1.399 . S
C308 C307 1.399 . S
C308 C309 1.376 . S
C309 H296 0.930 . S
C309 C308 1.376 . S
C309 C310 1.388 . S
C310 H297 0.930 . S
C310 C309 1.388 . S
C310 C311 1.390 . S
C311 C310 1.390 . S
C311 C312 1.394 . S
C311 C317 1.465 . S
C312 C307 1.399 . S
C312 C311 1.394 . S
C312 C313 1.516 . S
C313 C312 1.516 . S
C313 C314 1.502 . S
C313 C315 1.561 . S
C313 C316 1.526 . S
C314 H298 0.959 . S
C314 H299 0.959 . S
C314 H300 0.961 . S
C314 C313 1.502 . S
C315 H301 0.960 . S
C315 H302 0.961 . S
C315 H303 0.959 . S
C315 C313 1.561 . S
C316 C313 1.526 . S
C316 C317 1.396 . S
C316 C321 1.390 . S
C317 C311 1.465 . S
C317 C316 1.396 . S
C317 C318 1.399 . S
C318 H304 0.929 . S
C318 C317 1.399 . S
C318 C319 1.385 . S
C319 H305 0.931 . S
C319 C318 1.385 . S
C319 C320 1.389 . S
C320 C319 1.389 . S
C320 C321 1.387 . S
C321 H306 0.930 . S
C321 C316 1.390 . S
C321 C320 1.387 . S
H322 C334 0.930 . S
H323 C336 0.930 1_554 S
H324 C337 0.930 . S
H325 C341 0.959 . S
H326 C341 0.959 . S
H327 C341 0.961 . S
H328 C342 0.960 . S
H329 C342 0.961 . S
H330 C342 0.959 . S
H331 C345 0.929 1_565 S
H332 C346 0.931 . S
H333 C348 0.930 1_556 S
C334 H322 0.930 . S
C334 C335 1.399 . S
C334 C339 1.399 . S
C335 C334 1.399 . S
C335 C336 1.376 . S
C336 H323 0.930 1_556 S
C336 C335 1.376 . S
C336 C337 1.388 1_556 S
C337 H324 0.930 . S
C337 C336 1.388 1_554 S
C337 C338 1.390 . S
C338 C337 1.390 . S
C338 C339 1.394 1_554 S
C338 C344 1.465 1_565 S
C339 C334 1.399 . S
C339 C338 1.394 1_556 S
C339 C340 1.516 1_565 S
C340 C339 1.516 1_545 S
C340 C341 1.502 . S
C340 C342 1.561 . S
C340 C343 1.526 . S
C341 H325 0.959 . S
C341 H326 0.959 . S
C341 H327 0.961 . S
C341 C340 1.502 . S
C342 H328 0.960 . S
C342 H329 0.961 . S
C342 H330 0.959 . S
C342 C340 1.561 . S
C343 C340 1.526 . S
C343 C344 1.396 1_556 S
C343 C348 1.390 1_556 S
C344 C338 1.465 1_545 S
C344 C343 1.396 1_554 S
C344 C345 1.399 . S
C345 H331 0.929 1_545 S
C345 C344 1.399 . S
C345 C346 1.385 . S
C346 H332 0.931 . S
C346 C345 1.385 . S
C346 C347 1.389 . S
C347 C346 1.389 . S
C347 C348 1.387 . S
C348 H333 0.930 1_554 S
C348 C343 1.390 1_554 S
C348 C347 1.387 . S
H349 C361 0.930 . S
H350 C363 0.930 . S
H351 C364 0.930 . S
H352 C368 0.959 . S
H353 C368 0.959 . S
H354 C368 0.961 1_565 S
H355 C369 0.960 . S
H356 C369 0.961 . S
H357 C369 0.959 . S
H358 C372 0.929 . S
H359 C373 0.931 . S
H360 C375 0.930 . S
C361 H349 0.930 . S
C361 C362 1.399 . S
C361 C366 1.399 . S
C362 C361 1.399 . S
C362 C363 1.376 . S
C363 H350 0.930 . S
C363 C362 1.376 . S
C363 C364 1.388 . S
C364 H351 0.930 . S
C364 C363 1.388 . S
C364 C365 1.390 . S
C365 C364 1.390 . S
C365 C366 1.394 . S
C365 C371 1.465 1_565 S
C366 C361 1.399 . S
C366 C365 1.394 . S
C366 C367 1.516 . S
C367 C366 1.516 . S
C367 C368 1.502 1_565 S
C367 C369 1.561 . S
C367 C370 1.526 1_565 S
C368 H352 0.959 . S
C368 H353 0.959 . S
C368 H354 0.961 1_545 S
C368 C367 1.502 1_545 S
C369 H355 0.960 . S
C369 H356 0.961 . S
C369 H357 0.959 . S
C369 C367 1.561 . S
C370 C367 1.526 1_545 S
C370 C371 1.396 . S
C370 C375 1.390 . S
C371 C365 1.465 1_545 S
C371 C370 1.396 . S
C371 C372 1.399 . S
C372 H358 0.929 . S
C372 C371 1.399 . S
C372 C373 1.385 . S
C373 H359 0.931 . S
C373 C372 1.385 . S
C373 C374 1.389 . S
C374 C373 1.389 . S
C374 C375 1.387 . S
C375 H360 0.930 . S
C375 C370 1.390 . S
C375 C374 1.387 . S
H376 C388 0.930 . S
H377 C390 0.930 . S
H378 C391 0.930 . S
H379 C395 0.959 . S
H380 C395 0.959 . S
H381 C395 0.961 . S
H382 C396 0.960 . S
H383 C396 0.961 . S
H384 C396 0.959 . S
H385 C399 0.929 . S
H386 C400 0.931 . S
H387 C402 0.930 . S
C388 H376 0.930 . S
C388 C389 1.399 . S
C388 C393 1.399 1_554 S
C389 C388 1.399 . S
C389 C390 1.376 . S
C390 H377 0.930 . S
C390 C389 1.376 . S
C390 C391 1.388 1_554 S
C391 H378 0.930 . S
C391 C390 1.388 1_556 S
C391 C392 1.390 . S
C392 C391 1.390 . S
C392 C393 1.394 . S
C392 C398 1.465 . S
C393 C388 1.399 1_556 S
C393 C392 1.394 . S
C393 C394 1.516 . S
C394 C393 1.516 . S
C394 C395 1.502 . S
C394 C396 1.561 . S
C394 C397 1.526 . S
C395 H379 0.959 . S
C395 H380 0.959 . S
C395 H381 0.961 . S
C395 C394 1.502 . S
C396 H382 0.960 . S
C396 H383 0.961 . S
C396 H384 0.959 . S
C396 C394 1.561 . S
C397 C394 1.526 . S
C397 C398 1.396 . S
C397 C402 1.390 . S
C398 C392 1.465 . S
C398 C397 1.396 . S
C398 C399 1.399 . S
C399 H385 0.929 . S
C399 C398 1.399 . S
C399 C400 1.385 . S
C400 H386 0.931 . S
C400 C399 1.385 . S
C400 C401 1.389 . S
C401 C400 1.389 . S
C401 C402 1.387 . S
C402 H387 0.930 . S
C402 C397 1.390 . S
C402 C401 1.387 . S
H403 C415 0.930 . S
H404 C417 0.930 . S
H405 C418 0.930 . S
H406 C422 0.959 . S
H407 C422 0.959 . S
H408 C422 0.961 . S
H409 C423 0.960 . S
H410 C423 0.961 . S
H411 C423 0.959 . S
H412 C426 0.929 . S
H413 C427 0.931 . S
H414 C429 0.930 . S
C415 H403 0.930 . S
C415 C416 1.399 . S
C415 C420 1.399 1_556 S
C416 C415 1.399 . S
C416 C417 1.376 . S
C417 H404 0.930 . S
C417 C416 1.376 . S
C417 C418 1.388 1_556 S
C418 H405 0.930 . S
C418 C417 1.388 1_554 S
C418 C419 1.390 . S
C419 C418 1.390 . S
C419 C420 1.394 . S
C419 C425 1.465 . S
C420 C415 1.399 1_554 S
C420 C419 1.394 . S
C420 C421 1.516 . S
C421 C420 1.516 . S
C421 C422 1.502 . S
C421 C423 1.561 . S
C421 C424 1.526 . S
C422 H406 0.959 . S
C422 H407 0.959 . S
C422 H408 0.961 . S
C422 C421 1.502 . S
C423 H409 0.960 . S
C423 H410 0.961 . S
C423 H411 0.959 . S
C423 C421 1.561 . S
C424 C421 1.526 . S
C424 C425 1.396 . S
C424 C429 1.390 . S
C425 C419 1.465 . S
C425 C424 1.396 . S
C425 C426 1.399 . S
C426 H412 0.929 . S
C426 C425 1.399 . S
C426 C427 1.385 . S
C427 H413 0.931 . S
C427 C426 1.385 . S
C427 C428 1.389 . S
C428 C427 1.389 . S
C428 C429 1.387 . S
C429 H414 0.930 . S
C429 C424 1.390 . S
C429 C428 1.387 . S
H430 C442 0.930 . S
H431 C444 0.930 . S
H432 C445 0.930 . S
H433 C449 0.959 . S
H434 C449 0.959 . S
H435 C449 0.961 . S
H436 C450 0.960 . S
H437 C450 0.961 . S
H438 C450 0.959 . S
H439 C453 0.929 . S
H440 C454 0.931 . S
H441 C456 0.930 . S
C442 H430 0.930 . S
C442 C443 1.399 . S
C442 C447 1.399 . S
C443 C442 1.399 . S
C443 C444 1.376 . S
C444 H431 0.930 . S
C444 C443 1.376 . S
C444 C445 1.388 . S
C445 H432 0.930 . S
C445 C444 1.388 . S
C445 C446 1.390 . S
C446 C445 1.390 . S
C446 C447 1.394 . S
C446 C452 1.465 . S
C447 C442 1.399 . S
C447 C446 1.394 . S
C447 C448 1.516 . S
C448 C447 1.516 . S
C448 C449 1.502 . S
C448 C450 1.561 . S
C448 C451 1.526 . S
C449 H433 0.959 . S
C449 H434 0.959 . S
C449 H435 0.961 . S
C449 C448 1.502 . S
C450 H436 0.960 . S
C450 H437 0.961 . S
C450 H438 0.959 . S
C450 C448 1.561 . S
C451 C448 1.526 . S
C451 C452 1.396 . S
C451 C456 1.390 . S
C452 C446 1.465 . S
C452 C451 1.396 . S
C452 C453 1.399 . S
C453 H439 0.929 . S
C453 C452 1.399 . S
C453 C454 1.385 . S
C454 H440 0.931 . S
C454 C453 1.385 . S
C454 C455 1.389 . S
C455 C454 1.389 . S
C455 C456 1.387 . S
C456 H441 0.930 . S
C456 C451 1.390 . S
C456 C455 1.387 . S
H457 C469 0.930 . S
H458 C471 0.930 . S
H459 C472 0.930 . S
H460 C476 0.959 . S
H461 C476 0.959 . S
H462 C476 0.961 . S
H463 C477 0.960 . S
H464 C477 0.961 . S
H465 C477 0.959 . S
H466 C480 0.929 . S
H467 C481 0.931 . S
H468 C483 0.930 . S
C469 H457 0.930 . S
C469 C470 1.399 . S
C469 C474 1.399 . S
C470 C469 1.399 . S
C470 C471 1.376 . S
C471 H458 0.930 . S
C471 C470 1.376 . S
C471 C472 1.388 . S
C472 H459 0.930 . S
C472 C471 1.388 . S
C472 C473 1.390 . S
C473 C472 1.390 . S
C473 C474 1.394 . S
C473 C479 1.465 . S
C474 C469 1.399 . S
C474 C473 1.394 . S
C474 C475 1.516 . S
C475 C474 1.516 . S
C475 C476 1.502 . S
C475 C477 1.561 . S
C475 C478 1.526 . S
C476 H460 0.959 . S
C476 H461 0.959 . S
C476 H462 0.961 . S
C476 C475 1.502 . S
C477 H463 0.960 . S
C477 H464 0.961 . S
C477 H465 0.959 . S
C477 C475 1.561 . S
C478 C475 1.526 . S
C478 C479 1.396 . S
C478 C483 1.390 . S
C479 C473 1.465 . S
C479 C478 1.396 . S
C479 C480 1.399 . S
C480 H466 0.929 . S
C480 C479 1.399 . S
C480 C481 1.385 . S
C481 H467 0.931 . S
C481 C480 1.385 . S
C481 C482 1.389 . S
C482 C481 1.389 . S
C482 C483 1.387 . S
C483 H468 0.930 . S
C483 C478 1.390 . S
C483 C482 1.387 . S
C173 C13 1.893 . S
C185 C64 1.873 . S
C200 C97 1.875 . S
C212 C66 1.908 . S
C227 C133 1.606 . S
C239 C104 1.552 . S
C254 C26 1.605 . S
C266 C137 1.640 . S
C281 C146 1.906 . S
C293 C17 1.891 . S
C308 C106 1.645 . S
C320 C57 1.606 . S
C335 C93 1.873 . S
C347 C144 1.898 . S
C362 C53 1.611 . S
C374 C24 1.549 . S
C389 C2 0.854 . S
C401 C23 0.934 . S
C416 C63 0.938 . S
C428 C42 0.873 . S
C443 C103 0.860 . S
C455 C82 0.926 . S
C470 C143 0.863 . S
C482 C122 0.923 . S
