# Generated by pormake.
# Topology ofo, (3)-cn, num edge types: 1
# Building blocks:
#     Node 0, Type 0, BuildingBlock: WUSLED_clean_sbu_0, # of connection points: 3
#     Node 1, Type 0, BuildingBlock: WUSLED_clean_sbu_0, # of connection points: 3
#     Node 2, Type 0, BuildingBlock: WUSLED_clean_sbu_0, # of connection points: 3
#     Node 3, Type 0, BuildingBlock: WUSLED_clean_sbu_0, # of connection points: 3
#     Node 4, Type 0, BuildingBlock: WUSLED_clean_sbu_0, # of connection points: 3
#     Node 5, Type 0, BuildingBlock: WUSLED_clean_sbu_0, # of connection points: 3
#     Node 6, Type 0, BuildingBlock: WUSLED_clean_sbu_0, # of connection points: 3
#     Node 7, Type 0, BuildingBlock: WUSLED_clean_sbu_0, # of connection points: 3
#     Node 8, Type 0, BuildingBlock: WUSLED_clean_sbu_0, # of connection points: 3
#     Node 9, Type 0, BuildingBlock: WUSLED_clean_sbu_0, # of connection points: 3
#     Node 10, Type 0, BuildingBlock: WUSLED_clean_sbu_0, # of connection points: 3
#     Node 11, Type 0, BuildingBlock: WUSLED_clean_sbu_0, # of connection points: 3
#     Edge 12, Type (0, 0), None
#     Edge 13, Type (0, 0), None
#     Edge 14, Type (0, 0), None
#     Edge 15, Type (0, 0), None
#     Edge 16, Type (0, 0), None
#     Edge 17, Type (0, 0), None
#     Edge 18, Type (0, 0), None
#     Edge 19, Type (0, 0), None
#     Edge 20, Type (0, 0), None
#     Edge 21, Type (0, 0), None
#     Edge 22, Type (0, 0), None
#     Edge 23, Type (0, 0), None
#     Edge 24, Type (0, 0), None
#     Edge 25, Type (0, 0), None
#     Edge 26, Type (0, 0), None
#     Edge 27, Type (0, 0), None
#     Edge 28, Type (0, 0), None
#     Edge 29, Type (0, 0), None
# Relax obj value: 0.052
# Max RMSD: 0.064
# Mean RMSD: 0.064
data_MOF--net-ofo--node1-WUSLED_clean_sbu_0--edge1-none
_symmetry_space_group_name_H-M    P1
_symmetry_Int_Tables_number       1
_symmetry_cell_setting            triclinic
loop_
_symmetry_equiv_pos_as_xyz
'x, y, z'
_cell_length_a     23.904744
_cell_length_b     23.903292
_cell_length_c     58.981512
_cell_angle_alpha  90.055186
_cell_angle_beta   89.930263
_cell_angle_gamma 119.98982
loop_
_atom_site_label
_atom_site_type_symbol
_atom_site_fract_x
_atom_site_fract_y
_atom_site_fract_z
_atom_type_partial_charge
C0 C 0.494 0.36559 0.12726 0.0
C1 C 0.50526 0.32567 0.14181 0.0
C2 C 0.5619 0.41569 0.16804 0.0
C3 C 0.5395 0.35087 0.16215 0.0
C4 C 0.55277 0.45564 0.15297 0.0
C5 C 0.51996 0.43088 0.13267 0.0
U6 U 0.40198 0.25734 0.07444 0.0
O7 O 0.30173 0.22576 0.06481 0.0
O8 O 0.38172 0.29249 0.04259 0.0
C9 C 0.31897 0.25815 0.04565 0.0
C10 C 0.44996 0.34122 0.10768 0.0
C11 C 0.27738 0.2813 0.03613 0.0
C12 C 0.19835 0.3164 0.03989 0.0
C13 C 0.24628 0.30622 0.04948 0.0
C14 C 0.21412 0.27895 1.00357 0.0
C15 C 0.18035 0.30102 0.01693 0.0
C16 C 0.26216 0.26953 0.01306 0.0
C17 C 0.45897 0.12473 0.068 0.0
C18 C 0.47111 0.04119 0.04911 0.0
C19 C 0.50403 0.06831 0.08831 0.0
C20 C 0.48482 0.11487 0.08786 0.0
C21 C 0.49662 0.03021 0.06901 0.0
C22 C 0.45291 0.08824 0.04862 0.0
C23 C 0.43331 0.16892 0.06717 0.0
O24 O 0.47608 0.35239 0.08737 0.0
O25 O 0.39696 0.28476 0.10966 0.0
O26 O 0.3864 0.16013 0.08098 0.0
O27 O 0.46713 0.22739 0.0587 0.0
H28 H 0.48578 0.275 0.13789 0.0
H29 H 0.54585 0.3193 0.17371 0.0
H30 H 0.56897 0.50552 0.15732 0.0
H31 H 0.5125 0.46215 0.12145 0.0
H32 H 0.17396 0.3343 0.05063 0.0
H33 H 0.25725 0.31548 0.06737 0.0
H34 H 0.20104 0.26525 0.98603 0.0
H35 H 0.28513 0.24951 1.00257 0.0
H36 H 0.4634 0.0123 0.03405 0.0
H37 H 0.52457 0.06221 0.10381 0.0
H38 H 0.48956 0.14262 0.10299 0.0
H39 H 0.43228 0.09489 0.03319 0.0
C40 C 0.12762 0.49301 0.79344 0.0
C41 C 0.17762 0.50184 0.8082 0.0
C42 C 0.14796 0.56224 0.83408 0.0
C43 C 0.18789 0.53668 0.82847 0.0
C44 C 0.10033 0.55576 0.81879 0.0
C45 C 0.0911 0.52232 0.79853 0.0
U46 U 0.14661 0.40172 0.74156 0.0
O47 O 0.08079 0.30117 0.73139 0.0
O48 O 0.0952 0.38078 0.70884 0.0
C49 C 0.06669 0.31803 0.71195 0.0
C50 C 0.10655 0.44849 0.77394 0.0
C51 C 1.0015 0.27719 0.70257 0.0
C52 C 0.88703 0.19939 0.70655 0.0
C53 C 0.94566 0.24675 0.71605 0.0
C54 C 0.93933 0.21458 0.67007 0.0
C55 C 0.88368 0.18138 0.68355 0.0
C56 C 0.99729 0.262 0.67948 0.0
C57 C 0.33718 0.45804 0.73694 0.0
C58 C 0.42946 0.46652 0.71668 0.0
C59 C 0.44043 0.50065 0.75592 0.0
C60 C 0.37527 0.48326 0.75635 0.0
C61 C 0.46834 0.49193 0.73614 0.0
C62 C 0.36459 0.45023 0.71705 0.0
C63 C 0.26821 0.4369 0.73768 0.0
O64 O 0.12271 0.47454 0.75366 0.0
O65 O 0.10916 0.39508 0.77609 0.0
O66 O 0.22847 0.38847 0.75062 0.0
O67 O 0.24354 0.46842 0.72741 0.0
H68 H 0.20682 0.47994 0.80451 0.0
H69 H 0.22464 0.54097 0.84022 0.0
H70 H 0.06854 0.57444 0.82293 0.0
H71 H 0.0536 0.51706 0.78709 0.0
H72 H 0.8449 0.17544 0.71737 0.0
H73 H 0.94784 0.25772 0.73396 0.0
H74 H 0.93937 0.20146 0.6525 0.0
H75 H 0.04006 0.28449 0.66887 0.0
H76 H 0.44864 0.45801 0.70124 0.0
H77 H 0.46892 0.52136 0.77107 0.0
H78 H 0.35459 0.4896 0.77183 0.0
H79 H 0.33547 0.43015 0.70195 0.0
C80 C 0.63642 0.1264 0.46018 0.0
C81 C 0.67721 0.17666 0.47494 0.0
C82 C 0.58717 0.14562 0.50096 0.0
C83 C 0.65246 0.18637 0.49528 0.0
C84 C 0.54636 0.09772 0.48567 0.0
C85 C 0.57073 0.08899 0.46536 0.0
U86 U 0.74631 0.14475 0.40804 0.0
O87 O 0.78032 0.07821 0.398 0.0
O88 O 0.71457 0.09205 0.37555 0.0
C89 C 0.74892 0.06367 0.37865 0.0
C90 C 0.66022 0.10579 0.44065 0.0
C91 C 0.72502 0.99853 0.36924 0.0
C92 C 0.68973 0.88437 0.37323 0.0
C93 C 0.70024 0.94279 0.38272 0.0
C94 C 0.72636 0.93664 0.33675 0.0
C95 C 0.70466 0.88113 0.35024 0.0
C96 C 0.73607 0.99438 0.34615 0.0
C97 C 0.88025 0.33514 0.40298 0.0
C98 C 0.96395 0.42837 0.38312 0.0
C99 C 0.93982 0.43792 0.42238 0.0
C100 C 0.89236 0.37257 0.42255 0.0
C101 C 0.97676 0.46661 0.40273 0.0
C102 C 0.9158 0.36339 0.38323 0.0
C103 C 0.83319 0.26591 0.40321 0.0
O104 O 0.65001 0.12163 0.42037 0.0
O105 O 0.71639 0.10872 0.44276 0.0
O106 O 0.84188 0.22663 0.41639 0.0
O107 O 0.7763 0.24124 0.39345 0.0
H108 H 0.72818 0.20648 0.4712 0.0
H109 H 0.68468 0.22336 0.50702 0.0
H110 H 0.49607 0.0653 0.48986 0.0
H111 H 0.53875 0.05113 0.45396 0.0
H112 H 0.672 0.84236 0.38407 0.0
H113 H 0.69141 0.94493 0.40063 0.0
H114 H 0.73967 0.93684 0.31919 0.0
H115 H 0.75588 0.03709 0.33554 0.0
H116 H 0.99193 0.4481 0.36779 0.0
H117 H 0.94721 0.46592 0.43766 0.0
H118 H 0.86515 0.35125 0.43793 0.0
H119 H 0.90736 0.33478 0.36801 0.0
C120 C 0.51137 0.6344 0.12621 0.0
C121 C 0.50473 0.67625 0.14137 0.0
C122 C 0.44159 0.5859 0.16679 0.0
C123 C 0.46964 0.6519 0.1616 0.0
C124 C 0.44577 0.54415 0.15108 0.0
C125 C 0.47941 0.5682 0.13084 0.0
U126 U 0.60293 0.74572 0.07492 0.0
O127 O 0.70365 0.7817 0.06466 0.0
O128 O 0.62445 0.71745 0.04183 0.0
C129 C 0.68715 0.75152 0.04506 0.0
C130 C 0.55614 0.65738 0.10676 0.0
C131 C 0.72784 0.72682 0.03571 0.0
C132 C 0.80552 0.69 0.03982 0.0
C133 C 0.75822 0.70153 0.04925 0.0
C134 C 0.79041 0.72653 1.00326 0.0
C135 C 0.82362 0.70429 0.01681 0.0
C136 C 0.74301 0.73731 0.0126 0.0
C137 C 0.54653 0.88014 0.0712 0.0
C138 C 0.53897 0.96358 0.05037 0.0
C139 C 0.50494 0.94251 0.08967 0.0
C140 C 0.52172 0.89435 0.09045 0.0
C141 C 0.51396 0.97835 0.0697 0.0
C142 C 0.5546 0.9145 0.05109 0.0
C143 C 0.56687 0.83174 0.07251 0.0
O144 O 0.53025 0.64834 0.08648 0.0
O145 O 0.60989 0.713 0.10906 0.0
O146 O 0.61558 0.84017 0.08522 0.0
O147 O 0.53642 0.77663 0.06149 0.0
H148 H 0.52855 0.72764 0.13803 0.0
H149 H 0.46715 0.68483 0.17365 0.0
H150 H 0.42512 0.49324 0.15489 0.0
H151 H 0.48272 0.53545 0.11903 0.0
H152 H 0.82937 0.67192 0.05071 0.0
H153 H 0.74726 0.69307 0.06717 0.0
H154 H 0.80352 0.73939 0.98568 0.0
H155 H 0.72054 0.75743 1.00194 0.0
H156 H 0.54762 0.99059 0.03478 0.0
H157 H 0.4844 0.95117 0.10471 0.0
H158 H 0.51515 0.86801 0.10609 0.0
H159 H 0.57437 0.90442 0.03611 0.0
C160 C 0.87558 0.51017 0.79338 0.0
C161 C 0.82584 0.50113 0.80834 0.0
C162 C 0.8568 0.44154 0.83406 0.0
C163 C 0.81631 0.46655 0.82862 0.0
C164 C 0.90426 0.44832 0.81858 0.0
C165 C 0.91271 0.48143 0.79831 0.0
U166 U 0.85945 0.60292 0.74103 0.0
O167 O 0.9274 0.70333 0.73134 0.0
O168 O 0.91391 0.62366 0.70891 0.0
C169 C 0.94234 0.68638 0.71206 0.0
C170 C 0.89619 0.55473 0.77392 0.0
C171 C 0.00728 0.72787 0.70259 0.0
C172 C 0.12129 0.80712 0.70648 0.0
C173 C 0.06307 0.75906 0.71601 0.0
C174 C 0.06867 0.79127 0.67008 0.0
C175 C 0.12426 0.82524 0.68351 0.0
C176 C 0.01112 0.74307 0.67951 0.0
C177 C 0.66958 0.54638 0.73522 0.0
C178 C 0.57484 0.53512 0.71599 0.0
C179 C 0.56758 0.50208 0.75523 0.0
C180 C 0.63321 0.52081 0.75499 0.0
C181 C 0.53765 0.50965 0.73578 0.0
C182 C 0.63999 0.55284 0.71571 0.0
C183 C 0.73923 0.57072 0.7347 0.0
O184 O 0.88109 0.52895 0.75357 0.0
O185 O 0.89314 0.60794 0.77604 0.0
O186 O 0.77775 0.61783 0.74835 0.0
O187 O 0.76384 0.53741 0.72571 0.0
H188 H 0.79628 0.52268 0.80479 0.0
H189 H 0.77969 0.46206 0.84049 0.0
H190 H 0.9365 0.4301 0.82259 0.0
H191 H 0.95013 0.48696 0.78674 0.0
H192 H 0.16337 0.83156 0.71728 0.0
H193 H 0.06111 0.74811 0.73391 0.0
H194 H 0.06825 0.80434 0.65254 0.0
H195 H 0.96832 0.72001 0.66895 0.0
H196 H 0.55422 0.54297 0.70083 0.0
H197 H 0.54039 0.48158 0.77065 0.0
H198 H 0.65559 0.51572 0.77022 0.0
H199 H 0.66778 0.57325 0.70035 0.0
C200 C 0.36782 0.87443 0.45995 0.0
C201 C 0.32671 0.8254 0.47504 0.0
C202 C 0.41745 0.85464 0.50049 0.0
C203 C 0.35164 0.81537 0.49525 0.0
C204 C 0.4585 0.90133 0.48488 0.0
C205 C 0.43392 0.91025 0.46466 0.0
U206 U 0.25831 0.85768 0.40793 0.0
O207 O 0.2251 0.92496 0.39812 0.0
O208 O 0.29065 0.91082 0.37557 0.0
C209 C 0.25648 0.93939 0.37874 0.0
C210 C 0.34416 0.89556 0.44055 0.0
C211 C 0.28037 0.00438 0.36928 0.0
C212 C 0.31648 0.11872 0.37314 0.0
C213 C 0.30557 0.0603 0.3827 0.0
C214 C 0.27924 0.06602 0.33675 0.0
C215 C 0.3016 0.12177 0.35016 0.0
C216 C 0.26909 0.00825 0.34621 0.0
C217 C 0.12433 0.66757 0.40257 0.0
C218 C 0.0406 0.57375 0.38298 0.0
C219 C 0.06558 0.5651 0.42219 0.0
C220 C 0.11285 0.63056 0.4222 0.0
C221 C 0.02832 0.53593 0.40264 0.0
C222 C 0.08847 0.6388 0.38293 0.0
C223 C 0.1708 0.73694 0.40248 0.0
O224 O 0.35439 0.88009 0.42018 0.0
O225 O 0.28809 0.89283 0.44275 0.0
O226 O 0.16231 0.77598 0.41591 0.0
O227 O 0.22809 0.76147 0.39301 0.0
H228 H 0.27542 0.79681 0.47166 0.0
H229 H 0.31924 0.7794 0.50723 0.0
H230 H 0.50922 0.93264 0.48873 0.0
H231 H 0.46615 0.94704 0.45298 0.0
H232 H 0.33456 0.16094 0.38392 0.0
H233 H 0.31451 0.05831 0.4006 0.0
H234 H 0.2659 0.06574 0.3192 0.0
H235 H 0.24888 0.96537 0.33566 0.0
H236 H 0.01238 0.55367 0.36773 0.0
H237 H 0.05854 0.53742 0.43751 0.0
H238 H 0.14026 0.65229 0.4375 0.0
H239 H 0.09644 0.66709 0.36768 0.0
C240 C 0.6354 0.51051 0.23144 0.0
C241 C 0.67721 0.50384 0.21627 0.0
C242 C 0.58681 0.4407 0.19088 0.0
C243 C 0.65281 0.46873 0.19605 0.0
C244 C 0.54511 0.44493 0.2066 0.0
C245 C 0.56921 0.47858 0.22684 0.0
U246 U 0.74649 0.60223 0.2828 0.0
O247 O 0.78227 0.70296 0.29301 0.0
O248 O 0.71787 0.62375 0.31583 0.0
C249 C 0.75198 0.68647 0.3126 0.0
C250 C 0.65842 0.55532 0.25089 0.0
C251 C 0.72744 0.72728 0.32198 0.0
C252 C 0.69079 0.80511 0.31792 0.0
C253 C 0.70218 0.75772 0.30847 0.0
C254 C 0.72744 0.78996 0.35444 0.0
C255 C 0.70522 0.82324 0.34092 0.0
C256 C 0.73808 0.74247 0.34508 0.0
C257 C 0.8809 0.54584 0.28666 0.0
C258 C 0.96437 0.53808 0.30738 0.0
C259 C 0.94301 0.5041 0.26809 0.0
C260 C 0.89492 0.52099 0.26738 0.0
C261 C 0.97895 0.51303 0.28802 0.0
C262 C 0.91537 0.55382 0.30673 0.0
C263 C 0.83256 0.56629 0.28544 0.0
O264 O 0.64923 0.52949 0.27118 0.0
O265 O 0.71408 0.60904 0.2486 0.0
O266 O 0.84103 0.61494 0.27268 0.0
O267 O 0.77732 0.53573 0.29637 0.0
H268 H 0.7286 0.52764 0.21959 0.0
H269 H 0.68571 0.46621 0.18399 0.0
H270 H 0.4942 0.42431 0.20281 0.0
H271 H 0.53649 0.48193 0.23865 0.0
H272 H 0.67271 0.829 0.30704 0.0
H273 H 0.6936 0.74674 0.29055 0.0
H274 H 0.74039 0.80307 0.37202 0.0
H275 H 0.7582 0.71997 0.35573 0.0
H276 H 0.99148 0.54668 0.32294 0.0
H277 H 0.95153 0.48356 0.25302 0.0
H278 H 0.8685 0.51449 0.25177 0.0
H279 H 0.90545 0.57362 0.32174 0.0
C280 C 0.12929 0.63697 0.89765 0.0
C281 C 0.17909 0.67773 0.88273 0.0
C282 C 0.14829 0.58728 0.85695 0.0
C283 C 0.18872 0.65276 0.86244 0.0
C284 C 0.10082 0.54652 0.87239 0.0
C285 C 0.09226 0.57112 0.89267 0.0
U286 U 0.14602 0.74617 0.94993 0.0
O287 O 0.0785 0.7791 0.95977 0.0
O288 O 0.09217 0.71309 0.98217 0.0
C289 C 0.0637 0.74736 0.97906 0.0
C290 C 0.10858 0.66084 0.91712 0.0
C291 C 0.99866 0.72362 0.98848 0.0
C292 C 0.88459 0.68854 0.98451 0.0
C293 C 0.94294 0.69891 0.97502 0.0
C294 C 0.93693 0.72524 0.02097 0.0
C295 C 0.88142 0.70358 1.00749 0.0
C296 C 0.9946 0.73479 1.01157 0.0
C297 C 0.33604 0.87968 0.95549 0.0
C298 C 0.43033 0.96329 0.97489 0.0
C299 C 0.43826 0.93789 0.93564 0.0
C300 C 0.37271 0.89081 0.93576 0.0
C301 C 0.46782 0.97526 0.95515 0.0
C302 C 0.36524 0.91566 0.97506 0.0
C303 C 0.26652 0.83384 0.95581 0.0
O304 O 0.1239 0.65033 0.93745 0.0
O305 O 0.11157 0.71705 0.91501 0.0
O306 O 0.22776 0.84244 0.94231 0.0
O307 O 0.24193 0.77622 0.965 0.0
H308 H 0.20859 0.72884 0.88632 0.0
H309 H 0.22534 0.68493 0.85058 0.0
H310 H 0.06864 0.49608 0.86834 0.0
H311 H 0.05482 0.53919 0.90422 0.0
H312 H 0.84257 0.67085 0.97368 0.0
H313 H 0.94505 0.69003 0.95711 0.0
H314 H 0.93719 0.73863 0.03852 0.0
H315 H 0.03733 0.75457 0.02216 0.0
H316 H 0.45068 0.99165 0.9901 0.0
H317 H 0.46568 0.94475 0.92025 0.0
H318 H 0.35063 0.86337 0.92049 0.0
H319 H 0.33722 0.908 0.99039 0.0
C320 C 0.49315 0.12458 0.56454 0.0
C321 C 0.50069 0.17378 0.5496 0.0
C322 C 0.56243 0.14548 0.52387 0.0
C323 C 0.53552 0.18432 0.52932 0.0
C324 C 0.55736 0.09879 0.53936 0.0
C325 C 0.52391 0.08933 0.55964 0.0
U326 U 0.40221 0.14532 0.61589 0.0
O327 O 0.30156 0.08082 0.62627 0.0
O328 O 0.38093 0.09593 0.64902 0.0
C329 C 0.31819 0.06731 0.64586 0.0
C330 C 0.44864 0.10321 0.58406 0.0
C331 C 0.27758 0.00199 0.65523 0.0
C332 C 0.19996 0.88747 0.65115 0.0
C333 C 0.24719 0.94626 0.6417 0.0
C334 C 0.21516 0.93929 0.68771 0.0
C335 C 0.18194 0.88377 0.67417 0.0
C336 C 0.26249 0.99744 0.67835 0.0
C337 C 0.45867 0.33616 0.61953 0.0
C338 C 0.46607 0.427 0.64046 0.0
C339 C 0.50002 0.44016 0.60115 0.0
C340 C 0.48333 0.37521 0.60029 0.0
C341 C 0.49102 0.46687 0.62118 0.0
C342 C 0.45059 0.36238 0.63967 0.0
C343 C 0.43833 0.26742 0.61823 0.0
O344 O 0.47476 0.12041 0.6043 0.0
O345 O 0.3949 0.10512 0.58179 0.0
O346 O 0.38953 0.22703 0.60557 0.0
O347 O 0.46884 0.24285 0.62924 0.0
H348 H 0.47776 0.2021 0.55317 0.0
H349 H 0.53872 0.22035 0.51744 0.0
H350 H 0.57712 0.06785 0.53534 0.0
H351 H 0.51983 0.05265 0.57126 0.0
H352 H 0.17609 0.84548 0.64026 0.0
H353 H 0.25809 0.94867 0.62377 0.0
H354 H 0.20213 0.93911 0.7053 0.0
H355 H 0.28496 0.04008 0.68901 0.0
H356 H 0.45736 0.44521 0.65609 0.0
H357 H 0.52045 0.46943 0.58613 0.0
H358 H 0.48986 0.35548 0.58461 0.0
H359 H 0.43089 0.33249 0.65463 0.0
C360 C 0.36659 0.49314 0.23043 0.0
C361 C 0.32664 0.50436 0.21588 0.0
C362 C 0.41662 0.56105 0.18964 0.0
C363 C 0.35181 0.5386 0.19554 0.0
C364 C 0.45662 0.55199 0.2047 0.0
C365 C 0.43189 0.51917 0.22501 0.0
U366 U 0.25814 0.40123 0.28319 0.0
O367 O 0.22637 0.30096 0.29287 0.0
O368 O 0.29299 0.38095 0.31509 0.0
C369 C 0.25866 0.3182 0.31204 0.0
C370 C 0.34225 0.44909 0.25001 0.0
C371 C 0.28194 0.27671 0.32155 0.0
C372 C 0.31732 0.19791 0.31777 0.0
C373 C 0.307 0.24576 0.30819 0.0
C374 C 0.27971 0.21348 0.3541 0.0
C375 C 0.30194 0.17986 0.34073 0.0
C376 C 0.27016 0.26144 0.34461 0.0
C377 C 0.12541 0.45815 0.28953 0.0
C378 C 0.04185 0.47008 0.3085 0.0
C379 C 0.06878 0.50311 0.2693 0.0
C380 C 0.1154 0.48399 0.2697 0.0
C381 C 0.03076 0.49562 0.28864 0.0
C382 C 0.08897 0.45196 0.30894 0.0
C383 C 0.16982 0.43275 0.29028 0.0
O384 O 0.35331 0.47523 0.27031 0.0
O385 O 0.28581 0.39608 0.24801 0.0
O386 O 0.16107 0.38578 0.27651 0.0
O387 O 0.2282 0.46651 0.29883 0.0
H388 H 0.27597 0.48483 0.21981 0.0
H389 H 0.32021 0.54489 0.18398 0.0
H390 H 0.50651 0.56823 0.20035 0.0
H391 H 0.46319 0.51175 0.23623 0.0
H392 H 0.33532 0.17361 0.30703 0.0
H393 H 0.31628 0.25677 0.2903 0.0
H394 H 0.266 0.20034 0.37163 0.0
H395 H 0.25002 0.2843 0.35511 0.0
H396 H 0.01303 0.46231 0.32359 0.0
H397 H 0.06259 0.52368 0.25382 0.0
H398 H 0.14313 0.48884 0.25454 0.0
H399 H 0.09574 0.43133 0.32434 0.0
C400 C 0.87717 0.3676 0.89751 0.0
C401 C 0.82714 0.32658 0.88272 0.0
C402 C 0.85713 0.41672 0.85689 0.0
C403 C 0.81701 0.35126 0.86247 0.0
C404 C 0.90483 0.45772 0.87221 0.0
C405 C 0.91391 0.43341 0.89245 0.0
U406 U 0.85888 0.25776 0.94951 0.0
O407 O 0.92522 0.22359 0.95957 0.0
O408 O 0.91099 0.28908 0.98209 0.0
C409 C 0.93947 0.2548 0.97897 0.0
C410 C 0.89812 0.34403 0.91699 0.0
C411 C 0.00454 0.27887 0.98841 0.0
C412 C 0.11898 0.31529 0.98452 0.0
C413 C 0.06047 0.30421 0.97498 0.0
C414 C 0.06639 0.27805 0.02093 0.0
C415 C 0.12213 0.30049 1.0075 0.0
C416 C 0.00854 0.2677 1.01149 0.0
C417 C 0.66847 0.12361 0.95444 0.0
C418 C 0.57566 0.03984 0.97446 0.0
C419 C 0.56548 0.06362 0.93524 0.0
C420 C 0.63075 0.11123 0.93496 0.0
C421 C 0.53714 0.02679 0.95493 0.0
C422 C 0.64059 0.08816 0.97424 0.0
C423 C 0.73757 0.17103 0.954 0.0
O424 O 0.88224 0.35417 0.9373 0.0
O425 O 0.89538 0.28794 0.91484 0.0
O426 O 0.77705 0.16232 0.94089 0.0
O427 O 0.7622 0.22769 0.96396 0.0
H428 H 0.79779 0.27551 0.88638 0.0
H429 H 0.78019 0.3189 0.85072 0.0
H430 H 0.93677 0.50816 0.8681 0.0
H431 H 0.95147 0.46555 0.9039 0.0
H432 H 0.16119 0.33345 0.97373 0.0
H433 H 0.05844 0.31311 0.95708 0.0
H434 H 0.06619 0.26479 0.03849 0.0
H435 H 0.96569 0.24744 0.02206 0.0
H436 H 0.55617 0.01196 0.98982 0.0
H437 H 0.53726 0.0561 0.92003 0.0
H438 H 0.65179 0.13838 0.91955 0.0
H439 H 0.66942 0.09684 0.98939 0.0
C440 C 0.51089 0.87268 0.56398 0.0
C441 C 0.50016 0.82188 0.54928 0.0
C442 C 0.44268 0.85469 0.52327 0.0
C443 C 0.46574 0.81273 0.52899 0.0
C444 C 0.45135 0.90343 0.53846 0.0
C445 C 0.48427 0.91152 0.55874 0.0
U446 U 0.60352 0.85765 0.61684 0.0
O447 O 0.70376 0.92686 0.62631 0.0
O448 O 0.62381 0.91381 0.64855 0.0
C449 C 0.68654 0.94226 0.64544 0.0
C450 C 0.55507 0.89257 0.58351 0.0
C451 C 0.72821 0.00699 0.65497 0.0
C452 C 0.80725 0.12105 0.6512 0.0
C453 C 0.75926 0.06294 0.64162 0.0
C454 C 0.79165 0.06793 0.68751 0.0
C455 C 0.82537 0.12372 0.67415 0.0
C456 C 0.74354 0.01048 0.67802 0.0
C457 C 0.5465 0.66833 0.62345 0.0
C458 C 0.53387 0.57219 0.64204 0.0
C459 C 0.50123 0.56718 0.60286 0.0
C460 C 0.52065 0.63301 0.6035 0.0
C461 C 0.50844 0.53608 0.62205 0.0
C462 C 0.55227 0.63746 0.64273 0.0
C463 C 0.57286 0.73826 0.62451 0.0
O464 O 0.52912 0.87801 0.60385 0.0
O465 O 0.60808 0.88911 0.58152 0.0
O466 O 0.61954 0.77613 0.6106 0.0
O467 O 0.53886 0.76296 0.63282 0.0
H468 H 0.52016 0.79108 0.55306 0.0
H469 H 0.45976 0.77509 0.51733 0.0
H470 H 0.43463 0.93676 0.53425 0.0
H471 H 0.49127 0.94989 0.57009 0.0
H472 H 0.8316 0.16331 0.64047 0.0
H473 H 0.74821 0.06119 0.62374 0.0
H474 H 0.80482 0.06735 0.70502 0.0
H475 H 0.7206 0.96751 0.6885 0.0
H476 H 0.54146 0.55074 0.65703 0.0
H477 H 0.48074 0.54082 0.58729 0.0
H478 H 0.51617 0.65637 0.58844 0.0
H479 H 0.57291 0.66442 0.65822 0.0
loop_
_geom_bond_atom_site_label_1
_geom_bond_atom_site_label_2
_geom_bond_distance
_geom_bond_site_symmetry_2
_ccdc_geom_bond_type
C0 C1 1.264 . S
C0 C5 1.479 . S
C0 C10 1.465 . S
C1 C0 1.264 . S
C1 C3 1.339 . S
C1 H28 0.931 . S
C2 C3 1.395 . S
C2 C4 1.320 . S
C3 C1 1.339 . S
C3 C2 1.395 . S
C3 H29 0.929 . S
C4 C2 1.320 . S
C4 C5 1.405 . S
C4 H30 0.930 . S
C5 C0 1.479 . S
C5 C4 1.405 . S
C5 H31 0.931 . S
U6 O7 2.454 . S
U6 O8 2.458 . S
U6 C9 2.984 . S
U6 C10 2.847 . S
U6 C23 2.882 . S
U6 O24 2.441 . S
U6 O25 2.420 . S
U6 O26 2.455 . S
U6 O27 2.449 . S
O7 U6 2.454 . S
O7 C9 1.353 . S
O8 U6 2.458 . S
O8 C9 1.286 . S
C9 U6 2.984 . S
C9 O7 1.353 . S
C9 O8 1.286 . S
C9 C11 1.363 . S
C10 C0 1.465 . S
C10 U6 2.847 . S
C10 O24 1.249 . S
C10 O25 1.202 . S
C11 C9 1.363 . S
C11 C13 1.408 . S
C11 C16 1.342 1_554 S
C12 C13 1.310 . S
C12 C15 1.461 1_554 S
C12 H32 0.932 . S
C13 C11 1.408 . S
C13 C12 1.310 . S
C13 H33 0.930 . S
C14 C15 1.474 . S
C14 C16 1.285 . S
C14 H34 0.929 . S
C15 C12 1.461 1_556 S
C15 C14 1.474 . S
C16 C11 1.342 1_556 S
C16 C14 1.285 . S
C16 H35 0.930 . S
C17 C20 1.424 . S
C17 C22 1.245 . S
C17 C23 1.428 . S
C18 C21 1.260 . S
C18 C22 1.477 . S
C18 H36 0.961 . S
C19 C20 1.384 . S
C19 C21 1.479 . S
C19 H37 0.929 . S
C20 C17 1.424 . S
C20 C19 1.384 . S
C20 H38 0.928 . S
C21 C18 1.260 . S
C21 C19 1.479 . S
C22 C17 1.245 . S
C22 C18 1.477 . S
C22 H39 0.932 . S
C23 U6 2.882 . S
C23 C17 1.428 . S
C23 O26 1.301 . S
C23 O27 1.282 . S
O24 U6 2.441 . S
O24 C10 1.249 . S
O25 U6 2.420 . S
O25 C10 1.202 . S
O26 U6 2.455 . S
O26 C23 1.301 . S
O27 U6 2.449 . S
O27 C23 1.282 . S
H28 C1 0.931 . S
H29 C3 0.929 . S
H30 C4 0.930 . S
H31 C5 0.931 . S
H32 C12 0.932 . S
H33 C13 0.930 . S
H34 C14 0.929 . S
H35 C16 0.930 . S
H36 C18 0.961 . S
H37 C19 0.929 . S
H38 C20 0.928 . S
H39 C22 0.932 . S
C40 C41 1.264 . S
C40 C45 1.479 . S
C40 C50 1.465 . S
C41 C40 1.264 . S
C41 C43 1.339 . S
C41 H68 0.931 . S
C42 C43 1.395 . S
C42 C44 1.320 . S
C43 C41 1.339 . S
C43 C42 1.395 . S
C43 H69 0.929 . S
C44 C42 1.320 . S
C44 C45 1.405 . S
C44 H70 0.930 . S
C45 C40 1.479 . S
C45 C44 1.405 . S
C45 H71 0.931 . S
U46 O47 2.454 . S
U46 O48 2.458 . S
U46 C49 2.984 . S
U46 C50 2.847 . S
U46 C63 2.882 . S
U46 O64 2.441 . S
U46 O65 2.420 . S
U46 O66 2.455 . S
U46 O67 2.449 . S
O47 U46 2.454 . S
O47 C49 1.353 . S
O48 U46 2.458 . S
O48 C49 1.286 . S
C49 U46 2.984 . S
C49 O47 1.353 . S
C49 O48 1.286 . S
C49 C51 1.363 1_455 S
C50 C40 1.465 . S
C50 U46 2.847 . S
C50 O64 1.249 . S
C50 O65 1.202 . S
C51 C49 1.363 1_655 S
C51 C53 1.408 . S
C51 C56 1.342 1_655 S
C52 C53 1.310 . S
C52 C55 1.461 . S
C52 H72 0.932 . S
C53 C51 1.408 . S
C53 C52 1.310 . S
C53 H73 0.930 . S
C54 C55 1.474 . S
C54 C56 1.285 1_655 S
C54 H74 0.929 . S
C55 C52 1.461 . S
C55 C54 1.474 . S
C56 C51 1.342 1_455 S
C56 C54 1.285 1_455 S
C56 H75 0.930 . S
C57 C60 1.424 . S
C57 C62 1.245 . S
C57 C63 1.428 . S
C58 C61 1.260 . S
C58 C62 1.477 . S
C58 H76 0.932 . S
C59 C60 1.384 . S
C59 C61 1.479 . S
C59 H77 0.929 . S
C60 C57 1.424 . S
C60 C59 1.384 . S
C60 H78 0.928 . S
C61 C58 1.260 . S
C61 C59 1.479 . S
C62 C57 1.245 . S
C62 C58 1.477 . S
C62 H79 0.932 . S
C63 U46 2.882 . S
C63 C57 1.428 . S
C63 O66 1.301 . S
C63 O67 1.282 . S
O64 U46 2.441 . S
O64 C50 1.249 . S
O65 U46 2.420 . S
O65 C50 1.202 . S
O66 U46 2.455 . S
O66 C63 1.301 . S
O67 U46 2.449 . S
O67 C63 1.282 . S
H68 C41 0.931 . S
H69 C43 0.929 . S
H70 C44 0.930 . S
H71 C45 0.931 . S
H72 C52 0.932 . S
H73 C53 0.930 . S
H74 C54 0.929 . S
H75 C56 0.930 . S
H76 C58 0.932 . S
H77 C59 0.929 . S
H78 C60 0.928 . S
H79 C62 0.932 . S
C80 C81 1.264 . S
C80 C85 1.479 . S
C80 C90 1.465 . S
C81 C80 1.264 . S
C81 C83 1.339 . S
C81 H108 0.931 . S
C82 C83 1.395 . S
C82 C84 1.320 . S
C83 C81 1.339 . S
C83 C82 1.395 . S
C83 H109 0.929 . S
C84 C82 1.320 . S
C84 C85 1.405 . S
C84 H110 0.930 . S
C85 C80 1.479 . S
C85 C84 1.405 . S
C85 H111 0.931 . S
U86 O87 2.454 . S
U86 O88 2.458 . S
U86 C89 2.984 . S
U86 C90 2.847 . S
U86 C103 2.882 . S
U86 O104 2.441 . S
U86 O105 2.420 . S
U86 O106 2.455 . S
U86 O107 2.449 . S
O87 U86 2.454 . S
O87 C89 1.353 . S
O88 U86 2.458 . S
O88 C89 1.286 . S
C89 U86 2.984 . S
C89 O87 1.353 . S
C89 O88 1.286 . S
C89 C91 1.363 1_545 S
C90 C80 1.465 . S
C90 U86 2.847 . S
C90 O104 1.249 . S
C90 O105 1.202 . S
C91 C89 1.363 1_565 S
C91 C93 1.408 . S
C91 C96 1.342 1_565 S
C92 C93 1.310 . S
C92 C95 1.461 . S
C92 H112 0.932 . S
C93 C91 1.408 . S
C93 C92 1.310 . S
C93 H113 0.930 . S
C94 C95 1.474 . S
C94 C96 1.285 1_565 S
C94 H114 0.929 . S
C95 C92 1.461 . S
C95 C94 1.474 . S
C96 C91 1.342 1_545 S
C96 C94 1.285 1_545 S
C96 H115 0.930 . S
C97 C100 1.424 . S
C97 C102 1.245 . S
C97 C103 1.428 . S
C98 C101 1.260 . S
C98 C102 1.477 . S
C98 H116 0.932 . S
C99 C100 1.384 . S
C99 C101 1.479 . S
C99 H117 0.929 . S
C100 C97 1.424 . S
C100 C99 1.384 . S
C100 H118 0.928 . S
C101 C98 1.260 . S
C101 C99 1.479 . S
C102 C97 1.245 . S
C102 C98 1.477 . S
C102 H119 0.932 . S
C103 U86 2.882 . S
C103 C97 1.428 . S
C103 O106 1.301 . S
C103 O107 1.282 . S
O104 U86 2.441 . S
O104 C90 1.249 . S
O105 U86 2.420 . S
O105 C90 1.202 . S
O106 U86 2.455 . S
O106 C103 1.301 . S
O107 U86 2.449 . S
O107 C103 1.282 . S
H108 C81 0.931 . S
H109 C83 0.929 . S
H110 C84 0.930 . S
H111 C85 0.931 . S
H112 C92 0.932 . S
H113 C93 0.930 . S
H114 C94 0.929 . S
H115 C96 0.930 . S
H116 C98 0.932 . S
H117 C99 0.929 . S
H118 C100 0.928 . S
H119 C102 0.932 . S
C120 C121 1.264 . S
C120 C125 1.479 . S
C120 C130 1.465 . S
C121 C120 1.264 . S
C121 C123 1.339 . S
C121 H148 0.931 . S
C122 C123 1.395 . S
C122 C124 1.320 . S
C123 C121 1.339 . S
C123 C122 1.395 . S
C123 H149 0.929 . S
C124 C122 1.320 . S
C124 C125 1.405 . S
C124 H150 0.930 . S
C125 C120 1.479 . S
C125 C124 1.405 . S
C125 H151 0.931 . S
U126 O127 2.454 . S
U126 O128 2.458 . S
U126 C129 2.984 . S
U126 C130 2.847 . S
U126 C143 2.882 . S
U126 O144 2.441 . S
U126 O145 2.420 . S
U126 O146 2.455 . S
U126 O147 2.449 . S
O127 U126 2.454 . S
O127 C129 1.353 . S
O128 U126 2.458 . S
O128 C129 1.286 . S
C129 U126 2.984 . S
C129 O127 1.353 . S
C129 O128 1.286 . S
C129 C131 1.363 . S
C130 C120 1.465 . S
C130 U126 2.847 . S
C130 O144 1.249 . S
C130 O145 1.202 . S
C131 C129 1.363 . S
C131 C133 1.408 . S
C131 C136 1.342 1_554 S
C132 C133 1.310 . S
C132 C135 1.461 1_554 S
C132 H152 0.932 . S
C133 C131 1.408 . S
C133 C132 1.310 . S
C133 H153 0.930 . S
C134 C135 1.474 . S
C134 C136 1.285 . S
C134 H154 0.929 . S
C135 C132 1.461 1_556 S
C135 C134 1.474 . S
C136 C131 1.342 1_556 S
C136 C134 1.285 . S
C136 H155 0.930 . S
C137 C140 1.424 . S
C137 C142 1.245 . S
C137 C143 1.428 . S
C138 C141 1.260 . S
C138 C142 1.477 . S
C138 H156 0.961 . S
C139 C140 1.384 . S
C139 C141 1.479 . S
C139 H157 0.929 . S
C140 C137 1.424 . S
C140 C139 1.384 . S
C140 H158 0.928 . S
C141 C138 1.260 . S
C141 C139 1.479 . S
C142 C137 1.245 . S
C142 C138 1.477 . S
C142 H159 0.932 . S
C143 U126 2.882 . S
C143 C137 1.428 . S
C143 O146 1.301 . S
C143 O147 1.282 . S
O144 U126 2.441 . S
O144 C130 1.249 . S
O145 U126 2.420 . S
O145 C130 1.202 . S
O146 U126 2.455 . S
O146 C143 1.301 . S
O147 U126 2.449 . S
O147 C143 1.282 . S
H148 C121 0.931 . S
H149 C123 0.929 . S
H150 C124 0.930 . S
H151 C125 0.931 . S
H152 C132 0.932 . S
H153 C133 0.930 . S
H154 C134 0.929 . S
H155 C136 0.930 . S
H156 C138 0.961 . S
H157 C139 0.929 . S
H158 C140 0.928 . S
H159 C142 0.932 . S
C160 C161 1.264 . S
C160 C165 1.479 . S
C160 C170 1.465 . S
C161 C160 1.264 . S
C161 C163 1.339 . S
C161 H188 0.931 . S
C162 C163 1.395 . S
C162 C164 1.320 . S
C163 C161 1.339 . S
C163 C162 1.395 . S
C163 H189 0.929 . S
C164 C162 1.320 . S
C164 C165 1.405 . S
C164 H190 0.930 . S
C165 C160 1.479 . S
C165 C164 1.405 . S
C165 H191 0.931 . S
U166 O167 2.454 . S
U166 O168 2.458 . S
U166 C169 2.984 . S
U166 C170 2.847 . S
U166 C183 2.882 . S
U166 O184 2.441 . S
U166 O185 2.420 . S
U166 O186 2.455 . S
U166 O187 2.449 . S
O167 U166 2.454 . S
O167 C169 1.353 . S
O168 U166 2.458 . S
O168 C169 1.286 . S
C169 U166 2.984 . S
C169 O167 1.353 . S
C169 O168 1.286 . S
C169 C171 1.363 1_655 S
C170 C160 1.465 . S
C170 U166 2.847 . S
C170 O184 1.249 . S
C170 O185 1.202 . S
C171 C169 1.363 1_455 S
C171 C173 1.408 . S
C171 C176 1.342 1_455 S
C172 C173 1.310 . S
C172 C175 1.461 . S
C172 H192 0.932 . S
C173 C171 1.408 . S
C173 C172 1.310 . S
C173 H193 0.930 . S
C174 C175 1.474 . S
C174 C176 1.285 1_455 S
C174 H194 0.929 . S
C175 C172 1.461 . S
C175 C174 1.474 . S
C176 C171 1.342 1_655 S
C176 C174 1.285 1_655 S
C176 H195 0.930 . S
C177 C180 1.424 . S
C177 C182 1.245 . S
C177 C183 1.428 . S
C178 C181 1.260 . S
C178 C182 1.477 . S
C178 H196 0.932 . S
C179 C180 1.384 . S
C179 C181 1.479 . S
C179 H197 0.929 . S
C180 C177 1.424 . S
C180 C179 1.384 . S
C180 H198 0.928 . S
C181 C178 1.260 . S
C181 C179 1.479 . S
C182 C177 1.245 . S
C182 C178 1.477 . S
C182 H199 0.932 . S
C183 U166 2.882 . S
C183 C177 1.428 . S
C183 O186 1.301 . S
C183 O187 1.282 . S
O184 U166 2.441 . S
O184 C170 1.249 . S
O185 U166 2.420 . S
O185 C170 1.202 . S
O186 U166 2.455 . S
O186 C183 1.301 . S
O187 U166 2.449 . S
O187 C183 1.282 . S
H188 C161 0.931 . S
H189 C163 0.929 . S
H190 C164 0.930 . S
H191 C165 0.931 . S
H192 C172 0.932 . S
H193 C173 0.930 . S
H194 C174 0.929 . S
H195 C176 0.930 . S
H196 C178 0.932 . S
H197 C179 0.929 . S
H198 C180 0.928 . S
H199 C182 0.932 . S
C200 C201 1.264 . S
C200 C205 1.479 . S
C200 C210 1.465 . S
C201 C200 1.264 . S
C201 C203 1.339 . S
C201 H228 0.931 . S
C202 C203 1.395 . S
C202 C204 1.320 . S
C203 C201 1.339 . S
C203 C202 1.395 . S
C203 H229 0.929 . S
C204 C202 1.320 . S
C204 C205 1.405 . S
C204 H230 0.930 . S
C205 C200 1.479 . S
C205 C204 1.405 . S
C205 H231 0.931 . S
U206 O207 2.454 . S
U206 O208 2.458 . S
U206 C209 2.984 . S
U206 C210 2.847 . S
U206 C223 2.882 . S
U206 O224 2.441 . S
U206 O225 2.420 . S
U206 O226 2.455 . S
U206 O227 2.449 . S
O207 U206 2.454 . S
O207 C209 1.353 . S
O208 U206 2.458 . S
O208 C209 1.286 . S
C209 U206 2.984 . S
C209 O207 1.353 . S
C209 O208 1.286 . S
C209 C211 1.363 1_565 S
C210 C200 1.465 . S
C210 U206 2.847 . S
C210 O224 1.249 . S
C210 O225 1.202 . S
C211 C209 1.363 1_545 S
C211 C213 1.408 . S
C211 C216 1.342 1_545 S
C212 C213 1.310 . S
C212 C215 1.461 . S
C212 H232 0.932 . S
C213 C211 1.408 . S
C213 C212 1.310 . S
C213 H233 0.930 . S
C214 C215 1.474 . S
C214 C216 1.285 1_545 S
C214 H234 0.929 . S
C215 C212 1.461 . S
C215 C214 1.474 . S
C216 C211 1.342 1_565 S
C216 C214 1.285 1_565 S
C216 H235 0.930 . S
C217 C220 1.424 . S
C217 C222 1.245 . S
C217 C223 1.428 . S
C218 C221 1.260 . S
C218 C222 1.477 . S
C218 H236 0.932 . S
C219 C220 1.384 . S
C219 C221 1.479 . S
C219 H237 0.929 . S
C220 C217 1.424 . S
C220 C219 1.384 . S
C220 H238 0.928 . S
C221 C218 1.260 . S
C221 C219 1.479 . S
C222 C217 1.245 . S
C222 C218 1.477 . S
C222 H239 0.932 . S
C223 U206 2.882 . S
C223 C217 1.428 . S
C223 O226 1.301 . S
C223 O227 1.282 . S
O224 U206 2.441 . S
O224 C210 1.249 . S
O225 U206 2.420 . S
O225 C210 1.202 . S
O226 U206 2.455 . S
O226 C223 1.301 . S
O227 U206 2.449 . S
O227 C223 1.282 . S
H228 C201 0.931 . S
H229 C203 0.929 . S
H230 C204 0.930 . S
H231 C205 0.931 . S
H232 C212 0.932 . S
H233 C213 0.930 . S
H234 C214 0.929 . S
H235 C216 0.930 . S
H236 C218 0.932 . S
H237 C219 0.929 . S
H238 C220 0.928 . S
H239 C222 0.932 . S
C240 C241 1.264 . S
C240 C245 1.479 . S
C240 C250 1.465 . S
C241 C240 1.264 . S
C241 C243 1.339 . S
C241 H268 0.931 . S
C242 C243 1.395 . S
C242 C244 1.320 . S
C243 C241 1.339 . S
C243 C242 1.395 . S
C243 H269 0.929 . S
C244 C242 1.320 . S
C244 C245 1.405 . S
C244 H270 0.930 . S
C245 C240 1.479 . S
C245 C244 1.405 . S
C245 H271 0.931 . S
U246 O247 2.454 . S
U246 O248 2.458 . S
U246 C249 2.984 . S
U246 C250 2.847 . S
U246 C263 2.882 . S
U246 O264 2.441 . S
U246 O265 2.420 . S
U246 O266 2.455 . S
U246 O267 2.449 . S
O247 U246 2.454 . S
O247 C249 1.353 . S
O248 U246 2.458 . S
O248 C249 1.286 . S
C249 U246 2.984 . S
C249 O247 1.353 . S
C249 O248 1.286 . S
C249 C251 1.363 . S
C250 C240 1.465 . S
C250 U246 2.847 . S
C250 O264 1.249 . S
C250 O265 1.202 . S
C251 C249 1.363 . S
C251 C253 1.408 . S
C251 C256 1.342 . S
C252 C253 1.310 . S
C252 C255 1.461 . S
C252 H272 0.932 . S
C253 C251 1.408 . S
C253 C252 1.310 . S
C253 H273 0.930 . S
C254 C255 1.474 . S
C254 C256 1.285 . S
C254 H274 0.929 . S
C255 C252 1.461 . S
C255 C254 1.474 . S
C256 C251 1.342 . S
C256 C254 1.285 . S
C256 H275 0.930 . S
C257 C260 1.424 . S
C257 C262 1.245 . S
C257 C263 1.428 . S
C258 C261 1.260 . S
C258 C262 1.477 . S
C258 H276 0.932 . S
C259 C260 1.384 . S
C259 C261 1.479 . S
C259 H277 0.929 . S
C260 C257 1.424 . S
C260 C259 1.384 . S
C260 H278 0.928 . S
C261 C258 1.260 . S
C261 C259 1.479 . S
C262 C257 1.245 . S
C262 C258 1.477 . S
C262 H279 0.932 . S
C263 U246 2.882 . S
C263 C257 1.428 . S
C263 O266 1.301 . S
C263 O267 1.282 . S
O264 U246 2.441 . S
O264 C250 1.249 . S
O265 U246 2.420 . S
O265 C250 1.202 . S
O266 U246 2.455 . S
O266 C263 1.301 . S
O267 U246 2.449 . S
O267 C263 1.282 . S
H268 C241 0.931 . S
H269 C243 0.929 . S
H270 C244 0.930 . S
H271 C245 0.931 . S
H272 C252 0.932 . S
H273 C253 0.930 . S
H274 C254 0.929 . S
H275 C256 0.930 . S
H276 C258 0.932 . S
H277 C259 0.929 . S
H278 C260 0.928 . S
H279 C262 0.932 . S
C280 C281 1.264 . S
C280 C285 1.479 . S
C280 C290 1.465 . S
C281 C280 1.264 . S
C281 C283 1.339 . S
C281 H308 0.931 . S
C282 C283 1.395 . S
C282 C284 1.320 . S
C283 C281 1.339 . S
C283 C282 1.395 . S
C283 H309 0.929 . S
C284 C282 1.320 . S
C284 C285 1.405 . S
C284 H310 0.930 . S
C285 C280 1.479 . S
C285 C284 1.405 . S
C285 H311 0.931 . S
U286 O287 2.454 . S
U286 O288 2.458 . S
U286 C289 2.984 . S
U286 C290 2.847 . S
U286 C303 2.882 . S
U286 O304 2.441 . S
U286 O305 2.420 . S
U286 O306 2.455 . S
U286 O307 2.449 . S
O287 U286 2.454 . S
O287 C289 1.353 . S
O288 U286 2.458 . S
O288 C289 1.286 . S
C289 U286 2.984 . S
C289 O287 1.353 . S
C289 O288 1.286 . S
C289 C291 1.363 1_455 S
C290 C280 1.465 . S
C290 U286 2.847 . S
C290 O304 1.249 . S
C290 O305 1.202 . S
C291 C289 1.363 1_655 S
C291 C293 1.408 . S
C291 C296 1.342 1_656 S
C292 C293 1.310 . S
C292 C295 1.461 1_556 S
C292 H312 0.932 . S
C293 C291 1.408 . S
C293 C292 1.310 . S
C293 H313 0.930 . S
C294 C295 1.474 . S
C294 C296 1.285 1_655 S
C294 H314 0.929 . S
C295 C292 1.461 1_554 S
C295 C294 1.474 . S
C296 C291 1.342 1_454 S
C296 C294 1.285 1_455 S
C296 H315 0.930 . S
C297 C300 1.424 . S
C297 C302 1.245 . S
C297 C303 1.428 . S
C298 C301 1.260 . S
C298 C302 1.477 . S
C298 H316 0.961 . S
C299 C300 1.384 . S
C299 C301 1.479 . S
C299 H317 0.929 . S
C300 C297 1.424 . S
C300 C299 1.384 . S
C300 H318 0.928 . S
C301 C298 1.260 . S
C301 C299 1.479 . S
C302 C297 1.245 . S
C302 C298 1.477 . S
C302 H319 0.932 . S
C303 U286 2.882 . S
C303 C297 1.428 . S
C303 O306 1.301 . S
C303 O307 1.282 . S
O304 U286 2.441 . S
O304 C290 1.249 . S
O305 U286 2.420 . S
O305 C290 1.202 . S
O306 U286 2.455 . S
O306 C303 1.301 . S
O307 U286 2.449 . S
O307 C303 1.282 . S
H308 C281 0.931 . S
H309 C283 0.929 . S
H310 C284 0.930 . S
H311 C285 0.931 . S
H312 C292 0.932 . S
H313 C293 0.930 . S
H314 C294 0.929 . S
H315 C296 0.930 . S
H316 C298 0.961 . S
H317 C299 0.929 . S
H318 C300 0.928 . S
H319 C302 0.932 . S
C320 C321 1.264 . S
C320 C325 1.479 . S
C320 C330 1.465 . S
C321 C320 1.264 . S
C321 C323 1.339 . S
C321 H348 0.931 . S
C322 C323 1.395 . S
C322 C324 1.320 . S
C323 C321 1.339 . S
C323 C322 1.395 . S
C323 H349 0.929 . S
C324 C322 1.320 . S
C324 C325 1.405 . S
C324 H350 0.930 . S
C325 C320 1.479 . S
C325 C324 1.405 . S
C325 H351 0.931 . S
U326 O327 2.454 . S
U326 O328 2.458 . S
U326 C329 2.984 . S
U326 C330 2.847 . S
U326 C343 2.882 . S
U326 O344 2.441 . S
U326 O345 2.420 . S
U326 O346 2.455 . S
U326 O347 2.449 . S
O327 U326 2.454 . S
O327 C329 1.353 . S
O328 U326 2.458 . S
O328 C329 1.286 . S
C329 U326 2.984 . S
C329 O327 1.353 . S
C329 O328 1.286 . S
C329 C331 1.363 1_545 S
C330 C320 1.465 . S
C330 U326 2.847 . S
C330 O344 1.249 . S
C330 O345 1.202 . S
C331 C329 1.363 1_565 S
C331 C333 1.408 . S
C331 C336 1.342 1_565 S
C332 C333 1.310 . S
C332 C335 1.461 . S
C332 H352 0.932 . S
C333 C331 1.408 . S
C333 C332 1.310 . S
C333 H353 0.930 . S
C334 C335 1.474 . S
C334 C336 1.285 1_565 S
C334 H354 0.929 . S
C335 C332 1.461 . S
C335 C334 1.474 . S
C336 C331 1.342 1_545 S
C336 C334 1.285 1_545 S
C336 H355 0.930 . S
C337 C340 1.424 . S
C337 C342 1.245 . S
C337 C343 1.428 . S
C338 C341 1.260 . S
C338 C342 1.477 . S
C338 H356 0.932 . S
C339 C340 1.384 . S
C339 C341 1.479 . S
C339 H357 0.929 . S
C340 C337 1.424 . S
C340 C339 1.384 . S
C340 H358 0.928 . S
C341 C338 1.260 . S
C341 C339 1.479 . S
C342 C337 1.245 . S
C342 C338 1.477 . S
C342 H359 0.932 . S
C343 U326 2.882 . S
C343 C337 1.428 . S
C343 O346 1.301 . S
C343 O347 1.282 . S
O344 U326 2.441 . S
O344 C330 1.249 . S
O345 U326 2.420 . S
O345 C330 1.202 . S
O346 U326 2.455 . S
O346 C343 1.301 . S
O347 U326 2.449 . S
O347 C343 1.282 . S
H348 C321 0.931 . S
H349 C323 0.929 . S
H350 C324 0.930 . S
H351 C325 0.931 . S
H352 C332 0.932 . S
H353 C333 0.930 . S
H354 C334 0.929 . S
H355 C336 0.930 . S
H356 C338 0.932 . S
H357 C339 0.929 . S
H358 C340 0.928 . S
H359 C342 0.932 . S
C360 C361 1.264 . S
C360 C365 1.479 . S
C360 C370 1.465 . S
C361 C360 1.264 . S
C361 C363 1.339 . S
C361 H388 0.931 . S
C362 C363 1.395 . S
C362 C364 1.320 . S
C363 C361 1.339 . S
C363 C362 1.395 . S
C363 H389 0.929 . S
C364 C362 1.320 . S
C364 C365 1.405 . S
C364 H390 0.930 . S
C365 C360 1.479 . S
C365 C364 1.405 . S
C365 H391 0.931 . S
U366 O367 2.454 . S
U366 O368 2.458 . S
U366 C369 2.984 . S
U366 C370 2.847 . S
U366 C383 2.882 . S
U366 O384 2.441 . S
U366 O385 2.420 . S
U366 O386 2.455 . S
U366 O387 2.449 . S
O367 U366 2.454 . S
O367 C369 1.353 . S
O368 U366 2.458 . S
O368 C369 1.286 . S
C369 U366 2.984 . S
C369 O367 1.353 . S
C369 O368 1.286 . S
C369 C371 1.363 . S
C370 C360 1.465 . S
C370 U366 2.847 . S
C370 O384 1.249 . S
C370 O385 1.202 . S
C371 C369 1.363 . S
C371 C373 1.408 . S
C371 C376 1.342 . S
C372 C373 1.310 . S
C372 C375 1.461 . S
C372 H392 0.932 . S
C373 C371 1.408 . S
C373 C372 1.310 . S
C373 H393 0.930 . S
C374 C375 1.474 . S
C374 C376 1.285 . S
C374 H394 0.929 . S
C375 C372 1.461 . S
C375 C374 1.474 . S
C376 C371 1.342 . S
C376 C374 1.285 . S
C376 H395 0.930 . S
C377 C380 1.424 . S
C377 C382 1.245 . S
C377 C383 1.428 . S
C378 C381 1.260 . S
C378 C382 1.477 . S
C378 H396 0.932 . S
C379 C380 1.384 . S
C379 C381 1.479 . S
C379 H397 0.929 . S
C380 C377 1.424 . S
C380 C379 1.384 . S
C380 H398 0.928 . S
C381 C378 1.260 . S
C381 C379 1.479 . S
C382 C377 1.245 . S
C382 C378 1.477 . S
C382 H399 0.932 . S
C383 U366 2.882 . S
C383 C377 1.428 . S
C383 O386 1.301 . S
C383 O387 1.282 . S
O384 U366 2.441 . S
O384 C370 1.249 . S
O385 U366 2.420 . S
O385 C370 1.202 . S
O386 U366 2.455 . S
O386 C383 1.301 . S
O387 U366 2.449 . S
O387 C383 1.282 . S
H388 C361 0.931 . S
H389 C363 0.929 . S
H390 C364 0.930 . S
H391 C365 0.931 . S
H392 C372 0.932 . S
H393 C373 0.930 . S
H394 C374 0.929 . S
H395 C376 0.930 . S
H396 C378 0.932 . S
H397 C379 0.929 . S
H398 C380 0.928 . S
H399 C382 0.932 . S
C400 C401 1.264 . S
C400 C405 1.479 . S
C400 C410 1.465 . S
C401 C400 1.264 . S
C401 C403 1.339 . S
C401 H428 0.931 . S
C402 C403 1.395 . S
C402 C404 1.320 . S
C403 C401 1.339 . S
C403 C402 1.395 . S
C403 H429 0.929 . S
C404 C402 1.320 . S
C404 C405 1.405 . S
C404 H430 0.930 . S
C405 C400 1.479 . S
C405 C404 1.405 . S
C405 H431 0.931 . S
U406 O407 2.454 . S
U406 O408 2.458 . S
U406 C409 2.984 . S
U406 C410 2.847 . S
U406 C423 2.882 . S
U406 O424 2.441 . S
U406 O425 2.420 . S
U406 O426 2.455 . S
U406 O427 2.449 . S
O407 U406 2.454 . S
O407 C409 1.353 . S
O408 U406 2.458 . S
O408 C409 1.286 . S
C409 U406 2.984 . S
C409 O407 1.353 . S
C409 O408 1.286 . S
C409 C411 1.363 1_655 S
C410 C400 1.465 . S
C410 U406 2.847 . S
C410 O424 1.249 . S
C410 O425 1.202 . S
C411 C409 1.363 1_455 S
C411 C413 1.408 . S
C411 C416 1.342 1_456 S
C412 C413 1.310 . S
C412 C415 1.461 1_556 S
C412 H432 0.932 . S
C413 C411 1.408 . S
C413 C412 1.310 . S
C413 H433 0.930 . S
C414 C415 1.474 . S
C414 C416 1.285 1_455 S
C414 H434 0.929 . S
C415 C412 1.461 1_554 S
C415 C414 1.474 . S
C416 C411 1.342 1_654 S
C416 C414 1.285 1_655 S
C416 H435 0.930 . S
C417 C420 1.424 . S
C417 C422 1.245 . S
C417 C423 1.428 . S
C418 C421 1.260 . S
C418 C422 1.477 . S
C418 H436 0.961 . S
C419 C420 1.384 . S
C419 C421 1.479 . S
C419 H437 0.929 . S
C420 C417 1.424 . S
C420 C419 1.384 . S
C420 H438 0.928 . S
C421 C418 1.260 . S
C421 C419 1.479 . S
C422 C417 1.245 . S
C422 C418 1.477 . S
C422 H439 0.932 . S
C423 U406 2.882 . S
C423 C417 1.428 . S
C423 O426 1.301 . S
C423 O427 1.282 . S
O424 U406 2.441 . S
O424 C410 1.249 . S
O425 U406 2.420 . S
O425 C410 1.202 . S
O426 U406 2.455 . S
O426 C423 1.301 . S
O427 U406 2.449 . S
O427 C423 1.282 . S
H428 C401 0.931 . S
H429 C403 0.929 . S
H430 C404 0.930 . S
H431 C405 0.931 . S
H432 C412 0.932 . S
H433 C413 0.930 . S
H434 C414 0.929 . S
H435 C416 0.930 . S
H436 C418 0.961 . S
H437 C419 0.929 . S
H438 C420 0.928 . S
H439 C422 0.932 . S
C440 C441 1.264 . S
C440 C445 1.479 . S
C440 C450 1.465 . S
C441 C440 1.264 . S
C441 C443 1.339 . S
C441 H468 0.931 . S
C442 C443 1.395 . S
C442 C444 1.320 . S
C443 C441 1.339 . S
C443 C442 1.395 . S
C443 H469 0.929 . S
C444 C442 1.320 . S
C444 C445 1.405 . S
C444 H470 0.930 . S
C445 C440 1.479 . S
C445 C444 1.405 . S
C445 H471 0.931 . S
U446 O447 2.454 . S
U446 O448 2.458 . S
U446 C449 2.984 . S
U446 C450 2.847 . S
U446 C463 2.882 . S
U446 O464 2.441 . S
U446 O465 2.420 . S
U446 O466 2.455 . S
U446 O467 2.449 . S
O447 U446 2.454 . S
O447 C449 1.353 . S
O448 U446 2.458 . S
O448 C449 1.286 . S
C449 U446 2.984 . S
C449 O447 1.353 . S
C449 O448 1.286 . S
C449 C451 1.363 1_565 S
C450 C440 1.465 . S
C450 U446 2.847 . S
C450 O464 1.249 . S
C450 O465 1.202 . S
C451 C449 1.363 1_545 S
C451 C453 1.408 . S
C451 C456 1.342 1_545 S
C452 C453 1.310 . S
C452 C455 1.461 . S
C452 H472 0.932 . S
C453 C451 1.408 . S
C453 C452 1.310 . S
C453 H473 0.930 . S
C454 C455 1.474 . S
C454 C456 1.285 1_545 S
C454 H474 0.929 . S
C455 C452 1.461 . S
C455 C454 1.474 . S
C456 C451 1.342 1_565 S
C456 C454 1.285 1_565 S
C456 H475 0.930 . S
C457 C460 1.424 . S
C457 C462 1.245 . S
C457 C463 1.428 . S
C458 C461 1.260 . S
C458 C462 1.477 . S
C458 H476 0.932 . S
C459 C460 1.384 . S
C459 C461 1.479 . S
C459 H477 0.929 . S
C460 C457 1.424 . S
C460 C459 1.384 . S
C460 H478 0.928 . S
C461 C458 1.260 . S
C461 C459 1.479 . S
C462 C457 1.245 . S
C462 C458 1.477 . S
C462 H479 0.932 . S
C463 U446 2.882 . S
C463 C457 1.428 . S
C463 O466 1.301 . S
C463 O467 1.282 . S
O464 U446 2.441 . S
O464 C450 1.249 . S
O465 U446 2.420 . S
O465 C450 1.202 . S
O466 U446 2.455 . S
O466 C463 1.301 . S
O467 U446 2.449 . S
O467 C463 1.282 . S
H468 C441 0.931 . S
H469 C443 0.929 . S
H470 C444 0.930 . S
H471 C445 0.931 . S
H472 C452 0.932 . S
H473 C453 0.930 . S
H474 C454 0.929 . S
H475 C456 0.930 . S
H476 C458 0.932 . S
H477 C459 0.929 . S
H478 C460 0.928 . S
H479 C462 0.932 . S
C2 C242 3.597 . S
C42 C282 3.597 . S
C82 C322 3.597 . S
C362 C122 3.597 . S
C162 C402 3.597 . S
C442 C202 3.597 . S
C21 C141 2.168 1_545 S
C61 C181 2.168 . S
C221 C101 2.169 1_455 S
C261 C381 2.168 1_655 S
C421 C301 2.169 1_545 S
C461 C341 2.168 . S
C415 C15 3.332 1_554 S
C455 C55 3.332 . S
C95 C255 3.332 . S
C135 C295 3.333 1_556 S
C335 C175 3.332 . S
C215 C375 3.333 . S
