# Generated by pormake.
# Topology wlt, (5)-cn, num edge types: 1
# Building blocks:
#     Node 0, Type 0, BuildingBlock: XOMCOT_clean_sbu_1, # of connection points: 5
#     Node 1, Type 0, BuildingBlock: XOMCOT_clean_sbu_1, # of connection points: 5
#     Node 2, Type 0, BuildingBlock: XOMCOT_clean_sbu_1, # of connection points: 5
#     Node 3, Type 0, BuildingBlock: XOMCOT_clean_sbu_1, # of connection points: 5
#     Node 4, Type 0, BuildingBlock: XOMCOT_clean_sbu_1, # of connection points: 5
#     Node 5, Type 0, BuildingBlock: XOMCOT_clean_sbu_1, # of connection points: 5
#     Node 6, Type 0, BuildingBlock: XOMCOT_clean_sbu_1, # of connection points: 5
#     Node 7, Type 0, BuildingBlock: XOMCOT_clean_sbu_1, # of connection points: 5
#     Node 8, Type 0, BuildingBlock: XOMCOT_clean_sbu_1, # of connection points: 5
#     Node 9, Type 0, BuildingBlock: XOMCOT_clean_sbu_1, # of connection points: 5
#     Node 10, Type 0, BuildingBlock: XOMCOT_clean_sbu_1, # of connection points: 5
#     Node 11, Type 0, BuildingBlock: XOMCOT_clean_sbu_1, # of connection points: 5
#     Node 12, Type 0, BuildingBlock: XOMCOT_clean_sbu_1, # of connection points: 5
#     Node 13, Type 0, BuildingBlock: XOMCOT_clean_sbu_1, # of connection points: 5
#     Node 14, Type 0, BuildingBlock: XOMCOT_clean_sbu_1, # of connection points: 5
#     Node 15, Type 0, BuildingBlock: XOMCOT_clean_sbu_1, # of connection points: 5
#     Node 16, Type 0, BuildingBlock: XOMCOT_clean_sbu_1, # of connection points: 5
#     Node 17, Type 0, BuildingBlock: XOMCOT_clean_sbu_1, # of connection points: 5
#     Node 18, Type 0, BuildingBlock: XOMCOT_clean_sbu_1, # of connection points: 5
#     Node 19, Type 0, BuildingBlock: XOMCOT_clean_sbu_1, # of connection points: 5
#     Node 20, Type 0, BuildingBlock: XOMCOT_clean_sbu_1, # of connection points: 5
#     Node 21, Type 0, BuildingBlock: XOMCOT_clean_sbu_1, # of connection points: 5
#     Node 22, Type 0, BuildingBlock: XOMCOT_clean_sbu_1, # of connection points: 5
#     Node 23, Type 0, BuildingBlock: XOMCOT_clean_sbu_1, # of connection points: 5
#     Node 24, Type 0, BuildingBlock: XOMCOT_clean_sbu_1, # of connection points: 5
#     Node 25, Type 0, BuildingBlock: XOMCOT_clean_sbu_1, # of connection points: 5
#     Node 26, Type 0, BuildingBlock: XOMCOT_clean_sbu_1, # of connection points: 5
#     Node 27, Type 0, BuildingBlock: XOMCOT_clean_sbu_1, # of connection points: 5
#     Node 28, Type 0, BuildingBlock: XOMCOT_clean_sbu_1, # of connection points: 5
#     Node 29, Type 0, BuildingBlock: XOMCOT_clean_sbu_1, # of connection points: 5
#     Node 30, Type 0, BuildingBlock: XOMCOT_clean_sbu_1, # of connection points: 5
#     Node 31, Type 0, BuildingBlock: XOMCOT_clean_sbu_1, # of connection points: 5
#     Node 32, Type 0, BuildingBlock: XOMCOT_clean_sbu_1, # of connection points: 5
#     Node 33, Type 0, BuildingBlock: XOMCOT_clean_sbu_1, # of connection points: 5
#     Node 34, Type 0, BuildingBlock: XOMCOT_clean_sbu_1, # of connection points: 5
#     Node 35, Type 0, BuildingBlock: XOMCOT_clean_sbu_1, # of connection points: 5
#     Edge 36, Type (0, 0), BuildingBlock: XUDNAN_clean_linker_2, # of connection points: 2
#     Edge 37, Type (0, 0), BuildingBlock: XUDNAN_clean_linker_2, # of connection points: 2
#     Edge 38, Type (0, 0), BuildingBlock: XUDNAN_clean_linker_2, # of connection points: 2
#     Edge 39, Type (0, 0), BuildingBlock: XUDNAN_clean_linker_2, # of connection points: 2
#     Edge 40, Type (0, 0), BuildingBlock: XUDNAN_clean_linker_2, # of connection points: 2
#     Edge 41, Type (0, 0), BuildingBlock: XUDNAN_clean_linker_2, # of connection points: 2
#     Edge 42, Type (0, 0), BuildingBlock: XUDNAN_clean_linker_2, # of connection points: 2
#     Edge 43, Type (0, 0), BuildingBlock: XUDNAN_clean_linker_2, # of connection points: 2
#     Edge 44, Type (0, 0), BuildingBlock: XUDNAN_clean_linker_2, # of connection points: 2
#     Edge 45, Type (0, 0), BuildingBlock: XUDNAN_clean_linker_2, # of connection points: 2
#     Edge 46, Type (0, 0), BuildingBlock: XUDNAN_clean_linker_2, # of connection points: 2
#     Edge 47, Type (0, 0), BuildingBlock: XUDNAN_clean_linker_2, # of connection points: 2
#     Edge 48, Type (0, 0), BuildingBlock: XUDNAN_clean_linker_2, # of connection points: 2
#     Edge 49, Type (0, 0), BuildingBlock: XUDNAN_clean_linker_2, # of connection points: 2
#     Edge 50, Type (0, 0), BuildingBlock: XUDNAN_clean_linker_2, # of connection points: 2
#     Edge 51, Type (0, 0), BuildingBlock: XUDNAN_clean_linker_2, # of connection points: 2
#     Edge 52, Type (0, 0), BuildingBlock: XUDNAN_clean_linker_2, # of connection points: 2
#     Edge 53, Type (0, 0), BuildingBlock: XUDNAN_clean_linker_2, # of connection points: 2
#     Edge 54, Type (0, 0), BuildingBlock: XUDNAN_clean_linker_2, # of connection points: 2
#     Edge 55, Type (0, 0), BuildingBlock: XUDNAN_clean_linker_2, # of connection points: 2
#     Edge 56, Type (0, 0), BuildingBlock: XUDNAN_clean_linker_2, # of connection points: 2
#     Edge 57, Type (0, 0), BuildingBlock: XUDNAN_clean_linker_2, # of connection points: 2
#     Edge 58, Type (0, 0), BuildingBlock: XUDNAN_clean_linker_2, # of connection points: 2
#     Edge 59, Type (0, 0), BuildingBlock: XUDNAN_clean_linker_2, # of connection points: 2
#     Edge 60, Type (0, 0), BuildingBlock: XUDNAN_clean_linker_2, # of connection points: 2
#     Edge 61, Type (0, 0), BuildingBlock: XUDNAN_clean_linker_2, # of connection points: 2
#     Edge 62, Type (0, 0), BuildingBlock: XUDNAN_clean_linker_2, # of connection points: 2
#     Edge 63, Type (0, 0), BuildingBlock: XUDNAN_clean_linker_2, # of connection points: 2
#     Edge 64, Type (0, 0), BuildingBlock: XUDNAN_clean_linker_2, # of connection points: 2
#     Edge 65, Type (0, 0), BuildingBlock: XUDNAN_clean_linker_2, # of connection points: 2
#     Edge 66, Type (0, 0), BuildingBlock: XUDNAN_clean_linker_2, # of connection points: 2
#     Edge 67, Type (0, 0), BuildingBlock: XUDNAN_clean_linker_2, # of connection points: 2
#     Edge 68, Type (0, 0), BuildingBlock: XUDNAN_clean_linker_2, # of connection points: 2
#     Edge 69, Type (0, 0), BuildingBlock: XUDNAN_clean_linker_2, # of connection points: 2
#     Edge 70, Type (0, 0), BuildingBlock: XUDNAN_clean_linker_2, # of connection points: 2
#     Edge 71, Type (0, 0), BuildingBlock: XUDNAN_clean_linker_2, # of connection points: 2
#     Edge 72, Type (0, 0), BuildingBlock: XUDNAN_clean_linker_2, # of connection points: 2
#     Edge 73, Type (0, 0), BuildingBlock: XUDNAN_clean_linker_2, # of connection points: 2
#     Edge 74, Type (0, 0), BuildingBlock: XUDNAN_clean_linker_2, # of connection points: 2
#     Edge 75, Type (0, 0), BuildingBlock: XUDNAN_clean_linker_2, # of connection points: 2
#     Edge 76, Type (0, 0), BuildingBlock: XUDNAN_clean_linker_2, # of connection points: 2
#     Edge 77, Type (0, 0), BuildingBlock: XUDNAN_clean_linker_2, # of connection points: 2
#     Edge 78, Type (0, 0), BuildingBlock: XUDNAN_clean_linker_2, # of connection points: 2
#     Edge 79, Type (0, 0), BuildingBlock: XUDNAN_clean_linker_2, # of connection points: 2
#     Edge 80, Type (0, 0), BuildingBlock: XUDNAN_clean_linker_2, # of connection points: 2
#     Edge 81, Type (0, 0), BuildingBlock: XUDNAN_clean_linker_2, # of connection points: 2
#     Edge 82, Type (0, 0), BuildingBlock: XUDNAN_clean_linker_2, # of connection points: 2
#     Edge 83, Type (0, 0), BuildingBlock: XUDNAN_clean_linker_2, # of connection points: 2
#     Edge 84, Type (0, 0), BuildingBlock: XUDNAN_clean_linker_2, # of connection points: 2
#     Edge 85, Type (0, 0), BuildingBlock: XUDNAN_clean_linker_2, # of connection points: 2
#     Edge 86, Type (0, 0), BuildingBlock: XUDNAN_clean_linker_2, # of connection points: 2
#     Edge 87, Type (0, 0), BuildingBlock: XUDNAN_clean_linker_2, # of connection points: 2
#     Edge 88, Type (0, 0), BuildingBlock: XUDNAN_clean_linker_2, # of connection points: 2
#     Edge 89, Type (0, 0), BuildingBlock: XUDNAN_clean_linker_2, # of connection points: 2
#     Edge 90, Type (0, 0), BuildingBlock: XUDNAN_clean_linker_2, # of connection points: 2
#     Edge 91, Type (0, 0), BuildingBlock: XUDNAN_clean_linker_2, # of connection points: 2
#     Edge 92, Type (0, 0), BuildingBlock: XUDNAN_clean_linker_2, # of connection points: 2
#     Edge 93, Type (0, 0), BuildingBlock: XUDNAN_clean_linker_2, # of connection points: 2
#     Edge 94, Type (0, 0), BuildingBlock: XUDNAN_clean_linker_2, # of connection points: 2
#     Edge 95, Type (0, 0), BuildingBlock: XUDNAN_clean_linker_2, # of connection points: 2
#     Edge 96, Type (0, 0), BuildingBlock: XUDNAN_clean_linker_2, # of connection points: 2
#     Edge 97, Type (0, 0), BuildingBlock: XUDNAN_clean_linker_2, # of connection points: 2
#     Edge 98, Type (0, 0), BuildingBlock: XUDNAN_clean_linker_2, # of connection points: 2
#     Edge 99, Type (0, 0), BuildingBlock: XUDNAN_clean_linker_2, # of connection points: 2
#     Edge 100, Type (0, 0), BuildingBlock: XUDNAN_clean_linker_2, # of connection points: 2
#     Edge 101, Type (0, 0), BuildingBlock: XUDNAN_clean_linker_2, # of connection points: 2
#     Edge 102, Type (0, 0), BuildingBlock: XUDNAN_clean_linker_2, # of connection points: 2
#     Edge 103, Type (0, 0), BuildingBlock: XUDNAN_clean_linker_2, # of connection points: 2
#     Edge 104, Type (0, 0), BuildingBlock: XUDNAN_clean_linker_2, # of connection points: 2
#     Edge 105, Type (0, 0), BuildingBlock: XUDNAN_clean_linker_2, # of connection points: 2
#     Edge 106, Type (0, 0), BuildingBlock: XUDNAN_clean_linker_2, # of connection points: 2
#     Edge 107, Type (0, 0), BuildingBlock: XUDNAN_clean_linker_2, # of connection points: 2
#     Edge 108, Type (0, 0), BuildingBlock: XUDNAN_clean_linker_2, # of connection points: 2
#     Edge 109, Type (0, 0), BuildingBlock: XUDNAN_clean_linker_2, # of connection points: 2
#     Edge 110, Type (0, 0), BuildingBlock: XUDNAN_clean_linker_2, # of connection points: 2
#     Edge 111, Type (0, 0), BuildingBlock: XUDNAN_clean_linker_2, # of connection points: 2
#     Edge 112, Type (0, 0), BuildingBlock: XUDNAN_clean_linker_2, # of connection points: 2
#     Edge 113, Type (0, 0), BuildingBlock: XUDNAN_clean_linker_2, # of connection points: 2
#     Edge 114, Type (0, 0), BuildingBlock: XUDNAN_clean_linker_2, # of connection points: 2
#     Edge 115, Type (0, 0), BuildingBlock: XUDNAN_clean_linker_2, # of connection points: 2
#     Edge 116, Type (0, 0), BuildingBlock: XUDNAN_clean_linker_2, # of connection points: 2
#     Edge 117, Type (0, 0), BuildingBlock: XUDNAN_clean_linker_2, # of connection points: 2
#     Edge 118, Type (0, 0), BuildingBlock: XUDNAN_clean_linker_2, # of connection points: 2
#     Edge 119, Type (0, 0), BuildingBlock: XUDNAN_clean_linker_2, # of connection points: 2
#     Edge 120, Type (0, 0), BuildingBlock: XUDNAN_clean_linker_2, # of connection points: 2
#     Edge 121, Type (0, 0), BuildingBlock: XUDNAN_clean_linker_2, # of connection points: 2
#     Edge 122, Type (0, 0), BuildingBlock: XUDNAN_clean_linker_2, # of connection points: 2
#     Edge 123, Type (0, 0), BuildingBlock: XUDNAN_clean_linker_2, # of connection points: 2
#     Edge 124, Type (0, 0), BuildingBlock: XUDNAN_clean_linker_2, # of connection points: 2
#     Edge 125, Type (0, 0), BuildingBlock: XUDNAN_clean_linker_2, # of connection points: 2
# Relax obj value: 0.186
# Max RMSD: 0.191
# Mean RMSD: 0.191
data_MOF--net-wlt--node1-XOMCOT_clean_sbu_1--edge1-XUDNAN_clean_linker_2
_symmetry_space_group_name_H-M    P1
_symmetry_Int_Tables_number       1
_symmetry_cell_setting            triclinic
loop_
_symmetry_equiv_pos_as_xyz
'x, y, z'
_cell_length_a     65.376084
_cell_length_b     65.487485
_cell_length_c     49.793628
_cell_angle_alpha  89.984771
_cell_angle_beta   89.971431
_cell_angle_gamma 120.10187
loop_
_atom_site_label
_atom_site_type_symbol
_atom_site_fract_x
_atom_site_fract_y
_atom_site_fract_z
_atom_type_partial_charge
C0 C 0.22307 0.1963 0.02942 0.0
C1 C 0.20614 0.20068 0.01919 0.0
N2 N 0.20705 0.21889 0.03271 0.0
N3 N 0.23502 0.21188 0.04919 0.0
C4 C 0.22462 0.22535 0.05091 0.0
H5 H 0.22628 0.1825 0.02266 0.0
Co6 Co 0.26039 0.21349 0.06919 0.0
C7 C 0.29318 0.26438 0.05027 0.0
O8 O 0.30205 0.25925 0.02939 0.0
N9 N 0.28587 0.21533 0.08914 0.0
C10 C 0.32202 0.2236 0.1007 0.0
C11 C 0.30897 0.22842 0.0829 0.0
C12 C 0.28533 0.20255 0.1108 0.0
N13 N 0.30721 0.20723 0.11841 0.0
O14 O 0.2727 0.20605 0.03719 0.0
H15 H 0.31596 0.24005 0.06581 0.0
H16 H 0.26905 0.18967 0.12028 0.0
O17 O 0.27773 0.24783 0.0649 0.0
C18 C 0.26503 0.18404 0.04178 0.0
O19 O 0.25183 0.17467 0.06323 0.0
N20 N 0.24707 0.21642 0.10053 0.0
C21 C 0.23268 0.2079 0.15385 0.0
C22 C 0.24958 0.23078 0.14519 0.0
C23 C 0.25704 0.23455 0.11844 0.0
C24 C 0.22861 0.19507 0.10769 0.0
C25 C 0.22134 0.19029 0.13426 0.0
H26 H 0.27207 0.25132 0.11288 0.0
H27 H 0.22124 0.18085 0.09323 0.0
H28 H 0.23006 0.23981 0.06491 0.0
H29 H 0.19388 0.19104 0.00314 0.0
H30 H 0.34098 0.23115 0.0998 0.0
H31 H 0.25822 0.24534 0.15911 0.0
H32 H 0.20845 0.17229 0.13936 0.0
C33 C 0.84021 0.02751 0.05755 0.0
C34 C 0.83642 1.00563 0.05055 0.0
N35 N 0.81312 0.99117 0.04592 0.0
N36 N 0.81954 0.02731 0.05748 0.0
C37 C 0.80325 1.00488 0.05037 0.0
H38 H 0.85697 0.04243 0.06343 0.0
Co39 Co 0.81791 0.05364 0.06976 0.0
C40 C 0.76744 0.03711 0.07907 0.0
O41 O 0.7745 0.04964 0.10124 0.0
N42 N 0.81693 0.08096 0.08196 0.0
C43 C 0.81024 0.11114 0.08 0.0
C44 C 0.8072 0.09122 0.06722 0.0
C45 C 0.82605 0.09537 0.10365 0.0
N46 N 0.82213 0.11384 0.10303 0.0
O47 O 0.82677 0.06807 0.03417 0.0
H48 H 0.79856 0.0847 0.04806 0.0
H49 H 0.83547 0.09263 0.11965 0.0
O50 O 0.78289 0.03709 0.06299 0.0
C51 C 0.84891 0.08271 0.03742 0.0
O52 O 0.85818 0.08295 0.06089 0.0
N53 N 0.8137 0.04126 0.10439 0.0
C54 C 0.81698 0.0268 0.15584 0.0
C55 C 0.79633 0.01371 0.14068 0.0
C56 C 0.79534 0.02084 0.11447 0.0
C57 C 0.83443 0.05282 0.11813 0.0
C58 C 0.83633 0.04628 0.14405 0.0
H59 H 0.78007 1.0097 0.10233 0.0
H60 H 0.84968 0.06748 0.10892 0.0
H61 H 0.78451 0.99864 0.0491 0.0
H62 H 0.84993 1.00073 0.05 0.0
H63 H 0.8046 0.12301 0.07241 0.0
H64 H 0.78136 0.99795 0.14882 0.0
H65 H 0.85274 0.05669 0.15489 0.0
C66 C 1.00344 0.78617 0.01718 0.0
C67 C 0.02508 0.80358 0.00814 0.0
N68 N 0.0382 0.81585 0.02941 0.0
N69 N 1.00249 0.78715 0.0442 0.0
C70 C 0.02397 0.80574 0.05102 0.0
H71 H 0.98956 0.77314 0.00462 0.0
Co72 Co 0.97698 0.76424 0.06549 0.0
C73 C 0.99176 0.72975 0.0404 0.0
O74 O 0.98993 0.73206 0.01446 0.0
N75 N 0.95159 0.74096 0.0864 0.0
C76 C 0.92565 0.70651 0.10476 0.0
C77 C 0.94506 0.71789 0.08842 0.0
C78 C 0.93546 0.74296 0.10163 0.0
N79 N 0.91952 0.72222 0.11325 0.0
O80 O 0.95511 0.75603 0.03561 0.0
H81 H 0.95329 0.70933 0.07829 0.0
H82 H 0.9354 0.75934 0.10406 0.0
O83 O 0.98675 0.74147 0.05689 0.0
C84 C 0.94676 0.76986 0.03876 0.0
O85 O 0.95633 0.78609 0.05755 0.0
N86 N 0.9963 0.77327 0.09567 0.0
C87 C 1.0142 0.77984 0.14735 0.0
C88 C 0.02284 0.77122 0.12716 0.0
C89 C 1.01379 0.76827 0.10118 0.0
C90 C 0.98987 0.78427 0.11415 0.0
C91 C 0.99836 0.78748 0.14028 0.0
H92 H 0.02036 0.76135 0.08591 0.0
H93 H 0.9768 0.78911 0.10903 0.0
H94 H 0.0295 0.81124 0.07149 0.0
H95 H 0.03073 0.80676 0.98738 0.0
H96 H 0.91636 0.68783 0.10922 0.0
H97 H 0.03576 0.76596 0.13161 0.0
H98 H 0.99126 0.79435 0.1551 0.0
C99 C 0.24674 0.2466 0.45916 0.0
C100 C 0.25498 0.23418 0.47359 0.0
N101 N 0.24507 0.21219 0.46342 0.0
N102 N 0.23165 0.23242 0.44011 0.0
C103 C 0.23075 0.2115 0.44354 0.0
H104 H 0.25204 0.26499 0.46179 0.0
Co105 Co 0.21731 0.24029 0.41266 0.0
C106 C 0.25718 0.27978 0.38347 0.0
O107 O 0.24502 0.27108 0.36126 0.0
N108 N 0.20214 0.24827 0.38524 0.0
C109 C 0.17916 0.24772 0.35185 0.0
C110 C 0.18592 0.23448 0.36669 0.0
C111 C 0.20389 0.26968 0.3819 0.0
N112 N 0.19054 0.2699 0.36132 0.0
O113 O 0.20598 0.25462 0.43817 0.0
H114 H 0.1785 0.21578 0.36415 0.0
H115 H 0.21515 0.28496 0.39406 0.0
O116 O 0.24789 0.27004 0.40611 0.0
C117 C 0.18501 0.2379 0.44323 0.0
O118 O 0.1789 0.21676 0.43406 0.0
N119 N 0.22577 0.22377 0.38841 0.0
C120 C 0.2314 0.19835 0.34735 0.0
C121 C 0.25129 0.21697 0.35996 0.0
C122 C 0.24806 0.22935 0.38082 0.0
C123 C 0.20712 0.20274 0.38078 0.0
C124 C 0.20925 0.19016 0.35959 0.0
H125 H 0.26342 0.24365 0.39028 0.0
H126 H 0.1901 0.1964 0.39024 0.0
H127 H 0.22019 0.19612 0.43125 0.0
H128 H 0.268 0.24108 0.48951 0.0
H129 H 0.16631 0.24133 0.33574 0.0
H130 H 0.26906 0.22274 0.35304 0.0
H131 H 0.19322 0.17533 0.35192 0.0
C132 C 0.81757 0.99644 0.46604 0.0
C133 C 0.83345 0.01815 0.47636 0.0
N134 N 0.82766 0.034 0.46754 0.0
N135 N 0.80139 0.99823 0.45099 0.0
C136 C 0.80817 0.02155 0.45208 0.0
H137 H 0.81807 0.98037 0.46916 0.0
Co138 Co 0.77676 0.97208 0.43295 0.0
C139 C 0.73815 0.98268 0.42323 0.0
O140 O 0.73456 0.97144 0.40034 0.0
N141 N 0.75194 0.94499 0.41519 0.0
C142 C 0.71701 0.91224 0.40986 0.0
C143 C 0.73083 0.93053 0.42687 0.0
C144 C 0.75049 0.93473 0.39103 0.0
N145 N 0.72935 0.91483 0.38723 0.0
O146 O 0.76831 0.95373 0.4662 0.0
H147 H 0.72563 0.9333 0.44654 0.0
H148 H 0.76468 0.94136 0.37655 0.0
O149 O 0.75471 0.98485 0.43909 0.0
C150 C 0.77593 0.93923 0.46282 0.0
O151 O 0.787 0.94051 0.44031 0.0
N152 N 0.78765 0.98836 0.40066 0.0
C153 C 0.8067 1.0057 0.35036 0.0
C154 C 0.79403 0.01458 0.364 0.0
C155 C 0.78507 1.00604 0.3896 0.0
C156 C 0.80189 0.9814 0.38877 0.0
C157 C 0.81129 0.98952 0.36343 0.0
H158 H 0.77617 0.01368 0.40017 0.0
H159 H 0.805 0.96849 0.39858 0.0
H160 H 0.799 0.02925 0.44197 0.0
H161 H 0.84849 0.02213 0.48896 0.0
H162 H 0.69905 0.89837 0.41375 0.0
H163 H 0.79096 0.02783 0.3549 0.0
H164 H 0.82112 0.98231 0.35374 0.0
C165 C 0.03395 0.83131 0.44004 0.0
C166 C 1.01292 0.82829 0.4493 0.0
N167 N 0.99915 0.80566 0.45701 0.0
N168 N 0.034 0.81082 0.4418 0.0
C169 C 1.01234 0.79528 0.45205 0.0
H170 H 0.04807 0.8474 0.43154 0.0
Co171 Co 0.06014 0.80979 0.42758 0.0
C172 C 0.04827 0.75995 0.42647 0.0
O173 O 0.05882 0.76509 0.40294 0.0
N174 N 0.08755 0.81021 0.41306 0.0
C175 C 0.12033 0.80761 0.41105 0.0
C176 C 0.10133 0.80378 0.4267 0.0
C177 C 0.09912 0.81852 0.38941 0.0
N178 N 0.11885 0.81682 0.38747 0.0
O179 O 0.07804 0.82385 0.46026 0.0
H180 H 0.09775 0.79671 0.44689 0.0
H181 H 0.09395 0.82658 0.37407 0.0
O182 O 0.04755 0.77631 0.44017 0.0
C183 C 0.0908 0.84582 0.45452 0.0
O184 O 0.08911 0.85255 0.43015 0.0
N185 N 0.04358 0.79944 0.39513 0.0
C186 C 0.02663 0.78886 0.34305 0.0
C187 C 1.01572 0.77211 0.36356 0.0
C188 C 0.024 0.77809 0.38984 0.0
C189 C 0.05131 0.81698 0.37656 0.0
C190 C 0.04369 0.81197 0.35009 0.0
H191 H 1.0151 0.7653 0.40557 0.0
H192 H 0.06465 0.83474 0.382 0.0
H193 H 1.00626 0.77677 0.45538 0.0
H194 H 1.00786 0.84169 0.44935 0.0
H195 H 0.13403 0.80374 0.41659 0.0
H196 H 1.00138 0.75448 0.35924 0.0
H197 H 0.05213 0.82578 0.33518 0.0
C198 C 0.81559 0.82697 0.96373 0.0
C199 C 0.83173 0.82151 0.97383 0.0
N200 N 0.82408 0.7986 0.96889 0.0
N201 N 0.79739 0.80761 0.9526 0.0
C202 C 0.80322 0.7905 0.95573 0.0
H203 H 0.81744 0.84429 0.96402 0.0
Co204 Co 0.7725 0.80934 0.93561 0.0
C205 C 0.73433 0.76017 0.92359 0.0
O206 O 0.73069 0.7687 0.90138 0.0
N207 N 0.74782 0.81226 0.91894 0.0
C208 C 0.71333 0.81115 0.91413 0.0
C209 C 0.72595 0.80382 0.92947 0.0
C210 C 0.74815 0.82526 0.89756 0.0
N211 N 0.72737 0.82476 0.89411 0.0
O212 O 0.76372 0.81759 0.96973 0.0
H213 H 0.71974 0.79337 0.94761 0.0
H214 H 0.76347 0.83551 0.8851 0.0
O215 O 0.75071 0.77413 0.93996 0.0
C216 C 0.77311 0.84012 0.96824 0.0
O217 O 0.78469 0.85074 0.94626 0.0
N218 N 0.78371 0.80553 0.90261 0.0
C219 C 0.8039 0.80954 0.85246 0.0
C220 C 0.79078 0.78737 0.86471 0.0
C221 C 0.78143 0.7858 0.89039 0.0
C222 C 0.79823 0.82725 0.89192 0.0
C223 C 0.80828 0.8297 0.86672 0.0
H224 H 0.77259 0.76884 0.90014 0.0
H225 H 0.80139 0.84286 0.90275 0.0
H226 H 0.79251 0.7726 0.94849 0.0
H227 H 0.84827 0.83372 0.98347 0.0
H228 H 0.69558 0.80763 0.91815 0.0
H229 H 0.78789 0.7715 0.85457 0.0
H230 H 0.81863 0.84716 0.85808 0.0
C231 C 0.20029 0.9993 0.95844 0.0
C232 C 0.20673 0.02154 0.96756 0.0
N233 N 0.23004 0.03555 0.96344 0.0
N234 N 0.21947 0.99905 0.94883 0.0
C235 C 0.23748 0.02159 0.9522 0.0
H236 H 0.18255 0.98431 0.95842 0.0
Co237 Co 0.21735 0.97181 0.93314 0.0
C238 C 0.26631 0.98341 0.91917 0.0
O239 O 0.25653 0.96926 0.89861 0.0
N240 N 0.21434 0.94326 0.91785 0.0
C241 C 0.21788 0.91107 0.91499 0.0
C242 C 0.22242 0.93035 0.93039 0.0
C243 C 0.20435 0.93081 0.89503 0.0
N244 N 0.20662 0.91145 0.89257 0.0
O245 O 0.20933 0.95608 0.96788 0.0
H246 H 0.23166 0.935 0.9494 0.0
H247 H 0.19524 0.93539 0.88041 0.0
O248 O 0.2529 0.98554 0.93672 0.0
C249 C 0.18686 0.94237 0.96625 0.0
O250 O 0.17613 0.94296 0.9442 0.0
N251 N 0.22147 0.98602 0.89942 0.0
C252 C 0.2255 0.99717 0.84566 0.0
C253 C 0.24414 1.01096 0.86316 0.0
C254 C 0.24157 1.00534 0.89033 0.0
C255 C 0.20166 0.97641 0.88393 0.0
C256 C 0.20339 0.98108 0.85646 0.0
H257 H 0.25631 0.01561 0.90344 0.0
H258 H 0.18496 0.96316 0.89234 0.0
H259 H 0.25564 0.02773 0.94661 0.0
H260 H 0.19511 0.02717 0.97602 0.0
H261 H 0.22312 0.8982 0.91965 0.0
H262 H 0.26104 0.02475 0.85568 0.0
H263 H 0.18821 0.97074 0.84372 0.0
C264 C 0.03232 0.20144 0.94687 0.0
C265 C 1.01007 0.18416 0.95452 0.0
N266 N 0.9946 0.19097 0.94727 0.0
N267 N 0.03109 0.2194 0.93518 0.0
C268 C 1.00768 0.21238 0.93558 0.0
H269 H 0.04839 0.20088 0.94986 0.0
Co270 Co 0.05748 0.24723 0.92197 0.0
C271 C 0.03922 0.27918 0.9444 0.0
O272 O 0.05221 0.28722 0.96616 0.0
N273 N 0.08401 0.27514 0.90885 0.0
C274 C 0.11545 0.3113 0.90777 0.0
C275 C 0.09596 0.2957 0.92237 0.0
C276 C 0.09665 0.27873 0.88598 0.0
N277 N 0.11582 0.30064 0.88485 0.0
O278 O 0.073 0.25283 0.95675 0.0
H279 H 0.09135 0.29895 0.94209 0.0
H280 H 0.09237 0.26532 0.87084 0.0
O281 O 0.04127 0.26467 0.9292 0.0
C282 C 0.08781 0.24584 0.95203 0.0
O283 O 0.08686 0.23647 0.92836 0.0
N284 N 0.04467 0.24065 0.88781 0.0
C285 C 0.04305 0.2362 0.83246 0.0
C286 C 0.04046 0.25409 0.84464 0.0
C287 C 0.0414 0.2561 0.87253 0.0
C288 C 0.045 0.22193 0.87644 0.0
C289 C 0.04411 0.21928 0.84868 0.0
H290 H 0.04207 0.27146 0.88139 0.0
H291 H 0.04833 0.21032 0.8888 0.0
H292 H 1.00041 0.22285 0.9279 0.0
H293 H 1.00555 0.16786 0.96483 0.0
H294 H 0.12847 0.32909 0.91363 0.0
H295 H 0.03934 0.26732 0.83271 0.0
H296 H 0.04632 0.20533 0.84005 0.0
C297 C 0.84514 0.82523 0.56188 0.0
C298 C 0.84112 0.84303 0.55413 0.0
N299 N 0.81874 0.83332 0.54528 0.0
N300 N 0.82535 0.80415 0.55818 0.0
C301 C 0.80955 0.80968 0.54759 0.0
H302 H 0.86087 0.82769 0.57191 0.0
Co303 Co 0.8218 0.77619 0.574 0.0
C304 C 0.76769 0.75308 0.57779 0.0
O305 O 0.76866 0.76112 0.60207 0.0
N306 N 0.81809 0.748 0.58997 0.0
C307 C 0.80459 0.71696 0.61736 0.0
C308 C 0.80002 0.73335 0.60621 0.0
C309 C 0.83344 0.73975 0.59152 0.0
N310 N 0.82559 0.721 0.60819 0.0
O311 O 0.83028 0.76746 0.5402 0.0
H312 H 0.78522 0.73533 0.61163 0.0
H313 H 0.85078 0.74831 0.58238 0.0
O314 O 0.78685 0.75797 0.5652 0.0
C315 C 0.85292 0.77824 0.54163 0.0
O316 O 0.86297 0.79065 0.56334 0.0
N317 N 0.81865 0.78734 0.60804 0.0
C318 C 0.82326 0.80644 0.6591 0.0
C319 C 0.80908 0.80894 0.63988 0.0
C320 C 0.80791 0.80018 0.61395 0.0
C321 C 0.83413 0.78686 0.62612 0.0
C322 C 0.83635 0.79585 0.65184 0.0
H323 H 0.79784 0.80326 0.59898 0.0
H324 H 0.84541 0.77992 0.62053 0.0
H325 H 0.79109 0.79695 0.54427 0.0
H326 H 0.85322 0.86178 0.55649 0.0
H327 H 0.79392 0.70385 0.63226 0.0
H328 H 0.79935 0.81782 0.64474 0.0
H329 H 0.8481 0.79436 0.66603 0.0
C330 C 0.21913 0.033 0.54487 0.0
C331 C 0.20163 0.01255 0.53361 0.0
N332 N 0.2077 0.99577 0.53581 0.0
N333 N 0.23651 0.02951 0.55407 0.0
C334 C 0.229 1.00653 0.54833 0.0
H335 H 0.21874 0.04922 0.54708 0.0
Co336 Co 0.26204 0.05279 0.57385 0.0
C337 C 0.29386 0.035 0.54686 0.0
O338 O 0.29087 0.03506 0.52079 0.0
N339 N 0.28769 0.07656 0.59381 0.0
C340 C 0.32409 0.10524 0.60396 0.0
C341 C 0.31065 0.08728 0.58636 0.0
C342 C 0.28771 0.08859 0.61599 0.0
N343 N 0.30965 0.10613 0.62261 0.0
O344 O 0.27061 0.07442 0.54411 0.0
H345 H 0.31726 0.08295 0.56865 0.0
H346 H 0.27186 0.08543 0.62635 0.0
O347 O 0.2828 0.04143 0.5626 0.0
C348 C 0.26424 0.08945 0.5498 0.0
O349 O 0.25382 0.08752 0.57301 0.0
N350 N 0.25238 0.03267 0.60323 0.0
C351 C 0.2396 1.00879 0.6518 0.0
C352 C 0.2499 1.00202 0.63157 0.0
C353 C 0.25611 0.01417 0.60729 0.0
C354 C 0.23995 0.03764 0.62138 0.0
C355 C 0.23376 0.02623 0.64609 0.0
H356 H 0.26413 1.00873 0.59214 0.0
H357 H 0.23581 0.05134 0.61706 0.0
H358 H 0.23871 0.99774 0.55354 0.0
H359 H 0.18516 1.01 0.52546 0.0
H360 H 0.34304 0.1169 0.6029 0.0
H361 H 0.25384 0.988 0.63478 0.0
H362 H 0.22571 0.03203 0.661 0.0
C363 C 1.00474 0.18711 0.53895 0.0
C364 C 0.02339 0.19062 0.5231 0.0
N365 N 0.0365 0.21379 0.51737 0.0
N366 N 1.0057 0.20789 0.54326 0.0
C367 C 0.02515 0.22387 0.52946 0.0
H368 H 0.99222 0.17058 0.54824 0.0
Co369 Co 0.9856 0.21108 0.5681 0.0
C370 C 1.0174 0.26492 0.57306 0.0
O371 O 0.02883 0.26282 0.59341 0.0
N372 N 0.96496 0.21449 0.59304 0.0
C373 C 0.95286 0.22827 0.6268 0.0
C374 C 0.97194 0.23143 0.61206 0.0
C375 C 0.94121 0.20112 0.59697 0.0
N376 N 0.93343 0.20918 0.61734 0.0
O377 O 0.96227 0.20315 0.5397 0.0
H378 H 0.98994 0.24474 0.61611 0.0
H379 H 0.92969 0.18566 0.58535 0.0
O380 O 1.00093 0.24636 0.56129 0.0
C381 C 0.94976 0.18064 0.54234 0.0
O382 O 0.9555 0.17085 0.56178 0.0
N383 N 1.00638 0.21372 0.59645 0.0
C384 C 0.03164 0.21447 0.64184 0.0
C385 C 0.04352 0.22514 0.61796 0.0
C386 C 0.0305 0.2239 0.59517 0.0
C387 C 0.99479 0.19995 0.61811 0.0
C388 C 1.00694 0.20067 0.64128 0.0
H389 H 0.04017 0.23304 0.57745 0.0
H390 H 0.97579 0.18879 0.61795 0.0
H391 H 0.03184 0.24269 0.5299 0.0
H392 H 0.02795 0.17733 0.51794 0.0
H393 H 0.95349 0.23879 0.64387 0.0
H394 H 0.06265 0.23517 0.61717 0.0
H395 H 0.99682 0.19148 0.65893 0.0
C396 C 0.92035 0.57915 0.35736 0.0
C397 C 0.90688 0.58782 0.34631 0.0
N398 N 0.88509 0.57625 0.35731 0.0
N399 N 0.90719 0.56209 0.37526 0.0
C400 C 0.88572 0.56057 0.37455 0.0
H401 H 0.9388 0.58537 0.35319 0.0
Co402 Co 0.91756 0.54607 0.39803 0.0
C403 C 0.95536 0.58571 0.43007 0.0
O404 O 0.94694 0.57215 0.45142 0.0
N405 N 0.92786 0.52911 0.4203 0.0
C406 C 0.92749 0.49889 0.44153 0.0
C407 C 0.91426 0.50622 0.42748 0.0
C408 C 0.94984 0.5346 0.42866 0.0
N409 N 0.94992 0.51684 0.44253 0.0
O410 O 0.93275 0.53981 0.36857 0.0
H411 H 0.89613 0.49483 0.42157 0.0
H412 H 0.96564 0.55121 0.42439 0.0
O413 O 0.94636 0.5772 0.40692 0.0
C414 C 0.91752 0.52005 0.3583 0.0
O415 O 0.89549 0.51033 0.36649 0.0
N416 N 0.90047 0.54959 0.4264 0.0
C417 C 0.87715 0.54974 0.47281 0.0
C418 C 0.89302 0.57108 0.46018 0.0
C419 C 0.904 0.57058 0.43634 0.0
C420 C 0.88195 0.52905 0.43559 0.0
C421 C 0.87043 0.52857 0.45924 0.0
H422 H 0.91609 0.58706 0.42663 0.0
H423 H 0.87636 0.51283 0.4249 0.0
H424 H 0.87092 0.54845 0.38686 0.0
H425 H 0.91296 0.60216 0.33202 0.0
H426 H 0.92122 0.48134 0.44943 0.0
H427 H 0.89763 0.5879 0.4692 0.0
H428 H 0.85753 0.51165 0.46753 0.0
C429 C 0.5037 0.35617 0.39164 0.0
C430 C 0.50162 0.33497 0.38483 0.0
N431 N 0.47981 0.32083 0.37484 0.0
N432 N 0.48342 0.35588 0.38598 0.0
C433 C 0.46904 0.334 0.3757 0.0
H434 H 0.51878 0.37056 0.40141 0.0
Co435 Co 0.48015 0.38151 0.39711 0.0
C436 C 0.43046 0.36845 0.39122 0.0
O437 O 0.43331 0.37844 0.41486 0.0
N438 N 0.47832 0.40847 0.40835 0.0
C439 C 0.47479 0.44047 0.40379 0.0
C440 C 0.47297 0.42105 0.39105 0.0
C441 C 0.4837 0.42107 0.43153 0.0
N442 N 0.48154 0.44049 0.4293 0.0
O443 O 0.49728 0.39924 0.36551 0.0
H444 H 0.46823 0.41646 0.37021 0.0
H445 H 0.49005 0.41695 0.4495 0.0
O446 O 0.44809 0.36825 0.37979 0.0
C447 C 0.51873 0.41259 0.37296 0.0
O448 O 0.52395 0.41172 0.39827 0.0
N449 N 0.46625 0.36473 0.42882 0.0
C450 C 0.45012 0.34115 0.47752 0.0
C451 C 0.43717 0.33154 0.45395 0.0
C452 C 0.44583 0.34331 0.4297 0.0
C453 C 0.48025 0.37288 0.45095 0.0
C454 C 0.47223 0.36188 0.47573 0.0
H455 H 0.43609 0.33493 0.41168 0.0
H456 H 0.49789 0.38793 0.44929 0.0
H457 H 0.45092 0.32763 0.36975 0.0
H458 H 0.51488 0.33 0.3883 0.0
H459 H 0.4715 0.45363 0.39489 0.0
H460 H 0.42068 0.31487 0.45412 0.0
H461 H 0.48323 0.36971 0.49324 0.0
C462 C 0.66897 0.15555 0.39487 0.0
C463 C 0.68969 0.17406 0.38532 0.0
N464 N 0.70077 0.16544 0.37031 0.0
N465 N 0.66673 0.13488 0.38666 0.0
C466 C 0.68618 0.14164 0.37093 0.0
H467 H 0.65625 0.15744 0.40678 0.0
Co468 Co 0.64005 0.10449 0.39503 0.0
C469 C 0.6792 0.0924 0.39517 0.0
O470 O 0.69402 0.11266 0.40647 0.0
N471 N 0.61364 0.07466 0.40261 0.0
C472 C 0.58647 0.03685 0.39736 0.0
C473 C 0.60708 0.05529 0.38742 0.0
C474 C 0.59664 0.06752 0.42175 0.0
N475 N 0.57989 0.04452 0.41897 0.0
O476 O 0.62888 0.10154 0.35817 0.0
H477 H 0.61651 0.05473 0.36984 0.0
H478 H 0.59611 0.07903 0.43695 0.0
O479 O 0.65844 0.0882 0.38853 0.0
C480 C 0.61314 0.10765 0.36097 0.0
O481 O 0.61119 0.1154 0.38461 0.0
N482 N 0.64751 0.1084 0.43181 0.0
C483 C 0.64832 0.11532 0.48738 0.0
C484 C 0.65714 0.10149 0.47623 0.0
C485 C 0.65573 0.0975 0.44845 0.0
C486 C 0.63813 0.12101 0.44252 0.0
C487 C 0.63816 0.12452 0.46992 0.0
H488 H 0.66026 0.08488 0.44095 0.0
H489 H 0.62904 0.12719 0.42983 0.0
H490 H 0.68951 0.12939 0.35987 0.0
H491 H 0.69619 0.19252 0.38954 0.0
H492 H 0.57704 0.01912 0.3893 0.0
H493 H 0.66466 0.0934 0.4887 0.0
H494 H 0.62943 0.13377 0.4772 0.0
C495 C 0.85764 0.53459 0.77995 0.0
C496 C 0.85997 0.51572 0.7875 0.0
N497 N 0.88192 0.52021 0.78107 0.0
N498 N 0.87801 0.55134 0.76899 0.0
C499 C 0.89256 0.54214 0.76994 0.0
H500 H 0.84187 0.53588 0.78206 0.0
Co501 Co 0.88107 0.57924 0.75469 0.0
C502 C 0.93175 0.61089 0.74234 0.0
O503 O 0.92431 0.61576 0.72005 0.0
N504 N 0.88374 0.60766 0.74064 0.0
C505 C 0.89232 0.64519 0.74008 0.0
C506 C 0.89395 0.62819 0.7545 0.0
C507 C 0.87613 0.61283 0.71764 0.0
N508 N 0.88119 0.63551 0.71687 0.0
O509 O 0.87457 0.58747 0.79014 0.0
H510 H 0.9021 0.63066 0.77402 0.0
H511 H 0.86663 0.60034 0.70186 0.0
O512 O 0.91654 0.59634 0.75939 0.0
C513 C 0.85333 0.58372 0.78852 0.0
O514 O 0.84235 0.57681 0.76535 0.0
N515 N 0.88253 0.56848 0.72051 0.0
C516 C 0.87456 0.5508 0.66855 0.0
C517 C 0.89642 0.55821 0.68111 0.0
C518 C 0.89985 0.5664 0.70761 0.0
C519 C 0.86054 0.55883 0.70962 0.0
C520 C 0.85624 0.55036 0.68353 0.0
H521 H 0.91637 0.57118 0.71739 0.0
H522 H 0.84644 0.55883 0.72093 0.0
H523 H 0.91038 0.55115 0.76207 0.0
H524 H 0.84631 0.49994 0.79712 0.0
H525 H 0.89892 0.66332 0.7461 0.0
H526 H 0.9107 0.55784 0.67052 0.0
H527 H 0.83901 0.54462 0.67485 0.0
C528 C 0.48735 0.33858 0.74226 0.0
C529 C 0.50583 0.36069 0.74766 0.0
N530 N 0.50027 0.36927 0.76918 0.0
N531 N 0.46946 0.33291 0.75979 0.0
C532 C 0.47844 0.35183 0.77676 0.0
H533 H 0.48761 0.3275 0.7265 0.0
Co534 Co 0.43929 0.30386 0.7596 0.0
C535 C 0.42546 0.34103 0.76237 0.0
O536 O 0.44368 0.35438 0.74697 0.0
N537 N 0.41045 0.27537 0.75969 0.0
C538 C 0.37367 0.24715 0.76851 0.0
C539 C 0.39159 0.26928 0.77563 0.0
C540 C 0.40374 0.25653 0.74338 0.0
N541 N 0.38128 0.23912 0.74808 0.0
O542 O 0.4446 0.29724 0.79588 0.0
H543 H 0.3908 0.28031 0.79128 0.0
H544 H 0.41518 0.25562 0.72834 0.0
O545 O 0.42244 0.32103 0.77053 0.0
C546 C 0.45682 0.2871 0.79243 0.0
O547 O 0.46463 0.28712 0.7681 0.0
N548 N 0.4343 0.30709 0.72308 0.0
C549 C 0.42651 0.30346 0.66782 0.0
C550 C 0.41306 0.30918 0.68486 0.0
C551 C 0.41661 0.31 0.71253 0.0
C552 C 0.446 0.29954 0.70694 0.0
C553 C 0.44269 0.29794 0.6793 0.0
H554 H 0.4042 0.31169 0.72515 0.0
H555 H 0.4571 0.29347 0.71574 0.0
H556 H 0.46877 0.35322 0.79364 0.0
H557 H 0.52231 0.36977 0.73663 0.0
H558 H 0.3562 0.23799 0.77735 0.0
H559 H 0.39971 0.31275 0.67705 0.0
H560 H 0.45235 0.29189 0.66716 0.0
C561 C 0.69495 0.1162 0.79425 0.0
C562 C 0.67318 0.10902 0.80573 0.0
N563 N 0.66381 0.12116 0.79427 0.0
N564 N 0.69938 0.13283 0.77559 0.0
C565 C 0.68025 0.13569 0.77633 0.0
H566 H 0.70651 0.10929 0.79871 0.0
Co567 Co 0.72524 0.14719 0.75193 0.0
C568 C 0.72218 0.10494 0.72551 0.0
O569 O 0.72515 0.11563 0.70228 0.0
N570 N 0.75195 0.16271 0.72891 0.0
C571 C 0.78274 0.19319 0.70911 0.0
C572 C 0.76222 0.18597 0.72327 0.0
C573 C 0.76762 0.15663 0.71928 0.0
N574 N 0.78614 0.17467 0.70647 0.0
O575 O 0.74731 0.15668 0.78141 0.0
H576 H 0.75583 0.19741 0.73016 0.0
H577 H 0.76643 0.13982 0.72294 0.0
O578 O 0.72368 0.1161 0.74735 0.0
C579 C 0.74965 0.17577 0.79125 0.0
O580 O 0.73478 0.18251 0.78329 0.0
N581 N 0.70376 0.14025 0.72322 0.0
C582 C 0.6745 0.13324 0.6794 0.0
C583 C 0.67027 0.11428 0.69609 0.0
C584 C 0.68477 0.11829 0.71838 0.0
C585 C 0.70632 0.15909 0.7089 0.0
C586 C 0.69232 0.15598 0.6866 0.0
H587 H 0.68099 0.10363 0.73146 0.0
H588 H 0.71917 0.17676 0.71468 0.0
H589 H 0.67827 0.14791 0.76347 0.0
H590 H 0.66459 0.09529 0.82069 0.0
H591 H 0.79441 0.21087 0.70173 0.0
H592 H 0.65609 0.09655 0.69184 0.0
H593 H 0.69603 0.17129 0.67467 0.0
C594 C 0.49004 0.16241 0.25635 0.0
C595 C 0.50805 0.15763 0.2591 0.0
N596 N 0.49944 0.13644 0.27096 0.0
N597 N 0.46978 0.14433 0.2662 0.0
C598 C 0.47614 0.1287 0.27532 0.0
H599 H 0.49156 0.17803 0.24704 0.0
Co600 Co 0.44097 0.14451 0.26227 0.0
C601 C 0.40339 0.09559 0.252 0.0
O602 O 0.39606 0.10504 0.23388 0.0
N603 N 0.41226 0.14555 0.25869 0.0
C604 C 0.37628 0.13897 0.2695 0.0
C605 C 0.39492 0.13627 0.2774 0.0
C606 C 0.40358 0.15411 0.23967 0.0
N607 N 0.38168 0.15013 0.24566 0.0
O608 O 0.44049 0.15075 0.3001 0.0
H609 H 0.39551 0.1275 0.29555 0.0
H610 H 0.4125 0.16235 0.22121 0.0
O611 O 0.42192 0.10906 0.26603 0.0
C612 C 0.45256 0.17334 0.30087 0.0
O613 O 0.4633 0.18465 0.27883 0.0
N614 N 0.44385 0.14252 0.2254 0.0
C615 C 0.45791 0.14956 0.17205 0.0
C616 C 0.45074 0.12776 0.18444 0.0
C617 C 0.44437 0.12478 0.21153 0.0
C618 C 0.45177 0.16402 0.21381 0.0
C619 C 0.45842 0.16783 0.18704 0.0
H620 H 0.44095 0.10872 0.22148 0.0
H621 H 0.45342 0.17856 0.22574 0.0
H622 H 0.46389 0.11176 0.28408 0.0
H623 H 0.52621 0.1689 0.25282 0.0
H624 H 0.35999 0.13307 0.2805 0.0
H625 H 0.45106 0.11357 0.17363 0.0
H626 H 0.4642 0.18501 0.17826 0.0
C627 C 0.91228 0.34315 0.29901 0.0
C628 C 0.91925 0.365 0.31022 0.0
N629 N 0.90828 0.37483 0.29707 0.0
N630 N 0.89694 0.33917 0.27887 0.0
C631 C 0.89462 0.3586 0.27848 0.0
H632 H 0.91846 0.33124 0.30471 0.0
Co633 Co 0.88259 0.31346 0.25482 0.0
C634 C 0.92285 0.3119 0.22959 0.0
O635 O 0.91097 0.30839 0.20713 0.0
N636 N 0.86641 0.28675 0.23173 0.0
C637 C 0.8357 0.25769 0.21016 0.0
C638 C 0.84405 0.27882 0.22331 0.0
C639 C 0.87041 0.26889 0.22516 0.0
N640 N 0.85241 0.25143 0.21102 0.0
O641 O 0.87006 0.29116 0.28442 0.0
H642 H 0.83387 0.2873 0.22763 0.0
H643 H 0.88597 0.26833 0.23125 0.0
O644 O 0.91324 0.31271 0.25196 0.0
C645 C 0.85023 0.2889 0.29172 0.0
O646 O 0.84454 0.30409 0.28211 0.0
N647 N 0.89313 0.33537 0.22566 0.0
C648 C 0.91062 0.36148 0.17865 0.0
C649 C 0.92536 0.36632 0.20098 0.0
C650 C 0.9162 0.35324 0.22441 0.0
C651 C 0.87787 0.33334 0.2058 0.0
C652 C 0.8863 0.34578 0.18181 0.0
H653 H 0.92821 0.3563 0.24084 0.0
H654 H 0.85921 0.32144 0.20779 0.0
H655 H 0.88348 0.36099 0.26426 0.0
H656 H 0.9321 0.37337 0.32612 0.0
H657 H 0.81821 0.24732 0.20164 0.0
H658 H 0.94407 0.37911 0.1999 0.0
H659 H 0.874 0.34189 0.16544 0.0
C660 C 0.70854 0.54905 0.29062 0.0
C661 C 0.68865 0.53033 0.30166 0.0
N662 N 0.67014 0.5336 0.29746 0.0
N663 N 0.70282 0.56436 0.27965 0.0
C664 C 0.67925 0.55442 0.28424 0.0
H665 H 0.72582 0.55074 0.28976 0.0
Co666 Co 0.72248 0.59106 0.25849 0.0
C667 C 0.70922 0.62644 0.27578 0.0
O668 O 0.73147 0.64183 0.28092 0.0
N669 N 0.74177 0.61786 0.23636 0.0
C670 C 0.75058 0.64635 0.20629 0.0
C671 C 0.73278 0.62817 0.22042 0.0
C672 C 0.76536 0.63015 0.23101 0.0
N673 N 0.77115 0.64768 0.21289 0.0
O674 O 0.74455 0.60452 0.28821 0.0
H675 H 0.71424 0.62268 0.21884 0.0
H676 H 0.77817 0.62646 0.24004 0.0
O677 O 0.70361 0.60551 0.26878 0.0
C678 C 0.75987 0.59814 0.28377 0.0
O679 O 0.75768 0.58612 0.26177 0.0
N680 N 0.70311 0.57632 0.22938 0.0
C681 C 0.6797 0.55056 0.18404 0.0
C682 C 0.66969 0.56101 0.19995 0.0
C683 C 0.68177 0.57393 0.22271 0.0
C684 C 0.7129 0.56615 0.21433 0.0
C685 C 0.70163 0.55335 0.19153 0.0
H686 H 0.67396 0.5819 0.23475 0.0
H687 H 0.72979 0.56824 0.22003 0.0
H688 H 0.66881 0.56202 0.2775 0.0
H689 H 0.68773 0.51494 0.31093 0.0
H690 H 0.74838 0.6573 0.19162 0.0
H691 H 0.65281 0.5593 0.19483 0.0
H692 H 0.71047 0.54632 0.17949 0.0
C693 C 0.51425 0.15633 0.87617 0.0
C694 C 0.51194 0.1747 0.86667 0.0
N695 N 0.48892 0.16846 0.86742 0.0
N696 N 0.49286 0.13822 0.88294 0.0
C697 C 0.47764 0.14611 0.87739 0.0
H698 H 0.53076 0.15662 0.87911 0.0
Co699 Co 0.49077 0.11189 0.90065 0.0
C700 C 0.44034 0.07783 0.91098 0.0
O701 O 0.44764 0.07525 0.93464 0.0
N702 N 0.48977 0.08539 0.91825 0.0
C703 C 0.48337 0.04878 0.92305 0.0
C704 C 0.4801 0.06382 0.90676 0.0
C705 C 0.4992 0.08297 0.94148 0.0
N706 N 0.49543 0.06082 0.94495 0.0
O707 O 0.49983 0.10247 0.86777 0.0
H708 H 0.4712 0.05929 0.88754 0.0
H709 H 0.50933 0.09718 0.9553 0.0
O710 O 0.45564 0.09216 0.89377 0.0
C711 C 0.52156 0.10856 0.87154 0.0
O712 O 0.5315 0.1188 0.89436 0.0
N713 N 0.48577 0.1236 0.93258 0.0
C714 C 0.48537 0.14445 0.9808 0.0
C715 C 0.46573 0.13533 0.96377 0.0
C716 C 0.46656 0.1256 0.93924 0.0
C717 C 0.50581 0.13468 0.94761 0.0
C718 C 0.50592 0.14485 0.97214 0.0
H719 H 0.45175 0.11981 0.92581 0.0
H720 H 0.52176 0.13527 0.94065 0.0
H721 H 0.45883 0.13596 0.88119 0.0
H722 H 0.52642 0.19182 0.86091 0.0
H723 H 0.47717 0.03034 0.91906 0.0
H724 H 0.4499 0.13569 0.96942 0.0
H725 H 0.52163 0.15221 0.98456 0.0
C726 C 0.88082 0.35174 0.90226 0.0
C727 C 0.86307 0.32967 0.89519 0.0
N728 N 0.87146 0.3207 0.8767 0.0
N729 N 0.90065 0.35696 0.88859 0.0
C730 C 0.89445 0.33763 0.87312 0.0
H731 H 0.87927 0.36343 0.91637 0.0
Co732 Co 0.92864 0.38637 0.89224 0.0
C733 C 0.96759 0.37582 0.89647 0.0
O734 O 0.97744 0.39364 0.91329 0.0
N735 N 0.95665 0.41658 0.89526 0.0
C736 C 0.99155 0.44728 0.88357 0.0
C737 C 0.97357 0.42539 0.87606 0.0
C738 C 0.96472 0.43402 0.91396 0.0
N739 N 0.98604 0.45271 0.90755 0.0
O740 O 0.92696 0.39387 0.85507 0.0
H741 H 0.97313 0.41616 0.85786 0.0
H742 H 0.95528 0.43351 0.93186 0.0
O743 O 0.94814 0.37112 0.88475 0.0
C744 C 0.91275 0.40194 0.85418 0.0
O745 O 0.90045 0.40011 0.87583 0.0
N746 N 0.92836 0.38034 0.92915 0.0
C747 C 0.92864 0.37705 0.98473 0.0
C748 C 0.93214 0.36152 0.96857 0.0
C749 C 0.93116 0.36296 0.94069 0.0
C750 C 0.92173 0.39321 0.94454 0.0
C751 C 0.92241 0.39239 0.97243 0.0
H752 H 0.93267 0.35013 0.92857 0.0
H753 H 0.91666 0.40485 0.93499 0.0
H754 H 0.90634 0.33627 0.85907 0.0
H755 H 0.84528 0.32091 0.9032 0.0
H756 H 1.00769 0.45804 0.87243 0.0
H757 H 0.93547 0.34834 0.97738 0.0
H758 H 0.91876 0.40414 0.98413 0.0
C759 C 0.66878 0.51431 0.88538 0.0
C760 C 0.68993 0.51635 0.87786 0.0
N761 N 0.70573 0.53934 0.87457 0.0
N762 N 0.67107 0.53591 0.88799 0.0
C763 C 0.69378 0.55082 0.87993 0.0
H764 H 0.65286 0.49787 0.8898 0.0
Co765 Co 0.6453 0.53866 0.90273 0.0
C766 C 0.68096 0.59113 0.90306 0.0
O767 O 0.69596 0.58723 0.91653 0.0
N768 N 0.61948 0.54047 0.91688 0.0
C769 C 0.59078 0.54893 0.92259 0.0
C770 C 0.60915 0.55202 0.90625 0.0
C771 C 0.60693 0.5303 0.93947 0.0
N772 N 0.58953 0.53539 0.9436 0.0
O773 O 0.6291 0.52909 0.86831 0.0
H774 H 0.61469 0.56211 0.88782 0.0
H775 H 0.61053 0.51937 0.9527 0.0
O776 O 0.66126 0.57349 0.89502 0.0
C777 C 0.61372 0.50722 0.87209 0.0
O778 O 0.61333 0.49807 0.89573 0.0
N779 N 0.65817 0.54364 0.93733 0.0
C780 C 0.6629 0.53844 0.9923 0.0
C781 C 0.66412 0.55908 0.98216 0.0
C782 C 0.66077 0.56091 0.95477 0.0
C783 C 0.65747 0.52381 0.94685 0.0
C784 C 0.65974 0.52083 0.97403 0.0
H785 H 0.65848 0.57532 0.94809 0.0
H786 H 0.65256 0.50896 0.93384 0.0
H787 H 0.70179 0.56967 0.87817 0.0
H788 H 0.69359 0.50205 0.87555 0.0
H789 H 0.57961 0.55656 0.9196 0.0
H790 H 0.66648 0.57329 0.99523 0.0
H791 H 0.65731 0.504 0.98058 0.0
C792 C 0.55725 0.85844 0.70858 0.0
C793 C 0.53812 0.86032 0.70086 0.0
N794 N 0.54458 0.88337 0.69978 0.0
N795 N 0.57602 0.88014 0.71235 0.0
C796 C 0.56774 0.89504 0.70702 0.0
H797 H 0.55719 0.84213 0.71213 0.0
Co798 Co 0.60489 0.885 0.7261 0.0
C799 C 0.62865 0.93322 0.69442 0.0
O800 O 0.61961 0.92834 0.67013 0.0
N801 N 0.63389 0.88989 0.73986 0.0
C802 C 0.67207 0.90107 0.74083 0.0
C803 C 0.65446 0.90136 0.72622 0.0
C804 C 0.63942 0.88238 0.76267 0.0
N805 N 0.66269 0.88916 0.76381 0.0
O806 O 0.6093 0.8703 0.69449 0.0
H807 H 0.65649 0.90898 0.70646 0.0
H808 H 0.62666 0.87203 0.778 0.0
O809 O 0.62204 0.91678 0.71176 0.0
C810 C 0.60344 0.8495 0.70262 0.0
O811 O 0.59712 0.8443 0.72789 0.0
N812 N 0.59884 0.89595 0.75761 0.0
C813 C 0.58025 0.90265 0.80459 0.0
C814 C 0.59421 0.92186 0.78778 0.0
C815 C 0.60316 0.91807 0.76396 0.0
C816 C 0.58584 0.87734 0.77417 0.0
C817 C 0.57636 0.88027 0.79778 0.0
H818 H 0.61262 0.93269 0.75044 0.0
H819 H 0.58221 0.85991 0.7685 0.0
H820 H 0.57835 0.91401 0.70894 0.0
H821 H 0.52054 0.84561 0.69732 0.0
H822 H 0.69027 0.90843 0.73453 0.0
H823 H 0.59739 0.93936 0.7925 0.0
H824 H 0.56587 0.8651 0.8105 0.0
C825 C 0.18162 0.70249 0.71527 0.0
C826 C 0.1797 0.68158 0.70708 0.0
N827 N 0.15663 0.66484 0.70663 0.0
N828 N 0.15992 0.69928 0.71997 0.0
C829 C 0.14498 0.67605 0.71477 0.0
H830 H 0.19792 0.71903 0.71795 0.0
Co831 Co 0.15558 0.72397 0.73226 0.0
C832 C 0.10411 0.69523 0.71159 0.0
O833 O 0.10859 0.6969 0.68572 0.0
N834 N 0.15127 0.749 0.74454 0.0
C835 C 0.13873 0.77492 0.74419 0.0
C836 C 0.13607 0.75461 0.73295 0.0
C837 C 0.16306 0.76636 0.76293 0.0
N838 N 0.15573 0.78238 0.76302 0.0
O839 O 0.16163 0.73727 0.69635 0.0
H840 H 0.12443 0.74512 0.71644 0.0
H841 H 0.17759 0.76805 0.77496 0.0
O842 O 0.12116 0.70483 0.7283 0.0
C843 C 0.18314 0.75416 0.69789 0.0
O844 O 0.1941 0.75807 0.72104 0.0
N845 N 0.15354 0.71313 0.76695 0.0
C846 C 0.15888 0.70107 0.81879 0.0
C847 C 0.137 0.68859 0.80567 0.0
C848 C 0.13477 0.69467 0.7794 0.0
C849 C 0.17503 0.72481 0.77913 0.0
C850 C 0.17809 0.71922 0.80514 0.0
H851 H 0.11823 0.68417 0.76912 0.0
H852 H 0.18996 0.73864 0.76847 0.0
H853 H 0.12599 0.66751 0.71681 0.0
H854 H 0.19433 0.6789 0.7023 0.0
H855 H 0.12923 0.78385 0.7385 0.0
H856 H 0.12193 0.67404 0.81546 0.0
H857 H 0.19525 0.72925 0.81459 0.0
C858 C 0.33259 0.47978 0.69788 0.0
C859 C 0.35323 0.49642 0.686 0.0
N860 N 0.36912 0.48909 0.68733 0.0
N861 N 0.33493 0.46155 0.70663 0.0
C862 C 0.35743 0.46769 0.69954 0.0
H863 H 0.31731 0.48168 0.70091 0.0
Co864 Co 0.31257 0.43675 0.72891 0.0
C865 C 0.31333 0.39359 0.71261 0.0
O866 O 0.29015 0.38181 0.71082 0.0
N867 N 0.29043 0.41212 0.75202 0.0
C868 C 0.2769 0.38483 0.78441 0.0
C869 C 0.29631 0.4001 0.76959 0.0
C870 C 0.26697 0.40337 0.75654 0.0
N871 N 0.25845 0.38686 0.7762 0.0
O872 O 0.28851 0.42713 0.70089 0.0
H873 H 0.31372 0.40224 0.77168 0.0
H874 H 0.2563 0.40924 0.74628 0.0
O875 O 0.32397 0.41586 0.71639 0.0
C876 C 0.27728 0.43821 0.70508 0.0
O877 O 0.2829 0.45175 0.72647 0.0
N878 N 0.33472 0.44761 0.75676 0.0
C879 C 0.35868 0.45747 0.80534 0.0
C880 C 0.3658 0.44898 0.78354 0.0
C881 C 0.35359 0.44417 0.75932 0.0
C882 C 0.329 0.45793 0.77685 0.0
C883 C 0.34065 0.46286 0.80147 0.0
H884 H 0.35863 0.43651 0.7434 0.0
H885 H 0.31415 0.46073 0.77435 0.0
H886 H 0.36553 0.45728 0.70438 0.0
H887 H 0.35637 0.513 0.67763 0.0
H888 H 0.27634 0.373 0.79997 0.0
H889 H 0.37998 0.44507 0.78554 0.0
H890 H 0.33447 0.46932 0.81778 0.0
C891 C 0.52383 0.8663 0.0757 0.0
C892 C 0.52733 0.8475 0.07928 0.0
N893 N 0.54716 0.85476 0.09377 0.0
N894 N 0.5414 0.88562 0.08768 0.0
C895 C 0.55531 0.87795 0.09885 0.0
H896 H 0.50943 0.86596 0.06465 0.0
Co897 Co 0.54371 0.91548 0.08479 0.0
C898 C 0.59502 0.93934 0.10608 0.0
O899 O 0.59016 0.93554 0.13182 0.0
N900 N 0.54599 0.94545 0.08197 0.0
C901 C 0.55707 0.98286 0.09154 0.0
C902 C 0.55933 0.96376 0.09846 0.0
C903 C 0.53544 0.95391 0.06545 0.0
N904 N 0.54209 0.97667 0.07065 0.0
O905 O 0.53672 0.91527 0.12249 0.0
H906 H 0.56997 0.96329 0.11478 0.0
H907 H 0.52266 0.94367 0.05025 0.0
O908 O 0.57819 0.93182 0.08905 0.0
C909 C 0.5141 0.90344 0.12365 0.0
O910 O 0.50236 0.8932 0.10164 0.0
N911 N 0.54721 0.91431 0.04782 0.0
C912 C 0.54627 0.91065 0.99215 0.0
C913 C 0.56636 0.91467 0.0067 0.0
C914 C 0.56635 0.9161 0.03467 0.0
C915 C 0.52699 0.9085 0.03419 0.0
C916 C 0.5263 0.90726 0.00634 0.0
H917 H 0.58134 0.91779 0.04559 0.0
H918 H 0.51126 0.90499 0.04515 0.0
H919 H 0.57134 0.88916 0.10989 0.0
H920 H 0.51598 0.82973 0.07196 0.0
H921 H 0.56603 1.00005 0.10099 0.0
H922 H 0.58173 0.9161 -0.00334 0.0
H923 H 0.51025 0.90379 -0.00388 0.0
C924 C 0.15621 0.6527 0.11935 0.0
C925 C 0.17372 0.67331 0.13013 0.0
N926 N 0.16765 0.69005 0.12743 0.0
N927 N 0.13874 0.65592 0.10986 0.0
C928 C 0.14626 0.67905 0.11497 0.0
H929 H 0.15676 0.63656 0.11757 0.0
Co930 Co 0.11371 0.6313 0.09064 0.0
C931 C 0.08001 0.64664 0.07518 0.0
O932 O 0.07953 0.63698 0.05189 0.0
N933 N 0.0886 0.60541 0.07166 0.0
C934 C 0.05244 0.57476 0.06453 0.0
C935 C 0.0665 0.59268 0.08185 0.0
C936 C 0.0874 0.59451 0.04802 0.0
N937 N 0.06559 0.57594 0.04318 0.0
O938 O 0.10195 0.61317 0.12341 0.0
H939 H 0.06083 0.59636 0.10074 0.0
H940 H 0.10212 0.59963 0.0346 0.0
O941 O 0.09319 0.64612 0.09418 0.0
C942 C 0.10906 0.59817 0.12279 0.0
O943 O 0.12139 0.59812 0.10199 0.0
N944 N 0.12756 0.64789 0.05906 0.0
C945 C 0.14976 0.66794 0.01084 0.0
C946 C 0.14015 0.67882 0.02654 0.0
C947 C 0.1297 0.66885 0.0511 0.0
C948 C 0.13951 0.63894 0.04573 0.0
C949 C 0.1503 0.64835 0.02118 0.0
H950 H 0.12313 0.6779 0.06333 0.0
H951 H 0.13981 0.62376 0.05377 0.0
H952 H 0.13657 0.68774 0.10923 0.0
H953 H 0.19023 0.67598 0.13826 0.0
H954 H 0.03384 0.56213 0.06723 0.0
H955 H 0.14043 0.69468 0.01972 0.0
H956 H 0.15802 0.63973 0.00993 0.0
C957 C 0.3627 0.498 0.07961 0.0
C958 C 0.33961 0.49212 0.08354 0.0
N959 N 0.3294 0.4735 0.10028 0.0
N960 N 0.36729 0.48309 0.09353 0.0
C961 C 0.34662 0.46839 0.10628 0.0
H962 H 0.37531 0.51204 0.06683 0.0
Co963 Co 0.39686 0.48466 0.09032 0.0
C964 C 0.38674 0.43509 0.08971 0.0
O965 O 0.40423 0.44255 0.07242 0.0
N966 N 0.42723 0.48715 0.08752 0.0
C967 C 0.45828 0.48407 0.1003 0.0
C968 C 0.43628 0.48005 0.10745 0.0
C969 C 0.44466 0.49606 0.06868 0.0
N970 N 0.46363 0.49415 0.0758 0.0
O971 O 0.40517 0.49619 0.12689 0.0
H972 H 0.42717 0.47195 0.12598 0.0
H973 H 0.44391 0.5042 0.05024 0.0
O974 O 0.38201 0.45021 0.10042 0.0
C975 C 0.41436 0.51867 0.12589 0.0
O976 O 0.4131 0.5281 0.10311 0.0
N977 N 0.39001 0.47662 0.0539 0.0
C978 C 0.3843 0.4693 -0.00116 0.0
C979 C 0.36949 0.4514 0.0167 0.0
C980 C 0.37209 0.45573 0.04426 0.0
C981 C 0.40242 0.495 0.03677 0.0
C982 C 0.4003 0.49163 0.00908 0.0
H983 H 0.35963 0.44228 0.05765 0.0
H984 H 0.41443 0.51234 0.04475 0.0
H985 H 0.34398 0.45382 0.11893 0.0
H986 H 0.33091 0.50087 0.07471 0.0
H987 H 0.46918 0.47941 0.11216 0.0
H988 H 0.35589 0.43434 0.00943 0.0
H989 H 0.41144 0.50619 -0.00411 0.0
C990 C 0.15692 0.49538 0.59273 0.0
C991 C 0.17363 0.49044 0.60224 0.0
N992 N 0.16257 0.46957 0.61511 0.0
N993 N 0.13518 0.47791 0.59962 0.0
C994 C 0.13912 0.46213 0.61312 0.0
H995 H 0.16042 0.51083 0.58127 0.0
Co996 Co 0.10885 0.48055 0.58941 0.0
C997 C 0.06684 0.43254 0.58791 0.0
O998 O 0.06016 0.4402 0.56723 0.0
N999 N 0.0828 0.48473 0.5793 0.0
C1000 C 0.04907 0.48525 0.58396 0.0
C1001 C 0.06497 0.48045 0.59637 0.0
C1002 C 0.07739 0.49276 0.55672 0.0
N1003 N 0.05686 0.49297 0.55893 0.0
O1004 O 0.10862 0.49369 0.62428 0.0
H1005 H 0.06341 0.47388 0.61663 0.0
H1006 H 0.08788 0.49811 0.53869 0.0
O1007 O 0.08617 0.44681 0.60032 0.0
C1008 C 0.12105 0.51611 0.62134 0.0
O1009 O 0.13111 0.52426 0.59789 0.0
N1010 N 0.11142 0.4706 0.55498 0.0
C1011 C 0.11474 0.45936 0.50213 0.0
C1012 C 0.10876 0.4425 0.52241 0.0
C1013 C 0.10799 0.44875 0.54894 0.0
C1014 C 0.12059 0.48799 0.53611 0.0
C1015 C 0.12181 0.48266 0.50929 0.0
H1016 H 0.10454 0.43594 0.56446 0.0
H1017 H 0.1261 0.50596 0.54181 0.0
H1018 H 0.12523 0.44583 0.62166 0.0
H1019 H 0.19257 0.50133 0.59968 0.0
H1020 H 0.03311 0.4834 0.59284 0.0
H1021 H 0.10463 0.42466 0.5178 0.0
H1022 H 0.12737 0.49642 0.49429 0.0
C1023 C 0.57155 0.66288 0.63708 0.0
C1024 C 0.57704 0.6838 0.64948 0.0
N1025 N 0.57031 0.69595 0.63338 0.0
N1026 N 0.56132 0.66163 0.61319 0.0
C1027 C 0.56052 0.68189 0.61169 0.0
H1028 H 0.57602 0.65003 0.64433 0.0
Co1029 Co 0.55552 0.63913 0.58621 0.0
C1030 C 0.5996 0.63541 0.58811 0.0
O1031 O 0.58808 0.61235 0.5853 0.0
N1032 N 0.55054 0.61705 0.55884 0.0
C1033 C 0.5564 0.60231 0.52126 0.0
C1034 C 0.56457 0.62198 0.53701 0.0
C1035 C 0.53392 0.59396 0.55586 0.0
N1036 N 0.53712 0.58464 0.53304 0.0
O1037 O 0.54309 0.6139 0.61268 0.0
H1038 H 0.58026 0.63873 0.53299 0.0
H1039 H 0.51978 0.58415 0.57005 0.0
O1040 O 0.58818 0.64642 0.58991 0.0
C1041 C 0.522 0.60942 0.61761 0.0
O1042 O 0.51481 0.62278 0.60609 0.0
N1043 N 0.56442 0.66251 0.56036 0.0
C1044 C 0.57049 0.69139 0.51685 0.0
C1045 C 0.59005 0.69502 0.53217 0.0
C1046 C 0.58659 0.6805 0.5543 0.0
C1047 C 0.5452 0.65959 0.54655 0.0
C1048 C 0.54782 0.67384 0.5247 0.0
H1049 H 0.60171 0.68332 0.56589 0.0
H1050 H 0.5278 0.64545 0.55206 0.0
H1051 H 0.55373 0.68669 0.5945 0.0
H1052 H 0.58655 0.69009 0.66821 0.0
H1053 H 0.56451 0.60091 0.50291 0.0
H1054 H 0.60779 0.70856 0.52672 0.0
H1055 H 0.53231 0.6703 0.51322 0.0
C1056 C 0.36376 0.91113 0.64527 0.0
C1057 C 0.34139 0.89458 0.6534 0.0
N1058 N 0.33162 0.87755 0.63454 0.0
N1059 N 0.36845 0.9048 0.62133 0.0
C1060 C 0.34863 0.88402 0.61545 0.0
H1061 H 0.37574 0.92711 0.65593 0.0
Co1062 Co 0.39647 0.92408 0.60172 0.0
C1063 C 0.39482 0.96722 0.58984 0.0
O1064 O 0.40491 0.96736 0.56696 0.0
N1065 N 0.42572 0.94433 0.58321 0.0
C1066 C 0.46129 0.97669 0.57914 0.0
C1067 C 0.44224 0.96417 0.59564 0.0
C1068 C 0.43578 0.94521 0.55895 0.0
N1069 N 0.45731 0.96488 0.55586 0.0
O1070 O 0.41517 0.92886 0.63376 0.0
H1071 H 0.44021 0.96982 0.61537 0.0
H1072 H 0.42766 0.93201 0.54357 0.0
O1073 O 0.39199 0.95194 0.60795 0.0
C1074 C 0.41995 0.91217 0.6335 0.0
O1075 O 0.40924 0.89544 0.61546 0.0
N1076 N 0.37825 0.91687 0.57028 0.0
C1077 C 0.35322 0.90569 0.52205 0.0
C1078 C 0.34651 0.91463 0.54389 0.0
C1079 C 0.35918 0.92001 0.56781 0.0
C1080 C 0.38255 0.9048 0.55106 0.0
C1081 C 0.37114 0.90007 0.52632 0.0
H1082 H 0.35348 0.92653 0.58446 0.0
H1083 H 0.3953 0.89923 0.55476 0.0
H1084 H 0.34636 0.87441 0.59699 0.0
H1085 H 0.33301 0.89521 0.67187 0.0
H1086 H 0.47644 0.99371 0.58375 0.0
H1087 H 0.33168 0.91758 0.54274 0.0
H1088 H 0.37694 0.89262 0.51079 0.0
C1089 C 0.16954 0.47536 0.20866 0.0
C1090 C 0.16554 0.49319 0.20103 0.0
N1091 N 0.14203 0.48431 0.19843 0.0
N1092 N 0.14879 0.45506 0.21074 0.0
C1093 C 0.13228 0.46097 0.20413 0.0
H1094 H 0.18658 0.47724 0.21309 0.0
Co1095 Co 0.14745 0.42762 0.22389 0.0
C1096 C 0.09697 0.39057 0.22598 0.0
O1097 O 0.10219 0.38508 0.24938 0.0
N1098 N 0.14712 0.40003 0.2367 0.0
C1099 C 0.1427 0.36405 0.23469 0.0
C1100 C 0.13887 0.38027 0.22167 0.0
C1101 C 0.15651 0.39544 0.25861 0.0
N1102 N 0.15391 0.37361 0.25795 0.0
O1103 O 0.16116 0.42442 0.19044 0.0
H1104 H 0.13075 0.3779 0.20213 0.0
H1105 H 0.16609 0.40804 0.27421 0.0
O1106 O 0.11345 0.40728 0.21182 0.0
C1107 C 0.18301 0.43163 0.1955 0.0
O1108 O 0.19066 0.43903 0.21998 0.0
N1109 N 0.13761 0.43326 0.25715 0.0
C1110 C 0.12724 0.44085 0.30895 0.0
C1111 C 0.11103 0.43594 0.28817 0.0
C1112 C 0.11689 0.43297 0.26216 0.0
C1113 C 0.15473 0.4413 0.27634 0.0
C1114 C 0.14977 0.44463 0.30264 0.0
H1115 H 0.10442 0.4299 0.24636 0.0
H1116 H 0.17223 0.44467 0.27127 0.0
H1117 H 0.11349 0.44859 0.20438 0.0
H1118 H 0.17912 0.51135 0.19784 0.0
H1119 H 0.13764 0.34658 0.22742 0.0
H1120 H 0.09391 0.4342 0.29203 0.0
H1121 H 0.16314 0.44929 0.31797 0.0
C1122 C 0.53936 0.70005 0.2313 0.0
C1123 C 0.52061 0.67848 0.2242 0.0
N1124 N 0.52903 0.66475 0.2151 0.0
N1125 N 0.55977 0.70024 0.22674 0.0
C1126 C 0.55293 0.67835 0.21696 0.0
H1127 H 0.53822 0.71484 0.23914 0.0
Co1128 Co 0.58917 0.72771 0.23273 0.0
C1129 C 0.62477 0.71277 0.24018 0.0
O1130 O 0.63451 0.72959 0.25824 0.0
N1131 N 0.61882 0.75623 0.23811 0.0
C1132 C 0.65519 0.78545 0.22845 0.0
C1133 C 0.63664 0.76425 0.22002 0.0
C1134 C 0.6271 0.7733 0.25728 0.0
N1135 N 0.6492 0.79118 0.25195 0.0
O1136 O 0.59052 0.73642 0.19522 0.0
H1137 H 0.63623 0.7551 0.20177 0.0
H1138 H 0.61717 0.7732 0.2746 0.0
O1139 O 0.60622 0.7096 0.22747 0.0
C1140 C 0.58367 0.75164 0.19644 0.0
O1141 O 0.5769 0.75538 0.21987 0.0
N1142 N 0.5855 0.72104 0.26943 0.0
C1143 C 0.57722 0.71692 0.32452 0.0
C1144 C 0.58241 0.7012 0.311 0.0
C1145 C 0.58599 0.70323 0.28317 0.0
C1146 C 0.57831 0.73483 0.28191 0.0
C1147 C 0.57479 0.73361 0.30944 0.0
H1148 H 0.58877 0.69034 0.27286 0.0
H1149 H 0.57601 0.74752 0.27042 0.0
H1150 H 0.56516 0.67271 0.21066 0.0
H1151 H 0.5021 0.67328 0.22572 0.0
H1152 H 0.6719 0.79569 0.21814 0.0
H1153 H 0.58331 0.68728 0.32171 0.0
H1154 H 0.57063 0.74602 0.31878 0.0
C1155 C 0.339 0.85226 0.23981 0.0
C1156 C 0.35997 0.85419 0.23165 0.0
N1157 N 0.3723 0.87452 0.21805 0.0
N1158 N 0.33795 0.87151 0.23209 0.0
C1159 C 0.35833 0.88433 0.21788 0.0
H1160 H 0.32504 0.83708 0.24991 0.0
Co1161 Co 0.31061 0.87477 0.2376 0.0
C1162 C 0.34796 0.92579 0.23297 0.0
O1163 O 0.36145 0.9216 0.24893 0.0
N1164 N 0.28335 0.87691 0.2424 0.0
C1165 C 0.25432 0.88456 0.23561 0.0
C1166 C 0.27584 0.88845 0.22646 0.0
C1167 C 0.26611 0.86605 0.26105 0.0
N1168 N 0.24819 0.87045 0.25738 0.0
O1169 O 0.29925 0.86168 0.20216 0.0
H1170 H 0.28514 0.89859 0.2089 0.0
H1171 H 0.2664 0.85458 0.27652 0.0
O1172 O 0.32796 0.90845 0.22515 0.0
C1173 C 0.28595 0.83966 0.20731 0.0
O1174 O 0.28483 0.83276 0.23233 0.0
N1175 N 0.31877 0.88428 0.27353 0.0
C1176 C 0.32039 0.8908 0.32918 0.0
C1177 C 0.32193 0.90825 0.31157 0.0
C1178 C 0.32006 0.90421 0.28399 0.0
C1179 C 0.31668 0.86694 0.29037 0.0
C1180 C 0.31753 0.86982 0.31811 0.0
H1181 H 0.31828 0.91659 0.27133 0.0
H1182 H 0.31232 0.84994 0.28254 0.0
H1183 H 0.36262 0.90011 0.20667 0.0
H1184 H 0.36568 0.84154 0.23544 0.0
H1185 H 0.24393 0.89151 0.22679 0.0
H1186 H 0.32386 0.92469 0.31884 0.0
H1187 H 0.31477 0.85515 0.33064 0.0
H1188 H 0.26459 0.22354 0.30838 0.0
H1189 H 0.2014 0.15549 0.32236 0.0
H1190 H 0.19553 0.14988 0.27366 0.0
H1191 H 0.24705 0.24285 0.25849 0.0
H1192 H 0.27321 0.25528 0.23782 0.0
H1193 H 0.27563 0.25269 0.27343 0.0
H1194 H 0.29613 0.22799 0.26661 0.0
H1195 H 0.29497 0.23146 0.23082 0.0
H1196 H 0.28263 0.20237 0.24517 0.0
H1197 H 0.19053 0.15765 0.22544 0.0
H1198 H 0.19332 0.17139 0.17908 0.0
H1199 H 0.264 0.22993 0.19579 0.0
C1200 C 0.25015 0.20681 0.30162 0.0
C1201 C 0.23288 0.19053 0.31962 0.0
C1202 C 0.21429 0.16896 0.30923 0.0
C1203 C 0.21088 0.16543 0.28149 0.0
C1204 C 0.22699 0.18297 0.26446 0.0
C1205 C 0.24701 0.20257 0.27406 0.0
C1206 C 0.2612 0.21916 0.25151 0.0
C1207 C 0.26444 0.24394 0.25558 0.0
C1208 C 0.28515 0.2203 0.24833 0.0
C1209 C 0.24509 0.20664 0.22806 0.0
C1210 C 0.22538 0.18591 0.23595 0.0
C1211 C 0.2065 0.17314 0.21861 0.0
C1212 C 0.20833 0.18118 0.19217 0.0
C1213 C 0.22923 0.20148 0.18295 0.0
C1214 C 0.24768 0.21438 0.20154 0.0
H1215 H 0.7843 0.01644 0.19541 0.0
H1216 H 0.85347 0.02486 0.17997 0.0
H1217 H 0.85886 0.02159 0.22853 0.0
H1218 H 0.79924 0.05013 0.25433 0.0
H1219 H 0.77183 0.03143 0.27163 0.0
H1220 H 0.77241 0.03272 0.2355 0.0
H1221 H 0.75437 0.98735 0.23279 0.0
H1222 H 0.75318 0.98585 0.26892 0.0
H1223 H 0.76837 0.97366 0.2506 0.0
H1224 H 0.85791 0.0202 0.27849 0.0
H1225 H 0.84877 0.01618 0.32698 0.0
H1226 H 0.7799 1.00783 0.3097 0.0
C1227 C 0.8003 0.01698 0.20222 0.0
C1228 C 0.81851 0.02098 0.18409 0.0
C1229 C 0.83941 0.02202 0.19369 0.0
C1230 C 0.84263 0.02019 0.22116 0.0
C1231 C 0.82472 0.01719 0.23862 0.0
C1232 C 0.8038 0.01518 0.22956 0.0
C1233 C 0.78753 0.01235 0.25264 0.0
C1234 C 0.78247 0.03289 0.25357 0.0
C1235 C 0.76451 0.98837 0.25115 0.0
C1236 C 0.80271 0.01334 0.27606 0.0
C1237 C 0.82411 0.01622 0.26753 0.0
C1238 C 0.84113 0.01772 0.28546 0.0
C1239 C 0.83581 0.01546 0.31289 0.0
C1240 C 0.81364 1.01168 0.32199 0.0
C1241 C 0.79711 1.01106 0.30333 0.0
H1242 H 0.02323 0.81442 0.30134 0.0
H1243 H 0.02048 0.74829 0.31998 0.0
H1244 H 1.01853 0.73939 0.2716 0.0
H1245 H 0.98441 0.79382 0.24363 0.0
H1246 H 1.00144 0.82109 0.22549 0.0
H1247 H 1.00095 0.82123 0.26164 0.0
H1248 H 0.04675 0.84228 0.2622 0.0
H1249 H 0.04737 0.84181 0.22605 0.0
H1250 H 0.06146 0.82893 0.24519 0.0
H1251 H 1.01854 0.73853 0.22125 0.0
H1252 H 1.01659 0.74397 0.1725 0.0
H1253 H 0.0222 0.81197 0.18714 0.0
C1254 C 0.02209 0.798 0.29529 0.0
C1255 C 0.02197 0.78204 0.31443 0.0
C1256 C 0.02018 0.7606 0.30568 0.0
C1257 C 0.01935 0.75552 0.27826 0.0
C1258 C 0.0204 0.77207 0.25994 0.0
C1259 C 0.02147 0.79275 0.26808 0.0
C1260 C 0.02273 0.80776 0.24439 0.0
C1261 C 1.00109 0.81116 0.24375 0.0
C1262 C 0.04596 0.8316 0.24447 0.0
C1263 C 0.02216 0.79226 0.22161 0.0
C1264 C 0.0209 0.7718 0.23097 0.0
C1265 C 0.01962 0.75452 0.21364 0.0
C1266 C 0.01882 0.75791 0.18598 0.0
C1267 C 0.01933 0.77844 0.17601 0.0
C1268 C 0.02164 0.79604 0.19414 0.0
H1269 H 0.78724 0.78836 0.69488 0.0
H1270 H 0.86166 0.83974 0.68612 0.0
H1271 H 0.86481 0.84678 0.73521 0.0
H1272 H 0.77448 0.81743 0.7511 0.0
H1273 H 0.75477 0.78961 0.767 0.0
H1274 H 0.75793 0.79127 0.73099 0.0
H1275 H 0.76879 0.75826 0.73248 0.0
H1276 H 0.76624 0.75689 0.76852 0.0
H1277 H 0.79335 0.76227 0.75282 0.0
H1278 H 0.86038 0.84605 0.78515 0.0
H1279 H 0.84824 0.83884 0.8329 0.0
H1280 H 0.77719 0.7863 0.809 0.0
C1281 C 0.80393 0.80166 0.70332 0.0
C1282 C 0.82412 0.81393 0.68703 0.0
C1283 C 0.84599 0.83056 0.69853 0.0
C1284 C 0.84793 0.83456 0.72627 0.0
C1285 C 0.82786 0.82157 0.74203 0.0
C1286 C 0.80623 0.80558 0.73099 0.0
C1287 C 0.78783 0.79268 0.7525 0.0
C1288 C 0.76756 0.79808 0.75026 0.0
C1289 C 0.77851 0.76594 0.75151 0.0
C1290 C 0.80256 0.80369 0.77735 0.0
C1291 C 0.82554 0.82044 0.77089 0.0
C1292 C 0.84242 0.83305 0.79049 0.0
C1293 C 0.83543 0.82879 0.81746 0.0
C1294 C 0.8119 0.8119 0.82442 0.0
C1295 C 0.79539 0.79901 0.80413 0.0
H1296 H 0.19838 0.99649 0.80308 0.0
H1297 H 0.26286 0.99627 0.82339 0.0
H1298 H 0.27031 0.99348 0.77549 0.0
H1299 H 0.18164 0.95546 0.74582 0.0
H1300 H 0.1708 0.97123 0.72629 0.0
H1301 H 0.16925 0.97125 0.76244 0.0
H1302 H 0.19259 0.01703 0.76271 0.0
H1303 H 0.19392 0.01712 0.72663 0.0
H1304 H 0.2208 0.03249 0.74591 0.0
H1305 H 0.2725 0.99361 0.72631 0.0
H1306 H 0.27129 1.00043 0.67804 0.0
H1307 H 0.20448 0.99877 0.68871 0.0
C1308 C 0.21394 0.99568 0.79736 0.0
C1309 C 0.23017 0.99685 0.81679 0.0
C1310 C 0.25046 0.99591 0.8087 0.0
C1311 C 0.25467 0.99394 0.78162 0.0
C1312 C 0.23832 0.99275 0.76295 0.0
C1313 C 0.21845 0.99374 0.77035 0.0
C1314 C 0.20472 0.99394 0.74602 0.0
C1315 C 0.18014 0.97163 0.7451 0.0
C1316 C 0.20292 0.01649 0.74528 0.0
C1317 C 0.22049 0.99378 0.72387 0.0
C1318 C 0.23949 0.9926 0.73413 0.0
C1319 C 0.25749 0.99409 0.71788 0.0
C1320 C 0.25652 0.99778 0.69041 0.0
C1321 C 0.2377 1.00001 0.67954 0.0
C1322 C 0.21908 0.99715 0.69643 0.0
H1323 H 0.02277 0.18507 0.68495 0.0
H1324 H 0.06764 0.25731 0.65814 0.0
H1325 H 0.08009 0.26964 0.70469 0.0
H1326 H 0.99918 0.19841 0.73618 0.0
H1327 H 0.9971 0.17654 0.75972 0.0
H1328 H 0.99711 0.17143 0.7243 0.0
H1329 H 0.03317 0.16542 0.72942 0.0
H1330 H 0.03294 0.16986 0.76513 0.0
H1331 H 0.05948 0.18768 0.74597 0.0
H1332 H 0.08043 0.27587 0.75366 0.0
H1333 H 0.07185 0.27477 0.80201 0.0
H1334 H 0.02479 0.19899 0.79735 0.0
C1335 C 0.03587 0.20333 0.68878 0.0
C1336 C 0.04419 0.2202 0.66791 0.0
C1337 C 0.06131 0.24394 0.67368 0.0
C1338 C 0.06839 0.25117 0.70015 0.0
C1339 C 0.05835 0.23442 0.72051 0.0
C1340 C 0.0428 0.21087 0.71512 0.0
C1341 C 0.0319 0.19707 0.74064 0.0
C1342 C 1.00473 0.18519 0.74016 0.0
C1343 C 0.03986 0.17894 0.74558 0.0
C1344 C 0.04262 0.21681 0.76099 0.0
C1345 C 0.05817 0.23812 0.74904 0.0
C1346 C 0.06869 0.25921 0.76336 0.0
C1347 C 0.06341 0.25846 0.79069 0.0
C1348 C 0.04757 0.23679 0.80333 0.0
C1349 C 0.03719 0.21573 0.78825 0.0
H1350 H 0.90548 0.5747 0.62789 0.0
H1351 H 0.83548 0.51519 0.64369 0.0
H1352 H 0.8272 0.51067 0.59502 0.0
H1353 H 0.88986 0.59935 0.57414 0.0
H1354 H 0.91615 0.60761 0.55469 0.0
H1355 H 0.91702 0.60602 0.59075 0.0
H1356 H 0.93237 0.57647 0.58737 0.0
H1357 H 0.93223 0.57854 0.55133 0.0
H1358 H 0.91623 0.55012 0.56745 0.0
H1359 H 0.82593 0.51382 0.54497 0.0
H1360 H 0.83398 0.52047 0.49632 0.0
H1361 H 0.90531 0.57685 0.51368 0.0
C1362 C 0.88862 0.56036 0.62111 0.0
C1363 C 0.87107 0.54539 0.63954 0.0
C1364 C 0.84907 0.52706 0.62987 0.0
C1365 C 0.84418 0.52438 0.60232 0.0
C1366 C 0.86154 0.54007 0.58478 0.0
C1367 C 0.88348 0.55737 0.59372 0.0
C1368 C 0.89921 0.57161 0.57065 0.0
C1369 C 0.90595 0.59769 0.5727 0.0
C1370 C 0.92131 0.56901 0.56911 0.0
C1371 C 0.88269 0.55956 0.54734 0.0
C1372 C 0.86095 0.54161 0.55591 0.0
C1373 C 0.84294 0.52773 0.53796 0.0
C1374 C 0.84765 0.53166 0.51042 0.0
C1375 C 0.87027 0.54914 0.50121 0.0
C1376 C 0.88769 0.56367 0.52002 0.0
H1377 H 0.47495 0.33717 0.51948 0.0
H1378 H 0.40416 0.31953 0.49512 0.0
H1379 H 0.38925 0.3033 0.54025 0.0
H1380 H 0.45847 0.28781 0.56621 0.0
H1381 H 0.48132 0.30624 0.5897 0.0
H1382 H 0.48558 0.31269 0.55427 0.0
H1383 H 0.4939 0.35518 0.56356 0.0
H1384 H 0.48969 0.34887 0.5989 0.0
H1385 H 0.47238 0.35927 0.58175 0.0
H1386 H 0.38288 0.29254 0.58924 0.0
H1387 H 0.38583 0.28933 0.63834 0.0
H1388 H 0.46154 0.31774 0.63047 0.0
C1389 C 0.45628 0.32978 0.52349 0.0
C1390 C 0.44074 0.3296 0.50375 0.0
C1391 C 0.41636 0.31949 0.5098 0.0
C1392 C 0.40772 0.31029 0.53539 0.0
C1393 C 0.4237 0.31137 0.55459 0.0
C1394 C 0.44747 0.32088 0.54891 0.0
C1395 C 0.46143 0.32223 0.57362 0.0
C1396 C 0.47233 0.30629 0.57077 0.0
C1397 C 0.48045 0.34791 0.57982 0.0
C1398 C 0.44192 0.31264 0.59428 0.0
C1399 C 0.42021 0.30603 0.58292 0.0
C1400 C 0.39977 0.29755 0.59837 0.0
C1401 C 0.40168 0.29604 0.62625 0.0
C1402 C 0.42394 0.30335 0.6383 0.0
C1403 C 0.44418 0.31152 0.62192 0.0
H1404 H 0.66296 0.09776 0.64297 0.0
H1405 H 0.65855 0.16088 0.65704 0.0
H1406 H 0.64788 0.16086 0.60968 0.0
H1407 H 0.68934 0.11201 0.58317 0.0
H1408 H 0.67323 0.08365 0.56698 0.0
H1409 H 0.67599 0.08533 0.60294 0.0
H1410 H 0.63051 0.0616 0.60843 0.0
H1411 H 0.62749 0.05912 0.5724 0.0
H1412 H 0.61255 0.07125 0.59132 0.0
H1413 H 0.64835 0.16011 0.56047 0.0
H1414 H 0.65053 0.15384 0.51251 0.0
H1415 H 0.64827 0.08754 0.52982 0.0
C1416 C 0.65865 0.11092 0.63641 0.0
C1417 C 0.66195 0.12954 0.65356 0.0
C1418 C 0.65662 0.14673 0.64409 0.0
C1419 C 0.6504 0.1468 0.61727 0.0
C1420 C 0.64888 0.12913 0.60046 0.0
C1421 C 0.65196 0.11098 0.60976 0.0
C1422 C 0.65076 0.09508 0.58694 0.0
C1423 C 0.6737 0.09397 0.5849 0.0
C1424 C 0.62903 0.07029 0.58995 0.0
C1425 C 0.64809 0.10808 0.56327 0.0
C1426 C 0.64706 0.12764 0.57163 0.0
C1427 C 0.64785 0.14419 0.5536 0.0
C1428 C 0.64898 0.14031 0.52622 0.0
C1429 C 0.64863 0.11964 0.51684 0.0
C1430 C 0.6483 0.10341 0.53588 0.0
H1431 H 0.43556 0.12125 0.12918 0.0
H1432 H 0.49766 0.18725 0.15169 0.0
H1433 H 0.51011 0.19484 0.10416 0.0
H1434 H 0.46358 0.10485 0.07929 0.0
H1435 H 0.43839 0.09213 0.05714 0.0
H1436 H 0.43413 0.09255 0.09279 0.0
H1437 H 0.41073 0.11438 0.08489 0.0
H1438 H 0.41518 0.11425 0.04919 0.0
H1439 H 0.42431 0.14173 0.06636 0.0
H1440 H 0.51674 0.19418 0.05484 0.0
H1441 H 0.51737 0.18482 0.00677 0.0
H1442 H 0.45056 0.11975 0.01684 0.0
C1443 C 0.45179 0.13724 0.12404 0.0
C1444 C 0.46565 0.15372 0.14387 0.0
C1445 C 0.48672 0.17457 0.13657 0.0
C1446 C 0.49391 0.17902 0.10972 0.0
C1447 C 0.47972 0.1625 0.09057 0.0
C1448 C 0.45913 0.14204 0.09737 0.0
C1449 C 0.44742 0.12687 0.07305 0.0
C1450 C 0.4458 0.10268 0.07573 0.0
C1451 C 0.42296 0.12416 0.06809 0.0
C1452 C 0.46486 0.14182 0.0516 0.0
C1453 C 0.48332 0.16235 0.06205 0.0
C1454 C 0.50227 0.1783 0.0463 0.0
C1455 C 0.50251 0.17287 0.01916 0.0
C1456 C 0.48388 0.15175 0.00828 0.0
C1457 C 0.4647 0.13629 0.02461 0.0
H1458 H 0.89197 0.37493 0.13725 0.0
H1459 H 0.95156 0.36609 0.15832 0.0
H1460 H 0.96489 0.37327 0.11137 0.0
H1461 H 0.87809 0.34256 0.0792 0.0
H1462 H 0.86945 0.36037 0.06004 0.0
H1463 H 0.86699 0.35941 0.09604 0.0
H1464 H 0.89312 0.40497 0.09836 0.0
H1465 H 0.89541 0.40613 0.06225 0.0
H1466 H 0.9218 0.41932 0.08252 0.0
H1467 H 0.96855 0.37537 0.06162 0.0
H1468 H 0.96348 0.37474 0.01243 0.0
H1469 H 0.90045 0.38008 0.02344 0.0
C1470 C 0.90811 0.37501 0.13213 0.0
C1471 C 0.92078 0.37014 0.1516 0.0
C1472 C 0.94181 0.37037 0.144 0.0
C1473 C 0.94947 0.37425 0.11728 0.0
C1474 C 0.93597 0.37794 0.09842 0.0
C1475 C 0.91588 0.37863 0.1055 0.0
C1476 C 0.90331 0.38063 0.08102 0.0
C1477 C 0.87797 0.35948 0.07897 0.0
C1478 C 0.90343 0.40417 0.08104 0.0
C1479 C 0.91899 0.38006 0.05906 0.0
C1480 C 0.93788 0.37879 0.06952 0.0
C1481 C 0.95402 0.3767 0.05315 0.0
C1482 C 0.95084 0.37607 0.0253 0.0
C1483 C 0.9316 0.37739 0.01418 0.0
C1484 C 0.91556 0.37946 0.03136 0.0
H1485 H 0.64824 0.55653 0.03358 0.0
H1486 H 0.67788 0.51109 0.01845 0.0
H1487 H 0.67507 0.50186 0.06638 0.0
H1488 H 0.68461 0.58341 0.08858 0.0
H1489 H 0.66319 0.58762 0.10686 0.0
H1490 H 0.66208 0.58618 0.07084 0.0
H1491 H 0.61849 0.55208 0.07353 0.0
H1492 H 0.61977 0.55315 0.10972 0.0
H1493 H 0.61139 0.52587 0.09245 0.0
H1494 H 0.67169 0.4992 0.11561 0.0
H1495 H 0.67814 0.51117 0.16306 0.0
H1496 H 0.65758 0.56353 0.14665 0.0
C1497 C 0.65425 0.54467 0.04007 0.0
C1498 C 0.6627 0.53412 0.02169 0.0
C1499 C 0.67033 0.5187 0.03163 0.0
C1500 C 0.66881 0.51328 0.05896 0.0
C1501 C 0.66017 0.5238 0.07632 0.0
C1502 C 0.65372 0.53973 0.0674 0.0
C1503 C 0.64927 0.55191 0.09061 0.0
C1504 C 0.66578 0.57886 0.08914 0.0
C1505 C 0.62317 0.54535 0.09163 0.0
C1506 C 0.6554 0.54113 0.11394 0.0
C1507 C 0.66047 0.52412 0.10523 0.0
C1508 C 0.66783 0.51252 0.12272 0.0
C1509 C 0.67158 0.51956 0.14958 0.0
C1510 C 0.66889 0.53866 0.15838 0.0
C1511 C 0.65954 0.54872 0.14062 0.0
H1512 H 0.58241 0.93693 0.95687 0.0
H1513 H 0.50916 0.8804 0.96025 0.0
H1514 H 0.5085 0.8772 0.91105 0.0
H1515 H 0.57908 0.96292 0.89208 0.0
H1516 H 0.60781 0.96844 0.88157 0.0
H1517 H 0.60164 0.96913 0.91675 0.0
H1518 H 0.61386 0.93783 0.92669 0.0
H1519 H 0.62022 0.93721 0.89167 0.0
H1520 H 0.5997 0.91026 0.90862 0.0
H1521 H 0.51663 0.87676 0.86284 0.0
H1522 H 0.53398 0.8774 0.8186 0.0
H1523 H 0.60228 0.93315 0.84605 0.0
C1524 C 0.56617 0.924 0.94727 0.0
C1525 C 0.54575 0.90914 0.96246 0.0
C1526 C 0.52486 0.89243 0.94907 0.0
C1527 C 0.5243 0.89044 0.9211 0.0
C1528 C 0.54476 0.90525 0.90679 0.0
C1529 C 0.56535 0.92164 0.91936 0.0
C1530 C 0.58555 0.93363 0.89956 0.0
C1531 C 0.59401 0.9601 0.89737 0.0
C1532 C 0.60603 0.92947 0.90708 0.0
C1533 C 0.57329 0.9207 0.87408 0.0
C1534 C 0.54964 0.90477 0.87866 0.0
C1535 C 0.53501 0.8894 0.85885 0.0
C1536 C 0.545 0.88983 0.83389 0.0
C1537 C 0.56934 0.90541 0.82913 0.0
C1538 C 0.58351 0.92148 0.84916 0.0
H1539 H 0.12586 0.6778 0.97339 0.0
H1540 H 0.18973 0.67421 0.9853 0.0
H1541 H 0.19931 0.68261 0.937 0.0
H1542 H 0.11039 0.64887 0.9113 0.0
H1543 H 0.09925 0.66674 0.89715 0.0
H1544 H 0.09838 0.66236 0.93292 0.0
H1545 H 0.12201 0.70761 0.94051 0.0
H1546 H 0.12262 0.71217 0.90478 0.0
H1547 H 0.14986 0.72515 0.92353 0.0
H1548 H 0.2008 0.68964 0.88728 0.0
H1549 H 0.19476 0.69602 0.83967 0.0
H1550 H 0.12964 0.69449 0.86094 0.0
C1551 C 0.14218 0.67938 0.96598 0.0
C1552 C 0.15721 0.67561 0.98297 0.0
C1553 C 0.17803 0.67709 0.97246 0.0
C1554 C 0.1836 0.68186 0.94516 0.0
C1555 C 0.1681 0.685 0.92883 0.0
C1556 C 0.14789 0.68396 0.93888 0.0
C1557 C 0.13363 0.68699 0.917 0.0
C1558 C 0.10896 0.66492 0.91445 0.0
C1559 C 0.13195 0.70931 0.92174 0.0
C1560 C 0.14889 0.68974 0.89298 0.0
C1561 C 0.16873 0.68863 0.90021 0.0
C1562 C 0.18541 0.69067 0.88139 0.0
C1563 C 0.18185 0.69429 0.85449 0.0
C1564 C 0.16173 0.69569 0.8468 0.0
C1565 C 0.145 0.69318 0.86628 0.0
H1566 H 0.38258 0.49656 0.95825 0.0
H1567 H 0.383 0.43161 0.97396 0.0
H1568 H 0.3808 0.42371 0.9252 0.0
H1569 H 0.34074 0.47419 0.90621 0.0
H1570 H 0.35441 0.50089 0.88651 0.0
H1571 H 0.35816 0.50241 0.92238 0.0
H1572 H 0.40369 0.52518 0.91623 0.0
H1573 H 0.40006 0.52363 0.88028 0.0
H1574 H 0.41738 0.51252 0.89598 0.0
H1575 H 0.37636 0.42182 0.87544 0.0
H1576 H 0.36693 0.42437 0.82813 0.0
H1577 H 0.36983 0.49088 0.84464 0.0
C1578 C 0.38259 0.48088 0.95135 0.0
C1579 C 0.38305 0.46471 0.96971 0.0
C1580 C 0.3825 0.4441 0.9601 0.0
C1581 C 0.38149 0.4396 0.93251 0.0
C1582 C 0.38104 0.4559 0.9149 0.0
C1583 C 0.38144 0.47606 0.92391 0.0
C1584 C 0.37905 0.48983 0.90093 0.0
C1585 C 0.35676 0.49194 0.90421 0.0
C1586 C 0.40138 0.51424 0.8982 0.0
C1587 C 0.37669 0.47398 0.87765 0.0
C1588 C 0.37827 0.45471 0.8861 0.0
C1589 C 0.37542 0.43698 0.86848 0.0
C1590 C 0.37024 0.43869 0.84159 0.0
C1591 C 0.36783 0.45793 0.83265 0.0
C1592 C 0.37161 0.47601 0.85088 0.0
H1593 H 0.15298 0.47262 0.34839 0.0
H1594 H 0.08615 0.40875 0.33303 0.0
H1595 H 0.0756 0.40668 0.38095 0.0
H1596 H 0.16446 0.45506 0.41134 0.0
H1597 H 0.1771 0.48391 0.4264 0.0
H1598 H 0.17898 0.48112 0.39063 0.0
H1599 H 0.15881 0.50605 0.38266 0.0
H1600 H 0.15704 0.50909 0.41841 0.0
H1601 H 0.13065 0.4972 0.3982 0.0
H1602 H 0.07332 0.41023 0.43051 0.0
H1603 H 0.07813 0.42093 0.47857 0.0
H1604 H 0.14644 0.48246 0.46159 0.0
C1605 C 0.13609 0.45828 0.35513 0.0
C1606 C 0.12033 0.44087 0.33712 0.0
C1607 C 0.09831 0.42244 0.34653 0.0
C1608 C 0.09224 0.42102 0.37368 0.0
C1609 C 0.10835 0.43825 0.391 0.0
C1610 C 0.12971 0.45666 0.38211 0.0
C1611 C 0.1439 0.47276 0.40495 0.0
C1612 C 0.16751 0.47323 0.40853 0.0
C1613 C 0.14782 0.49775 0.4008 0.0
C1614 C 0.12728 0.46035 0.42811 0.0
C1615 C 0.10692 0.44044 0.41963 0.0
C1616 C 0.08913 0.42583 0.43742 0.0
C1617 C 0.0921 0.43192 0.46464 0.0
C1618 C 0.11265 0.45247 0.47365 0.0
C1619 C 0.13048 0.46677 0.45514 0.0
H1620 H 0.60065 0.69658 0.47631 0.0
H1621 H 0.5457 0.71197 0.49877 0.0
H1622 H 0.54359 0.72307 0.4519 0.0
H1623 H 0.62898 0.74394 0.42276 0.0
H1624 H 0.63478 0.7249 0.40194 0.0
H1625 H 0.63503 0.72255 0.438 0.0
H1626 H 0.60407 0.67803 0.43438 0.0
H1627 H 0.60316 0.68031 0.39846 0.0
H1628 H 0.57631 0.66902 0.41778 0.0
H1629 H 0.5422 0.72518 0.4024 0.0
H1630 H 0.54522 0.7235 0.35331 0.0
H1631 H 0.6024 0.7084 0.36271 0.0
C1632 C 0.58899 0.70334 0.47156 0.0
C1633 C 0.57343 0.70359 0.49103 0.0
C1634 C 0.55777 0.71174 0.48402 0.0
C1635 C 0.55646 0.71806 0.45752 0.0
C1636 C 0.57112 0.71636 0.43845 0.0
C1637 C 0.58747 0.70972 0.44518 0.0
C1638 C 0.59967 0.7074 0.42046 0.0
C1639 C 0.62619 0.7258 0.42081 0.0
C1640 C 0.59554 0.68219 0.41762 0.0
C1641 C 0.58688 0.71279 0.39876 0.0
C1642 C 0.5706 0.71804 0.40961 0.0
C1643 C 0.55539 0.72183 0.39363 0.0
C1644 C 0.55726 0.72084 0.36575 0.0
C1645 C 0.57434 0.71623 0.35409 0.0
C1646 C 0.58919 0.71199 0.37094 0.0
H1647 H 0.33653 0.87221 0.36782 0.0
H1648 H 0.30447 0.91613 0.35825 0.0
H1649 H 0.3071 0.92281 0.40697 0.0
H1650 H 0.30406 0.84399 0.43033 0.0
H1651 H 0.32866 0.84216 0.44385 0.0
H1652 H 0.32392 0.8406 0.40808 0.0
H1653 H 0.36658 0.87555 0.40134 0.0
H1654 H 0.3714 0.87735 0.43702 0.0
H1655 H 0.37574 0.90296 0.41869 0.0
H1656 H 0.31783 0.92853 0.45576 0.0
H1657 H 0.33244 0.93015 0.50132 0.0
H1658 H 0.34982 0.87608 0.48014 0.0
C1659 C 0.32946 0.88277 0.37579 0.0
C1660 C 0.32066 0.89391 0.3588 0.0
C1661 C 0.31209 0.90798 0.37046 0.0
C1662 C 0.31315 0.91163 0.39825 0.0
C1663 C 0.32211 0.9005 0.41421 0.0
C1664 C 0.32962 0.88596 0.40347 0.0
C1665 C 0.33852 0.87608 0.425 0.0
C1666 C 0.32285 0.84911 0.42693 0.0
C1667 C 0.3646 0.88344 0.42022 0.0
C1668 C 0.3357 0.88812 0.44943 0.0
C1669 C 0.32632 0.90221 0.44278 0.0
C1670 C 0.32449 0.91699 0.46143 0.0
C1671 C 0.33274 0.91759 0.48752 0.0
C1672 C 0.34233 0.90314 0.495 0.0
C1673 C 0.34308 0.88775 0.47558 0.0
H1674 H 0.33633 0.30307 0.03763 0.0
H1675 H 0.27229 0.28235 0.08316 0.0
H1676 H 0.28931 0.3232 0.10011 0.0
H1677 H 0.37661 0.3422 0.08728 0.0
H1678 H 0.39657 0.36331 0.06312 0.0
H1679 H 0.37903 0.33264 0.05407 0.0
H1680 H 0.36173 0.34375 0.01347 0.0
H1681 H 0.37944 0.37446 0.02224 0.0
H1682 H 0.34785 0.36124 0.0189 0.0
H1683 H 0.31396 0.36768 0.11168 0.0
H1684 H 0.34332 0.41045 0.11582 0.0
H1685 H 0.39131 0.40061 0.0644 0.0
C1686 C 0.32576 0.30714 0.05095 0.0
C1687 C 0.30291 0.28939 0.059 0.0
C1688 C 0.28988 0.29554 0.07678 0.0
C1689 C 0.29941 0.31876 0.08652 0.0
C1690 C 0.32214 0.33577 0.07852 0.0
C1691 C 0.33511 0.33017 0.0611 0.0
C1692 C 0.35923 0.35147 0.05579 0.0
C1693 C 0.37902 0.34714 0.06566 0.0
C1694 C 0.36223 0.35812 0.02582 0.0
C1695 C 0.35782 0.36995 0.07275 0.0
C1696 C 0.33632 0.36073 0.08571 0.0
C1697 C 0.33092 0.37498 0.10174 0.0
C1698 C 0.34776 0.39927 0.10414 0.0
C1699 C 0.36981 0.40907 0.09071 0.0
C1700 C 0.3748 0.39389 0.07523 0.0
H1701 H 0.63634 0.95666 0.13566 0.0
H1702 H 0.61088 0.95489 0.05478 0.0
H1703 H 0.6518 0.97638 0.03819 0.0
H1704 H 0.68438 0.01616 0.13068 0.0
H1705 H 0.70418 1.01107 0.15106 0.0
H1706 H 0.67274 0.99352 0.15613 0.0
H1707 H 0.6749 0.95545 0.14902 0.0
H1708 H 0.70636 0.97294 0.14374 0.0
H1709 H 0.68785 0.95198 0.11862 0.0
H1710 H 0.69654 0.99846 0.03008 0.0
H1711 H 0.74037 0.02312 0.0328 0.0
H1712 H 0.73626 0.01351 0.11916 0.0
C1713 C 0.63931 0.96057 0.11442 0.0
C1714 C 0.62007 0.95308 0.09645 0.0
C1715 C 0.62501 0.95928 0.0689 0.0
C1716 C 0.64835 0.97177 0.05924 0.0
C1717 C 0.66685 0.97853 0.07737 0.0
C1718 C 0.66258 0.97348 0.10448 0.0
C1719 C 0.68558 0.98426 0.12008 0.0
C1720 C 0.68678 1.00233 0.1407 0.0
C1721 C 0.68886 0.965 0.13366 0.0
C1722 C 0.70336 0.99622 0.09758 0.0
C1723 C 0.69233 0.99241 0.07298 0.0
C1724 C 0.70534 1.00164 0.0493 0.0
C1725 C 0.73021 0.01551 0.05094 0.0
C1726 C 0.74168 0.02038 0.07614 0.0
C1727 C 0.72797 1.01029 0.09959 0.0
H1728 H 1.01453 0.71056 0.01222 0.0
H1729 H 0.99359 0.7176 0.09285 0.0
H1730 H 1.01474 0.69841 0.11122 0.0
H1731 H 1.00834 0.65279 0.02252 0.0
H1732 H 0.03344 0.65926 0.00168 0.0
H1733 H 1.01643 0.67344 0.99512 0.0
H1734 H 0.05456 0.71433 -0.00135 0.0
H1735 H 0.07163 0.70025 0.00552 0.0
H1736 H 0.07232 0.72176 0.02865 0.0
H1737 H 0.04024 0.67945 0.12113 0.0
H1738 H 0.0642 0.65955 0.12045 0.0
H1739 H 0.06689 0.66423 0.03349 0.0
C1740 C 1.01415 0.70787 0.03371 0.0
C1741 C 1.00253 0.71593 0.051 0.0
C1742 C 1.00256 0.71194 0.07906 0.0
C1743 C 1.01457 0.70101 0.08978 0.0
C1744 C 0.02633 0.69381 0.07224 0.0
C1745 C 0.02592 0.69683 0.04475 0.0
C1746 C 0.03972 0.68732 0.03016 0.0
C1747 C 0.02351 0.667 0.01126 0.0
C1748 C 0.06081 0.7071 0.01485 0.0
C1749 C 0.04793 0.67853 0.05364 0.0
C1750 C 0.04028 0.68253 0.07784 0.0
C1751 C 0.04619 0.67611 0.10222 0.0
C1752 C 0.05989 0.66492 0.10172 0.0
C1753 C 0.06727 0.6601 0.07699 0.0
C1754 C 0.06133 0.66733 0.05281 0.0
H1755 H 0.3939 0.33706 0.42135 0.0
H1756 H 0.41118 0.36761 0.34163 0.0
H1757 H 0.36824 0.34882 0.33127 0.0
H1758 H 0.34099 0.28083 0.40185 0.0
H1759 H 0.32584 0.27951 0.43263 0.0
H1760 H 0.35763 0.2936 0.43216 0.0
H1761 H 0.36029 0.33154 0.45154 0.0
H1762 H 0.32856 0.31784 0.45139 0.0
H1763 H 0.34631 0.34533 0.43389 0.0
H1764 H 0.32325 0.32944 0.33172 0.0
H1765 H 0.28028 0.30712 0.34012 0.0
H1766 H 0.29277 0.28914 0.41998 0.0
C1767 C 0.38862 0.3393 0.40144 0.0
C1768 C 0.40576 0.35358 0.38211 0.0
C1769 C 0.3983 0.35637 0.35645 0.0
C1770 C 0.37398 0.34597 0.35059 0.0
C1771 C 0.35752 0.33271 0.37057 0.0
C1772 C 0.3646 0.32895 0.39529 0.0
C1773 C 0.34361 0.31436 0.41353 0.0
C1774 C 0.34192 0.29067 0.42044 0.0
C1775 C 0.34477 0.3281 0.43909 0.0
C1776 C 0.32346 0.31088 0.39551 0.0
C1777 C 0.33185 0.32159 0.37082 0.0
C1778 C 0.31656 0.32085 0.3509 0.0
C1779 C 0.29214 0.30823 0.35596 0.0
C1780 C 0.28304 0.29642 0.38078 0.0
C1781 C 0.29907 0.29821 0.40096 0.0
H1782 H 0.75564 0.03047 0.43061 0.0
H1783 H 0.69097 0.96343 0.421 0.0
H1784 H 0.66881 0.98421 0.41297 0.0
H1785 H 0.72769 0.06276 0.46268 0.0
H1786 H 0.74717 0.08971 0.44507 0.0
H1787 H 0.7572 0.0695 0.45396 0.0
H1788 H 0.76772 0.06809 0.40413 0.0
H1789 H 0.75715 0.08778 0.39495 0.0
H1790 H 0.74513 0.05941 0.37884 0.0
H1791 H 0.65455 1.01192 0.4 0.0
H1792 H 0.6479 0.04493 0.38948 0.0
H1793 H 0.72152 0.09467 0.40744 0.0
C1794 C 0.73663 0.02024 0.42814 0.0
C1795 C 0.72485 0.99528 0.4272 0.0
C1796 C 0.70017 0.98251 0.42251 0.0
C1797 C 0.68748 0.99418 0.41764 0.0
C1798 C 0.6997 0.01876 0.41741 0.0
C1799 C 0.72363 0.03172 0.42308 0.0
C1800 C 0.7326 0.05799 0.42004 0.0
C1801 C 0.7417 0.07074 0.44705 0.0
C1802 C 0.75178 0.06895 0.39819 0.0
C1803 C 0.71012 0.05767 0.41138 0.0
C1804 C 0.6914 0.03483 0.40989 0.0
C1805 C 0.66903 0.02991 0.40145 0.0
C1806 C 0.66546 0.04884 0.39522 0.0
C1807 C 0.68411 0.07252 0.39756 0.0
C1808 C 0.70683 0.07683 0.40542 0.0
H1809 H 0.97406 0.62199 0.39232 0.0
H1810 H 0.97227 0.60838 0.4779 0.0
H1811 H 0.99459 0.65105 0.48672 0.0
H1812 H 0.03402 0.67274 0.39181 0.0
H1813 H 0.02723 0.68843 0.3669 0.0
H1814 H 1.01121 0.65664 0.3673 0.0
H1815 H 0.97176 0.65688 0.37033 0.0
H1816 H 0.9877 0.68867 0.37025 0.0
H1817 H 0.96745 0.67281 0.39718 0.0
H1818 H 1.01542 0.69601 0.48676 0.0
H1819 H 0.03697 0.73906 0.47678 0.0
H1820 H 0.02687 0.72321 0.39163 0.0
C1821 C 0.97863 0.62796 0.41287 0.0
C1822 C 0.97128 0.6116 0.43433 0.0
C1823 C 0.97761 0.62035 0.46097 0.0
C1824 C 0.99025 0.64468 0.46629 0.0
C1825 C 0.9968 0.66031 0.44481 0.0
C1826 C 0.99154 0.65231 0.41858 0.0
C1827 C 1.00101 0.67288 0.39914 0.0
C1828 C 0.01947 0.67266 0.38017 0.0
C1829 C 0.98077 0.6728 0.38329 0.0
C1830 C 1.01232 0.69357 0.4185 0.0
C1831 C 1.00948 0.68603 0.44481 0.0
C1832 C 1.01795 0.70211 0.46617 0.0
C1833 C 0.03005 0.72651 0.4604 0.0
C1834 C 0.03387 0.73451 0.43351 0.0
C1835 C 0.02459 0.71769 0.41245 0.0
H1836 H 0.72153 0.63222 0.91674 0.0
H1837 H 0.64913 0.60573 0.89086 0.0
H1838 H 0.6543 0.6455 0.89732 0.0
H1839 H 0.72274 0.67105 0.96801 0.0
H1840 H 0.7527 0.69399 0.96135 0.0
H1841 H 0.7437 0.66365 0.95421 0.0
H1842 H 0.75732 0.67444 0.90481 0.0
H1843 H 0.76679 0.70486 0.91197 0.0
H1844 H 0.7462 0.68985 0.88507 0.0
H1845 H 0.66714 0.68804 0.90736 0.0
H1846 H 0.68782 0.73104 0.91506 0.0
H1847 H 0.75203 0.73044 0.93492 0.0
C1848 C 0.70678 0.63477 0.91214 0.0
C1849 C 0.68485 0.61566 0.9032 0.0
C1850 C 0.66611 0.61995 0.89748 0.0
C1851 C 0.66885 0.6425 0.90134 0.0
C1852 C 0.69046 0.66069 0.91087 0.0
C1853 C 0.70923 0.65718 0.91581 0.0
C1854 C 0.73077 0.67986 0.92539 0.0
C1855 C 0.73789 0.67695 0.95394 0.0
C1856 C 0.75149 0.68772 0.90563 0.0
C1857 C 0.72123 0.69677 0.92507 0.0
C1858 C 0.69786 0.68523 0.91681 0.0
C1859 C 0.68536 0.69716 0.91397 0.0
C1860 C 0.69722 0.72158 0.91862 0.0
C1861 C 0.72136 0.73404 0.92621 0.0
C1862 C 0.73338 0.72131 0.93006 0.0
H1863 H 0.40563 0.05261 0.9479 0.0
H1864 H 0.41577 0.07706 0.86527 0.0
H1865 H 0.37223 0.05775 0.85997 0.0
H1866 H 0.35492 0.99641 0.93735 0.0
H1867 H 0.34085 0.99641 0.9685 0.0
H1868 H 0.37259 0.0127 0.96584 0.0
H1869 H 0.37295 0.05073 0.98086 0.0
H1870 H 0.34116 0.03458 0.98343 0.0
H1871 H 0.35565 0.06055 0.96258 0.0
H1872 H 0.32788 0.03383 0.86313 0.0
H1873 H 0.28602 1.00727 0.87362 0.0
H1874 H 0.30412 0.99968 0.95537 0.0
C1875 C 0.39884 0.05404 0.92859 0.0
C1876 C 0.41428 0.06636 0.90686 0.0
C1877 C 0.40442 0.06773 0.88212 0.0
C1878 C 0.37971 0.05687 0.87902 0.0
C1879 C 0.36512 0.04493 0.90092 0.0
C1880 C 0.37434 0.04353 0.92526 0.0
C1881 C 0.35487 0.02929 0.94554 0.0
C1882 C 0.35587 1.0074 0.95485 0.0
C1883 C 0.35625 0.04471 0.96952 0.0
C1884 C 0.33302 0.02242 0.9287 0.0
C1885 C 0.33947 0.03175 0.90305 0.0
C1886 C 0.3227 0.02683 0.88323 0.0
C1887 C 0.29886 1.01173 0.88952 0.0
C1888 C 0.29161 1.00178 0.91555 0.0
C1889 C 0.30899 1.00751 0.93557 0.0
H1890 H 1.004 0.37878 0.92634 0.0
H1891 H 0.9499 0.33308 0.86961 0.0
H1892 H 0.96202 0.303 0.87589 0.0
H1893 H 0.0484 0.36372 0.90855 0.0
H1894 H 0.05782 0.36505 0.94284 0.0
H1895 H 0.04576 0.38313 0.93217 0.0
H1896 H 1.01444 0.36535 0.97007 0.0
H1897 H 0.02618 0.34697 0.98066 0.0
H1898 H 0.99534 0.3338 0.97206 0.0
H1899 H 0.98024 0.27765 0.88955 0.0
H1900 H 1.00255 0.25975 0.90847 0.0
H1901 H 0.04294 0.32171 0.95812 0.0
C1902 C 0.9948 0.36262 0.91483 0.0
C1903 C 0.97606 0.35847 0.89719 0.0
C1904 C 0.96445 0.33685 0.88296 0.0
C1905 C 0.97116 0.31962 0.88655 0.0
C1906 C 0.98937 0.32419 0.9046 0.0
C1907 C 1.001 0.34524 0.91845 0.0
C1908 C 0.01938 0.34574 0.93745 0.0
C1909 C 0.04431 0.36558 0.92978 0.0
C1910 C 1.01347 0.3481 0.96679 0.0
C1911 C 1.01644 0.32164 0.93219 0.0
C1912 C 0.99914 0.30949 0.91309 0.0
C1913 C 0.99373 0.28705 0.90456 0.0
C1914 C 1.00651 0.277 0.9155 0.0
C1915 C 0.02442 0.2892 0.93499 0.0
C1916 C 0.02916 0.31173 0.94359 0.0
H1917 H 0.72635 0.75211 0.58594 0.0
H1918 H 0.75546 0.71125 0.55193 0.0
H1919 H 0.71505 0.67624 0.5496 0.0
H1920 H 0.68677 0.70961 0.62839 0.0
H1921 H 0.66346 0.71648 0.62454 0.0
H1922 H 0.69373 0.73908 0.61936 0.0
H1923 H 0.68379 0.74708 0.57152 0.0
H1924 H 0.6533 0.72489 0.57678 0.0
H1925 H 0.66914 0.72293 0.54819 0.0
H1926 H 0.67147 0.64429 0.55708 0.0
H1927 H 0.62891 0.62004 0.56819 0.0
H1928 H 0.62944 0.68247 0.59825 0.0
C1929 C 0.72412 0.73603 0.57702 0.0
C1930 C 0.74398 0.73447 0.56871 0.0
C1931 C 0.74044 0.713 0.55775 0.0
C1932 C 0.71756 0.69296 0.55669 0.0
C1933 C 0.69847 0.69483 0.5664 0.0
C1934 C 0.70154 0.71605 0.57579 0.0
C1935 C 0.67862 0.71337 0.58655 0.0
C1936 C 0.68079 0.72003 0.61648 0.0
C1937 C 0.67075 0.72793 0.56975 0.0
C1938 C 0.66219 0.68719 0.58251 0.0
C1939 C 0.67383 0.67672 0.57078 0.0
C1940 C 0.66221 0.65245 0.56594 0.0
C1941 C 0.63805 0.63876 0.57258 0.0
C1942 C 0.62569 0.64931 0.58398 0.0
C1943 C 0.63819 0.67383 0.58928 0.0
H1944 H 0.37809 0.97933 0.54648 0.0
H1945 H 0.37879 0.98166 0.63356 0.0
H1946 H 0.35428 1.00096 0.63209 0.0
H1947 H 0.38018 0.03449 0.53355 0.0
H1948 H 0.36027 0.02287 0.50539 0.0
H1949 H 0.37897 1.01089 0.5137 0.0
H1950 H 0.34229 0.96925 0.51668 0.0
H1951 H 0.3232 0.98082 0.50875 0.0
H1952 H 0.31838 0.96386 0.53902 0.0
H1953 H 0.33043 0.02121 0.62006 0.0
H1954 H 0.30631 0.03639 0.59983 0.0
H1955 H 0.31864 0.01692 0.52067 0.0
C1956 C 0.37352 0.98423 0.56537 0.0
C1957 C 0.38086 0.97947 0.59022 0.0
C1958 C 0.37366 0.98543 0.61434 0.0
C1959 C 0.35977 0.9964 0.61363 0.0
C1960 C 0.35294 1.00085 0.58865 0.0
C1961 C 0.35941 0.99465 0.56501 0.0
C1962 C 0.34876 0.99988 0.54076 0.0
C1963 C 0.36821 0.01812 0.52227 0.0
C1964 C 0.33215 0.97708 0.52541 0.0
C1965 C 0.33518 1.0101 0.5543 0.0
C1966 C 0.33807 1.01085 0.5819 0.0
C1967 C 0.32779 0.02029 0.59854 0.0
C1968 C 0.31394 0.02876 0.58678 0.0
C1969 C 0.30988 0.02726 0.55861 0.0
C1970 C 0.32102 0.01806 0.54224 0.0
H1971 H 0.05798 0.30669 0.58071 0.0
H1972 H 0.98445 0.27734 0.55818 0.0
H1973 H 0.98872 0.31702 0.56294 0.0
H1974 H 0.05953 0.34484 0.63088 0.0
H1975 H 0.08891 0.36862 0.62342 0.0
H1976 H 0.08092 0.33862 0.61586 0.0
H1977 H 0.09277 0.34965 0.56603 0.0
H1978 H 0.10151 0.37982 0.57367 0.0
H1979 H 0.08035 0.36444 0.54736 0.0
H1980 H 1.00047 0.3594 0.57375 0.0
H1981 H 0.02007 0.40225 0.58207 0.0
H1982 H 0.08605 0.40397 0.59843 0.0
C1983 C 0.04291 0.30872 0.57606 0.0
C1984 C 0.02089 0.28892 0.56877 0.0
C1985 C 1.00157 0.29227 0.5632 0.0
C1986 C 1.00378 0.3147 0.56627 0.0
C1987 C 0.02547 0.33357 0.57476 0.0
C1988 C 0.04485 0.3309 0.57896 0.0
C1989 C 0.06616 0.35389 0.58813 0.0
C1990 C 0.07435 0.35132 0.61624 0.0
C1991 C 0.08639 0.36246 0.56757 0.0
C1992 C 0.05574 0.37001 0.58875 0.0
C1993 C 0.0322 0.35786 0.58112 0.0
C1994 C 0.01888 0.36901 0.57965 0.0
C1995 C 0.03014 0.39335 0.58471 0.0
C1996 C 0.05454 0.40648 0.59121 0.0
C1997 C 0.06729 0.39442 0.59411 0.0
H1998 H 0.06258 0.66897 0.68298 0.0
H1999 H 0.08878 0.69337 0.76349 0.0
H2000 H 0.04812 0.6715 0.78107 0.0
H2001 H 1.01176 0.67564 0.68967 0.0
H2002 H 0.99296 0.65016 0.6695 0.0
H2003 H 0.02437 0.66615 0.66371 0.0
H2004 H 0.0257 0.62757 0.67028 0.0
H2005 H 0.99428 0.61151 0.67632 0.0
H2006 H 1.01422 0.61083 0.70082 0.0
H2007 H 1.00345 0.64656 0.79011 0.0
H2008 H 0.95946 0.62507 0.78826 0.0
H2009 H 0.9628 0.61945 0.70183 0.0
C2010 C 0.05984 0.66959 0.70434 0.0
C2011 C 0.07921 0.68239 0.72186 0.0
C2012 C 0.07455 0.68305 0.74963 0.0
C2013 C 0.05137 0.67076 0.75987 0.0
C2014 C 0.03274 0.65804 0.74214 0.0
C2015 C 0.03673 0.65767 0.71488 0.0
C2016 C 1.01357 0.64398 0.69981 0.0
C2017 C 1.01049 0.65994 0.67948 0.0
C2018 C 1.01185 0.62218 0.686 0.0
C2019 C 0.99599 0.6369 0.72275 0.0
C2020 C 1.00729 0.6448 0.74713 0.0
C2021 C 0.99445 0.64032 0.77108 0.0
C2022 C 0.96949 0.62798 0.76993 0.0
C2023 C 0.9577 0.62065 0.74496 0.0
C2024 C 0.97128 0.62492 0.72126 0.0
H2025 H 0.36154 0.41085 0.71254 0.0
H2026 H 0.29443 0.34728 0.72772 0.0
H2027 H 0.31561 0.32773 0.74527 0.0
H2028 H 0.39396 0.382 0.69228 0.0
H2029 H 0.4209 0.4036 0.70838 0.0
H2030 H 0.40019 0.41195 0.69622 0.0
H2031 H 0.39855 0.42731 0.74366 0.0
H2032 H 0.41888 0.41855 0.75615 0.0
H2033 H 0.3905 0.40768 0.77205 0.0
H2034 H 0.34451 0.31553 0.7632 0.0
H2035 H 0.37846 0.3102 0.77399 0.0
H2036 H 0.42653 0.38197 0.74792 0.0
C2037 C 0.35126 0.39279 0.71945 0.0
C2038 C 0.32623 0.38072 0.71882 0.0
C2039 C 0.31357 0.35694 0.72772 0.0
C2040 C 0.32547 0.34572 0.73804 0.0
C2041 C 0.3501 0.35844 0.73934 0.0
C2042 C 0.36285 0.38135 0.7299 0.0
C2043 C 0.3892 0.39111 0.73331 0.0
C2044 C 0.4018 0.39753 0.70592 0.0
C2045 C 0.39991 0.41242 0.75243 0.0
C2046 C 0.38933 0.37004 0.74586 0.0
C2047 C 0.36661 0.35144 0.7495 0.0
C2048 C 0.36237 0.33001 0.76041 0.0
C2049 C 0.38182 0.3272 0.76677 0.0
C2050 C 0.40528 0.34564 0.76196 0.0
C2051 C 0.40889 0.36752 0.75204 0.0
H2052 H 0.64219 0.97477 0.66661 0.0
H2053 H 0.65453 0.94789 0.74088 0.0
H2054 H 0.68045 0.98856 0.7567 0.0
H2055 H 0.70262 0.0247 0.66037 0.0
H2056 H 0.69313 0.04409 0.64673 0.0
H2057 H 0.67576 0.01275 0.641 0.0
H2058 H 0.63905 0.01241 0.66123 0.0
H2059 H 0.65635 0.04371 0.66706 0.0
H2060 H 0.64081 0.02401 0.69452 0.0
H2061 H 0.70277 0.03269 0.76619 0.0
H2062 H 0.72214 0.07642 0.76638 0.0
H2063 H 0.69772 0.07438 0.6849 0.0
C2064 C 0.6505 0.97741 0.68609 0.0
C2065 C 0.64585 0.95796 0.70263 0.0
C2066 C 0.65731 0.96236 0.72795 0.0
C2067 C 0.67221 0.98547 0.73714 0.0
C2068 C 0.67598 1.00422 0.72064 0.0
C2069 C 0.66573 1.00045 0.69547 0.0
C2070 C 0.67277 0.02372 0.68168 0.0
C2071 C 0.68691 0.02647 0.65592 0.0
C2072 C 0.65095 0.02609 0.67579 0.0
C2073 C 0.68826 0.04106 0.70313 0.0
C2074 C 0.6898 0.02952 0.72556 0.0
C2075 C 0.70202 0.04192 0.74853 0.0
C2076 C 0.71296 0.06674 0.74851 0.0
C2077 C 0.71191 0.07889 0.72553 0.0
C2078 C 0.69944 0.06573 0.70259 0.0
H2079 H 0.42163 0.06567 0.26138 0.0
H2080 H 0.35709 0.06622 0.24267 0.0
H2081 H 0.33665 0.02353 0.23394 0.0
H2082 H 0.41564 0.02457 0.2115 0.0
H2083 H 0.42643 1.00907 0.23161 0.0
H2084 H 0.43615 0.0396 0.23848 0.0
H2085 H 0.42186 0.02931 0.28772 0.0
H2086 H 0.41259 0.99882 0.28116 0.0
H2087 H 0.39179 1.00666 0.29445 0.0
H2088 H 0.32372 0.98152 0.2233 0.0
H2089 H 0.3175 0.9413 0.21831 0.0
H2090 H 0.38957 0.96658 0.24475 0.0
C2091 C 0.40303 0.05662 0.25626 0.0
C2092 C 0.39095 0.06935 0.25283 0.0
C2093 C 0.36673 0.0569 0.24545 0.0
C2094 C 0.35494 0.03262 0.2403 0.0
C2095 C 0.36747 0.02073 0.2427 0.0
C2096 C 0.39081 0.0321 0.25104 0.0
C2097 C 0.39999 0.01487 0.25174 0.0
C2098 C 0.42079 0.02249 0.23217 0.0
C2099 C 0.40696 0.01226 0.28048 0.0
C2100 C 0.37826 0.99229 0.24229 0.0
C2101 C 0.35979 0.99617 0.23696 0.0
C2102 C 0.33801 0.97819 0.22762 0.0
C2103 C 0.33469 0.95538 0.22456 0.0
C2104 C 0.35298 0.95062 0.23103 0.0
C2105 C 0.37519 0.96956 0.23953 0.0
H2106 H 0.9605 0.33778 0.26502 0.0
H2107 H 0.94348 0.30395 0.1868 0.0
H2108 H 0.98573 0.32219 0.17626 0.0
H2109 H 1.01036 0.39191 0.24456 0.0
H2110 H 0.02806 0.39544 0.27382 0.0
H2111 H 0.99627 0.37923 0.2762 0.0
H2112 H 0.99732 0.34281 0.29471 0.0
H2113 H 0.02913 0.3591 0.29294 0.0
H2114 H 1.01279 0.33104 0.27616 0.0
H2115 H 0.03019 0.34677 0.17214 0.0
H2116 H 0.07373 0.37033 0.17869 0.0
H2117 H 0.06253 0.38624 0.26001 0.0
C2118 C 0.96568 0.33373 0.246 0.0
C2119 C 0.94844 0.31939 0.22678 0.0
C2120 C 0.95616 0.31491 0.20192 0.0
C2121 C 0.98023 0.32531 0.19559 0.0
C2122 C 0.99674 0.34005 0.21439 0.0
C2123 C 0.98988 0.34382 0.23937 0.0
C2124 C 1.01146 0.36014 0.25602 0.0
C2125 C 1.01153 0.38303 0.26306 0.0
C2126 C 1.01275 0.34751 0.28146 0.0
C2127 C 0.03129 0.36488 0.23648 0.0
C2128 C 0.02243 0.35345 0.21239 0.0
C2129 C 0.03737 0.35565 0.19104 0.0
C2130 C 0.06205 0.36924 0.19476 0.0
C2131 C 0.07146 0.3801 0.21974 0.0
C2132 C 0.05579 0.3781 0.24064 0.0
H2133 H 0.66954 0.72204 0.24948 0.0
H2134 H 0.59933 0.66478 0.23029 0.0
H2135 H 0.61296 0.63602 0.23807 0.0
H2136 H 0.70236 0.6958 0.21888 0.0
H2137 H 0.72474 0.70759 0.24463 0.0
H2138 H 0.70954 0.72311 0.23536 0.0
H2139 H 0.69752 0.7224 0.28509 0.0
H2140 H 0.71219 0.70641 0.29443 0.0
H2141 H 0.68136 0.69452 0.30234 0.0
H2142 H 0.63401 0.61346 0.25275 0.0
H2143 H 0.66126 0.59956 0.26662 0.0
H2144 H 0.71787 0.67217 0.27475 0.0
C2145 C 0.65713 0.70346 0.24631 0.0
C2146 C 0.63339 0.69565 0.23908 0.0
C2147 C 0.61768 0.6712 0.23535 0.0
C2148 C 0.62524 0.65475 0.24003 0.0
C2149 C 0.64862 0.66308 0.24812 0.0
C2150 C 0.66442 0.68695 0.25065 0.0
C2151 C 0.68848 0.69155 0.25988 0.0
C2152 C 0.70739 0.70532 0.23841 0.0
C2153 C 0.69527 0.70448 0.28704 0.0
C2154 C 0.68378 0.66653 0.26264 0.0
C2155 C 0.66068 0.65031 0.2559 0.0
C2156 C 0.6522 0.62609 0.2576 0.0
C2157 C 0.66787 0.61835 0.26553 0.0
C2158 C 0.69191 0.63469 0.27145 0.0
C2159 C 0.69968 0.65912 0.27041 0.0
H2160 H 0.35186 0.21919 0.1355 0.0
H2161 H 0.27735 0.16983 0.15043 0.0
H2162 H 0.28843 0.15052 0.18516 0.0
H2163 H 0.37139 0.17755 0.14202 0.0
H2164 H 0.39883 0.198 0.15814 0.0
H2165 H 0.38508 0.20872 0.13516 0.0
H2166 H 0.38508 0.23671 0.17192 0.0
H2167 H 0.39889 0.22614 0.19501 0.0
H2168 H 0.37148 0.22471 0.20396 0.0
H2169 H 0.30774 0.13568 0.21777 0.0
H2170 H 0.33361 0.12679 0.24537 0.0
H2171 H 0.39536 0.18552 0.20875 0.0
C2172 C 0.33766 0.20433 0.14579 0.0
C2173 C 0.31357 0.19619 0.13965 0.0
C2174 C 0.29591 0.1767 0.15437 0.0
C2175 C 0.30204 0.16548 0.17426 0.0
C2176 C 0.32591 0.17384 0.17936 0.0
C2177 C 0.34343 0.19284 0.16556 0.0
C2178 C 0.3678 0.19818 0.1745 0.0
C2179 C 0.38158 0.19544 0.15106 0.0
C2180 C 0.38162 0.2229 0.1871 0.0
C2181 C 0.36127 0.17906 0.1954 0.0
C2182 C 0.33701 0.16527 0.19799 0.0
C2183 C 0.32675 0.14646 0.21598 0.0
C2184 C 0.34164 0.14162 0.23171 0.0
C2185 C 0.36661 0.15548 0.22941 0.0
C2186 C 0.37642 0.17444 0.2109 0.0
H2187 H 0.82265 0.22391 0.17114 0.0
H2188 H 0.87931 0.23129 0.22311 0.0
H2189 H 0.87757 0.19655 0.2015 0.0
H2190 H 0.78908 0.16006 0.17184 0.0
H2191 H 0.78016 0.15811 0.13725 0.0
H2192 H 0.78591 0.18345 0.15706 0.0
H2193 H 0.81639 0.21095 0.12166 0.0
H2194 H 0.81084 0.1857 0.10182 0.0
H2195 H 0.84053 0.20648 0.1124 0.0
H2196 H 0.8699 0.16089 0.17303 0.0
H2197 H 0.85705 0.12804 0.14089 0.0
H2198 H 0.80429 0.14342 0.10935 0.0
C2199 C 0.83452 0.21817 0.17842 0.0
C2200 C 0.85109 0.23058 0.19907 0.0
C2201 C 0.86657 0.22244 0.20727 0.0
C2202 C 0.86564 0.20256 0.19517 0.0
C2203 C 0.8491 0.19086 0.17488 0.0
C2204 C 0.83377 0.19837 0.16668 0.0
C2205 C 0.81774 0.18295 0.14433 0.0
C2206 C 0.79168 0.1704 0.15316 0.0
C2207 C 0.82162 0.19739 0.11853 0.0
C2208 C 0.8265 0.16561 0.14108 0.0
C2209 C 0.84457 0.17041 0.15885 0.0
C2210 C 0.85564 0.15691 0.15917 0.0
C2211 C 0.84807 0.13812 0.14085 0.0
C2212 C 0.82954 0.13286 0.12236 0.0
C2213 C 0.81865 0.1469 0.12281 0.0
H2214 H 0.89569 0.68465 0.14713 0.0
H2215 H 0.89695 0.74766 0.11752 0.0
H2216 H 0.86086 0.73705 0.14363 0.0
H2217 H 0.83432 0.64713 0.14151 0.0
H2218 H 0.83151 0.63021 0.17126 0.0
H2219 H 0.85889 0.64416 0.15283 0.0
H2220 H 0.88135 0.66592 0.196 0.0
H2221 H 0.85399 0.65204 0.21457 0.0
H2222 H 0.87217 0.68375 0.2142 0.0
H2223 H 0.82291 0.71797 0.17023 0.0
H2224 H 0.78585 0.69182 0.19429 0.0
H2225 H 0.80835 0.64029 0.20505 0.0
C2226 C 0.88854 0.69636 0.14608 0.0
C2227 C 0.89937 0.71708 0.13005 0.0
C2228 C 0.88935 0.7319 0.12977 0.0
C2229 C 0.86874 0.72595 0.14452 0.0
C2230 C 0.85835 0.70516 0.15959 0.0
C2231 C 0.86795 0.69062 0.16051 0.0
C2232 C 0.85258 0.66852 0.17687 0.0
C2233 C 0.84381 0.64619 0.15958 0.0
C2234 C 0.86582 0.66751 0.2019 0.0
C2235 C 0.83247 0.67261 0.18451 0.0
C2236 C 0.83631 0.69399 0.1746 0.0
C2237 C 0.81981 0.70126 0.17815 0.0
C2238 C 0.7987 0.68618 0.19172 0.0
C2239 C 0.79404 0.66388 0.20149 0.0
C2240 C 0.81145 0.65729 0.1982 0.0
H2241 H 0.16353 0.33828 0.24906 0.0
H2242 H 0.1626 0.38423 0.31125 0.0
H2243 H 0.17491 0.36451 0.34461 0.0
H2244 H 0.13829 0.28646 0.28797 0.0
H2245 H 0.15583 0.27522 0.27313 0.0
H2246 H 0.14909 0.29444 0.25406 0.0
H2247 H 0.19383 0.32295 0.24592 0.0
H2248 H 0.20072 0.3038 0.26502 0.0
H2249 H 0.21359 0.33442 0.27423 0.0
H2250 H 0.18559 0.33785 0.37172 0.0
H2251 H 0.19205 0.30615 0.3897 0.0
H2252 H 0.18454 0.27767 0.30947 0.0
C2253 C 0.16584 0.34428 0.26965 0.0
C2254 C 0.16203 0.36287 0.27742 0.0
C2255 C 0.16568 0.37026 0.30464 0.0
C2256 C 0.1726 0.35909 0.32378 0.0
C2257 C 0.17588 0.34061 0.3154 0.0
C2258 C 0.17261 0.33332 0.28892 0.0
C2259 C 0.17616 0.31241 0.28504 0.0
C2260 C 0.15349 0.29086 0.27444 0.0
C2261 C 0.19733 0.31879 0.26645 0.0
C2262 C 0.1814 0.30864 0.31358 0.0
C2263 C 0.18153 0.32523 0.33084 0.0
C2264 C 0.18563 0.32486 0.35832 0.0
C2265 C 0.18938 0.3069 0.36835 0.0
C2266 C 0.18865 0.28943 0.35098 0.0
C2267 C 0.18492 0.29063 0.32325 0.0
H2268 H 0.69482 0.86843 0.38531 0.0
H2269 H 0.74504 0.92666 0.33571 0.0
H2270 H 0.73012 0.90112 0.29566 0.0
H2271 H 0.69791 0.82211 0.34978 0.0
H2272 H 0.66683 0.80119 0.35356 0.0
H2273 H 0.68196 0.82389 0.37838 0.0
H2274 H 0.65153 0.83779 0.37165 0.0
H2275 H 0.63637 0.81517 0.34674 0.0
H2276 H 0.64677 0.84563 0.33847 0.0
H2277 H 0.70895 0.86935 0.26073 0.0
H2278 H 0.68382 0.83382 0.23382 0.0
H2279 H 0.64715 0.79634 0.30618 0.0
C2280 C 0.70266 0.87594 0.36607 0.0
C2281 C 0.7212 0.89969 0.36383 0.0
C2282 C 0.7311 0.90853 0.33816 0.0
C2283 C 0.72261 0.89417 0.31521 0.0
C2284 C 0.7042 0.87095 0.31818 0.0
C2285 C 0.69439 0.86188 0.34298 0.0
C2286 C 0.67466 0.83638 0.34073 0.0
C2287 C 0.68071 0.81993 0.35655 0.0
C2288 C 0.65093 0.83359 0.34994 0.0
C2289 C 0.67481 0.83255 0.31073 0.0
C2290 C 0.692 0.8527 0.29811 0.0
C2291 C 0.69551 0.85346 0.27045 0.0
C2292 C 0.68119 0.83309 0.25532 0.0
C2293 C 0.66348 0.81214 0.26779 0.0
C2294 C 0.6603 0.81206 0.29592 0.0
H2295 H 0.24162 0.85999 0.31095 0.0
H2296 H 0.20536 0.86001 0.23801 0.0
H2297 H 0.1683 0.84558 0.26348 0.0
H2298 H 0.19258 0.80701 0.34041 0.0
H2299 H 0.19874 0.81844 0.37417 0.0
H2300 H 0.22244 0.82812 0.35014 0.0
H2301 H 0.23389 0.87158 0.35861 0.0
H2302 H 0.21022 0.86206 0.38263 0.0
H2303 H 0.21188 0.88024 0.35459 0.0
H2304 H 0.13529 0.8316 0.29651 0.0
H2305 H 0.10834 0.81943 0.33524 0.0
H2306 H 0.16562 0.82912 0.38768 0.0
C2307 C 0.22579 0.85669 0.30034 0.0
C2308 C 0.22643 0.8612 0.27244 0.0
C2309 C 0.20541 0.85698 0.25937 0.0
C2310 C 0.18422 0.84864 0.27365 0.0
C2311 C 0.18423 0.84462 0.3011 0.0
C2312 C 0.20442 0.84849 0.31439 0.0
C2313 C 0.1996 0.84333 0.3442 0.0
C2314 C 0.20357 0.82301 0.35272 0.0
C2315 C 0.2148 0.86563 0.36099 0.0
C2316 C 0.17358 0.836 0.34551 0.0
C2317 C 0.16511 0.83681 0.32036 0.0
C2318 C 0.14173 0.83099 0.31633 0.0
C2319 C 0.12657 0.82425 0.33858 0.0
C2320 C 0.13476 0.82347 0.36473 0.0
C2321 C 0.15865 0.82934 0.36805 0.0
H2322 H 0.68428 0.81222 0.87259 0.0
H2323 H 0.75812 0.86715 0.87195 0.0
H2324 H 0.74891 0.8901 0.83987 0.0
H2325 H 0.67362 0.81593 0.80231 0.0
H2326 H 0.64404 0.81066 0.80723 0.0
H2327 H 0.65631 0.79865 0.83054 0.0
H2328 H 0.64788 0.81933 0.86981 0.0
H2329 H 0.63571 0.83153 0.84658 0.0
H2330 H 0.65958 0.85078 0.86854 0.0
H2331 H 0.73192 0.9073 0.80841 0.0
H2332 H 0.70874 0.91671 0.77703 0.0
H2333 H 0.64563 0.85056 0.79686 0.0
C2334 C 0.69847 0.82914 0.86581 0.0
C2335 C 0.72197 0.83785 0.87481 0.0
C2336 C 0.74009 0.85993 0.86513 0.0
C2337 C 0.73498 0.8732 0.84707 0.0
C2338 C 0.71166 0.86416 0.83873 0.0
C2339 C 0.69369 0.84257 0.84759 0.0
C2340 C 0.67026 0.83668 0.83479 0.0
C2341 C 0.66049 0.81414 0.8177 0.0
C2342 C 0.6523 0.83445 0.85621 0.0
C2343 C 0.67789 0.85835 0.81736 0.0
C2344 C 0.70184 0.87399 0.82014 0.0
C2345 C 0.71318 0.89514 0.80597 0.0
C2346 C 0.69985 0.90028 0.78808 0.0
C2347 C 0.67538 0.88432 0.78425 0.0
C2348 C 0.66422 0.86322 0.79949 0.0
H2349 H 0.19766 0.86578 0.89239 0.0
H2350 H 0.20022 0.92057 0.84087 0.0
H2351 H 0.18872 0.89365 0.80225 0.0
H2352 H 0.22182 0.84234 0.84338 0.0
H2353 H 0.20308 0.8121 0.85365 0.0
H2354 H 0.21159 0.83562 0.87762 0.0
H2355 H 0.16752 0.82061 0.88828 0.0
H2356 H 0.15889 0.79702 0.86443 0.0
H2357 H 0.14758 0.81698 0.86131 0.0
H2358 H 0.17623 0.86091 0.76925 0.0
H2359 H 0.16307 0.82404 0.74391 0.0
H2360 H 0.16955 0.79017 0.81562 0.0
C2361 C 0.196 0.87223 0.87298 0.0
C2362 C 0.19973 0.89541 0.86993 0.0
C2363 C 0.19706 0.90288 0.84408 0.0
C2364 C 0.19072 0.88774 0.82186 0.0
C2365 C 0.18718 0.86511 0.82561 0.0
C2366 C 0.18973 0.85732 0.85047 0.0
C2367 C 0.18457 0.83197 0.84892 0.0
C2368 C 0.20658 0.83042 0.85633 0.0
C2369 C 0.16338 0.81569 0.8668 0.0
C2370 C 0.17859 0.82672 0.81932 0.0
C2371 C 0.18025 0.84616 0.80633 0.0
C2372 C 0.17493 0.8456 0.77918 0.0
C2373 C 0.16738 0.82455 0.76498 0.0
C2374 C 0.16525 0.80425 0.77778 0.0
C2375 C 0.17129 0.8055 0.80527 0.0
H2376 H 0.16303 0.32718 0.89218 0.0
H2377 H 0.10888 0.29681 0.83098 0.0
H2378 H 0.13951 0.31668 0.79564 0.0
H2379 H 0.19968 0.38309 0.86136 0.0
H2380 H 0.22703 0.38494 0.87149 0.0
H2381 H 0.2008 0.36846 0.89153 0.0
H2382 H 0.20499 0.33124 0.8878 0.0
H2383 H 0.23135 0.34767 0.86795 0.0
H2384 H 0.20706 0.32063 0.85509 0.0
H2385 H 0.17674 0.34247 0.76729 0.0
H2386 H 0.21716 0.36707 0.74845 0.0
H2387 H 0.24648 0.37791 0.82857 0.0
C2388 C 0.15768 0.32474 0.87132 0.0
C2389 C 0.13364 0.31068 0.86419 0.0
C2390 C 0.12725 0.3075 0.83671 0.0
C2391 C 0.14451 0.31883 0.81661 0.0
C2392 C 0.1681 0.33293 0.82437 0.0
C2393 C 0.17468 0.3355 0.8511 0.0
C2394 C 0.20119 0.3508 0.8543 0.0
C2395 C 0.20753 0.37315 0.87063 0.0
C2396 C 0.21176 0.33674 0.86703 0.0
C2397 C 0.2086 0.35671 0.82523 0.0
C2398 C 0.18931 0.34655 0.8082 0.0
C2399 C 0.19194 0.35029 0.78047 0.0
C2400 C 0.21487 0.36437 0.76994 0.0
C2401 C 0.23484 0.37418 0.78706 0.0
C2402 C 0.23151 0.37037 0.81503 0.0
H2403 H 0.8659 0.66651 0.72401 0.0
H2404 H 0.88278 0.63017 0.66299 0.0
H2405 H 0.87327 0.65075 0.62747 0.0
H2406 H 0.81604 0.66235 0.69025 0.0
H2407 H 0.82136 0.69073 0.70165 0.0
H2408 H 0.83105 0.67428 0.72164 0.0
H2409 H 0.87378 0.71001 0.72122 0.0
H2410 H 0.86423 0.72651 0.70102 0.0
H2411 H 0.88805 0.72236 0.68956 0.0
H2412 H 0.86186 0.67609 0.59865 0.0
H2413 H 0.84505 0.69975 0.57973 0.0
H2414 H 0.83399 0.71722 0.66016 0.0
C2415 C 0.86784 0.66312 0.70315 0.0
C2416 C 0.87529 0.647 0.69613 0.0
C2417 C 0.87706 0.64248 0.66867 0.0
C2418 C 0.87187 0.65421 0.64844 0.0
C2419 C 0.86469 0.67016 0.65608 0.0
C2420 C 0.86237 0.67433 0.68284 0.0
C2421 C 0.85282 0.69097 0.68598 0.0
C2422 C 0.8289 0.67885 0.70074 0.0
C2423 C 0.8708 0.71382 0.70029 0.0
C2424 C 0.84999 0.69551 0.65683 0.0
C2425 C 0.85727 0.68373 0.63977 0.0
C2426 C 0.85611 0.68535 0.61187 0.0
C2427 C 0.84672 0.69887 0.60127 0.0
C2428 C 0.83831 0.71013 0.61858 0.0
C2429 C 0.84034 0.70868 0.64661 0.0
H2430 H 0.38901 0.22891 0.69707 0.0
H2431 H 0.34278 0.19895 0.76615 0.0
H2432 H 0.31896 0.16187 0.74121 0.0
H2433 H 0.34425 0.20227 0.6466 0.0
H2434 H 0.36249 0.19703 0.62371 0.0
H2435 H 0.3759 0.22133 0.64696 0.0
H2436 H 0.40234 0.20554 0.66554 0.0
H2437 H 0.38908 0.18122 0.6423 0.0
H2438 H 0.3888 0.17563 0.67779 0.0
H2439 H 0.29972 0.12787 0.70837 0.0
H2440 H 0.2877 0.09939 0.67085 0.0
H2441 H 0.34686 0.15124 0.62368 0.0
C2442 C 0.37407 0.21453 0.70716 0.0
C2443 C 0.36784 0.21707 0.7337 0.0
C2444 C 0.34783 0.19773 0.74579 0.0
C2445 C 0.3342 0.17648 0.7318 0.0
C2446 C 0.34076 0.17468 0.70567 0.0
C2447 C 0.3603 0.19315 0.69351 0.0
C2448 C 0.3636 0.18663 0.66526 0.0
C2449 C 0.36142 0.20277 0.64441 0.0
C2450 C 0.38736 0.18729 0.66258 0.0
C2451 C 0.34294 0.16158 0.66349 0.0
C2452 C 0.32989 0.15505 0.68694 0.0
C2453 C 0.30984 0.1328 0.68992 0.0
C2454 C 0.30305 0.11677 0.66844 0.0
C2455 C 0.31633 0.12296 0.64431 0.0
C2456 C 0.33649 0.14577 0.64194 0.0
H2457 H 0.91525 0.23246 0.6446 0.0
H2458 H 0.89744 0.1634 0.61417 0.0
H2459 H 0.85751 0.14658 0.63407 0.0
H2460 H 0.88532 0.21266 0.70764 0.0
H2461 H 0.87588 0.23422 0.70825 0.0
H2462 H 0.90269 0.24068 0.691 0.0
H2463 H 0.88687 0.24933 0.64728 0.0
H2464 H 0.86004 0.24297 0.66441 0.0
H2465 H 0.85864 0.22727 0.6341 0.0
H2466 H 0.81937 0.13732 0.65878 0.0
H2467 H 0.78643 0.13699 0.68371 0.0
H2468 H 0.8304 0.2121 0.6985 0.0
C2469 C 0.9031 0.21376 0.6422 0.0
C2470 C 0.90968 0.19929 0.62785 0.0
C2471 C 0.89288 0.17496 0.62482 0.0
C2472 C 0.87017 0.1652 0.63624 0.0
C2473 C 0.86447 0.17999 0.65059 0.0
C2474 C 0.88049 0.20379 0.65344 0.0
C2475 C 0.8702 0.21603 0.6697 0.0
C2476 C 0.88437 0.22651 0.69569 0.0
C2477 C 0.86886 0.23502 0.65286 0.0
C2478 C 0.84583 0.19543 0.67562 0.0
C2479 C 0.8428 0.17475 0.66455 0.0
C2480 C 0.82162 0.15345 0.66752 0.0
C2481 C 0.80304 0.15339 0.68189 0.0
C2482 C 0.8057 0.17451 0.69307 0.0
C2483 C 0.82755 0.19569 0.68996 0.0
H2484 H 0.9475 0.49089 0.48626 0.0
H2485 H 0.99685 0.54281 0.42997 0.0
H2486 H 0.03 0.54243 0.45356 0.0
H2487 H 0.98398 0.51373 0.54458 0.0
H2488 H 0.97453 0.48503 0.5588 0.0
H2489 H 0.95491 0.48936 0.53725 0.0
H2490 H 0.95058 0.45564 0.50623 0.0
H2491 H 0.97015 0.45117 0.52772 0.0
H2492 H 0.9767 0.45692 0.49243 0.0
H2493 H 0.05786 0.53564 0.48358 0.0
H2494 H 0.07771 0.52425 0.51781 0.0
H2495 H 1.00967 0.47675 0.55398 0.0
C2496 C 0.96523 0.50202 0.47864 0.0
C2497 C 0.96948 0.51679 0.45608 0.0
C2498 C 0.99309 0.53146 0.44726 0.0
C2499 C 1.01204 0.53127 0.46048 0.0
C2500 C 1.00714 0.51641 0.48261 0.0
C2501 C 0.98427 0.50213 0.49164 0.0
C2502 C 0.98361 0.488 0.51607 0.0
C2503 C 0.97367 0.49442 0.54063 0.0
C2504 C 0.96942 0.46136 0.51025 0.0
C2505 C 1.00968 0.49647 0.51943 0.0
C2506 C 0.02301 0.51279 0.49991 0.0
C2507 C 0.04754 0.52288 0.49893 0.0
C2508 C 0.05867 0.5162 0.5184 0.0
C2509 C 0.04534 0.49962 0.53873 0.0
C2510 C 0.02049 0.4897 0.53903 0.0
H2511 H 0.52913 0.57098 0.48114 0.0
H2512 H 0.51617 0.54418 0.56264 0.0
H2513 H 0.4986 0.50331 0.54504 0.0
H2514 H 0.47583 0.52233 0.45104 0.0
H2515 H 0.49102 0.52338 0.4204 0.0
H2516 H 0.50048 0.54988 0.43974 0.0
H2517 H 0.54286 0.5561 0.44202 0.0
H2518 H 0.53351 0.52955 0.42292 0.0
H2519 H 0.54719 0.53292 0.45528 0.0
H2520 H 0.48601 0.46553 0.51768 0.0
H2521 H 0.47684 0.43456 0.48353 0.0
H2522 H 0.49841 0.48713 0.42056 0.0
C2523 C 0.52236 0.55649 0.49531 0.0
C2524 C 0.52407 0.56072 0.52325 0.0
C2525 C 0.51482 0.54129 0.54115 0.0
C2526 C 0.50496 0.51807 0.53131 0.0
C2527 C 0.50426 0.51464 0.50355 0.0
C2528 C 0.51245 0.53338 0.48585 0.0
C2529 C 0.51049 0.52536 0.45701 0.0
C2530 C 0.49343 0.53054 0.44112 0.0
C2531 C 0.53496 0.53665 0.44353 0.0
C2532 C 0.50029 0.49915 0.46111 0.0
C2533 C 0.49679 0.49319 0.48804 0.0
C2534 C 0.48846 0.47003 0.49656 0.0
C2535 C 0.48346 0.45258 0.47705 0.0
C2536 C 0.48673 0.45837 0.44935 0.0
C2537 C 0.49525 0.48201 0.44149 0.0
H2538 H 0.57506 0.04784 0.47291 0.0
H2539 H 0.53732 1.00997 0.4014 0.0
H2540 H 0.50183 0.98502 0.42874 0.0
H2541 H 0.55054 0.9974 0.51659 0.0
H2542 H 0.54881 0.01313 0.5454 0.0
H2543 H 0.57106 0.02858 0.52013 0.0
H2544 H 0.55622 0.05825 0.51387 0.0
H2545 H 0.534 0.04298 0.53922 0.0
H2546 H 0.5255 0.04739 0.50625 0.0
H2547 H 0.47028 0.9642 0.46394 0.0
H2548 H 0.44511 0.94917 0.50417 0.0
H2549 H 0.50404 0.99929 0.55319 0.0
C2550 C 0.55923 0.03446 0.46303 0.0
C2551 C 0.55895 0.03084 0.43501 0.0
C2552 C 0.538 0.01291 0.42285 0.0
C2553 C 0.51773 0.9987 0.4382 0.0
C2554 C 0.51866 1.00249 0.4658 0.0
C2555 C 0.53887 0.01991 0.47814 0.0
C2556 C 0.53532 0.01994 0.50823 0.0
C2557 C 0.55245 0.01443 0.52348 0.0
C2558 C 0.53791 0.04354 0.51743 0.0
C2559 C 0.50996 0.99992 0.51082 0.0
C2560 C 0.50065 0.99014 0.48612 0.0
C2561 C 0.47743 0.97165 0.48343 0.0
C2562 C 0.46326 0.96309 0.50656 0.0
C2563 C 0.47233 0.97287 0.53222 0.0
C2564 C 0.49619 0.99143 0.53411 0.0
H2565 H 0.52907 0.97343 0.01812 0.0
H2566 H 0.5394 0.01373 0.09103 0.0
H2567 H 0.5288 0.03996 0.06667 0.0
H2568 H 0.55297 0.02251 0.97285 0.0
H2569 H 0.53193 1.00679 0.94655 0.0
H2570 H 0.54 0.99097 0.96983 0.0
H2571 H 0.49591 0.96369 0.9822 0.0
H2572 H 0.48769 0.97937 0.95888 0.0
H2573 H 0.47868 0.97656 0.99354 0.0
H2574 H 0.51713 0.06197 0.03413 0.0
H2575 H 0.50497 0.07772 -0.00385 0.0
H2576 H 0.5028 0.02331 0.94442 0.0
C2577 C 0.52883 0.98758 0.02907 0.0
C2578 C 0.53508 0.99147 0.05656 0.0
C2579 C 0.53495 1.01051 0.06995 0.0
C2580 C 0.52884 0.02546 0.0563 0.0
C2581 C 0.52294 0.02121 0.02919 0.0
C2582 C 0.52287 1.00272 0.01572 0.0
C2583 C 0.51614 1.00217 0.98649 0.0
C2584 C 0.53647 1.00584 0.96784 0.0
C2585 C 0.49324 0.97908 0.9799 0.0
C2586 C 0.51234 0.02317 0.98566 0.0
C2587 C 0.51636 0.03394 0.01047 0.0
C2588 C 0.51398 0.05371 0.01458 0.0
C2589 C 0.50721 0.06264 0.9928 0.0
C2590 C 0.50289 0.05185 0.96716 0.0
C2591 C 0.50562 0.03187 0.96373 0.0
H2592 H 0.98368 0.45802 0.96178 0.0
H2593 H 0.02107 0.49539 0.88961 0.0
H2594 H 0.04625 0.53072 0.91673 0.0
H2595 H 0.98315 0.50744 0.993 0.0
H2596 H 0.98713 0.49943 0.02642 0.0
H2597 H 0.97234 0.4769 0.00132 0.0
H2598 H 1.00218 0.46246 0.00917 0.0
H2599 H 1.01715 0.485 0.0342 0.0
H2600 H 0.03342 0.48305 0.00603 0.0
H2601 H 0.06771 0.56218 0.95195 0.0
H2602 H 0.08243 0.58759 0.99221 0.0
H2603 H 0.03045 0.52998 0.04103 0.0
C2604 C 0.99693 0.47364 0.95151 0.0
C2605 C 1.0003 0.4737 0.92339 0.0
C2606 C 1.01824 0.49461 0.91107 0.0
C2607 C 0.03262 0.51488 0.92632 0.0
C2608 C 0.02886 0.51411 0.95393 0.0
C2609 C 1.01136 0.49407 0.96639 0.0
C2610 C 1.01079 0.49791 -0.00367 0.0
C2611 C 0.98694 0.49527 0.00475 0.0
C2612 C 1.01622 0.48111 0.01237 0.0
C2613 C 0.03067 0.52328 -0.00124 0.0
C2614 C 0.04096 0.53228 0.9741 0.0
C2615 C 0.05977 0.55531 0.97136 0.0
C2616 C 0.06813 0.56958 0.99437 0.0
C2617 C 0.05762 0.56084 0.01981 0.0
C2618 C 0.0387 0.5373 0.02187 0.0
H2619 H 0.47031 0.50241 0.02152 0.0
H2620 H 0.50596 0.50152 0.09479 0.0
H2621 H 0.5416 0.51119 0.06869 0.0
H2622 H 0.49542 0.47733 0.97822 0.0
H2623 H 0.49855 0.49588 0.94995 0.0
H2624 H 0.47552 0.48867 0.9743 0.0
H2625 H 0.49097 0.53313 0.98222 0.0
H2626 H 0.51398 0.5405 0.9578 0.0
H2627 H 0.52148 0.55227 0.99136 0.0
H2628 H 0.57341 0.52012 0.03453 0.0
H2629 H 0.59956 0.52985 0.99499 0.0
H2630 H 0.54419 0.5267 0.94418 0.0
C2631 C 0.48561 0.50448 0.03226 0.0
C2632 C 0.48496 0.50092 0.06042 0.0
C2633 C 0.50556 0.50364 0.07331 0.0
C2634 C 0.52607 0.50929 0.05863 0.0
C2635 C 0.52595 0.51242 0.03099 0.0
C2636 C 0.50635 0.51032 0.01794 0.0
C2637 C 0.51101 0.51487 0.98806 0.0
C2638 C 0.49412 0.49287 0.97167 0.0
C2639 C 0.50926 0.53648 0.97936 0.0
C2640 C 0.53627 0.5198 0.98638 0.0
C2641 C 0.54449 0.51813 0.01137 0.0
C2642 C 0.56715 0.52151 0.01487 0.0
C2643 C 0.58184 0.52688 0.99227 0.0
C2644 C 0.57393 0.52902 0.96649 0.0
C2645 C 0.5508 0.52541 0.96365 0.0
H2646 H 0.23905 0.05536 0.01231 0.0
H2647 H 0.24889 0.07152 0.92761 0.0
H2648 H 0.2643 0.11403 0.93779 0.0
H2649 H 0.21804 0.09204 0.02942 0.0
H2650 H 0.23256 0.1008 0.06157 0.0
H2651 H 0.22566 0.07286 0.04735 0.0
H2652 H 0.26969 0.08422 0.05093 0.0
H2653 H 0.27673 0.11225 0.06532 0.0
H2654 H 0.29217 0.11125 0.03579 0.0
H2655 H 0.27286 0.15441 0.95838 0.0
H2656 H 0.2749 0.18683 0.98666 0.0
H2657 H 0.26209 0.14336 0.05732 0.0
C2658 C 0.24529 0.06807 -0.00393 0.0
C2659 C 0.24327 0.06043 0.96928 0.0
C2660 C 0.25087 0.07728 0.94831 0.0
C2661 C 0.25951 0.10138 0.95395 0.0
C2662 C 0.26081 0.10837 0.98074 0.0
C2663 C 0.2543 0.0921 0.00143 0.0
C2664 C 0.25585 0.10338 0.02837 0.0
C2665 C 0.23159 0.09157 0.04248 0.0
C2666 C 0.27474 0.10274 0.04615 0.0
C2667 C 0.26338 0.12832 0.01973 0.0
C2668 C 0.2663 0.13117 0.99226 0.0
C2669 C 0.27111 0.15243 0.97997 0.0
C2670 C 0.27239 0.17085 -0.00386 0.0
C2671 C 0.26878 0.16777 0.02423 0.0
C2672 C 0.26504 0.14646 0.03592 0.0
H2673 H 0.88955 0.12291 0.04774 0.0
H2674 H 0.84535 0.0816 0.9813 0.0
H2675 H 0.87677 0.10862 0.94938 0.0
H2676 H 0.91809 0.18128 0.01537 0.0
H2677 H 0.94588 0.1898 0.03161 0.0
H2678 H 0.91848 0.16955 0.048 0.0
H2679 H 0.93259 0.13911 0.0526 0.0
H2680 H 0.95991 0.15916 0.03619 0.0
H2681 H 0.94161 0.12983 0.02298 0.0
H2682 H 0.91633 0.13869 0.92536 0.0
H2683 H 0.95827 0.16648 0.9128 0.0
H2684 H 0.9754 0.18559 -0.00388 0.0
C2685 C 0.8861 0.11964 0.02644 0.0
C2686 C 0.8649 0.10007 0.01703 0.0
C2687 C 0.86131 0.09659 0.98899 0.0
C2688 C 0.87914 0.11185 0.97078 0.0
C2689 C 0.90027 0.13053 0.981 0.0
C2690 C 0.90357 0.13441 0.00831 0.0
C2691 C 0.92827 0.15405 0.01497 0.0
C2692 C 0.92763 0.17491 0.02827 0.0
C2693 C 0.94135 0.14498 0.03271 0.0
C2694 C 0.9389 0.16045 0.98719 0.0
C2695 C 0.92252 0.1471 0.96765 0.0
C2696 C 0.92903 0.14938 0.94057 0.0
C2697 C 0.9528 0.16525 0.93354 0.0
C2698 C 0.96975 0.17839 0.95351 0.0
C2699 C 0.96255 0.1761 0.98052 0.0
H2700 H 0.92049 0.78935 0.05331 0.0
H2701 H 0.92526 0.74534 0.99146 0.0
H2702 H 0.89122 0.74449 0.96777 0.0
H2703 H 0.85658 0.76184 0.05428 0.0
H2704 H 0.8578 0.78957 0.06033 0.0
H2705 H 0.88111 0.78493 0.07248 0.0
H2706 H 0.9121 0.82238 0.04711 0.0
H2707 H 0.88895 0.82717 0.03497 0.0
H2708 H 0.90871 0.82486 0.01153 0.0
H2709 H 0.85715 0.75155 0.94968 0.0
H2710 H 0.82946 0.76627 0.93947 0.0
H2711 H 0.84848 0.80469 0.01451 0.0
C2712 C 0.91446 0.77936 0.03482 0.0
C2713 C 0.92575 0.76753 0.02417 0.0
C2714 C 0.91693 0.75455 4e-05 0.0
C2715 C 0.89758 0.75398 0.9865 0.0
C2716 C 0.8871 0.76623 -0.00243 0.0
C2717 C 0.89535 0.77854 0.02136 0.0
C2718 C 0.88213 0.79108 0.02911 0.0
C2719 C 0.8686 0.78126 0.05562 0.0
C2720 C 0.89897 0.81796 0.03076 0.0
C2721 C 0.86538 0.78457 0.00565 0.0
C2722 C 0.86811 0.77003 0.98764 0.0
C2723 C 0.85486 0.76275 0.96389 0.0
C2724 C 0.83904 0.77104 0.95828 0.0
C2725 C 0.83683 0.78664 0.9762 0.0
C2726 C 0.84982 0.79285 0.00039 0.0
H2727 H 0.13788 0.20897 0.43806 0.0
H2728 H 0.18926 0.27501 0.47495 0.0
H2729 H 0.15628 0.27843 0.49542 0.0
H2730 H 0.09385 0.22583 0.42316 0.0
H2731 H 0.06967 0.19651 0.42976 0.0
H2732 H 0.09733 0.20059 0.41722 0.0
H2733 H 0.09995 0.17708 0.4577 0.0
H2734 H 0.07232 0.17286 0.4703 0.0
H2735 H 0.09823 0.18629 0.49135 0.0
H2736 H 0.11605 0.27197 0.51459 0.0
H2737 H 0.07477 0.25656 0.53015 0.0
H2738 H 0.05148 0.19575 0.47839 0.0
C2739 C 0.1424 0.22429 0.45038 0.0
C2740 C 0.16624 0.24162 0.45515 0.0
C2741 C 0.17114 0.26148 0.47108 0.0
C2742 C 0.1525 0.26354 0.48272 0.0
C2743 C 0.12911 0.24581 0.47778 0.0
C2744 C 0.12421 0.22669 0.46171 0.0
C2745 C 0.09796 0.20952 0.45973 0.0
C2746 C 0.08919 0.20803 0.43075 0.0
C2747 C 0.09177 0.185 0.47042 0.0
C2748 C 0.08859 0.22138 0.47793 0.0
C2749 C 0.10663 0.24243 0.48805 0.0
C2750 C 0.10189 0.25568 0.50643 0.0
C2751 C 0.07833 0.24688 0.51503 0.0
C2752 C 0.05983 0.22495 0.50541 0.0
C2753 C 0.06518 0.21253 0.48614 0.0
H2754 H 0.76978 0.89618 0.45199 0.0
H2755 H 0.77958 0.94308 0.51821 0.0
H2756 H 0.78648 0.91709 0.54875 0.0
H2757 H 0.74206 0.83937 0.49151 0.0
H2758 H 0.75727 0.82814 0.47156 0.0
H2759 H 0.74862 0.84779 0.45672 0.0
H2760 H 0.79195 0.87576 0.44209 0.0
H2761 H 0.80082 0.85648 0.45714 0.0
H2762 H 0.81503 0.88705 0.46705 0.0
H2763 H 0.7996 0.88993 0.56958 0.0
H2764 H 0.81519 0.8632 0.5795 0.0
H2765 H 0.7962 0.83365 0.49967 0.0
C2766 C 0.7725 0.90053 0.47316 0.0
C2767 C 0.77387 0.92151 0.48286 0.0
C2768 C 0.77792 0.92686 0.51051 0.0
C2769 C 0.78203 0.91224 0.5279 0.0
C2770 C 0.78163 0.89221 0.51733 0.0
C2771 C 0.77651 0.88614 0.49062 0.0
C2772 C 0.77928 0.86513 0.4834 0.0
C2773 C 0.75538 0.84384 0.47533 0.0
C2774 C 0.79788 0.87151 0.46112 0.0
C2775 C 0.78779 0.86078 0.50993 0.0
C2776 C 0.78882 0.87643 0.52935 0.0
C2777 C 0.79828 0.87729 0.55469 0.0
C2778 C 0.80715 0.86211 0.56015 0.0
C2779 C 0.80648 0.84616 0.54048 0.0
C2780 C 0.79625 0.84521 0.51524 0.0
H2781 H 0.10675 0.89248 0.45111 0.0
H2782 H 0.11341 0.84128 0.49985 0.0
H2783 H 0.14502 0.87422 0.52657 0.0
H2784 H 0.1673 0.93451 0.44696 0.0
H2785 H 0.16277 0.95948 0.44815 0.0
H2786 H 0.14016 0.93185 0.43453 0.0
H2787 H 0.10966 0.9313 0.46826 0.0
H2788 H 0.1321 0.95909 0.48178 0.0
H2789 H 0.11615 0.93406 0.5037 0.0
H2790 H 0.17822 0.91483 0.54629 0.0
H2791 H 0.20585 0.95671 0.55842 0.0
H2792 H 0.17627 0.97919 0.49491 0.0
C2793 C 0.11465 0.88801 0.46753 0.0
C2794 C 0.1076 0.86425 0.47336 0.0
C2795 C 0.11837 0.85933 0.49516 0.0
C2796 C 0.13645 0.87797 0.51027 0.0
C2797 C 0.14337 0.90132 0.50336 0.0
C2798 C 0.13246 0.90617 0.48258 0.0
C2799 C 0.14281 0.93239 0.47847 0.0
C2800 C 0.15392 0.93999 0.45037 0.0
C2801 C 0.12406 0.93963 0.48336 0.0
C2802 C 0.16147 0.94187 0.50011 0.0
C2803 C 0.16176 0.92388 0.51436 0.0
C2804 C 0.17794 0.92891 0.53521 0.0
C2805 C 0.19373 0.95277 0.54185 0.0
C2806 C 0.19318 0.97133 0.52775 0.0
C2807 C 0.17697 0.96553 0.50641 0.0
H2808 H 0.8346 0.96741 0.02702 0.0
H2809 H 0.76578 0.95763 0.0479 0.0
H2810 H 0.74745 0.91536 0.03579 0.0
H2811 H 0.81704 0.93055 0.97108 0.0
H2812 H 0.83722 0.91991 0.97747 0.0
H2813 H 0.8442 0.94868 0.98906 0.0
H2814 H 0.84877 0.93698 0.03752 0.0
H2815 H 0.84139 0.90797 0.02608 0.0
H2816 H 0.82462 0.91118 0.05282 0.0
H2817 H 0.73665 0.87347 0.0178 0.0
H2818 H 0.73515 0.83937 0.99382 0.0
H2819 H 0.81146 0.87758 0.98842 0.0
C2820 C 0.81573 0.95656 0.02972 0.0
C2821 C 0.80185 0.96626 0.0388 0.0
C2822 C 0.77701 0.95098 0.04097 0.0
C2823 C 0.76641 0.92677 0.03432 0.0
C2824 C 0.78082 0.91789 0.02576 0.0
C2825 C 0.805 0.93252 0.02352 0.0
C2826 C 0.81683 0.91943 0.01273 0.0
C2827 C 0.82955 0.93028 0.98601 0.0
C2828 C 0.83391 0.91886 0.03354 0.0
C2829 C 0.79557 0.89513 0.00866 0.0
C2830 C 0.77485 0.8943 0.01639 0.0
C2831 C 0.75287 0.87391 0.01225 0.0
C2832 C 0.75213 0.85443 -0.00103 0.0
C2833 C 0.77324 0.85556 0.99005 0.0
C2834 C 0.7951 0.87592 -0.00418 0.0
H2835 H 0.07121 0.82271 0.99176 0.0
H2836 H 0.06104 0.85223 0.06503 0.0
H2837 H 0.10203 0.88599 0.06121 0.0
H2838 H 0.1342 0.84203 0.00151 0.0
H2839 H 0.14062 0.84813 0.96625 0.0
H2840 H 0.1118 0.82514 0.97688 0.0
H2841 H 0.09217 0.8449 0.95039 0.0
H2842 H 0.12083 0.86763 0.93943 0.0
H2843 H 0.10149 0.87546 0.95668 0.0
H2844 H 0.14326 0.91937 0.04554 0.0
H2845 H 0.17803 0.94834 0.01896 0.0
H2846 H 0.16036 0.89598 0.95686 0.0
C2847 C 0.07752 0.83613 0.00717 0.0
C2848 C 0.06269 0.83476 0.02865 0.0
C2849 C 0.07202 0.8527 0.0485 0.0
C2850 C 0.09533 0.87197 0.04646 0.0
C2851 C 0.1093 0.87294 0.02466 0.0
C2852 C 0.10062 0.85531 0.00547 0.0
C2853 C 0.11817 0.861 0.98286 0.0
C2854 C 0.1267 0.843 0.98183 0.0
C2855 C 0.10753 0.86234 0.95576 0.0
C2856 C 0.13784 0.88501 0.99169 0.0
C2857 C 0.13273 0.8916 0.01605 0.0
C2858 C 0.14761 0.91408 0.02679 0.0
C2859 C 0.16752 0.93039 0.01176 0.0
C2860 C 0.17226 0.92412 0.98629 0.0
C2861 C 0.15759 0.90093 0.97672 0.0
H2862 H 0.19651 0.22932 0.9844 0.0
H2863 H 0.18337 0.23025 0.06934 0.0
H2864 H 0.15304 0.24157 0.05918 0.0
H2865 H 0.18793 0.27939 0.96545 0.0
H2866 H 0.17447 0.26564 0.93397 0.0
H2867 H 0.19662 0.26049 0.94877 0.0
H2868 H 0.16746 0.21534 0.94709 0.0
H2869 H 0.14525 0.22035 0.93243 0.0
H2870 H 0.13891 0.20338 0.96293 0.0
H2871 H 0.11989 0.24805 0.03769 0.0
H2872 H 0.0901 0.24998 0.00809 0.0
H2873 H 0.12775 0.24614 0.93838 0.0
C2874 C 0.18758 0.23242 0.00086 0.0
C2875 C 0.19223 0.22898 0.0276 0.0
C2876 C 0.1802 0.23309 0.04871 0.0
C2877 C 0.16291 0.23942 0.04306 0.0
C2878 C 0.15825 0.24203 0.01623 0.0
C2879 C 0.17069 0.23902 -0.00443 0.0
C2880 C 0.162 0.24157 0.9684 0.0
C2881 C 0.18141 0.26305 0.95326 0.0
C2882 C 0.15286 0.21881 0.95176 0.0
C2883 C 0.14209 0.24562 0.97674 0.0
C2884 C 0.14007 0.24606 0.00431 0.0
C2885 C 0.12166 0.24809 0.01607 0.0
C2886 C 0.10482 0.24925 -0.00082 0.0
C2887 C 0.1065 0.24817 0.97092 0.0
C2888 C 0.12579 0.24694 0.95989 0.0
H2889 H 0.8951 0.81413 0.52689 0.0
H2890 H 0.84786 0.73969 0.51237 0.0
H2891 H 0.88015 0.73785 0.48775 0.0
H2892 H 0.92853 0.82852 0.46368 0.0
H2893 H 0.95565 0.84895 0.4804 0.0
H2894 H 0.92779 0.84416 0.49312 0.0
H2895 H 0.9377 0.83353 0.53963 0.0
H2896 H 0.96531 0.83775 0.52694 0.0
H2897 H 0.94437 0.81002 0.54212 0.0
H2898 H 0.92088 0.74473 0.46812 0.0
H2899 H 0.96244 0.75987 0.45334 0.0
H2900 H 0.98127 0.82894 0.4843 0.0
C2901 C 0.89125 0.79754 0.51782 0.0
C2902 C 0.86886 0.77714 0.52113 0.0
C2903 C 0.8647 0.75568 0.50944 0.0
C2904 C 0.88307 0.75447 0.49573 0.0
C2905 C 0.90539 0.77489 0.49389 0.0
C2906 C 0.90923 0.79607 0.50441 0.0
C2907 C 0.93474 0.81535 0.50156 0.0
C2908 C 0.93679 0.83542 0.48361 0.0
C2909 C 0.94619 0.82469 0.5292 0.0
C2910 C 0.945 0.80189 0.48797 0.0
C2911 C 0.92804 0.77859 0.4835 0.0
C2912 C 0.93411 0.76302 0.47144 0.0
C2913 C 0.95784 0.77169 0.46331 0.0
C2914 C 0.97524 0.79571 0.46732 0.0
C2915 C 0.96849 0.81064 0.48028 0.0
H2916 H 0.26663 0.13065 0.56302 0.0
H2917 H 0.26616 0.08971 0.49437 0.0
H2918 H 0.26343 0.11837 0.46397 0.0
H2919 H 0.22461 0.14371 0.53976 0.0
H2920 H 0.2385 0.17318 0.55332 0.0
H2921 H 0.24311 0.15111 0.56914 0.0
H2922 H 0.28846 0.178 0.56419 0.0
H2923 H 0.28403 0.20033 0.54864 0.0
H2924 H 0.30095 0.18942 0.53157 0.0
H2925 H 0.25577 0.14915 0.44189 0.0
H2926 H 0.24754 0.18097 0.42969 0.0
H2927 H 0.25405 0.20184 0.51322 0.0
C2928 C 0.26644 0.12793 0.54154 0.0
C2929 C 0.26662 0.108 0.53097 0.0
C2930 C 0.26629 0.10502 0.50281 0.0
C2931 C 0.26462 0.12113 0.48547 0.0
C2932 C 0.26367 0.14022 0.4967 0.0
C2933 C 0.26499 0.14385 0.52411 0.0
C2934 C 0.26264 0.16503 0.53143 0.0
C2935 C 0.24092 0.15781 0.54947 0.0
C2936 C 0.28538 0.18434 0.54474 0.0
C2937 C 0.2592 0.17256 0.50389 0.0
C2938 C 0.25981 0.15805 0.48408 0.0
C2939 C 0.25559 0.16076 0.45723 0.0
C2940 C 0.25073 0.17874 0.45052 0.0
C2941 C 0.25022 0.19389 0.47053 0.0
C2942 C 0.2547 0.19077 0.49749 0.0
H2943 H 0.91287 0.13983 0.55952 0.0
H2944 H 0.93842 0.18469 0.48915 0.0
H2945 H 0.90558 0.15303 0.46237 0.0
H2946 H 0.90217 0.08909 0.52828 0.0
H2947 H 0.87654 0.06974 0.54803 0.0
H2948 H 0.89887 0.09732 0.56187 0.0
H2949 H 0.86741 0.10947 0.57119 0.0
H2950 H 0.84484 0.08175 0.55753 0.0
H2951 H 0.8489 0.10913 0.54416 0.0
H2952 H 0.87164 0.113 0.44256 0.0
H2953 H 0.84305 0.07077 0.43245 0.0
H2954 H 0.8427 0.05338 0.51624 0.0
C2955 C 0.91135 0.14336 0.53858 0.0
C2956 C 0.92821 0.16483 0.52646 0.0
C2957 C 0.92553 0.16855 0.49899 0.0
C2958 C 0.90696 0.15057 0.48365 0.0
C2959 C 0.89119 0.12913 0.49619 0.0
C2960 C 0.89329 0.12573 0.52321 0.0
C2961 C 0.87609 0.10072 0.53193 0.0
C2962 C 0.88921 0.08852 0.54317 0.0
C2963 C 0.85825 0.10025 0.55241 0.0
C2964 C 0.86427 0.09004 0.50548 0.0
C2965 C 0.87271 0.10662 0.48504 0.0
C2966 C 0.86483 0.1001 0.4586 0.0
C2967 C 0.84851 0.07613 0.453 0.0
C2968 C 0.84061 0.05893 0.47363 0.0
C2969 C 0.84832 0.06623 0.50017 0.0
H2970 H 0.92878 0.48851 0.37851 0.0
H2971 H 0.9176 0.5154 0.30396 0.0
H2972 H 0.91685 0.48212 0.27934 0.0
H2973 H 0.96493 0.46329 0.35035 0.0
H2974 H 0.95101 0.43812 0.37244 0.0
H2975 H 0.9548 0.46612 0.38308 0.0
H2976 H 0.90992 0.44608 0.39254 0.0
H2977 H 0.90584 0.41813 0.38146 0.0
H2978 H 0.88924 0.43015 0.36599 0.0
H2979 H 0.91172 0.44295 0.26404 0.0
H2980 H 0.90557 0.40277 0.25854 0.0
H2981 H 0.91947 0.40073 0.34335 0.0
C2982 C 0.92738 0.48797 0.35682 0.0
C2983 C 0.92422 0.50502 0.34289 0.0
C2984 C 0.921 0.50305 0.31476 0.0
C2985 C 0.92031 0.48406 0.30071 0.0
C2986 C 0.92271 0.46707 0.31514 0.0
C2987 C 0.92653 0.46904 0.34257 0.0
C2988 C 0.92647 0.4474 0.35373 0.0
C2989 C 0.95075 0.45414 0.3656 0.0
C2990 C 0.90669 0.4347 0.37466 0.0
C2991 C 0.92149 0.43267 0.32845 0.0
C2992 C 0.91945 0.44438 0.3064 0.0
C2993 C 0.91358 0.43379 0.28113 0.0
C2994 C 0.90987 0.41081 0.27824 0.0
C2995 C 0.912 0.39846 0.30047 0.0
C2996 C 0.91803 0.40975 0.32587 0.0
H2997 H 0.65351 0.50238 0.33881 0.0
H2998 H 0.63095 0.5273 0.27063 0.0
H2999 H 0.58919 0.49789 0.2808 0.0
H3000 H 0.61084 0.4408 0.33166 0.0
H3001 H 0.60683 0.43571 0.36734 0.0
H3002 H 0.63468 0.45865 0.35438 0.0
H3003 H 0.63184 0.48943 0.3845 0.0
H3004 H 0.60409 0.46656 0.39769 0.0
H3005 H 0.60594 0.49243 0.38255 0.0
H3006 H 0.54898 0.4642 0.29895 0.0
H3007 H 0.51552 0.43269 0.32508 0.0
H3008 H 0.56573 0.43109 0.38065 0.0
C3009 C 0.63984 0.50161 0.32589 0.0
C3010 C 0.64561 0.51717 0.30387 0.0
C3011 C 0.62703 0.51577 0.28778 0.0
C3012 C 0.60324 0.49896 0.29328 0.0
C3013 C 0.59822 0.4837 0.31504 0.0
C3014 C 0.61611 0.4851 0.33117 0.0
C3015 C 0.60633 0.46727 0.35375 0.0
C3016 C 0.6152 0.44956 0.35164 0.0
C3017 C 0.61241 0.47967 0.38124 0.0
C3018 C 0.58013 0.45555 0.34793 0.0
C3019 C 0.57561 0.465 0.32545 0.0
C3020 C 0.55243 0.45674 0.31659 0.0
C3021 C 0.53351 0.43875 0.33141 0.0
C3022 C 0.53796 0.42944 0.35492 0.0
C3023 C 0.56164 0.43786 0.36284 0.0
H3024 H 0.50135 0.11651 0.31815 0.0
H3025 H 0.53029 0.13323 0.23779 0.0
H3026 H 0.56 0.12201 0.25003 0.0
H3027 H 0.5547 0.14138 0.3507 0.0
H3028 H 0.54573 0.11986 0.37727 0.0
H3029 H 0.52412 0.12479 0.36083 0.0
H3030 H 0.49948 0.08035 0.34893 0.0
H3031 H 0.52105 0.07527 0.36549 0.0
H3032 H 0.51323 0.06648 0.33099 0.0
H3033 H 0.59037 0.11414 0.27318 0.0
H3034 H 0.61797 0.11114 0.30526 0.0
H3035 H 0.56905 0.09973 0.37006 0.0
C3036 C 0.51333 0.11683 0.30292 0.0
C3037 C 0.5133 0.12539 0.27692 0.0
C3038 C 0.5299 0.1265 0.25776 0.0
C3039 C 0.54683 0.12013 0.26454 0.0
C3040 C 0.54704 0.11258 0.29065 0.0
C3041 C 0.53054 0.11071 0.30949 0.0
C3042 C 0.53608 0.10461 0.33687 0.0
C3043 C 0.54042 0.12381 0.35762 0.0
C3044 C 0.51628 0.08022 0.34611 0.0
C3045 C 0.55862 0.1042 0.33072 0.0
C3046 C 0.56456 0.10842 0.3039 0.0
C3047 C 0.58564 0.11042 0.29416 0.0
C3048 C 0.60121 0.1086 0.31244 0.0
C3049 C 0.59572 0.10517 0.34012 0.0
C3050 C 0.57382 0.10232 0.34898 0.0
H3051 H 0.82245 0.59962 0.78755 0.0
H3052 H 0.85018 0.56638 0.83971 0.0
H3053 H 0.81692 0.55562 0.87133 0.0
H3054 H 0.7963 0.62038 0.84216 0.0
H3055 H 0.77137 0.61406 0.82113 0.0
H3056 H 0.79989 0.6235 0.80622 0.0
H3057 H 0.78108 0.58626 0.77617 0.0
H3058 H 0.75267 0.5764 0.79128 0.0
H3059 H 0.76535 0.5575 0.79161 0.0
H3060 H 0.77638 0.54137 0.89171 0.0
H3061 H 0.73447 0.52823 0.90161 0.0
H3062 H 0.73324 0.57149 0.83668 0.0
C3063 C 0.82214 0.59109 0.80631 0.0
C3064 C 0.83916 0.58424 0.8115 0.0
C3065 C 0.83779 0.57242 0.83576 0.0
C3066 C 0.81877 0.56604 0.85365 0.0
C3067 C 0.80153 0.57195 0.84714 0.0
C3068 C 0.8034 0.58474 0.82429 0.0
C3069 C 0.78149 0.58688 0.82027 0.0
C3070 C 0.78763 0.61274 0.82259 0.0
C3071 C 0.76945 0.57611 0.79324 0.0
C3072 C 0.76641 0.57237 0.84372 0.0
C3073 C 0.77835 0.56405 0.8591 0.0
C3074 C 0.76719 0.54831 0.8802 0.0
C3075 C 0.74335 0.54084 0.8856 0.0
C3076 C 0.73078 0.5491 0.87013 0.0
C3077 C 0.74264 0.56541 0.84921 0.0
H3078 H 0.5083 0.20582 0.8333 0.0
H3079 H 0.44833 0.16628 0.88611 0.0
H3080 H 0.43452 0.1946 0.8763 0.0
H3081 H 0.51963 0.26365 0.85186 0.0
H3082 H 0.52806 0.27513 0.81827 0.0
H3083 H 0.53273 0.25167 0.82962 0.0
H3084 H 0.50843 0.22565 0.78939 0.0
H3085 H 0.50405 0.24916 0.77771 0.0
H3086 H 0.47889 0.22032 0.78383 0.0
H3087 H 0.42736 0.22843 0.85896 0.0
H3088 H 0.42637 0.26077 0.83374 0.0
H3089 H 0.49255 0.27791 0.79533 0.0
C3090 C 0.49239 0.20311 0.84317 0.0
C3091 C 0.47958 0.1838 0.86072 0.0
C3092 C 0.45845 0.18079 0.87246 0.0
C3093 C 0.45059 0.19696 0.86719 0.0
C3094 C 0.4641 0.21615 0.85022 0.0
C3095 C 0.48451 0.21907 0.83835 0.0
C3096 C 0.49582 0.24054 0.82036 0.0
C3097 C 0.52052 0.25883 0.83065 0.0
C3098 C 0.49684 0.23349 0.7911 0.0
C3099 C 0.47854 0.24931 0.82357 0.0
C3100 C 0.46033 0.23525 0.84092 0.0
C3101 C 0.44173 0.23963 0.8456 0.0
C3102 C 0.44142 0.25822 0.83146 0.0
C3103 C 0.45954 0.27208 0.81285 0.0
C3104 C 0.47857 0.26785 0.80968 0.0
H3105 H 0.82412 0.29705 0.86776 0.0
H3106 H 0.88748 0.2928 0.85508 0.0
H3107 H 0.8631 0.25325 0.83429 0.0
H3108 H 0.78547 0.23618 0.88525 0.0
H3109 H 0.76039 0.23471 0.86836 0.0
H3110 H 0.783 0.26228 0.8822 0.0
H3111 H 0.78909 0.28237 0.83568 0.0
H3112 H 0.76633 0.25496 0.8218 0.0
H3113 H 0.79537 0.26974 0.80687 0.0
H3114 H 0.83018 0.21314 0.81422 0.0
H3115 H 0.79385 0.17969 0.79451 0.0
H3116 H 0.75332 0.2114 0.82239 0.0
C3117 C 0.83299 0.2878 0.86099 0.0
C3118 C 0.85779 0.29806 0.86341 0.0
C3119 C 0.86856 0.28542 0.85342 0.0
C3120 C 0.85478 0.26284 0.84177 0.0
C3121 C 0.83026 0.25312 0.84021 0.0
C3122 C 0.81961 0.26543 0.84947 0.0
C3123 C 0.79318 0.25186 0.84495 0.0
C3124 C 0.77972 0.24591 0.87179 0.0
C3125 C 0.78556 0.26554 0.82621 0.0
C3126 C 0.7904 0.22991 0.83153 0.0
C3127 C 0.81185 0.23069 0.82901 0.0
C3128 C 0.81334 0.2124 0.81633 0.0
C3129 C 0.79258 0.19332 0.80539 0.0
C3130 C 0.77066 0.19277 0.80709 0.0
C3131 C 0.76971 0.21113 0.82089 0.0
H3132 H 0.48946 0.21242 0.32093 0.0
H3133 H 0.41346 0.16888 0.32719 0.0
H3134 H 0.41174 0.20181 0.34977 0.0
H3135 H 0.49976 0.24731 0.38463 0.0
H3136 H 0.52259 0.27356 0.36854 0.0
H3137 H 0.51765 0.24498 0.35859 0.0
H3138 H 0.51255 0.25445 0.30936 0.0
H3139 H 0.51667 0.28267 0.31917 0.0
H3140 H 0.49024 0.26201 0.30149 0.0
H3141 H 0.41858 0.24286 0.36494 0.0
H3142 H 0.43354 0.28509 0.37555 0.0
H3143 H 0.50469 0.30076 0.35655 0.0
C3144 C 0.47259 0.20939 0.32841 0.0
C3145 C 0.45168 0.18792 0.32301 0.0
C3146 C 0.42978 0.18489 0.332 0.0
C3147 C 0.42865 0.20368 0.34447 0.0
C3148 C 0.4496 0.22524 0.34793 0.0
C3149 C 0.47122 0.22788 0.34064 0.0
C3150 C 0.49099 0.25314 0.34387 0.0
C3151 C 0.5088 0.25484 0.36518 0.0
C3152 C 0.50332 0.26367 0.31687 0.0
C3153 C 0.47721 0.2646 0.35349 0.0
C3154 C 0.45338 0.24839 0.35594 0.0
C3155 C 0.43728 0.25553 0.36343 0.0
C3156 C 0.44589 0.27963 0.36912 0.0
C3157 C 0.47037 0.29636 0.36717 0.0
C3158 C 0.48597 0.28851 0.3589 0.0
H3159 H 0.8094 0.28332 0.31312 0.0
H3160 H 0.84822 0.24624 0.30256 0.0
H3161 H 0.81407 0.20993 0.32137 0.0
H3162 H 0.7797 0.25513 0.37533 0.0
H3163 H 0.75292 0.25477 0.36583 0.0
H3164 H 0.78101 0.2776 0.35329 0.0
H3165 H 0.76537 0.26657 0.30457 0.0
H3166 H 0.73735 0.24351 0.31692 0.0
H3167 H 0.75381 0.23666 0.29311 0.0
H3168 H 0.77328 0.17652 0.33976 0.0
H3169 H 0.73274 0.15147 0.35788 0.0
H3170 H 0.72166 0.21136 0.35422 0.0
C3171 C 0.81101 0.26772 0.31508 0.0
C3172 C 0.8317 0.2678 0.30648 0.0
C3173 C 0.83276 0.2468 0.30932 0.0
C3174 C 0.81333 0.22602 0.31981 0.0
C3175 C 0.79293 0.22649 0.32742 0.0
C3176 C 0.79188 0.24699 0.32534 0.0
C3177 C 0.76802 0.24316 0.3341 0.0
C3178 C 0.77057 0.25857 0.3586 0.0
C3179 C 0.7554 0.24774 0.31078 0.0
C3180 C 0.75557 0.21725 0.34148 0.0
C3181 C 0.77006 0.20776 0.33753 0.0
C3182 C 0.76195 0.18394 0.34294 0.0
C3183 C 0.73876 0.16973 0.35304 0.0
C3184 C 0.72383 0.17931 0.35771 0.0
C3185 C 0.73252 0.20339 0.3514 0.0
H3186 H 0.87579 0.59287 0.31155 0.0
H3187 H 0.85055 0.57008 0.39267 0.0
H3188 H 0.81794 0.57825 0.38483 0.0
H3189 H 0.86155 0.6402 0.30748 0.0
H3190 H 0.85246 0.63397 0.27285 0.0
H3191 H 0.87471 0.62798 0.28566 0.0
H3192 H 0.84987 0.58441 0.27022 0.0
H3193 H 0.82783 0.59044 0.25707 0.0
H3194 H 0.81957 0.567 0.28113 0.0
H3195 H 0.78649 0.58755 0.36678 0.0
H3196 H 0.75782 0.59269 0.33889 0.0
H3197 H 0.80419 0.60929 0.27022 0.0
C3198 C 0.86364 0.58992 0.32783 0.0
C3199 C 0.86588 0.58088 0.35278 0.0
C3200 C 0.84917 0.57678 0.3733 0.0
C3201 C 0.83069 0.58163 0.36911 0.0
C3202 C 0.82906 0.5906 0.34427 0.0
C3203 C 0.84506 0.59453 0.32393 0.0
C3204 C 0.83861 0.6026 0.29843 0.0
C3205 C 0.85799 0.62768 0.29066 0.0
C3206 C 0.83367 0.58506 0.27536 0.0
C3207 C 0.81627 0.60225 0.30736 0.0
C3208 C 0.81113 0.59567 0.33397 0.0
C3209 C 0.79056 0.593 0.34602 0.0
C3210 C 0.77447 0.59623 0.33017 0.0
C3211 C 0.77899 0.60179 0.30256 0.0
C3212 C 0.80049 0.60548 0.29142 0.0
H3213 H 0.63812 0.10581 0.84034 0.0
H3214 H 0.63665 0.12978 0.75957 0.0
H3215 H 0.59707 0.12462 0.76838 0.0
H3216 H 0.57533 0.06147 0.84482 0.0
H3217 H 0.57349 0.06781 0.87967 0.0
H3218 H 0.6009 0.07193 0.8662 0.0
H3219 H 0.62267 0.11548 0.88221 0.0
H3220 H 0.59543 0.11137 0.89601 0.0
H3221 H 0.61171 0.13467 0.87208 0.0
H3222 H 0.55756 0.11839 0.78759 0.0
H3223 H 0.525 0.11529 0.81645 0.0
H3224 H 0.55301 0.09497 0.88358 0.0
C3225 C 0.62938 0.10963 0.8243 0.0
C3226 C 0.64061 0.11816 0.79923 0.0
C3227 C 0.62862 0.12345 0.77906 0.0
C3228 C 0.60597 0.12033 0.78379 0.0
C3229 C 0.59541 0.11182 0.80878 0.0
C3230 C 0.60687 0.10666 0.8287 0.0
C3231 C 0.59262 0.09921 0.85441 0.0
C3232 C 0.58514 0.07358 0.86169 0.0
C3233 C 0.60642 0.1162 0.87753 0.0
C3234 C 0.57153 0.1014 0.84612 0.0
C3235 C 0.57312 0.10835 0.81964 0.0
C3236 C 0.55605 0.11266 0.80825 0.0
C3237 C 0.53746 0.11064 0.82464 0.0
C3238 C 0.53636 0.10461 0.85209 0.0
C3239 C 0.55325 0.09931 0.86253 0.0
H3240 H 0.85711 0.47316 0.79363 0.0
H3241 H 0.92826 0.53088 0.77842 0.0
H3242 H 0.94384 0.5042 0.78818 0.0
H3243 H 0.87148 0.45162 0.84993 0.0
H3244 H 0.8503 0.42114 0.84303 0.0
H3245 H 0.84507 0.444 0.83106 0.0
H3246 H 0.84093 0.42796 0.78256 0.0
H3247 H 0.84654 0.40521 0.79441 0.0
H3248 H 0.86462 0.42501 0.76814 0.0
H3249 H 0.9518 0.47117 0.80411 0.0
H3250 H 0.95124 0.43768 0.82819 0.0
H3251 H 0.87502 0.40317 0.83418 0.0
C3252 C 0.87599 0.48047 0.79216 0.0
C3253 C 0.89132 0.50445 0.78521 0.0
C3254 C 0.91593 0.51267 0.78339 0.0
C3255 C 0.92499 0.49756 0.78891 0.0
C3256 C 0.90928 0.47415 0.79614 0.0
C3257 C 0.88527 0.46579 0.79781 0.0
C3258 C 0.8721 0.44074 0.80838 0.0
C3259 C 0.85899 0.43931 0.83465 0.0
C3260 C 0.85504 0.42373 0.78709 0.0
C3261 C 0.89245 0.43639 0.81321 0.0
C3262 C 0.91379 0.45559 0.80552 0.0
C3263 C 0.93512 0.45595 0.80977 0.0
C3264 C 0.93466 0.43672 0.82319 0.0
C3265 C 0.91304 0.41762 0.83255 0.0
C3266 C 0.89174 0.41727 0.82665 0.0
H3267 H 0.50862 0.3826 0.82191 0.0
H3268 H 0.52562 0.40926 0.74053 0.0
H3269 H 0.55455 0.44879 0.75767 0.0
H3270 H 0.51588 0.43755 0.85299 0.0
H3271 H 0.52904 0.43375 0.88299 0.0
H3272 H 0.50776 0.4083 0.86436 0.0
H3273 H 0.538 0.39387 0.86046 0.0
H3274 H 0.55935 0.41927 0.87895 0.0
H3275 H 0.56674 0.4132 0.84616 0.0
H3276 H 0.58449 0.48522 0.78394 0.0
H3277 H 0.61227 0.51432 0.81712 0.0
H3278 H 0.57569 0.46363 0.88084 0.0
C3279 C 0.518 0.39694 0.80782 0.0
C3280 C 0.51478 0.39283 0.77988 0.0
C3281 C 0.52786 0.41197 0.76202 0.0
C3282 C 0.54429 0.43454 0.77157 0.0
C3283 C 0.5476 0.43793 0.79919 0.0
C3284 C 0.53471 0.41966 0.81707 0.0
C3285 C 0.54277 0.42753 0.84565 0.0
C3286 C 0.52266 0.42674 0.86249 0.0
C3287 C 0.55228 0.41258 0.85855 0.0
C3288 C 0.56243 0.45278 0.84097 0.0
C3289 C 0.56487 0.45865 0.81411 0.0
C3290 C 0.58256 0.48085 0.8051 0.0
C3291 C 0.59827 0.49733 0.82404 0.0
C3292 C 0.5963 0.49141 0.85161 0.0
C3293 C 0.57784 0.46889 0.85995 0.0
H3294 H 0.60163 0.80947 0.71948 0.0
H3295 H 0.60117 0.84569 0.64677 0.0
H3296 H 0.5933 0.81027 0.62011 0.0
H3297 H 0.62892 0.77764 0.69185 0.0
H3298 H 0.61093 0.75194 0.71213 0.0
H3299 H 0.61846 0.78079 0.72424 0.0
H3300 H 0.57396 0.76657 0.73077 0.0
H3301 H 0.56625 0.73778 0.7184 0.0
H3302 H 0.55406 0.75412 0.70269 0.0
H3303 H 0.58286 0.76867 0.60231 0.0
H3304 H 0.57309 0.7274 0.59509 0.0
H3305 H 0.57895 0.7195 0.68081 0.0
C3306 C 0.60019 0.81023 0.69788 0.0
C3307 C 0.60204 0.83042 0.6852 0.0
C3308 C 0.60004 0.83052 0.65689 0.0
C3309 C 0.59543 0.81041 0.64167 0.0
C3310 C 0.59298 0.7905 0.65512 0.0
C3311 C 0.59552 0.79051 0.68264 0.0
C3312 C 0.59129 0.76695 0.69288 0.0
C3313 C 0.61374 0.76949 0.70604 0.0
C3314 C 0.57013 0.7557 0.71232 0.0
C3315 C 0.58572 0.75334 0.66688 0.0
C3316 C 0.58682 0.76709 0.64521 0.0
C3317 C 0.58203 0.75789 0.61922 0.0
C3318 C 0.57625 0.73425 0.61535 0.0
C3319 C 0.57518 0.71993 0.63738 0.0
C3320 C 0.57988 0.72983 0.66342 0.0
H3321 H 0.29374 0.87366 0.66202 0.0
H3322 H 0.31473 0.83556 0.60789 0.0
H3323 H 0.2745 0.80064 0.61125 0.0
H3324 H 0.26225 0.8274 0.70617 0.0
H3325 H 0.23999 0.8352 0.71331 0.0
H3326 H 0.26905 0.8576 0.70309 0.0
H3327 H 0.25059 0.86915 0.66403 0.0
H3328 H 0.22143 0.84635 0.67393 0.0
H3329 H 0.23165 0.84703 0.64014 0.0
H3330 H 0.2329 0.76792 0.62572 0.0
H3331 H 0.19688 0.74131 0.65193 0.0
H3332 H 0.2039 0.80131 0.69605 0.0
C3333 C 0.29001 0.85811 0.65066 0.0
C3334 C 0.30768 0.85752 0.63475 0.0
C3335 C 0.3016 0.83668 0.62003 0.0
C3336 C 0.27871 0.81671 0.62182 0.0
C3337 C 0.2619 0.81784 0.63815 0.0
C3338 C 0.26739 0.83814 0.65224 0.0
C3339 C 0.24721 0.83449 0.67035 0.0
C3340 C 0.2551 0.83892 0.69997 0.0
C3341 C 0.23713 0.85019 0.66158 0.0
C3342 C 0.22972 0.80869 0.66512 0.0
C3343 C 0.23818 0.79937 0.6461 0.0
C3344 C 0.2259 0.77523 0.64009 0.0
C3345 C 0.20521 0.76022 0.65478 0.0
C3346 C 0.19714 0.7694 0.67529 0.0
C3347 C 0.20912 0.79401 0.67967 0.0
H3348 H 0.20169 0.49186 0.64564 0.0
H3349 H 0.15107 0.42325 0.61401 0.0
H3350 H 0.17549 0.40682 0.63188 0.0
H3351 H 0.25356 0.48995 0.6311 0.0
H3352 H 0.26865 0.50496 0.66142 0.0
H3353 H 0.24668 0.51053 0.64696 0.0
H3354 H 0.22337 0.49906 0.69182 0.0
H3355 H 0.2455 0.49388 0.70656 0.0
H3356 H 0.21489 0.4709 0.70699 0.0
H3357 H 0.20853 0.39918 0.65189 0.0
H3358 H 0.24251 0.40029 0.67603 0.0
H3359 H 0.26956 0.4741 0.69434 0.0
C3360 C 0.19562 0.47331 0.64267 0.0
C3361 C 0.17453 0.45883 0.6284 0.0
C3362 C 0.16707 0.43459 0.62511 0.0
C3363 C 0.18097 0.42522 0.63499 0.0
C3364 C 0.20214 0.44028 0.64837 0.0
C3365 C 0.20907 0.46376 0.65255 0.0
C3366 C 0.23217 0.4765 0.66771 0.0
C3367 C 0.25139 0.49667 0.65078 0.0
C3368 C 0.22877 0.48561 0.69488 0.0
C3369 C 0.23747 0.45671 0.6714 0.0
C3370 C 0.22022 0.4359 0.66 0.0
C3371 C 0.22198 0.41543 0.66094 0.0
C3372 C 0.24144 0.41622 0.67445 0.0
C3373 C 0.25869 0.43727 0.68702 0.0
C3374 C 0.25664 0.4577 0.685 0.0
H3375 H 0.47558 0.86597 0.14482 0.0
H3376 H 0.51928 0.94182 0.15174 0.0
H3377 H 0.48788 0.9429 0.17877 0.0
H3378 H 0.42322 0.86389 0.13434 0.0
H3379 H 0.40493 0.83747 0.15341 0.0
H3380 H 0.4321 0.84211 0.13881 0.0
H3381 H 0.44699 0.83754 0.18537 0.0
H3382 H 0.41954 0.83217 0.20009 0.0
H3383 H 0.44724 0.85536 0.2131 0.0
H3384 H 0.44825 0.93572 0.1985 0.0
H3385 H 0.40726 0.92048 0.21501 0.0
H3386 H 0.39054 0.84927 0.19569 0.0
C3387 C 0.47899 0.88267 0.15316 0.0
C3388 C 0.50007 0.90375 0.14681 0.0
C3389 C 0.5036 0.9254 0.15716 0.0
C3390 C 0.48568 0.92617 0.1722 0.0
C3391 C 0.46453 0.90508 0.17697 0.0
C3392 C 0.46146 0.88365 0.16834 0.0
C3393 C 0.43678 0.86362 0.17457 0.0
C3394 C 0.42349 0.85105 0.14875 0.0
C3395 C 0.4377 0.84614 0.19447 0.0
C3396 C 0.42608 0.87707 0.1874 0.0
C3397 C 0.44224 0.90098 0.18857 0.0
C3398 C 0.43569 0.91697 0.1981 0.0
C3399 C 0.4123 0.90822 0.20717 0.0
C3400 C 0.39573 0.88368 0.20684 0.0
C3401 C 0.40287 0.86806 0.19665 0.0
H3402 H 0.14015 0.60011 0.15939 0.0
H3403 H 0.06904 0.5558 0.12992 0.0
H3404 H 0.0676 0.52105 0.15167 0.0
H3405 H 0.15992 0.56371 0.14494 0.0
H3406 H 0.17876 0.56937 0.1737 0.0
H3407 H 0.17217 0.59149 0.16246 0.0
H3408 H 0.15581 0.59289 0.20936 0.0
H3409 H 0.16303 0.57123 0.22115 0.0
H3410 H 0.13332 0.56596 0.22465 0.0
H3411 H 0.07758 0.49018 0.16824 0.0
H3412 H 0.09641 0.46704 0.18131 0.0
H3413 H 0.16084 0.53218 0.20072 0.0
C3414 C 0.12375 0.58336 0.15913 0.0
C3415 C 0.10434 0.58072 0.14402 0.0
C3416 C 0.08366 0.5583 0.14247 0.0
C3417 C 0.08285 0.53843 0.15449 0.0
C3418 C 0.10284 0.54138 0.1681 0.0
C3419 C 0.12272 0.56347 0.17103 0.0
C3420 C 0.14289 0.56174 0.18363 0.0
C3421 C 0.1647 0.57219 0.16507 0.0
C3422 C 0.14912 0.57366 0.21135 0.0
C3423 C 0.13174 0.53522 0.18612 0.0
C3424 C 0.10858 0.5237 0.17739 0.0
C3425 C 0.09553 0.49909 0.17575 0.0
C3426 C 0.10643 0.48604 0.18322 0.0
C3427 C 0.13027 0.49756 0.19209 0.0
C3428 C 0.14274 0.52253 0.19388 0.0
H3429 H 0.41932 0.56103 0.13905 0.0
H3430 H 0.44609 0.51433 0.15869 0.0
H3431 H 0.47864 0.54657 0.18489 0.0
H3432 H 0.47319 0.61142 0.12821 0.0
H3433 H 0.46518 0.63168 0.14264 0.0
H3434 H 0.44273 0.60429 0.12838 0.0
H3435 H 0.4195 0.59302 0.17324 0.0
H3436 H 0.44162 0.62064 0.18751 0.0
H3437 H 0.43427 0.59324 0.20389 0.0
H3438 H 0.51163 0.58681 0.20428 0.0
H3439 H 0.53772 0.62818 0.21951 0.0
H3440 H 0.48794 0.64713 0.18734 0.0
C3441 C 0.43158 0.55732 0.14961 0.0
C3442 C 0.42994 0.53503 0.14717 0.0
C3443 C 0.44663 0.53105 0.16082 0.0
C3444 C 0.46535 0.5494 0.17547 0.0
C3445 C 0.46695 0.57153 0.17656 0.0
C3446 C 0.45009 0.57527 0.16443 0.0
C3447 C 0.45589 0.60063 0.16758 0.0
C3448 C 0.45946 0.6127 0.14007 0.0
C3449 C 0.43668 0.60195 0.18404 0.0
C3450 C 0.47892 0.61088 0.18296 0.0
C3451 C 0.48523 0.59399 0.18793 0.0
C3452 C 0.50655 0.59998 0.20079 0.0
C3453 C 0.5214 0.62356 0.20918 0.0
C3454 C 0.51481 0.6409 0.20491 0.0
C3455 C 0.49332 0.63427 0.19142 0.0
H3456 H 0.17692 0.64737 0.67305 0.0
H3457 H 0.11445 0.6265 0.72167 0.0
H3458 H 0.0991 0.58478 0.70834 0.0
H3459 H 0.14833 0.60823 0.61922 0.0
H3460 H 0.17241 0.60284 0.61318 0.0
H3461 H 0.17819 0.63042 0.62757 0.0
H3462 H 0.19905 0.62352 0.66795 0.0
H3463 H 0.1931 0.59576 0.65377 0.0
H3464 H 0.18337 0.59678 0.68737 0.0
H3465 H 0.09062 0.54436 0.68806 0.0
H3466 H 0.08893 0.51171 0.6607 0.0
H3467 H 0.15752 0.56058 0.62697 0.0
C3468 C 0.16016 0.63411 0.68133 0.0
C3469 C 0.14707 0.64038 0.69869 0.0
C3470 C 0.12485 0.62228 0.70828 0.0
C3471 C 0.11607 0.59847 0.70096 0.0
C3472 C 0.12968 0.59295 0.68401 0.0
C3473 C 0.15123 0.61044 0.67428 0.0
C3474 C 0.16226 0.6005 0.65554 0.0
C3475 C 0.16547 0.61112 0.62721 0.0
C3476 C 0.18584 0.60437 0.66684 0.0
C3477 C 0.14353 0.57465 0.6559 0.0
C3478 C 0.12488 0.57037 0.67256 0.0
C3479 C 0.10527 0.54762 0.67514 0.0
C3480 C 0.10451 0.5291 0.65973 0.0
C3481 C 0.12315 0.53355 0.64185 0.0
C3482 C 0.14302 0.55654 0.64056 0.0
H3483 H 0.39597 0.53693 0.68405 0.0
H3484 H 0.39906 0.47279 0.67371 0.0
H3485 H 0.44093 0.49681 0.65915 0.0
H3486 H 0.42841 0.56596 0.62639 0.0
H3487 H 0.44264 0.59478 0.64171 0.0
H3488 H 0.41403 0.57236 0.65331 0.0
H3489 H 0.43051 0.57745 0.70173 0.0
H3490 H 0.45929 0.59975 0.69017 0.0
H3491 H 0.45593 0.57426 0.70794 0.0
H3492 H 0.4828 0.52929 0.64211 0.0
H3493 H 0.51768 0.56522 0.62355 0.0
H3494 H 0.48535 0.60657 0.64569 0.0
C3495 C 0.40525 0.52773 0.67869 0.0
C3496 C 0.39392 0.50281 0.67985 0.0
C3497 C 0.40723 0.49182 0.67314 0.0
C3498 C 0.43107 0.50537 0.66481 0.0
C3499 C 0.44151 0.52995 0.66353 0.0
C3500 C 0.42884 0.54089 0.67042 0.0
C3501 C 0.44326 0.5673 0.66632 0.0
C3502 C 0.43138 0.57557 0.6457 0.0
C3503 C 0.4475 0.58046 0.69314 0.0
C3504 C 0.46595 0.56967 0.65543 0.0
C3505 C 0.46494 0.5481 0.65415 0.0
C3506 C 0.48375 0.54624 0.64339 0.0
C3507 C 0.50362 0.56676 0.63309 0.0
C3508 C 0.50436 0.58875 0.63341 0.0
C3509 C 0.48546 0.59008 0.64536 0.0
H3510 H 0.42984 0.87673 0.63788 0.0
H3511 H 0.45465 0.94846 0.66438 0.0
H3512 H 0.48955 0.94925 0.68548 0.0
H3513 H 0.44906 0.85686 0.69547 0.0
H3514 H 0.45709 0.83926 0.67502 0.0
H3515 H 0.43363 0.84427 0.66446 0.0
H3516 H 0.45519 0.86092 0.61913 0.0
H3517 H 0.47882 0.85619 0.62964 0.0
H3518 H 0.48524 0.88516 0.61918 0.0
H3519 H 0.52347 0.94186 0.70169 0.0
H3520 H 0.5508 0.92703 0.71214 0.0
H3521 H 0.50314 0.86118 0.67202 0.0
C3522 C 0.44235 0.89258 0.64844 0.0
C3523 C 0.43935 0.9125 0.64959 0.0
C3524 C 0.45637 0.93287 0.6635 0.0
C3525 C 0.47632 0.93349 0.6754 0.0
C3526 C 0.47897 0.91362 0.67318 0.0
C3527 C 0.46223 0.89353 0.6601 0.0
C3528 C 0.46921 0.87475 0.65921 0.0
C3529 C 0.45118 0.85247 0.67446 0.0
C3530 C 0.4723 0.86893 0.63006 0.0
C3531 C 0.49263 0.88727 0.67375 0.0
C3532 C 0.49811 0.90964 0.68182 0.0
C3533 C 0.51917 0.92432 0.69545 0.0
C3534 C 0.53473 0.91579 0.70115 0.0
C3535 C 0.52924 0.89276 0.69317 0.0
C3536 C 0.50791 0.87863 0.67904 0.0
H3537 H 0.226 0.43626 0.20589 0.0
H3538 H 0.17988 0.42972 0.13981 0.0
H3539 H 0.21162 0.43595 0.10764 0.0
H3540 H 0.27801 0.48227 0.17946 0.0
H3541 H 0.29695 0.47184 0.19216 0.0
H3542 H 0.26989 0.46437 0.20938 0.0
H3543 H 0.25636 0.41993 0.20542 0.0
H3544 H 0.28346 0.42727 0.1882 0.0
H3545 H 0.25539 0.40745 0.17285 0.0
H3546 H 0.25037 0.44743 0.08325 0.0
H3547 H 0.29161 0.46193 0.06874 0.0
H3548 H 0.31196 0.46002 0.15097 0.0
C3549 C 0.22231 0.43576 0.18462 0.0
C3550 C 0.20033 0.43249 0.17538 0.0
C3551 C 0.19643 0.432 0.14738 0.0
C3552 C 0.21441 0.43558 0.12901 0.0
C3553 C 0.23606 0.43929 0.13895 0.0
C3554 C 0.23991 0.43913 0.16617 0.0
C3555 C 0.26501 0.44471 0.172 0.0
C3556 C 0.27823 0.46713 0.18926 0.0
C3557 C 0.26505 0.42358 0.18541 0.0
C3558 C 0.27509 0.44872 0.14383 0.0
C3559 C 0.25806 0.44538 0.12502 0.0
C3560 C 0.26363 0.44969 0.09782 0.0
C3561 C 0.28711 0.45796 0.08976 0.0
C3562 C 0.30491 0.46182 0.10868 0.0
C3563 C 0.29862 0.45666 0.13602 0.0
H3564 H 0.59157 0.79609 0.19985 0.0
H3565 H 0.57564 0.74052 0.14219 0.0
H3566 H 0.56892 0.76374 0.10728 0.0
H3567 H 0.54759 0.80697 0.18164 0.0
H3568 H 0.5642 0.83844 0.1868 0.0
H3569 H 0.57161 0.81953 0.20541 0.0
H3570 H 0.61471 0.84298 0.18798 0.0
H3571 H 0.60752 0.8622 0.16946 0.0
H3572 H 0.62021 0.84692 0.15235 0.0
H3573 H 0.55822 0.79072 0.08109 0.0
H3574 H 0.54624 0.81899 0.06542 0.0
H3575 H 0.5693 0.85674 0.14084 0.0
C3576 C 0.58726 0.78901 0.17967 0.0
C3577 C 0.58418 0.7665 0.17365 0.0
C3578 C 0.57841 0.75783 0.14711 0.0
C3579 C 0.57447 0.7709 0.12726 0.0
C3580 C 0.57674 0.79267 0.13428 0.0
C3581 C 0.58339 0.80177 0.15983 0.0
C3582 C 0.58286 0.82454 0.16322 0.0
C3583 C 0.56553 0.82221 0.18558 0.0
C3584 C 0.60781 0.84539 0.16856 0.0
C3585 C 0.574 0.82655 0.13584 0.0
C3586 C 0.57079 0.80815 0.11931 0.0
C3587 C 0.56105 0.80533 0.09377 0.0
C3588 C 0.55415 0.82142 0.0851 0.0
C3589 C 0.5569 0.84015 0.10188 0.0
C3590 C 0.56743 0.84294 0.12737 0.0
H3591 H 0.27088 0.79321 0.20988 0.0
H3592 H 0.26473 0.84461 0.16102 0.0
H3593 H 0.23298 0.81181 0.13429 0.0
H3594 H 0.25972 0.7502 0.15749 0.0
H3595 H 0.24357 0.72576 0.18012 0.0
H3596 H 0.26685 0.7535 0.19277 0.0
H3597 H 0.23747 0.7546 0.22693 0.0
H3598 H 0.214 0.72711 0.21407 0.0
H3599 H 0.21059 0.75277 0.21492 0.0
H3600 H 0.19891 0.77116 0.11511 0.0
H3601 H 0.17016 0.72923 0.10406 0.0
H3602 H 0.19922 0.70677 0.16814 0.0
C3603 C 0.26322 0.79772 0.19324 0.0
C3604 C 0.27041 0.82151 0.18744 0.0
C3605 C 0.25979 0.82653 0.16555 0.0
C3606 C 0.24158 0.80797 0.15048 0.0
C3607 C 0.23432 0.78457 0.15754 0.0
C3608 C 0.24519 0.77962 0.17831 0.0
C3609 C 0.23411 0.75339 0.18304 0.0
C3610 C 0.25213 0.74524 0.17804 0.0
C3611 C 0.22341 0.74658 0.21142 0.0
C3612 C 0.21507 0.74404 0.16182 0.0
C3613 C 0.21525 0.76205 0.14714 0.0
C3614 C 0.19884 0.75705 0.12652 0.0
C3615 C 0.18239 0.73318 0.12051 0.0
C3616 C 0.18247 0.71459 0.13506 0.0
C3617 C 0.19885 0.72041 0.15625 0.0
loop_
_geom_bond_atom_site_label_1
_geom_bond_atom_site_label_2
_geom_bond_distance
_geom_bond_site_symmetry_2
_ccdc_geom_bond_type
C0 C1 1.351 . S
C0 N3 1.368 . S
C0 H5 0.931 . S
C1 C0 1.351 . S
C1 N2 1.373 . S
C1 H29 0.930 . S
N2 C1 1.373 . S
N2 C4 1.340 . S
N3 C0 1.368 . S
N3 C4 1.321 . S
N3 Co6 2.135 . S
C4 N2 1.340 . S
C4 N3 1.321 . S
C4 H28 0.930 . S
H5 C0 0.931 . S
Co6 N3 2.135 . S
Co6 N9 2.121 . S
Co6 O14 2.055 . S
Co6 O17 2.039 . S
Co6 N20 2.140 . S
C7 O8 1.227 . S
C7 O17 1.265 . S
O8 C7 1.227 . S
N9 Co6 2.121 . S
N9 C11 1.375 . S
N9 C12 1.313 . S
C10 C11 1.338 . S
C10 N13 1.377 . S
C10 H30 0.930 . S
C11 N9 1.375 . S
C11 C10 1.338 . S
C11 H15 0.931 . S
C12 N9 1.313 . S
C12 N13 1.344 . S
C12 H16 0.930 . S
N13 C10 1.377 . S
N13 C12 1.344 . S
O14 Co6 2.055 . S
O14 C18 1.253 . S
H15 C11 0.931 . S
H16 C12 0.930 . S
O17 Co6 2.039 . S
O17 C7 1.265 . S
C18 O14 1.253 . S
C18 O19 1.227 . S
O19 C18 1.227 . S
N20 Co6 2.140 . S
N20 C23 1.346 . S
N20 C24 1.345 . S
C21 C22 1.387 . S
C21 C25 1.391 . S
C22 C21 1.387 . S
C22 C23 1.369 . S
C22 H31 0.929 . S
C23 N20 1.346 . S
C23 C22 1.369 . S
C23 H26 0.928 . S
C24 N20 1.345 . S
C24 C25 1.371 . S
C24 H27 0.931 . S
C25 C21 1.391 . S
C25 C24 1.371 . S
C25 H32 0.930 . S
H26 C23 0.928 . S
H27 C24 0.931 . S
H28 C4 0.930 . S
H29 C1 0.930 . S
H30 C10 0.930 . S
H31 C22 0.929 . S
H32 C25 0.930 . S
C33 C34 1.351 1_545 S
C33 N36 1.368 . S
C33 H38 0.931 . S
C34 C33 1.351 1_565 S
C34 N35 1.373 . S
C34 H62 0.930 . S
N35 C34 1.373 . S
N35 C37 1.340 . S
N36 C33 1.368 . S
N36 C37 1.321 1_545 S
N36 Co39 2.135 . S
C37 N35 1.340 . S
C37 N36 1.321 1_565 S
C37 H61 0.930 . S
H38 C33 0.931 . S
Co39 N36 2.135 . S
Co39 N42 2.121 . S
Co39 O47 2.055 . S
Co39 O50 2.039 . S
Co39 N53 2.140 . S
C40 O41 1.255 . S
C40 O50 1.265 . S
O41 C40 1.255 . S
N42 Co39 2.121 . S
N42 C44 1.375 . S
N42 C45 1.313 . S
C43 C44 1.338 . S
C43 N46 1.377 . S
C43 H63 0.930 . S
C44 N42 1.375 . S
C44 C43 1.338 . S
C44 H48 0.931 . S
C45 N42 1.313 . S
C45 N46 1.344 . S
C45 H49 0.930 . S
N46 C43 1.377 . S
N46 C45 1.344 . S
O47 Co39 2.055 . S
O47 C51 1.253 . S
H48 C44 0.931 . S
H49 C45 0.930 . S
O50 Co39 2.039 . S
O50 C40 1.265 . S
C51 O47 1.253 . S
C51 O52 1.227 . S
O52 C51 1.227 . S
N53 Co39 2.140 . S
N53 C56 1.346 . S
N53 C57 1.345 . S
C54 C55 1.387 1_545 S
C54 C58 1.391 . S
C55 C54 1.387 1_565 S
C55 C56 1.369 1_565 S
C55 H64 0.929 . S
C56 N53 1.346 . S
C56 C55 1.369 1_545 S
C56 H59 0.928 1_545 S
C57 N53 1.345 . S
C57 C58 1.371 . S
C57 H60 0.931 . S
C58 C54 1.391 . S
C58 C57 1.371 . S
C58 H65 0.930 . S
H59 C56 0.928 1_565 S
H60 C57 0.931 . S
H61 C37 0.930 . S
H62 C34 0.930 . S
H63 C43 0.930 . S
H64 C55 0.929 . S
H65 C58 0.930 . S
C66 C67 1.351 1_655 S
C66 N69 1.368 . S
C66 H71 0.931 . S
C67 C66 1.351 1_455 S
C67 N68 1.373 . S
C67 H95 0.930 . S
N68 C67 1.373 . S
N68 C70 1.340 . S
N69 C66 1.368 . S
N69 C70 1.321 1_655 S
N69 Co72 2.135 . S
C70 N68 1.340 . S
C70 N69 1.321 1_455 S
C70 H94 0.930 . S
H71 C66 0.931 . S
Co72 N69 2.135 . S
Co72 N75 2.121 . S
Co72 O80 2.055 . S
Co72 O83 2.039 . S
Co72 N86 2.140 . S
C73 O74 1.239 . S
C73 O83 1.265 . S
O74 C73 1.239 . S
N75 Co72 2.121 . S
N75 C77 1.375 . S
N75 C78 1.313 . S
C76 C77 1.338 . S
C76 N79 1.377 . S
C76 H96 0.930 . S
C77 N75 1.375 . S
C77 C76 1.338 . S
C77 H81 0.931 . S
C78 N75 1.313 . S
C78 N79 1.344 . S
C78 H82 0.930 . S
N79 C76 1.377 . S
N79 C78 1.344 . S
O80 Co72 2.055 . S
O80 C84 1.253 . S
H81 C77 0.931 . S
H82 C78 0.930 . S
O83 Co72 2.039 . S
O83 C73 1.265 . S
C84 O80 1.253 . S
C84 O85 1.227 . S
O85 C84 1.227 . S
N86 Co72 2.140 . S
N86 C89 1.346 . S
N86 C90 1.345 . S
C87 C88 1.387 1_655 S
C87 C91 1.391 . S
C88 C87 1.387 1_455 S
C88 C89 1.369 1_455 S
C88 H97 0.929 . S
C89 N86 1.346 . S
C89 C88 1.369 1_655 S
C89 H92 0.928 1_655 S
C90 N86 1.345 . S
C90 C91 1.371 . S
C90 H93 0.931 . S
C91 C87 1.391 . S
C91 C90 1.371 . S
C91 H98 0.930 . S
H92 C89 0.928 1_455 S
H93 C90 0.931 . S
H94 C70 0.930 . S
H95 C67 0.930 . S
H96 C76 0.930 . S
H97 C88 0.929 . S
H98 C91 0.930 . S
C99 C100 1.351 . S
C99 N102 1.368 . S
C99 H104 0.931 . S
C100 C99 1.351 . S
C100 N101 1.373 . S
C100 H128 0.930 . S
N101 C100 1.373 . S
N101 C103 1.340 . S
N102 C99 1.368 . S
N102 C103 1.321 . S
N102 Co105 2.135 . S
C103 N101 1.340 . S
C103 N102 1.321 . S
C103 H127 0.930 . S
H104 C99 0.931 . S
Co105 N102 2.135 . S
Co105 N108 2.121 . S
Co105 O113 2.055 . S
Co105 O116 2.039 . S
Co105 N119 2.140 . S
C106 O107 1.227 . S
C106 O116 1.265 . S
O107 C106 1.227 . S
N108 Co105 2.121 . S
N108 C110 1.375 . S
N108 C111 1.313 . S
C109 C110 1.338 . S
C109 N112 1.377 . S
C109 H129 0.930 . S
C110 N108 1.375 . S
C110 C109 1.338 . S
C110 H114 0.931 . S
C111 N108 1.313 . S
C111 N112 1.344 . S
C111 H115 0.930 . S
N112 C109 1.377 . S
N112 C111 1.344 . S
O113 Co105 2.055 . S
O113 C117 1.253 . S
H114 C110 0.931 . S
H115 C111 0.930 . S
O116 Co105 2.039 . S
O116 C106 1.265 . S
C117 O113 1.253 . S
C117 O118 1.227 . S
O118 C117 1.227 . S
N119 Co105 2.140 . S
N119 C122 1.346 . S
N119 C123 1.345 . S
C120 C121 1.387 . S
C120 C124 1.391 . S
C121 C120 1.387 . S
C121 C122 1.369 . S
C121 H130 0.929 . S
C122 N119 1.346 . S
C122 C121 1.369 . S
C122 H125 0.928 . S
C123 N119 1.345 . S
C123 C124 1.371 . S
C123 H126 0.931 . S
C124 C120 1.391 . S
C124 C123 1.371 . S
C124 H131 0.930 . S
H125 C122 0.928 . S
H126 C123 0.931 . S
H127 C103 0.930 . S
H128 C100 0.930 . S
H129 C109 0.930 . S
H130 C121 0.929 . S
H131 C124 0.930 . S
C132 C133 1.351 1_565 S
C132 N135 1.368 . S
C132 H137 0.931 . S
C133 C132 1.351 1_545 S
C133 N134 1.373 . S
C133 H161 0.930 . S
N134 C133 1.373 . S
N134 C136 1.340 . S
N135 C132 1.368 . S
N135 C136 1.321 1_565 S
N135 Co138 2.135 . S
C136 N134 1.340 . S
C136 N135 1.321 1_545 S
C136 H160 0.930 . S
H137 C132 0.931 . S
Co138 N135 2.135 . S
Co138 N141 2.121 . S
Co138 O146 2.055 . S
Co138 O149 2.039 . S
Co138 N152 2.140 . S
C139 O140 1.239 . S
C139 O149 1.265 . S
O140 C139 1.239 . S
N141 Co138 2.121 . S
N141 C143 1.375 . S
N141 C144 1.313 . S
C142 C143 1.338 . S
C142 N145 1.377 . S
C142 H162 0.930 . S
C143 N141 1.375 . S
C143 C142 1.338 . S
C143 H147 0.931 . S
C144 N141 1.313 . S
C144 N145 1.344 . S
C144 H148 0.930 . S
N145 C142 1.377 . S
N145 C144 1.344 . S
O146 Co138 2.055 . S
O146 C150 1.253 . S
H147 C143 0.931 . S
H148 C144 0.930 . S
O149 Co138 2.039 . S
O149 C139 1.265 . S
C150 O146 1.253 . S
C150 O151 1.227 . S
O151 C150 1.227 . S
N152 Co138 2.140 . S
N152 C155 1.346 . S
N152 C156 1.345 . S
C153 C154 1.387 1_565 S
C153 C157 1.391 . S
C154 C153 1.387 1_545 S
C154 C155 1.369 1_545 S
C154 H163 0.929 . S
C155 N152 1.346 . S
C155 C154 1.369 1_565 S
C155 H158 0.928 1_565 S
C156 N152 1.345 . S
C156 C157 1.371 . S
C156 H159 0.931 . S
C157 C153 1.391 . S
C157 C156 1.371 . S
C157 H164 0.930 . S
H158 C155 0.928 1_545 S
H159 C156 0.931 . S
H160 C136 0.930 . S
H161 C133 0.930 . S
H162 C142 0.930 . S
H163 C154 0.929 . S
H164 C157 0.930 . S
C165 C166 1.351 1_455 S
C165 N168 1.368 . S
C165 H170 0.931 . S
C166 C165 1.351 1_655 S
C166 N167 1.373 . S
C166 H194 0.930 . S
N167 C166 1.373 . S
N167 C169 1.340 . S
N168 C165 1.368 . S
N168 C169 1.321 1_455 S
N168 Co171 2.135 . S
C169 N167 1.340 . S
C169 N168 1.321 1_655 S
C169 H193 0.930 . S
H170 C165 0.931 . S
Co171 N168 2.135 . S
Co171 N174 2.121 . S
Co171 O179 2.055 . S
Co171 O182 2.039 . S
Co171 N185 2.140 . S
C172 O173 1.255 . S
C172 O182 1.265 . S
O173 C172 1.255 . S
N174 Co171 2.121 . S
N174 C176 1.375 . S
N174 C177 1.313 . S
C175 C176 1.338 . S
C175 N178 1.377 . S
C175 H195 0.930 . S
C176 N174 1.375 . S
C176 C175 1.338 . S
C176 H180 0.931 . S
C177 N174 1.313 . S
C177 N178 1.344 . S
C177 H181 0.930 . S
N178 C175 1.377 . S
N178 C177 1.344 . S
O179 Co171 2.055 . S
O179 C183 1.253 . S
H180 C176 0.931 . S
H181 C177 0.930 . S
O182 Co171 2.039 . S
O182 C172 1.265 . S
C183 O179 1.253 . S
C183 O184 1.227 . S
O184 C183 1.227 . S
N185 Co171 2.140 . S
N185 C188 1.346 . S
N185 C189 1.345 . S
C186 C187 1.387 1_455 S
C186 C190 1.391 . S
C187 C186 1.387 1_655 S
C187 C188 1.369 1_655 S
C187 H196 0.929 . S
C188 N185 1.346 . S
C188 C187 1.369 1_455 S
C188 H191 0.928 1_455 S
C189 N185 1.345 . S
C189 C190 1.371 . S
C189 H192 0.931 . S
C190 C186 1.391 . S
C190 C189 1.371 . S
C190 H197 0.930 . S
H191 C188 0.928 1_655 S
H192 C189 0.931 . S
H193 C169 0.930 . S
H194 C166 0.930 . S
H195 C175 0.930 . S
H196 C187 0.929 . S
H197 C190 0.930 . S
C198 C199 1.351 . S
C198 N201 1.368 . S
C198 H203 0.931 . S
C199 C198 1.351 . S
C199 N200 1.373 . S
C199 H227 0.930 . S
N200 C199 1.373 . S
N200 C202 1.340 . S
N201 C198 1.368 . S
N201 C202 1.321 . S
N201 Co204 2.135 . S
C202 N200 1.340 . S
C202 N201 1.321 . S
C202 H226 0.930 . S
H203 C198 0.931 . S
Co204 N201 2.135 . S
Co204 N207 2.121 . S
Co204 O212 2.055 . S
Co204 O215 2.039 . S
Co204 N218 2.140 . S
C205 O206 1.227 . S
C205 O215 1.265 . S
O206 C205 1.227 . S
N207 Co204 2.121 . S
N207 C209 1.375 . S
N207 C210 1.313 . S
C208 C209 1.338 . S
C208 N211 1.377 . S
C208 H228 0.930 . S
C209 N207 1.375 . S
C209 C208 1.338 . S
C209 H213 0.931 . S
C210 N207 1.313 . S
C210 N211 1.344 . S
C210 H214 0.930 . S
N211 C208 1.377 . S
N211 C210 1.344 . S
O212 Co204 2.055 . S
O212 C216 1.253 . S
H213 C209 0.931 . S
H214 C210 0.930 . S
O215 Co204 2.039 . S
O215 C205 1.265 . S
C216 O212 1.253 . S
C216 O217 1.227 . S
O217 C216 1.227 . S
N218 Co204 2.140 . S
N218 C221 1.346 . S
N218 C222 1.345 . S
C219 C220 1.387 . S
C219 C223 1.391 . S
C220 C219 1.387 . S
C220 C221 1.369 . S
C220 H229 0.929 . S
C221 N218 1.346 . S
C221 C220 1.369 . S
C221 H224 0.928 . S
C222 N218 1.345 . S
C222 C223 1.371 . S
C222 H225 0.931 . S
C223 C219 1.391 . S
C223 C222 1.371 . S
C223 H230 0.930 . S
H224 C221 0.928 . S
H225 C222 0.931 . S
H226 C202 0.930 . S
H227 C199 0.930 . S
H228 C208 0.930 . S
H229 C220 0.929 . S
H230 C223 0.930 . S
C231 C232 1.351 1_565 S
C231 N234 1.368 . S
C231 H236 0.931 . S
C232 C231 1.351 1_545 S
C232 N233 1.373 . S
C232 H260 0.930 . S
N233 C232 1.373 . S
N233 C235 1.340 . S
N234 C231 1.368 . S
N234 C235 1.321 1_565 S
N234 Co237 2.135 . S
C235 N233 1.340 . S
C235 N234 1.321 1_545 S
C235 H259 0.930 . S
H236 C231 0.931 . S
Co237 N234 2.135 . S
Co237 N240 2.121 . S
Co237 O245 2.055 . S
Co237 O248 2.039 . S
Co237 N251 2.140 . S
C238 O239 1.255 . S
C238 O248 1.265 . S
O239 C238 1.255 . S
N240 Co237 2.121 . S
N240 C242 1.375 . S
N240 C243 1.313 . S
C241 C242 1.338 . S
C241 N244 1.377 . S
C241 H261 0.930 . S
C242 N240 1.375 . S
C242 C241 1.338 . S
C242 H246 0.931 . S
C243 N240 1.313 . S
C243 N244 1.344 . S
C243 H247 0.930 . S
N244 C241 1.377 . S
N244 C243 1.344 . S
O245 Co237 2.055 . S
O245 C249 1.253 . S
H246 C242 0.931 . S
H247 C243 0.930 . S
O248 Co237 2.039 . S
O248 C238 1.265 . S
C249 O245 1.253 . S
C249 O250 1.227 . S
O250 C249 1.227 . S
N251 Co237 2.140 . S
N251 C254 1.346 . S
N251 C255 1.345 . S
C252 C253 1.387 1_565 S
C252 C256 1.391 . S
C253 C252 1.387 1_545 S
C253 C254 1.369 1_545 S
C253 H262 0.929 . S
C254 N251 1.346 . S
C254 C253 1.369 1_565 S
C254 H257 0.928 1_565 S
C255 N251 1.345 . S
C255 C256 1.371 . S
C255 H258 0.931 . S
C256 C252 1.391 . S
C256 C255 1.371 . S
C256 H263 0.930 . S
H257 C254 0.928 1_545 S
H258 C255 0.931 . S
H259 C235 0.930 . S
H260 C232 0.930 . S
H261 C241 0.930 . S
H262 C253 0.929 . S
H263 C256 0.930 . S
C264 C265 1.351 1_455 S
C264 N267 1.368 . S
C264 H269 0.931 . S
C265 C264 1.351 1_655 S
C265 N266 1.373 . S
C265 H293 0.930 . S
N266 C265 1.373 . S
N266 C268 1.340 . S
N267 C264 1.368 . S
N267 C268 1.321 1_455 S
N267 Co270 2.135 . S
C268 N266 1.340 . S
C268 N267 1.321 1_655 S
C268 H292 0.930 . S
H269 C264 0.931 . S
Co270 N267 2.135 . S
Co270 N273 2.121 . S
Co270 O278 2.055 . S
Co270 O281 2.039 . S
Co270 N284 2.140 . S
C271 O272 1.239 . S
C271 O281 1.265 . S
O272 C271 1.239 . S
N273 Co270 2.121 . S
N273 C275 1.375 . S
N273 C276 1.313 . S
C274 C275 1.338 . S
C274 N277 1.377 . S
C274 H294 0.930 . S
C275 N273 1.375 . S
C275 C274 1.338 . S
C275 H279 0.931 . S
C276 N273 1.313 . S
C276 N277 1.344 . S
C276 H280 0.930 . S
N277 C274 1.377 . S
N277 C276 1.344 . S
O278 Co270 2.055 . S
O278 C282 1.253 . S
H279 C275 0.931 . S
H280 C276 0.930 . S
O281 Co270 2.039 . S
O281 C271 1.265 . S
C282 O278 1.253 . S
C282 O283 1.227 . S
O283 C282 1.227 . S
N284 Co270 2.140 . S
N284 C287 1.346 . S
N284 C288 1.345 . S
C285 C286 1.387 1_455 S
C285 C289 1.391 . S
C286 C285 1.387 1_655 S
C286 C287 1.369 1_655 S
C286 H295 0.929 . S
C287 N284 1.346 . S
C287 C286 1.369 1_455 S
C287 H290 0.928 1_455 S
C288 N284 1.345 . S
C288 C289 1.371 . S
C288 H291 0.931 . S
C289 C285 1.391 . S
C289 C288 1.371 . S
C289 H296 0.930 . S
H290 C287 0.928 1_655 S
H291 C288 0.931 . S
H292 C268 0.930 . S
H293 C265 0.930 . S
H294 C274 0.930 . S
H295 C286 0.929 . S
H296 C289 0.930 . S
C297 C298 1.351 . S
C297 N300 1.368 . S
C297 H302 0.931 . S
C298 C297 1.351 . S
C298 N299 1.373 . S
C298 H326 0.930 . S
N299 C298 1.373 . S
N299 C301 1.340 . S
N300 C297 1.368 . S
N300 C301 1.321 . S
N300 Co303 2.135 . S
C301 N299 1.340 . S
C301 N300 1.321 . S
C301 H325 0.930 . S
H302 C297 0.931 . S
Co303 N300 2.135 . S
Co303 N306 2.121 . S
Co303 O311 2.055 . S
Co303 O314 2.039 . S
Co303 N317 2.140 . S
C304 O305 1.227 . S
C304 O314 1.265 . S
O305 C304 1.227 . S
N306 Co303 2.121 . S
N306 C308 1.375 . S
N306 C309 1.313 . S
C307 C308 1.338 . S
C307 N310 1.377 . S
C307 H327 0.930 . S
C308 N306 1.375 . S
C308 C307 1.338 . S
C308 H312 0.931 . S
C309 N306 1.313 . S
C309 N310 1.344 . S
C309 H313 0.930 . S
N310 C307 1.377 . S
N310 C309 1.344 . S
O311 Co303 2.055 . S
O311 C315 1.253 . S
H312 C308 0.931 . S
H313 C309 0.930 . S
O314 Co303 2.039 . S
O314 C304 1.265 . S
C315 O311 1.253 . S
C315 O316 1.227 . S
O316 C315 1.227 . S
N317 Co303 2.140 . S
N317 C320 1.346 . S
N317 C321 1.345 . S
C318 C319 1.387 . S
C318 C322 1.391 . S
C319 C318 1.387 . S
C319 C320 1.369 . S
C319 H328 0.929 . S
C320 N317 1.346 . S
C320 C319 1.369 . S
C320 H323 0.928 . S
C321 N317 1.345 . S
C321 C322 1.371 . S
C321 H324 0.931 . S
C322 C318 1.391 . S
C322 C321 1.371 . S
C322 H329 0.930 . S
H323 C320 0.928 . S
H324 C321 0.931 . S
H325 C301 0.930 . S
H326 C298 0.930 . S
H327 C307 0.930 . S
H328 C319 0.929 . S
H329 C322 0.930 . S
C330 C331 1.351 1_545 S
C330 N333 1.368 . S
C330 H335 0.931 . S
C331 C330 1.351 1_565 S
C331 N332 1.373 . S
C331 H359 0.930 . S
N332 C331 1.373 . S
N332 C334 1.340 . S
N333 C330 1.368 . S
N333 C334 1.321 1_545 S
N333 Co336 2.135 . S
C334 N332 1.340 . S
C334 N333 1.321 1_565 S
C334 H358 0.930 . S
H335 C330 0.931 . S
Co336 N333 2.135 . S
Co336 N339 2.121 . S
Co336 O344 2.055 . S
Co336 O347 2.039 . S
Co336 N350 2.140 . S
C337 O338 1.239 . S
C337 O347 1.265 . S
O338 C337 1.239 . S
N339 Co336 2.121 . S
N339 C341 1.375 . S
N339 C342 1.313 . S
C340 C341 1.338 . S
C340 N343 1.377 . S
C340 H360 0.930 . S
C341 N339 1.375 . S
C341 C340 1.338 . S
C341 H345 0.931 . S
C342 N339 1.313 . S
C342 N343 1.344 . S
C342 H346 0.930 . S
N343 C340 1.377 . S
N343 C342 1.344 . S
O344 Co336 2.055 . S
O344 C348 1.253 . S
H345 C341 0.931 . S
H346 C342 0.930 . S
O347 Co336 2.039 . S
O347 C337 1.265 . S
C348 O344 1.253 . S
C348 O349 1.227 . S
O349 C348 1.227 . S
N350 Co336 2.140 . S
N350 C353 1.346 . S
N350 C354 1.345 . S
C351 C352 1.387 1_545 S
C351 C355 1.391 . S
C352 C351 1.387 1_565 S
C352 C353 1.369 1_565 S
C352 H361 0.929 . S
C353 N350 1.346 . S
C353 C352 1.369 1_545 S
C353 H356 0.928 1_545 S
C354 N350 1.345 . S
C354 C355 1.371 . S
C354 H357 0.931 . S
C355 C351 1.391 . S
C355 C354 1.371 . S
C355 H362 0.930 . S
H356 C353 0.928 1_565 S
H357 C354 0.931 . S
H358 C334 0.930 . S
H359 C331 0.930 . S
H360 C340 0.930 . S
H361 C352 0.929 . S
H362 C355 0.930 . S
C363 C364 1.351 1_655 S
C363 N366 1.368 . S
C363 H368 0.931 . S
C364 C363 1.351 1_455 S
C364 N365 1.373 . S
C364 H392 0.930 . S
N365 C364 1.373 . S
N365 C367 1.340 . S
N366 C363 1.368 . S
N366 C367 1.321 1_655 S
N366 Co369 2.135 . S
C367 N365 1.340 . S
C367 N366 1.321 1_455 S
C367 H391 0.930 . S
H368 C363 0.931 . S
Co369 N366 2.135 . S
Co369 N372 2.121 . S
Co369 O377 2.055 . S
Co369 O380 2.039 . S
Co369 N383 2.140 . S
C370 O371 1.255 . S
C370 O380 1.265 . S
O371 C370 1.255 . S
N372 Co369 2.121 . S
N372 C374 1.375 . S
N372 C375 1.313 . S
C373 C374 1.338 . S
C373 N376 1.377 . S
C373 H393 0.930 . S
C374 N372 1.375 . S
C374 C373 1.338 . S
C374 H378 0.931 . S
C375 N372 1.313 . S
C375 N376 1.344 . S
C375 H379 0.930 . S
N376 C373 1.377 . S
N376 C375 1.344 . S
O377 Co369 2.055 . S
O377 C381 1.253 . S
H378 C374 0.931 . S
H379 C375 0.930 . S
O380 Co369 2.039 . S
O380 C370 1.265 . S
C381 O377 1.253 . S
C381 O382 1.227 . S
O382 C381 1.227 . S
N383 Co369 2.140 . S
N383 C386 1.346 . S
N383 C387 1.345 . S
C384 C385 1.387 1_655 S
C384 C388 1.391 . S
C385 C384 1.387 1_455 S
C385 C386 1.369 1_455 S
C385 H394 0.929 . S
C386 N383 1.346 . S
C386 C385 1.369 1_655 S
C386 H389 0.928 1_655 S
C387 N383 1.345 . S
C387 C388 1.371 . S
C387 H390 0.931 . S
C388 C384 1.391 . S
C388 C387 1.371 . S
C388 H395 0.930 . S
H389 C386 0.928 1_455 S
H390 C387 0.931 . S
H391 C367 0.930 . S
H392 C364 0.930 . S
H393 C373 0.930 . S
H394 C385 0.929 . S
H395 C388 0.930 . S
C396 C397 1.351 . S
C396 N399 1.368 . S
C396 H401 0.931 . S
C397 C396 1.351 . S
C397 N398 1.373 . S
C397 H425 0.930 . S
N398 C397 1.373 . S
N398 C400 1.340 . S
N399 C396 1.368 . S
N399 C400 1.321 . S
N399 Co402 2.135 . S
C400 N398 1.340 . S
C400 N399 1.321 . S
C400 H424 0.930 . S
H401 C396 0.931 . S
Co402 N399 2.135 . S
Co402 N405 2.121 . S
Co402 O410 2.055 . S
Co402 O413 2.039 . S
Co402 N416 2.140 . S
C403 O404 1.227 . S
C403 O413 1.265 . S
O404 C403 1.227 . S
N405 Co402 2.121 . S
N405 C407 1.375 . S
N405 C408 1.313 . S
C406 C407 1.338 . S
C406 N409 1.377 . S
C406 H426 0.930 . S
C407 N405 1.375 . S
C407 C406 1.338 . S
C407 H411 0.931 . S
C408 N405 1.313 . S
C408 N409 1.344 . S
C408 H412 0.930 . S
N409 C406 1.377 . S
N409 C408 1.344 . S
O410 Co402 2.055 . S
O410 C414 1.253 . S
H411 C407 0.931 . S
H412 C408 0.930 . S
O413 Co402 2.039 . S
O413 C403 1.265 . S
C414 O410 1.253 . S
C414 O415 1.227 . S
O415 C414 1.227 . S
N416 Co402 2.140 . S
N416 C419 1.346 . S
N416 C420 1.345 . S
C417 C418 1.387 . S
C417 C421 1.391 . S
C418 C417 1.387 . S
C418 C419 1.369 . S
C418 H427 0.929 . S
C419 N416 1.346 . S
C419 C418 1.369 . S
C419 H422 0.928 . S
C420 N416 1.345 . S
C420 C421 1.371 . S
C420 H423 0.931 . S
C421 C417 1.391 . S
C421 C420 1.371 . S
C421 H428 0.930 . S
H422 C419 0.928 . S
H423 C420 0.931 . S
H424 C400 0.930 . S
H425 C397 0.930 . S
H426 C406 0.930 . S
H427 C418 0.929 . S
H428 C421 0.930 . S
C429 C430 1.351 . S
C429 N432 1.368 . S
C429 H434 0.931 . S
C430 C429 1.351 . S
C430 N431 1.373 . S
C430 H458 0.930 . S
N431 C430 1.373 . S
N431 C433 1.340 . S
N432 C429 1.368 . S
N432 C433 1.321 . S
N432 Co435 2.135 . S
C433 N431 1.340 . S
C433 N432 1.321 . S
C433 H457 0.930 . S
H434 C429 0.931 . S
Co435 N432 2.135 . S
Co435 N438 2.121 . S
Co435 O443 2.055 . S
Co435 O446 2.039 . S
Co435 N449 2.140 . S
C436 O437 1.227 . S
C436 O446 1.265 . S
O437 C436 1.227 . S
N438 Co435 2.121 . S
N438 C440 1.375 . S
N438 C441 1.313 . S
C439 C440 1.338 . S
C439 N442 1.377 . S
C439 H459 0.930 . S
C440 N438 1.375 . S
C440 C439 1.338 . S
C440 H444 0.931 . S
C441 N438 1.313 . S
C441 N442 1.344 . S
C441 H445 0.930 . S
N442 C439 1.377 . S
N442 C441 1.344 . S
O443 Co435 2.055 . S
O443 C447 1.253 . S
H444 C440 0.931 . S
H445 C441 0.930 . S
O446 Co435 2.039 . S
O446 C436 1.265 . S
C447 O443 1.253 . S
C447 O448 1.227 . S
O448 C447 1.227 . S
N449 Co435 2.140 . S
N449 C452 1.346 . S
N449 C453 1.345 . S
C450 C451 1.387 . S
C450 C454 1.391 . S
C451 C450 1.387 . S
C451 C452 1.369 . S
C451 H460 0.929 . S
C452 N449 1.346 . S
C452 C451 1.369 . S
C452 H455 0.928 . S
C453 N449 1.345 . S
C453 C454 1.371 . S
C453 H456 0.931 . S
C454 C450 1.391 . S
C454 C453 1.371 . S
C454 H461 0.930 . S
H455 C452 0.928 . S
H456 C453 0.931 . S
H457 C433 0.930 . S
H458 C430 0.930 . S
H459 C439 0.930 . S
H460 C451 0.929 . S
H461 C454 0.930 . S
C462 C463 1.351 . S
C462 N465 1.368 . S
C462 H467 0.931 . S
C463 C462 1.351 . S
C463 N464 1.373 . S
C463 H491 0.930 . S
N464 C463 1.373 . S
N464 C466 1.340 . S
N465 C462 1.368 . S
N465 C466 1.321 . S
N465 Co468 2.135 . S
C466 N464 1.340 . S
C466 N465 1.321 . S
C466 H490 0.930 . S
H467 C462 0.931 . S
Co468 N465 2.135 . S
Co468 N471 2.121 . S
Co468 O476 2.055 . S
Co468 O479 2.039 . S
Co468 N482 2.140 . S
C469 O470 1.227 . S
C469 O479 1.265 . S
O470 C469 1.227 . S
N471 Co468 2.121 . S
N471 C473 1.375 . S
N471 C474 1.313 . S
C472 C473 1.338 . S
C472 N475 1.377 . S
C472 H492 0.930 . S
C473 N471 1.375 . S
C473 C472 1.338 . S
C473 H477 0.931 . S
C474 N471 1.313 . S
C474 N475 1.344 . S
C474 H478 0.930 . S
N475 C472 1.377 . S
N475 C474 1.344 . S
O476 Co468 2.055 . S
O476 C480 1.253 . S
H477 C473 0.931 . S
H478 C474 0.930 . S
O479 Co468 2.039 . S
O479 C469 1.265 . S
C480 O476 1.253 . S
C480 O481 1.227 . S
O481 C480 1.227 . S
N482 Co468 2.140 . S
N482 C485 1.346 . S
N482 C486 1.345 . S
C483 C484 1.387 . S
C483 C487 1.391 . S
C484 C483 1.387 . S
C484 C485 1.369 . S
C484 H493 0.929 . S
C485 N482 1.346 . S
C485 C484 1.369 . S
C485 H488 0.928 . S
C486 N482 1.345 . S
C486 C487 1.371 . S
C486 H489 0.931 . S
C487 C483 1.391 . S
C487 C486 1.371 . S
C487 H494 0.930 . S
H488 C485 0.928 . S
H489 C486 0.931 . S
H490 C466 0.930 . S
H491 C463 0.930 . S
H492 C472 0.930 . S
H493 C484 0.929 . S
H494 C487 0.930 . S
C495 C496 1.351 . S
C495 N498 1.368 . S
C495 H500 0.931 . S
C496 C495 1.351 . S
C496 N497 1.373 . S
C496 H524 0.930 . S
N497 C496 1.373 . S
N497 C499 1.340 . S
N498 C495 1.368 . S
N498 C499 1.321 . S
N498 Co501 2.135 . S
C499 N497 1.340 . S
C499 N498 1.321 . S
C499 H523 0.930 . S
H500 C495 0.931 . S
Co501 N498 2.135 . S
Co501 N504 2.121 . S
Co501 O509 2.055 . S
Co501 O512 2.039 . S
Co501 N515 2.140 . S
C502 O503 1.227 . S
C502 O512 1.265 . S
O503 C502 1.227 . S
N504 Co501 2.121 . S
N504 C506 1.375 . S
N504 C507 1.313 . S
C505 C506 1.338 . S
C505 N508 1.377 . S
C505 H525 0.930 . S
C506 N504 1.375 . S
C506 C505 1.338 . S
C506 H510 0.931 . S
C507 N504 1.313 . S
C507 N508 1.344 . S
C507 H511 0.930 . S
N508 C505 1.377 . S
N508 C507 1.344 . S
O509 Co501 2.055 . S
O509 C513 1.253 . S
H510 C506 0.931 . S
H511 C507 0.930 . S
O512 Co501 2.039 . S
O512 C502 1.265 . S
C513 O509 1.253 . S
C513 O514 1.227 . S
O514 C513 1.227 . S
N515 Co501 2.140 . S
N515 C518 1.346 . S
N515 C519 1.345 . S
C516 C517 1.387 . S
C516 C520 1.391 . S
C517 C516 1.387 . S
C517 C518 1.369 . S
C517 H526 0.929 . S
C518 N515 1.346 . S
C518 C517 1.369 . S
C518 H521 0.928 . S
C519 N515 1.345 . S
C519 C520 1.371 . S
C519 H522 0.931 . S
C520 C516 1.391 . S
C520 C519 1.371 . S
C520 H527 0.930 . S
H521 C518 0.928 . S
H522 C519 0.931 . S
H523 C499 0.930 . S
H524 C496 0.930 . S
H525 C505 0.930 . S
H526 C517 0.929 . S
H527 C520 0.930 . S
C528 C529 1.351 . S
C528 N531 1.368 . S
C528 H533 0.931 . S
C529 C528 1.351 . S
C529 N530 1.373 . S
C529 H557 0.930 . S
N530 C529 1.373 . S
N530 C532 1.340 . S
N531 C528 1.368 . S
N531 C532 1.321 . S
N531 Co534 2.135 . S
C532 N530 1.340 . S
C532 N531 1.321 . S
C532 H556 0.930 . S
H533 C528 0.931 . S
Co534 N531 2.135 . S
Co534 N537 2.121 . S
Co534 O542 2.055 . S
Co534 O545 2.039 . S
Co534 N548 2.140 . S
C535 O536 1.227 . S
C535 O545 1.265 . S
O536 C535 1.227 . S
N537 Co534 2.121 . S
N537 C539 1.375 . S
N537 C540 1.313 . S
C538 C539 1.338 . S
C538 N541 1.377 . S
C538 H558 0.930 . S
C539 N537 1.375 . S
C539 C538 1.338 . S
C539 H543 0.931 . S
C540 N537 1.313 . S
C540 N541 1.344 . S
C540 H544 0.930 . S
N541 C538 1.377 . S
N541 C540 1.344 . S
O542 Co534 2.055 . S
O542 C546 1.253 . S
H543 C539 0.931 . S
H544 C540 0.930 . S
O545 Co534 2.039 . S
O545 C535 1.265 . S
C546 O542 1.253 . S
C546 O547 1.227 . S
O547 C546 1.227 . S
N548 Co534 2.140 . S
N548 C551 1.346 . S
N548 C552 1.345 . S
C549 C550 1.387 . S
C549 C553 1.391 . S
C550 C549 1.387 . S
C550 C551 1.369 . S
C550 H559 0.929 . S
C551 N548 1.346 . S
C551 C550 1.369 . S
C551 H554 0.928 . S
C552 N548 1.345 . S
C552 C553 1.371 . S
C552 H555 0.931 . S
C553 C549 1.391 . S
C553 C552 1.371 . S
C553 H560 0.930 . S
H554 C551 0.928 . S
H555 C552 0.931 . S
H556 C532 0.930 . S
H557 C529 0.930 . S
H558 C538 0.930 . S
H559 C550 0.929 . S
H560 C553 0.930 . S
C561 C562 1.351 . S
C561 N564 1.368 . S
C561 H566 0.931 . S
C562 C561 1.351 . S
C562 N563 1.373 . S
C562 H590 0.930 . S
N563 C562 1.373 . S
N563 C565 1.340 . S
N564 C561 1.368 . S
N564 C565 1.321 . S
N564 Co567 2.135 . S
C565 N563 1.340 . S
C565 N564 1.321 . S
C565 H589 0.930 . S
H566 C561 0.931 . S
Co567 N564 2.135 . S
Co567 N570 2.121 . S
Co567 O575 2.055 . S
Co567 O578 2.039 . S
Co567 N581 2.140 . S
C568 O569 1.227 . S
C568 O578 1.265 . S
O569 C568 1.227 . S
N570 Co567 2.121 . S
N570 C572 1.375 . S
N570 C573 1.313 . S
C571 C572 1.338 . S
C571 N574 1.377 . S
C571 H591 0.930 . S
C572 N570 1.375 . S
C572 C571 1.338 . S
C572 H576 0.931 . S
C573 N570 1.313 . S
C573 N574 1.344 . S
C573 H577 0.930 . S
N574 C571 1.377 . S
N574 C573 1.344 . S
O575 Co567 2.055 . S
O575 C579 1.253 . S
H576 C572 0.931 . S
H577 C573 0.930 . S
O578 Co567 2.039 . S
O578 C568 1.265 . S
C579 O575 1.253 . S
C579 O580 1.227 . S
O580 C579 1.227 . S
N581 Co567 2.140 . S
N581 C584 1.346 . S
N581 C585 1.345 . S
C582 C583 1.387 . S
C582 C586 1.391 . S
C583 C582 1.387 . S
C583 C584 1.369 . S
C583 H592 0.929 . S
C584 N581 1.346 . S
C584 C583 1.369 . S
C584 H587 0.928 . S
C585 N581 1.345 . S
C585 C586 1.371 . S
C585 H588 0.931 . S
C586 C582 1.391 . S
C586 C585 1.371 . S
C586 H593 0.930 . S
H587 C584 0.928 . S
H588 C585 0.931 . S
H589 C565 0.930 . S
H590 C562 0.930 . S
H591 C571 0.930 . S
H592 C583 0.929 . S
H593 C586 0.930 . S
C594 C595 1.351 . S
C594 N597 1.368 . S
C594 H599 0.931 . S
C595 C594 1.351 . S
C595 N596 1.373 . S
C595 H623 0.930 . S
N596 C595 1.373 . S
N596 C598 1.340 . S
N597 C594 1.368 . S
N597 C598 1.321 . S
N597 Co600 2.135 . S
C598 N596 1.340 . S
C598 N597 1.321 . S
C598 H622 0.930 . S
H599 C594 0.931 . S
Co600 N597 2.135 . S
Co600 N603 2.121 . S
Co600 O608 2.055 . S
Co600 O611 2.039 . S
Co600 N614 2.140 . S
C601 O602 1.227 . S
C601 O611 1.265 . S
O602 C601 1.227 . S
N603 Co600 2.121 . S
N603 C605 1.375 . S
N603 C606 1.313 . S
C604 C605 1.338 . S
C604 N607 1.377 . S
C604 H624 0.930 . S
C605 N603 1.375 . S
C605 C604 1.338 . S
C605 H609 0.931 . S
C606 N603 1.313 . S
C606 N607 1.344 . S
C606 H610 0.930 . S
N607 C604 1.377 . S
N607 C606 1.344 . S
O608 Co600 2.055 . S
O608 C612 1.253 . S
H609 C605 0.931 . S
H610 C606 0.930 . S
O611 Co600 2.039 . S
O611 C601 1.265 . S
C612 O608 1.253 . S
C612 O613 1.227 . S
O613 C612 1.227 . S
N614 Co600 2.140 . S
N614 C617 1.346 . S
N614 C618 1.345 . S
C615 C616 1.387 . S
C615 C619 1.391 . S
C616 C615 1.387 . S
C616 C617 1.369 . S
C616 H625 0.929 . S
C617 N614 1.346 . S
C617 C616 1.369 . S
C617 H620 0.928 . S
C618 N614 1.345 . S
C618 C619 1.371 . S
C618 H621 0.931 . S
C619 C615 1.391 . S
C619 C618 1.371 . S
C619 H626 0.930 . S
H620 C617 0.928 . S
H621 C618 0.931 . S
H622 C598 0.930 . S
H623 C595 0.930 . S
H624 C604 0.930 . S
H625 C616 0.929 . S
H626 C619 0.930 . S
C627 C628 1.351 . S
C627 N630 1.368 . S
C627 H632 0.931 . S
C628 C627 1.351 . S
C628 N629 1.373 . S
C628 H656 0.930 . S
N629 C628 1.373 . S
N629 C631 1.340 . S
N630 C627 1.368 . S
N630 C631 1.321 . S
N630 Co633 2.135 . S
C631 N629 1.340 . S
C631 N630 1.321 . S
C631 H655 0.930 . S
H632 C627 0.931 . S
Co633 N630 2.135 . S
Co633 N636 2.121 . S
Co633 O641 2.055 . S
Co633 O644 2.039 . S
Co633 N647 2.140 . S
C634 O635 1.227 . S
C634 O644 1.265 . S
O635 C634 1.227 . S
N636 Co633 2.121 . S
N636 C638 1.375 . S
N636 C639 1.313 . S
C637 C638 1.338 . S
C637 N640 1.377 . S
C637 H657 0.930 . S
C638 N636 1.375 . S
C638 C637 1.338 . S
C638 H642 0.931 . S
C639 N636 1.313 . S
C639 N640 1.344 . S
C639 H643 0.930 . S
N640 C637 1.377 . S
N640 C639 1.344 . S
O641 Co633 2.055 . S
O641 C645 1.253 . S
H642 C638 0.931 . S
H643 C639 0.930 . S
O644 Co633 2.039 . S
O644 C634 1.265 . S
C645 O641 1.253 . S
C645 O646 1.227 . S
O646 C645 1.227 . S
N647 Co633 2.140 . S
N647 C650 1.346 . S
N647 C651 1.345 . S
C648 C649 1.387 . S
C648 C652 1.391 . S
C649 C648 1.387 . S
C649 C650 1.369 . S
C649 H658 0.929 . S
C650 N647 1.346 . S
C650 C649 1.369 . S
C650 H653 0.928 . S
C651 N647 1.345 . S
C651 C652 1.371 . S
C651 H654 0.931 . S
C652 C648 1.391 . S
C652 C651 1.371 . S
C652 H659 0.930 . S
H653 C650 0.928 . S
H654 C651 0.931 . S
H655 C631 0.930 . S
H656 C628 0.930 . S
H657 C637 0.930 . S
H658 C649 0.929 . S
H659 C652 0.930 . S
C660 C661 1.351 . S
C660 N663 1.368 . S
C660 H665 0.931 . S
C661 C660 1.351 . S
C661 N662 1.373 . S
C661 H689 0.930 . S
N662 C661 1.373 . S
N662 C664 1.340 . S
N663 C660 1.368 . S
N663 C664 1.321 . S
N663 Co666 2.135 . S
C664 N662 1.340 . S
C664 N663 1.321 . S
C664 H688 0.930 . S
H665 C660 0.931 . S
Co666 N663 2.135 . S
Co666 N669 2.121 . S
Co666 O674 2.055 . S
Co666 O677 2.039 . S
Co666 N680 2.140 . S
C667 O668 1.227 . S
C667 O677 1.265 . S
O668 C667 1.227 . S
N669 Co666 2.121 . S
N669 C671 1.375 . S
N669 C672 1.313 . S
C670 C671 1.338 . S
C670 N673 1.377 . S
C670 H690 0.930 . S
C671 N669 1.375 . S
C671 C670 1.338 . S
C671 H675 0.931 . S
C672 N669 1.313 . S
C672 N673 1.344 . S
C672 H676 0.930 . S
N673 C670 1.377 . S
N673 C672 1.344 . S
O674 Co666 2.055 . S
O674 C678 1.253 . S
H675 C671 0.931 . S
H676 C672 0.930 . S
O677 Co666 2.039 . S
O677 C667 1.265 . S
C678 O674 1.253 . S
C678 O679 1.227 . S
O679 C678 1.227 . S
N680 Co666 2.140 . S
N680 C683 1.346 . S
N680 C684 1.345 . S
C681 C682 1.387 . S
C681 C685 1.391 . S
C682 C681 1.387 . S
C682 C683 1.369 . S
C682 H691 0.929 . S
C683 N680 1.346 . S
C683 C682 1.369 . S
C683 H686 0.928 . S
C684 N680 1.345 . S
C684 C685 1.371 . S
C684 H687 0.931 . S
C685 C681 1.391 . S
C685 C684 1.371 . S
C685 H692 0.930 . S
H686 C683 0.928 . S
H687 C684 0.931 . S
H688 C664 0.930 . S
H689 C661 0.930 . S
H690 C670 0.930 . S
H691 C682 0.929 . S
H692 C685 0.930 . S
C693 C694 1.351 . S
C693 N696 1.368 . S
C693 H698 0.931 . S
C694 C693 1.351 . S
C694 N695 1.373 . S
C694 H722 0.930 . S
N695 C694 1.373 . S
N695 C697 1.340 . S
N696 C693 1.368 . S
N696 C697 1.321 . S
N696 Co699 2.135 . S
C697 N695 1.340 . S
C697 N696 1.321 . S
C697 H721 0.930 . S
H698 C693 0.931 . S
Co699 N696 2.135 . S
Co699 N702 2.121 . S
Co699 O707 2.055 . S
Co699 O710 2.039 . S
Co699 N713 2.140 . S
C700 O701 1.227 . S
C700 O710 1.265 . S
O701 C700 1.227 . S
N702 Co699 2.121 . S
N702 C704 1.375 . S
N702 C705 1.313 . S
C703 C704 1.338 . S
C703 N706 1.377 . S
C703 H723 0.930 . S
C704 N702 1.375 . S
C704 C703 1.338 . S
C704 H708 0.931 . S
C705 N702 1.313 . S
C705 N706 1.344 . S
C705 H709 0.930 . S
N706 C703 1.377 . S
N706 C705 1.344 . S
O707 Co699 2.055 . S
O707 C711 1.253 . S
H708 C704 0.931 . S
H709 C705 0.930 . S
O710 Co699 2.039 . S
O710 C700 1.265 . S
C711 O707 1.253 . S
C711 O712 1.227 . S
O712 C711 1.227 . S
N713 Co699 2.140 . S
N713 C716 1.346 . S
N713 C717 1.345 . S
C714 C715 1.387 1_554 S
C714 C718 1.391 . S
C715 C714 1.387 1_556 S
C715 C716 1.369 . S
C715 H724 0.929 . S
C716 N713 1.346 . S
C716 C715 1.369 . S
C716 H719 0.928 . S
C717 N713 1.345 . S
C717 C718 1.371 1_556 S
C717 H720 0.931 . S
C718 C714 1.391 . S
C718 C717 1.371 1_554 S
C718 H725 0.930 . S
H719 C716 0.928 . S
H720 C717 0.931 . S
H721 C697 0.930 . S
H722 C694 0.930 . S
H723 C703 0.930 . S
H724 C715 0.929 . S
H725 C718 0.930 . S
C726 C727 1.351 . S
C726 N729 1.368 . S
C726 H731 0.931 . S
C727 C726 1.351 . S
C727 N728 1.373 . S
C727 H755 0.930 . S
N728 C727 1.373 . S
N728 C730 1.340 . S
N729 C726 1.368 . S
N729 C730 1.321 . S
N729 Co732 2.135 . S
C730 N728 1.340 . S
C730 N729 1.321 . S
C730 H754 0.930 . S
H731 C726 0.931 . S
Co732 N729 2.135 . S
Co732 N735 2.121 . S
Co732 O740 2.055 . S
Co732 O743 2.039 . S
Co732 N746 2.140 . S
C733 O734 1.227 . S
C733 O743 1.265 . S
O734 C733 1.227 . S
N735 Co732 2.121 . S
N735 C737 1.375 . S
N735 C738 1.313 . S
C736 C737 1.338 . S
C736 N739 1.377 . S
C736 H756 0.930 . S
C737 N735 1.375 . S
C737 C736 1.338 . S
C737 H741 0.931 . S
C738 N735 1.313 . S
C738 N739 1.344 . S
C738 H742 0.930 . S
N739 C736 1.377 . S
N739 C738 1.344 . S
O740 Co732 2.055 . S
O740 C744 1.253 . S
H741 C737 0.931 . S
H742 C738 0.930 . S
O743 Co732 2.039 . S
O743 C733 1.265 . S
C744 O740 1.253 . S
C744 O745 1.227 . S
O745 C744 1.227 . S
N746 Co732 2.140 . S
N746 C749 1.346 . S
N746 C750 1.345 . S
C747 C748 1.387 1_554 S
C747 C751 1.391 . S
C748 C747 1.387 1_556 S
C748 C749 1.369 . S
C748 H757 0.929 . S
C749 N746 1.346 . S
C749 C748 1.369 . S
C749 H752 0.928 . S
C750 N746 1.345 . S
C750 C751 1.371 1_556 S
C750 H753 0.931 . S
C751 C747 1.391 . S
C751 C750 1.371 1_554 S
C751 H758 0.930 . S
H752 C749 0.928 . S
H753 C750 0.931 . S
H754 C730 0.930 . S
H755 C727 0.930 . S
H756 C736 0.930 . S
H757 C748 0.929 . S
H758 C751 0.930 . S
C759 C760 1.351 . S
C759 N762 1.368 . S
C759 H764 0.931 . S
C760 C759 1.351 . S
C760 N761 1.373 . S
C760 H788 0.930 . S
N761 C760 1.373 . S
N761 C763 1.340 . S
N762 C759 1.368 . S
N762 C763 1.321 . S
N762 Co765 2.135 . S
C763 N761 1.340 . S
C763 N762 1.321 . S
C763 H787 0.930 . S
H764 C759 0.931 . S
Co765 N762 2.135 . S
Co765 N768 2.121 . S
Co765 O773 2.055 . S
Co765 O776 2.039 . S
Co765 N779 2.140 . S
C766 O767 1.227 . S
C766 O776 1.265 . S
O767 C766 1.227 . S
N768 Co765 2.121 . S
N768 C770 1.375 . S
N768 C771 1.313 . S
C769 C770 1.338 . S
C769 N772 1.377 . S
C769 H789 0.930 . S
C770 N768 1.375 . S
C770 C769 1.338 . S
C770 H774 0.931 . S
C771 N768 1.313 . S
C771 N772 1.344 . S
C771 H775 0.930 . S
N772 C769 1.377 . S
N772 C771 1.344 . S
O773 Co765 2.055 . S
O773 C777 1.253 . S
H774 C770 0.931 . S
H775 C771 0.930 . S
O776 Co765 2.039 . S
O776 C766 1.265 . S
C777 O773 1.253 . S
C777 O778 1.227 . S
O778 C777 1.227 . S
N779 Co765 2.140 . S
N779 C782 1.346 . S
N779 C783 1.345 . S
C780 C781 1.387 1_554 S
C780 C784 1.391 . S
C781 C780 1.387 1_556 S
C781 C782 1.369 . S
C781 H790 0.929 . S
C782 N779 1.346 . S
C782 C781 1.369 . S
C782 H785 0.928 . S
C783 N779 1.345 . S
C783 C784 1.371 1_556 S
C783 H786 0.931 . S
C784 C780 1.391 . S
C784 C783 1.371 1_554 S
C784 H791 0.930 . S
H785 C782 0.928 . S
H786 C783 0.931 . S
H787 C763 0.930 . S
H788 C760 0.930 . S
H789 C769 0.930 . S
H790 C781 0.929 . S
H791 C784 0.930 . S
C792 C793 1.351 . S
C792 N795 1.368 . S
C792 H797 0.931 . S
C793 C792 1.351 . S
C793 N794 1.373 . S
C793 H821 0.930 . S
N794 C793 1.373 . S
N794 C796 1.340 . S
N795 C792 1.368 . S
N795 C796 1.321 . S
N795 Co798 2.135 . S
C796 N794 1.340 . S
C796 N795 1.321 . S
C796 H820 0.930 . S
H797 C792 0.931 . S
Co798 N795 2.135 . S
Co798 N801 2.121 . S
Co798 O806 2.055 . S
Co798 O809 2.039 . S
Co798 N812 2.140 . S
C799 O800 1.227 . S
C799 O809 1.265 . S
O800 C799 1.227 . S
N801 Co798 2.121 . S
N801 C803 1.375 . S
N801 C804 1.313 . S
C802 C803 1.338 . S
C802 N805 1.377 . S
C802 H822 0.930 . S
C803 N801 1.375 . S
C803 C802 1.338 . S
C803 H807 0.931 . S
C804 N801 1.313 . S
C804 N805 1.344 . S
C804 H808 0.930 . S
N805 C802 1.377 . S
N805 C804 1.344 . S
O806 Co798 2.055 . S
O806 C810 1.253 . S
H807 C803 0.931 . S
H808 C804 0.930 . S
O809 Co798 2.039 . S
O809 C799 1.265 . S
C810 O806 1.253 . S
C810 O811 1.227 . S
O811 C810 1.227 . S
N812 Co798 2.140 . S
N812 C815 1.346 . S
N812 C816 1.345 . S
C813 C814 1.387 . S
C813 C817 1.391 . S
C814 C813 1.387 . S
C814 C815 1.369 . S
C814 H823 0.929 . S
C815 N812 1.346 . S
C815 C814 1.369 . S
C815 H818 0.928 . S
C816 N812 1.345 . S
C816 C817 1.371 . S
C816 H819 0.931 . S
C817 C813 1.391 . S
C817 C816 1.371 . S
C817 H824 0.930 . S
H818 C815 0.928 . S
H819 C816 0.931 . S
H820 C796 0.930 . S
H821 C793 0.930 . S
H822 C802 0.930 . S
H823 C814 0.929 . S
H824 C817 0.930 . S
C825 C826 1.351 . S
C825 N828 1.368 . S
C825 H830 0.931 . S
C826 C825 1.351 . S
C826 N827 1.373 . S
C826 H854 0.930 . S
N827 C826 1.373 . S
N827 C829 1.340 . S
N828 C825 1.368 . S
N828 C829 1.321 . S
N828 Co831 2.135 . S
C829 N827 1.340 . S
C829 N828 1.321 . S
C829 H853 0.930 . S
H830 C825 0.931 . S
Co831 N828 2.135 . S
Co831 N834 2.121 . S
Co831 O839 2.055 . S
Co831 O842 2.039 . S
Co831 N845 2.140 . S
C832 O833 1.227 . S
C832 O842 1.265 . S
O833 C832 1.227 . S
N834 Co831 2.121 . S
N834 C836 1.375 . S
N834 C837 1.313 . S
C835 C836 1.338 . S
C835 N838 1.377 . S
C835 H855 0.930 . S
C836 N834 1.375 . S
C836 C835 1.338 . S
C836 H840 0.931 . S
C837 N834 1.313 . S
C837 N838 1.344 . S
C837 H841 0.930 . S
N838 C835 1.377 . S
N838 C837 1.344 . S
O839 Co831 2.055 . S
O839 C843 1.253 . S
H840 C836 0.931 . S
H841 C837 0.930 . S
O842 Co831 2.039 . S
O842 C832 1.265 . S
C843 O839 1.253 . S
C843 O844 1.227 . S
O844 C843 1.227 . S
N845 Co831 2.140 . S
N845 C848 1.346 . S
N845 C849 1.345 . S
C846 C847 1.387 . S
C846 C850 1.391 . S
C847 C846 1.387 . S
C847 C848 1.369 . S
C847 H856 0.929 . S
C848 N845 1.346 . S
C848 C847 1.369 . S
C848 H851 0.928 . S
C849 N845 1.345 . S
C849 C850 1.371 . S
C849 H852 0.931 . S
C850 C846 1.391 . S
C850 C849 1.371 . S
C850 H857 0.930 . S
H851 C848 0.928 . S
H852 C849 0.931 . S
H853 C829 0.930 . S
H854 C826 0.930 . S
H855 C835 0.930 . S
H856 C847 0.929 . S
H857 C850 0.930 . S
C858 C859 1.351 . S
C858 N861 1.368 . S
C858 H863 0.931 . S
C859 C858 1.351 . S
C859 N860 1.373 . S
C859 H887 0.930 . S
N860 C859 1.373 . S
N860 C862 1.340 . S
N861 C858 1.368 . S
N861 C862 1.321 . S
N861 Co864 2.135 . S
C862 N860 1.340 . S
C862 N861 1.321 . S
C862 H886 0.930 . S
H863 C858 0.931 . S
Co864 N861 2.135 . S
Co864 N867 2.121 . S
Co864 O872 2.055 . S
Co864 O875 2.039 . S
Co864 N878 2.140 . S
C865 O866 1.227 . S
C865 O875 1.265 . S
O866 C865 1.227 . S
N867 Co864 2.121 . S
N867 C869 1.375 . S
N867 C870 1.313 . S
C868 C869 1.338 . S
C868 N871 1.377 . S
C868 H888 0.930 . S
C869 N867 1.375 . S
C869 C868 1.338 . S
C869 H873 0.931 . S
C870 N867 1.313 . S
C870 N871 1.344 . S
C870 H874 0.930 . S
N871 C868 1.377 . S
N871 C870 1.344 . S
O872 Co864 2.055 . S
O872 C876 1.253 . S
H873 C869 0.931 . S
H874 C870 0.930 . S
O875 Co864 2.039 . S
O875 C865 1.265 . S
C876 O872 1.253 . S
C876 O877 1.227 . S
O877 C876 1.227 . S
N878 Co864 2.140 . S
N878 C881 1.346 . S
N878 C882 1.345 . S
C879 C880 1.387 . S
C879 C883 1.391 . S
C880 C879 1.387 . S
C880 C881 1.369 . S
C880 H889 0.929 . S
C881 N878 1.346 . S
C881 C880 1.369 . S
C881 H884 0.928 . S
C882 N878 1.345 . S
C882 C883 1.371 . S
C882 H885 0.931 . S
C883 C879 1.391 . S
C883 C882 1.371 . S
C883 H890 0.930 . S
H884 C881 0.928 . S
H885 C882 0.931 . S
H886 C862 0.930 . S
H887 C859 0.930 . S
H888 C868 0.930 . S
H889 C880 0.929 . S
H890 C883 0.930 . S
C891 C892 1.351 . S
C891 N894 1.368 . S
C891 H896 0.931 . S
C892 C891 1.351 . S
C892 N893 1.373 . S
C892 H920 0.930 . S
N893 C892 1.373 . S
N893 C895 1.340 . S
N894 C891 1.368 . S
N894 C895 1.321 . S
N894 Co897 2.135 . S
C895 N893 1.340 . S
C895 N894 1.321 . S
C895 H919 0.930 . S
H896 C891 0.931 . S
Co897 N894 2.135 . S
Co897 N900 2.121 . S
Co897 O905 2.055 . S
Co897 O908 2.039 . S
Co897 N911 2.140 . S
C898 O899 1.227 . S
C898 O908 1.265 . S
O899 C898 1.227 . S
N900 Co897 2.121 . S
N900 C902 1.375 . S
N900 C903 1.313 . S
C901 C902 1.338 . S
C901 N904 1.377 . S
C901 H921 0.930 . S
C902 N900 1.375 . S
C902 C901 1.338 . S
C902 H906 0.931 . S
C903 N900 1.313 . S
C903 N904 1.344 . S
C903 H907 0.930 . S
N904 C901 1.377 . S
N904 C903 1.344 . S
O905 Co897 2.055 . S
O905 C909 1.253 . S
H906 C902 0.931 . S
H907 C903 0.930 . S
O908 Co897 2.039 . S
O908 C898 1.265 . S
C909 O905 1.253 . S
C909 O910 1.227 . S
O910 C909 1.227 . S
N911 Co897 2.140 . S
N911 C914 1.346 . S
N911 C915 1.345 . S
C912 C913 1.387 1_556 S
C912 C916 1.391 . S
C913 C912 1.387 1_554 S
C913 C914 1.369 . S
C913 H922 0.929 . S
C914 N911 1.346 . S
C914 C913 1.369 . S
C914 H917 0.928 . S
C915 N911 1.345 . S
C915 C916 1.371 1_554 S
C915 H918 0.931 . S
C916 C912 1.391 . S
C916 C915 1.371 1_556 S
C916 H923 0.930 . S
H917 C914 0.928 . S
H918 C915 0.931 . S
H919 C895 0.930 . S
H920 C892 0.930 . S
H921 C901 0.930 . S
H922 C913 0.929 . S
H923 C916 0.930 . S
C924 C925 1.351 . S
C924 N927 1.368 . S
C924 H929 0.931 . S
C925 C924 1.351 . S
C925 N926 1.373 . S
C925 H953 0.930 . S
N926 C925 1.373 . S
N926 C928 1.340 . S
N927 C924 1.368 . S
N927 C928 1.321 . S
N927 Co930 2.135 . S
C928 N926 1.340 . S
C928 N927 1.321 . S
C928 H952 0.930 . S
H929 C924 0.931 . S
Co930 N927 2.135 . S
Co930 N933 2.121 . S
Co930 O938 2.055 . S
Co930 O941 2.039 . S
Co930 N944 2.140 . S
C931 O932 1.227 . S
C931 O941 1.265 . S
O932 C931 1.227 . S
N933 Co930 2.121 . S
N933 C935 1.375 . S
N933 C936 1.313 . S
C934 C935 1.338 . S
C934 N937 1.377 . S
C934 H954 0.930 . S
C935 N933 1.375 . S
C935 C934 1.338 . S
C935 H939 0.931 . S
C936 N933 1.313 . S
C936 N937 1.344 . S
C936 H940 0.930 . S
N937 C934 1.377 . S
N937 C936 1.344 . S
O938 Co930 2.055 . S
O938 C942 1.253 . S
H939 C935 0.931 . S
H940 C936 0.930 . S
O941 Co930 2.039 . S
O941 C931 1.265 . S
C942 O938 1.253 . S
C942 O943 1.227 . S
O943 C942 1.227 . S
N944 Co930 2.140 . S
N944 C947 1.346 . S
N944 C948 1.345 . S
C945 C946 1.387 1_556 S
C945 C949 1.391 . S
C946 C945 1.387 1_554 S
C946 C947 1.369 . S
C946 H955 0.929 . S
C947 N944 1.346 . S
C947 C946 1.369 . S
C947 H950 0.928 . S
C948 N944 1.345 . S
C948 C949 1.371 1_554 S
C948 H951 0.931 . S
C949 C945 1.391 . S
C949 C948 1.371 1_556 S
C949 H956 0.930 . S
H950 C947 0.928 . S
H951 C948 0.931 . S
H952 C928 0.930 . S
H953 C925 0.930 . S
H954 C934 0.930 . S
H955 C946 0.929 . S
H956 C949 0.930 . S
C957 C958 1.351 . S
C957 N960 1.368 . S
C957 H962 0.931 . S
C958 C957 1.351 . S
C958 N959 1.373 . S
C958 H986 0.930 . S
N959 C958 1.373 . S
N959 C961 1.340 . S
N960 C957 1.368 . S
N960 C961 1.321 . S
N960 Co963 2.135 . S
C961 N959 1.340 . S
C961 N960 1.321 . S
C961 H985 0.930 . S
H962 C957 0.931 . S
Co963 N960 2.135 . S
Co963 N966 2.121 . S
Co963 O971 2.055 . S
Co963 O974 2.039 . S
Co963 N977 2.140 . S
C964 O965 1.227 . S
C964 O974 1.265 . S
O965 C964 1.227 . S
N966 Co963 2.121 . S
N966 C968 1.375 . S
N966 C969 1.313 . S
C967 C968 1.338 . S
C967 N970 1.377 . S
C967 H987 0.930 . S
C968 N966 1.375 . S
C968 C967 1.338 . S
C968 H972 0.931 . S
C969 N966 1.313 . S
C969 N970 1.344 . S
C969 H973 0.930 . S
N970 C967 1.377 . S
N970 C969 1.344 . S
O971 Co963 2.055 . S
O971 C975 1.253 . S
H972 C968 0.931 . S
H973 C969 0.930 . S
O974 Co963 2.039 . S
O974 C964 1.265 . S
C975 O971 1.253 . S
C975 O976 1.227 . S
O976 C975 1.227 . S
N977 Co963 2.140 . S
N977 C980 1.346 . S
N977 C981 1.345 . S
C978 C979 1.387 1_556 S
C978 C982 1.391 . S
C979 C978 1.387 1_554 S
C979 C980 1.369 . S
C979 H988 0.929 . S
C980 N977 1.346 . S
C980 C979 1.369 . S
C980 H983 0.928 . S
C981 N977 1.345 . S
C981 C982 1.371 1_554 S
C981 H984 0.931 . S
C982 C978 1.391 . S
C982 C981 1.371 1_556 S
C982 H989 0.930 . S
H983 C980 0.928 . S
H984 C981 0.931 . S
H985 C961 0.930 . S
H986 C958 0.930 . S
H987 C967 0.930 . S
H988 C979 0.929 . S
H989 C982 0.930 . S
C990 C991 1.351 . S
C990 N993 1.368 . S
C990 H995 0.931 . S
C991 C990 1.351 . S
C991 N992 1.373 . S
C991 H1019 0.930 . S
N992 C991 1.373 . S
N992 C994 1.340 . S
N993 C990 1.368 . S
N993 C994 1.321 . S
N993 Co996 2.135 . S
C994 N992 1.340 . S
C994 N993 1.321 . S
C994 H1018 0.930 . S
H995 C990 0.931 . S
Co996 N993 2.135 . S
Co996 N999 2.121 . S
Co996 O1004 2.055 . S
Co996 O1007 2.039 . S
Co996 N1010 2.140 . S
C997 O998 1.227 . S
C997 O1007 1.265 . S
O998 C997 1.227 . S
N999 Co996 2.121 . S
N999 C1001 1.375 . S
N999 C1002 1.313 . S
C1000 C1001 1.338 . S
C1000 N1003 1.377 . S
C1000 H1020 0.930 . S
C1001 N999 1.375 . S
C1001 C1000 1.338 . S
C1001 H1005 0.931 . S
C1002 N999 1.313 . S
C1002 N1003 1.344 . S
C1002 H1006 0.930 . S
N1003 C1000 1.377 . S
N1003 C1002 1.344 . S
O1004 Co996 2.055 . S
O1004 C1008 1.253 . S
H1005 C1001 0.931 . S
H1006 C1002 0.930 . S
O1007 Co996 2.039 . S
O1007 C997 1.265 . S
C1008 O1004 1.253 . S
C1008 O1009 1.227 . S
O1009 C1008 1.227 . S
N1010 Co996 2.140 . S
N1010 C1013 1.346 . S
N1010 C1014 1.345 . S
C1011 C1012 1.387 . S
C1011 C1015 1.391 . S
C1012 C1011 1.387 . S
C1012 C1013 1.369 . S
C1012 H1021 0.929 . S
C1013 N1010 1.346 . S
C1013 C1012 1.369 . S
C1013 H1016 0.928 . S
C1014 N1010 1.345 . S
C1014 C1015 1.371 . S
C1014 H1017 0.931 . S
C1015 C1011 1.391 . S
C1015 C1014 1.371 . S
C1015 H1022 0.930 . S
H1016 C1013 0.928 . S
H1017 C1014 0.931 . S
H1018 C994 0.930 . S
H1019 C991 0.930 . S
H1020 C1000 0.930 . S
H1021 C1012 0.929 . S
H1022 C1015 0.930 . S
C1023 C1024 1.351 . S
C1023 N1026 1.368 . S
C1023 H1028 0.931 . S
C1024 C1023 1.351 . S
C1024 N1025 1.373 . S
C1024 H1052 0.930 . S
N1025 C1024 1.373 . S
N1025 C1027 1.340 . S
N1026 C1023 1.368 . S
N1026 C1027 1.321 . S
N1026 Co1029 2.135 . S
C1027 N1025 1.340 . S
C1027 N1026 1.321 . S
C1027 H1051 0.930 . S
H1028 C1023 0.931 . S
Co1029 N1026 2.135 . S
Co1029 N1032 2.121 . S
Co1029 O1037 2.055 . S
Co1029 O1040 2.039 . S
Co1029 N1043 2.140 . S
C1030 O1031 1.227 . S
C1030 O1040 1.265 . S
O1031 C1030 1.227 . S
N1032 Co1029 2.121 . S
N1032 C1034 1.375 . S
N1032 C1035 1.313 . S
C1033 C1034 1.338 . S
C1033 N1036 1.377 . S
C1033 H1053 0.930 . S
C1034 N1032 1.375 . S
C1034 C1033 1.338 . S
C1034 H1038 0.931 . S
C1035 N1032 1.313 . S
C1035 N1036 1.344 . S
C1035 H1039 0.930 . S
N1036 C1033 1.377 . S
N1036 C1035 1.344 . S
O1037 Co1029 2.055 . S
O1037 C1041 1.253 . S
H1038 C1034 0.931 . S
H1039 C1035 0.930 . S
O1040 Co1029 2.039 . S
O1040 C1030 1.265 . S
C1041 O1037 1.253 . S
C1041 O1042 1.227 . S
O1042 C1041 1.227 . S
N1043 Co1029 2.140 . S
N1043 C1046 1.346 . S
N1043 C1047 1.345 . S
C1044 C1045 1.387 . S
C1044 C1048 1.391 . S
C1045 C1044 1.387 . S
C1045 C1046 1.369 . S
C1045 H1054 0.929 . S
C1046 N1043 1.346 . S
C1046 C1045 1.369 . S
C1046 H1049 0.928 . S
C1047 N1043 1.345 . S
C1047 C1048 1.371 . S
C1047 H1050 0.931 . S
C1048 C1044 1.391 . S
C1048 C1047 1.371 . S
C1048 H1055 0.930 . S
H1049 C1046 0.928 . S
H1050 C1047 0.931 . S
H1051 C1027 0.930 . S
H1052 C1024 0.930 . S
H1053 C1033 0.930 . S
H1054 C1045 0.929 . S
H1055 C1048 0.930 . S
C1056 C1057 1.351 . S
C1056 N1059 1.368 . S
C1056 H1061 0.931 . S
C1057 C1056 1.351 . S
C1057 N1058 1.373 . S
C1057 H1085 0.930 . S
N1058 C1057 1.373 . S
N1058 C1060 1.340 . S
N1059 C1056 1.368 . S
N1059 C1060 1.321 . S
N1059 Co1062 2.135 . S
C1060 N1058 1.340 . S
C1060 N1059 1.321 . S
C1060 H1084 0.930 . S
H1061 C1056 0.931 . S
Co1062 N1059 2.135 . S
Co1062 N1065 2.121 . S
Co1062 O1070 2.055 . S
Co1062 O1073 2.039 . S
Co1062 N1076 2.140 . S
C1063 O1064 1.227 . S
C1063 O1073 1.265 . S
O1064 C1063 1.227 . S
N1065 Co1062 2.121 . S
N1065 C1067 1.375 . S
N1065 C1068 1.313 . S
C1066 C1067 1.338 . S
C1066 N1069 1.377 . S
C1066 H1086 0.930 . S
C1067 N1065 1.375 . S
C1067 C1066 1.338 . S
C1067 H1071 0.931 . S
C1068 N1065 1.313 . S
C1068 N1069 1.344 . S
C1068 H1072 0.930 . S
N1069 C1066 1.377 . S
N1069 C1068 1.344 . S
O1070 Co1062 2.055 . S
O1070 C1074 1.253 . S
H1071 C1067 0.931 . S
H1072 C1068 0.930 . S
O1073 Co1062 2.039 . S
O1073 C1063 1.265 . S
C1074 O1070 1.253 . S
C1074 O1075 1.227 . S
O1075 C1074 1.227 . S
N1076 Co1062 2.140 . S
N1076 C1079 1.346 . S
N1076 C1080 1.345 . S
C1077 C1078 1.387 . S
C1077 C1081 1.391 . S
C1078 C1077 1.387 . S
C1078 C1079 1.369 . S
C1078 H1087 0.929 . S
C1079 N1076 1.346 . S
C1079 C1078 1.369 . S
C1079 H1082 0.928 . S
C1080 N1076 1.345 . S
C1080 C1081 1.371 . S
C1080 H1083 0.931 . S
C1081 C1077 1.391 . S
C1081 C1080 1.371 . S
C1081 H1088 0.930 . S
H1082 C1079 0.928 . S
H1083 C1080 0.931 . S
H1084 C1060 0.930 . S
H1085 C1057 0.930 . S
H1086 C1066 0.930 . S
H1087 C1078 0.929 . S
H1088 C1081 0.930 . S
C1089 C1090 1.351 . S
C1089 N1092 1.368 . S
C1089 H1094 0.931 . S
C1090 C1089 1.351 . S
C1090 N1091 1.373 . S
C1090 H1118 0.930 . S
N1091 C1090 1.373 . S
N1091 C1093 1.340 . S
N1092 C1089 1.368 . S
N1092 C1093 1.321 . S
N1092 Co1095 2.135 . S
C1093 N1091 1.340 . S
C1093 N1092 1.321 . S
C1093 H1117 0.930 . S
H1094 C1089 0.931 . S
Co1095 N1092 2.135 . S
Co1095 N1098 2.121 . S
Co1095 O1103 2.055 . S
Co1095 O1106 2.039 . S
Co1095 N1109 2.140 . S
C1096 O1097 1.227 . S
C1096 O1106 1.265 . S
O1097 C1096 1.227 . S
N1098 Co1095 2.121 . S
N1098 C1100 1.375 . S
N1098 C1101 1.313 . S
C1099 C1100 1.338 . S
C1099 N1102 1.377 . S
C1099 H1119 0.930 . S
C1100 N1098 1.375 . S
C1100 C1099 1.338 . S
C1100 H1104 0.931 . S
C1101 N1098 1.313 . S
C1101 N1102 1.344 . S
C1101 H1105 0.930 . S
N1102 C1099 1.377 . S
N1102 C1101 1.344 . S
O1103 Co1095 2.055 . S
O1103 C1107 1.253 . S
H1104 C1100 0.931 . S
H1105 C1101 0.930 . S
O1106 Co1095 2.039 . S
O1106 C1096 1.265 . S
C1107 O1103 1.253 . S
C1107 O1108 1.227 . S
O1108 C1107 1.227 . S
N1109 Co1095 2.140 . S
N1109 C1112 1.346 . S
N1109 C1113 1.345 . S
C1110 C1111 1.387 . S
C1110 C1114 1.391 . S
C1111 C1110 1.387 . S
C1111 C1112 1.369 . S
C1111 H1120 0.929 . S
C1112 N1109 1.346 . S
C1112 C1111 1.369 . S
C1112 H1115 0.928 . S
C1113 N1109 1.345 . S
C1113 C1114 1.371 . S
C1113 H1116 0.931 . S
C1114 C1110 1.391 . S
C1114 C1113 1.371 . S
C1114 H1121 0.930 . S
H1115 C1112 0.928 . S
H1116 C1113 0.931 . S
H1117 C1093 0.930 . S
H1118 C1090 0.930 . S
H1119 C1099 0.930 . S
H1120 C1111 0.929 . S
H1121 C1114 0.930 . S
C1122 C1123 1.351 . S
C1122 N1125 1.368 . S
C1122 H1127 0.931 . S
C1123 C1122 1.351 . S
C1123 N1124 1.373 . S
C1123 H1151 0.930 . S
N1124 C1123 1.373 . S
N1124 C1126 1.340 . S
N1125 C1122 1.368 . S
N1125 C1126 1.321 . S
N1125 Co1128 2.135 . S
C1126 N1124 1.340 . S
C1126 N1125 1.321 . S
C1126 H1150 0.930 . S
H1127 C1122 0.931 . S
Co1128 N1125 2.135 . S
Co1128 N1131 2.121 . S
Co1128 O1136 2.055 . S
Co1128 O1139 2.039 . S
Co1128 N1142 2.140 . S
C1129 O1130 1.227 . S
C1129 O1139 1.265 . S
O1130 C1129 1.227 . S
N1131 Co1128 2.121 . S
N1131 C1133 1.375 . S
N1131 C1134 1.313 . S
C1132 C1133 1.338 . S
C1132 N1135 1.377 . S
C1132 H1152 0.930 . S
C1133 N1131 1.375 . S
C1133 C1132 1.338 . S
C1133 H1137 0.931 . S
C1134 N1131 1.313 . S
C1134 N1135 1.344 . S
C1134 H1138 0.930 . S
N1135 C1132 1.377 . S
N1135 C1134 1.344 . S
O1136 Co1128 2.055 . S
O1136 C1140 1.253 . S
H1137 C1133 0.931 . S
H1138 C1134 0.930 . S
O1139 Co1128 2.039 . S
O1139 C1129 1.265 . S
C1140 O1136 1.253 . S
C1140 O1141 1.227 . S
O1141 C1140 1.227 . S
N1142 Co1128 2.140 . S
N1142 C1145 1.346 . S
N1142 C1146 1.345 . S
C1143 C1144 1.387 . S
C1143 C1147 1.391 . S
C1144 C1143 1.387 . S
C1144 C1145 1.369 . S
C1144 H1153 0.929 . S
C1145 N1142 1.346 . S
C1145 C1144 1.369 . S
C1145 H1148 0.928 . S
C1146 N1142 1.345 . S
C1146 C1147 1.371 . S
C1146 H1149 0.931 . S
C1147 C1143 1.391 . S
C1147 C1146 1.371 . S
C1147 H1154 0.930 . S
H1148 C1145 0.928 . S
H1149 C1146 0.931 . S
H1150 C1126 0.930 . S
H1151 C1123 0.930 . S
H1152 C1132 0.930 . S
H1153 C1144 0.929 . S
H1154 C1147 0.930 . S
C1155 C1156 1.351 . S
C1155 N1158 1.368 . S
C1155 H1160 0.931 . S
C1156 C1155 1.351 . S
C1156 N1157 1.373 . S
C1156 H1184 0.930 . S
N1157 C1156 1.373 . S
N1157 C1159 1.340 . S
N1158 C1155 1.368 . S
N1158 C1159 1.321 . S
N1158 Co1161 2.135 . S
C1159 N1157 1.340 . S
C1159 N1158 1.321 . S
C1159 H1183 0.930 . S
H1160 C1155 0.931 . S
Co1161 N1158 2.135 . S
Co1161 N1164 2.121 . S
Co1161 O1169 2.055 . S
Co1161 O1172 2.039 . S
Co1161 N1175 2.140 . S
C1162 O1163 1.227 . S
C1162 O1172 1.265 . S
O1163 C1162 1.227 . S
N1164 Co1161 2.121 . S
N1164 C1166 1.375 . S
N1164 C1167 1.313 . S
C1165 C1166 1.338 . S
C1165 N1168 1.377 . S
C1165 H1185 0.930 . S
C1166 N1164 1.375 . S
C1166 C1165 1.338 . S
C1166 H1170 0.931 . S
C1167 N1164 1.313 . S
C1167 N1168 1.344 . S
C1167 H1171 0.930 . S
N1168 C1165 1.377 . S
N1168 C1167 1.344 . S
O1169 Co1161 2.055 . S
O1169 C1173 1.253 . S
H1170 C1166 0.931 . S
H1171 C1167 0.930 . S
O1172 Co1161 2.039 . S
O1172 C1162 1.265 . S
C1173 O1169 1.253 . S
C1173 O1174 1.227 . S
O1174 C1173 1.227 . S
N1175 Co1161 2.140 . S
N1175 C1178 1.346 . S
N1175 C1179 1.345 . S
C1176 C1177 1.387 . S
C1176 C1180 1.391 . S
C1177 C1176 1.387 . S
C1177 C1178 1.369 . S
C1177 H1186 0.929 . S
C1178 N1175 1.346 . S
C1178 C1177 1.369 . S
C1178 H1181 0.928 . S
C1179 N1175 1.345 . S
C1179 C1180 1.371 . S
C1179 H1182 0.931 . S
C1180 C1176 1.391 . S
C1180 C1179 1.371 . S
C1180 H1187 0.930 . S
H1181 C1178 0.928 . S
H1182 C1179 0.931 . S
H1183 C1159 0.930 . S
H1184 C1156 0.930 . S
H1185 C1165 0.930 . S
H1186 C1177 0.929 . S
H1187 C1180 0.930 . S
H1188 C1200 0.930 . S
H1189 C1202 0.930 . S
H1190 C1203 0.930 . S
H1191 C1207 0.959 . S
H1192 C1207 0.959 . S
H1193 C1207 0.961 . S
H1194 C1208 0.960 . S
H1195 C1208 0.961 . S
H1196 C1208 0.959 . S
H1197 C1211 0.929 . S
H1198 C1212 0.931 . S
H1199 C1214 0.930 . S
C1200 H1188 0.930 . S
C1200 C1201 1.399 . S
C1200 C1205 1.399 . S
C1201 C1200 1.399 . S
C1201 C1202 1.376 . S
C1202 H1189 0.930 . S
C1202 C1201 1.376 . S
C1202 C1203 1.388 . S
C1203 H1190 0.930 . S
C1203 C1202 1.388 . S
C1203 C1204 1.390 . S
C1204 C1203 1.390 . S
C1204 C1205 1.394 . S
C1204 C1210 1.465 . S
C1205 C1200 1.399 . S
C1205 C1204 1.394 . S
C1205 C1206 1.516 . S
C1206 C1205 1.516 . S
C1206 C1207 1.502 . S
C1206 C1208 1.561 . S
C1206 C1209 1.526 . S
C1207 H1191 0.959 . S
C1207 H1192 0.959 . S
C1207 H1193 0.961 . S
C1207 C1206 1.502 . S
C1208 H1194 0.960 . S
C1208 H1195 0.961 . S
C1208 H1196 0.959 . S
C1208 C1206 1.561 . S
C1209 C1206 1.526 . S
C1209 C1210 1.396 . S
C1209 C1214 1.390 . S
C1210 C1204 1.465 . S
C1210 C1209 1.396 . S
C1210 C1211 1.399 . S
C1211 H1197 0.929 . S
C1211 C1210 1.399 . S
C1211 C1212 1.385 . S
C1212 H1198 0.931 . S
C1212 C1211 1.385 . S
C1212 C1213 1.389 . S
C1213 C1212 1.389 . S
C1213 C1214 1.387 . S
C1214 H1199 0.930 . S
C1214 C1209 1.390 . S
C1214 C1213 1.387 . S
H1215 C1227 0.930 . S
H1216 C1229 0.930 . S
H1217 C1230 0.930 . S
H1218 C1234 0.959 . S
H1219 C1234 0.959 . S
H1220 C1234 0.961 . S
H1221 C1235 0.960 . S
H1222 C1235 0.961 . S
H1223 C1235 0.959 . S
H1224 C1238 0.929 . S
H1225 C1239 0.931 . S
H1226 C1241 0.930 . S
C1227 H1215 0.930 . S
C1227 C1228 1.399 1_565 S
C1227 C1232 1.399 . S
C1228 C1227 1.399 1_545 S
C1228 C1229 1.376 . S
C1229 H1216 0.930 . S
C1229 C1228 1.376 . S
C1229 C1230 1.388 . S
C1230 H1217 0.930 . S
C1230 C1229 1.388 . S
C1230 C1231 1.390 . S
C1231 C1230 1.390 . S
C1231 C1232 1.394 1_545 S
C1231 C1237 1.465 . S
C1232 C1227 1.399 . S
C1232 C1231 1.394 1_565 S
C1232 C1233 1.516 . S
C1233 C1232 1.516 . S
C1233 C1234 1.502 . S
C1233 C1235 1.561 . S
C1233 C1236 1.526 . S
C1234 H1218 0.959 . S
C1234 H1219 0.959 . S
C1234 H1220 0.961 . S
C1234 C1233 1.502 . S
C1235 H1221 0.960 . S
C1235 H1222 0.961 . S
C1235 H1223 0.959 . S
C1235 C1233 1.561 . S
C1236 C1233 1.526 . S
C1236 C1237 1.396 1_565 S
C1236 C1241 1.390 . S
C1237 C1231 1.465 . S
C1237 C1236 1.396 1_545 S
C1237 C1238 1.399 . S
C1238 H1224 0.929 . S
C1238 C1237 1.399 . S
C1238 C1239 1.385 . S
C1239 H1225 0.931 . S
C1239 C1238 1.385 . S
C1239 C1240 1.389 1_545 S
C1240 C1239 1.389 1_565 S
C1240 C1241 1.387 . S
C1241 H1226 0.930 . S
C1241 C1236 1.390 . S
C1241 C1240 1.387 . S
H1242 C1254 0.930 . S
H1243 C1256 0.930 . S
H1244 C1257 0.930 . S
H1245 C1261 0.959 1_655 S
H1246 C1261 0.959 . S
H1247 C1261 0.961 . S
H1248 C1262 0.960 . S
H1249 C1262 0.961 . S
H1250 C1262 0.959 . S
H1251 C1265 0.929 . S
H1252 C1266 0.931 . S
H1253 C1268 0.930 . S
C1254 H1242 0.930 . S
C1254 C1255 1.399 . S
C1254 C1259 1.399 . S
C1255 C1254 1.399 . S
C1255 C1256 1.376 1_455 S
C1256 H1243 0.930 . S
C1256 C1255 1.376 1_655 S
C1256 C1257 1.388 . S
C1257 H1244 0.930 . S
C1257 C1256 1.388 . S
C1257 C1258 1.384 . S
C1258 C1257 1.384 . S
C1258 C1259 1.398 1_655 S
C1258 C1264 1.470 . S
C1259 C1254 1.399 . S
C1259 C1258 1.398 1_455 S
C1259 C1260 1.516 . S
C1260 C1259 1.516 . S
C1260 C1261 1.502 . S
C1260 C1262 1.561 . S
C1260 C1263 1.526 . S
C1261 H1245 0.959 1_455 S
C1261 H1246 0.959 . S
C1261 H1247 0.961 . S
C1261 C1260 1.502 . S
C1262 H1248 0.960 . S
C1262 H1249 0.961 . S
C1262 H1250 0.959 . S
C1262 C1260 1.561 . S
C1263 C1260 1.526 . S
C1263 C1264 1.396 1_455 S
C1263 C1268 1.390 . S
C1264 C1258 1.470 . S
C1264 C1263 1.396 1_655 S
C1264 C1265 1.399 . S
C1265 H1251 0.929 . S
C1265 C1264 1.399 . S
C1265 C1266 1.385 . S
C1266 H1252 0.931 . S
C1266 C1265 1.385 . S
C1266 C1267 1.389 . S
C1267 C1266 1.389 . S
C1267 C1268 1.387 1_655 S
C1268 H1253 0.930 . S
C1268 C1263 1.390 . S
C1268 C1267 1.387 1_455 S
H1269 C1281 0.930 . S
H1270 C1283 0.930 . S
H1271 C1284 0.930 . S
H1272 C1288 0.959 . S
H1273 C1288 0.959 . S
H1274 C1288 0.961 . S
H1275 C1289 0.960 . S
H1276 C1289 0.961 . S
H1277 C1289 0.959 . S
H1278 C1292 0.929 . S
H1279 C1293 0.931 . S
H1280 C1295 0.930 . S
C1281 H1269 0.930 . S
C1281 C1282 1.399 . S
C1281 C1286 1.399 . S
C1282 C1281 1.399 . S
C1282 C1283 1.376 . S
C1283 H1270 0.930 . S
C1283 C1282 1.376 . S
C1283 C1284 1.388 . S
C1284 H1271 0.930 . S
C1284 C1283 1.388 . S
C1284 C1285 1.390 . S
C1285 C1284 1.390 . S
C1285 C1286 1.394 . S
C1285 C1291 1.465 . S
C1286 C1281 1.399 . S
C1286 C1285 1.394 . S
C1286 C1287 1.516 . S
C1287 C1286 1.516 . S
C1287 C1288 1.502 . S
C1287 C1289 1.561 . S
C1287 C1290 1.526 . S
C1288 H1272 0.959 . S
C1288 H1273 0.959 . S
C1288 H1274 0.961 . S
C1288 C1287 1.502 . S
C1289 H1275 0.960 . S
C1289 H1276 0.961 . S
C1289 H1277 0.959 . S
C1289 C1287 1.561 . S
C1290 C1287 1.526 . S
C1290 C1291 1.396 . S
C1290 C1295 1.390 . S
C1291 C1285 1.465 . S
C1291 C1290 1.396 . S
C1291 C1292 1.399 . S
C1292 H1278 0.929 . S
C1292 C1291 1.399 . S
C1292 C1293 1.385 . S
C1293 H1279 0.931 . S
C1293 C1292 1.385 . S
C1293 C1294 1.389 . S
C1294 C1293 1.389 . S
C1294 C1295 1.387 . S
C1295 H1280 0.930 . S
C1295 C1290 1.390 . S
C1295 C1294 1.387 . S
H1296 C1308 0.930 . S
H1297 C1310 0.930 . S
H1298 C1311 0.930 . S
H1299 C1315 0.959 . S
H1300 C1315 0.959 . S
H1301 C1315 0.961 . S
H1302 C1316 0.960 . S
H1303 C1316 0.961 . S
H1304 C1316 0.959 . S
H1305 C1319 0.929 . S
H1306 C1320 0.931 . S
H1307 C1322 0.930 . S
C1308 H1296 0.930 . S
C1308 C1309 1.399 1_545 S
C1308 C1313 1.399 . S
C1309 C1308 1.399 1_565 S
C1309 C1310 1.376 . S
C1310 H1297 0.930 . S
C1310 C1309 1.376 . S
C1310 C1311 1.388 . S
C1311 H1298 0.930 . S
C1311 C1310 1.388 . S
C1311 C1312 1.390 . S
C1312 C1311 1.390 . S
C1312 C1313 1.394 1_565 S
C1312 C1318 1.465 . S
C1313 C1308 1.399 . S
C1313 C1312 1.394 1_545 S
C1313 C1314 1.516 . S
C1314 C1313 1.516 . S
C1314 C1315 1.502 . S
C1314 C1316 1.561 . S
C1314 C1317 1.526 . S
C1315 H1299 0.959 . S
C1315 H1300 0.959 . S
C1315 H1301 0.961 . S
C1315 C1314 1.502 . S
C1316 H1302 0.960 . S
C1316 H1303 0.961 . S
C1316 H1304 0.959 . S
C1316 C1314 1.561 . S
C1317 C1314 1.526 . S
C1317 C1318 1.396 1_545 S
C1317 C1322 1.390 . S
C1318 C1312 1.465 . S
C1318 C1317 1.396 1_565 S
C1318 C1319 1.399 . S
C1319 H1305 0.929 . S
C1319 C1318 1.399 . S
C1319 C1320 1.385 . S
C1320 H1306 0.931 . S
C1320 C1319 1.385 . S
C1320 C1321 1.389 1_565 S
C1321 C1320 1.389 1_545 S
C1321 C1322 1.387 . S
C1322 H1307 0.930 . S
C1322 C1317 1.390 . S
C1322 C1321 1.387 . S
H1323 C1335 0.930 . S
H1324 C1337 0.930 . S
H1325 C1338 0.930 . S
H1326 C1342 0.959 . S
H1327 C1342 0.959 . S
H1328 C1342 0.961 . S
H1329 C1343 0.960 . S
H1330 C1343 0.961 . S
H1331 C1343 0.962 . S
H1332 C1346 0.929 . S
H1333 C1347 0.931 . S
H1334 C1349 0.930 . S
C1335 H1323 0.930 . S
C1335 C1336 1.399 . S
C1335 C1340 1.399 . S
C1336 C1335 1.399 . S
C1336 C1337 1.376 1_655 S
C1337 H1324 0.930 . S
C1337 C1336 1.376 1_455 S
C1337 C1338 1.388 . S
C1338 H1325 0.930 . S
C1338 C1337 1.388 . S
C1338 C1339 1.390 . S
C1339 C1338 1.390 . S
C1339 C1340 1.394 1_455 S
C1339 C1345 1.465 . S
C1340 C1335 1.399 . S
C1340 C1339 1.394 1_655 S
C1340 C1341 1.516 . S
C1341 C1340 1.516 . S
C1341 C1342 1.502 . S
C1341 C1343 1.561 . S
C1341 C1344 1.526 . S
C1342 H1326 0.959 . S
C1342 H1327 0.959 . S
C1342 H1328 0.961 . S
C1342 C1341 1.502 . S
C1343 H1329 0.960 . S
C1343 H1330 0.961 . S
C1343 H1331 0.962 . S
C1343 C1341 1.561 . S
C1344 C1341 1.526 . S
C1344 C1345 1.396 1_655 S
C1344 C1349 1.390 . S
C1345 C1339 1.465 . S
C1345 C1344 1.396 1_455 S
C1345 C1346 1.399 . S
C1346 H1332 0.929 . S
C1346 C1345 1.399 . S
C1346 C1347 1.385 . S
C1347 H1333 0.931 . S
C1347 C1346 1.385 . S
C1347 C1348 1.389 . S
C1348 C1347 1.389 . S
C1348 C1349 1.387 1_455 S
C1349 H1334 0.930 . S
C1349 C1344 1.390 . S
C1349 C1348 1.387 1_655 S
H1350 C1362 0.930 . S
H1351 C1364 0.930 . S
H1352 C1365 0.930 . S
H1353 C1369 0.959 . S
H1354 C1369 0.959 . S
H1355 C1369 0.961 . S
H1356 C1370 0.960 . S
H1357 C1370 0.961 . S
H1358 C1370 0.959 . S
H1359 C1373 0.929 . S
H1360 C1374 0.931 . S
H1361 C1376 0.930 . S
C1362 H1350 0.930 . S
C1362 C1363 1.399 . S
C1362 C1367 1.399 . S
C1363 C1362 1.399 . S
C1363 C1364 1.376 . S
C1364 H1351 0.930 . S
C1364 C1363 1.376 . S
C1364 C1365 1.388 . S
C1365 H1352 0.930 . S
C1365 C1364 1.388 . S
C1365 C1366 1.390 . S
C1366 C1365 1.390 . S
C1366 C1367 1.394 . S
C1366 C1372 1.465 . S
C1367 C1362 1.399 . S
C1367 C1366 1.394 . S
C1367 C1368 1.516 . S
C1368 C1367 1.516 . S
C1368 C1369 1.502 . S
C1368 C1370 1.561 . S
C1368 C1371 1.526 . S
C1369 H1353 0.959 . S
C1369 H1354 0.959 . S
C1369 H1355 0.961 . S
C1369 C1368 1.502 . S
C1370 H1356 0.960 . S
C1370 H1357 0.961 . S
C1370 H1358 0.959 . S
C1370 C1368 1.561 . S
C1371 C1368 1.526 . S
C1371 C1372 1.396 . S
C1371 C1376 1.390 . S
C1372 C1366 1.465 . S
C1372 C1371 1.396 . S
C1372 C1373 1.399 . S
C1373 H1359 0.929 . S
C1373 C1372 1.399 . S
C1373 C1374 1.385 . S
C1374 H1360 0.931 . S
C1374 C1373 1.385 . S
C1374 C1375 1.389 . S
C1375 C1374 1.389 . S
C1375 C1376 1.387 . S
C1376 H1361 0.930 . S
C1376 C1371 1.390 . S
C1376 C1375 1.387 . S
H1377 C1389 0.930 . S
H1378 C1391 0.930 . S
H1379 C1392 0.930 . S
H1380 C1396 0.959 . S
H1381 C1396 0.959 . S
H1382 C1396 0.961 . S
H1383 C1397 0.960 . S
H1384 C1397 0.961 . S
H1385 C1397 0.959 . S
H1386 C1400 0.929 . S
H1387 C1401 0.931 . S
H1388 C1403 0.930 . S
C1389 H1377 0.930 . S
C1389 C1390 1.399 . S
C1389 C1394 1.399 . S
C1390 C1389 1.399 . S
C1390 C1391 1.376 . S
C1391 H1378 0.930 . S
C1391 C1390 1.376 . S
C1391 C1392 1.388 . S
C1392 H1379 0.930 . S
C1392 C1391 1.388 . S
C1392 C1393 1.390 . S
C1393 C1392 1.390 . S
C1393 C1394 1.394 . S
C1393 C1399 1.465 . S
C1394 C1389 1.399 . S
C1394 C1393 1.394 . S
C1394 C1395 1.516 . S
C1395 C1394 1.516 . S
C1395 C1396 1.502 . S
C1395 C1397 1.561 . S
C1395 C1398 1.526 . S
C1396 H1380 0.959 . S
C1396 H1381 0.959 . S
C1396 H1382 0.961 . S
C1396 C1395 1.502 . S
C1397 H1383 0.960 . S
C1397 H1384 0.961 . S
C1397 H1385 0.959 . S
C1397 C1395 1.561 . S
C1398 C1395 1.526 . S
C1398 C1399 1.396 . S
C1398 C1403 1.390 . S
C1399 C1393 1.465 . S
C1399 C1398 1.396 . S
C1399 C1400 1.399 . S
C1400 H1386 0.929 . S
C1400 C1399 1.399 . S
C1400 C1401 1.385 . S
C1401 H1387 0.931 . S
C1401 C1400 1.385 . S
C1401 C1402 1.389 . S
C1402 C1401 1.389 . S
C1402 C1403 1.387 . S
C1403 H1388 0.930 . S
C1403 C1398 1.390 . S
C1403 C1402 1.387 . S
H1404 C1416 0.930 . S
H1405 C1418 0.930 . S
H1406 C1419 0.930 . S
H1407 C1423 0.959 . S
H1408 C1423 0.959 . S
H1409 C1423 0.961 . S
H1410 C1424 0.960 . S
H1411 C1424 0.961 . S
H1412 C1424 0.959 . S
H1413 C1427 0.929 . S
H1414 C1428 0.931 . S
H1415 C1430 0.930 . S
C1416 H1404 0.930 . S
C1416 C1417 1.399 . S
C1416 C1421 1.399 . S
C1417 C1416 1.399 . S
C1417 C1418 1.376 . S
C1418 H1405 0.930 . S
C1418 C1417 1.376 . S
C1418 C1419 1.388 . S
C1419 H1406 0.930 . S
C1419 C1418 1.388 . S
C1419 C1420 1.390 . S
C1420 C1419 1.390 . S
C1420 C1421 1.394 . S
C1420 C1426 1.465 . S
C1421 C1416 1.399 . S
C1421 C1420 1.394 . S
C1421 C1422 1.516 . S
C1422 C1421 1.516 . S
C1422 C1423 1.502 . S
C1422 C1424 1.561 . S
C1422 C1425 1.526 . S
C1423 H1407 0.959 . S
C1423 H1408 0.959 . S
C1423 H1409 0.961 . S
C1423 C1422 1.502 . S
C1424 H1410 0.960 . S
C1424 H1411 0.961 . S
C1424 H1412 0.959 . S
C1424 C1422 1.561 . S
C1425 C1422 1.526 . S
C1425 C1426 1.396 . S
C1425 C1430 1.390 . S
C1426 C1420 1.465 . S
C1426 C1425 1.396 . S
C1426 C1427 1.399 . S
C1427 H1413 0.929 . S
C1427 C1426 1.399 . S
C1427 C1428 1.385 . S
C1428 H1414 0.931 . S
C1428 C1427 1.385 . S
C1428 C1429 1.389 . S
C1429 C1428 1.389 . S
C1429 C1430 1.387 . S
C1430 H1415 0.930 . S
C1430 C1425 1.390 . S
C1430 C1429 1.387 . S
H1431 C1443 0.930 . S
H1432 C1445 0.930 . S
H1433 C1446 0.930 . S
H1434 C1450 0.959 . S
H1435 C1450 0.959 . S
H1436 C1450 0.961 . S
H1437 C1451 0.960 . S
H1438 C1451 0.961 . S
H1439 C1451 0.959 . S
H1440 C1454 0.929 . S
H1441 C1455 0.931 . S
H1442 C1457 0.930 . S
C1443 H1431 0.930 . S
C1443 C1444 1.399 . S
C1443 C1448 1.399 . S
C1444 C1443 1.399 . S
C1444 C1445 1.376 . S
C1445 H1432 0.930 . S
C1445 C1444 1.376 . S
C1445 C1446 1.388 . S
C1446 H1433 0.930 . S
C1446 C1445 1.388 . S
C1446 C1447 1.390 . S
C1447 C1446 1.390 . S
C1447 C1448 1.394 . S
C1447 C1453 1.465 . S
C1448 C1443 1.399 . S
C1448 C1447 1.394 . S
C1448 C1449 1.516 . S
C1449 C1448 1.516 . S
C1449 C1450 1.502 . S
C1449 C1451 1.561 . S
C1449 C1452 1.526 . S
C1450 H1434 0.959 . S
C1450 H1435 0.959 . S
C1450 H1436 0.961 . S
C1450 C1449 1.502 . S
C1451 H1437 0.960 . S
C1451 H1438 0.961 . S
C1451 H1439 0.959 . S
C1451 C1449 1.561 . S
C1452 C1449 1.526 . S
C1452 C1453 1.396 . S
C1452 C1457 1.390 . S
C1453 C1447 1.465 . S
C1453 C1452 1.396 . S
C1453 C1454 1.399 . S
C1454 H1440 0.929 . S
C1454 C1453 1.399 . S
C1454 C1455 1.385 . S
C1455 H1441 0.931 . S
C1455 C1454 1.385 . S
C1455 C1456 1.389 . S
C1456 C1455 1.389 . S
C1456 C1457 1.387 . S
C1457 H1442 0.930 . S
C1457 C1452 1.390 . S
C1457 C1456 1.387 . S
H1458 C1470 0.930 . S
H1459 C1472 0.930 . S
H1460 C1473 0.930 . S
H1461 C1477 0.959 . S
H1462 C1477 0.959 . S
H1463 C1477 0.961 . S
H1464 C1478 0.960 . S
H1465 C1478 0.961 . S
H1466 C1478 0.959 . S
H1467 C1481 0.929 . S
H1468 C1482 0.931 . S
H1469 C1484 0.930 . S
C1470 H1458 0.930 . S
C1470 C1471 1.399 . S
C1470 C1475 1.399 . S
C1471 C1470 1.399 . S
C1471 C1472 1.376 . S
C1472 H1459 0.930 . S
C1472 C1471 1.376 . S
C1472 C1473 1.388 . S
C1473 H1460 0.930 . S
C1473 C1472 1.388 . S
C1473 C1474 1.390 . S
C1474 C1473 1.390 . S
C1474 C1475 1.394 . S
C1474 C1480 1.465 . S
C1475 C1470 1.399 . S
C1475 C1474 1.394 . S
C1475 C1476 1.516 . S
C1476 C1475 1.516 . S
C1476 C1477 1.502 . S
C1476 C1478 1.561 . S
C1476 C1479 1.526 . S
C1477 H1461 0.959 . S
C1477 H1462 0.959 . S
C1477 H1463 0.961 . S
C1477 C1476 1.502 . S
C1478 H1464 0.960 . S
C1478 H1465 0.961 . S
C1478 H1466 0.959 . S
C1478 C1476 1.561 . S
C1479 C1476 1.526 . S
C1479 C1480 1.396 . S
C1479 C1484 1.390 . S
C1480 C1474 1.465 . S
C1480 C1479 1.396 . S
C1480 C1481 1.399 . S
C1481 H1467 0.929 . S
C1481 C1480 1.399 . S
C1481 C1482 1.385 . S
C1482 H1468 0.931 . S
C1482 C1481 1.385 . S
C1482 C1483 1.389 . S
C1483 C1482 1.389 . S
C1483 C1484 1.387 . S
C1484 H1469 0.930 . S
C1484 C1479 1.390 . S
C1484 C1483 1.387 . S
H1485 C1497 0.930 . S
H1486 C1499 0.930 . S
H1487 C1500 0.930 . S
H1488 C1504 0.959 . S
H1489 C1504 0.959 . S
H1490 C1504 0.961 . S
H1491 C1505 0.960 . S
H1492 C1505 0.961 . S
H1493 C1505 0.959 . S
H1494 C1508 0.929 . S
H1495 C1509 0.931 . S
H1496 C1511 0.930 . S
C1497 H1485 0.930 . S
C1497 C1498 1.399 . S
C1497 C1502 1.399 . S
C1498 C1497 1.399 . S
C1498 C1499 1.376 . S
C1499 H1486 0.930 . S
C1499 C1498 1.376 . S
C1499 C1500 1.388 . S
C1500 H1487 0.930 . S
C1500 C1499 1.388 . S
C1500 C1501 1.390 . S
C1501 C1500 1.390 . S
C1501 C1502 1.394 . S
C1501 C1507 1.465 . S
C1502 C1497 1.399 . S
C1502 C1501 1.394 . S
C1502 C1503 1.516 . S
C1503 C1502 1.516 . S
C1503 C1504 1.502 . S
C1503 C1505 1.561 . S
C1503 C1506 1.526 . S
C1504 H1488 0.959 . S
C1504 H1489 0.959 . S
C1504 H1490 0.961 . S
C1504 C1503 1.502 . S
C1505 H1491 0.960 . S
C1505 H1492 0.961 . S
C1505 H1493 0.959 . S
C1505 C1503 1.561 . S
C1506 C1503 1.526 . S
C1506 C1507 1.396 . S
C1506 C1511 1.390 . S
C1507 C1501 1.465 . S
C1507 C1506 1.396 . S
C1507 C1508 1.399 . S
C1508 H1494 0.929 . S
C1508 C1507 1.399 . S
C1508 C1509 1.385 . S
C1509 H1495 0.931 . S
C1509 C1508 1.385 . S
C1509 C1510 1.389 . S
C1510 C1509 1.389 . S
C1510 C1511 1.387 . S
C1511 H1496 0.930 . S
C1511 C1506 1.390 . S
C1511 C1510 1.387 . S
H1512 C1524 0.930 . S
H1513 C1526 0.930 . S
H1514 C1527 0.930 . S
H1515 C1531 0.959 . S
H1516 C1531 0.959 . S
H1517 C1531 0.961 . S
H1518 C1532 0.960 . S
H1519 C1532 0.961 . S
H1520 C1532 0.959 . S
H1521 C1535 0.929 . S
H1522 C1536 0.931 . S
H1523 C1538 0.930 . S
C1524 H1512 0.930 . S
C1524 C1525 1.399 . S
C1524 C1529 1.399 . S
C1525 C1524 1.399 . S
C1525 C1526 1.376 . S
C1526 H1513 0.930 . S
C1526 C1525 1.376 . S
C1526 C1527 1.388 . S
C1527 H1514 0.930 . S
C1527 C1526 1.388 . S
C1527 C1528 1.390 . S
C1528 C1527 1.390 . S
C1528 C1529 1.394 . S
C1528 C1534 1.465 . S
C1529 C1524 1.399 . S
C1529 C1528 1.394 . S
C1529 C1530 1.516 . S
C1530 C1529 1.516 . S
C1530 C1531 1.502 . S
C1530 C1532 1.561 . S
C1530 C1533 1.526 . S
C1531 H1515 0.959 . S
C1531 H1516 0.959 . S
C1531 H1517 0.961 . S
C1531 C1530 1.502 . S
C1532 H1518 0.960 . S
C1532 H1519 0.961 . S
C1532 H1520 0.959 . S
C1532 C1530 1.561 . S
C1533 C1530 1.526 . S
C1533 C1534 1.396 . S
C1533 C1538 1.390 . S
C1534 C1528 1.465 . S
C1534 C1533 1.396 . S
C1534 C1535 1.399 . S
C1535 H1521 0.929 . S
C1535 C1534 1.399 . S
C1535 C1536 1.385 . S
C1536 H1522 0.931 . S
C1536 C1535 1.385 . S
C1536 C1537 1.389 . S
C1537 C1536 1.389 . S
C1537 C1538 1.387 . S
C1538 H1523 0.930 . S
C1538 C1533 1.390 . S
C1538 C1537 1.387 . S
H1539 C1551 0.930 . S
H1540 C1553 0.930 . S
H1541 C1554 0.930 . S
H1542 C1558 0.959 . S
H1543 C1558 0.959 . S
H1544 C1558 0.961 . S
H1545 C1559 0.960 . S
H1546 C1559 0.961 . S
H1547 C1559 0.959 . S
H1548 C1562 0.929 . S
H1549 C1563 0.931 . S
H1550 C1565 0.930 . S
C1551 H1539 0.930 . S
C1551 C1552 1.399 . S
C1551 C1556 1.399 . S
C1552 C1551 1.399 . S
C1552 C1553 1.376 . S
C1553 H1540 0.930 . S
C1553 C1552 1.376 . S
C1553 C1554 1.388 . S
C1554 H1541 0.930 . S
C1554 C1553 1.388 . S
C1554 C1555 1.390 . S
C1555 C1554 1.390 . S
C1555 C1556 1.394 . S
C1555 C1561 1.465 . S
C1556 C1551 1.399 . S
C1556 C1555 1.394 . S
C1556 C1557 1.516 . S
C1557 C1556 1.516 . S
C1557 C1558 1.502 . S
C1557 C1559 1.561 . S
C1557 C1560 1.526 . S
C1558 H1542 0.959 . S
C1558 H1543 0.959 . S
C1558 H1544 0.961 . S
C1558 C1557 1.502 . S
C1559 H1545 0.960 . S
C1559 H1546 0.961 . S
C1559 H1547 0.959 . S
C1559 C1557 1.561 . S
C1560 C1557 1.526 . S
C1560 C1561 1.396 . S
C1560 C1565 1.390 . S
C1561 C1555 1.465 . S
C1561 C1560 1.396 . S
C1561 C1562 1.399 . S
C1562 H1548 0.929 . S
C1562 C1561 1.399 . S
C1562 C1563 1.385 . S
C1563 H1549 0.931 . S
C1563 C1562 1.385 . S
C1563 C1564 1.389 . S
C1564 C1563 1.389 . S
C1564 C1565 1.387 . S
C1565 H1550 0.930 . S
C1565 C1560 1.390 . S
C1565 C1564 1.387 . S
H1566 C1578 0.930 . S
H1567 C1580 0.930 . S
H1568 C1581 0.930 . S
H1569 C1585 0.959 . S
H1570 C1585 0.959 . S
H1571 C1585 0.961 . S
H1572 C1586 0.960 . S
H1573 C1586 0.961 . S
H1574 C1586 0.959 . S
H1575 C1589 0.929 . S
H1576 C1590 0.931 . S
H1577 C1592 0.930 . S
C1578 H1566 0.930 . S
C1578 C1579 1.399 . S
C1578 C1583 1.399 . S
C1579 C1578 1.399 . S
C1579 C1580 1.376 . S
C1580 H1567 0.930 . S
C1580 C1579 1.376 . S
C1580 C1581 1.388 . S
C1581 H1568 0.930 . S
C1581 C1580 1.388 . S
C1581 C1582 1.390 . S
C1582 C1581 1.390 . S
C1582 C1583 1.394 . S
C1582 C1588 1.465 . S
C1583 C1578 1.399 . S
C1583 C1582 1.394 . S
C1583 C1584 1.516 . S
C1584 C1583 1.516 . S
C1584 C1585 1.502 . S
C1584 C1586 1.561 . S
C1584 C1587 1.526 . S
C1585 H1569 0.959 . S
C1585 H1570 0.959 . S
C1585 H1571 0.961 . S
C1585 C1584 1.502 . S
C1586 H1572 0.960 . S
C1586 H1573 0.961 . S
C1586 H1574 0.959 . S
C1586 C1584 1.561 . S
C1587 C1584 1.526 . S
C1587 C1588 1.396 . S
C1587 C1592 1.390 . S
C1588 C1582 1.465 . S
C1588 C1587 1.396 . S
C1588 C1589 1.399 . S
C1589 H1575 0.929 . S
C1589 C1588 1.399 . S
C1589 C1590 1.385 . S
C1590 H1576 0.931 . S
C1590 C1589 1.385 . S
C1590 C1591 1.389 . S
C1591 C1590 1.389 . S
C1591 C1592 1.387 . S
C1592 H1577 0.930 . S
C1592 C1587 1.390 . S
C1592 C1591 1.387 . S
H1593 C1605 0.930 . S
H1594 C1607 0.930 . S
H1595 C1608 0.930 . S
H1596 C1612 0.959 . S
H1597 C1612 0.959 . S
H1598 C1612 0.961 . S
H1599 C1613 0.960 . S
H1600 C1613 0.961 . S
H1601 C1613 0.959 . S
H1602 C1616 0.929 . S
H1603 C1617 0.931 . S
H1604 C1619 0.930 . S
C1605 H1593 0.930 . S
C1605 C1606 1.399 . S
C1605 C1610 1.399 . S
C1606 C1605 1.399 . S
C1606 C1607 1.376 . S
C1607 H1594 0.930 . S
C1607 C1606 1.376 . S
C1607 C1608 1.388 . S
C1608 H1595 0.930 . S
C1608 C1607 1.388 . S
C1608 C1609 1.390 . S
C1609 C1608 1.390 . S
C1609 C1610 1.394 . S
C1609 C1615 1.465 . S
C1610 C1605 1.399 . S
C1610 C1609 1.394 . S
C1610 C1611 1.516 . S
C1611 C1610 1.516 . S
C1611 C1612 1.502 . S
C1611 C1613 1.561 . S
C1611 C1614 1.526 . S
C1612 H1596 0.959 . S
C1612 H1597 0.959 . S
C1612 H1598 0.961 . S
C1612 C1611 1.502 . S
C1613 H1599 0.960 . S
C1613 H1600 0.961 . S
C1613 H1601 0.959 . S
C1613 C1611 1.561 . S
C1614 C1611 1.526 . S
C1614 C1615 1.396 . S
C1614 C1619 1.390 . S
C1615 C1609 1.465 . S
C1615 C1614 1.396 . S
C1615 C1616 1.399 . S
C1616 H1602 0.929 . S
C1616 C1615 1.399 . S
C1616 C1617 1.385 . S
C1617 H1603 0.931 . S
C1617 C1616 1.385 . S
C1617 C1618 1.389 . S
C1618 C1617 1.389 . S
C1618 C1619 1.387 . S
C1619 H1604 0.930 . S
C1619 C1614 1.390 . S
C1619 C1618 1.387 . S
H1620 C1632 0.930 . S
H1621 C1634 0.930 . S
H1622 C1635 0.930 . S
H1623 C1639 0.959 . S
H1624 C1639 0.959 . S
H1625 C1639 0.961 . S
H1626 C1640 0.960 . S
H1627 C1640 0.961 . S
H1628 C1640 0.959 . S
H1629 C1643 0.929 . S
H1630 C1644 0.931 . S
H1631 C1646 0.930 . S
C1632 H1620 0.930 . S
C1632 C1633 1.399 . S
C1632 C1637 1.399 . S
C1633 C1632 1.399 . S
C1633 C1634 1.376 . S
C1634 H1621 0.930 . S
C1634 C1633 1.376 . S
C1634 C1635 1.388 . S
C1635 H1622 0.930 . S
C1635 C1634 1.388 . S
C1635 C1636 1.390 . S
C1636 C1635 1.390 . S
C1636 C1637 1.394 . S
C1636 C1642 1.465 . S
C1637 C1632 1.399 . S
C1637 C1636 1.394 . S
C1637 C1638 1.516 . S
C1638 C1637 1.516 . S
C1638 C1639 1.502 . S
C1638 C1640 1.561 . S
C1638 C1641 1.526 . S
C1639 H1623 0.959 . S
C1639 H1624 0.959 . S
C1639 H1625 0.961 . S
C1639 C1638 1.502 . S
C1640 H1626 0.960 . S
C1640 H1627 0.961 . S
C1640 H1628 0.959 . S
C1640 C1638 1.561 . S
C1641 C1638 1.526 . S
C1641 C1642 1.396 . S
C1641 C1646 1.390 . S
C1642 C1636 1.465 . S
C1642 C1641 1.396 . S
C1642 C1643 1.399 . S
C1643 H1629 0.929 . S
C1643 C1642 1.399 . S
C1643 C1644 1.385 . S
C1644 H1630 0.931 . S
C1644 C1643 1.385 . S
C1644 C1645 1.389 . S
C1645 C1644 1.389 . S
C1645 C1646 1.387 . S
C1646 H1631 0.930 . S
C1646 C1641 1.390 . S
C1646 C1645 1.387 . S
H1647 C1659 0.930 . S
H1648 C1661 0.930 . S
H1649 C1662 0.930 . S
H1650 C1666 0.959 . S
H1651 C1666 0.959 . S
H1652 C1666 0.961 . S
H1653 C1667 0.960 . S
H1654 C1667 0.961 . S
H1655 C1667 0.959 . S
H1656 C1670 0.929 . S
H1657 C1671 0.931 . S
H1658 C1673 0.930 . S
C1659 H1647 0.930 . S
C1659 C1660 1.399 . S
C1659 C1664 1.399 . S
C1660 C1659 1.399 . S
C1660 C1661 1.376 . S
C1661 H1648 0.930 . S
C1661 C1660 1.376 . S
C1661 C1662 1.388 . S
C1662 H1649 0.930 . S
C1662 C1661 1.388 . S
C1662 C1663 1.390 . S
C1663 C1662 1.390 . S
C1663 C1664 1.394 . S
C1663 C1669 1.465 . S
C1664 C1659 1.399 . S
C1664 C1663 1.394 . S
C1664 C1665 1.516 . S
C1665 C1664 1.516 . S
C1665 C1666 1.502 . S
C1665 C1667 1.561 . S
C1665 C1668 1.526 . S
C1666 H1650 0.959 . S
C1666 H1651 0.959 . S
C1666 H1652 0.961 . S
C1666 C1665 1.502 . S
C1667 H1653 0.960 . S
C1667 H1654 0.961 . S
C1667 H1655 0.959 . S
C1667 C1665 1.561 . S
C1668 C1665 1.526 . S
C1668 C1669 1.396 . S
C1668 C1673 1.390 . S
C1669 C1663 1.465 . S
C1669 C1668 1.396 . S
C1669 C1670 1.399 . S
C1670 H1656 0.929 . S
C1670 C1669 1.399 . S
C1670 C1671 1.385 . S
C1671 H1657 0.931 . S
C1671 C1670 1.385 . S
C1671 C1672 1.389 . S
C1672 C1671 1.389 . S
C1672 C1673 1.387 . S
C1673 H1658 0.930 . S
C1673 C1668 1.390 . S
C1673 C1672 1.387 . S
H1674 C1686 0.930 . S
H1675 C1688 0.930 . S
H1676 C1689 0.930 . S
H1677 C1693 0.959 . S
H1678 C1693 0.959 . S
H1679 C1693 0.961 . S
H1680 C1694 0.960 . S
H1681 C1694 0.961 . S
H1682 C1694 0.959 . S
H1683 C1697 0.929 . S
H1684 C1698 0.931 . S
H1685 C1700 0.930 . S
C1686 H1674 0.930 . S
C1686 C1687 1.399 . S
C1686 C1691 1.399 . S
C1687 C1686 1.399 . S
C1687 C1688 1.376 . S
C1688 H1675 0.930 . S
C1688 C1687 1.376 . S
C1688 C1689 1.388 . S
C1689 H1676 0.930 . S
C1689 C1688 1.388 . S
C1689 C1690 1.390 . S
C1690 C1689 1.390 . S
C1690 C1691 1.394 . S
C1690 C1696 1.465 . S
C1691 C1686 1.399 . S
C1691 C1690 1.394 . S
C1691 C1692 1.516 . S
C1692 C1691 1.516 . S
C1692 C1693 1.502 . S
C1692 C1694 1.561 . S
C1692 C1695 1.526 . S
C1693 H1677 0.959 . S
C1693 H1678 0.959 . S
C1693 H1679 0.961 . S
C1693 C1692 1.502 . S
C1694 H1680 0.960 . S
C1694 H1681 0.961 . S
C1694 H1682 0.959 . S
C1694 C1692 1.561 . S
C1695 C1692 1.526 . S
C1695 C1696 1.396 . S
C1695 C1700 1.390 . S
C1696 C1690 1.465 . S
C1696 C1695 1.396 . S
C1696 C1697 1.399 . S
C1697 H1683 0.929 . S
C1697 C1696 1.399 . S
C1697 C1698 1.385 . S
C1698 H1684 0.931 . S
C1698 C1697 1.385 . S
C1698 C1699 1.389 . S
C1699 C1698 1.389 . S
C1699 C1700 1.387 . S
C1700 H1685 0.930 . S
C1700 C1695 1.390 . S
C1700 C1699 1.387 . S
H1701 C1713 0.930 . S
H1702 C1715 0.930 . S
H1703 C1716 0.930 . S
H1704 C1720 0.959 1_545 S
H1705 C1720 0.959 1_545 S
H1706 C1720 0.961 . S
H1707 C1721 0.960 . S
H1708 C1721 0.961 . S
H1709 C1721 0.959 . S
H1710 C1724 0.929 . S
H1711 C1725 0.931 . S
H1712 C1727 0.930 1_545 S
C1713 H1701 0.930 . S
C1713 C1714 1.399 . S
C1713 C1718 1.399 . S
C1714 C1713 1.399 . S
C1714 C1715 1.376 . S
C1715 H1702 0.930 . S
C1715 C1714 1.376 . S
C1715 C1716 1.388 . S
C1716 H1703 0.930 . S
C1716 C1715 1.388 . S
C1716 C1717 1.390 . S
C1717 C1716 1.390 . S
C1717 C1718 1.394 . S
C1717 C1723 1.465 . S
C1718 C1713 1.399 . S
C1718 C1717 1.394 . S
C1718 C1719 1.516 . S
C1719 C1718 1.516 . S
C1719 C1720 1.502 . S
C1719 C1721 1.561 . S
C1719 C1722 1.526 . S
C1720 H1704 0.959 1_565 S
C1720 H1705 0.959 1_565 S
C1720 H1706 0.961 . S
C1720 C1719 1.502 . S
C1721 H1707 0.960 . S
C1721 H1708 0.961 . S
C1721 H1709 0.959 . S
C1721 C1719 1.561 . S
C1722 C1719 1.526 . S
C1722 C1723 1.396 . S
C1722 C1727 1.390 . S
C1723 C1717 1.465 . S
C1723 C1722 1.396 . S
C1723 C1724 1.399 . S
C1724 H1710 0.929 . S
C1724 C1723 1.399 . S
C1724 C1725 1.385 . S
C1725 H1711 0.931 . S
C1725 C1724 1.385 . S
C1725 C1726 1.389 . S
C1726 C1725 1.389 . S
C1726 C1727 1.387 . S
C1727 H1712 0.930 1_565 S
C1727 C1722 1.390 . S
C1727 C1726 1.387 . S
H1728 C1740 0.930 1_655 S
H1729 C1742 0.930 . S
H1730 C1743 0.930 . S
H1731 C1747 0.959 1_655 S
H1732 C1747 0.959 . S
H1733 C1747 0.961 1_655 S
H1734 C1748 0.960 . S
H1735 C1748 0.961 . S
H1736 C1748 0.959 . S
H1737 C1751 0.929 . S
H1738 C1752 0.931 . S
H1739 C1754 0.930 . S
C1740 H1728 0.930 1_455 S
C1740 C1741 1.399 . S
C1740 C1745 1.399 . S
C1741 C1740 1.399 . S
C1741 C1742 1.376 . S
C1742 H1729 0.930 . S
C1742 C1741 1.376 . S
C1742 C1743 1.388 . S
C1743 H1730 0.930 . S
C1743 C1742 1.388 . S
C1743 C1744 1.390 . S
C1744 C1743 1.390 . S
C1744 C1745 1.394 . S
C1744 C1750 1.465 . S
C1745 C1740 1.399 . S
C1745 C1744 1.394 . S
C1745 C1746 1.516 . S
C1746 C1745 1.516 . S
C1746 C1747 1.502 . S
C1746 C1748 1.561 . S
C1746 C1749 1.526 . S
C1747 H1731 0.959 1_455 S
C1747 H1732 0.959 . S
C1747 H1733 0.961 1_455 S
C1747 C1746 1.502 . S
C1748 H1734 0.960 . S
C1748 H1735 0.961 . S
C1748 H1736 0.959 . S
C1748 C1746 1.561 . S
C1749 C1746 1.526 . S
C1749 C1750 1.396 . S
C1749 C1754 1.390 . S
C1750 C1744 1.465 . S
C1750 C1749 1.396 . S
C1750 C1751 1.399 . S
C1751 H1737 0.929 . S
C1751 C1750 1.399 . S
C1751 C1752 1.385 . S
C1752 H1738 0.931 . S
C1752 C1751 1.385 . S
C1752 C1753 1.389 . S
C1753 C1752 1.389 . S
C1753 C1754 1.387 . S
C1754 H1739 0.930 . S
C1754 C1749 1.390 . S
C1754 C1753 1.387 . S
H1755 C1767 0.930 . S
H1756 C1769 0.930 . S
H1757 C1770 0.930 . S
H1758 C1774 0.959 . S
H1759 C1774 0.959 . S
H1760 C1774 0.961 . S
H1761 C1775 0.960 . S
H1762 C1775 0.961 . S
H1763 C1775 0.959 . S
H1764 C1778 0.929 . S
H1765 C1779 0.931 . S
H1766 C1781 0.930 . S
C1767 H1755 0.930 . S
C1767 C1768 1.399 . S
C1767 C1772 1.399 . S
C1768 C1767 1.399 . S
C1768 C1769 1.376 . S
C1769 H1756 0.930 . S
C1769 C1768 1.376 . S
C1769 C1770 1.388 . S
C1770 H1757 0.930 . S
C1770 C1769 1.388 . S
C1770 C1771 1.390 . S
C1771 C1770 1.390 . S
C1771 C1772 1.394 . S
C1771 C1777 1.465 . S
C1772 C1767 1.399 . S
C1772 C1771 1.394 . S
C1772 C1773 1.516 . S
C1773 C1772 1.516 . S
C1773 C1774 1.502 . S
C1773 C1775 1.561 . S
C1773 C1776 1.526 . S
C1774 H1758 0.959 . S
C1774 H1759 0.959 . S
C1774 H1760 0.961 . S
C1774 C1773 1.502 . S
C1775 H1761 0.960 . S
C1775 H1762 0.961 . S
C1775 H1763 0.959 . S
C1775 C1773 1.561 . S
C1776 C1773 1.526 . S
C1776 C1777 1.396 . S
C1776 C1781 1.390 . S
C1777 C1771 1.465 . S
C1777 C1776 1.396 . S
C1777 C1778 1.399 . S
C1778 H1764 0.929 . S
C1778 C1777 1.399 . S
C1778 C1779 1.385 . S
C1779 H1765 0.931 . S
C1779 C1778 1.385 . S
C1779 C1780 1.389 . S
C1780 C1779 1.389 . S
C1780 C1781 1.387 . S
C1781 H1766 0.930 . S
C1781 C1776 1.390 . S
C1781 C1780 1.387 . S
H1782 C1794 0.930 . S
H1783 C1796 0.903 1_565 S
H1784 C1797 0.930 . S
H1785 C1801 0.959 . S
H1786 C1801 0.959 . S
H1787 C1801 0.961 . S
H1788 C1802 0.948 1_565 S
H1789 C1802 0.961 . S
H1790 C1802 0.959 1_565 S
H1791 C1805 0.929 . S
H1792 C1806 0.931 . S
H1793 C1808 0.930 . S
C1794 H1782 0.930 . S
C1794 C1795 1.399 1_545 S
C1794 C1799 1.399 . S
C1795 C1794 1.399 1_565 S
C1795 C1796 1.364 1_565 S
C1796 H1783 0.903 1_545 S
C1796 C1795 1.364 1_545 S
C1796 C1797 1.430 . S
C1797 H1784 0.930 . S
C1797 C1796 1.430 . S
C1797 C1798 1.390 . S
C1798 C1797 1.390 . S
C1798 C1799 1.394 . S
C1798 C1804 1.465 . S
C1799 C1794 1.399 . S
C1799 C1798 1.394 . S
C1799 C1800 1.516 . S
C1800 C1799 1.516 . S
C1800 C1801 1.502 . S
C1800 C1802 1.561 . S
C1800 C1803 1.526 . S
C1801 H1785 0.959 . S
C1801 H1786 0.959 . S
C1801 H1787 0.961 . S
C1801 C1800 1.502 . S
C1802 H1788 0.948 1_545 S
C1802 H1789 0.961 . S
C1802 H1790 0.959 1_545 S
C1802 C1800 1.561 . S
C1803 C1800 1.526 . S
C1803 C1804 1.396 . S
C1803 C1808 1.390 . S
C1804 C1798 1.465 . S
C1804 C1803 1.396 . S
C1804 C1805 1.399 . S
C1805 H1791 0.929 . S
C1805 C1804 1.399 . S
C1805 C1806 1.385 . S
C1806 H1792 0.931 . S
C1806 C1805 1.385 . S
C1806 C1807 1.389 . S
C1807 C1806 1.389 . S
C1807 C1808 1.387 . S
C1808 H1793 0.930 . S
C1808 C1803 1.390 . S
C1808 C1807 1.387 . S
H1809 C1821 0.930 . S
H1810 C1823 0.930 . S
H1811 C1824 0.930 . S
H1812 C1828 0.959 . S
H1813 C1828 0.959 . S
H1814 C1828 0.961 . S
H1815 C1829 0.960 . S
H1816 C1829 0.961 . S
H1817 C1829 0.959 . S
H1818 C1832 0.929 . S
H1819 C1833 0.931 . S
H1820 C1835 0.930 . S
C1821 H1809 0.930 . S
C1821 C1822 1.399 . S
C1821 C1826 1.399 . S
C1822 C1821 1.399 . S
C1822 C1823 1.376 . S
C1823 H1810 0.930 . S
C1823 C1822 1.376 . S
C1823 C1824 1.388 . S
C1824 H1811 0.930 . S
C1824 C1823 1.388 . S
C1824 C1825 1.390 . S
C1825 C1824 1.390 . S
C1825 C1826 1.394 . S
C1825 C1831 1.465 . S
C1826 C1821 1.399 . S
C1826 C1825 1.394 . S
C1826 C1827 1.516 . S
C1827 C1826 1.516 . S
C1827 C1828 1.502 . S
C1827 C1829 1.561 . S
C1827 C1830 1.526 . S
C1828 H1812 0.959 . S
C1828 H1813 0.959 . S
C1828 H1814 0.961 . S
C1828 C1827 1.502 . S
C1829 H1815 0.960 . S
C1829 H1816 0.961 . S
C1829 H1817 0.959 . S
C1829 C1827 1.561 . S
C1830 C1827 1.526 . S
C1830 C1831 1.396 . S
C1830 C1835 1.390 . S
C1831 C1825 1.465 . S
C1831 C1830 1.396 . S
C1831 C1832 1.399 . S
C1832 H1818 0.929 . S
C1832 C1831 1.399 . S
C1832 C1833 1.385 1_655 S
C1833 H1819 0.931 . S
C1833 C1832 1.385 1_455 S
C1833 C1834 1.389 . S
C1834 C1833 1.389 . S
C1834 C1835 1.387 1_455 S
C1835 H1820 0.930 . S
C1835 C1830 1.390 . S
C1835 C1834 1.387 1_655 S
H1836 C1848 0.930 . S
H1837 C1850 0.930 . S
H1838 C1851 0.930 . S
H1839 C1855 0.959 . S
H1840 C1855 0.959 . S
H1841 C1855 0.961 . S
H1842 C1856 0.960 . S
H1843 C1856 0.961 . S
H1844 C1856 0.959 . S
H1845 C1859 0.929 . S
H1846 C1860 0.931 . S
H1847 C1862 0.930 . S
C1848 H1836 0.930 . S
C1848 C1849 1.399 . S
C1848 C1853 1.399 . S
C1849 C1848 1.399 . S
C1849 C1850 1.376 . S
C1850 H1837 0.930 . S
C1850 C1849 1.376 . S
C1850 C1851 1.388 . S
C1851 H1838 0.930 . S
C1851 C1850 1.388 . S
C1851 C1852 1.390 . S
C1852 C1851 1.390 . S
C1852 C1853 1.394 . S
C1852 C1858 1.465 . S
C1853 C1848 1.399 . S
C1853 C1852 1.394 . S
C1853 C1854 1.516 . S
C1854 C1853 1.516 . S
C1854 C1855 1.502 . S
C1854 C1856 1.561 . S
C1854 C1857 1.526 . S
C1855 H1839 0.959 . S
C1855 H1840 0.959 . S
C1855 H1841 0.961 . S
C1855 C1854 1.502 . S
C1856 H1842 0.960 . S
C1856 H1843 0.961 . S
C1856 H1844 0.959 . S
C1856 C1854 1.561 . S
C1857 C1854 1.526 . S
C1857 C1858 1.396 . S
C1857 C1862 1.390 . S
C1858 C1852 1.465 . S
C1858 C1857 1.396 . S
C1858 C1859 1.399 . S
C1859 H1845 0.929 . S
C1859 C1858 1.399 . S
C1859 C1860 1.385 . S
C1860 H1846 0.931 . S
C1860 C1859 1.385 . S
C1860 C1861 1.389 . S
C1861 C1860 1.389 . S
C1861 C1862 1.387 . S
C1862 H1847 0.930 . S
C1862 C1857 1.390 . S
C1862 C1861 1.387 . S
H1863 C1875 0.930 . S
H1864 C1877 0.930 . S
H1865 C1878 0.930 . S
H1866 C1882 0.959 . S
H1867 C1882 0.959 . S
H1868 C1882 0.961 1_545 S
H1869 C1883 0.960 . S
H1870 C1883 0.961 . S
H1871 C1883 0.959 . S
H1872 C1886 0.929 . S
H1873 C1887 0.931 . S
H1874 C1889 0.930 1_565 S
C1875 H1863 0.930 . S
C1875 C1876 1.399 . S
C1875 C1880 1.399 . S
C1876 C1875 1.399 . S
C1876 C1877 1.376 . S
C1877 H1864 0.930 . S
C1877 C1876 1.376 . S
C1877 C1878 1.388 . S
C1878 H1865 0.930 . S
C1878 C1877 1.388 . S
C1878 C1879 1.390 . S
C1879 C1878 1.390 . S
C1879 C1880 1.394 . S
C1879 C1885 1.465 . S
C1880 C1875 1.399 . S
C1880 C1879 1.394 . S
C1880 C1881 1.516 . S
C1881 C1880 1.516 . S
C1881 C1882 1.502 1_545 S
C1881 C1883 1.561 . S
C1881 C1884 1.526 . S
C1882 H1866 0.959 . S
C1882 H1867 0.959 . S
C1882 H1868 0.961 1_565 S
C1882 C1881 1.502 1_565 S
C1883 H1869 0.960 . S
C1883 H1870 0.961 . S
C1883 H1871 0.959 . S
C1883 C1881 1.561 . S
C1884 C1881 1.526 . S
C1884 C1885 1.396 . S
C1884 C1889 1.390 . S
C1885 C1879 1.465 . S
C1885 C1884 1.396 . S
C1885 C1886 1.399 . S
C1886 H1872 0.929 . S
C1886 C1885 1.399 . S
C1886 C1887 1.385 . S
C1887 H1873 0.931 . S
C1887 C1886 1.385 . S
C1887 C1888 1.389 . S
C1888 C1887 1.389 . S
C1888 C1889 1.387 . S
C1889 H1874 0.930 1_545 S
C1889 C1884 1.390 . S
C1889 C1888 1.387 . S
H1890 C1902 0.930 . S
H1891 C1904 0.930 . S
H1892 C1905 0.930 . S
H1893 C1909 0.959 . S
H1894 C1909 0.959 . S
H1895 C1909 0.961 . S
H1896 C1910 0.960 . S
H1897 C1910 0.961 1_455 S
H1898 C1910 0.959 . S
H1899 C1913 0.929 . S
H1900 C1914 0.931 . S
H1901 C1916 0.930 . S
C1902 H1890 0.930 . S
C1902 C1903 1.399 . S
C1902 C1907 1.399 . S
C1903 C1902 1.399 . S
C1903 C1904 1.376 . S
C1904 H1891 0.930 . S
C1904 C1903 1.376 . S
C1904 C1905 1.388 . S
C1905 H1892 0.930 . S
C1905 C1904 1.388 . S
C1905 C1906 1.390 . S
C1906 C1905 1.390 . S
C1906 C1907 1.394 . S
C1906 C1912 1.465 . S
C1907 C1902 1.399 . S
C1907 C1906 1.394 . S
C1907 C1908 1.516 . S
C1908 C1907 1.516 . S
C1908 C1909 1.502 1_655 S
C1908 C1910 1.561 . S
C1908 C1911 1.526 . S
C1909 H1893 0.959 . S
C1909 H1894 0.959 . S
C1909 H1895 0.961 . S
C1909 C1908 1.502 1_455 S
C1910 H1896 0.960 . S
C1910 H1897 0.961 1_655 S
C1910 H1898 0.959 . S
C1910 C1908 1.561 . S
C1911 C1908 1.526 . S
C1911 C1912 1.396 . S
C1911 C1916 1.390 1_655 S
C1912 C1906 1.465 . S
C1912 C1911 1.396 . S
C1912 C1913 1.399 . S
C1913 H1899 0.929 . S
C1913 C1912 1.399 . S
C1913 C1914 1.385 . S
C1914 H1900 0.931 . S
C1914 C1913 1.385 . S
C1914 C1915 1.389 . S
C1915 C1914 1.389 . S
C1915 C1916 1.387 1_655 S
C1916 H1901 0.930 . S
C1916 C1911 1.390 1_455 S
C1916 C1915 1.387 1_455 S
H1917 C1929 0.930 . S
H1918 C1931 0.930 . S
H1919 C1932 0.930 . S
H1920 C1936 0.959 . S
H1921 C1936 0.959 . S
H1922 C1936 0.961 . S
H1923 C1937 0.960 . S
H1924 C1937 0.961 . S
H1925 C1937 0.959 . S
H1926 C1940 0.929 . S
H1927 C1941 0.931 . S
H1928 C1943 0.930 . S
C1929 H1917 0.930 . S
C1929 C1930 1.399 . S
C1929 C1934 1.399 . S
C1930 C1929 1.399 . S
C1930 C1931 1.376 . S
C1931 H1918 0.930 . S
C1931 C1930 1.376 . S
C1931 C1932 1.388 . S
C1932 H1919 0.930 . S
C1932 C1931 1.388 . S
C1932 C1933 1.390 . S
C1933 C1932 1.390 . S
C1933 C1934 1.394 . S
C1933 C1939 1.465 . S
C1934 C1929 1.399 . S
C1934 C1933 1.394 . S
C1934 C1935 1.516 . S
C1935 C1934 1.516 . S
C1935 C1936 1.502 . S
C1935 C1937 1.561 . S
C1935 C1938 1.526 . S
C1936 H1920 0.959 . S
C1936 H1921 0.959 . S
C1936 H1922 0.961 . S
C1936 C1935 1.502 . S
C1937 H1923 0.960 . S
C1937 H1924 0.961 . S
C1937 H1925 0.959 . S
C1937 C1935 1.561 . S
C1938 C1935 1.526 . S
C1938 C1939 1.396 . S
C1938 C1943 1.390 . S
C1939 C1933 1.465 . S
C1939 C1938 1.396 . S
C1939 C1940 1.399 . S
C1940 H1926 0.929 . S
C1940 C1939 1.399 . S
C1940 C1941 1.385 . S
C1941 H1927 0.931 . S
C1941 C1940 1.385 . S
C1941 C1942 1.389 . S
C1942 C1941 1.389 . S
C1942 C1943 1.387 . S
C1943 H1928 0.930 . S
C1943 C1938 1.390 . S
C1943 C1942 1.387 . S
H1944 C1956 0.930 . S
H1945 C1958 0.930 . S
H1946 C1959 0.930 . S
H1947 C1963 0.949 1_545 S
H1948 C1963 0.959 . S
H1949 C1963 0.961 . S
H1950 C1964 0.960 . S
H1951 C1964 0.961 . S
H1952 C1964 0.959 . S
H1953 C1967 0.929 . S
H1954 C1968 0.931 . S
H1955 C1970 0.930 . S
C1956 H1944 0.930 . S
C1956 C1957 1.399 . S
C1956 C1961 1.399 . S
C1957 C1956 1.399 . S
C1957 C1958 1.376 . S
C1958 H1945 0.930 . S
C1958 C1957 1.376 . S
C1958 C1959 1.388 . S
C1959 H1946 0.930 . S
C1959 C1958 1.388 . S
C1959 C1960 1.390 . S
C1960 C1959 1.390 . S
C1960 C1961 1.394 . S
C1960 C1966 1.465 . S
C1961 C1956 1.399 . S
C1961 C1960 1.394 . S
C1961 C1962 1.516 . S
C1962 C1961 1.516 . S
C1962 C1963 1.502 . S
C1962 C1964 1.561 . S
C1962 C1965 1.526 . S
C1963 H1947 0.949 1_565 S
C1963 H1948 0.959 . S
C1963 H1949 0.961 . S
C1963 C1962 1.502 . S
C1964 H1950 0.960 . S
C1964 H1951 0.961 . S
C1964 H1952 0.959 . S
C1964 C1962 1.561 . S
C1965 C1962 1.526 . S
C1965 C1966 1.396 . S
C1965 C1970 1.390 . S
C1966 C1960 1.465 . S
C1966 C1965 1.396 . S
C1966 C1967 1.399 . S
C1967 H1953 0.929 . S
C1967 C1966 1.399 . S
C1967 C1968 1.385 . S
C1968 H1954 0.931 . S
C1968 C1967 1.385 . S
C1968 C1969 1.398 . S
C1969 C1968 1.398 . S
C1969 C1970 1.403 . S
C1970 H1955 0.930 . S
C1970 C1965 1.390 . S
C1970 C1969 1.403 . S
H1971 C1983 0.930 . S
H1972 C1985 0.930 . S
H1973 C1986 0.930 1_655 S
H1974 C1990 0.959 . S
H1975 C1990 0.959 . S
H1976 C1990 0.961 . S
H1977 C1991 0.960 . S
H1978 C1991 0.961 . S
H1979 C1991 0.959 . S
H1980 C1994 0.929 . S
H1981 C1995 0.931 . S
H1982 C1997 0.930 . S
C1983 H1971 0.930 . S
C1983 C1984 1.399 1_455 S
C1983 C1988 1.399 . S
C1984 C1983 1.399 1_655 S
C1984 C1985 1.376 . S
C1985 H1972 0.930 . S
C1985 C1984 1.376 . S
C1985 C1986 1.388 1_655 S
C1986 H1973 0.930 1_455 S
C1986 C1985 1.388 1_455 S
C1986 C1987 1.390 . S
C1987 C1986 1.390 . S
C1987 C1988 1.394 . S
C1987 C1993 1.465 . S
C1988 C1983 1.399 . S
C1988 C1987 1.394 . S
C1988 C1989 1.516 . S
C1989 C1988 1.516 . S
C1989 C1990 1.502 . S
C1989 C1991 1.561 . S
C1989 C1992 1.526 . S
C1990 H1974 0.959 . S
C1990 H1975 0.959 . S
C1990 H1976 0.961 . S
C1990 C1989 1.502 . S
C1991 H1977 0.960 . S
C1991 H1978 0.961 . S
C1991 H1979 0.959 . S
C1991 C1989 1.561 . S
C1992 C1989 1.526 . S
C1992 C1993 1.396 . S
C1992 C1997 1.390 . S
C1993 C1987 1.465 . S
C1993 C1992 1.396 . S
C1993 C1994 1.399 . S
C1994 H1980 0.929 . S
C1994 C1993 1.399 . S
C1994 C1995 1.385 . S
C1995 H1981 0.931 . S
C1995 C1994 1.385 . S
C1995 C1996 1.389 . S
C1996 C1995 1.389 . S
C1996 C1997 1.387 . S
C1997 H1982 0.930 . S
C1997 C1992 1.390 . S
C1997 C1996 1.387 . S
H1998 C2010 0.930 . S
H1999 C2012 0.930 . S
H2000 C2013 0.930 . S
H2001 C2017 0.959 . S
H2002 C2017 0.959 . S
H2003 C2017 0.961 1_455 S
H2004 C2018 0.960 1_455 S
H2005 C2018 0.961 . S
H2006 C2018 0.959 . S
H2007 C2021 0.929 . S
H2008 C2022 0.931 . S
H2009 C2024 0.930 . S
C2010 H1998 0.930 . S
C2010 C2011 1.399 . S
C2010 C2015 1.399 . S
C2011 C2010 1.399 . S
C2011 C2012 1.376 . S
C2012 H1999 0.930 . S
C2012 C2011 1.376 . S
C2012 C2013 1.388 . S
C2013 H2000 0.930 . S
C2013 C2012 1.388 . S
C2013 C2014 1.390 . S
C2014 C2013 1.390 . S
C2014 C2015 1.394 . S
C2014 C2020 1.465 1_455 S
C2015 C2010 1.399 . S
C2015 C2014 1.394 . S
C2015 C2016 1.516 1_455 S
C2016 C2015 1.516 1_655 S
C2016 C2017 1.502 . S
C2016 C2018 1.561 . S
C2016 C2019 1.526 . S
C2017 H2001 0.959 . S
C2017 H2002 0.959 . S
C2017 H2003 0.961 1_655 S
C2017 C2016 1.502 . S
C2018 H2004 0.960 1_655 S
C2018 H2005 0.961 . S
C2018 H2006 0.959 . S
C2018 C2016 1.561 . S
C2019 C2016 1.526 . S
C2019 C2020 1.396 . S
C2019 C2024 1.390 . S
C2020 C2014 1.465 1_655 S
C2020 C2019 1.396 . S
C2020 C2021 1.399 . S
C2021 H2007 0.929 . S
C2021 C2020 1.399 . S
C2021 C2022 1.385 . S
C2022 H2008 0.931 . S
C2022 C2021 1.385 . S
C2022 C2023 1.389 . S
C2023 C2022 1.389 . S
C2023 C2024 1.387 . S
C2024 H2009 0.930 . S
C2024 C2019 1.390 . S
C2024 C2023 1.387 . S
H2025 C2037 0.930 . S
H2026 C2039 0.930 . S
H2027 C2040 0.930 . S
H2028 C2044 0.959 . S
H2029 C2044 0.959 . S
H2030 C2044 0.961 . S
H2031 C2045 0.960 . S
H2032 C2045 0.961 . S
H2033 C2045 0.959 . S
H2034 C2048 0.929 . S
H2035 C2049 0.931 . S
H2036 C2051 0.930 . S
C2037 H2025 0.930 . S
C2037 C2038 1.399 . S
C2037 C2042 1.399 . S
C2038 C2037 1.399 . S
C2038 C2039 1.376 . S
C2039 H2026 0.930 . S
C2039 C2038 1.376 . S
C2039 C2040 1.388 . S
C2040 H2027 0.930 . S
C2040 C2039 1.388 . S
C2040 C2041 1.390 . S
C2041 C2040 1.390 . S
C2041 C2042 1.394 . S
C2041 C2047 1.465 . S
C2042 C2037 1.399 . S
C2042 C2041 1.394 . S
C2042 C2043 1.516 . S
C2043 C2042 1.516 . S
C2043 C2044 1.502 . S
C2043 C2045 1.561 . S
C2043 C2046 1.526 . S
C2044 H2028 0.959 . S
C2044 H2029 0.959 . S
C2044 H2030 0.961 . S
C2044 C2043 1.502 . S
C2045 H2031 0.960 . S
C2045 H2032 0.961 . S
C2045 H2033 0.959 . S
C2045 C2043 1.561 . S
C2046 C2043 1.526 . S
C2046 C2047 1.396 . S
C2046 C2051 1.390 . S
C2047 C2041 1.465 . S
C2047 C2046 1.396 . S
C2047 C2048 1.399 . S
C2048 H2034 0.929 . S
C2048 C2047 1.399 . S
C2048 C2049 1.385 . S
C2049 H2035 0.931 . S
C2049 C2048 1.385 . S
C2049 C2050 1.389 . S
C2050 C2049 1.389 . S
C2050 C2051 1.387 . S
C2051 H2036 0.930 . S
C2051 C2046 1.390 . S
C2051 C2050 1.387 . S
H2052 C2064 0.930 . S
H2053 C2066 0.930 . S
H2054 C2067 0.930 . S
H2055 C2071 0.959 . S
H2056 C2071 0.959 . S
H2057 C2071 0.961 1_565 S
H2058 C2072 0.960 1_565 S
H2059 C2072 0.961 . S
H2060 C2072 0.959 . S
H2061 C2075 0.929 . S
H2062 C2076 0.931 . S
H2063 C2078 0.930 . S
C2064 H2052 0.930 . S
C2064 C2065 1.399 . S
C2064 C2069 1.399 . S
C2065 C2064 1.399 . S
C2065 C2066 1.376 . S
C2066 H2053 0.930 . S
C2066 C2065 1.376 . S
C2066 C2067 1.388 . S
C2067 H2054 0.930 . S
C2067 C2066 1.388 . S
C2067 C2068 1.390 . S
C2068 C2067 1.390 . S
C2068 C2069 1.394 . S
C2068 C2074 1.465 1_565 S
C2069 C2064 1.399 . S
C2069 C2068 1.394 . S
C2069 C2070 1.516 1_565 S
C2070 C2069 1.516 1_545 S
C2070 C2071 1.502 . S
C2070 C2072 1.561 . S
C2070 C2073 1.526 . S
C2071 H2055 0.959 . S
C2071 H2056 0.959 . S
C2071 H2057 0.961 1_545 S
C2071 C2070 1.502 . S
C2072 H2058 0.960 1_545 S
C2072 H2059 0.961 . S
C2072 H2060 0.959 . S
C2072 C2070 1.561 . S
C2073 C2070 1.526 . S
C2073 C2074 1.396 . S
C2073 C2078 1.390 . S
C2074 C2068 1.465 1_545 S
C2074 C2073 1.396 . S
C2074 C2075 1.399 . S
C2075 H2061 0.929 . S
C2075 C2074 1.399 . S
C2075 C2076 1.385 . S
C2076 H2062 0.931 . S
C2076 C2075 1.385 . S
C2076 C2077 1.389 . S
C2077 C2076 1.389 . S
C2077 C2078 1.387 . S
C2078 H2063 0.930 . S
C2078 C2073 1.390 . S
C2078 C2077 1.387 . S
H2079 C2091 0.930 . S
H2080 C2093 0.930 . S
H2081 C2094 0.930 . S
H2082 C2098 0.959 . S
H2083 C2098 0.959 1_565 S
H2084 C2098 0.961 . S
H2085 C2099 0.960 . S
H2086 C2099 0.961 1_565 S
H2087 C2099 0.960 . S
H2088 C2102 0.929 . S
H2089 C2103 0.931 . S
H2090 C2105 0.930 . S
C2091 H2079 0.930 . S
C2091 C2092 1.399 . S
C2091 C2096 1.399 . S
C2092 C2091 1.399 . S
C2092 C2093 1.376 . S
C2093 H2080 0.930 . S
C2093 C2092 1.376 . S
C2093 C2094 1.388 . S
C2094 H2081 0.930 . S
C2094 C2093 1.388 . S
C2094 C2095 1.390 . S
C2095 C2094 1.390 . S
C2095 C2096 1.394 . S
C2095 C2101 1.465 1_545 S
C2096 C2091 1.399 . S
C2096 C2095 1.394 . S
C2096 C2097 1.516 . S
C2097 C2096 1.516 . S
C2097 C2098 1.502 . S
C2097 C2099 1.561 . S
C2097 C2100 1.526 1_545 S
C2098 H2082 0.959 . S
C2098 H2083 0.959 1_545 S
C2098 H2084 0.961 . S
C2098 C2097 1.502 . S
C2099 H2085 0.960 . S
C2099 H2086 0.961 1_545 S
C2099 H2087 0.960 . S
C2099 C2097 1.561 . S
C2100 C2097 1.526 1_565 S
C2100 C2101 1.396 . S
C2100 C2105 1.390 . S
C2101 C2095 1.465 1_565 S
C2101 C2100 1.396 . S
C2101 C2102 1.399 . S
C2102 H2088 0.929 . S
C2102 C2101 1.399 . S
C2102 C2103 1.385 . S
C2103 H2089 0.931 . S
C2103 C2102 1.385 . S
C2103 C2104 1.389 . S
C2104 C2103 1.389 . S
C2104 C2105 1.387 . S
C2105 H2090 0.930 . S
C2105 C2100 1.390 . S
C2105 C2104 1.387 . S
H2106 C2118 0.930 . S
H2107 C2120 0.930 . S
H2108 C2121 0.930 . S
H2109 C2125 0.959 . S
H2110 C2125 0.959 . S
H2111 C2125 0.961 1_655 S
H2112 C2126 0.960 1_655 S
H2113 C2126 0.961 . S
H2114 C2126 0.959 . S
H2115 C2129 0.929 . S
H2116 C2130 0.931 . S
H2117 C2132 0.930 . S
C2118 H2106 0.930 . S
C2118 C2119 1.399 . S
C2118 C2123 1.399 . S
C2119 C2118 1.399 . S
C2119 C2120 1.376 . S
C2120 H2107 0.930 . S
C2120 C2119 1.376 . S
C2120 C2121 1.388 . S
C2121 H2108 0.930 . S
C2121 C2120 1.388 . S
C2121 C2122 1.390 . S
C2122 C2121 1.390 . S
C2122 C2123 1.394 . S
C2122 C2128 1.465 1_655 S
C2123 C2118 1.399 . S
C2123 C2122 1.394 . S
C2123 C2124 1.516 1_655 S
C2124 C2123 1.516 1_455 S
C2124 C2125 1.502 . S
C2124 C2126 1.561 . S
C2124 C2127 1.526 . S
C2125 H2109 0.959 . S
C2125 H2110 0.959 . S
C2125 H2111 0.961 1_455 S
C2125 C2124 1.502 . S
C2126 H2112 0.960 1_455 S
C2126 H2113 0.961 . S
C2126 H2114 0.959 . S
C2126 C2124 1.561 . S
C2127 C2124 1.526 . S
C2127 C2128 1.396 . S
C2127 C2132 1.390 . S
C2128 C2122 1.465 1_455 S
C2128 C2127 1.396 . S
C2128 C2129 1.399 . S
C2129 H2115 0.929 . S
C2129 C2128 1.399 . S
C2129 C2130 1.385 . S
C2130 H2116 0.931 . S
C2130 C2129 1.385 . S
C2130 C2131 1.389 . S
C2131 C2130 1.389 . S
C2131 C2132 1.387 . S
C2132 H2117 0.930 . S
C2132 C2127 1.390 . S
C2132 C2131 1.387 . S
H2133 C2145 0.930 . S
H2134 C2147 0.930 . S
H2135 C2148 0.930 . S
H2136 C2152 0.959 . S
H2137 C2152 0.959 . S
H2138 C2152 0.961 . S
H2139 C2153 0.960 . S
H2140 C2153 0.961 . S
H2141 C2153 0.959 . S
H2142 C2156 0.929 . S
H2143 C2157 0.931 . S
H2144 C2159 0.930 . S
C2145 H2133 0.930 . S
C2145 C2146 1.399 . S
C2145 C2150 1.399 . S
C2146 C2145 1.399 . S
C2146 C2147 1.376 . S
C2147 H2134 0.930 . S
C2147 C2146 1.376 . S
C2147 C2148 1.388 . S
C2148 H2135 0.930 . S
C2148 C2147 1.388 . S
C2148 C2149 1.390 . S
C2149 C2148 1.390 . S
C2149 C2150 1.394 . S
C2149 C2155 1.465 . S
C2150 C2145 1.399 . S
C2150 C2149 1.394 . S
C2150 C2151 1.516 . S
C2151 C2150 1.516 . S
C2151 C2152 1.502 . S
C2151 C2153 1.561 . S
C2151 C2154 1.526 . S
C2152 H2136 0.959 . S
C2152 H2137 0.959 . S
C2152 H2138 0.961 . S
C2152 C2151 1.502 . S
C2153 H2139 0.960 . S
C2153 H2140 0.961 . S
C2153 H2141 0.959 . S
C2153 C2151 1.561 . S
C2154 C2151 1.526 . S
C2154 C2155 1.396 . S
C2154 C2159 1.390 . S
C2155 C2149 1.465 . S
C2155 C2154 1.396 . S
C2155 C2156 1.399 . S
C2156 H2142 0.929 . S
C2156 C2155 1.399 . S
C2156 C2157 1.385 . S
C2157 H2143 0.931 . S
C2157 C2156 1.385 . S
C2157 C2158 1.389 . S
C2158 C2157 1.389 . S
C2158 C2159 1.387 . S
C2159 H2144 0.930 . S
C2159 C2154 1.390 . S
C2159 C2158 1.387 . S
H2160 C2172 0.930 . S
H2161 C2174 0.930 . S
H2162 C2175 0.930 . S
H2163 C2179 0.959 . S
H2164 C2179 0.959 . S
H2165 C2179 0.961 . S
H2166 C2180 0.960 . S
H2167 C2180 0.961 . S
H2168 C2180 0.959 . S
H2169 C2183 0.929 . S
H2170 C2184 0.931 . S
H2171 C2186 0.930 . S
C2172 H2160 0.930 . S
C2172 C2173 1.399 . S
C2172 C2177 1.399 . S
C2173 C2172 1.399 . S
C2173 C2174 1.376 . S
C2174 H2161 0.930 . S
C2174 C2173 1.376 . S
C2174 C2175 1.388 . S
C2175 H2162 0.930 . S
C2175 C2174 1.388 . S
C2175 C2176 1.390 . S
C2176 C2175 1.390 . S
C2176 C2177 1.394 . S
C2176 C2182 1.465 . S
C2177 C2172 1.399 . S
C2177 C2176 1.394 . S
C2177 C2178 1.516 . S
C2178 C2177 1.516 . S
C2178 C2179 1.502 . S
C2178 C2180 1.561 . S
C2178 C2181 1.526 . S
C2179 H2163 0.959 . S
C2179 H2164 0.959 . S
C2179 H2165 0.961 . S
C2179 C2178 1.502 . S
C2180 H2166 0.960 . S
C2180 H2167 0.961 . S
C2180 H2168 0.959 . S
C2180 C2178 1.561 . S
C2181 C2178 1.526 . S
C2181 C2182 1.396 . S
C2181 C2186 1.390 . S
C2182 C2176 1.465 . S
C2182 C2181 1.396 . S
C2182 C2183 1.399 . S
C2183 H2169 0.929 . S
C2183 C2182 1.399 . S
C2183 C2184 1.385 . S
C2184 H2170 0.931 . S
C2184 C2183 1.385 . S
C2184 C2185 1.389 . S
C2185 C2184 1.389 . S
C2185 C2186 1.387 . S
C2186 H2171 0.930 . S
C2186 C2181 1.390 . S
C2186 C2185 1.387 . S
H2187 C2199 0.930 . S
H2188 C2201 0.930 . S
H2189 C2202 0.930 . S
H2190 C2206 0.959 . S
H2191 C2206 0.959 . S
H2192 C2206 0.961 . S
H2193 C2207 0.960 . S
H2194 C2207 0.961 . S
H2195 C2207 0.959 . S
H2196 C2210 0.929 . S
H2197 C2211 0.931 . S
H2198 C2213 0.930 . S
C2199 H2187 0.930 . S
C2199 C2200 1.399 . S
C2199 C2204 1.399 . S
C2200 C2199 1.399 . S
C2200 C2201 1.376 . S
C2201 H2188 0.930 . S
C2201 C2200 1.376 . S
C2201 C2202 1.388 . S
C2202 H2189 0.930 . S
C2202 C2201 1.388 . S
C2202 C2203 1.390 . S
C2203 C2202 1.390 . S
C2203 C2204 1.394 . S
C2203 C2209 1.465 . S
C2204 C2199 1.399 . S
C2204 C2203 1.394 . S
C2204 C2205 1.516 . S
C2205 C2204 1.516 . S
C2205 C2206 1.502 . S
C2205 C2207 1.561 . S
C2205 C2208 1.526 . S
C2206 H2190 0.959 . S
C2206 H2191 0.959 . S
C2206 H2192 0.961 . S
C2206 C2205 1.502 . S
C2207 H2193 0.960 . S
C2207 H2194 0.961 . S
C2207 H2195 0.959 . S
C2207 C2205 1.561 . S
C2208 C2205 1.526 . S
C2208 C2209 1.396 . S
C2208 C2213 1.390 . S
C2209 C2203 1.465 . S
C2209 C2208 1.396 . S
C2209 C2210 1.399 . S
C2210 H2196 0.929 . S
C2210 C2209 1.399 . S
C2210 C2211 1.385 . S
C2211 H2197 0.931 . S
C2211 C2210 1.385 . S
C2211 C2212 1.389 . S
C2212 C2211 1.389 . S
C2212 C2213 1.387 . S
C2213 H2198 0.930 . S
C2213 C2208 1.390 . S
C2213 C2212 1.387 . S
H2214 C2226 0.930 . S
H2215 C2228 0.930 . S
H2216 C2229 0.930 . S
H2217 C2233 0.959 . S
H2218 C2233 0.959 . S
H2219 C2233 0.961 . S
H2220 C2234 0.960 . S
H2221 C2234 0.961 . S
H2222 C2234 0.959 . S
H2223 C2237 0.929 . S
H2224 C2238 0.931 . S
H2225 C2240 0.930 . S
C2226 H2214 0.930 . S
C2226 C2227 1.399 . S
C2226 C2231 1.399 . S
C2227 C2226 1.399 . S
C2227 C2228 1.376 . S
C2228 H2215 0.930 . S
C2228 C2227 1.376 . S
C2228 C2229 1.388 . S
C2229 H2216 0.930 . S
C2229 C2228 1.388 . S
C2229 C2230 1.390 . S
C2230 C2229 1.390 . S
C2230 C2231 1.394 . S
C2230 C2236 1.465 . S
C2231 C2226 1.399 . S
C2231 C2230 1.394 . S
C2231 C2232 1.516 . S
C2232 C2231 1.516 . S
C2232 C2233 1.502 . S
C2232 C2234 1.561 . S
C2232 C2235 1.526 . S
C2233 H2217 0.959 . S
C2233 H2218 0.959 . S
C2233 H2219 0.961 . S
C2233 C2232 1.502 . S
C2234 H2220 0.960 . S
C2234 H2221 0.961 . S
C2234 H2222 0.959 . S
C2234 C2232 1.561 . S
C2235 C2232 1.526 . S
C2235 C2236 1.396 . S
C2235 C2240 1.390 . S
C2236 C2230 1.465 . S
C2236 C2235 1.396 . S
C2236 C2237 1.399 . S
C2237 H2223 0.929 . S
C2237 C2236 1.399 . S
C2237 C2238 1.385 . S
C2238 H2224 0.931 . S
C2238 C2237 1.385 . S
C2238 C2239 1.389 . S
C2239 C2238 1.389 . S
C2239 C2240 1.387 . S
C2240 H2225 0.930 . S
C2240 C2235 1.390 . S
C2240 C2239 1.387 . S
H2241 C2253 0.930 . S
H2242 C2255 0.930 . S
H2243 C2256 0.930 . S
H2244 C2260 0.959 . S
H2245 C2260 0.959 . S
H2246 C2260 0.961 . S
H2247 C2261 0.960 . S
H2248 C2261 0.961 . S
H2249 C2261 0.959 . S
H2250 C2264 0.929 . S
H2251 C2265 0.931 . S
H2252 C2267 0.930 . S
C2253 H2241 0.930 . S
C2253 C2254 1.399 . S
C2253 C2258 1.399 . S
C2254 C2253 1.399 . S
C2254 C2255 1.376 . S
C2255 H2242 0.930 . S
C2255 C2254 1.376 . S
C2255 C2256 1.388 . S
C2256 H2243 0.930 . S
C2256 C2255 1.388 . S
C2256 C2257 1.390 . S
C2257 C2256 1.390 . S
C2257 C2258 1.394 . S
C2257 C2263 1.465 . S
C2258 C2253 1.399 . S
C2258 C2257 1.394 . S
C2258 C2259 1.516 . S
C2259 C2258 1.516 . S
C2259 C2260 1.502 . S
C2259 C2261 1.561 . S
C2259 C2262 1.526 . S
C2260 H2244 0.959 . S
C2260 H2245 0.959 . S
C2260 H2246 0.961 . S
C2260 C2259 1.502 . S
C2261 H2247 0.960 . S
C2261 H2248 0.961 . S
C2261 H2249 0.959 . S
C2261 C2259 1.561 . S
C2262 C2259 1.526 . S
C2262 C2263 1.396 . S
C2262 C2267 1.390 . S
C2263 C2257 1.465 . S
C2263 C2262 1.396 . S
C2263 C2264 1.399 . S
C2264 H2250 0.929 . S
C2264 C2263 1.399 . S
C2264 C2265 1.385 . S
C2265 H2251 0.931 . S
C2265 C2264 1.385 . S
C2265 C2266 1.389 . S
C2266 C2265 1.389 . S
C2266 C2267 1.387 . S
C2267 H2252 0.930 . S
C2267 C2262 1.390 . S
C2267 C2266 1.387 . S
H2268 C2280 0.930 . S
H2269 C2282 0.930 . S
H2270 C2283 0.930 . S
H2271 C2287 0.959 . S
H2272 C2287 0.959 . S
H2273 C2287 0.961 . S
H2274 C2288 0.960 . S
H2275 C2288 0.961 . S
H2276 C2288 0.959 . S
H2277 C2291 0.929 . S
H2278 C2292 0.931 . S
H2279 C2294 0.930 . S
C2280 H2268 0.930 . S
C2280 C2281 1.399 . S
C2280 C2285 1.399 . S
C2281 C2280 1.399 . S
C2281 C2282 1.376 . S
C2282 H2269 0.930 . S
C2282 C2281 1.376 . S
C2282 C2283 1.388 . S
C2283 H2270 0.930 . S
C2283 C2282 1.388 . S
C2283 C2284 1.390 . S
C2284 C2283 1.390 . S
C2284 C2285 1.394 . S
C2284 C2290 1.465 . S
C2285 C2280 1.399 . S
C2285 C2284 1.394 . S
C2285 C2286 1.516 . S
C2286 C2285 1.516 . S
C2286 C2287 1.502 . S
C2286 C2288 1.561 . S
C2286 C2289 1.526 . S
C2287 H2271 0.959 . S
C2287 H2272 0.959 . S
C2287 H2273 0.961 . S
C2287 C2286 1.502 . S
C2288 H2274 0.960 . S
C2288 H2275 0.961 . S
C2288 H2276 0.959 . S
C2288 C2286 1.561 . S
C2289 C2286 1.526 . S
C2289 C2290 1.396 . S
C2289 C2294 1.390 . S
C2290 C2284 1.465 . S
C2290 C2289 1.396 . S
C2290 C2291 1.399 . S
C2291 H2277 0.929 . S
C2291 C2290 1.399 . S
C2291 C2292 1.385 . S
C2292 H2278 0.931 . S
C2292 C2291 1.385 . S
C2292 C2293 1.389 . S
C2293 C2292 1.389 . S
C2293 C2294 1.387 . S
C2294 H2279 0.930 . S
C2294 C2289 1.390 . S
C2294 C2293 1.387 . S
H2295 C2307 0.930 . S
H2296 C2309 0.930 . S
H2297 C2310 0.930 . S
H2298 C2314 0.959 . S
H2299 C2314 0.959 . S
H2300 C2314 0.961 . S
H2301 C2315 0.960 . S
H2302 C2315 0.961 . S
H2303 C2315 0.959 . S
H2304 C2318 0.929 . S
H2305 C2319 0.931 . S
H2306 C2321 0.930 . S
C2307 H2295 0.930 . S
C2307 C2308 1.399 . S
C2307 C2312 1.399 . S
C2308 C2307 1.399 . S
C2308 C2309 1.376 . S
C2309 H2296 0.930 . S
C2309 C2308 1.376 . S
C2309 C2310 1.388 . S
C2310 H2297 0.930 . S
C2310 C2309 1.388 . S
C2310 C2311 1.390 . S
C2311 C2310 1.390 . S
C2311 C2312 1.394 . S
C2311 C2317 1.465 . S
C2312 C2307 1.399 . S
C2312 C2311 1.394 . S
C2312 C2313 1.516 . S
C2313 C2312 1.516 . S
C2313 C2314 1.502 . S
C2313 C2315 1.561 . S
C2313 C2316 1.526 . S
C2314 H2298 0.959 . S
C2314 H2299 0.959 . S
C2314 H2300 0.961 . S
C2314 C2313 1.502 . S
C2315 H2301 0.960 . S
C2315 H2302 0.961 . S
C2315 H2303 0.959 . S
C2315 C2313 1.561 . S
C2316 C2313 1.526 . S
C2316 C2317 1.396 . S
C2316 C2321 1.390 . S
C2317 C2311 1.465 . S
C2317 C2316 1.396 . S
C2317 C2318 1.399 . S
C2318 H2304 0.929 . S
C2318 C2317 1.399 . S
C2318 C2319 1.385 . S
C2319 H2305 0.931 . S
C2319 C2318 1.385 . S
C2319 C2320 1.389 . S
C2320 C2319 1.389 . S
C2320 C2321 1.387 . S
C2321 H2306 0.930 . S
C2321 C2316 1.390 . S
C2321 C2320 1.387 . S
H2322 C2334 0.930 . S
H2323 C2336 0.930 . S
H2324 C2337 0.930 . S
H2325 C2341 0.959 . S
H2326 C2341 0.959 . S
H2327 C2341 0.961 . S
H2328 C2342 0.960 . S
H2329 C2342 0.961 . S
H2330 C2342 0.959 . S
H2331 C2345 0.929 . S
H2332 C2346 0.931 . S
H2333 C2348 0.930 . S
C2334 H2322 0.930 . S
C2334 C2335 1.399 . S
C2334 C2339 1.399 . S
C2335 C2334 1.399 . S
C2335 C2336 1.376 . S
C2336 H2323 0.930 . S
C2336 C2335 1.376 . S
C2336 C2337 1.388 . S
C2337 H2324 0.930 . S
C2337 C2336 1.388 . S
C2337 C2338 1.390 . S
C2338 C2337 1.390 . S
C2338 C2339 1.394 . S
C2338 C2344 1.465 . S
C2339 C2334 1.399 . S
C2339 C2338 1.394 . S
C2339 C2340 1.516 . S
C2340 C2339 1.516 . S
C2340 C2341 1.502 . S
C2340 C2342 1.561 . S
C2340 C2343 1.526 . S
C2341 H2325 0.959 . S
C2341 H2326 0.959 . S
C2341 H2327 0.961 . S
C2341 C2340 1.502 . S
C2342 H2328 0.960 . S
C2342 H2329 0.961 . S
C2342 H2330 0.959 . S
C2342 C2340 1.561 . S
C2343 C2340 1.526 . S
C2343 C2344 1.396 . S
C2343 C2348 1.390 . S
C2344 C2338 1.465 . S
C2344 C2343 1.396 . S
C2344 C2345 1.399 . S
C2345 H2331 0.929 . S
C2345 C2344 1.399 . S
C2345 C2346 1.385 . S
C2346 H2332 0.931 . S
C2346 C2345 1.385 . S
C2346 C2347 1.389 . S
C2347 C2346 1.389 . S
C2347 C2348 1.387 . S
C2348 H2333 0.930 . S
C2348 C2343 1.390 . S
C2348 C2347 1.387 . S
H2349 C2361 0.930 . S
H2350 C2363 0.930 . S
H2351 C2364 0.930 . S
H2352 C2368 0.959 . S
H2353 C2368 0.959 . S
H2354 C2368 0.961 . S
H2355 C2369 0.960 . S
H2356 C2369 0.961 . S
H2357 C2369 0.959 . S
H2358 C2372 0.929 . S
H2359 C2373 0.931 . S
H2360 C2375 0.930 . S
C2361 H2349 0.930 . S
C2361 C2362 1.399 . S
C2361 C2366 1.399 . S
C2362 C2361 1.399 . S
C2362 C2363 1.376 . S
C2363 H2350 0.930 . S
C2363 C2362 1.376 . S
C2363 C2364 1.388 . S
C2364 H2351 0.930 . S
C2364 C2363 1.388 . S
C2364 C2365 1.390 . S
C2365 C2364 1.390 . S
C2365 C2366 1.394 . S
C2365 C2371 1.465 . S
C2366 C2361 1.399 . S
C2366 C2365 1.394 . S
C2366 C2367 1.516 . S
C2367 C2366 1.516 . S
C2367 C2368 1.502 . S
C2367 C2369 1.561 . S
C2367 C2370 1.526 . S
C2368 H2352 0.959 . S
C2368 H2353 0.959 . S
C2368 H2354 0.961 . S
C2368 C2367 1.502 . S
C2369 H2355 0.960 . S
C2369 H2356 0.961 . S
C2369 H2357 0.959 . S
C2369 C2367 1.561 . S
C2370 C2367 1.526 . S
C2370 C2371 1.396 . S
C2370 C2375 1.390 . S
C2371 C2365 1.465 . S
C2371 C2370 1.396 . S
C2371 C2372 1.399 . S
C2372 H2358 0.929 . S
C2372 C2371 1.399 . S
C2372 C2373 1.385 . S
C2373 H2359 0.931 . S
C2373 C2372 1.385 . S
C2373 C2374 1.389 . S
C2374 C2373 1.389 . S
C2374 C2375 1.387 . S
C2375 H2360 0.930 . S
C2375 C2370 1.390 . S
C2375 C2374 1.387 . S
H2376 C2388 0.930 . S
H2377 C2390 0.930 . S
H2378 C2391 0.930 . S
H2379 C2395 0.959 . S
H2380 C2395 0.959 . S
H2381 C2395 0.961 . S
H2382 C2396 0.960 . S
H2383 C2396 0.961 . S
H2384 C2396 0.959 . S
H2385 C2399 0.929 . S
H2386 C2400 0.931 . S
H2387 C2402 0.930 . S
C2388 H2376 0.930 . S
C2388 C2389 1.399 . S
C2388 C2393 1.399 . S
C2389 C2388 1.399 . S
C2389 C2390 1.376 . S
C2390 H2377 0.930 . S
C2390 C2389 1.376 . S
C2390 C2391 1.388 . S
C2391 H2378 0.930 . S
C2391 C2390 1.388 . S
C2391 C2392 1.390 . S
C2392 C2391 1.390 . S
C2392 C2393 1.394 . S
C2392 C2398 1.465 . S
C2393 C2388 1.399 . S
C2393 C2392 1.394 . S
C2393 C2394 1.516 . S
C2394 C2393 1.516 . S
C2394 C2395 1.502 . S
C2394 C2396 1.561 . S
C2394 C2397 1.526 . S
C2395 H2379 0.959 . S
C2395 H2380 0.959 . S
C2395 H2381 0.961 . S
C2395 C2394 1.502 . S
C2396 H2382 0.960 . S
C2396 H2383 0.961 . S
C2396 H2384 0.959 . S
C2396 C2394 1.561 . S
C2397 C2394 1.526 . S
C2397 C2398 1.396 . S
C2397 C2402 1.390 . S
C2398 C2392 1.465 . S
C2398 C2397 1.396 . S
C2398 C2399 1.399 . S
C2399 H2385 0.929 . S
C2399 C2398 1.399 . S
C2399 C2400 1.385 . S
C2400 H2386 0.931 . S
C2400 C2399 1.385 . S
C2400 C2401 1.389 . S
C2401 C2400 1.389 . S
C2401 C2402 1.387 . S
C2402 H2387 0.930 . S
C2402 C2397 1.390 . S
C2402 C2401 1.387 . S
H2403 C2415 0.930 . S
H2404 C2417 0.930 . S
H2405 C2418 0.930 . S
H2406 C2422 0.959 . S
H2407 C2422 0.959 . S
H2408 C2422 0.961 . S
H2409 C2423 0.960 . S
H2410 C2423 0.961 . S
H2411 C2423 0.959 . S
H2412 C2426 0.929 . S
H2413 C2427 0.931 . S
H2414 C2429 0.930 . S
C2415 H2403 0.930 . S
C2415 C2416 1.399 . S
C2415 C2420 1.399 . S
C2416 C2415 1.399 . S
C2416 C2417 1.376 . S
C2417 H2404 0.930 . S
C2417 C2416 1.376 . S
C2417 C2418 1.388 . S
C2418 H2405 0.930 . S
C2418 C2417 1.388 . S
C2418 C2419 1.390 . S
C2419 C2418 1.390 . S
C2419 C2420 1.394 . S
C2419 C2425 1.465 . S
C2420 C2415 1.399 . S
C2420 C2419 1.394 . S
C2420 C2421 1.516 . S
C2421 C2420 1.516 . S
C2421 C2422 1.502 . S
C2421 C2423 1.561 . S
C2421 C2424 1.526 . S
C2422 H2406 0.959 . S
C2422 H2407 0.959 . S
C2422 H2408 0.961 . S
C2422 C2421 1.502 . S
C2423 H2409 0.960 . S
C2423 H2410 0.961 . S
C2423 H2411 0.959 . S
C2423 C2421 1.561 . S
C2424 C2421 1.526 . S
C2424 C2425 1.396 . S
C2424 C2429 1.390 . S
C2425 C2419 1.465 . S
C2425 C2424 1.396 . S
C2425 C2426 1.399 . S
C2426 H2412 0.929 . S
C2426 C2425 1.399 . S
C2426 C2427 1.385 . S
C2427 H2413 0.931 . S
C2427 C2426 1.385 . S
C2427 C2428 1.389 . S
C2428 C2427 1.389 . S
C2428 C2429 1.387 . S
C2429 H2414 0.930 . S
C2429 C2424 1.390 . S
C2429 C2428 1.387 . S
H2430 C2442 0.930 . S
H2431 C2444 0.930 . S
H2432 C2445 0.930 . S
H2433 C2449 0.959 . S
H2434 C2449 0.959 . S
H2435 C2449 0.961 . S
H2436 C2450 0.960 . S
H2437 C2450 0.961 . S
H2438 C2450 0.959 . S
H2439 C2453 0.929 . S
H2440 C2454 0.931 . S
H2441 C2456 0.930 . S
C2442 H2430 0.930 . S
C2442 C2443 1.399 . S
C2442 C2447 1.399 . S
C2443 C2442 1.399 . S
C2443 C2444 1.376 . S
C2444 H2431 0.930 . S
C2444 C2443 1.376 . S
C2444 C2445 1.388 . S
C2445 H2432 0.930 . S
C2445 C2444 1.388 . S
C2445 C2446 1.390 . S
C2446 C2445 1.390 . S
C2446 C2447 1.394 . S
C2446 C2452 1.465 . S
C2447 C2442 1.399 . S
C2447 C2446 1.394 . S
C2447 C2448 1.516 . S
C2448 C2447 1.516 . S
C2448 C2449 1.502 . S
C2448 C2450 1.561 . S
C2448 C2451 1.526 . S
C2449 H2433 0.959 . S
C2449 H2434 0.959 . S
C2449 H2435 0.961 . S
C2449 C2448 1.502 . S
C2450 H2436 0.960 . S
C2450 H2437 0.961 . S
C2450 H2438 0.959 . S
C2450 C2448 1.561 . S
C2451 C2448 1.526 . S
C2451 C2452 1.396 . S
C2451 C2456 1.390 . S
C2452 C2446 1.465 . S
C2452 C2451 1.396 . S
C2452 C2453 1.399 . S
C2453 H2439 0.929 . S
C2453 C2452 1.399 . S
C2453 C2454 1.385 . S
C2454 H2440 0.931 . S
C2454 C2453 1.385 . S
C2454 C2455 1.389 . S
C2455 C2454 1.389 . S
C2455 C2456 1.387 . S
C2456 H2441 0.930 . S
C2456 C2451 1.390 . S
C2456 C2455 1.387 . S
H2457 C2469 0.930 . S
H2458 C2471 0.930 . S
H2459 C2472 0.930 . S
H2460 C2476 0.959 . S
H2461 C2476 0.959 . S
H2462 C2476 0.961 . S
H2463 C2477 0.960 . S
H2464 C2477 0.961 . S
H2465 C2477 0.959 . S
H2466 C2480 0.929 . S
H2467 C2481 0.931 . S
H2468 C2483 0.930 . S
C2469 H2457 0.930 . S
C2469 C2470 1.399 . S
C2469 C2474 1.399 . S
C2470 C2469 1.399 . S
C2470 C2471 1.376 . S
C2471 H2458 0.930 . S
C2471 C2470 1.376 . S
C2471 C2472 1.388 . S
C2472 H2459 0.930 . S
C2472 C2471 1.388 . S
C2472 C2473 1.390 . S
C2473 C2472 1.390 . S
C2473 C2474 1.394 . S
C2473 C2479 1.465 . S
C2474 C2469 1.399 . S
C2474 C2473 1.394 . S
C2474 C2475 1.516 . S
C2475 C2474 1.516 . S
C2475 C2476 1.502 . S
C2475 C2477 1.561 . S
C2475 C2478 1.526 . S
C2476 H2460 0.959 . S
C2476 H2461 0.959 . S
C2476 H2462 0.961 . S
C2476 C2475 1.502 . S
C2477 H2463 0.960 . S
C2477 H2464 0.961 . S
C2477 H2465 0.959 . S
C2477 C2475 1.561 . S
C2478 C2475 1.526 . S
C2478 C2479 1.396 . S
C2478 C2483 1.390 . S
C2479 C2473 1.465 . S
C2479 C2478 1.396 . S
C2479 C2480 1.399 . S
C2480 H2466 0.929 . S
C2480 C2479 1.399 . S
C2480 C2481 1.385 . S
C2481 H2467 0.931 . S
C2481 C2480 1.385 . S
C2481 C2482 1.389 . S
C2482 C2481 1.389 . S
C2482 C2483 1.387 . S
C2483 H2468 0.930 . S
C2483 C2478 1.390 . S
C2483 C2482 1.387 . S
H2484 C2496 0.930 . S
H2485 C2498 0.930 . S
H2486 C2499 0.930 . S
H2487 C2503 0.959 . S
H2488 C2503 0.959 . S
H2489 C2503 0.961 . S
H2490 C2504 0.960 . S
H2491 C2504 0.961 . S
H2492 C2504 0.959 . S
H2493 C2507 0.929 . S
H2494 C2508 0.931 . S
H2495 C2510 0.930 . S
C2496 H2484 0.930 . S
C2496 C2497 1.399 . S
C2496 C2501 1.399 . S
C2497 C2496 1.399 . S
C2497 C2498 1.376 . S
C2498 H2485 0.930 . S
C2498 C2497 1.376 . S
C2498 C2499 1.388 1_655 S
C2499 H2486 0.930 . S
C2499 C2498 1.388 1_455 S
C2499 C2500 1.390 . S
C2500 C2499 1.390 . S
C2500 C2501 1.394 1_455 S
C2500 C2506 1.465 . S
C2501 C2496 1.399 . S
C2501 C2500 1.394 1_655 S
C2501 C2502 1.516 . S
C2502 C2501 1.516 . S
C2502 C2503 1.502 . S
C2502 C2504 1.561 . S
C2502 C2505 1.526 1_655 S
C2503 H2487 0.959 . S
C2503 H2488 0.959 . S
C2503 H2489 0.961 . S
C2503 C2502 1.502 . S
C2504 H2490 0.960 . S
C2504 H2491 0.961 . S
C2504 H2492 0.959 . S
C2504 C2502 1.561 . S
C2505 C2502 1.526 1_455 S
C2505 C2506 1.396 . S
C2505 C2510 1.390 . S
C2506 C2500 1.465 . S
C2506 C2505 1.396 . S
C2506 C2507 1.399 . S
C2507 H2493 0.929 . S
C2507 C2506 1.399 . S
C2507 C2508 1.385 . S
C2508 H2494 0.931 . S
C2508 C2507 1.385 . S
C2508 C2509 1.389 . S
C2509 C2508 1.389 . S
C2509 C2510 1.387 . S
C2510 H2495 0.930 . S
C2510 C2505 1.390 . S
C2510 C2509 1.387 . S
H2511 C2523 0.930 . S
H2512 C2525 0.930 . S
H2513 C2526 0.930 . S
H2514 C2530 0.959 . S
H2515 C2530 0.959 . S
H2516 C2530 0.961 . S
H2517 C2531 0.960 . S
H2518 C2531 0.961 . S
H2519 C2531 0.959 . S
H2520 C2534 0.929 . S
H2521 C2535 0.931 . S
H2522 C2537 0.930 . S
C2523 H2511 0.930 . S
C2523 C2524 1.399 . S
C2523 C2528 1.399 . S
C2524 C2523 1.399 . S
C2524 C2525 1.376 . S
C2525 H2512 0.930 . S
C2525 C2524 1.376 . S
C2525 C2526 1.388 . S
C2526 H2513 0.930 . S
C2526 C2525 1.388 . S
C2526 C2527 1.390 . S
C2527 C2526 1.390 . S
C2527 C2528 1.394 . S
C2527 C2533 1.465 . S
C2528 C2523 1.399 . S
C2528 C2527 1.394 . S
C2528 C2529 1.516 . S
C2529 C2528 1.516 . S
C2529 C2530 1.502 . S
C2529 C2531 1.561 . S
C2529 C2532 1.526 . S
C2530 H2514 0.959 . S
C2530 H2515 0.959 . S
C2530 H2516 0.961 . S
C2530 C2529 1.502 . S
C2531 H2517 0.960 . S
C2531 H2518 0.961 . S
C2531 H2519 0.959 . S
C2531 C2529 1.561 . S
C2532 C2529 1.526 . S
C2532 C2533 1.396 . S
C2532 C2537 1.390 . S
C2533 C2527 1.465 . S
C2533 C2532 1.396 . S
C2533 C2534 1.399 . S
C2534 H2520 0.929 . S
C2534 C2533 1.399 . S
C2534 C2535 1.385 . S
C2535 H2521 0.931 . S
C2535 C2534 1.385 . S
C2535 C2536 1.389 . S
C2536 C2535 1.389 . S
C2536 C2537 1.387 . S
C2537 H2522 0.930 . S
C2537 C2532 1.390 . S
C2537 C2536 1.387 . S
H2538 C2550 0.930 . S
H2539 C2552 0.930 . S
H2540 C2553 0.930 . S
H2541 C2557 0.959 . S
H2542 C2557 0.959 . S
H2543 C2557 0.961 . S
H2544 C2558 0.960 . S
H2545 C2558 0.961 . S
H2546 C2558 0.959 . S
H2547 C2561 0.929 . S
H2548 C2562 0.931 . S
H2549 C2564 0.930 . S
C2550 H2538 0.930 . S
C2550 C2551 1.399 . S
C2550 C2555 1.399 . S
C2551 C2550 1.399 . S
C2551 C2552 1.376 . S
C2552 H2539 0.930 . S
C2552 C2551 1.376 . S
C2552 C2553 1.388 . S
C2553 H2540 0.930 . S
C2553 C2552 1.388 . S
C2553 C2554 1.390 . S
C2554 C2553 1.390 . S
C2554 C2555 1.394 . S
C2554 C2560 1.465 1_545 S
C2555 C2550 1.399 . S
C2555 C2554 1.394 . S
C2555 C2556 1.516 . S
C2556 C2555 1.516 . S
C2556 C2557 1.502 1_545 S
C2556 C2558 1.561 . S
C2556 C2559 1.526 1_545 S
C2557 H2541 0.959 . S
C2557 H2542 0.959 . S
C2557 H2543 0.961 . S
C2557 C2556 1.502 1_565 S
C2558 H2544 0.960 . S
C2558 H2545 0.961 . S
C2558 H2546 0.959 . S
C2558 C2556 1.561 . S
C2559 C2556 1.526 1_565 S
C2559 C2560 1.396 . S
C2559 C2564 1.390 . S
C2560 C2554 1.465 1_565 S
C2560 C2559 1.396 . S
C2560 C2561 1.399 . S
C2561 H2547 0.929 . S
C2561 C2560 1.399 . S
C2561 C2562 1.385 . S
C2562 H2548 0.931 . S
C2562 C2561 1.385 . S
C2562 C2563 1.389 . S
C2563 C2562 1.389 . S
C2563 C2564 1.387 . S
C2564 H2549 0.930 . S
C2564 C2559 1.390 . S
C2564 C2563 1.387 . S
H2565 C2577 0.945 . S
H2566 C2579 0.930 . S
H2567 C2580 0.930 1_545 S
H2568 C2584 0.959 1_545 S
H2569 C2584 0.959 . S
H2570 C2584 0.961 . S
H2571 C2585 0.960 . S
H2572 C2585 0.961 . S
H2573 C2585 0.959 . S
H2574 C2588 0.929 . S
H2575 C2589 0.931 . S
H2576 C2591 0.930 . S
C2577 H2565 0.945 . S
C2577 C2578 1.399 . S
C2577 C2582 1.399 . S
C2578 C2577 1.399 . S
C2578 C2579 1.376 . S
C2579 H2566 0.930 . S
C2579 C2578 1.376 . S
C2579 C2580 1.388 . S
C2580 H2567 0.930 1_565 S
C2580 C2579 1.388 . S
C2580 C2581 1.390 . S
C2581 C2580 1.390 . S
C2581 C2582 1.394 . S
C2581 C2587 1.465 1_565 S
C2582 C2577 1.399 . S
C2582 C2581 1.394 . S
C2582 C2583 1.516 1_554 S
C2583 C2582 1.516 1_556 S
C2583 C2584 1.502 . S
C2583 C2585 1.561 . S
C2583 C2586 1.526 1_565 S
C2584 H2568 0.959 1_565 S
C2584 H2569 0.959 . S
C2584 H2570 0.961 . S
C2584 C2583 1.502 . S
C2585 H2571 0.960 . S
C2585 H2572 0.961 . S
C2585 H2573 0.959 . S
C2585 C2583 1.561 . S
C2586 C2583 1.526 1_545 S
C2586 C2587 1.396 1_556 S
C2586 C2591 1.390 . S
C2587 C2581 1.465 1_545 S
C2587 C2586 1.396 1_554 S
C2587 C2588 1.399 . S
C2588 H2574 0.929 . S
C2588 C2587 1.399 . S
C2588 C2589 1.385 1_554 S
C2589 H2575 0.931 . S
C2589 C2588 1.385 1_556 S
C2589 C2590 1.389 . S
C2590 C2589 1.389 . S
C2590 C2591 1.387 . S
C2591 H2576 0.930 . S
C2591 C2586 1.390 . S
C2591 C2590 1.387 . S
H2592 C2604 0.942 . S
H2593 C2606 0.930 . S
H2594 C2607 0.930 . S
H2595 C2611 0.959 . S
H2596 C2611 0.959 . S
H2597 C2611 0.961 . S
H2598 C2612 0.960 . S
H2599 C2612 0.962 1_455 S
H2600 C2612 0.959 1_455 S
H2601 C2615 0.929 . S
H2602 C2616 0.931 . S
H2603 C2618 0.930 . S
C2604 H2592 0.942 . S
C2604 C2605 1.399 . S
C2604 C2609 1.399 . S
C2605 C2604 1.399 . S
C2605 C2606 1.376 . S
C2606 H2593 0.930 . S
C2606 C2605 1.376 . S
C2606 C2607 1.388 1_655 S
C2607 H2594 0.930 . S
C2607 C2606 1.388 1_455 S
C2607 C2608 1.395 . S
C2608 C2607 1.395 . S
C2608 C2609 1.381 1_455 S
C2608 C2614 1.471 . S
C2609 C2604 1.399 . S
C2609 C2608 1.381 1_655 S
C2609 C2610 1.516 1_556 S
C2610 C2609 1.516 1_554 S
C2610 C2611 1.502 . S
C2610 C2612 1.561 . S
C2610 C2613 1.526 1_655 S
C2611 H2595 0.959 . S
C2611 H2596 0.959 . S
C2611 H2597 0.961 . S
C2611 C2610 1.502 . S
C2612 H2598 0.960 . S
C2612 H2599 0.962 1_655 S
C2612 H2600 0.959 1_655 S
C2612 C2610 1.561 . S
C2613 C2610 1.526 1_455 S
C2613 C2614 1.396 1_554 S
C2613 C2618 1.390 . S
C2614 C2608 1.471 . S
C2614 C2613 1.396 1_556 S
C2614 C2615 1.399 . S
C2615 H2601 0.929 . S
C2615 C2614 1.399 . S
C2615 C2616 1.385 1_556 S
C2616 H2602 0.931 . S
C2616 C2615 1.385 1_554 S
C2616 C2617 1.389 . S
C2617 C2616 1.389 . S
C2617 C2618 1.387 . S
C2618 H2603 0.930 . S
C2618 C2613 1.390 . S
C2618 C2617 1.387 . S
H2619 C2631 0.931 1_556 S
H2620 C2633 0.930 . S
H2621 C2634 0.930 . S
H2622 C2638 0.959 . S
H2623 C2638 0.959 . S
H2624 C2638 0.961 . S
H2625 C2639 0.960 . S
H2626 C2639 0.961 . S
H2627 C2639 0.959 . S
H2628 C2642 0.929 . S
H2629 C2643 0.931 . S
H2630 C2645 0.930 . S
C2631 H2619 0.931 1_554 S
C2631 C2632 1.399 . S
C2631 C2636 1.399 . S
C2632 C2631 1.399 . S
C2632 C2633 1.376 . S
C2633 H2620 0.930 . S
C2633 C2632 1.376 . S
C2633 C2634 1.388 . S
C2634 H2621 0.930 . S
C2634 C2633 1.388 . S
C2634 C2635 1.390 . S
C2635 C2634 1.390 . S
C2635 C2636 1.394 . S
C2635 C2641 1.465 . S
C2636 C2631 1.399 . S
C2636 C2635 1.394 . S
C2636 C2637 1.516 1_554 S
C2637 C2636 1.516 1_556 S
C2637 C2638 1.502 . S
C2637 C2639 1.561 . S
C2637 C2640 1.526 . S
C2638 H2622 0.959 . S
C2638 H2623 0.959 . S
C2638 H2624 0.961 . S
C2638 C2637 1.502 . S
C2639 H2625 0.960 . S
C2639 H2626 0.961 . S
C2639 H2627 0.959 . S
C2639 C2637 1.561 . S
C2640 C2637 1.526 . S
C2640 C2641 1.396 1_556 S
C2640 C2645 1.390 . S
C2641 C2635 1.465 . S
C2641 C2640 1.396 1_554 S
C2641 C2642 1.399 . S
C2642 H2628 0.929 . S
C2642 C2641 1.399 . S
C2642 C2643 1.385 1_554 S
C2643 H2629 0.931 . S
C2643 C2642 1.385 1_556 S
C2643 C2644 1.389 . S
C2644 C2643 1.389 . S
C2644 C2645 1.387 . S
C2645 H2630 0.930 . S
C2645 C2640 1.390 . S
C2645 C2644 1.387 . S
H2646 C2658 0.930 . S
H2647 C2660 0.930 . S
H2648 C2661 0.930 . S
H2649 C2665 0.959 . S
H2650 C2665 0.959 . S
H2651 C2665 0.961 . S
H2652 C2666 0.960 . S
H2653 C2666 0.961 . S
H2654 C2666 0.959 . S
H2655 C2669 0.929 . S
H2656 C2670 0.931 . S
H2657 C2672 0.930 . S
C2658 H2646 0.930 . S
C2658 C2659 1.399 . S
C2658 C2663 1.399 . S
C2659 C2658 1.399 . S
C2659 C2660 1.376 . S
C2660 H2647 0.930 . S
C2660 C2659 1.376 . S
C2660 C2661 1.388 . S
C2661 H2648 0.930 . S
C2661 C2660 1.388 . S
C2661 C2662 1.390 . S
C2662 C2661 1.390 . S
C2662 C2663 1.393 . S
C2662 C2668 1.465 1_556 S
C2663 C2658 1.399 . S
C2663 C2662 1.393 . S
C2663 C2664 1.517 1_556 S
C2664 C2663 1.517 1_554 S
C2664 C2665 1.502 . S
C2664 C2666 1.561 . S
C2664 C2667 1.526 . S
C2665 H2649 0.959 . S
C2665 H2650 0.959 . S
C2665 H2651 0.961 . S
C2665 C2664 1.502 . S
C2666 H2652 0.960 . S
C2666 H2653 0.961 . S
C2666 H2654 0.959 . S
C2666 C2664 1.561 . S
C2667 C2664 1.526 . S
C2667 C2668 1.396 . S
C2667 C2672 1.390 . S
C2668 C2662 1.465 1_554 S
C2668 C2667 1.396 . S
C2668 C2669 1.399 1_554 S
C2669 H2655 0.929 . S
C2669 C2668 1.399 1_556 S
C2669 C2670 1.385 1_556 S
C2670 H2656 0.931 . S
C2670 C2669 1.385 1_554 S
C2670 C2671 1.389 . S
C2671 C2670 1.389 . S
C2671 C2672 1.387 . S
C2672 H2657 0.930 . S
C2672 C2667 1.390 . S
C2672 C2671 1.387 . S
H2673 C2685 0.930 . S
H2674 C2687 0.930 . S
H2675 C2688 0.930 1_556 S
H2676 C2692 0.959 . S
H2677 C2692 0.959 . S
H2678 C2692 0.961 . S
H2679 C2693 0.960 . S
H2680 C2693 0.961 . S
H2681 C2693 0.959 . S
H2682 C2696 0.929 . S
H2683 C2697 0.931 . S
H2684 C2699 0.930 . S
C2685 H2673 0.930 . S
C2685 C2686 1.399 . S
C2685 C2690 1.399 . S
C2686 C2685 1.399 . S
C2686 C2687 1.376 . S
C2687 H2674 0.930 . S
C2687 C2686 1.376 . S
C2687 C2688 1.388 . S
C2688 H2675 0.930 1_554 S
C2688 C2687 1.388 . S
C2688 C2689 1.390 . S
C2689 C2688 1.390 . S
C2689 C2690 1.394 . S
C2689 C2695 1.465 1_554 S
C2690 C2685 1.399 . S
C2690 C2689 1.394 . S
C2690 C2691 1.516 . S
C2691 C2690 1.516 . S
C2691 C2692 1.502 . S
C2691 C2693 1.561 . S
C2691 C2694 1.526 1_554 S
C2692 H2676 0.959 . S
C2692 H2677 0.959 . S
C2692 H2678 0.961 . S
C2692 C2691 1.502 . S
C2693 H2679 0.960 . S
C2693 H2680 0.961 . S
C2693 H2681 0.959 . S
C2693 C2691 1.561 . S
C2694 C2691 1.526 1_556 S
C2694 C2695 1.396 . S
C2694 C2699 1.390 . S
C2695 C2689 1.465 1_556 S
C2695 C2694 1.396 . S
C2695 C2696 1.399 . S
C2696 H2682 0.929 . S
C2696 C2695 1.399 . S
C2696 C2697 1.385 . S
C2697 H2683 0.931 . S
C2697 C2696 1.385 . S
C2697 C2698 1.389 . S
C2698 C2697 1.389 . S
C2698 C2699 1.387 . S
C2699 H2684 0.930 . S
C2699 C2694 1.390 . S
C2699 C2698 1.387 . S
H2700 C2712 0.930 . S
H2701 C2714 0.930 . S
H2702 C2715 0.928 . S
H2703 C2719 0.959 . S
H2704 C2719 0.959 . S
H2705 C2719 0.961 . S
H2706 C2720 0.960 . S
H2707 C2720 0.961 . S
H2708 C2720 0.959 . S
H2709 C2723 0.929 . S
H2710 C2724 0.931 . S
H2711 C2726 0.930 . S
C2712 H2700 0.930 . S
C2712 C2713 1.399 . S
C2712 C2717 1.399 . S
C2713 C2712 1.399 . S
C2713 C2714 1.376 . S
C2714 H2701 0.930 . S
C2714 C2713 1.376 . S
C2714 C2715 1.390 1_554 S
C2715 H2702 0.928 . S
C2715 C2714 1.390 1_556 S
C2715 C2716 1.390 1_556 S
C2716 C2715 1.390 1_554 S
C2716 C2717 1.394 . S
C2716 C2722 1.465 1_554 S
C2717 C2712 1.399 . S
C2717 C2716 1.394 . S
C2717 C2718 1.516 . S
C2718 C2717 1.516 . S
C2718 C2719 1.502 . S
C2718 C2720 1.561 . S
C2718 C2721 1.501 1_554 S
C2719 H2703 0.959 . S
C2719 H2704 0.959 . S
C2719 H2705 0.961 . S
C2719 C2718 1.502 . S
C2720 H2706 0.960 . S
C2720 H2707 0.961 . S
C2720 H2708 0.959 . S
C2720 C2718 1.561 . S
C2721 C2718 1.501 1_556 S
C2721 C2722 1.409 . S
C2721 C2726 1.402 . S
C2722 C2716 1.465 1_556 S
C2722 C2721 1.409 . S
C2722 C2723 1.399 . S
C2723 H2709 0.929 . S
C2723 C2722 1.399 . S
C2723 C2724 1.385 . S
C2724 H2710 0.931 . S
C2724 C2723 1.385 . S
C2724 C2725 1.389 . S
C2725 C2724 1.389 . S
C2725 C2726 1.387 . S
C2726 H2711 0.930 . S
C2726 C2721 1.402 . S
C2726 C2725 1.387 . S
H2727 C2739 0.930 . S
H2728 C2741 0.930 . S
H2729 C2742 0.930 . S
H2730 C2746 0.959 . S
H2731 C2746 0.959 . S
H2732 C2746 0.961 . S
H2733 C2747 0.960 . S
H2734 C2747 0.961 . S
H2735 C2747 0.959 . S
H2736 C2750 0.929 . S
H2737 C2751 0.931 . S
H2738 C2753 0.930 . S
C2739 H2727 0.930 . S
C2739 C2740 1.399 . S
C2739 C2744 1.399 . S
C2740 C2739 1.399 . S
C2740 C2741 1.376 . S
C2741 H2728 0.930 . S
C2741 C2740 1.376 . S
C2741 C2742 1.388 . S
C2742 H2729 0.930 . S
C2742 C2741 1.388 . S
C2742 C2743 1.390 . S
C2743 C2742 1.390 . S
C2743 C2744 1.394 . S
C2743 C2749 1.465 . S
C2744 C2739 1.399 . S
C2744 C2743 1.394 . S
C2744 C2745 1.516 . S
C2745 C2744 1.516 . S
C2745 C2746 1.502 . S
C2745 C2747 1.561 . S
C2745 C2748 1.526 . S
C2746 H2730 0.959 . S
C2746 H2731 0.959 . S
C2746 H2732 0.961 . S
C2746 C2745 1.502 . S
C2747 H2733 0.960 . S
C2747 H2734 0.961 . S
C2747 H2735 0.959 . S
C2747 C2745 1.561 . S
C2748 C2745 1.526 . S
C2748 C2749 1.396 . S
C2748 C2753 1.390 . S
C2749 C2743 1.465 . S
C2749 C2748 1.396 . S
C2749 C2750 1.399 . S
C2750 H2736 0.929 . S
C2750 C2749 1.399 . S
C2750 C2751 1.385 . S
C2751 H2737 0.931 . S
C2751 C2750 1.385 . S
C2751 C2752 1.389 . S
C2752 C2751 1.389 . S
C2752 C2753 1.387 . S
C2753 H2738 0.930 . S
C2753 C2748 1.390 . S
C2753 C2752 1.387 . S
H2754 C2766 0.930 . S
H2755 C2768 0.930 . S
H2756 C2769 0.930 . S
H2757 C2773 0.959 . S
H2758 C2773 0.959 . S
H2759 C2773 0.961 . S
H2760 C2774 0.960 . S
H2761 C2774 0.961 . S
H2762 C2774 0.959 . S
H2763 C2777 0.929 . S
H2764 C2778 0.931 . S
H2765 C2780 0.930 . S
C2766 H2754 0.930 . S
C2766 C2767 1.399 . S
C2766 C2771 1.399 . S
C2767 C2766 1.399 . S
C2767 C2768 1.376 . S
C2768 H2755 0.930 . S
C2768 C2767 1.376 . S
C2768 C2769 1.388 . S
C2769 H2756 0.930 . S
C2769 C2768 1.388 . S
C2769 C2770 1.390 . S
C2770 C2769 1.390 . S
C2770 C2771 1.394 . S
C2770 C2776 1.465 . S
C2771 C2766 1.399 . S
C2771 C2770 1.394 . S
C2771 C2772 1.516 . S
C2772 C2771 1.516 . S
C2772 C2773 1.502 . S
C2772 C2774 1.561 . S
C2772 C2775 1.526 . S
C2773 H2757 0.959 . S
C2773 H2758 0.959 . S
C2773 H2759 0.961 . S
C2773 C2772 1.502 . S
C2774 H2760 0.960 . S
C2774 H2761 0.961 . S
C2774 H2762 0.959 . S
C2774 C2772 1.561 . S
C2775 C2772 1.526 . S
C2775 C2776 1.396 . S
C2775 C2780 1.390 . S
C2776 C2770 1.465 . S
C2776 C2775 1.396 . S
C2776 C2777 1.399 . S
C2777 H2763 0.929 . S
C2777 C2776 1.399 . S
C2777 C2778 1.385 . S
C2778 H2764 0.931 . S
C2778 C2777 1.385 . S
C2778 C2779 1.389 . S
C2779 C2778 1.389 . S
C2779 C2780 1.387 . S
C2780 H2765 0.930 . S
C2780 C2775 1.390 . S
C2780 C2779 1.387 . S
H2781 C2793 0.930 . S
H2782 C2795 0.930 . S
H2783 C2796 0.930 . S
H2784 C2800 0.959 . S
H2785 C2800 0.959 . S
H2786 C2800 0.961 . S
H2787 C2801 0.960 . S
H2788 C2801 0.961 . S
H2789 C2801 0.959 . S
H2790 C2804 0.929 . S
H2791 C2805 0.931 . S
H2792 C2807 0.930 . S
C2793 H2781 0.930 . S
C2793 C2794 1.399 . S
C2793 C2798 1.399 . S
C2794 C2793 1.399 . S
C2794 C2795 1.376 . S
C2795 H2782 0.930 . S
C2795 C2794 1.376 . S
C2795 C2796 1.388 . S
C2796 H2783 0.930 . S
C2796 C2795 1.388 . S
C2796 C2797 1.390 . S
C2797 C2796 1.390 . S
C2797 C2798 1.394 . S
C2797 C2803 1.465 . S
C2798 C2793 1.399 . S
C2798 C2797 1.394 . S
C2798 C2799 1.516 . S
C2799 C2798 1.516 . S
C2799 C2800 1.502 . S
C2799 C2801 1.561 . S
C2799 C2802 1.526 . S
C2800 H2784 0.959 . S
C2800 H2785 0.959 . S
C2800 H2786 0.961 . S
C2800 C2799 1.502 . S
C2801 H2787 0.960 . S
C2801 H2788 0.961 . S
C2801 H2789 0.959 . S
C2801 C2799 1.561 . S
C2802 C2799 1.526 . S
C2802 C2803 1.396 . S
C2802 C2807 1.390 . S
C2803 C2797 1.465 . S
C2803 C2802 1.396 . S
C2803 C2804 1.399 . S
C2804 H2790 0.929 . S
C2804 C2803 1.399 . S
C2804 C2805 1.385 . S
C2805 H2791 0.931 . S
C2805 C2804 1.385 . S
C2805 C2806 1.389 . S
C2806 C2805 1.389 . S
C2806 C2807 1.387 . S
C2807 H2792 0.930 . S
C2807 C2802 1.390 . S
C2807 C2806 1.387 . S
H2808 C2820 0.930 . S
H2809 C2822 0.930 . S
H2810 C2823 0.930 . S
H2811 C2827 0.959 . S
H2812 C2827 0.959 . S
H2813 C2827 0.961 . S
H2814 C2828 0.960 . S
H2815 C2828 0.961 . S
H2816 C2828 0.959 . S
H2817 C2831 0.929 . S
H2818 C2832 0.931 . S
H2819 C2834 0.930 . S
C2820 H2808 0.930 . S
C2820 C2821 1.399 . S
C2820 C2825 1.399 . S
C2821 C2820 1.399 . S
C2821 C2822 1.376 . S
C2822 H2809 0.930 . S
C2822 C2821 1.376 . S
C2822 C2823 1.388 . S
C2823 H2810 0.930 . S
C2823 C2822 1.388 . S
C2823 C2824 1.390 . S
C2824 C2823 1.390 . S
C2824 C2825 1.394 . S
C2824 C2830 1.465 1_554 S
C2825 C2820 1.399 . S
C2825 C2824 1.394 . S
C2825 C2826 1.516 1_554 S
C2826 C2825 1.516 1_556 S
C2826 C2827 1.502 . S
C2826 C2828 1.561 . S
C2826 C2829 1.526 . S
C2827 H2811 0.959 . S
C2827 H2812 0.959 . S
C2827 H2813 0.961 . S
C2827 C2826 1.502 . S
C2828 H2814 0.960 . S
C2828 H2815 0.961 . S
C2828 H2816 0.959 . S
C2828 C2826 1.561 . S
C2829 C2826 1.526 . S
C2829 C2830 1.396 . S
C2829 C2834 1.390 . S
C2830 C2824 1.465 1_556 S
C2830 C2829 1.396 . S
C2830 C2831 1.399 1_556 S
C2831 H2817 0.929 . S
C2831 C2830 1.399 1_554 S
C2831 C2832 1.385 1_554 S
C2832 H2818 0.931 . S
C2832 C2831 1.385 1_556 S
C2832 C2833 1.389 . S
C2833 C2832 1.389 . S
C2833 C2834 1.387 . S
C2834 H2819 0.930 . S
C2834 C2829 1.390 . S
C2834 C2833 1.387 . S
H2835 C2847 0.930 . S
H2836 C2849 0.930 . S
H2837 C2850 0.930 . S
H2838 C2854 0.959 . S
H2839 C2854 0.959 . S
H2840 C2854 0.961 . S
H2841 C2855 0.960 . S
H2842 C2855 0.961 . S
H2843 C2855 0.959 . S
H2844 C2858 0.960 . S
H2845 C2859 0.931 . S
H2846 C2861 0.930 . S
C2847 H2835 0.930 . S
C2847 C2848 1.399 . S
C2847 C2852 1.403 . S
C2848 C2847 1.399 . S
C2848 C2849 1.376 . S
C2849 H2836 0.930 . S
C2849 C2848 1.376 . S
C2849 C2850 1.388 . S
C2850 H2837 0.930 . S
C2850 C2849 1.388 . S
C2850 C2851 1.390 . S
C2851 C2850 1.390 . S
C2851 C2852 1.398 . S
C2851 C2857 1.465 1_554 S
C2852 C2847 1.403 . S
C2852 C2851 1.398 . S
C2852 C2853 1.508 1_554 S
C2853 C2852 1.508 1_556 S
C2853 C2854 1.502 . S
C2853 C2855 1.561 . S
C2853 C2856 1.526 . S
C2854 H2838 0.959 . S
C2854 H2839 0.959 . S
C2854 H2840 0.961 . S
C2854 C2853 1.502 . S
C2855 H2841 0.960 . S
C2855 H2842 0.961 . S
C2855 H2843 0.959 . S
C2855 C2853 1.561 . S
C2856 C2853 1.526 . S
C2856 C2857 1.396 . S
C2856 C2861 1.390 . S
C2857 C2851 1.465 1_556 S
C2857 C2856 1.396 . S
C2857 C2858 1.394 1_556 S
C2858 H2844 0.960 . S
C2858 C2857 1.394 1_554 S
C2858 C2859 1.359 1_554 S
C2859 H2845 0.931 . S
C2859 C2858 1.359 1_556 S
C2859 C2860 1.389 . S
C2860 C2859 1.389 . S
C2860 C2861 1.387 . S
C2861 H2846 0.930 . S
C2861 C2856 1.390 . S
C2861 C2860 1.387 . S
H2862 C2874 0.930 . S
H2863 C2876 0.930 . S
H2864 C2877 0.930 . S
H2865 C2881 0.959 . S
H2866 C2881 0.959 . S
H2867 C2881 0.961 . S
H2868 C2882 0.960 . S
H2869 C2882 0.961 . S
H2870 C2882 0.959 1_556 S
H2871 C2885 0.929 . S
H2872 C2886 0.931 . S
H2873 C2888 0.930 . S
C2874 H2862 0.930 . S
C2874 C2875 1.399 . S
C2874 C2879 1.399 . S
C2875 C2874 1.399 . S
C2875 C2876 1.376 . S
C2876 H2863 0.930 . S
C2876 C2875 1.376 . S
C2876 C2877 1.388 1_554 S
C2877 H2864 0.930 . S
C2877 C2876 1.388 1_556 S
C2877 C2878 1.390 . S
C2878 C2877 1.390 . S
C2878 C2879 1.394 1_556 S
C2878 C2884 1.465 . S
C2879 C2874 1.399 . S
C2879 C2878 1.394 1_554 S
C2879 C2880 1.516 . S
C2880 C2879 1.516 . S
C2880 C2881 1.502 . S
C2880 C2882 1.561 . S
C2880 C2883 1.526 1_554 S
C2881 H2865 0.959 . S
C2881 H2866 0.959 . S
C2881 H2867 0.961 . S
C2881 C2880 1.502 . S
C2882 H2868 0.960 . S
C2882 H2869 0.961 . S
C2882 H2870 0.959 1_554 S
C2882 C2880 1.561 . S
C2883 C2880 1.526 1_556 S
C2883 C2884 1.396 . S
C2883 C2888 1.390 . S
C2884 C2878 1.465 . S
C2884 C2883 1.396 . S
C2884 C2885 1.399 . S
C2885 H2871 0.929 . S
C2885 C2884 1.399 . S
C2885 C2886 1.385 . S
C2886 H2872 0.931 . S
C2886 C2885 1.385 . S
C2886 C2887 1.389 . S
C2887 C2886 1.389 . S
C2887 C2888 1.387 . S
C2888 H2873 0.930 . S
C2888 C2883 1.390 . S
C2888 C2887 1.387 . S
H2889 C2901 0.930 . S
H2890 C2903 0.930 . S
H2891 C2904 0.930 . S
H2892 C2908 0.959 . S
H2893 C2908 0.959 . S
H2894 C2908 0.961 . S
H2895 C2909 0.960 . S
H2896 C2909 0.961 . S
H2897 C2909 0.959 . S
H2898 C2912 0.929 . S
H2899 C2913 0.931 . S
H2900 C2915 0.930 . S
C2901 H2889 0.930 . S
C2901 C2902 1.399 . S
C2901 C2906 1.399 . S
C2902 C2901 1.399 . S
C2902 C2903 1.376 . S
C2903 H2890 0.930 . S
C2903 C2902 1.376 . S
C2903 C2904 1.388 . S
C2904 H2891 0.930 . S
C2904 C2903 1.388 . S
C2904 C2905 1.390 . S
C2905 C2904 1.390 . S
C2905 C2906 1.394 . S
C2905 C2911 1.465 . S
C2906 C2901 1.399 . S
C2906 C2905 1.394 . S
C2906 C2907 1.516 . S
C2907 C2906 1.516 . S
C2907 C2908 1.502 . S
C2907 C2909 1.561 . S
C2907 C2910 1.526 . S
C2908 H2892 0.959 . S
C2908 H2893 0.959 . S
C2908 H2894 0.961 . S
C2908 C2907 1.502 . S
C2909 H2895 0.960 . S
C2909 H2896 0.961 . S
C2909 H2897 0.959 . S
C2909 C2907 1.561 . S
C2910 C2907 1.526 . S
C2910 C2911 1.396 . S
C2910 C2915 1.390 . S
C2911 C2905 1.465 . S
C2911 C2910 1.396 . S
C2911 C2912 1.399 . S
C2912 H2898 0.929 . S
C2912 C2911 1.399 . S
C2912 C2913 1.385 . S
C2913 H2899 0.931 . S
C2913 C2912 1.385 . S
C2913 C2914 1.389 . S
C2914 C2913 1.389 . S
C2914 C2915 1.387 . S
C2915 H2900 0.930 . S
C2915 C2910 1.390 . S
C2915 C2914 1.387 . S
H2916 C2928 0.930 . S
H2917 C2930 0.930 . S
H2918 C2931 0.930 . S
H2919 C2935 0.959 . S
H2920 C2935 0.959 . S
H2921 C2935 0.961 . S
H2922 C2936 0.960 . S
H2923 C2936 0.961 . S
H2924 C2936 0.959 . S
H2925 C2939 0.929 . S
H2926 C2940 0.931 . S
H2927 C2942 0.930 . S
C2928 H2916 0.930 . S
C2928 C2929 1.399 . S
C2928 C2933 1.399 . S
C2929 C2928 1.399 . S
C2929 C2930 1.376 . S
C2930 H2917 0.930 . S
C2930 C2929 1.376 . S
C2930 C2931 1.388 . S
C2931 H2918 0.930 . S
C2931 C2930 1.388 . S
C2931 C2932 1.390 . S
C2932 C2931 1.390 . S
C2932 C2933 1.394 . S
C2932 C2938 1.465 . S
C2933 C2928 1.399 . S
C2933 C2932 1.394 . S
C2933 C2934 1.516 . S
C2934 C2933 1.516 . S
C2934 C2935 1.502 . S
C2934 C2936 1.561 . S
C2934 C2937 1.526 . S
C2935 H2919 0.959 . S
C2935 H2920 0.959 . S
C2935 H2921 0.961 . S
C2935 C2934 1.502 . S
C2936 H2922 0.960 . S
C2936 H2923 0.961 . S
C2936 H2924 0.959 . S
C2936 C2934 1.561 . S
C2937 C2934 1.526 . S
C2937 C2938 1.396 . S
C2937 C2942 1.390 . S
C2938 C2932 1.465 . S
C2938 C2937 1.396 . S
C2938 C2939 1.399 . S
C2939 H2925 0.929 . S
C2939 C2938 1.399 . S
C2939 C2940 1.385 . S
C2940 H2926 0.931 . S
C2940 C2939 1.385 . S
C2940 C2941 1.389 . S
C2941 C2940 1.389 . S
C2941 C2942 1.387 . S
C2942 H2927 0.930 . S
C2942 C2937 1.390 . S
C2942 C2941 1.387 . S
H2943 C2955 0.930 . S
H2944 C2957 0.930 . S
H2945 C2958 0.930 . S
H2946 C2962 0.959 . S
H2947 C2962 0.959 . S
H2948 C2962 0.961 . S
H2949 C2963 0.960 . S
H2950 C2963 0.961 . S
H2951 C2963 0.959 . S
H2952 C2966 0.929 . S
H2953 C2967 0.931 . S
H2954 C2969 0.930 . S
C2955 H2943 0.930 . S
C2955 C2956 1.399 . S
C2955 C2960 1.399 . S
C2956 C2955 1.399 . S
C2956 C2957 1.376 . S
C2957 H2944 0.930 . S
C2957 C2956 1.376 . S
C2957 C2958 1.388 . S
C2958 H2945 0.930 . S
C2958 C2957 1.388 . S
C2958 C2959 1.390 . S
C2959 C2958 1.390 . S
C2959 C2960 1.394 . S
C2959 C2965 1.465 . S
C2960 C2955 1.399 . S
C2960 C2959 1.394 . S
C2960 C2961 1.516 . S
C2961 C2960 1.516 . S
C2961 C2962 1.502 . S
C2961 C2963 1.561 . S
C2961 C2964 1.526 . S
C2962 H2946 0.959 . S
C2962 H2947 0.959 . S
C2962 H2948 0.961 . S
C2962 C2961 1.502 . S
C2963 H2949 0.960 . S
C2963 H2950 0.961 . S
C2963 H2951 0.959 . S
C2963 C2961 1.561 . S
C2964 C2961 1.526 . S
C2964 C2965 1.396 . S
C2964 C2969 1.390 . S
C2965 C2959 1.465 . S
C2965 C2964 1.396 . S
C2965 C2966 1.399 . S
C2966 H2952 0.929 . S
C2966 C2965 1.399 . S
C2966 C2967 1.385 . S
C2967 H2953 0.931 . S
C2967 C2966 1.385 . S
C2967 C2968 1.389 . S
C2968 C2967 1.389 . S
C2968 C2969 1.387 . S
C2969 H2954 0.930 . S
C2969 C2964 1.390 . S
C2969 C2968 1.387 . S
H2970 C2982 0.930 . S
H2971 C2984 0.930 . S
H2972 C2985 0.930 . S
H2973 C2989 0.959 . S
H2974 C2989 0.959 . S
H2975 C2989 0.961 . S
H2976 C2990 0.960 . S
H2977 C2990 0.961 . S
H2978 C2990 0.959 . S
H2979 C2993 0.929 . S
H2980 C2994 0.931 . S
H2981 C2996 0.930 . S
C2982 H2970 0.930 . S
C2982 C2983 1.399 . S
C2982 C2987 1.399 . S
C2983 C2982 1.399 . S
C2983 C2984 1.376 . S
C2984 H2971 0.930 . S
C2984 C2983 1.376 . S
C2984 C2985 1.388 . S
C2985 H2972 0.930 . S
C2985 C2984 1.388 . S
C2985 C2986 1.390 . S
C2986 C2985 1.390 . S
C2986 C2987 1.394 . S
C2986 C2992 1.465 . S
C2987 C2982 1.399 . S
C2987 C2986 1.394 . S
C2987 C2988 1.516 . S
C2988 C2987 1.516 . S
C2988 C2989 1.502 . S
C2988 C2990 1.561 . S
C2988 C2991 1.526 . S
C2989 H2973 0.959 . S
C2989 H2974 0.959 . S
C2989 H2975 0.961 . S
C2989 C2988 1.502 . S
C2990 H2976 0.960 . S
C2990 H2977 0.961 . S
C2990 H2978 0.959 . S
C2990 C2988 1.561 . S
C2991 C2988 1.526 . S
C2991 C2992 1.396 . S
C2991 C2996 1.390 . S
C2992 C2986 1.465 . S
C2992 C2991 1.396 . S
C2992 C2993 1.399 . S
C2993 H2979 0.929 . S
C2993 C2992 1.399 . S
C2993 C2994 1.385 . S
C2994 H2980 0.931 . S
C2994 C2993 1.385 . S
C2994 C2995 1.389 . S
C2995 C2994 1.389 . S
C2995 C2996 1.387 . S
C2996 H2981 0.930 . S
C2996 C2991 1.390 . S
C2996 C2995 1.387 . S
H2997 C3009 0.930 . S
H2998 C3011 0.930 . S
H2999 C3012 0.930 . S
H3000 C3016 0.959 . S
H3001 C3016 0.959 . S
H3002 C3016 0.961 . S
H3003 C3017 0.960 . S
H3004 C3017 0.961 . S
H3005 C3017 0.959 . S
H3006 C3020 0.929 . S
H3007 C3021 0.931 . S
H3008 C3023 0.930 . S
C3009 H2997 0.930 . S
C3009 C3010 1.399 . S
C3009 C3014 1.399 . S
C3010 C3009 1.399 . S
C3010 C3011 1.376 . S
C3011 H2998 0.930 . S
C3011 C3010 1.376 . S
C3011 C3012 1.388 . S
C3012 H2999 0.930 . S
C3012 C3011 1.388 . S
C3012 C3013 1.390 . S
C3013 C3012 1.390 . S
C3013 C3014 1.394 . S
C3013 C3019 1.465 . S
C3014 C3009 1.399 . S
C3014 C3013 1.394 . S
C3014 C3015 1.516 . S
C3015 C3014 1.516 . S
C3015 C3016 1.502 . S
C3015 C3017 1.561 . S
C3015 C3018 1.526 . S
C3016 H3000 0.959 . S
C3016 H3001 0.959 . S
C3016 H3002 0.961 . S
C3016 C3015 1.502 . S
C3017 H3003 0.960 . S
C3017 H3004 0.961 . S
C3017 H3005 0.959 . S
C3017 C3015 1.561 . S
C3018 C3015 1.526 . S
C3018 C3019 1.396 . S
C3018 C3023 1.390 . S
C3019 C3013 1.465 . S
C3019 C3018 1.396 . S
C3019 C3020 1.399 . S
C3020 H3006 0.929 . S
C3020 C3019 1.399 . S
C3020 C3021 1.385 . S
C3021 H3007 0.931 . S
C3021 C3020 1.385 . S
C3021 C3022 1.389 . S
C3022 C3021 1.389 . S
C3022 C3023 1.387 . S
C3023 H3008 0.930 . S
C3023 C3018 1.390 . S
C3023 C3022 1.387 . S
H3024 C3036 0.930 . S
H3025 C3038 0.930 . S
H3026 C3039 0.930 . S
H3027 C3043 0.959 . S
H3028 C3043 0.959 . S
H3029 C3043 0.961 . S
H3030 C3044 0.960 . S
H3031 C3044 0.961 . S
H3032 C3044 0.959 . S
H3033 C3047 0.929 . S
H3034 C3048 0.931 . S
H3035 C3050 0.930 . S
C3036 H3024 0.930 . S
C3036 C3037 1.399 . S
C3036 C3041 1.399 . S
C3037 C3036 1.399 . S
C3037 C3038 1.376 . S
C3038 H3025 0.930 . S
C3038 C3037 1.376 . S
C3038 C3039 1.388 . S
C3039 H3026 0.930 . S
C3039 C3038 1.388 . S
C3039 C3040 1.390 . S
C3040 C3039 1.390 . S
C3040 C3041 1.394 . S
C3040 C3046 1.465 . S
C3041 C3036 1.399 . S
C3041 C3040 1.394 . S
C3041 C3042 1.516 . S
C3042 C3041 1.516 . S
C3042 C3043 1.502 . S
C3042 C3044 1.561 . S
C3042 C3045 1.526 . S
C3043 H3027 0.959 . S
C3043 H3028 0.959 . S
C3043 H3029 0.961 . S
C3043 C3042 1.502 . S
C3044 H3030 0.960 . S
C3044 H3031 0.961 . S
C3044 H3032 0.959 . S
C3044 C3042 1.561 . S
C3045 C3042 1.526 . S
C3045 C3046 1.396 . S
C3045 C3050 1.390 . S
C3046 C3040 1.465 . S
C3046 C3045 1.396 . S
C3046 C3047 1.399 . S
C3047 H3033 0.929 . S
C3047 C3046 1.399 . S
C3047 C3048 1.385 . S
C3048 H3034 0.931 . S
C3048 C3047 1.385 . S
C3048 C3049 1.389 . S
C3049 C3048 1.389 . S
C3049 C3050 1.387 . S
C3050 H3035 0.930 . S
C3050 C3045 1.390 . S
C3050 C3049 1.387 . S
H3051 C3063 0.930 . S
H3052 C3065 0.930 . S
H3053 C3066 0.930 . S
H3054 C3070 0.959 . S
H3055 C3070 0.959 . S
H3056 C3070 0.961 . S
H3057 C3071 0.960 . S
H3058 C3071 0.961 . S
H3059 C3071 0.959 . S
H3060 C3074 0.929 . S
H3061 C3075 0.931 . S
H3062 C3077 0.930 . S
C3063 H3051 0.930 . S
C3063 C3064 1.399 . S
C3063 C3068 1.399 . S
C3064 C3063 1.399 . S
C3064 C3065 1.376 . S
C3065 H3052 0.930 . S
C3065 C3064 1.376 . S
C3065 C3066 1.388 . S
C3066 H3053 0.930 . S
C3066 C3065 1.388 . S
C3066 C3067 1.390 . S
C3067 C3066 1.390 . S
C3067 C3068 1.394 . S
C3067 C3073 1.465 . S
C3068 C3063 1.399 . S
C3068 C3067 1.394 . S
C3068 C3069 1.516 . S
C3069 C3068 1.516 . S
C3069 C3070 1.502 . S
C3069 C3071 1.561 . S
C3069 C3072 1.526 . S
C3070 H3054 0.959 . S
C3070 H3055 0.959 . S
C3070 H3056 0.961 . S
C3070 C3069 1.502 . S
C3071 H3057 0.960 . S
C3071 H3058 0.961 . S
C3071 H3059 0.959 . S
C3071 C3069 1.561 . S
C3072 C3069 1.526 . S
C3072 C3073 1.396 . S
C3072 C3077 1.390 . S
C3073 C3067 1.465 . S
C3073 C3072 1.396 . S
C3073 C3074 1.399 . S
C3074 H3060 0.929 . S
C3074 C3073 1.399 . S
C3074 C3075 1.385 . S
C3075 H3061 0.931 . S
C3075 C3074 1.385 . S
C3075 C3076 1.389 . S
C3076 C3075 1.389 . S
C3076 C3077 1.387 . S
C3077 H3062 0.930 . S
C3077 C3072 1.390 . S
C3077 C3076 1.387 . S
H3078 C3090 0.930 . S
H3079 C3092 0.930 . S
H3080 C3093 0.930 . S
H3081 C3097 0.959 . S
H3082 C3097 0.959 . S
H3083 C3097 0.961 . S
H3084 C3098 0.960 . S
H3085 C3098 0.961 . S
H3086 C3098 0.959 . S
H3087 C3101 0.929 . S
H3088 C3102 0.931 . S
H3089 C3104 0.930 . S
C3090 H3078 0.930 . S
C3090 C3091 1.399 . S
C3090 C3095 1.399 . S
C3091 C3090 1.399 . S
C3091 C3092 1.376 . S
C3092 H3079 0.930 . S
C3092 C3091 1.376 . S
C3092 C3093 1.388 . S
C3093 H3080 0.930 . S
C3093 C3092 1.388 . S
C3093 C3094 1.390 . S
C3094 C3093 1.390 . S
C3094 C3095 1.394 . S
C3094 C3100 1.465 . S
C3095 C3090 1.399 . S
C3095 C3094 1.394 . S
C3095 C3096 1.516 . S
C3096 C3095 1.516 . S
C3096 C3097 1.502 . S
C3096 C3098 1.561 . S
C3096 C3099 1.526 . S
C3097 H3081 0.959 . S
C3097 H3082 0.959 . S
C3097 H3083 0.961 . S
C3097 C3096 1.502 . S
C3098 H3084 0.960 . S
C3098 H3085 0.961 . S
C3098 H3086 0.959 . S
C3098 C3096 1.561 . S
C3099 C3096 1.526 . S
C3099 C3100 1.396 . S
C3099 C3104 1.390 . S
C3100 C3094 1.465 . S
C3100 C3099 1.396 . S
C3100 C3101 1.399 . S
C3101 H3087 0.929 . S
C3101 C3100 1.399 . S
C3101 C3102 1.385 . S
C3102 H3088 0.931 . S
C3102 C3101 1.385 . S
C3102 C3103 1.389 . S
C3103 C3102 1.389 . S
C3103 C3104 1.387 . S
C3104 H3089 0.930 . S
C3104 C3099 1.390 . S
C3104 C3103 1.387 . S
H3105 C3117 0.930 . S
H3106 C3119 0.930 . S
H3107 C3120 0.930 . S
H3108 C3124 0.959 . S
H3109 C3124 0.959 . S
H3110 C3124 0.961 . S
H3111 C3125 0.960 . S
H3112 C3125 0.961 . S
H3113 C3125 0.959 . S
H3114 C3128 0.929 . S
H3115 C3129 0.931 . S
H3116 C3131 0.930 . S
C3117 H3105 0.930 . S
C3117 C3118 1.399 . S
C3117 C3122 1.399 . S
C3118 C3117 1.399 . S
C3118 C3119 1.376 . S
C3119 H3106 0.930 . S
C3119 C3118 1.376 . S
C3119 C3120 1.388 . S
C3120 H3107 0.930 . S
C3120 C3119 1.388 . S
C3120 C3121 1.390 . S
C3121 C3120 1.390 . S
C3121 C3122 1.394 . S
C3121 C3127 1.465 . S
C3122 C3117 1.399 . S
C3122 C3121 1.394 . S
C3122 C3123 1.516 . S
C3123 C3122 1.516 . S
C3123 C3124 1.502 . S
C3123 C3125 1.561 . S
C3123 C3126 1.526 . S
C3124 H3108 0.959 . S
C3124 H3109 0.959 . S
C3124 H3110 0.961 . S
C3124 C3123 1.502 . S
C3125 H3111 0.960 . S
C3125 H3112 0.961 . S
C3125 H3113 0.959 . S
C3125 C3123 1.561 . S
C3126 C3123 1.526 . S
C3126 C3127 1.396 . S
C3126 C3131 1.390 . S
C3127 C3121 1.465 . S
C3127 C3126 1.396 . S
C3127 C3128 1.399 . S
C3128 H3114 0.929 . S
C3128 C3127 1.399 . S
C3128 C3129 1.385 . S
C3129 H3115 0.931 . S
C3129 C3128 1.385 . S
C3129 C3130 1.389 . S
C3130 C3129 1.389 . S
C3130 C3131 1.387 . S
C3131 H3116 0.930 . S
C3131 C3126 1.390 . S
C3131 C3130 1.387 . S
H3132 C3144 0.930 . S
H3133 C3146 0.930 . S
H3134 C3147 0.930 . S
H3135 C3151 0.959 . S
H3136 C3151 0.959 . S
H3137 C3151 0.961 . S
H3138 C3152 0.960 . S
H3139 C3152 0.961 . S
H3140 C3152 0.959 . S
H3141 C3155 0.929 . S
H3142 C3156 0.931 . S
H3143 C3158 0.930 . S
C3144 H3132 0.930 . S
C3144 C3145 1.399 . S
C3144 C3149 1.399 . S
C3145 C3144 1.399 . S
C3145 C3146 1.376 . S
C3146 H3133 0.930 . S
C3146 C3145 1.376 . S
C3146 C3147 1.388 . S
C3147 H3134 0.930 . S
C3147 C3146 1.388 . S
C3147 C3148 1.390 . S
C3148 C3147 1.390 . S
C3148 C3149 1.394 . S
C3148 C3154 1.465 . S
C3149 C3144 1.399 . S
C3149 C3148 1.394 . S
C3149 C3150 1.516 . S
C3150 C3149 1.516 . S
C3150 C3151 1.502 . S
C3150 C3152 1.561 . S
C3150 C3153 1.526 . S
C3151 H3135 0.959 . S
C3151 H3136 0.959 . S
C3151 H3137 0.961 . S
C3151 C3150 1.502 . S
C3152 H3138 0.960 . S
C3152 H3139 0.961 . S
C3152 H3140 0.959 . S
C3152 C3150 1.561 . S
C3153 C3150 1.526 . S
C3153 C3154 1.396 . S
C3153 C3158 1.390 . S
C3154 C3148 1.465 . S
C3154 C3153 1.396 . S
C3154 C3155 1.399 . S
C3155 H3141 0.929 . S
C3155 C3154 1.399 . S
C3155 C3156 1.385 . S
C3156 H3142 0.931 . S
C3156 C3155 1.385 . S
C3156 C3157 1.389 . S
C3157 C3156 1.389 . S
C3157 C3158 1.387 . S
C3158 H3143 0.930 . S
C3158 C3153 1.390 . S
C3158 C3157 1.387 . S
H3159 C3171 0.930 . S
H3160 C3173 0.930 . S
H3161 C3174 0.930 . S
H3162 C3178 0.959 . S
H3163 C3178 0.959 . S
H3164 C3178 0.961 . S
H3165 C3179 0.960 . S
H3166 C3179 0.961 . S
H3167 C3179 0.959 . S
H3168 C3182 0.929 . S
H3169 C3183 0.931 . S
H3170 C3185 0.930 . S
C3171 H3159 0.930 . S
C3171 C3172 1.399 . S
C3171 C3176 1.399 . S
C3172 C3171 1.399 . S
C3172 C3173 1.376 . S
C3173 H3160 0.930 . S
C3173 C3172 1.376 . S
C3173 C3174 1.388 . S
C3174 H3161 0.930 . S
C3174 C3173 1.388 . S
C3174 C3175 1.390 . S
C3175 C3174 1.390 . S
C3175 C3176 1.394 . S
C3175 C3181 1.465 . S
C3176 C3171 1.399 . S
C3176 C3175 1.394 . S
C3176 C3177 1.516 . S
C3177 C3176 1.516 . S
C3177 C3178 1.502 . S
C3177 C3179 1.561 . S
C3177 C3180 1.526 . S
C3178 H3162 0.959 . S
C3178 H3163 0.959 . S
C3178 H3164 0.961 . S
C3178 C3177 1.502 . S
C3179 H3165 0.960 . S
C3179 H3166 0.961 . S
C3179 H3167 0.959 . S
C3179 C3177 1.561 . S
C3180 C3177 1.526 . S
C3180 C3181 1.396 . S
C3180 C3185 1.390 . S
C3181 C3175 1.465 . S
C3181 C3180 1.396 . S
C3181 C3182 1.399 . S
C3182 H3168 0.929 . S
C3182 C3181 1.399 . S
C3182 C3183 1.385 . S
C3183 H3169 0.931 . S
C3183 C3182 1.385 . S
C3183 C3184 1.389 . S
C3184 C3183 1.389 . S
C3184 C3185 1.387 . S
C3185 H3170 0.930 . S
C3185 C3180 1.390 . S
C3185 C3184 1.387 . S
H3186 C3198 0.930 . S
H3187 C3200 0.930 . S
H3188 C3201 0.930 . S
H3189 C3205 0.959 . S
H3190 C3205 0.959 . S
H3191 C3205 0.961 . S
H3192 C3206 0.960 . S
H3193 C3206 0.961 . S
H3194 C3206 0.959 . S
H3195 C3209 0.929 . S
H3196 C3210 0.931 . S
H3197 C3212 0.930 . S
C3198 H3186 0.930 . S
C3198 C3199 1.399 . S
C3198 C3203 1.399 . S
C3199 C3198 1.399 . S
C3199 C3200 1.376 . S
C3200 H3187 0.930 . S
C3200 C3199 1.376 . S
C3200 C3201 1.388 . S
C3201 H3188 0.930 . S
C3201 C3200 1.388 . S
C3201 C3202 1.390 . S
C3202 C3201 1.390 . S
C3202 C3203 1.394 . S
C3202 C3208 1.465 . S
C3203 C3198 1.399 . S
C3203 C3202 1.394 . S
C3203 C3204 1.516 . S
C3204 C3203 1.516 . S
C3204 C3205 1.502 . S
C3204 C3206 1.561 . S
C3204 C3207 1.526 . S
C3205 H3189 0.959 . S
C3205 H3190 0.959 . S
C3205 H3191 0.961 . S
C3205 C3204 1.502 . S
C3206 H3192 0.960 . S
C3206 H3193 0.961 . S
C3206 H3194 0.959 . S
C3206 C3204 1.561 . S
C3207 C3204 1.526 . S
C3207 C3208 1.396 . S
C3207 C3212 1.390 . S
C3208 C3202 1.465 . S
C3208 C3207 1.396 . S
C3208 C3209 1.399 . S
C3209 H3195 0.929 . S
C3209 C3208 1.399 . S
C3209 C3210 1.385 . S
C3210 H3196 0.931 . S
C3210 C3209 1.385 . S
C3210 C3211 1.389 . S
C3211 C3210 1.389 . S
C3211 C3212 1.387 . S
C3212 H3197 0.930 . S
C3212 C3207 1.390 . S
C3212 C3211 1.387 . S
H3213 C3225 0.930 . S
H3214 C3227 0.930 . S
H3215 C3228 0.930 . S
H3216 C3232 0.959 . S
H3217 C3232 0.959 . S
H3218 C3232 0.961 . S
H3219 C3233 0.960 . S
H3220 C3233 0.961 . S
H3221 C3233 0.959 . S
H3222 C3236 0.929 . S
H3223 C3237 0.931 . S
H3224 C3239 0.930 . S
C3225 H3213 0.930 . S
C3225 C3226 1.399 . S
C3225 C3230 1.399 . S
C3226 C3225 1.399 . S
C3226 C3227 1.376 . S
C3227 H3214 0.930 . S
C3227 C3226 1.376 . S
C3227 C3228 1.388 . S
C3228 H3215 0.930 . S
C3228 C3227 1.388 . S
C3228 C3229 1.390 . S
C3229 C3228 1.390 . S
C3229 C3230 1.394 . S
C3229 C3235 1.465 . S
C3230 C3225 1.399 . S
C3230 C3229 1.394 . S
C3230 C3231 1.516 . S
C3231 C3230 1.516 . S
C3231 C3232 1.502 . S
C3231 C3233 1.561 . S
C3231 C3234 1.526 . S
C3232 H3216 0.959 . S
C3232 H3217 0.959 . S
C3232 H3218 0.961 . S
C3232 C3231 1.502 . S
C3233 H3219 0.960 . S
C3233 H3220 0.961 . S
C3233 H3221 0.959 . S
C3233 C3231 1.561 . S
C3234 C3231 1.526 . S
C3234 C3235 1.396 . S
C3234 C3239 1.390 . S
C3235 C3229 1.465 . S
C3235 C3234 1.396 . S
C3235 C3236 1.399 . S
C3236 H3222 0.929 . S
C3236 C3235 1.399 . S
C3236 C3237 1.385 . S
C3237 H3223 0.931 . S
C3237 C3236 1.385 . S
C3237 C3238 1.389 . S
C3238 C3237 1.389 . S
C3238 C3239 1.387 . S
C3239 H3224 0.930 . S
C3239 C3234 1.390 . S
C3239 C3238 1.387 . S
H3240 C3252 0.930 . S
H3241 C3254 0.930 . S
H3242 C3255 0.930 . S
H3243 C3259 0.959 . S
H3244 C3259 0.959 . S
H3245 C3259 0.961 . S
H3246 C3260 0.960 . S
H3247 C3260 0.961 . S
H3248 C3260 0.959 . S
H3249 C3263 0.929 . S
H3250 C3264 0.931 . S
H3251 C3266 0.930 . S
C3252 H3240 0.930 . S
C3252 C3253 1.399 . S
C3252 C3257 1.399 . S
C3253 C3252 1.399 . S
C3253 C3254 1.376 . S
C3254 H3241 0.930 . S
C3254 C3253 1.376 . S
C3254 C3255 1.388 . S
C3255 H3242 0.930 . S
C3255 C3254 1.388 . S
C3255 C3256 1.390 . S
C3256 C3255 1.390 . S
C3256 C3257 1.394 . S
C3256 C3262 1.465 . S
C3257 C3252 1.399 . S
C3257 C3256 1.394 . S
C3257 C3258 1.516 . S
C3258 C3257 1.516 . S
C3258 C3259 1.502 . S
C3258 C3260 1.561 . S
C3258 C3261 1.526 . S
C3259 H3243 0.959 . S
C3259 H3244 0.959 . S
C3259 H3245 0.961 . S
C3259 C3258 1.502 . S
C3260 H3246 0.960 . S
C3260 H3247 0.961 . S
C3260 H3248 0.959 . S
C3260 C3258 1.561 . S
C3261 C3258 1.526 . S
C3261 C3262 1.396 . S
C3261 C3266 1.390 . S
C3262 C3256 1.465 . S
C3262 C3261 1.396 . S
C3262 C3263 1.399 . S
C3263 H3249 0.929 . S
C3263 C3262 1.399 . S
C3263 C3264 1.385 . S
C3264 H3250 0.931 . S
C3264 C3263 1.385 . S
C3264 C3265 1.389 . S
C3265 C3264 1.389 . S
C3265 C3266 1.387 . S
C3266 H3251 0.930 . S
C3266 C3261 1.390 . S
C3266 C3265 1.387 . S
H3267 C3279 0.930 . S
H3268 C3281 0.930 . S
H3269 C3282 0.930 . S
H3270 C3286 0.959 . S
H3271 C3286 0.959 . S
H3272 C3286 0.961 . S
H3273 C3287 0.960 . S
H3274 C3287 0.961 . S
H3275 C3287 0.959 . S
H3276 C3290 0.929 . S
H3277 C3291 0.931 . S
H3278 C3293 0.930 . S
C3279 H3267 0.930 . S
C3279 C3280 1.399 . S
C3279 C3284 1.399 . S
C3280 C3279 1.399 . S
C3280 C3281 1.376 . S
C3281 H3268 0.930 . S
C3281 C3280 1.376 . S
C3281 C3282 1.388 . S
C3282 H3269 0.930 . S
C3282 C3281 1.388 . S
C3282 C3283 1.390 . S
C3283 C3282 1.390 . S
C3283 C3284 1.394 . S
C3283 C3289 1.465 . S
C3284 C3279 1.399 . S
C3284 C3283 1.394 . S
C3284 C3285 1.516 . S
C3285 C3284 1.516 . S
C3285 C3286 1.502 . S
C3285 C3287 1.561 . S
C3285 C3288 1.526 . S
C3286 H3270 0.959 . S
C3286 H3271 0.959 . S
C3286 H3272 0.961 . S
C3286 C3285 1.502 . S
C3287 H3273 0.960 . S
C3287 H3274 0.961 . S
C3287 H3275 0.959 . S
C3287 C3285 1.561 . S
C3288 C3285 1.526 . S
C3288 C3289 1.396 . S
C3288 C3293 1.390 . S
C3289 C3283 1.465 . S
C3289 C3288 1.396 . S
C3289 C3290 1.399 . S
C3290 H3276 0.929 . S
C3290 C3289 1.399 . S
C3290 C3291 1.385 . S
C3291 H3277 0.931 . S
C3291 C3290 1.385 . S
C3291 C3292 1.389 . S
C3292 C3291 1.389 . S
C3292 C3293 1.387 . S
C3293 H3278 0.930 . S
C3293 C3288 1.390 . S
C3293 C3292 1.387 . S
H3294 C3306 0.930 . S
H3295 C3308 0.930 . S
H3296 C3309 0.930 . S
H3297 C3313 0.959 . S
H3298 C3313 0.959 . S
H3299 C3313 0.961 . S
H3300 C3314 0.960 . S
H3301 C3314 0.961 . S
H3302 C3314 0.959 . S
H3303 C3317 0.929 . S
H3304 C3318 0.931 . S
H3305 C3320 0.930 . S
C3306 H3294 0.930 . S
C3306 C3307 1.399 . S
C3306 C3311 1.399 . S
C3307 C3306 1.399 . S
C3307 C3308 1.376 . S
C3308 H3295 0.930 . S
C3308 C3307 1.376 . S
C3308 C3309 1.388 . S
C3309 H3296 0.930 . S
C3309 C3308 1.388 . S
C3309 C3310 1.390 . S
C3310 C3309 1.390 . S
C3310 C3311 1.394 . S
C3310 C3316 1.465 . S
C3311 C3306 1.399 . S
C3311 C3310 1.394 . S
C3311 C3312 1.516 . S
C3312 C3311 1.516 . S
C3312 C3313 1.502 . S
C3312 C3314 1.561 . S
C3312 C3315 1.526 . S
C3313 H3297 0.959 . S
C3313 H3298 0.959 . S
C3313 H3299 0.961 . S
C3313 C3312 1.502 . S
C3314 H3300 0.960 . S
C3314 H3301 0.961 . S
C3314 H3302 0.959 . S
C3314 C3312 1.561 . S
C3315 C3312 1.526 . S
C3315 C3316 1.396 . S
C3315 C3320 1.390 . S
C3316 C3310 1.465 . S
C3316 C3315 1.396 . S
C3316 C3317 1.399 . S
C3317 H3303 0.929 . S
C3317 C3316 1.399 . S
C3317 C3318 1.385 . S
C3318 H3304 0.931 . S
C3318 C3317 1.385 . S
C3318 C3319 1.389 . S
C3319 C3318 1.389 . S
C3319 C3320 1.387 . S
C3320 H3305 0.930 . S
C3320 C3315 1.390 . S
C3320 C3319 1.387 . S
H3321 C3333 0.930 . S
H3322 C3335 0.930 . S
H3323 C3336 0.930 . S
H3324 C3340 0.959 . S
H3325 C3340 0.959 . S
H3326 C3340 0.961 . S
H3327 C3341 0.960 . S
H3328 C3341 0.961 . S
H3329 C3341 0.959 . S
H3330 C3344 0.929 . S
H3331 C3345 0.931 . S
H3332 C3347 0.930 . S
C3333 H3321 0.930 . S
C3333 C3334 1.399 . S
C3333 C3338 1.399 . S
C3334 C3333 1.399 . S
C3334 C3335 1.376 . S
C3335 H3322 0.930 . S
C3335 C3334 1.376 . S
C3335 C3336 1.388 . S
C3336 H3323 0.930 . S
C3336 C3335 1.388 . S
C3336 C3337 1.390 . S
C3337 C3336 1.390 . S
C3337 C3338 1.394 . S
C3337 C3343 1.465 . S
C3338 C3333 1.399 . S
C3338 C3337 1.394 . S
C3338 C3339 1.516 . S
C3339 C3338 1.516 . S
C3339 C3340 1.502 . S
C3339 C3341 1.561 . S
C3339 C3342 1.526 . S
C3340 H3324 0.959 . S
C3340 H3325 0.959 . S
C3340 H3326 0.961 . S
C3340 C3339 1.502 . S
C3341 H3327 0.960 . S
C3341 H3328 0.961 . S
C3341 H3329 0.959 . S
C3341 C3339 1.561 . S
C3342 C3339 1.526 . S
C3342 C3343 1.396 . S
C3342 C3347 1.390 . S
C3343 C3337 1.465 . S
C3343 C3342 1.396 . S
C3343 C3344 1.399 . S
C3344 H3330 0.929 . S
C3344 C3343 1.399 . S
C3344 C3345 1.385 . S
C3345 H3331 0.931 . S
C3345 C3344 1.385 . S
C3345 C3346 1.389 . S
C3346 C3345 1.389 . S
C3346 C3347 1.387 . S
C3347 H3332 0.930 . S
C3347 C3342 1.390 . S
C3347 C3346 1.387 . S
H3348 C3360 0.930 . S
H3349 C3362 0.930 . S
H3350 C3363 0.930 . S
H3351 C3367 0.959 . S
H3352 C3367 0.959 . S
H3353 C3367 0.961 . S
H3354 C3368 0.960 . S
H3355 C3368 0.961 . S
H3356 C3368 0.959 . S
H3357 C3371 0.929 . S
H3358 C3372 0.931 . S
H3359 C3374 0.930 . S
C3360 H3348 0.930 . S
C3360 C3361 1.399 . S
C3360 C3365 1.399 . S
C3361 C3360 1.399 . S
C3361 C3362 1.376 . S
C3362 H3349 0.930 . S
C3362 C3361 1.376 . S
C3362 C3363 1.388 . S
C3363 H3350 0.930 . S
C3363 C3362 1.388 . S
C3363 C3364 1.390 . S
C3364 C3363 1.390 . S
C3364 C3365 1.394 . S
C3364 C3370 1.465 . S
C3365 C3360 1.399 . S
C3365 C3364 1.394 . S
C3365 C3366 1.516 . S
C3366 C3365 1.516 . S
C3366 C3367 1.502 . S
C3366 C3368 1.561 . S
C3366 C3369 1.526 . S
C3367 H3351 0.959 . S
C3367 H3352 0.959 . S
C3367 H3353 0.961 . S
C3367 C3366 1.502 . S
C3368 H3354 0.960 . S
C3368 H3355 0.961 . S
C3368 H3356 0.959 . S
C3368 C3366 1.561 . S
C3369 C3366 1.526 . S
C3369 C3370 1.396 . S
C3369 C3374 1.390 . S
C3370 C3364 1.465 . S
C3370 C3369 1.396 . S
C3370 C3371 1.399 . S
C3371 H3357 0.929 . S
C3371 C3370 1.399 . S
C3371 C3372 1.385 . S
C3372 H3358 0.931 . S
C3372 C3371 1.385 . S
C3372 C3373 1.389 . S
C3373 C3372 1.389 . S
C3373 C3374 1.387 . S
C3374 H3359 0.930 . S
C3374 C3369 1.390 . S
C3374 C3373 1.387 . S
H3375 C3387 0.930 . S
H3376 C3389 0.930 . S
H3377 C3390 0.930 . S
H3378 C3394 0.959 . S
H3379 C3394 0.959 . S
H3380 C3394 0.961 . S
H3381 C3395 0.960 . S
H3382 C3395 0.961 . S
H3383 C3395 0.959 . S
H3384 C3398 0.929 . S
H3385 C3399 0.931 . S
H3386 C3401 0.930 . S
C3387 H3375 0.930 . S
C3387 C3388 1.399 . S
C3387 C3392 1.399 . S
C3388 C3387 1.399 . S
C3388 C3389 1.376 . S
C3389 H3376 0.930 . S
C3389 C3388 1.376 . S
C3389 C3390 1.388 . S
C3390 H3377 0.930 . S
C3390 C3389 1.388 . S
C3390 C3391 1.390 . S
C3391 C3390 1.390 . S
C3391 C3392 1.394 . S
C3391 C3397 1.465 . S
C3392 C3387 1.399 . S
C3392 C3391 1.394 . S
C3392 C3393 1.516 . S
C3393 C3392 1.516 . S
C3393 C3394 1.502 . S
C3393 C3395 1.561 . S
C3393 C3396 1.526 . S
C3394 H3378 0.959 . S
C3394 H3379 0.959 . S
C3394 H3380 0.961 . S
C3394 C3393 1.502 . S
C3395 H3381 0.960 . S
C3395 H3382 0.961 . S
C3395 H3383 0.959 . S
C3395 C3393 1.561 . S
C3396 C3393 1.526 . S
C3396 C3397 1.396 . S
C3396 C3401 1.390 . S
C3397 C3391 1.465 . S
C3397 C3396 1.396 . S
C3397 C3398 1.399 . S
C3398 H3384 0.929 . S
C3398 C3397 1.399 . S
C3398 C3399 1.385 . S
C3399 H3385 0.931 . S
C3399 C3398 1.385 . S
C3399 C3400 1.389 . S
C3400 C3399 1.389 . S
C3400 C3401 1.387 . S
C3401 H3386 0.930 . S
C3401 C3396 1.390 . S
C3401 C3400 1.387 . S
H3402 C3414 0.930 . S
H3403 C3416 0.930 . S
H3404 C3417 0.930 . S
H3405 C3421 0.959 . S
H3406 C3421 0.959 . S
H3407 C3421 0.961 . S
H3408 C3422 0.960 . S
H3409 C3422 0.961 . S
H3410 C3422 0.959 . S
H3411 C3425 0.929 . S
H3412 C3426 0.931 . S
H3413 C3428 0.930 . S
C3414 H3402 0.930 . S
C3414 C3415 1.399 . S
C3414 C3419 1.399 . S
C3415 C3414 1.399 . S
C3415 C3416 1.376 . S
C3416 H3403 0.930 . S
C3416 C3415 1.376 . S
C3416 C3417 1.388 . S
C3417 H3404 0.930 . S
C3417 C3416 1.388 . S
C3417 C3418 1.390 . S
C3418 C3417 1.390 . S
C3418 C3419 1.394 . S
C3418 C3424 1.465 . S
C3419 C3414 1.399 . S
C3419 C3418 1.394 . S
C3419 C3420 1.516 . S
C3420 C3419 1.516 . S
C3420 C3421 1.502 . S
C3420 C3422 1.561 . S
C3420 C3423 1.526 . S
C3421 H3405 0.959 . S
C3421 H3406 0.959 . S
C3421 H3407 0.961 . S
C3421 C3420 1.502 . S
C3422 H3408 0.960 . S
C3422 H3409 0.961 . S
C3422 H3410 0.959 . S
C3422 C3420 1.561 . S
C3423 C3420 1.526 . S
C3423 C3424 1.396 . S
C3423 C3428 1.390 . S
C3424 C3418 1.465 . S
C3424 C3423 1.396 . S
C3424 C3425 1.399 . S
C3425 H3411 0.929 . S
C3425 C3424 1.399 . S
C3425 C3426 1.385 . S
C3426 H3412 0.931 . S
C3426 C3425 1.385 . S
C3426 C3427 1.389 . S
C3427 C3426 1.389 . S
C3427 C3428 1.387 . S
C3428 H3413 0.930 . S
C3428 C3423 1.390 . S
C3428 C3427 1.387 . S
H3429 C3441 0.930 . S
H3430 C3443 0.930 . S
H3431 C3444 0.930 . S
H3432 C3448 0.959 . S
H3433 C3448 0.959 . S
H3434 C3448 0.961 . S
H3435 C3449 0.960 . S
H3436 C3449 0.961 . S
H3437 C3449 0.959 . S
H3438 C3452 0.929 . S
H3439 C3453 0.931 . S
H3440 C3455 0.930 . S
C3441 H3429 0.930 . S
C3441 C3442 1.399 . S
C3441 C3446 1.399 . S
C3442 C3441 1.399 . S
C3442 C3443 1.376 . S
C3443 H3430 0.930 . S
C3443 C3442 1.376 . S
C3443 C3444 1.388 . S
C3444 H3431 0.930 . S
C3444 C3443 1.388 . S
C3444 C3445 1.390 . S
C3445 C3444 1.390 . S
C3445 C3446 1.394 . S
C3445 C3451 1.465 . S
C3446 C3441 1.399 . S
C3446 C3445 1.394 . S
C3446 C3447 1.516 . S
C3447 C3446 1.516 . S
C3447 C3448 1.502 . S
C3447 C3449 1.561 . S
C3447 C3450 1.526 . S
C3448 H3432 0.959 . S
C3448 H3433 0.959 . S
C3448 H3434 0.961 . S
C3448 C3447 1.502 . S
C3449 H3435 0.960 . S
C3449 H3436 0.961 . S
C3449 H3437 0.959 . S
C3449 C3447 1.561 . S
C3450 C3447 1.526 . S
C3450 C3451 1.396 . S
C3450 C3455 1.390 . S
C3451 C3445 1.465 . S
C3451 C3450 1.396 . S
C3451 C3452 1.399 . S
C3452 H3438 0.929 . S
C3452 C3451 1.399 . S
C3452 C3453 1.385 . S
C3453 H3439 0.931 . S
C3453 C3452 1.385 . S
C3453 C3454 1.389 . S
C3454 C3453 1.389 . S
C3454 C3455 1.387 . S
C3455 H3440 0.930 . S
C3455 C3450 1.390 . S
C3455 C3454 1.387 . S
H3456 C3468 0.930 . S
H3457 C3470 0.930 . S
H3458 C3471 0.930 . S
H3459 C3475 0.959 . S
H3460 C3475 0.959 . S
H3461 C3475 0.961 . S
H3462 C3476 0.960 . S
H3463 C3476 0.961 . S
H3464 C3476 0.959 . S
H3465 C3479 0.929 . S
H3466 C3480 0.931 . S
H3467 C3482 0.930 . S
C3468 H3456 0.930 . S
C3468 C3469 1.399 . S
C3468 C3473 1.399 . S
C3469 C3468 1.399 . S
C3469 C3470 1.376 . S
C3470 H3457 0.930 . S
C3470 C3469 1.376 . S
C3470 C3471 1.388 . S
C3471 H3458 0.930 . S
C3471 C3470 1.388 . S
C3471 C3472 1.390 . S
C3472 C3471 1.390 . S
C3472 C3473 1.394 . S
C3472 C3478 1.465 . S
C3473 C3468 1.399 . S
C3473 C3472 1.394 . S
C3473 C3474 1.516 . S
C3474 C3473 1.516 . S
C3474 C3475 1.502 . S
C3474 C3476 1.561 . S
C3474 C3477 1.526 . S
C3475 H3459 0.959 . S
C3475 H3460 0.959 . S
C3475 H3461 0.961 . S
C3475 C3474 1.502 . S
C3476 H3462 0.960 . S
C3476 H3463 0.961 . S
C3476 H3464 0.959 . S
C3476 C3474 1.561 . S
C3477 C3474 1.526 . S
C3477 C3478 1.396 . S
C3477 C3482 1.390 . S
C3478 C3472 1.465 . S
C3478 C3477 1.396 . S
C3478 C3479 1.399 . S
C3479 H3465 0.929 . S
C3479 C3478 1.399 . S
C3479 C3480 1.385 . S
C3480 H3466 0.931 . S
C3480 C3479 1.385 . S
C3480 C3481 1.389 . S
C3481 C3480 1.389 . S
C3481 C3482 1.387 . S
C3482 H3467 0.930 . S
C3482 C3477 1.390 . S
C3482 C3481 1.387 . S
H3483 C3495 0.930 . S
H3484 C3497 0.930 . S
H3485 C3498 0.930 . S
H3486 C3502 0.959 . S
H3487 C3502 0.959 . S
H3488 C3502 0.961 . S
H3489 C3503 0.960 . S
H3490 C3503 0.961 . S
H3491 C3503 0.959 . S
H3492 C3506 0.929 . S
H3493 C3507 0.931 . S
H3494 C3509 0.930 . S
C3495 H3483 0.930 . S
C3495 C3496 1.399 . S
C3495 C3500 1.399 . S
C3496 C3495 1.399 . S
C3496 C3497 1.376 . S
C3497 H3484 0.930 . S
C3497 C3496 1.376 . S
C3497 C3498 1.388 . S
C3498 H3485 0.930 . S
C3498 C3497 1.388 . S
C3498 C3499 1.390 . S
C3499 C3498 1.390 . S
C3499 C3500 1.394 . S
C3499 C3505 1.465 . S
C3500 C3495 1.399 . S
C3500 C3499 1.394 . S
C3500 C3501 1.516 . S
C3501 C3500 1.516 . S
C3501 C3502 1.502 . S
C3501 C3503 1.561 . S
C3501 C3504 1.526 . S
C3502 H3486 0.959 . S
C3502 H3487 0.959 . S
C3502 H3488 0.961 . S
C3502 C3501 1.502 . S
C3503 H3489 0.960 . S
C3503 H3490 0.961 . S
C3503 H3491 0.959 . S
C3503 C3501 1.561 . S
C3504 C3501 1.526 . S
C3504 C3505 1.396 . S
C3504 C3509 1.390 . S
C3505 C3499 1.465 . S
C3505 C3504 1.396 . S
C3505 C3506 1.399 . S
C3506 H3492 0.929 . S
C3506 C3505 1.399 . S
C3506 C3507 1.385 . S
C3507 H3493 0.931 . S
C3507 C3506 1.385 . S
C3507 C3508 1.389 . S
C3508 C3507 1.389 . S
C3508 C3509 1.387 . S
C3509 H3494 0.930 . S
C3509 C3504 1.390 . S
C3509 C3508 1.387 . S
H3510 C3522 0.930 . S
H3511 C3524 0.930 . S
H3512 C3525 0.930 . S
H3513 C3529 0.959 . S
H3514 C3529 0.959 . S
H3515 C3529 0.961 . S
H3516 C3530 0.960 . S
H3517 C3530 0.961 . S
H3518 C3530 0.959 . S
H3519 C3533 0.929 . S
H3520 C3534 0.931 . S
H3521 C3536 0.930 . S
C3522 H3510 0.930 . S
C3522 C3523 1.399 . S
C3522 C3527 1.399 . S
C3523 C3522 1.399 . S
C3523 C3524 1.376 . S
C3524 H3511 0.930 . S
C3524 C3523 1.376 . S
C3524 C3525 1.388 . S
C3525 H3512 0.930 . S
C3525 C3524 1.388 . S
C3525 C3526 1.390 . S
C3526 C3525 1.390 . S
C3526 C3527 1.394 . S
C3526 C3532 1.465 . S
C3527 C3522 1.399 . S
C3527 C3526 1.394 . S
C3527 C3528 1.516 . S
C3528 C3527 1.516 . S
C3528 C3529 1.502 . S
C3528 C3530 1.561 . S
C3528 C3531 1.526 . S
C3529 H3513 0.959 . S
C3529 H3514 0.959 . S
C3529 H3515 0.961 . S
C3529 C3528 1.502 . S
C3530 H3516 0.960 . S
C3530 H3517 0.961 . S
C3530 H3518 0.959 . S
C3530 C3528 1.561 . S
C3531 C3528 1.526 . S
C3531 C3532 1.396 . S
C3531 C3536 1.390 . S
C3532 C3526 1.465 . S
C3532 C3531 1.396 . S
C3532 C3533 1.399 . S
C3533 H3519 0.929 . S
C3533 C3532 1.399 . S
C3533 C3534 1.385 . S
C3534 H3520 0.931 . S
C3534 C3533 1.385 . S
C3534 C3535 1.389 . S
C3535 C3534 1.389 . S
C3535 C3536 1.387 . S
C3536 H3521 0.930 . S
C3536 C3531 1.390 . S
C3536 C3535 1.387 . S
H3537 C3549 0.930 . S
H3538 C3551 0.930 . S
H3539 C3552 0.930 . S
H3540 C3556 0.959 . S
H3541 C3556 0.959 . S
H3542 C3556 0.961 . S
H3543 C3557 0.960 . S
H3544 C3557 0.961 . S
H3545 C3557 0.959 . S
H3546 C3560 0.929 . S
H3547 C3561 0.931 . S
H3548 C3563 0.930 . S
C3549 H3537 0.930 . S
C3549 C3550 1.399 . S
C3549 C3554 1.399 . S
C3550 C3549 1.399 . S
C3550 C3551 1.376 . S
C3551 H3538 0.930 . S
C3551 C3550 1.376 . S
C3551 C3552 1.388 . S
C3552 H3539 0.930 . S
C3552 C3551 1.388 . S
C3552 C3553 1.390 . S
C3553 C3552 1.390 . S
C3553 C3554 1.394 . S
C3553 C3559 1.465 . S
C3554 C3549 1.399 . S
C3554 C3553 1.394 . S
C3554 C3555 1.516 . S
C3555 C3554 1.516 . S
C3555 C3556 1.502 . S
C3555 C3557 1.561 . S
C3555 C3558 1.526 . S
C3556 H3540 0.959 . S
C3556 H3541 0.959 . S
C3556 H3542 0.961 . S
C3556 C3555 1.502 . S
C3557 H3543 0.960 . S
C3557 H3544 0.961 . S
C3557 H3545 0.959 . S
C3557 C3555 1.561 . S
C3558 C3555 1.526 . S
C3558 C3559 1.396 . S
C3558 C3563 1.390 . S
C3559 C3553 1.465 . S
C3559 C3558 1.396 . S
C3559 C3560 1.399 . S
C3560 H3546 0.929 . S
C3560 C3559 1.399 . S
C3560 C3561 1.385 . S
C3561 H3547 0.931 . S
C3561 C3560 1.385 . S
C3561 C3562 1.389 . S
C3562 C3561 1.389 . S
C3562 C3563 1.387 . S
C3563 H3548 0.930 . S
C3563 C3558 1.390 . S
C3563 C3562 1.387 . S
H3564 C3576 0.930 . S
H3565 C3578 0.930 . S
H3566 C3579 0.930 . S
H3567 C3583 0.959 . S
H3568 C3583 0.959 . S
H3569 C3583 0.961 . S
H3570 C3584 0.960 . S
H3571 C3584 0.961 . S
H3572 C3584 0.959 . S
H3573 C3587 0.929 . S
H3574 C3588 0.931 . S
H3575 C3590 0.930 . S
C3576 H3564 0.930 . S
C3576 C3577 1.399 . S
C3576 C3581 1.399 . S
C3577 C3576 1.399 . S
C3577 C3578 1.376 . S
C3578 H3565 0.930 . S
C3578 C3577 1.376 . S
C3578 C3579 1.388 . S
C3579 H3566 0.930 . S
C3579 C3578 1.388 . S
C3579 C3580 1.390 . S
C3580 C3579 1.390 . S
C3580 C3581 1.394 . S
C3580 C3586 1.465 . S
C3581 C3576 1.399 . S
C3581 C3580 1.394 . S
C3581 C3582 1.516 . S
C3582 C3581 1.516 . S
C3582 C3583 1.502 . S
C3582 C3584 1.561 . S
C3582 C3585 1.526 . S
C3583 H3567 0.959 . S
C3583 H3568 0.959 . S
C3583 H3569 0.961 . S
C3583 C3582 1.502 . S
C3584 H3570 0.960 . S
C3584 H3571 0.961 . S
C3584 H3572 0.959 . S
C3584 C3582 1.561 . S
C3585 C3582 1.526 . S
C3585 C3586 1.396 . S
C3585 C3590 1.390 . S
C3586 C3580 1.465 . S
C3586 C3585 1.396 . S
C3586 C3587 1.399 . S
C3587 H3573 0.929 . S
C3587 C3586 1.399 . S
C3587 C3588 1.385 . S
C3588 H3574 0.931 . S
C3588 C3587 1.385 . S
C3588 C3589 1.389 . S
C3589 C3588 1.389 . S
C3589 C3590 1.387 . S
C3590 H3575 0.930 . S
C3590 C3585 1.390 . S
C3590 C3589 1.387 . S
H3591 C3603 0.930 . S
H3592 C3605 0.930 . S
H3593 C3606 0.930 . S
H3594 C3610 0.959 . S
H3595 C3610 0.959 . S
H3596 C3610 0.961 . S
H3597 C3611 0.960 . S
H3598 C3611 0.961 . S
H3599 C3611 0.959 . S
H3600 C3614 0.929 . S
H3601 C3615 0.931 . S
H3602 C3617 0.930 . S
C3603 H3591 0.930 . S
C3603 C3604 1.399 . S
C3603 C3608 1.399 . S
C3604 C3603 1.399 . S
C3604 C3605 1.376 . S
C3605 H3592 0.930 . S
C3605 C3604 1.376 . S
C3605 C3606 1.388 . S
C3606 H3593 0.930 . S
C3606 C3605 1.388 . S
C3606 C3607 1.390 . S
C3607 C3606 1.390 . S
C3607 C3608 1.394 . S
C3607 C3613 1.465 . S
C3608 C3603 1.399 . S
C3608 C3607 1.394 . S
C3608 C3609 1.516 . S
C3609 C3608 1.516 . S
C3609 C3610 1.502 . S
C3609 C3611 1.561 . S
C3609 C3612 1.526 . S
C3610 H3594 0.959 . S
C3610 H3595 0.959 . S
C3610 H3596 0.961 . S
C3610 C3609 1.502 . S
C3611 H3597 0.960 . S
C3611 H3598 0.961 . S
C3611 H3599 0.959 . S
C3611 C3609 1.561 . S
C3612 C3609 1.526 . S
C3612 C3613 1.396 . S
C3612 C3617 1.390 . S
C3613 C3607 1.465 . S
C3613 C3612 1.396 . S
C3613 C3614 1.399 . S
C3614 H3600 0.929 . S
C3614 C3613 1.399 . S
C3614 C3615 1.385 . S
C3615 H3601 0.931 . S
C3615 C3614 1.385 . S
C3615 C3616 1.389 . S
C3616 C3615 1.389 . S
C3616 C3617 1.387 . S
C3617 H3602 0.930 . S
C3617 C3612 1.390 . S
C3617 C3616 1.387 . S
C1201 C120 0.484 . S
C1213 C21 0.423 . S
C1228 C54 0.449 . S
C1240 C153 0.497 . S
C1255 C186 0.333 . S
C1267 C87 0.324 . S
C1282 C318 0.504 . S
C1294 C219 0.471 . S
C1309 C252 0.322 . S
C1321 C351 0.431 . S
C1336 C384 0.456 . S
C1348 C285 0.336 . S
C1363 C516 0.485 . S
C1375 C417 0.424 . S
C1390 C450 0.406 . S
C1402 C549 0.341 . S
C1417 C582 0.509 . S
C1429 C483 0.495 . S
C1444 C615 0.390 . S
C1456 C714 0.496 . S
C1471 C648 0.321 . S
C1483 C747 0.427 . S
C1498 C780 0.383 . S
C1510 C681 0.493 . S
C1525 C912 0.468 . S
C1537 C813 0.400 . S
C1552 C945 0.450 . S
C1564 C846 0.498 . S
C1579 C978 0.325 . S
C1591 C879 0.381 . S
C1606 C1110 0.358 . S
C1618 C1011 0.337 . S
C1633 C1044 0.509 . S
C1645 C1143 0.424 . S
C1660 C1176 0.456 . S
C1672 C1077 0.336 . S
C1687 C7 1.688 . S
C1699 C964 1.668 . S
C1714 C898 1.659 . S
C1726 C40 1.705 1_565 S
C1741 C73 1.660 1_455 S
C1753 C931 1.703 . S
C1768 C436 1.675 . S
C1780 C106 1.721 . S
C1795 C139 1.722 . S
C1807 C469 1.671 . S
C1822 C403 1.722 . S
C1834 C172 1.676 . S
C1849 C766 1.694 . S
C1861 C205 1.721 . S
C1876 C700 1.690 . S
C1888 C238 1.660 1_545 S
C1903 C733 1.672 . S
C1915 C271 1.667 1_655 S
C1930 C304 1.693 . S
C1942 C1030 1.721 . S
C1957 C1063 1.702 . S
C1969 C337 1.640 1_565 S
C1984 C370 1.689 . S
C1996 C997 1.721 . S
C2011 C832 1.659 . S
C2023 C502 1.712 . S
C2038 C865 1.721 . S
C2050 C535 1.678 . S
C2065 C799 1.660 . S
C2077 C568 1.702 . S
C2092 C601 1.712 . S
C2104 C1162 1.668 . S
C2119 C634 1.685 . S
C2131 C1096 1.721 . S
C2146 C1129 1.668 . S
C2158 C667 1.669 . S
C2173 N13 1.255 . S
C2185 N607 1.241 . S
C2200 N640 1.236 . S
C2212 N46 1.260 . S
C2227 N79 1.257 . S
C2239 N673 1.239 . S
C2254 N1102 1.262 . S
C2266 N112 1.255 . S
C2281 N145 1.220 . S
C2293 N1135 1.286 . S
C2308 N1168 1.218 . S
C2320 N178 1.283 . S
C2335 N211 1.287 . S
C2347 N805 1.221 . S
C2362 N244 1.248 . S
C2374 N838 1.267 . S
C2389 N277 1.241 . S
C2401 N871 1.273 . S
C2416 N508 1.225 . S
C2428 N310 1.273 . S
C2443 N541 1.279 . S
C2455 N343 1.221 . S
C2470 N376 1.286 . S
C2482 N574 1.222 . S
C2497 N409 1.250 . S
C2509 N1003 1.266 . S
C2524 N1036 1.258 . S
C2536 N442 1.238 . S
C2551 N475 1.284 . S
C2563 N1069 1.220 . S
C2578 N904 1.285 . S
C2590 N706 1.226 . S
C2605 N739 1.266 . S
C2617 N937 1.231 . S
C2632 N970 1.286 . S
C2644 N772 1.221 . S
C2659 N233 1.579 . S
C2671 C18 1.609 . S
C2686 C51 1.617 . S
C2698 N266 1.530 . S
C2713 C84 1.615 . S
C2725 N200 1.548 . S
C2740 C117 1.618 . S
C2752 N365 1.504 . S
C2767 C150 1.614 . S
C2779 N299 1.551 . S
C2794 C183 1.613 . S
C2806 N332 1.561 . S
C2821 N35 1.569 . S
C2833 C216 1.608 . S
C2848 N68 1.535 . S
C2860 C249 1.613 . S
C2875 N2 1.507 . S
C2887 C282 1.618 . S
C2902 C315 1.615 . S
C2914 N167 1.526 . S
C2929 C348 1.606 . S
C2941 N101 1.580 . S
C2956 C381 1.605 . S
C2968 N134 1.581 . S
C2983 C414 1.618 . S
C2995 N629 1.519 . S
C3010 N662 1.560 . S
C3022 C447 1.607 . S
C3037 N596 1.517 . S
C3049 C480 1.618 . S
C3064 C513 1.618 . S
C3076 N761 1.505 . S
C3091 N695 1.578 . S
C3103 C546 1.609 . S
C3118 N728 1.501 . S
C3130 C579 1.617 . S
C3145 C612 1.618 . S
C3157 N431 1.502 . S
C3172 C645 1.606 . S
C3184 N464 1.581 . S
C3199 N398 1.503 . S
C3211 C678 1.618 . S
C3226 N563 1.514 . S
C3238 C711 1.616 . S
C3253 N497 1.562 . S
C3265 C744 1.609 . S
C3280 N530 1.543 . S
C3292 C777 1.612 . S
C3307 C810 1.612 . S
C3319 N1025 1.565 . S
C3334 N1058 1.551 . S
C3346 C843 1.615 . S
C3361 N992 1.539 . S
C3373 C876 1.616 . S
C3388 C909 1.606 . S
C3400 N1157 1.563 . S
C3415 C942 1.607 . S
C3427 N1091 1.549 . S
C3442 C975 1.612 . S
C3454 N1124 1.519 . S
C3469 N827 1.526 . S
C3481 C1008 1.615 . S
C3496 N860 1.574 . S
C3508 C1041 1.607 . S
C3523 C1074 1.610 . S
C3535 N794 1.552 . S
C3550 C1107 1.616 . S
C3562 N959 1.515 . S
C3577 C1140 1.607 . S
C3589 N893 1.573 . S
C3604 C1173 1.618 . S
C3616 N926 1.503 . S
