# Generated by pormake.
# Topology ske, (6)-cn, num edge types: 1
# Building blocks:
#     Node 0, Type 0, BuildingBlock: FUNLAD_clean_sbu_0, # of connection points: 6
#     Node 1, Type 0, BuildingBlock: FUNLAD_clean_sbu_0, # of connection points: 6
#     Node 2, Type 0, BuildingBlock: FUNLAD_clean_sbu_0, # of connection points: 6
#     Node 3, Type 0, BuildingBlock: FUNLAD_clean_sbu_0, # of connection points: 6
#     Node 4, Type 0, BuildingBlock: FUNLAD_clean_sbu_0, # of connection points: 6
#     Node 5, Type 0, BuildingBlock: FUNLAD_clean_sbu_0, # of connection points: 6
#     Node 6, Type 0, BuildingBlock: FUNLAD_clean_sbu_0, # of connection points: 6
#     Node 7, Type 0, BuildingBlock: FUNLAD_clean_sbu_0, # of connection points: 6
#     Edge 8, Type (0, 0), BuildingBlock: EZIPEK_clean_linker_0, # of connection points: 2
#     Edge 9, Type (0, 0), BuildingBlock: EZIPEK_clean_linker_0, # of connection points: 2
#     Edge 10, Type (0, 0), BuildingBlock: EZIPEK_clean_linker_0, # of connection points: 2
#     Edge 11, Type (0, 0), BuildingBlock: EZIPEK_clean_linker_0, # of connection points: 2
#     Edge 12, Type (0, 0), BuildingBlock: EZIPEK_clean_linker_0, # of connection points: 2
#     Edge 13, Type (0, 0), BuildingBlock: EZIPEK_clean_linker_0, # of connection points: 2
#     Edge 14, Type (0, 0), BuildingBlock: EZIPEK_clean_linker_0, # of connection points: 2
#     Edge 15, Type (0, 0), BuildingBlock: EZIPEK_clean_linker_0, # of connection points: 2
#     Edge 16, Type (0, 0), BuildingBlock: EZIPEK_clean_linker_0, # of connection points: 2
#     Edge 17, Type (0, 0), BuildingBlock: EZIPEK_clean_linker_0, # of connection points: 2
#     Edge 18, Type (0, 0), BuildingBlock: EZIPEK_clean_linker_0, # of connection points: 2
#     Edge 19, Type (0, 0), BuildingBlock: EZIPEK_clean_linker_0, # of connection points: 2
#     Edge 20, Type (0, 0), BuildingBlock: EZIPEK_clean_linker_0, # of connection points: 2
#     Edge 21, Type (0, 0), BuildingBlock: EZIPEK_clean_linker_0, # of connection points: 2
#     Edge 22, Type (0, 0), BuildingBlock: EZIPEK_clean_linker_0, # of connection points: 2
#     Edge 23, Type (0, 0), BuildingBlock: EZIPEK_clean_linker_0, # of connection points: 2
#     Edge 24, Type (0, 0), BuildingBlock: EZIPEK_clean_linker_0, # of connection points: 2
#     Edge 25, Type (0, 0), BuildingBlock: EZIPEK_clean_linker_0, # of connection points: 2
#     Edge 26, Type (0, 0), BuildingBlock: EZIPEK_clean_linker_0, # of connection points: 2
#     Edge 27, Type (0, 0), BuildingBlock: EZIPEK_clean_linker_0, # of connection points: 2
#     Edge 28, Type (0, 0), BuildingBlock: EZIPEK_clean_linker_0, # of connection points: 2
#     Edge 29, Type (0, 0), BuildingBlock: EZIPEK_clean_linker_0, # of connection points: 2
#     Edge 30, Type (0, 0), BuildingBlock: EZIPEK_clean_linker_0, # of connection points: 2
#     Edge 31, Type (0, 0), BuildingBlock: EZIPEK_clean_linker_0, # of connection points: 2
# Relax obj value: 0.042
# Max RMSD: 0.116
# Mean RMSD: 0.112
data_MOF--net-ske--node1-FUNLAD_clean_sbu_0--edge1-EZIPEK_clean_linker_0
_symmetry_space_group_name_H-M    P1
_symmetry_Int_Tables_number       1
_symmetry_cell_setting            triclinic
loop_
_symmetry_equiv_pos_as_xyz
'x, y, z'
_cell_length_a     43.118646
_cell_length_b     35.071355
_cell_length_c     11.050432
_cell_angle_alpha  90.084881
_cell_angle_beta   90.094024
_cell_angle_gamma 91.449719
loop_
_atom_site_label
_atom_site_type_symbol
_atom_site_fract_x
_atom_site_fract_y
_atom_site_fract_z
_atom_type_partial_charge
C0 C 0.18732 0.26987 0.62453 0.0
N1 N 0.12406 0.18092 0.54686 0.0
C2 C 0.14811 0.16398 0.49009 0.0
C3 C 0.14788 0.12459 0.47294 0.0
C4 C 0.1224 0.10243 0.51257 0.0
C5 C 0.09789 0.12039 0.57139 0.0
C6 C 0.09932 0.15994 0.58861 0.0
Zn7 Zn 0.12519 0.23933 0.55707 0.0
C8 C 0.11428 0.26877 0.80628 0.0
N9 N 0.12891 0.36115 0.56702 0.0
C10 C 0.15407 0.37889 0.51566 0.0
C11 C 0.10453 0.38145 0.60784 0.0
C12 C 0.10436 0.42104 0.59318 0.0
C13 C 0.12976 0.43978 0.53812 0.0
C14 C 0.15512 0.41841 0.50147 0.0
Zn15 Zn 0.12694 0.30272 0.56602 0.0
O16 O 0.17314 0.23886 0.59755 0.0
C17 C 0.13793 0.27334 0.31659 0.0
O18 O 0.17379 0.30131 0.61283 0.0
H19 H 0.08477 0.36685 0.64849 0.0
H20 H 0.16734 0.18111 0.45589 0.0
H21 H 0.17302 0.36227 0.48213 0.0
O22 O 0.13376 0.24169 0.37041 0.0
O23 O 0.13673 0.30368 0.3788 0.0
H24 H 0.08042 0.17394 0.6333 0.0
O25 O 0.07962 0.30339 0.52553 0.0
O26 O 0.07711 0.24069 0.52072 0.0
O27 O 0.11726 0.30059 0.75177 0.0
O28 O 0.11649 0.23827 0.74482 0.0
C29 C 0.06402 0.27257 0.51179 0.0
H30 H 0.16711 0.11156 0.427 0.0
H31 H 0.07788 0.10399 0.60288 0.0
H32 H 0.08444 0.43682 0.62251 0.0
H33 H 0.17505 0.43207 0.45864 0.0
C34 C 0.93118 0.27669 0.49941 0.0
N35 N 0.86696 0.36283 0.54124 0.0
C36 C 0.89112 0.38449 0.58515 0.0
C37 C 0.89139 0.42412 0.57186 0.0
C38 C 0.86632 0.44149 0.51486 0.0
C39 C 0.84126 0.41867 0.47416 0.0
C40 C 0.8422 0.37916 0.48722 0.0
Zn41 Zn 0.86848 0.30454 0.54475 0.0
C42 C 0.85706 0.27182 0.30055 0.0
N43 N 0.87096 0.18287 0.54262 0.0
C44 C 0.8963 0.16466 0.58501 0.0
C45 C 0.84743 0.16328 0.48605 0.0
C46 C 0.84908 0.12399 0.46813 0.0
C47 C 0.87542 0.10483 0.50705 0.0
C48 C 0.89914 0.12544 0.56708 0.0
Zn49 Zn 0.8695 0.24119 0.54714 0.0
O50 O 0.91622 0.30727 0.50676 0.0
C51 C 0.88142 0.274 0.79066 0.0
O52 O 0.91721 0.24468 0.51055 0.0
H53 H 0.82769 0.17831 0.45159 0.0
H54 H 0.91052 0.37098 0.6281 0.0
H55 H 0.91475 0.18071 0.62971 0.0
O56 O 0.87777 0.30474 0.73195 0.0
O57 O 0.879 0.24251 0.73365 0.0
H58 H 0.82339 0.36147 0.45173 0.0
O59 O 0.82169 0.23848 0.59002 0.0
O60 O 0.82102 0.30115 0.58744 0.0
O61 O 0.86038 0.24117 0.35956 0.0
O62 O 0.85934 0.30316 0.35783 0.0
C63 C 0.80741 0.26926 0.6067 0.0
H64 H 0.91106 0.44103 0.60435 0.0
H65 H 0.82158 0.43128 0.42981 0.0
H66 H 0.8304 0.10883 0.42148 0.0
H67 H 0.91976 0.11139 0.59825 0.0
C68 C 0.06823 0.76771 0.41846 0.0
N69 N 0.13109 0.86137 0.39395 0.0
C70 C 0.10641 0.87946 0.34546 0.0
C71 C 0.10371 0.91889 0.35897 0.0
C72 C 0.1269 0.93979 0.42105 0.0
C73 C 0.15265 0.92072 0.46607 0.0
C74 C 0.15415 0.88125 0.45242 0.0
Zn75 Zn 0.13214 0.80292 0.39462 0.0
C76 C 0.13633 0.77413 0.639 0.0
N77 N 0.13236 0.68098 0.40767 0.0
C78 C 0.10957 0.65899 0.35521 0.0
C79 C 0.15514 0.66506 0.47489 0.0
C80 C 0.15542 0.62568 0.49254 0.0
C81 C 0.13164 0.60257 0.44284 0.0
C82 C 0.1086 0.61951 0.37272 0.0
Zn83 Zn 0.13119 0.73931 0.39793 0.0
O84 O 0.08297 0.79958 0.41857 0.0
C85 C 0.12721 0.7694 0.1536 0.0
O86 O 0.08281 0.73691 0.41046 0.0
H87 H 0.17276 0.683 0.51743 0.0
H88 H 0.08834 0.8632 0.29919 0.0
H89 H 0.0917 0.67214 0.302 0.0
O90 O 0.12691 0.80088 0.21015 0.0
O91 O 0.12829 0.73794 0.21019 0.0
H92 H 0.17334 0.86637 0.49191 0.0
O93 O 0.18007 0.74249 0.38042 0.0
O94 O 0.18023 0.80445 0.3664 0.0
O95 O 0.13347 0.74221 0.58565 0.0
O96 O 0.13848 0.80465 0.57874 0.0
C97 C 0.19507 0.77367 0.3632 0.0
H98 H 0.08355 0.93286 0.32317 0.0
H99 H 0.1709 0.9361 0.51454 0.0
H100 H 0.17352 0.61343 0.54712 0.0
H101 H 0.08995 0.60238 0.33305 0.0
C102 C 0.93481 0.77168 0.41284 0.0
N103 N 0.86851 0.68339 0.39951 0.0
C104 C 0.89131 0.66212 0.35048 0.0
C105 C 0.89113 0.62264 0.36692 0.0
C106 C 0.86697 0.60491 0.4324 0.0
C107 C 0.84328 0.62728 0.47904 0.0
C108 C 0.84467 0.66675 0.46251 0.0
Zn109 Zn 0.87105 0.74164 0.38784 0.0
C110 C 0.86604 0.77745 0.62861 0.0
N111 N 0.87404 0.86397 0.38068 0.0
C112 C 0.89879 0.88376 0.33366 0.0
C113 C 0.85078 0.88229 0.43816 0.0
C114 C 0.852 0.92178 0.45167 0.0
C115 C 0.87766 0.94269 0.40774 0.0
C116 C 0.9012 0.92344 0.3471 0.0
Zn117 Zn 0.87206 0.80541 0.38296 0.0
O118 O 0.91904 0.74073 0.40978 0.0
C119 C 0.87695 0.77025 0.14295 0.0
O120 O 0.92131 0.80345 0.40607 0.0
H121 H 0.83161 0.86618 0.47726 0.0
H122 H 0.90998 0.67585 0.30034 0.0
H123 H 0.91709 0.86871 0.28873 0.0
O124 O 0.87604 0.73915 0.20159 0.0
O125 O 0.87715 0.80217 0.19754 0.0
H126 H 0.82696 0.68416 0.50185 0.0
O127 O 0.82381 0.80595 0.35572 0.0
O128 O 0.8224 0.74334 0.35921 0.0
O129 O 0.86597 0.80778 0.5673 0.0
O130 O 0.86695 0.74539 0.57554 0.0
C131 C 0.80881 0.77465 0.34269 0.0
H132 H 0.90973 0.60608 0.32962 0.0
H133 H 0.8243 0.61438 0.52989 0.0
H134 H 0.83354 0.93583 0.49933 0.0
H135 H 0.92136 0.93888 0.3125 0.0
C136 C 0.68612 0.76875 0.13277 0.0
N137 N 0.62048 0.68033 0.07416 0.0
C138 C 0.64444 0.6623 0.02025 0.0
C139 C 0.64342 0.62284 0.00435 0.0
C140 C 0.61729 0.60161 0.04252 0.0
C141 C 0.59299 0.6206 0.09941 0.0
C142 C 0.59515 0.66026 0.11509 0.0
Zn143 Zn 0.62278 0.73909 0.07599 0.0
C144 C 0.6128 0.77325 0.31901 0.0
N145 N 0.62959 0.86142 0.06212 0.0
C146 C 0.65342 0.87568 -0.00621 0.0
C147 C 0.6081 0.88489 0.11028 0.0
C148 C 0.60972 0.92423 0.0871 0.0
C149 C 0.63345 0.93914 0.01273 0.0
C150 C 0.65566 0.91447 0.96729 0.0
Zn151 Zn 0.62594 0.8028 0.07312 0.0
O152 O 0.67053 0.73784 0.11983 0.0
C153 C 0.63561 0.76846 0.82921 0.0
O154 O 0.67366 0.80043 0.11144 0.0
H155 H 0.58925 0.873 0.16389 0.0
H156 H 0.66413 0.67866 -0.0138 0.0
H157 H 0.67032 0.85673 0.95645 0.0
O158 O 0.63199 0.73793 0.88922 0.0
O159 O 0.63375 0.79991 0.88525 0.0
H160 H 0.57628 0.67507 0.15707 0.0
O161 O 0.57804 0.80442 0.04034 0.0
O162 O 0.57487 0.74162 0.03751 0.0
O163 O 0.61784 0.80396 0.26021 0.0
O164 O 0.61345 0.74162 0.2623 0.0
C165 C 0.56206 0.77373 0.02896 0.0
H166 H 0.6625 0.60906 0.95977 0.0
H167 H 0.57245 0.60497 0.12963 0.0
H168 H 0.59224 0.94263 0.12372 0.0
H169 H 0.6743 0.92509 0.90991 0.0
C170 C 0.429 0.77664 0.00587 0.0
N171 N 0.36224 0.86004 0.01946 0.0
C172 C 0.38418 0.88256 0.07489 0.0
C173 C 0.38322 0.92217 0.06494 0.0
C174 C 0.35905 0.93863 -0.00023 0.0
C175 C 0.33624 0.91488 0.94643 0.0
C176 C 0.33854 0.8754 0.95598 0.0
Zn177 Zn 0.36534 0.80211 0.02625 0.0
C178 C 0.36088 0.76733 0.78605 0.0
N179 N 0.36882 0.6807 0.03209 0.0
C180 C 0.39413 0.6639 0.08045 0.0
C181 C 0.34632 0.65973 -0.02588 0.0
C182 C 0.349 0.62041 0.96126 0.0
C183 C 0.37535 0.60266 0.00651 0.0
C184 C 0.39804 0.62469 0.06748 0.0
Zn185 Zn 0.36593 0.73877 0.03158 0.0
O186 O 0.41364 0.80688 0.01196 0.0
C187 C 0.37014 0.77241 0.27165 0.0
O188 O 0.41503 0.74429 0.0079 0.0
H189 H 0.32663 0.67364 0.93474 0.0
H190 H 0.4027 0.8698 0.12558 0.0
H191 H 0.41171 0.68104 0.12645 0.0
O192 O 0.36842 0.80359 0.21409 0.0
O193 O 0.37118 0.74083 0.21605 0.0
H194 H 0.32158 0.85704 0.91127 0.0
O195 O 0.31774 0.73491 0.06011 0.0
O196 O 0.31668 0.79675 0.0447 0.0
O197 O 0.35964 0.73687 0.84696 0.0
O198 O 0.36283 0.79943 0.83881 0.0
C199 C 0.30228 0.76521 0.06265 0.0
H200 H 0.40114 0.93983 0.10727 0.0
H201 H 0.3173 0.92679 0.89558 0.0
H202 H 0.33113 0.6041 0.91363 0.0
H203 H 0.41864 0.61171 0.1034 0.0
C204 C 0.56469 0.26544 0.9429 0.0
N205 N 0.62454 0.36087 0.90769 0.0
C206 C 0.59932 0.37913 0.8644 0.0
C207 C 0.59647 0.41842 0.88199 0.0
C208 C 0.62 0.43908 0.94311 0.0
C209 C 0.64615 0.41981 -0.01646 0.0
C210 C 0.64787 0.38049 0.96552 0.0
Zn211 Zn 0.62648 0.30229 0.90092 0.0
C212 C 0.63846 0.27067 0.14467 0.0
N213 N 0.63005 0.18011 0.89869 0.0
C214 C 0.60858 0.15729 0.84241 0.0
C215 C 0.65338 0.16474 0.96352 0.0
C216 C 0.65651 0.1253 0.96964 0.0
C217 C 0.63683 0.10039 0.90174 0.0
C218 C 0.61108 0.11753 0.84548 0.0
Zn219 Zn 0.62736 0.23863 0.89775 0.0
O220 O 0.5786 0.29769 0.93631 0.0
C221 C 0.61536 0.27049 0.65463 0.0
O222 O 0.57963 0.23495 0.93138 0.0
H223 H 0.66952 0.18316 0.01248 0.0
H224 H 0.581 0.36308 0.81883 0.0
H225 H 0.58919 0.16988 0.79641 0.0
O226 O 0.6175 0.30157 0.7139 0.0
O227 O 0.61887 0.2393 0.71108 0.0
H228 H 0.66755 0.36549 0.00055 0.0
O229 O 0.67474 0.24297 0.85743 0.0
O230 O 0.67433 0.30567 0.86056 0.0
O231 O 0.63582 0.23966 0.08579 0.0
O232 O 0.63532 0.30169 0.08759 0.0
C233 C 0.68847 0.27494 0.84091 0.0
H234 H 0.57598 0.4325 0.84966 0.0
H235 H 0.6647 0.43494 0.03109 0.0
H236 H 0.67397 0.11524 0.03081 0.0
H237 H 0.59216 0.101 0.80643 0.0
C238 C 0.43169 0.26688 0.94274 0.0
N239 N 0.36344 0.18156 0.92075 0.0
C240 C 0.38613 0.15991 0.87274 0.0
C241 C 0.38476 0.12033 0.88471 0.0
C242 C 0.35944 0.1029 0.94397 0.0
C243 C 0.33587 0.12568 -0.01042 0.0
C244 C 0.33855 0.16527 -0.02173 0.0
Zn245 Zn 0.36766 0.23954 0.91125 0.0
C246 C 0.36264 0.27529 0.15161 0.0
N247 N 0.37404 0.36135 0.90335 0.0
C248 C 0.39937 0.38007 0.85676 0.0
C249 C 0.35099 0.38068 0.95856 0.0
C250 C 0.35289 0.4202 0.96929 0.0
C251 C 0.37904 0.44006 0.92511 0.0
C252 C 0.4025 0.41975 0.86772 0.0
Zn253 Zn 0.37036 0.30309 0.90597 0.0
O254 O 0.41531 0.23646 0.93756 0.0
C255 C 0.37543 0.26758 0.66602 0.0
O256 O 0.41904 0.29911 0.93424 0.0
H257 H 0.33135 0.36539 -0.00264 0.0
H258 H 0.40555 0.17334 0.82629 0.0
H259 H 0.41747 0.36418 0.81362 0.0
O260 O 0.37354 0.23671 0.72541 0.0
O261 O 0.37649 0.29958 0.72023 0.0
H262 H 0.32091 0.18301 0.01659 0.0
O263 O 0.32263 0.306 0.87365 0.0
O264 O 0.31928 0.24346 0.8788 0.0
O265 O 0.36328 0.30568 0.09042 0.0
O266 O 0.36285 0.24322 0.09832 0.0
C267 C 0.30688 0.27537 0.85923 0.0
H268 H 0.40325 0.10345 0.84817 0.0
H269 H 0.316 0.11298 0.0355 0.0
H270 H 0.33449 0.4351 0.01455 0.0
H271 H 0.42303 0.4344 0.83311 0.0
C272 C 0.22202 0.25222 0.79682 0.0
C273 C 0.21828 0.26971 0.68154 0.0
C274 C 0.27234 0.29268 0.68532 0.0
C275 C 0.27581 0.27631 0.80259 0.0
N276 N 0.25311 0.24707 -0.02072 0.0
N277 N 0.23819 0.30954 0.52044 0.0
C278 C 0.25044 0.25767 0.86061 0.0
C279 C 0.24293 0.29097 0.62755 0.0
N280 N 0.19835 0.23073 0.84625 0.0
N281 N 0.29748 0.30802 0.62569 0.0
H282 H 0.21822 0.30559 0.46803 0.0
H283 H 0.25334 0.33031 0.48559 0.0
H284 H 0.31951 0.31074 0.66312 0.0
H285 H 0.29739 0.31548 0.5346 0.0
H286 H 0.20095 0.21327 0.92146 0.0
H287 H 0.17623 0.22843 0.80905 0.0
H288 H 0.23465 0.23709 0.03193 0.0
H289 H 0.27341 0.25155 0.0294 0.0
C290 C 0.7446 0.25952 0.84626 0.0
C291 C 0.71939 0.27569 0.78407 0.0
C292 C 0.7509 0.28241 0.59991 0.0
C293 C 0.77662 0.26865 0.66462 0.0
N294 N 0.79968 0.24853 0.85286 0.0
N295 N 0.69854 0.30568 0.60522 0.0
C296 C 0.77392 0.25815 0.78857 0.0
C297 C 0.72258 0.28827 0.66203 0.0
N298 N 0.74041 0.24518 0.96037 0.0
N299 N 0.7533 0.28832 0.47782 0.0
H300 H 0.67679 0.30873 0.64394 0.0
H301 H 0.70052 0.31938 0.52204 0.0
H302 H 0.77374 0.28403 0.42978 0.0
H303 H 0.73463 0.29434 0.42188 0.0
H304 H 0.7565 0.2284 0.0043 0.0
H305 H 0.72002 0.2484 0.00962 0.0
H306 H 0.80017 0.24579 0.94662 0.0
H307 H 0.82135 0.2455 0.81354 0.0
C308 C 0.25939 0.73261 0.18169 0.0
C309 C 0.27064 0.76533 0.11865 0.0
C310 C 0.23811 0.80561 0.24423 0.0
C311 C 0.22667 0.77295 0.30695 0.0
N312 N 0.23686 0.70856 0.36758 0.0
N313 N 0.25964 0.82938 0.05665 0.0
C314 C 0.24039 0.73727 0.28513 0.0
C315 C 0.25666 0.80084 0.13996 0.0
N316 N 0.26474 0.69705 0.13731 0.0
N317 N 0.23337 0.84121 0.28944 0.0
H318 H 0.27017 0.82505 0.9729 0.0
H319 H 0.24799 0.85497 0.06349 0.0
H320 H 0.22384 0.84545 0.37496 0.0
H321 H 0.2432 0.86585 0.25134 0.0
H322 H 0.25507 0.67227 0.175 0.0
H323 H 0.27473 0.69287 0.05259 0.0
H324 H 0.24834 0.68285 0.36105 0.0
H325 H 0.226 0.71275 0.45071 0.0
C326 C 0.72188 0.75648 0.3066 0.0
C327 C 0.71761 0.76847 0.18495 0.0
C328 C 0.77205 0.78922 0.17331 0.0
C329 C 0.77704 0.7743 0.29165 0.0
N330 N 0.75767 0.74033 0.46671 0.0
N331 N 0.73908 0.78982 -0.00465 0.0
C332 C 0.75225 0.75669 0.35669 0.0
C333 C 0.7428 0.78322 0.11649 0.0
N334 N 0.69673 0.74682 0.37649 0.0
N335 N 0.79513 0.80915 0.11443 0.0
H336 H 0.71796 0.78546 0.95053 0.0
H337 H 0.7574 0.79612 0.93685 0.0
H338 H 0.81778 0.81191 0.14596 0.0
H339 H 0.79144 0.82492 0.03619 0.0
H340 H 0.69789 0.74253 0.46958 0.0
H341 H 0.6741 0.74593 0.3436 0.0
H342 H 0.74156 0.72273 0.51112 0.0
H343 H 0.77896 0.74266 0.51127 0.0
C344 C 0.12502 1.00753 0.34581 0.0
C345 C 0.12381 0.98137 0.44362 0.0
C346 C 0.12276 0.0346 0.58763 0.0
C347 C 0.12138 0.06059 0.48958 0.0
N348 N 0.1139 0.07115 0.27579 0.0
N349 N 0.11403 0.96963 0.65557 0.0
C350 C 0.12029 0.04684 0.36863 0.0
C351 C 0.12041 0.9948 0.56406 0.0
N352 N 0.13198 0.99517 0.2319 0.0
N353 N 0.12769 0.04775 0.70275 0.0
H354 H 0.11143 0.9403 0.64158 0.0
H355 H 0.10826 0.97816 0.74286 0.0
H356 H 0.13011 0.07666 0.72388 0.0
H357 H 0.13224 0.02989 0.77558 0.0
H358 H 0.13643 1.01361 0.15983 0.0
H359 H 0.1361 0.9667 0.2116 0.0
H360 H 0.10979 0.06198 0.18737 0.0
H361 H 0.10963 0.1 0.28918 0.0
C362 C 0.86745 0.49782 0.37413 0.0
C363 C 0.86668 0.48341 0.49416 0.0
C364 C 0.86975 0.5487 0.57328 0.0
C365 C 0.86675 0.56302 0.45375 0.0
N366 N 0.85636 0.5508 0.24226 0.0
N367 N 0.86092 0.49521 0.70815 0.0
C368 C 0.86378 0.53745 0.35453 0.0
C369 C 0.86608 0.50888 0.59398 0.0
N370 N 0.87284 0.47393 0.279 0.0
N371 N 0.87727 0.5729 0.66647 0.0
H372 H 0.85751 0.46627 0.72688 0.0
H373 H 0.85706 0.51281 0.78237 0.0
H374 H 0.88095 0.60217 0.65477 0.0
H375 H 0.88283 0.56347 0.75299 0.0
H376 H 0.87676 0.48361 0.19113 0.0
H377 H 0.87651 0.44484 0.28959 0.0
H378 H 0.8508 0.53295 0.16954 0.0
H379 H 0.85277 0.57956 0.22459 0.0
C380 C 0.88288 0.99764 0.5525 0.0
C381 C 0.88014 0.98443 0.43134 0.0
C382 C 0.88037 0.05054 0.35992 0.0
C383 C 0.87838 0.0634 0.48158 0.0
N384 N 0.87285 0.04858 0.69394 0.0
N385 N 0.87183 0.99814 0.21989 0.0
C386 C 0.87844 0.03681 0.5782 0.0
C387 C 0.87782 1.01083 0.33478 0.0
N388 N 0.89042 0.97289 0.64271 0.0
N389 N 0.88553 0.0762 0.26867 0.0
H390 H 0.86952 0.9693 0.19772 0.0
H391 H 0.8665 1.01625 0.14859 0.0
H392 H 0.88816 0.10547 0.28375 0.0
H393 H 0.89024 0.06816 0.17993 0.0
H394 H 0.89571 0.98165 0.73064 0.0
H395 H 0.89449 0.94411 0.62693 0.0
H396 H 0.86932 0.02977 0.76576 0.0
H397 H 0.86885 0.07691 0.71656 0.0
C398 C 0.12623 0.54729 0.5871 0.0
C399 C 0.13049 0.5608 0.46697 0.0
C400 C 0.12958 0.49492 0.39281 0.0
C401 C 0.12942 0.48152 0.51406 0.0
N402 N 0.13341 0.49538 0.72768 0.0
N403 N 0.14223 0.5473 0.25788 0.0
C404 C 0.12935 0.50783 0.61171 0.0
C405 C 0.13383 0.53456 0.37029 0.0
N406 N 0.11813 0.5719 0.67705 0.0
N407 N 0.12462 0.46998 0.29915 0.0
H408 H 0.14626 0.57606 0.23815 0.0
H409 H 0.1481 0.52909 0.18742 0.0
H410 H 0.12055 0.44081 0.31184 0.0
H411 H 0.12142 0.47873 0.21004 0.0
H412 H 0.11171 0.5629 0.76346 0.0
H413 H 0.11478 0.60087 0.66223 0.0
H414 H 0.1368 0.5138 0.80084 0.0
H415 H 0.13637 0.46677 0.74941 0.0
C416 C 0.61662 0.5333 0.11482 0.0
C417 C 0.61528 0.55979 0.01807 0.0
C418 C 0.61804 0.50729 0.87154 0.0
C419 C 0.61708 0.48064 0.9681 0.0
N420 N 0.60826 0.46792 0.18003 0.0
N421 N 0.60744 0.57148 0.8052 0.0
C422 C 0.61418 0.49356 0.0894 0.0
C423 C 0.61376 0.54659 0.89656 0.0
N424 N 0.62156 0.54595 0.23048 0.0
N425 N 0.62442 0.49538 0.75659 0.0
H426 H 0.60362 0.60036 0.82021 0.0
H427 H 0.60299 0.56285 0.71649 0.0
H428 H 0.62817 0.46694 0.73457 0.0
H429 H 0.62876 0.51409 0.68512 0.0
H430 H 0.62619 0.52783 0.30252 0.0
H431 H 0.62375 0.57479 0.25293 0.0
H432 H 0.60281 0.47595 0.26811 0.0
H433 H 0.60578 0.43863 0.16476 0.0
C434 C 0.35487 1.00433 0.08876 0.0
C435 C 0.35803 0.9807 -0.0146 0.0
C436 C 0.35666 0.03698 0.85487 0.0
C437 C 0.3579 0.06079 0.95876 0.0
N438 N 0.36445 0.06687 0.17533 0.0
N439 N 0.36841 0.97532 0.77117 0.0
C440 C 0.35869 0.04443 0.07617 0.0
C441 C 0.36069 0.99721 0.8685 0.0
N442 N 0.3473 0.98863 0.19826 0.0
N443 N 0.35075 0.05214 0.74357 0.0
H444 H 0.37266 0.94625 0.77764 0.0
H445 H 0.37367 0.98677 0.68648 0.0
H446 H 0.3468 0.08105 0.7303 0.0
H447 H 0.34662 0.03547 0.6668 0.0
H448 H 0.34174 1.00491 0.27376 0.0
H449 H 0.34351 0.9594 0.21056 0.0
H450 H 0.36839 0.0558 0.26129 0.0
H451 H 0.36838 0.09628 0.17002 0.0
C452 C 0.38034 0.50732 0.84489 0.0
C453 C 0.38192 0.48192 0.94438 0.0
C454 C 0.37898 0.53562 0.08557 0.0
C455 C 0.37942 0.5612 -0.01377 0.0
N456 N 0.38853 0.57201 0.77338 0.0
N457 N 0.39086 0.4725 0.15775 0.0
C458 C 0.38261 0.54722 0.86634 0.0
C459 C 0.38384 0.49631 0.06435 0.0
N460 N 0.37519 0.49353 0.73066 0.0
N461 N 0.37242 0.54844 0.19935 0.0
H462 H 0.3952 0.44363 0.14512 0.0
H463 H 0.39547 0.48213 0.24533 0.0
H464 H 0.36806 0.57691 0.21866 0.0
H465 H 0.36851 0.53029 0.27261 0.0
H466 H 0.37041 0.51097 0.65705 0.0
H467 H 0.37302 0.4645 0.711 0.0
H468 H 0.39406 0.56313 0.68621 0.0
H469 H 0.391 0.60142 0.78603 0.0
C470 C 0.66526 0.04013 0.96849 0.0
C471 C 0.64101 0.05715 0.90235 0.0
C472 C 0.61529 0.99403 0.88577 0.0
C473 C 0.63515 0.98015 -0.0223 0.0
N474 N 0.67924 0.99108 0.10971 0.0
N475 N 0.61058 0.04065 0.72659 0.0
C476 C 0.66024 1.00351 0.01987 0.0
C477 C 0.62045 0.03162 0.84009 0.0
N478 N 0.6946 0.05546 0.96327 0.0
N479 N 0.59175 0.9714 0.84073 0.0
H480 H 0.61932 0.06474 0.68146 0.0
H481 H 0.59788 0.02186 0.67139 0.0
H482 H 0.58816 0.94303 0.86632 0.0
H483 H 0.57465 0.98173 0.78355 0.0
H484 H 0.71374 0.04224 0.00092 0.0
H485 H 0.70016 0.07819 0.90561 0.0
H486 H 0.69622 1.00873 0.14961 0.0
H487 H 0.67621 0.96453 0.15109 0.0
C488 C 0.1276 0.30723 0.11919 0.0
C489 C 0.13773 0.27436 0.18114 0.0
C490 C 0.12464 0.23509 0.00393 0.0
C491 C 0.11455 0.26795 0.94181 0.0
N492 N 0.09416 0.33096 0.96233 0.0
N493 N 0.15805 0.21136 0.16092 0.0
C494 C 0.11242 0.30283 0.006 0.0
C495 C 0.13986 0.2395 0.11698 0.0
N496 N 0.13473 0.34288 0.16252 0.0
N497 N 0.11741 0.19944 0.96092 0.0
H498 H 0.17198 0.21539 0.23747 0.0
H499 H 0.16259 0.18654 0.11275 0.0
H500 H 0.1018 0.19474 0.89003 0.0
H501 H 0.12258 0.17461 0.00771 0.0
H502 H 0.12957 0.36772 0.11581 0.0
H503 H 0.15027 0.34761 0.23359 0.0
H504 H 0.08966 0.35576 0.01059 0.0
H505 H 0.0801 0.32695 0.88618 0.0
C506 C 0.86376 0.2373 0.10207 0.0
C507 C 0.85745 0.27156 0.16488 0.0
C508 C 0.87511 0.30854 -0.01087 0.0
C509 C 0.88136 0.27429 0.92631 0.0
N510 N 0.89475 0.20827 0.94725 0.0
N511 N 0.84413 0.33762 0.14383 0.0
C512 C 0.87952 0.23919 -0.01023 0.0
C513 C 0.85936 0.30668 0.10145 0.0
N514 N 0.85248 0.20312 0.14425 0.0
N515 N 0.88639 0.34269 0.94674 0.0
H516 H 0.8289 0.33576 0.21699 0.0
H517 H 0.8429 0.36313 0.096 0.0
H518 H 0.90194 0.34452 0.87463 0.0
H519 H 0.88433 0.36821 -0.00578 0.0
H520 H 0.8546 0.17762 0.09674 0.0
H521 H 0.83684 0.20123 0.21603 0.0
H522 H 0.89607 0.18279 -0.0048 0.0
H523 H 0.90988 0.21013 0.87377 0.0
C524 C 0.15584 0.75453 0.96511 0.0
C525 C 0.12954 0.77019 0.02203 0.0
C526 C 0.11178 0.79571 0.82995 0.0
C527 C 0.13567 0.77561 0.77093 0.0
N528 N 0.18021 0.7352 0.7788 0.0
N529 N 0.0806 0.80197 0.00972 0.0
C530 C 0.15754 0.75461 0.83746 0.0
C531 C 0.10709 0.78998 0.95497 0.0
N532 N 0.18011 0.74189 0.03284 0.0
N533 N 0.09366 0.82053 0.76787 0.0
H534 H 0.07645 0.79928 0.10216 0.0
H535 H 0.06151 0.81178 0.9622 0.0
H536 H 0.09424 0.82426 0.6746 0.0
H537 H 0.07909 0.83963 0.81036 0.0
H538 H 0.20139 0.73451 -0.00369 0.0
H539 H 0.18029 0.74197 0.12697 0.0
H540 H 0.19389 0.71506 0.82094 0.0
H541 H 0.18462 0.73801 0.68643 0.0
C542 C 0.89027 0.80035 0.82226 0.0
C543 C 0.86646 0.77897 0.76132 0.0
C544 C 0.84837 0.75252 0.95391 0.0
C545 C 0.87464 0.77 0.01113 0.0
N546 N 0.92366 0.80425 -0.00238 0.0
N547 N 0.8225 0.73489 0.76706 0.0
C548 C 0.89641 0.79218 0.94474 0.0
C549 C 0.84551 0.75492 0.82662 0.0
N550 N 0.90682 0.82891 0.7656 0.0
N551 N 0.82522 0.73564 0.02124 0.0
H552 H 0.81675 0.73986 0.6769 0.0
H553 H 0.8097 0.71251 0.80584 0.0
H554 H 0.82593 0.7332 0.11494 0.0
H555 H 0.80382 0.72687 -0.01424 0.0
H556 H 0.92141 0.84804 0.81202 0.0
H557 H 0.90457 0.83617 0.67509 0.0
H558 H 0.94208 0.8165 0.94921 0.0
H559 H 0.92921 0.79855 0.08756 0.0
C560 C 0.62237 0.80682 0.51808 0.0
C561 C 0.61263 0.77346 0.45445 0.0
C562 C 0.62565 0.73461 0.63034 0.0
C563 C 0.63551 0.768 0.69375 0.0
N564 N 0.65592 0.8323 0.67495 0.0
N565 N 0.59215 0.70916 0.47307 0.0
C566 C 0.63759 0.80316 0.63086 0.0
C567 C 0.61049 0.73828 0.51728 0.0
N568 N 0.61482 0.84202 0.47639 0.0
N569 N 0.633 0.69938 0.67235 0.0
H570 H 0.5777 0.71265 0.39823 0.0
H571 H 0.58785 0.68388 0.52037 0.0
H572 H 0.64841 0.69567 0.74391 0.0
H573 H 0.62808 0.67431 0.62449 0.0
H574 H 0.61962 0.86706 0.52455 0.0
H575 H 0.59944 0.84561 0.40462 0.0
H576 H 0.66012 0.85761 0.62777 0.0
H577 H 0.67042 0.82872 0.74956 0.0
C578 C 0.38606 0.74684 0.59499 0.0
C579 C 0.3615 0.76569 0.65406 0.0
C580 C 0.34098 0.78629 0.45983 0.0
C581 C 0.36785 0.77197 0.40321 0.0
N582 N 0.41805 0.74336 0.41639 0.0
N583 N 0.31578 0.80407 0.64607 0.0
C584 C 0.3909 0.75339 0.47048 0.0
C585 C 0.3391 0.78584 0.58747 0.0
N586 N 0.40467 0.72242 0.65639 0.0
N587 N 0.31647 0.79806 0.39182 0.0
H588 H 0.31134 0.80086 0.7383 0.0
H589 H 0.30154 0.82364 0.60407 0.0
H590 H 0.31651 0.79844 0.29771 0.0
H591 H 0.2949 0.80435 0.42799 0.0
H592 H 0.41998 0.70435 0.61333 0.0
H593 H 0.40371 0.71783 0.74921 0.0
H594 H 0.43731 0.73424 0.46437 0.0
H595 H 0.42249 0.74734 0.32455 0.0
C596 C 0.63355 0.23571 0.34303 0.0
C597 C 0.63853 0.27053 0.28014 0.0
C598 C 0.62023 0.30566 0.45647 0.0
C599 C 0.6152 0.27081 0.51922 0.0
N600 N 0.60373 0.20344 0.49819 0.0
N601 N 0.64998 0.33791 0.30102 0.0
C602 C 0.61797 0.23593 0.4556 0.0
C603 C 0.63575 0.30543 0.3437 0.0
N604 N 0.64592 0.20286 0.30056 0.0
N605 N 0.60801 0.33858 0.49932 0.0
H606 H 0.66509 0.33762 0.22742 0.0
H607 H 0.65059 0.36353 0.34904 0.0
H608 H 0.59252 0.33878 0.57167 0.0
H609 H 0.60922 0.36423 0.45187 0.0
H610 H 0.64474 0.17721 0.3481 0.0
H611 H 0.66151 0.20278 0.22853 0.0
H612 H 0.60318 0.17783 0.45015 0.0
H613 H 0.58861 0.20372 0.5718 0.0
C614 C 0.38816 0.29723 0.34414 0.0
C615 C 0.36368 0.27661 0.28443 0.0
C616 C 0.34622 0.24985 0.47764 0.0
C617 C 0.37278 0.26711 0.53394 0.0
N618 N 0.42219 0.30028 0.51789 0.0
N619 N 0.31924 0.23336 0.29197 0.0
C620 C 0.39456 0.28892 0.46642 0.0
C621 C 0.34278 0.25274 0.35058 0.0
N622 N 0.40527 0.32503 0.28621 0.0
N623 N 0.32328 0.23281 0.5457 0.0
H624 H 0.31297 0.23892 0.20264 0.0
H625 H 0.30645 0.21092 0.33049 0.0
H626 H 0.32421 0.23009 0.63923 0.0
H627 H 0.30174 0.22421 0.51129 0.0
H628 H 0.42018 0.34399 0.33186 0.0
H629 H 0.40353 0.33159 0.19496 0.0
H630 H 0.4406 0.3122 0.46874 0.0
H631 H 0.42801 0.29417 0.6073 0.0
C632 C 0.01371 0.28419 0.61124 0.0
C633 C 0.03009 0.27401 0.50542 0.0
C634 C 0.98139 0.26564 0.39344 0.0
C635 C 0.96523 0.27817 0.49735 0.0
N636 N 0.96567 0.30432 0.70019 0.0
N637 N 0.03107 0.25954 0.2924 0.0
C638 C 0.98132 0.2892 0.60446 0.0
C639 C 0.01438 0.26589 0.39531 0.0
N640 N 0.02893 0.28709 0.71983 0.0
N641 N 0.96513 0.25326 0.29391 0.0
H642 H 0.05527 0.2591 0.29161 0.0
H643 H 0.02126 0.2572 0.20653 0.0
H644 H 0.94103 0.25467 0.28739 0.0
H645 H 0.9752 0.23987 0.2202 0.0
H646 H 0.01778 0.28989 0.80273 0.0
H647 H 0.05269 0.2833 0.72912 0.0
H648 H 0.97663 0.31748 0.77375 0.0
H649 H 0.94164 0.30626 0.70339 0.0
C650 C 0.98542 0.78054 0.52213 0.0
C651 C 0.96896 0.77021 0.4153 0.0
C652 C 0.01769 0.75657 0.31188 0.0
C653 C 0.03404 0.76648 0.41938 0.0
N654 N 0.03387 0.77843 0.63358 0.0
N655 N 0.96826 0.74279 0.21454 0.0
C656 C 0.01803 0.77606 0.52648 0.0
C657 C 0.98476 0.75647 0.31194 0.0
N658 N 0.96975 0.7941 0.61981 0.0
N659 N 0.03371 0.74823 0.20881 0.0
H660 H 0.9442 0.74397 0.20781 0.0
H661 H 0.97806 0.72807 0.14289 0.0
H662 H 0.05771 0.7455 0.20683 0.0
H663 H 0.0236 0.74592 0.12347 0.0
H664 H 0.98051 0.8064 0.69523 0.0
H665 H 0.94564 0.7946 0.62276 0.0
H666 H 0.02341 0.78226 0.71737 0.0
H667 H 0.05739 0.77256 0.63993 0.0
C668 C 0.51318 0.77013 0.90696 0.0
C669 C 0.52812 0.77549 0.02029 0.0
C670 C 0.47853 0.78782 0.11816 0.0
C671 C 0.46318 0.77898 0.00767 0.0
N672 N 0.46464 0.76405 0.79536 0.0
N673 N 0.52568 0.78472 0.23647 0.0
C674 C 0.4802 0.7707 0.9014 0.0
C675 C 0.51101 0.78329 0.12655 0.0
N676 N 0.53068 0.76556 0.80498 0.0
N677 N 0.46214 0.80127 0.21448 0.0
H678 H 0.54955 0.78198 0.24654 0.0
H679 H 0.51406 0.78557 0.31889 0.0
H680 H 0.43817 0.80432 0.21338 0.0
H681 H 0.47245 0.81238 0.29258 0.0
H682 H 0.52173 0.76436 0.71761 0.0
H683 H 0.55486 0.76469 0.80691 0.0
H684 H 0.47476 0.75381 0.71678 0.0
H685 H 0.44097 0.76866 0.78657 0.0
C686 C 0.48142 0.25294 0.84047 0.0
C687 C 0.46566 0.26446 0.94641 0.0
C688 C 0.51499 0.27206 0.05545 0.0
C689 C 0.53069 0.26367 0.94647 0.0
N690 N 0.52998 0.25064 0.73181 0.0
N691 N 0.466 0.28405 0.1552 0.0
C692 C 0.51423 0.25501 0.83822 0.0
C693 C 0.48208 0.27385 0.05425 0.0
N694 N 0.46503 0.23959 0.74232 0.0
N695 N 0.53163 0.27717 0.16007 0.0
H696 H 0.44189 0.28196 0.15952 0.0
H697 H 0.47615 0.29521 0.23343 0.0
H698 H 0.55579 0.276 0.16318 0.0
H699 H 0.52178 0.28047 0.24514 0.0
H700 H 0.47515 0.22627 0.66858 0.0
H701 H 0.4409 0.23925 0.73732 0.0
H702 H 0.51933 0.24924 0.64727 0.0
H703 H 0.55409 0.25123 0.72616 0.0
loop_
_geom_bond_atom_site_label_1
_geom_bond_atom_site_label_2
_geom_bond_distance
_geom_bond_site_symmetry_2
_ccdc_geom_bond_type
C0 O16 1.251 . S
C0 O18 1.254 . S
N1 C2 1.333 . S
N1 C6 1.307 . S
N1 Zn7 2.020 . S
C2 N1 1.333 . S
C2 C3 1.379 . S
C2 H20 0.952 . S
C3 C2 1.379 . S
C3 C4 1.390 . S
C3 H30 0.949 . S
C4 C3 1.390 . S
C4 C5 1.357 . S
C5 C4 1.357 . S
C5 C6 1.370 . S
C5 H31 0.950 . S
C6 N1 1.307 . S
C6 C5 1.370 . S
C6 H24 0.948 . S
Zn7 N1 2.020 . S
Zn7 O16 2.039 . S
Zn7 O22 2.034 . S
Zn7 O26 2.025 . S
Zn7 O28 2.024 . S
C8 O27 1.246 . S
C8 O28 1.249 . S
N9 C10 1.307 . S
N9 C11 1.333 . S
N9 Zn15 2.020 . S
C10 N9 1.307 . S
C10 C14 1.370 . S
C10 H21 0.948 . S
C11 N9 1.333 . S
C11 C12 1.379 . S
C11 H19 0.952 . S
C12 C11 1.379 . S
C12 C13 1.390 . S
C12 H32 0.949 . S
C13 C12 1.390 . S
C13 C14 1.357 . S
C14 C10 1.370 . S
C14 C13 1.357 . S
C14 H33 0.950 . S
Zn15 N9 2.020 . S
Zn15 O18 2.025 . S
Zn15 O23 2.024 . S
Zn15 O25 2.039 . S
Zn15 O27 2.034 . S
O16 C0 1.251 . S
O16 Zn7 2.039 . S
C17 O22 1.246 . S
C17 O23 1.249 . S
O18 C0 1.254 . S
O18 Zn15 2.025 . S
H19 C11 0.952 . S
H20 C2 0.952 . S
H21 C10 0.948 . S
O22 Zn7 2.034 . S
O22 C17 1.246 . S
O23 Zn15 2.024 . S
O23 C17 1.249 . S
H24 C6 0.948 . S
O25 Zn15 2.039 . S
O25 C29 1.251 . S
O26 Zn7 2.025 . S
O26 C29 1.254 . S
O27 C8 1.246 . S
O27 Zn15 2.034 . S
O28 Zn7 2.024 . S
O28 C8 1.249 . S
C29 O25 1.251 . S
C29 O26 1.254 . S
H30 C3 0.949 . S
H31 C5 0.950 . S
H32 C12 0.949 . S
H33 C14 0.950 . S
C34 O50 1.251 . S
C34 O52 1.254 . S
N35 C36 1.333 . S
N35 C40 1.307 . S
N35 Zn41 2.020 . S
C36 N35 1.333 . S
C36 C37 1.379 . S
C36 H54 0.952 . S
C37 C36 1.379 . S
C37 C38 1.390 . S
C37 H64 0.949 . S
C38 C37 1.390 . S
C38 C39 1.357 . S
C39 C38 1.357 . S
C39 C40 1.370 . S
C39 H65 0.950 . S
C40 N35 1.307 . S
C40 C39 1.370 . S
C40 H58 0.948 . S
Zn41 N35 2.020 . S
Zn41 O50 2.039 . S
Zn41 O56 2.034 . S
Zn41 O60 2.025 . S
Zn41 O62 2.024 . S
C42 O61 1.246 . S
C42 O62 1.249 . S
N43 C44 1.307 . S
N43 C45 1.333 . S
N43 Zn49 2.020 . S
C44 N43 1.307 . S
C44 C48 1.370 . S
C44 H55 0.948 . S
C45 N43 1.333 . S
C45 C46 1.379 . S
C45 H53 0.952 . S
C46 C45 1.379 . S
C46 C47 1.390 . S
C46 H66 0.949 . S
C47 C46 1.390 . S
C47 C48 1.357 . S
C48 C44 1.370 . S
C48 C47 1.357 . S
C48 H67 0.950 . S
Zn49 N43 2.020 . S
Zn49 O52 2.025 . S
Zn49 O57 2.024 . S
Zn49 O59 2.039 . S
Zn49 O61 2.034 . S
O50 C34 1.251 . S
O50 Zn41 2.039 . S
C51 O56 1.246 . S
C51 O57 1.249 . S
O52 C34 1.254 . S
O52 Zn49 2.025 . S
H53 C45 0.952 . S
H54 C36 0.952 . S
H55 C44 0.948 . S
O56 Zn41 2.034 . S
O56 C51 1.246 . S
O57 Zn49 2.024 . S
O57 C51 1.249 . S
H58 C40 0.948 . S
O59 Zn49 2.039 . S
O59 C63 1.251 . S
O60 Zn41 2.025 . S
O60 C63 1.254 . S
O61 C42 1.246 . S
O61 Zn49 2.034 . S
O62 Zn41 2.024 . S
O62 C42 1.249 . S
C63 O59 1.251 . S
C63 O60 1.254 . S
H64 C37 0.949 . S
H65 C39 0.950 . S
H66 C46 0.949 . S
H67 C48 0.950 . S
C68 O84 1.251 . S
C68 O86 1.254 . S
N69 C70 1.333 . S
N69 C74 1.307 . S
N69 Zn75 2.020 . S
C70 N69 1.333 . S
C70 C71 1.379 . S
C70 H88 0.952 . S
C71 C70 1.379 . S
C71 C72 1.390 . S
C71 H98 0.949 . S
C72 C71 1.390 . S
C72 C73 1.357 . S
C73 C72 1.357 . S
C73 C74 1.370 . S
C73 H99 0.950 . S
C74 N69 1.307 . S
C74 C73 1.370 . S
C74 H92 0.948 . S
Zn75 N69 2.020 . S
Zn75 O84 2.039 . S
Zn75 O90 2.034 . S
Zn75 O94 2.025 . S
Zn75 O96 2.024 . S
C76 O95 1.246 . S
C76 O96 1.249 . S
N77 C78 1.307 . S
N77 C79 1.333 . S
N77 Zn83 2.020 . S
C78 N77 1.307 . S
C78 C82 1.370 . S
C78 H89 0.948 . S
C79 N77 1.333 . S
C79 C80 1.379 . S
C79 H87 0.952 . S
C80 C79 1.379 . S
C80 C81 1.390 . S
C80 H100 0.949 . S
C81 C80 1.390 . S
C81 C82 1.357 . S
C82 C78 1.370 . S
C82 C81 1.357 . S
C82 H101 0.950 . S
Zn83 N77 2.020 . S
Zn83 O86 2.025 . S
Zn83 O91 2.024 . S
Zn83 O93 2.039 . S
Zn83 O95 2.034 . S
O84 C68 1.251 . S
O84 Zn75 2.039 . S
C85 O90 1.246 . S
C85 O91 1.249 . S
O86 C68 1.254 . S
O86 Zn83 2.025 . S
H87 C79 0.952 . S
H88 C70 0.952 . S
H89 C78 0.948 . S
O90 Zn75 2.034 . S
O90 C85 1.246 . S
O91 Zn83 2.024 . S
O91 C85 1.249 . S
H92 C74 0.948 . S
O93 Zn83 2.039 . S
O93 C97 1.251 . S
O94 Zn75 2.025 . S
O94 C97 1.254 . S
O95 C76 1.246 . S
O95 Zn83 2.034 . S
O96 Zn75 2.024 . S
O96 C76 1.249 . S
C97 O93 1.251 . S
C97 O94 1.254 . S
H98 C71 0.949 . S
H99 C73 0.950 . S
H100 C80 0.949 . S
H101 C82 0.950 . S
C102 O118 1.251 . S
C102 O120 1.254 . S
N103 C104 1.333 . S
N103 C108 1.307 . S
N103 Zn109 2.020 . S
C104 N103 1.333 . S
C104 C105 1.379 . S
C104 H122 0.952 . S
C105 C104 1.379 . S
C105 C106 1.390 . S
C105 H132 0.949 . S
C106 C105 1.390 . S
C106 C107 1.357 . S
C107 C106 1.357 . S
C107 C108 1.370 . S
C107 H133 0.950 . S
C108 N103 1.307 . S
C108 C107 1.370 . S
C108 H126 0.948 . S
Zn109 N103 2.020 . S
Zn109 O118 2.039 . S
Zn109 O124 2.034 . S
Zn109 O128 2.025 . S
Zn109 O130 2.024 . S
C110 O129 1.246 . S
C110 O130 1.249 . S
N111 C112 1.307 . S
N111 C113 1.333 . S
N111 Zn117 2.020 . S
C112 N111 1.307 . S
C112 C116 1.370 . S
C112 H123 0.948 . S
C113 N111 1.333 . S
C113 C114 1.379 . S
C113 H121 0.952 . S
C114 C113 1.379 . S
C114 C115 1.390 . S
C114 H134 0.949 . S
C115 C114 1.390 . S
C115 C116 1.357 . S
C116 C112 1.370 . S
C116 C115 1.357 . S
C116 H135 0.950 . S
Zn117 N111 2.020 . S
Zn117 O120 2.025 . S
Zn117 O125 2.024 . S
Zn117 O127 2.039 . S
Zn117 O129 2.034 . S
O118 C102 1.251 . S
O118 Zn109 2.039 . S
C119 O124 1.246 . S
C119 O125 1.249 . S
O120 C102 1.254 . S
O120 Zn117 2.025 . S
H121 C113 0.952 . S
H122 C104 0.952 . S
H123 C112 0.948 . S
O124 Zn109 2.034 . S
O124 C119 1.246 . S
O125 Zn117 2.024 . S
O125 C119 1.249 . S
H126 C108 0.948 . S
O127 Zn117 2.039 . S
O127 C131 1.251 . S
O128 Zn109 2.025 . S
O128 C131 1.254 . S
O129 C110 1.246 . S
O129 Zn117 2.034 . S
O130 Zn109 2.024 . S
O130 C110 1.249 . S
C131 O127 1.251 . S
C131 O128 1.254 . S
H132 C105 0.949 . S
H133 C107 0.950 . S
H134 C114 0.949 . S
H135 C116 0.950 . S
C136 O152 1.251 . S
C136 O154 1.254 . S
N137 C138 1.333 . S
N137 C142 1.307 . S
N137 Zn143 2.020 . S
C138 N137 1.333 . S
C138 C139 1.379 . S
C138 H156 0.952 . S
C139 C138 1.379 . S
C139 C140 1.390 . S
C139 H166 0.949 1_554 S
C140 C139 1.390 . S
C140 C141 1.357 . S
C141 C140 1.357 . S
C141 C142 1.370 . S
C141 H167 0.950 . S
C142 N137 1.307 . S
C142 C141 1.370 . S
C142 H160 0.948 . S
Zn143 N137 2.020 . S
Zn143 O152 2.039 . S
Zn143 O158 2.034 1_554 S
Zn143 O162 2.025 . S
Zn143 O164 2.024 . S
C144 O163 1.246 . S
C144 O164 1.249 . S
N145 C146 1.307 . S
N145 C147 1.333 . S
N145 Zn151 2.020 . S
C146 N145 1.307 . S
C146 C150 1.370 . S
C146 H157 0.948 1_554 S
C147 N145 1.333 . S
C147 C148 1.379 . S
C147 H155 0.952 . S
C148 C147 1.379 . S
C148 C149 1.390 . S
C148 H168 0.949 . S
C149 C148 1.390 . S
C149 C150 1.357 . S
C150 C146 1.370 . S
C150 C149 1.357 . S
C150 H169 0.950 1_554 S
Zn151 N145 2.020 . S
Zn151 O154 2.025 . S
Zn151 O159 2.024 1_554 S
Zn151 O161 2.039 . S
Zn151 O163 2.034 . S
O152 C136 1.251 . S
O152 Zn143 2.039 . S
C153 O158 1.246 . S
C153 O159 1.249 . S
O154 C136 1.254 . S
O154 Zn151 2.025 . S
H155 C147 0.952 . S
H156 C138 0.952 . S
H157 C146 0.948 1_556 S
O158 Zn143 2.034 1_556 S
O158 C153 1.246 . S
O159 Zn151 2.024 1_556 S
O159 C153 1.249 . S
H160 C142 0.948 . S
O161 Zn151 2.039 . S
O161 C165 1.251 . S
O162 Zn143 2.025 . S
O162 C165 1.254 . S
O163 C144 1.246 . S
O163 Zn151 2.034 . S
O164 Zn143 2.024 . S
O164 C144 1.249 . S
C165 O161 1.251 . S
C165 O162 1.254 . S
H166 C139 0.949 1_556 S
H167 C141 0.950 . S
H168 C148 0.949 . S
H169 C150 0.950 1_556 S
C170 O186 1.251 . S
C170 O188 1.254 . S
N171 C172 1.333 . S
N171 C176 1.307 . S
N171 Zn177 2.020 . S
C172 N171 1.333 . S
C172 C173 1.379 . S
C172 H190 0.952 . S
C173 C172 1.379 . S
C173 C174 1.390 . S
C173 H200 0.949 . S
C174 C173 1.390 . S
C174 C175 1.357 . S
C175 C174 1.357 . S
C175 C176 1.370 . S
C175 H201 0.950 1_554 S
C176 N171 1.307 . S
C176 C175 1.370 . S
C176 H194 0.948 1_554 S
Zn177 N171 2.020 . S
Zn177 O186 2.039 . S
Zn177 O192 2.034 . S
Zn177 O196 2.025 . S
Zn177 O198 2.024 1_554 S
C178 O197 1.246 . S
C178 O198 1.249 . S
N179 C180 1.307 . S
N179 C181 1.333 . S
N179 Zn185 2.020 . S
C180 N179 1.307 . S
C180 C184 1.370 . S
C180 H191 0.948 . S
C181 N179 1.333 . S
C181 C182 1.379 . S
C181 H189 0.952 . S
C182 C181 1.379 . S
C182 C183 1.390 . S
C182 H202 0.949 1_554 S
C183 C182 1.390 . S
C183 C184 1.357 . S
C184 C180 1.370 . S
C184 C183 1.357 . S
C184 H203 0.950 . S
Zn185 N179 2.020 . S
Zn185 O188 2.025 . S
Zn185 O193 2.024 . S
Zn185 O195 2.039 . S
Zn185 O197 2.034 1_554 S
O186 C170 1.251 . S
O186 Zn177 2.039 . S
C187 O192 1.246 . S
C187 O193 1.249 . S
O188 C170 1.254 . S
O188 Zn185 2.025 . S
H189 C181 0.952 . S
H190 C172 0.952 . S
H191 C180 0.948 . S
O192 Zn177 2.034 . S
O192 C187 1.246 . S
O193 Zn185 2.024 . S
O193 C187 1.249 . S
H194 C176 0.948 1_556 S
O195 Zn185 2.039 . S
O195 C199 1.251 . S
O196 Zn177 2.025 . S
O196 C199 1.254 . S
O197 C178 1.246 . S
O197 Zn185 2.034 1_556 S
O198 Zn177 2.024 1_556 S
O198 C178 1.249 . S
C199 O195 1.251 . S
C199 O196 1.254 . S
H200 C173 0.949 . S
H201 C175 0.950 1_556 S
H202 C182 0.949 1_556 S
H203 C184 0.950 . S
C204 O220 1.251 . S
C204 O222 1.254 . S
N205 C206 1.333 . S
N205 C210 1.307 . S
N205 Zn211 2.020 . S
C206 N205 1.333 . S
C206 C207 1.379 . S
C206 H224 0.952 . S
C207 C206 1.379 . S
C207 C208 1.390 . S
C207 H234 0.949 . S
C208 C207 1.390 . S
C208 C209 1.357 . S
C209 C208 1.357 . S
C209 C210 1.370 . S
C209 H235 0.950 1_556 S
C210 N205 1.307 . S
C210 C209 1.370 . S
C210 H228 0.948 1_556 S
Zn211 N205 2.020 . S
Zn211 O220 2.039 . S
Zn211 O226 2.034 . S
Zn211 O230 2.025 . S
Zn211 O232 2.024 1_556 S
C212 O231 1.246 . S
C212 O232 1.249 . S
N213 C214 1.307 . S
N213 C215 1.333 . S
N213 Zn219 2.020 . S
C214 N213 1.307 . S
C214 C218 1.370 . S
C214 H225 0.948 . S
C215 N213 1.333 . S
C215 C216 1.379 . S
C215 H223 0.952 . S
C216 C215 1.379 . S
C216 C217 1.390 . S
C216 H236 0.949 1_556 S
C217 C216 1.390 . S
C217 C218 1.357 . S
C218 C214 1.370 . S
C218 C217 1.357 . S
C218 H237 0.950 . S
Zn219 N213 2.020 . S
Zn219 O222 2.025 . S
Zn219 O227 2.024 . S
Zn219 O229 2.039 . S
Zn219 O231 2.034 1_556 S
O220 C204 1.251 . S
O220 Zn211 2.039 . S
C221 O226 1.246 . S
C221 O227 1.249 . S
O222 C204 1.254 . S
O222 Zn219 2.025 . S
H223 C215 0.952 . S
H224 C206 0.952 . S
H225 C214 0.948 . S
O226 Zn211 2.034 . S
O226 C221 1.246 . S
O227 Zn219 2.024 . S
O227 C221 1.249 . S
H228 C210 0.948 1_554 S
O229 Zn219 2.039 . S
O229 C233 1.251 . S
O230 Zn211 2.025 . S
O230 C233 1.254 . S
O231 C212 1.246 . S
O231 Zn219 2.034 1_554 S
O232 Zn211 2.024 1_554 S
O232 C212 1.249 . S
C233 O229 1.251 . S
C233 O230 1.254 . S
H234 C207 0.949 . S
H235 C209 0.950 1_554 S
H236 C216 0.949 1_554 S
H237 C218 0.950 . S
C238 O254 1.251 . S
C238 O256 1.254 . S
N239 C240 1.333 . S
N239 C244 1.307 . S
N239 Zn245 2.020 . S
C240 N239 1.333 . S
C240 C241 1.379 . S
C240 H258 0.952 . S
C241 C240 1.379 . S
C241 C242 1.390 . S
C241 H268 0.949 . S
C242 C241 1.390 . S
C242 C243 1.357 . S
C243 C242 1.357 . S
C243 C244 1.370 . S
C243 H269 0.950 1_556 S
C244 N239 1.307 . S
C244 C243 1.370 . S
C244 H262 0.948 1_556 S
Zn245 N239 2.020 . S
Zn245 O254 2.039 . S
Zn245 O260 2.034 . S
Zn245 O264 2.025 . S
Zn245 O266 2.024 1_556 S
C246 O265 1.246 . S
C246 O266 1.249 . S
N247 C248 1.307 . S
N247 C249 1.333 . S
N247 Zn253 2.020 . S
C248 N247 1.307 . S
C248 C252 1.370 . S
C248 H259 0.948 . S
C249 N247 1.333 . S
C249 C250 1.379 . S
C249 H257 0.952 . S
C250 C249 1.379 . S
C250 C251 1.390 . S
C250 H270 0.949 1_556 S
C251 C250 1.390 . S
C251 C252 1.357 . S
C252 C248 1.370 . S
C252 C251 1.357 . S
C252 H271 0.950 . S
Zn253 N247 2.020 . S
Zn253 O256 2.025 . S
Zn253 O261 2.024 . S
Zn253 O263 2.039 . S
Zn253 O265 2.034 1_556 S
O254 C238 1.251 . S
O254 Zn245 2.039 . S
C255 O260 1.246 . S
C255 O261 1.249 . S
O256 C238 1.254 . S
O256 Zn253 2.025 . S
H257 C249 0.952 . S
H258 C240 0.952 . S
H259 C248 0.948 . S
O260 Zn245 2.034 . S
O260 C255 1.246 . S
O261 Zn253 2.024 . S
O261 C255 1.249 . S
H262 C244 0.948 1_554 S
O263 Zn253 2.039 . S
O263 C267 1.251 . S
O264 Zn245 2.025 . S
O264 C267 1.254 . S
O265 C246 1.246 . S
O265 Zn253 2.034 1_554 S
O266 Zn245 2.024 1_554 S
O266 C246 1.249 . S
C267 O263 1.251 . S
C267 O264 1.254 . S
H268 C241 0.949 . S
H269 C243 0.950 1_554 S
H270 C250 0.949 1_554 S
H271 C252 0.950 . S
C272 C273 1.363 . S
C272 C278 1.379 . S
C272 N280 1.356 . S
C273 C272 1.363 . S
C273 C279 1.363 . S
C274 C275 1.363 . S
C274 C279 1.379 . S
C274 N281 1.356 . S
C275 C274 1.363 . S
C275 C278 1.363 . S
N276 C278 1.356 . S
N276 H288 0.984 . S
N276 H289 0.985 . S
N277 C279 1.356 . S
N277 H282 0.984 . S
N277 H283 0.985 . S
C278 C272 1.379 . S
C278 C275 1.363 . S
C278 N276 1.356 . S
C279 C273 1.363 . S
C279 C274 1.379 . S
C279 N277 1.356 . S
N280 C272 1.356 . S
N280 H286 0.984 . S
N280 H287 0.984 . S
N281 C274 1.356 . S
N281 H284 0.984 . S
N281 H285 0.985 . S
H282 N277 0.984 . S
H283 N277 0.985 . S
H284 N281 0.984 . S
H285 N281 0.985 . S
H286 N280 0.984 . S
H287 N280 0.984 . S
H288 N276 0.984 . S
H289 N276 0.985 . S
C290 C291 1.363 . S
C290 C296 1.379 . S
C290 N298 1.356 . S
C291 C290 1.363 . S
C291 C297 1.363 . S
C292 C293 1.363 . S
C292 C297 1.379 . S
C292 N299 1.356 . S
C293 C292 1.363 . S
C293 C296 1.363 . S
N294 C296 1.356 . S
N294 H306 0.984 . S
N294 H307 0.985 . S
N295 C297 1.356 . S
N295 H300 0.984 . S
N295 H301 0.985 . S
C296 C290 1.379 . S
C296 C293 1.363 . S
C296 N294 1.356 . S
C297 C291 1.363 . S
C297 C292 1.379 . S
C297 N295 1.356 . S
N298 C290 1.356 . S
N298 H304 0.984 . S
N298 H305 0.984 . S
N299 C292 1.356 . S
N299 H302 0.984 . S
N299 H303 0.985 . S
H300 N295 0.984 . S
H301 N295 0.985 . S
H302 N299 0.984 . S
H303 N299 0.985 . S
H304 N298 0.984 . S
H305 N298 0.984 . S
H306 N294 0.984 . S
H307 N294 0.985 . S
C308 C309 1.363 . S
C308 C314 1.379 . S
C308 N316 1.356 . S
C309 C308 1.363 . S
C309 C315 1.363 . S
C310 C311 1.363 . S
C310 C315 1.379 . S
C310 N317 1.356 . S
C311 C310 1.363 . S
C311 C314 1.363 . S
N312 C314 1.356 . S
N312 H324 0.984 . S
N312 H325 0.985 . S
N313 C315 1.356 . S
N313 H318 0.984 . S
N313 H319 0.985 . S
C314 C308 1.379 . S
C314 C311 1.363 . S
C314 N312 1.356 . S
C315 C309 1.363 . S
C315 C310 1.379 . S
C315 N313 1.356 . S
N316 C308 1.356 . S
N316 H322 0.984 . S
N316 H323 0.984 . S
N317 C310 1.356 . S
N317 H320 0.984 . S
N317 H321 0.985 . S
H318 N313 0.984 . S
H319 N313 0.985 . S
H320 N317 0.984 . S
H321 N317 0.985 . S
H322 N316 0.984 . S
H323 N316 0.984 . S
H324 N312 0.984 . S
H325 N312 0.985 . S
C326 C327 1.363 . S
C326 C332 1.379 . S
C326 N334 1.356 . S
C327 C326 1.363 . S
C327 C333 1.363 . S
C328 C329 1.363 . S
C328 C333 1.379 . S
C328 N335 1.356 . S
C329 C328 1.363 . S
C329 C332 1.363 . S
N330 C332 1.356 . S
N330 H342 0.984 . S
N330 H343 0.985 . S
N331 C333 1.356 . S
N331 H336 0.984 . S
N331 H337 0.985 . S
C332 C326 1.379 . S
C332 C329 1.363 . S
C332 N330 1.356 . S
C333 C327 1.363 . S
C333 C328 1.379 . S
C333 N331 1.356 . S
N334 C326 1.356 . S
N334 H340 0.984 . S
N334 H341 0.984 . S
N335 C328 1.356 . S
N335 H338 0.984 . S
N335 H339 0.985 . S
H336 N331 0.984 . S
H337 N331 0.985 . S
H338 N335 0.984 . S
H339 N335 0.985 . S
H340 N334 0.984 . S
H341 N334 0.984 . S
H342 N330 0.984 . S
H343 N330 0.985 . S
C344 C345 1.363 . S
C344 C350 1.379 1_565 S
C344 N352 1.356 . S
C345 C344 1.363 . S
C345 C351 1.363 . S
C346 C347 1.363 . S
C346 C351 1.379 1_545 S
C346 N353 1.356 . S
C347 C346 1.363 . S
C347 C350 1.363 . S
N348 C350 1.356 . S
N348 H360 0.984 . S
N348 H361 0.985 . S
N349 C351 1.356 . S
N349 H354 0.984 . S
N349 H355 0.985 . S
C350 C344 1.379 1_545 S
C350 C347 1.363 . S
C350 N348 1.356 . S
C351 C345 1.363 . S
C351 C346 1.379 1_565 S
C351 N349 1.356 . S
N352 C344 1.356 . S
N352 H358 0.984 . S
N352 H359 0.984 . S
N353 C346 1.356 . S
N353 H356 0.984 . S
N353 H357 0.985 . S
H354 N349 0.984 . S
H355 N349 0.985 . S
H356 N353 0.984 . S
H357 N353 0.985 . S
H358 N352 0.984 . S
H359 N352 0.984 . S
H360 N348 0.984 . S
H361 N348 0.985 . S
C362 C363 1.363 . S
C362 C368 1.379 . S
C362 N370 1.356 . S
C363 C362 1.363 . S
C363 C369 1.363 . S
C364 C365 1.363 . S
C364 C369 1.379 . S
C364 N371 1.356 . S
C365 C364 1.363 . S
C365 C368 1.363 . S
N366 C368 1.356 . S
N366 H378 0.984 . S
N366 H379 0.985 . S
N367 C369 1.356 . S
N367 H372 0.984 . S
N367 H373 0.985 . S
C368 C362 1.379 . S
C368 C365 1.363 . S
C368 N366 1.356 . S
C369 C363 1.363 . S
C369 C364 1.379 . S
C369 N367 1.356 . S
N370 C362 1.356 . S
N370 H376 0.984 . S
N370 H377 0.984 . S
N371 C364 1.356 . S
N371 H374 0.984 . S
N371 H375 0.985 . S
H372 N367 0.984 . S
H373 N367 0.985 . S
H374 N371 0.984 . S
H375 N371 0.985 . S
H376 N370 0.984 . S
H377 N370 0.984 . S
H378 N366 0.984 . S
H379 N366 0.985 . S
C380 C381 1.363 . S
C380 C386 1.379 1_565 S
C380 N388 1.356 . S
C381 C380 1.363 . S
C381 C387 1.363 . S
C382 C383 1.363 . S
C382 C387 1.379 1_545 S
C382 N389 1.356 . S
C383 C382 1.363 . S
C383 C386 1.363 . S
N384 C386 1.356 . S
N384 H396 0.984 . S
N384 H397 0.985 . S
N385 C387 1.356 . S
N385 H390 0.984 . S
N385 H391 0.985 . S
C386 C380 1.379 1_545 S
C386 C383 1.363 . S
C386 N384 1.356 . S
C387 C381 1.363 . S
C387 C382 1.379 1_565 S
C387 N385 1.356 . S
N388 C380 1.356 . S
N388 H394 0.984 . S
N388 H395 0.984 . S
N389 C382 1.356 . S
N389 H392 0.984 . S
N389 H393 0.985 . S
H390 N385 0.984 . S
H391 N385 0.985 . S
H392 N389 0.984 . S
H393 N389 0.985 . S
H394 N388 0.984 . S
H395 N388 0.984 . S
H396 N384 0.984 . S
H397 N384 0.985 . S
C398 C399 1.363 . S
C398 C404 1.379 . S
C398 N406 1.356 . S
C399 C398 1.363 . S
C399 C405 1.363 . S
C400 C401 1.363 . S
C400 C405 1.379 . S
C400 N407 1.356 . S
C401 C400 1.363 . S
C401 C404 1.363 . S
N402 C404 1.356 . S
N402 H414 0.984 . S
N402 H415 0.985 . S
N403 C405 1.356 . S
N403 H408 0.984 . S
N403 H409 0.985 . S
C404 C398 1.379 . S
C404 C401 1.363 . S
C404 N402 1.356 . S
C405 C399 1.363 . S
C405 C400 1.379 . S
C405 N403 1.356 . S
N406 C398 1.356 . S
N406 H412 0.984 . S
N406 H413 0.984 . S
N407 C400 1.356 . S
N407 H410 0.984 . S
N407 H411 0.985 . S
H408 N403 0.984 . S
H409 N403 0.985 . S
H410 N407 0.984 . S
H411 N407 0.985 . S
H412 N406 0.984 . S
H413 N406 0.984 . S
H414 N402 0.984 . S
H415 N402 0.985 . S
C416 C417 1.363 . S
C416 C422 1.379 . S
C416 N424 1.356 . S
C417 C416 1.363 . S
C417 C423 1.363 1_554 S
C418 C419 1.363 . S
C418 C423 1.379 . S
C418 N425 1.356 . S
C419 C418 1.363 . S
C419 C422 1.363 1_556 S
N420 C422 1.356 . S
N420 H432 0.984 . S
N420 H433 0.985 . S
N421 C423 1.356 . S
N421 H426 0.984 . S
N421 H427 0.985 . S
C422 C416 1.379 . S
C422 C419 1.363 1_554 S
C422 N420 1.356 . S
C423 C417 1.363 1_556 S
C423 C418 1.379 . S
C423 N421 1.356 . S
N424 C416 1.356 . S
N424 H430 0.984 . S
N424 H431 0.984 . S
N425 C418 1.356 . S
N425 H428 0.984 . S
N425 H429 0.985 . S
H426 N421 0.984 . S
H427 N421 0.985 . S
H428 N425 0.984 . S
H429 N425 0.985 . S
H430 N424 0.984 . S
H431 N424 0.984 . S
H432 N420 0.984 . S
H433 N420 0.985 . S
C434 C435 1.363 . S
C434 C440 1.379 1_565 S
C434 N442 1.356 . S
C435 C434 1.363 . S
C435 C441 1.363 1_554 S
C436 C437 1.363 . S
C436 C441 1.379 1_545 S
C436 N443 1.356 . S
C437 C436 1.363 . S
C437 C440 1.363 1_556 S
N438 C440 1.356 . S
N438 H450 0.984 . S
N438 H451 0.985 . S
N439 C441 1.356 . S
N439 H444 0.984 . S
N439 H445 0.985 . S
C440 C434 1.379 1_545 S
C440 C437 1.363 1_554 S
C440 N438 1.356 . S
C441 C435 1.363 1_556 S
C441 C436 1.379 1_565 S
C441 N439 1.356 . S
N442 C434 1.356 . S
N442 H448 0.984 . S
N442 H449 0.984 . S
N443 C436 1.356 . S
N443 H446 0.984 . S
N443 H447 0.985 . S
H444 N439 0.984 . S
H445 N439 0.985 . S
H446 N443 0.984 . S
H447 N443 0.985 . S
H448 N442 0.984 . S
H449 N442 0.984 . S
H450 N438 0.984 . S
H451 N438 0.985 . S
C452 C453 1.363 . S
C452 C458 1.379 . S
C452 N460 1.356 . S
C453 C452 1.363 . S
C453 C459 1.363 1_556 S
C454 C455 1.363 . S
C454 C459 1.379 . S
C454 N461 1.356 . S
C455 C454 1.363 . S
C455 C458 1.363 1_554 S
N456 C458 1.356 . S
N456 H468 0.984 . S
N456 H469 0.985 . S
N457 C459 1.356 . S
N457 H462 0.984 . S
N457 H463 0.985 . S
C458 C452 1.379 . S
C458 C455 1.363 1_556 S
C458 N456 1.356 . S
C459 C453 1.363 1_554 S
C459 C454 1.379 . S
C459 N457 1.356 . S
N460 C452 1.356 . S
N460 H466 0.984 . S
N460 H467 0.984 . S
N461 C454 1.356 . S
N461 H464 0.984 . S
N461 H465 0.985 . S
H462 N457 0.984 . S
H463 N457 0.985 . S
H464 N461 0.984 . S
H465 N461 0.985 . S
H466 N460 0.984 . S
H467 N460 0.984 . S
H468 N456 0.984 . S
H469 N456 0.985 . S
C470 C471 1.363 1_554 S
C470 C476 1.379 1_545 S
C470 N478 1.356 . S
C471 C470 1.363 1_556 S
C471 C477 1.363 . S
C472 C473 1.363 1_556 S
C472 C477 1.379 1_565 S
C472 N479 1.356 . S
C473 C472 1.363 1_554 S
C473 C476 1.363 . S
N474 C476 1.356 . S
N474 H486 0.984 . S
N474 H487 0.985 . S
N475 C477 1.356 . S
N475 H480 0.984 . S
N475 H481 0.985 . S
C476 C470 1.379 1_565 S
C476 C473 1.363 . S
C476 N474 1.356 . S
C477 C471 1.363 . S
C477 C472 1.379 1_545 S
C477 N475 1.356 . S
N478 C470 1.356 . S
N478 H484 0.984 . S
N478 H485 0.986 . S
N479 C472 1.356 . S
N479 H482 0.984 1_556 S
N479 H483 0.985 . S
H480 N475 0.984 . S
H481 N475 0.985 . S
H482 N479 0.984 1_554 S
H483 N479 0.985 . S
H484 N478 0.984 . S
H485 N478 0.986 . S
H486 N474 0.984 . S
H487 N474 0.985 . S
C488 C489 1.363 . S
C488 C494 1.379 . S
C488 N496 1.356 . S
C489 C488 1.363 . S
C489 C495 1.363 . S
C490 C491 1.363 . S
C490 C495 1.379 1_556 S
C490 N497 1.356 . S
C491 C490 1.363 . S
C491 C494 1.363 1_556 S
N492 C494 1.356 1_556 S
N492 H504 0.984 . S
N492 H505 0.985 . S
N493 C495 1.356 . S
N493 H498 0.984 . S
N493 H499 0.985 . S
C494 C488 1.379 . S
C494 C491 1.363 1_554 S
C494 N492 1.356 1_554 S
C495 C489 1.363 . S
C495 C490 1.379 1_554 S
C495 N493 1.356 . S
N496 C488 1.356 . S
N496 H502 0.984 . S
N496 H503 0.984 . S
N497 C490 1.356 . S
N497 H500 0.984 . S
N497 H501 0.985 . S
H498 N493 0.984 . S
H499 N493 0.985 . S
H500 N497 0.984 . S
H501 N497 0.985 . S
H502 N496 0.984 . S
H503 N496 0.984 . S
H504 N492 0.984 . S
H505 N492 0.985 . S
C506 C507 1.363 . S
C506 C512 1.379 . S
C506 N514 1.356 . S
C507 C506 1.363 . S
C507 C513 1.363 . S
C508 C509 1.363 . S
C508 C513 1.379 1_556 S
C508 N515 1.356 . S
C509 C508 1.363 . S
C509 C512 1.363 1_556 S
N510 C512 1.356 1_556 S
N510 H522 0.984 . S
N510 H523 0.985 . S
N511 C513 1.356 . S
N511 H516 0.984 . S
N511 H517 0.985 . S
C512 C506 1.379 . S
C512 C509 1.363 1_554 S
C512 N510 1.356 1_554 S
C513 C507 1.363 . S
C513 C508 1.379 1_554 S
C513 N511 1.356 . S
N514 C506 1.356 . S
N514 H520 0.984 . S
N514 H521 0.984 . S
N515 C508 1.356 . S
N515 H518 0.984 . S
N515 H519 0.985 . S
H516 N511 0.984 . S
H517 N511 0.985 . S
H518 N515 0.984 . S
H519 N515 0.985 . S
H520 N514 0.984 . S
H521 N514 0.984 . S
H522 N510 0.984 . S
H523 N510 0.985 . S
C524 C525 1.363 . S
C524 C530 1.379 1_554 S
C524 N532 1.356 . S
C525 C524 1.363 . S
C525 C531 1.363 1_554 S
C526 C527 1.363 . S
C526 C531 1.379 . S
C526 N533 1.356 . S
C527 C526 1.363 . S
C527 C530 1.363 . S
N528 C530 1.356 . S
N528 H540 0.984 . S
N528 H541 0.985 . S
N529 C531 1.356 1_554 S
N529 H534 0.984 . S
N529 H535 0.985 . S
C530 C524 1.379 1_556 S
C530 C527 1.363 . S
C530 N528 1.356 . S
C531 C525 1.363 1_556 S
C531 C526 1.379 . S
C531 N529 1.356 1_556 S
N532 C524 1.356 . S
N532 H538 0.984 . S
N532 H539 0.984 . S
N533 C526 1.356 . S
N533 H536 0.984 . S
N533 H537 0.985 . S
H534 N529 0.984 . S
H535 N529 0.985 . S
H536 N533 0.984 . S
H537 N533 0.985 . S
H538 N532 0.984 . S
H539 N532 0.984 . S
H540 N528 0.984 . S
H541 N528 0.985 . S
C542 C543 1.363 . S
C542 C548 1.379 . S
C542 N550 1.356 . S
C543 C542 1.363 . S
C543 C549 1.363 . S
C544 C545 1.363 . S
C544 C549 1.379 1_554 S
C544 N551 1.356 . S
C545 C544 1.363 . S
C545 C548 1.363 1_554 S
N546 C548 1.356 1_554 S
N546 H558 0.984 . S
N546 H559 0.985 . S
N547 C549 1.356 . S
N547 H552 0.984 . S
N547 H553 0.985 . S
C548 C542 1.379 . S
C548 C545 1.363 1_556 S
C548 N546 1.356 1_556 S
C549 C543 1.363 . S
C549 C544 1.379 1_556 S
C549 N547 1.356 . S
N550 C542 1.356 . S
N550 H556 0.984 . S
N550 H557 0.984 . S
N551 C544 1.356 . S
N551 H554 0.984 . S
N551 H555 0.985 . S
H552 N547 0.984 . S
H553 N547 0.985 . S
H554 N551 0.984 . S
H555 N551 0.985 . S
H556 N550 0.984 . S
H557 N550 0.984 . S
H558 N546 0.984 . S
H559 N546 0.985 . S
C560 C561 1.363 . S
C560 C566 1.379 . S
C560 N568 1.356 . S
C561 C560 1.363 . S
C561 C567 1.363 . S
C562 C563 1.363 . S
C562 C567 1.379 . S
C562 N569 1.356 . S
C563 C562 1.363 . S
C563 C566 1.363 . S
N564 C566 1.356 . S
N564 H576 0.984 . S
N564 H577 0.985 . S
N565 C567 1.356 . S
N565 H570 0.984 . S
N565 H571 0.985 . S
C566 C560 1.379 . S
C566 C563 1.363 . S
C566 N564 1.356 . S
C567 C561 1.363 . S
C567 C562 1.379 . S
C567 N565 1.356 . S
N568 C560 1.356 . S
N568 H574 0.984 . S
N568 H575 0.984 . S
N569 C562 1.356 . S
N569 H572 0.984 . S
N569 H573 0.985 . S
H570 N565 0.984 . S
H571 N565 0.985 . S
H572 N569 0.984 . S
H573 N569 0.985 . S
H574 N568 0.984 . S
H575 N568 0.984 . S
H576 N564 0.984 . S
H577 N564 0.985 . S
C578 C579 1.363 . S
C578 C584 1.379 . S
C578 N586 1.356 . S
C579 C578 1.363 . S
C579 C585 1.363 . S
C580 C581 1.363 . S
C580 C585 1.379 . S
C580 N587 1.356 . S
C581 C580 1.363 . S
C581 C584 1.363 . S
N582 C584 1.356 . S
N582 H594 0.984 . S
N582 H595 0.985 . S
N583 C585 1.356 . S
N583 H588 0.984 . S
N583 H589 0.985 . S
C584 C578 1.379 . S
C584 C581 1.363 . S
C584 N582 1.356 . S
C585 C579 1.363 . S
C585 C580 1.379 . S
C585 N583 1.356 . S
N586 C578 1.356 . S
N586 H592 0.984 . S
N586 H593 0.984 . S
N587 C580 1.356 . S
N587 H590 0.984 . S
N587 H591 0.985 . S
H588 N583 0.984 . S
H589 N583 0.985 . S
H590 N587 0.984 . S
H591 N587 0.985 . S
H592 N586 0.984 . S
H593 N586 0.984 . S
H594 N582 0.984 . S
H595 N582 0.985 . S
C596 C597 1.363 . S
C596 C602 1.379 . S
C596 N604 1.356 . S
C597 C596 1.363 . S
C597 C603 1.363 . S
C598 C599 1.363 . S
C598 C603 1.379 . S
C598 N605 1.356 . S
C599 C598 1.363 . S
C599 C602 1.363 . S
N600 C602 1.356 . S
N600 H612 0.984 . S
N600 H613 0.985 . S
N601 C603 1.356 . S
N601 H606 0.984 . S
N601 H607 0.985 . S
C602 C596 1.379 . S
C602 C599 1.363 . S
C602 N600 1.356 . S
C603 C597 1.363 . S
C603 C598 1.379 . S
C603 N601 1.356 . S
N604 C596 1.356 . S
N604 H610 0.984 . S
N604 H611 0.984 . S
N605 C598 1.356 . S
N605 H608 0.984 . S
N605 H609 0.985 . S
H606 N601 0.984 . S
H607 N601 0.985 . S
H608 N605 0.984 . S
H609 N605 0.985 . S
H610 N604 0.984 . S
H611 N604 0.984 . S
H612 N600 0.984 . S
H613 N600 0.985 . S
C614 C615 1.363 . S
C614 C620 1.379 . S
C614 N622 1.356 . S
C615 C614 1.363 . S
C615 C621 1.363 . S
C616 C617 1.363 . S
C616 C621 1.379 . S
C616 N623 1.356 . S
C617 C616 1.363 . S
C617 C620 1.363 . S
N618 C620 1.356 . S
N618 H630 0.984 . S
N618 H631 0.985 . S
N619 C621 1.356 . S
N619 H624 0.984 . S
N619 H625 0.985 . S
C620 C614 1.379 . S
C620 C617 1.363 . S
C620 N618 1.356 . S
C621 C615 1.363 . S
C621 C616 1.379 . S
C621 N619 1.356 . S
N622 C614 1.356 . S
N622 H628 0.984 . S
N622 H629 0.984 . S
N623 C616 1.356 . S
N623 H626 0.984 . S
N623 H627 0.985 . S
H624 N619 0.984 . S
H625 N619 0.985 . S
H626 N623 0.984 . S
H627 N623 0.985 . S
H628 N622 0.984 . S
H629 N622 0.984 . S
H630 N618 0.984 . S
H631 N618 0.985 . S
C632 C633 1.363 . S
C632 C638 1.379 1_455 S
C632 N640 1.356 . S
C633 C632 1.363 . S
C633 C639 1.363 . S
C634 C635 1.363 . S
C634 C639 1.379 1_655 S
C634 N641 1.356 . S
C635 C634 1.363 . S
C635 C638 1.363 . S
N636 C638 1.356 . S
N636 H648 0.984 . S
N636 H649 0.985 . S
N637 C639 1.356 . S
N637 H642 0.984 . S
N637 H643 0.985 . S
C638 C632 1.379 1_655 S
C638 C635 1.363 . S
C638 N636 1.356 . S
C639 C633 1.363 . S
C639 C634 1.379 1_455 S
C639 N637 1.356 . S
N640 C632 1.356 . S
N640 H646 0.984 . S
N640 H647 0.984 . S
N641 C634 1.356 . S
N641 H644 0.984 . S
N641 H645 0.985 . S
H642 N637 0.984 . S
H643 N637 0.985 . S
H644 N641 0.984 . S
H645 N641 0.985 . S
H646 N640 0.984 . S
H647 N640 0.984 . S
H648 N636 0.984 . S
H649 N636 0.985 . S
C650 C651 1.363 . S
C650 C656 1.379 1_655 S
C650 N658 1.356 . S
C651 C650 1.363 . S
C651 C657 1.363 . S
C652 C653 1.363 . S
C652 C657 1.379 1_455 S
C652 N659 1.356 . S
C653 C652 1.363 . S
C653 C656 1.363 . S
N654 C656 1.356 . S
N654 H666 0.984 . S
N654 H667 0.985 . S
N655 C657 1.356 . S
N655 H660 0.984 . S
N655 H661 0.985 . S
C656 C650 1.379 1_455 S
C656 C653 1.363 . S
C656 N654 1.356 . S
C657 C651 1.363 . S
C657 C652 1.379 1_655 S
C657 N655 1.356 . S
N658 C650 1.356 . S
N658 H664 0.984 . S
N658 H665 0.984 . S
N659 C652 1.356 . S
N659 H662 0.984 . S
N659 H663 0.985 . S
H660 N655 0.984 . S
H661 N655 0.985 . S
H662 N659 0.984 . S
H663 N659 0.985 . S
H664 N658 0.984 . S
H665 N658 0.984 . S
H666 N654 0.984 . S
H667 N654 0.985 . S
C668 C669 1.363 1_556 S
C668 C674 1.379 . S
C668 N676 1.356 . S
C669 C668 1.363 1_554 S
C669 C675 1.363 . S
C670 C671 1.363 . S
C670 C675 1.379 . S
C670 N677 1.356 . S
C671 C670 1.363 . S
C671 C674 1.363 1_554 S
N672 C674 1.356 . S
N672 H684 0.984 . S
N672 H685 0.985 . S
N673 C675 1.356 . S
N673 H678 0.984 . S
N673 H679 0.985 . S
C674 C668 1.379 . S
C674 C671 1.363 1_556 S
C674 N672 1.356 . S
C675 C669 1.363 . S
C675 C670 1.379 . S
C675 N673 1.356 . S
N676 C668 1.356 . S
N676 H682 0.984 . S
N676 H683 0.984 . S
N677 C670 1.356 . S
N677 H680 0.984 . S
N677 H681 0.985 . S
H678 N673 0.984 . S
H679 N673 0.985 . S
H680 N677 0.984 . S
H681 N677 0.985 . S
H682 N676 0.984 . S
H683 N676 0.984 . S
H684 N672 0.984 . S
H685 N672 0.985 . S
C686 C687 1.363 . S
C686 C692 1.379 . S
C686 N694 1.356 . S
C687 C686 1.363 . S
C687 C693 1.363 1_556 S
C688 C689 1.363 1_554 S
C688 C693 1.379 . S
C688 N695 1.356 . S
C689 C688 1.363 1_556 S
C689 C692 1.363 . S
N690 C692 1.356 . S
N690 H702 0.984 . S
N690 H703 0.985 . S
N691 C693 1.356 . S
N691 H696 0.984 . S
N691 H697 0.985 . S
C692 C686 1.379 . S
C692 C689 1.363 . S
C692 N690 1.356 . S
C693 C687 1.363 1_554 S
C693 C688 1.379 . S
C693 N691 1.356 . S
N694 C686 1.356 . S
N694 H700 0.984 . S
N694 H701 0.984 . S
N695 C688 1.356 . S
N695 H698 0.984 . S
N695 H699 0.985 . S
H696 N691 0.984 . S
H697 N691 0.985 . S
H698 N695 0.984 . S
H699 N695 0.985 . S
H700 N694 0.984 . S
H701 N694 0.984 . S
H702 N690 0.984 . S
H703 N690 0.985 . S
C273 C0 1.703 . S
C275 C267 1.703 . S
C291 C233 1.705 . S
C293 C63 1.704 . S
C309 C199 1.704 . S
C311 C97 1.705 . S
C327 C136 1.703 . S
C329 C131 1.703 . S
C345 C72 1.652 . S
C347 C4 1.649 . S
C363 C38 1.587 . S
C365 C106 1.593 . S
C381 C115 1.576 . S
C383 C47 1.569 . S
C399 C81 1.501 . S
C401 C13 1.504 . S
C417 C140 1.649 . S
C419 C208 1.652 . S
C435 C174 1.587 . S
C437 C242 1.593 . S
C453 C251 1.576 . S
C455 C183 1.569 . S
C471 C217 1.501 . S
C473 C149 1.504 . S
C489 C17 1.273 . S
C491 C8 1.273 . S
C507 C42 1.273 . S
C509 C51 1.273 . S
C525 C85 1.273 . S
C527 C76 1.273 . S
C543 C110 1.273 . S
C545 C119 1.273 . S
C561 C144 1.273 . S
C563 C153 1.273 . S
C579 C178 1.273 . S
C581 C187 1.273 . S
C597 C212 1.273 . S
C599 C221 1.273 . S
C615 C246 1.273 . S
C617 C255 1.273 . S
C633 C29 1.582 . S
C635 C34 1.581 . S
C651 C102 1.580 . S
C653 C68 1.580 . S
C669 C165 1.582 . S
C671 C170 1.581 . S
C687 C238 1.580 . S
C689 C204 1.580 . S
