# Generated by pormake.
# Topology wkd, (5)-cn, num edge types: 1
# Building blocks:
#     Node 0, Type 0, BuildingBlock: XOMCOT_clean_sbu_0, # of connection points: 5
#     Node 1, Type 0, BuildingBlock: XOMCOT_clean_sbu_0, # of connection points: 5
#     Node 2, Type 0, BuildingBlock: XOMCOT_clean_sbu_0, # of connection points: 5
#     Node 3, Type 0, BuildingBlock: XOMCOT_clean_sbu_0, # of connection points: 5
#     Node 4, Type 0, BuildingBlock: XOMCOT_clean_sbu_0, # of connection points: 5
#     Node 5, Type 0, BuildingBlock: XOMCOT_clean_sbu_0, # of connection points: 5
#     Node 6, Type 0, BuildingBlock: XOMCOT_clean_sbu_0, # of connection points: 5
#     Node 7, Type 0, BuildingBlock: XOMCOT_clean_sbu_0, # of connection points: 5
#     Node 8, Type 0, BuildingBlock: XOMCOT_clean_sbu_0, # of connection points: 5
#     Node 9, Type 0, BuildingBlock: XOMCOT_clean_sbu_0, # of connection points: 5
#     Node 10, Type 0, BuildingBlock: XOMCOT_clean_sbu_0, # of connection points: 5
#     Node 11, Type 0, BuildingBlock: XOMCOT_clean_sbu_0, # of connection points: 5
#     Edge 12, Type (0, 0), BuildingBlock: MIFKUJ_clean_linker_0, # of connection points: 2
#     Edge 13, Type (0, 0), BuildingBlock: MIFKUJ_clean_linker_0, # of connection points: 2
#     Edge 14, Type (0, 0), BuildingBlock: MIFKUJ_clean_linker_0, # of connection points: 2
#     Edge 15, Type (0, 0), BuildingBlock: MIFKUJ_clean_linker_0, # of connection points: 2
#     Edge 16, Type (0, 0), BuildingBlock: MIFKUJ_clean_linker_0, # of connection points: 2
#     Edge 17, Type (0, 0), BuildingBlock: MIFKUJ_clean_linker_0, # of connection points: 2
#     Edge 18, Type (0, 0), BuildingBlock: MIFKUJ_clean_linker_0, # of connection points: 2
#     Edge 19, Type (0, 0), BuildingBlock: MIFKUJ_clean_linker_0, # of connection points: 2
#     Edge 20, Type (0, 0), BuildingBlock: MIFKUJ_clean_linker_0, # of connection points: 2
#     Edge 21, Type (0, 0), BuildingBlock: MIFKUJ_clean_linker_0, # of connection points: 2
#     Edge 22, Type (0, 0), BuildingBlock: MIFKUJ_clean_linker_0, # of connection points: 2
#     Edge 23, Type (0, 0), BuildingBlock: MIFKUJ_clean_linker_0, # of connection points: 2
#     Edge 24, Type (0, 0), BuildingBlock: MIFKUJ_clean_linker_0, # of connection points: 2
#     Edge 25, Type (0, 0), BuildingBlock: MIFKUJ_clean_linker_0, # of connection points: 2
#     Edge 26, Type (0, 0), BuildingBlock: MIFKUJ_clean_linker_0, # of connection points: 2
#     Edge 27, Type (0, 0), BuildingBlock: MIFKUJ_clean_linker_0, # of connection points: 2
#     Edge 28, Type (0, 0), BuildingBlock: MIFKUJ_clean_linker_0, # of connection points: 2
#     Edge 29, Type (0, 0), BuildingBlock: MIFKUJ_clean_linker_0, # of connection points: 2
#     Edge 30, Type (0, 0), BuildingBlock: MIFKUJ_clean_linker_0, # of connection points: 2
#     Edge 31, Type (0, 0), BuildingBlock: MIFKUJ_clean_linker_0, # of connection points: 2
#     Edge 32, Type (0, 0), BuildingBlock: MIFKUJ_clean_linker_0, # of connection points: 2
#     Edge 33, Type (0, 0), BuildingBlock: MIFKUJ_clean_linker_0, # of connection points: 2
#     Edge 34, Type (0, 0), BuildingBlock: MIFKUJ_clean_linker_0, # of connection points: 2
#     Edge 35, Type (0, 0), BuildingBlock: MIFKUJ_clean_linker_0, # of connection points: 2
#     Edge 36, Type (0, 0), BuildingBlock: MIFKUJ_clean_linker_0, # of connection points: 2
#     Edge 37, Type (0, 0), BuildingBlock: MIFKUJ_clean_linker_0, # of connection points: 2
#     Edge 38, Type (0, 0), BuildingBlock: MIFKUJ_clean_linker_0, # of connection points: 2
#     Edge 39, Type (0, 0), BuildingBlock: MIFKUJ_clean_linker_0, # of connection points: 2
#     Edge 40, Type (0, 0), BuildingBlock: MIFKUJ_clean_linker_0, # of connection points: 2
#     Edge 41, Type (0, 0), BuildingBlock: MIFKUJ_clean_linker_0, # of connection points: 2
# Relax obj value: 0.120
# Max RMSD: 0.194
# Mean RMSD: 0.194
data_MOF--net-wkd--node1-XOMCOT_clean_sbu_0--edge1-MIFKUJ_clean_linker_0
_symmetry_space_group_name_H-M    P1
_symmetry_Int_Tables_number       1
_symmetry_cell_setting            triclinic
loop_
_symmetry_equiv_pos_as_xyz
'x, y, z'
_cell_length_a     32.57119
_cell_length_b     32.614411
_cell_length_c     138.46263
_cell_angle_alpha  89.96517
_cell_angle_beta   90.102757
_cell_angle_gamma 120.07886
loop_
_atom_site_label
_atom_site_type_symbol
_atom_site_fract_x
_atom_site_fract_y
_atom_site_fract_z
_atom_type_partial_charge
Co0 Co 0.03078 0.30024 0.04388 0.0
C1 C 1.00818 0.3647 0.03275 0.0
C2 C 0.97553 0.29514 0.02651 0.0
C3 C 0.96396 0.32283 0.02097 0.0
N4 N 1.00348 0.32134 0.0339 0.0
N5 N 0.98433 0.3664 0.02491 0.0
H6 H 0.02875 0.39456 0.03747 0.0
H7 H 0.96396 0.25833 0.02515 0.0
C8 C 0.01847 0.20896 0.03622 0.0
O9 O 0.06245 0.22386 0.03892 0.0
N10 N 0.0566 0.27792 0.05401 0.0
C11 C 0.10022 0.29954 0.05806 0.0
C12 C 0.10381 0.26825 0.06419 0.0
C13 C 0.0336 0.23453 0.05817 0.0
N14 N 0.06204 0.22734 0.06419 0.0
C15 C 0.12797 0.36353 0.03887 0.0
C16 C 0.1275 0.3254 0.02106 0.0
C17 C 0.17002 0.36366 0.02449 0.0
C18 C 0.1695 0.38324 0.03344 0.0
C19 C 0.08656 0.30661 0.02678 0.0
N20 N 0.08779 0.32375 0.03587 0.0
H21 H 0.12821 0.38136 0.04543 0.0
H22 H 0.05387 0.27879 0.02376 0.0
H23 H 0.12824 0.33517 0.05673 0.0
H24 H 0.99769 0.20762 0.05635 0.0
O25 O 0.04961 0.35715 0.05111 0.0
O26 O 0.98027 0.29166 0.05274 0.0
O27 O 0.9999 0.23495 0.03772 0.0
C28 C 1.00862 0.33558 0.05532 0.0
H29 H 0.94132 0.31148 0.01464 0.0
H30 H 0.13508 0.2747 0.06819 0.0
H31 H 0.12578 0.31008 0.01403 0.0
H32 H 0.20071 0.4145 0.03615 0.0
Co33 Co 0.73964 0.02978 0.20936 0.0
C34 C 0.64452 0.98804 0.19955 0.0
C35 C 0.6999 0.99525 0.1901 0.0
C36 C 0.65818 0.97562 0.18496 0.0
N37 N 0.69146 1.00256 0.19929 0.0
N38 N 0.62345 0.97114 0.1909 0.0
H39 H 0.62582 0.98947 0.20586 0.0
H40 H 0.73435 1.00458 0.18725 0.0
C41 C 0.80955 0.99506 0.20427 0.0
O42 O 0.84129 0.02348 0.21053 0.0
N43 N 0.78726 0.05711 0.21951 0.0
C44 C 0.81356 0.10345 0.22175 0.0
C45 C 0.84348 0.10857 0.22927 0.0
C46 C 0.79963 0.03448 0.22608 0.0
N47 N 0.83529 0.06526 0.23189 0.0
C48 C 0.75288 0.10878 0.19834 0.0
C49 C 0.84661 0.14402 0.19321 0.0
C50 C 0.82394 0.16915 0.19047 0.0
C51 C 0.7762 0.15055 0.19299 0.0
C52 C 0.8219 0.10222 0.19858 0.0
N53 N 0.77567 0.08526 0.20117 0.0
H54 H 0.71627 0.09543 0.20032 0.0
H55 H 0.84085 0.08505 0.20093 0.0
H56 H 0.81201 0.13179 0.21803 0.0
H57 H 0.78486 0.99644 0.22621 0.0
O58 O 0.70364 0.05228 0.21627 0.0
O59 O 0.69644 0.98173 0.21847 0.0
O60 O 0.77021 0.99463 0.20316 0.0
C61 C 0.68331 0.01219 0.22087 0.0
H62 H 0.6539 0.96645 0.17737 0.0
H63 H 0.87104 0.14185 0.23221 0.0
H64 H 0.88365 0.15742 0.19153 0.0
H65 H 0.75698 0.16832 0.19091 0.0
Co66 Co 0.71215 0.73052 0.37676 0.0
C67 C 0.64478 0.64504 0.36472 0.0
C68 C 0.71481 0.65522 0.36614 0.0
C69 C 0.68817 0.61512 0.36078 0.0
N70 N 0.6884 0.6752 0.36837 0.0
N71 N 0.64422 0.60873 0.35989 0.0
H72 H 0.61371 0.6482 0.36571 0.0
H73 H 0.75107 0.66854 0.36844 0.0
C74 C 0.78088 0.76045 0.36066 0.0
O75 O 0.74327 0.74215 0.35503 0.0
N76 N 0.73744 0.78439 0.38536 0.0
C77 C 0.71424 0.80526 0.38902 0.0
C78 C 0.74553 0.84344 0.39452 0.0
C79 C 0.78231 0.80978 0.38871 0.0
N80 N 0.78844 0.84636 0.39434 0.0
C81 C 0.64262 0.74514 0.36704 0.0
C82 C 0.7044 0.83397 0.3597 0.0
C83 C 0.65556 0.81466 0.35818 0.0
C84 C 0.62464 0.76951 0.36191 0.0
C85 C 0.72092 0.80828 0.36491 0.0
N86 N 0.69027 0.76354 0.36822 0.0
H87 H 0.61773 0.71255 0.37051 0.0
H88 H 0.75831 0.82529 0.36659 0.0
H89 H 0.67738 0.79398 0.38763 0.0
H90 H 0.80973 0.8014 0.38705 0.0
O91 O 0.65628 0.69841 0.3846 0.0
O92 O 0.7207 0.69297 0.38675 0.0
O93 O 0.7757 0.7594 0.36986 0.0
C94 C 0.67738 0.68005 0.38938 0.0
H95 H 0.69969 0.59145 0.35804 0.0
H96 H 0.73732 0.86775 0.39818 0.0
H97 H 0.72949 0.86945 0.35727 0.0
H98 H 0.58658 0.7534 0.36106 0.0
Co99 Co 0.98813 0.71067 0.5437 0.0
C100 C 0.01182 0.64726 0.53254 0.0
C101 C 0.06095 0.72112 0.53007 0.0
C102 C 0.07801 0.69511 0.52562 0.0
N103 N 0.01952 0.69129 0.53442 0.0
N104 N 0.04738 0.64883 0.52724 0.0
H105 H 0.98282 0.61514 0.53554 0.0
H106 H 0.07932 0.75931 0.53058 0.0
C107 C 0.99617 0.7961 0.5338 0.0
O108 O 0.95059 0.7785 0.53537 0.0
N109 N 0.95908 0.73193 0.5534 0.0
C110 C 0.92727 0.70552 0.56028 0.0
C111 C 0.92178 0.7349 0.56663 0.0
C112 C 0.97397 0.77729 0.55604 0.0
N113 N 0.95102 0.78002 0.56391 0.0
C114 C 0.88948 0.65143 0.53916 0.0
C115 C 0.8951 0.67287 0.51973 0.0
C116 C 0.85061 0.64098 0.52368 0.0
C117 C 0.84853 0.6299 0.53352 0.0
C118 C 0.9355 0.69356 0.52567 0.0
N119 N 0.93204 0.68432 0.53537 0.0
H120 H 0.88694 0.64011 0.54652 0.0
H121 H 0.9696 0.71715 0.52245 0.0
H122 H 0.91098 0.66762 0.5611 0.0
H123 H 1.00302 0.80799 0.55268 0.0
O124 O 0.97061 0.65468 0.55115 0.0
O125 O 0.03811 0.72252 0.55297 0.0
O126 O 0.01716 0.77455 0.53701 0.0
C127 C 0.0109 0.67848 0.5556 0.0
H128 H 0.11144 0.70919 0.52183 0.0
H129 H 0.8987 0.72389 0.57287 0.0
H130 H 0.89875 0.68198 0.51213 0.0
H131 H 0.81563 0.60367 0.53683 0.0
Co132 Co 0.28197 0.98713 0.70995 0.0
C133 C 0.36661 0.00872 0.69794 0.0
C134 C 0.3375 0.05319 0.69447 0.0
C135 C 0.37741 0.06727 0.689 0.0
N136 N 0.33026 0.01617 0.70002 0.0
N137 N 0.39589 0.03954 0.69119 0.0
H138 H 0.37213 0.98216 0.70142 0.0
H139 H 0.3166 0.07044 0.69462 0.0
C140 C 0.20219 0.99407 0.70071 0.0
O141 O 0.17415 0.94905 0.70278 0.0
N142 N 0.23423 0.9602 0.72026 0.0
C143 C 0.22989 0.92859 0.72708 0.0
C144 C 0.19434 0.92131 0.73339 0.0
C145 C 0.20295 0.97391 0.72302 0.0
N146 N 0.17714 0.94961 0.73081 0.0
C147 C 0.24003 0.8876 0.70616 0.0
C148 C 0.21932 0.88983 0.68688 0.0
C149 C 0.20763 0.84614 0.69109 0.0
C150 C 0.21839 0.84563 0.70088 0.0
C151 C 0.2409 0.93124 0.69249 0.0
N152 N 0.24935 0.92956 0.70213 0.0
H153 H 0.25061 0.88618 0.71342 0.0
H154 H 0.25096 0.96471 0.68905 0.0
H155 H 0.25232 0.91317 0.72782 0.0
H156 H 0.19942 1.00163 0.71955 0.0
O157 O 0.32213 0.97042 0.71709 0.0
O158 O 0.32306 0.03862 0.71865 0.0
O159 O 0.24555 0.01526 0.7035 0.0
C160 C 0.3401 0.01152 0.72121 0.0
H161 H 0.393 0.0973 0.68414 0.0
H162 H 0.18316 0.89812 0.73962 0.0
H163 H 0.21294 0.89224 0.67928 0.0
H164 H 0.21045 0.813 0.70448 0.0
Co165 Co 0.307 0.28985 0.87722 0.0
C166 C 0.37352 0.37868 0.86667 0.0
C167 C 0.30021 0.35606 0.86401 0.0
C168 C 0.32757 0.3997 0.85983 0.0
N169 N 0.32881 0.3427 0.86831 0.0
N170 N 0.37356 0.41408 0.86156 0.0
H171 H 0.40503 0.38041 0.8697 0.0
H172 H 0.2619 0.33688 0.86435 0.0
C173 C 0.2226 0.2156 0.86651 0.0
O174 O 0.23971 0.18713 0.86788 0.0
N175 N 0.28331 0.23773 0.88659 0.0
C176 C 0.30817 0.23164 0.89373 0.0
C177 C 0.27738 0.19639 0.89986 0.0
C178 C 0.23731 0.20711 0.88884 0.0
N179 N 0.23285 0.1809 0.89675 0.0
C180 C 0.3617 0.24561 0.8726 0.0
C181 C 0.34603 0.23866 0.8529 0.0
C182 C 0.37435 0.22161 0.85686 0.0
C183 C 0.38202 0.22546 0.86686 0.0
C184 C 0.32609 0.25849 0.85895 0.0
N185 N 0.33269 0.26029 0.86874 0.0
H186 H 0.37052 0.25036 0.88014 0.0
H187 H 0.30512 0.27223 0.85576 0.0
H188 H 0.34598 0.25309 0.89487 0.0
H189 H 0.20733 0.20595 0.88523 0.0
O190 O 0.36271 0.32579 0.88491 0.0
O191 O 0.29588 0.32721 0.88678 0.0
O192 O 0.24367 0.25727 0.87019 0.0
C193 C 0.33963 0.34252 0.88951 0.0
H194 H 0.31457 0.42017 0.85612 0.0
H195 H 0.28698 0.18394 0.90625 0.0
H196 H 0.34006 0.2376 0.84519 0.0
H197 H 0.4037 0.21306 0.87029 0.0
Co198 Co 0.71806 0.99325 0.79674 0.0
C199 C 0.65502 0.02496 0.80634 0.0
C200 C 0.72804 0.07898 0.80539 0.0
C201 C 0.703 0.09896 0.80898 0.0
N202 N 0.69861 0.03213 0.80399 0.0
N203 N 0.65698 0.06519 0.80954 0.0
H204 H 0.62215 0.99254 0.80502 0.0
H205 H 0.76516 0.09818 0.80345 0.0
C206 C 0.79128 0.03859 0.81199 0.0
O207 O 0.75555 0.02542 0.81797 0.0
N208 N 0.73901 0.95753 0.78913 0.0
C209 C 0.71364 0.91161 0.78657 0.0
C210 C 0.7421 0.90057 0.78109 0.0
C211 C 0.78221 0.97399 0.78512 0.0
N212 N 0.78525 0.93983 0.78018 0.0
C213 C 0.64898 0.91904 0.80887 0.0
C214 C 0.70871 0.88911 0.81611 0.0
C215 C 0.66046 0.8636 0.81855 0.0
C216 C 0.63061 0.87936 0.81489 0.0
C217 C 0.72569 0.92882 0.8101 0.0
N218 N 0.69613 0.94404 0.80667 0.0
H219 H 0.6245 0.92764 0.80551 0.0
H220 H 0.76238 0.94608 0.80787 0.0
H221 H 0.67705 0.88789 0.78855 0.0
H222 H 0.81091 0.01014 0.7859 0.0
O223 O 0.66061 0.96718 0.7893 0.0
O224 O 0.72666 0.03337 0.78558 0.0
O225 O 0.7834 0.02892 0.80296 0.0
C226 C 0.68236 1.00317 0.78354 0.0
H227 H 0.7176 0.13598 0.81079 0.0
H228 H 0.73148 0.86639 0.7779 0.0
H229 H 0.73307 0.87801 0.81868 0.0
H230 H 0.59279 0.85978 0.81625 0.0
Co231 Co 0.73933 0.71706 0.96397 0.0
C232 C 0.64997 0.65429 0.97476 0.0
C233 C 0.69481 0.71842 0.98252 0.0
C234 C 0.65452 0.69169 0.98788 0.0
N235 N 0.69247 0.69487 0.97432 0.0
N236 N 0.6264 0.65168 0.98296 0.0
H237 H 0.63618 0.62714 0.96925 0.0
H238 H 0.72338 0.75302 0.98455 0.0
C239 C 0.81867 0.80719 0.97224 0.0
O240 O 0.84811 0.79326 0.96931 0.0
N241 N 0.7855 0.74017 0.95342 0.0
C242 C 0.79413 0.71427 0.94698 0.0
C243 C 0.82604 0.74402 0.9402 0.0
C244 C 0.81092 0.78525 0.95011 0.0
N245 N 0.83688 0.78867 0.94224 0.0
C246 C 0.77885 0.65702 0.96758 0.0
C247 C 0.81484 0.69047 0.98577 0.0
C248 C 0.82075 0.65414 0.98183 0.0
C249 C 0.80166 0.63706 0.97264 0.0
C250 C 0.79102 0.70887 0.98051 0.0
N251 N 0.77523 0.69384 0.9713 0.0
H252 H 0.76249 0.64124 0.9608 0.0
H253 H 0.78541 0.73519 0.98397 0.0
H254 H 0.77721 0.67618 0.94686 0.0
H255 H 0.8097 0.81503 0.95322 0.0
O256 O 0.70021 0.66041 0.95664 0.0
O257 O 0.69559 0.7258 0.95571 0.0
O258 O 0.77424 0.78176 0.97041 0.0
C259 C 0.68043 0.68248 0.95279 0.0
H260 H 0.6458 0.70152 0.99471 0.0
H261 H 0.84029 0.7336 0.93424 0.0
H262 H 0.82838 0.70477 0.99287 0.0
H263 H 0.80293 0.60743 0.96945 0.0
Co264 Co 0.02499 0.7287 0.12928 0.0
C265 C 0.01017 0.64729 0.14148 0.0
C266 C 0.95463 0.66412 0.14304 0.0
C267 C 0.9437 0.62526 0.14863 0.0
N268 N 0.99639 0.67819 0.13863 0.0
N269 N 0.9785 0.61457 0.14766 0.0
H270 H 0.04217 0.64835 0.13899 0.0
H271 H 0.93262 0.67989 0.142 0.0
C272 C 0.01158 0.80581 0.13781 0.0
O273 O 0.05455 0.83685 0.13491 0.0
N274 N 0.0516 0.77907 0.11963 0.0
C275 C 0.09412 0.79928 0.11517 0.0
C276 C 0.09671 0.83251 0.1087 0.0
C277 C 0.02841 0.79931 0.11548 0.0
N278 N 0.05546 0.8328 0.10892 0.0
C279 C 0.12161 0.75978 0.13421 0.0
C280 C 0.12125 0.79204 0.15262 0.0
C281 C 0.16291 0.79433 0.1492 0.0
C282 C 0.1625 0.7779 0.13984 0.0
C283 C 0.08087 0.77369 0.14668 0.0
N284 N 0.08193 0.75969 0.1374 0.0
H285 H 0.12173 0.74422 0.12737 0.0
H286 H 0.0484 0.76911 0.14973 0.0
H287 H 0.12163 0.79074 0.11629 0.0
H288 H 0.99236 0.78964 0.11728 0.0
O289 O 0.04277 0.69133 0.12149 0.0
O290 O 0.97409 0.68949 0.12026 0.0
O291 O 0.99466 0.76164 0.13615 0.0
C292 C 1.00169 0.6737 0.11734 0.0
H293 H 0.91148 0.60514 0.15277 0.0
H294 H 0.1272 0.85526 0.10431 0.0
H295 H 0.11925 0.80263 0.15993 0.0
H296 H 0.19345 0.77839 0.13685 0.0
Co297 Co 0.3025 0.02586 0.29656 0.0
C298 C 0.37051 0.00791 0.30835 0.0
C299 C 0.29841 0.95125 0.30879 0.0
C300 C 0.32546 0.93798 0.31406 0.0
N301 N 0.32597 0.99591 0.3055 0.0
N302 N 0.37074 0.97355 0.31379 0.0
H303 H 0.40237 0.03968 0.30621 0.0
H304 H 0.26113 0.92885 0.30717 0.0
C305 C 0.23391 0.99323 0.31271 0.0
O306 O 0.27169 0.01482 0.31826 0.0
N307 N 0.27768 0.05292 0.28741 0.0
C308 C 0.30283 0.09367 0.28248 0.0
C309 C 0.27216 0.10056 0.27676 0.0
C310 C 0.23209 0.03559 0.28467 0.0
N311 N 0.2277 0.0641 0.27815 0.0
C312 C 0.37201 0.11054 0.30619 0.0
C313 C 0.311 0.14164 0.31194 0.0
C314 C 0.3595 0.16977 0.31401 0.0
C315 C 0.39005 0.15357 0.31107 0.0
C316 C 0.29443 0.09871 0.30702 0.0
N317 N 0.32457 0.08264 0.30451 0.0
H318 H 0.39679 0.10109 0.30335 0.0
H319 H 0.2574 0.07896 0.30501 0.0
H320 H 0.34077 0.11699 0.28308 0.0
H321 H 0.20281 1.00267 0.28731 0.0
O322 O 0.35844 0.04786 0.28882 0.0
O323 O 0.29385 0.9776 0.28708 0.0
O324 O 0.23891 0.99317 0.30352 0.0
C325 C 0.33711 0.00761 0.28433 0.0
H326 H 0.31316 0.90388 0.31745 0.0
H327 H 0.28176 0.13064 0.27209 0.0
H328 H 0.28631 0.15348 0.31378 0.0
H329 H 0.42789 0.17437 0.31237 0.0
Co330 Co 0.27597 0.29435 0.46334 0.0
C331 C 0.37115 0.34618 0.47312 0.0
C332 C 0.31596 0.29616 0.48238 0.0
C333 C 0.35708 0.3197 0.48767 0.0
N334 N 0.32455 0.31261 0.47324 0.0
N335 N 0.39171 0.35119 0.48186 0.0
H336 H 0.38941 0.36798 0.46694 0.0
H337 H 0.28165 0.26991 0.48514 0.0
C338 C 0.20265 0.1905 0.46832 0.0
O339 O 0.1708 0.18971 0.4624 0.0
N340 N 0.22783 0.27692 0.4534 0.0
C341 C 0.20238 0.29841 0.45171 0.0
C342 C 0.16991 0.27418 0.44454 0.0
C343 C 0.21264 0.24183 0.44676 0.0
N344 N 0.17564 0.23797 0.44156 0.0
C345 C 0.26709 0.36162 0.47476 0.0
C346 C 0.1745 0.30509 0.48081 0.0
C347 C 0.19929 0.35268 0.48373 0.0
C348 C 0.2463 0.38094 0.48062 0.0
C349 C 0.1967 0.28714 0.47491 0.0
N350 N 0.2425 0.31532 0.47193 0.0
H351 H 0.30327 0.38419 0.47242 0.0
H352 H 0.17621 0.25109 0.47262 0.0
H353 H 0.20607 0.32875 0.45563 0.0
H354 H 0.22531 0.21687 0.44642 0.0
O355 O 0.3133 0.35312 0.45656 0.0
O356 O 0.31724 0.28818 0.45395 0.0
O357 O 0.24349 0.22791 0.46923 0.0
C358 C 0.33187 0.33232 0.45174 0.0
H359 H 0.36107 0.31437 0.49526 0.0
H360 H 0.14285 0.28157 0.44199 0.0
H361 H 0.13817 0.28182 0.48305 0.0
H362 H 0.26672 0.41813 0.48251 0.0
Co363 Co 0.99066 0.28114 0.62991 0.0
C364 C 0.00997 0.36263 0.64271 0.0
C365 C 0.06274 0.34179 0.64387 0.0
C366 C 0.07616 0.38072 0.6496 0.0
N367 N 0.02112 0.33009 0.6396 0.0
N368 N 0.04314 0.39401 0.64889 0.0
H369 H 0.97895 0.36386 0.64033 0.0
H370 H 0.0832 0.32455 0.64258 0.0
C371 C 0.9985 0.20268 0.63932 0.0
O372 O 0.95297 0.17508 0.63757 0.0
N373 N 0.96274 0.23268 0.61976 0.0
C374 C 0.93292 0.22953 0.61261 0.0
C375 C 0.92727 0.19498 0.60615 0.0
C376 C 0.97652 0.20131 0.61716 0.0
N377 N 0.95449 0.17709 0.60908 0.0
C378 C 0.89114 0.23668 0.63403 0.0
C379 C 0.8968 0.22427 0.65363 0.0
C380 C 0.8522 0.21035 0.64954 0.0
C381 C 0.84994 0.21651 0.63957 0.0
C382 C 0.93736 0.24397 0.64777 0.0
N383 N 0.9341 0.24903 0.63803 0.0
H384 H 0.88829 0.24369 0.62657 0.0
H385 H 0.97152 0.25562 0.65109 0.0
H386 H 0.91774 0.25215 0.61178 0.0
H387 H 1.0042 0.19789 0.6207 0.0
O388 O 0.97261 0.32044 0.62293 0.0
O389 O 0.04066 0.32178 0.62082 0.0
O390 O 0.01987 0.24561 0.63631 0.0
C391 C 0.01286 0.33834 0.61844 0.0
H392 H 0.10912 0.39928 0.6536 0.0
H393 H 0.90532 0.18431 0.59972 0.0
H394 H 0.90062 0.22117 0.66132 0.0
H395 H 0.81653 0.20625 0.636 0.0
H396 H 0.77024 0.85014 0.979 0.0
H397 H 0.79886 0.91645 0.9904 0.0
H398 H 0.93492 0.92432 0.99162 0.0
H399 H 0.9069 0.85854 0.98023 0.0
H400 H 0.89983 0.92649 0.00982 0.0
H401 H 0.92409 1.0035 0.97897 0.0
H402 H 0.89943 0.01627 0.96295 0.0
H403 H 0.79864 0.04683 0.97621 0.0
H404 H 0.82214 0.03333 0.99233 0.0
H405 H 0.05097 0.1503 0.03047 0.0
H406 H 0.01103 0.08017 0.02028 0.0
H407 H 0.88738 0.09602 0.01889 0.0
H408 H 0.92768 0.16721 0.02898 0.0
H409 H 0.90856 0.0786 1.00146 0.0
H410 H 0.88912 0.0081 0.03253 0.0
H411 H 0.91385 0.99504 0.04853 0.0
H412 H 1.00456 0.95149 0.03512 0.0
H413 H 0.98104 0.96509 0.01901 0.0
C414 C 0.80636 0.86621 0.98164 0.0
C415 C 0.8363 0.84909 0.97867 0.0
C416 C 0.82263 0.90406 0.98816 0.0
C417 C 0.86903 0.9253 0.99187 0.0
C418 C 0.89894 0.90834 0.98889 0.0
C419 C 0.8829 0.87089 0.98232 0.0
C420 C 0.88669 0.96527 0.99884 0.0
C421 C 0.90213 0.95992 0.00798 0.0
C422 C 0.8884 0.00835 0.99652 0.0
C423 C 0.87447 0.01685 0.98685 0.0
C424 C 0.89637 0.01253 0.97847 0.0
C425 C 0.88266 0.01998 0.96937 0.0
C426 C 0.84741 0.03227 0.96855 0.0
C427 C 0.82588 0.03723 0.97685 0.0
C428 C 0.83938 0.02968 0.98597 0.0
C429 C 0.01513 0.13879 0.02808 0.0
C430 C 0.99256 0.16448 0.03056 0.0
C431 C 0.9922 0.09842 0.02227 0.0
C432 C 0.9459 0.08232 0.0189 0.0
C433 C 0.92306 0.10765 0.02142 0.0
C434 C 0.9461 0.14828 0.02721 0.0
C435 C 0.92236 0.04018 0.01245 0.0
C436 C 0.90581 0.04506 0.00338 0.0
C437 C 0.91954 0.99658 0.01486 0.0
C438 C 0.93356 0.988 0.02454 0.0
C439 C 0.91462 0.99609 0.03298 0.0
C440 C 0.9284 0.98855 0.04208 0.0
C441 C 0.96083 0.97254 0.04284 0.0
C442 C 0.97948 0.96394 0.03451 0.0
C443 C 0.9659 0.97152 0.0254 0.0
H444 H 0.97145 0.96672 0.04989 0.0
H445 H 0.83683 0.03803 0.9615 0.0
H446 H 0.02038 0.89351 0.13836 0.0
H447 H 0.9797 0.92108 0.14911 0.0
H448 H 0.90308 0.78207 0.162 0.0
H449 H 0.94212 0.75389 0.15096 0.0
H450 H 0.84667 0.81546 0.16108 0.0
H451 H 1.00553 0.87715 0.17259 0.0
H452 H 0.09287 0.91994 0.17152 0.0
H453 H 0.09332 0.04838 0.16445 0.0
H454 H 1.0059 0.00618 0.16536 0.0
H455 H 0.87653 0.9699 0.20727 0.0
H456 H 0.9042 0.93166 0.19598 0.0
H457 H 0.80213 0.92224 0.17488 0.0
H458 H 0.77285 0.95859 0.18634 0.0
H459 H 0.94714 0.96083 0.18015 0.0
H460 H 0.77635 0.83418 0.15875 0.0
H461 H 0.69019 0.78487 0.16152 0.0
H462 H 0.71525 0.77474 0.19165 0.0
H463 H 0.80153 0.82345 0.18904 0.0
C464 C 0.99458 0.86877 0.14344 0.0
C465 C 0.98469 0.82165 0.14386 0.0
C466 C 0.97145 0.88459 0.14962 0.0
C467 C 0.93899 0.854 0.15654 0.0
C468 C 0.92796 0.80646 0.15675 0.0
C469 C 0.95039 0.79038 0.15044 0.0
C470 C 0.91802 0.87192 0.16382 0.0
C471 C 0.86864 0.84729 0.16524 0.0
C472 C 0.94659 0.91284 0.16945 0.0
C473 C 0.99917 0.93841 0.16896 0.0
C474 C 0.02425 0.91446 0.17075 0.0
C475 C 0.07376 0.93861 0.17018 0.0
C476 C 0.09862 0.98682 0.1679 0.0
C477 C 0.07401 0.01102 0.16621 0.0
C478 C 0.02449 0.98702 0.16676 0.0
C479 C 0.85949 0.95909 0.20027 0.0
C480 C 0.82258 0.96751 0.1977 0.0
C481 C 0.8755 0.93736 0.19379 0.0
C482 C 0.85541 0.92394 0.18454 0.0
C483 C 0.81782 0.93145 0.18201 0.0
C484 C 0.80117 0.95248 0.18857 0.0
C485 C 0.87567 0.90447 0.17743 0.0
C486 C 0.92502 0.92899 0.176 0.0
C487 C 0.84719 0.86256 0.17207 0.0
C488 C 0.79537 0.8329 0.1737 0.0
C489 C 0.76346 0.8213 0.16596 0.0
C490 C 0.71461 0.79348 0.16751 0.0
C491 C 0.69725 0.77683 0.17677 0.0
C492 C 0.72872 0.78782 0.18449 0.0
C493 C 0.7776 0.81559 0.18298 0.0
H494 H 0.65942 0.75531 0.17795 0.0
H495 H 0.13695 1.00546 0.16745 0.0
H496 H 0.80141 0.75632 0.3418 0.0
H497 H 0.87863 0.79544 0.33398 0.0
H498 H 0.94594 0.85548 0.36128 0.0
H499 H 0.86802 0.81641 0.36923 0.0
H500 H 0.9794 0.92112 0.34664 0.0
H501 H 0.95461 0.76558 0.35175 0.0
H502 H 0.9109 0.67827 0.35123 0.0
H503 H 0.90664 0.68187 0.32025 0.0
H504 H 0.94974 0.76926 0.3206 0.0
H505 H 0.21392 0.99596 0.33168 0.0
H506 H 0.13695 0.95695 0.33958 0.0
H507 H 0.06873 0.8982 0.31229 0.0
H508 H 0.14641 0.93735 0.30424 0.0
H509 H 0.03587 0.83196 0.32699 0.0
H510 H 0.06234 0.9885 0.32204 0.0
H511 H 0.10613 0.07576 0.32277 0.0
H512 H 0.1075 0.07034 0.35375 0.0
H513 H 0.06448 0.983 0.3532 0.0
C514 C 0.83254 0.77768 0.34619 0.0
C515 C 0.82852 0.78315 0.35616 0.0
C516 C 0.87677 0.79987 0.34169 0.0
C517 C 0.91814 0.82798 0.34705 0.0
C518 C 0.91443 0.83376 0.35701 0.0
C519 C 0.86997 0.81127 0.36155 0.0
C520 C 0.96491 0.85201 0.34211 0.0
C521 C 0.99217 0.9016 0.34248 0.0
C522 C 0.98087 0.82658 0.33645 0.0
C523 C 0.95503 0.774 0.3362 0.0
C524 C 0.94401 0.74777 0.34483 0.0
C525 C 0.91941 0.69825 0.34456 0.0
C526 C 0.9059 0.67453 0.33571 0.0
C527 C 0.91708 0.70029 0.32711 0.0
C528 C 0.94164 0.74982 0.32733 0.0
C529 C 0.18267 0.97486 0.32731 0.0
C530 C 0.1864 0.96976 0.3173 0.0
C531 C 0.13857 0.95274 0.33186 0.0
C532 C 0.09702 0.92505 0.32653 0.0
C533 C 0.10041 0.91957 0.31654 0.0
C534 C 0.14475 0.942 0.31194 0.0
C535 C 0.05038 0.9011 0.33151 0.0
C536 C 0.02313 0.8515 0.33115 0.0
C537 C 0.03454 0.92654 0.33722 0.0
C538 C 0.06062 0.97913 0.33757 0.0
C539 C 0.07241 0.00588 0.32901 0.0
C540 C 0.09703 0.05538 0.32939 0.0
C541 C 0.10973 0.07858 0.3383 0.0
C542 C 0.09775 0.05232 0.34685 0.0
C543 C 0.07323 1.00281 0.34651 0.0
H544 H 0.12875 0.11691 0.33858 0.0
H545 H 0.88686 0.63619 0.33552 0.0
H546 H 0.1149 0.11207 0.47004 0.0
H547 H 0.08843 0.04842 0.48184 0.0
H548 H 0.23006 0.11168 0.4935 0.0
H549 H 0.25718 0.17645 0.4817 0.0
H550 H 0.17793 0.00628 0.4908 0.0
H551 H 0.16216 0.131 0.50568 0.0
H552 H 0.13757 0.19122 0.50612 0.0
H553 H 0.99206 0.08265 0.50239 0.0
H554 H 0.0159 0.02184 0.50176 0.0
H555 H 0.09259 0.85273 0.53179 0.0
H556 H 0.13512 0.92297 0.52155 0.0
H557 H 1.00157 0.90643 0.51189 0.0
H558 H 0.95919 0.83771 0.52237 0.0
H559 H 0.05896 0.99461 0.51464 0.0
H560 H 0.07182 0.87123 0.49822 0.0
H561 H 0.09307 0.80882 0.49664 0.0
H562 H 0.23929 0.91093 0.50211 0.0
H563 H 0.21879 0.97385 0.50386 0.0
C564 C 0.14075 0.11249 0.47503 0.0
C565 C 0.18821 0.14972 0.47495 0.0
C566 C 0.12544 0.07597 0.48179 0.0
C567 C 0.15719 0.07557 0.48858 0.0
C568 C 0.20503 0.11144 0.4883 0.0
C569 C 0.2204 0.14845 0.48158 0.0
C570 C 0.13924 0.0388 0.49624 0.0
C571 C 0.1526 1.00407 0.49614 0.0
C572 C 0.10542 0.0355 0.50305 0.0
C573 C 0.09087 0.0719 0.50361 0.0
C574 C 0.12496 0.12 0.50489 0.0
C575 C 0.11116 0.15424 0.50518 0.0
C576 C 0.0633 0.14078 0.50427 0.0
C577 C 0.02913 0.09303 0.50309 0.0
C578 C 0.04276 0.05865 0.50278 0.0
C579 C 0.07236 0.86427 0.52751 0.0
C580 C 0.02249 0.83958 0.52789 0.0
C581 C 0.09671 0.9043 0.52161 0.0
C582 C 0.07165 0.91977 0.5158 0.0
C583 C 0.02186 0.89543 0.5163 0.0
C584 C 0.9976 0.85598 0.5223 0.0
C585 C 0.09673 0.96101 0.50914 0.0
C586 C 0.08472 0.9968 0.5094 0.0
C587 C 0.13127 0.96482 0.5024 0.0
C588 C 0.14369 0.92712 0.50128 0.0
C589 C 0.10845 0.8803 0.49916 0.0
C590 C 0.12037 0.84484 0.49822 0.0
C591 C 0.16748 0.85587 0.4993 0.0
C592 C 0.2028 0.90242 0.50129 0.0
C593 C 0.19106 0.93799 0.50225 0.0
H594 H 0.17663 0.82837 0.49858 0.0
H595 H 0.05268 0.16734 0.50449 0.0
H596 H 0.24949 0.08703 0.69475 0.0
H597 H 0.22054 0.12613 0.68385 0.0
H598 H 0.08511 0.99727 0.68199 0.0
H599 H 0.11394 0.95776 0.69272 0.0
H600 H 0.11512 0.03505 0.66441 0.0
H601 H 0.10112 0.09216 0.69572 0.0
H602 H 0.13068 0.13115 0.71149 0.0
H603 H 0.23114 0.25967 0.69723 0.0
H604 H 0.20259 0.22121 0.68136 0.0
H605 H 0.96398 0.11252 0.64597 0.0
H606 H 1.00463 0.08174 0.65579 0.0
H607 H 0.13221 0.21857 0.65524 0.0
H608 H 0.0914 0.25002 0.64545 0.0
H609 H 0.11408 0.18194 0.67323 0.0
H610 H 0.12418 0.12748 0.64192 0.0
H611 H 0.09485 0.08919 0.62609 0.0
H612 H 1.0033 0.95662 0.64009 0.0
H613 H 0.03148 0.99428 0.65602 0.0
C614 C 0.21349 0.06702 0.69205 0.0
C615 C 0.18411 0.01917 0.69462 0.0
C616 C 0.19692 0.08951 0.68584 0.0
C617 C 0.15052 0.06474 0.68212 0.0
C618 C 0.12107 0.01712 0.68473 0.0
C619 C 0.13759 0.99463 0.69092 0.0
C620 C 0.13252 0.08796 0.67541 0.0
C621 C 0.11447 0.06691 0.66638 0.0
C622 C 0.13308 0.13044 0.67783 0.0
C623 C 0.15008 0.15365 0.68736 0.0
C624 C 0.12977 0.12862 0.69595 0.0
C625 C 0.14629 0.15064 0.7049 0.0
C626 C 0.18286 0.19781 0.70536 0.0
C627 C 0.20288 0.22311 0.69686 0.0
C628 C 0.18652 0.20123 0.68789 0.0
C629 C 1.00078 0.13615 0.64787 0.0
C630 C 0.02442 0.18379 0.64489 0.0
C631 C 0.02408 0.11837 0.65347 0.0
C632 C 0.07169 0.14764 0.65618 0.0
C633 C 0.09551 0.19526 0.65322 0.0
C634 C 0.07217 0.21314 0.64759 0.0
C635 C 0.09583 0.12849 0.66231 0.0
C636 C 0.1151 0.15031 0.67122 0.0
C637 C 0.09654 0.08678 0.65977 0.0
C638 C 0.07971 0.06384 0.65018 0.0
C639 C 0.09753 0.09024 0.64163 0.0
C640 C 0.08114 0.06864 0.63264 0.0
C641 C 0.04717 0.02053 0.63208 0.0
C642 C 0.02959 0.9939 0.64053 0.0
C643 C 0.0458 0.01535 0.64955 0.0
H644 H 0.03454 1.00387 0.62511 0.0
H645 H 0.19561 0.2148 0.7123 0.0
H646 H 0.86902 0.03464 0.80567 0.0
H647 H 0.9468 0.06872 0.81373 0.0
H648 H 0.90071 0.13264 0.83519 0.0
H649 H 0.82295 0.09782 0.82737 0.0
H650 H 0.99859 0.19296 0.82747 0.0
H651 H 0.89209 0.03794 0.8415 0.0
H652 H 0.83742 0.95173 0.84037 0.0
H653 H 0.94749 0.93404 0.82753 0.0
H654 H 1.0026 0.02034 0.82844 0.0
H655 H 0.16022 0.24891 0.86623 0.0
H656 H 0.08999 0.22184 0.85598 0.0
H657 H 0.12051 0.12128 0.84224 0.0
H658 H 0.18897 0.14643 0.85283 0.0
H659 H 0.03263 0.07994 0.84474 0.0
H660 H 0.14179 0.23074 0.83139 0.0
H661 H 0.19844 0.31672 0.83136 0.0
H662 H 0.0889 0.34335 0.84113 0.0
H663 H 0.03173 0.25746 0.84136 0.0
C664 C 0.87588 0.05659 0.81202 0.0
C665 C 0.84001 0.06347 0.81594 0.0
C666 C 0.92015 0.07589 0.81661 0.0
C667 C 0.92936 0.10311 0.82506 0.0
C668 C 0.89434 0.11188 0.82867 0.0
C669 C 0.84991 0.09179 0.82423 0.0
C670 C 0.97399 0.11967 0.83058 0.0
C671 C 1.00613 0.16843 0.83129 0.0
C672 C 0.98418 0.08748 0.83535 0.0
C673 C 0.95126 0.0356 0.83493 0.0
C674 C 0.9045 0.01571 0.83835 0.0
C675 C 0.87345 0.96683 0.83777 0.0
C676 C 0.88892 0.93744 0.83385 0.0
C677 C 0.93553 0.95686 0.83055 0.0
C678 C 0.96668 1.00574 0.8311 0.0
C679 C 0.15181 0.22099 0.86103 0.0
C680 C 0.18004 0.19974 0.86035 0.0
C681 C 0.11185 0.20574 0.8551 0.0
C682 C 0.10015 0.16998 0.84816 0.0
C683 C 0.12848 0.14882 0.84752 0.0
C684 C 0.16773 0.16329 0.85358 0.0
C685 C 0.05793 0.15377 0.84172 0.0
C686 C 0.02588 0.10486 0.84085 0.0
C687 C 0.04839 0.18591 0.83665 0.0
C688 C 0.08258 0.23762 0.83647 0.0
C689 C 0.12986 0.25491 0.8336 0.0
C690 C 0.16205 0.30363 0.83354 0.0
C691 C 0.1473 0.33547 0.83627 0.0
C692 C 0.10029 0.31864 0.83903 0.0
C693 C 0.06796 0.26994 0.83912 0.0
H694 H 0.17228 0.37317 0.83622 0.0
H695 H 0.86484 0.8996 0.83341 0.0
H696 H 0.98182 0.16255 0.07324 0.0
H697 H 0.96729 0.08764 0.08067 0.0
H698 H 0.10614 0.11716 0.07168 0.0
H699 H 0.12111 0.19215 0.06454 0.0
H700 H 0.02046 0.01841 0.06768 0.0
H701 H 0.10381 0.13908 0.09268 0.0
H702 H 0.11145 0.20252 0.10352 0.0
H703 H 0.97588 0.10715 0.11606 0.0
H704 H 0.96718 0.04332 0.10518 0.0
H705 H 0.09607 0.88028 0.09231 0.0
H706 H 0.08349 0.9396 0.0844 0.0
H707 H 0.9758 0.9162 0.1053 0.0
H708 H 0.99011 0.85838 0.11361 0.0
H709 H 0.02935 1.00544 0.10323 0.0
H710 H 0.95025 0.88082 0.08094 0.0
H711 H 0.93526 0.81563 0.06987 0.0
H712 H 0.05028 0.91253 0.0518 0.0
H713 H 0.0667 0.97818 0.06288 0.0
C714 C 0.00905 0.15282 0.07288 0.0
C715 C 0.05274 0.18319 0.06843 0.0
C716 C 1.00078 0.11023 0.0771 0.0
C717 C 0.03569 0.09701 0.0767 0.0
C718 C 0.07879 0.12677 0.07205 0.0
C719 C 0.08744 0.16969 0.06805 0.0
C720 C 0.02839 0.05286 0.08133 0.0
C721 C 0.02259 0.01538 0.07544 0.0
C722 C 0.02914 0.04842 0.09147 0.0
C723 C 0.03456 0.08668 0.09803 0.0
C724 C 0.07542 0.1318 0.09768 0.0
C725 C 0.08 0.16779 0.10384 0.0
C726 C 0.04409 0.15893 0.11045 0.0
C727 C 1.00361 0.114 0.11092 0.0
C728 C 0.99885 0.07792 0.10476 0.0
C729 C 0.06971 0.88762 0.09527 0.0
C730 C 0.04438 0.86449 0.10367 0.0
C731 C 0.06201 0.92124 0.09063 0.0
C732 C 0.02818 0.93217 0.09414 0.0
C733 C 1.00199 0.90838 0.1024 0.0
C734 C 0.00995 0.87491 0.10711 0.0
C735 C 0.02291 0.97079 0.08957 0.0
C736 C 0.02636 0.00751 0.09547 0.0
C737 C 0.01905 0.97402 0.07942 0.0
C738 C 0.01 0.93443 0.07282 0.0
C739 C 0.97274 0.88819 0.07467 0.0
C740 C 0.96393 0.85114 0.06838 0.0
C741 C 0.99188 0.85991 0.06015 0.0
C742 C 0.02872 0.90576 0.0582 0.0
C743 C 0.0378 0.94292 0.06448 0.0
H744 H 0.98493 0.83119 0.05528 0.0
H745 H 0.0477 0.18683 0.11522 0.0
H746 H 0.88096 0.11269 0.24807 0.0
H747 H 0.94231 0.10567 0.2569 0.0
H748 H 0.92163 0.99124 0.23815 0.0
H749 H 0.8595 0.99749 0.22946 0.0
H750 H 0.94148 0.97473 0.25571 0.0
H751 H 0.01032 0.10656 0.23397 0.0
H752 H 0.02311 0.18117 0.22672 0.0
H753 H 0.07157 0.25161 0.25405 0.0
H754 H 0.05842 0.1772 0.26149 0.0
H755 H 0.21879 0.09259 0.26031 0.0
H756 H 0.14739 0.08584 0.253 0.0
H757 H 0.0679 0.01644 0.27869 0.0
H758 H 0.13935 0.02227 0.28594 0.0
H759 H 0.09735 0.12304 0.25743 0.0
H760 H 0.95074 0.94464 0.27322 0.0
H761 H 0.94058 0.86782 0.2785 0.0
H762 H 0.0533 0.88656 0.25967 0.0
H763 H 0.06372 0.96316 0.25418 0.0
C764 C 0.88902 0.08557 0.24594 0.0
C765 C 0.86562 0.05594 0.23802 0.0
C766 C 0.9242 0.08165 0.25097 0.0
C767 C 0.9375 0.04863 0.24807 0.0
C768 C 0.91221 0.01709 0.24053 0.0
C769 C 0.87654 0.02062 0.23557 0.0
C770 C 0.97982 0.0493 0.25242 0.0
C771 C 0.97551 0.00719 0.25612 0.0
C772 C 0.02469 0.09133 0.25276 0.0
C773 C 0.03294 0.13621 0.2483 0.0
C774 C 0.02341 0.13789 0.23844 0.0
C775 C 0.03075 0.18014 0.2343 0.0
C776 C 0.04803 0.22107 0.23993 0.0
C777 C 0.05812 0.21986 0.2497 0.0
C778 C 0.05075 0.17766 0.25389 0.0
C779 C 0.18609 0.07581 0.2644 0.0
C780 C 0.1848 0.05804 0.27372 0.0
C781 C 0.14519 0.07192 0.26021 0.0
C782 C 0.10193 0.05042 0.26524 0.0
C783 C 0.10047 0.0324 0.27455 0.0
C784 C 0.14137 0.03578 0.27871 0.0
C785 C 0.05911 0.04853 0.26083 0.0
C786 C 0.06331 0.09054 0.25709 0.0
C787 C 0.01462 0.00611 0.2602 0.0
C788 C 1.00832 0.95987 0.26338 0.0
C789 C 0.97324 0.93228 0.27018 0.0
C790 C 0.96746 0.88879 0.27322 0.0
C791 C 0.99639 0.8724 0.26945 0.0
C792 C 0.03104 0.89938 0.26261 0.0
C793 C 0.03694 0.94287 0.25955 0.0
H794 H 0.99187 0.83875 0.27181 0.0
H795 H 0.05369 0.25376 0.23671 0.0
H796 H 0.08086 0.20228 0.44043 0.0
H797 H 0.02312 0.13157 0.43183 0.0
H798 H 0.13532 0.1098 0.42137 0.0
H799 H 0.19404 0.18139 0.43007 0.0
H800 H 0.06197 0.09721 0.407 0.0
H801 H 0.07707 0.04238 0.43798 0.0
H802 H 0.08262 0.04441 0.45574 0.0
H803 H 0.94224 0.02449 0.45778 0.0
H804 H 0.93615 0.02318 0.44001 0.0
H805 H 0.87972 0.87081 0.38998 0.0
H806 H 0.95213 0.93207 0.39769 0.0
H807 H 0.86846 0.9657 0.41673 0.0
H808 H 0.79612 0.90318 0.40944 0.0
H809 H 0.93731 0.96678 0.42657 0.0
H810 H 0.92692 0.03256 0.39579 0.0
H811 H 0.92207 0.03409 0.37803 0.0
H812 H 0.05386 0.03483 0.37562 0.0
H813 H 0.0592 0.03275 0.39339 0.0
C814 C 0.0936 0.18314 0.43618 0.0
C815 C 0.14223 0.19778 0.43589 0.0
C816 C 0.0604 0.1424 0.43132 0.0
C817 C 0.07487 0.1153 0.42601 0.0
C818 C 0.12345 0.13027 0.42544 0.0
C819 C 0.15687 0.17096 0.43043 0.0
C820 C 0.03839 0.07069 0.42136 0.0
C821 C 0.03525 0.06813 0.41125 0.0
C822 C 1.00323 0.03316 0.42693 0.0
C823 C 1.00629 0.03302 0.43764 0.0
C824 C 0.0475 0.03877 0.44221 0.0
C825 C 0.05074 0.03976 0.45228 0.0
C826 C 0.01286 0.03469 0.45789 0.0
C827 C 0.97158 0.02845 0.45343 0.0
C828 C 0.96819 0.02752 0.44335 0.0
C829 C 0.87653 0.89071 0.39589 0.0
C830 C 0.83164 0.88193 0.399 0.0
C831 C 0.91818 0.92621 0.40024 0.0
C832 C 0.91599 0.95419 0.40772 0.0
C833 C 0.87129 0.94484 0.41095 0.0
C834 C 0.82974 0.90922 0.40668 0.0
C835 C 0.95984 0.99366 0.41215 0.0
C836 C 0.96439 0.99532 0.42227 0.0
C837 C 0.99622 0.03036 0.40657 0.0
C838 C 0.99317 0.03193 0.39591 0.0
C839 C 0.95469 0.03272 0.39147 0.0
C840 C 0.95189 0.03374 0.3814 0.0
C841 C 0.98756 0.0344 0.3757 0.0
C842 C 0.02621 0.03422 0.38005 0.0
C843 C 0.02916 0.03315 0.39012 0.0
H844 H 0.98532 0.03517 0.36791 0.0
H845 H 0.01547 0.03552 0.46569 0.0
H846 H 0.95374 0.16052 0.58992 0.0
H847 H 0.95836 0.09552 0.58221 0.0
H848 H 0.96861 0.04329 0.61025 0.0
H849 H 0.96606 0.10965 0.61792 0.0
H850 H 0.02347 0.03207 0.59892 0.0
H851 H 0.86186 0.99314 0.59623 0.0
H852 H 0.79501 1.00521 0.59208 0.0
H853 H 0.83419 0.02009 0.56215 0.0
H854 H 0.90169 0.00872 0.56614 0.0
H855 H 0.94425 0.79356 0.58303 0.0
H856 H 0.95035 0.86411 0.59072 0.0
H857 H 0.97644 0.9326 0.56296 0.0
H858 H 0.97065 0.86217 0.55524 0.0
H859 H 0.90393 0.935 0.57409 0.0
H860 H 0.06488 0.96781 0.5778 0.0
H861 H 0.12737 0.95092 0.58297 0.0
H862 H 0.08248 0.94055 0.61245 0.0
H863 H 0.01915 0.95656 0.60744 0.0
C864 C 0.95701 0.13515 0.59442 0.0
C865 C 0.95917 0.13991 0.60452 0.0
C866 C 0.95944 0.09783 0.59002 0.0
C867 C 0.96264 0.06356 0.59564 0.0
C868 C 0.96597 0.069 0.60573 0.0
C869 C 0.96452 0.10693 0.61012 0.0
C870 C 0.96201 0.02191 0.59099 0.0
C871 C 0.9969 0.01056 0.59358 0.0
C872 C 0.92773 0.99382 0.58394 0.0
C873 C 0.88711 1.00056 0.5815 0.0
C874 C 0.85642 0.99932 0.58877 0.0
C875 C 0.81838 0.00599 0.58645 0.0
C876 C 0.81043 0.01354 0.57686 0.0
C877 C 0.84044 0.01431 0.56957 0.0
C878 C 0.87857 0.00772 0.57186 0.0
C879 C 0.9514 0.8237 0.57857 0.0
C880 C 0.95691 0.82232 0.56853 0.0
C881 C 0.95517 0.86407 0.58298 0.0
C882 C 0.96401 0.90366 0.57741 0.0
C883 C 0.96973 0.90248 0.56739 0.0
C884 C 0.96668 0.86238 0.563 0.0
C885 C 0.96538 0.94553 0.582 0.0
C886 C 0.93049 0.95672 0.57941 0.0
C887 C 0.99891 0.97266 0.58922 0.0
C888 C 0.03689 0.96283 0.59223 0.0
C889 C 0.06798 0.96141 0.58537 0.0
C890 C 0.10363 0.95209 0.58828 0.0
C891 C 0.1088 0.9445 0.59803 0.0
C892 C 0.07838 0.94632 0.6049 0.0
C893 C 0.04261 0.95553 0.60203 0.0
H894 H 0.13645 0.93735 0.60026 0.0
H895 H 0.78096 0.01869 0.57508 0.0
H896 H 0.16414 0.02579 0.73182 0.0
H897 H 0.09823 0.029 0.73965 0.0
H898 H 0.03685 0.88241 0.74794 0.0
H899 H 0.102 0.87886 0.74008 0.0
H900 H 0.97052 0.90183 0.74038 0.0
H901 H 0.09611 0.96884 0.7642 0.0
H902 H 0.1764 0.02549 0.77015 0.0
H903 H 0.15237 0.14119 0.76439 0.0
H904 H 0.07211 0.08521 0.75829 0.0
H905 H 0.80519 0.87 0.77642 0.0
H906 H 0.87251 0.8766 0.76741 0.0
H907 H 0.92541 0.02583 0.76315 0.0
H908 H 0.85795 0.01946 0.7722 0.0
H909 H 0.99662 0.01128 0.76759 0.0
H910 H 0.87027 0.946 0.74474 0.0
H911 H 0.79013 0.89093 0.7385 0.0
H912 H 0.81548 0.77452 0.74176 0.0
H913 H 0.89557 0.82881 0.74815 0.0
C914 C 0.13648 0.99422 0.73527 0.0
C915 C 0.13856 0.95214 0.73537 0.0
C916 C 0.09898 0.99617 0.73979 0.0
C917 C 0.0627 0.95601 0.74445 0.0
C918 C 0.06442 0.91388 0.74442 0.0
C919 C 0.10197 0.91202 0.73999 0.0
C920 C 0.02277 0.95738 0.74937 0.0
C921 C 0.9762 0.92548 0.74639 0.0
C922 C 0.03017 0.98927 0.757 0.0
C923 C 0.07834 0.0229 0.76069 0.0
C924 C 0.1081 0.00639 0.76413 0.0
C925 C 0.15357 0.03837 0.76754 0.0
C926 C 0.16953 0.08692 0.76762 0.0
C927 C 0.14 0.10358 0.76431 0.0
C928 C 0.09451 0.07175 0.76088 0.0
C929 C 0.83081 0.90418 0.7735 0.0
C930 C 0.82575 0.9441 0.77499 0.0
C931 C 0.86944 0.90793 0.76835 0.0
C932 C 0.90378 0.95158 0.76444 0.0
C933 C 0.89939 0.99173 0.76606 0.0
C934 C 0.86079 0.98805 0.77127 0.0
C935 C 0.94419 0.95503 0.75872 0.0
C936 C 0.99085 0.98787 0.76153 0.0
C937 C 0.93691 0.92425 0.75087 0.0
C938 C 0.8888 0.89145 0.747 0.0
C939 C 0.85863 0.9086 0.7442 0.0
C940 C 0.81323 0.87753 0.74062 0.0
C941 C 0.79769 0.82924 0.73976 0.0
C942 C 0.82756 0.81194 0.74244 0.0
C943 C 0.87298 0.84285 0.74603 0.0
H944 H 0.76253 0.80524 0.73699 0.0
H945 H 0.20474 0.11162 0.77027 0.0
H946 H 0.89737 0.87325 0.95036 0.0
H947 H 0.96089 0.94287 0.94228 0.0
H948 H 0.91697 0.87008 0.91489 0.0
H949 H 0.85486 0.79979 0.92308 0.0
H950 H 1.00574 0.90962 0.9156 0.0
H951 H 0.89968 0.96693 0.92197 0.0
H952 H 0.84753 0.98569 0.93157 0.0
H953 H 0.96563 0.07987 0.94937 0.0
H954 H 0.01844 0.06121 0.93994 0.0
H955 H 0.15223 0.11752 0.88763 0.0
H956 H 0.08032 0.05314 0.89509 0.0
H957 H 0.1434 0.09885 0.92328 0.0
H958 H 0.21548 0.16278 0.91585 0.0
H959 H 0.04347 0.07492 0.92152 0.0
H960 H 0.14739 0.01195 0.91468 0.0
H961 H 0.19706 0.99413 0.90403 0.0
H962 H 0.0769 0.91067 0.88573 0.0
H963 H 0.02666 0.92862 0.8962 0.0
C964 C 0.90093 0.87249 0.9426 0.0
C965 C 0.87119 0.83117 0.93734 0.0
C966 C 0.93719 0.91238 0.93796 0.0
C967 C 0.94367 0.91229 0.92791 0.0
C968 C 0.91306 0.87125 0.92264 0.0
C969 C 0.87747 0.83107 0.92731 0.0
C970 C 0.98382 0.95376 0.92297 0.0
C971 C 0.01323 0.9456 0.91679 0.0
C972 C 0.99457 1.00111 0.92458 0.0
C973 C 0.96294 0.01235 0.93029 0.0
C974 C 0.91448 0.99137 0.92797 0.0
C975 C 0.88481 1.00204 0.93338 0.0
C976 C 0.90326 0.03391 0.94108 0.0
C977 C 0.95142 0.0552 0.94339 0.0
C978 C 0.98124 0.04462 0.93802 0.0
C979 C 0.15047 0.11407 0.89542 0.0
C980 C 0.18953 0.14496 0.90115 0.0
C981 C 0.10952 0.07727 0.89966 0.0
C982 C 0.10662 0.07118 0.90973 0.0
C983 C 0.14491 0.10296 0.9155 0.0
C984 C 0.18616 0.13921 0.91125 0.0
C985 C 0.06467 0.03031 0.91423 0.0
C986 C 0.03529 0.03873 0.92032 0.0
C987 C 0.05332 0.98314 0.91241 0.0
C988 C 0.08342 0.97206 0.90616 0.0
C989 C 0.13167 0.99015 0.90833 0.0
C990 C 0.1599 0.97996 0.90234 0.0
C991 C 0.14018 0.9514 0.89419 0.0
C992 C 0.09215 0.93286 0.89204 0.0
C993 C 0.06377 0.943 0.898 0.0
H994 H 0.1621 0.94354 0.88956 0.0
H995 H 0.88024 0.04219 0.94524 0.0
H996 H 0.59943 0.61109 1.00042 0.0
H997 H 0.51863 0.55388 0.00561 0.0
H998 H 0.46625 0.55736 0.97717 0.0
H999 H 0.54768 0.61298 0.97185 0.0
H1000 H 0.41223 0.56394 0.99079 0.0
H1001 H 0.47269 0.4602 0.98465 0.0
H1002 H 0.52961 0.43151 0.98563 0.0
H1003 H 0.51066 0.41634 0.01637 0.0
H1004 H 0.45409 0.44565 0.01558 0.0
H1005 H 0.18139 0.38167 0.00497 0.0
H1006 H 0.25612 0.42216 0.99595 0.0
H1007 H 0.33385 0.43477 0.0221 0.0
H1008 H 0.25955 0.39315 0.03104 0.0
H1009 H 0.37129 0.41301 0.00724 0.0
H1010 H 0.31991 0.52638 0.0136 0.0
H1011 H 0.26427 0.55682 0.01287 0.0
H1012 H 0.26733 0.55465 0.98188 0.0
H1013 H 0.32255 0.52358 0.98243 0.0
C1014 C 0.57065 0.59877 0.99525 0.0
C1015 C 0.57954 0.61567 0.98573 0.0
C1016 C 0.52461 0.56607 0.99819 0.0
C1017 C 0.48649 0.55022 0.99168 0.0
C1018 C 0.49529 0.5679 0.9822 0.0
C1019 C 0.54162 0.59961 0.97918 0.0
C1020 C 0.43738 0.51671 0.99496 0.0
C1021 C 0.40299 0.53046 0.9942 0.0
C1022 C 0.42549 0.47334 0.99955 0.0
C1023 C 0.45935 0.45546 1.00005 0.0
C1024 C 0.48089 0.45109 0.99162 0.0
C1025 C 0.51307 0.43466 0.99214 0.0
C1026 C 0.52381 0.42218 1.00106 0.0
C1027 C 0.50231 0.42603 0.00947 0.0
C1028 C 0.47014 0.4425 0.00898 0.0
C1029 C 0.21436 0.39233 0.00875 0.0
C1030 C 0.21456 0.38461 0.01875 0.0
C1031 C 0.25706 0.41584 0.00361 0.0
C1032 C 0.30067 0.43215 0.00838 0.0
C1033 C 0.30072 0.42271 0.01827 0.0
C1034 C 0.2582 0.39927 0.02339 0.0
C1035 C 0.34656 0.46081 1.00327 0.0
C1036 C 0.38034 0.44612 0.00368 0.0
C1037 C 0.35796 0.50339 0.99839 0.0
C1038 C 0.32485 0.52211 0.99806 0.0
C1039 C 0.3084 0.53203 0.00663 0.0
C1040 C 0.277 0.54946 0.00625 0.0
C1041 C 0.26214 0.55751 0.99733 0.0
C1042 C 0.27877 0.54828 0.98878 0.0
C1043 C 0.31013 0.53078 0.98912 0.0
H1044 H 0.23785 0.57102 0.99705 0.0
H1045 H 0.54874 0.40946 1.00145 0.0
H1046 H 0.0171 0.56417 0.14022 0.0
H1047 H 1.00875 0.49029 0.14675 0.0
H1048 H 0.93001 0.49906 0.17092 0.0
H1049 H 0.93982 0.57312 0.16466 0.0
H1050 H 0.98779 0.46978 0.17684 0.0
H1051 H 0.87633 0.43116 0.14983 0.0
H1052 H 0.85744 0.43425 0.13267 0.0
H1053 H 0.94227 0.37308 0.12448 0.0
H1054 H 0.96202 0.37008 0.14159 0.0
H1055 H 0.81986 0.24911 0.19415 0.0
H1056 H 0.862 0.32543 0.18599 0.0
H1057 H 0.93077 0.27199 0.16743 0.0
H1058 H 0.88762 0.19454 0.17549 0.0
H1059 H 0.89772 0.3234 0.15736 0.0
H1060 H 0.9947 0.3467 0.18475 0.0
H1061 H 0.01282 0.34299 0.20192 0.0
H1062 H 0.95682 0.43317 0.20939 0.0
H1063 H 0.93767 0.43685 0.19229 0.0
C1064 C 0.99889 0.55074 0.14702 0.0
C1065 C 0.97857 0.57416 0.15187 0.0
C1066 C 0.99374 0.50831 0.1507 0.0
C1067 C 0.96804 0.48864 0.15925 0.0
C1068 C 0.94981 0.5133 0.16429 0.0
C1069 C 0.95505 0.5555 0.16066 0.0
C1070 C 0.95764 0.44147 0.16289 0.0
C1071 C 0.96814 0.43778 0.17258 0.0
C1072 C 0.9336 0.39976 0.15722 0.0
C1073 C 0.92109 0.40093 0.14697 0.0
C1074 C 0.89113 0.4186 0.14436 0.0
C1075 C 0.88025 0.42029 0.13464 0.0
C1076 C 0.89876 0.404 0.12748 0.0
C1077 C 0.92801 0.38575 0.13003 0.0
C1078 C 0.93905 0.38403 0.13973 0.0
C1079 C 0.8436 0.25331 0.18828 0.0
C1080 C 0.85023 0.21564 0.18545 0.0
C1081 C 0.86806 0.29717 0.18368 0.0
C1082 C 0.89999 0.30462 0.17618 0.0
C1083 C 0.90648 0.26706 0.17324 0.0
C1084 C 0.88205 0.22299 0.17789 0.0
C1085 C 0.92578 0.35179 0.17144 0.0
C1086 C 0.91837 0.35543 0.16156 0.0
C1087 C 0.95273 0.39357 0.17692 0.0
C1088 C 0.96457 0.39187 0.18723 0.0
C1089 C 0.98598 0.36551 0.19006 0.0
C1090 C 0.99647 0.36344 0.19978 0.0
C1091 C 0.98594 0.38779 0.20674 0.0
C1092 C 0.96498 0.41434 0.20399 0.0
C1093 C 0.95437 0.4165 0.19428 0.0
H1094 H 0.99407 0.38613 0.21426 0.0
H1095 H 0.89038 0.40544 0.11997 0.0
H1096 H 0.37165 0.93598 0.33097 0.0
H1097 H 0.43522 0.92591 0.33776 0.0
H1098 H 0.52335 0.99779 0.31316 0.0
H1099 H 0.45904 0.00776 0.30629 0.0
H1100 H 0.51882 0.91193 0.31735 0.0
H1101 H 0.55402 0.05226 0.33434 0.0
H1102 H 0.53698 0.10567 0.34392 0.0
H1103 H 0.48543 1.00518 0.36719 0.0
H1104 H 0.50147 0.95081 0.3577 0.0
H1105 H 0.68908 0.86986 0.34188 0.0
H1106 H 0.65513 0.91278 0.33365 0.0
H1107 H 0.54475 0.86392 0.35514 0.0
H1108 H 0.57908 0.82241 0.3635 0.0
H1109 H 0.57726 0.9551 0.35101 0.0
H1110 H 0.52666 0.80992 0.33295 0.0
H1111 H 0.53934 0.75343 0.32339 0.0
H1112 H 0.61687 0.86126 0.30223 0.0
H1113 H 0.60514 0.91858 0.31174 0.0
C1114 C 0.40474 0.95002 0.32706 0.0
C1115 C 0.41044 0.97253 0.31811 0.0
C1116 C 0.44117 0.94456 0.33096 0.0
C1117 C 0.4842 0.96143 0.32601 0.0
C1118 C 0.49049 0.98475 0.31713 0.0
C1119 C 0.45398 0.9907 0.31324 0.0
C1120 C 0.52079 0.95155 0.32995 0.0
C1121 C 0.53271 0.92244 0.32462 0.0
C1122 C 0.5382 0.96458 0.33949 0.0
C1123 C 0.5288 0.99734 0.34528 0.0
C1124 C 0.53878 0.04139 0.34148 0.0
C1125 C 0.52932 0.07187 0.34689 0.0
C1126 C 0.51009 0.05881 0.35615 0.0
C1127 C 0.50035 0.01527 0.36002 0.0
C1128 C 0.5097 0.98463 0.35463 0.0
C1129 C 0.65788 0.86874 0.34489 0.0
C1130 C 0.63644 0.84222 0.35328 0.0
C1131 C 0.63835 0.89303 0.34015 0.0
C1132 C 0.59709 0.89119 0.34372 0.0
C1133 C 0.57653 0.86583 0.35223 0.0
C1134 C 0.59592 0.84163 0.35695 0.0
C1135 C 0.57392 0.91416 0.33853 0.0
C1136 C 0.56447 0.94567 0.34365 0.0
C1137 C 0.55853 0.90308 0.32882 0.0
C1138 C 0.56559 0.86867 0.32311 0.0
C1139 C 0.54677 0.82168 0.3263 0.0
C1140 C 0.55371 0.7895 0.32088 0.0
C1141 C 0.57905 0.8038 0.31223 0.0
C1142 C 0.59737 0.85028 0.30895 0.0
C1143 C 0.59058 0.88262 0.31435 0.0
H1144 H 0.58437 0.77882 0.30804 0.0
H1145 H 0.50278 0.08245 0.36034 0.0
H1146 H 0.83926 0.60801 0.50494 0.0
H1147 H 0.76466 0.56296 0.49595 0.0
H1148 H 0.68763 0.5752 0.52 0.0
H1149 H 0.76162 0.62132 0.52887 0.0
H1150 H 0.65414 0.48125 0.51363 0.0
H1151 H 0.70003 0.63622 0.50053 0.0
H1152 H 0.75284 0.71032 0.49186 0.0
H1153 H 0.74481 0.63083 0.46651 0.0
H1154 H 0.69256 0.55615 0.47509 0.0
H1155 H 0.42113 0.39438 0.49915 0.0
H1156 H 0.5026 0.44659 0.50442 0.0
H1157 H 0.55353 0.4361 0.47631 0.0
H1158 H 0.47126 0.38413 0.47092 0.0
H1159 H 0.6051 0.52476 0.48315 0.0
H1160 H 0.55815 0.37121 0.49519 0.0
H1161 H 0.50668 0.29505 0.50333 0.0
H1162 H 0.51989 0.36814 0.52996 0.0
H1163 H 0.5709 0.44483 0.52195 0.0
C1164 C 0.80659 0.60204 0.50824 0.0
C1165 C 0.8065 0.61783 0.5177 0.0
C1166 C 0.76397 0.5761 0.50309 0.0
C1167 C 0.7206 0.56548 0.50734 0.0
C1168 C 0.72065 0.58264 0.51662 0.0
C1169 C 0.76304 0.6088 0.52171 0.0
C1170 C 0.67462 0.53393 0.50249 0.0
C1171 C 0.64326 0.49095 0.50701 0.0
C1172 C 0.66131 0.54567 0.49363 0.0
C1173 C 0.69292 0.59056 0.4885 0.0
C1174 C 0.70998 0.63449 0.49315 0.0
C1175 C 0.73972 0.67662 0.48824 0.0
C1176 C 0.75233 0.67528 0.47865 0.0
C1177 C 0.73513 0.63181 0.47394 0.0
C1178 C 0.70545 0.58958 0.47883 0.0
C1179 C 0.44963 0.40307 0.49409 0.0
C1180 C 0.43983 0.38451 0.48467 0.0
C1181 C 0.49625 0.43298 0.49711 0.0
C1182 C 0.53438 0.4444 0.49084 0.0
C1183 C 0.52474 0.42754 0.48129 0.0
C1184 C 0.47779 0.39789 0.47822 0.0
C1185 C 0.58398 0.47274 0.49448 0.0
C1186 C 0.61611 0.51484 0.48972 0.0
C1187 C 0.59852 0.4599 0.50306 0.0
C1188 C 0.5681 0.41382 0.50795 0.0
C1189 C 0.54984 0.37108 0.50277 0.0
C1190 C 0.52077 0.3278 0.50736 0.0
C1191 C 0.50995 0.32676 0.51715 0.0
C1192 C 0.52828 0.369 0.52237 0.0
C1193 C 0.55732 0.41239 0.51781 0.0
H1194 H 0.48743 0.29322 0.52069 0.0
H1195 H 0.77532 0.70794 0.47486 0.0
H1196 H 1.00452 0.44606 0.64229 0.0
H1197 H 0.01996 0.52299 0.64859 0.0
H1198 H 0.10543 0.51404 0.67138 0.0
H1199 H 0.08942 0.43745 0.66533 0.0
H1200 H 0.05221 0.54761 0.67815 0.0
H1201 H 0.15483 0.57773 0.65068 0.0
H1202 H 0.1769 0.57675 0.63369 0.0
H1203 H 0.0983 0.64411 0.62505 0.0
H1204 H 0.07518 0.64487 0.64199 0.0
H1205 H 0.22691 0.77375 0.69221 0.0
H1206 H 0.18565 0.69695 0.68422 0.0
H1207 H 0.09826 0.73968 0.66876 0.0
H1208 H 0.1385 0.81676 0.67703 0.0
H1209 H 0.13683 0.69 0.65737 0.0
H1210 H 0.04671 0.67063 0.68598 0.0
H1211 H 0.03574 0.67834 0.70336 0.0
H1212 H 0.09839 0.59313 0.71012 0.0
H1213 H 0.11044 0.58553 0.69277 0.0
C1214 C 0.02605 0.46024 0.64871 0.0
C1215 C 0.04664 0.43605 0.65316 0.0
C1216 C 0.03512 0.50433 0.65225 0.0
C1217 C 0.06462 0.52472 0.66034 0.0
C1218 C 0.08291 0.49931 0.66508 0.0
C1219 C 0.07402 0.45558 0.66155 0.0
C1220 C 0.07802 0.57298 0.66381 0.0
C1221 C 0.07061 0.57867 0.67359 0.0
C1222 C 0.10104 0.61359 0.65782 0.0
C1223 C 0.11277 0.6108 0.64758 0.0
C1224 C 0.1417 0.59174 0.64514 0.0
C1225 C 0.15464 0.59147 0.63553 0.0
C1226 C 0.13923 0.6106 0.62831 0.0
C1227 C 0.11043 0.62956 0.63067 0.0
C1228 C 0.09729 0.6298 0.64026 0.0
C1229 C 0.19866 0.76691 0.68718 0.0
C1230 C 0.18545 0.80125 0.68542 0.0
C1231 C 0.17531 0.72301 0.68257 0.0
C1232 C 0.13847 0.71243 0.67602 0.0
C1233 C 0.12651 0.74719 0.67384 0.0
C1234 C 0.14967 0.79123 0.67854 0.0
C1235 C 0.11217 0.66435 0.67173 0.0
C1236 C 0.11719 0.65875 0.66184 0.0
C1237 C 0.08743 0.62377 0.67762 0.0
C1238 C 0.0797 0.62773 0.68807 0.0
C1239 C 0.05844 0.65379 0.69117 0.0
C1240 C 0.05199 0.65811 0.70102 0.0
C1241 C 0.06641 0.63629 0.70784 0.0
C1242 C 0.08722 0.61001 0.70482 0.0
C1243 C 0.09381 0.60563 0.69498 0.0
H1244 H 0.0614 0.63969 0.71546 0.0
H1245 H 0.1494 0.6105 0.62087 0.0
H1246 H 0.33653 0.1633 0.84104 0.0
H1247 H 0.37265 0.12624 0.83151 0.0
H1248 H 0.49814 0.19483 0.8493 0.0
H1249 H 0.46319 0.23289 0.85864 0.0
H1250 H 0.45608 0.16498 0.82086 0.0
H1251 H 0.53641 0.11664 0.85343 0.0
H1252 H 0.51762 0.09381 0.87053 0.0
H1253 H 0.36961 0.03933 0.86477 0.0
H1254 H 0.3874 0.06115 0.84761 0.0
H1255 H 0.65376 0.14641 0.80815 0.0
H1256 H 0.59334 0.16159 0.81447 0.0
H1257 H 0.51035 0.01564 0.82346 0.0
H1258 H 0.57265 1.00074 0.8175 0.0
H1259 H 0.51387 0.06839 0.83739 0.0
H1260 H 0.46174 0.06522 0.80412 0.0
H1261 H 0.4712 0.08473 0.78671 0.0
H1262 H 0.55272 0.23293 0.79345 0.0
H1263 H 0.54233 0.21439 0.81087 0.0
C1264 C 0.37205 0.17097 0.84285 0.0
C1265 C 0.39667 0.20069 0.8507 0.0
C1266 C 0.3925 0.14955 0.83742 0.0
C1267 C 0.4377 0.15713 0.83981 0.0
C1268 C 0.46279 0.18768 0.84746 0.0
C1269 C 0.44261 0.20929 0.85283 0.0
C1270 C 0.45931 0.13364 0.83432 0.0
C1271 C 0.46832 0.14345 0.82445 0.0
C1272 C 0.47443 0.10477 0.83894 0.0
C1273 C 0.46334 0.09088 0.84924 0.0
C1274 C 0.49983 0.09956 0.8558 0.0
C1275 C 0.48936 0.08684 0.86551 0.0
C1276 C 0.44247 0.06525 0.86874 0.0
C1277 C 0.40594 0.0562 0.86226 0.0
C1278 C 0.41621 0.0688 0.85255 0.0
C1279 C 0.62277 0.11738 0.81147 0.0
C1280 C 0.6184 0.07238 0.8124 0.0
C1281 C 0.58753 0.12593 0.81491 0.0
C1282 C 0.54652 0.08962 0.81928 0.0
C1283 C 0.54146 0.04425 0.82005 0.0
C1284 C 0.57697 0.03566 0.81661 0.0
C1285 C 0.51203 0.10078 0.82394 0.0
C1286 C 0.5008 0.08897 0.83372 0.0
C1287 C 0.49422 0.12722 0.81919 0.0
C1288 C 0.50175 0.13839 0.80876 0.0
C1289 C 0.48189 0.10192 0.80187 0.0
C1290 C 0.48716 0.11281 0.79201 0.0
C1291 C 0.51299 0.15995 0.78898 0.0
C1292 C 0.53292 0.1964 0.7958 0.0
C1293 C 0.52699 0.18577 0.80566 0.0
H1294 H 0.51732 0.16822 0.78135 0.0
H1295 H 0.43445 0.05546 0.87626 0.0
H1296 H 0.68169 0.79226 0.81724 0.0
H1297 H 0.64465 0.7168 0.82594 0.0
H1298 H 0.55585 0.75783 0.84133 0.0
H1299 H 0.59355 0.83381 0.83284 0.0
H1300 H 0.58772 0.71436 0.85326 0.0
H1301 H 0.51441 0.68486 0.82179 0.0
H1302 H 0.51285 0.68448 0.80399 0.0
H1303 H 0.57567 0.59598 0.80349 0.0
H1304 H 0.5782 0.5964 0.82131 0.0
H1305 H 0.37548 0.49726 0.86298 0.0
H1306 H 0.4381 0.57469 0.8575 0.0
H1307 H 0.52363 0.51357 0.84935 0.0
H1308 H 0.46044 0.4353 0.85497 0.0
H1309 H 0.50431 0.56537 0.83433 0.0
H1310 H 0.60296 0.62483 0.86562 0.0
H1311 H 0.60844 0.63168 0.88341 0.0
H1312 H 0.493 0.6598 0.88386 0.0
H1313 H 0.48809 0.65473 0.86604 0.0
C1314 C 0.65487 0.78561 0.8226 0.0
C1315 C 0.64047 0.81908 0.82432 0.0
C1316 C 0.63341 0.74222 0.8275 0.0
C1317 C 0.59704 0.73135 0.83421 0.0
C1318 C 0.58374 0.76533 0.83617 0.0
C1319 C 0.60507 0.80863 0.83126 0.0
C1320 C 0.57156 0.68409 0.83896 0.0
C1321 C 0.56946 0.68188 0.84909 0.0
C1322 C 0.54848 0.64138 0.83358 0.0
C1323 C 0.54707 0.64117 0.82288 0.0
C1324 C 0.5283 0.66568 0.81789 0.0
C1325 C 0.52716 0.66539 0.80779 0.0
C1326 C 0.54431 0.64036 0.80261 0.0
C1327 C 0.56251 0.61546 0.80751 0.0
C1328 C 0.56379 0.61569 0.81761 0.0
C1329 C 0.40789 0.50042 0.86014 0.0
C1330 C 0.41304 0.46028 0.85933 0.0
C1331 C 0.44394 0.54483 0.85713 0.0
C1332 C 0.48589 0.55014 0.85316 0.0
C1333 C 0.49175 0.51033 0.85252 0.0
C1334 C 0.4558 0.46577 0.85572 0.0
C1335 C 0.52005 0.5959 0.84858 0.0
C1336 C 0.52354 0.59785 0.83847 0.0
C1337 C 0.54407 0.6384 0.85393 0.0
C1338 C 0.54465 0.6386 0.86458 0.0
C1339 C 0.57864 0.63222 0.86954 0.0
C1340 C 0.58201 0.63634 0.8796 0.0
C1341 C 0.55102 0.64607 0.88476 0.0
C1342 C 0.5169 0.65216 0.87986 0.0
C1343 C 0.51398 0.64892 0.86978 0.0
H1344 H 0.55336 0.64873 0.89256 0.0
H1345 H 0.54336 0.64015 0.79479 0.0
H1346 H 0.97457 0.42961 0.0359 0.0
H1347 H 0.95607 0.48986 0.03012 0.0
H1348 H 0.96309 0.45068 1.00068 0.0
H1349 H 0.98116 0.39045 0.00643 0.0
H1350 H 1.00701 0.55105 0.00392 0.0
H1351 H 0.85966 0.40383 0.01067 0.0
H1352 H 0.80527 0.33862 0.02137 0.0
H1353 H 0.80117 0.43883 0.04087 0.0
H1354 H 0.8561 0.50471 0.03034 0.0
H1355 H 0.87593 0.61931 0.97471 0.0
H1356 H 0.91099 0.5799 0.98349 0.0
H1357 H 0.85942 0.60424 0.01033 0.0
H1358 H 0.82072 0.64029 1.00149 0.0
H1359 H 0.84437 0.52028 0.01063 0.0
H1360 H 0.98164 0.6671 0.0034 0.0
H1361 H 0.03789 0.7348 0.99346 0.0
H1362 H 0.06531 0.64202 0.97613 0.0
H1363 H 1.00872 0.57362 0.98589 0.0
C1364 C 0.97299 0.43458 0.02821 0.0
C1365 C 0.97895 0.40527 0.0216 0.0
C1366 C 0.96226 0.46876 0.02492 0.0
C1367 C 0.95797 0.47447 0.01498 0.0
C1368 C 0.96627 0.44683 0.00838 0.0
C1369 C 0.97626 0.41229 0.01166 0.0
C1370 C 0.94152 0.50661 0.01138 0.0
C1371 C 0.97145 0.54443 0.00534 0.0
C1372 C 0.89572 0.49878 0.01352 0.0
C1373 C 0.86237 0.45917 0.01978 0.0
C1374 C 0.84744 0.41196 0.01728 0.0
C1375 C 0.81647 0.37488 0.0233 0.0
C1376 C 0.79989 0.38458 0.03181 0.0
C1377 C 0.81412 0.43138 0.03429 0.0
C1378 C 0.84514 0.46859 0.0283 0.0
C1379 C 0.87149 0.61596 0.98247 0.0
C1380 C 0.84513 0.633 0.98734 0.0
C1381 C 0.89244 0.59409 0.98753 0.0
C1382 C 0.88879 0.5898 0.99763 0.0
C1383 C 0.86308 0.60732 1.00255 0.0
C1384 C 0.84136 0.62849 0.99747 0.0
C1385 C 0.90953 0.56467 1.00294 0.0
C1386 C 0.88034 0.5279 0.0093 0.0
C1387 C 0.95639 0.57409 1.00122 0.0
C1388 C 0.99066 0.61515 0.99535 0.0
C1389 C 0.99942 0.66107 0.99743 0.0
C1390 C 0.03141 0.69958 0.99183 0.0
C1391 C 0.05509 0.6927 0.98416 0.0
C1392 C 0.04692 0.6473 0.98208 0.0
C1393 C 0.01495 0.60864 0.98765 0.0
H1394 H 0.07983 0.72257 0.97983 0.0
H1395 H 0.77592 0.35584 0.03646 0.0
H1396 H 0.57129 0.89856 0.17883 0.0
H1397 H 0.49034 0.87098 0.17333 0.0
H1398 H 0.48372 0.97545 0.19135 0.0
H1399 H 0.56472 1.00212 0.19712 0.0
H1400 H 0.40035 0.89646 0.19145 0.0
H1401 H 0.50544 0.99368 0.16677 0.0
H1402 H 0.57229 0.0225 0.15536 0.0
H1403 H 0.50438 0.88788 0.1409 0.0
H1404 H 0.4374 0.85799 0.15232 0.0
H1405 H 0.2014 0.86982 0.16186 0.0
H1406 H 0.27689 0.90222 0.17068 0.0
H1407 H 0.29813 0.79169 0.15905 0.0
H1408 H 0.22267 0.75839 0.15052 0.0
H1409 H 0.37472 0.88408 0.15599 0.0
H1410 H 0.27036 0.7877 0.1818 0.0
H1411 H 0.20416 0.76277 0.19326 0.0
H1412 H 0.27141 0.90281 0.20537 0.0
H1413 H 0.33769 0.92879 0.19387 0.0
C1414 C 0.55249 0.91552 0.18164 0.0
C1415 C 0.57445 0.95285 0.1883 0.0
C1416 C 0.50626 0.89985 0.17848 0.0
C1417 C 0.48125 0.92197 0.18171 0.0
C1418 C 0.50235 0.95803 0.18869 0.0
C1419 C 0.54856 0.97323 0.19199 0.0
C1420 C 0.43385 0.90811 0.17752 0.0
C1421 C 0.3949 0.89451 0.1837 0.0
C1422 C 0.42652 0.90554 0.16739 0.0
C1423 C 0.46654 0.9235 0.16045 0.0
C1424 C 0.50488 0.97012 0.16119 0.0
C1425 C 0.54279 0.98666 0.15472 0.0
C1426 C 0.54262 0.95702 0.14742 0.0
C1427 C 0.50447 0.9108 0.14656 0.0
C1428 C 0.4665 0.89406 0.15303 0.0
C1429 C 0.22173 0.85193 0.16133 0.0
C1430 C 0.20626 0.81195 0.15533 0.0
C1431 C 0.26491 0.87057 0.16635 0.0
C1432 C 0.29327 0.84954 0.16545 0.0
C1433 C 0.27706 0.80876 0.15976 0.0
C1434 C 0.23397 0.78996 0.15483 0.0
C1435 C 0.34116 0.87107 0.16991 0.0
C1436 C 0.3803 0.88644 0.16375 0.0
C1437 C 0.34859 0.87596 0.18001 0.0
C1438 C 0.30867 0.86035 0.18689 0.0
C1439 C 0.27078 0.81332 0.18683 0.0
C1440 C 0.2333 0.79897 0.19335 0.0
C1441 C 0.23349 0.83123 0.20002 0.0
C1442 C 0.27124 0.87789 0.20019 0.0
C1443 C 0.30878 0.89244 0.19368 0.0
H1444 H 0.20447 0.82004 0.20506 0.0
H1445 H 0.57201 0.96988 0.14242 0.0
H1446 H 0.64817 0.56907 0.34321 0.0
H1447 H 0.58471 0.49746 0.33571 0.0
H1448 H 0.4884 0.48711 0.35819 0.0
H1449 H 0.55247 0.55945 0.36575 0.0
H1450 H 0.4901 0.40275 0.35507 0.0
H1451 H 0.46886 0.51291 0.33639 0.0
H1452 H 0.49329 0.5844 0.32653 0.0
H1453 H 0.54889 0.53111 0.30492 0.0
H1454 H 0.52547 0.45959 0.31472 0.0
H1455 H 0.32249 0.19408 0.32934 0.0
H1456 H 0.35664 0.2713 0.33741 0.0
H1457 H 0.47444 0.32833 0.31756 0.0
H1458 H 0.43993 0.25217 0.30932 0.0
H1459 H 0.44531 0.39044 0.32048 0.0
H1460 H 0.48205 0.29053 0.34039 0.0
H1461 H 0.46251 0.22024 0.35031 0.0
H1462 H 0.38157 0.25546 0.36957 0.0
H1463 H 0.40016 0.32566 0.35968 0.0
C1464 C 0.61332 0.55179 0.34649 0.0
C1465 C 0.60515 0.5696 0.35505 0.0
C1466 C 0.57702 0.51109 0.34218 0.0
C1467 C 0.53174 0.48714 0.34636 0.0
C1468 C 0.52306 0.50526 0.35483 0.0
C1469 C 0.55945 0.54659 0.3591 0.0
C1470 C 0.4951 0.44154 0.34212 0.0
C1471 C 0.47917 0.40006 0.34758 0.0
C1472 C 0.48165 0.43808 0.3323 0.0
C1473 C 0.49555 0.48092 0.32632 0.0
C1474 C 0.48658 0.51655 0.32957 0.0
C1475 C 0.50021 0.55707 0.32398 0.0
C1476 C 0.52267 0.56232 0.31511 0.0
C1477 C 0.53147 0.52699 0.31179 0.0
C1478 C 0.51794 0.4864 0.31735 0.0
C1479 C 0.35537 0.22328 0.32664 0.0
C1480 C 0.37879 0.2168 0.31876 0.0
C1481 C 0.37499 0.26728 0.33129 0.0
C1482 C 0.41839 0.3055 0.32816 0.0
C1483 C 0.44099 0.29939 0.32013 0.0
C1484 C 0.42147 0.25561 0.31548 0.0
C1485 C 0.44163 0.35159 0.33335 0.0
C1486 C 0.45511 0.39315 0.32805 0.0
C1487 C 0.45316 0.35512 0.3433 0.0
C1488 C 0.44193 0.31292 0.34923 0.0
C1489 C 0.45973 0.28303 0.34669 0.0
C1490 C 0.4489 0.24326 0.35232 0.0
C1491 C 0.42067 0.23329 0.36055 0.0
C1492 C 0.40332 0.26315 0.36318 0.0
C1493 C 0.41399 0.30293 0.35757 0.0
H1494 H 0.41235 0.2025 0.3649 0.0
H1495 H 0.53321 0.59373 0.31079 0.0
H1496 H 0.98348 0.56248 0.52017 0.0
H1497 H 1.00108 0.50226 0.51394 0.0
H1498 H 0.147 0.589 0.5229 0.0
H1499 H 0.12961 0.64901 0.52885 0.0
H1500 H 0.14441 0.56585 0.50501 0.0
H1501 H 0.068 0.47937 0.53402 0.0
H1502 H 1.0029 0.44137 0.54586 0.0
H1503 H 0.91001 0.34913 0.52374 0.0
H1504 H 0.9745 0.38692 0.51177 0.0
H1505 H 0.23849 0.41684 0.49847 0.0
H1506 H 0.20413 0.45834 0.50686 0.0
H1507 H 0.07337 0.37702 0.49111 0.0
H1508 H 0.10787 0.33596 0.48246 0.0
H1509 H 0.06206 0.39306 0.5115 0.0
H1510 H 0.14242 0.47869 0.48276 0.0
H1511 H 0.20974 0.51629 0.47145 0.0
H1512 H 0.29745 0.61135 0.49378 0.0
H1513 H 0.23082 0.57377 0.50528 0.0
C1514 C 0.01899 0.56798 0.52093 0.0
C1515 C 0.0554 0.61053 0.52482 0.0
C1516 C 0.02906 0.53364 0.5174 0.0
C1517 C 0.07551 0.54114 0.5179 0.0
C1518 C 0.11107 0.58257 0.52231 0.0
C1519 C 0.10117 0.61689 0.5257 0.0
C1520 C 0.08869 0.50852 0.51311 0.0
C1521 C 0.12665 0.52818 0.50655 0.0
C1522 C 0.06468 0.45905 0.51484 0.0
C1523 C 0.02585 0.43638 0.52199 0.0
C1524 C 0.03354 0.45131 0.53168 0.0
C1525 C 0.99682 0.42975 0.53841 0.0
C1526 C 0.95229 0.39303 0.53555 0.0
C1527 C 0.94448 0.37766 0.52595 0.0
C1528 C 0.98112 0.39909 0.51919 0.0
C1529 C 0.20239 0.40763 0.49678 0.0
C1530 C 0.17624 0.37355 0.48967 0.0
C1531 C 0.18269 0.43114 0.50165 0.0
C1532 C 0.1364 0.42102 0.49954 0.0
C1533 C 0.10913 0.38521 0.49286 0.0
C1534 C 0.12894 0.36176 0.48793 0.0
C1535 C 0.11846 0.45093 0.5037 0.0
C1536 C 0.07956 0.43075 0.51001 0.0
C1537 C 0.14175 0.50014 0.50183 0.0
C1538 C 0.18175 0.52312 0.4949 0.0
C1539 C 0.17617 0.50736 0.48528 0.0
C1540 C 0.21419 0.5287 0.47883 0.0
C1541 C 0.25788 0.56611 0.4819 0.0
C1542 C 0.2636 0.58233 0.49142 0.0
C1543 C 0.22571 0.56105 0.4979 0.0
H1544 H 0.28727 0.5826 0.4769 0.0
H1545 H 0.9239 0.37638 0.54077 0.0
H1546 H 0.45966 0.02333 0.7007 0.0
H1547 H 0.53912 0.04373 0.69497 0.0
H1548 H 0.51244 0.09254 0.66804 0.0
H1549 H 0.43319 0.07107 0.67354 0.0
H1550 H 0.55727 0.04768 0.66452 0.0
H1551 H 0.5742 0.16543 0.68771 0.0
H1552 H 0.56643 0.19405 0.7037 0.0
H1553 H 0.65467 0.14493 0.71623 0.0
H1554 H 0.66204 0.11496 0.70035 0.0
H1555 H 0.77771 0.22633 0.64751 0.0
H1556 H 0.70228 0.18813 0.65605 0.0
H1557 H 0.7513 0.11351 0.67405 0.0
H1558 H 0.82677 0.15003 0.6652 0.0
H1559 H 0.69845 0.16098 0.68348 0.0
H1560 H 0.68476 0.04851 0.65927 0.0
H1561 H 0.69342 0.02494 0.64282 0.0
H1562 H 0.60056 0.07186 0.63179 0.0
H1563 H 0.59198 0.09644 0.64816 0.0
C1564 C 0.47045 0.03743 0.69349 0.0
C1565 C 0.44028 0.04596 0.68759 0.0
C1566 C 0.51596 0.04944 0.69027 0.0
C1567 C 0.53207 0.07023 0.68114 0.0
C1568 C 0.50108 0.07673 0.67512 0.0
C1569 C 0.45582 0.06475 0.6783 0.0
C1570 C 0.58148 0.08683 0.67785 0.0
C1571 C 0.58801 0.07245 0.66869 0.0
C1572 C 0.62195 0.11853 0.68335 0.0
C1573 C 0.61793 0.13711 0.69287 0.0
C1574 C 0.59152 0.16023 0.69389 0.0
C1575 C 0.5872 0.17674 0.70294 0.0
C1576 C 0.60977 0.17102 0.71099 0.0
C1577 C 0.637 0.14913 0.71 0.0
C1578 C 0.64122 0.13233 0.70098 0.0
C1579 C 0.77259 0.20148 0.65321 0.0
C1580 C 0.8082 0.19059 0.6555 0.0
C1581 C 0.72952 0.18006 0.65815 0.0
C1582 C 0.72116 0.14778 0.66561 0.0
C1583 C 0.75721 0.13841 0.6683 0.0
C1584 C 0.80034 0.15943 0.66325 0.0
C1585 C 0.6736 0.12243 0.67014 0.0
C1586 C 0.66754 0.13535 0.67946 0.0
C1587 C 0.63343 0.08993 0.66477 0.0
C1588 C 0.63803 0.07464 0.65493 0.0
C1589 C 0.6665 0.05416 0.65332 0.0
C1590 C 0.67134 0.04055 0.64402 0.0
C1591 C 0.64763 0.04698 0.63626 0.0
C1592 C 0.61893 0.06692 0.6378 0.0
C1593 C 0.61402 0.08065 0.6471 0.0
H1594 H 0.65143 0.03643 0.62906 0.0
H1595 H 0.60634 0.18376 0.71799 0.0
H1596 H 0.06011 0.66315 0.10512 0.0
H1597 H 0.04072 0.59772 0.09406 0.0
H1598 H 0.89326 0.53274 0.10204 0.0
H1599 H 0.91257 0.59942 0.11311 0.0
H1600 H 0.93688 0.47116 0.10268 0.0
H1601 H 0.91291 0.57041 0.08094 0.0
H1602 H 0.93152 0.6456 0.07308 0.0
H1603 H 0.06067 0.65952 0.06183 0.0
H1604 H 0.04325 0.58479 0.06975 0.0
H1605 H 0.92291 0.30617 0.06463 0.0
H1606 H 0.90243 0.35487 0.075 0.0
H1607 H 0.04434 0.47317 0.07162 0.0
H1608 H 0.06479 0.42561 0.06146 0.0
H1609 H 0.97753 0.49778 0.06787 0.0
H1610 H 0.01019 0.40967 0.09203 0.0
H1611 H 0.99707 0.33828 0.1008 0.0
H1612 H 0.85575 0.30585 0.10801 0.0
H1613 H 0.86779 0.37667 0.09913 0.0
C1614 C 0.0234 0.63531 0.10443 0.0
C1615 C 0.98778 0.63644 0.10992 0.0
C1616 C 0.01238 0.59793 0.09811 0.0
C1617 C 0.96557 0.56042 0.09722 0.0
C1618 C 0.92959 0.56146 0.10262 0.0
C1619 C 0.94056 0.59962 0.10886 0.0
C1620 C 0.9558 0.52002 0.09081 0.0
C1621 C 0.94432 0.47633 0.095 0.0
C1622 C 0.96626 0.52714 0.08084 0.0
C1623 C 0.97681 0.572 0.07598 0.0
C1624 C 0.94544 0.58964 0.07685 0.0
C1625 C 0.95576 0.63218 0.07237 0.0
C1626 C 0.99726 0.65734 0.06696 0.0
C1627 C 0.02851 0.63998 0.06601 0.0
C1628 C 0.01838 0.59747 0.07049 0.0
C1629 C 0.94971 0.34243 0.06619 0.0
C1630 C 0.9954 0.362 0.06218 0.0
C1631 C 0.93799 0.37019 0.0721 0.0
C1632 C 0.9718 0.41783 0.07403 0.0
C1633 C 0.01751 0.43673 0.07018 0.0
C1634 C 0.02918 0.40926 0.06437 0.0
C1635 C 0.96059 0.44949 0.07979 0.0
C1636 C 0.96834 0.49177 0.07547 0.0
C1637 C 0.94712 0.4411 0.08964 0.0
C1638 C 0.93956 0.39793 0.09475 0.0
C1639 C 0.97606 0.38692 0.09535 0.0
C1640 C 0.96888 0.34665 0.10037 0.0
C1641 C 0.92549 0.31737 0.10491 0.0
C1642 C 0.88923 0.32838 0.10444 0.0
C1643 C 0.8962 0.36855 0.09941 0.0
H1644 H 0.92006 0.28631 0.10882 0.0
H1645 H 1.0052 0.69028 0.0635 0.0
H1646 H 0.65965 0.07453 0.22821 0.0
H1647 H 0.59612 0.05951 0.23938 0.0
H1648 H 0.55629 0.91209 0.24089 0.0
H1649 H 0.6206 0.92699 0.22953 0.0
H1650 H 0.47739 0.92791 0.23874 0.0
H1651 H 0.61087 0.97704 0.25958 0.0
H1652 H 0.69384 0.02729 0.26487 0.0
H1653 H 0.6734 0.14726 0.26679 0.0
H1654 H 0.59051 0.09793 0.26137 0.0
H1655 H 0.32421 0.92097 0.27837 0.0
H1656 H 0.37767 0.90791 0.26786 0.0
H1657 H 0.4624 0.05864 0.26312 0.0
H1658 H 0.41023 0.07165 0.2736 0.0
H1659 H 0.51683 0.02439 0.26861 0.0
H1660 H 0.38892 0.97956 0.2455 0.0
H1661 H 0.30685 0.93169 0.2395 0.0
H1662 H 0.31688 0.80563 0.2416 0.0
H1663 H 0.39888 0.85273 0.24773 0.0
C1664 C 0.63763 0.03883 0.23092 0.0
C1665 C 0.64543 1.00199 0.22801 0.0
C1666 C 0.60125 0.03033 0.23733 0.0
C1667 C 0.57162 0.98478 0.24104 0.0
C1668 C 0.57881 0.94756 0.23812 0.0
C1669 C 0.61571 0.95616 0.23169 0.0
C1670 C 0.5337 0.97727 0.24801 0.0
C1671 C 0.48588 0.94812 0.2454 0.0
C1672 C 0.54475 1.00403 0.25664 0.0
C1673 C 0.59448 0.03377 0.26002 0.0
C1674 C 0.62413 0.0142 0.26107 0.0
C1675 C 0.67115 0.04252 0.2641 0.0
C1676 C 0.68889 0.09044 0.26615 0.0
C1677 C 0.65961 0.11012 0.2652 0.0
C1678 C 0.61257 0.08197 0.26217 0.0
C1679 C 0.35373 0.95106 0.27491 0.0
C1680 C 0.3632 0.99734 0.27684 0.0
C1681 C 0.38433 0.94363 0.26893 0.0
C1682 C 0.42443 0.98237 0.26474 0.0
C1683 C 0.43219 0.0282 0.26634 0.0
C1684 C 0.40213 0.03558 0.27232 0.0
C1685 C 0.4604 0.97668 0.25915 0.0
C1686 C 0.50807 1.00333 0.26207 0.0
C1687 C 0.44908 0.94782 0.25081 0.0
C1688 C 0.39976 0.91955 0.24719 0.0
C1689 C 0.37345 0.94157 0.24477 0.0
C1690 C 0.32699 0.9146 0.24133 0.0
C1691 C 0.3066 0.86563 0.2402 0.0
C1692 C 0.33268 0.84355 0.2425 0.0
C1693 C 0.37914 0.87036 0.24595 0.0
H1694 H 0.27064 0.84481 0.23753 0.0
H1695 H 0.72531 0.11231 0.26849 0.0
H1696 H 0.34741 0.41145 0.44233 0.0
H1697 H 0.41197 0.46095 0.43138 0.0
H1698 H 0.46752 0.36609 0.43407 0.0
H1699 H 0.40187 0.31548 0.44509 0.0
H1700 H 0.53726 0.46795 0.43629 0.0
H1701 H 0.42088 0.36229 0.41389 0.0
H1702 H 0.34095 0.31641 0.40676 0.0
H1703 H 0.34057 0.44524 0.40058 0.0
H1704 H 0.42021 0.4919 0.4078 0.0
H1705 H 0.69816 0.61513 0.39757 0.0
H1706 H 0.64595 0.54808 0.40811 0.0
H1707 H 0.54392 0.59557 0.40825 0.0
H1708 H 0.59513 0.66161 0.39784 0.0
H1709 H 0.50289 0.50359 0.40342 0.0
H1710 H 0.6115 0.6076 0.4279 0.0
H1711 H 0.6893 0.65525 0.43581 0.0
H1712 H 0.70332 0.53164 0.43846 0.0
H1713 H 0.62582 0.48335 0.43044 0.0
C1714 C 0.37307 0.40077 0.44055 0.0
C1715 C 0.36944 0.35944 0.44454 0.0
C1716 C 0.40999 0.42914 0.43428 0.0
C1717 C 0.44451 0.41719 0.43188 0.0
C1718 C 0.44118 0.37589 0.43583 0.0
C1719 C 0.40355 0.34688 0.44204 0.0
C1720 C 0.48382 0.4488 0.42531 0.0
C1721 C 0.53014 0.47497 0.429 0.0
C1722 C 0.4743 0.45847 0.41587 0.0
C1723 C 0.42648 0.43059 0.41144 0.0
C1724 C 0.40363 0.38084 0.41107 0.0
C1725 C 0.35838 0.35469 0.407 0.0
C1726 C 0.33567 0.37789 0.40323 0.0
C1727 C 0.35821 0.42731 0.4035 0.0
C1728 C 0.40345 0.45363 0.40757 0.0
C1729 C 0.66498 0.61161 0.40002 0.0
C1730 C 0.65067 0.64353 0.39683 0.0
C1731 C 0.63512 0.57325 0.40601 0.0
C1732 C 0.59073 0.5665 0.40891 0.0
C1733 C 0.57765 0.59962 0.40603 0.0
C1734 C 0.60717 0.63756 0.40009 0.0
C1735 C 0.55615 0.52412 0.41451 0.0
C1736 C 0.51052 0.49586 0.41061 0.0
C1737 C 0.56636 0.51288 0.42376 0.0
C1738 C 0.61322 0.54202 0.42844 0.0
C1739 C 0.63143 0.59069 0.43006 0.0
C1740 C 0.6754 0.61779 0.43459 0.0
C1741 C 0.70133 0.59652 0.4376 0.0
C1742 C 0.68327 0.54809 0.4361 0.0
C1743 C 0.63933 0.52085 0.43157 0.0
H1744 H 0.73532 0.61754 0.44113 0.0
H1745 H 0.30063 0.35758 0.40009 0.0
H1746 H 0.09999 0.69617 0.56092 0.0
H1747 H 0.11831 0.64833 0.57207 0.0
H1748 H 0.96906 0.55957 0.57807 0.0
H1749 H 0.95083 0.60635 0.56701 0.0
H1750 H 0.02491 0.58415 0.59454 0.0
H1751 H 0.02188 0.52845 0.56179 0.0
H1752 H 0.05152 0.53973 0.54507 0.0
H1753 H 0.18855 0.57114 0.55545 0.0
H1754 H 0.16018 0.56166 0.57227 0.0
H1755 H 0.95152 0.35762 0.60919 0.0
H1756 H 0.96905 0.42428 0.59875 0.0
H1757 H 0.11855 0.47219 0.60063 0.0
H1758 H 0.10097 0.40422 0.61119 0.0
H1759 H 0.08516 0.48262 0.58144 0.0
H1760 H 0.0819 0.52451 0.61427 0.0
H1761 H 0.05053 0.51328 0.63078 0.0
H1762 H 0.92361 0.50694 0.62012 0.0
H1763 H 0.95395 0.51737 0.60347 0.0
C1764 C 0.07137 0.66692 0.56477 0.0
C1765 C 0.02402 0.65488 0.56311 0.0
C1766 C 0.08179 0.63949 0.57106 0.0
C1767 C 0.04497 0.60021 0.57586 0.0
C1768 C 0.99802 0.58966 0.57447 0.0
C1769 C 0.98764 0.6164 0.56812 0.0
C1770 C 0.05386 0.56832 0.58209 0.0
C1771 C 0.03836 0.56217 0.59169 0.0
C1772 C 0.07254 0.54044 0.57843 0.0
C1773 C 0.08913 0.54508 0.56831 0.0
C1774 C 0.05849 0.53829 0.56052 0.0
C1775 C 0.07506 0.54437 0.55102 0.0
C1776 C 0.12191 0.55623 0.54921 0.0
C1777 C 0.1523 0.56207 0.55688 0.0
C1778 C 0.13604 0.5565 0.5664 0.0
C1779 C 0.98821 0.38193 0.60734 0.0
C1780 C 0.02494 0.37595 0.61113 0.0
C1781 C 0.99815 0.42006 0.60133 0.0
C1782 C 0.04512 0.45369 0.59903 0.0
C1783 C 0.08202 0.44669 0.60235 0.0
C1784 C 0.07197 0.40796 0.60838 0.0
C1785 C 0.05448 0.49739 0.59378 0.0
C1786 C 0.07314 0.50561 0.58438 0.0
C1787 C 0.03846 0.52723 0.59758 0.0
C1788 C 0.0202 0.52155 0.6076 0.0
C1789 C 0.04714 0.52037 0.61543 0.0
C1790 C 0.02946 0.51405 0.62482 0.0
C1791 C 0.98499 0.50924 0.62652 0.0
C1792 C 0.95809 0.51073 0.6188 0.0
C1793 C 0.97554 0.51689 0.60938 0.0
H1794 H 0.97133 0.50438 0.6338 0.0
H1795 H 0.13466 0.56073 0.54185 0.0
H1796 H 0.43205 0.08285 0.71981 0.0
H1797 H 0.49879 0.09311 0.72996 0.0
H1798 H 0.40079 0.97913 0.74835 0.0
H1799 H 0.3347 0.96836 0.73813 0.0
H1800 H 0.46947 0.04861 0.75902 0.0
H1801 H 0.4534 0.95666 0.73192 0.0
H1802 H 0.44824 0.93006 0.71511 0.0
H1803 H 0.5916 0.04039 0.71009 0.0
H1804 H 0.59703 0.06928 0.72679 0.0
H1805 H 0.5925 0.94158 0.77772 0.0
H1806 H 0.54376 0.95528 0.76629 0.0
H1807 H 0.66165 0.09394 0.75996 0.0
H1808 H 0.7113 0.08061 0.77156 0.0
H1809 H 0.5913 0.02324 0.74304 0.0
H1810 H 0.59734 0.10448 0.77371 0.0
H1811 H 0.59511 0.09916 0.79148 0.0
H1812 H 0.45703 0.97466 0.79016 0.0
H1813 H 0.45872 0.97901 0.77236 0.0
C1814 C 0.42489 0.06117 0.72621 0.0
C1815 C 0.3784 0.02544 0.72834 0.0
C1816 C 0.46294 0.06667 0.73193 0.0
C1817 C 0.45483 0.03678 0.73991 0.0
C1818 C 0.40796 1.00281 0.74229 0.0
C1819 C 0.37021 0.99674 0.73648 0.0
C1820 C 0.49489 0.03816 0.74539 0.0
C1821 C 0.49644 0.04383 0.75547 0.0
C1822 C 0.52945 0.0304 0.74085 0.0
C1823 C 0.52526 0.01587 0.73056 0.0
C1824 C 0.48344 0.97621 0.72717 0.0
C1825 C 0.48051 0.96059 0.71767 0.0
C1826 C 0.51951 0.9837 0.71153 0.0
C1827 C 0.56131 0.0229 0.71484 0.0
C1828 C 0.56425 0.03908 0.72431 0.0
C1829 C 0.60854 0.97482 0.77382 0.0
C1830 C 0.65579 0.01019 0.77561 0.0
C1831 C 0.58055 0.98247 0.76726 0.0
C1832 C 0.59904 0.0256 0.76231 0.0
C1833 C 0.64686 0.0603 0.76369 0.0
C1834 C 0.67509 0.05269 0.77032 0.0
C1835 C 0.56646 0.03526 0.75651 0.0
C1836 C 0.56571 0.03062 0.74644 0.0
C1837 C 0.53127 0.04167 0.76107 0.0
C1838 C 0.52819 0.04207 0.77173 0.0
C1839 C 0.56645 0.07611 0.77722 0.0
C1840 C 0.5654 0.07307 0.78729 0.0
C1841 C 0.52615 0.03628 0.79194 0.0
C1842 C 0.48752 1.00292 0.78654 0.0
C1843 C 0.48841 0.0058 0.77647 0.0
H1844 H 0.52525 0.03392 0.79971 0.0
H1845 H 0.51742 0.97099 0.70423 0.0
H1846 H 0.5967 0.68319 0.95112 0.0
H1847 H 0.52913 0.63214 0.94051 0.0
H1848 H 0.61087 0.57508 0.92787 0.0
H1849 H 0.67729 0.62458 0.93858 0.0
H1850 H 0.56074 0.595 0.91406 0.0
H1851 H 0.53833 0.51363 0.94382 0.0
H1852 H 0.52507 0.49284 0.96109 0.0
H1853 H 0.39859 0.5028 0.96051 0.0
H1854 H 0.41157 0.52458 0.94325 0.0
H1855 H 0.42307 0.36527 0.89802 0.0
H1856 H 0.46985 0.43007 0.90908 0.0
H1857 H 0.35993 0.4669 0.90953 0.0
H1858 H 0.31212 0.40123 0.89825 0.0
H1859 H 0.41403 0.46636 0.92901 0.0
H1860 H 0.43765 0.53538 0.89683 0.0
H1861 H 0.44631 0.52615 0.87942 0.0
H1862 H 0.57321 0.52061 0.8849 0.0
H1863 H 0.56505 0.52941 0.90239 0.0
C1864 C 0.60032 0.66036 0.94594 0.0
C1865 C 0.64214 0.6579 0.94561 0.0
C1866 C 0.56172 0.63104 0.93994 0.0
C1867 C 0.56497 0.59977 0.9334 0.0
C1868 C 0.60759 0.59902 0.93282 0.0
C1869 C 0.64548 0.62727 0.93894 0.0
C1870 C 0.52368 0.56588 0.92746 0.0
C1871 C 0.52837 0.56749 0.91735 0.0
C1872 C 0.48148 0.52945 0.9317 0.0
C1873 C 0.4764 0.5216 0.94228 0.0
C1874 C 0.50834 0.51258 0.94742 0.0
C1875 C 0.50067 0.50023 0.95719 0.0
C1876 C 0.46088 0.49623 0.96186 0.0
C1877 C 0.42931 0.50577 0.95686 0.0
C1878 C 0.43688 0.51827 0.94709 0.0
C1879 C 0.40832 0.38666 0.90052 0.0
C1880 C 0.36402 0.3784 0.89717 0.0
C1881 C 0.43515 0.42363 0.90688 0.0
C1882 C 0.41851 0.45341 0.91005 0.0
C1883 C 0.37327 0.44413 0.90715 0.0
C1884 C 0.3461 0.40676 0.90072 0.0
C1885 C 0.45104 0.49613 0.91573 0.0
C1886 C 0.44523 0.49568 0.92575 0.0
C1887 C 0.4927 0.53289 0.91146 0.0
C1888 C 0.50071 0.53303 0.90091 0.0
C1889 C 0.46751 0.53239 0.89431 0.0
C1890 C 0.47213 0.52688 0.88444 0.0
C1891 C 0.50999 0.52224 0.88106 0.0
C1892 C 0.54374 0.5239 0.88754 0.0
C1893 C 0.53929 0.52944 0.89743 0.0
H1894 H 0.51355 0.51797 0.87342 0.0
H1895 H 0.45431 0.48541 0.96934 0.0
loop_
_geom_bond_atom_site_label_1
_geom_bond_atom_site_label_2
_geom_bond_distance
_geom_bond_site_symmetry_2
_ccdc_geom_bond_type
Co0 N4 2.148 . S
Co0 N10 2.128 1_655 S
Co0 N20 2.194 1_655 S
Co0 O25 2.351 1_655 S
Co0 O26 2.155 . S
Co0 O27 2.096 . S
C1 N4 1.301 . S
C1 N5 1.328 . S
C1 H6 0.930 . S
C2 C3 1.333 . S
C2 N4 1.317 . S
C2 H7 0.930 . S
C3 C2 1.333 . S
C3 N5 1.350 . S
C3 H29 0.931 . S
N4 Co0 2.148 . S
N4 C1 1.301 . S
N4 C2 1.317 . S
N5 C1 1.328 . S
N5 C3 1.350 . S
H6 C1 0.930 . S
H7 C2 0.930 . S
C8 O9 1.224 . S
C8 O27 1.247 . S
O9 C8 1.224 . S
N10 Co0 2.128 1_455 S
N10 C11 1.355 . S
N10 C13 1.311 . S
C11 N10 1.355 . S
C11 C12 1.363 . S
C11 H23 0.929 . S
C12 C11 1.363 . S
C12 N14 1.375 . S
C12 H30 0.931 . S
C13 N10 1.311 . S
C13 N14 1.347 . S
C13 H24 0.929 1_455 S
N14 C12 1.375 . S
N14 C13 1.347 . S
C15 C18 1.365 . S
C15 N20 1.328 . S
C15 H21 0.929 . S
C16 C17 1.362 . S
C16 C19 1.378 . S
C16 H31 0.929 . S
C17 C16 1.362 . S
C17 C18 1.366 . S
C18 C15 1.365 . S
C18 C17 1.366 . S
C18 H32 0.930 . S
C19 C16 1.378 . S
C19 N20 1.315 . S
C19 H22 0.930 . S
N20 Co0 2.194 1_455 S
N20 C15 1.328 . S
N20 C19 1.315 . S
H21 C15 0.929 . S
H22 C19 0.930 . S
H23 C11 0.929 . S
H24 C13 0.929 1_655 S
O25 Co0 2.351 1_455 S
O25 C28 1.244 1_455 S
O26 Co0 2.155 . S
O26 C28 1.240 . S
O27 Co0 2.096 . S
O27 C8 1.247 . S
C28 O25 1.244 1_655 S
C28 O26 1.240 . S
H29 C3 0.931 . S
H30 C12 0.931 . S
H31 C16 0.929 . S
H32 C18 0.930 . S
Co33 N37 2.148 . S
Co33 N43 2.128 1_565 S
Co33 N53 2.194 1_565 S
Co33 O58 2.351 1_565 S
Co33 O59 2.155 . S
Co33 O60 2.096 . S
C34 N37 1.301 . S
C34 N38 1.328 . S
C34 H39 0.930 . S
C35 C36 1.333 . S
C35 N37 1.317 . S
C35 H40 0.930 . S
C36 C35 1.333 . S
C36 N38 1.350 . S
C36 H62 0.931 . S
N37 Co33 2.148 . S
N37 C34 1.301 . S
N37 C35 1.317 . S
N38 C34 1.328 . S
N38 C36 1.350 . S
H39 C34 0.930 . S
H40 C35 0.930 . S
C41 O42 1.224 . S
C41 O60 1.247 . S
O42 C41 1.224 . S
N43 Co33 2.128 1_545 S
N43 C44 1.355 . S
N43 C46 1.311 . S
C44 N43 1.355 . S
C44 C45 1.363 . S
C44 H56 0.929 . S
C45 C44 1.363 . S
C45 N47 1.375 . S
C45 H63 0.931 . S
C46 N43 1.311 . S
C46 N47 1.347 . S
C46 H57 0.929 1_545 S
N47 C45 1.375 . S
N47 C46 1.347 . S
C48 C51 1.365 . S
C48 N53 1.328 . S
C48 H54 0.929 . S
C49 C50 1.362 . S
C49 C52 1.378 . S
C49 H64 0.929 . S
C50 C49 1.362 . S
C50 C51 1.366 . S
C51 C48 1.365 . S
C51 C50 1.366 . S
C51 H65 0.930 . S
C52 C49 1.378 . S
C52 N53 1.315 . S
C52 H55 0.930 . S
N53 Co33 2.194 1_545 S
N53 C48 1.328 . S
N53 C52 1.315 . S
H54 C48 0.929 . S
H55 C52 0.930 . S
H56 C44 0.929 . S
H57 C46 0.929 1_565 S
O58 Co33 2.351 1_545 S
O58 C61 1.244 1_545 S
O59 Co33 2.155 . S
O59 C61 1.240 . S
O60 Co33 2.096 . S
O60 C41 1.247 . S
C61 O58 1.244 1_565 S
C61 O59 1.240 . S
H62 C36 0.931 . S
H63 C45 0.931 . S
H64 C49 0.929 . S
H65 C51 0.930 . S
Co66 N70 2.148 . S
Co66 N76 2.128 . S
Co66 N86 2.194 . S
Co66 O91 2.351 . S
Co66 O92 2.155 . S
Co66 O93 2.096 . S
C67 N70 1.301 . S
C67 N71 1.328 . S
C67 H72 0.930 . S
C68 C69 1.333 . S
C68 N70 1.317 . S
C68 H73 0.930 . S
C69 C68 1.333 . S
C69 N71 1.350 . S
C69 H95 0.931 . S
N70 Co66 2.148 . S
N70 C67 1.301 . S
N70 C68 1.317 . S
N71 C67 1.328 . S
N71 C69 1.350 . S
H72 C67 0.930 . S
H73 C68 0.930 . S
C74 O75 1.224 . S
C74 O93 1.247 . S
O75 C74 1.224 . S
N76 Co66 2.128 . S
N76 C77 1.355 . S
N76 C79 1.311 . S
C77 N76 1.355 . S
C77 C78 1.363 . S
C77 H89 0.929 . S
C78 C77 1.363 . S
C78 N80 1.375 . S
C78 H96 0.931 . S
C79 N76 1.311 . S
C79 N80 1.347 . S
C79 H90 0.929 . S
N80 C78 1.375 . S
N80 C79 1.347 . S
C81 C84 1.365 . S
C81 N86 1.328 . S
C81 H87 0.929 . S
C82 C83 1.362 . S
C82 C85 1.378 . S
C82 H97 0.929 . S
C83 C82 1.362 . S
C83 C84 1.366 . S
C84 C81 1.365 . S
C84 C83 1.366 . S
C84 H98 0.930 . S
C85 C82 1.378 . S
C85 N86 1.315 . S
C85 H88 0.930 . S
N86 Co66 2.194 . S
N86 C81 1.328 . S
N86 C85 1.315 . S
H87 C81 0.929 . S
H88 C85 0.930 . S
H89 C77 0.929 . S
H90 C79 0.929 . S
O91 Co66 2.351 . S
O91 C94 1.244 . S
O92 Co66 2.155 . S
O92 C94 1.240 . S
O93 Co66 2.096 . S
O93 C74 1.247 . S
C94 O91 1.244 . S
C94 O92 1.240 . S
H95 C69 0.931 . S
H96 C78 0.931 . S
H97 C82 0.929 . S
H98 C84 0.930 . S
Co99 N103 2.148 . S
Co99 N109 2.128 1_455 S
Co99 N119 2.194 1_455 S
Co99 O124 2.351 1_455 S
Co99 O125 2.155 . S
Co99 O126 2.096 . S
C100 N103 1.301 . S
C100 N104 1.328 . S
C100 H105 0.930 . S
C101 C102 1.333 . S
C101 N103 1.317 . S
C101 H106 0.930 . S
C102 C101 1.333 . S
C102 N104 1.350 . S
C102 H128 0.931 . S
N103 Co99 2.148 . S
N103 C100 1.301 . S
N103 C101 1.317 . S
N104 C100 1.328 . S
N104 C102 1.350 . S
H105 C100 0.930 . S
H106 C101 0.930 . S
C107 O108 1.224 . S
C107 O126 1.247 . S
O108 C107 1.224 . S
N109 Co99 2.128 1_655 S
N109 C110 1.355 . S
N109 C112 1.311 . S
C110 N109 1.355 . S
C110 C111 1.363 . S
C110 H122 0.929 . S
C111 C110 1.363 . S
C111 N113 1.375 . S
C111 H129 0.931 . S
C112 N109 1.311 . S
C112 N113 1.347 . S
C112 H123 0.929 1_655 S
N113 C111 1.375 . S
N113 C112 1.347 . S
C114 C117 1.365 . S
C114 N119 1.328 . S
C114 H120 0.929 . S
C115 C116 1.362 . S
C115 C118 1.378 . S
C115 H130 0.929 . S
C116 C115 1.362 . S
C116 C117 1.366 . S
C117 C114 1.365 . S
C117 C116 1.366 . S
C117 H131 0.930 . S
C118 C115 1.378 . S
C118 N119 1.315 . S
C118 H121 0.930 . S
N119 Co99 2.194 1_655 S
N119 C114 1.328 . S
N119 C118 1.315 . S
H120 C114 0.929 . S
H121 C118 0.930 . S
H122 C110 0.929 . S
H123 C112 0.929 1_455 S
O124 Co99 2.351 1_655 S
O124 C127 1.244 1_655 S
O125 Co99 2.155 . S
O125 C127 1.240 . S
O126 Co99 2.096 . S
O126 C107 1.247 . S
C127 O124 1.244 1_455 S
C127 O125 1.240 . S
H128 C102 0.931 . S
H129 C111 0.931 . S
H130 C115 0.929 . S
H131 C117 0.930 . S
Co132 N136 2.148 . S
Co132 N142 2.128 1_545 S
Co132 N152 2.194 1_545 S
Co132 O157 2.351 1_545 S
Co132 O158 2.155 . S
Co132 O159 2.096 . S
C133 N136 1.301 . S
C133 N137 1.328 . S
C133 H138 0.930 . S
C134 C135 1.333 . S
C134 N136 1.317 . S
C134 H139 0.930 . S
C135 C134 1.333 . S
C135 N137 1.350 . S
C135 H161 0.931 . S
N136 Co132 2.148 . S
N136 C133 1.301 . S
N136 C134 1.317 . S
N137 C133 1.328 . S
N137 C135 1.350 . S
H138 C133 0.930 . S
H139 C134 0.930 . S
C140 O141 1.224 . S
C140 O159 1.247 . S
O141 C140 1.224 . S
N142 Co132 2.128 1_565 S
N142 C143 1.355 . S
N142 C145 1.332 . S
C143 N142 1.355 . S
C143 C144 1.363 . S
C143 H155 0.929 . S
C144 C143 1.363 . S
C144 N146 1.375 . S
C144 H162 0.931 . S
C145 N142 1.332 . S
C145 N146 1.356 . S
C145 H156 0.902 1_565 S
N146 C144 1.375 . S
N146 C145 1.356 . S
C147 C150 1.365 . S
C147 N152 1.328 . S
C147 H153 0.929 . S
C148 C149 1.362 . S
C148 C151 1.378 . S
C148 H163 0.929 . S
C149 C148 1.362 . S
C149 C150 1.366 . S
C150 C147 1.365 . S
C150 C149 1.366 . S
C150 H164 0.930 . S
C151 C148 1.378 . S
C151 N152 1.315 . S
C151 H154 0.930 . S
N152 Co132 2.194 1_565 S
N152 C147 1.328 . S
N152 C151 1.315 . S
H153 C147 0.929 . S
H154 C151 0.930 . S
H155 C143 0.929 . S
H156 C145 0.902 1_545 S
O157 Co132 2.351 1_565 S
O157 C160 1.244 1_565 S
O158 Co132 2.155 . S
O158 C160 1.240 . S
O159 Co132 2.096 . S
O159 C140 1.247 . S
C160 O157 1.244 1_545 S
C160 O158 1.240 . S
H161 C135 0.931 . S
H162 C144 0.931 . S
H163 C148 0.929 . S
H164 C150 0.930 . S
Co165 N169 2.148 . S
Co165 N175 2.128 . S
Co165 N185 2.194 . S
Co165 O190 2.351 . S
Co165 O191 2.155 . S
Co165 O192 2.096 . S
C166 N169 1.301 . S
C166 N170 1.328 . S
C166 H171 0.930 . S
C167 C168 1.333 . S
C167 N169 1.317 . S
C167 H172 0.930 . S
C168 C167 1.333 . S
C168 N170 1.350 . S
C168 H194 0.931 . S
N169 Co165 2.148 . S
N169 C166 1.301 . S
N169 C167 1.317 . S
N170 C166 1.328 . S
N170 C168 1.350 . S
H171 C166 0.930 . S
H172 C167 0.930 . S
C173 O174 1.224 . S
C173 O192 1.247 . S
O174 C173 1.224 . S
N175 Co165 2.128 . S
N175 C176 1.355 . S
N175 C178 1.311 . S
C176 N175 1.355 . S
C176 C177 1.363 . S
C176 H188 0.929 . S
C177 C176 1.363 . S
C177 N179 1.375 . S
C177 H195 0.931 . S
C178 N175 1.311 . S
C178 N179 1.347 . S
C178 H189 0.929 . S
N179 C177 1.375 . S
N179 C178 1.347 . S
C180 C183 1.365 . S
C180 N185 1.328 . S
C180 H186 0.929 . S
C181 C182 1.362 . S
C181 C184 1.378 . S
C181 H196 0.929 . S
C182 C181 1.362 . S
C182 C183 1.366 . S
C183 C180 1.365 . S
C183 C182 1.366 . S
C183 H197 0.930 . S
C184 C181 1.378 . S
C184 N185 1.315 . S
C184 H187 0.930 . S
N185 Co165 2.194 . S
N185 C180 1.328 . S
N185 C184 1.315 . S
H186 C180 0.929 . S
H187 C184 0.930 . S
H188 C176 0.929 . S
H189 C178 0.929 . S
O190 Co165 2.351 . S
O190 C193 1.244 . S
O191 Co165 2.155 . S
O191 C193 1.240 . S
O192 Co165 2.096 . S
O192 C173 1.247 . S
C193 O190 1.244 . S
C193 O191 1.240 . S
H194 C168 0.931 . S
H195 C177 0.931 . S
H196 C181 0.929 . S
H197 C183 0.930 . S
Co198 N202 2.148 . S
Co198 N208 2.128 1_545 S
Co198 N218 2.194 1_545 S
Co198 O223 2.351 1_545 S
Co198 O224 2.155 . S
Co198 O225 2.096 . S
C199 N202 1.301 . S
C199 N203 1.328 . S
C199 H204 0.930 . S
C200 C201 1.333 . S
C200 N202 1.317 . S
C200 H205 0.930 . S
C201 C200 1.333 . S
C201 N203 1.350 . S
C201 H227 0.931 . S
N202 Co198 2.148 . S
N202 C199 1.301 . S
N202 C200 1.317 . S
N203 C199 1.328 . S
N203 C201 1.350 . S
H204 C199 0.930 . S
H205 C200 0.930 . S
C206 O207 1.224 . S
C206 O225 1.247 . S
O207 C206 1.224 . S
N208 Co198 2.128 1_565 S
N208 C209 1.355 . S
N208 C211 1.306 . S
C209 N208 1.355 . S
C209 C210 1.363 . S
C209 H221 0.929 . S
C210 C209 1.363 . S
C210 N212 1.375 . S
C210 H228 0.931 . S
C211 N208 1.306 . S
C211 N212 1.369 . S
C211 H222 0.914 1_565 S
N212 C210 1.375 . S
N212 C211 1.369 . S
C213 C216 1.365 . S
C213 N218 1.328 . S
C213 H219 0.929 . S
C214 C215 1.362 . S
C214 C217 1.378 . S
C214 H229 0.929 . S
C215 C214 1.362 . S
C215 C216 1.366 . S
C216 C213 1.365 . S
C216 C215 1.366 . S
C216 H230 0.930 . S
C217 C214 1.378 . S
C217 N218 1.315 . S
C217 H220 0.930 . S
N218 Co198 2.194 1_565 S
N218 C213 1.328 . S
N218 C217 1.315 . S
H219 C213 0.929 . S
H220 C217 0.930 . S
H221 C209 0.929 . S
H222 C211 0.914 1_545 S
O223 Co198 2.351 1_565 S
O223 C226 1.244 1_565 S
O224 Co198 2.155 . S
O224 C226 1.240 . S
O225 Co198 2.096 . S
O225 C206 1.247 . S
C226 O223 1.244 1_545 S
C226 O224 1.240 . S
H227 C201 0.931 . S
H228 C210 0.931 . S
H229 C214 0.929 . S
H230 C216 0.930 . S
Co231 N235 2.148 . S
Co231 N241 2.128 . S
Co231 N251 2.194 . S
Co231 O256 2.351 . S
Co231 O257 2.155 . S
Co231 O258 2.096 . S
C232 N235 1.301 . S
C232 N236 1.328 . S
C232 H237 0.930 . S
C233 C234 1.333 . S
C233 N235 1.317 . S
C233 H238 0.930 . S
C234 C233 1.333 . S
C234 N236 1.350 . S
C234 H260 0.931 . S
N235 Co231 2.148 . S
N235 C232 1.301 . S
N235 C233 1.317 . S
N236 C232 1.328 . S
N236 C234 1.350 . S
H237 C232 0.930 . S
H238 C233 0.930 . S
C239 O240 1.224 . S
C239 O258 1.247 . S
O240 C239 1.224 . S
N241 Co231 2.128 . S
N241 C242 1.355 . S
N241 C244 1.311 . S
C242 N241 1.355 . S
C242 C243 1.363 . S
C242 H254 0.929 . S
C243 C242 1.363 . S
C243 N245 1.375 . S
C243 H261 0.931 . S
C244 N241 1.311 . S
C244 N245 1.347 . S
C244 H255 0.929 . S
N245 C243 1.375 . S
N245 C244 1.347 . S
C246 C249 1.365 . S
C246 N251 1.328 . S
C246 H252 0.929 . S
C247 C248 1.362 . S
C247 C250 1.378 . S
C247 H262 0.929 . S
C248 C247 1.362 . S
C248 C249 1.366 . S
C249 C246 1.365 . S
C249 C248 1.366 . S
C249 H263 0.930 . S
C250 C247 1.378 . S
C250 N251 1.315 . S
C250 H253 0.930 . S
N251 Co231 2.194 . S
N251 C246 1.328 . S
N251 C250 1.315 . S
H252 C246 0.929 . S
H253 C250 0.930 . S
H254 C242 0.929 . S
H255 C244 0.929 . S
O256 Co231 2.351 . S
O256 C259 1.244 . S
O257 Co231 2.155 . S
O257 C259 1.240 . S
O258 Co231 2.096 . S
O258 C239 1.247 . S
C259 O256 1.244 . S
C259 O257 1.240 . S
H260 C234 0.931 . S
H261 C243 0.931 . S
H262 C247 0.929 . S
H263 C249 0.930 . S
Co264 N268 2.148 . S
Co264 N274 2.128 1_655 S
Co264 N284 2.194 1_655 S
Co264 O289 2.351 1_655 S
Co264 O290 2.155 . S
Co264 O291 2.096 . S
C265 N268 1.301 . S
C265 N269 1.328 . S
C265 H270 0.930 . S
C266 C267 1.333 . S
C266 N268 1.317 . S
C266 H271 0.930 . S
C267 C266 1.333 . S
C267 N269 1.350 . S
C267 H293 0.931 . S
N268 Co264 2.148 . S
N268 C265 1.301 . S
N268 C266 1.317 . S
N269 C265 1.328 . S
N269 C267 1.350 . S
H270 C265 0.930 . S
H271 C266 0.930 . S
C272 O273 1.224 . S
C272 O291 1.247 . S
O273 C272 1.224 . S
N274 Co264 2.128 1_455 S
N274 C275 1.355 . S
N274 C277 1.311 . S
C275 N274 1.355 . S
C275 C276 1.363 . S
C275 H287 0.929 . S
C276 C275 1.363 . S
C276 N278 1.375 . S
C276 H294 0.931 . S
C277 N274 1.311 . S
C277 N278 1.347 . S
C277 H288 0.929 1_455 S
N278 C276 1.375 . S
N278 C277 1.347 . S
C279 C282 1.365 . S
C279 N284 1.328 . S
C279 H285 0.929 . S
C280 C281 1.362 . S
C280 C283 1.378 . S
C280 H295 0.929 . S
C281 C280 1.362 . S
C281 C282 1.366 . S
C282 C279 1.365 . S
C282 C281 1.366 . S
C282 H296 0.930 . S
C283 C280 1.378 . S
C283 N284 1.315 . S
C283 H286 0.930 . S
N284 Co264 2.194 1_455 S
N284 C279 1.328 . S
N284 C283 1.315 . S
H285 C279 0.929 . S
H286 C283 0.930 . S
H287 C275 0.929 . S
H288 C277 0.929 1_655 S
O289 Co264 2.351 1_455 S
O289 C292 1.244 1_455 S
O290 Co264 2.155 . S
O290 C292 1.240 . S
O291 Co264 2.096 . S
O291 C272 1.247 . S
C292 O289 1.244 1_655 S
C292 O290 1.240 . S
H293 C267 0.931 . S
H294 C276 0.931 . S
H295 C280 0.929 . S
H296 C282 0.930 . S
Co297 N301 2.148 . S
Co297 N307 2.128 1_565 S
Co297 N317 2.194 1_565 S
Co297 O322 2.351 1_565 S
Co297 O323 2.155 . S
Co297 O324 2.096 . S
C298 N301 1.301 . S
C298 N302 1.328 . S
C298 H303 0.930 . S
C299 C300 1.333 . S
C299 N301 1.317 . S
C299 H304 0.930 . S
C300 C299 1.333 . S
C300 N302 1.350 . S
C300 H326 0.931 . S
N301 Co297 2.148 . S
N301 C298 1.301 . S
N301 C299 1.317 . S
N302 C298 1.328 . S
N302 C300 1.350 . S
H303 C298 0.930 . S
H304 C299 0.930 . S
C305 O306 1.224 . S
C305 O324 1.247 . S
O306 C305 1.224 . S
N307 Co297 2.128 1_545 S
N307 C308 1.355 . S
N307 C310 1.311 . S
C308 N307 1.355 . S
C308 C309 1.363 . S
C308 H320 0.929 . S
C309 C308 1.363 . S
C309 N311 1.375 . S
C309 H327 0.931 . S
C310 N307 1.311 . S
C310 N311 1.347 . S
C310 H321 0.929 1_545 S
N311 C309 1.375 . S
N311 C310 1.347 . S
C312 C315 1.365 . S
C312 N317 1.328 . S
C312 H318 0.929 . S
C313 C314 1.362 . S
C313 C316 1.378 . S
C313 H328 0.929 . S
C314 C313 1.362 . S
C314 C315 1.366 . S
C315 C312 1.365 . S
C315 C314 1.366 . S
C315 H329 0.930 . S
C316 C313 1.378 . S
C316 N317 1.315 . S
C316 H319 0.930 . S
N317 Co297 2.194 1_545 S
N317 C312 1.328 . S
N317 C316 1.315 . S
H318 C312 0.929 . S
H319 C316 0.930 . S
H320 C308 0.929 . S
H321 C310 0.929 1_565 S
O322 Co297 2.351 1_545 S
O322 C325 1.244 1_545 S
O323 Co297 2.155 . S
O323 C325 1.240 . S
O324 Co297 2.096 . S
O324 C305 1.247 . S
C325 O322 1.244 1_565 S
C325 O323 1.240 . S
H326 C300 0.931 . S
H327 C309 0.931 . S
H328 C313 0.929 . S
H329 C315 0.930 . S
Co330 N334 2.148 . S
Co330 N340 2.128 . S
Co330 N350 2.194 . S
Co330 O355 2.351 . S
Co330 O356 2.155 . S
Co330 O357 2.096 . S
C331 N334 1.301 . S
C331 N335 1.328 . S
C331 H336 0.930 . S
C332 C333 1.333 . S
C332 N334 1.317 . S
C332 H337 0.930 . S
C333 C332 1.333 . S
C333 N335 1.350 . S
C333 H359 0.931 . S
N334 Co330 2.148 . S
N334 C331 1.301 . S
N334 C332 1.317 . S
N335 C331 1.328 . S
N335 C333 1.350 . S
H336 C331 0.930 . S
H337 C332 0.930 . S
C338 O339 1.224 . S
C338 O357 1.247 . S
O339 C338 1.224 . S
N340 Co330 2.128 . S
N340 C341 1.355 . S
N340 C343 1.311 . S
C341 N340 1.355 . S
C341 C342 1.363 . S
C341 H353 0.929 . S
C342 C341 1.363 . S
C342 N344 1.375 . S
C342 H360 0.931 . S
C343 N340 1.311 . S
C343 N344 1.347 . S
C343 H354 0.929 . S
N344 C342 1.375 . S
N344 C343 1.347 . S
C345 C348 1.365 . S
C345 N350 1.328 . S
C345 H351 0.929 . S
C346 C347 1.362 . S
C346 C349 1.378 . S
C346 H361 0.929 . S
C347 C346 1.362 . S
C347 C348 1.366 . S
C348 C345 1.365 . S
C348 C347 1.366 . S
C348 H362 0.930 . S
C349 C346 1.378 . S
C349 N350 1.315 . S
C349 H352 0.930 . S
N350 Co330 2.194 . S
N350 C345 1.328 . S
N350 C349 1.315 . S
H351 C345 0.929 . S
H352 C349 0.930 . S
H353 C341 0.929 . S
H354 C343 0.929 . S
O355 Co330 2.351 . S
O355 C358 1.244 . S
O356 Co330 2.155 . S
O356 C358 1.240 . S
O357 Co330 2.096 . S
O357 C338 1.247 . S
C358 O355 1.244 . S
C358 O356 1.240 . S
H359 C333 0.931 . S
H360 C342 0.931 . S
H361 C346 0.929 . S
H362 C348 0.930 . S
Co363 N367 2.148 . S
Co363 N373 2.128 1_455 S
Co363 N383 2.194 1_455 S
Co363 O388 2.351 1_455 S
Co363 O389 2.155 . S
Co363 O390 2.096 . S
C364 N367 1.301 . S
C364 N368 1.328 . S
C364 H369 0.930 . S
C365 C366 1.333 . S
C365 N367 1.317 . S
C365 H370 0.930 . S
C366 C365 1.333 . S
C366 N368 1.350 . S
C366 H392 0.931 . S
N367 Co363 2.148 . S
N367 C364 1.301 . S
N367 C365 1.317 . S
N368 C364 1.328 . S
N368 C366 1.350 . S
H369 C364 0.930 . S
H370 C365 0.930 . S
C371 O372 1.224 . S
C371 O390 1.247 . S
O372 C371 1.224 . S
N373 Co363 2.128 1_655 S
N373 C374 1.355 . S
N373 C376 1.311 . S
C374 N373 1.355 . S
C374 C375 1.363 . S
C374 H386 0.929 . S
C375 C374 1.363 . S
C375 N377 1.375 . S
C375 H393 0.931 . S
C376 N373 1.311 . S
C376 N377 1.347 . S
C376 H387 0.929 1_655 S
N377 C375 1.375 . S
N377 C376 1.347 . S
C378 C381 1.365 . S
C378 N383 1.328 . S
C378 H384 0.929 . S
C379 C380 1.362 . S
C379 C382 1.378 . S
C379 H394 0.929 . S
C380 C379 1.362 . S
C380 C381 1.366 . S
C381 C378 1.365 . S
C381 C380 1.366 . S
C381 H395 0.930 . S
C382 C379 1.378 . S
C382 N383 1.315 . S
C382 H385 0.930 . S
N383 Co363 2.194 1_655 S
N383 C378 1.328 . S
N383 C382 1.315 . S
H384 C378 0.929 . S
H385 C382 0.930 . S
H386 C374 0.929 . S
H387 C376 0.929 1_455 S
O388 Co363 2.351 1_655 S
O388 C391 1.244 1_655 S
O389 Co363 2.155 . S
O389 C391 1.240 . S
O390 Co363 2.096 . S
O390 C371 1.247 . S
C391 O388 1.244 1_455 S
C391 O389 1.240 . S
H392 C366 0.931 . S
H393 C375 0.931 . S
H394 C379 0.929 . S
H395 C381 0.930 . S
H396 C414 0.951 . S
H397 C416 0.951 . S
H398 C418 0.950 . S
H399 C419 0.950 . S
H400 C421 0.950 . S
H401 C424 0.950 . S
H402 C425 0.950 1_565 S
H403 C427 0.950 . S
H404 C428 0.950 . S
H405 C429 0.951 . S
H406 C431 0.951 . S
H407 C433 0.950 . S
H408 C434 0.950 . S
H409 C436 0.950 . S
H410 C439 0.950 . S
H411 C440 0.950 . S
H412 C442 0.950 . S
H413 C443 0.950 . S
C414 H396 0.951 . S
C414 C415 1.366 . S
C414 C416 1.388 . S
C415 C414 1.366 . S
C415 C419 1.385 . S
C416 H397 0.951 . S
C416 C414 1.388 . S
C416 C417 1.366 . S
C417 C416 1.366 . S
C417 C418 1.414 . S
C417 C420 1.499 . S
C418 H398 0.950 . S
C418 C417 1.414 . S
C418 C419 1.374 . S
C419 H399 0.950 . S
C419 C415 1.385 . S
C419 C418 1.374 . S
C420 C417 1.499 . S
C420 C421 1.373 1_556 S
C420 C422 1.389 1_565 S
C421 H400 0.950 . S
C421 C420 1.373 1_554 S
C421 C437 1.377 . S
C422 C420 1.389 1_545 S
C422 C423 1.524 . S
C422 C436 1.377 . S
C423 C422 1.524 . S
C423 C424 1.397 1_545 S
C423 C428 1.363 . S
C424 H401 0.950 . S
C424 C423 1.397 1_565 S
C424 C425 1.334 1_565 S
C425 H402 0.950 1_545 S
C425 C424 1.334 1_545 S
C425 C426 1.287 . S
C426 C425 1.287 . S
C426 C427 1.524 . S
C426 H445 0.913 . S
C427 H403 0.950 . S
C427 C426 1.524 . S
C427 C428 1.415 . S
C428 H404 0.950 . S
C428 C423 1.363 . S
C428 C427 1.415 . S
C429 H405 0.951 . S
C429 C430 1.366 . S
C429 C431 1.388 . S
C430 C429 1.366 . S
C430 C434 1.385 . S
C431 H406 0.951 . S
C431 C429 1.388 . S
C431 C432 1.366 . S
C432 C431 1.366 . S
C432 C433 1.414 . S
C432 C435 1.499 . S
C433 H407 0.950 . S
C433 C432 1.414 . S
C433 C434 1.374 . S
C434 H408 0.950 . S
C434 C430 1.385 . S
C434 C433 1.374 . S
C435 C432 1.499 . S
C435 C436 1.373 1_554 S
C435 C437 1.389 1_545 S
C436 H409 0.950 . S
C436 C422 1.377 . S
C436 C435 1.373 1_556 S
C437 C421 1.377 . S
C437 C435 1.389 1_565 S
C437 C438 1.524 . S
C438 C437 1.524 . S
C438 C439 1.397 1_565 S
C438 C443 1.363 . S
C439 H410 0.950 . S
C439 C438 1.397 1_545 S
C439 C440 1.334 . S
C440 H411 0.950 . S
C440 C439 1.334 . S
C440 C441 1.287 1_545 S
C441 C440 1.287 1_565 S
C441 C442 1.524 . S
C441 H444 0.999 . S
C442 H412 0.950 . S
C442 C441 1.524 . S
C442 C443 1.415 . S
C443 H413 0.950 . S
C443 C438 1.363 . S
C443 C442 1.415 . S
H444 C441 0.999 . S
H445 C426 0.913 . S
H446 C464 0.951 . S
H447 C466 0.951 . S
H448 C468 0.950 . S
H449 C469 0.950 . S
H450 C471 0.950 . S
H451 C474 0.950 . S
H452 C475 0.950 1_455 S
H453 C477 0.950 . S
H454 C478 0.950 . S
H455 C479 0.951 . S
H456 C481 0.951 . S
H457 C483 0.950 . S
H458 C484 0.950 . S
H459 C486 0.950 . S
H460 C489 0.950 . S
H461 C490 0.950 . S
H462 C492 0.950 . S
H463 C493 0.950 . S
C464 H446 0.951 . S
C464 C465 1.366 . S
C464 C466 1.388 . S
C465 C464 1.366 . S
C465 C469 1.385 . S
C466 H447 0.951 . S
C466 C464 1.388 . S
C466 C467 1.366 . S
C467 C466 1.366 . S
C467 C468 1.414 . S
C467 C470 1.499 . S
C468 H448 0.950 . S
C468 C467 1.414 . S
C468 C469 1.374 . S
C469 H449 0.950 . S
C469 C465 1.385 . S
C469 C468 1.374 . S
C470 C467 1.499 . S
C470 C471 1.373 . S
C470 C472 1.389 . S
C471 H450 0.950 . S
C471 C470 1.373 . S
C471 C487 1.377 . S
C472 C470 1.389 . S
C472 C473 1.524 . S
C472 C486 1.377 . S
C473 C472 1.524 . S
C473 C474 1.397 . S
C473 C478 1.363 . S
C474 H451 0.950 . S
C474 C473 1.397 . S
C474 C475 1.334 . S
C475 H452 0.950 1_655 S
C475 C474 1.334 . S
C475 C476 1.287 . S
C476 C475 1.287 . S
C476 C477 1.524 . S
C476 H495 0.913 1_655 S
C477 H453 0.950 . S
C477 C476 1.524 . S
C477 C478 1.415 . S
C478 H454 0.950 . S
C478 C473 1.363 . S
C478 C477 1.415 . S
C479 H455 0.951 . S
C479 C480 1.366 . S
C479 C481 1.388 . S
C480 C479 1.366 . S
C480 C484 1.385 . S
C481 H456 0.951 . S
C481 C479 1.388 . S
C481 C482 1.366 . S
C482 C481 1.366 . S
C482 C483 1.414 . S
C482 C485 1.499 . S
C483 H457 0.950 . S
C483 C482 1.414 . S
C483 C484 1.374 . S
C484 H458 0.950 . S
C484 C480 1.385 . S
C484 C483 1.374 . S
C485 C482 1.499 . S
C485 C486 1.373 . S
C485 C487 1.389 . S
C486 H459 0.950 . S
C486 C472 1.377 . S
C486 C485 1.373 . S
C487 C471 1.377 . S
C487 C485 1.389 . S
C487 C488 1.524 . S
C488 C487 1.524 . S
C488 C489 1.397 . S
C488 C493 1.363 . S
C489 H460 0.950 . S
C489 C488 1.397 . S
C489 C490 1.334 . S
C490 H461 0.950 . S
C490 C489 1.334 . S
C490 C491 1.287 . S
C491 C490 1.287 . S
C491 C492 1.524 . S
C491 H494 0.999 . S
C492 H462 0.950 . S
C492 C491 1.524 . S
C492 C493 1.415 . S
C493 H463 0.950 . S
C493 C488 1.363 . S
C493 C492 1.415 . S
H494 C491 0.999 . S
H495 C476 0.913 1_455 S
H496 C514 0.951 . S
H497 C516 0.951 . S
H498 C518 0.950 . S
H499 C519 0.950 . S
H500 C521 0.950 . S
H501 C524 0.950 . S
H502 C525 0.950 . S
H503 C527 0.950 . S
H504 C528 0.950 . S
H505 C529 0.951 . S
H506 C531 0.951 . S
H507 C533 0.950 . S
H508 C534 0.950 . S
H509 C536 0.950 . S
H510 C539 0.950 . S
H511 C540 0.950 . S
H512 C542 0.950 1_545 S
H513 C543 0.950 . S
C514 H496 0.951 . S
C514 C515 1.366 . S
C514 C516 1.388 . S
C515 C514 1.366 . S
C515 C519 1.385 . S
C516 H497 0.951 . S
C516 C514 1.388 . S
C516 C517 1.366 . S
C517 C516 1.366 . S
C517 C518 1.414 . S
C517 C520 1.499 . S
C518 H498 0.950 . S
C518 C517 1.414 . S
C518 C519 1.374 . S
C519 H499 0.950 . S
C519 C515 1.385 . S
C519 C518 1.374 . S
C520 C517 1.499 . S
C520 C521 1.373 . S
C520 C522 1.389 . S
C521 H500 0.950 . S
C521 C520 1.373 . S
C521 C537 1.377 1_655 S
C522 C520 1.389 . S
C522 C523 1.524 . S
C522 C536 1.377 1_655 S
C523 C522 1.524 . S
C523 C524 1.397 . S
C523 C528 1.363 . S
C524 H501 0.950 . S
C524 C523 1.397 . S
C524 C525 1.334 . S
C525 H502 0.950 . S
C525 C524 1.334 . S
C525 C526 1.287 . S
C526 C525 1.287 . S
C526 C527 1.524 . S
C526 H545 0.913 . S
C527 H503 0.950 . S
C527 C526 1.524 . S
C527 C528 1.415 . S
C528 H504 0.950 . S
C528 C523 1.363 . S
C528 C527 1.415 . S
C529 H505 0.951 . S
C529 C530 1.366 . S
C529 C531 1.388 . S
C530 C529 1.366 . S
C530 C534 1.385 . S
C531 H506 0.951 . S
C531 C529 1.388 . S
C531 C532 1.366 . S
C532 C531 1.366 . S
C532 C533 1.414 . S
C532 C535 1.499 . S
C533 H507 0.950 . S
C533 C532 1.414 . S
C533 C534 1.374 . S
C534 H508 0.950 . S
C534 C530 1.385 . S
C534 C533 1.374 . S
C535 C532 1.499 . S
C535 C536 1.373 . S
C535 C537 1.389 . S
C536 H509 0.950 . S
C536 C522 1.377 1_455 S
C536 C535 1.373 . S
C537 C521 1.377 1_455 S
C537 C535 1.389 . S
C537 C538 1.524 . S
C538 C537 1.524 . S
C538 C539 1.397 . S
C538 C543 1.363 . S
C539 H510 0.950 . S
C539 C538 1.397 . S
C539 C540 1.334 . S
C540 H511 0.950 . S
C540 C539 1.334 . S
C540 C541 1.287 . S
C541 C540 1.287 . S
C541 C542 1.524 . S
C541 H544 0.999 . S
C542 H512 0.950 1_565 S
C542 C541 1.524 . S
C542 C543 1.415 . S
C543 H513 0.950 . S
C543 C538 1.363 . S
C543 C542 1.415 . S
H544 C541 0.999 . S
H545 C526 0.913 . S
H546 C564 0.951 . S
H547 C566 0.951 . S
H548 C568 0.950 . S
H549 C569 0.950 . S
H550 C571 0.950 . S
H551 C574 0.950 . S
H552 C575 0.950 . S
H553 C577 0.950 . S
H554 C578 0.950 1_565 S
H555 C579 0.951 . S
H556 C581 0.951 . S
H557 C583 0.950 . S
H558 C584 0.950 . S
H559 C586 0.950 . S
H560 C589 0.950 . S
H561 C590 0.950 . S
H562 C592 0.950 . S
H563 C593 0.950 1_545 S
C564 H546 0.951 . S
C564 C565 1.366 . S
C564 C566 1.388 . S
C565 C564 1.366 . S
C565 C569 1.385 . S
C566 H547 0.951 . S
C566 C564 1.388 . S
C566 C567 1.366 . S
C567 C566 1.366 . S
C567 C568 1.414 . S
C567 C570 1.499 . S
C568 H548 0.950 . S
C568 C567 1.414 . S
C568 C569 1.374 . S
C569 H549 0.950 . S
C569 C565 1.385 . S
C569 C568 1.374 . S
C570 C567 1.499 . S
C570 C571 1.373 . S
C570 C572 1.389 . S
C571 H550 0.950 . S
C571 C570 1.373 . S
C571 C587 1.377 1_545 S
C572 C570 1.389 . S
C572 C573 1.524 . S
C572 C586 1.377 1_545 S
C573 C572 1.524 . S
C573 C574 1.397 . S
C573 C578 1.363 . S
C574 H551 0.950 . S
C574 C573 1.397 . S
C574 C575 1.334 . S
C575 H552 0.950 . S
C575 C574 1.334 . S
C575 C576 1.287 . S
C576 C575 1.287 . S
C576 C577 1.524 . S
C576 H595 0.913 . S
C577 H553 0.950 . S
C577 C576 1.524 . S
C577 C578 1.415 . S
C578 H554 0.950 1_545 S
C578 C573 1.363 . S
C578 C577 1.415 . S
C579 H555 0.951 . S
C579 C580 1.366 . S
C579 C581 1.388 . S
C580 C579 1.366 . S
C580 C584 1.385 . S
C581 H556 0.951 . S
C581 C579 1.388 . S
C581 C582 1.366 . S
C582 C581 1.366 . S
C582 C583 1.414 . S
C582 C585 1.499 . S
C583 H557 0.950 . S
C583 C582 1.414 . S
C583 C584 1.374 . S
C584 H558 0.950 . S
C584 C580 1.385 . S
C584 C583 1.374 . S
C585 C582 1.499 . S
C585 C586 1.373 . S
C585 C587 1.389 . S
C586 H559 0.950 . S
C586 C572 1.377 1_565 S
C586 C585 1.373 . S
C587 C571 1.377 1_565 S
C587 C585 1.389 . S
C587 C588 1.524 . S
C588 C587 1.524 . S
C588 C589 1.397 . S
C588 C593 1.363 . S
C589 H560 0.950 . S
C589 C588 1.397 . S
C589 C590 1.334 . S
C590 H561 0.950 . S
C590 C589 1.334 . S
C590 C591 1.287 . S
C591 C590 1.287 . S
C591 C592 1.524 . S
C591 H594 0.999 . S
C592 H562 0.950 . S
C592 C591 1.524 . S
C592 C593 1.415 . S
C593 H563 0.950 1_565 S
C593 C588 1.363 . S
C593 C592 1.415 . S
H594 C591 0.999 . S
H595 C576 0.913 . S
H596 C614 0.951 . S
H597 C616 0.951 . S
H598 C618 0.950 . S
H599 C619 0.950 . S
H600 C621 0.950 . S
H601 C624 0.950 . S
H602 C625 0.950 . S
H603 C627 0.950 . S
H604 C628 0.950 . S
H605 C629 0.951 . S
H606 C631 0.951 . S
H607 C633 0.950 . S
H608 C634 0.950 . S
H609 C636 0.950 . S
H610 C639 0.950 . S
H611 C640 0.950 . S
H612 C642 0.950 . S
H613 C643 0.950 . S
C614 H596 0.951 . S
C614 C615 1.366 . S
C614 C616 1.388 . S
C615 C614 1.366 . S
C615 C619 1.385 . S
C616 H597 0.951 . S
C616 C614 1.388 . S
C616 C617 1.366 . S
C617 C616 1.366 . S
C617 C618 1.414 . S
C617 C620 1.499 . S
C618 H598 0.950 . S
C618 C617 1.414 . S
C618 C619 1.374 . S
C619 H599 0.950 . S
C619 C615 1.385 . S
C619 C618 1.374 . S
C620 C617 1.499 . S
C620 C621 1.373 . S
C620 C622 1.389 . S
C621 H600 0.950 . S
C621 C620 1.373 . S
C621 C637 1.377 . S
C622 C620 1.389 . S
C622 C623 1.524 . S
C622 C636 1.377 . S
C623 C622 1.524 . S
C623 C624 1.397 . S
C623 C628 1.363 . S
C624 H601 0.950 . S
C624 C623 1.397 . S
C624 C625 1.334 . S
C625 H602 0.950 . S
C625 C624 1.334 . S
C625 C626 1.287 . S
C626 C625 1.287 . S
C626 C627 1.524 . S
C626 H645 0.913 . S
C627 H603 0.950 . S
C627 C626 1.524 . S
C627 C628 1.415 . S
C628 H604 0.950 . S
C628 C623 1.363 . S
C628 C627 1.415 . S
C629 H605 0.951 . S
C629 C630 1.366 . S
C629 C631 1.388 . S
C630 C629 1.366 . S
C630 C634 1.385 . S
C631 H606 0.951 . S
C631 C629 1.388 . S
C631 C632 1.366 . S
C632 C631 1.366 . S
C632 C633 1.414 . S
C632 C635 1.499 . S
C633 H607 0.950 . S
C633 C632 1.414 . S
C633 C634 1.374 . S
C634 H608 0.950 . S
C634 C630 1.385 . S
C634 C633 1.374 . S
C635 C632 1.499 . S
C635 C636 1.373 . S
C635 C637 1.389 . S
C636 H609 0.950 . S
C636 C622 1.377 . S
C636 C635 1.373 . S
C637 C621 1.377 . S
C637 C635 1.389 . S
C637 C638 1.524 . S
C638 C637 1.524 . S
C638 C639 1.397 . S
C638 C643 1.363 . S
C639 H610 0.950 . S
C639 C638 1.397 . S
C639 C640 1.334 . S
C640 H611 0.950 . S
C640 C639 1.334 . S
C640 C641 1.287 1_455 S
C641 C640 1.287 1_655 S
C641 C642 1.524 . S
C641 H644 0.999 . S
C642 H612 0.950 . S
C642 C641 1.524 . S
C642 C643 1.415 1_655 S
C643 H613 0.950 . S
C643 C638 1.363 . S
C643 C642 1.415 1_455 S
H644 C641 0.999 . S
H645 C626 0.913 . S
H646 C664 0.951 . S
H647 C666 0.951 . S
H648 C668 0.950 . S
H649 C669 0.950 . S
H650 C671 0.950 . S
H651 C674 0.950 . S
H652 C675 0.950 1_565 S
H653 C677 0.950 . S
H654 C678 0.955 . S
H655 C679 0.951 . S
H656 C681 0.951 . S
H657 C683 0.950 . S
H658 C684 0.950 . S
H659 C686 0.950 . S
H660 C689 0.950 . S
H661 C690 0.950 . S
H662 C692 0.950 . S
H663 C693 0.962 . S
C664 H646 0.951 . S
C664 C665 1.366 . S
C664 C666 1.388 . S
C665 C664 1.366 . S
C665 C669 1.385 . S
C666 H647 0.951 . S
C666 C664 1.388 . S
C666 C667 1.366 . S
C667 C666 1.366 . S
C667 C668 1.414 . S
C667 C670 1.499 . S
C668 H648 0.950 . S
C668 C667 1.414 . S
C668 C669 1.374 . S
C669 H649 0.950 . S
C669 C665 1.385 . S
C669 C668 1.374 . S
C670 C667 1.499 . S
C670 C671 1.373 . S
C670 C672 1.389 . S
C671 H650 0.950 . S
C671 C670 1.373 . S
C671 C687 1.377 1_655 S
C672 C670 1.389 . S
C672 C673 1.524 . S
C672 C686 1.377 1_655 S
C673 C672 1.524 . S
C673 C674 1.397 . S
C673 C678 1.363 . S
C674 H651 0.950 . S
C674 C673 1.397 . S
C674 C675 1.334 . S
C675 H652 0.950 1_545 S
C675 C674 1.334 . S
C675 C676 1.287 1_545 S
C676 C675 1.287 1_565 S
C676 C677 1.524 . S
C676 H695 0.913 . S
C677 H653 0.950 . S
C677 C676 1.524 . S
C677 C678 1.415 1_565 S
C678 H654 0.955 . S
C678 C673 1.363 . S
C678 C677 1.415 1_545 S
C679 H655 0.951 . S
C679 C680 1.366 . S
C679 C681 1.388 . S
C680 C679 1.366 . S
C680 C684 1.385 . S
C681 H656 0.951 . S
C681 C679 1.388 . S
C681 C682 1.366 . S
C682 C681 1.366 . S
C682 C683 1.414 . S
C682 C685 1.499 . S
C683 H657 0.950 . S
C683 C682 1.414 . S
C683 C684 1.374 . S
C684 H658 0.950 . S
C684 C680 1.385 . S
C684 C683 1.374 . S
C685 C682 1.499 . S
C685 C686 1.373 . S
C685 C687 1.389 . S
C686 H659 0.950 . S
C686 C672 1.377 1_455 S
C686 C685 1.373 . S
C687 C671 1.377 1_455 S
C687 C685 1.389 . S
C687 C688 1.524 . S
C688 C687 1.524 . S
C688 C689 1.397 . S
C688 C693 1.363 . S
C689 H660 0.950 . S
C689 C688 1.397 . S
C689 C690 1.334 . S
C690 H661 0.950 . S
C690 C689 1.334 . S
C690 C691 1.287 . S
C691 C690 1.287 . S
C691 C692 1.524 . S
C691 H694 0.999 . S
C692 H662 0.950 . S
C692 C691 1.524 . S
C692 C693 1.415 . S
C693 H663 0.962 . S
C693 C688 1.363 . S
C693 C692 1.415 . S
H694 C691 0.999 . S
H695 C676 0.913 . S
H696 C714 0.951 1_655 S
H697 C716 0.951 1_655 S
H698 C718 0.950 . S
H699 C719 0.950 . S
H700 C721 0.952 . S
H701 C724 0.950 . S
H702 C725 0.950 . S
H703 C727 0.950 . S
H704 C728 0.950 . S
H705 C729 0.951 . S
H706 C731 0.951 . S
H707 C733 0.950 1_655 S
H708 C734 0.950 1_655 S
H709 C736 0.950 . S
H710 C739 0.950 . S
H711 C740 0.950 . S
H712 C742 0.950 1_455 S
H713 C743 0.950 . S
C714 H696 0.951 1_455 S
C714 C715 1.366 . S
C714 C716 1.388 . S
C715 C714 1.366 . S
C715 C719 1.385 . S
C716 H697 0.951 1_455 S
C716 C714 1.388 . S
C716 C717 1.366 . S
C717 C716 1.366 . S
C717 C718 1.414 . S
C717 C720 1.499 . S
C718 H698 0.950 . S
C718 C717 1.414 . S
C718 C719 1.374 . S
C719 H699 0.950 . S
C719 C715 1.385 . S
C719 C718 1.374 . S
C720 C717 1.499 . S
C720 C721 1.373 . S
C720 C722 1.389 . S
C721 H700 0.952 . S
C721 C720 1.373 . S
C721 C737 1.377 1_545 S
C722 C720 1.389 . S
C722 C723 1.524 . S
C722 C736 1.377 . S
C723 C722 1.524 . S
C723 C724 1.397 . S
C723 C728 1.363 . S
C724 H701 0.950 . S
C724 C723 1.397 . S
C724 C725 1.334 . S
C725 H702 0.950 . S
C725 C724 1.334 . S
C725 C726 1.287 . S
C726 C725 1.287 . S
C726 C727 1.524 . S
C726 H745 0.913 . S
C727 H703 0.950 . S
C727 C726 1.524 . S
C727 C728 1.415 . S
C728 H704 0.950 . S
C728 C723 1.363 . S
C728 C727 1.415 . S
C729 H705 0.951 . S
C729 C730 1.366 . S
C729 C731 1.388 . S
C730 C729 1.366 . S
C730 C734 1.385 . S
C731 H706 0.951 . S
C731 C729 1.388 . S
C731 C732 1.366 . S
C732 C731 1.366 . S
C732 C733 1.414 . S
C732 C735 1.499 . S
C733 H707 0.950 1_455 S
C733 C732 1.414 . S
C733 C734 1.374 . S
C734 H708 0.950 1_455 S
C734 C730 1.385 . S
C734 C733 1.374 . S
C735 C732 1.499 . S
C735 C736 1.373 1_565 S
C735 C737 1.389 . S
C736 H709 0.950 . S
C736 C722 1.377 . S
C736 C735 1.373 1_545 S
C737 C721 1.377 1_565 S
C737 C735 1.389 . S
C737 C738 1.524 1_455 S
C738 C737 1.524 1_655 S
C738 C739 1.397 . S
C738 C743 1.363 1_655 S
C739 H710 0.950 . S
C739 C738 1.397 . S
C739 C740 1.334 . S
C740 H711 0.950 . S
C740 C739 1.334 . S
C740 C741 1.287 . S
C741 C740 1.287 . S
C741 C742 1.524 . S
C741 H744 0.999 . S
C742 H712 0.950 1_655 S
C742 C741 1.524 . S
C742 C743 1.415 1_655 S
C743 H713 0.950 . S
C743 C738 1.363 1_455 S
C743 C742 1.415 1_455 S
H744 C741 0.999 . S
H745 C726 0.913 . S
H746 C764 0.951 . S
H747 C766 0.951 . S
H748 C768 0.950 . S
H749 C769 0.950 . S
H750 C771 0.950 . S
H751 C774 0.950 . S
H752 C775 0.950 . S
H753 C777 0.950 . S
H754 C778 0.950 . S
H755 C779 0.951 . S
H756 C781 0.951 . S
H757 C783 0.950 . S
H758 C784 0.950 . S
H759 C786 0.950 . S
H760 C789 0.950 . S
H761 C790 0.950 . S
H762 C792 0.950 . S
H763 C793 0.950 . S
C764 H746 0.951 . S
C764 C765 1.366 . S
C764 C766 1.388 . S
C765 C764 1.366 . S
C765 C769 1.385 . S
C766 H747 0.951 . S
C766 C764 1.388 . S
C766 C767 1.366 . S
C767 C766 1.366 . S
C767 C768 1.414 . S
C767 C770 1.499 . S
C768 H748 0.950 . S
C768 C767 1.414 . S
C768 C769 1.374 . S
C769 H749 0.950 . S
C769 C765 1.385 . S
C769 C768 1.374 . S
C770 C767 1.499 . S
C770 C771 1.373 1_545 S
C770 C772 1.389 1_655 S
C771 H750 0.950 . S
C771 C770 1.373 1_565 S
C771 C787 1.377 1_655 S
C772 C770 1.389 1_455 S
C772 C773 1.524 . S
C772 C786 1.377 . S
C773 C772 1.524 . S
C773 C774 1.397 . S
C773 C778 1.363 1_455 S
C774 H751 0.950 . S
C774 C773 1.397 . S
C774 C775 1.334 . S
C775 H752 0.950 . S
C775 C774 1.334 . S
C775 C776 1.287 . S
C776 C775 1.287 . S
C776 C777 1.524 1_455 S
C776 H795 0.913 . S
C777 H753 0.950 . S
C777 C776 1.524 1_655 S
C777 C778 1.415 . S
C778 H754 0.950 . S
C778 C773 1.363 1_655 S
C778 C777 1.415 . S
C779 H755 0.951 . S
C779 C780 1.366 . S
C779 C781 1.388 . S
C780 C779 1.366 . S
C780 C784 1.385 . S
C781 H756 0.951 . S
C781 C779 1.388 . S
C781 C782 1.366 . S
C782 C781 1.366 . S
C782 C783 1.414 . S
C782 C785 1.499 . S
C783 H757 0.950 . S
C783 C782 1.414 . S
C783 C784 1.374 . S
C784 H758 0.950 . S
C784 C780 1.385 . S
C784 C783 1.374 . S
C785 C782 1.499 . S
C785 C786 1.373 . S
C785 C787 1.389 1_545 S
C786 H759 0.950 . S
C786 C772 1.377 . S
C786 C785 1.373 . S
C787 C771 1.377 1_455 S
C787 C785 1.389 1_565 S
C787 C788 1.524 . S
C788 C787 1.524 . S
C788 C789 1.397 . S
C788 C793 1.363 . S
C789 H760 0.950 . S
C789 C788 1.397 . S
C789 C790 1.334 . S
C790 H761 0.950 . S
C790 C789 1.334 . S
C790 C791 1.287 . S
C791 C790 1.287 . S
C791 C792 1.524 . S
C791 H794 0.999 . S
C792 H762 0.950 . S
C792 C791 1.524 . S
C792 C793 1.415 . S
C793 H763 0.950 . S
C793 C788 1.363 . S
C793 C792 1.415 . S
H794 C791 0.999 . S
H795 C776 0.913 . S
H796 C814 0.951 . S
H797 C816 0.951 . S
H798 C818 0.950 . S
H799 C819 0.950 . S
H800 C821 0.950 . S
H801 C824 0.950 1_545 S
H802 C825 0.950 . S
H803 C827 0.950 1_655 S
H804 C828 0.950 . S
H805 C829 0.951 . S
H806 C831 0.951 . S
H807 C833 0.950 . S
H808 C834 0.950 . S
H809 C836 0.950 . S
H810 C839 0.950 . S
H811 C840 0.950 . S
H812 C842 0.950 . S
H813 C843 0.950 1_455 S
C814 H796 0.951 . S
C814 C815 1.366 . S
C814 C816 1.388 . S
C815 C814 1.366 . S
C815 C819 1.385 . S
C816 H797 0.951 . S
C816 C814 1.388 . S
C816 C817 1.366 . S
C817 C816 1.366 . S
C817 C818 1.414 . S
C817 C820 1.499 . S
C818 H798 0.950 . S
C818 C817 1.414 . S
C818 C819 1.374 . S
C819 H799 0.950 . S
C819 C815 1.385 . S
C819 C818 1.374 . S
C820 C817 1.499 . S
C820 C821 1.373 . S
C820 C822 1.405 . S
C821 H800 0.950 . S
C821 C820 1.373 . S
C821 C837 1.377 1_455 S
C822 C820 1.405 . S
C822 C823 1.519 1_545 S
C822 C836 1.366 1_445 S
C823 C822 1.519 1_565 S
C823 C824 1.397 . S
C823 C828 1.363 1_455 S
C824 H801 0.950 1_565 S
C824 C823 1.397 . S
C824 C825 1.334 . S
C825 H802 0.950 . S
C825 C824 1.334 . S
C825 C826 1.287 . S
C826 C825 1.287 . S
C826 C827 1.524 . S
C826 H845 0.913 . S
C827 H803 0.950 1_455 S
C827 C826 1.524 . S
C827 C828 1.415 1_455 S
C828 H804 0.950 . S
C828 C823 1.363 1_655 S
C828 C827 1.415 1_655 S
C829 H805 0.951 . S
C829 C830 1.366 . S
C829 C831 1.388 . S
C830 C829 1.366 . S
C830 C834 1.385 . S
C831 H806 0.951 . S
C831 C829 1.388 . S
C831 C832 1.366 . S
C832 C831 1.366 . S
C832 C833 1.414 . S
C832 C835 1.499 . S
C833 H807 0.950 . S
C833 C832 1.414 . S
C833 C834 1.374 . S
C834 H808 0.950 . S
C834 C830 1.385 . S
C834 C833 1.374 . S
C835 C832 1.499 . S
C835 C836 1.373 . S
C835 C837 1.389 1_565 S
C836 H809 0.950 . S
C836 C822 1.366 1_665 S
C836 C835 1.373 . S
C837 C821 1.377 1_655 S
C837 C835 1.389 1_545 S
C837 C838 1.524 . S
C838 C837 1.524 . S
C838 C839 1.397 . S
C838 C843 1.363 . S
C839 H810 0.950 . S
C839 C838 1.397 . S
C839 C840 1.334 . S
C840 H811 0.950 . S
C840 C839 1.334 . S
C840 C841 1.287 . S
C841 C840 1.287 . S
C841 C842 1.524 . S
C841 H844 0.999 . S
C842 H812 0.950 . S
C842 C841 1.524 . S
C842 C843 1.415 . S
C843 H813 0.950 1_655 S
C843 C838 1.363 . S
C843 C842 1.415 . S
H844 C841 0.999 . S
H845 C826 0.913 . S
H846 C864 0.951 . S
H847 C866 0.951 . S
H848 C868 0.950 . S
H849 C869 0.950 . S
H850 C871 0.950 . S
H851 C874 0.950 . S
H852 C875 0.950 . S
H853 C877 0.950 . S
H854 C878 0.950 . S
H855 C879 0.951 . S
H856 C881 0.951 . S
H857 C883 0.950 . S
H858 C884 0.950 . S
H859 C886 0.950 . S
H860 C889 0.950 . S
H861 C890 0.950 . S
H862 C892 0.950 . S
H863 C893 0.950 . S
C864 H846 0.951 . S
C864 C865 1.366 . S
C864 C866 1.388 . S
C865 C864 1.366 . S
C865 C869 1.385 . S
C866 H847 0.951 . S
C866 C864 1.388 . S
C866 C867 1.366 . S
C867 C866 1.366 . S
C867 C868 1.414 . S
C867 C870 1.499 . S
C868 H848 0.950 . S
C868 C867 1.414 . S
C868 C869 1.374 . S
C869 H849 0.950 . S
C869 C865 1.385 . S
C869 C868 1.374 . S
C870 C867 1.499 . S
C870 C871 1.373 1_655 S
C870 C872 1.389 1_545 S
C871 H850 0.950 . S
C871 C870 1.373 1_455 S
C871 C887 1.377 1_545 S
C872 C870 1.389 1_565 S
C872 C873 1.524 . S
C872 C886 1.377 . S
C873 C872 1.524 . S
C873 C874 1.397 . S
C873 C878 1.363 1_565 S
C874 H851 0.950 . S
C874 C873 1.397 . S
C874 C875 1.334 . S
C875 H852 0.950 . S
C875 C874 1.334 . S
C875 C876 1.287 . S
C876 C875 1.287 . S
C876 C877 1.524 1_565 S
C876 H895 0.913 . S
C877 H853 0.950 . S
C877 C876 1.524 1_545 S
C877 C878 1.415 . S
C878 H854 0.950 . S
C878 C873 1.363 1_545 S
C878 C877 1.415 . S
C879 H855 0.951 . S
C879 C880 1.366 . S
C879 C881 1.388 . S
C880 C879 1.366 . S
C880 C884 1.385 . S
C881 H856 0.951 . S
C881 C879 1.388 . S
C881 C882 1.366 . S
C882 C881 1.366 . S
C882 C883 1.414 . S
C882 C885 1.499 . S
C883 H857 0.950 . S
C883 C882 1.414 . S
C883 C884 1.374 . S
C884 H858 0.950 . S
C884 C880 1.385 . S
C884 C883 1.374 . S
C885 C882 1.499 . S
C885 C886 1.373 . S
C885 C887 1.389 1_655 S
C886 H859 0.950 . S
C886 C872 1.377 . S
C886 C885 1.373 . S
C887 C871 1.377 1_565 S
C887 C885 1.389 1_455 S
C887 C888 1.524 . S
C888 C887 1.524 . S
C888 C889 1.397 . S
C888 C893 1.363 . S
C889 H860 0.950 . S
C889 C888 1.397 . S
C889 C890 1.334 . S
C890 H861 0.950 . S
C890 C889 1.334 . S
C890 C891 1.287 . S
C891 C890 1.287 . S
C891 C892 1.524 . S
C891 H894 0.999 . S
C892 H862 0.950 . S
C892 C891 1.524 . S
C892 C893 1.415 . S
C893 H863 0.950 . S
C893 C888 1.363 . S
C893 C892 1.415 . S
H894 C891 0.999 . S
H895 C876 0.913 . S
H896 C914 0.951 . S
H897 C916 0.951 . S
H898 C918 0.950 . S
H899 C919 0.950 . S
H900 C921 0.950 . S
H901 C924 0.950 . S
H902 C925 0.975 . S
H903 C927 0.950 . S
H904 C928 0.950 . S
H905 C929 0.951 . S
H906 C931 0.951 . S
H907 C933 0.950 . S
H908 C934 0.950 . S
H909 C936 0.950 1_445 S
H910 C939 0.950 . S
H911 C940 0.950 . S
H912 C942 0.950 . S
H913 C943 0.950 . S
C914 H896 0.951 . S
C914 C915 1.366 1_545 S
C914 C916 1.388 . S
C915 C914 1.366 1_565 S
C915 C919 1.385 . S
C916 H897 0.951 . S
C916 C914 1.388 . S
C916 C917 1.366 1_545 S
C917 C916 1.366 1_565 S
C917 C918 1.414 . S
C917 C920 1.499 . S
C918 H898 0.950 . S
C918 C917 1.414 . S
C918 C919 1.374 . S
C919 H899 0.950 . S
C919 C915 1.385 . S
C919 C918 1.374 . S
C920 C917 1.499 . S
C920 C921 1.373 1_455 S
C920 C922 1.389 . S
C921 H900 0.950 . S
C921 C920 1.373 1_655 S
C921 C937 1.377 . S
C922 C920 1.389 . S
C922 C923 1.524 1_565 S
C922 C936 1.377 1_455 S
C923 C922 1.524 1_545 S
C923 C924 1.397 1_545 S
C923 C928 1.363 . S
C924 H901 0.950 . S
C924 C923 1.397 1_565 S
C924 C925 1.330 . S
C925 H902 0.975 . S
C925 C924 1.330 . S
C925 C926 1.265 1_565 S
C926 C925 1.265 1_545 S
C926 C927 1.524 . S
C926 H945 0.913 . S
C927 H903 0.950 . S
C927 C926 1.524 . S
C927 C928 1.415 . S
C928 H904 0.950 . S
C928 C923 1.363 . S
C928 C927 1.415 . S
C929 H905 0.951 . S
C929 C930 1.366 . S
C929 C931 1.388 . S
C930 C929 1.366 . S
C930 C934 1.385 1_565 S
C931 H906 0.951 . S
C931 C929 1.388 . S
C931 C932 1.366 . S
C932 C931 1.366 . S
C932 C933 1.414 1_565 S
C932 C935 1.499 . S
C933 H907 0.950 . S
C933 C932 1.414 1_545 S
C933 C934 1.374 . S
C934 H908 0.950 . S
C934 C930 1.385 1_545 S
C934 C933 1.374 . S
C935 C932 1.499 . S
C935 C936 1.373 . S
C935 C937 1.389 . S
C936 H909 0.950 1_665 S
C936 C922 1.377 1_655 S
C936 C935 1.373 . S
C937 C921 1.377 . S
C937 C935 1.389 . S
C937 C938 1.524 . S
C938 C937 1.524 . S
C938 C939 1.397 . S
C938 C943 1.363 . S
C939 H910 0.950 . S
C939 C938 1.397 . S
C939 C940 1.334 . S
C940 H911 0.950 . S
C940 C939 1.334 . S
C940 C941 1.287 . S
C941 C940 1.287 . S
C941 C942 1.524 . S
C941 H944 0.999 . S
C942 H912 0.950 . S
C942 C941 1.524 . S
C942 C943 1.415 . S
C943 H913 0.950 . S
C943 C938 1.363 . S
C943 C942 1.415 . S
H944 C941 0.999 . S
H945 C926 0.913 . S
H946 C964 0.951 . S
H947 C966 0.951 . S
H948 C968 0.950 . S
H949 C969 0.950 . S
H950 C971 0.950 . S
H951 C974 0.950 . S
H952 C975 0.950 . S
H953 C977 0.950 . S
H954 C978 0.950 1_455 S
H955 C979 0.951 . S
H956 C981 0.951 . S
H957 C983 0.950 . S
H958 C984 0.950 . S
H959 C986 0.950 . S
H960 C989 0.950 1_545 S
H961 C990 0.950 . S
H962 C992 0.950 . S
H963 C993 0.950 . S
C964 H946 0.951 . S
C964 C965 1.366 . S
C964 C966 1.388 . S
C965 C964 1.366 . S
C965 C969 1.385 . S
C966 H947 0.951 . S
C966 C964 1.388 . S
C966 C967 1.366 . S
C967 C966 1.366 . S
C967 C968 1.414 . S
C967 C970 1.499 . S
C968 H948 0.950 . S
C968 C967 1.414 . S
C968 C969 1.374 . S
C969 H949 0.950 . S
C969 C965 1.385 . S
C969 C968 1.374 . S
C970 C967 1.499 . S
C970 C971 1.373 1_655 S
C970 C972 1.389 . S
C971 H950 0.950 . S
C971 C970 1.373 1_455 S
C971 C987 1.377 . S
C972 C970 1.389 . S
C972 C973 1.524 1_565 S
C972 C986 1.377 1_665 S
C973 C972 1.524 1_545 S
C973 C974 1.397 1_545 S
C973 C978 1.363 . S
C974 H951 0.950 . S
C974 C973 1.397 1_565 S
C974 C975 1.334 . S
C975 H952 0.950 . S
C975 C974 1.334 . S
C975 C976 1.287 1_565 S
C976 C975 1.287 1_545 S
C976 C977 1.524 . S
C976 H995 0.913 . S
C977 H953 0.950 . S
C977 C976 1.524 . S
C977 C978 1.415 . S
C978 H954 0.950 1_655 S
C978 C973 1.363 . S
C978 C977 1.415 . S
C979 H955 0.951 . S
C979 C980 1.366 . S
C979 C981 1.388 . S
C980 C979 1.366 . S
C980 C984 1.385 . S
C981 H956 0.951 . S
C981 C979 1.388 . S
C981 C982 1.366 . S
C982 C981 1.366 . S
C982 C983 1.414 . S
C982 C985 1.499 . S
C983 H957 0.950 . S
C983 C982 1.414 . S
C983 C984 1.374 . S
C984 H958 0.950 . S
C984 C980 1.385 . S
C984 C983 1.374 . S
C985 C982 1.499 . S
C985 C986 1.373 . S
C985 C987 1.389 1_545 S
C986 H959 0.950 . S
C986 C972 1.377 1_445 S
C986 C985 1.373 . S
C987 C971 1.377 . S
C987 C985 1.389 1_565 S
C987 C988 1.524 . S
C988 C987 1.524 . S
C988 C989 1.397 . S
C988 C993 1.363 . S
C989 H960 0.950 1_565 S
C989 C988 1.397 . S
C989 C990 1.334 . S
C990 H961 0.950 . S
C990 C989 1.334 . S
C990 C991 1.287 . S
C991 C990 1.287 . S
C991 C992 1.524 . S
C991 H994 0.999 . S
C992 H962 0.950 . S
C992 C991 1.524 . S
C992 C993 1.415 . S
C993 H963 0.950 . S
C993 C988 1.363 . S
C993 C992 1.415 . S
H994 C991 0.999 . S
H995 C976 0.913 . S
H996 C1014 0.951 . S
H997 C1016 0.951 1_554 S
H998 C1018 0.950 . S
H999 C1019 0.950 . S
H1000 C1021 0.950 . S
H1001 C1024 0.950 . S
H1002 C1025 0.950 . S
H1003 C1027 0.950 . S
H1004 C1028 0.950 . S
H1005 C1029 0.951 . S
H1006 C1031 0.951 1_556 S
H1007 C1033 0.950 . S
H1008 C1034 0.950 . S
H1009 C1036 0.950 . S
H1010 C1039 0.950 . S
H1011 C1040 0.950 . S
H1012 C1042 0.950 . S
H1013 C1043 0.950 . S
C1014 H996 0.951 . S
C1014 C1015 1.366 . S
C1014 C1016 1.388 . S
C1015 C1014 1.366 . S
C1015 C1019 1.385 . S
C1016 H997 0.951 1_556 S
C1016 C1014 1.388 . S
C1016 C1017 1.366 . S
C1017 C1016 1.366 . S
C1017 C1018 1.414 . S
C1017 C1020 1.499 . S
C1018 H998 0.950 . S
C1018 C1017 1.414 . S
C1018 C1019 1.374 . S
C1019 H999 0.950 . S
C1019 C1015 1.385 . S
C1019 C1018 1.374 . S
C1020 C1017 1.499 . S
C1020 C1021 1.373 . S
C1020 C1022 1.389 1_556 S
C1021 H1000 0.950 . S
C1021 C1020 1.373 . S
C1021 C1037 1.324 1_556 S
C1022 C1020 1.389 1_554 S
C1022 C1023 1.524 . S
C1022 C1036 1.377 . S
C1023 C1022 1.524 . S
C1023 C1024 1.397 1_554 S
C1023 C1028 1.363 . S
C1024 H1001 0.950 . S
C1024 C1023 1.397 1_556 S
C1024 C1025 1.334 . S
C1025 H1002 0.950 . S
C1025 C1024 1.334 . S
C1025 C1026 1.365 . S
C1026 C1025 1.365 . S
C1026 C1027 1.438 1_556 S
C1026 H1045 0.925 . S
C1027 H1003 0.950 . S
C1027 C1026 1.438 1_554 S
C1027 C1028 1.415 . S
C1028 H1004 0.950 . S
C1028 C1023 1.363 . S
C1028 C1027 1.415 . S
C1029 H1005 0.951 . S
C1029 C1030 1.366 . S
C1029 C1031 1.388 . S
C1030 C1029 1.366 . S
C1030 C1034 1.385 . S
C1031 H1006 0.951 1_554 S
C1031 C1029 1.388 . S
C1031 C1032 1.366 . S
C1032 C1031 1.366 . S
C1032 C1033 1.414 . S
C1032 C1035 1.499 . S
C1033 H1007 0.950 . S
C1033 C1032 1.414 . S
C1033 C1034 1.374 . S
C1034 H1008 0.950 . S
C1034 C1030 1.385 . S
C1034 C1033 1.374 . S
C1035 C1032 1.499 . S
C1035 C1036 1.373 . S
C1035 C1037 1.453 . S
C1036 H1009 0.950 . S
C1036 C1022 1.377 . S
C1036 C1035 1.373 . S
C1037 C1021 1.324 1_554 S
C1037 C1035 1.453 . S
C1037 C1038 1.530 . S
C1038 C1037 1.530 . S
C1038 C1039 1.397 . S
C1038 C1043 1.363 1_554 S
C1039 H1010 0.950 . S
C1039 C1038 1.397 . S
C1039 C1040 1.334 . S
C1040 H1011 0.950 . S
C1040 C1039 1.334 . S
C1040 C1041 1.287 . S
C1041 C1040 1.287 . S
C1041 C1042 1.524 1_554 S
C1041 H1044 0.999 . S
C1042 H1012 0.950 . S
C1042 C1041 1.524 1_556 S
C1042 C1043 1.415 . S
C1043 H1013 0.950 . S
C1043 C1038 1.363 1_556 S
C1043 C1042 1.415 . S
H1044 C1041 0.999 . S
H1045 C1026 0.925 . S
H1046 C1064 0.951 . S
H1047 C1066 0.951 . S
H1048 C1068 0.950 . S
H1049 C1069 0.950 . S
H1050 C1071 0.950 . S
H1051 C1074 0.950 . S
H1052 C1075 0.950 . S
H1053 C1077 0.950 . S
H1054 C1078 0.950 . S
H1055 C1079 0.951 . S
H1056 C1081 0.951 . S
H1057 C1083 0.950 . S
H1058 C1084 0.950 . S
H1059 C1086 0.950 . S
H1060 C1089 0.950 . S
H1061 C1090 0.950 . S
H1062 C1092 0.950 . S
H1063 C1093 0.950 . S
C1064 H1046 0.951 . S
C1064 C1065 1.366 . S
C1064 C1066 1.388 . S
C1065 C1064 1.366 . S
C1065 C1069 1.385 . S
C1066 H1047 0.951 . S
C1066 C1064 1.388 . S
C1066 C1067 1.366 . S
C1067 C1066 1.366 . S
C1067 C1068 1.414 . S
C1067 C1070 1.499 . S
C1068 H1048 0.950 . S
C1068 C1067 1.414 . S
C1068 C1069 1.374 . S
C1069 H1049 0.950 . S
C1069 C1065 1.385 . S
C1069 C1068 1.374 . S
C1070 C1067 1.499 . S
C1070 C1071 1.373 . S
C1070 C1072 1.389 . S
C1071 H1050 0.950 . S
C1071 C1070 1.373 . S
C1071 C1087 1.377 . S
C1072 C1070 1.389 . S
C1072 C1073 1.524 . S
C1072 C1086 1.377 . S
C1073 C1072 1.524 . S
C1073 C1074 1.397 . S
C1073 C1078 1.363 . S
C1074 H1051 0.950 . S
C1074 C1073 1.397 . S
C1074 C1075 1.334 . S
C1075 H1052 0.950 . S
C1075 C1074 1.334 . S
C1075 C1076 1.287 . S
C1076 C1075 1.287 . S
C1076 C1077 1.524 . S
C1076 H1095 0.913 . S
C1077 H1053 0.950 . S
C1077 C1076 1.524 . S
C1077 C1078 1.415 . S
C1078 H1054 0.950 . S
C1078 C1073 1.363 . S
C1078 C1077 1.415 . S
C1079 H1055 0.951 . S
C1079 C1080 1.366 . S
C1079 C1081 1.388 . S
C1080 C1079 1.366 . S
C1080 C1084 1.385 . S
C1081 H1056 0.951 . S
C1081 C1079 1.388 . S
C1081 C1082 1.366 . S
C1082 C1081 1.366 . S
C1082 C1083 1.414 . S
C1082 C1085 1.499 . S
C1083 H1057 0.950 . S
C1083 C1082 1.414 . S
C1083 C1084 1.374 . S
C1084 H1058 0.950 . S
C1084 C1080 1.385 . S
C1084 C1083 1.374 . S
C1085 C1082 1.499 . S
C1085 C1086 1.373 . S
C1085 C1087 1.389 . S
C1086 H1059 0.950 . S
C1086 C1072 1.377 . S
C1086 C1085 1.373 . S
C1087 C1071 1.377 . S
C1087 C1085 1.389 . S
C1087 C1088 1.524 . S
C1088 C1087 1.524 . S
C1088 C1089 1.397 . S
C1088 C1093 1.363 . S
C1089 H1060 0.950 . S
C1089 C1088 1.397 . S
C1089 C1090 1.334 . S
C1090 H1061 0.950 . S
C1090 C1089 1.334 . S
C1090 C1091 1.287 . S
C1091 C1090 1.287 . S
C1091 C1092 1.524 . S
C1091 H1094 0.999 . S
C1092 H1062 0.950 . S
C1092 C1091 1.524 . S
C1092 C1093 1.415 . S
C1093 H1063 0.950 . S
C1093 C1088 1.363 . S
C1093 C1092 1.415 . S
H1094 C1091 0.999 . S
H1095 C1076 0.913 . S
H1096 C1114 0.951 . S
H1097 C1116 0.951 . S
H1098 C1118 0.950 . S
H1099 C1119 0.950 . S
H1100 C1121 0.950 . S
H1101 C1124 0.950 . S
H1102 C1125 0.950 1_545 S
H1103 C1127 0.950 . S
H1104 C1128 0.950 . S
H1105 C1129 0.951 . S
H1106 C1131 0.951 . S
H1107 C1133 0.950 . S
H1108 C1134 0.950 . S
H1109 C1136 0.950 . S
H1110 C1139 0.950 . S
H1111 C1140 0.950 . S
H1112 C1142 0.950 . S
H1113 C1143 0.950 . S
C1114 H1096 0.951 . S
C1114 C1115 1.366 . S
C1114 C1116 1.388 . S
C1115 C1114 1.366 . S
C1115 C1119 1.385 . S
C1116 H1097 0.951 . S
C1116 C1114 1.388 . S
C1116 C1117 1.366 . S
C1117 C1116 1.366 . S
C1117 C1118 1.414 . S
C1117 C1120 1.499 . S
C1118 H1098 0.950 . S
C1118 C1117 1.414 . S
C1118 C1119 1.374 . S
C1119 H1099 0.950 . S
C1119 C1115 1.385 . S
C1119 C1118 1.374 . S
C1120 C1117 1.499 . S
C1120 C1121 1.373 . S
C1120 C1122 1.389 . S
C1121 H1100 0.950 . S
C1121 C1120 1.373 . S
C1121 C1137 1.377 . S
C1122 C1120 1.389 . S
C1122 C1123 1.524 . S
C1122 C1136 1.377 . S
C1123 C1122 1.524 . S
C1123 C1124 1.397 . S
C1123 C1128 1.363 . S
C1124 H1101 0.950 . S
C1124 C1123 1.397 . S
C1124 C1125 1.334 . S
C1125 H1102 0.950 1_565 S
C1125 C1124 1.334 . S
C1125 C1126 1.287 . S
C1126 C1125 1.287 . S
C1126 C1127 1.524 . S
C1126 H1145 0.913 . S
C1127 H1103 0.950 . S
C1127 C1126 1.524 . S
C1127 C1128 1.415 . S
C1128 H1104 0.950 . S
C1128 C1123 1.363 . S
C1128 C1127 1.415 . S
C1129 H1105 0.951 . S
C1129 C1130 1.366 . S
C1129 C1131 1.388 . S
C1130 C1129 1.366 . S
C1130 C1134 1.385 . S
C1131 H1106 0.951 . S
C1131 C1129 1.388 . S
C1131 C1132 1.366 . S
C1132 C1131 1.366 . S
C1132 C1133 1.414 . S
C1132 C1135 1.499 . S
C1133 H1107 0.950 . S
C1133 C1132 1.414 . S
C1133 C1134 1.374 . S
C1134 H1108 0.950 . S
C1134 C1130 1.385 . S
C1134 C1133 1.374 . S
C1135 C1132 1.499 . S
C1135 C1136 1.373 . S
C1135 C1137 1.389 . S
C1136 H1109 0.950 . S
C1136 C1122 1.377 . S
C1136 C1135 1.373 . S
C1137 C1121 1.377 . S
C1137 C1135 1.389 . S
C1137 C1138 1.524 . S
C1138 C1137 1.524 . S
C1138 C1139 1.397 . S
C1138 C1143 1.363 . S
C1139 H1110 0.950 . S
C1139 C1138 1.397 . S
C1139 C1140 1.334 . S
C1140 H1111 0.950 . S
C1140 C1139 1.334 . S
C1140 C1141 1.287 . S
C1141 C1140 1.287 . S
C1141 C1142 1.524 . S
C1141 H1144 0.999 . S
C1142 H1112 0.950 . S
C1142 C1141 1.524 . S
C1142 C1143 1.415 . S
C1143 H1113 0.950 . S
C1143 C1138 1.363 . S
C1143 C1142 1.415 . S
H1144 C1141 0.999 . S
H1145 C1126 0.913 . S
H1146 C1164 0.951 . S
H1147 C1166 0.951 . S
H1148 C1168 0.950 . S
H1149 C1169 0.950 . S
H1150 C1171 0.950 . S
H1151 C1174 0.950 . S
H1152 C1175 0.950 . S
H1153 C1177 0.950 . S
H1154 C1178 0.950 . S
H1155 C1179 0.951 . S
H1156 C1181 0.951 . S
H1157 C1183 0.950 . S
H1158 C1184 0.950 . S
H1159 C1186 0.950 . S
H1160 C1189 0.950 . S
H1161 C1190 0.950 . S
H1162 C1192 0.950 . S
H1163 C1193 0.950 . S
C1164 H1146 0.951 . S
C1164 C1165 1.366 . S
C1164 C1166 1.388 . S
C1165 C1164 1.366 . S
C1165 C1169 1.385 . S
C1166 H1147 0.951 . S
C1166 C1164 1.388 . S
C1166 C1167 1.366 . S
C1167 C1166 1.366 . S
C1167 C1168 1.414 . S
C1167 C1170 1.499 . S
C1168 H1148 0.950 . S
C1168 C1167 1.414 . S
C1168 C1169 1.374 . S
C1169 H1149 0.950 . S
C1169 C1165 1.385 . S
C1169 C1168 1.374 . S
C1170 C1167 1.499 . S
C1170 C1171 1.373 . S
C1170 C1172 1.389 . S
C1171 H1150 0.950 . S
C1171 C1170 1.373 . S
C1171 C1187 1.377 . S
C1172 C1170 1.389 . S
C1172 C1173 1.524 . S
C1172 C1186 1.377 . S
C1173 C1172 1.524 . S
C1173 C1174 1.397 . S
C1173 C1178 1.363 . S
C1174 H1151 0.950 . S
C1174 C1173 1.397 . S
C1174 C1175 1.334 . S
C1175 H1152 0.950 . S
C1175 C1174 1.334 . S
C1175 C1176 1.287 . S
C1176 C1175 1.287 . S
C1176 C1177 1.524 . S
C1176 H1195 0.913 . S
C1177 H1153 0.950 . S
C1177 C1176 1.524 . S
C1177 C1178 1.415 . S
C1178 H1154 0.950 . S
C1178 C1173 1.363 . S
C1178 C1177 1.415 . S
C1179 H1155 0.951 . S
C1179 C1180 1.366 . S
C1179 C1181 1.388 . S
C1180 C1179 1.366 . S
C1180 C1184 1.385 . S
C1181 H1156 0.951 . S
C1181 C1179 1.388 . S
C1181 C1182 1.366 . S
C1182 C1181 1.366 . S
C1182 C1183 1.414 . S
C1182 C1185 1.499 . S
C1183 H1157 0.950 . S
C1183 C1182 1.414 . S
C1183 C1184 1.374 . S
C1184 H1158 0.950 . S
C1184 C1180 1.385 . S
C1184 C1183 1.374 . S
C1185 C1182 1.499 . S
C1185 C1186 1.373 . S
C1185 C1187 1.389 . S
C1186 H1159 0.950 . S
C1186 C1172 1.377 . S
C1186 C1185 1.373 . S
C1187 C1171 1.377 . S
C1187 C1185 1.389 . S
C1187 C1188 1.524 . S
C1188 C1187 1.524 . S
C1188 C1189 1.397 . S
C1188 C1193 1.363 . S
C1189 H1160 0.950 . S
C1189 C1188 1.397 . S
C1189 C1190 1.334 . S
C1190 H1161 0.950 . S
C1190 C1189 1.334 . S
C1190 C1191 1.287 . S
C1191 C1190 1.287 . S
C1191 C1192 1.524 . S
C1191 H1194 0.999 . S
C1192 H1162 0.950 . S
C1192 C1191 1.524 . S
C1192 C1193 1.415 . S
C1193 H1163 0.950 . S
C1193 C1188 1.363 . S
C1193 C1192 1.415 . S
H1194 C1191 0.999 . S
H1195 C1176 0.913 . S
H1196 C1214 0.951 . S
H1197 C1216 0.951 . S
H1198 C1218 0.950 . S
H1199 C1219 0.950 . S
H1200 C1221 0.950 . S
H1201 C1224 0.950 . S
H1202 C1225 0.950 . S
H1203 C1227 0.950 . S
H1204 C1228 0.950 . S
H1205 C1229 0.951 . S
H1206 C1231 0.951 . S
H1207 C1233 0.950 . S
H1208 C1234 0.950 . S
H1209 C1236 0.950 . S
H1210 C1239 0.950 . S
H1211 C1240 0.950 . S
H1212 C1242 0.950 . S
H1213 C1243 0.950 . S
C1214 H1196 0.951 . S
C1214 C1215 1.366 . S
C1214 C1216 1.388 . S
C1215 C1214 1.366 . S
C1215 C1219 1.385 . S
C1216 H1197 0.951 . S
C1216 C1214 1.388 . S
C1216 C1217 1.366 . S
C1217 C1216 1.366 . S
C1217 C1218 1.414 . S
C1217 C1220 1.499 . S
C1218 H1198 0.950 . S
C1218 C1217 1.414 . S
C1218 C1219 1.374 . S
C1219 H1199 0.950 . S
C1219 C1215 1.385 . S
C1219 C1218 1.374 . S
C1220 C1217 1.499 . S
C1220 C1221 1.373 . S
C1220 C1222 1.389 . S
C1221 H1200 0.950 . S
C1221 C1220 1.373 . S
C1221 C1237 1.377 . S
C1222 C1220 1.389 . S
C1222 C1223 1.524 . S
C1222 C1236 1.377 . S
C1223 C1222 1.524 . S
C1223 C1224 1.397 . S
C1223 C1228 1.363 . S
C1224 H1201 0.950 . S
C1224 C1223 1.397 . S
C1224 C1225 1.334 . S
C1225 H1202 0.950 . S
C1225 C1224 1.334 . S
C1225 C1226 1.287 . S
C1226 C1225 1.287 . S
C1226 C1227 1.524 . S
C1226 H1245 0.913 . S
C1227 H1203 0.950 . S
C1227 C1226 1.524 . S
C1227 C1228 1.415 . S
C1228 H1204 0.950 . S
C1228 C1223 1.363 . S
C1228 C1227 1.415 . S
C1229 H1205 0.951 . S
C1229 C1230 1.366 . S
C1229 C1231 1.388 . S
C1230 C1229 1.366 . S
C1230 C1234 1.385 . S
C1231 H1206 0.951 . S
C1231 C1229 1.388 . S
C1231 C1232 1.366 . S
C1232 C1231 1.366 . S
C1232 C1233 1.414 . S
C1232 C1235 1.499 . S
C1233 H1207 0.950 . S
C1233 C1232 1.414 . S
C1233 C1234 1.374 . S
C1234 H1208 0.950 . S
C1234 C1230 1.385 . S
C1234 C1233 1.374 . S
C1235 C1232 1.499 . S
C1235 C1236 1.373 . S
C1235 C1237 1.389 . S
C1236 H1209 0.950 . S
C1236 C1222 1.377 . S
C1236 C1235 1.373 . S
C1237 C1221 1.377 . S
C1237 C1235 1.389 . S
C1237 C1238 1.524 . S
C1238 C1237 1.524 . S
C1238 C1239 1.397 . S
C1238 C1243 1.363 . S
C1239 H1210 0.950 . S
C1239 C1238 1.397 . S
C1239 C1240 1.334 . S
C1240 H1211 0.950 . S
C1240 C1239 1.334 . S
C1240 C1241 1.287 . S
C1241 C1240 1.287 . S
C1241 C1242 1.524 . S
C1241 H1244 0.999 . S
C1242 H1212 0.950 . S
C1242 C1241 1.524 . S
C1242 C1243 1.415 . S
C1243 H1213 0.950 . S
C1243 C1238 1.363 . S
C1243 C1242 1.415 . S
H1244 C1241 0.999 . S
H1245 C1226 0.913 . S
H1246 C1264 0.951 . S
H1247 C1266 0.951 . S
H1248 C1268 0.950 . S
H1249 C1269 0.950 . S
H1250 C1271 0.950 . S
H1251 C1274 0.950 . S
H1252 C1275 0.950 . S
H1253 C1277 0.950 . S
H1254 C1278 0.950 . S
H1255 C1279 0.951 . S
H1256 C1281 0.951 . S
H1257 C1283 0.950 . S
H1258 C1284 0.950 1_565 S
H1259 C1286 0.950 . S
H1260 C1289 0.950 . S
H1261 C1290 0.950 . S
H1262 C1292 0.950 . S
H1263 C1293 0.950 . S
C1264 H1246 0.951 . S
C1264 C1265 1.366 . S
C1264 C1266 1.388 . S
C1265 C1264 1.366 . S
C1265 C1269 1.385 . S
C1266 H1247 0.951 . S
C1266 C1264 1.388 . S
C1266 C1267 1.366 . S
C1267 C1266 1.366 . S
C1267 C1268 1.414 . S
C1267 C1270 1.499 . S
C1268 H1248 0.950 . S
C1268 C1267 1.414 . S
C1268 C1269 1.374 . S
C1269 H1249 0.950 . S
C1269 C1265 1.385 . S
C1269 C1268 1.374 . S
C1270 C1267 1.499 . S
C1270 C1271 1.373 . S
C1270 C1272 1.389 . S
C1271 H1250 0.950 . S
C1271 C1270 1.373 . S
C1271 C1287 1.377 . S
C1272 C1270 1.389 . S
C1272 C1273 1.524 . S
C1272 C1286 1.377 . S
C1273 C1272 1.524 . S
C1273 C1274 1.397 . S
C1273 C1278 1.363 . S
C1274 H1251 0.950 . S
C1274 C1273 1.397 . S
C1274 C1275 1.334 . S
C1275 H1252 0.950 . S
C1275 C1274 1.334 . S
C1275 C1276 1.287 . S
C1276 C1275 1.287 . S
C1276 C1277 1.524 . S
C1276 H1295 0.913 . S
C1277 H1253 0.950 . S
C1277 C1276 1.524 . S
C1277 C1278 1.415 . S
C1278 H1254 0.950 . S
C1278 C1273 1.363 . S
C1278 C1277 1.415 . S
C1279 H1255 0.951 . S
C1279 C1280 1.366 . S
C1279 C1281 1.388 . S
C1280 C1279 1.366 . S
C1280 C1284 1.385 . S
C1281 H1256 0.951 . S
C1281 C1279 1.388 . S
C1281 C1282 1.366 . S
C1282 C1281 1.366 . S
C1282 C1283 1.414 . S
C1282 C1285 1.499 . S
C1283 H1257 0.950 . S
C1283 C1282 1.414 . S
C1283 C1284 1.374 . S
C1284 H1258 0.950 1_545 S
C1284 C1280 1.385 . S
C1284 C1283 1.374 . S
C1285 C1282 1.499 . S
C1285 C1286 1.373 . S
C1285 C1287 1.389 . S
C1286 H1259 0.950 . S
C1286 C1272 1.377 . S
C1286 C1285 1.373 . S
C1287 C1271 1.377 . S
C1287 C1285 1.389 . S
C1287 C1288 1.524 . S
C1288 C1287 1.524 . S
C1288 C1289 1.397 . S
C1288 C1293 1.363 . S
C1289 H1260 0.950 . S
C1289 C1288 1.397 . S
C1289 C1290 1.334 . S
C1290 H1261 0.950 . S
C1290 C1289 1.334 . S
C1290 C1291 1.287 . S
C1291 C1290 1.287 . S
C1291 C1292 1.524 . S
C1291 H1294 0.999 . S
C1292 H1262 0.950 . S
C1292 C1291 1.524 . S
C1292 C1293 1.415 . S
C1293 H1263 0.950 . S
C1293 C1288 1.363 . S
C1293 C1292 1.415 . S
H1294 C1291 0.999 . S
H1295 C1276 0.913 . S
H1296 C1314 0.951 . S
H1297 C1316 0.951 . S
H1298 C1318 0.950 . S
H1299 C1319 0.950 . S
H1300 C1321 0.950 . S
H1301 C1324 0.950 . S
H1302 C1325 0.950 . S
H1303 C1327 0.950 . S
H1304 C1328 0.950 . S
H1305 C1329 0.951 . S
H1306 C1331 0.951 . S
H1307 C1333 0.950 . S
H1308 C1334 0.950 . S
H1309 C1336 0.950 . S
H1310 C1339 0.950 . S
H1311 C1340 0.950 . S
H1312 C1342 0.950 . S
H1313 C1343 0.950 . S
C1314 H1296 0.951 . S
C1314 C1315 1.366 . S
C1314 C1316 1.388 . S
C1315 C1314 1.366 . S
C1315 C1319 1.385 . S
C1316 H1297 0.951 . S
C1316 C1314 1.388 . S
C1316 C1317 1.366 . S
C1317 C1316 1.366 . S
C1317 C1318 1.414 . S
C1317 C1320 1.499 . S
C1318 H1298 0.950 . S
C1318 C1317 1.414 . S
C1318 C1319 1.374 . S
C1319 H1299 0.950 . S
C1319 C1315 1.385 . S
C1319 C1318 1.374 . S
C1320 C1317 1.499 . S
C1320 C1321 1.373 . S
C1320 C1322 1.389 . S
C1321 H1300 0.950 . S
C1321 C1320 1.373 . S
C1321 C1337 1.377 . S
C1322 C1320 1.389 . S
C1322 C1323 1.524 . S
C1322 C1336 1.377 . S
C1323 C1322 1.524 . S
C1323 C1324 1.397 . S
C1323 C1328 1.363 . S
C1324 H1301 0.950 . S
C1324 C1323 1.397 . S
C1324 C1325 1.334 . S
C1325 H1302 0.950 . S
C1325 C1324 1.334 . S
C1325 C1326 1.287 . S
C1326 C1325 1.287 . S
C1326 C1327 1.524 . S
C1326 H1345 0.913 . S
C1327 H1303 0.950 . S
C1327 C1326 1.524 . S
C1327 C1328 1.415 . S
C1328 H1304 0.950 . S
C1328 C1323 1.363 . S
C1328 C1327 1.415 . S
C1329 H1305 0.951 . S
C1329 C1330 1.366 . S
C1329 C1331 1.388 . S
C1330 C1329 1.366 . S
C1330 C1334 1.385 . S
C1331 H1306 0.951 . S
C1331 C1329 1.388 . S
C1331 C1332 1.366 . S
C1332 C1331 1.366 . S
C1332 C1333 1.414 . S
C1332 C1335 1.499 . S
C1333 H1307 0.950 . S
C1333 C1332 1.414 . S
C1333 C1334 1.374 . S
C1334 H1308 0.950 . S
C1334 C1330 1.385 . S
C1334 C1333 1.374 . S
C1335 C1332 1.499 . S
C1335 C1336 1.373 . S
C1335 C1337 1.389 . S
C1336 H1309 0.950 . S
C1336 C1322 1.377 . S
C1336 C1335 1.373 . S
C1337 C1321 1.377 . S
C1337 C1335 1.389 . S
C1337 C1338 1.524 . S
C1338 C1337 1.524 . S
C1338 C1339 1.397 . S
C1338 C1343 1.363 . S
C1339 H1310 0.950 . S
C1339 C1338 1.397 . S
C1339 C1340 1.334 . S
C1340 H1311 0.950 . S
C1340 C1339 1.334 . S
C1340 C1341 1.287 . S
C1341 C1340 1.287 . S
C1341 C1342 1.524 . S
C1341 H1344 0.999 . S
C1342 H1312 0.950 . S
C1342 C1341 1.524 . S
C1342 C1343 1.415 . S
C1343 H1313 0.950 . S
C1343 C1338 1.363 . S
C1343 C1342 1.415 . S
H1344 C1341 0.999 . S
H1345 C1326 0.913 . S
H1346 C1364 0.951 . S
H1347 C1366 0.951 . S
H1348 C1368 0.950 1_556 S
H1349 C1369 0.950 . S
H1350 C1371 0.950 . S
H1351 C1374 0.950 . S
H1352 C1375 0.950 . S
H1353 C1377 0.950 . S
H1354 C1378 0.950 . S
H1355 C1379 0.951 . S
H1356 C1381 0.951 . S
H1357 C1383 0.950 1_554 S
H1358 C1384 0.950 . S
H1359 C1386 0.950 . S
H1360 C1389 0.950 . S
H1361 C1390 0.950 . S
H1362 C1392 0.950 . S
H1363 C1393 0.950 . S
C1364 H1346 0.951 . S
C1364 C1365 1.366 . S
C1364 C1366 1.388 . S
C1365 C1364 1.366 . S
C1365 C1369 1.385 . S
C1366 H1347 0.951 . S
C1366 C1364 1.388 . S
C1366 C1367 1.366 . S
C1367 C1366 1.366 . S
C1367 C1368 1.414 . S
C1367 C1370 1.499 . S
C1368 H1348 0.950 1_554 S
C1368 C1367 1.414 . S
C1368 C1369 1.374 . S
C1369 H1349 0.950 . S
C1369 C1365 1.385 . S
C1369 C1368 1.374 . S
C1370 C1367 1.499 . S
C1370 C1371 1.373 1_554 S
C1370 C1372 1.389 . S
C1371 H1350 0.950 . S
C1371 C1370 1.373 1_556 S
C1371 C1387 1.377 . S
C1372 C1370 1.389 . S
C1372 C1373 1.524 . S
C1372 C1386 1.377 . S
C1373 C1372 1.524 . S
C1373 C1374 1.397 . S
C1373 C1378 1.363 . S
C1374 H1351 0.950 . S
C1374 C1373 1.397 . S
C1374 C1375 1.334 . S
C1375 H1352 0.950 . S
C1375 C1374 1.334 . S
C1375 C1376 1.287 . S
C1376 C1375 1.287 . S
C1376 C1377 1.524 . S
C1376 H1395 0.913 . S
C1377 H1353 0.950 . S
C1377 C1376 1.524 . S
C1377 C1378 1.415 . S
C1378 H1354 0.950 . S
C1378 C1373 1.363 . S
C1378 C1377 1.415 . S
C1379 H1355 0.951 . S
C1379 C1380 1.366 . S
C1379 C1381 1.388 . S
C1380 C1379 1.366 . S
C1380 C1384 1.385 . S
C1381 H1356 0.951 . S
C1381 C1379 1.388 . S
C1381 C1382 1.366 . S
C1382 C1381 1.366 . S
C1382 C1383 1.414 . S
C1382 C1385 1.499 . S
C1383 H1357 0.950 1_556 S
C1383 C1382 1.414 . S
C1383 C1384 1.374 . S
C1384 H1358 0.950 . S
C1384 C1380 1.385 . S
C1384 C1383 1.374 . S
C1385 C1382 1.499 . S
C1385 C1386 1.373 1_556 S
C1385 C1387 1.389 . S
C1386 H1359 0.950 . S
C1386 C1372 1.377 . S
C1386 C1385 1.373 1_554 S
C1387 C1371 1.377 . S
C1387 C1385 1.389 . S
C1387 C1388 1.524 . S
C1388 C1387 1.524 . S
C1388 C1389 1.397 . S
C1388 C1393 1.363 . S
C1389 H1360 0.950 . S
C1389 C1388 1.397 . S
C1389 C1390 1.334 . S
C1390 H1361 0.950 . S
C1390 C1389 1.334 . S
C1390 C1391 1.287 . S
C1391 C1390 1.287 . S
C1391 C1392 1.524 . S
C1391 H1394 0.999 . S
C1392 H1362 0.950 . S
C1392 C1391 1.524 . S
C1392 C1393 1.415 . S
C1393 H1363 0.950 . S
C1393 C1388 1.363 . S
C1393 C1392 1.415 . S
H1394 C1391 0.999 . S
H1395 C1376 0.913 . S
H1396 C1414 0.951 . S
H1397 C1416 0.951 . S
H1398 C1418 0.950 . S
H1399 C1419 0.950 1_545 S
H1400 C1421 0.950 . S
H1401 C1424 0.950 . S
H1402 C1425 0.950 . S
H1403 C1427 0.950 . S
H1404 C1428 0.950 . S
H1405 C1429 0.951 . S
H1406 C1431 0.951 . S
H1407 C1433 0.950 . S
H1408 C1434 0.950 . S
H1409 C1436 0.950 . S
H1410 C1439 0.950 . S
H1411 C1440 0.950 . S
H1412 C1442 0.950 . S
H1413 C1443 0.950 . S
C1414 H1396 0.951 . S
C1414 C1415 1.366 . S
C1414 C1416 1.388 . S
C1415 C1414 1.366 . S
C1415 C1419 1.385 . S
C1416 H1397 0.951 . S
C1416 C1414 1.388 . S
C1416 C1417 1.366 . S
C1417 C1416 1.366 . S
C1417 C1418 1.414 . S
C1417 C1420 1.499 . S
C1418 H1398 0.950 . S
C1418 C1417 1.414 . S
C1418 C1419 1.374 . S
C1419 H1399 0.950 1_565 S
C1419 C1415 1.385 . S
C1419 C1418 1.374 . S
C1420 C1417 1.499 . S
C1420 C1421 1.373 . S
C1420 C1422 1.389 . S
C1421 H1400 0.950 . S
C1421 C1420 1.373 . S
C1421 C1437 1.377 . S
C1422 C1420 1.389 . S
C1422 C1423 1.524 . S
C1422 C1436 1.377 . S
C1423 C1422 1.524 . S
C1423 C1424 1.397 . S
C1423 C1428 1.363 . S
C1424 H1401 0.950 . S
C1424 C1423 1.397 . S
C1424 C1425 1.334 . S
C1425 H1402 0.950 . S
C1425 C1424 1.334 . S
C1425 C1426 1.287 . S
C1426 C1425 1.287 . S
C1426 C1427 1.524 . S
C1426 H1445 0.913 . S
C1427 H1403 0.950 . S
C1427 C1426 1.524 . S
C1427 C1428 1.415 . S
C1428 H1404 0.950 . S
C1428 C1423 1.363 . S
C1428 C1427 1.415 . S
C1429 H1405 0.951 . S
C1429 C1430 1.366 . S
C1429 C1431 1.388 . S
C1430 C1429 1.366 . S
C1430 C1434 1.385 . S
C1431 H1406 0.951 . S
C1431 C1429 1.388 . S
C1431 C1432 1.366 . S
C1432 C1431 1.366 . S
C1432 C1433 1.414 . S
C1432 C1435 1.499 . S
C1433 H1407 0.950 . S
C1433 C1432 1.414 . S
C1433 C1434 1.374 . S
C1434 H1408 0.950 . S
C1434 C1430 1.385 . S
C1434 C1433 1.374 . S
C1435 C1432 1.499 . S
C1435 C1436 1.373 . S
C1435 C1437 1.389 . S
C1436 H1409 0.950 . S
C1436 C1422 1.377 . S
C1436 C1435 1.373 . S
C1437 C1421 1.377 . S
C1437 C1435 1.389 . S
C1437 C1438 1.524 . S
C1438 C1437 1.524 . S
C1438 C1439 1.397 . S
C1438 C1443 1.363 . S
C1439 H1410 0.950 . S
C1439 C1438 1.397 . S
C1439 C1440 1.334 . S
C1440 H1411 0.950 . S
C1440 C1439 1.334 . S
C1440 C1441 1.287 . S
C1441 C1440 1.287 . S
C1441 C1442 1.524 . S
C1441 H1444 0.999 . S
C1442 H1412 0.950 . S
C1442 C1441 1.524 . S
C1442 C1443 1.415 . S
C1443 H1413 0.950 . S
C1443 C1438 1.363 . S
C1443 C1442 1.415 . S
H1444 C1441 0.999 . S
H1445 C1426 0.913 . S
H1446 C1464 0.951 . S
H1447 C1466 0.951 . S
H1448 C1468 0.950 . S
H1449 C1469 0.950 . S
H1450 C1471 0.950 . S
H1451 C1474 0.950 . S
H1452 C1475 0.950 . S
H1453 C1477 0.950 . S
H1454 C1478 0.950 . S
H1455 C1479 0.951 . S
H1456 C1481 0.951 . S
H1457 C1483 0.950 . S
H1458 C1484 0.950 . S
H1459 C1486 0.950 . S
H1460 C1489 0.950 . S
H1461 C1490 0.950 . S
H1462 C1492 0.950 . S
H1463 C1493 0.950 . S
C1464 H1446 0.951 . S
C1464 C1465 1.366 . S
C1464 C1466 1.388 . S
C1465 C1464 1.366 . S
C1465 C1469 1.385 . S
C1466 H1447 0.951 . S
C1466 C1464 1.388 . S
C1466 C1467 1.366 . S
C1467 C1466 1.366 . S
C1467 C1468 1.414 . S
C1467 C1470 1.499 . S
C1468 H1448 0.950 . S
C1468 C1467 1.414 . S
C1468 C1469 1.374 . S
C1469 H1449 0.950 . S
C1469 C1465 1.385 . S
C1469 C1468 1.374 . S
C1470 C1467 1.499 . S
C1470 C1471 1.373 . S
C1470 C1472 1.389 . S
C1471 H1450 0.950 . S
C1471 C1470 1.373 . S
C1471 C1487 1.377 . S
C1472 C1470 1.389 . S
C1472 C1473 1.524 . S
C1472 C1486 1.377 . S
C1473 C1472 1.524 . S
C1473 C1474 1.397 . S
C1473 C1478 1.363 . S
C1474 H1451 0.950 . S
C1474 C1473 1.397 . S
C1474 C1475 1.334 . S
C1475 H1452 0.950 . S
C1475 C1474 1.334 . S
C1475 C1476 1.287 . S
C1476 C1475 1.287 . S
C1476 C1477 1.524 . S
C1476 H1495 0.913 . S
C1477 H1453 0.950 . S
C1477 C1476 1.524 . S
C1477 C1478 1.415 . S
C1478 H1454 0.950 . S
C1478 C1473 1.363 . S
C1478 C1477 1.415 . S
C1479 H1455 0.951 . S
C1479 C1480 1.366 . S
C1479 C1481 1.388 . S
C1480 C1479 1.366 . S
C1480 C1484 1.385 . S
C1481 H1456 0.951 . S
C1481 C1479 1.388 . S
C1481 C1482 1.366 . S
C1482 C1481 1.366 . S
C1482 C1483 1.414 . S
C1482 C1485 1.499 . S
C1483 H1457 0.950 . S
C1483 C1482 1.414 . S
C1483 C1484 1.374 . S
C1484 H1458 0.950 . S
C1484 C1480 1.385 . S
C1484 C1483 1.374 . S
C1485 C1482 1.499 . S
C1485 C1486 1.373 . S
C1485 C1487 1.389 . S
C1486 H1459 0.950 . S
C1486 C1472 1.377 . S
C1486 C1485 1.373 . S
C1487 C1471 1.377 . S
C1487 C1485 1.389 . S
C1487 C1488 1.524 . S
C1488 C1487 1.524 . S
C1488 C1489 1.397 . S
C1488 C1493 1.363 . S
C1489 H1460 0.950 . S
C1489 C1488 1.397 . S
C1489 C1490 1.334 . S
C1490 H1461 0.950 . S
C1490 C1489 1.334 . S
C1490 C1491 1.287 . S
C1491 C1490 1.287 . S
C1491 C1492 1.524 . S
C1491 H1494 0.999 . S
C1492 H1462 0.950 . S
C1492 C1491 1.524 . S
C1492 C1493 1.415 . S
C1493 H1463 0.950 . S
C1493 C1488 1.363 . S
C1493 C1492 1.415 . S
H1494 C1491 0.999 . S
H1495 C1476 0.913 . S
H1496 C1514 0.958 . S
H1497 C1516 0.951 . S
H1498 C1518 0.950 . S
H1499 C1519 0.950 . S
H1500 C1521 0.950 . S
H1501 C1524 0.950 . S
H1502 C1525 0.950 . S
H1503 C1527 0.950 . S
H1504 C1528 0.950 . S
H1505 C1529 0.951 . S
H1506 C1531 0.951 . S
H1507 C1533 0.950 . S
H1508 C1534 0.950 . S
H1509 C1536 0.950 . S
H1510 C1539 0.950 . S
H1511 C1540 0.950 . S
H1512 C1542 0.950 . S
H1513 C1543 0.950 . S
C1514 H1496 0.958 . S
C1514 C1515 1.366 . S
C1514 C1516 1.388 . S
C1515 C1514 1.366 . S
C1515 C1519 1.385 . S
C1516 H1497 0.951 . S
C1516 C1514 1.388 . S
C1516 C1517 1.366 . S
C1517 C1516 1.366 . S
C1517 C1518 1.414 . S
C1517 C1520 1.499 . S
C1518 H1498 0.950 . S
C1518 C1517 1.414 . S
C1518 C1519 1.374 . S
C1519 H1499 0.950 . S
C1519 C1515 1.385 . S
C1519 C1518 1.374 . S
C1520 C1517 1.499 . S
C1520 C1521 1.373 . S
C1520 C1522 1.389 . S
C1521 H1500 0.950 . S
C1521 C1520 1.373 . S
C1521 C1537 1.377 . S
C1522 C1520 1.389 . S
C1522 C1523 1.524 . S
C1522 C1536 1.377 . S
C1523 C1522 1.524 . S
C1523 C1524 1.397 . S
C1523 C1528 1.363 . S
C1524 H1501 0.950 . S
C1524 C1523 1.397 . S
C1524 C1525 1.334 . S
C1525 H1502 0.950 . S
C1525 C1524 1.334 . S
C1525 C1526 1.287 1_455 S
C1526 C1525 1.287 1_655 S
C1526 C1527 1.524 . S
C1526 H1545 0.913 . S
C1527 H1503 0.950 . S
C1527 C1526 1.524 . S
C1527 C1528 1.415 1_655 S
C1528 H1504 0.950 . S
C1528 C1523 1.363 . S
C1528 C1527 1.415 1_455 S
C1529 H1505 0.951 . S
C1529 C1530 1.366 . S
C1529 C1531 1.388 . S
C1530 C1529 1.366 . S
C1530 C1534 1.385 . S
C1531 H1506 0.951 . S
C1531 C1529 1.388 . S
C1531 C1532 1.366 . S
C1532 C1531 1.366 . S
C1532 C1533 1.414 . S
C1532 C1535 1.499 . S
C1533 H1507 0.950 . S
C1533 C1532 1.414 . S
C1533 C1534 1.374 . S
C1534 H1508 0.950 . S
C1534 C1530 1.385 . S
C1534 C1533 1.374 . S
C1535 C1532 1.499 . S
C1535 C1536 1.373 . S
C1535 C1537 1.389 . S
C1536 H1509 0.950 . S
C1536 C1522 1.377 . S
C1536 C1535 1.373 . S
C1537 C1521 1.377 . S
C1537 C1535 1.389 . S
C1537 C1538 1.524 . S
C1538 C1537 1.524 . S
C1538 C1539 1.397 . S
C1538 C1543 1.363 . S
C1539 H1510 0.950 . S
C1539 C1538 1.397 . S
C1539 C1540 1.334 . S
C1540 H1511 0.950 . S
C1540 C1539 1.334 . S
C1540 C1541 1.287 . S
C1541 C1540 1.287 . S
C1541 C1542 1.524 . S
C1541 H1544 0.999 . S
C1542 H1512 0.950 . S
C1542 C1541 1.524 . S
C1542 C1543 1.415 . S
C1543 H1513 0.950 . S
C1543 C1538 1.363 . S
C1543 C1542 1.415 . S
H1544 C1541 0.999 . S
H1545 C1526 0.913 . S
H1546 C1564 0.951 . S
H1547 C1566 0.951 . S
H1548 C1568 0.950 . S
H1549 C1569 0.950 . S
H1550 C1571 0.950 . S
H1551 C1574 0.950 . S
H1552 C1575 0.950 . S
H1553 C1577 0.950 . S
H1554 C1578 0.950 . S
H1555 C1579 0.951 . S
H1556 C1581 0.951 . S
H1557 C1583 0.950 . S
H1558 C1584 0.950 . S
H1559 C1586 0.950 . S
H1560 C1589 0.950 . S
H1561 C1590 0.950 . S
H1562 C1592 0.950 . S
H1563 C1593 0.950 . S
C1564 H1546 0.951 . S
C1564 C1565 1.366 . S
C1564 C1566 1.388 . S
C1565 C1564 1.366 . S
C1565 C1569 1.385 . S
C1566 H1547 0.951 . S
C1566 C1564 1.388 . S
C1566 C1567 1.366 . S
C1567 C1566 1.366 . S
C1567 C1568 1.414 . S
C1567 C1570 1.499 . S
C1568 H1548 0.950 . S
C1568 C1567 1.414 . S
C1568 C1569 1.374 . S
C1569 H1549 0.950 . S
C1569 C1565 1.385 . S
C1569 C1568 1.374 . S
C1570 C1567 1.499 . S
C1570 C1571 1.373 . S
C1570 C1572 1.389 . S
C1571 H1550 0.950 . S
C1571 C1570 1.373 . S
C1571 C1587 1.377 . S
C1572 C1570 1.389 . S
C1572 C1573 1.524 . S
C1572 C1586 1.377 . S
C1573 C1572 1.524 . S
C1573 C1574 1.397 . S
C1573 C1578 1.363 . S
C1574 H1551 0.950 . S
C1574 C1573 1.397 . S
C1574 C1575 1.334 . S
C1575 H1552 0.950 . S
C1575 C1574 1.334 . S
C1575 C1576 1.287 . S
C1576 C1575 1.287 . S
C1576 C1577 1.524 . S
C1576 H1595 0.913 . S
C1577 H1553 0.950 . S
C1577 C1576 1.524 . S
C1577 C1578 1.415 . S
C1578 H1554 0.950 . S
C1578 C1573 1.363 . S
C1578 C1577 1.415 . S
C1579 H1555 0.951 . S
C1579 C1580 1.366 . S
C1579 C1581 1.388 . S
C1580 C1579 1.366 . S
C1580 C1584 1.385 . S
C1581 H1556 0.951 . S
C1581 C1579 1.388 . S
C1581 C1582 1.366 . S
C1582 C1581 1.366 . S
C1582 C1583 1.414 . S
C1582 C1585 1.499 . S
C1583 H1557 0.950 . S
C1583 C1582 1.414 . S
C1583 C1584 1.374 . S
C1584 H1558 0.950 . S
C1584 C1580 1.385 . S
C1584 C1583 1.374 . S
C1585 C1582 1.499 . S
C1585 C1586 1.373 . S
C1585 C1587 1.389 . S
C1586 H1559 0.950 . S
C1586 C1572 1.377 . S
C1586 C1585 1.373 . S
C1587 C1571 1.377 . S
C1587 C1585 1.389 . S
C1587 C1588 1.524 . S
C1588 C1587 1.524 . S
C1588 C1589 1.397 . S
C1588 C1593 1.363 . S
C1589 H1560 0.950 . S
C1589 C1588 1.397 . S
C1589 C1590 1.334 . S
C1590 H1561 0.950 . S
C1590 C1589 1.334 . S
C1590 C1591 1.287 . S
C1591 C1590 1.287 . S
C1591 C1592 1.524 . S
C1591 H1594 0.999 . S
C1592 H1562 0.950 . S
C1592 C1591 1.524 . S
C1592 C1593 1.415 . S
C1593 H1563 0.950 . S
C1593 C1588 1.363 . S
C1593 C1592 1.415 . S
H1594 C1591 0.999 . S
H1595 C1576 0.913 . S
H1596 C1614 0.951 1_455 S
H1597 C1616 0.951 1_455 S
H1598 C1618 0.950 . S
H1599 C1619 0.950 . S
H1600 C1621 0.950 . S
H1601 C1624 0.950 . S
H1602 C1625 0.950 . S
H1603 C1627 0.950 . S
H1604 C1628 0.950 . S
H1605 C1629 0.951 . S
H1606 C1631 0.951 . S
H1607 C1633 0.950 1_455 S
H1608 C1634 0.950 1_455 S
H1609 C1636 0.950 . S
H1610 C1639 0.950 . S
H1611 C1640 0.950 . S
H1612 C1642 0.950 . S
H1613 C1643 0.950 . S
C1614 H1596 0.951 1_655 S
C1614 C1615 1.366 . S
C1614 C1616 1.388 . S
C1615 C1614 1.366 . S
C1615 C1619 1.385 . S
C1616 H1597 0.951 1_655 S
C1616 C1614 1.388 . S
C1616 C1617 1.366 . S
C1617 C1616 1.366 . S
C1617 C1618 1.414 . S
C1617 C1620 1.499 . S
C1618 H1598 0.950 . S
C1618 C1617 1.414 . S
C1618 C1619 1.374 . S
C1619 H1599 0.950 . S
C1619 C1615 1.385 . S
C1619 C1618 1.374 . S
C1620 C1617 1.499 . S
C1620 C1621 1.373 . S
C1620 C1622 1.389 . S
C1621 H1600 0.950 . S
C1621 C1620 1.373 . S
C1621 C1637 1.377 . S
C1622 C1620 1.389 . S
C1622 C1623 1.524 . S
C1622 C1636 1.377 . S
C1623 C1622 1.524 . S
C1623 C1624 1.397 . S
C1623 C1628 1.363 . S
C1624 H1601 0.950 . S
C1624 C1623 1.397 . S
C1624 C1625 1.334 . S
C1625 H1602 0.950 . S
C1625 C1624 1.334 . S
C1625 C1626 1.287 . S
C1626 C1625 1.287 . S
C1626 C1627 1.524 . S
C1626 H1645 0.913 . S
C1627 H1603 0.950 . S
C1627 C1626 1.524 . S
C1627 C1628 1.415 . S
C1628 H1604 0.950 . S
C1628 C1623 1.363 . S
C1628 C1627 1.415 . S
C1629 H1605 0.951 . S
C1629 C1630 1.366 . S
C1629 C1631 1.388 . S
C1630 C1629 1.366 . S
C1630 C1634 1.385 . S
C1631 H1606 0.951 . S
C1631 C1629 1.388 . S
C1631 C1632 1.366 . S
C1632 C1631 1.366 . S
C1632 C1633 1.414 . S
C1632 C1635 1.499 . S
C1633 H1607 0.950 1_655 S
C1633 C1632 1.414 . S
C1633 C1634 1.374 . S
C1634 H1608 0.950 1_655 S
C1634 C1630 1.385 . S
C1634 C1633 1.374 . S
C1635 C1632 1.499 . S
C1635 C1636 1.373 . S
C1635 C1637 1.389 . S
C1636 H1609 0.950 . S
C1636 C1622 1.377 . S
C1636 C1635 1.373 . S
C1637 C1621 1.377 . S
C1637 C1635 1.389 . S
C1637 C1638 1.524 . S
C1638 C1637 1.524 . S
C1638 C1639 1.397 1_655 S
C1638 C1643 1.363 . S
C1639 H1610 0.950 . S
C1639 C1638 1.397 1_455 S
C1639 C1640 1.334 . S
C1640 H1611 0.950 . S
C1640 C1639 1.334 . S
C1640 C1641 1.287 . S
C1641 C1640 1.287 . S
C1641 C1642 1.524 1_455 S
C1641 H1644 0.999 . S
C1642 H1612 0.950 . S
C1642 C1641 1.524 1_655 S
C1642 C1643 1.415 . S
C1643 H1613 0.950 . S
C1643 C1638 1.363 . S
C1643 C1642 1.415 . S
H1644 C1641 0.999 . S
H1645 C1626 0.913 . S
H1646 C1664 0.951 1_545 S
H1647 C1666 0.951 1_545 S
H1648 C1668 0.950 . S
H1649 C1669 0.950 . S
H1650 C1671 0.950 . S
H1651 C1674 0.950 . S
H1652 C1675 0.950 . S
H1653 C1677 0.950 . S
H1654 C1678 0.950 . S
H1655 C1679 0.951 . S
H1656 C1681 0.951 . S
H1657 C1683 0.950 1_545 S
H1658 C1684 0.950 1_545 S
H1659 C1686 0.950 . S
H1660 C1689 0.950 . S
H1661 C1690 0.950 . S
H1662 C1692 0.950 . S
H1663 C1693 0.950 . S
C1664 H1646 0.951 1_565 S
C1664 C1665 1.366 . S
C1664 C1666 1.388 . S
C1665 C1664 1.366 . S
C1665 C1669 1.385 . S
C1666 H1647 0.951 1_565 S
C1666 C1664 1.388 . S
C1666 C1667 1.366 . S
C1667 C1666 1.366 . S
C1667 C1668 1.414 . S
C1667 C1670 1.499 . S
C1668 H1648 0.950 . S
C1668 C1667 1.414 . S
C1668 C1669 1.374 . S
C1669 H1649 0.950 . S
C1669 C1665 1.385 . S
C1669 C1668 1.374 . S
C1670 C1667 1.499 . S
C1670 C1671 1.373 . S
C1670 C1672 1.389 1_565 S
C1671 H1650 0.950 . S
C1671 C1670 1.373 . S
C1671 C1687 1.377 . S
C1672 C1670 1.389 1_545 S
C1672 C1673 1.524 . S
C1672 C1686 1.377 . S
C1673 C1672 1.524 . S
C1673 C1674 1.397 . S
C1673 C1678 1.363 . S
C1674 H1651 0.950 . S
C1674 C1673 1.397 . S
C1674 C1675 1.334 . S
C1675 H1652 0.950 . S
C1675 C1674 1.334 . S
C1675 C1676 1.287 . S
C1676 C1675 1.287 . S
C1676 C1677 1.524 . S
C1676 H1695 0.913 . S
C1677 H1653 0.950 . S
C1677 C1676 1.524 . S
C1677 C1678 1.415 . S
C1678 H1654 0.950 . S
C1678 C1673 1.363 . S
C1678 C1677 1.415 . S
C1679 H1655 0.951 . S
C1679 C1680 1.366 . S
C1679 C1681 1.388 . S
C1680 C1679 1.366 . S
C1680 C1684 1.385 . S
C1681 H1656 0.951 . S
C1681 C1679 1.388 . S
C1681 C1682 1.366 . S
C1682 C1681 1.366 . S
C1682 C1683 1.414 . S
C1682 C1685 1.499 . S
C1683 H1657 0.950 1_565 S
C1683 C1682 1.414 . S
C1683 C1684 1.374 . S
C1684 H1658 0.950 1_565 S
C1684 C1680 1.385 . S
C1684 C1683 1.374 . S
C1685 C1682 1.499 . S
C1685 C1686 1.373 1_565 S
C1685 C1687 1.389 . S
C1686 H1659 0.950 . S
C1686 C1672 1.377 . S
C1686 C1685 1.373 1_545 S
C1687 C1671 1.377 . S
C1687 C1685 1.389 . S
C1687 C1688 1.524 . S
C1688 C1687 1.524 . S
C1688 C1689 1.397 . S
C1688 C1693 1.363 . S
C1689 H1660 0.950 . S
C1689 C1688 1.397 . S
C1689 C1690 1.334 . S
C1690 H1661 0.950 . S
C1690 C1689 1.334 . S
C1690 C1691 1.287 . S
C1691 C1690 1.287 . S
C1691 C1692 1.524 . S
C1691 H1694 0.999 . S
C1692 H1662 0.950 . S
C1692 C1691 1.524 . S
C1692 C1693 1.415 . S
C1693 H1663 0.950 . S
C1693 C1688 1.363 . S
C1693 C1692 1.415 . S
H1694 C1691 0.999 . S
H1695 C1676 0.913 . S
H1696 C1714 0.951 . S
H1697 C1716 0.951 . S
H1698 C1718 0.950 . S
H1699 C1719 0.950 . S
H1700 C1721 0.950 . S
H1701 C1724 0.950 . S
H1702 C1725 0.950 . S
H1703 C1727 0.950 . S
H1704 C1728 0.950 . S
H1705 C1729 0.951 . S
H1706 C1731 0.951 . S
H1707 C1733 0.950 . S
H1708 C1734 0.950 . S
H1709 C1736 0.950 . S
H1710 C1739 0.950 . S
H1711 C1740 0.950 . S
H1712 C1742 0.950 . S
H1713 C1743 0.950 . S
C1714 H1696 0.951 . S
C1714 C1715 1.366 . S
C1714 C1716 1.388 . S
C1715 C1714 1.366 . S
C1715 C1719 1.385 . S
C1716 H1697 0.951 . S
C1716 C1714 1.388 . S
C1716 C1717 1.366 . S
C1717 C1716 1.366 . S
C1717 C1718 1.414 . S
C1717 C1720 1.499 . S
C1718 H1698 0.950 . S
C1718 C1717 1.414 . S
C1718 C1719 1.374 . S
C1719 H1699 0.950 . S
C1719 C1715 1.385 . S
C1719 C1718 1.374 . S
C1720 C1717 1.499 . S
C1720 C1721 1.373 . S
C1720 C1722 1.389 . S
C1721 H1700 0.950 . S
C1721 C1720 1.373 . S
C1721 C1737 1.377 . S
C1722 C1720 1.389 . S
C1722 C1723 1.524 . S
C1722 C1736 1.377 . S
C1723 C1722 1.524 . S
C1723 C1724 1.397 . S
C1723 C1728 1.363 . S
C1724 H1701 0.950 . S
C1724 C1723 1.397 . S
C1724 C1725 1.334 . S
C1725 H1702 0.950 . S
C1725 C1724 1.334 . S
C1725 C1726 1.287 . S
C1726 C1725 1.287 . S
C1726 C1727 1.524 . S
C1726 H1745 0.913 . S
C1727 H1703 0.950 . S
C1727 C1726 1.524 . S
C1727 C1728 1.415 . S
C1728 H1704 0.950 . S
C1728 C1723 1.363 . S
C1728 C1727 1.415 . S
C1729 H1705 0.951 . S
C1729 C1730 1.366 . S
C1729 C1731 1.388 . S
C1730 C1729 1.366 . S
C1730 C1734 1.385 . S
C1731 H1706 0.951 . S
C1731 C1729 1.388 . S
C1731 C1732 1.366 . S
C1732 C1731 1.366 . S
C1732 C1733 1.414 . S
C1732 C1735 1.499 . S
C1733 H1707 0.950 . S
C1733 C1732 1.414 . S
C1733 C1734 1.374 . S
C1734 H1708 0.950 . S
C1734 C1730 1.385 . S
C1734 C1733 1.374 . S
C1735 C1732 1.499 . S
C1735 C1736 1.373 . S
C1735 C1737 1.389 . S
C1736 H1709 0.950 . S
C1736 C1722 1.377 . S
C1736 C1735 1.373 . S
C1737 C1721 1.377 . S
C1737 C1735 1.389 . S
C1737 C1738 1.524 . S
C1738 C1737 1.524 . S
C1738 C1739 1.397 . S
C1738 C1743 1.363 . S
C1739 H1710 0.950 . S
C1739 C1738 1.397 . S
C1739 C1740 1.334 . S
C1740 H1711 0.950 . S
C1740 C1739 1.334 . S
C1740 C1741 1.287 . S
C1741 C1740 1.287 . S
C1741 C1742 1.524 . S
C1741 H1744 0.999 . S
C1742 H1712 0.950 . S
C1742 C1741 1.524 . S
C1742 C1743 1.415 . S
C1743 H1713 0.950 . S
C1743 C1738 1.363 . S
C1743 C1742 1.415 . S
H1744 C1741 0.999 . S
H1745 C1726 0.913 . S
H1746 C1764 0.951 . S
H1747 C1766 0.951 . S
H1748 C1768 0.950 . S
H1749 C1769 0.950 . S
H1750 C1771 0.950 . S
H1751 C1774 0.950 . S
H1752 C1775 0.950 . S
H1753 C1777 0.950 . S
H1754 C1778 0.950 . S
H1755 C1779 0.968 . S
H1756 C1781 0.952 . S
H1757 C1783 0.950 . S
H1758 C1784 0.950 . S
H1759 C1786 0.950 . S
H1760 C1789 0.950 . S
H1761 C1790 0.950 . S
H1762 C1792 0.950 1_655 S
H1763 C1793 0.950 1_655 S
C1764 H1746 0.951 . S
C1764 C1765 1.366 . S
C1764 C1766 1.388 . S
C1765 C1764 1.366 . S
C1765 C1769 1.385 1_455 S
C1766 H1747 0.951 . S
C1766 C1764 1.388 . S
C1766 C1767 1.366 . S
C1767 C1766 1.366 . S
C1767 C1768 1.414 1_455 S
C1767 C1770 1.499 . S
C1768 H1748 0.950 . S
C1768 C1767 1.414 1_655 S
C1768 C1769 1.374 . S
C1769 H1749 0.950 . S
C1769 C1765 1.385 1_655 S
C1769 C1768 1.374 . S
C1770 C1767 1.499 . S
C1770 C1771 1.373 . S
C1770 C1772 1.389 . S
C1771 H1750 0.950 . S
C1771 C1770 1.373 . S
C1771 C1787 1.377 . S
C1772 C1770 1.389 . S
C1772 C1773 1.524 . S
C1772 C1786 1.377 . S
C1773 C1772 1.524 . S
C1773 C1774 1.397 1_455 S
C1773 C1778 1.363 . S
C1774 H1751 0.950 . S
C1774 C1773 1.397 1_655 S
C1774 C1775 1.334 . S
C1775 H1752 0.950 . S
C1775 C1774 1.334 . S
C1775 C1776 1.265 1_655 S
C1776 C1775 1.265 1_455 S
C1776 C1777 1.547 . S
C1776 H1795 0.913 1_455 S
C1777 H1753 0.950 . S
C1777 C1776 1.547 . S
C1777 C1778 1.415 . S
C1778 H1754 0.950 . S
C1778 C1773 1.363 . S
C1778 C1777 1.415 . S
C1779 H1755 0.968 . S
C1779 C1780 1.339 1_655 S
C1779 C1781 1.398 . S
C1780 C1779 1.339 1_455 S
C1780 C1784 1.385 . S
C1781 H1756 0.952 . S
C1781 C1779 1.398 . S
C1781 C1782 1.365 1_655 S
C1782 C1781 1.365 1_455 S
C1782 C1783 1.414 . S
C1782 C1785 1.499 . S
C1783 H1757 0.950 . S
C1783 C1782 1.414 . S
C1783 C1784 1.374 . S
C1784 H1758 0.950 . S
C1784 C1780 1.385 . S
C1784 C1783 1.374 . S
C1785 C1782 1.499 . S
C1785 C1786 1.373 . S
C1785 C1787 1.389 . S
C1786 H1759 0.950 . S
C1786 C1772 1.377 . S
C1786 C1785 1.373 . S
C1787 C1771 1.377 . S
C1787 C1785 1.389 . S
C1787 C1788 1.524 . S
C1788 C1787 1.524 . S
C1788 C1789 1.397 . S
C1788 C1793 1.363 . S
C1789 H1760 0.950 . S
C1789 C1788 1.397 . S
C1789 C1790 1.334 . S
C1790 H1761 0.950 . S
C1790 C1789 1.334 . S
C1790 C1791 1.287 . S
C1791 C1790 1.287 . S
C1791 C1792 1.524 . S
C1791 H1794 0.999 . S
C1792 H1762 0.950 1_455 S
C1792 C1791 1.524 . S
C1792 C1793 1.415 . S
C1793 H1763 0.950 1_455 S
C1793 C1788 1.363 . S
C1793 C1792 1.415 . S
H1794 C1791 0.999 . S
H1795 C1776 0.913 1_655 S
H1796 C1814 0.951 . S
H1797 C1816 0.951 . S
H1798 C1818 0.950 . S
H1799 C1819 0.954 . S
H1800 C1821 0.950 . S
H1801 C1824 0.950 . S
H1802 C1825 0.950 . S
H1803 C1827 0.950 . S
H1804 C1828 0.950 . S
H1805 C1829 0.943 1_565 S
H1806 C1831 0.951 1_565 S
H1807 C1833 0.950 . S
H1808 C1834 0.950 . S
H1809 C1836 0.950 . S
H1810 C1839 0.950 . S
H1811 C1840 0.950 . S
H1812 C1842 0.950 . S
H1813 C1843 0.950 1_565 S
C1814 H1796 0.951 . S
C1814 C1815 1.366 . S
C1814 C1816 1.388 . S
C1815 C1814 1.366 . S
C1815 C1819 1.371 1_545 S
C1816 H1797 0.951 . S
C1816 C1814 1.388 . S
C1816 C1817 1.366 . S
C1817 C1816 1.366 . S
C1817 C1818 1.414 1_545 S
C1817 C1820 1.499 . S
C1818 H1798 0.950 . S
C1818 C1817 1.414 1_565 S
C1818 C1819 1.384 . S
C1819 H1799 0.954 . S
C1819 C1815 1.371 1_565 S
C1819 C1818 1.384 . S
C1820 C1817 1.499 . S
C1820 C1821 1.373 . S
C1820 C1822 1.389 . S
C1821 H1800 0.950 . S
C1821 C1820 1.373 . S
C1821 C1837 1.377 . S
C1822 C1820 1.389 . S
C1822 C1823 1.524 . S
C1822 C1836 1.377 . S
C1823 C1822 1.524 . S
C1823 C1824 1.397 1_545 S
C1823 C1828 1.363 . S
C1824 H1801 0.950 . S
C1824 C1823 1.397 1_565 S
C1824 C1825 1.334 . S
C1825 H1802 0.950 . S
C1825 C1824 1.334 . S
C1825 C1826 1.287 . S
C1826 C1825 1.287 . S
C1826 C1827 1.524 1_565 S
C1826 H1845 0.913 . S
C1827 H1803 0.950 . S
C1827 C1826 1.524 1_545 S
C1827 C1828 1.415 . S
C1828 H1804 0.950 . S
C1828 C1823 1.363 . S
C1828 C1827 1.415 . S
C1829 H1805 0.943 1_545 S
C1829 C1830 1.368 . S
C1829 C1831 1.393 . S
C1830 C1829 1.368 . S
C1830 C1834 1.385 . S
C1831 H1806 0.951 1_545 S
C1831 C1829 1.393 . S
C1831 C1832 1.366 . S
C1832 C1831 1.366 . S
C1832 C1833 1.414 . S
C1832 C1835 1.499 . S
C1833 H1807 0.950 . S
C1833 C1832 1.414 . S
C1833 C1834 1.374 . S
C1834 H1808 0.950 . S
C1834 C1830 1.385 . S
C1834 C1833 1.374 . S
C1835 C1832 1.499 . S
C1835 C1836 1.373 . S
C1835 C1837 1.389 . S
C1836 H1809 0.950 . S
C1836 C1822 1.377 . S
C1836 C1835 1.373 . S
C1837 C1821 1.377 . S
C1837 C1835 1.389 . S
C1837 C1838 1.524 . S
C1838 C1837 1.524 . S
C1838 C1839 1.397 . S
C1838 C1843 1.363 . S
C1839 H1810 0.950 . S
C1839 C1838 1.397 . S
C1839 C1840 1.334 . S
C1840 H1811 0.950 . S
C1840 C1839 1.334 . S
C1840 C1841 1.287 . S
C1841 C1840 1.287 . S
C1841 C1842 1.524 . S
C1841 H1844 0.999 . S
C1842 H1812 0.950 . S
C1842 C1841 1.524 . S
C1842 C1843 1.415 . S
C1843 H1813 0.950 1_545 S
C1843 C1838 1.363 . S
C1843 C1842 1.415 . S
H1844 C1841 0.999 . S
H1845 C1826 0.913 . S
H1846 C1864 0.951 . S
H1847 C1866 0.951 . S
H1848 C1868 0.950 . S
H1849 C1869 0.950 . S
H1850 C1871 0.950 . S
H1851 C1874 0.950 . S
H1852 C1875 0.950 . S
H1853 C1877 0.950 . S
H1854 C1878 0.950 . S
H1855 C1879 0.951 . S
H1856 C1881 0.951 . S
H1857 C1883 0.950 . S
H1858 C1884 0.950 . S
H1859 C1886 0.950 . S
H1860 C1889 0.950 . S
H1861 C1890 0.950 . S
H1862 C1892 0.950 . S
H1863 C1893 0.950 . S
C1864 H1846 0.951 . S
C1864 C1865 1.366 . S
C1864 C1866 1.388 . S
C1865 C1864 1.366 . S
C1865 C1869 1.385 . S
C1866 H1847 0.951 . S
C1866 C1864 1.388 . S
C1866 C1867 1.366 . S
C1867 C1866 1.366 . S
C1867 C1868 1.414 . S
C1867 C1870 1.499 . S
C1868 H1848 0.950 . S
C1868 C1867 1.414 . S
C1868 C1869 1.374 . S
C1869 H1849 0.950 . S
C1869 C1865 1.385 . S
C1869 C1868 1.374 . S
C1870 C1867 1.499 . S
C1870 C1871 1.373 . S
C1870 C1872 1.389 . S
C1871 H1850 0.950 . S
C1871 C1870 1.373 . S
C1871 C1887 1.377 . S
C1872 C1870 1.389 . S
C1872 C1873 1.524 . S
C1872 C1886 1.377 . S
C1873 C1872 1.524 . S
C1873 C1874 1.397 . S
C1873 C1878 1.363 . S
C1874 H1851 0.950 . S
C1874 C1873 1.397 . S
C1874 C1875 1.334 . S
C1875 H1852 0.950 . S
C1875 C1874 1.334 . S
C1875 C1876 1.287 . S
C1876 C1875 1.287 . S
C1876 C1877 1.524 . S
C1876 H1895 0.913 . S
C1877 H1853 0.950 . S
C1877 C1876 1.524 . S
C1877 C1878 1.415 . S
C1878 H1854 0.950 . S
C1878 C1873 1.363 . S
C1878 C1877 1.415 . S
C1879 H1855 0.951 . S
C1879 C1880 1.366 . S
C1879 C1881 1.388 . S
C1880 C1879 1.366 . S
C1880 C1884 1.385 . S
C1881 H1856 0.951 . S
C1881 C1879 1.388 . S
C1881 C1882 1.366 . S
C1882 C1881 1.366 . S
C1882 C1883 1.414 . S
C1882 C1885 1.499 . S
C1883 H1857 0.950 . S
C1883 C1882 1.414 . S
C1883 C1884 1.374 . S
C1884 H1858 0.950 . S
C1884 C1880 1.385 . S
C1884 C1883 1.374 . S
C1885 C1882 1.499 . S
C1885 C1886 1.373 . S
C1885 C1887 1.389 . S
C1886 H1859 0.950 . S
C1886 C1872 1.377 . S
C1886 C1885 1.373 . S
C1887 C1871 1.377 . S
C1887 C1885 1.389 . S
C1887 C1888 1.524 . S
C1888 C1887 1.524 . S
C1888 C1889 1.397 . S
C1888 C1893 1.363 . S
C1889 H1860 0.950 . S
C1889 C1888 1.397 . S
C1889 C1890 1.334 . S
C1890 H1861 0.950 . S
C1890 C1889 1.334 . S
C1890 C1891 1.287 . S
C1891 C1890 1.287 . S
C1891 C1892 1.524 . S
C1891 H1894 0.999 . S
C1892 H1862 0.950 . S
C1892 C1891 1.524 . S
C1892 C1893 1.415 . S
C1893 H1863 0.950 . S
C1893 C1888 1.363 . S
C1893 C1892 1.415 . S
H1894 C1891 0.999 . S
H1895 C1876 0.913 . S
C415 C239 1.203 . S
C430 C8 1.202 . S
C465 C272 1.203 . S
C480 C41 1.202 . S
C515 C74 1.202 . S
C530 C305 1.203 . S
C565 C338 1.203 . S
C580 C107 1.202 . S
C615 C140 1.202 . S
C630 C371 1.203 . S
C665 C206 1.203 . S
C680 C173 1.202 . S
C715 N14 2.015 . S
C730 N278 2.015 . S
C765 N47 2.015 . S
C780 N311 2.015 . S
C815 N344 2.015 . S
C830 N80 2.015 . S
C865 N377 2.015 . S
C880 N113 2.015 . S
C915 N146 2.016 . S
C930 N212 2.016 . S
C965 N245 2.015 . S
C980 N179 2.015 . S
C1015 N236 1.123 . S
C1030 C17 1.148 . S
C1065 N269 1.124 . S
C1080 C50 1.147 . S
C1115 N302 1.124 . S
C1130 C83 1.148 . S
C1165 C116 1.147 . S
C1180 N335 1.124 . S
C1215 N368 1.124 . S
C1230 C149 1.147 . S
C1265 C182 1.148 . S
C1280 N203 1.124 . S
C1315 C215 1.148 . S
C1330 N170 1.123 . S
C1365 N5 1.124 . S
C1380 C248 1.148 . S
C1415 N38 1.124 . S
C1430 C281 1.148 . S
C1465 N71 1.123 . S
C1480 C314 1.148 . S
C1515 N104 1.123 . S
C1530 C347 1.148 . S
C1565 N137 1.124 . S
C1580 C380 1.148 . S
C1615 C292 1.246 . S
C1630 C28 1.246 . S
C1665 C61 1.247 . S
C1680 C325 1.246 . S
C1715 C358 1.246 . S
C1730 C94 1.246 . S
C1765 C127 1.247 . S
C1780 C391 1.246 . S
C1815 C160 1.246 . S
C1830 C226 1.246 . S
C1865 C259 1.246 . S
C1880 C193 1.246 . S
