# Generated by pormake.
# Topology ecf, (8)-cn, num edge types: 1
# Building blocks:
#     Node 0, Type 0, BuildingBlock: AJUNOK_clean_sbu_0, # of connection points: 8
#     Node 1, Type 0, BuildingBlock: AJUNOK_clean_sbu_0, # of connection points: 8
#     Node 2, Type 0, BuildingBlock: AJUNOK_clean_sbu_0, # of connection points: 8
#     Node 3, Type 0, BuildingBlock: AJUNOK_clean_sbu_0, # of connection points: 8
#     Node 4, Type 0, BuildingBlock: AJUNOK_clean_sbu_0, # of connection points: 8
#     Node 5, Type 0, BuildingBlock: AJUNOK_clean_sbu_0, # of connection points: 8
#     Edge 6, Type (0, 0), BuildingBlock: EYOCIG_clean_linker_4, # of connection points: 2
#     Edge 7, Type (0, 0), BuildingBlock: EYOCIG_clean_linker_4, # of connection points: 2
#     Edge 8, Type (0, 0), BuildingBlock: EYOCIG_clean_linker_4, # of connection points: 2
#     Edge 9, Type (0, 0), BuildingBlock: EYOCIG_clean_linker_4, # of connection points: 2
#     Edge 10, Type (0, 0), BuildingBlock: EYOCIG_clean_linker_4, # of connection points: 2
#     Edge 11, Type (0, 0), BuildingBlock: EYOCIG_clean_linker_4, # of connection points: 2
#     Edge 12, Type (0, 0), BuildingBlock: EYOCIG_clean_linker_4, # of connection points: 2
#     Edge 13, Type (0, 0), BuildingBlock: EYOCIG_clean_linker_4, # of connection points: 2
#     Edge 14, Type (0, 0), BuildingBlock: EYOCIG_clean_linker_4, # of connection points: 2
#     Edge 15, Type (0, 0), BuildingBlock: EYOCIG_clean_linker_4, # of connection points: 2
#     Edge 16, Type (0, 0), BuildingBlock: EYOCIG_clean_linker_4, # of connection points: 2
#     Edge 17, Type (0, 0), BuildingBlock: EYOCIG_clean_linker_4, # of connection points: 2
#     Edge 18, Type (0, 0), BuildingBlock: EYOCIG_clean_linker_4, # of connection points: 2
#     Edge 19, Type (0, 0), BuildingBlock: EYOCIG_clean_linker_4, # of connection points: 2
#     Edge 20, Type (0, 0), BuildingBlock: EYOCIG_clean_linker_4, # of connection points: 2
#     Edge 21, Type (0, 0), BuildingBlock: EYOCIG_clean_linker_4, # of connection points: 2
#     Edge 22, Type (0, 0), BuildingBlock: EYOCIG_clean_linker_4, # of connection points: 2
#     Edge 23, Type (0, 0), BuildingBlock: EYOCIG_clean_linker_4, # of connection points: 2
#     Edge 24, Type (0, 0), BuildingBlock: EYOCIG_clean_linker_4, # of connection points: 2
#     Edge 25, Type (0, 0), BuildingBlock: EYOCIG_clean_linker_4, # of connection points: 2
#     Edge 26, Type (0, 0), BuildingBlock: EYOCIG_clean_linker_4, # of connection points: 2
#     Edge 27, Type (0, 0), BuildingBlock: EYOCIG_clean_linker_4, # of connection points: 2
#     Edge 28, Type (0, 0), BuildingBlock: EYOCIG_clean_linker_4, # of connection points: 2
#     Edge 29, Type (0, 0), BuildingBlock: EYOCIG_clean_linker_4, # of connection points: 2
# Relax obj value: 0.427
# Max RMSD: 0.281
# Mean RMSD: 0.281
data_MOF--net-ecf--node1-AJUNOK_clean_sbu_0--edge1-EYOCIG_clean_linker_4
_symmetry_space_group_name_H-M    P1
_symmetry_Int_Tables_number       1
_symmetry_cell_setting            triclinic
loop_
_symmetry_equiv_pos_as_xyz
'x, y, z'
_cell_length_a     33.26585
_cell_length_b     33.274672
_cell_length_c     19.305312
_cell_angle_alpha  90.117514
_cell_angle_beta   89.936888
_cell_angle_gamma 119.96437
loop_
_atom_site_label
_atom_site_type_symbol
_atom_site_fract_x
_atom_site_fract_y
_atom_site_fract_z
_atom_type_partial_charge
Cd0 Cd 0.13551 0.33066 0.22982 0.0
Cd1 Cd 0.21413 0.33078 0.34367 0.0
C2 C 0.04863 0.23002 0.24749 0.0
N3 N 0.09342 0.25012 0.22573 0.0
C4 C 0.08578 0.17593 0.20391 0.0
C5 C 0.04151 0.15512 0.23233 0.0
C6 C 0.02202 0.18203 0.25244 0.0
C7 C 0.11164 0.22401 0.20199 0.0
H8 H 0.03403 0.25126 0.26307 0.0
H9 H 0.14657 0.23965 0.18409 0.0
C10 C 0.22531 0.30904 0.16156 0.0
C11 C 0.27966 0.4239 0.25703 0.0
C12 C 0.31362 0.47043 0.24809 0.0
C13 C 0.32102 0.50258 0.3004 0.0
C14 C 0.29296 0.48779 0.35963 0.0
C15 C 0.25947 0.44083 0.36665 0.0
N16 N 0.25311 0.40999 0.3154 0.0
H17 H 0.27615 0.39869 0.21879 0.0
H18 H 0.23997 0.42854 0.41432 0.0
C19 C 0.20041 0.23011 0.32523 0.0
N20 N 0.17568 0.25023 0.34692 0.0
C21 C 0.10904 0.17603 0.36771 0.0
C22 C 0.13257 0.15523 0.33934 0.0
C23 C 0.17903 0.18213 0.31976 0.0
C24 C 0.13127 0.2241 0.37011 0.0
H25 H 0.2363 0.25134 0.31007 0.0
H26 H 0.11194 0.23975 0.38792 0.0
C27 C 0.10267 0.30903 0.4119 0.0
C28 C 0.07858 0.3515 0.15013 0.0
N29 N 0.17593 0.40988 0.25813 0.0
C30 C 0.16342 0.42399 0.31651 0.0
C31 C 0.17606 0.47057 0.32541 0.0
C32 C 0.20077 0.50256 0.27305 0.0
C33 C 0.21392 0.48756 0.21384 0.0
C34 C 0.20036 0.44055 0.20685 0.0
C35 C 0.29175 0.35152 0.42372 0.0
O36 O 0.19423 0.31999 0.14778 0.0
O37 O 0.23561 0.30852 0.2251 0.0
O38 O 0.14471 0.32002 0.42572 0.0
O39 O 0.09183 0.30846 0.34836 0.0
O40 O 0.10885 0.34452 0.12163 0.0
O41 O 0.07255 0.3454 0.21446 0.0
O42 O 0.25457 0.34483 0.45204 0.0
O43 O 0.29165 0.34514 0.35944 0.0
H44 H 0.14174 0.39888 0.35474 0.0
H45 H 0.20745 0.42809 0.15918 0.0
H46 H 0.10138 0.15552 0.18804 0.0
H47 H 0.98736 0.16627 0.27412 0.0
H48 H 0.33538 0.48068 0.20232 0.0
H49 H 0.29847 0.51172 0.40152 0.0
H50 H 0.07299 0.15563 0.38319 0.0
H51 H 0.19798 0.16637 0.29814 0.0
H52 H 0.16465 0.48099 0.37117 0.0
H53 H 0.23229 0.51135 0.17193 0.0
Cd54 Cd 0.8925 0.20914 0.84356 0.0
Cd55 Cd 0.8142 0.13051 0.72946 0.0
C56 C 0.97955 0.19552 0.82539 0.0
N57 N 0.93467 0.17071 0.84668 0.0
C58 C 0.94229 0.10405 0.86701 0.0
C59 C 0.98667 0.12767 0.83902 0.0
C60 C 1.00621 0.17418 0.81988 0.0
C61 C 0.91638 0.12624 0.86942 0.0
H62 H 0.99419 0.23145 0.81058 0.0
H63 H 0.88136 0.10684 0.88687 0.0
C64 C 0.80294 0.09766 0.91147 0.0
C65 C 0.7488 0.15846 0.81627 0.0
C66 C 0.7149 0.17117 0.82524 0.0
C67 C 0.70759 0.1959 0.77296 0.0
C68 C 0.73565 0.20898 0.71375 0.0
C69 C 0.76907 0.19535 0.70669 0.0
N70 N 0.77536 0.17093 0.75791 0.0
H71 H 0.75226 0.13678 0.85445 0.0
H72 H 0.78857 0.20241 0.65902 0.0
C73 C 0.82807 0.04363 0.74679 0.0
N74 N 0.85266 0.08838 0.72504 0.0
C75 C 0.91922 0.08072 0.70315 0.0
C76 C 0.89586 0.0365 0.73157 0.0
C77 C 0.84949 0.01702 0.7517 0.0
C78 C 0.89695 0.10657 0.70126 0.0
H79 H 0.79227 0.02905 0.76244 0.0
H80 H 0.91617 0.14147 0.68336 0.0
C81 C 0.9256 0.22036 0.66163 0.0
C82 C 0.9491 0.28656 0.92428 0.0
N83 N 0.85235 0.24823 0.81506 0.0
C84 C 0.86499 0.27473 0.75669 0.0
C85 C 0.85241 0.30869 0.74765 0.0
C86 C 0.82763 0.31615 0.79986 0.0
C87 C 0.81438 0.28817 0.85908 0.0
C88 C 0.82787 0.25468 0.86621 0.0
C89 C 0.73649 0.07388 0.64937 0.0
O90 O 0.83393 0.13969 0.92538 0.0
O91 O 0.79271 0.08679 0.84789 0.0
O92 O 0.8836 0.18928 0.64771 0.0
O93 O 0.93638 0.23068 0.72521 0.0
O94 O 0.91851 0.24937 0.95224 0.0
O95 O 0.95561 0.28656 0.86006 0.0
O96 O 0.77369 0.10425 0.62111 0.0
O97 O 0.7366 0.06756 0.7136 0.0
H98 H 0.88669 0.27115 0.71854 0.0
H99 H 0.82066 0.23522 0.91388 0.0
H100 H 0.92667 0.06797 0.88216 0.0
H101 H 0.04096 0.19321 0.79856 0.0
H102 H 0.69313 0.15981 0.87099 0.0
H103 H 0.7302 0.22737 0.67189 0.0
H104 H 0.9552 0.09631 0.6873 0.0
H105 H 0.83068 0.98241 0.77339 0.0
H106 H 0.86391 0.33039 0.70189 0.0
H107 H 0.79594 0.29373 0.90089 0.0
Cd108 Cd 0.69312 0.80961 0.22935 0.0
Cd109 Cd 0.693 0.88821 0.34329 0.0
C110 C 0.79393 0.82355 0.24721 0.0
N111 N 0.7737 0.84812 0.22554 0.0
C112 C 0.84783 0.91475 0.20412 0.0
C113 C 0.86875 0.89139 0.2324 0.0
C114 C 0.84195 0.84501 0.2523 0.0
C115 C 0.79973 0.89244 0.20208 0.0
H116 H 0.77277 0.78773 0.26263 0.0
H117 H 0.784 0.91166 0.18429 0.0
C118 C 0.71464 0.92092 0.16126 0.0
C119 C 0.59973 0.86011 0.2566 0.0
C120 C 0.55314 0.84738 0.24765 0.0
C121 C 0.52107 0.8227 0.29998 0.0
C122 C 0.53603 0.80967 0.35922 0.0
C123 C 0.58305 0.82331 0.36625 0.0
N124 N 0.61379 0.84769 0.31498 0.0
H125 H 0.62488 0.88176 0.21837 0.0
H126 H 0.59546 0.8163 0.41393 0.0
C127 C 0.79362 0.97516 0.32543 0.0
N128 N 0.77355 0.93036 0.34697 0.0
C129 C 0.84779 0.93801 0.36809 0.0
C130 C 0.86856 0.98229 0.33988 0.0
C131 C 0.84161 1.00178 0.32022 0.0
C132 C 0.7997 0.91214 0.37024 0.0
H133 H 0.77234 0.98975 0.31019 0.0
H134 H 0.78408 0.87719 0.38792 0.0
C135 C 0.71481 0.79859 0.41136 0.0
C136 C 0.67223 0.73191 0.14919 0.0
N137 N 0.61388 0.77055 0.2578 0.0
C138 C 0.59995 0.74408 0.31618 0.0
C139 C 0.55342 0.71013 0.32519 0.0
C140 C 0.52127 0.70264 0.27293 0.0
C141 C 0.53609 0.7306 0.21368 0.0
C142 C 0.58306 0.76408 0.20658 0.0
C143 C 0.67191 0.94502 0.42321 0.0
O144 O 0.7037 0.87889 0.14741 0.0
O145 O 0.71522 0.93183 0.22482 0.0
O146 O 0.7038 0.82964 0.42523 0.0
O147 O 0.7154 0.78826 0.3478 0.0
O148 O 0.67887 0.76904 0.12097 0.0
O149 O 0.67883 0.73211 0.21339 0.0
O150 O 0.67904 0.91489 0.4516 0.0
O151 O 0.67802 0.95101 0.35888 0.0
H152 H 0.62516 0.74767 0.35437 0.0
H153 H 0.59537 0.78351 0.1589 0.0
H154 H 0.86815 0.95073 0.18844 0.0
H155 H 0.85781 0.8262 0.27388 0.0
H156 H 0.54275 0.8587 0.20188 0.0
H157 H 0.51217 0.79132 0.40112 0.0
H158 H 0.86823 0.92241 0.3836 0.0
H159 H 0.85734 0.03644 0.29871 0.0
H160 H 0.54315 0.68845 0.37098 0.0
H161 H 0.51217 0.72501 0.17183 0.0
Cd162 Cd 0.81409 0.68833 0.84313 0.0
Cd163 Cd 0.89276 0.68829 0.7293 0.0
C164 C 0.82788 0.78903 0.82544 0.0
N165 N 0.85253 0.76887 0.84707 0.0
C166 C 0.91918 0.84303 0.86832 0.0
C167 C 0.89575 0.86387 0.83999 0.0
C168 C 0.84931 0.83701 0.82025 0.0
C169 C 0.8969 0.79495 0.87047 0.0
H170 H 0.79202 0.76782 0.8101 0.0
H171 H 0.91616 0.77926 0.88824 0.0
C172 C 0.92541 0.70989 0.91139 0.0
C173 C 0.86504 0.59507 0.81571 0.0
C174 C 0.85243 0.54853 0.8246 0.0
C175 C 0.82776 0.51642 0.77224 0.0
C176 C 0.81465 0.53128 0.71299 0.0
C177 C 0.82817 0.57826 0.70601 0.0
N178 N 0.85253 0.60905 0.75734 0.0
H179 H 0.88666 0.62025 0.85399 0.0
H180 H 0.82107 0.59061 0.65835 0.0
C181 C 0.9796 0.78902 0.74759 0.0
N182 N 0.93482 0.76886 0.72583 0.0
C183 C 0.9424 0.84301 0.70431 0.0
C184 C 0.98669 0.86389 0.73261 0.0
C185 C 1.0062 0.83702 0.75264 0.0
C186 C 0.91656 0.79493 0.70231 0.0
H187 H 0.99424 0.76783 0.76303 0.0
H188 H 0.88163 0.77926 0.68444 0.0
C189 C 0.80305 0.70999 0.66112 0.0
C190 C 0.73622 0.66729 0.92287 0.0
N191 N 0.77542 0.60914 0.81467 0.0
C192 C 0.74892 0.59507 0.75625 0.0
C193 C 0.71507 0.54849 0.74724 0.0
C194 C 0.70774 0.51646 0.79954 0.0
C195 C 0.73574 0.53143 0.85881 0.0
C196 C 0.76911 0.57843 0.86591 0.0
C197 C 0.94981 0.66753 0.64948 0.0
O198 O 0.88337 0.69895 0.9252 0.0
O199 O 0.93631 0.71047 0.84785 0.0
O200 O 0.8341 0.69897 0.64728 0.0
O201 O 0.79274 0.7106 0.72467 0.0
O202 O 0.77349 0.67445 0.95134 0.0
O203 O 0.73631 0.67338 0.85855 0.0
O204 O 0.91948 0.67436 0.62104 0.0
O205 O 0.95587 0.67379 0.7138 0.0
H206 H 0.75239 0.6202 0.71805 0.0
H207 H 0.78855 0.59086 0.91362 0.0
H208 H 0.95522 0.86339 0.88387 0.0
H209 H 0.83044 0.85281 0.79864 0.0
H210 H 0.86381 0.53822 0.87039 0.0
H211 H 0.79631 0.50739 0.67107 0.0
H212 H 0.92679 0.86338 0.68851 0.0
H213 H 0.04088 0.85284 0.77423 0.0
H214 H 0.69335 0.5381 0.70145 0.0
H215 H 0.73026 0.5076 0.90069 0.0
Cd216 Cd 0.21391 0.88765 0.22901 0.0
Cd217 Cd 0.13541 0.80957 0.34308 0.0
C218 C 0.20029 0.97474 0.24681 0.0
N219 N 0.17557 0.92992 0.22515 0.0
C220 C 0.10909 0.9377 0.20355 0.0
C221 C 0.1326 0.98203 0.23179 0.0
C222 C 0.17898 1.00146 0.25178 0.0
C223 C 0.13125 0.91175 0.20159 0.0
H224 H 0.23611 0.98929 0.26228 0.0
H225 H 0.11192 0.87681 0.18378 0.0
C226 C 0.10233 0.79798 0.16124 0.0
C227 C 0.16312 0.74392 0.25633 0.0
C228 C 0.17577 0.70998 0.24744 0.0
C229 C 0.20059 0.70276 0.29973 0.0
C230 C 0.2138 0.73096 0.35886 0.0
C231 C 0.20023 0.76441 0.36584 0.0
N232 N 0.17572 0.77062 0.31461 0.0
H233 H 0.14137 0.7473 0.21815 0.0
H234 H 0.20739 0.78402 0.41346 0.0
C235 C 0.04864 0.82365 0.32542 0.0
N236 N 0.09352 0.8483 0.34674 0.0
C237 C 0.08622 0.91515 0.36767 0.0
C238 C 0.04183 0.89168 0.33971 0.0
C239 C 0.02213 0.84516 0.32025 0.0
C240 C 0.11197 0.89278 0.36978 0.0
H241 H 0.03388 0.78772 0.31034 0.0
H242 H 0.14699 0.91207 0.38723 0.0
C243 C 0.22532 0.92088 0.41101 0.0
C244 C 0.29127 0.94404 0.14825 0.0
N245 N 0.253 0.8475 0.25743 0.0
C246 C 0.27961 0.86021 0.31574 0.0
C247 C 0.31353 0.84755 0.32474 0.0
C248 C 0.32082 0.82263 0.27254 0.0
C249 C 0.29271 0.80932 0.21338 0.0
C250 C 0.25927 0.82289 0.20629 0.0
C251 C 0.07881 0.73217 0.42346 0.0
O252 O 0.14439 0.82887 0.14734 0.0
O253 O 0.09148 0.78788 0.22481 0.0
O254 O 0.19417 0.87894 0.4249 0.0
O255 O 0.23561 0.9316 0.34744 0.0
O256 O 0.25408 0.91333 0.12035 0.0
O257 O 0.2913 0.95076 0.21243 0.0
O258 O 0.10926 0.76942 0.45158 0.0
O259 O 0.07237 0.7321 0.35923 0.0
H260 H 0.27616 0.882 0.35388 0.0
H261 H 0.23971 0.81562 0.15866 0.0
H262 H 0.0731 0.92215 0.18782 0.0
H263 H 0.19791 0.03616 0.27334 0.0
H264 H 0.1643 0.6881 0.20175 0.0
H265 H 0.23225 0.72558 0.40073 0.0
H266 H 0.10199 0.95124 0.38302 0.0
H267 H 0.98737 0.82627 0.29893 0.0
H268 H 0.33533 0.85909 0.37045 0.0
H269 H 0.29814 0.79077 0.17158 0.0
Cd270 Cd 0.33545 0.1307 0.84309 0.0
Cd271 Cd 0.3358 0.2094 0.72929 0.0
C272 C 0.23467 0.04409 0.8247 0.0
N273 N 0.25487 0.08896 0.84616 0.0
C274 C 0.18072 0.0817 0.86685 0.0
C275 C 0.15984 0.03732 0.83877 0.0
C276 C 0.18668 0.01761 0.81933 0.0
C277 C 0.22881 0.10743 0.86912 0.0
H278 H 0.25586 0.0293 0.80972 0.0
H279 H 0.24452 0.14244 0.88667 0.0
C280 C 0.31399 0.22053 0.91151 0.0
C281 C 0.42905 0.27507 0.81578 0.0
C282 C 0.47561 0.30899 0.82467 0.0
C283 C 0.5077 0.31621 0.77237 0.0
C284 C 0.4928 0.28802 0.71322 0.0
C285 C 0.44581 0.25458 0.70624 0.0
N286 N 0.41505 0.24839 0.75748 0.0
H287 H 0.40388 0.27167 0.85398 0.0
H288 H 0.43343 0.23497 0.65863 0.0
C289 C 0.23511 0.19582 0.74717 0.0
N290 N 0.25523 0.17117 0.72509 0.0
C291 C 0.18102 0.10481 0.70289 0.0
C292 C 0.16018 0.12823 0.73153 0.0
C293 C 0.1871 0.17452 0.75202 0.0
C294 C 0.22911 0.12697 0.70101 0.0
H295 H 0.25635 0.23156 0.76305 0.0
H296 H 0.24476 0.10772 0.6828 0.0
C297 C 0.31402 0.0979 0.66107 0.0
C298 C 0.35604 0.07359 0.92267 0.0
N299 N 0.41468 0.17116 0.81491 0.0
C300 C 0.42877 0.15858 0.75658 0.0
C301 C 0.47536 0.17126 0.74771 0.0
C302 C 0.50739 0.19608 0.80005 0.0
C303 C 0.49241 0.20928 0.85923 0.0
C304 C 0.44539 0.19568 0.86619 0.0
C305 C 0.35669 0.28697 0.64925 0.0
O306 O 0.32474 0.18932 0.9253 0.0
O307 O 0.3136 0.23089 0.84798 0.0
O308 O 0.32518 0.13997 0.64733 0.0
O309 O 0.31326 0.087 0.72459 0.0
O310 O 0.34905 0.10382 0.95126 0.0
O311 O 0.35004 0.06767 0.8583 0.0
O312 O 0.34997 0.24977 0.62096 0.0
O313 O 0.35028 0.28693 0.71351 0.0
H314 H 0.40364 0.13681 0.71836 0.0
H315 H 0.43295 0.20283 0.91384 0.0
H316 H 0.16037 0.09746 0.88222 0.0
H317 H 0.17085 0.98285 0.79796 0.0
H318 H 0.48595 0.33085 0.87037 0.0
H319 H 0.51668 0.2934 0.67135 0.0
H320 H 0.16061 0.06889 0.68678 0.0
H321 H 0.17131 0.19337 0.7739 0.0
H322 H 0.48576 0.1598 0.70199 0.0
H323 H 0.51625 0.22774 0.90114 0.0
C324 C 0.21283 0.58751 0.28303 0.0
C325 C 0.20788 0.54909 0.27699 0.0
C326 C 0.21279 0.62994 0.28976 0.0
C327 C 0.20778 0.66337 0.2958 0.0
C328 C 0.59239 0.20823 0.79 0.0
C329 C 0.55396 0.20326 0.79612 0.0
C330 C 0.63482 0.20818 0.78314 0.0
C331 C 0.66823 0.20314 0.77699 0.0
C332 C 0.3939 0.58744 0.29019 0.0
C333 C 0.36044 0.54908 0.29637 0.0
C334 C 0.43635 0.62984 0.28327 0.0
C335 C 0.47475 0.66326 0.27706 0.0
C336 C 0.81558 0.38902 0.78947 0.0
C337 C 0.82051 0.35557 0.79572 0.0
C338 C 0.8156 0.43147 0.78248 0.0
C339 C 0.82059 0.46987 0.77628 0.0
C340 C 0.39361 0.81043 0.28283 0.0
C341 C 0.36019 0.81543 0.27661 0.0
C342 C 0.43606 0.81045 0.28977 0.0
C343 C 0.47449 0.81547 0.29596 0.0
C344 C 0.59263 0.38903 0.78244 0.0
C345 C 0.55423 0.35559 0.77632 0.0
C346 C 0.63503 0.43148 0.78929 0.0
C347 C 0.66841 0.46991 0.79546 0.0
C348 C 0.09601 0.06938 0.30034 0.0
C349 C 0.10807 0.10744 0.32144 0.0
C350 C 0.09604 0.03153 0.26996 0.0
C351 C 0.10812 1.00545 0.2492 0.0
C352 C 0.03616 0.09131 0.79989 0.0
C353 C 1.01006 0.10325 0.82101 0.0
C354 C 0.07413 0.09152 0.76953 0.0
C355 C 0.1123 0.1037 0.74881 0.0
C356 C 0.99226 0.06925 0.27072 0.0
C357 C 0.01825 0.10731 0.24982 0.0
C358 C 0.95444 0.0315 0.30115 0.0
C359 C 0.91637 1.00555 0.32213 0.0
C360 C 0.93261 0.98739 0.77026 0.0
C361 C 0.92051 0.01333 0.74919 0.0
C362 C 0.93254 0.94964 0.80096 0.0
C363 C 0.92037 0.91162 0.82211 0.0
C364 C 0.95472 0.92824 0.27078 0.0
C365 C 0.91659 0.91603 0.24994 0.0
C366 C 0.99261 0.92836 0.30112 0.0
C367 C 0.01862 0.91628 0.32203 0.0
C368 C 0.07391 0.98799 0.80039 0.0
C369 C 0.11201 0.01404 0.82119 0.0
C370 C 0.03604 0.94999 0.77039 0.0
C371 C 1.01004 0.91179 0.74984 0.0
C372 C 0.26229 0.27671 0.06223 0.0
C373 C 0.24505 0.29149 0.1062 0.0
C374 C 0.28157 0.25747 1.01078 0.0
C375 C 0.29638 0.24026 0.96682 0.0
C376 C 0.99488 0.25734 0.56248 0.0
C377 C 0.96289 0.24011 0.60637 0.0
C378 C 0.03339 0.27662 0.5111 0.0
C379 C 0.06539 0.29144 0.46719 0.0
C380 C 0.74691 0.99004 0.06203 0.0
C381 C 0.73216 0.95812 0.10595 0.0
C382 C 0.76611 0.02848 1.01063 0.0
C383 C 0.78327 0.06042 0.96673 0.0
C384 C 0.76627 0.7424 0.56193 0.0
C385 C 0.78342 0.72759 0.60583 0.0
C386 C 0.74708 0.76168 0.51056 0.0
C387 C 0.73233 0.77889 0.46667 0.0
C388 C 0.99458 0.74205 1.01067 0.0
C389 C 0.96262 0.72734 0.96675 0.0
C390 C 0.03307 0.7612 0.06207 0.0
C391 C 0.06505 0.77833 0.10597 0.0
C392 C 0.28165 0.02869 0.56168 0.0
C393 C 0.29645 0.06067 0.60566 0.0
C394 C 0.26236 0.99019 0.51023 0.0
C395 C 0.24511 0.9582 0.46628 0.0
C396 C 0.66888 0.65049 1.00664 0.0
C397 C 0.69691 0.65733 0.96304 0.0
C398 C 0.65521 0.66447 0.06533 0.0
C399 C 0.66226 0.69265 0.10883 0.0
C400 C 0.02848 0.66499 0.50739 0.0
C401 C 0.0496 0.69307 0.46393 0.0
C402 C 1.0007 0.65103 0.56586 0.0
C403 C 0.97935 0.65779 0.60931 0.0
C404 C 0.37233 0.02253 1.0059 0.0
C405 C 0.36566 0.044 0.9627 0.0
C406 C 0.35832 0.99457 0.06411 0.0
C407 C 0.33023 0.97335 0.10755 0.0
C408 C 0.37311 0.35412 0.56555 0.0
C409 C 0.36634 0.32605 0.60891 0.0
C410 C 0.35907 0.36801 0.50729 0.0
C411 C 0.3309 0.3612 0.46401 0.0
C412 C 0.02762 0.36782 0.06668 0.0
C413 C 0.04903 0.36114 0.11001 0.0
C414 C 0.99969 0.35374 1.00836 0.0
C415 C 0.97844 0.32561 0.96492 0.0
C416 C 0.66913 0.02344 0.56557 0.0
C417 C 0.69727 0.0446 0.60903 0.0
C418 C 0.65518 0.99568 0.507 0.0
C419 C 0.66201 0.97443 0.46345 0.0
loop_
_geom_bond_atom_site_label_1
_geom_bond_atom_site_label_2
_geom_bond_distance
_geom_bond_site_symmetry_2
_ccdc_geom_bond_type
Cd0 N3 2.334 . S
Cd0 N29 2.304 . S
Cd0 O36 2.268 . S
Cd0 O39 2.273 . S
Cd0 O40 2.417 . S
Cd0 O41 2.330 . S
Cd1 N16 2.304 . S
Cd1 N20 2.334 . S
Cd1 O37 2.273 . S
Cd1 O38 2.268 . S
Cd1 O42 2.417 . S
Cd1 O43 2.330 . S
C2 N3 1.332 . S
C2 C6 1.381 . S
C2 H8 0.931 . S
N3 Cd0 2.334 . S
N3 C2 1.332 . S
N3 C7 1.328 . S
C4 C5 1.396 . S
C4 C7 1.378 . S
C4 H46 0.931 . S
C5 C4 1.396 . S
C5 C6 1.382 . S
C6 C2 1.381 . S
C6 C5 1.382 . S
C6 H47 0.930 1_455 S
C7 N3 1.328 . S
C7 C4 1.378 . S
C7 H9 0.930 . S
H8 C2 0.931 . S
H9 C7 0.930 . S
C10 O36 1.238 . S
C10 O37 1.253 . S
C11 C12 1.379 . S
C11 N16 1.337 . S
C11 H17 0.929 . S
C12 C11 1.379 . S
C12 C13 1.380 . S
C12 H48 0.929 . S
C13 C12 1.380 . S
C13 C14 1.399 . S
C14 C13 1.399 . S
C14 C15 1.376 . S
C14 H49 0.931 . S
C15 C14 1.376 . S
C15 N16 1.338 . S
C15 H18 0.930 . S
N16 Cd1 2.304 . S
N16 C11 1.337 . S
N16 C15 1.338 . S
H17 C11 0.929 . S
H18 C15 0.930 . S
C19 N20 1.332 . S
C19 C23 1.381 . S
C19 H25 0.931 . S
N20 Cd1 2.334 . S
N20 C19 1.332 . S
N20 C24 1.328 . S
C21 C22 1.396 . S
C21 C24 1.378 . S
C21 H50 0.931 . S
C22 C21 1.396 . S
C22 C23 1.382 . S
C23 C19 1.381 . S
C23 C22 1.382 . S
C23 H51 0.930 . S
C24 N20 1.328 . S
C24 C21 1.378 . S
C24 H26 0.930 . S
H25 C19 0.931 . S
H26 C24 0.930 . S
C27 O38 1.238 . S
C27 O39 1.253 . S
C28 O40 1.239 . S
C28 O41 1.230 . S
N29 Cd0 2.304 . S
N29 C30 1.337 . S
N29 C34 1.338 . S
C30 N29 1.337 . S
C30 C31 1.379 . S
C30 H44 0.929 . S
C31 C30 1.379 . S
C31 C32 1.380 . S
C31 H52 0.929 . S
C32 C31 1.380 . S
C32 C33 1.399 . S
C33 C32 1.399 . S
C33 C34 1.376 . S
C33 H53 0.931 . S
C34 N29 1.338 . S
C34 C33 1.376 . S
C34 H45 0.930 . S
C35 O42 1.239 . S
C35 O43 1.230 . S
O36 Cd0 2.268 . S
O36 C10 1.238 . S
O37 Cd1 2.273 . S
O37 C10 1.253 . S
O38 Cd1 2.268 . S
O38 C27 1.238 . S
O39 Cd0 2.273 . S
O39 C27 1.253 . S
O40 Cd0 2.417 . S
O40 C28 1.239 . S
O41 Cd0 2.330 . S
O41 C28 1.230 . S
O42 Cd1 2.417 . S
O42 C35 1.239 . S
O43 Cd1 2.330 . S
O43 C35 1.230 . S
H44 C30 0.929 . S
H45 C34 0.930 . S
H46 C4 0.931 . S
H47 C6 0.930 1_655 S
H48 C12 0.929 . S
H49 C14 0.931 . S
H50 C21 0.931 . S
H51 C23 0.930 . S
H52 C31 0.929 . S
H53 C33 0.931 . S
Cd54 N57 2.334 . S
Cd54 N83 2.304 . S
Cd54 O90 2.268 . S
Cd54 O93 2.273 . S
Cd54 O94 2.417 . S
Cd54 O95 2.330 . S
Cd55 N70 2.304 . S
Cd55 N74 2.334 . S
Cd55 O91 2.273 . S
Cd55 O92 2.268 . S
Cd55 O96 2.417 . S
Cd55 O97 2.330 . S
C56 N57 1.332 . S
C56 C60 1.381 . S
C56 H62 0.931 . S
N57 Cd54 2.334 . S
N57 C56 1.332 . S
N57 C61 1.328 . S
C58 C59 1.396 . S
C58 C61 1.378 . S
C58 H100 0.931 . S
C59 C58 1.396 . S
C59 C60 1.382 . S
C60 C56 1.381 . S
C60 C59 1.382 . S
C60 H101 0.930 1_655 S
C61 N57 1.328 . S
C61 C58 1.378 . S
C61 H63 0.930 . S
H62 C56 0.931 . S
H63 C61 0.930 . S
C64 O90 1.238 . S
C64 O91 1.253 . S
C65 C66 1.379 . S
C65 N70 1.337 . S
C65 H71 0.929 . S
C66 C65 1.379 . S
C66 C67 1.380 . S
C66 H102 0.929 . S
C67 C66 1.380 . S
C67 C68 1.399 . S
C68 C67 1.399 . S
C68 C69 1.376 . S
C68 H103 0.931 . S
C69 C68 1.376 . S
C69 N70 1.338 . S
C69 H72 0.930 . S
N70 Cd55 2.304 . S
N70 C65 1.337 . S
N70 C69 1.338 . S
H71 C65 0.929 . S
H72 C69 0.930 . S
C73 N74 1.332 . S
C73 C77 1.381 . S
C73 H79 0.931 . S
N74 Cd55 2.334 . S
N74 C73 1.332 . S
N74 C78 1.328 . S
C75 C76 1.396 . S
C75 C78 1.378 . S
C75 H104 0.931 . S
C76 C75 1.396 . S
C76 C77 1.382 . S
C77 C73 1.381 . S
C77 C76 1.382 . S
C77 H105 0.930 1_545 S
C78 N74 1.328 . S
C78 C75 1.378 . S
C78 H80 0.930 . S
H79 C73 0.931 . S
H80 C78 0.930 . S
C81 O92 1.238 . S
C81 O93 1.253 . S
C82 O94 1.239 . S
C82 O95 1.230 . S
N83 Cd54 2.304 . S
N83 C84 1.337 . S
N83 C88 1.338 . S
C84 N83 1.337 . S
C84 C85 1.379 . S
C84 H98 0.929 . S
C85 C84 1.379 . S
C85 C86 1.380 . S
C85 H106 0.929 . S
C86 C85 1.380 . S
C86 C87 1.399 . S
C87 C86 1.399 . S
C87 C88 1.376 . S
C87 H107 0.931 . S
C88 N83 1.338 . S
C88 C87 1.376 . S
C88 H99 0.930 . S
C89 O96 1.239 . S
C89 O97 1.230 . S
O90 Cd54 2.268 . S
O90 C64 1.238 . S
O91 Cd55 2.273 . S
O91 C64 1.253 . S
O92 Cd55 2.268 . S
O92 C81 1.238 . S
O93 Cd54 2.273 . S
O93 C81 1.253 . S
O94 Cd54 2.417 . S
O94 C82 1.239 . S
O95 Cd54 2.330 . S
O95 C82 1.230 . S
O96 Cd55 2.417 . S
O96 C89 1.239 . S
O97 Cd55 2.330 . S
O97 C89 1.230 . S
H98 C84 0.929 . S
H99 C88 0.930 . S
H100 C58 0.931 . S
H101 C60 0.930 1_455 S
H102 C66 0.929 . S
H103 C68 0.931 . S
H104 C75 0.931 . S
H105 C77 0.930 1_565 S
H106 C85 0.929 . S
H107 C87 0.931 . S
Cd108 N111 2.334 . S
Cd108 N137 2.304 . S
Cd108 O144 2.268 . S
Cd108 O147 2.273 . S
Cd108 O148 2.417 . S
Cd108 O149 2.330 . S
Cd109 N124 2.304 . S
Cd109 N128 2.334 . S
Cd109 O145 2.273 . S
Cd109 O146 2.268 . S
Cd109 O150 2.417 . S
Cd109 O151 2.330 . S
C110 N111 1.332 . S
C110 C114 1.381 . S
C110 H116 0.931 . S
N111 Cd108 2.334 . S
N111 C110 1.332 . S
N111 C115 1.328 . S
C112 C113 1.396 . S
C112 C115 1.378 . S
C112 H154 0.931 . S
C113 C112 1.396 . S
C113 C114 1.382 . S
C114 C110 1.381 . S
C114 C113 1.382 . S
C114 H155 0.930 . S
C115 N111 1.328 . S
C115 C112 1.378 . S
C115 H117 0.930 . S
H116 C110 0.931 . S
H117 C115 0.930 . S
C118 O144 1.238 . S
C118 O145 1.253 . S
C119 C120 1.379 . S
C119 N124 1.337 . S
C119 H125 0.929 . S
C120 C119 1.379 . S
C120 C121 1.380 . S
C120 H156 0.929 . S
C121 C120 1.380 . S
C121 C122 1.399 . S
C122 C121 1.399 . S
C122 C123 1.376 . S
C122 H157 0.931 . S
C123 C122 1.376 . S
C123 N124 1.338 . S
C123 H126 0.930 . S
N124 Cd109 2.304 . S
N124 C119 1.337 . S
N124 C123 1.338 . S
H125 C119 0.929 . S
H126 C123 0.930 . S
C127 N128 1.332 . S
C127 C131 1.381 . S
C127 H133 0.931 . S
N128 Cd109 2.334 . S
N128 C127 1.332 . S
N128 C132 1.328 . S
C129 C130 1.396 . S
C129 C132 1.378 . S
C129 H158 0.931 . S
C130 C129 1.396 . S
C130 C131 1.382 . S
C131 C127 1.381 . S
C131 C130 1.382 . S
C131 H159 0.930 1_565 S
C132 N128 1.328 . S
C132 C129 1.378 . S
C132 H134 0.930 . S
H133 C127 0.931 . S
H134 C132 0.930 . S
C135 O146 1.238 . S
C135 O147 1.253 . S
C136 O148 1.239 . S
C136 O149 1.230 . S
N137 Cd108 2.304 . S
N137 C138 1.337 . S
N137 C142 1.338 . S
C138 N137 1.337 . S
C138 C139 1.379 . S
C138 H152 0.929 . S
C139 C138 1.379 . S
C139 C140 1.380 . S
C139 H160 0.929 . S
C140 C139 1.380 . S
C140 C141 1.399 . S
C141 C140 1.399 . S
C141 C142 1.376 . S
C141 H161 0.931 . S
C142 N137 1.338 . S
C142 C141 1.376 . S
C142 H153 0.930 . S
C143 O150 1.239 . S
C143 O151 1.230 . S
O144 Cd108 2.268 . S
O144 C118 1.238 . S
O145 Cd109 2.273 . S
O145 C118 1.253 . S
O146 Cd109 2.268 . S
O146 C135 1.238 . S
O147 Cd108 2.273 . S
O147 C135 1.253 . S
O148 Cd108 2.417 . S
O148 C136 1.239 . S
O149 Cd108 2.330 . S
O149 C136 1.230 . S
O150 Cd109 2.417 . S
O150 C143 1.239 . S
O151 Cd109 2.330 . S
O151 C143 1.230 . S
H152 C138 0.929 . S
H153 C142 0.930 . S
H154 C112 0.931 . S
H155 C114 0.930 . S
H156 C120 0.929 . S
H157 C122 0.931 . S
H158 C129 0.931 . S
H159 C131 0.930 1_545 S
H160 C139 0.929 . S
H161 C141 0.931 . S
Cd162 N165 2.334 . S
Cd162 N191 2.304 . S
Cd162 O198 2.268 . S
Cd162 O201 2.273 . S
Cd162 O202 2.417 . S
Cd162 O203 2.330 . S
Cd163 N178 2.304 . S
Cd163 N182 2.334 . S
Cd163 O199 2.273 . S
Cd163 O200 2.268 . S
Cd163 O204 2.417 . S
Cd163 O205 2.330 . S
C164 N165 1.332 . S
C164 C168 1.381 . S
C164 H170 0.931 . S
N165 Cd162 2.334 . S
N165 C164 1.332 . S
N165 C169 1.328 . S
C166 C167 1.396 . S
C166 C169 1.378 . S
C166 H208 0.931 . S
C167 C166 1.396 . S
C167 C168 1.382 . S
C168 C164 1.381 . S
C168 C167 1.382 . S
C168 H209 0.930 . S
C169 N165 1.328 . S
C169 C166 1.378 . S
C169 H171 0.930 . S
H170 C164 0.931 . S
H171 C169 0.930 . S
C172 O198 1.238 . S
C172 O199 1.253 . S
C173 C174 1.379 . S
C173 N178 1.337 . S
C173 H179 0.929 . S
C174 C173 1.379 . S
C174 C175 1.380 . S
C174 H210 0.929 . S
C175 C174 1.380 . S
C175 C176 1.399 . S
C176 C175 1.399 . S
C176 C177 1.376 . S
C176 H211 0.931 . S
C177 C176 1.376 . S
C177 N178 1.338 . S
C177 H180 0.930 . S
N178 Cd163 2.304 . S
N178 C173 1.337 . S
N178 C177 1.338 . S
H179 C173 0.929 . S
H180 C177 0.930 . S
C181 N182 1.332 . S
C181 C185 1.381 . S
C181 H187 0.931 . S
N182 Cd163 2.334 . S
N182 C181 1.332 . S
N182 C186 1.328 . S
C183 C184 1.396 . S
C183 C186 1.378 . S
C183 H212 0.931 . S
C184 C183 1.396 . S
C184 C185 1.382 . S
C185 C181 1.381 . S
C185 C184 1.382 . S
C185 H213 0.930 1_655 S
C186 N182 1.328 . S
C186 C183 1.378 . S
C186 H188 0.930 . S
H187 C181 0.931 . S
H188 C186 0.930 . S
C189 O200 1.238 . S
C189 O201 1.253 . S
C190 O202 1.239 . S
C190 O203 1.230 . S
N191 Cd162 2.304 . S
N191 C192 1.337 . S
N191 C196 1.338 . S
C192 N191 1.337 . S
C192 C193 1.379 . S
C192 H206 0.929 . S
C193 C192 1.379 . S
C193 C194 1.380 . S
C193 H214 0.929 . S
C194 C193 1.380 . S
C194 C195 1.399 . S
C195 C194 1.399 . S
C195 C196 1.376 . S
C195 H215 0.931 . S
C196 N191 1.338 . S
C196 C195 1.376 . S
C196 H207 0.930 . S
C197 O204 1.239 . S
C197 O205 1.230 . S
O198 Cd162 2.268 . S
O198 C172 1.238 . S
O199 Cd163 2.273 . S
O199 C172 1.253 . S
O200 Cd163 2.268 . S
O200 C189 1.238 . S
O201 Cd162 2.273 . S
O201 C189 1.253 . S
O202 Cd162 2.417 . S
O202 C190 1.239 . S
O203 Cd162 2.330 . S
O203 C190 1.230 . S
O204 Cd163 2.417 . S
O204 C197 1.239 . S
O205 Cd163 2.330 . S
O205 C197 1.230 . S
H206 C192 0.929 . S
H207 C196 0.930 . S
H208 C166 0.931 . S
H209 C168 0.930 . S
H210 C174 0.929 . S
H211 C176 0.931 . S
H212 C183 0.931 . S
H213 C185 0.930 1_455 S
H214 C193 0.929 . S
H215 C195 0.931 . S
Cd216 N219 2.334 . S
Cd216 N245 2.304 . S
Cd216 O252 2.268 . S
Cd216 O255 2.273 . S
Cd216 O256 2.417 . S
Cd216 O257 2.330 . S
Cd217 N232 2.304 . S
Cd217 N236 2.334 . S
Cd217 O253 2.273 . S
Cd217 O254 2.268 . S
Cd217 O258 2.417 . S
Cd217 O259 2.330 . S
C218 N219 1.332 . S
C218 C222 1.381 . S
C218 H224 0.931 . S
N219 Cd216 2.334 . S
N219 C218 1.332 . S
N219 C223 1.328 . S
C220 C221 1.396 . S
C220 C223 1.378 . S
C220 H262 0.931 . S
C221 C220 1.396 . S
C221 C222 1.382 . S
C222 C218 1.381 . S
C222 C221 1.382 . S
C222 H263 0.930 1_565 S
C223 N219 1.328 . S
C223 C220 1.378 . S
C223 H225 0.930 . S
H224 C218 0.931 . S
H225 C223 0.930 . S
C226 O252 1.238 . S
C226 O253 1.253 . S
C227 C228 1.379 . S
C227 N232 1.337 . S
C227 H233 0.929 . S
C228 C227 1.379 . S
C228 C229 1.380 . S
C228 H264 0.929 . S
C229 C228 1.380 . S
C229 C230 1.399 . S
C230 C229 1.399 . S
C230 C231 1.376 . S
C230 H265 0.931 . S
C231 C230 1.376 . S
C231 N232 1.338 . S
C231 H234 0.930 . S
N232 Cd217 2.304 . S
N232 C227 1.337 . S
N232 C231 1.338 . S
H233 C227 0.929 . S
H234 C231 0.930 . S
C235 N236 1.332 . S
C235 C239 1.381 . S
C235 H241 0.931 . S
N236 Cd217 2.334 . S
N236 C235 1.332 . S
N236 C240 1.328 . S
C237 C238 1.396 . S
C237 C240 1.378 . S
C237 H266 0.931 . S
C238 C237 1.396 . S
C238 C239 1.382 . S
C239 C235 1.381 . S
C239 C238 1.382 . S
C239 H267 0.930 1_455 S
C240 N236 1.328 . S
C240 C237 1.378 . S
C240 H242 0.930 . S
H241 C235 0.931 . S
H242 C240 0.930 . S
C243 O254 1.238 . S
C243 O255 1.253 . S
C244 O256 1.239 . S
C244 O257 1.230 . S
N245 Cd216 2.304 . S
N245 C246 1.337 . S
N245 C250 1.338 . S
C246 N245 1.337 . S
C246 C247 1.379 . S
C246 H260 0.929 . S
C247 C246 1.379 . S
C247 C248 1.380 . S
C247 H268 0.929 . S
C248 C247 1.380 . S
C248 C249 1.399 . S
C249 C248 1.399 . S
C249 C250 1.376 . S
C249 H269 0.931 . S
C250 N245 1.338 . S
C250 C249 1.376 . S
C250 H261 0.930 . S
C251 O258 1.239 . S
C251 O259 1.230 . S
O252 Cd216 2.268 . S
O252 C226 1.238 . S
O253 Cd217 2.273 . S
O253 C226 1.253 . S
O254 Cd217 2.268 . S
O254 C243 1.238 . S
O255 Cd216 2.273 . S
O255 C243 1.253 . S
O256 Cd216 2.417 . S
O256 C244 1.239 . S
O257 Cd216 2.330 . S
O257 C244 1.230 . S
O258 Cd217 2.417 . S
O258 C251 1.239 . S
O259 Cd217 2.330 . S
O259 C251 1.230 . S
H260 C246 0.929 . S
H261 C250 0.930 . S
H262 C220 0.931 . S
H263 C222 0.930 1_545 S
H264 C228 0.929 . S
H265 C230 0.931 . S
H266 C237 0.931 . S
H267 C239 0.930 1_655 S
H268 C247 0.929 . S
H269 C249 0.931 . S
Cd270 N273 2.334 . S
Cd270 N299 2.304 . S
Cd270 O306 2.268 . S
Cd270 O309 2.273 . S
Cd270 O310 2.417 . S
Cd270 O311 2.330 . S
Cd271 N286 2.304 . S
Cd271 N290 2.334 . S
Cd271 O307 2.273 . S
Cd271 O308 2.268 . S
Cd271 O312 2.417 . S
Cd271 O313 2.330 . S
C272 N273 1.332 . S
C272 C276 1.381 . S
C272 H278 0.931 . S
N273 Cd270 2.334 . S
N273 C272 1.332 . S
N273 C277 1.328 . S
C274 C275 1.396 . S
C274 C277 1.378 . S
C274 H316 0.931 . S
C275 C274 1.396 . S
C275 C276 1.382 . S
C276 C272 1.381 . S
C276 C275 1.382 . S
C276 H317 0.930 1_545 S
C277 N273 1.328 . S
C277 C274 1.378 . S
C277 H279 0.930 . S
H278 C272 0.931 . S
H279 C277 0.930 . S
C280 O306 1.238 . S
C280 O307 1.253 . S
C281 C282 1.379 . S
C281 N286 1.337 . S
C281 H287 0.929 . S
C282 C281 1.379 . S
C282 C283 1.380 . S
C282 H318 0.929 . S
C283 C282 1.380 . S
C283 C284 1.399 . S
C284 C283 1.399 . S
C284 C285 1.376 . S
C284 H319 0.931 . S
C285 C284 1.376 . S
C285 N286 1.338 . S
C285 H288 0.930 . S
N286 Cd271 2.304 . S
N286 C281 1.337 . S
N286 C285 1.338 . S
H287 C281 0.929 . S
H288 C285 0.930 . S
C289 N290 1.332 . S
C289 C293 1.381 . S
C289 H295 0.931 . S
N290 Cd271 2.334 . S
N290 C289 1.332 . S
N290 C294 1.328 . S
C291 C292 1.396 . S
C291 C294 1.378 . S
C291 H320 0.931 . S
C292 C291 1.396 . S
C292 C293 1.382 . S
C293 C289 1.381 . S
C293 C292 1.382 . S
C293 H321 0.930 . S
C294 N290 1.328 . S
C294 C291 1.378 . S
C294 H296 0.930 . S
H295 C289 0.931 . S
H296 C294 0.930 . S
C297 O308 1.238 . S
C297 O309 1.253 . S
C298 O310 1.239 . S
C298 O311 1.230 . S
N299 Cd270 2.304 . S
N299 C300 1.337 . S
N299 C304 1.338 . S
C300 N299 1.337 . S
C300 C301 1.379 . S
C300 H314 0.929 . S
C301 C300 1.379 . S
C301 C302 1.380 . S
C301 H322 0.929 . S
C302 C301 1.380 . S
C302 C303 1.399 . S
C303 C302 1.399 . S
C303 C304 1.376 . S
C303 H323 0.931 . S
C304 N299 1.338 . S
C304 C303 1.376 . S
C304 H315 0.930 . S
C305 O312 1.239 . S
C305 O313 1.230 . S
O306 Cd270 2.268 . S
O306 C280 1.238 . S
O307 Cd271 2.273 . S
O307 C280 1.253 . S
O308 Cd271 2.268 . S
O308 C297 1.238 . S
O309 Cd270 2.273 . S
O309 C297 1.253 . S
O310 Cd270 2.417 . S
O310 C298 1.239 . S
O311 Cd270 2.330 . S
O311 C298 1.230 . S
O312 Cd271 2.417 . S
O312 C305 1.239 . S
O313 Cd271 2.330 . S
O313 C305 1.230 . S
H314 C300 0.929 . S
H315 C304 0.930 . S
H316 C274 0.931 . S
H317 C276 0.930 1_565 S
H318 C282 0.929 . S
H319 C284 0.931 . S
H320 C291 0.931 . S
H321 C293 0.930 . S
H322 C301 0.929 . S
H323 C303 0.931 . S
C324 C325 1.170 . S
C324 C326 1.380 . S
C325 C324 1.170 . S
C326 C324 1.380 . S
C326 C327 1.170 . S
C327 C326 1.170 . S
C328 C329 1.170 . S
C328 C330 1.380 . S
C329 C328 1.170 . S
C330 C328 1.380 . S
C330 C331 1.170 . S
C331 C330 1.170 . S
C332 C333 1.170 . S
C332 C334 1.380 . S
C333 C332 1.170 . S
C334 C332 1.380 . S
C334 C335 1.170 . S
C335 C334 1.170 . S
C336 C337 1.170 . S
C336 C338 1.380 . S
C337 C336 1.170 . S
C338 C336 1.380 . S
C338 C339 1.170 . S
C339 C338 1.170 . S
C340 C341 1.170 . S
C340 C342 1.380 . S
C341 C340 1.170 . S
C342 C340 1.380 . S
C342 C343 1.170 . S
C343 C342 1.170 . S
C344 C345 1.170 . S
C344 C346 1.380 . S
C345 C344 1.170 . S
C346 C344 1.380 . S
C346 C347 1.170 . S
C347 C346 1.170 . S
C348 C349 1.170 . S
C348 C350 1.380 . S
C349 C348 1.170 . S
C350 C348 1.380 . S
C350 C351 1.170 . S
C351 C350 1.170 . S
C352 C353 1.170 . S
C352 C354 1.380 . S
C353 C352 1.170 . S
C354 C352 1.380 . S
C354 C355 1.170 . S
C355 C354 1.170 . S
C356 C357 1.170 . S
C356 C358 1.380 . S
C357 C356 1.170 . S
C358 C356 1.380 . S
C358 C359 1.170 . S
C359 C358 1.170 . S
C360 C361 1.170 . S
C360 C362 1.380 . S
C361 C360 1.170 . S
C362 C360 1.380 . S
C362 C363 1.170 . S
C363 C362 1.170 . S
C364 C365 1.170 . S
C364 C366 1.380 . S
C365 C364 1.170 . S
C366 C364 1.380 . S
C366 C367 1.168 . S
C367 C366 1.168 . S
C368 C369 1.169 . S
C368 C370 1.380 . S
C369 C368 1.169 . S
C370 C368 1.380 . S
C370 C371 1.174 . S
C371 C370 1.174 . S
C372 C373 1.170 . S
C372 C374 1.380 1_554 S
C373 C372 1.170 . S
C374 C372 1.380 1_556 S
C374 C375 1.170 . S
C375 C374 1.170 . S
C376 C377 1.170 . S
C376 C378 1.380 1_655 S
C377 C376 1.170 . S
C378 C376 1.380 1_455 S
C378 C379 1.170 . S
C379 C378 1.170 . S
C380 C381 1.170 . S
C380 C382 1.380 1_564 S
C381 C380 1.170 . S
C382 C380 1.380 1_546 S
C382 C383 1.170 . S
C383 C382 1.170 . S
C384 C385 1.170 . S
C384 C386 1.380 . S
C385 C384 1.170 . S
C386 C384 1.380 . S
C386 C387 1.170 . S
C387 C386 1.170 . S
C388 C389 1.170 . S
C388 C390 1.380 1_656 S
C389 C388 1.170 . S
C390 C388 1.380 1_454 S
C390 C391 1.170 . S
C391 C390 1.170 . S
C392 C393 1.170 . S
C392 C394 1.380 1_545 S
C393 C392 1.170 . S
C394 C392 1.380 1_565 S
C394 C395 1.170 . S
C395 C394 1.170 . S
C396 C397 1.170 . S
C396 C398 1.380 1_556 S
C397 C396 1.170 . S
C398 C396 1.380 1_554 S
C398 C399 1.170 . S
C399 C398 1.170 . S
C400 C401 1.170 . S
C400 C402 1.380 1_455 S
C401 C400 1.170 . S
C402 C400 1.380 1_655 S
C402 C403 1.170 . S
C403 C402 1.170 . S
C404 C405 1.170 . S
C404 C406 1.380 1_546 S
C405 C404 1.170 . S
C406 C404 1.380 1_564 S
C406 C407 1.170 . S
C407 C406 1.170 . S
C408 C409 1.170 . S
C408 C410 1.380 . S
C409 C408 1.170 . S
C410 C408 1.380 . S
C410 C411 1.170 . S
C411 C410 1.170 . S
C412 C413 1.170 . S
C412 C414 1.380 1_454 S
C413 C412 1.170 . S
C414 C412 1.380 1_656 S
C414 C415 1.170 . S
C415 C414 1.170 . S
C416 C417 1.170 . S
C416 C418 1.380 1_545 S
C417 C416 1.170 . S
C418 C416 1.380 1_565 S
C418 C419 1.170 . S
C419 C418 1.170 . S
C325 C32 2.023 . S
C327 C229 2.026 . S
C329 C302 2.047 . S
C331 C67 2.049 . S
C333 C13 2.020 . S
C335 C140 2.021 . S
C337 C86 2.049 . S
C339 C175 2.047 . S
C341 C248 2.042 . S
C343 C121 2.046 . S
C345 C283 2.042 . S
C347 C194 2.038 . S
C349 C22 1.203 . S
C351 C221 1.244 1_545 S
C353 C59 1.191 1_455 S
C355 C292 1.216 . S
C357 C5 1.192 1_655 S
C359 C130 1.213 1_545 S
C361 C76 1.214 1_565 S
C363 C167 1.192 . S
C365 C113 1.242 . S
C367 C238 1.231 1_655 S
C369 C275 1.227 1_565 S
C371 C184 1.241 1_455 S
C373 C10 2.696 . S
C375 C280 2.718 . S
C377 C81 2.717 . S
C379 C27 2.696 . S
C381 C118 2.697 . S
C383 C64 2.717 . S
C385 C189 2.699 . S
C387 C135 2.714 . S
C389 C172 2.701 . S
C391 C226 2.712 . S
C393 C297 2.717 . S
C395 C243 2.696 . S
C397 C190 0.815 . S
C399 C136 0.816 . S
C401 C251 0.771 . S
C403 C197 0.791 . S
C405 C298 0.772 . S
C407 C244 0.766 . S
C409 C305 0.769 . S
C411 C35 0.786 . S
C413 C28 0.774 . S
C415 C82 0.766 . S
C417 C89 0.811 . S
C419 C143 0.818 . S
