# Generated by pormake.
# Topology ukm, (4)-cn, num edge types: 1
# Building blocks:
#     Node 0, Type 0, BuildingBlock: GALJAG_clean_sbu_0, # of connection points: 4
#     Node 1, Type 0, BuildingBlock: GALJAG_clean_sbu_0, # of connection points: 4
#     Node 2, Type 0, BuildingBlock: GALJAG_clean_sbu_0, # of connection points: 4
#     Node 3, Type 0, BuildingBlock: GALJAG_clean_sbu_0, # of connection points: 4
#     Node 4, Type 0, BuildingBlock: GALJAG_clean_sbu_0, # of connection points: 4
#     Node 5, Type 0, BuildingBlock: GALJAG_clean_sbu_0, # of connection points: 4
#     Node 6, Type 0, BuildingBlock: GALJAG_clean_sbu_0, # of connection points: 4
#     Node 7, Type 0, BuildingBlock: GALJAG_clean_sbu_0, # of connection points: 4
#     Node 8, Type 0, BuildingBlock: GALJAG_clean_sbu_0, # of connection points: 4
#     Node 9, Type 0, BuildingBlock: GALJAG_clean_sbu_0, # of connection points: 4
#     Node 10, Type 0, BuildingBlock: GALJAG_clean_sbu_0, # of connection points: 4
#     Node 11, Type 0, BuildingBlock: GALJAG_clean_sbu_0, # of connection points: 4
#     Node 12, Type 0, BuildingBlock: GALJAG_clean_sbu_0, # of connection points: 4
#     Node 13, Type 0, BuildingBlock: GALJAG_clean_sbu_0, # of connection points: 4
#     Node 14, Type 0, BuildingBlock: GALJAG_clean_sbu_0, # of connection points: 4
#     Node 15, Type 0, BuildingBlock: GALJAG_clean_sbu_0, # of connection points: 4
#     Node 16, Type 0, BuildingBlock: GALJAG_clean_sbu_0, # of connection points: 4
#     Node 17, Type 0, BuildingBlock: GALJAG_clean_sbu_0, # of connection points: 4
#     Node 18, Type 0, BuildingBlock: GALJAG_clean_sbu_0, # of connection points: 4
#     Node 19, Type 0, BuildingBlock: GALJAG_clean_sbu_0, # of connection points: 4
#     Node 20, Type 0, BuildingBlock: GALJAG_clean_sbu_0, # of connection points: 4
#     Node 21, Type 0, BuildingBlock: GALJAG_clean_sbu_0, # of connection points: 4
#     Node 22, Type 0, BuildingBlock: GALJAG_clean_sbu_0, # of connection points: 4
#     Node 23, Type 0, BuildingBlock: GALJAG_clean_sbu_0, # of connection points: 4
#     Node 24, Type 0, BuildingBlock: GALJAG_clean_sbu_0, # of connection points: 4
#     Node 25, Type 0, BuildingBlock: GALJAG_clean_sbu_0, # of connection points: 4
#     Node 26, Type 0, BuildingBlock: GALJAG_clean_sbu_0, # of connection points: 4
#     Node 27, Type 0, BuildingBlock: GALJAG_clean_sbu_0, # of connection points: 4
#     Node 28, Type 0, BuildingBlock: GALJAG_clean_sbu_0, # of connection points: 4
#     Node 29, Type 0, BuildingBlock: GALJAG_clean_sbu_0, # of connection points: 4
#     Node 30, Type 0, BuildingBlock: GALJAG_clean_sbu_0, # of connection points: 4
#     Node 31, Type 0, BuildingBlock: GALJAG_clean_sbu_0, # of connection points: 4
#     Edge 32, Type (0, 0), BuildingBlock: KIFKEQ_clean_linker_1, # of connection points: 2
#     Edge 33, Type (0, 0), BuildingBlock: KIFKEQ_clean_linker_1, # of connection points: 2
#     Edge 34, Type (0, 0), BuildingBlock: KIFKEQ_clean_linker_1, # of connection points: 2
#     Edge 35, Type (0, 0), BuildingBlock: KIFKEQ_clean_linker_1, # of connection points: 2
#     Edge 36, Type (0, 0), BuildingBlock: KIFKEQ_clean_linker_1, # of connection points: 2
#     Edge 37, Type (0, 0), BuildingBlock: KIFKEQ_clean_linker_1, # of connection points: 2
#     Edge 38, Type (0, 0), BuildingBlock: KIFKEQ_clean_linker_1, # of connection points: 2
#     Edge 39, Type (0, 0), BuildingBlock: KIFKEQ_clean_linker_1, # of connection points: 2
#     Edge 40, Type (0, 0), BuildingBlock: KIFKEQ_clean_linker_1, # of connection points: 2
#     Edge 41, Type (0, 0), BuildingBlock: KIFKEQ_clean_linker_1, # of connection points: 2
#     Edge 42, Type (0, 0), BuildingBlock: KIFKEQ_clean_linker_1, # of connection points: 2
#     Edge 43, Type (0, 0), BuildingBlock: KIFKEQ_clean_linker_1, # of connection points: 2
#     Edge 44, Type (0, 0), BuildingBlock: KIFKEQ_clean_linker_1, # of connection points: 2
#     Edge 45, Type (0, 0), BuildingBlock: KIFKEQ_clean_linker_1, # of connection points: 2
#     Edge 46, Type (0, 0), BuildingBlock: KIFKEQ_clean_linker_1, # of connection points: 2
#     Edge 47, Type (0, 0), BuildingBlock: KIFKEQ_clean_linker_1, # of connection points: 2
#     Edge 48, Type (0, 0), BuildingBlock: KIFKEQ_clean_linker_1, # of connection points: 2
#     Edge 49, Type (0, 0), BuildingBlock: KIFKEQ_clean_linker_1, # of connection points: 2
#     Edge 50, Type (0, 0), BuildingBlock: KIFKEQ_clean_linker_1, # of connection points: 2
#     Edge 51, Type (0, 0), BuildingBlock: KIFKEQ_clean_linker_1, # of connection points: 2
#     Edge 52, Type (0, 0), BuildingBlock: KIFKEQ_clean_linker_1, # of connection points: 2
#     Edge 53, Type (0, 0), BuildingBlock: KIFKEQ_clean_linker_1, # of connection points: 2
#     Edge 54, Type (0, 0), BuildingBlock: KIFKEQ_clean_linker_1, # of connection points: 2
#     Edge 55, Type (0, 0), BuildingBlock: KIFKEQ_clean_linker_1, # of connection points: 2
#     Edge 56, Type (0, 0), BuildingBlock: KIFKEQ_clean_linker_1, # of connection points: 2
#     Edge 57, Type (0, 0), BuildingBlock: KIFKEQ_clean_linker_1, # of connection points: 2
#     Edge 58, Type (0, 0), BuildingBlock: KIFKEQ_clean_linker_1, # of connection points: 2
#     Edge 59, Type (0, 0), BuildingBlock: KIFKEQ_clean_linker_1, # of connection points: 2
#     Edge 60, Type (0, 0), BuildingBlock: KIFKEQ_clean_linker_1, # of connection points: 2
#     Edge 61, Type (0, 0), BuildingBlock: KIFKEQ_clean_linker_1, # of connection points: 2
#     Edge 62, Type (0, 0), BuildingBlock: KIFKEQ_clean_linker_1, # of connection points: 2
#     Edge 63, Type (0, 0), BuildingBlock: KIFKEQ_clean_linker_1, # of connection points: 2
#     Edge 64, Type (0, 0), BuildingBlock: KIFKEQ_clean_linker_1, # of connection points: 2
#     Edge 65, Type (0, 0), BuildingBlock: KIFKEQ_clean_linker_1, # of connection points: 2
#     Edge 66, Type (0, 0), BuildingBlock: KIFKEQ_clean_linker_1, # of connection points: 2
#     Edge 67, Type (0, 0), BuildingBlock: KIFKEQ_clean_linker_1, # of connection points: 2
#     Edge 68, Type (0, 0), BuildingBlock: KIFKEQ_clean_linker_1, # of connection points: 2
#     Edge 69, Type (0, 0), BuildingBlock: KIFKEQ_clean_linker_1, # of connection points: 2
#     Edge 70, Type (0, 0), BuildingBlock: KIFKEQ_clean_linker_1, # of connection points: 2
#     Edge 71, Type (0, 0), BuildingBlock: KIFKEQ_clean_linker_1, # of connection points: 2
#     Edge 72, Type (0, 0), BuildingBlock: KIFKEQ_clean_linker_1, # of connection points: 2
#     Edge 73, Type (0, 0), BuildingBlock: KIFKEQ_clean_linker_1, # of connection points: 2
#     Edge 74, Type (0, 0), BuildingBlock: KIFKEQ_clean_linker_1, # of connection points: 2
#     Edge 75, Type (0, 0), BuildingBlock: KIFKEQ_clean_linker_1, # of connection points: 2
#     Edge 76, Type (0, 0), BuildingBlock: KIFKEQ_clean_linker_1, # of connection points: 2
#     Edge 77, Type (0, 0), BuildingBlock: KIFKEQ_clean_linker_1, # of connection points: 2
#     Edge 78, Type (0, 0), BuildingBlock: KIFKEQ_clean_linker_1, # of connection points: 2
#     Edge 79, Type (0, 0), BuildingBlock: KIFKEQ_clean_linker_1, # of connection points: 2
#     Edge 80, Type (0, 0), BuildingBlock: KIFKEQ_clean_linker_1, # of connection points: 2
#     Edge 81, Type (0, 0), BuildingBlock: KIFKEQ_clean_linker_1, # of connection points: 2
#     Edge 82, Type (0, 0), BuildingBlock: KIFKEQ_clean_linker_1, # of connection points: 2
#     Edge 83, Type (0, 0), BuildingBlock: KIFKEQ_clean_linker_1, # of connection points: 2
#     Edge 84, Type (0, 0), BuildingBlock: KIFKEQ_clean_linker_1, # of connection points: 2
#     Edge 85, Type (0, 0), BuildingBlock: KIFKEQ_clean_linker_1, # of connection points: 2
#     Edge 86, Type (0, 0), BuildingBlock: KIFKEQ_clean_linker_1, # of connection points: 2
#     Edge 87, Type (0, 0), BuildingBlock: KIFKEQ_clean_linker_1, # of connection points: 2
#     Edge 88, Type (0, 0), BuildingBlock: KIFKEQ_clean_linker_1, # of connection points: 2
#     Edge 89, Type (0, 0), BuildingBlock: KIFKEQ_clean_linker_1, # of connection points: 2
#     Edge 90, Type (0, 0), BuildingBlock: KIFKEQ_clean_linker_1, # of connection points: 2
#     Edge 91, Type (0, 0), BuildingBlock: KIFKEQ_clean_linker_1, # of connection points: 2
#     Edge 92, Type (0, 0), BuildingBlock: KIFKEQ_clean_linker_1, # of connection points: 2
#     Edge 93, Type (0, 0), BuildingBlock: KIFKEQ_clean_linker_1, # of connection points: 2
#     Edge 94, Type (0, 0), BuildingBlock: KIFKEQ_clean_linker_1, # of connection points: 2
#     Edge 95, Type (0, 0), BuildingBlock: KIFKEQ_clean_linker_1, # of connection points: 2
# Relax obj value: 0.098
# Max RMSD: 0.122
# Mean RMSD: 0.122
data_MOF--net-ukm--node1-GALJAG_clean_sbu_0--edge1-KIFKEQ_clean_linker_1
_symmetry_space_group_name_H-M    P1
_symmetry_Int_Tables_number       1
_symmetry_cell_setting            triclinic
loop_
_symmetry_equiv_pos_as_xyz
'x, y, z'
_cell_length_a     25.556393
_cell_length_b     104.25781
_cell_length_c     46.11463
_cell_angle_alpha  89.986101
_cell_angle_beta   90.000558
_cell_angle_gamma 89.996952
loop_
_atom_site_label
_atom_site_type_symbol
_atom_site_fract_x
_atom_site_fract_y
_atom_site_fract_z
_atom_type_partial_charge
In0 In 0.12651 0.31243 0.28222 0.0
O1 O 0.07029 0.32089 0.31593 0.0
O2 O 0.10919 0.3336 0.287 0.0
C3 C 0.08968 0.28827 0.27681 0.0
C4 C 0.21645 0.31056 0.31257 0.0
C5 C 0.12513 0.3198 0.22645 0.0
O6 O 0.06131 0.2974 0.28551 0.0
O7 O 0.13666 0.29125 0.27208 0.0
O8 O 0.16518 0.32103 0.24224 0.0
O9 O 0.08583 0.31498 0.23892 0.0
C10 C 0.0777 0.33234 0.30783 0.0
O11 O 0.21512 0.31053 0.28525 0.0
O12 O 0.17233 0.31141 0.32469 0.0
In13 In 0.11939 0.93525 0.28243 0.0
O14 O 0.03085 0.93613 0.28642 0.0
O15 O 0.07521 0.9378 0.32521 0.0
C16 C 0.11986 0.92777 0.22676 0.0
C17 C 0.16349 0.91481 0.30835 0.0
C18 C 0.15955 0.95908 0.27594 0.0
O19 O 0.07812 0.92981 0.24062 0.0
O20 O 0.16141 0.92942 0.24106 0.0
O21 O 0.18638 0.94986 0.28557 0.0
O22 O 0.11251 0.95636 0.27075 0.0
C23 C 0.03053 0.93746 0.31358 0.0
O24 O 0.17532 0.92616 0.31536 0.0
O25 O 0.12964 0.91388 0.28857 0.0
In26 In 0.12319 0.93102 0.95458 0.0
O27 O 0.06844 0.92288 0.91963 0.0
O28 O 0.10393 0.90999 0.94942 0.0
C29 C 0.085 0.95488 0.96302 0.0
C30 C 0.21245 0.93197 0.92338 0.0
C31 C 0.12614 0.92477 0.01093 0.0
O32 O 0.0573 0.94599 0.95249 0.0
O33 O 0.13174 0.95181 0.9681 0.0
O34 O 0.16638 0.9281 -0.00304 0.0
O35 O 0.08433 0.92444 -0.00365 0.0
C36 C 0.07419 0.91141 0.92788 0.0
O37 O 0.20887 0.9262 0.9473 0.0
O38 O 0.17076 0.93729 0.91496 0.0
In39 In 0.12839 0.31504 0.95508 0.0
O40 O 0.0398 0.31653 0.9516 0.0
O41 O 0.08163 0.31093 0.91387 0.0
C42 C 0.132 0.3221 0.01093 0.0
C43 C 0.17694 0.33468 0.92803 0.0
C44 C 0.16239 0.29075 0.96236 0.0
O45 O 0.09054 0.32268 -0.00391 0.0
O46 O 0.17177 0.31811 -0.00256 0.0
O47 O 0.19129 0.29946 0.95206 0.0
O48 O 0.11624 0.29421 0.96791 0.0
C49 C 0.03783 0.31335 0.92525 0.0
O50 O 0.18317 0.32318 0.92011 0.0
O51 O 0.14695 0.33612 0.94943 0.0
In52 In 0.88196 0.68113 0.70358 0.0
O53 O 0.79336 0.6824 0.70014 0.0
O54 O 0.83684 0.68213 0.66084 0.0
C55 C 0.8831 0.67444 0.75974 0.0
C56 C 0.92667 0.66054 0.67853 0.0
C57 C 0.91851 0.70538 0.70845 0.0
O58 O 0.84137 0.67519 0.74519 0.0
O59 O 0.92443 0.67688 0.74581 0.0
O60 O 0.94742 0.69624 0.70029 0.0
O61 O 0.87153 0.70233 0.71272 0.0
C62 C 0.79248 0.68258 0.67281 0.0
O63 O 0.93646 0.67184 0.67011 0.0
O64 O 0.89514 0.65978 0.69949 0.0
In65 In 0.85436 0.06456 0.70261 0.0
O66 O 0.80306 0.07375 0.66726 0.0
O67 O 0.8381 0.08586 0.69867 0.0
C68 C 0.81327 0.0408 0.70807 0.0
C69 C 0.94475 0.06214 0.67302 0.0
C70 C 0.85844 0.07061 0.75914 0.0
O71 O 0.78516 0.05062 0.70442 0.0
O72 O 0.8618 0.04292 0.70771 0.0
O73 O 0.89794 0.07129 0.74278 0.0
O74 O 0.8168 0.06703 0.74688 0.0
C75 C 0.80991 0.08505 0.67638 0.0
O76 O 0.94307 0.06455 0.69981 0.0
O77 O 0.90061 0.06083 0.66104 0.0
In78 In 0.89386 0.06364 0.0314 0.0
O79 O 0.80516 0.06343 0.03471 0.0
O80 O 0.84849 0.06011 0.07335 0.0
C81 C 0.88888 0.06974 0.97492 0.0
C82 C 0.93885 0.08412 0.05722 0.0
C83 C 0.93622 0.04002 0.02614 0.0
O84 O 0.84966 0.07044 0.99148 0.0
O85 O 0.93064 0.06608 0.98695 0.0
O86 O 0.96364 0.04994 0.03 0.0
O87 O 0.88755 0.04196 0.02612 0.0
C88 C 0.80409 0.06125 0.06161 0.0
O89 O 0.94528 0.07285 0.06656 0.0
O90 O 0.9107 0.08493 0.03491 0.0
In91 In 0.86556 0.68207 0.03183 0.0
O92 O 0.94581 0.674 0.04295 0.0
O93 O 0.91775 0.68961 0.06817 0.0
C94 C 0.87617 0.67555 0.97587 0.0
C95 C 0.81227 0.66383 0.06102 0.0
C96 C 0.82743 0.70586 0.02214 0.0
O97 O 0.91386 0.67976 0.99079 0.0
O98 O 0.83329 0.67456 0.98926 0.0
O99 O 0.79821 0.69665 0.02958 0.0
O100 O 0.87532 0.70311 0.0207 0.0
C101 C 0.95414 0.6817 0.06352 0.0
O102 O 0.81595 0.67519 0.0704 0.0
O103 O 0.83373 0.66196 0.03682 0.0
In104 In 0.10674 0.8137 0.7823 0.0
O105 O 0.05488 0.82251 0.8178 0.0
O106 O 0.09077 0.83491 0.78714 0.0
C107 C 0.06174 0.79041 0.77579 0.0
C108 C 0.19643 0.81275 0.81288 0.0
C109 C 0.11526 0.81903 0.72558 0.0
O110 O 0.03539 0.80062 0.77711 0.0
O111 O 0.11024 0.7919 0.7792 0.0
O112 O 0.15294 0.81468 0.7403 0.0
O113 O 0.07341 0.82074 0.73956 0.0
C114 C 0.06199 0.83388 0.80917 0.0
O115 O 0.19367 0.81739 0.78767 0.0
O116 O 0.15372 0.8085 0.82281 0.0
In117 In 0.13494 0.43161 0.78121 0.0
O118 O 0.19065 0.42304 0.81508 0.0
O119 O 0.14911 0.4104 0.78709 0.0
C120 C 0.16954 0.45585 0.77374 0.0
C121 C 0.04545 0.43365 0.8118 0.0
C122 C 0.13789 0.42397 0.72577 0.0
O123 O 0.19849 0.44718 0.78416 0.0
O124 O 0.12337 0.45238 0.76848 0.0
O125 O 0.09611 0.42413 0.74039 0.0
O126 O 0.17837 0.42746 0.73934 0.0
C127 C 0.18117 0.41159 0.80768 0.0
O128 O 0.04623 0.43263 0.78457 0.0
O129 O 0.08989 0.43371 0.82373 0.0
In130 In 0.10634 0.4298 0.45406 0.0
O131 O 0.19393 0.42696 0.44898 0.0
O132 O 0.1526 0.43499 0.41331 0.0
C133 C 0.12241 0.4244 0.51022 0.0
C134 C 0.06202 0.40978 0.42644 0.0
C135 C 0.05539 0.45229 0.46182 0.0
O136 O 0.15291 0.43146 0.49579 0.0
O137 O 0.08382 0.42006 0.49628 0.0
O138 O 0.03317 0.44158 0.46499 0.0
O139 O 0.10211 0.45161 0.45332 0.0
C140 C 0.19601 0.4314 0.42357 0.0
O141 O 0.05351 0.42122 0.41868 0.0
O142 O 0.09199 0.40861 0.44795 0.0
In143 In 0.14646 0.81638 0.45242 0.0
O144 O 0.19669 0.82519 0.41623 0.0
O145 O 0.16292 0.83758 0.44762 0.0
C146 C 0.19285 0.79328 0.45899 0.0
C147 C 0.05632 0.81532 0.42242 0.0
C148 C 0.13575 0.82133 0.50917 0.0
O149 O 0.21811 0.80365 0.46009 0.0
O150 O 0.14509 0.79454 0.45296 0.0
O151 O 0.09921 0.81666 0.49408 0.0
O152 O 0.17747 0.82364 0.49551 0.0
C153 C 0.19024 0.83655 0.42502 0.0
O154 O 0.05922 0.81982 0.44777 0.0
O155 O 0.0991 0.81132 0.41208 0.0
In156 In 0.88275 0.18235 0.20195 0.0
O157 O 0.93613 0.1738 0.16683 0.0
O158 O 0.89731 0.16115 0.19587 0.0
C159 C 0.93527 0.20467 0.20865 0.0
C160 C 0.79246 0.18355 0.17186 0.0
C161 C 0.86821 0.17738 0.25849 0.0
O162 O 0.95687 0.19389 0.21173 0.0
O163 O 0.8881 0.20417 0.20083 0.0
O164 O 0.83842 0.18473 0.24434 0.0
O165 O 0.90517 0.17252 0.24406 0.0
C166 C 0.92776 0.16235 0.17457 0.0
O167 O 0.79531 0.17907 0.1972 0.0
O168 O 0.83535 0.18746 0.16152 0.0
In169 In 0.87828 0.56655 0.20773 0.0
O170 O 0.96576 0.56955 0.20175 0.0
O171 O 0.92373 0.56106 0.16691 0.0
C172 C 0.89341 0.57081 0.2646 0.0
C173 C 0.83372 0.58695 0.1815 0.0
C174 C 0.82478 0.54432 0.21374 0.0
O175 O 0.92217 0.56336 0.25009 0.0
O176 O 0.85752 0.5762 0.25034 0.0
O177 O 0.80424 0.55512 0.21838 0.0
O178 O 0.87126 0.54478 0.20472 0.0
C179 C 0.96728 0.56489 0.17653 0.0
O180 O 0.82118 0.57558 0.17501 0.0
O181 O 0.86821 0.58788 0.20089 0.0
In182 In 0.8809 0.56124 0.53719 0.0
O183 O 0.93412 0.57016 0.57185 0.0
O184 O 0.89556 0.58251 0.54199 0.0
C185 C 0.91438 0.53675 0.53294 0.0
C186 C 0.78925 0.56009 0.56593 0.0
C187 C 0.88886 0.56771 0.48104 0.0
O188 O 0.94395 0.54567 0.54158 0.0
O189 O 0.86802 0.54014 0.5278 0.0
O190 O 0.84579 0.56782 0.49447 0.0
O191 O 0.92798 0.56449 0.49609 0.0
C192 C 0.92577 0.58153 0.56347 0.0
O193 O 0.79194 0.5612 0.53872 0.0
O194 O 0.83285 0.5595 0.57871 0.0
In195 In 0.86642 0.18302 0.53092 0.0
O196 O 0.81271 0.17467 0.56623 0.0
O197 O 0.8485 0.16192 0.53632 0.0
C198 C 0.83365 0.20743 0.52367 0.0
C199 C 0.95746 0.18399 0.56034 0.0
C200 C 0.86169 0.17663 0.47472 0.0
O201 O 0.80426 0.19885 0.53416 0.0
O202 O 0.87953 0.20377 0.51812 0.0
O203 O 0.90437 0.17744 0.4884 0.0
O204 O 0.82118 0.17886 0.48958 0.0
C205 C 0.81917 0.16321 0.55806 0.0
O206 O 0.95405 0.17977 0.53479 0.0
O207 O 0.91481 0.18778 0.57116 0.0
In208 In 0.60837 0.31412 0.78378 0.0
O209 O 0.69504 0.31835 0.78917 0.0
O210 O 0.65653 0.3085 0.82348 0.0
C211 C 0.62034 0.31936 0.72716 0.0
C212 C 0.5635 0.33391 0.81218 0.0
C213 C 0.56113 0.29111 0.77672 0.0
O214 O 0.65494 0.31366 0.74185 0.0
O215 O 0.57983 0.32249 0.74112 0.0
O216 O 0.53617 0.30154 0.77582 0.0
O217 O 0.60899 0.29229 0.78259 0.0
C218 C 0.69863 0.31321 0.81386 0.0
O219 O 0.55782 0.32244 0.82048 0.0
O220 O 0.59057 0.33522 0.78956 0.0
In221 In 0.64235 0.93058 0.78244 0.0
O222 O 0.55355 0.92953 0.78546 0.0
O223 O 0.59525 0.93469 0.82353 0.0
C224 C 0.64394 0.92292 0.72699 0.0
C225 C 0.69055 0.91105 0.81026 0.0
C226 C 0.67611 0.95483 0.77387 0.0
O227 O 0.60375 0.92194 0.74278 0.0
O228 O 0.6837 0.9276 0.73936 0.0
O229 O 0.70536 0.94627 0.78453 0.0
O230 O 0.63001 0.95124 0.76866 0.0
C231 C 0.55143 0.93257 0.81189 0.0
O232 O 0.69473 0.92252 0.81877 0.0
O233 O 0.66337 0.90962 0.78774 0.0
In234 In 0.60368 0.93002 0.45603 0.0
O235 O 0.69074 0.93439 0.4528 0.0
O236 O 0.64911 0.93108 0.41354 0.0
C237 C 0.61223 0.92323 0.51204 0.0
C238 C 0.56133 0.90929 0.43003 0.0
C239 C 0.55711 0.95322 0.4607 0.0
O240 O 0.65032 0.92262 0.49468 0.0
O241 O 0.56996 0.92714 0.50103 0.0
O242 O 0.53123 0.94294 0.45905 0.0
O243 O 0.60588 0.95181 0.45861 0.0
C244 C 0.69236 0.93357 0.42551 0.0
O245 O 0.55215 0.92056 0.42131 0.0
O246 O 0.59078 0.90861 0.45188 0.0
In247 In 0.64553 0.31593 0.45373 0.0
O248 O 0.55755 0.31319 0.45056 0.0
O249 O 0.60064 0.31425 0.41111 0.0
C250 C 0.64034 0.32142 0.51059 0.0
C251 C 0.68339 0.33743 0.4289 0.0
C252 C 0.69223 0.29267 0.45679 0.0
O253 O 0.60004 0.31981 0.4952 0.0
O254 O 0.68316 0.32045 0.49718 0.0
O255 O 0.71807 0.30296 0.45581 0.0
O256 O 0.64351 0.29411 0.45472 0.0
C257 C 0.55655 0.31303 0.4232 0.0
O258 O 0.69659 0.32638 0.42031 0.0
O259 O 0.65194 0.33752 0.44994 0.0
In260 In 0.38471 0.68143 0.20378 0.0
O261 O 0.3056 0.67262 0.19218 0.0
O262 O 0.3269 0.69 0.17142 0.0
C263 C 0.35494 0.67871 0.25938 0.0
C264 C 0.44191 0.66366 0.17523 0.0
C265 C 0.44354 0.70262 0.2117 0.0
O266 O 0.34542 0.68868 0.24485 0.0
O267 O 0.37818 0.66995 0.24563 0.0
O268 O 0.45667 0.69181 0.22165 0.0
O269 O 0.40261 0.70253 0.19644 0.0
C270 C 0.29317 0.68129 0.17445 0.0
O271 O 0.43079 0.67438 0.16417 0.0
O272 O 0.42596 0.66219 0.20083 0.0
In273 In 0.37643 0.06441 0.20464 0.0
O274 O 0.46343 0.06813 0.1988 0.0
O275 O 0.42369 0.05829 0.16496 0.0
C276 C 0.38766 0.06928 0.2615 0.0
C277 C 0.33291 0.08455 0.17705 0.0
C278 C 0.3242 0.04204 0.21086 0.0
O279 O 0.42034 0.06269 0.24741 0.0
O280 O 0.34967 0.07347 0.24685 0.0
O281 O 0.30146 0.05277 0.21132 0.0
O282 O 0.37264 0.04259 0.20598 0.0
C283 C 0.46632 0.06281 0.17429 0.0
O284 O 0.32415 0.07313 0.16927 0.0
O285 O 0.36312 0.08567 0.19848 0.0
In286 In 0.37753 0.06241 0.53444 0.0
O287 O 0.29036 0.06628 0.53893 0.0
O288 O 0.32842 0.05688 0.57394 0.0
C289 C 0.38292 0.06853 0.47808 0.0
C290 C 0.42429 0.08236 0.56132 0.0
C291 C 0.41155 0.03811 0.52735 0.0
O292 O 0.33995 0.06722 0.49128 0.0
O293 O 0.42326 0.06692 0.49347 0.0
O294 O 0.44008 0.04671 0.53846 0.0
O295 O 0.36586 0.0417 0.52108 0.0
C296 C 0.2863 0.06132 0.56376 0.0
O297 O 0.43108 0.07093 0.56966 0.0
O298 O 0.39472 0.08355 0.53965 0.0
In299 In 0.36084 0.68366 0.53293 0.0
O300 O 0.44923 0.68145 0.53554 0.0
O301 O 0.40814 0.68539 0.57469 0.0
C302 C 0.3574 0.67907 0.47568 0.0
C303 C 0.31596 0.66316 0.55809 0.0
C304 C 0.32528 0.70805 0.53076 0.0
O305 O 0.39885 0.68231 0.4886 0.0
O306 O 0.31777 0.67784 0.49174 0.0
O307 O 0.29506 0.69869 0.53525 0.0
O308 O 0.3729 0.70512 0.52904 0.0
C309 C 0.4516 0.68334 0.56253 0.0
O310 O 0.30615 0.67449 0.5663 0.0
O311 O 0.34765 0.66231 0.53719 0.0
In312 In 0.62311 0.81117 0.28495 0.0
O313 O 0.56921 0.81962 0.31983 0.0
O314 O 0.60574 0.83232 0.28993 0.0
C315 C 0.58326 0.7872 0.28242 0.0
C316 C 0.71449 0.81197 0.31392 0.0
C317 C 0.62469 0.81505 0.22737 0.0
O318 O 0.55442 0.79701 0.28389 0.0
O319 O 0.63154 0.7895 0.28372 0.0
O320 O 0.66222 0.80992 0.24083 0.0
O321 O 0.5867 0.81846 0.24303 0.0
C322 C 0.57608 0.83106 0.31159 0.0
O323 O 0.70947 0.81622 0.28845 0.0
O324 O 0.67333 0.80733 0.32483 0.0
In325 In 0.62797 0.43652 0.28517 0.0
O326 O 0.54181 0.43161 0.28961 0.0
O327 O 0.57779 0.44148 0.32465 0.0
C328 C 0.62336 0.43074 0.22854 0.0
C329 C 0.67447 0.41683 0.31308 0.0
C330 C 0.66927 0.46026 0.2791 0.0
O331 O 0.58483 0.43522 0.24233 0.0
O332 O 0.6644 0.42915 0.24336 0.0
O333 O 0.69718 0.45057 0.28458 0.0
O334 O 0.62094 0.45802 0.27792 0.0
C335 C 0.5367 0.4365 0.31444 0.0
O336 O 0.67756 0.42822 0.32227 0.0
O337 O 0.64903 0.41554 0.28988 0.0
In338 In 0.61888 0.43275 0.95593 0.0
O339 O 0.56301 0.42327 0.92349 0.0
O340 O 0.60821 0.4113 0.95123 0.0
C341 C 0.58083 0.45684 0.96127 0.0
C342 C 0.70746 0.43472 0.92449 0.0
C343 C 0.61911 0.42627 0.01223 0.0
O344 O 0.55287 0.4477 0.9522 0.0
O345 O 0.62768 0.45388 0.96629 0.0
O346 O 0.66056 0.42725 -0.00248 0.0
O347 O 0.57734 0.42829 -0.00165 0.0
C348 C 0.57489 0.41199 0.93112 0.0
O349 O 0.70738 0.43386 0.95175 0.0
O350 O 0.66273 0.43468 0.91291 0.0
In351 In 0.62816 0.81283 0.95286 0.0
O352 O 0.53958 0.81528 0.9499 0.0
O353 O 0.57969 0.80925 0.91203 0.0
C354 C 0.61408 0.81527 0.01035 0.0
C355 C 0.67581 0.83326 0.92842 0.0
C356 C 0.68392 0.79087 0.95532 0.0
O357 O 0.59676 0.80584 -0.00383 0.0
O358 O 0.63756 0.82362 -0.00454 0.0
O359 O 0.70235 0.8015 0.96349 0.0
O360 O 0.63878 0.79149 0.94438 0.0
C361 C 0.53654 0.81209 0.92361 0.0
O362 O 0.68637 0.8219 0.92086 0.0
O363 O 0.64206 0.83417 0.94822 0.0
In364 In 0.38695 0.18169 0.70164 0.0
O365 O 0.44049 0.1725 0.66733 0.0
O366 O 0.40384 0.16044 0.69839 0.0
C367 C 0.42219 0.20597 0.70743 0.0
C368 C 0.29741 0.1826 0.67088 0.0
C369 C 0.38617 0.17641 0.7585 0.0
O370 O 0.45182 0.19692 0.69947 0.0
O371 O 0.37512 0.2028 0.71113 0.0
O372 O 0.34477 0.1777 0.74385 0.0
O373 O 0.42817 0.17758 0.74431 0.0
C374 C 0.43327 0.16122 0.67657 0.0
O375 O 0.29969 0.17838 0.69647 0.0
O376 O 0.34055 0.18637 0.66061 0.0
In377 In 0.35357 0.56442 0.70124 0.0
O378 O 0.30197 0.57332 0.66587 0.0
O379 O 0.33607 0.58564 0.69734 0.0
C380 C 0.31016 0.54085 0.70482 0.0
C381 C 0.44429 0.56189 0.67203 0.0
C382 C 0.35779 0.57099 0.75754 0.0
O383 O 0.28304 0.55092 0.70273 0.0
O384 O 0.35884 0.54264 0.70358 0.0
O385 O 0.39611 0.57256 0.74063 0.0
O386 O 0.3175 0.56628 0.74592 0.0
C387 C 0.30801 0.58466 0.67498 0.0
O388 O 0.44133 0.56075 0.69923 0.0
O389 O 0.40139 0.56418 0.6595 0.0
In390 In 0.39072 0.56583 0.02977 0.0
O391 O 0.3022 0.56585 0.03403 0.0
O392 O 0.34661 0.56185 0.07197 0.0
C393 C 0.38605 0.572 0.97327 0.0
C394 C 0.43519 0.58641 0.05546 0.0
C395 C 0.43284 0.54222 0.02369 0.0
O396 O 0.3462 0.57204 0.98943 0.0
O397 O 0.42823 0.56896 0.98569 0.0
O398 O 0.46036 0.5521 0.02775 0.0
O399 O 0.38418 0.54417 0.02398 0.0
C400 C 0.30188 0.56331 0.06077 0.0
O401 O 0.44484 0.5751 0.06367 0.0
O402 O 0.40391 0.5872 0.03445 0.0
In403 In 0.36122 0.18327 0.03213 0.0
O404 O 0.44868 0.1799 0.03637 0.0
O405 O 0.40924 0.18816 0.07241 0.0
C406 C 0.3721 0.17868 0.9752 0.0
C407 C 0.31873 0.16281 0.05903 0.0
C408 C 0.31113 0.20602 0.02738 0.0
O409 O 0.40588 0.18475 0.98969 0.0
O410 O 0.33287 0.17492 0.98946 0.0
O411 O 0.28734 0.19545 0.02598 0.0
O412 O 0.35937 0.2051 0.03247 0.0
C413 C 0.45192 0.18426 0.06181 0.0
O414 O 0.31073 0.17413 0.06777 0.0
O415 O 0.34719 0.16197 0.03682 0.0
H416 H 0.06791 0.38489 0.44312 0.0
H417 H 0.01465 0.40914 0.37313 0.0
H418 H 0.0538 0.36604 0.41333 0.0
H419 H 0.99937 0.39011 0.34321 0.0
H420 H 0.02051 0.33271 0.35807 0.0
H421 H 0.99709 0.35161 0.38671 0.0
H422 H 0.06307 0.37606 0.32044 0.0
H423 H 0.08525 0.35731 0.29178 0.0
C424 C 0.05191 0.38616 0.42155 0.0
C425 C 0.04329 0.39848 0.41023 0.0
C426 C 0.0433 0.37532 0.40453 0.0
C427 C 0.02594 0.37657 0.37576 0.0
C428 C 0.01347 0.38886 0.36518 0.0
C429 C 0.02199 0.39974 0.38231 0.0
C430 C 0.02883 0.34215 0.34939 0.0
C431 C 0.05549 0.34355 0.32297 0.0
C432 C 0.01558 0.35296 0.3658 0.0
C433 C 0.02872 0.36534 0.35601 0.0
C434 C 0.05188 0.36671 0.32855 0.0
C435 C 0.06512 0.35593 0.31222 0.0
H436 H 0.14842 0.88988 0.29358 0.0
H437 H 0.22635 0.91394 0.35641 0.0
H438 H 0.17254 0.87095 0.3212 0.0
H439 H 0.25145 0.89486 0.38403 0.0
H440 H 0.22982 0.83752 0.3699 0.0
H441 H 0.24057 0.85673 0.33998 0.0
H442 H 0.1979 0.88038 0.41321 0.0
H443 H 0.18812 0.86132 0.44299 0.0
C444 C 0.17162 0.8911 0.31305 0.0
C445 C 0.18479 0.90339 0.32312 0.0
C446 C 0.18598 0.88022 0.32873 0.0
C447 C 0.21374 0.8814 0.3549 0.0
C448 C 0.22958 0.89367 0.36409 0.0
C449 C 0.21532 0.90458 0.34829 0.0
C450 C 0.22417 0.84686 0.37973 0.0
C451 C 0.20732 0.84794 0.40859 0.0
C452 C 0.23007 0.85784 0.36259 0.0
C453 C 0.21941 0.87006 0.37412 0.0
C454 C 0.20679 0.87114 0.40367 0.0
C455 C 0.20074 0.86019 0.4207 0.0
H456 H 0.07832 0.88644 0.94423 0.0
H457 H 0.02109 0.91124 0.87624 0.0
H458 H 0.05731 0.86776 0.91514 0.0
H459 H 0.99863 0.89241 0.84712 0.0
H460 H 0.07016 0.85874 0.79242 0.0
H461 H 0.05525 0.87769 0.82178 0.0
H462 H 0.99551 0.8539 0.89107 0.0
H463 H 0.01186 0.83479 0.86168 0.0
C464 C 0.06004 0.88788 0.92329 0.0
C465 C 0.05225 0.90029 0.91225 0.0
C466 C 0.04744 0.87715 0.90669 0.0
C467 C 0.02672 0.87858 0.87865 0.0
C468 C 0.01529 0.891 0.86848 0.0
C469 C 0.02795 0.90178 0.88516 0.0
C470 C 0.05288 0.85756 0.81371 0.0
C471 C 0.04311 0.84528 0.825 0.0
C472 C 0.04381 0.86845 0.83048 0.0
C473 C 0.0247 0.86732 0.85893 0.0
C474 C 0.01107 0.85508 0.86939 0.0
C475 C 0.02021 0.84414 0.85255 0.0
H476 H 0.17241 0.38663 0.79187 0.0
H477 H 0.23487 0.41106 0.85911 0.0
H478 H 0.18979 0.36787 0.82146 0.0
H479 H 0.25343 0.39213 0.88878 0.0
H480 H 0.22871 0.33471 0.87601 0.0
H481 H 0.24944 0.35345 0.8462 0.0
H482 H 0.19234 0.37829 0.91423 0.0
H483 H 0.17284 0.3597 0.94398 0.0
C484 C 0.19109 0.38796 0.81274 0.0
C485 C 0.20139 0.40031 0.82344 0.0
C486 C 0.20158 0.37717 0.82963 0.0
C487 C 0.22256 0.3785 0.85763 0.0
C488 C 0.23657 0.39082 0.86744 0.0
C489 C 0.22614 0.40165 0.85044 0.0
C490 C 0.22187 0.3442 0.88479 0.0
C491 C 0.19834 0.34576 0.91207 0.0
C492 C 0.23355 0.35492 0.86771 0.0
C493 C 0.22198 0.36736 0.87769 0.0
C494 C 0.20224 0.36888 0.90592 0.0
C495 C 0.19053 0.3582 0.9229 0.0
H496 H 0.91921 0.60631 0.5459 0.0
H497 H 0.97574 0.58258 0.616 0.0
H498 H 0.9365 0.62541 0.57442 0.0
H499 H 0.99408 0.60183 0.6446 0.0
H500 H 0.97977 0.65911 0.62702 0.0
H501 H 0.99766 0.63972 0.59881 0.0
H502 H 0.93329 0.61659 0.66793 0.0
H503 H 0.91645 0.63582 0.69609 0.0
C504 C 0.93649 0.6052 0.56721 0.0
C505 C 0.94532 0.59296 0.57893 0.0
C506 C 0.94691 0.61617 0.58348 0.0
C507 C 0.96629 0.61515 0.6119 0.0
C508 C 0.97852 0.60292 0.62289 0.0
C509 C 0.96822 0.5919 0.60651 0.0
C510 C 0.97066 0.64985 0.63639 0.0
C511 C 0.94599 0.64897 0.66353 0.0
C512 C 0.9807 0.63876 0.62023 0.0
C513 C 0.96641 0.62662 0.631 0.0
C514 C 0.94527 0.62575 0.65906 0.0
C515 C 0.93513 0.6368 0.67512 0.0
H516 H 0.81968 0.10986 0.69342 0.0
H517 H 0.7597 0.08629 0.62396 0.0
H518 H 0.80526 0.12895 0.66439 0.0
H519 H 0.74386 0.10554 0.59492 0.0
H520 H 0.7685 0.16278 0.61047 0.0
H521 H 0.74812 0.14383 0.63969 0.0
H522 H 0.80517 0.11948 0.57073 0.0
H523 H 0.82417 0.13827 0.54157 0.0
C524 C 0.80216 0.10879 0.67217 0.0
C525 C 0.79166 0.09657 0.66074 0.0
C526 C 0.79341 0.11977 0.65558 0.0
C527 C 0.77389 0.11878 0.62718 0.0
C528 C 0.75974 0.1066 0.61657 0.0
C529 C 0.76858 0.09558 0.63321 0.0
C530 C 0.77548 0.15336 0.60139 0.0
C531 C 0.79862 0.152 0.57395 0.0
C532 C 0.76404 0.14251 0.61814 0.0
C533 C 0.7755 0.13013 0.60769 0.0
C534 C 0.79528 0.12883 0.57941 0.0
C535 C 0.80669 0.13963 0.56275 0.0
H536 H 0.98087 0.16183 0.12294 0.0
H537 H 0.92016 0.13742 0.19074 0.0
H538 H 0.00213 0.14284 0.09403 0.0
H539 H 0.94021 0.1186 0.1619 0.0
H540 H 0.98798 0.08537 0.1099 0.0
H541 H 0.00348 0.10465 0.13885 0.0
H542 H 0.94508 0.12803 0.06852 0.0
H543 H 0.93086 0.10889 0.03958 0.0
C544 C 0.97294 0.15242 0.13185 0.0
C545 C 0.94817 0.15109 0.15886 0.0
C546 C 0.98493 0.14156 0.11529 0.0
C547 C 0.97248 0.12921 0.12555 0.0
C548 C 0.95092 0.12793 0.15343 0.0
C549 C 0.93889 0.13875 0.16987 0.0
C550 C 0.97973 0.09466 0.10044 0.0
C551 C 0.9574 0.09563 0.07271 0.0
C552 C 0.98839 0.10569 0.11702 0.0
C553 C 0.97486 0.11786 0.10614 0.0
C554 C 0.95636 0.11884 0.07753 0.0
C555 C 0.94773 0.10784 0.061 0.0
H556 H 0.85401 0.61186 0.19412 0.0
H557 H 0.76601 0.58789 0.13536 0.0
H558 H 0.83027 0.63067 0.16619 0.0
H559 H 0.74077 0.60691 0.10752 0.0
H560 H 0.8011 0.63903 0.04421 0.0
H561 H 0.78967 0.62051 0.07541 0.0
H562 H 0.76609 0.64559 0.1489 0.0
H563 H 0.77927 0.66422 0.11755 0.0
C564 C 0.82863 0.61065 0.17551 0.0
C565 C 0.81259 0.59838 0.16663 0.0
C566 C 0.81445 0.62148 0.15963 0.0
C567 C 0.78374 0.62032 0.13448 0.0
C568 C 0.76503 0.60811 0.12658 0.0
C569 C 0.77934 0.59722 0.14253 0.0
C570 C 0.79223 0.64061 0.0669 0.0
C571 C 0.79218 0.65306 0.07858 0.0
C572 C 0.78524 0.62997 0.08481 0.0
C573 C 0.77788 0.63154 0.1148 0.0
C574 C 0.77282 0.64405 0.12597 0.0
C575 C 0.78001 0.65472 0.10801 0.0
H576 H 0.51438 0.41066 0.88218 0.0
H577 H 0.59179 0.38715 0.94629 0.0
H578 H 0.49396 0.39144 0.85391 0.0
H579 H 0.5724 0.36809 0.918 0.0
H580 H 0.52288 0.33429 0.86715 0.0
H581 H 0.5087 0.35322 0.89753 0.0
H582 H 0.55115 0.37763 0.82551 0.0
H583 H 0.56431 0.35884 0.79528 0.0
C584 C 0.52621 0.40138 0.89047 0.0
C585 C 0.55531 0.40041 0.91621 0.0
C586 C 0.51469 0.39039 0.87426 0.0
C587 C 0.53193 0.37824 0.88358 0.0
C588 C 0.55801 0.37725 0.91031 0.0
C589 C 0.5696 0.38821 0.92642 0.0
C590 C 0.52785 0.34372 0.85769 0.0
C591 C 0.5454 0.3451 0.82901 0.0
C592 C 0.52 0.35455 0.87509 0.0
C593 C 0.52935 0.36693 0.86404 0.0
C594 C 0.54312 0.36827 0.83469 0.0
C595 C 0.55112 0.35748 0.8174 0.0
H596 H 0.73762 0.83426 0.87989 0.0
H597 H 0.66178 0.85814 0.94384 0.0
H598 H 0.76045 0.8534 0.85187 0.0
H599 H 0.68338 0.87711 0.91579 0.0
H600 H 0.73197 0.91074 0.86508 0.0
H601 H 0.74685 0.89181 0.89537 0.0
H602 H 0.70535 0.86739 0.82322 0.0
H603 H 0.69174 0.88617 0.79307 0.0
C604 C 0.72668 0.8436 0.8882 0.0
C605 C 0.69723 0.84471 0.91379 0.0
C606 C 0.73958 0.85455 0.87214 0.0
C607 C 0.72331 0.86678 0.88143 0.0
C608 C 0.69706 0.86789 0.90809 0.0
C609 C 0.68417 0.85698 0.92407 0.0
C610 C 0.72747 0.9013 0.85556 0.0
C611 C 0.70989 0.89992 0.82689 0.0
C612 C 0.73571 0.89047 0.87292 0.0
C613 C 0.7266 0.87808 0.86184 0.0
C614 C 0.71315 0.87675 0.83245 0.0
C615 C 0.70488 0.88754 0.81519 0.0
H616 H 0.52446 0.83147 0.36365 0.0
H617 H 0.58181 0.85604 0.29526 0.0
H618 H 0.50337 0.85039 0.3928 0.0
H619 H 0.56187 0.87482 0.32437 0.0
H620 H 0.57312 0.88451 0.44697 0.0
H621 H 0.56059 0.86538 0.41777 0.0
H622 H 0.49827 0.88857 0.34818 0.0
H623 H 0.51191 0.90785 0.37742 0.0
C624 C 0.53166 0.8409 0.35466 0.0
C625 C 0.55543 0.84229 0.32738 0.0
C626 C 0.5198 0.85173 0.37136 0.0
C627 C 0.53137 0.86411 0.36102 0.0
C628 C 0.5519 0.86546 0.33292 0.0
C629 C 0.56381 0.85467 0.31631 0.0
C630 C 0.55578 0.88551 0.42566 0.0
C631 C 0.54427 0.89769 0.41428 0.0
C632 C 0.54815 0.87451 0.40897 0.0
C633 C 0.52888 0.87544 0.38051 0.0
C634 C 0.51389 0.88756 0.36989 0.0
C635 C 0.52147 0.89859 0.38666 0.0
H636 H 0.73994 0.33997 0.37876 0.0
H637 H 0.66208 0.36187 0.44554 0.0
H638 H 0.75435 0.35968 0.35105 0.0
H639 H 0.67539 0.3814 0.4178 0.0
H640 H 0.71595 0.41628 0.36786 0.0
H641 H 0.73434 0.39722 0.39712 0.0
H642 H 0.69359 0.3731 0.32433 0.0
H643 H 0.67639 0.39203 0.29516 0.0
C644 C 0.7267 0.34901 0.38772 0.0
C645 C 0.69929 0.34937 0.41409 0.0
C646 C 0.73475 0.36028 0.37183 0.0
C647 C 0.71563 0.3721 0.38209 0.0
C648 C 0.69116 0.37251 0.40937 0.0
C649 C 0.68308 0.36127 0.42517 0.0
C650 C 0.71214 0.4069 0.358 0.0
C651 C 0.69408 0.40562 0.32939 0.0
C652 C 0.72241 0.39599 0.37476 0.0
C653 C 0.71492 0.38364 0.36316 0.0
C654 C 0.70028 0.38244 0.33391 0.0
C655 C 0.68995 0.39331 0.31723 0.0
H656 H 0.41603 0.61122 0.04136 0.0
H657 H 0.4983 0.58768 0.1035 0.0
H658 H 0.43573 0.63016 0.06965 0.0
H659 H 0.51997 0.60685 0.13164 0.0
H660 H 0.45457 0.63896 0.19278 0.0
H661 H 0.46956 0.62042 0.16215 0.0
H662 H 0.49499 0.64541 0.08863 0.0
H663 H 0.4776 0.66401 0.11929 0.0
C664 C 0.43946 0.61013 0.06079 0.0
C665 C 0.45488 0.59794 0.07048 0.0
C666 C 0.45133 0.62105 0.07692 0.0
C667 C 0.47924 0.62007 0.1031 0.0
C668 C 0.49767 0.60793 0.11182 0.0
C669 C 0.48548 0.59696 0.09567 0.0
C670 C 0.46455 0.64052 0.17022 0.0
C671 C 0.4638 0.65291 0.15827 0.0
C672 C 0.47357 0.62986 0.15263 0.0
C673 C 0.48252 0.63137 0.12273 0.0
C674 C 0.48687 0.64388 0.11142 0.0
C675 C 0.47727 0.65455 0.129 0.0
H676 H 0.27165 0.1616 0.11231 0.0
H677 H 0.32708 0.13803 0.04169 0.0
H678 H 0.25764 0.14234 0.14163 0.0
H679 H 0.31424 0.11892 0.07094 0.0
H680 H 0.34218 0.1095 0.19292 0.0
H681 H 0.32186 0.12835 0.16416 0.0
H682 H 0.25743 0.10417 0.09692 0.0
H683 H 0.2789 0.08516 0.12573 0.0
C684 C 0.27983 0.1523 0.10287 0.0
C685 C 0.30123 0.15131 0.07493 0.0
C686 C 0.27204 0.14128 0.11966 0.0
C687 C 0.28542 0.12911 0.10874 0.0
C688 C 0.30308 0.12811 0.07998 0.0
C689 C 0.31092 0.13909 0.06327 0.0
C690 C 0.32289 0.1082 0.1722 0.0
C691 C 0.31289 0.09586 0.16133 0.0
C692 C 0.31071 0.11903 0.15582 0.0
C693 C 0.28829 0.11777 0.12815 0.0
C694 C 0.27528 0.10544 0.11803 0.0
C695 C 0.28741 0.09456 0.13452 0.0
H696 H 0.47552 0.08309 0.61357 0.0
H697 H 0.41931 0.10719 0.54406 0.0
H698 H 0.49655 0.10222 0.64206 0.0
H699 H 0.43895 0.12615 0.57247 0.0
H700 H 0.48404 0.1597 0.62431 0.0
H701 H 0.5004 0.14026 0.59602 0.0
H702 H 0.43983 0.11727 0.66643 0.0
H703 H 0.42489 0.13654 0.69471 0.0
C704 C 0.46855 0.09246 0.6042 0.0
C705 C 0.44504 0.09366 0.57681 0.0
C706 C 0.48038 0.10341 0.62052 0.0
C707 C 0.46897 0.11573 0.60968 0.0
C708 C 0.44883 0.11686 0.58144 0.0
C709 C 0.43703 0.10596 0.56522 0.0
C710 C 0.47552 0.15046 0.63394 0.0
C711 C 0.45239 0.14964 0.66149 0.0
C712 C 0.48464 0.13933 0.61772 0.0
C713 C 0.47077 0.12721 0.62879 0.0
C714 C 0.45143 0.1264 0.65726 0.0
C715 C 0.44237 0.13748 0.67341 0.0
H716 H 0.25986 0.66205 0.60862 0.0
H717 H 0.32783 0.63832 0.54172 0.0
H718 H 0.2398 0.64284 0.63703 0.0
H719 H 0.30883 0.61927 0.57011 0.0
H720 H 0.26155 0.5856 0.62154 0.0
H721 H 0.24576 0.60477 0.59222 0.0
H722 H 0.29823 0.62852 0.6633 0.0
H723 H 0.31293 0.60948 0.69256 0.0
C724 C 0.26962 0.65273 0.59977 0.0
C725 C 0.29608 0.65167 0.57319 0.0
C726 C 0.25831 0.64174 0.61605 0.0
C727 C 0.27313 0.62953 0.60595 0.0
C728 C 0.29635 0.62849 0.57843 0.0
C729 C 0.30772 0.63944 0.56225 0.0
C730 C 0.26843 0.59494 0.63107 0.0
C731 C 0.28922 0.59606 0.65914 0.0
C732 C 0.25961 0.6059 0.61427 0.0
C733 C 0.27132 0.61816 0.62531 0.0
C734 C 0.28835 0.61926 0.65418 0.0
C735 C 0.29723 0.60832 0.67089 0.0
H736 H 0.54045 0.31811 0.3659 0.0
H737 H 0.46172 0.30524 0.44346 0.0
H738 H 0.45813 0.31715 0.33934 0.0
H739 H 0.37983 0.30363 0.41671 0.0
H740 H 0.23167 0.31613 0.36967 0.0
H741 H 0.31411 0.31639 0.39613 0.0
H742 H 0.39504 0.30349 0.31907 0.0
H743 H 0.3128 0.30388 0.29237 0.0
C744 C 0.50559 0.3149 0.37714 0.0
C745 C 0.50735 0.3118 0.40673 0.0
C746 C 0.4584 0.31427 0.3619 0.0
C747 C 0.41207 0.31032 0.37583 0.0
C748 C 0.41434 0.30696 0.40536 0.0
C749 C 0.46136 0.30779 0.42068 0.0
C750 C 0.26712 0.31331 0.35847 0.0
C751 C 0.26593 0.31002 0.32898 0.0
C752 C 0.31442 0.31338 0.37366 0.0
C753 C 0.36149 0.30996 0.35979 0.0
C754 C 0.35988 0.30642 0.33036 0.0
C755 C 0.31268 0.30655 0.31508 0.0
H756 H 0.93272 0.94222 0.29306 0.0
H757 H 0.01781 0.93403 0.37179 0.0
H758 H 0.85097 0.94241 0.32013 0.0
H759 H 0.93585 0.93355 0.3988 0.0
H760 H 0.78466 0.94361 0.44448 0.0
H761 H 0.8662 0.94572 0.41747 0.0
H762 H 0.79252 0.92832 0.34274 0.0
H763 H 0.71056 0.92684 0.36938 0.0
C764 C 0.93382 0.94041 0.31619 0.0
C765 C 0.9815 0.93809 0.33035 0.0
C766 C 0.88692 0.94042 0.33171 0.0
C767 C 0.88653 0.93789 0.36168 0.0
C768 C 0.93455 0.93573 0.37586 0.0
C769 C 0.98157 0.93593 0.36038 0.0
C770 C 0.78597 0.94032 0.4222 0.0
C771 C 0.74136 0.93508 0.40898 0.0
C772 C 0.83279 0.94144 0.40676 0.0
C773 C 0.83621 0.93716 0.37788 0.0
C774 C 0.79127 0.93195 0.36472 0.0
C775 C 0.74429 0.93101 0.38004 0.0
H776 H 0.53748 0.93753 0.86947 0.0
H777 H 0.45292 0.92913 0.79061 0.0
H778 H 0.45513 0.93799 0.8963 0.0
H779 H 0.37069 0.92942 0.81748 0.0
H780 H 0.22985 0.94333 0.87081 0.0
H781 H 0.31205 0.94417 0.84374 0.0
H782 H 0.38824 0.92247 0.91149 0.0
H783 H 0.30651 0.92178 0.93864 0.0
C784 C 0.50129 0.93581 0.85788 0.0
C785 C 0.50159 0.93327 0.82798 0.0
C786 C 0.45419 0.936 0.87325 0.0
C787 C 0.40645 0.9337 0.85901 0.0
C788 C 0.40676 0.93136 0.829 0.0
C789 C 0.45388 0.93112 0.81366 0.0
C790 C 0.26422 0.93876 0.87989 0.0
C791 C 0.26181 0.93249 0.90681 0.0
C792 C 0.31118 0.93919 0.86436 0.0
C793 C 0.35664 0.93341 0.87553 0.0
C794 C 0.3541 0.92717 0.9025 0.0
C795 C 0.30719 0.92671 0.91795 0.0
H796 H 0.79348 0.32244 0.79684 0.0
H797 H 0.71592 0.30303 0.86758 0.0
H798 H 0.87547 0.32206 0.82385 0.0
H799 H 0.79825 0.30245 0.89445 0.0
H800 H 0.93957 0.31783 0.9458 0.0
H801 H 0.85757 0.31745 0.91878 0.0
H802 H 0.94175 0.3069 0.8411 0.0
H803 H 0.02396 0.30749 0.86807 0.0
C804 C 0.79404 0.31804 0.81812 0.0
C805 C 0.74831 0.31278 0.83014 0.0
C806 C 0.84107 0.31774 0.8335 0.0
C807 C 0.84337 0.3122 0.86126 0.0
C808 C 0.7976 0.30691 0.87324 0.0
C809 C 0.75054 0.30718 0.85781 0.0
C810 C 0.94053 0.3154 0.92297 0.0
C811 C 0.98814 0.31271 0.90901 0.0
C812 C 0.89353 0.3151 0.90754 0.0
C813 C 0.89318 0.31215 0.87781 0.0
C814 C 0.94083 0.30936 0.86391 0.0
C815 C 0.98784 0.30963 0.87937 0.0
H816 H 0.6978 0.69104 0.69157 0.0
H817 H 0.77623 0.67509 0.61697 0.0
H818 H 0.61596 0.69168 0.66467 0.0
H819 H 0.69381 0.67489 0.59045 0.0
H820 H 0.54933 0.68685 0.54061 0.0
H821 H 0.63177 0.68724 0.56699 0.0
H822 H 0.54868 0.6792 0.64675 0.0
H823 H 0.46615 0.67967 0.62041 0.0
C824 C 0.69728 0.68756 0.66943 0.0
C825 C 0.74321 0.68305 0.65628 0.0
C826 C 0.65025 0.68781 0.65403 0.0
C827 C 0.64781 0.68327 0.62531 0.0
C828 C 0.69408 0.67871 0.61227 0.0
C829 C 0.74136 0.67873 0.6275 0.0
C830 C 0.54888 0.6852 0.56381 0.0
C831 C 0.50149 0.68327 0.57853 0.0
C832 C 0.59619 0.68533 0.57896 0.0
C833 C 0.59728 0.68324 0.60913 0.0
C834 C 0.54958 0.68114 0.6237 0.0
C835 C 0.50219 0.6813 0.6086 0.0
H836 H 0.9588 0.05709 0.61541 0.0
H837 H 0.04324 0.06518 0.69446 0.0
H838 H 0.04139 0.05615 0.58885 0.0
H839 H 0.12558 0.06452 0.6679 0.0
H840 H 0.267 0.05053 0.61667 0.0
H841 H 0.18398 0.04991 0.64284 0.0
H842 H 0.10978 0.07068 0.57292 0.0
H843 H 0.19238 0.07104 0.54654 0.0
C844 C 0.995 0.05866 0.62709 0.0
C845 C 0.9946 0.06122 0.65698 0.0
C846 C 0.04228 0.0582 0.61187 0.0
C847 C 0.09008 0.06029 0.62625 0.0
C848 C 0.08955 0.0627 0.65623 0.0
C849 C 0.04233 0.06316 0.67143 0.0
C850 C 0.23288 0.05493 0.6069 0.0
C851 C 0.23614 0.06084 0.5796 0.0
C852 C 0.18539 0.05463 0.62193 0.0
C853 C 0.14024 0.06025 0.60997 0.0
C854 C 0.14359 0.0661 0.58256 0.0
C855 C 0.19102 0.06638 0.56753 0.0
H856 H 0.48297 0.05137 0.12183 0.0
H857 H 0.56142 0.07239 0.18983 0.0
H858 H 0.56498 0.0501 0.09481 0.0
H859 H 0.64302 0.07138 0.16261 0.0
H860 H 0.79154 0.05673 0.11953 0.0
H861 H 0.70977 0.05634 0.14691 0.0
H862 H 0.62354 0.06416 0.06824 0.0
H863 H 0.70507 0.06425 0.04086 0.0
C864 C 0.51772 0.05574 0.13095 0.0
C865 C 0.51582 0.06198 0.15791 0.0
C866 C 0.56462 0.05507 0.11543 0.0
C867 C 0.61055 0.06064 0.12656 0.0
C868 C 0.60857 0.06683 0.15362 0.0
C869 C 0.56172 0.06748 0.16913 0.0
C870 C 0.75505 0.05828 0.10811 0.0
C871 C 0.75466 0.06053 0.07809 0.0
C872 C 0.70826 0.05814 0.12379 0.0
C873 C 0.66014 0.06026 0.10977 0.0
C874 C 0.65983 0.06233 0.07965 0.0
C875 C 0.70658 0.06246 0.06398 0.0
H876 H 0.0294 0.66321 0.06373 0.0
H877 H 0.98895 0.69978 0.10166 0.0
H878 H 0.1111 0.66305 0.09126 0.0
H879 H 0.07091 0.69963 0.12906 0.0
H880 H 0.2514 0.70071 0.14241 0.0
H881 H 0.16824 0.70075 0.11622 0.0
H882 H 0.13889 0.66192 0.14448 0.0
H883 H 0.22193 0.66189 0.17085 0.0
C884 C 0.03798 0.6712 0.07797 0.0
C885 C 0.00295 0.68151 0.08056 0.0
C886 C 0.08455 0.67107 0.09381 0.0
C887 C 0.09724 0.68133 0.11222 0.0
C888 C 0.06219 0.69165 0.11482 0.0
C889 C 0.01527 0.6917 0.09927 0.0
C890 C 0.22715 0.69219 0.14304 0.0
C891 C 0.24305 0.68129 0.15862 0.0
C892 C 0.17951 0.69225 0.1282 0.0
C893 C 0.14724 0.68134 0.12839 0.0
C894 C 0.16326 0.67042 0.14385 0.0
C895 C 0.2106 0.67042 0.159 0.0
H896 H 0.43923 0.81768 0.94436 0.0
H897 H 0.52092 0.80584 0.86685 0.0
H898 H 0.35671 0.81762 0.91773 0.0
H899 H 0.43831 0.80556 0.84033 0.0
H900 H 0.29199 0.82125 0.79531 0.0
H901 H 0.37385 0.82088 0.82235 0.0
H902 H 0.29498 0.80284 0.89452 0.0
H903 H 0.21266 0.80343 0.86757 0.0
C904 C 0.43948 0.815 0.92167 0.0
C905 C 0.48649 0.81179 0.90765 0.0
C906 C 0.39219 0.81489 0.90646 0.0
C907 C 0.39097 0.8116 0.87691 0.0
C908 C 0.43804 0.80831 0.86298 0.0
C909 C 0.4853 0.8084 0.87819 0.0
C910 C 0.29212 0.8172 0.81695 0.0
C911 C 0.24595 0.81236 0.82934 0.0
C912 C 0.3391 0.81691 0.83237 0.0
C913 C 0.34095 0.8118 0.86054 0.0
C914 C 0.2947 0.80697 0.87296 0.0
C915 C 0.24765 0.80724 0.85749 0.0
H916 H 0.72109 0.42925 0.86721 0.0
H917 H 0.80388 0.44161 0.94384 0.0
H918 H 0.80287 0.42912 0.84008 0.0
H919 H 0.88527 0.44227 0.91649 0.0
H920 H 0.03083 0.42877 0.86922 0.0
H921 H 0.94886 0.4292 0.8961 0.0
H922 H 0.86763 0.44155 0.81861 0.0
H923 H 0.94928 0.44034 0.79155 0.0
C924 C 0.75677 0.43213 0.87809 0.0
C925 C 0.75632 0.43539 0.9076 0.0
C926 C 0.8037 0.43215 0.86253 0.0
C927 C 0.85103 0.43567 0.87602 0.0
C928 C 0.85001 0.43922 0.90546 0.0
C929 C 0.80328 0.43895 0.92113 0.0
C930 C 0.99536 0.43159 0.85804 0.0
C931 C 0.99626 0.43449 0.82835 0.0
C932 C 0.94833 0.43193 0.87345 0.0
C933 C 0.90129 0.43543 0.85963 0.0
C934 C 0.90267 0.43855 0.82993 0.0
C935 C 0.94954 0.43796 0.81442 0.0
H936 H 0.51727 0.44484 0.36954 0.0
H937 H 0.44299 0.42755 0.29501 0.0
H938 H 0.43428 0.44402 0.39582 0.0
H939 H 0.36034 0.42661 0.32135 0.0
H940 H 0.2101 0.4394 0.36771 0.0
H941 H 0.29262 0.44115 0.34121 0.0
H942 H 0.37614 0.42734 0.41645 0.0
H943 H 0.29388 0.42571 0.44298 0.0
C944 C 0.48322 0.44088 0.35879 0.0
C945 C 0.48655 0.43625 0.33027 0.0
C946 C 0.43583 0.44035 0.37387 0.0
C947 C 0.39085 0.43524 0.36063 0.0
C948 C 0.39417 0.43073 0.33199 0.0
C949 C 0.44157 0.4312 0.31699 0.0
C950 C 0.24612 0.43675 0.37855 0.0
C951 C 0.24561 0.43241 0.40738 0.0
C952 C 0.29329 0.4377 0.36337 0.0
C953 C 0.34082 0.4344 0.37679 0.0
C954 C 0.34022 0.43011 0.40566 0.0
C955 C 0.29309 0.4291 0.42078 0.0
H956 H 0.73353 0.8044 0.36953 0.0
H957 H 0.80876 0.8204 0.29382 0.0
H958 H 0.81666 0.80502 0.39555 0.0
H959 H 0.89178 0.82115 0.31996 0.0
H960 H 0.04068 0.80726 0.36673 0.0
H961 H 0.95787 0.80628 0.34031 0.0
H962 H 0.87708 0.82128 0.41529 0.0
H963 H 0.95959 0.82212 0.44176 0.0
C964 C 0.76781 0.80807 0.35848 0.0
C965 C 0.76471 0.81236 0.32967 0.0
C966 C 0.81533 0.80848 0.37342 0.0
C967 C 0.8607 0.81314 0.35979 0.0
C968 C 0.85759 0.81738 0.33091 0.0
C969 C 0.81002 0.81702 0.31602 0.0
C970 C 0.0052 0.81034 0.37753 0.0
C971 C 0.00653 0.81476 0.40629 0.0
C972 C 0.95788 0.80984 0.36238 0.0
C973 C 0.911 0.81369 0.37576 0.0
C974 C 0.91245 0.8181 0.40453 0.0
C975 C 0.95974 0.81865 0.41962 0.0
H976 H 0.77678 0.19175 0.11625 0.0
H977 H 0.69576 0.17663 0.19104 0.0
H978 H 0.69418 0.19248 0.0896 0.0
H979 H 0.61348 0.1772 0.16434 0.0
H980 H 0.46839 0.19236 0.11738 0.0
H981 H 0.55111 0.19275 0.14393 0.0
H982 H 0.63058 0.17726 0.06902 0.0
H983 H 0.54815 0.17704 0.0424 0.0
C984 C 0.74135 0.18858 0.12697 0.0
C985 C 0.74268 0.18412 0.15569 0.0
C986 C 0.69413 0.18894 0.11169 0.0
C987 C 0.64734 0.1849 0.12489 0.0
C988 C 0.64874 0.18053 0.1537 0.0
C989 C 0.69593 0.18013 0.16892 0.0
C990 C 0.50358 0.18908 0.1066 0.0
C991 C 0.50186 0.18466 0.07785 0.0
C992 C 0.55086 0.18924 0.12182 0.0
C993 C 0.59734 0.18503 0.10856 0.0
C994 C 0.59557 0.18071 0.07971 0.0
C995 C 0.54831 0.18051 0.06453 0.0
H996 H 0.29061 0.55785 0.11841 0.0
H997 H 0.20253 0.56714 0.04126 0.0
H998 H 0.20961 0.55742 0.14649 0.0
H999 H 0.12186 0.56702 0.06937 0.0
H1000 H 0.98132 0.55436 0.12285 0.0
H1001 H 0.06248 0.55302 0.09508 0.0
H1002 H 0.14473 0.57237 0.16431 0.0
H1003 H 0.06396 0.57341 0.19227 0.0
C1004 C 0.25394 0.55978 0.10747 0.0
C1005 C 0.25289 0.56254 0.07767 0.0
C1006 C 0.20758 0.55961 0.12357 0.0
C1007 C 0.15923 0.56222 0.1102 0.0
C1008 C 0.15827 0.5648 0.08028 0.0
C1009 C 0.20457 0.56494 0.0642 0.0
C1010 C 0.0168 0.55829 0.13212 0.0
C1011 C 0.01631 0.564 0.15969 0.0
C1012 C 0.06325 0.55758 0.11618 0.0
C1013 C 0.11013 0.56259 0.12746 0.0
C1014 C 0.10954 0.56824 0.15515 0.0
C1015 C 0.06316 0.56892 0.17109 0.0
H1016 H 0.69248 0.55591 0.54316 0.0
H1017 H 0.77258 0.56343 0.6238 0.0
H1018 H 0.60909 0.55548 0.56867 0.0
H1019 H 0.68906 0.56367 0.64926 0.0
H1020 H 0.53666 0.55221 0.69181 0.0
H1021 H 0.6197 0.55095 0.666 0.0
H1022 H 0.54811 0.56891 0.59129 0.0
H1023 H 0.46467 0.56952 0.61671 0.0
C1024 C 0.69212 0.55756 0.56635 0.0
C1025 C 0.73891 0.5597 0.58153 0.0
C1026 C 0.64428 0.5574 0.58099 0.0
C1027 C 0.64207 0.5596 0.61108 0.0
C1028 C 0.68916 0.56172 0.6262 0.0
C1029 C 0.73707 0.56167 0.61161 0.0
C1030 C 0.53876 0.55581 0.6698 0.0
C1031 C 0.4943 0.56094 0.65622 0.0
C1032 C 0.58644 0.55518 0.65505 0.0
C1033 C 0.59089 0.55987 0.62653 0.0
C1034 C 0.54612 0.56499 0.613 0.0
C1035 C 0.49828 0.56542 0.62762 0.0
H1036 H 0.05357 0.17681 0.54063 0.0
H1037 H 0.97419 0.19183 0.61605 0.0
H1038 H 0.13601 0.17675 0.56726 0.0
H1039 H 0.05689 0.19196 0.64259 0.0
H1040 H 0.20057 0.17556 0.68958 0.0
H1041 H 0.11859 0.17625 0.66264 0.0
H1042 H 0.20016 0.19165 0.58832 0.0
H1043 H 0.28251 0.19079 0.6152 0.0
C1044 C 0.05382 0.18016 0.56286 0.0
C1045 C 0.00747 0.18429 0.57631 0.0
C1046 C 0.10109 0.1802 0.57805 0.0
C1047 C 0.10294 0.18435 0.60702 0.0
C1048 C 0.05657 0.18857 0.62039 0.0
C1049 C 0.0093 0.18856 0.60517 0.0
C1050 C 0.201 0.1791 0.66749 0.0
C1051 C 0.24791 0.18311 0.65446 0.0
C1052 C 0.15399 0.17957 0.65213 0.0
C1053 C 0.15289 0.18404 0.62339 0.0
C1054 C 0.19987 0.18805 0.61035 0.0
C1055 C 0.24694 0.18761 0.62576 0.0
H1056 H 0.03122 0.20787 0.23361 0.0
H1057 H 0.89675 0.22889 0.20259 0.0
H1058 H 0.06916 0.22775 0.25196 0.0
H1059 H 0.9352 0.24881 0.22021 0.0
H1060 H 0.9891 0.27972 0.2825 0.0
H1061 H 0.95334 0.25929 0.26584 0.0
H1062 H 0.10708 0.24779 0.23672 0.0
H1063 H 0.14291 0.26802 0.25406 0.0
C1064 C 0.01019 0.21678 0.2303 0.0
C1065 C 0.96103 0.21684 0.21669 0.0
C1066 C 0.03192 0.22817 0.2408 0.0
C1067 C 0.00499 0.23987 0.23782 0.0
C1068 C 0.95647 0.23994 0.22343 0.0
C1069 C 0.93469 0.22855 0.21304 0.0
C1070 C 0.0153 0.27274 0.27288 0.0
C1071 C 0.06875 0.27546 0.26957 0.0
C1072 C 0.99476 0.2611 0.26307 0.0
C1073 C 0.02726 0.25195 0.24965 0.0
C1074 C 0.08102 0.25455 0.24715 0.0
C1075 C 0.10154 0.26617 0.25703 0.0
H1076 H 0.11046 0.97912 0.24974 0.0
H1077 H 0.25965 0.96743 0.28493 0.0
H1078 H 0.1491 -0.00087 0.233 0.0
H1079 H 0.29815 0.98767 0.26899 0.0
H1080 H 0.36416 0.01785 0.20813 0.0
H1081 H 0.32336 0.99803 0.22463 0.0
H1082 H 0.18447 0.01917 0.24869 0.0
H1083 H 0.22482 0.03893 0.2313 0.0
C1084 C 0.15139 0.98093 0.25429 0.0
C1085 C 0.1821 0.97171 0.26859 0.0
C1086 C 0.17352 0.99242 0.24477 0.0
C1087 C 0.22683 0.99499 0.24946 0.0
C1088 C 0.25719 0.9859 0.26451 0.0
C1089 C 0.23508 0.97435 0.27391 0.0
C1090 C 0.3247 0.01823 0.21665 0.0
C1091 C 0.29762 0.02992 0.21838 0.0
C1092 C 0.30151 0.00689 0.22641 0.0
C1093 C 0.25083 0.00701 0.2383 0.0
C1094 C 0.22336 0.0187 0.23943 0.0
C1095 C 0.24647 0.03003 0.22949 0.0
H1096 H 0.88599 0.01699 0.02312 0.0
H1097 H 0.03766 0.03465 0.01269 0.0
H1098 H 0.92224 0.99644 0.00785 0.0
H1099 H 0.07357 0.01428 -0.00377 0.0
H1100 H 0.13358 0.97333 -0.00538 0.0
H1101 H 0.0978 0.9936 0.01138 0.0
H1102 H 0.95334 0.98558 0.96602 0.0
H1103 H 0.98872 0.96495 0.9503 0.0
C1104 C 0.92715 0.01645 0.01761 0.0
C1105 C 0.95907 0.02739 0.0192 0.0
C1106 C 0.94783 0.00471 0.00854 0.0
C1107 C 0.0008 0.00368 0.00055 0.0
C1108 C 0.03281 0.01464 0.00258 0.0
C1109 C 0.01223 0.02634 0.01196 0.0
C1110 C 0.09426 0.97593 0.98808 0.0
C1111 C 0.06394 0.96757 0.97111 0.0
C1112 C 0.07377 0.98759 -0.0024 0.0
C1113 C 0.0226 0.99127 0.99011 0.0
C1114 C 0.99256 0.98297 0.97267 0.0
C1115 C 0.01293 0.97121 0.9634 0.0
H1116 H 0.35443 0.22981 0.03106 0.0
H1117 H 0.21202 0.21016 0.00722 0.0
H1118 H 0.31697 0.25006 0.0148 0.0
H1119 H 0.17489 0.23038 0.99019 0.0
H1120 H 0.10894 0.27147 0.98906 0.0
H1121 H 0.14323 0.25101 0.00606 0.0
H1122 H 0.29434 0.26036 0.96967 0.0
H1123 H 0.26028 0.28101 0.95336 0.0
C1124 C 0.31496 0.22984 0.02249 0.0
C1125 C 0.28614 0.21841 0.0204 0.0
C1126 C 0.29369 0.24142 0.01288 0.0
C1127 C 0.24319 0.24182 0.00082 0.0
C1128 C 0.21377 0.23043 -0.00048 0.0
C1129 C 0.23502 0.21884 0.00926 0.0
C1130 C 0.14937 0.26911 0.98448 0.0
C1131 C 0.182 0.27785 0.96994 0.0
C1132 C 0.16899 0.25736 -0.00584 0.0
C1133 C 0.22164 0.25408 0.98946 0.0
C1134 C 0.25385 0.2627 0.97416 0.0
C1135 C 0.23426 0.27447 0.96456 0.0
H1136 H 0.01751 0.71486 0.70057 0.0
H1137 H 0.86461 0.72493 0.73332 0.0
H1138 H 0.05124 0.73561 0.71663 0.0
H1139 H 0.89844 0.74532 0.7504 0.0
H1140 H 0.96381 0.78583 0.75481 0.0
H1141 H 0.9293 0.76565 0.73627 0.0
H1142 H 0.07335 0.7466 0.76011 0.0
H1143 H 0.10846 0.76693 0.77751 0.0
C1144 C 0.99111 0.72153 0.71107 0.0
C1145 C 0.93846 0.71829 0.71563 0.0
C1146 C 0.01049 0.73336 0.72057 0.0
C1147 C 0.97769 0.74214 0.73506 0.0
C1148 C 0.92475 0.73893 0.73901 0.0
C1149 C 0.90535 0.72719 0.72929 0.0
C1150 C 0.98785 0.77729 0.75633 0.0
C1151 C 0.03875 0.77793 0.76765 0.0
C1152 C 0.96809 0.76571 0.74572 0.0
C1153 C 0.99861 0.75447 0.7465 0.0
C1154 C 0.04913 0.7551 0.75855 0.0
C1155 C 0.06906 0.76671 0.76886 0.0
H1156 H 0.6237 0.97294 0.74298 0.0
H1157 H 0.77123 0.96574 0.78563 0.0
H1158 H 0.65621 0.99347 0.7257 0.0
H1159 H 0.80334 0.9866 0.76934 0.0
H1160 H 0.86525 0.01801 0.71062 0.0
H1161 H 0.83145 0.99735 0.72672 0.0
H1162 H 0.67913 0.01444 0.73996 0.0
H1163 H 0.71264 0.03495 0.72272 0.0
C1164 C 0.66289 0.97585 0.74905 0.0
C1165 C 0.69496 0.96773 0.76566 0.0
C1166 C 0.6815 0.98766 0.73922 0.0
C1167 C 0.73252 0.99172 0.746 0.0
C1168 C 0.7642 0.98369 0.7632 0.0
C1169 C 0.74569 0.97179 0.77281 0.0
C1170 C 0.82439 0.0173 0.71666 0.0
C1171 C 0.79152 0.02807 0.71532 0.0
C1172 C 0.80511 0.00549 0.72621 0.0
C1173 C 0.75263 0.00421 0.73496 0.0
C1174 C 0.71957 0.01499 0.73309 0.0
C1175 C 0.73876 0.02677 0.72324 0.0
H1176 H 0.64999 0.76691 0.94102 0.0
H1177 H 0.77466 0.78689 0.98526 0.0
H1178 H 0.68568 0.74644 0.95729 0.0
H1179 H 0.80978 0.76644 0.00207 0.0
H1180 H 0.88425 0.72644 0.00419 0.0
H1181 H 0.85188 0.74691 0.98617 0.0
H1182 H 0.69313 0.73462 0.0026 0.0
H1183 H 0.72563 0.71397 0.02007 0.0
C1184 C 0.68535 0.76692 0.95397 0.0
C1185 C 0.70955 0.7785 0.96186 0.0
C1186 C 0.70546 0.7552 0.96357 0.0
C1187 C 0.75019 0.75481 0.9813 0.0
C1188 C 0.77545 0.76639 0.9883 0.0
C1189 C 0.75535 0.77811 0.97866 0.0
C1190 C 0.84243 0.72813 0.00414 0.0
C1191 C 0.80743 0.7186 0.01354 0.0
C1192 C 0.8239 0.73989 -0.00613 0.0
C1193 C 0.76992 0.74239 0.99278 0.0
C1194 C 0.73493 0.73292 0.00269 0.0
C1195 C 0.75351 0.72114 0.01297 0.0
H1196 H 0.21004 0.53563 0.72136 0.0
H1197 H 0.35967 0.51771 0.70555 0.0
H1198 H 0.17579 0.51536 0.73952 0.0
H1199 H 0.32498 0.49728 0.72262 0.0
H1200 H 0.26624 0.46629 0.78378 0.0
H1201 H 0.29917 0.48692 0.76644 0.0
H1202 H 0.14978 0.49451 0.72588 0.0
H1203 H 0.11657 0.47424 0.74416 0.0
C1204 C 0.23526 0.52728 0.72121 0.0
C1205 C 0.28747 0.52824 0.71203 0.0
C1206 C 0.21566 0.51564 0.73161 0.0
C1207 C 0.24772 0.50468 0.73278 0.0
C1208 C 0.29952 0.50558 0.72266 0.0
C1209 C 0.31924 0.51725 0.71253 0.0
C1210 C 0.24039 0.47247 0.77146 0.0
C1211 C 0.18885 0.46868 0.76541 0.0
C1212 C 0.25935 0.48422 0.76124 0.0
C1213 C 0.22726 0.49236 0.74455 0.0
C1214 C 0.17543 0.4886 0.73897 0.0
C1215 C 0.15641 0.47694 0.74939 0.0
H1216 H 0.96143 0.4559 0.48886 0.0
H1217 H 0.09561 0.47629 0.45542 0.0
H1218 H 0.92678 0.47592 0.5085 0.0
H1219 H 0.06049 0.49633 0.47437 0.0
H1220 H 0.01407 0.52743 0.53766 0.0
H1221 H 0.0465 0.50671 0.52069 0.0
H1222 H 0.88999 0.49626 0.49417 0.0
H1223 H 0.85755 0.51678 0.51179 0.0
C1224 C 0.98306 0.4647 0.4853 0.0
C1225 C 0.0312 0.46454 0.47062 0.0
C1226 C 0.96326 0.47616 0.49657 0.0
C1227 C 0.99116 0.48771 0.4933 0.0
C1228 C 0.03859 0.48757 0.47785 0.0
C1229 C 0.05842 0.47611 0.46669 0.0
C1230 C 0.98656 0.52062 0.52861 0.0
C1231 C 0.93334 0.52373 0.526 0.0
C1232 C 0.00516 0.5088 0.5186 0.0
C1233 C 0.97091 0.49989 0.50574 0.0
C1234 C 0.91737 0.50285 0.50413 0.0
C1235 C 0.8988 0.51464 0.51417 0.0
H1236 H 0.38377 0.7284 0.51344 0.0
H1237 H 0.22467 0.71708 0.53195 0.0
H1238 H 0.35306 0.74892 0.4954 0.0
H1239 H 0.19375 0.73795 0.515 0.0
H1240 H 0.15048 0.76953 0.45161 0.0
H1241 H 0.18293 0.74923 0.47067 0.0
H1242 H 0.31635 0.7689 0.50744 0.0
H1243 H 0.28488 0.78906 0.48723 0.0
C1244 C 0.34221 0.73041 0.51422 0.0
C1245 C 0.30657 0.72111 0.52402 0.0
C1246 C 0.32457 0.74223 0.50394 0.0
C1247 C 0.27084 0.7451 0.50347 0.0
C1248 C 0.23533 0.73596 0.51443 0.0
C1249 C 0.25301 0.72407 0.52448 0.0
C1250 C 0.18711 0.76946 0.46343 0.0
C1251 C 0.21533 0.78085 0.4678 0.0
C1252 C 0.2054 0.75786 0.4747 0.0
C1253 C 0.252 0.75742 0.49093 0.0
C1254 C 0.28065 0.76882 0.4948 0.0
C1255 C 0.26266 0.78039 0.4832 0.0
H1256 H 0.77198 0.46764 0.27959 0.0
H1257 H 0.61608 0.48149 0.26151 0.0
H1258 H 0.80818 0.48813 0.26359 0.0
H1259 H 0.65212 0.50177 0.24468 0.0
H1260 H 0.7324 0.54104 0.24246 0.0
H1261 H 0.69486 0.52097 0.2599 0.0
H1262 H 0.82117 0.49995 0.21953 0.0
H1263 H 0.85946 0.52007 0.20294 0.0
C1264 C 0.74548 0.47509 0.27232 0.0
C1265 C 0.69125 0.47297 0.27182 0.0
C1266 C 0.76619 0.48678 0.26287 0.0
C1267 C 0.73311 0.49658 0.25257 0.0
C1268 C 0.67875 0.49452 0.25272 0.0
C1269 C 0.65808 0.48286 0.2623 0.0
C1270 C 0.7518 0.53211 0.23708 0.0
C1271 C 0.79885 0.53211 0.22134 0.0
C1272 C 0.73028 0.5206 0.24705 0.0
C1273 C 0.7552 0.50883 0.24135 0.0
C1274 C 0.80152 0.50885 0.22487 0.0
C1275 C 0.82318 0.52036 0.21507 0.0
H1276 H 0.88775 0.22603 0.49517 0.0
H1277 H 0.73718 0.21793 0.53356 0.0
H1278 H 0.85505 0.24649 0.47744 0.0
H1279 H 0.70476 0.23865 0.51665 0.0
H1280 H 0.64491 0.26929 0.45562 0.0
H1281 H 0.68038 0.24889 0.47222 0.0
H1282 H 0.82759 0.26742 0.49169 0.0
H1283 H 0.79243 0.28775 0.47415 0.0
C1284 C 0.84783 0.22872 0.50022 0.0
C1285 C 0.81495 0.22036 0.51571 0.0
C1286 C 0.82912 0.24048 0.49011 0.0
C1287 C 0.77714 0.24421 0.4954 0.0
C1288 C 0.7447 0.23598 0.51166 0.0
C1289 C 0.76337 0.22416 0.52162 0.0
C1290 C 0.68509 0.26896 0.46308 0.0
C1291 C 0.71594 0.2801 0.46356 0.0
C1292 C 0.70525 0.2573 0.47293 0.0
C1293 C 0.75663 0.25653 0.4837 0.0
C1294 C 0.78799 0.26763 0.48335 0.0
C1295 C 0.76789 0.27929 0.47329 0.0
H1296 H 0.46548 0.28676 0.75228 0.0
H1297 H 0.60532 0.26744 0.78151 0.0
H1298 H 0.43178 0.26653 0.73341 0.0
H1299 H 0.57104 0.24713 0.7636 0.0
H1300 H 0.52179 0.2154 0.70237 0.0
H1301 H 0.55409 0.23619 0.719 0.0
H1302 H 0.39821 0.24621 0.74752 0.0
H1303 H 0.3659 0.2257 0.73002 0.0
C1304 C 0.48858 0.27814 0.75512 0.0
C1305 C 0.53798 0.27867 0.76838 0.0
C1306 C 0.4693 0.26653 0.74432 0.0
C1307 C 0.49887 0.25519 0.74674 0.0
C1308 C 0.5477 0.25571 0.76076 0.0
C1309 C 0.56711 0.26732 0.77134 0.0
C1310 C 0.49443 0.22213 0.71184 0.0
C1311 C 0.44138 0.21893 0.71487 0.0
C1312 C 0.51295 0.23399 0.72166 0.0
C1313 C 0.47884 0.24285 0.73488 0.0
C1314 C 0.42553 0.23972 0.73719 0.0
C1315 C 0.40701 0.22792 0.72723 0.0
H1316 H 0.35932 0.01947 0.49799 0.0
H1317 H 0.50789 0.02775 0.53849 0.0
H1318 H 0.3933 -0.00092 0.48064 0.0
H1319 H 0.54159 0.00709 0.52196 0.0
H1320 H 0.60448 0.97661 0.46112 0.0
H1321 H 0.5682 0.9969 0.47786 0.0
H1322 H 0.4205 0.97819 0.49517 0.0
H1323 H 0.45649 0.95798 0.47749 0.0
C1324 C 0.39906 0.01683 0.50358 0.0
C1325 C 0.43101 0.02522 0.51957 0.0
C1326 C 0.41851 0.00511 0.4937 0.0
C1327 C 0.47031 0.00145 0.49972 0.0
C1328 C 0.50182 0.00971 0.51643 0.0
C1329 C 0.48241 0.02149 0.52617 0.0
C1330 C 0.56406 0.97687 0.46818 0.0
C1331 C 0.53326 0.96572 0.46795 0.0
C1332 C 0.54342 0.98848 0.47809 0.0
C1333 C 0.4916 0.98917 0.48822 0.0
C1334 C 0.46042 0.97804 0.4873 0.0
C1335 C 0.481 0.96645 0.47718 0.0
H1336 H 0.63953 0.76525 0.2753 0.0
H1337 H 0.48159 0.78 0.27389 0.0
H1338 H 0.60818 0.74461 0.25773 0.0
H1339 H 0.44994 0.75922 0.25692 0.0
H1340 H 0.4209 0.7268 0.19327 0.0
H1341 H 0.45516 0.74692 0.21223 0.0
H1342 H 0.55654 0.72587 0.27021 0.0
H1343 H 0.52295 0.70571 0.25075 0.0
C1344 C 0.59794 0.76401 0.27173 0.0
C1345 C 0.563 0.77426 0.27586 0.0
C1346 C 0.57998 0.75216 0.2617 0.0
C1347 C 0.52666 0.75031 0.25559 0.0
C1348 C 0.49143 0.76042 0.26085 0.0
C1349 C 0.50943 0.77228 0.27087 0.0
C1350 C 0.45102 0.72647 0.20978 0.0
C1351 C 0.46928 0.71468 0.22052 0.0
C1352 C 0.4702 0.738 0.2209 0.0
C1353 C 0.508 0.73801 0.24304 0.0
C1354 C 0.52758 0.7262 0.25308 0.0
C1355 C 0.50841 0.71465 0.24191 0.0
H1356 H 0.48348 0.46656 0.94937 0.0
H1357 H 0.63088 0.47598 0.98987 0.0
H1358 H 0.44822 0.48732 0.96428 0.0
H1359 H 0.59533 0.49635 0.00591 0.0
H1360 H 0.53336 0.53705 0.008 0.0
H1361 H 0.56891 0.51676 0.99092 0.0
H1362 H 0.41918 0.49858 0.00581 0.0
H1363 H 0.38316 0.51908 0.02159 0.0
C1364 C 0.50831 0.47308 0.9614 0.0
C1365 C 0.55994 0.46967 0.96835 0.0
C1366 C 0.48802 0.48493 0.97023 0.0
C1367 C 0.51878 0.49354 0.98648 0.0
C1368 C 0.57066 0.49011 0.99306 0.0
C1369 C 0.59104 0.47838 0.98395 0.0
C1370 C 0.50822 0.52868 0.00784 0.0
C1371 C 0.45556 0.52963 0.0162 0.0
C1372 C 0.52859 0.51702 -0.00191 0.0
C1373 C 0.49695 0.50598 -0.00314 0.0
C1374 C 0.44447 0.50691 0.00587 0.0
C1375 C 0.42393 0.51863 0.01525 0.0
H1376 H 0.0462 0.31608 0.18789 0.0
H1377 H 0.20369 0.33081 0.19501 0.0
H1378 H 0.04878 0.31925 0.1357 0.0
H1379 H 0.20583 0.33436 0.14267 0.0
H1380 H 0.21281 0.31846 0.04845 0.0
H1381 H 0.21082 0.32044 0.10101 0.0
H1382 H 0.05179 0.33444 0.09649 0.0
H1383 H 0.05334 0.33207 0.04386 0.0
C1384 C 0.08105 0.32022 0.17832 0.0
C1385 C 0.12494 0.32308 0.19541 0.0
C1386 C 0.0824 0.32214 0.14842 0.0
C1387 C 0.1276 0.32702 0.13501 0.0
C1388 C 0.17072 0.33041 0.15233 0.0
C1389 C 0.16943 0.32843 0.18227 0.0
C1390 C 0.17769 0.32213 0.05867 0.0
C1391 C 0.13301 0.32496 0.04218 0.0
C1392 C 0.17665 0.32335 0.08878 0.0
C1393 C 0.13098 0.32751 0.10295 0.0
C1394 C 0.08724 0.331 0.08623 0.0
C1395 C 0.08819 0.3297 0.05612 0.0
H1396 H 0.20536 0.93002 0.04832 0.0
H1397 H 0.04946 0.91413 0.04427 0.0
H1398 H 0.20381 0.92847 0.10085 0.0
H1399 H 0.04862 0.91198 0.09696 0.0
H1400 H 0.03841 0.92912 0.189 0.0
H1401 H 0.04104 0.9261 0.13676 0.0
H1402 H 0.20425 0.91537 0.14252 0.0
H1403 H 0.20197 0.91902 0.19473 0.0
C1404 C 0.17117 0.92593 0.05869 0.0
C1405 C 0.12732 0.92232 0.04233 0.0
C1406 C 0.17038 0.92494 0.08883 0.0
C1407 C 0.12594 0.92016 0.10321 0.0
C1408 C 0.08306 0.91595 0.08662 0.0
C1409 C 0.08361 0.9171 0.05646 0.0
C1410 C 0.07466 0.92599 0.1791 0.0
C1411 C 0.12014 0.92445 0.19577 0.0
C1412 C 0.07613 0.92415 0.14916 0.0
C1413 C 0.12299 0.92057 0.13535 0.0
C1414 C 0.16781 0.91839 0.15236 0.0
C1415 C 0.16649 0.92041 0.18226 0.0
H1416 H 0.96703 0.66897 0.79408 0.0
H1417 H 0.79937 0.67411 0.79601 0.0
H1418 H 0.96783 0.66657 0.8467 0.0
H1419 H 0.80021 0.67233 0.84851 0.0
H1420 H 0.95503 0.68261 0.93965 0.0
H1421 H 0.95809 0.6802 0.88723 0.0
H1422 H 0.81199 0.65926 0.88962 0.0
H1423 H 0.80791 0.66226 0.94199 0.0
C1424 C 0.93035 0.66953 0.80579 0.0
C1425 C 0.88319 0.6718 0.79108 0.0
C1426 C 0.9308 0.66823 0.83592 0.0
C1427 C 0.88416 0.66936 0.85192 0.0
C1428 C 0.83679 0.6712 0.83695 0.0
C1429 C 0.83629 0.67232 0.80682 0.0
C1430 C 0.92391 0.67738 0.92896 0.0
C1431 C 0.88096 0.67275 0.94474 0.0
C1432 C 0.92579 0.6759 0.89891 0.0
C1433 C 0.88507 0.6696 0.88411 0.0
C1434 C 0.84343 0.6644 0.90023 0.0
C1435 C 0.84119 0.66605 0.93023 0.0
H1436 H 0.78267 0.06641 0.79944 0.0
H1437 H 0.94099 0.08026 0.78955 0.0
H1438 H 0.79052 0.06823 0.85184 0.0
H1439 H 0.94838 0.08252 0.84205 0.0
H1440 H 0.96419 0.0657 0.9343 0.0
H1441 H 0.95616 0.06798 0.882 0.0
H1442 H 0.79856 0.08233 0.89261 0.0
H1443 H 0.80614 0.07961 0.945 0.0
C1444 C 0.81883 0.07007 0.80849 0.0
C1445 C 0.8614 0.07307 0.79052 0.0
C1446 C 0.82323 0.07121 0.83852 0.0
C1447 C 0.87019 0.07546 0.85115 0.0
C1448 C 0.912 0.079 0.83301 0.0
C1449 C 0.9077 0.07777 0.80297 0.0
C1450 C 0.92804 0.06946 0.92546 0.0
C1451 C 0.88561 0.07236 0.94362 0.0
C1452 C 0.92353 0.07086 0.89549 0.0
C1453 C 0.87661 0.07529 0.88311 0.0
C1454 C 0.83491 0.07869 0.90145 0.0
C1455 C 0.8393 0.07719 0.93143 0.0
H1456 H 0.04002 0.8287 0.6899 0.0
H1457 H 0.19916 0.8147 0.69057 0.0
H1458 H 0.04456 0.83132 0.63738 0.0
H1459 H 0.20334 0.81704 0.63807 0.0
H1460 H 0.20893 0.83117 0.54591 0.0
H1461 H 0.20385 0.8326 0.59866 0.0
H1462 H 0.04761 0.81677 0.59614 0.0
H1463 H 0.05226 0.81562 0.54346 0.0
C1464 C 0.07603 0.82624 0.67882 0.0
C1465 C 0.11915 0.82142 0.69422 0.0
C1466 C 0.07854 0.8277 0.64877 0.0
C1467 C 0.12421 0.82433 0.6336 0.0
C1468 C 0.16783 0.81986 0.64918 0.0
C1469 C 0.16534 0.81844 0.67922 0.0
C1470 C 0.1733 0.82815 0.55665 0.0
C1471 C 0.13109 0.82322 0.54068 0.0
C1472 C 0.17051 0.82891 0.58682 0.0
C1473 C 0.12547 0.82473 0.60153 0.0
C1474 C 0.08261 0.8202 0.58541 0.0
C1475 C 0.08538 0.81947 0.55526 0.0
H1476 H 0.22314 0.42173 0.69063 0.0
H1477 H 0.05432 0.41954 0.69069 0.0
H1478 H 0.22362 0.41926 0.63802 0.0
H1479 H 0.05456 0.41751 0.63817 0.0
H1480 H 0.06832 0.40768 0.54431 0.0
H1481 H 0.07631 0.40481 0.59664 0.0
H1482 H 0.20022 0.43304 0.5985 0.0
H1483 H 0.19337 0.43554 0.5462 0.0
C1484 C 0.18619 0.4206 0.6794 0.0
C1485 C 0.13867 0.42094 0.69463 0.0
C1486 C 0.18644 0.41926 0.64929 0.0
C1487 C 0.13912 0.41833 0.63388 0.0
C1488 C 0.09174 0.41806 0.64937 0.0
C1489 C 0.09155 0.41931 0.67946 0.0
C1490 C 0.09765 0.41314 0.55593 0.0
C1491 C 0.12994 0.42191 0.54133 0.0
C1492 C 0.10211 0.41153 0.58587 0.0
C1493 C 0.13866 0.41875 0.60176 0.0
C1494 C 0.17217 0.42719 0.58689 0.0
C1495 C 0.16799 0.42871 0.55695 0.0
H1496 H 0.79927 0.18893 0.29513 0.0
H1497 H 0.92307 0.16073 0.29234 0.0
H1498 H 0.79462 0.1867 0.34765 0.0
H1499 H 0.91745 0.15821 0.34483 0.0
H1500 H 0.77503 0.17469 0.44047 0.0
H1501 H 0.77245 0.17268 0.38774 0.0
H1502 H 0.9415 0.17147 0.38562 0.0
H1503 H 0.94393 0.17313 0.43819 0.0
C1504 C 0.82488 0.1821 0.30573 0.0
C1505 C 0.86189 0.1751 0.28978 0.0
C1506 C 0.82197 0.18075 0.33578 0.0
C1507 C 0.85586 0.17232 0.3504 0.0
C1508 C 0.8914 0.16493 0.33422 0.0
C1509 C 0.89448 0.16634 0.30419 0.0
C1510 C 0.81154 0.17381 0.4287 0.0
C1511 C 0.85969 0.17415 0.44334 0.0
C1512 C 0.81008 0.17273 0.39854 0.0
C1513 C 0.85676 0.17199 0.38251 0.0
C1514 C 0.90481 0.17185 0.39734 0.0
C1515 C 0.90624 0.17289 0.42746 0.0
H1516 H 0.97731 0.56873 0.44808 0.0
H1517 H 0.80925 0.57276 0.44355 0.0
H1518 H 0.98305 0.57154 0.39564 0.0
H1519 H 0.81474 0.57521 0.39116 0.0
H1520 H 0.8406 0.5875 0.29934 0.0
H1521 H 0.8437 0.58882 0.3521 0.0
H1522 H 0.96041 0.55881 0.35373 0.0
H1523 H 0.95836 0.55777 0.30098 0.0
C1524 C 0.94165 0.57029 0.43587 0.0
C1525 C 0.8928 0.57045 0.4498 0.0
C1526 C 0.94491 0.57184 0.40586 0.0
C1527 C 0.89935 0.57352 0.38922 0.0
C1528 C 0.85066 0.5741 0.40336 0.0
C1529 C 0.84744 0.5726 0.43337 0.0
C1530 C 0.86738 0.58131 0.311 0.0
C1531 C 0.89897 0.57246 0.29615 0.0
C1532 C 0.86897 0.58202 0.3412 0.0
C1533 C 0.90196 0.57385 0.35712 0.0
C1534 C 0.935 0.56535 0.34212 0.0
C1535 C 0.93362 0.56469 0.3119 0.0
H1536 H 0.55375 0.32088 0.54495 0.0
H1537 H 0.72118 0.32649 0.54733 0.0
H1538 H 0.55059 0.32201 0.59765 0.0
H1539 H 0.71792 0.32804 0.60007 0.0
H1540 H 0.69818 0.31097 0.69167 0.0
H1541 H 0.70368 0.31324 0.63924 0.0
H1542 H 0.56099 0.33552 0.63954 0.0
H1543 H 0.55471 0.33288 0.692 0.0
C1544 C 0.58974 0.32258 0.55675 0.0
C1545 C 0.63775 0.32349 0.54213 0.0
C1546 C 0.58792 0.32331 0.58694 0.0
C1547 C 0.63407 0.32505 0.60307 0.0
C1548 C 0.68182 0.32647 0.58829 0.0
C1549 C 0.68366 0.32566 0.5581 0.0
C1550 C 0.66824 0.31644 0.68055 0.0
C1551 C 0.62582 0.32167 0.69582 0.0
C1552 C 0.67156 0.31782 0.65052 0.0
C1553 C 0.63268 0.32454 0.6352 0.0
C1554 C 0.59112 0.33013 0.65067 0.0
C1555 C 0.58765 0.32867 0.6807 0.0
H1556 H 0.5372 0.92556 0.55341 0.0
H1557 H 0.69847 0.91445 0.54084 0.0
H1558 H 0.54721 0.92294 0.60545 0.0
H1559 H 0.70823 0.91145 0.59312 0.0
H1560 H 0.71935 0.92799 0.68688 0.0
H1561 H 0.71264 0.9256 0.63449 0.0
H1562 H 0.56035 0.9081 0.64458 0.0
H1563 H 0.56646 0.91089 0.69696 0.0
C1564 C 0.57457 0.92234 0.56177 0.0
C1565 C 0.61719 0.92032 0.54316 0.0
C1566 C 0.58022 0.92073 0.59161 0.0
C1567 C 0.62857 0.917 0.60345 0.0
C1568 C 0.67068 0.91449 0.58467 0.0
C1569 C 0.66505 0.91615 0.55477 0.0
C1570 C 0.68481 0.92346 0.6779 0.0
C1571 C 0.64312 0.91978 0.69588 0.0
C1572 C 0.68107 0.92201 0.64789 0.0
C1573 C 0.63571 0.91677 0.63535 0.0
C1574 C 0.59536 0.9124 0.65356 0.0
C1575 C 0.59894 0.91394 0.68354 0.0
H1576 H 0.42443 0.68914 0.43626 0.0
H1577 H 0.28383 0.66636 0.44379 0.0
H1578 H 0.41675 0.68856 0.38345 0.0
H1579 H 0.27722 0.66549 0.39065 0.0
H1580 H 0.35537 0.65734 0.29356 0.0
H1581 H 0.35134 0.65666 0.34672 0.0
H1582 H 0.33171 0.69774 0.34894 0.0
H1583 H 0.33436 0.69846 0.29598 0.0
C1584 C 0.39232 0.68387 0.4266 0.0
C1585 C 0.35468 0.6778 0.44398 0.0
C1586 C 0.38783 0.68361 0.3965 0.0
C1587 C 0.34628 0.67705 0.38332 0.0
C1588 C 0.30947 0.67062 0.40055 0.0
C1589 C 0.31328 0.67112 0.43078 0.0
C1590 C 0.34912 0.66617 0.30543 0.0
C1591 C 0.34534 0.67796 0.29078 0.0
C1592 C 0.34674 0.66577 0.33569 0.0
C1593 C 0.34154 0.67716 0.35157 0.0
C1594 C 0.33587 0.68886 0.33694 0.0
C1595 C 0.3372 0.68925 0.30674 0.0
H1596 H 0.30169 0.07048 0.44024 0.0
H1597 H 0.47041 0.072 0.44512 0.0
H1598 H 0.30623 0.07241 0.38774 0.0
H1599 H 0.47501 0.07429 0.3925 0.0
H1600 H 0.45835 0.05869 0.29868 0.0
H1601 H 0.45946 0.06037 0.35137 0.0
H1602 H 0.32803 0.08644 0.34796 0.0
H1603 H 0.32604 0.08445 0.29529 0.0
C1604 C 0.33972 0.07143 0.4301 0.0
C1605 C 0.3857 0.07099 0.44669 0.0
C1606 C 0.34234 0.07263 0.40002 0.0
C1607 C 0.39102 0.07346 0.38594 0.0
C1608 C 0.43697 0.07348 0.40269 0.0
C1609 C 0.43434 0.07224 0.4328 0.0
C1610 C 0.43008 0.06488 0.3092 0.0
C1611 C 0.3918 0.07134 0.29299 0.0
C1612 C 0.43091 0.06591 0.33936 0.0
C1613 C 0.39362 0.07348 0.35385 0.0
C1614 C 0.35671 0.08036 0.33745 0.0
C1615 C 0.35572 0.07927 0.30731 0.0
H1616 H 0.59553 0.79566 0.04766 0.0
H1617 H 0.62616 0.8364 0.04457 0.0
H1618 H 0.5981 0.79634 0.10064 0.0
H1619 H 0.62742 0.83708 0.09775 0.0
H1620 H 0.56125 0.83022 0.1944 0.0
H1621 H 0.55656 0.83097 0.14128 0.0
H1622 H 0.68004 0.80284 0.13593 0.0
H1623 H 0.68575 0.80228 0.18883 0.0
C1624 C 0.60201 0.80478 0.05833 0.0
C1625 C 0.61077 0.81597 0.04214 0.0
C1626 C 0.60375 0.80514 0.08853 0.0
C1627 C 0.61319 0.81674 0.10299 0.0
C1628 C 0.62001 0.82804 0.08691 0.0
C1629 C 0.61937 0.82763 0.05663 0.0
C1630 C 0.58767 0.8243 0.18181 0.0
C1631 C 0.62384 0.81619 0.19559 0.0
C1632 C 0.58502 0.82476 0.15157 0.0
C1633 C 0.61771 0.8169 0.13481 0.0
C1634 C 0.65424 0.80891 0.14856 0.0
C1635 C 0.65765 0.80865 0.17872 0.0
H1636 H 0.70337 0.42692 0.04815 0.0
H1637 H 0.53621 0.42084 0.04732 0.0
H1638 H 0.70315 0.42623 0.10083 0.0
H1639 H 0.5361 0.41956 0.10013 0.0
H1640 H 0.69464 0.41769 0.19591 0.0
H1641 H 0.69229 0.41401 0.14368 0.0
H1642 H 0.54516 0.4344 0.13861 0.0
H1643 H 0.5466 0.43755 0.19082 0.0
C1644 C 0.66674 0.42514 0.05927 0.0
C1645 C 0.61973 0.42406 0.04374 0.0
C1646 C 0.66661 0.42467 0.08949 0.0
C1647 C 0.61952 0.42294 0.10478 0.0
C1648 C 0.57289 0.42118 0.08906 0.0
C1649 C 0.57295 0.42182 0.05883 0.0
C1650 C 0.66163 0.42126 0.18358 0.0
C1651 C 0.62094 0.42796 0.1973 0.0
C1652 C 0.66035 0.41921 0.15367 0.0
C1653 C 0.61864 0.42395 0.13688 0.0
C1654 C 0.57743 0.43041 0.15086 0.0
C1655 C 0.57843 0.43232 0.18077 0.0
H1656 H 0.4695 0.17261 0.79445 0.0
H1657 H 0.30101 0.17602 0.79381 0.0
H1658 H 0.46835 0.17124 0.84729 0.0
H1659 H 0.29988 0.17504 0.84649 0.0
H1660 H 0.3089 0.16427 0.94058 0.0
H1661 H 0.31463 0.16164 0.88812 0.0
H1662 H 0.45171 0.18593 0.88661 0.0
H1663 H 0.44684 0.18822 0.93909 0.0
C1664 C 0.43224 0.17299 0.80562 0.0
C1665 C 0.38537 0.17448 0.79011 0.0
C1666 C 0.43159 0.17228 0.83584 0.0
C1667 C 0.38406 0.17311 0.85109 0.0
C1668 C 0.33709 0.1742 0.83542 0.0
C1669 C 0.33774 0.17484 0.80523 0.0
C1670 C 0.34049 0.16894 0.92901 0.0
C1671 C 0.37725 0.17651 0.9438 0.0
C1672 C 0.34366 0.16748 0.89899 0.0
C1673 C 0.38345 0.17363 0.88319 0.0
C1674 C 0.421 0.18092 0.89817 0.0
C1675 C 0.418 0.18232 0.92821 0.0
H1676 H 0.30208 0.58074 0.94264 0.0
H1677 H 0.46331 0.569 0.93327 0.0
H1678 H 0.29503 0.58313 0.89017 0.0
H1679 H 0.45589 0.57094 0.88085 0.0
H1680 H 0.43825 0.58205 0.78744 0.0
H1681 H 0.44504 0.58491 0.83988 0.0
H1682 H 0.29089 0.56846 0.85037 0.0
H1683 H 0.28358 0.56601 0.79815 0.0
C1684 C 0.33607 0.57874 0.92935 0.0
C1685 C 0.38309 0.57458 0.94193 0.0
C1686 C 0.33199 0.58005 0.89931 0.0
C1687 C 0.37474 0.57712 0.8813 0.0
C1688 C 0.42239 0.57344 0.89408 0.0
C1689 C 0.42656 0.57223 0.92411 0.0
C1690 C 0.40563 0.57922 0.801 0.0
C1691 C 0.36054 0.57374 0.78881 0.0
C1692 C 0.40959 0.58079 0.831 0.0
C1693 C 0.36862 0.57686 0.84933 0.0
C1694 C 0.32287 0.57177 0.83691 0.0
C1695 C 0.31881 0.57028 0.80697 0.0
loop_
_geom_bond_atom_site_label_1
_geom_bond_atom_site_label_2
_geom_bond_distance
_geom_bond_site_symmetry_2
_ccdc_geom_bond_type
In0 O1 2.294 . S
In0 O2 2.326 . S
In0 O6 2.266 . S
In0 O7 2.326 . S
In0 O8 2.266 . S
In0 O9 2.326 . S
In0 O11 2.294 . S
In0 O12 2.326 . S
O1 In0 2.294 . S
O1 C10 1.240 . S
O2 In0 2.326 . S
O2 C10 1.252 . S
C3 O6 1.252 . S
C3 O7 1.260 . S
C4 O11 1.240 . S
C4 O12 1.252 . S
C5 O8 1.252 . S
C5 O9 1.260 . S
O6 In0 2.266 . S
O6 C3 1.252 . S
O7 In0 2.326 . S
O7 C3 1.260 . S
O8 In0 2.266 . S
O8 C5 1.252 . S
O9 In0 2.326 . S
O9 C5 1.260 . S
C10 O1 1.240 . S
C10 O2 1.252 . S
O11 In0 2.294 . S
O11 C4 1.240 . S
O12 In0 2.326 . S
O12 C4 1.252 . S
In13 O14 2.294 . S
In13 O15 2.326 . S
In13 O19 2.266 . S
In13 O20 2.326 . S
In13 O21 2.266 . S
In13 O22 2.326 . S
In13 O24 2.294 . S
In13 O25 2.326 . S
O14 In13 2.294 . S
O14 C23 1.240 . S
O15 In13 2.326 . S
O15 C23 1.252 . S
C16 O19 1.252 . S
C16 O20 1.260 . S
C17 O24 1.240 . S
C17 O25 1.252 . S
C18 O21 1.252 . S
C18 O22 1.260 . S
O19 In13 2.266 . S
O19 C16 1.252 . S
O20 In13 2.326 . S
O20 C16 1.260 . S
O21 In13 2.266 . S
O21 C18 1.252 . S
O22 In13 2.326 . S
O22 C18 1.260 . S
C23 O14 1.240 . S
C23 O15 1.252 . S
O24 In13 2.294 . S
O24 C17 1.240 . S
O25 In13 2.326 . S
O25 C17 1.252 . S
In26 O27 2.294 . S
In26 O28 2.326 . S
In26 O32 2.266 . S
In26 O33 2.326 . S
In26 O34 2.266 1_556 S
In26 O35 2.326 1_556 S
In26 O37 2.294 . S
In26 O38 2.326 . S
O27 In26 2.294 . S
O27 C36 1.240 . S
O28 In26 2.326 . S
O28 C36 1.252 . S
C29 O32 1.252 . S
C29 O33 1.260 . S
C30 O37 1.240 . S
C30 O38 1.252 . S
C31 O34 1.252 . S
C31 O35 1.260 . S
O32 In26 2.266 . S
O32 C29 1.252 . S
O33 In26 2.326 . S
O33 C29 1.260 . S
O34 In26 2.266 1_554 S
O34 C31 1.252 . S
O35 In26 2.326 1_554 S
O35 C31 1.260 . S
C36 O27 1.240 . S
C36 O28 1.252 . S
O37 In26 2.294 . S
O37 C30 1.240 . S
O38 In26 2.326 . S
O38 C30 1.252 . S
In39 O40 2.294 . S
In39 O41 2.326 . S
In39 O45 2.266 1_556 S
In39 O46 2.326 1_556 S
In39 O47 2.266 . S
In39 O48 2.326 . S
In39 O50 2.294 . S
In39 O51 2.326 . S
O40 In39 2.294 . S
O40 C49 1.240 . S
O41 In39 2.326 . S
O41 C49 1.252 . S
C42 O45 1.252 . S
C42 O46 1.260 . S
C43 O50 1.240 . S
C43 O51 1.252 . S
C44 O47 1.252 . S
C44 O48 1.260 . S
O45 In39 2.266 1_554 S
O45 C42 1.252 . S
O46 In39 2.326 1_554 S
O46 C42 1.260 . S
O47 In39 2.266 . S
O47 C44 1.252 . S
O48 In39 2.326 . S
O48 C44 1.260 . S
C49 O40 1.240 . S
C49 O41 1.252 . S
O50 In39 2.294 . S
O50 C43 1.240 . S
O51 In39 2.326 . S
O51 C43 1.252 . S
In52 O53 2.294 . S
In52 O54 2.326 . S
In52 O58 2.266 . S
In52 O59 2.326 . S
In52 O60 2.266 . S
In52 O61 2.326 . S
In52 O63 2.294 . S
In52 O64 2.326 . S
O53 In52 2.294 . S
O53 C62 1.240 . S
O54 In52 2.326 . S
O54 C62 1.252 . S
C55 O58 1.252 . S
C55 O59 1.260 . S
C56 O63 1.240 . S
C56 O64 1.252 . S
C57 O60 1.252 . S
C57 O61 1.260 . S
O58 In52 2.266 . S
O58 C55 1.252 . S
O59 In52 2.326 . S
O59 C55 1.260 . S
O60 In52 2.266 . S
O60 C57 1.252 . S
O61 In52 2.326 . S
O61 C57 1.260 . S
C62 O53 1.240 . S
C62 O54 1.252 . S
O63 In52 2.294 . S
O63 C56 1.240 . S
O64 In52 2.326 . S
O64 C56 1.252 . S
In65 O66 2.294 . S
In65 O67 2.326 . S
In65 O71 2.266 . S
In65 O72 2.326 . S
In65 O73 2.266 . S
In65 O74 2.326 . S
In65 O76 2.294 . S
In65 O77 2.326 . S
O66 In65 2.294 . S
O66 C75 1.240 . S
O67 In65 2.326 . S
O67 C75 1.252 . S
C68 O71 1.252 . S
C68 O72 1.260 . S
C69 O76 1.240 . S
C69 O77 1.252 . S
C70 O73 1.252 . S
C70 O74 1.260 . S
O71 In65 2.266 . S
O71 C68 1.252 . S
O72 In65 2.326 . S
O72 C68 1.260 . S
O73 In65 2.266 . S
O73 C70 1.252 . S
O74 In65 2.326 . S
O74 C70 1.260 . S
C75 O66 1.240 . S
C75 O67 1.252 . S
O76 In65 2.294 . S
O76 C69 1.240 . S
O77 In65 2.326 . S
O77 C69 1.252 . S
In78 O79 2.294 . S
In78 O80 2.326 . S
In78 O84 2.266 1_554 S
In78 O85 2.326 1_554 S
In78 O86 2.266 . S
In78 O87 2.326 . S
In78 O89 2.294 . S
In78 O90 2.326 . S
O79 In78 2.294 . S
O79 C88 1.240 . S
O80 In78 2.326 . S
O80 C88 1.252 . S
C81 O84 1.252 . S
C81 O85 1.260 . S
C82 O89 1.240 . S
C82 O90 1.252 . S
C83 O86 1.252 . S
C83 O87 1.260 . S
O84 In78 2.266 1_556 S
O84 C81 1.252 . S
O85 In78 2.326 1_556 S
O85 C81 1.260 . S
O86 In78 2.266 . S
O86 C83 1.252 . S
O87 In78 2.326 . S
O87 C83 1.260 . S
C88 O79 1.240 . S
C88 O80 1.252 . S
O89 In78 2.294 . S
O89 C82 1.240 . S
O90 In78 2.326 . S
O90 C82 1.252 . S
In91 O92 2.294 . S
In91 O93 2.326 . S
In91 O97 2.266 1_554 S
In91 O98 2.326 1_554 S
In91 O99 2.266 . S
In91 O100 2.326 . S
In91 O102 2.294 . S
In91 O103 2.326 . S
O92 In91 2.294 . S
O92 C101 1.240 . S
O93 In91 2.326 . S
O93 C101 1.252 . S
C94 O97 1.252 . S
C94 O98 1.260 . S
C95 O102 1.240 . S
C95 O103 1.252 . S
C96 O99 1.252 . S
C96 O100 1.260 . S
O97 In91 2.266 1_556 S
O97 C94 1.252 . S
O98 In91 2.326 1_556 S
O98 C94 1.260 . S
O99 In91 2.266 . S
O99 C96 1.252 . S
O100 In91 2.326 . S
O100 C96 1.260 . S
C101 O92 1.240 . S
C101 O93 1.252 . S
O102 In91 2.294 . S
O102 C95 1.240 . S
O103 In91 2.326 . S
O103 C95 1.252 . S
In104 O105 2.294 . S
In104 O106 2.326 . S
In104 O110 2.266 . S
In104 O111 2.326 . S
In104 O112 2.266 . S
In104 O113 2.326 . S
In104 O115 2.294 . S
In104 O116 2.326 . S
O105 In104 2.294 . S
O105 C114 1.240 . S
O106 In104 2.326 . S
O106 C114 1.252 . S
C107 O110 1.252 . S
C107 O111 1.260 . S
C108 O115 1.240 . S
C108 O116 1.252 . S
C109 O112 1.252 . S
C109 O113 1.260 . S
O110 In104 2.266 . S
O110 C107 1.252 . S
O111 In104 2.326 . S
O111 C107 1.260 . S
O112 In104 2.266 . S
O112 C109 1.252 . S
O113 In104 2.326 . S
O113 C109 1.260 . S
C114 O105 1.240 . S
C114 O106 1.252 . S
O115 In104 2.294 . S
O115 C108 1.240 . S
O116 In104 2.326 . S
O116 C108 1.252 . S
In117 O118 2.294 . S
In117 O119 2.326 . S
In117 O123 2.266 . S
In117 O124 2.326 . S
In117 O125 2.266 . S
In117 O126 2.326 . S
In117 O128 2.294 . S
In117 O129 2.326 . S
O118 In117 2.294 . S
O118 C127 1.240 . S
O119 In117 2.326 . S
O119 C127 1.252 . S
C120 O123 1.252 . S
C120 O124 1.260 . S
C121 O128 1.240 . S
C121 O129 1.252 . S
C122 O125 1.252 . S
C122 O126 1.260 . S
O123 In117 2.266 . S
O123 C120 1.252 . S
O124 In117 2.326 . S
O124 C120 1.260 . S
O125 In117 2.266 . S
O125 C122 1.252 . S
O126 In117 2.326 . S
O126 C122 1.260 . S
C127 O118 1.240 . S
C127 O119 1.252 . S
O128 In117 2.294 . S
O128 C121 1.240 . S
O129 In117 2.326 . S
O129 C121 1.252 . S
In130 O131 2.294 . S
In130 O132 2.326 . S
In130 O136 2.266 . S
In130 O137 2.326 . S
In130 O138 2.266 . S
In130 O139 2.326 . S
In130 O141 2.294 . S
In130 O142 2.326 . S
O131 In130 2.294 . S
O131 C140 1.240 . S
O132 In130 2.326 . S
O132 C140 1.252 . S
C133 O136 1.252 . S
C133 O137 1.260 . S
C134 O141 1.240 . S
C134 O142 1.252 . S
C135 O138 1.252 . S
C135 O139 1.260 . S
O136 In130 2.266 . S
O136 C133 1.252 . S
O137 In130 2.326 . S
O137 C133 1.260 . S
O138 In130 2.266 . S
O138 C135 1.252 . S
O139 In130 2.326 . S
O139 C135 1.260 . S
C140 O131 1.240 . S
C140 O132 1.252 . S
O141 In130 2.294 . S
O141 C134 1.240 . S
O142 In130 2.326 . S
O142 C134 1.252 . S
In143 O144 2.294 . S
In143 O145 2.326 . S
In143 O149 2.266 . S
In143 O150 2.326 . S
In143 O151 2.266 . S
In143 O152 2.326 . S
In143 O154 2.294 . S
In143 O155 2.326 . S
O144 In143 2.294 . S
O144 C153 1.240 . S
O145 In143 2.326 . S
O145 C153 1.252 . S
C146 O149 1.252 . S
C146 O150 1.260 . S
C147 O154 1.240 . S
C147 O155 1.252 . S
C148 O151 1.252 . S
C148 O152 1.260 . S
O149 In143 2.266 . S
O149 C146 1.252 . S
O150 In143 2.326 . S
O150 C146 1.260 . S
O151 In143 2.266 . S
O151 C148 1.252 . S
O152 In143 2.326 . S
O152 C148 1.260 . S
C153 O144 1.240 . S
C153 O145 1.252 . S
O154 In143 2.294 . S
O154 C147 1.240 . S
O155 In143 2.326 . S
O155 C147 1.252 . S
In156 O157 2.294 . S
In156 O158 2.326 . S
In156 O162 2.266 . S
In156 O163 2.326 . S
In156 O164 2.266 . S
In156 O165 2.326 . S
In156 O167 2.294 . S
In156 O168 2.326 . S
O157 In156 2.294 . S
O157 C166 1.240 . S
O158 In156 2.326 . S
O158 C166 1.252 . S
C159 O162 1.252 . S
C159 O163 1.260 . S
C160 O167 1.240 . S
C160 O168 1.252 . S
C161 O164 1.252 . S
C161 O165 1.260 . S
O162 In156 2.266 . S
O162 C159 1.252 . S
O163 In156 2.326 . S
O163 C159 1.260 . S
O164 In156 2.266 . S
O164 C161 1.252 . S
O165 In156 2.326 . S
O165 C161 1.260 . S
C166 O157 1.240 . S
C166 O158 1.252 . S
O167 In156 2.294 . S
O167 C160 1.240 . S
O168 In156 2.326 . S
O168 C160 1.252 . S
In169 O170 2.294 . S
In169 O171 2.326 . S
In169 O175 2.266 . S
In169 O176 2.326 . S
In169 O177 2.266 . S
In169 O178 2.326 . S
In169 O180 2.294 . S
In169 O181 2.326 . S
O170 In169 2.294 . S
O170 C179 1.240 . S
O171 In169 2.326 . S
O171 C179 1.252 . S
C172 O175 1.252 . S
C172 O176 1.260 . S
C173 O180 1.240 . S
C173 O181 1.252 . S
C174 O177 1.252 . S
C174 O178 1.260 . S
O175 In169 2.266 . S
O175 C172 1.252 . S
O176 In169 2.326 . S
O176 C172 1.260 . S
O177 In169 2.266 . S
O177 C174 1.252 . S
O178 In169 2.326 . S
O178 C174 1.260 . S
C179 O170 1.240 . S
C179 O171 1.252 . S
O180 In169 2.294 . S
O180 C173 1.240 . S
O181 In169 2.326 . S
O181 C173 1.252 . S
In182 O183 2.294 . S
In182 O184 2.326 . S
In182 O188 2.266 . S
In182 O189 2.326 . S
In182 O190 2.266 . S
In182 O191 2.326 . S
In182 O193 2.294 . S
In182 O194 2.326 . S
O183 In182 2.294 . S
O183 C192 1.240 . S
O184 In182 2.326 . S
O184 C192 1.252 . S
C185 O188 1.252 . S
C185 O189 1.260 . S
C186 O193 1.240 . S
C186 O194 1.252 . S
C187 O190 1.252 . S
C187 O191 1.260 . S
O188 In182 2.266 . S
O188 C185 1.252 . S
O189 In182 2.326 . S
O189 C185 1.260 . S
O190 In182 2.266 . S
O190 C187 1.252 . S
O191 In182 2.326 . S
O191 C187 1.260 . S
C192 O183 1.240 . S
C192 O184 1.252 . S
O193 In182 2.294 . S
O193 C186 1.240 . S
O194 In182 2.326 . S
O194 C186 1.252 . S
In195 O196 2.294 . S
In195 O197 2.326 . S
In195 O201 2.266 . S
In195 O202 2.326 . S
In195 O203 2.266 . S
In195 O204 2.326 . S
In195 O206 2.294 . S
In195 O207 2.326 . S
O196 In195 2.294 . S
O196 C205 1.240 . S
O197 In195 2.326 . S
O197 C205 1.252 . S
C198 O201 1.252 . S
C198 O202 1.260 . S
C199 O206 1.240 . S
C199 O207 1.252 . S
C200 O203 1.252 . S
C200 O204 1.260 . S
O201 In195 2.266 . S
O201 C198 1.252 . S
O202 In195 2.326 . S
O202 C198 1.260 . S
O203 In195 2.266 . S
O203 C200 1.252 . S
O204 In195 2.326 . S
O204 C200 1.260 . S
C205 O196 1.240 . S
C205 O197 1.252 . S
O206 In195 2.294 . S
O206 C199 1.240 . S
O207 In195 2.326 . S
O207 C199 1.252 . S
In208 O209 2.294 . S
In208 O210 2.326 . S
In208 O214 2.266 . S
In208 O215 2.326 . S
In208 O216 2.266 . S
In208 O217 2.326 . S
In208 O219 2.294 . S
In208 O220 2.326 . S
O209 In208 2.294 . S
O209 C218 1.240 . S
O210 In208 2.326 . S
O210 C218 1.252 . S
C211 O214 1.252 . S
C211 O215 1.260 . S
C212 O219 1.240 . S
C212 O220 1.252 . S
C213 O216 1.252 . S
C213 O217 1.260 . S
O214 In208 2.266 . S
O214 C211 1.252 . S
O215 In208 2.326 . S
O215 C211 1.260 . S
O216 In208 2.266 . S
O216 C213 1.252 . S
O217 In208 2.326 . S
O217 C213 1.260 . S
C218 O209 1.240 . S
C218 O210 1.252 . S
O219 In208 2.294 . S
O219 C212 1.240 . S
O220 In208 2.326 . S
O220 C212 1.252 . S
In221 O222 2.294 . S
In221 O223 2.326 . S
In221 O227 2.266 . S
In221 O228 2.326 . S
In221 O229 2.266 . S
In221 O230 2.326 . S
In221 O232 2.294 . S
In221 O233 2.326 . S
O222 In221 2.294 . S
O222 C231 1.240 . S
O223 In221 2.326 . S
O223 C231 1.252 . S
C224 O227 1.252 . S
C224 O228 1.260 . S
C225 O232 1.240 . S
C225 O233 1.252 . S
C226 O229 1.252 . S
C226 O230 1.260 . S
O227 In221 2.266 . S
O227 C224 1.252 . S
O228 In221 2.326 . S
O228 C224 1.260 . S
O229 In221 2.266 . S
O229 C226 1.252 . S
O230 In221 2.326 . S
O230 C226 1.260 . S
C231 O222 1.240 . S
C231 O223 1.252 . S
O232 In221 2.294 . S
O232 C225 1.240 . S
O233 In221 2.326 . S
O233 C225 1.252 . S
In234 O235 2.294 . S
In234 O236 2.326 . S
In234 O240 2.266 . S
In234 O241 2.326 . S
In234 O242 2.266 . S
In234 O243 2.326 . S
In234 O245 2.294 . S
In234 O246 2.326 . S
O235 In234 2.294 . S
O235 C244 1.240 . S
O236 In234 2.326 . S
O236 C244 1.252 . S
C237 O240 1.252 . S
C237 O241 1.260 . S
C238 O245 1.240 . S
C238 O246 1.252 . S
C239 O242 1.252 . S
C239 O243 1.260 . S
O240 In234 2.266 . S
O240 C237 1.252 . S
O241 In234 2.326 . S
O241 C237 1.260 . S
O242 In234 2.266 . S
O242 C239 1.252 . S
O243 In234 2.326 . S
O243 C239 1.260 . S
C244 O235 1.240 . S
C244 O236 1.252 . S
O245 In234 2.294 . S
O245 C238 1.240 . S
O246 In234 2.326 . S
O246 C238 1.252 . S
In247 O248 2.294 . S
In247 O249 2.326 . S
In247 O253 2.266 . S
In247 O254 2.326 . S
In247 O255 2.266 . S
In247 O256 2.326 . S
In247 O258 2.294 . S
In247 O259 2.326 . S
O248 In247 2.294 . S
O248 C257 1.240 . S
O249 In247 2.326 . S
O249 C257 1.252 . S
C250 O253 1.252 . S
C250 O254 1.260 . S
C251 O258 1.240 . S
C251 O259 1.252 . S
C252 O255 1.252 . S
C252 O256 1.260 . S
O253 In247 2.266 . S
O253 C250 1.252 . S
O254 In247 2.326 . S
O254 C250 1.260 . S
O255 In247 2.266 . S
O255 C252 1.252 . S
O256 In247 2.326 . S
O256 C252 1.260 . S
C257 O248 1.240 . S
C257 O249 1.252 . S
O258 In247 2.294 . S
O258 C251 1.240 . S
O259 In247 2.326 . S
O259 C251 1.252 . S
In260 O261 2.294 . S
In260 O262 2.326 . S
In260 O266 2.266 . S
In260 O267 2.326 . S
In260 O268 2.266 . S
In260 O269 2.326 . S
In260 O271 2.294 . S
In260 O272 2.326 . S
O261 In260 2.294 . S
O261 C270 1.240 . S
O262 In260 2.326 . S
O262 C270 1.252 . S
C263 O266 1.252 . S
C263 O267 1.260 . S
C264 O271 1.240 . S
C264 O272 1.252 . S
C265 O268 1.252 . S
C265 O269 1.260 . S
O266 In260 2.266 . S
O266 C263 1.252 . S
O267 In260 2.326 . S
O267 C263 1.260 . S
O268 In260 2.266 . S
O268 C265 1.252 . S
O269 In260 2.326 . S
O269 C265 1.260 . S
C270 O261 1.240 . S
C270 O262 1.252 . S
O271 In260 2.294 . S
O271 C264 1.240 . S
O272 In260 2.326 . S
O272 C264 1.252 . S
In273 O274 2.294 . S
In273 O275 2.326 . S
In273 O279 2.266 . S
In273 O280 2.326 . S
In273 O281 2.266 . S
In273 O282 2.326 . S
In273 O284 2.294 . S
In273 O285 2.326 . S
O274 In273 2.294 . S
O274 C283 1.240 . S
O275 In273 2.326 . S
O275 C283 1.252 . S
C276 O279 1.252 . S
C276 O280 1.260 . S
C277 O284 1.240 . S
C277 O285 1.252 . S
C278 O281 1.252 . S
C278 O282 1.260 . S
O279 In273 2.266 . S
O279 C276 1.252 . S
O280 In273 2.326 . S
O280 C276 1.260 . S
O281 In273 2.266 . S
O281 C278 1.252 . S
O282 In273 2.326 . S
O282 C278 1.260 . S
C283 O274 1.240 . S
C283 O275 1.252 . S
O284 In273 2.294 . S
O284 C277 1.240 . S
O285 In273 2.326 . S
O285 C277 1.252 . S
In286 O287 2.294 . S
In286 O288 2.326 . S
In286 O292 2.266 . S
In286 O293 2.326 . S
In286 O294 2.266 . S
In286 O295 2.326 . S
In286 O297 2.294 . S
In286 O298 2.326 . S
O287 In286 2.294 . S
O287 C296 1.240 . S
O288 In286 2.326 . S
O288 C296 1.252 . S
C289 O292 1.252 . S
C289 O293 1.260 . S
C290 O297 1.240 . S
C290 O298 1.252 . S
C291 O294 1.252 . S
C291 O295 1.260 . S
O292 In286 2.266 . S
O292 C289 1.252 . S
O293 In286 2.326 . S
O293 C289 1.260 . S
O294 In286 2.266 . S
O294 C291 1.252 . S
O295 In286 2.326 . S
O295 C291 1.260 . S
C296 O287 1.240 . S
C296 O288 1.252 . S
O297 In286 2.294 . S
O297 C290 1.240 . S
O298 In286 2.326 . S
O298 C290 1.252 . S
In299 O300 2.294 . S
In299 O301 2.326 . S
In299 O305 2.266 . S
In299 O306 2.326 . S
In299 O307 2.266 . S
In299 O308 2.326 . S
In299 O310 2.294 . S
In299 O311 2.326 . S
O300 In299 2.294 . S
O300 C309 1.240 . S
O301 In299 2.326 . S
O301 C309 1.252 . S
C302 O305 1.252 . S
C302 O306 1.260 . S
C303 O310 1.240 . S
C303 O311 1.252 . S
C304 O307 1.252 . S
C304 O308 1.260 . S
O305 In299 2.266 . S
O305 C302 1.252 . S
O306 In299 2.326 . S
O306 C302 1.260 . S
O307 In299 2.266 . S
O307 C304 1.252 . S
O308 In299 2.326 . S
O308 C304 1.260 . S
C309 O300 1.240 . S
C309 O301 1.252 . S
O310 In299 2.294 . S
O310 C303 1.240 . S
O311 In299 2.326 . S
O311 C303 1.252 . S
In312 O313 2.294 . S
In312 O314 2.326 . S
In312 O318 2.266 . S
In312 O319 2.326 . S
In312 O320 2.266 . S
In312 O321 2.326 . S
In312 O323 2.294 . S
In312 O324 2.326 . S
O313 In312 2.294 . S
O313 C322 1.240 . S
O314 In312 2.326 . S
O314 C322 1.252 . S
C315 O318 1.252 . S
C315 O319 1.260 . S
C316 O323 1.240 . S
C316 O324 1.252 . S
C317 O320 1.252 . S
C317 O321 1.260 . S
O318 In312 2.266 . S
O318 C315 1.252 . S
O319 In312 2.326 . S
O319 C315 1.260 . S
O320 In312 2.266 . S
O320 C317 1.252 . S
O321 In312 2.326 . S
O321 C317 1.260 . S
C322 O313 1.240 . S
C322 O314 1.252 . S
O323 In312 2.294 . S
O323 C316 1.240 . S
O324 In312 2.326 . S
O324 C316 1.252 . S
In325 O326 2.294 . S
In325 O327 2.326 . S
In325 O331 2.266 . S
In325 O332 2.326 . S
In325 O333 2.266 . S
In325 O334 2.326 . S
In325 O336 2.294 . S
In325 O337 2.326 . S
O326 In325 2.294 . S
O326 C335 1.240 . S
O327 In325 2.326 . S
O327 C335 1.252 . S
C328 O331 1.252 . S
C328 O332 1.260 . S
C329 O336 1.240 . S
C329 O337 1.252 . S
C330 O333 1.252 . S
C330 O334 1.260 . S
O331 In325 2.266 . S
O331 C328 1.252 . S
O332 In325 2.326 . S
O332 C328 1.260 . S
O333 In325 2.266 . S
O333 C330 1.252 . S
O334 In325 2.326 . S
O334 C330 1.260 . S
C335 O326 1.240 . S
C335 O327 1.252 . S
O336 In325 2.294 . S
O336 C329 1.240 . S
O337 In325 2.326 . S
O337 C329 1.252 . S
In338 O339 2.294 . S
In338 O340 2.326 . S
In338 O344 2.266 . S
In338 O345 2.326 . S
In338 O346 2.266 1_556 S
In338 O347 2.326 1_556 S
In338 O349 2.294 . S
In338 O350 2.326 . S
O339 In338 2.294 . S
O339 C348 1.240 . S
O340 In338 2.326 . S
O340 C348 1.252 . S
C341 O344 1.252 . S
C341 O345 1.260 . S
C342 O349 1.240 . S
C342 O350 1.252 . S
C343 O346 1.252 . S
C343 O347 1.260 . S
O344 In338 2.266 . S
O344 C341 1.252 . S
O345 In338 2.326 . S
O345 C341 1.260 . S
O346 In338 2.266 1_554 S
O346 C343 1.252 . S
O347 In338 2.326 1_554 S
O347 C343 1.260 . S
C348 O339 1.240 . S
C348 O340 1.252 . S
O349 In338 2.294 . S
O349 C342 1.240 . S
O350 In338 2.326 . S
O350 C342 1.252 . S
In351 O352 2.294 . S
In351 O353 2.326 . S
In351 O357 2.266 1_556 S
In351 O358 2.326 1_556 S
In351 O359 2.266 . S
In351 O360 2.326 . S
In351 O362 2.294 . S
In351 O363 2.326 . S
O352 In351 2.294 . S
O352 C361 1.240 . S
O353 In351 2.326 . S
O353 C361 1.252 . S
C354 O357 1.252 . S
C354 O358 1.260 . S
C355 O362 1.240 . S
C355 O363 1.252 . S
C356 O359 1.252 . S
C356 O360 1.260 . S
O357 In351 2.266 1_554 S
O357 C354 1.252 . S
O358 In351 2.326 1_554 S
O358 C354 1.260 . S
O359 In351 2.266 . S
O359 C356 1.252 . S
O360 In351 2.326 . S
O360 C356 1.260 . S
C361 O352 1.240 . S
C361 O353 1.252 . S
O362 In351 2.294 . S
O362 C355 1.240 . S
O363 In351 2.326 . S
O363 C355 1.252 . S
In364 O365 2.294 . S
In364 O366 2.326 . S
In364 O370 2.266 . S
In364 O371 2.326 . S
In364 O372 2.266 . S
In364 O373 2.326 . S
In364 O375 2.294 . S
In364 O376 2.326 . S
O365 In364 2.294 . S
O365 C374 1.240 . S
O366 In364 2.326 . S
O366 C374 1.252 . S
C367 O370 1.252 . S
C367 O371 1.260 . S
C368 O375 1.240 . S
C368 O376 1.252 . S
C369 O372 1.252 . S
C369 O373 1.260 . S
O370 In364 2.266 . S
O370 C367 1.252 . S
O371 In364 2.326 . S
O371 C367 1.260 . S
O372 In364 2.266 . S
O372 C369 1.252 . S
O373 In364 2.326 . S
O373 C369 1.260 . S
C374 O365 1.240 . S
C374 O366 1.252 . S
O375 In364 2.294 . S
O375 C368 1.240 . S
O376 In364 2.326 . S
O376 C368 1.252 . S
In377 O378 2.294 . S
In377 O379 2.326 . S
In377 O383 2.266 . S
In377 O384 2.326 . S
In377 O385 2.266 . S
In377 O386 2.326 . S
In377 O388 2.294 . S
In377 O389 2.326 . S
O378 In377 2.294 . S
O378 C387 1.240 . S
O379 In377 2.326 . S
O379 C387 1.252 . S
C380 O383 1.252 . S
C380 O384 1.260 . S
C381 O388 1.240 . S
C381 O389 1.252 . S
C382 O385 1.252 . S
C382 O386 1.260 . S
O383 In377 2.266 . S
O383 C380 1.252 . S
O384 In377 2.326 . S
O384 C380 1.260 . S
O385 In377 2.266 . S
O385 C382 1.252 . S
O386 In377 2.326 . S
O386 C382 1.260 . S
C387 O378 1.240 . S
C387 O379 1.252 . S
O388 In377 2.294 . S
O388 C381 1.240 . S
O389 In377 2.326 . S
O389 C381 1.252 . S
In390 O391 2.294 . S
In390 O392 2.326 . S
In390 O396 2.266 1_554 S
In390 O397 2.326 1_554 S
In390 O398 2.266 . S
In390 O399 2.326 . S
In390 O401 2.294 . S
In390 O402 2.326 . S
O391 In390 2.294 . S
O391 C400 1.240 . S
O392 In390 2.326 . S
O392 C400 1.252 . S
C393 O396 1.252 . S
C393 O397 1.260 . S
C394 O401 1.240 . S
C394 O402 1.252 . S
C395 O398 1.252 . S
C395 O399 1.260 . S
O396 In390 2.266 1_556 S
O396 C393 1.252 . S
O397 In390 2.326 1_556 S
O397 C393 1.260 . S
O398 In390 2.266 . S
O398 C395 1.252 . S
O399 In390 2.326 . S
O399 C395 1.260 . S
C400 O391 1.240 . S
C400 O392 1.252 . S
O401 In390 2.294 . S
O401 C394 1.240 . S
O402 In390 2.326 . S
O402 C394 1.252 . S
In403 O404 2.294 . S
In403 O405 2.326 . S
In403 O409 2.266 1_554 S
In403 O410 2.326 1_554 S
In403 O411 2.266 . S
In403 O412 2.326 . S
In403 O414 2.294 . S
In403 O415 2.326 . S
O404 In403 2.294 . S
O404 C413 1.240 . S
O405 In403 2.326 . S
O405 C413 1.252 . S
C406 O409 1.252 . S
C406 O410 1.260 . S
C407 O414 1.240 . S
C407 O415 1.252 . S
C408 O411 1.252 . S
C408 O412 1.260 . S
O409 In403 2.266 1_556 S
O409 C406 1.252 . S
O410 In403 2.326 1_556 S
O410 C406 1.260 . S
O411 In403 2.266 . S
O411 C408 1.252 . S
O412 In403 2.326 . S
O412 C408 1.260 . S
C413 O404 1.240 . S
C413 O405 1.252 . S
O414 In403 2.294 . S
O414 C407 1.240 . S
O415 In403 2.326 . S
O415 C407 1.252 . S
H416 C424 0.950 . S
H417 C429 0.950 . S
H418 C426 0.950 . S
H419 C428 0.950 . S
H420 C430 0.950 . S
H421 C432 0.950 . S
H422 C434 0.950 . S
H423 C435 0.950 . S
C424 H416 0.950 . S
C424 C425 1.386 . S
C424 C426 1.391 . S
C425 C424 1.386 . S
C425 C429 1.393 . S
C426 H418 0.950 . S
C426 C424 1.391 . S
C426 C427 1.400 . S
C427 C426 1.400 . S
C427 C428 1.398 . S
C427 C433 1.491 . S
C428 H419 0.950 . S
C428 C427 1.398 . S
C428 C429 1.391 . S
C429 H417 0.950 . S
C429 C425 1.393 . S
C429 C428 1.391 . S
C430 H420 0.950 . S
C430 C431 1.386 . S
C430 C432 1.391 . S
C431 C430 1.386 . S
C431 C435 1.393 . S
C432 H421 0.950 . S
C432 C430 1.391 . S
C432 C433 1.400 . S
C433 C427 1.491 . S
C433 C432 1.400 . S
C433 C434 1.398 . S
C434 H422 0.950 . S
C434 C433 1.398 . S
C434 C435 1.391 . S
C435 H423 0.950 . S
C435 C431 1.393 . S
C435 C434 1.391 . S
H436 C444 0.950 . S
H437 C449 0.950 . S
H438 C446 0.950 . S
H439 C448 0.950 . S
H440 C450 0.950 . S
H441 C452 0.950 . S
H442 C454 0.950 . S
H443 C455 0.950 . S
C444 H436 0.950 . S
C444 C445 1.386 . S
C444 C446 1.391 . S
C445 C444 1.386 . S
C445 C449 1.393 . S
C446 H438 0.950 . S
C446 C444 1.391 . S
C446 C447 1.400 . S
C447 C446 1.400 . S
C447 C448 1.398 . S
C447 C453 1.491 . S
C448 H439 0.950 . S
C448 C447 1.398 . S
C448 C449 1.391 . S
C449 H437 0.950 . S
C449 C445 1.393 . S
C449 C448 1.391 . S
C450 H440 0.950 . S
C450 C451 1.386 . S
C450 C452 1.391 . S
C451 C450 1.386 . S
C451 C455 1.393 . S
C452 H441 0.950 . S
C452 C450 1.391 . S
C452 C453 1.400 . S
C453 C447 1.491 . S
C453 C452 1.400 . S
C453 C454 1.398 . S
C454 H442 0.950 . S
C454 C453 1.398 . S
C454 C455 1.391 . S
C455 H443 0.950 . S
C455 C451 1.393 . S
C455 C454 1.391 . S
H456 C464 0.950 . S
H457 C469 0.950 . S
H458 C466 0.950 . S
H459 C468 0.950 . S
H460 C470 0.950 . S
H461 C472 0.950 . S
H462 C474 0.950 . S
H463 C475 0.950 . S
C464 H456 0.950 . S
C464 C465 1.386 . S
C464 C466 1.391 . S
C465 C464 1.386 . S
C465 C469 1.393 . S
C466 H458 0.950 . S
C466 C464 1.391 . S
C466 C467 1.400 . S
C467 C466 1.400 . S
C467 C468 1.398 . S
C467 C473 1.491 . S
C468 H459 0.950 . S
C468 C467 1.398 . S
C468 C469 1.391 . S
C469 H457 0.950 . S
C469 C465 1.393 . S
C469 C468 1.391 . S
C470 H460 0.950 . S
C470 C471 1.386 . S
C470 C472 1.391 . S
C471 C470 1.386 . S
C471 C475 1.393 . S
C472 H461 0.950 . S
C472 C470 1.391 . S
C472 C473 1.400 . S
C473 C467 1.491 . S
C473 C472 1.400 . S
C473 C474 1.398 . S
C474 H462 0.950 . S
C474 C473 1.398 . S
C474 C475 1.391 . S
C475 H463 0.950 . S
C475 C471 1.393 . S
C475 C474 1.391 . S
H476 C484 0.950 . S
H477 C489 0.950 . S
H478 C486 0.950 . S
H479 C488 0.950 . S
H480 C490 0.950 . S
H481 C492 0.950 . S
H482 C494 0.950 . S
H483 C495 0.950 . S
C484 H476 0.950 . S
C484 C485 1.386 . S
C484 C486 1.391 . S
C485 C484 1.386 . S
C485 C489 1.393 . S
C486 H478 0.950 . S
C486 C484 1.391 . S
C486 C487 1.400 . S
C487 C486 1.400 . S
C487 C488 1.398 . S
C487 C493 1.491 . S
C488 H479 0.950 . S
C488 C487 1.398 . S
C488 C489 1.391 . S
C489 H477 0.950 . S
C489 C485 1.393 . S
C489 C488 1.391 . S
C490 H480 0.950 . S
C490 C491 1.386 . S
C490 C492 1.391 . S
C491 C490 1.386 . S
C491 C495 1.393 . S
C492 H481 0.950 . S
C492 C490 1.391 . S
C492 C493 1.400 . S
C493 C487 1.491 . S
C493 C492 1.400 . S
C493 C494 1.398 . S
C494 H482 0.950 . S
C494 C493 1.398 . S
C494 C495 1.391 . S
C495 H483 0.950 . S
C495 C491 1.393 . S
C495 C494 1.391 . S
H496 C504 0.950 . S
H497 C509 0.950 . S
H498 C506 0.950 . S
H499 C508 0.950 . S
H500 C510 0.950 . S
H501 C512 0.950 . S
H502 C514 0.950 . S
H503 C515 0.950 . S
C504 H496 0.950 . S
C504 C505 1.386 . S
C504 C506 1.391 . S
C505 C504 1.386 . S
C505 C509 1.393 . S
C506 H498 0.950 . S
C506 C504 1.391 . S
C506 C507 1.400 . S
C507 C506 1.400 . S
C507 C508 1.398 . S
C507 C513 1.491 . S
C508 H499 0.950 . S
C508 C507 1.398 . S
C508 C509 1.391 . S
C509 H497 0.950 . S
C509 C505 1.393 . S
C509 C508 1.391 . S
C510 H500 0.950 . S
C510 C511 1.386 . S
C510 C512 1.391 . S
C511 C510 1.386 . S
C511 C515 1.393 . S
C512 H501 0.950 . S
C512 C510 1.391 . S
C512 C513 1.400 . S
C513 C507 1.491 . S
C513 C512 1.400 . S
C513 C514 1.398 . S
C514 H502 0.950 . S
C514 C513 1.398 . S
C514 C515 1.391 . S
C515 H503 0.950 . S
C515 C511 1.393 . S
C515 C514 1.391 . S
H516 C524 0.950 . S
H517 C529 0.950 . S
H518 C526 0.950 . S
H519 C528 0.950 . S
H520 C530 0.950 . S
H521 C532 0.950 . S
H522 C534 0.950 . S
H523 C535 0.950 . S
C524 H516 0.950 . S
C524 C525 1.386 . S
C524 C526 1.391 . S
C525 C524 1.386 . S
C525 C529 1.393 . S
C526 H518 0.950 . S
C526 C524 1.391 . S
C526 C527 1.400 . S
C527 C526 1.400 . S
C527 C528 1.398 . S
C527 C533 1.491 . S
C528 H519 0.950 . S
C528 C527 1.398 . S
C528 C529 1.391 . S
C529 H517 0.950 . S
C529 C525 1.393 . S
C529 C528 1.391 . S
C530 H520 0.950 . S
C530 C531 1.386 . S
C530 C532 1.391 . S
C531 C530 1.386 . S
C531 C535 1.393 . S
C532 H521 0.950 . S
C532 C530 1.391 . S
C532 C533 1.400 . S
C533 C527 1.491 . S
C533 C532 1.400 . S
C533 C534 1.398 . S
C534 H522 0.950 . S
C534 C533 1.398 . S
C534 C535 1.391 . S
C535 H523 0.950 . S
C535 C531 1.393 . S
C535 C534 1.391 . S
H536 C544 0.950 . S
H537 C549 0.950 . S
H538 C546 0.950 . S
H539 C548 0.950 . S
H540 C550 0.950 . S
H541 C552 0.950 . S
H542 C554 0.950 . S
H543 C555 0.950 . S
C544 H536 0.950 . S
C544 C545 1.386 . S
C544 C546 1.391 . S
C545 C544 1.386 . S
C545 C549 1.393 . S
C546 H538 0.950 . S
C546 C544 1.391 . S
C546 C547 1.400 . S
C547 C546 1.400 . S
C547 C548 1.398 . S
C547 C553 1.491 . S
C548 H539 0.950 . S
C548 C547 1.398 . S
C548 C549 1.391 . S
C549 H537 0.950 . S
C549 C545 1.393 . S
C549 C548 1.391 . S
C550 H540 0.950 . S
C550 C551 1.386 . S
C550 C552 1.391 . S
C551 C550 1.386 . S
C551 C555 1.393 . S
C552 H541 0.950 . S
C552 C550 1.391 . S
C552 C553 1.400 . S
C553 C547 1.491 . S
C553 C552 1.400 . S
C553 C554 1.398 . S
C554 H542 0.950 . S
C554 C553 1.398 . S
C554 C555 1.391 . S
C555 H543 0.950 . S
C555 C551 1.393 . S
C555 C554 1.391 . S
H556 C564 0.950 . S
H557 C569 0.950 . S
H558 C566 0.950 . S
H559 C568 0.950 . S
H560 C570 0.950 . S
H561 C572 0.950 . S
H562 C574 0.950 . S
H563 C575 0.950 . S
C564 H556 0.950 . S
C564 C565 1.386 . S
C564 C566 1.391 . S
C565 C564 1.386 . S
C565 C569 1.393 . S
C566 H558 0.950 . S
C566 C564 1.391 . S
C566 C567 1.400 . S
C567 C566 1.400 . S
C567 C568 1.398 . S
C567 C573 1.491 . S
C568 H559 0.950 . S
C568 C567 1.398 . S
C568 C569 1.391 . S
C569 H557 0.950 . S
C569 C565 1.393 . S
C569 C568 1.391 . S
C570 H560 0.950 . S
C570 C571 1.386 . S
C570 C572 1.391 . S
C571 C570 1.386 . S
C571 C575 1.393 . S
C572 H561 0.950 . S
C572 C570 1.391 . S
C572 C573 1.400 . S
C573 C567 1.491 . S
C573 C572 1.400 . S
C573 C574 1.398 . S
C574 H562 0.950 . S
C574 C573 1.398 . S
C574 C575 1.391 . S
C575 H563 0.950 . S
C575 C571 1.393 . S
C575 C574 1.391 . S
H576 C584 0.950 . S
H577 C589 0.950 . S
H578 C586 0.950 . S
H579 C588 0.950 . S
H580 C590 0.950 . S
H581 C592 0.950 . S
H582 C594 0.950 . S
H583 C595 0.950 . S
C584 H576 0.950 . S
C584 C585 1.386 . S
C584 C586 1.391 . S
C585 C584 1.386 . S
C585 C589 1.393 . S
C586 H578 0.950 . S
C586 C584 1.391 . S
C586 C587 1.400 . S
C587 C586 1.400 . S
C587 C588 1.398 . S
C587 C593 1.491 . S
C588 H579 0.950 . S
C588 C587 1.398 . S
C588 C589 1.391 . S
C589 H577 0.950 . S
C589 C585 1.393 . S
C589 C588 1.391 . S
C590 H580 0.950 . S
C590 C591 1.386 . S
C590 C592 1.391 . S
C591 C590 1.386 . S
C591 C595 1.393 . S
C592 H581 0.950 . S
C592 C590 1.391 . S
C592 C593 1.400 . S
C593 C587 1.491 . S
C593 C592 1.400 . S
C593 C594 1.398 . S
C594 H582 0.950 . S
C594 C593 1.398 . S
C594 C595 1.391 . S
C595 H583 0.950 . S
C595 C591 1.393 . S
C595 C594 1.391 . S
H596 C604 0.950 . S
H597 C609 0.950 . S
H598 C606 0.950 . S
H599 C608 0.950 . S
H600 C610 0.950 . S
H601 C612 0.950 . S
H602 C614 0.950 . S
H603 C615 0.950 . S
C604 H596 0.950 . S
C604 C605 1.386 . S
C604 C606 1.391 . S
C605 C604 1.386 . S
C605 C609 1.393 . S
C606 H598 0.950 . S
C606 C604 1.391 . S
C606 C607 1.400 . S
C607 C606 1.400 . S
C607 C608 1.398 . S
C607 C613 1.491 . S
C608 H599 0.950 . S
C608 C607 1.398 . S
C608 C609 1.391 . S
C609 H597 0.950 . S
C609 C605 1.393 . S
C609 C608 1.391 . S
C610 H600 0.950 . S
C610 C611 1.386 . S
C610 C612 1.391 . S
C611 C610 1.386 . S
C611 C615 1.393 . S
C612 H601 0.950 . S
C612 C610 1.391 . S
C612 C613 1.400 . S
C613 C607 1.491 . S
C613 C612 1.400 . S
C613 C614 1.398 . S
C614 H602 0.950 . S
C614 C613 1.398 . S
C614 C615 1.391 . S
C615 H603 0.950 . S
C615 C611 1.393 . S
C615 C614 1.391 . S
H616 C624 0.950 . S
H617 C629 0.950 . S
H618 C626 0.950 . S
H619 C628 0.950 . S
H620 C630 0.950 . S
H621 C632 0.950 . S
H622 C634 0.950 . S
H623 C635 0.950 . S
C624 H616 0.950 . S
C624 C625 1.386 . S
C624 C626 1.391 . S
C625 C624 1.386 . S
C625 C629 1.393 . S
C626 H618 0.950 . S
C626 C624 1.391 . S
C626 C627 1.400 . S
C627 C626 1.400 . S
C627 C628 1.398 . S
C627 C633 1.491 . S
C628 H619 0.950 . S
C628 C627 1.398 . S
C628 C629 1.391 . S
C629 H617 0.950 . S
C629 C625 1.393 . S
C629 C628 1.391 . S
C630 H620 0.950 . S
C630 C631 1.386 . S
C630 C632 1.391 . S
C631 C630 1.386 . S
C631 C635 1.393 . S
C632 H621 0.950 . S
C632 C630 1.391 . S
C632 C633 1.400 . S
C633 C627 1.491 . S
C633 C632 1.400 . S
C633 C634 1.398 . S
C634 H622 0.950 . S
C634 C633 1.398 . S
C634 C635 1.391 . S
C635 H623 0.950 . S
C635 C631 1.393 . S
C635 C634 1.391 . S
H636 C644 0.950 . S
H637 C649 0.950 . S
H638 C646 0.950 . S
H639 C648 0.950 . S
H640 C650 0.950 . S
H641 C652 0.950 . S
H642 C654 0.950 . S
H643 C655 0.950 . S
C644 H636 0.950 . S
C644 C645 1.386 . S
C644 C646 1.391 . S
C645 C644 1.386 . S
C645 C649 1.393 . S
C646 H638 0.950 . S
C646 C644 1.391 . S
C646 C647 1.400 . S
C647 C646 1.400 . S
C647 C648 1.398 . S
C647 C653 1.491 . S
C648 H639 0.950 . S
C648 C647 1.398 . S
C648 C649 1.391 . S
C649 H637 0.950 . S
C649 C645 1.393 . S
C649 C648 1.391 . S
C650 H640 0.950 . S
C650 C651 1.386 . S
C650 C652 1.391 . S
C651 C650 1.386 . S
C651 C655 1.393 . S
C652 H641 0.950 . S
C652 C650 1.391 . S
C652 C653 1.400 . S
C653 C647 1.491 . S
C653 C652 1.400 . S
C653 C654 1.398 . S
C654 H642 0.950 . S
C654 C653 1.398 . S
C654 C655 1.391 . S
C655 H643 0.950 . S
C655 C651 1.393 . S
C655 C654 1.391 . S
H656 C664 0.950 . S
H657 C669 0.950 . S
H658 C666 0.950 . S
H659 C668 0.950 . S
H660 C670 0.950 . S
H661 C672 0.950 . S
H662 C674 0.950 . S
H663 C675 0.950 . S
C664 H656 0.950 . S
C664 C665 1.386 . S
C664 C666 1.391 . S
C665 C664 1.386 . S
C665 C669 1.393 . S
C666 H658 0.950 . S
C666 C664 1.391 . S
C666 C667 1.400 . S
C667 C666 1.400 . S
C667 C668 1.398 . S
C667 C673 1.491 . S
C668 H659 0.950 . S
C668 C667 1.398 . S
C668 C669 1.391 . S
C669 H657 0.950 . S
C669 C665 1.393 . S
C669 C668 1.391 . S
C670 H660 0.950 . S
C670 C671 1.386 . S
C670 C672 1.391 . S
C671 C670 1.386 . S
C671 C675 1.393 . S
C672 H661 0.950 . S
C672 C670 1.391 . S
C672 C673 1.400 . S
C673 C667 1.491 . S
C673 C672 1.400 . S
C673 C674 1.398 . S
C674 H662 0.950 . S
C674 C673 1.398 . S
C674 C675 1.391 . S
C675 H663 0.950 . S
C675 C671 1.393 . S
C675 C674 1.391 . S
H676 C684 0.950 . S
H677 C689 0.950 . S
H678 C686 0.950 . S
H679 C688 0.950 . S
H680 C690 0.950 . S
H681 C692 0.950 . S
H682 C694 0.950 . S
H683 C695 0.950 . S
C684 H676 0.950 . S
C684 C685 1.386 . S
C684 C686 1.391 . S
C685 C684 1.386 . S
C685 C689 1.393 . S
C686 H678 0.950 . S
C686 C684 1.391 . S
C686 C687 1.400 . S
C687 C686 1.400 . S
C687 C688 1.398 . S
C687 C693 1.491 . S
C688 H679 0.950 . S
C688 C687 1.398 . S
C688 C689 1.391 . S
C689 H677 0.950 . S
C689 C685 1.393 . S
C689 C688 1.391 . S
C690 H680 0.950 . S
C690 C691 1.386 . S
C690 C692 1.391 . S
C691 C690 1.386 . S
C691 C695 1.393 . S
C692 H681 0.950 . S
C692 C690 1.391 . S
C692 C693 1.400 . S
C693 C687 1.491 . S
C693 C692 1.400 . S
C693 C694 1.398 . S
C694 H682 0.950 . S
C694 C693 1.398 . S
C694 C695 1.391 . S
C695 H683 0.950 . S
C695 C691 1.393 . S
C695 C694 1.391 . S
H696 C704 0.950 . S
H697 C709 0.950 . S
H698 C706 0.950 . S
H699 C708 0.950 . S
H700 C710 0.950 . S
H701 C712 0.950 . S
H702 C714 0.950 . S
H703 C715 0.950 . S
C704 H696 0.950 . S
C704 C705 1.386 . S
C704 C706 1.391 . S
C705 C704 1.386 . S
C705 C709 1.393 . S
C706 H698 0.950 . S
C706 C704 1.391 . S
C706 C707 1.400 . S
C707 C706 1.400 . S
C707 C708 1.398 . S
C707 C713 1.491 . S
C708 H699 0.950 . S
C708 C707 1.398 . S
C708 C709 1.391 . S
C709 H697 0.950 . S
C709 C705 1.393 . S
C709 C708 1.391 . S
C710 H700 0.950 . S
C710 C711 1.386 . S
C710 C712 1.391 . S
C711 C710 1.386 . S
C711 C715 1.393 . S
C712 H701 0.950 . S
C712 C710 1.391 . S
C712 C713 1.400 . S
C713 C707 1.491 . S
C713 C712 1.400 . S
C713 C714 1.398 . S
C714 H702 0.950 . S
C714 C713 1.398 . S
C714 C715 1.391 . S
C715 H703 0.950 . S
C715 C711 1.393 . S
C715 C714 1.391 . S
H716 C724 0.950 . S
H717 C729 0.950 . S
H718 C726 0.950 . S
H719 C728 0.950 . S
H720 C730 0.950 . S
H721 C732 0.950 . S
H722 C734 0.950 . S
H723 C735 0.950 . S
C724 H716 0.950 . S
C724 C725 1.386 . S
C724 C726 1.391 . S
C725 C724 1.386 . S
C725 C729 1.393 . S
C726 H718 0.950 . S
C726 C724 1.391 . S
C726 C727 1.400 . S
C727 C726 1.400 . S
C727 C728 1.398 . S
C727 C733 1.491 . S
C728 H719 0.950 . S
C728 C727 1.398 . S
C728 C729 1.391 . S
C729 H717 0.950 . S
C729 C725 1.393 . S
C729 C728 1.391 . S
C730 H720 0.950 . S
C730 C731 1.386 . S
C730 C732 1.391 . S
C731 C730 1.386 . S
C731 C735 1.393 . S
C732 H721 0.950 . S
C732 C730 1.391 . S
C732 C733 1.400 . S
C733 C727 1.491 . S
C733 C732 1.400 . S
C733 C734 1.398 . S
C734 H722 0.950 . S
C734 C733 1.398 . S
C734 C735 1.391 . S
C735 H723 0.950 . S
C735 C731 1.393 . S
C735 C734 1.391 . S
H736 C744 0.950 . S
H737 C749 0.950 . S
H738 C746 0.950 . S
H739 C748 0.950 . S
H740 C750 0.950 . S
H741 C752 0.950 . S
H742 C754 0.950 . S
H743 C755 0.950 . S
C744 H736 0.950 . S
C744 C745 1.386 . S
C744 C746 1.391 . S
C745 C744 1.386 . S
C745 C749 1.393 . S
C746 H738 0.950 . S
C746 C744 1.391 . S
C746 C747 1.400 . S
C747 C746 1.400 . S
C747 C748 1.398 . S
C747 C753 1.491 . S
C748 H739 0.950 . S
C748 C747 1.398 . S
C748 C749 1.391 . S
C749 H737 0.950 . S
C749 C745 1.393 . S
C749 C748 1.391 . S
C750 H740 0.950 . S
C750 C751 1.386 . S
C750 C752 1.391 . S
C751 C750 1.386 . S
C751 C755 1.393 . S
C752 H741 0.950 . S
C752 C750 1.391 . S
C752 C753 1.400 . S
C753 C747 1.491 . S
C753 C752 1.400 . S
C753 C754 1.398 . S
C754 H742 0.950 . S
C754 C753 1.398 . S
C754 C755 1.391 . S
C755 H743 0.950 . S
C755 C751 1.393 . S
C755 C754 1.391 . S
H756 C764 0.950 . S
H757 C769 0.950 1_455 S
H758 C766 0.950 . S
H759 C768 0.950 . S
H760 C770 0.950 . S
H761 C772 0.950 . S
H762 C774 0.950 . S
H763 C775 0.950 . S
C764 H756 0.950 . S
C764 C765 1.390 . S
C764 C766 1.391 . S
C765 C764 1.390 . S
C765 C769 1.393 . S
C766 H758 0.950 . S
C766 C764 1.391 . S
C766 C767 1.400 . S
C767 C766 1.400 . S
C767 C768 1.398 . S
C767 C773 1.491 . S
C768 H759 0.950 . S
C768 C767 1.398 . S
C768 C769 1.391 . S
C769 H757 0.950 1_655 S
C769 C765 1.393 . S
C769 C768 1.391 . S
C770 H760 0.950 . S
C770 C771 1.386 . S
C770 C772 1.391 . S
C771 C770 1.386 . S
C771 C775 1.393 . S
C772 H761 0.950 . S
C772 C770 1.391 . S
C772 C773 1.400 . S
C773 C767 1.491 . S
C773 C772 1.400 . S
C773 C774 1.398 . S
C774 H762 0.950 . S
C774 C773 1.398 . S
C774 C775 1.391 . S
C775 H763 0.950 . S
C775 C771 1.393 . S
C775 C774 1.391 . S
H776 C784 0.950 . S
H777 C789 0.950 . S
H778 C786 0.950 . S
H779 C788 0.950 . S
H780 C790 0.950 . S
H781 C792 0.950 . S
H782 C794 0.950 . S
H783 C795 0.950 . S
C784 H776 0.950 . S
C784 C785 1.386 . S
C784 C786 1.391 . S
C785 C784 1.386 . S
C785 C789 1.393 . S
C786 H778 0.950 . S
C786 C784 1.391 . S
C786 C787 1.400 . S
C787 C786 1.400 . S
C787 C788 1.398 . S
C787 C793 1.491 . S
C788 H779 0.950 . S
C788 C787 1.398 . S
C788 C789 1.391 . S
C789 H777 0.950 . S
C789 C785 1.393 . S
C789 C788 1.391 . S
C790 H780 0.950 . S
C790 C791 1.386 . S
C790 C792 1.391 . S
C791 C790 1.386 . S
C791 C795 1.393 . S
C792 H781 0.950 . S
C792 C790 1.391 . S
C792 C793 1.400 . S
C793 C787 1.491 . S
C793 C792 1.400 . S
C793 C794 1.398 . S
C794 H782 0.950 . S
C794 C793 1.398 . S
C794 C795 1.391 . S
C795 H783 0.950 . S
C795 C791 1.393 . S
C795 C794 1.391 . S
H796 C804 0.950 . S
H797 C809 0.950 . S
H798 C806 0.950 . S
H799 C808 0.950 . S
H800 C810 0.950 . S
H801 C812 0.950 . S
H802 C814 0.950 . S
H803 C815 0.950 1_455 S
C804 H796 0.950 . S
C804 C805 1.386 . S
C804 C806 1.391 . S
C805 C804 1.386 . S
C805 C809 1.393 . S
C806 H798 0.950 . S
C806 C804 1.391 . S
C806 C807 1.400 . S
C807 C806 1.400 . S
C807 C808 1.398 . S
C807 C813 1.491 . S
C808 H799 0.950 . S
C808 C807 1.398 . S
C808 C809 1.391 . S
C809 H797 0.950 . S
C809 C805 1.393 . S
C809 C808 1.391 . S
C810 H800 0.950 . S
C810 C811 1.383 1_655 S
C810 C812 1.391 . S
C811 C810 1.383 1_455 S
C811 C815 1.392 1_455 S
C812 H801 0.950 . S
C812 C810 1.391 . S
C812 C813 1.400 . S
C813 C807 1.491 . S
C813 C812 1.400 . S
C813 C814 1.398 . S
C814 H802 0.950 . S
C814 C813 1.398 . S
C814 C815 1.391 . S
C815 H803 0.950 1_655 S
C815 C811 1.392 1_655 S
C815 C814 1.391 . S
H816 C824 0.950 . S
H817 C829 0.950 . S
H818 C826 0.950 . S
H819 C828 0.950 . S
H820 C830 0.950 . S
H821 C832 0.950 . S
H822 C834 0.950 . S
H823 C835 0.950 . S
C824 H816 0.950 . S
C824 C825 1.386 . S
C824 C826 1.391 . S
C825 C824 1.386 . S
C825 C829 1.393 . S
C826 H818 0.950 . S
C826 C824 1.391 . S
C826 C827 1.400 . S
C827 C826 1.400 . S
C827 C828 1.398 . S
C827 C833 1.491 . S
C828 H819 0.950 . S
C828 C827 1.398 . S
C828 C829 1.391 . S
C829 H817 0.950 . S
C829 C825 1.393 . S
C829 C828 1.391 . S
C830 H820 0.950 . S
C830 C831 1.386 . S
C830 C832 1.391 . S
C831 C830 1.386 . S
C831 C835 1.393 . S
C832 H821 0.950 . S
C832 C830 1.391 . S
C832 C833 1.400 . S
C833 C827 1.491 . S
C833 C832 1.400 . S
C833 C834 1.398 . S
C834 H822 0.950 . S
C834 C833 1.398 . S
C834 C835 1.391 . S
C835 H823 0.950 . S
C835 C831 1.393 . S
C835 C834 1.391 . S
H836 C844 0.950 1_655 S
H837 C849 0.950 . S
H838 C846 0.950 . S
H839 C848 0.950 . S
H840 C850 0.950 . S
H841 C852 0.950 . S
H842 C854 0.950 . S
H843 C855 0.950 . S
C844 H836 0.950 1_455 S
C844 C845 1.386 . S
C844 C846 1.391 . S
C845 C844 1.386 . S
C845 C849 1.393 . S
C846 H838 0.950 . S
C846 C844 1.391 . S
C846 C847 1.400 . S
C847 C846 1.400 . S
C847 C848 1.398 . S
C847 C853 1.491 . S
C848 H839 0.950 . S
C848 C847 1.398 . S
C848 C849 1.391 . S
C849 H837 0.950 . S
C849 C845 1.393 . S
C849 C848 1.391 . S
C850 H840 0.950 . S
C850 C851 1.386 . S
C850 C852 1.391 . S
C851 C850 1.386 . S
C851 C855 1.393 . S
C852 H841 0.950 . S
C852 C850 1.391 . S
C852 C853 1.400 . S
C853 C847 1.491 . S
C853 C852 1.400 . S
C853 C854 1.398 . S
C854 H842 0.950 . S
C854 C853 1.398 . S
C854 C855 1.391 . S
C855 H843 0.950 . S
C855 C851 1.393 . S
C855 C854 1.391 . S
H856 C864 0.950 . S
H857 C869 0.950 . S
H858 C866 0.950 . S
H859 C868 0.950 . S
H860 C870 0.950 . S
H861 C872 0.950 . S
H862 C874 0.950 . S
H863 C875 0.950 . S
C864 H856 0.950 . S
C864 C865 1.386 . S
C864 C866 1.391 . S
C865 C864 1.386 . S
C865 C869 1.393 . S
C866 H858 0.950 . S
C866 C864 1.391 . S
C866 C867 1.400 . S
C867 C866 1.400 . S
C867 C868 1.398 . S
C867 C873 1.491 . S
C868 H859 0.950 . S
C868 C867 1.398 . S
C868 C869 1.391 . S
C869 H857 0.950 . S
C869 C865 1.393 . S
C869 C868 1.391 . S
C870 H860 0.950 . S
C870 C871 1.386 . S
C870 C872 1.391 . S
C871 C870 1.386 . S
C871 C875 1.393 . S
C872 H861 0.950 . S
C872 C870 1.391 . S
C872 C873 1.400 . S
C873 C867 1.491 . S
C873 C872 1.400 . S
C873 C874 1.398 . S
C874 H862 0.950 . S
C874 C873 1.398 . S
C874 C875 1.391 . S
C875 H863 0.950 . S
C875 C871 1.393 . S
C875 C874 1.391 . S
H876 C884 0.950 . S
H877 C889 0.950 . S
H878 C886 0.950 . S
H879 C888 0.950 . S
H880 C890 0.950 . S
H881 C892 0.950 . S
H882 C894 0.950 . S
H883 C895 0.950 . S
C884 H876 0.950 . S
C884 C885 1.386 . S
C884 C886 1.391 . S
C885 C884 1.386 . S
C885 C889 1.393 . S
C886 H878 0.950 . S
C886 C884 1.391 . S
C886 C887 1.400 . S
C887 C886 1.400 . S
C887 C888 1.398 . S
C887 C893 1.491 . S
C888 H879 0.950 . S
C888 C887 1.398 . S
C888 C889 1.391 . S
C889 H877 0.950 . S
C889 C885 1.393 . S
C889 C888 1.391 . S
C890 H880 0.950 . S
C890 C891 1.386 . S
C890 C892 1.391 . S
C891 C890 1.386 . S
C891 C895 1.393 . S
C892 H881 0.950 . S
C892 C890 1.391 . S
C892 C893 1.400 . S
C893 C887 1.491 . S
C893 C892 1.400 . S
C893 C894 1.398 . S
C894 H882 0.950 . S
C894 C893 1.398 . S
C894 C895 1.391 . S
C895 H883 0.950 . S
C895 C891 1.393 . S
C895 C894 1.391 . S
H896 C904 0.950 . S
H897 C909 0.950 . S
H898 C906 0.950 . S
H899 C908 0.950 . S
H900 C910 0.950 . S
H901 C912 0.950 . S
H902 C914 0.950 . S
H903 C915 0.950 . S
C904 H896 0.950 . S
C904 C905 1.386 . S
C904 C906 1.391 . S
C905 C904 1.386 . S
C905 C909 1.393 . S
C906 H898 0.950 . S
C906 C904 1.391 . S
C906 C907 1.400 . S
C907 C906 1.400 . S
C907 C908 1.398 . S
C907 C913 1.491 . S
C908 H899 0.950 . S
C908 C907 1.398 . S
C908 C909 1.391 . S
C909 H897 0.950 . S
C909 C905 1.393 . S
C909 C908 1.391 . S
C910 H900 0.950 . S
C910 C911 1.386 . S
C910 C912 1.391 . S
C911 C910 1.386 . S
C911 C915 1.393 . S
C912 H901 0.950 . S
C912 C910 1.391 . S
C912 C913 1.400 . S
C913 C907 1.491 . S
C913 C912 1.400 . S
C913 C914 1.398 . S
C914 H902 0.950 . S
C914 C913 1.398 . S
C914 C915 1.391 . S
C915 H903 0.950 . S
C915 C911 1.393 . S
C915 C914 1.391 . S
H916 C924 0.950 . S
H917 C929 0.950 . S
H918 C926 0.950 . S
H919 C928 0.950 . S
H920 C930 0.950 1_455 S
H921 C932 0.950 . S
H922 C934 0.950 . S
H923 C935 0.950 . S
C924 H916 0.950 . S
C924 C925 1.386 . S
C924 C926 1.391 . S
C925 C924 1.386 . S
C925 C929 1.393 . S
C926 H918 0.950 . S
C926 C924 1.391 . S
C926 C927 1.400 . S
C927 C926 1.400 . S
C927 C928 1.398 . S
C927 C933 1.491 . S
C928 H919 0.950 . S
C928 C927 1.398 . S
C928 C929 1.391 . S
C929 H917 0.950 . S
C929 C925 1.393 . S
C929 C928 1.391 . S
C930 H920 0.950 1_655 S
C930 C931 1.386 . S
C930 C932 1.391 . S
C931 C930 1.386 . S
C931 C935 1.403 . S
C932 H921 0.950 . S
C932 C930 1.391 . S
C932 C933 1.400 . S
C933 C927 1.491 . S
C933 C932 1.400 . S
C933 C934 1.398 . S
C934 H922 0.950 . S
C934 C933 1.398 . S
C934 C935 1.391 . S
C935 H923 0.950 . S
C935 C931 1.403 . S
C935 C934 1.391 . S
H936 C944 0.950 . S
H937 C949 0.950 . S
H938 C946 0.950 . S
H939 C948 0.950 . S
H940 C950 0.950 . S
H941 C952 0.950 . S
H942 C954 0.950 . S
H943 C955 0.950 . S
C944 H936 0.950 . S
C944 C945 1.386 . S
C944 C946 1.391 . S
C945 C944 1.386 . S
C945 C949 1.393 . S
C946 H938 0.950 . S
C946 C944 1.391 . S
C946 C947 1.400 . S
C947 C946 1.400 . S
C947 C948 1.398 . S
C947 C953 1.491 . S
C948 H939 0.950 . S
C948 C947 1.398 . S
C948 C949 1.391 . S
C949 H937 0.950 . S
C949 C945 1.393 . S
C949 C948 1.391 . S
C950 H940 0.950 . S
C950 C951 1.386 . S
C950 C952 1.391 . S
C951 C950 1.386 . S
C951 C955 1.393 . S
C952 H941 0.950 . S
C952 C950 1.391 . S
C952 C953 1.400 . S
C953 C947 1.491 . S
C953 C952 1.400 . S
C953 C954 1.398 . S
C954 H942 0.950 . S
C954 C953 1.398 . S
C954 C955 1.391 . S
C955 H943 0.950 . S
C955 C951 1.393 . S
C955 C954 1.391 . S
H956 C964 0.950 . S
H957 C969 0.950 . S
H958 C966 0.950 . S
H959 C968 0.950 . S
H960 C970 0.950 1_455 S
H961 C972 0.950 . S
H962 C974 0.950 . S
H963 C975 0.950 . S
C964 H956 0.950 . S
C964 C965 1.386 . S
C964 C966 1.391 . S
C965 C964 1.386 . S
C965 C969 1.393 . S
C966 H958 0.950 . S
C966 C964 1.391 . S
C966 C967 1.400 . S
C967 C966 1.400 . S
C967 C968 1.398 . S
C967 C973 1.491 . S
C968 H959 0.950 . S
C968 C967 1.398 . S
C968 C969 1.391 . S
C969 H957 0.950 . S
C969 C965 1.393 . S
C969 C968 1.391 . S
C970 H960 0.950 1_655 S
C970 C971 1.386 . S
C970 C972 1.391 . S
C971 C970 1.386 . S
C971 C975 1.393 . S
C972 H961 0.950 . S
C972 C970 1.391 . S
C972 C973 1.400 . S
C973 C967 1.491 . S
C973 C972 1.400 . S
C973 C974 1.398 . S
C974 H962 0.950 . S
C974 C973 1.398 . S
C974 C975 1.391 . S
C975 H963 0.950 . S
C975 C971 1.393 . S
C975 C974 1.391 . S
H976 C984 0.950 . S
H977 C989 0.950 . S
H978 C986 0.950 . S
H979 C988 0.950 . S
H980 C990 0.950 . S
H981 C992 0.950 . S
H982 C994 0.950 . S
H983 C995 0.950 . S
C984 H976 0.950 . S
C984 C985 1.386 . S
C984 C986 1.391 . S
C985 C984 1.386 . S
C985 C989 1.393 . S
C986 H978 0.950 . S
C986 C984 1.391 . S
C986 C987 1.400 . S
C987 C986 1.400 . S
C987 C988 1.398 . S
C987 C993 1.491 . S
C988 H979 0.950 . S
C988 C987 1.398 . S
C988 C989 1.391 . S
C989 H977 0.950 . S
C989 C985 1.393 . S
C989 C988 1.391 . S
C990 H980 0.950 . S
C990 C991 1.386 . S
C990 C992 1.391 . S
C991 C990 1.386 . S
C991 C995 1.393 . S
C992 H981 0.950 . S
C992 C990 1.391 . S
C992 C993 1.400 . S
C993 C987 1.491 . S
C993 C992 1.400 . S
C993 C994 1.398 . S
C994 H982 0.950 . S
C994 C993 1.398 . S
C994 C995 1.391 . S
C995 H983 0.950 . S
C995 C991 1.393 . S
C995 C994 1.391 . S
H996 C1004 0.950 . S
H997 C1009 0.950 . S
H998 C1006 0.950 . S
H999 C1008 0.950 . S
H1000 C1010 0.950 1_655 S
H1001 C1012 0.950 . S
H1002 C1014 0.950 . S
H1003 C1015 0.950 . S
C1004 H996 0.950 . S
C1004 C1005 1.386 . S
C1004 C1006 1.391 . S
C1005 C1004 1.386 . S
C1005 C1009 1.393 . S
C1006 H998 0.950 . S
C1006 C1004 1.391 . S
C1006 C1007 1.400 . S
C1007 C1006 1.400 . S
C1007 C1008 1.398 . S
C1007 C1013 1.491 . S
C1008 H999 0.950 . S
C1008 C1007 1.398 . S
C1008 C1009 1.391 . S
C1009 H997 0.950 . S
C1009 C1005 1.393 . S
C1009 C1008 1.391 . S
C1010 H1000 0.950 1_455 S
C1010 C1011 1.386 . S
C1010 C1012 1.391 . S
C1011 C1010 1.386 . S
C1011 C1015 1.393 . S
C1012 H1001 0.950 . S
C1012 C1010 1.391 . S
C1012 C1013 1.400 . S
C1013 C1007 1.491 . S
C1013 C1012 1.400 . S
C1013 C1014 1.398 . S
C1014 H1002 0.950 . S
C1014 C1013 1.398 . S
C1014 C1015 1.391 . S
C1015 H1003 0.950 . S
C1015 C1011 1.393 . S
C1015 C1014 1.391 . S
H1016 C1024 0.950 . S
H1017 C1029 0.950 . S
H1018 C1026 0.950 . S
H1019 C1028 0.950 . S
H1020 C1030 0.950 . S
H1021 C1032 0.950 . S
H1022 C1034 0.950 . S
H1023 C1035 0.950 . S
C1024 H1016 0.950 . S
C1024 C1025 1.386 . S
C1024 C1026 1.391 . S
C1025 C1024 1.386 . S
C1025 C1029 1.393 . S
C1026 H1018 0.950 . S
C1026 C1024 1.391 . S
C1026 C1027 1.400 . S
C1027 C1026 1.400 . S
C1027 C1028 1.398 . S
C1027 C1033 1.491 . S
C1028 H1019 0.950 . S
C1028 C1027 1.398 . S
C1028 C1029 1.391 . S
C1029 H1017 0.950 . S
C1029 C1025 1.393 . S
C1029 C1028 1.391 . S
C1030 H1020 0.950 . S
C1030 C1031 1.386 . S
C1030 C1032 1.391 . S
C1031 C1030 1.386 . S
C1031 C1035 1.393 . S
C1032 H1021 0.950 . S
C1032 C1030 1.391 . S
C1032 C1033 1.400 . S
C1033 C1027 1.491 . S
C1033 C1032 1.400 . S
C1033 C1034 1.398 . S
C1034 H1022 0.950 . S
C1034 C1033 1.398 . S
C1034 C1035 1.391 . S
C1035 H1023 0.950 . S
C1035 C1031 1.393 . S
C1035 C1034 1.391 . S
H1036 C1044 0.950 . S
H1037 C1049 0.950 1_655 S
H1038 C1046 0.950 . S
H1039 C1048 0.950 . S
H1040 C1050 0.950 . S
H1041 C1052 0.950 . S
H1042 C1054 0.950 . S
H1043 C1055 0.950 . S
C1044 H1036 0.950 . S
C1044 C1045 1.386 . S
C1044 C1046 1.391 . S
C1045 C1044 1.386 . S
C1045 C1049 1.393 . S
C1046 H1038 0.950 . S
C1046 C1044 1.391 . S
C1046 C1047 1.400 . S
C1047 C1046 1.400 . S
C1047 C1048 1.398 . S
C1047 C1053 1.491 . S
C1048 H1039 0.950 . S
C1048 C1047 1.398 . S
C1048 C1049 1.391 . S
C1049 H1037 0.950 1_455 S
C1049 C1045 1.393 . S
C1049 C1048 1.391 . S
C1050 H1040 0.950 . S
C1050 C1051 1.386 . S
C1050 C1052 1.391 . S
C1051 C1050 1.386 . S
C1051 C1055 1.393 . S
C1052 H1041 0.950 . S
C1052 C1050 1.391 . S
C1052 C1053 1.400 . S
C1053 C1047 1.491 . S
C1053 C1052 1.400 . S
C1053 C1054 1.398 . S
C1054 H1042 0.950 . S
C1054 C1053 1.398 . S
C1054 C1055 1.391 . S
C1055 H1043 0.950 . S
C1055 C1051 1.393 . S
C1055 C1054 1.391 . S
H1056 C1064 0.950 1_455 S
H1057 C1069 0.950 . S
H1058 C1066 0.950 . S
H1059 C1068 0.950 . S
H1060 C1070 0.950 1_655 S
H1061 C1072 0.950 . S
H1062 C1074 0.950 . S
H1063 C1075 0.950 . S
C1064 H1056 0.950 1_655 S
C1064 C1065 1.385 . S
C1064 C1066 1.391 1_655 S
C1065 C1064 1.385 . S
C1065 C1069 1.393 . S
C1066 H1058 0.950 . S
C1066 C1064 1.391 1_455 S
C1066 C1067 1.400 1_455 S
C1067 C1066 1.400 1_655 S
C1067 C1068 1.398 . S
C1067 C1073 1.491 1_655 S
C1068 H1059 0.950 . S
C1068 C1067 1.398 . S
C1068 C1069 1.391 . S
C1069 H1057 0.950 . S
C1069 C1065 1.393 . S
C1069 C1068 1.391 . S
C1070 H1060 0.950 1_455 S
C1070 C1071 1.385 . S
C1070 C1072 1.391 1_455 S
C1071 C1070 1.385 . S
C1071 C1075 1.393 . S
C1072 H1061 0.950 . S
C1072 C1070 1.391 1_655 S
C1072 C1073 1.400 1_655 S
C1073 C1067 1.491 1_455 S
C1073 C1072 1.400 1_455 S
C1073 C1074 1.398 . S
C1074 H1062 0.950 . S
C1074 C1073 1.398 . S
C1074 C1075 1.391 . S
C1075 H1063 0.950 . S
C1075 C1071 1.393 . S
C1075 C1074 1.391 . S
H1076 C1084 0.950 . S
H1077 C1089 0.950 . S
H1078 C1086 0.950 . S
H1079 C1088 0.950 . S
H1080 C1090 0.950 . S
H1081 C1092 0.950 . S
H1082 C1094 0.950 . S
H1083 C1095 0.950 . S
C1084 H1076 0.950 . S
C1084 C1085 1.386 . S
C1084 C1086 1.391 . S
C1085 C1084 1.386 . S
C1085 C1089 1.393 . S
C1086 H1078 0.950 . S
C1086 C1084 1.391 . S
C1086 C1087 1.400 . S
C1087 C1086 1.400 . S
C1087 C1088 1.398 . S
C1087 C1093 1.491 1_565 S
C1088 H1079 0.950 . S
C1088 C1087 1.398 . S
C1088 C1089 1.391 . S
C1089 H1077 0.950 . S
C1089 C1085 1.393 . S
C1089 C1088 1.391 . S
C1090 H1080 0.950 . S
C1090 C1091 1.386 . S
C1090 C1092 1.391 . S
C1091 C1090 1.386 . S
C1091 C1095 1.393 . S
C1092 H1081 0.950 . S
C1092 C1090 1.391 . S
C1092 C1093 1.400 . S
C1093 C1087 1.491 1_545 S
C1093 C1092 1.400 . S
C1093 C1094 1.398 . S
C1094 H1082 0.950 . S
C1094 C1093 1.398 . S
C1094 C1095 1.391 . S
C1095 H1083 0.950 . S
C1095 C1091 1.393 . S
C1095 C1094 1.391 . S
H1096 C1104 0.950 . S
H1097 C1109 0.950 . S
H1098 C1106 0.950 . S
H1099 C1108 0.950 1_455 S
H1100 C1110 0.950 . S
H1101 C1112 0.950 . S
H1102 C1114 0.950 1_655 S
H1103 C1115 0.950 . S
C1104 H1096 0.950 . S
C1104 C1105 1.386 1_556 S
C1104 C1106 1.391 . S
C1105 C1104 1.386 1_554 S
C1105 C1109 1.393 . S
C1106 H1098 0.950 . S
C1106 C1104 1.391 . S
C1106 C1107 1.400 1_556 S
C1107 C1106 1.400 1_554 S
C1107 C1108 1.398 . S
C1107 C1113 1.491 1_644 S
C1108 H1099 0.950 1_655 S
C1108 C1107 1.398 . S
C1108 C1109 1.391 . S
C1109 H1097 0.950 . S
C1109 C1105 1.393 . S
C1109 C1108 1.391 . S
C1110 H1100 0.950 . S
C1110 C1111 1.386 1_554 S
C1110 C1112 1.391 . S
C1111 C1110 1.386 1_556 S
C1111 C1115 1.393 . S
C1112 H1101 0.950 . S
C1112 C1110 1.391 . S
C1112 C1113 1.400 1_554 S
C1113 C1107 1.491 1_466 S
C1113 C1112 1.400 1_556 S
C1113 C1114 1.398 . S
C1114 H1102 0.950 1_455 S
C1114 C1113 1.398 . S
C1114 C1115 1.391 . S
C1115 H1103 0.950 . S
C1115 C1111 1.393 . S
C1115 C1114 1.391 . S
H1116 C1124 0.950 1_556 S
H1117 C1129 0.950 . S
H1118 C1126 0.950 . S
H1119 C1128 0.950 . S
H1120 C1130 0.950 1_554 S
H1121 C1132 0.950 . S
H1122 C1134 0.950 . S
H1123 C1135 0.950 . S
C1124 H1116 0.950 1_554 S
C1124 C1125 1.386 . S
C1124 C1126 1.391 1_554 S
C1125 C1124 1.386 . S
C1125 C1129 1.393 . S
C1126 H1118 0.950 . S
C1126 C1124 1.391 1_556 S
C1126 C1127 1.400 1_556 S
C1127 C1126 1.400 1_554 S
C1127 C1128 1.398 . S
C1127 C1133 1.491 1_554 S
C1128 H1119 0.950 . S
C1128 C1127 1.398 . S
C1128 C1129 1.391 . S
C1129 H1117 0.950 . S
C1129 C1125 1.393 . S
C1129 C1128 1.391 . S
C1130 H1120 0.950 1_556 S
C1130 C1131 1.386 . S
C1130 C1132 1.391 1_556 S
C1131 C1130 1.386 . S
C1131 C1135 1.393 . S
C1132 H1121 0.950 . S
C1132 C1130 1.391 1_554 S
C1132 C1133 1.400 1_554 S
C1133 C1127 1.491 1_556 S
C1133 C1132 1.400 1_556 S
C1133 C1134 1.398 . S
C1134 H1122 0.950 . S
C1134 C1133 1.398 . S
C1134 C1135 1.391 . S
C1135 H1123 0.950 . S
C1135 C1131 1.393 . S
C1135 C1134 1.391 . S
H1136 C1144 0.950 1_455 S
H1137 C1149 0.950 . S
H1138 C1146 0.950 . S
H1139 C1148 0.950 . S
H1140 C1150 0.950 1_655 S
H1141 C1152 0.950 . S
H1142 C1154 0.950 . S
H1143 C1155 0.950 . S
C1144 H1136 0.950 1_655 S
C1144 C1145 1.386 . S
C1144 C1146 1.391 1_655 S
C1145 C1144 1.386 . S
C1145 C1149 1.393 . S
C1146 H1138 0.950 . S
C1146 C1144 1.391 1_455 S
C1146 C1147 1.400 1_455 S
C1147 C1146 1.400 1_655 S
C1147 C1148 1.398 . S
C1147 C1153 1.491 1_655 S
C1148 H1139 0.950 . S
C1148 C1147 1.398 . S
C1148 C1149 1.391 . S
C1149 H1137 0.950 . S
C1149 C1145 1.393 . S
C1149 C1148 1.391 . S
C1150 H1140 0.950 1_455 S
C1150 C1151 1.386 . S
C1150 C1152 1.391 1_455 S
C1151 C1150 1.386 . S
C1151 C1155 1.393 . S
C1152 H1141 0.950 . S
C1152 C1150 1.391 1_655 S
C1152 C1153 1.400 1_655 S
C1153 C1147 1.491 1_455 S
C1153 C1152 1.400 1_455 S
C1153 C1154 1.398 . S
C1154 H1142 0.950 . S
C1154 C1153 1.398 . S
C1154 C1155 1.391 . S
C1155 H1143 0.950 . S
C1155 C1151 1.393 . S
C1155 C1154 1.391 . S
H1156 C1164 0.950 . S
H1157 C1169 0.950 . S
H1158 C1166 0.950 . S
H1159 C1168 0.950 . S
H1160 C1170 0.950 . S
H1161 C1172 0.950 . S
H1162 C1174 0.950 . S
H1163 C1175 0.950 . S
C1164 H1156 0.950 . S
C1164 C1165 1.386 . S
C1164 C1166 1.391 . S
C1165 C1164 1.386 . S
C1165 C1169 1.393 . S
C1166 H1158 0.950 . S
C1166 C1164 1.391 . S
C1166 C1167 1.400 . S
C1167 C1166 1.400 . S
C1167 C1168 1.398 . S
C1167 C1173 1.491 1_565 S
C1168 H1159 0.950 . S
C1168 C1167 1.398 . S
C1168 C1169 1.391 . S
C1169 H1157 0.950 . S
C1169 C1165 1.393 . S
C1169 C1168 1.391 . S
C1170 H1160 0.950 . S
C1170 C1171 1.386 . S
C1170 C1172 1.391 . S
C1171 C1170 1.386 . S
C1171 C1175 1.393 . S
C1172 H1161 0.950 . S
C1172 C1170 1.391 . S
C1172 C1173 1.400 . S
C1173 C1167 1.491 1_545 S
C1173 C1172 1.400 . S
C1173 C1174 1.398 . S
C1174 H1162 0.950 . S
C1174 C1173 1.398 . S
C1174 C1175 1.391 . S
C1175 H1163 0.950 . S
C1175 C1171 1.393 . S
C1175 C1174 1.391 . S
H1176 C1184 0.950 . S
H1177 C1189 0.950 . S
H1178 C1186 0.950 . S
H1179 C1188 0.950 . S
H1180 C1190 0.950 . S
H1181 C1192 0.950 . S
H1182 C1194 0.950 . S
H1183 C1195 0.950 . S
C1184 H1176 0.950 . S
C1184 C1185 1.386 . S
C1184 C1186 1.391 . S
C1185 C1184 1.386 . S
C1185 C1189 1.393 . S
C1186 H1178 0.950 . S
C1186 C1184 1.391 . S
C1186 C1187 1.400 . S
C1187 C1186 1.400 . S
C1187 C1188 1.398 1_556 S
C1187 C1193 1.491 1_556 S
C1188 H1179 0.950 . S
C1188 C1187 1.398 1_554 S
C1188 C1189 1.391 1_554 S
C1189 H1177 0.950 . S
C1189 C1185 1.393 . S
C1189 C1188 1.391 1_556 S
C1190 H1180 0.950 . S
C1190 C1191 1.386 . S
C1190 C1192 1.391 . S
C1191 C1190 1.386 . S
C1191 C1195 1.393 . S
C1192 H1181 0.950 . S
C1192 C1190 1.391 . S
C1192 C1193 1.400 . S
C1193 C1187 1.491 1_554 S
C1193 C1192 1.400 . S
C1193 C1194 1.398 1_554 S
C1194 H1182 0.950 . S
C1194 C1193 1.398 1_556 S
C1194 C1195 1.391 1_556 S
C1195 H1183 0.950 . S
C1195 C1191 1.393 . S
C1195 C1194 1.391 1_554 S
H1196 C1204 0.950 . S
H1197 C1209 0.950 . S
H1198 C1206 0.950 . S
H1199 C1208 0.950 . S
H1200 C1210 0.950 . S
H1201 C1212 0.950 . S
H1202 C1214 0.950 . S
H1203 C1215 0.950 . S
C1204 H1196 0.950 . S
C1204 C1205 1.386 . S
C1204 C1206 1.391 . S
C1205 C1204 1.386 . S
C1205 C1209 1.393 . S
C1206 H1198 0.950 . S
C1206 C1204 1.391 . S
C1206 C1207 1.400 . S
C1207 C1206 1.400 . S
C1207 C1208 1.398 . S
C1207 C1213 1.491 . S
C1208 H1199 0.950 . S
C1208 C1207 1.398 . S
C1208 C1209 1.391 . S
C1209 H1197 0.950 . S
C1209 C1205 1.393 . S
C1209 C1208 1.391 . S
C1210 H1200 0.950 . S
C1210 C1211 1.386 . S
C1210 C1212 1.391 . S
C1211 C1210 1.386 . S
C1211 C1215 1.393 . S
C1212 H1201 0.950 . S
C1212 C1210 1.391 . S
C1212 C1213 1.400 . S
C1213 C1207 1.491 . S
C1213 C1212 1.400 . S
C1213 C1214 1.398 . S
C1214 H1202 0.950 . S
C1214 C1213 1.398 . S
C1214 C1215 1.391 . S
C1215 H1203 0.950 . S
C1215 C1211 1.393 . S
C1215 C1214 1.391 . S
H1216 C1224 0.950 . S
H1217 C1229 0.950 . S
H1218 C1226 0.963 . S
H1219 C1228 0.950 . S
H1220 C1230 0.950 . S
H1221 C1232 0.963 . S
H1222 C1234 0.950 . S
H1223 C1235 0.950 . S
C1224 H1216 0.950 . S
C1224 C1225 1.386 . S
C1224 C1226 1.383 1_455 S
C1225 C1224 1.386 . S
C1225 C1229 1.393 . S
C1226 H1218 0.963 . S
C1226 C1224 1.383 1_655 S
C1226 C1227 1.396 1_655 S
C1227 C1226 1.396 1_455 S
C1227 C1228 1.398 . S
C1227 C1233 1.491 1_455 S
C1228 H1219 0.950 . S
C1228 C1227 1.398 . S
C1228 C1229 1.391 . S
C1229 H1217 0.950 . S
C1229 C1225 1.393 . S
C1229 C1228 1.391 . S
C1230 H1220 0.950 . S
C1230 C1231 1.386 . S
C1230 C1232 1.383 1_655 S
C1231 C1230 1.386 . S
C1231 C1235 1.393 . S
C1232 H1221 0.963 . S
C1232 C1230 1.383 1_455 S
C1232 C1233 1.396 1_455 S
C1233 C1227 1.491 1_655 S
C1233 C1232 1.396 1_655 S
C1233 C1234 1.398 . S
C1234 H1222 0.950 . S
C1234 C1233 1.398 . S
C1234 C1235 1.391 . S
C1235 H1223 0.950 . S
C1235 C1231 1.393 . S
C1235 C1234 1.391 . S
H1236 C1244 0.950 . S
H1237 C1249 0.950 . S
H1238 C1246 0.950 . S
H1239 C1248 0.950 . S
H1240 C1250 0.950 . S
H1241 C1252 0.950 . S
H1242 C1254 0.950 . S
H1243 C1255 0.950 . S
C1244 H1236 0.950 . S
C1244 C1245 1.386 . S
C1244 C1246 1.391 . S
C1245 C1244 1.386 . S
C1245 C1249 1.393 . S
C1246 H1238 0.950 . S
C1246 C1244 1.391 . S
C1246 C1247 1.400 . S
C1247 C1246 1.400 . S
C1247 C1248 1.398 . S
C1247 C1253 1.491 . S
C1248 H1239 0.950 . S
C1248 C1247 1.398 . S
C1248 C1249 1.391 . S
C1249 H1237 0.950 . S
C1249 C1245 1.393 . S
C1249 C1248 1.391 . S
C1250 H1240 0.950 . S
C1250 C1251 1.386 . S
C1250 C1252 1.391 . S
C1251 C1250 1.386 . S
C1251 C1255 1.393 . S
C1252 H1241 0.950 . S
C1252 C1250 1.391 . S
C1252 C1253 1.400 . S
C1253 C1247 1.491 . S
C1253 C1252 1.400 . S
C1253 C1254 1.398 . S
C1254 H1242 0.950 . S
C1254 C1253 1.398 . S
C1254 C1255 1.391 . S
C1255 H1243 0.950 . S
C1255 C1251 1.393 . S
C1255 C1254 1.391 . S
H1256 C1264 0.950 . S
H1257 C1269 0.950 . S
H1258 C1266 0.950 . S
H1259 C1268 0.950 . S
H1260 C1270 0.950 . S
H1261 C1272 0.950 . S
H1262 C1274 0.950 . S
H1263 C1275 0.950 . S
C1264 H1256 0.950 . S
C1264 C1265 1.386 . S
C1264 C1266 1.391 . S
C1265 C1264 1.386 . S
C1265 C1269 1.393 . S
C1266 H1258 0.950 . S
C1266 C1264 1.391 . S
C1266 C1267 1.400 . S
C1267 C1266 1.400 . S
C1267 C1268 1.398 . S
C1267 C1273 1.491 . S
C1268 H1259 0.950 . S
C1268 C1267 1.398 . S
C1268 C1269 1.391 . S
C1269 H1257 0.950 . S
C1269 C1265 1.393 . S
C1269 C1268 1.391 . S
C1270 H1260 0.950 . S
C1270 C1271 1.386 . S
C1270 C1272 1.391 . S
C1271 C1270 1.386 . S
C1271 C1275 1.393 . S
C1272 H1261 0.950 . S
C1272 C1270 1.391 . S
C1272 C1273 1.400 . S
C1273 C1267 1.491 . S
C1273 C1272 1.400 . S
C1273 C1274 1.398 . S
C1274 H1262 0.950 . S
C1274 C1273 1.398 . S
C1274 C1275 1.391 . S
C1275 H1263 0.950 . S
C1275 C1271 1.393 . S
C1275 C1274 1.391 . S
H1276 C1284 0.950 . S
H1277 C1289 0.950 . S
H1278 C1286 0.950 . S
H1279 C1288 0.950 . S
H1280 C1290 0.950 . S
H1281 C1292 0.950 . S
H1282 C1294 0.950 . S
H1283 C1295 0.950 . S
C1284 H1276 0.950 . S
C1284 C1285 1.386 . S
C1284 C1286 1.391 . S
C1285 C1284 1.386 . S
C1285 C1289 1.393 . S
C1286 H1278 0.950 . S
C1286 C1284 1.391 . S
C1286 C1287 1.400 . S
C1287 C1286 1.400 . S
C1287 C1288 1.398 . S
C1287 C1293 1.491 . S
C1288 H1279 0.950 . S
C1288 C1287 1.398 . S
C1288 C1289 1.391 . S
C1289 H1277 0.950 . S
C1289 C1285 1.393 . S
C1289 C1288 1.391 . S
C1290 H1280 0.950 . S
C1290 C1291 1.386 . S
C1290 C1292 1.391 . S
C1291 C1290 1.386 . S
C1291 C1295 1.393 . S
C1292 H1281 0.950 . S
C1292 C1290 1.391 . S
C1292 C1293 1.400 . S
C1293 C1287 1.491 . S
C1293 C1292 1.400 . S
C1293 C1294 1.398 . S
C1294 H1282 0.950 . S
C1294 C1293 1.398 . S
C1294 C1295 1.391 . S
C1295 H1283 0.950 . S
C1295 C1291 1.393 . S
C1295 C1294 1.391 . S
H1296 C1304 0.950 . S
H1297 C1309 0.950 . S
H1298 C1306 0.950 . S
H1299 C1308 0.950 . S
H1300 C1310 0.950 . S
H1301 C1312 0.950 . S
H1302 C1314 0.950 . S
H1303 C1315 0.950 . S
C1304 H1296 0.950 . S
C1304 C1305 1.386 . S
C1304 C1306 1.391 . S
C1305 C1304 1.386 . S
C1305 C1309 1.393 . S
C1306 H1298 0.950 . S
C1306 C1304 1.391 . S
C1306 C1307 1.400 . S
C1307 C1306 1.400 . S
C1307 C1308 1.398 . S
C1307 C1313 1.491 . S
C1308 H1299 0.950 . S
C1308 C1307 1.398 . S
C1308 C1309 1.391 . S
C1309 H1297 0.950 . S
C1309 C1305 1.393 . S
C1309 C1308 1.391 . S
C1310 H1300 0.950 . S
C1310 C1311 1.386 . S
C1310 C1312 1.391 . S
C1311 C1310 1.386 . S
C1311 C1315 1.393 . S
C1312 H1301 0.950 . S
C1312 C1310 1.391 . S
C1312 C1313 1.400 . S
C1313 C1307 1.491 . S
C1313 C1312 1.400 . S
C1313 C1314 1.398 . S
C1314 H1302 0.950 . S
C1314 C1313 1.398 . S
C1314 C1315 1.391 . S
C1315 H1303 0.950 . S
C1315 C1311 1.393 . S
C1315 C1314 1.391 . S
H1316 C1324 0.950 . S
H1317 C1329 0.950 . S
H1318 C1326 0.950 . S
H1319 C1328 0.950 . S
H1320 C1330 0.950 . S
H1321 C1332 0.950 . S
H1322 C1334 0.950 . S
H1323 C1335 0.950 . S
C1324 H1316 0.950 . S
C1324 C1325 1.386 . S
C1324 C1326 1.391 . S
C1325 C1324 1.386 . S
C1325 C1329 1.393 . S
C1326 H1318 0.950 . S
C1326 C1324 1.391 . S
C1326 C1327 1.400 . S
C1327 C1326 1.400 . S
C1327 C1328 1.398 . S
C1327 C1333 1.491 1_545 S
C1328 H1319 0.950 . S
C1328 C1327 1.398 . S
C1328 C1329 1.391 . S
C1329 H1317 0.950 . S
C1329 C1325 1.393 . S
C1329 C1328 1.391 . S
C1330 H1320 0.950 . S
C1330 C1331 1.386 . S
C1330 C1332 1.391 . S
C1331 C1330 1.386 . S
C1331 C1335 1.393 . S
C1332 H1321 0.950 . S
C1332 C1330 1.391 . S
C1332 C1333 1.400 . S
C1333 C1327 1.491 1_565 S
C1333 C1332 1.400 . S
C1333 C1334 1.398 . S
C1334 H1322 0.950 . S
C1334 C1333 1.398 . S
C1334 C1335 1.391 . S
C1335 H1323 0.950 . S
C1335 C1331 1.393 . S
C1335 C1334 1.391 . S
H1336 C1344 0.950 . S
H1337 C1349 0.950 . S
H1338 C1346 0.950 . S
H1339 C1348 0.950 . S
H1340 C1350 0.950 . S
H1341 C1352 0.950 . S
H1342 C1354 0.950 . S
H1343 C1355 0.950 . S
C1344 H1336 0.950 . S
C1344 C1345 1.386 . S
C1344 C1346 1.391 . S
C1345 C1344 1.386 . S
C1345 C1349 1.393 . S
C1346 H1338 0.950 . S
C1346 C1344 1.391 . S
C1346 C1347 1.400 . S
C1347 C1346 1.400 . S
C1347 C1348 1.398 . S
C1347 C1353 1.491 . S
C1348 H1339 0.950 . S
C1348 C1347 1.398 . S
C1348 C1349 1.391 . S
C1349 H1337 0.950 . S
C1349 C1345 1.393 . S
C1349 C1348 1.391 . S
C1350 H1340 0.950 . S
C1350 C1351 1.386 . S
C1350 C1352 1.391 . S
C1351 C1350 1.386 . S
C1351 C1355 1.393 . S
C1352 H1341 0.950 . S
C1352 C1350 1.391 . S
C1352 C1353 1.400 . S
C1353 C1347 1.491 . S
C1353 C1352 1.400 . S
C1353 C1354 1.398 . S
C1354 H1342 0.950 . S
C1354 C1353 1.398 . S
C1354 C1355 1.391 . S
C1355 H1343 0.950 . S
C1355 C1351 1.393 . S
C1355 C1354 1.391 . S
H1356 C1364 0.950 . S
H1357 C1369 0.950 . S
H1358 C1366 0.950 . S
H1359 C1368 0.950 . S
H1360 C1370 0.950 . S
H1361 C1372 0.950 . S
H1362 C1374 0.950 . S
H1363 C1375 0.950 . S
C1364 H1356 0.950 . S
C1364 C1365 1.386 . S
C1364 C1366 1.391 . S
C1365 C1364 1.386 . S
C1365 C1369 1.393 . S
C1366 H1358 0.950 . S
C1366 C1364 1.391 . S
C1366 C1367 1.400 . S
C1367 C1366 1.400 . S
C1367 C1368 1.398 . S
C1367 C1373 1.491 1_556 S
C1368 H1359 0.950 . S
C1368 C1367 1.398 . S
C1368 C1369 1.391 . S
C1369 H1357 0.950 . S
C1369 C1365 1.393 . S
C1369 C1368 1.391 . S
C1370 H1360 0.950 . S
C1370 C1371 1.386 . S
C1370 C1372 1.391 . S
C1371 C1370 1.386 . S
C1371 C1375 1.393 . S
C1372 H1361 0.950 . S
C1372 C1370 1.391 . S
C1372 C1373 1.400 . S
C1373 C1367 1.491 1_554 S
C1373 C1372 1.400 . S
C1373 C1374 1.398 . S
C1374 H1362 0.950 . S
C1374 C1373 1.398 . S
C1374 C1375 1.391 . S
C1375 H1363 0.950 . S
C1375 C1371 1.393 . S
C1375 C1374 1.391 . S
H1376 C1384 0.950 . S
H1377 C1389 0.950 . S
H1378 C1386 0.950 . S
H1379 C1388 0.950 . S
H1380 C1390 0.950 . S
H1381 C1392 0.950 . S
H1382 C1394 0.950 . S
H1383 C1395 0.950 . S
C1384 H1376 0.950 . S
C1384 C1385 1.386 . S
C1384 C1386 1.391 . S
C1385 C1384 1.386 . S
C1385 C1389 1.393 . S
C1386 H1378 0.950 . S
C1386 C1384 1.391 . S
C1386 C1387 1.400 . S
C1387 C1386 1.400 . S
C1387 C1388 1.398 . S
C1387 C1393 1.491 . S
C1388 H1379 0.950 . S
C1388 C1387 1.398 . S
C1388 C1389 1.391 . S
C1389 H1377 0.950 . S
C1389 C1385 1.393 . S
C1389 C1388 1.391 . S
C1390 H1380 0.950 . S
C1390 C1391 1.386 . S
C1390 C1392 1.391 . S
C1391 C1390 1.386 . S
C1391 C1395 1.393 . S
C1392 H1381 0.950 . S
C1392 C1390 1.391 . S
C1392 C1393 1.400 . S
C1393 C1387 1.491 . S
C1393 C1392 1.400 . S
C1393 C1394 1.398 . S
C1394 H1382 0.950 . S
C1394 C1393 1.398 . S
C1394 C1395 1.391 . S
C1395 H1383 0.950 . S
C1395 C1391 1.393 . S
C1395 C1394 1.391 . S
H1396 C1404 0.950 . S
H1397 C1409 0.950 . S
H1398 C1406 0.950 . S
H1399 C1408 0.950 . S
H1400 C1410 0.950 . S
H1401 C1412 0.950 . S
H1402 C1414 0.950 . S
H1403 C1415 0.950 . S
C1404 H1396 0.950 . S
C1404 C1405 1.386 . S
C1404 C1406 1.391 . S
C1405 C1404 1.386 . S
C1405 C1409 1.393 . S
C1406 H1398 0.950 . S
C1406 C1404 1.391 . S
C1406 C1407 1.400 . S
C1407 C1406 1.400 . S
C1407 C1408 1.398 . S
C1407 C1413 1.491 . S
C1408 H1399 0.950 . S
C1408 C1407 1.398 . S
C1408 C1409 1.391 . S
C1409 H1397 0.950 . S
C1409 C1405 1.393 . S
C1409 C1408 1.391 . S
C1410 H1400 0.950 . S
C1410 C1411 1.386 . S
C1410 C1412 1.391 . S
C1411 C1410 1.386 . S
C1411 C1415 1.393 . S
C1412 H1401 0.950 . S
C1412 C1410 1.391 . S
C1412 C1413 1.400 . S
C1413 C1407 1.491 . S
C1413 C1412 1.400 . S
C1413 C1414 1.398 . S
C1414 H1402 0.950 . S
C1414 C1413 1.398 . S
C1414 C1415 1.391 . S
C1415 H1403 0.950 . S
C1415 C1411 1.393 . S
C1415 C1414 1.391 . S
H1416 C1424 0.950 . S
H1417 C1429 0.950 . S
H1418 C1426 0.950 . S
H1419 C1428 0.950 . S
H1420 C1430 0.950 . S
H1421 C1432 0.950 . S
H1422 C1434 0.950 . S
H1423 C1435 0.950 . S
C1424 H1416 0.950 . S
C1424 C1425 1.386 . S
C1424 C1426 1.391 . S
C1425 C1424 1.386 . S
C1425 C1429 1.393 . S
C1426 H1418 0.950 . S
C1426 C1424 1.391 . S
C1426 C1427 1.400 . S
C1427 C1426 1.400 . S
C1427 C1428 1.398 . S
C1427 C1433 1.491 . S
C1428 H1419 0.950 . S
C1428 C1427 1.398 . S
C1428 C1429 1.391 . S
C1429 H1417 0.950 . S
C1429 C1425 1.393 . S
C1429 C1428 1.391 . S
C1430 H1420 0.950 . S
C1430 C1431 1.386 . S
C1430 C1432 1.391 . S
C1431 C1430 1.386 . S
C1431 C1435 1.393 . S
C1432 H1421 0.950 . S
C1432 C1430 1.391 . S
C1432 C1433 1.400 . S
C1433 C1427 1.491 . S
C1433 C1432 1.400 . S
C1433 C1434 1.398 . S
C1434 H1422 0.950 . S
C1434 C1433 1.398 . S
C1434 C1435 1.391 . S
C1435 H1423 0.950 . S
C1435 C1431 1.393 . S
C1435 C1434 1.391 . S
H1436 C1444 0.950 . S
H1437 C1449 0.950 . S
H1438 C1446 0.950 . S
H1439 C1448 0.950 . S
H1440 C1450 0.950 . S
H1441 C1452 0.950 . S
H1442 C1454 0.950 . S
H1443 C1455 0.950 . S
C1444 H1436 0.950 . S
C1444 C1445 1.386 . S
C1444 C1446 1.391 . S
C1445 C1444 1.386 . S
C1445 C1449 1.393 . S
C1446 H1438 0.950 . S
C1446 C1444 1.391 . S
C1446 C1447 1.400 . S
C1447 C1446 1.400 . S
C1447 C1448 1.398 . S
C1447 C1453 1.491 . S
C1448 H1439 0.950 . S
C1448 C1447 1.398 . S
C1448 C1449 1.391 . S
C1449 H1437 0.950 . S
C1449 C1445 1.393 . S
C1449 C1448 1.391 . S
C1450 H1440 0.950 . S
C1450 C1451 1.386 . S
C1450 C1452 1.391 . S
C1451 C1450 1.386 . S
C1451 C1455 1.393 . S
C1452 H1441 0.950 . S
C1452 C1450 1.391 . S
C1452 C1453 1.400 . S
C1453 C1447 1.491 . S
C1453 C1452 1.400 . S
C1453 C1454 1.398 . S
C1454 H1442 0.950 . S
C1454 C1453 1.398 . S
C1454 C1455 1.391 . S
C1455 H1443 0.950 . S
C1455 C1451 1.393 . S
C1455 C1454 1.391 . S
H1456 C1464 0.950 . S
H1457 C1469 0.950 . S
H1458 C1466 0.950 . S
H1459 C1468 0.950 . S
H1460 C1470 0.950 . S
H1461 C1472 0.950 . S
H1462 C1474 0.950 . S
H1463 C1475 0.950 . S
C1464 H1456 0.950 . S
C1464 C1465 1.386 . S
C1464 C1466 1.391 . S
C1465 C1464 1.386 . S
C1465 C1469 1.393 . S
C1466 H1458 0.950 . S
C1466 C1464 1.391 . S
C1466 C1467 1.400 . S
C1467 C1466 1.400 . S
C1467 C1468 1.398 . S
C1467 C1473 1.491 . S
C1468 H1459 0.950 . S
C1468 C1467 1.398 . S
C1468 C1469 1.391 . S
C1469 H1457 0.950 . S
C1469 C1465 1.393 . S
C1469 C1468 1.391 . S
C1470 H1460 0.950 . S
C1470 C1471 1.386 . S
C1470 C1472 1.391 . S
C1471 C1470 1.386 . S
C1471 C1475 1.393 . S
C1472 H1461 0.950 . S
C1472 C1470 1.391 . S
C1472 C1473 1.400 . S
C1473 C1467 1.491 . S
C1473 C1472 1.400 . S
C1473 C1474 1.398 . S
C1474 H1462 0.950 . S
C1474 C1473 1.398 . S
C1474 C1475 1.391 . S
C1475 H1463 0.950 . S
C1475 C1471 1.393 . S
C1475 C1474 1.391 . S
H1476 C1484 0.950 . S
H1477 C1489 0.950 . S
H1478 C1486 0.950 . S
H1479 C1488 0.950 . S
H1480 C1490 0.950 . S
H1481 C1492 0.950 . S
H1482 C1494 0.950 . S
H1483 C1495 0.950 . S
C1484 H1476 0.950 . S
C1484 C1485 1.386 . S
C1484 C1486 1.391 . S
C1485 C1484 1.386 . S
C1485 C1489 1.393 . S
C1486 H1478 0.950 . S
C1486 C1484 1.391 . S
C1486 C1487 1.400 . S
C1487 C1486 1.400 . S
C1487 C1488 1.398 . S
C1487 C1493 1.491 . S
C1488 H1479 0.950 . S
C1488 C1487 1.398 . S
C1488 C1489 1.391 . S
C1489 H1477 0.950 . S
C1489 C1485 1.393 . S
C1489 C1488 1.391 . S
C1490 H1480 0.950 . S
C1490 C1491 1.386 . S
C1490 C1492 1.391 . S
C1491 C1490 1.386 . S
C1491 C1495 1.393 . S
C1492 H1481 0.950 . S
C1492 C1490 1.391 . S
C1492 C1493 1.400 . S
C1493 C1487 1.491 . S
C1493 C1492 1.400 . S
C1493 C1494 1.398 . S
C1494 H1482 0.950 . S
C1494 C1493 1.398 . S
C1494 C1495 1.391 . S
C1495 H1483 0.950 . S
C1495 C1491 1.393 . S
C1495 C1494 1.391 . S
H1496 C1504 0.950 . S
H1497 C1509 0.950 . S
H1498 C1506 0.950 . S
H1499 C1508 0.950 . S
H1500 C1510 0.950 . S
H1501 C1512 0.950 . S
H1502 C1514 0.950 . S
H1503 C1515 0.950 . S
C1504 H1496 0.950 . S
C1504 C1505 1.386 . S
C1504 C1506 1.391 . S
C1505 C1504 1.386 . S
C1505 C1509 1.393 . S
C1506 H1498 0.950 . S
C1506 C1504 1.391 . S
C1506 C1507 1.400 . S
C1507 C1506 1.400 . S
C1507 C1508 1.398 . S
C1507 C1513 1.491 . S
C1508 H1499 0.950 . S
C1508 C1507 1.398 . S
C1508 C1509 1.391 . S
C1509 H1497 0.950 . S
C1509 C1505 1.393 . S
C1509 C1508 1.391 . S
C1510 H1500 0.950 . S
C1510 C1511 1.386 . S
C1510 C1512 1.391 . S
C1511 C1510 1.386 . S
C1511 C1515 1.393 . S
C1512 H1501 0.950 . S
C1512 C1510 1.391 . S
C1512 C1513 1.400 . S
C1513 C1507 1.491 . S
C1513 C1512 1.400 . S
C1513 C1514 1.398 . S
C1514 H1502 0.950 . S
C1514 C1513 1.398 . S
C1514 C1515 1.391 . S
C1515 H1503 0.950 . S
C1515 C1511 1.393 . S
C1515 C1514 1.391 . S
H1516 C1524 0.950 . S
H1517 C1529 0.950 . S
H1518 C1526 0.950 . S
H1519 C1528 0.950 . S
H1520 C1530 0.950 . S
H1521 C1532 0.950 . S
H1522 C1534 0.950 . S
H1523 C1535 0.950 . S
C1524 H1516 0.950 . S
C1524 C1525 1.386 . S
C1524 C1526 1.391 . S
C1525 C1524 1.386 . S
C1525 C1529 1.393 . S
C1526 H1518 0.950 . S
C1526 C1524 1.391 . S
C1526 C1527 1.400 . S
C1527 C1526 1.400 . S
C1527 C1528 1.398 . S
C1527 C1533 1.491 . S
C1528 H1519 0.950 . S
C1528 C1527 1.398 . S
C1528 C1529 1.391 . S
C1529 H1517 0.950 . S
C1529 C1525 1.393 . S
C1529 C1528 1.391 . S
C1530 H1520 0.950 . S
C1530 C1531 1.386 . S
C1530 C1532 1.391 . S
C1531 C1530 1.386 . S
C1531 C1535 1.393 . S
C1532 H1521 0.950 . S
C1532 C1530 1.391 . S
C1532 C1533 1.400 . S
C1533 C1527 1.491 . S
C1533 C1532 1.400 . S
C1533 C1534 1.398 . S
C1534 H1522 0.950 . S
C1534 C1533 1.398 . S
C1534 C1535 1.391 . S
C1535 H1523 0.950 . S
C1535 C1531 1.393 . S
C1535 C1534 1.391 . S
H1536 C1544 0.950 . S
H1537 C1549 0.950 . S
H1538 C1546 0.950 . S
H1539 C1548 0.950 . S
H1540 C1550 0.950 . S
H1541 C1552 0.950 . S
H1542 C1554 0.950 . S
H1543 C1555 0.950 . S
C1544 H1536 0.950 . S
C1544 C1545 1.386 . S
C1544 C1546 1.391 . S
C1545 C1544 1.386 . S
C1545 C1549 1.393 . S
C1546 H1538 0.950 . S
C1546 C1544 1.391 . S
C1546 C1547 1.400 . S
C1547 C1546 1.400 . S
C1547 C1548 1.398 . S
C1547 C1553 1.491 . S
C1548 H1539 0.950 . S
C1548 C1547 1.398 . S
C1548 C1549 1.391 . S
C1549 H1537 0.950 . S
C1549 C1545 1.393 . S
C1549 C1548 1.391 . S
C1550 H1540 0.950 . S
C1550 C1551 1.386 . S
C1550 C1552 1.391 . S
C1551 C1550 1.386 . S
C1551 C1555 1.393 . S
C1552 H1541 0.950 . S
C1552 C1550 1.391 . S
C1552 C1553 1.400 . S
C1553 C1547 1.491 . S
C1553 C1552 1.400 . S
C1553 C1554 1.398 . S
C1554 H1542 0.950 . S
C1554 C1553 1.398 . S
C1554 C1555 1.391 . S
C1555 H1543 0.950 . S
C1555 C1551 1.393 . S
C1555 C1554 1.391 . S
H1556 C1564 0.950 . S
H1557 C1569 0.950 . S
H1558 C1566 0.950 . S
H1559 C1568 0.950 . S
H1560 C1570 0.950 . S
H1561 C1572 0.950 . S
H1562 C1574 0.950 . S
H1563 C1575 0.950 . S
C1564 H1556 0.950 . S
C1564 C1565 1.386 . S
C1564 C1566 1.391 . S
C1565 C1564 1.386 . S
C1565 C1569 1.393 . S
C1566 H1558 0.950 . S
C1566 C1564 1.391 . S
C1566 C1567 1.400 . S
C1567 C1566 1.400 . S
C1567 C1568 1.398 . S
C1567 C1573 1.491 . S
C1568 H1559 0.950 . S
C1568 C1567 1.398 . S
C1568 C1569 1.391 . S
C1569 H1557 0.950 . S
C1569 C1565 1.393 . S
C1569 C1568 1.391 . S
C1570 H1560 0.950 . S
C1570 C1571 1.386 . S
C1570 C1572 1.391 . S
C1571 C1570 1.386 . S
C1571 C1575 1.393 . S
C1572 H1561 0.950 . S
C1572 C1570 1.391 . S
C1572 C1573 1.400 . S
C1573 C1567 1.491 . S
C1573 C1572 1.400 . S
C1573 C1574 1.398 . S
C1574 H1562 0.950 . S
C1574 C1573 1.398 . S
C1574 C1575 1.391 . S
C1575 H1563 0.950 . S
C1575 C1571 1.393 . S
C1575 C1574 1.391 . S
H1576 C1584 0.950 . S
H1577 C1589 0.950 . S
H1578 C1586 0.950 . S
H1579 C1588 0.950 . S
H1580 C1590 0.950 . S
H1581 C1592 0.950 . S
H1582 C1594 0.950 . S
H1583 C1595 0.950 . S
C1584 H1576 0.950 . S
C1584 C1585 1.386 . S
C1584 C1586 1.391 . S
C1585 C1584 1.386 . S
C1585 C1589 1.393 . S
C1586 H1578 0.950 . S
C1586 C1584 1.391 . S
C1586 C1587 1.400 . S
C1587 C1586 1.400 . S
C1587 C1588 1.398 . S
C1587 C1593 1.491 . S
C1588 H1579 0.950 . S
C1588 C1587 1.398 . S
C1588 C1589 1.391 . S
C1589 H1577 0.950 . S
C1589 C1585 1.393 . S
C1589 C1588 1.391 . S
C1590 H1580 0.950 . S
C1590 C1591 1.386 . S
C1590 C1592 1.391 . S
C1591 C1590 1.386 . S
C1591 C1595 1.393 . S
C1592 H1581 0.950 . S
C1592 C1590 1.391 . S
C1592 C1593 1.400 . S
C1593 C1587 1.491 . S
C1593 C1592 1.400 . S
C1593 C1594 1.398 . S
C1594 H1582 0.950 . S
C1594 C1593 1.398 . S
C1594 C1595 1.391 . S
C1595 H1583 0.950 . S
C1595 C1591 1.393 . S
C1595 C1594 1.391 . S
H1596 C1604 0.950 . S
H1597 C1609 0.950 . S
H1598 C1606 0.950 . S
H1599 C1608 0.950 . S
H1600 C1610 0.950 . S
H1601 C1612 0.950 . S
H1602 C1614 0.950 . S
H1603 C1615 0.950 . S
C1604 H1596 0.950 . S
C1604 C1605 1.386 . S
C1604 C1606 1.391 . S
C1605 C1604 1.386 . S
C1605 C1609 1.393 . S
C1606 H1598 0.950 . S
C1606 C1604 1.391 . S
C1606 C1607 1.400 . S
C1607 C1606 1.400 . S
C1607 C1608 1.398 . S
C1607 C1613 1.491 . S
C1608 H1599 0.950 . S
C1608 C1607 1.398 . S
C1608 C1609 1.391 . S
C1609 H1597 0.950 . S
C1609 C1605 1.393 . S
C1609 C1608 1.391 . S
C1610 H1600 0.950 . S
C1610 C1611 1.386 . S
C1610 C1612 1.391 . S
C1611 C1610 1.386 . S
C1611 C1615 1.393 . S
C1612 H1601 0.950 . S
C1612 C1610 1.391 . S
C1612 C1613 1.400 . S
C1613 C1607 1.491 . S
C1613 C1612 1.400 . S
C1613 C1614 1.398 . S
C1614 H1602 0.950 . S
C1614 C1613 1.398 . S
C1614 C1615 1.391 . S
C1615 H1603 0.950 . S
C1615 C1611 1.393 . S
C1615 C1614 1.391 . S
H1616 C1624 0.950 . S
H1617 C1629 0.950 . S
H1618 C1626 0.950 . S
H1619 C1628 0.950 . S
H1620 C1630 0.950 . S
H1621 C1632 0.950 . S
H1622 C1634 0.950 . S
H1623 C1635 0.950 . S
C1624 H1616 0.950 . S
C1624 C1625 1.386 . S
C1624 C1626 1.391 . S
C1625 C1624 1.386 . S
C1625 C1629 1.393 . S
C1626 H1618 0.950 . S
C1626 C1624 1.391 . S
C1626 C1627 1.400 . S
C1627 C1626 1.400 . S
C1627 C1628 1.398 . S
C1627 C1633 1.491 . S
C1628 H1619 0.950 . S
C1628 C1627 1.398 . S
C1628 C1629 1.391 . S
C1629 H1617 0.950 . S
C1629 C1625 1.393 . S
C1629 C1628 1.391 . S
C1630 H1620 0.950 . S
C1630 C1631 1.386 . S
C1630 C1632 1.391 . S
C1631 C1630 1.386 . S
C1631 C1635 1.393 . S
C1632 H1621 0.950 . S
C1632 C1630 1.391 . S
C1632 C1633 1.400 . S
C1633 C1627 1.491 . S
C1633 C1632 1.400 . S
C1633 C1634 1.398 . S
C1634 H1622 0.950 . S
C1634 C1633 1.398 . S
C1634 C1635 1.391 . S
C1635 H1623 0.950 . S
C1635 C1631 1.393 . S
C1635 C1634 1.391 . S
H1636 C1644 0.950 . S
H1637 C1649 0.950 . S
H1638 C1646 0.950 . S
H1639 C1648 0.950 . S
H1640 C1650 0.950 . S
H1641 C1652 0.950 . S
H1642 C1654 0.950 . S
H1643 C1655 0.950 . S
C1644 H1636 0.950 . S
C1644 C1645 1.386 . S
C1644 C1646 1.391 . S
C1645 C1644 1.386 . S
C1645 C1649 1.393 . S
C1646 H1638 0.950 . S
C1646 C1644 1.391 . S
C1646 C1647 1.400 . S
C1647 C1646 1.400 . S
C1647 C1648 1.398 . S
C1647 C1653 1.491 . S
C1648 H1639 0.950 . S
C1648 C1647 1.398 . S
C1648 C1649 1.391 . S
C1649 H1637 0.950 . S
C1649 C1645 1.393 . S
C1649 C1648 1.391 . S
C1650 H1640 0.950 . S
C1650 C1651 1.386 . S
C1650 C1652 1.391 . S
C1651 C1650 1.386 . S
C1651 C1655 1.393 . S
C1652 H1641 0.950 . S
C1652 C1650 1.391 . S
C1652 C1653 1.400 . S
C1653 C1647 1.491 . S
C1653 C1652 1.400 . S
C1653 C1654 1.398 . S
C1654 H1642 0.950 . S
C1654 C1653 1.398 . S
C1654 C1655 1.391 . S
C1655 H1643 0.950 . S
C1655 C1651 1.393 . S
C1655 C1654 1.391 . S
H1656 C1664 0.950 . S
H1657 C1669 0.950 . S
H1658 C1666 0.950 . S
H1659 C1668 0.950 . S
H1660 C1670 0.950 . S
H1661 C1672 0.950 . S
H1662 C1674 0.950 . S
H1663 C1675 0.950 . S
C1664 H1656 0.950 . S
C1664 C1665 1.386 . S
C1664 C1666 1.391 . S
C1665 C1664 1.386 . S
C1665 C1669 1.393 . S
C1666 H1658 0.950 . S
C1666 C1664 1.391 . S
C1666 C1667 1.400 . S
C1667 C1666 1.400 . S
C1667 C1668 1.398 . S
C1667 C1673 1.491 . S
C1668 H1659 0.950 . S
C1668 C1667 1.398 . S
C1668 C1669 1.391 . S
C1669 H1657 0.950 . S
C1669 C1665 1.393 . S
C1669 C1668 1.391 . S
C1670 H1660 0.950 . S
C1670 C1671 1.386 . S
C1670 C1672 1.391 . S
C1671 C1670 1.386 . S
C1671 C1675 1.393 . S
C1672 H1661 0.950 . S
C1672 C1670 1.391 . S
C1672 C1673 1.400 . S
C1673 C1667 1.491 . S
C1673 C1672 1.400 . S
C1673 C1674 1.398 . S
C1674 H1662 0.950 . S
C1674 C1673 1.398 . S
C1674 C1675 1.391 . S
C1675 H1663 0.950 . S
C1675 C1671 1.393 . S
C1675 C1674 1.391 . S
H1676 C1684 0.950 . S
H1677 C1689 0.950 . S
H1678 C1686 0.950 . S
H1679 C1688 0.950 . S
H1680 C1690 0.950 . S
H1681 C1692 0.950 . S
H1682 C1694 0.950 . S
H1683 C1695 0.950 . S
C1684 H1676 0.950 . S
C1684 C1685 1.386 . S
C1684 C1686 1.391 . S
C1685 C1684 1.386 . S
C1685 C1689 1.393 . S
C1686 H1678 0.950 . S
C1686 C1684 1.391 . S
C1686 C1687 1.400 . S
C1687 C1686 1.400 . S
C1687 C1688 1.398 . S
C1687 C1693 1.491 . S
C1688 H1679 0.950 . S
C1688 C1687 1.398 . S
C1688 C1689 1.391 . S
C1689 H1677 0.950 . S
C1689 C1685 1.393 . S
C1689 C1688 1.391 . S
C1690 H1680 0.950 . S
C1690 C1691 1.386 . S
C1690 C1692 1.391 . S
C1691 C1690 1.386 . S
C1691 C1695 1.393 . S
C1692 H1681 0.950 . S
C1692 C1690 1.391 . S
C1692 C1693 1.400 . S
C1693 C1687 1.491 . S
C1693 C1692 1.400 . S
C1693 C1694 1.398 . S
C1694 H1682 0.950 . S
C1694 C1693 1.398 . S
C1694 C1695 1.391 . S
C1695 H1683 0.950 . S
C1695 C1691 1.393 . S
C1695 C1694 1.391 . S
C425 C134 1.362 . S
C431 C10 1.363 . S
C445 C17 1.361 . S
C451 C153 1.364 . S
C465 C36 1.362 . S
C471 C114 1.350 . S
C485 C127 1.365 . S
C491 C43 1.359 . S
C505 C192 1.351 . S
C511 C56 1.356 . S
C525 C75 1.353 . S
C531 C205 1.352 . S
C545 C166 1.365 . S
C551 C82 1.353 . S
C565 C173 1.350 . S
C571 C95 1.361 . S
C585 C348 1.351 . S
C591 C212 1.363 . S
C605 C355 1.352 . S
C611 C225 1.364 . S
C625 C322 1.350 . S
C631 C238 1.357 . S
C645 C251 1.350 . S
C651 C329 1.362 . S
C665 C394 1.355 . S
C671 C264 1.365 . S
C685 C407 1.363 . S
C691 C277 1.361 . S
C705 C290 1.363 . S
C711 C374 1.351 . S
C725 C303 1.364 . S
C731 C387 1.353 . S
C745 C257 1.325 . S
C751 C4 1.315 . S
C765 C23 1.313 1_655 S
C771 C244 1.327 . S
C785 C231 1.327 . S
C791 C30 1.320 . S
C805 C218 1.322 . S
C811 C49 1.330 . S
C825 C62 1.326 . S
C831 C309 1.317 . S
C845 C69 1.314 1_455 S
C851 C296 1.319 . S
C865 C283 1.314 . S
C871 C88 1.320 . S
C885 C101 1.316 1_455 S
C891 C270 1.316 . S
C905 C361 1.314 . S
C911 C108 1.319 . S
C925 C342 1.325 . S
C931 C121 1.305 1_655 S
C945 C335 1.320 . S
C951 C140 1.314 . S
C965 C316 1.318 . S
C971 C147 1.315 1_655 S
C985 C160 1.314 . S
C991 C413 1.322 . S
C1005 C400 1.314 . S
C1011 C179 1.320 1_455 S
C1025 C186 1.319 . S
C1031 C381 1.314 . S
C1045 C199 1.320 1_455 S
C1051 C368 1.314 . S
C1065 C159 1.367 . S
C1071 C3 1.367 . S
C1085 C18 1.367 . S
C1091 C278 1.367 . S
C1105 C83 1.362 . S
C1111 C29 1.362 . S
C1125 C408 1.358 . S
C1131 C44 1.358 . S
C1145 C57 1.366 . S
C1151 C107 1.366 . S
C1165 C226 1.367 . S
C1171 C68 1.367 . S
C1185 C356 1.368 . S
C1191 C96 1.368 . S
C1205 C380 1.362 . S
C1211 C120 1.362 . S
C1225 C135 1.354 . S
C1231 C185 1.354 . S
C1245 C304 1.354 . S
C1251 C146 1.354 . S
C1265 C330 1.353 . S
C1271 C174 1.353 . S
C1285 C198 1.360 . S
C1291 C252 1.360 . S
C1305 C213 1.356 . S
C1311 C367 1.356 . S
C1325 C291 1.357 . S
C1331 C239 1.357 . S
C1345 C315 1.368 . S
C1351 C265 1.368 . S
C1365 C341 1.352 . S
C1371 C395 1.352 . S
C1385 C5 1.273 . S
C1391 C42 1.270 . S
C1405 C31 1.271 . S
C1411 C16 1.273 . S
C1425 C55 1.272 . S
C1431 C94 1.273 . S
C1445 C70 1.262 . S
C1451 C81 1.270 . S
C1465 C109 1.265 . S
C1471 C148 1.260 . S
C1485 C122 1.272 . S
C1491 C133 1.265 . S
C1505 C161 1.262 . S
C1511 C200 1.260 . S
C1525 C187 1.259 . S
C1531 C172 1.264 . S
C1545 C250 1.269 . S
C1551 C211 1.273 . S
C1565 C237 1.268 . S
C1571 C224 1.261 . S
C1585 C302 1.262 . S
C1591 C263 1.260 . S
C1605 C289 1.273 . S
C1611 C276 1.271 . S
C1625 C354 1.272 . S
C1631 C317 1.272 . S
C1645 C343 1.272 . S
C1651 C328 1.272 . S
C1665 C369 1.264 . S
C1671 C406 1.272 . S
C1685 C393 1.272 . S
C1691 C382 1.265 . S
