# Generated by pormake.
# Topology smu, (6)-cn, num edge types: 1
# Building blocks:
#     Node 0, Type 0, BuildingBlock: GEDQOX_clean_sbu_0, # of connection points: 6
#     Node 1, Type 0, BuildingBlock: GEDQOX_clean_sbu_0, # of connection points: 6
#     Node 2, Type 0, BuildingBlock: GEDQOX_clean_sbu_0, # of connection points: 6
#     Node 3, Type 0, BuildingBlock: GEDQOX_clean_sbu_0, # of connection points: 6
#     Node 4, Type 0, BuildingBlock: GEDQOX_clean_sbu_0, # of connection points: 6
#     Node 5, Type 0, BuildingBlock: GEDQOX_clean_sbu_0, # of connection points: 6
#     Edge 6, Type (0, 0), BuildingBlock: FUNLAD_clean_linker_0, # of connection points: 2
#     Edge 7, Type (0, 0), BuildingBlock: FUNLAD_clean_linker_0, # of connection points: 2
#     Edge 8, Type (0, 0), BuildingBlock: FUNLAD_clean_linker_0, # of connection points: 2
#     Edge 9, Type (0, 0), BuildingBlock: FUNLAD_clean_linker_0, # of connection points: 2
#     Edge 10, Type (0, 0), BuildingBlock: FUNLAD_clean_linker_0, # of connection points: 2
#     Edge 11, Type (0, 0), BuildingBlock: FUNLAD_clean_linker_0, # of connection points: 2
#     Edge 12, Type (0, 0), BuildingBlock: FUNLAD_clean_linker_0, # of connection points: 2
#     Edge 13, Type (0, 0), BuildingBlock: FUNLAD_clean_linker_0, # of connection points: 2
#     Edge 14, Type (0, 0), BuildingBlock: FUNLAD_clean_linker_0, # of connection points: 2
#     Edge 15, Type (0, 0), BuildingBlock: FUNLAD_clean_linker_0, # of connection points: 2
#     Edge 16, Type (0, 0), BuildingBlock: FUNLAD_clean_linker_0, # of connection points: 2
#     Edge 17, Type (0, 0), BuildingBlock: FUNLAD_clean_linker_0, # of connection points: 2
#     Edge 18, Type (0, 0), BuildingBlock: FUNLAD_clean_linker_0, # of connection points: 2
#     Edge 19, Type (0, 0), BuildingBlock: FUNLAD_clean_linker_0, # of connection points: 2
#     Edge 20, Type (0, 0), BuildingBlock: FUNLAD_clean_linker_0, # of connection points: 2
#     Edge 21, Type (0, 0), BuildingBlock: FUNLAD_clean_linker_0, # of connection points: 2
#     Edge 22, Type (0, 0), BuildingBlock: FUNLAD_clean_linker_0, # of connection points: 2
#     Edge 23, Type (0, 0), BuildingBlock: FUNLAD_clean_linker_0, # of connection points: 2
# Relax obj value: 0.211
# Max RMSD: 0.306
# Mean RMSD: 0.306
data_MOF--net-smu--node1-GEDQOX_clean_sbu_0--edge1-FUNLAD_clean_linker_0
_symmetry_space_group_name_H-M    P1
_symmetry_Int_Tables_number       1
_symmetry_cell_setting            triclinic
loop_
_symmetry_equiv_pos_as_xyz
'x, y, z'
_cell_length_a     43.915964
_cell_length_b     43.742477
_cell_length_c     30.792196
_cell_angle_alpha  89.392933
_cell_angle_beta   90.440222
_cell_angle_gamma 119.83243
loop_
_atom_site_label
_atom_site_type_symbol
_atom_site_fract_x
_atom_site_fract_y
_atom_site_fract_z
_atom_type_partial_charge
Nd0 Nd 0.37278 0.13822 0.30675 0.0
Nd1 Nd 0.33444 0.06103 0.30996 0.0
C2 C 0.41165 0.20719 0.29302 0.0
C3 C 0.44248 0.24227 0.30223 0.0
C4 C 0.46953 0.25822 0.27147 0.0
C5 C 0.49553 0.29363 0.27536 0.0
C6 C 0.49505 0.31413 0.31 0.0
C7 C 0.46882 0.29773 0.34182 0.0
C8 C 0.44277 0.26227 0.33791 0.0
C9 C 0.35965 0.10812 0.3898 0.0
C10 C 0.41805 0.09696 0.30353 0.0
C11 C 0.2869 0.99457 0.32595 0.0
C12 C 0.24807 0.97586 0.32484 0.0
C13 C 0.22926 0.99082 0.34313 0.0
C14 C 0.19285 0.97481 0.33777 0.0
C15 C 0.17444 0.94356 0.31385 0.0
C16 C 0.19322 0.92813 0.29665 0.0
C17 C 0.22963 0.94413 0.30209 0.0
C18 C 0.35025 0.08589 0.22637 0.0
C19 C 0.29162 0.10474 0.3042 0.0
O20 O 0.41596 0.18388 0.27172 0.0
O21 O 0.38613 0.193 0.32128 0.0
O22 O 0.35474 0.13415 0.37946 0.0
O23 O 0.37076 0.0998 0.35749 0.0
O24 O 0.41641 0.12526 0.29171 0.0
O25 O 0.38999 0.06858 0.31885 0.0
O26 O 0.30225 1.01797 0.35647 0.0
O27 O 0.30242 1.00549 0.2884 0.0
O28 O 0.35456 0.06083 0.24255 0.0
O29 O 0.33875 0.09833 0.25497 0.0
O30 O 0.29254 0.07806 0.32337 0.0
O31 O 0.3198 0.12914 0.28481 0.0
H32 H 0.46985 0.24371 0.24335 0.0
H33 H 0.51563 0.30517 0.25063 0.0
H34 H 0.46742 0.31271 0.36874 0.0
H35 H 0.42207 0.25101 0.36192 0.0
H36 H 0.24275 1.0154 0.36067 0.0
H37 H 0.17932 0.9876 0.35108 0.0
H38 H 0.17979 0.9038 0.27859 0.0
H39 H 0.24353 0.93215 0.28761 0.0
Nd40 Nd 0.81452 0.68164 0.27842 0.0
Nd41 Nd 0.76976 0.71244 0.29122 0.0
C42 C 0.84963 0.64842 0.25974 0.0
C43 C 0.85807 0.62058 0.27223 0.0
C44 C 0.83214 0.58488 0.2757 0.0
C45 C 0.84161 0.55893 0.28287 0.0
C46 C 0.87719 0.56806 0.28658 0.0
C47 C 0.90289 0.60396 0.2844 0.0
C48 C 0.89343 0.62981 0.27726 0.0
C49 C 0.80472 0.69378 0.36455 0.0
C50 C 0.72941 0.62838 0.28518 0.0
C51 C 0.74518 0.75413 0.31482 0.0
C52 C 0.76144 0.79278 0.31875 0.0
C53 C 0.79558 0.81319 0.33548 0.0
C54 C 0.81189 0.85 0.33546 0.0
C55 C 0.79452 0.86726 0.31853 0.0
C56 C 0.76007 0.84664 0.30257 0.0
C57 C 0.74375 0.80981 0.30268 0.0
C58 C 0.77299 0.69848 0.20517 0.0
C59 C 0.85434 0.76274 0.27624 0.0
O60 O 0.81845 0.63922 0.24415 0.0
O61 O 0.8623 0.67652 0.28388 0.0
O62 O 0.83512 0.70237 0.34853 0.0
O63 O 0.78185 0.67979 0.33574 0.0
O64 O 0.75938 0.63369 0.26868 0.0
O65 O 0.727 0.65461 0.30267 0.0
O66 O 0.75538 0.73818 0.34257 0.0
O67 O 0.74245 0.7424 0.27536 0.0
O68 O 0.74439 0.69063 0.22583 0.0
O69 O 0.79937 0.71236 0.23053 0.0
O70 O 0.82771 0.75797 0.30067 0.0
O71 O 0.85112 0.73648 0.25284 0.0
H72 H 0.80464 0.5769 0.27199 0.0
H73 H 0.82102 0.53164 0.28497 0.0
H74 H 0.93052 0.6121 0.28642 0.0
H75 H 0.91397 0.65709 0.2743 0.0
H76 H 0.80994 0.80078 0.34799 0.0
H77 H 0.83819 0.86493 0.34862 0.0
H78 H 0.74603 0.85896 0.28878 0.0
H79 H 0.71755 0.79461 0.28924 0.0
Nd80 Nd 0.9051 0.2619 0.2804 0.0
Nd81 Nd 0.97498 0.27231 0.3017 0.0
C82 C 0.84272 0.24863 0.25115 0.0
C83 C 0.80437 0.22578 0.25442 0.0
C84 C 0.78322 0.22946 0.22295 0.0
C85 C 0.74669 0.20984 0.22587 0.0
C86 C 0.73032 0.18588 0.26037 0.0
C87 C 0.75169 0.18202 0.29186 0.0
C88 C 0.78847 0.20182 0.28888 0.0
C89 C 0.92086 0.26554 0.36846 0.0
C90 C 0.96319 0.33976 0.28973 0.0
C91 C 0.03688 0.28497 0.33136 0.0
C92 C 0.05587 0.26528 0.32722 0.0
C93 C 0.0814 0.26937 0.35783 0.0
C94 C 0.099 0.25016 0.354 0.0
C95 C 0.09134 0.22659 0.31939 0.0
C96 C 0.06533 0.22231 0.28918 0.0
C97 C 0.04773 0.24136 0.29314 0.0
C98 C 0.96259 0.26703 0.21349 0.0
C99 C 0.91381 0.19162 0.28849 0.0
O100 O 0.85887 0.26939 0.28382 0.0
O101 O 0.86078 0.23556 0.23361 0.0
O102 O 0.90658 0.2824 0.35086 0.0
O103 O 0.92588 0.24832 0.34013 0.0
O104 O 0.93935 0.31915 0.26171 0.0
O105 O 0.97743 0.32619 0.31618 0.0
O106 O 1.00828 0.26964 0.35465 0.0
O107 O 0.03286 0.29888 0.29551 0.0
O108 O 0.97546 0.25042 0.23499 0.0
O109 O 0.95474 0.2845 0.23914 0.0
O110 O 0.94518 0.21198 0.30541 0.0
O111 O 0.89478 0.20507 0.27312 0.0
H112 H 0.79502 0.24806 0.19635 0.0
H113 H 0.73129 0.21418 0.20153 0.0
H114 H 0.74 0.16368 0.31869 0.0
H115 H 0.80443 0.19869 0.31358 0.0
H116 H 0.08779 0.28747 0.38459 0.0
H117 H 0.11905 0.25427 0.37764 0.0
H118 H 0.05834 0.20399 0.26258 0.0
H119 H 0.0277 0.23736 0.26952 0.0
Nd120 Nd 0.07329 0.31467 0.79992 0.0
Nd121 Nd 0.14677 0.36836 0.78156 0.0
C122 C 1.01038 0.26918 0.83015 0.0
C123 C 0.99184 0.23051 0.83521 0.0
C124 C 1.01005 0.21296 0.84774 0.0
C125 C 0.99305 0.17612 0.84817 0.0
C126 C 0.95767 0.15616 0.83554 0.0
C127 C 0.93935 0.17382 0.82389 0.0
C128 C 0.95629 0.21066 0.82379 0.0
C129 C 0.08613 0.3232 0.71191 0.0
C130 C 0.12521 0.28643 0.77743 0.0
C131 C 0.2136 0.40717 0.75786 0.0
C132 C 0.24911 0.43615 0.76883 0.0
C133 C 0.2705 0.45799 0.73528 0.0
C134 C 0.30563 0.48297 0.74315 0.0
C135 C 0.32031 0.48677 0.78493 0.0
C136 C 0.29851 0.46538 0.81886 0.0
C137 C 0.26325 0.4403 0.81089 0.0
C138 C 0.12879 0.35554 0.86872 0.0
C139 C 0.09567 0.39853 0.79354 0.0
O140 O 0.03766 0.28715 0.85521 0.0
O141 O 1.01584 0.28083 0.79014 0.0
O142 O 0.06895 0.29307 0.73175 0.0
O143 O 0.09763 0.3482 0.73897 0.0
O144 O 0.09897 0.28028 0.80324 0.0
O145 O 0.1425 0.3169 0.75686 0.0
O146 O 0.18944 0.41489 0.7467 0.0
O147 O 0.20123 0.37804 0.78051 0.0
O148 O 0.14706 0.38707 0.85265 0.0
O149 O 0.12158 0.33337 0.83947 0.0
O150 O 0.12351 0.40374 0.77195 0.0
O151 O 0.0748 0.36799 0.81305 0.0
H152 H 0.03766 0.22768 0.85613 0.0
H153 H 1.00795 0.1633 0.85685 0.0
H154 H 0.91197 0.15914 0.81444 0.0
H155 H 0.94185 0.22367 0.81377 0.0
H156 H 0.2603 0.45497 0.70249 0.0
H157 H 0.32159 0.49849 0.71604 0.0
H158 H 0.30873 0.46786 0.85153 0.0
H159 H 0.24729 0.42369 0.83737 0.0
Nd160 Nd 0.27338 0.95715 0.78079 0.0
Nd161 Nd 0.24673 0.88631 0.81494 0.0
C162 C 0.28949 1.01692 0.7398 0.0
C163 C 0.28268 0.0462 0.74607 0.0
C164 C 0.25974 0.04433 0.77878 0.0
C165 C 0.2485 0.06911 0.78014 0.0
C166 C 0.26007 0.09629 0.74883 0.0
C167 C 0.28436 0.09889 0.71731 0.0
C168 C 0.29541 0.07393 0.71584 0.0
C169 C 0.24823 0.90087 0.70302 0.0
C170 C 0.19401 0.9164 0.81338 0.0
C171 C 0.22273 0.81933 0.83583 0.0
C172 C 0.21812 0.78394 0.82832 0.0
C173 C 0.20168 0.76483 0.7906 0.0
C174 C 0.19117 0.72897 0.78805 0.0
C175 C 0.19681 0.71147 0.82316 0.0
C176 C 0.21493 0.7312 0.85988 0.0
C177 C 0.22539 0.76699 0.86241 0.0
C178 C 0.26448 0.93718 0.87942 0.0
C179 C 0.32843 0.92889 0.78306 0.0
O180 O 0.31087 1.01393 0.76713 0.0
O181 O 0.2615 0.9868 0.73165 0.0
O182 O 0.25053 0.90597 0.7443 0.0
O183 O 0.25101 0.90712 0.74449 0.0
O184 O 0.22239 0.948 0.81411 0.0
O185 O 0.19643 0.88832 0.80475 0.0
O186 O 0.20609 0.83032 0.81038 0.0
O187 O 0.2528 0.84473 0.85016 0.0
O188 O 0.23728 0.90593 0.88074 0.0
O189 O 0.28227 0.94072 0.8462 0.0
O190 O 0.30024 0.89779 0.78932 0.0
O191 O 0.32668 0.95832 0.7833 0.0
H192 H 0.24933 0.0228 0.8021 0.0
H193 H 0.22952 0.06598 0.80455 0.0
H194 H 0.29432 0.1198 0.69319 0.0
H195 H 0.31293 0.07559 0.69018 0.0
H196 H 0.19566 0.77718 0.76377 0.0
H197 H 0.17786 0.71474 0.75897 0.0
H198 H 0.21945 0.71862 0.88771 0.0
H199 H 0.23762 0.78102 0.89205 0.0
Nd200 Nd 0.71937 0.75735 0.79177 0.0
Nd201 Nd 0.68866 0.80214 0.77484 0.0
C202 C 0.76254 0.73552 0.81972 0.0
C203 C 0.80105 0.75486 0.82614 0.0
C204 C 0.81831 0.78964 0.84167 0.0
C205 C 0.85499 0.80932 0.84277 0.0
C206 C 0.87527 0.79459 0.8288 0.0
C207 C 0.85792 0.75942 0.81451 0.0
C208 C 0.82118 0.73983 0.813 0.0
C209 C 0.70658 0.76 0.70487 0.0
C210 C 0.76949 0.84217 0.77445 0.0
C211 C 0.65475 0.83613 0.75212 0.0
C212 C 0.6244 0.84169 0.75949 0.0
C213 C 0.59082 0.81814 0.74311 0.0
C214 C 0.56381 0.82639 0.74463 0.0
C215 C 0.56968 0.85847 0.76233 0.0
C216 C 0.60292 0.88138 0.78012 0.0
C217 C 0.62993 0.87315 0.77855 0.0
C218 C 0.70068 0.79335 0.86196 0.0
C219 C 0.63582 0.71632 0.78282 0.0
O220 O 0.74409 0.74335 0.84578 0.0
O221 O 0.75198 0.73249 0.77944 0.0
O222 O 0.69901 0.73142 0.72634 0.0
O223 O 0.71981 0.78661 0.72969 0.0
O224 O 0.76439 0.81568 0.80006 0.0
O225 O 0.74344 0.83939 0.75062 0.0
O226 O 0.6493 0.80692 0.7339 0.0
O227 O 0.67974 0.84767 0.78125 0.0
O228 O 0.70955 0.82372 0.84458 0.0
O229 O 0.68652 0.77003 0.83378 0.0
O230 O 0.64113 0.74659 0.76628 0.0
O231 O 0.66179 0.71367 0.80118 0.0
H232 H 0.80351 0.80191 0.85227 0.0
H233 H 0.86749 0.83615 0.85449 0.0
H234 H 0.87276 0.74737 0.80319 0.0
H235 H 0.80849 0.71321 0.80056 0.0
H236 H 0.5856 0.79376 0.72796 0.0
H237 H 0.5384 0.8078 0.73128 0.0
H238 H 0.60861 0.90644 0.79362 0.0
H239 H 0.65562 0.8921 0.79088 0.0
C240 C 0.25624 0.95705 0.95258 0.0
C241 C 0.27634 0.96336 0.91481 0.0
C242 C 0.2687 0.98135 0.98672 0.0
C243 C 0.30154 1.01249 0.98365 0.0
C244 C 0.32113 0.01892 0.94542 0.0
C245 C 0.30862 0.99482 0.91133 0.0
C246 C 0.31793 0.03694 1.02092 0.0
C247 C 0.29987 0.03985 0.05437 0.0
C248 C 0.31697 0.05954 0.09498 0.0
C249 C 0.29819 0.06942 0.12297 0.0
C250 C 0.31088 0.08205 0.1648 0.0
C251 C 0.34234 0.08448 0.17952 0.0
H252 H 0.3649 0.05674 0.08911 0.0
C253 C 0.36222 0.0769 0.15065 0.0
C254 C 0.3498 0.06464 0.1089 0.0
H255 H 0.38631 0.07805 0.16149 0.0
H256 H 0.23125 0.93302 0.95611 0.0
H257 H 0.25315 0.97492 1.01598 0.0
H258 H 0.34658 0.04248 0.94217 0.0
H259 H 0.32465 1.00052 0.88253 0.0
H260 H 0.34635 0.05295 1.02071 0.0
H261 H 0.2714 0.02648 0.0528 0.0
H262 H 0.27279 0.06566 0.1133 0.0
H263 H 0.29469 0.08708 0.18669 0.0
C264 C 0.74884 0.78364 0.64266 0.0
C265 C 0.71465 0.76144 0.65819 0.0
C266 C 0.75858 0.77842 0.6012 0.0
C267 C 0.73404 0.75122 0.57446 0.0
C268 C 0.69932 0.73078 0.58914 0.0
C269 C 0.68989 0.73543 0.63077 0.0
C270 C 0.74337 0.74243 0.5317 0.0
C271 C 0.775 0.7458 0.52259 0.0
C272 C 0.78238 0.73195 0.48206 0.0
C273 C 0.81736 0.74487 0.46884 0.0
C274 C 0.82508 0.73204 0.43127 0.0
C275 C 0.79791 0.70586 0.4063 0.0
H276 H 0.72819 0.69296 0.46707 0.0
C277 C 0.76309 0.6923 0.42009 0.0
C278 C 0.75539 0.70496 0.45748 0.0
H279 H 0.74156 0.67185 0.40173 0.0
H280 H 0.76858 0.80354 0.66352 0.0
H281 H 0.78535 0.79523 0.59054 0.0
H282 H 0.67979 0.70986 0.56916 0.0
H283 H 0.66352 0.71769 0.64225 0.0
H284 H 0.7222 0.73021 0.50822 0.0
H285 H 0.79615 0.75829 0.54612 0.0
H286 H 0.83879 0.76526 0.48735 0.0
H287 H 0.85217 0.74307 0.42134 0.0
C288 C 0.98275 0.25719 0.14225 0.0
C289 C 0.97389 0.27792 0.16796 0.0
C290 C 0.99988 0.26988 0.10252 0.0
C291 C 1.00918 0.30403 0.0877 0.0
C292 C 0.99819 0.32381 0.11211 0.0
C293 C 0.98076 0.31095 0.15187 0.0
C294 C 0.03039 0.31973 0.04733 0.0
C295 C 0.05165 0.30878 1.0305 0.0
C296 C 0.07227 0.32269 0.98964 0.0
C297 C 0.08029 0.30023 0.96627 0.0
C298 C 0.09936 0.3115 0.9277 0.0
C299 C 0.11166 0.34585 0.91182 0.0
H300 H 0.08 0.37573 0.99183 0.0
C301 C 0.10473 0.36895 0.93565 0.0
C302 C 0.08497 0.3574 0.97416 0.0
H303 H 0.11374 0.39552 0.92395 0.0
H304 H 0.97743 0.23146 0.15358 0.0
H305 H 1.00606 0.25284 0.08396 0.0
H306 H 1.00432 0.34989 0.10124 0.0
H307 H 0.97432 0.3276 0.17098 0.0
H308 H 0.02882 0.34126 1.03166 0.0
H309 H 0.05355 0.28758 0.0465 0.0
H310 H 0.07114 0.27348 0.97745 0.0
H311 H 0.10419 0.29307 0.90995 0.0
C312 C 0.32972 0.09156 0.46344 0.0
C313 C 0.34732 0.0856 0.42945 0.0
C314 C 0.31581 0.06745 0.49839 0.0
C315 C 0.31874 0.03679 0.49918 0.0
C316 C 0.33694 0.03146 0.46572 0.0
C317 C 0.35162 0.05583 0.43186 0.0
C318 C 0.30115 1.00846 0.53234 0.0
C319 C 0.30375 1.0144 0.57537 0.0
C320 C 0.28938 0.98497 0.60778 0.0
C321 C 0.30832 0.9881 0.646 0.0
C322 C 0.29555 0.96064 0.67672 0.0
C323 C 0.26283 0.9301 0.67078 0.0
H324 H 0.24186 0.95051 0.57202 0.0
C325 C 0.24425 0.92658 0.63215 0.0
C326 C 0.25725 0.95375 0.60102 0.0
H327 H 0.2193 0.90297 0.62633 0.0
H328 H 0.32605 0.11427 0.46251 0.0
H329 H 0.30159 0.07199 0.52374 0.0
H330 H 0.33961 1.00813 0.46559 0.0
H331 H 0.36535 0.05054 0.40657 0.0
H332 H 0.28876 0.98145 0.52093 0.0
H333 H 0.31942 0.04124 0.58704 0.0
H334 H 0.33332 1.01163 0.65185 0.0
H335 H 0.31114 0.96348 0.70526 0.0
C336 C 0.69983 0.75244 0.91954 0.0
C337 C 0.71343 0.78713 0.90408 0.0
C338 C 0.71326 0.74528 0.95718 0.0
C339 C 0.74101 0.7727 0.9804 0.0
C340 C 0.75392 0.80757 0.96557 0.0
C341 C 0.74037 0.81474 0.92773 0.0
C342 C 0.75569 0.7659 1.02115 0.0
C343 C 0.75278 0.73435 1.03118 0.0
C344 C 0.76257 0.72545 0.07412 0.0
C345 C 0.74354 0.69039 0.08897 0.0
C346 C 0.74894 0.68118 0.13077 0.0
C347 C 0.77433 0.70653 0.15828 0.0
H348 H 0.80508 0.77771 0.09018 0.0
C349 C 0.79523 0.74115 0.14258 0.0
C350 C 0.78927 0.75063 0.1009 0.0
H351 H 0.81458 0.76135 0.16348 0.0
H352 H 0.67883 0.73059 0.90222 0.0
H353 H 0.70131 0.71818 0.96808 0.0
H354 H 0.77489 0.82933 0.98301 0.0
H355 H 0.75147 0.84175 0.91652 0.0
H356 H 0.76849 0.78745 0.04396 0.0
H357 H 0.74029 0.7129 1.00822 0.0
H358 H 0.72303 0.67035 0.06902 0.0
H359 H 0.73213 0.65446 0.14237 0.0
C360 C 0.94928 0.30356 0.4342 0.0
C361 C 0.93743 0.27169 0.41192 0.0
C362 C 0.96887 0.31005 0.47282 0.0
C363 C 0.97643 0.2845 0.48992 0.0
C364 C 0.9634 0.25233 0.46814 0.0
C365 C 0.94452 0.24616 0.4295 0.0
C366 C 0.99691 0.2893 0.53064 0.0
C367 C 1.02153 0.3206 0.54689 0.0
C368 C 0.04243 0.32321 0.58673 0.0
C369 C 0.05564 0.35327 0.6131 0.0
C370 C 0.07242 0.35476 0.65272 0.0
C371 C 0.07639 0.32619 0.66654 0.0
H372 H 0.04111 0.27317 0.57893 0.0
C373 C 0.06555 0.29736 0.63872 0.0
C374 C 0.04908 0.29598 0.59919 0.0
H375 H 0.06864 0.27515 0.64832 0.0
H376 H 0.94436 0.32378 0.42112 0.0
H377 H 0.97782 0.33487 0.48919 0.0
H378 H 0.96852 0.23204 0.48057 0.0
H379 H 0.93582 0.22141 0.41295 0.0
H380 H 0.99201 0.26523 0.54716 0.0
H381 H 1.02616 0.34492 0.53131 0.0
H382 H 0.05157 0.37497 0.60401 0.0
H383 H 0.08042 0.37731 0.67356 0.0
C384 C 0.47908 0.12472 0.27461 0.0
C385 C 0.4526 0.09866 0.30078 0.0
C386 C 0.51267 0.12879 0.27375 0.0
C387 C 0.52085 0.10692 0.29915 0.0
C388 C 0.49438 0.08069 0.32522 0.0
C389 C 0.46043 0.0763 0.32568 0.0
C390 C 0.55737 0.11282 0.30083 0.0
C391 C 0.57917 0.12539 0.26641 0.0
C392 C 0.61718 0.13619 0.2673 0.0
C393 C 0.63409 0.13932 0.22765 0.0
C394 C 0.67048 0.15383 0.2258 0.0
C395 C 0.69118 0.16613 0.26357 0.0
H396 H 0.62567 0.14558 0.33666 0.0
C397 C 0.67416 0.16166 0.30366 0.0
C398 C 0.63756 0.14689 0.30554 0.0
H399 H 0.68925 0.17112 0.33336 0.0
H400 H 0.47406 0.1425 0.25508 0.0
H401 H 0.5325 0.14998 0.25423 0.0
H402 H 0.50004 0.06371 0.34546 0.0
H403 H 0.44069 0.05618 0.34646 0.0
H404 H 0.56622 0.10657 0.33092 0.0
H405 H 0.56872 0.12824 0.23547 0.0
H406 H 0.61916 0.13131 0.19766 0.0
H407 H 0.6825 0.15612 0.19446 0.0
C408 C 0.6703 0.58083 0.31256 0.0
C409 C 0.69888 0.59203 0.28411 0.0
C410 C 0.64293 0.54557 0.3126 0.0
C411 C 0.64356 0.52102 0.28381 0.0
C412 C 0.67164 0.53268 0.25468 0.0
C413 C 0.69903 0.56753 0.25505 0.0
C414 C 0.61541 0.4833 0.28199 0.0
C415 C 0.59483 0.46492 0.31581 0.0
C416 C 0.56883 0.42638 0.31365 0.0
C417 C 0.55922 0.40607 0.35203 0.0
C418 C 0.5355 0.36972 0.35101 0.0
C419 C 0.52061 0.35278 0.31152 0.0
H420 H 0.55882 0.42429 0.24416 0.0
C421 C 0.52967 0.37327 0.27325 0.0
C422 C 0.55331 0.40954 0.27428 0.0
H423 H 0.51796 0.36139 0.24242 0.0
H424 H 0.6694 0.5991 0.33529 0.0
H425 H 0.62128 0.53778 0.33483 0.0
H426 H 0.67274 0.51457 0.23185 0.0
H427 H 0.72045 0.57524 0.23241 0.0
H428 H 0.61361 0.4695 0.25214 0.0
H429 H 0.59874 0.47778 0.34698 0.0
H430 H 0.57049 0.41827 0.3829 0.0
H431 H 0.5292 0.35481 0.38112 0.0
C432 C 0.96202 0.39184 0.25887 0.0
C433 C 0.96786 0.3755 0.295 0.0
C434 C 0.9567 0.42052 0.26401 0.0
C435 C 0.95662 0.43344 0.30562 0.0
C436 C 0.96545 0.41906 0.34147 0.0
C437 C 0.97091 0.39021 0.33626 0.0
C438 C 0.94644 0.46104 0.31215 0.0
C439 C 0.92253 0.46331 0.28632 0.0
C440 C 0.91051 0.48976 0.29018 0.0
C441 C 0.88118 0.48449 0.26561 0.0
C442 C 0.8699 0.50929 0.26546 0.0
C443 C 0.88769 0.54035 0.28984 0.0
H444 H 0.95094 0.52597 0.33443 0.0
C445 C 0.91671 0.54542 0.31519 0.0
C446 C 0.92803 0.52049 0.31537 0.0
H447 H 0.93092 0.56886 0.3347 0.0
H448 H 0.95986 0.3813 0.22657 0.0
H449 H 0.95168 0.43186 0.23533 0.0
H450 H 0.96622 0.42889 0.37384 0.0
H451 H 0.97507 0.378 0.36475 0.0
H452 H 0.95724 0.47809 0.34008 0.0
H453 H 0.91 0.44383 0.26094 0.0
H454 H 0.86715 0.46124 0.24567 0.0
H455 H 0.84787 0.50459 0.24495 0.0
C456 C 0.09459 0.445 0.83837 0.0
C457 C 0.09043 0.42902 0.79784 0.0
C458 C 0.10016 0.4794 0.84083 0.0
C459 C 0.10123 0.49804 0.80273 0.0
C460 C 0.09412 0.48076 0.76268 0.0
C461 C 0.08939 0.4468 0.76017 0.0
C462 C 0.11167 0.536 0.80312 0.0
C463 C 0.13701 0.55929 0.82966 0.0
C464 C 0.15182 0.5982 0.82658 0.0
C465 C 0.18566 0.62045 0.84308 0.0
C466 C 0.2006 0.65711 0.84111 0.0
C467 C 0.18192 0.6725 0.82284 0.0
H468 H 0.10658 0.59745 0.79625 0.0
C469 C 0.148 0.65023 0.80633 0.0
C470 C 0.13308 0.61355 0.80824 0.0
H471 H 0.1325 0.66111 0.793 0.0
H472 H 0.09608 0.43193 0.86774 0.0
H473 H 0.10475 0.49176 0.87232 0.0
H474 H 0.09451 0.4944 0.73293 0.0
H475 H 0.08672 0.43509 0.72852 0.0
H476 H 0.10132 0.54542 0.77739 0.0
H477 H 0.14952 0.54977 0.85241 0.0
H478 H 0.20075 0.60943 0.85741 0.0
H479 H 0.22686 0.6734 0.85385 0.0
C480 C 0.36108 0.89902 0.75936 0.0
C481 C 0.36206 0.92921 0.77632 0.0
C482 C 0.39125 0.89601 0.75795 0.0
C483 C 0.42358 0.92328 0.77335 0.0
C484 C 0.42481 0.95395 0.7894 0.0
C485 C 0.39441 0.95706 0.79052 0.0
C486 C 0.45547 0.91916 0.77594 0.0
C487 C 0.45995 0.89656 0.75068 0.0
C488 C 0.48948 0.88886 0.75453 0.0
C489 C 0.49487 0.87114 0.72025 0.0
C490 C 0.52069 0.86136 0.72289 0.0
C491 C 0.54189 0.86879 0.76013 0.0
H492 H 0.50695 0.90924 0.81958 0.0
C493 C 0.53666 0.88665 0.79455 0.0
C494 C 0.51071 0.89649 0.79189 0.0
H495 H 0.55217 0.89246 0.82397 0.0
H496 H 0.33658 0.87702 0.74816 0.0
H497 H 0.38851 0.87149 0.74646 0.0
H498 H 0.44921 0.97529 0.80188 0.0
H499 H 0.39593 0.98047 0.80425 0.0
H500 H 0.47564 0.93533 0.79923 0.0
H501 H 0.4411 0.88293 0.72494 0.0
H502 H 0.47894 0.86472 0.6911 0.0
H503 H 0.52428 0.84826 0.69537 0.0
C504 C 0.37494 0.54505 0.77081 0.0
C505 C 0.35843 0.51221 0.79231 0.0
C506 C 0.41104 0.56802 0.77522 0.0
C507 C 0.43181 0.55874 0.80117 0.0
C508 C 0.41516 0.52658 0.82405 0.0
C509 C 0.37896 0.50348 0.81952 0.0
C510 C 0.47058 0.58253 0.80566 0.0
C511 C 0.49021 0.60485 0.77365 0.0
C512 C 0.52835 0.63153 0.77679 0.0
C513 C 0.54187 0.65916 0.74625 0.0
C514 C 0.57682 0.68591 0.74801 0.0
C515 C 0.59967 0.68571 0.78005 0.0
H516 H 0.54223 0.60944 0.83204 0.0
C517 C 0.5868 0.65744 0.80985 0.0
C518 C 0.55134 0.63063 0.80844 0.0
H519 H 0.6038 0.65656 0.83489 0.0
H520 H 0.3599 0.55317 0.75057 0.0
H521 H 0.42244 0.59321 0.75858 0.0
H522 H 0.43034 0.51892 0.84474 0.0
H523 H 0.36727 0.47837 0.83644 0.0
H524 H 0.48286 0.5813 0.83582 0.0
H525 H 0.47733 0.60466 0.74331 0.0
H526 H 0.52507 0.66055 0.72125 0.0
H527 H 0.58587 0.70705 0.72421 0.0
C528 C 0.25966 0.1356 0.28016 0.0
C529 C 0.26049 0.10945 0.30621 0.0
C530 C 0.23321 0.14407 0.28498 0.0
C531 C 0.20636 0.12629 0.31572 0.0
C532 C 0.20658 0.0994 0.34105 0.0
C533 C 0.23328 0.09087 0.33618 0.0
C534 C 0.17982 0.13738 0.32424 0.0
C535 C 0.17133 0.15486 0.29448 0.0
C536 C 0.14902 0.17113 0.30254 0.0
C537 C 0.14053 0.18581 0.26688 0.0
C538 C 0.12177 0.20354 0.27242 0.0
C539 C 0.1109 0.20714 0.31391 0.0
H540 H 0.14429 0.16421 0.3728 0.0
C541 C 0.11914 0.19234 0.34975 0.0
C542 C 0.138 0.17454 0.34422 0.0
H543 H 0.11092 0.19442 0.38213 0.0
H544 H 0.2802 0.15053 0.25676 0.0
H545 H 0.23504 0.16572 0.26571 0.0
H546 H 0.18646 0.08544 0.36526 0.0
H547 H 0.23332 0.07075 0.35695 0.0
H548 H 0.1676 0.13127 0.35599 0.0
H549 H 0.18166 0.158 0.26183 0.0
H550 H 0.14891 0.18407 0.23444 0.0
H551 H 0.11645 0.2151 0.24416 0.0
C552 C 0.91541 0.80008 0.24931 0.0
C553 C 0.88957 0.79439 0.28001 0.0
C554 C 0.95054 0.82509 0.25647 0.0
C555 C 0.96088 0.84543 0.29454 0.0
C556 C 0.93471 0.84102 0.32419 0.0
C557 C 0.89934 0.8159 0.31691 0.0
C558 C 0.99869 0.86835 0.30633 0.0
C559 C 1.02504 0.88039 0.27707 0.0
C560 C 0.06322 0.89784 0.28804 0.0
C561 C 0.08654 0.9003 0.25538 0.0
C562 C 0.12239 0.91496 0.26386 0.0
C563 C 0.1361 0.92788 0.30528 0.0
H564 H 0.06029 0.91063 0.35549 0.0
C565 C 0.113 0.92616 0.33789 0.0
C566 C 0.07697 0.91129 0.32946 0.0
H567 H 0.12272 0.9359 0.37017 0.0
H568 H 0.90876 0.78391 0.22055 0.0
H569 H 0.96949 0.82662 0.23309 0.0
H570 H 0.94179 0.85613 0.35388 0.0
H571 H 0.88008 0.81195 0.34135 0.0
H572 H 1.00468 0.87367 0.34057 0.0
H573 H 1.01853 0.8758 0.24283 0.0
H574 H 0.07694 0.89042 0.22309 0.0
H575 H 0.13946 0.91651 0.2377 0.0
C576 C 0.91674 0.13723 0.30868 0.0
C577 C 0.89863 0.15275 0.28905 0.0
C578 C 0.90142 0.10049 0.31141 0.0
C579 C 0.86764 0.07837 0.29423 0.0
C580 C 0.84982 0.09399 0.27426 0.0
C581 C 0.86508 0.13064 0.27159 0.0
C582 C 0.84929 0.03912 0.29804 0.0
C583 C 0.86549 0.02036 0.30656 0.0
C584 C 0.84654 0.98111 0.31009 0.0
C585 C 0.8651 0.9632 0.30261 0.0
C586 C 0.84833 0.92642 0.30551 0.0
C587 C 0.81255 0.90654 0.31642 0.0
H588 H 0.79587 0.97404 0.32939 0.0
C589 C 0.79412 0.9245 0.32475 0.0
C590 C 0.81088 0.9613 0.32176 0.0
H591 H 0.76676 0.91015 0.33418 0.0
H592 H 0.94252 0.15344 0.32277 0.0
H593 H 0.91586 0.08979 0.32804 0.0
H594 H 0.82375 0.07776 0.26089 0.0
H595 H 0.85029 0.14158 0.25629 0.0
H596 H 0.82121 0.02515 0.29192 0.0
H597 H 0.89389 0.03383 0.30899 0.0
H598 H 0.89263 0.9777 0.2939 0.0
H599 H 0.86333 0.91355 0.2984 0.0
C600 C 0.16573 0.26732 0.74696 0.0
C601 C 0.1369 0.26013 0.77335 0.0
C602 C 0.17897 0.24416 0.74596 0.0
C603 C 0.16352 0.21304 0.77117 0.0
C604 C 0.13435 0.20561 0.797 0.0
C605 C 0.12106 0.22878 0.79795 0.0
C606 C 0.17836 0.18898 0.77337 0.0
C607 C 0.19857 0.18704 0.74197 0.0
C608 C 0.2143 0.16382 0.74488 0.0
C609 C 0.22231 0.15247 0.70638 0.0
C610 C 0.23738 0.13088 0.70767 0.0
C611 C 0.24533 0.12049 0.74762 0.0
H612 H 0.21805 0.16314 0.81528 0.0
C613 C 0.23797 0.13248 0.78622 0.0
C614 C 0.22267 0.15391 0.78491 0.0
H615 H 0.24436 0.1256 0.81753 0.0
H616 H 0.17876 0.29136 0.72784 0.0
H617 H 0.20206 0.2515 0.72655 0.0
H618 H 0.12203 0.18197 0.81694 0.0
H619 H 0.09889 0.22249 0.81877 0.0
H620 H 0.17151 0.17158 0.80146 0.0
H621 H 0.20268 0.20184 0.71198 0.0
H622 H 0.2164 0.15991 0.6751 0.0
H623 H 0.24214 0.12177 0.67727 0.0
C624 C 0.1441 0.92934 0.80869 0.0
C625 C 0.15917 0.91029 0.82664 0.0
C626 C 0.1085 0.91828 0.81627 0.0
C627 C 0.08781 0.88832 0.84243 0.0
C628 C 0.1039 0.871 0.86238 0.0
C629 C 0.13893 0.88158 0.85424 0.0
C630 C 0.04928 0.87286 0.84893 0.0
C631 C 0.02764 0.87734 0.82162 0.0
C632 C 0.98864 0.85632 0.82556 0.0
C633 C 0.96808 0.8707 0.81075 0.0
C634 C 0.93136 0.85093 0.81246 0.0
C635 C 0.91432 0.81603 0.82828 0.0
H636 H 0.98634 0.80884 0.85177 0.0
C637 C 0.93488 0.80152 0.84271 0.0
C638 C 0.97155 0.82137 0.8414 0.0
H639 H 0.9226 0.77474 0.8551 0.0
H640 H 0.15925 0.95155 0.78722 0.0
H641 H 0.09731 0.9329 0.80116 0.0
H642 H 0.0889 0.84813 0.88298 0.0
H643 H 0.15 0.86655 0.8687 0.0
H644 H 0.03783 0.8546 0.87606 0.0
H645 H 0.03838 0.89604 0.79489 0.0
H646 H 0.98047 0.89732 0.79779 0.0
H647 H 0.91627 0.86273 0.80049 0.0
C648 C 0.91979 0.09969 0.79623 0.0
C649 C 0.94035 0.11715 0.83266 0.0
C650 C 0.90362 0.06307 0.79299 0.0
C651 C 0.90767 0.04295 0.82616 0.0
C652 C 0.92791 0.06034 0.8628 0.0
C653 C 0.9444 0.09711 0.86585 0.0
C654 C 0.88897 1.00375 0.82459 0.0
C655 C 0.88093 0.98592 0.78691 0.0
C656 C 0.85623 0.94738 0.78331 0.0
C657 C 0.83763 0.93488 0.74425 0.0
C658 C 0.8107 0.90002 0.74074 0.0
C659 C 0.80217 0.87658 0.77599 0.0
H660 H 0.86381 0.93173 0.84798 0.0
C661 C 0.82252 0.88812 0.81404 0.0
C662 C 0.84927 0.92335 0.81782 0.0
H663 H 0.81653 0.87052 0.84166 0.0
H664 H 0.91633 0.11439 0.77 0.0
H665 H 0.88726 0.05063 0.76492 0.0
H666 H 0.93101 0.04546 0.88911 0.0
H667 H 0.95983 0.10981 0.89451 0.0
H668 H 0.88051 0.98959 0.85526 0.0
H669 H 0.89021 1.00062 0.75665 0.0
H670 H 0.84268 0.95261 0.71695 0.0
H671 H 0.79566 0.89173 0.71085 0.0
loop_
_geom_bond_atom_site_label_1
_geom_bond_atom_site_label_2
_geom_bond_distance
_geom_bond_site_symmetry_2
_ccdc_geom_bond_type
Nd0 C2 2.836 . S
Nd0 O20 2.500 . S
Nd0 O21 2.492 . S
Nd0 O22 2.487 . S
Nd0 O23 2.682 . S
Nd0 O24 2.410 . S
Nd0 O29 2.414 . S
Nd0 O31 2.424 . S
Nd1 C11 2.836 1_545 S
Nd1 O23 2.414 . S
Nd1 O25 2.424 . S
Nd1 O26 2.500 . S
Nd1 O27 2.492 . S
Nd1 O28 2.487 . S
Nd1 O29 2.682 . S
Nd1 O30 2.410 . S
C2 Nd0 2.836 . S
C2 C3 1.498 . S
C2 O20 1.258 . S
C2 O21 1.239 . S
C3 C2 1.498 . S
C3 C4 1.366 . S
C3 C8 1.407 . S
C4 C3 1.366 . S
C4 C5 1.392 . S
C4 H32 0.930 . S
C5 C4 1.392 . S
C5 C6 1.398 . S
C5 H33 0.929 . S
C6 C5 1.398 . S
C6 C7 1.352 . S
C7 C6 1.352 . S
C7 C8 1.384 . S
C7 H34 0.930 . S
C8 C3 1.407 . S
C8 C7 1.384 . S
C8 H35 0.929 . S
C9 O22 1.241 . S
C9 O23 1.273 . S
C10 O24 1.251 . S
C10 O25 1.268 . S
C11 Nd1 2.836 1_565 S
C11 C12 1.498 . S
C11 O26 1.258 1_565 S
C11 O27 1.239 1_565 S
C12 C11 1.498 . S
C12 C13 1.366 . S
C12 C17 1.407 . S
C13 C12 1.366 . S
C13 C14 1.392 . S
C13 H36 0.930 . S
C14 C13 1.392 . S
C14 C15 1.398 . S
C14 H37 0.929 . S
C15 C14 1.398 . S
C15 C16 1.352 . S
C16 C15 1.352 . S
C16 C17 1.384 . S
C16 H38 0.930 . S
C17 C12 1.407 . S
C17 C16 1.384 . S
C17 H39 0.929 . S
C18 O28 1.241 . S
C18 O29 1.273 . S
C19 O30 1.251 . S
C19 O31 1.268 . S
O20 Nd0 2.500 . S
O20 C2 1.258 . S
O21 Nd0 2.492 . S
O21 C2 1.239 . S
O22 Nd0 2.487 . S
O22 C9 1.241 . S
O23 Nd0 2.682 . S
O23 Nd1 2.414 . S
O23 C9 1.273 . S
O24 Nd0 2.410 . S
O24 C10 1.251 . S
O25 Nd1 2.424 . S
O25 C10 1.268 . S
O26 Nd1 2.500 . S
O26 C11 1.258 1_545 S
O27 Nd1 2.492 . S
O27 C11 1.239 1_545 S
O28 Nd1 2.487 . S
O28 C18 1.241 . S
O29 Nd0 2.414 . S
O29 Nd1 2.682 . S
O29 C18 1.273 . S
O30 Nd1 2.410 . S
O30 C19 1.251 . S
O31 Nd0 2.424 . S
O31 C19 1.268 . S
H32 C4 0.930 . S
H33 C5 0.929 . S
H34 C7 0.930 . S
H35 C8 0.929 . S
H36 C13 0.930 . S
H37 C14 0.929 . S
H38 C16 0.930 . S
H39 C17 0.929 . S
Nd40 C42 2.836 . S
Nd40 O60 2.500 . S
Nd40 O61 2.492 . S
Nd40 O62 2.487 . S
Nd40 O63 2.682 . S
Nd40 O64 2.410 . S
Nd40 O69 2.414 . S
Nd40 O71 2.424 . S
Nd41 C51 2.836 . S
Nd41 O63 2.414 . S
Nd41 O65 2.424 . S
Nd41 O66 2.500 . S
Nd41 O67 2.492 . S
Nd41 O68 2.487 . S
Nd41 O69 2.682 . S
Nd41 O70 2.410 . S
C42 Nd40 2.836 . S
C42 C43 1.498 . S
C42 O60 1.258 . S
C42 O61 1.239 . S
C43 C42 1.498 . S
C43 C44 1.366 . S
C43 C48 1.407 . S
C44 C43 1.366 . S
C44 C45 1.392 . S
C44 H72 0.930 . S
C45 C44 1.392 . S
C45 C46 1.398 . S
C45 H73 0.929 . S
C46 C45 1.398 . S
C46 C47 1.352 . S
C47 C46 1.352 . S
C47 C48 1.384 . S
C47 H74 0.930 . S
C48 C43 1.407 . S
C48 C47 1.384 . S
C48 H75 0.929 . S
C49 O62 1.241 . S
C49 O63 1.273 . S
C50 O64 1.251 . S
C50 O65 1.268 . S
C51 Nd41 2.836 . S
C51 C52 1.498 . S
C51 O66 1.258 . S
C51 O67 1.239 . S
C52 C51 1.498 . S
C52 C53 1.366 . S
C52 C57 1.407 . S
C53 C52 1.366 . S
C53 C54 1.392 . S
C53 H76 0.930 . S
C54 C53 1.392 . S
C54 C55 1.398 . S
C54 H77 0.929 . S
C55 C54 1.398 . S
C55 C56 1.352 . S
C56 C55 1.352 . S
C56 C57 1.384 . S
C56 H78 0.930 . S
C57 C52 1.407 . S
C57 C56 1.384 . S
C57 H79 0.929 . S
C58 O68 1.241 . S
C58 O69 1.273 . S
C59 O70 1.251 . S
C59 O71 1.268 . S
O60 Nd40 2.500 . S
O60 C42 1.258 . S
O61 Nd40 2.492 . S
O61 C42 1.239 . S
O62 Nd40 2.487 . S
O62 C49 1.241 . S
O63 Nd40 2.682 . S
O63 Nd41 2.414 . S
O63 C49 1.273 . S
O64 Nd40 2.410 . S
O64 C50 1.251 . S
O65 Nd41 2.424 . S
O65 C50 1.268 . S
O66 Nd41 2.500 . S
O66 C51 1.258 . S
O67 Nd41 2.492 . S
O67 C51 1.239 . S
O68 Nd41 2.487 . S
O68 C58 1.241 . S
O69 Nd40 2.414 . S
O69 Nd41 2.682 . S
O69 C58 1.273 . S
O70 Nd41 2.410 . S
O70 C59 1.251 . S
O71 Nd40 2.424 . S
O71 C59 1.268 . S
H72 C44 0.930 . S
H73 C45 0.929 . S
H74 C47 0.930 . S
H75 C48 0.929 . S
H76 C53 0.930 . S
H77 C54 0.929 . S
H78 C56 0.930 . S
H79 C57 0.929 . S
Nd80 C82 2.836 . S
Nd80 O100 2.500 . S
Nd80 O101 2.492 . S
Nd80 O102 2.487 . S
Nd80 O103 2.682 . S
Nd80 O104 2.410 . S
Nd80 O109 2.414 . S
Nd80 O111 2.424 . S
Nd81 C91 2.836 1_655 S
Nd81 O103 2.414 . S
Nd81 O105 2.424 . S
Nd81 O106 2.500 . S
Nd81 O107 2.492 . S
Nd81 O108 2.487 . S
Nd81 O109 2.682 . S
Nd81 O110 2.410 . S
C82 Nd80 2.836 . S
C82 C83 1.498 . S
C82 O100 1.258 . S
C82 O101 1.239 . S
C83 C82 1.498 . S
C83 C84 1.366 . S
C83 C88 1.407 . S
C84 C83 1.366 . S
C84 C85 1.392 . S
C84 H112 0.930 . S
C85 C84 1.392 . S
C85 C86 1.398 . S
C85 H113 0.929 . S
C86 C85 1.398 . S
C86 C87 1.352 . S
C87 C86 1.352 . S
C87 C88 1.384 . S
C87 H114 0.930 . S
C88 C83 1.407 . S
C88 C87 1.384 . S
C88 H115 0.929 . S
C89 O102 1.241 . S
C89 O103 1.273 . S
C90 O104 1.251 . S
C90 O105 1.268 . S
C91 Nd81 2.836 1_455 S
C91 C92 1.498 . S
C91 O106 1.258 1_455 S
C91 O107 1.239 1_455 S
C92 C91 1.498 . S
C92 C93 1.366 . S
C92 C97 1.407 . S
C93 C92 1.366 . S
C93 C94 1.392 . S
C93 H116 0.930 . S
C94 C93 1.392 . S
C94 C95 1.398 . S
C94 H117 0.929 . S
C95 C94 1.398 . S
C95 C96 1.352 . S
C96 C95 1.352 . S
C96 C97 1.384 . S
C96 H118 0.930 . S
C97 C92 1.407 . S
C97 C96 1.384 . S
C97 H119 0.929 . S
C98 O108 1.241 . S
C98 O109 1.273 . S
C99 O110 1.251 . S
C99 O111 1.268 . S
O100 Nd80 2.500 . S
O100 C82 1.258 . S
O101 Nd80 2.492 . S
O101 C82 1.239 . S
O102 Nd80 2.487 . S
O102 C89 1.241 . S
O103 Nd80 2.682 . S
O103 Nd81 2.414 . S
O103 C89 1.273 . S
O104 Nd80 2.410 . S
O104 C90 1.251 . S
O105 Nd81 2.424 . S
O105 C90 1.268 . S
O106 Nd81 2.500 . S
O106 C91 1.258 1_655 S
O107 Nd81 2.492 . S
O107 C91 1.239 1_655 S
O108 Nd81 2.487 . S
O108 C98 1.241 . S
O109 Nd80 2.414 . S
O109 Nd81 2.682 . S
O109 C98 1.273 . S
O110 Nd81 2.410 . S
O110 C99 1.251 . S
O111 Nd80 2.424 . S
O111 C99 1.268 . S
H112 C84 0.930 . S
H113 C85 0.929 . S
H114 C87 0.930 . S
H115 C88 0.929 . S
H116 C93 0.930 . S
H117 C94 0.929 . S
H118 C96 0.930 . S
H119 C97 0.929 . S
Nd120 C122 2.836 1_455 S
Nd120 O140 2.500 . S
Nd120 O141 2.492 . S
Nd120 O142 2.487 . S
Nd120 O143 2.682 . S
Nd120 O144 2.410 . S
Nd120 O149 2.414 . S
Nd120 O151 2.424 . S
Nd121 C131 2.836 . S
Nd121 O143 2.414 . S
Nd121 O145 2.424 . S
Nd121 O146 2.500 . S
Nd121 O147 2.492 . S
Nd121 O148 2.487 . S
Nd121 O149 2.682 . S
Nd121 O150 2.410 . S
C122 Nd120 2.836 1_655 S
C122 C123 1.498 . S
C122 O140 1.258 1_655 S
C122 O141 1.239 1_655 S
C123 C122 1.498 . S
C123 C124 1.366 . S
C123 C128 1.407 . S
C124 C123 1.366 . S
C124 C125 1.392 . S
C124 H152 0.930 . S
C125 C124 1.392 . S
C125 C126 1.398 . S
C125 H153 0.929 . S
C126 C125 1.398 . S
C126 C127 1.352 . S
C127 C126 1.352 . S
C127 C128 1.384 . S
C127 H154 0.930 . S
C128 C123 1.407 . S
C128 C127 1.384 . S
C128 H155 0.929 . S
C129 O142 1.241 . S
C129 O143 1.273 . S
C130 O144 1.251 . S
C130 O145 1.268 . S
C131 Nd121 2.836 . S
C131 C132 1.498 . S
C131 O146 1.258 . S
C131 O147 1.239 . S
C132 C131 1.498 . S
C132 C133 1.366 . S
C132 C137 1.407 . S
C133 C132 1.366 . S
C133 C134 1.392 . S
C133 H156 0.930 . S
C134 C133 1.392 . S
C134 C135 1.398 . S
C134 H157 0.929 . S
C135 C134 1.398 . S
C135 C136 1.352 . S
C136 C135 1.352 . S
C136 C137 1.384 . S
C136 H158 0.930 . S
C137 C132 1.407 . S
C137 C136 1.384 . S
C137 H159 0.929 . S
C138 O148 1.241 . S
C138 O149 1.273 . S
C139 O150 1.251 . S
C139 O151 1.268 . S
O140 Nd120 2.500 . S
O140 C122 1.258 1_455 S
O141 Nd120 2.492 . S
O141 C122 1.239 1_455 S
O142 Nd120 2.487 . S
O142 C129 1.241 . S
O143 Nd120 2.682 . S
O143 Nd121 2.414 . S
O143 C129 1.273 . S
O144 Nd120 2.410 . S
O144 C130 1.251 . S
O145 Nd121 2.424 . S
O145 C130 1.268 . S
O146 Nd121 2.500 . S
O146 C131 1.258 . S
O147 Nd121 2.492 . S
O147 C131 1.239 . S
O148 Nd121 2.487 . S
O148 C138 1.241 . S
O149 Nd120 2.414 . S
O149 Nd121 2.682 . S
O149 C138 1.273 . S
O150 Nd121 2.410 . S
O150 C139 1.251 . S
O151 Nd120 2.424 . S
O151 C139 1.268 . S
H152 C124 0.930 . S
H153 C125 0.929 . S
H154 C127 0.930 . S
H155 C128 0.929 . S
H156 C133 0.930 . S
H157 C134 0.929 . S
H158 C136 0.930 . S
H159 C137 0.929 . S
Nd160 C162 2.836 1_565 S
Nd160 O180 2.500 . S
Nd160 O181 2.492 . S
Nd160 O182 2.487 . S
Nd160 O183 2.682 . S
Nd160 O184 2.410 . S
Nd160 O189 2.414 . S
Nd160 O191 2.424 . S
Nd161 C171 2.836 . S
Nd161 O183 2.414 . S
Nd161 O185 2.424 . S
Nd161 O186 2.500 . S
Nd161 O187 2.492 . S
Nd161 O188 2.487 . S
Nd161 O189 2.682 . S
Nd161 O190 2.410 . S
C162 Nd160 2.836 1_545 S
C162 C163 1.498 . S
C162 O180 1.258 1_545 S
C162 O181 1.239 1_545 S
C163 C162 1.498 . S
C163 C164 1.366 . S
C163 C168 1.407 . S
C164 C163 1.366 . S
C164 C165 1.392 . S
C164 H192 0.930 . S
C165 C164 1.392 . S
C165 C166 1.398 . S
C165 H193 0.929 . S
C166 C165 1.398 . S
C166 C167 1.352 . S
C167 C166 1.352 . S
C167 C168 1.384 . S
C167 H194 0.930 . S
C168 C163 1.407 . S
C168 C167 1.384 . S
C168 H195 0.929 . S
C169 O182 1.241 . S
C169 O183 1.273 . S
C170 O184 1.251 . S
C170 O185 1.268 . S
C171 Nd161 2.836 . S
C171 C172 1.498 . S
C171 O186 1.258 . S
C171 O187 1.239 . S
C172 C171 1.498 . S
C172 C173 1.366 . S
C172 C177 1.407 . S
C173 C172 1.366 . S
C173 C174 1.392 . S
C173 H196 0.930 . S
C174 C173 1.392 . S
C174 C175 1.398 . S
C174 H197 0.929 . S
C175 C174 1.398 . S
C175 C176 1.352 . S
C176 C175 1.352 . S
C176 C177 1.384 . S
C176 H198 0.930 . S
C177 C172 1.407 . S
C177 C176 1.384 . S
C177 H199 0.929 . S
C178 O188 1.241 . S
C178 O189 1.273 . S
C179 O190 1.251 . S
C179 O191 1.268 . S
O180 Nd160 2.500 . S
O180 C162 1.258 1_565 S
O181 Nd160 2.492 . S
O181 C162 1.239 1_565 S
O182 Nd160 2.487 . S
O182 C169 1.241 . S
O183 Nd160 2.682 . S
O183 Nd161 2.414 . S
O183 C169 1.273 . S
O184 Nd160 2.410 . S
O184 C170 1.251 . S
O185 Nd161 2.424 . S
O185 C170 1.268 . S
O186 Nd161 2.500 . S
O186 C171 1.258 . S
O187 Nd161 2.492 . S
O187 C171 1.239 . S
O188 Nd161 2.487 . S
O188 C178 1.241 . S
O189 Nd160 2.414 . S
O189 Nd161 2.682 . S
O189 C178 1.273 . S
O190 Nd161 2.410 . S
O190 C179 1.251 . S
O191 Nd160 2.424 . S
O191 C179 1.268 . S
H192 C164 0.930 . S
H193 C165 0.929 . S
H194 C167 0.930 . S
H195 C168 0.929 . S
H196 C173 0.930 . S
H197 C174 0.929 . S
H198 C176 0.930 . S
H199 C177 0.929 . S
Nd200 C202 2.836 . S
Nd200 O220 2.500 . S
Nd200 O221 2.492 . S
Nd200 O222 2.487 . S
Nd200 O223 2.682 . S
Nd200 O224 2.410 . S
Nd200 O229 2.414 . S
Nd200 O231 2.424 . S
Nd201 C211 2.836 . S
Nd201 O223 2.414 . S
Nd201 O225 2.424 . S
Nd201 O226 2.500 . S
Nd201 O227 2.492 . S
Nd201 O228 2.487 . S
Nd201 O229 2.682 . S
Nd201 O230 2.410 . S
C202 Nd200 2.836 . S
C202 C203 1.498 . S
C202 O220 1.258 . S
C202 O221 1.239 . S
C203 C202 1.498 . S
C203 C204 1.366 . S
C203 C208 1.407 . S
C204 C203 1.366 . S
C204 C205 1.392 . S
C204 H232 0.930 . S
C205 C204 1.392 . S
C205 C206 1.398 . S
C205 H233 0.929 . S
C206 C205 1.398 . S
C206 C207 1.352 . S
C207 C206 1.352 . S
C207 C208 1.384 . S
C207 H234 0.930 . S
C208 C203 1.407 . S
C208 C207 1.384 . S
C208 H235 0.929 . S
C209 O222 1.241 . S
C209 O223 1.273 . S
C210 O224 1.251 . S
C210 O225 1.268 . S
C211 Nd201 2.836 . S
C211 C212 1.498 . S
C211 O226 1.258 . S
C211 O227 1.239 . S
C212 C211 1.498 . S
C212 C213 1.366 . S
C212 C217 1.407 . S
C213 C212 1.366 . S
C213 C214 1.392 . S
C213 H236 0.930 . S
C214 C213 1.392 . S
C214 C215 1.398 . S
C214 H237 0.929 . S
C215 C214 1.398 . S
C215 C216 1.352 . S
C216 C215 1.352 . S
C216 C217 1.384 . S
C216 H238 0.930 . S
C217 C212 1.407 . S
C217 C216 1.384 . S
C217 H239 0.929 . S
C218 O228 1.241 . S
C218 O229 1.273 . S
C219 O230 1.251 . S
C219 O231 1.268 . S
O220 Nd200 2.500 . S
O220 C202 1.258 . S
O221 Nd200 2.492 . S
O221 C202 1.239 . S
O222 Nd200 2.487 . S
O222 C209 1.241 . S
O223 Nd200 2.682 . S
O223 Nd201 2.414 . S
O223 C209 1.273 . S
O224 Nd200 2.410 . S
O224 C210 1.251 . S
O225 Nd201 2.424 . S
O225 C210 1.268 . S
O226 Nd201 2.500 . S
O226 C211 1.258 . S
O227 Nd201 2.492 . S
O227 C211 1.239 . S
O228 Nd201 2.487 . S
O228 C218 1.241 . S
O229 Nd200 2.414 . S
O229 Nd201 2.682 . S
O229 C218 1.273 . S
O230 Nd201 2.410 . S
O230 C219 1.251 . S
O231 Nd200 2.424 . S
O231 C219 1.268 . S
H232 C204 0.930 . S
H233 C205 0.929 . S
H234 C207 0.930 . S
H235 C208 0.929 . S
H236 C213 0.930 . S
H237 C214 0.929 . S
H238 C216 0.930 . S
H239 C217 0.929 . S
C240 C241 1.386 . S
C240 C242 1.383 . S
C240 H256 0.951 . S
C241 C240 1.386 . S
C241 C245 1.383 . S
C242 C240 1.383 . S
C242 C243 1.402 . S
C242 H257 0.951 . S
C243 C242 1.402 . S
C243 C244 1.375 . S
C243 C246 1.481 . S
C244 C243 1.375 . S
C244 C245 1.367 . S
C244 H258 0.951 . S
C245 C241 1.383 . S
C245 C244 1.367 . S
C245 H259 0.950 . S
C246 C243 1.481 . S
C246 C247 1.297 1_556 S
C246 H260 0.950 1_565 S
C247 C246 1.297 1_554 S
C247 C248 1.479 1_565 S
C247 H261 0.950 . S
C248 C247 1.479 1_545 S
C248 C249 1.375 . S
C248 C254 1.404 . S
C249 C248 1.375 . S
C249 C250 1.369 . S
C249 H262 0.950 . S
C250 C249 1.369 . S
C250 C251 1.392 . S
C250 H263 0.951 . S
C251 C250 1.392 . S
C251 C253 1.384 . S
H252 C254 0.949 . S
C253 C251 1.384 . S
C253 C254 1.385 . S
C253 H255 0.950 . S
C254 C248 1.404 . S
C254 H252 0.949 . S
C254 C253 1.385 . S
H255 C253 0.950 . S
H256 C240 0.951 . S
H257 C242 0.951 . S
H258 C244 0.951 . S
H259 C245 0.950 . S
H260 C246 0.950 1_545 S
H261 C247 0.950 . S
H262 C249 0.950 . S
H263 C250 0.951 . S
C264 C265 1.386 . S
C264 C266 1.383 . S
C264 H280 0.951 . S
C265 C264 1.386 . S
C265 C269 1.383 . S
C266 C264 1.383 . S
C266 C267 1.402 . S
C266 H281 0.951 . S
C267 C266 1.402 . S
C267 C268 1.375 . S
C267 C270 1.481 . S
C268 C267 1.375 . S
C268 C269 1.367 . S
C268 H282 0.951 . S
C269 C265 1.383 . S
C269 C268 1.367 . S
C269 H283 0.950 . S
C270 C267 1.481 . S
C270 C271 1.297 . S
C270 H284 0.950 . S
C271 C270 1.297 . S
C271 C272 1.479 . S
C271 H285 0.950 . S
C272 C271 1.479 . S
C272 C273 1.375 . S
C272 C278 1.404 . S
C273 C272 1.375 . S
C273 C274 1.369 . S
C273 H286 0.950 . S
C274 C273 1.369 . S
C274 C275 1.392 . S
C274 H287 0.951 . S
C275 C274 1.392 . S
C275 C277 1.384 . S
H276 C278 0.949 . S
C277 C275 1.384 . S
C277 C278 1.385 . S
C277 H279 0.950 . S
C278 C272 1.404 . S
C278 H276 0.949 . S
C278 C277 1.385 . S
H279 C277 0.950 . S
H280 C264 0.951 . S
H281 C266 0.951 . S
H282 C268 0.951 . S
H283 C269 0.950 . S
H284 C270 0.950 . S
H285 C271 0.950 . S
H286 C273 0.950 . S
H287 C274 0.951 . S
C288 C289 1.386 . S
C288 C290 1.383 . S
C288 H304 0.951 . S
C289 C288 1.386 . S
C289 C293 1.383 . S
C290 C288 1.383 . S
C290 C291 1.402 . S
C290 H305 0.951 . S
C291 C290 1.402 . S
C291 C292 1.375 . S
C291 C294 1.481 . S
C292 C291 1.375 . S
C292 C293 1.367 . S
C292 H306 0.951 . S
C293 C289 1.383 . S
C293 C292 1.367 . S
C293 H307 0.950 . S
C294 C291 1.481 . S
C294 C295 1.297 1_554 S
C294 H308 0.950 1_655 S
C295 C294 1.297 1_556 S
C295 C296 1.479 1_655 S
C295 H309 0.950 . S
C296 C295 1.479 1_455 S
C296 C297 1.375 . S
C296 C302 1.404 . S
C297 C296 1.375 . S
C297 C298 1.369 . S
C297 H310 0.950 1_455 S
C298 C297 1.369 . S
C298 C299 1.392 . S
C298 H311 0.951 . S
C299 C298 1.392 . S
C299 C301 1.384 . S
H300 C302 0.949 . S
C301 C299 1.384 . S
C301 C302 1.385 . S
C301 H303 0.950 . S
C302 C296 1.404 . S
C302 H300 0.949 . S
C302 C301 1.385 . S
H303 C301 0.950 . S
H304 C288 0.951 . S
H305 C290 0.951 . S
H306 C292 0.951 . S
H307 C293 0.950 . S
H308 C294 0.950 1_455 S
H309 C295 0.950 . S
H310 C297 0.950 1_655 S
H311 C298 0.951 . S
C312 C313 1.386 . S
C312 C314 1.383 . S
C312 H328 0.951 . S
C313 C312 1.386 . S
C313 C317 1.383 . S
C314 C312 1.383 . S
C314 C315 1.402 . S
C314 H329 0.951 . S
C315 C314 1.402 . S
C315 C316 1.375 . S
C315 C318 1.481 1_545 S
C316 C315 1.375 . S
C316 C317 1.367 . S
C316 H330 0.951 1_545 S
C317 C313 1.383 . S
C317 C316 1.367 . S
C317 H331 0.950 . S
C318 C315 1.481 1_565 S
C318 C319 1.297 . S
C318 H332 0.950 . S
C319 C318 1.297 . S
C319 C320 1.479 . S
C319 H333 0.950 1_565 S
C320 C319 1.479 . S
C320 C321 1.375 . S
C320 C326 1.404 . S
C321 C320 1.375 . S
C321 C322 1.369 . S
C321 H334 0.950 1_565 S
C322 C321 1.369 . S
C322 C323 1.392 . S
C322 H335 0.951 . S
C323 C322 1.392 . S
C323 C325 1.384 . S
H324 C326 0.949 . S
C325 C323 1.384 . S
C325 C326 1.385 . S
C325 H327 0.950 . S
C326 C320 1.404 . S
C326 H324 0.949 . S
C326 C325 1.385 . S
H327 C325 0.950 . S
H328 C312 0.951 . S
H329 C314 0.951 . S
H330 C316 0.951 1_565 S
H331 C317 0.950 . S
H332 C318 0.950 . S
H333 C319 0.950 1_545 S
H334 C321 0.950 1_545 S
H335 C322 0.951 . S
C336 C337 1.386 . S
C336 C338 1.383 . S
C336 H352 0.951 . S
C337 C336 1.386 . S
C337 C341 1.383 . S
C338 C336 1.383 . S
C338 C339 1.402 . S
C338 H353 0.951 . S
C339 C338 1.402 . S
C339 C340 1.375 . S
C339 C342 1.481 . S
C340 C339 1.375 . S
C340 C341 1.367 . S
C340 H354 0.951 . S
C341 C337 1.383 . S
C341 C340 1.367 . S
C341 H355 0.950 . S
C342 C339 1.481 . S
C342 C343 1.298 . S
C342 H356 0.950 1_556 S
C343 C342 1.298 . S
C343 C344 1.470 1_556 S
C343 H357 0.960 . S
C344 C343 1.470 1_554 S
C344 C345 1.375 . S
C344 C350 1.404 . S
C345 C344 1.375 . S
C345 C346 1.369 . S
C345 H358 0.950 . S
C346 C345 1.369 . S
C346 C347 1.392 . S
C346 H359 0.951 . S
C347 C346 1.392 . S
C347 C349 1.384 . S
H348 C350 0.949 . S
C349 C347 1.384 . S
C349 C350 1.385 . S
C349 H351 0.950 . S
C350 C344 1.404 . S
C350 H348 0.949 . S
C350 C349 1.385 . S
H351 C349 0.950 . S
H352 C336 0.951 . S
H353 C338 0.951 . S
H354 C340 0.951 . S
H355 C341 0.950 . S
H356 C342 0.950 1_554 S
H357 C343 0.960 . S
H358 C345 0.950 . S
H359 C346 0.951 . S
C360 C361 1.386 . S
C360 C362 1.383 . S
C360 H376 0.951 . S
C361 C360 1.386 . S
C361 C365 1.383 . S
C362 C360 1.383 . S
C362 C363 1.402 . S
C362 H377 0.951 . S
C363 C362 1.402 . S
C363 C364 1.375 . S
C363 C366 1.480 . S
C364 C363 1.375 . S
C364 C365 1.367 . S
C364 H378 0.951 . S
C365 C361 1.383 . S
C365 C364 1.367 . S
C365 H379 0.950 . S
C366 C363 1.480 . S
C366 C367 1.297 . S
C366 H380 0.952 1_655 S
C367 C366 1.297 . S
C367 C368 1.479 1_655 S
C367 H381 0.950 . S
C368 C367 1.479 1_455 S
C368 C369 1.375 . S
C368 C374 1.404 . S
C369 C368 1.375 . S
C369 C370 1.369 . S
C369 H382 0.950 1_455 S
C370 C369 1.369 . S
C370 C371 1.392 . S
C370 H383 0.951 . S
C371 C370 1.392 . S
C371 C373 1.384 . S
H372 C374 0.949 . S
C373 C371 1.384 . S
C373 C374 1.385 . S
C373 H375 0.950 . S
C374 C368 1.404 . S
C374 H372 0.949 . S
C374 C373 1.385 . S
H375 C373 0.950 . S
H376 C360 0.951 . S
H377 C362 0.951 . S
H378 C364 0.951 . S
H379 C365 0.950 . S
H380 C366 0.952 1_455 S
H381 C367 0.950 . S
H382 C369 0.950 1_655 S
H383 C370 0.951 . S
C384 C385 1.386 . S
C384 C386 1.383 . S
C384 H400 0.951 . S
C385 C384 1.386 . S
C385 C389 1.383 . S
C386 C384 1.383 . S
C386 C387 1.402 . S
C386 H401 0.951 . S
C387 C386 1.402 . S
C387 C388 1.375 . S
C387 C390 1.481 . S
C388 C387 1.375 . S
C388 C389 1.367 . S
C388 H402 0.951 . S
C389 C385 1.383 . S
C389 C388 1.367 . S
C389 H403 0.950 . S
C390 C387 1.481 . S
C390 C391 1.297 . S
C390 H404 0.950 . S
C391 C390 1.297 . S
C391 C392 1.479 . S
C391 H405 0.950 . S
C392 C391 1.479 . S
C392 C393 1.375 . S
C392 C398 1.404 . S
C393 C392 1.375 . S
C393 C394 1.369 . S
C393 H406 0.950 . S
C394 C393 1.369 . S
C394 C395 1.392 . S
C394 H407 0.951 . S
C395 C394 1.392 . S
C395 C397 1.384 . S
H396 C398 0.949 . S
C397 C395 1.384 . S
C397 C398 1.385 . S
C397 H399 0.950 . S
C398 C392 1.404 . S
C398 H396 0.949 . S
C398 C397 1.385 . S
H399 C397 0.950 . S
H400 C384 0.951 . S
H401 C386 0.951 . S
H402 C388 0.951 . S
H403 C389 0.950 . S
H404 C390 0.950 . S
H405 C391 0.950 . S
H406 C393 0.950 . S
H407 C394 0.951 . S
C408 C409 1.386 . S
C408 C410 1.383 . S
C408 H424 0.951 . S
C409 C408 1.386 . S
C409 C413 1.383 . S
C410 C408 1.383 . S
C410 C411 1.402 . S
C410 H425 0.951 . S
C411 C410 1.402 . S
C411 C412 1.375 . S
C411 C414 1.481 . S
C412 C411 1.375 . S
C412 C413 1.367 . S
C412 H426 0.951 . S
C413 C409 1.383 . S
C413 C412 1.367 . S
C413 H427 0.950 . S
C414 C411 1.481 . S
C414 C415 1.297 . S
C414 H428 0.950 . S
C415 C414 1.297 . S
C415 C416 1.479 . S
C415 H429 0.950 . S
C416 C415 1.479 . S
C416 C417 1.375 . S
C416 C422 1.404 . S
C417 C416 1.375 . S
C417 C418 1.369 . S
C417 H430 0.950 . S
C418 C417 1.369 . S
C418 C419 1.392 . S
C418 H431 0.951 . S
C419 C418 1.392 . S
C419 C421 1.384 . S
H420 C422 0.949 . S
C421 C419 1.384 . S
C421 C422 1.385 . S
C421 H423 0.950 . S
C422 C416 1.404 . S
C422 H420 0.949 . S
C422 C421 1.385 . S
H423 C421 0.950 . S
H424 C408 0.951 . S
H425 C410 0.951 . S
H426 C412 0.951 . S
H427 C413 0.950 . S
H428 C414 0.950 . S
H429 C415 0.950 . S
H430 C417 0.950 . S
H431 C418 0.951 . S
C432 C433 1.386 . S
C432 C434 1.383 . S
C432 H448 0.951 . S
C433 C432 1.386 . S
C433 C437 1.383 . S
C434 C432 1.383 . S
C434 C435 1.402 . S
C434 H449 0.951 . S
C435 C434 1.402 . S
C435 C436 1.375 . S
C435 C438 1.481 . S
C436 C435 1.375 . S
C436 C437 1.367 . S
C436 H450 0.951 . S
C437 C433 1.383 . S
C437 C436 1.367 . S
C437 H451 0.950 . S
C438 C435 1.481 . S
C438 C439 1.297 . S
C438 H452 0.950 . S
C439 C438 1.297 . S
C439 C440 1.479 . S
C439 H453 0.950 . S
C440 C439 1.479 . S
C440 C441 1.375 . S
C440 C446 1.404 . S
C441 C440 1.375 . S
C441 C442 1.369 . S
C441 H454 0.950 . S
C442 C441 1.369 . S
C442 C443 1.392 . S
C442 H455 0.951 . S
C443 C442 1.392 . S
C443 C445 1.384 . S
H444 C446 0.949 . S
C445 C443 1.384 . S
C445 C446 1.385 . S
C445 H447 0.950 . S
C446 C440 1.404 . S
C446 H444 0.949 . S
C446 C445 1.385 . S
H447 C445 0.950 . S
H448 C432 0.951 . S
H449 C434 0.951 . S
H450 C436 0.951 . S
H451 C437 0.950 . S
H452 C438 0.950 . S
H453 C439 0.950 . S
H454 C441 0.950 . S
H455 C442 0.951 . S
C456 C457 1.386 . S
C456 C458 1.383 . S
C456 H472 0.951 . S
C457 C456 1.386 . S
C457 C461 1.383 . S
C458 C456 1.383 . S
C458 C459 1.402 . S
C458 H473 0.951 . S
C459 C458 1.402 . S
C459 C460 1.375 . S
C459 C462 1.481 . S
C460 C459 1.375 . S
C460 C461 1.367 . S
C460 H474 0.951 . S
C461 C457 1.383 . S
C461 C460 1.367 . S
C461 H475 0.950 . S
C462 C459 1.481 . S
C462 C463 1.297 . S
C462 H476 0.950 . S
C463 C462 1.297 . S
C463 C464 1.479 . S
C463 H477 0.950 . S
C464 C463 1.479 . S
C464 C465 1.375 . S
C464 C470 1.404 . S
C465 C464 1.375 . S
C465 C466 1.369 . S
C465 H478 0.950 . S
C466 C465 1.369 . S
C466 C467 1.392 . S
C466 H479 0.951 . S
C467 C466 1.392 . S
C467 C469 1.384 . S
H468 C470 0.949 . S
C469 C467 1.384 . S
C469 C470 1.385 . S
C469 H471 0.950 . S
C470 C464 1.404 . S
C470 H468 0.949 . S
C470 C469 1.385 . S
H471 C469 0.950 . S
H472 C456 0.951 . S
H473 C458 0.951 . S
H474 C460 0.951 . S
H475 C461 0.950 . S
H476 C462 0.950 . S
H477 C463 0.950 . S
H478 C465 0.950 . S
H479 C466 0.951 . S
C480 C481 1.386 . S
C480 C482 1.383 . S
C480 H496 0.951 . S
C481 C480 1.386 . S
C481 C485 1.383 . S
C482 C480 1.383 . S
C482 C483 1.402 . S
C482 H497 0.951 . S
C483 C482 1.402 . S
C483 C484 1.375 . S
C483 C486 1.481 . S
C484 C483 1.375 . S
C484 C485 1.367 . S
C484 H498 0.951 . S
C485 C481 1.383 . S
C485 C484 1.367 . S
C485 H499 0.950 . S
C486 C483 1.481 . S
C486 C487 1.297 . S
C486 H500 0.950 . S
C487 C486 1.297 . S
C487 C488 1.479 . S
C487 H501 0.950 . S
C488 C487 1.479 . S
C488 C489 1.375 . S
C488 C494 1.404 . S
C489 C488 1.375 . S
C489 C490 1.369 . S
C489 H502 0.950 . S
C490 C489 1.369 . S
C490 C491 1.392 . S
C490 H503 0.951 . S
C491 C490 1.392 . S
C491 C493 1.384 . S
H492 C494 0.949 . S
C493 C491 1.384 . S
C493 C494 1.385 . S
C493 H495 0.950 . S
C494 C488 1.404 . S
C494 H492 0.949 . S
C494 C493 1.385 . S
H495 C493 0.950 . S
H496 C480 0.951 . S
H497 C482 0.951 . S
H498 C484 0.951 . S
H499 C485 0.950 . S
H500 C486 0.950 . S
H501 C487 0.950 . S
H502 C489 0.950 . S
H503 C490 0.951 . S
C504 C505 1.386 . S
C504 C506 1.383 . S
C504 H520 0.951 . S
C505 C504 1.386 . S
C505 C509 1.383 . S
C506 C504 1.383 . S
C506 C507 1.402 . S
C506 H521 0.951 . S
C507 C506 1.402 . S
C507 C508 1.375 . S
C507 C510 1.481 . S
C508 C507 1.375 . S
C508 C509 1.367 . S
C508 H522 0.951 . S
C509 C505 1.383 . S
C509 C508 1.367 . S
C509 H523 0.950 . S
C510 C507 1.481 . S
C510 C511 1.297 . S
C510 H524 0.950 . S
C511 C510 1.297 . S
C511 C512 1.479 . S
C511 H525 0.950 . S
C512 C511 1.479 . S
C512 C513 1.375 . S
C512 C518 1.404 . S
C513 C512 1.375 . S
C513 C514 1.369 . S
C513 H526 0.950 . S
C514 C513 1.369 . S
C514 C515 1.392 . S
C514 H527 0.951 . S
C515 C514 1.392 . S
C515 C517 1.384 . S
H516 C518 0.949 . S
C517 C515 1.384 . S
C517 C518 1.385 . S
C517 H519 0.950 . S
C518 C512 1.404 . S
C518 H516 0.949 . S
C518 C517 1.385 . S
H519 C517 0.950 . S
H520 C504 0.951 . S
H521 C506 0.951 . S
H522 C508 0.951 . S
H523 C509 0.950 . S
H524 C510 0.950 . S
H525 C511 0.950 . S
H526 C513 0.950 . S
H527 C514 0.951 . S
C528 C529 1.386 . S
C528 C530 1.383 . S
C528 H544 0.951 . S
C529 C528 1.386 . S
C529 C533 1.383 . S
C530 C528 1.383 . S
C530 C531 1.402 . S
C530 H545 0.951 . S
C531 C530 1.402 . S
C531 C532 1.375 . S
C531 C534 1.481 . S
C532 C531 1.375 . S
C532 C533 1.367 . S
C532 H546 0.951 . S
C533 C529 1.383 . S
C533 C532 1.367 . S
C533 H547 0.950 . S
C534 C531 1.481 . S
C534 C535 1.297 . S
C534 H548 0.950 . S
C535 C534 1.297 . S
C535 C536 1.479 . S
C535 H549 0.950 . S
C536 C535 1.479 . S
C536 C537 1.375 . S
C536 C542 1.404 . S
C537 C536 1.375 . S
C537 C538 1.369 . S
C537 H550 0.950 . S
C538 C537 1.369 . S
C538 C539 1.392 . S
C538 H551 0.951 . S
C539 C538 1.392 . S
C539 C541 1.384 . S
H540 C542 0.949 . S
C541 C539 1.384 . S
C541 C542 1.385 . S
C541 H543 0.950 . S
C542 C536 1.404 . S
C542 H540 0.949 . S
C542 C541 1.385 . S
H543 C541 0.950 . S
H544 C528 0.951 . S
H545 C530 0.951 . S
H546 C532 0.951 . S
H547 C533 0.950 . S
H548 C534 0.950 . S
H549 C535 0.950 . S
H550 C537 0.950 . S
H551 C538 0.951 . S
C552 C553 1.386 . S
C552 C554 1.383 . S
C552 H568 0.951 . S
C553 C552 1.386 . S
C553 C557 1.383 . S
C554 C552 1.383 . S
C554 C555 1.402 . S
C554 H569 0.951 . S
C555 C554 1.402 . S
C555 C556 1.375 . S
C555 C558 1.481 . S
C556 C555 1.375 . S
C556 C557 1.367 . S
C556 H570 0.951 . S
C557 C553 1.383 . S
C557 C556 1.367 . S
C557 H571 0.950 . S
C558 C555 1.481 . S
C558 C559 1.297 . S
C558 H572 0.950 . S
C559 C558 1.297 . S
C559 C560 1.479 1_655 S
C559 H573 0.950 . S
C560 C559 1.479 1_455 S
C560 C561 1.375 . S
C560 C566 1.404 . S
C561 C560 1.375 . S
C561 C562 1.369 . S
C561 H574 0.950 . S
C562 C561 1.369 . S
C562 C563 1.392 . S
C562 H575 0.951 . S
C563 C562 1.392 . S
C563 C565 1.384 . S
H564 C566 0.949 . S
C565 C563 1.384 . S
C565 C566 1.385 . S
C565 H567 0.950 . S
C566 C560 1.404 . S
C566 H564 0.949 . S
C566 C565 1.385 . S
H567 C565 0.950 . S
H568 C552 0.951 . S
H569 C554 0.951 . S
H570 C556 0.951 . S
H571 C557 0.950 . S
H572 C558 0.950 . S
H573 C559 0.950 . S
H574 C561 0.950 . S
H575 C562 0.951 . S
C576 C577 1.386 . S
C576 C578 1.383 . S
C576 H592 0.951 . S
C577 C576 1.386 . S
C577 C581 1.383 . S
C578 C576 1.383 . S
C578 C579 1.402 . S
C578 H593 0.951 . S
C579 C578 1.402 . S
C579 C580 1.375 . S
C579 C582 1.481 . S
C580 C579 1.375 . S
C580 C581 1.367 . S
C580 H594 0.951 . S
C581 C577 1.383 . S
C581 C580 1.367 . S
C581 H595 0.950 . S
C582 C579 1.481 . S
C582 C583 1.297 . S
C582 H596 0.950 . S
C583 C582 1.297 . S
C583 C584 1.479 1_545 S
C583 H597 0.950 . S
C584 C583 1.479 1_565 S
C584 C585 1.375 . S
C584 C590 1.404 . S
C585 C584 1.375 . S
C585 C586 1.369 . S
C585 H598 0.950 . S
C586 C585 1.369 . S
C586 C587 1.392 . S
C586 H599 0.951 . S
C587 C586 1.392 . S
C587 C589 1.384 . S
H588 C590 0.949 . S
C589 C587 1.384 . S
C589 C590 1.385 . S
C589 H591 0.950 . S
C590 C584 1.404 . S
C590 H588 0.949 . S
C590 C589 1.385 . S
H591 C589 0.950 . S
H592 C576 0.951 . S
H593 C578 0.951 . S
H594 C580 0.951 . S
H595 C581 0.950 . S
H596 C582 0.950 . S
H597 C583 0.950 . S
H598 C585 0.950 . S
H599 C586 0.951 . S
C600 C601 1.386 . S
C600 C602 1.383 . S
C600 H616 0.951 . S
C601 C600 1.386 . S
C601 C605 1.383 . S
C602 C600 1.383 . S
C602 C603 1.402 . S
C602 H617 0.951 . S
C603 C602 1.402 . S
C603 C604 1.375 . S
C603 C606 1.481 . S
C604 C603 1.375 . S
C604 C605 1.367 . S
C604 H618 0.951 . S
C605 C601 1.383 . S
C605 C604 1.367 . S
C605 H619 0.950 . S
C606 C603 1.481 . S
C606 C607 1.297 . S
C606 H620 0.950 . S
C607 C606 1.297 . S
C607 C608 1.479 . S
C607 H621 0.950 . S
C608 C607 1.479 . S
C608 C609 1.375 . S
C608 C614 1.404 . S
C609 C608 1.375 . S
C609 C610 1.369 . S
C609 H622 0.950 . S
C610 C609 1.369 . S
C610 C611 1.392 . S
C610 H623 0.951 . S
C611 C610 1.392 . S
C611 C613 1.384 . S
H612 C614 0.949 . S
C613 C611 1.384 . S
C613 C614 1.385 . S
C613 H615 0.950 . S
C614 C608 1.404 . S
C614 H612 0.949 . S
C614 C613 1.385 . S
H615 C613 0.950 . S
H616 C600 0.951 . S
H617 C602 0.951 . S
H618 C604 0.951 . S
H619 C605 0.950 . S
H620 C606 0.950 . S
H621 C607 0.950 . S
H622 C609 0.950 . S
H623 C610 0.951 . S
C624 C625 1.386 . S
C624 C626 1.383 . S
C624 H640 0.951 . S
C625 C624 1.386 . S
C625 C629 1.383 . S
C626 C624 1.383 . S
C626 C627 1.402 . S
C626 H641 0.951 . S
C627 C626 1.402 . S
C627 C628 1.375 . S
C627 C630 1.481 . S
C628 C627 1.375 . S
C628 C629 1.367 . S
C628 H642 0.951 . S
C629 C625 1.383 . S
C629 C628 1.367 . S
C629 H643 0.950 . S
C630 C627 1.481 . S
C630 C631 1.297 . S
C630 H644 0.950 . S
C631 C630 1.297 . S
C631 C632 1.479 1_455 S
C631 H645 0.950 . S
C632 C631 1.479 1_655 S
C632 C633 1.375 . S
C632 C638 1.404 . S
C633 C632 1.375 . S
C633 C634 1.369 . S
C633 H646 0.950 . S
C634 C633 1.369 . S
C634 C635 1.392 . S
C634 H647 0.951 . S
C635 C634 1.392 . S
C635 C637 1.384 . S
H636 C638 0.949 . S
C637 C635 1.384 . S
C637 C638 1.385 . S
C637 H639 0.950 . S
C638 C632 1.404 . S
C638 H636 0.949 . S
C638 C637 1.385 . S
H639 C637 0.950 . S
H640 C624 0.951 . S
H641 C626 0.951 . S
H642 C628 0.951 . S
H643 C629 0.950 . S
H644 C630 0.950 . S
H645 C631 0.950 . S
H646 C633 0.950 . S
H647 C634 0.951 . S
C648 C649 1.386 . S
C648 C650 1.383 . S
C648 H664 0.951 . S
C649 C648 1.386 . S
C649 C653 1.383 . S
C650 C648 1.383 . S
C650 C651 1.402 . S
C650 H665 0.951 . S
C651 C650 1.402 . S
C651 C652 1.375 . S
C651 C654 1.481 1_545 S
C652 C651 1.375 . S
C652 C653 1.367 . S
C652 H666 0.951 . S
C653 C649 1.383 . S
C653 C652 1.367 . S
C653 H667 0.950 . S
C654 C651 1.481 1_565 S
C654 C655 1.297 . S
C654 H668 0.950 . S
C655 C654 1.297 . S
C655 C656 1.479 . S
C655 H669 0.950 . S
C656 C655 1.479 . S
C656 C657 1.375 . S
C656 C662 1.404 . S
C657 C656 1.375 . S
C657 C658 1.369 . S
C657 H670 0.950 . S
C658 C657 1.369 . S
C658 C659 1.392 . S
C658 H671 0.951 . S
C659 C658 1.392 . S
C659 C661 1.384 . S
H660 C662 0.949 . S
C661 C659 1.384 . S
C661 C662 1.385 . S
C661 H663 0.950 . S
C662 C656 1.404 . S
C662 H660 0.949 . S
C662 C661 1.385 . S
H663 C661 0.950 . S
H664 C648 0.951 . S
H665 C650 0.951 . S
H666 C652 0.951 . S
H667 C653 0.950 . S
H668 C654 0.950 . S
H669 C655 0.950 . S
H670 C657 0.950 . S
H671 C658 0.951 . S
C241 C178 2.577 . S
C251 C18 2.159 . S
C265 C209 2.197 . S
C275 C49 2.579 . S
C289 C98 2.213 . S
C299 C138 2.560 . S
C313 C9 2.581 . S
C323 C169 2.192 . S
C337 C218 2.587 . S
C347 C58 2.241 . S
C361 C89 2.585 . S
C371 C129 2.161 . S
C385 C10 2.020 . S
C395 C86 1.997 . S
C409 C50 2.046 . S
C419 C6 1.926 . S
C433 C90 2.019 . S
C443 C46 2.006 . S
C457 C139 2.037 . S
C467 C175 2.006 . S
C481 C179 2.021 . S
C491 C215 1.937 . S
C505 C135 1.968 . S
C515 C219 1.999 . S
C529 C19 1.002 . S
C539 C95 1.001 . S
C553 C59 1.011 . S
C563 C15 0.975 . S
C577 C99 0.971 . S
C587 C55 1.003 . S
C601 C130 0.972 . S
C611 C166 1.041 . S
C625 C170 0.932 . S
C635 C206 1.002 . S
C649 C126 0.997 . S
C659 C210 1.039 . S
