# Generated by pormake.
# Topology snk, (6)-cn, num edge types: 1
# Building blocks:
#     Node 0, Type 0, BuildingBlock: KUMBUR_clean_sbu_0, # of connection points: 6
#     Node 1, Type 0, BuildingBlock: KUMBUR_clean_sbu_0, # of connection points: 6
#     Node 2, Type 0, BuildingBlock: KUMBUR_clean_sbu_0, # of connection points: 6
#     Node 3, Type 0, BuildingBlock: KUMBUR_clean_sbu_0, # of connection points: 6
#     Node 4, Type 0, BuildingBlock: KUMBUR_clean_sbu_0, # of connection points: 6
#     Node 5, Type 0, BuildingBlock: KUMBUR_clean_sbu_0, # of connection points: 6
#     Node 6, Type 0, BuildingBlock: KUMBUR_clean_sbu_0, # of connection points: 6
#     Node 7, Type 0, BuildingBlock: KUMBUR_clean_sbu_0, # of connection points: 6
#     Edge 8, Type (0, 0), BuildingBlock: TEMPAE_clean_linker_10, # of connection points: 2
#     Edge 9, Type (0, 0), BuildingBlock: TEMPAE_clean_linker_10, # of connection points: 2
#     Edge 10, Type (0, 0), BuildingBlock: TEMPAE_clean_linker_10, # of connection points: 2
#     Edge 11, Type (0, 0), BuildingBlock: TEMPAE_clean_linker_10, # of connection points: 2
#     Edge 12, Type (0, 0), BuildingBlock: TEMPAE_clean_linker_10, # of connection points: 2
#     Edge 13, Type (0, 0), BuildingBlock: TEMPAE_clean_linker_10, # of connection points: 2
#     Edge 14, Type (0, 0), BuildingBlock: TEMPAE_clean_linker_10, # of connection points: 2
#     Edge 15, Type (0, 0), BuildingBlock: TEMPAE_clean_linker_10, # of connection points: 2
#     Edge 16, Type (0, 0), BuildingBlock: TEMPAE_clean_linker_10, # of connection points: 2
#     Edge 17, Type (0, 0), BuildingBlock: TEMPAE_clean_linker_10, # of connection points: 2
#     Edge 18, Type (0, 0), BuildingBlock: TEMPAE_clean_linker_10, # of connection points: 2
#     Edge 19, Type (0, 0), BuildingBlock: TEMPAE_clean_linker_10, # of connection points: 2
#     Edge 20, Type (0, 0), BuildingBlock: TEMPAE_clean_linker_10, # of connection points: 2
#     Edge 21, Type (0, 0), BuildingBlock: TEMPAE_clean_linker_10, # of connection points: 2
#     Edge 22, Type (0, 0), BuildingBlock: TEMPAE_clean_linker_10, # of connection points: 2
#     Edge 23, Type (0, 0), BuildingBlock: TEMPAE_clean_linker_10, # of connection points: 2
#     Edge 24, Type (0, 0), BuildingBlock: TEMPAE_clean_linker_10, # of connection points: 2
#     Edge 25, Type (0, 0), BuildingBlock: TEMPAE_clean_linker_10, # of connection points: 2
#     Edge 26, Type (0, 0), BuildingBlock: TEMPAE_clean_linker_10, # of connection points: 2
#     Edge 27, Type (0, 0), BuildingBlock: TEMPAE_clean_linker_10, # of connection points: 2
#     Edge 28, Type (0, 0), BuildingBlock: TEMPAE_clean_linker_10, # of connection points: 2
#     Edge 29, Type (0, 0), BuildingBlock: TEMPAE_clean_linker_10, # of connection points: 2
#     Edge 30, Type (0, 0), BuildingBlock: TEMPAE_clean_linker_10, # of connection points: 2
#     Edge 31, Type (0, 0), BuildingBlock: TEMPAE_clean_linker_10, # of connection points: 2
# Relax obj value: 0.006
# Max RMSD: 0.053
# Mean RMSD: 0.050
data_MOF--net-snk--node1-KUMBUR_clean_sbu_0--edge1-TEMPAE_clean_linker_10
_symmetry_space_group_name_H-M    P1
_symmetry_Int_Tables_number       1
_symmetry_cell_setting            triclinic
loop_
_symmetry_equiv_pos_as_xyz
'x, y, z'
_cell_length_a     38.21656
_cell_length_b     38.20979
_cell_length_c     24.713202
_cell_angle_alpha  88.050213
_cell_angle_beta   88.083113
_cell_angle_gamma 89.75212
loop_
_atom_site_label
_atom_site_type_symbol
_atom_site_fract_x
_atom_site_fract_y
_atom_site_fract_z
_atom_type_partial_charge
Tb0 Tb 0.999 0.97947 0.46217 0.0
C1 C 0.02034 0.1075 0.6047 0.0
C2 C 0.08203 0.1212 0.59548 0.0
C3 C 0.04063 0.16579 0.62452 0.0
C4 C 0.05411 0.09752 0.59112 0.0
C5 C 0.01318 0.14164 0.62213 0.0
C6 C 0.07505 0.15551 0.61156 0.0
C7 C 0.95304 0.12433 0.63926 0.0
N8 N 0.99478 0.08312 0.60359 0.0
C9 C 0.96166 0.09062 0.62278 0.0
C10 C 0.97885 0.15008 0.63847 0.0
Tb11 Tb 0.01185 0.02788 0.58084 0.0
N12 N 0.05982 0.064 0.57637 0.0
C13 C 0.09334 0.05237 0.56672 0.0
C14 C 0.11616 0.10953 0.58445 0.0
C15 C 0.12181 0.07498 0.56995 0.0
H16 H 0.94161 0.07075 0.62429 0.0
H17 H 0.14814 0.06561 0.56166 0.0
H18 H 0.09611 0.17416 0.61466 0.0
H19 H 0.92657 0.13031 0.65304 0.0
H20 H 0.09864 0.02572 0.55611 0.0
H21 H 0.86286 0.94134 0.48218 0.0
H22 H 0.13831 0.1269 0.58726 0.0
H23 H 0.06906 0.9367 0.41773 0.0
H24 H 0.9122 0.98159 0.48612 0.0
H25 H 0.0843 0.87689 0.39039 0.0
H26 H 0.03566 0.19218 0.63763 0.0
H27 H 0.87293 0.87965 0.45895 0.0
H28 H 0.91531 0.83222 0.43286 0.0
H29 H 0.97224 0.17605 0.65196 0.0
H30 H 0.97578 0.81428 0.40982 0.0
N31 N 0.95117 0.94314 0.46739 0.0
C32 C 0.9176 0.95478 0.47655 0.0
C33 C 0.89501 0.89718 0.46111 0.0
C34 C 0.92919 0.88551 0.45042 0.0
C35 C 0.88923 0.93196 0.47425 0.0
C36 C 0.95702 0.90939 0.45398 0.0
H37 H 0.03899 0.83075 0.39385 0.0
N38 N 0.01614 0.92414 0.43986 0.0
C39 C 0.0579 0.88282 0.40454 0.0
C40 C 0.99077 0.89948 0.44016 0.0
C41 C 0.04916 0.91668 0.42019 0.0
C42 C 0.03229 0.85683 0.40672 0.0
C43 C 0.99804 0.86518 0.42355 0.0
O44 O 0.0185 0.98412 0.38097 0.0
O45 O 0.02324 0.02584 0.49415 0.0
O46 O 0.98182 0.06296 0.52683 0.0
O47 O 0.95905 0.02088 0.47179 0.0
O48 O 0.052 0.99798 0.44039 0.0
O49 O 0.96465 0.99527 0.40141 0.0
O50 O 0.99211 0.02318 0.66186 0.0
O51 O 0.98766 0.98155 0.54888 0.0
O52 O 0.02931 0.9445 0.51607 0.0
O53 O 0.0518 0.98653 0.57146 0.0
O54 O 0.95886 0.00932 0.60261 0.0
O55 O 0.04613 0.01231 0.64174 0.0
C56 C 0.05223 0.02618 0.46724 0.0
C57 C 0.97679 0.9737 0.31403 0.0
C58 C 0.97366 0.97008 0.21539 0.0
C59 C 0.98597 0.9867 0.26135 0.0
C60 C 0.95334 0.93959 0.22306 0.0
C61 C 0.95527 0.94408 0.32001 0.0
C62 C 0.94419 0.92682 0.27498 0.0
C63 C 0.95971 0.05313 0.48994 0.0
C64 C 0.98798 0.99226 0.3622 0.0
C65 C 0.97071 0.8408 0.42226 0.0
C66 C 0.93629 0.85102 0.43527 0.0
C67 C 0.95867 0.98111 0.57577 0.0
C68 C 0.03361 0.03534 0.72818 0.0
C69 C 0.01982 0.02642 0.78044 0.0
C70 C 0.03045 0.04465 0.82586 0.0
C71 C 0.05452 0.07222 0.81811 0.0
C72 C 0.05871 0.06205 0.72221 0.0
C73 C 0.0686 0.0807 0.76664 0.0
C74 C 0.05128 0.95432 0.55318 0.0
C75 C 0.02276 0.01577 0.6808 0.0
H76 H 1.0016 0.01025 0.25625 0.0
H77 H 0.94424 0.9257 0.18876 0.0
H78 H 0.94627 0.93458 0.35928 0.0
H79 H 0.92794 0.90375 0.28038 0.0
H80 H 1.0011 0.00525 0.78578 0.0
H81 H 0.0634 0.08647 0.85221 0.0
H82 H 0.07135 0.06816 0.68354 0.0
H83 H 0.08782 0.10137 0.76131 0.0
Tb84 Tb 0.28553 0.74954 0.70593 0.0
C85 C 0.15058 0.77103 0.84318 0.0
C86 C 0.13758 0.83271 0.83147 0.0
C87 C 0.09031 0.79132 0.8508 0.0
C88 C 0.16174 0.80473 0.83151 0.0
C89 C 0.11485 0.76391 0.85417 0.0
C90 C 0.10169 0.82573 0.83967 0.0
C91 C 0.13089 0.7041 0.87688 0.0
N92 N 0.17521 0.74556 0.84726 0.0
C93 C 0.16607 0.7126 0.86594 0.0
C94 C 0.10509 0.72976 0.87024 0.0
Tb95 Tb 0.23214 0.76178 0.82876 0.0
N96 N 0.19665 0.81035 0.82476 0.0
C97 C 0.20926 0.84384 0.82044 0.0
C98 C 0.15036 0.86689 0.82561 0.0
C99 C 0.18636 0.87247 0.82011 0.0
H100 H 0.18578 0.69255 0.87103 0.0
H101 H 0.19652 0.89886 0.81615 0.0
H102 H 0.08266 0.84684 0.83904 0.0
H103 H 0.12371 0.67778 0.89034 0.0
H104 H 0.23699 0.84882 0.81668 0.0
H105 H 0.32131 0.61239 0.70858 0.0
H106 H 0.13278 0.88916 0.82695 0.0
H107 H 0.33209 0.81995 0.66985 0.0
H108 H 0.28073 0.6623 0.71086 0.0
H109 H 0.39428 0.83523 0.65295 0.0
H110 H 0.06267 0.78637 0.85857 0.0
H111 H 0.38511 0.62241 0.70019 0.0
H112 H 0.43517 0.66495 0.69216 0.0
H113 H 0.0779 0.72317 0.87901 0.0
H114 H 0.45519 0.72585 0.67761 0.0
N115 N 0.32101 0.70092 0.7066 0.0
C116 C 0.30846 0.6674 0.70801 0.0
C117 C 0.36746 0.64456 0.70266 0.0
C118 C 0.38019 0.67883 0.69949 0.0
C119 C 0.33143 0.63883 0.70676 0.0
C120 C 0.35596 0.70673 0.70098 0.0
H121 H 0.44004 0.78954 0.66169 0.0
N122 N 0.34253 0.76628 0.68949 0.0
C123 C 0.38702 0.80854 0.66414 0.0
C124 C 0.36716 0.74071 0.69213 0.0
C125 C 0.35178 0.79976 0.67366 0.0
C126 C 0.41279 0.78271 0.66931 0.0
C127 C 0.40296 0.74814 0.68249 0.0
O128 O 0.28348 0.77303 0.62755 0.0
O129 O 0.24104 0.77527 0.74372 0.0
O130 O 0.19936 0.73645 0.77217 0.0
O131 O 0.24232 0.71176 0.71553 0.0
O132 O 0.26966 0.80406 0.68837 0.0
O133 O 0.27125 0.71856 0.64152 0.0
O134 O 0.23615 0.73909 0.90742 0.0
O135 O 0.27588 0.73535 0.7903 0.0
O136 O 0.31857 0.77257 0.76511 0.0
O137 O 0.27542 0.79926 0.81833 0.0
O138 O 0.24784 0.70729 0.84754 0.0
O139 O 0.24479 0.79411 0.8924 0.0
C140 C 0.24192 0.80473 0.71913 0.0
C141 C 0.29599 0.73521 0.55557 0.0
C142 C 0.30036 0.73165 0.45676 0.0
C143 C 0.28137 0.74064 0.50435 0.0
C144 C 0.33429 0.71766 0.46135 0.0
C145 C 0.32978 0.72106 0.5588 0.0
C146 C 0.34881 0.71247 0.51202 0.0
C147 C 0.20952 0.71465 0.73428 0.0
C148 C 0.27563 0.74382 0.60523 0.0
C149 C 0.42751 0.72069 0.68433 0.0
C150 C 0.41611 0.68603 0.69263 0.0
C151 C 0.27462 0.7059 0.81489 0.0
C152 C 0.22071 0.77657 0.9785 0.0
C153 C 0.2334 0.76771 0.03009 0.0
C154 C 0.21312 0.77456 0.07743 0.0
C155 C 0.18007 0.79042 0.07218 0.0
C156 C 0.18779 0.79264 0.97464 0.0
C157 C 0.16759 0.7994 1.02115 0.0
C158 C 0.30855 0.7947 0.80263 0.0
C159 C 0.24191 0.76896 0.92918 0.0
H160 H 0.2551 0.75123 0.50167 0.0
H161 H 0.34979 0.71103 0.42563 0.0
H162 H 0.34146 0.71647 0.59736 0.0
H163 H 0.37494 0.70167 0.51505 0.0
H164 H 0.25881 0.75524 0.0333 0.0
H165 H 0.16406 0.79649 0.10766 0.0
H166 H 0.17772 0.80023 0.93582 0.0
H167 H 0.14224 0.81186 1.01763 0.0
Tb168 Tb 0.51078 0.97711 0.08231 0.0
C169 C 0.49437 0.11457 0.94985 0.0
C170 C 0.43239 0.12736 0.95417 0.0
C171 C 0.47431 0.17497 0.94365 0.0
C172 C 0.46031 0.10318 0.95609 0.0
C173 C 0.50186 0.15051 0.94225 0.0
C174 C 0.43958 0.16338 0.94943 0.0
C175 C 0.56262 0.13498 0.92646 0.0
N176 N 0.52004 0.09003 0.94746 0.0
C177 C 0.55377 0.09959 0.93388 0.0
C178 C 0.53662 0.1606 0.9314 0.0
Tb179 Tb 0.50322 0.03276 0.96045 0.0
N180 N 0.45455 0.06816 0.95976 0.0
C181 C 0.42114 0.05554 0.95875 0.0
C182 C 0.39817 0.11452 0.9548 0.0
C183 C 0.39254 0.07846 0.95695 0.0
H184 H 0.57407 0.07999 0.93026 0.0
H185 H 0.36616 0.06827 0.95683 0.0
H186 H 0.41847 0.1824 0.94864 0.0
H187 H 0.58948 0.14246 0.91704 0.0
H188 H 0.41614 0.02777 0.96006 0.0
H189 H 0.64788 0.94179 0.08609 0.0
H190 H 0.37603 0.13217 0.95194 0.0
H191 H 0.43994 0.92977 0.11224 0.0
H192 H 0.59787 0.98221 0.08254 0.0
H193 H 0.42461 0.8673 0.12543 0.0
H194 H 0.4795 0.20275 0.93848 0.0
H195 H 0.63809 0.87788 0.09139 0.0
H196 H 0.59572 0.82759 0.09475 0.0
H197 H 0.54351 0.18797 0.92537 0.0
H198 H 0.53471 0.80716 0.10474 0.0
N199 N 0.55949 0.94177 0.08305 0.0
C200 C 0.5929 0.95444 0.08399 0.0
C201 C 0.61592 0.89549 0.08835 0.0
C202 C 0.58173 0.88261 0.08894 0.0
C203 C 0.62152 0.93156 0.08598 0.0
C204 C 0.55377 0.90675 0.08685 0.0
H205 H 0.47066 0.82186 0.11743 0.0
N206 N 0.49402 0.91982 0.0953 0.0
C207 C 0.45147 0.87482 0.11615 0.0
C208 C 0.51973 0.89532 0.09311 0.0
C209 C 0.46027 0.91021 0.10874 0.0
C210 C 0.47752 0.84923 0.11141 0.0
C211 C 0.51228 0.85937 0.10074 0.0
O212 O 0.48479 0.97845 0.15894 0.0
O213 O 0.48604 0.02174 0.04337 0.0
O214 O 0.52476 0.06453 0.02239 0.0
O215 O 0.54834 0.02059 0.07815 0.0
O216 O 0.45568 0.99255 0.09597 0.0
O217 O 0.53975 0.98964 0.14984 0.0
O218 O 0.52878 0.03203 0.88344 0.0
O219 O 0.52801 0.9883 0.99952 0.0
O220 O 0.48935 0.94531 1.02036 0.0
O221 O 0.46567 0.98925 0.96474 0.0
O222 O 0.55823 0.01704 0.94629 0.0
O223 O 0.47414 0.01954 0.89341 0.0
C224 C 0.45574 0.02026 0.06507 0.0
C225 C 0.51986 0.9639 0.23351 0.0
C226 C 0.51924 0.95746 0.33254 0.0
C227 C 0.51312 0.97778 0.28493 0.0
C228 C 0.53237 0.92321 0.32769 0.0
C229 C 0.53303 0.92973 0.23003 0.0
C230 C 0.5392 0.90954 0.27679 0.0
C231 C 0.54497 0.05387 0.06215 0.0
C232 C 0.5133 0.98526 0.18395 0.0
C233 C 0.53987 0.83496 0.09951 0.0
C234 C 0.57459 0.84658 0.09382 0.0
C235 C 0.55822 0.98949 0.97753 0.0
C236 C 0.4928 0.04542 0.80935 0.0
C237 C 0.49646 0.03042 0.75816 0.0
C238 C 0.48821 0.04996 0.71071 0.0
C239 C 0.47668 0.08478 0.7154 0.0
C240 C 0.48118 0.08014 0.81271 0.0
C241 C 0.47327 0.09969 0.76604 0.0
C242 C 0.4692 0.95595 0.98052 0.0
C243 C 0.50029 0.02443 0.85891 0.0
H244 H 0.50281 1.00415 0.28781 0.0
H245 H 0.5379 0.90712 0.36333 0.0
H246 H 0.53876 0.91866 0.1913 0.0
H247 H 0.5495 0.88323 0.27356 0.0
H248 H 0.50507 1.00345 0.75541 0.0
H249 H 0.47063 0.10066 0.67975 0.0
H250 H 0.47804 0.09215 0.85128 0.0
H251 H 0.46439 0.1265 0.76915 0.0
Tb252 Tb 0.2822 0.25607 0.32665 0.0
C253 C 0.14788 0.24589 0.19327 0.0
C254 C 0.13394 0.18418 0.19639 0.0
C255 C 0.08854 0.22707 0.17699 0.0
C256 C 0.15812 0.21159 0.20155 0.0
C257 C 0.11313 0.25409 0.17992 0.0
C258 C 0.09899 0.19214 0.18486 0.0
C259 C 0.13078 0.31435 0.1657 0.0
N260 N 0.17278 0.27097 0.1938 0.0
C261 C 0.16506 0.30468 0.1778 0.0
C262 C 0.10457 0.28899 0.16737 0.0
Tb263 Tb 0.22878 0.25294 0.21015 0.0
N264 N 0.19229 0.20504 0.21152 0.0
C265 C 0.20395 0.17111 0.21587 0.0
C266 C 0.14571 0.14962 0.20216 0.0
C267 C 0.18085 0.14309 0.21204 0.0
H268 H 0.18526 0.3244 0.17559 0.0
H269 H 0.19027 0.11642 0.21639 0.0
H270 H 0.07998 0.17146 0.18125 0.0
H271 H 0.1247 0.34128 0.15457 0.0
H272 H 0.23093 0.16501 0.22318 0.0
H273 H 0.32628 0.39033 0.33259 0.0
H274 H 0.12794 0.12783 0.19879 0.0
H275 H 0.32678 0.18563 0.36622 0.0
H276 H 0.28297 0.34307 0.33653 0.0
H277 H 0.3886 0.16674 0.36982 0.0
H278 H 0.06168 0.23284 0.16705 0.0
H279 H 0.38882 0.37728 0.3136 0.0
H280 H 0.43633 0.33187 0.3043 0.0
H281 H 0.07815 0.29641 0.15709 0.0
H282 H 0.45364 0.26995 0.31494 0.0
N283 N 0.32037 0.30263 0.3212 0.0
C284 C 0.31012 0.33649 0.32913 0.0
C285 C 0.36993 0.35617 0.31583 0.0
C286 C 0.38063 0.32132 0.31173 0.0
C287 C 0.33469 0.36362 0.32671 0.0
C288 C 0.35494 0.29486 0.31575 0.0
H289 H 0.43597 0.2081 0.34169 0.0
N290 N 0.33897 0.23678 0.33431 0.0
C291 C 0.38225 0.19313 0.35603 0.0
C292 C 0.36468 0.2604 0.32253 0.0
C293 C 0.34727 0.20399 0.35425 0.0
C294 C 0.4089 0.21646 0.33972 0.0
C295 C 0.40033 0.25094 0.32439 0.0
O296 O 0.28155 0.23098 0.40421 0.0
O297 O 0.23373 0.23605 0.29493 0.0
O298 O 0.19712 0.28175 0.2699 0.0
O299 O 0.24094 0.297 0.32868 0.0
O300 O 0.26216 0.20307 0.34238 0.0
O301 O 0.27168 0.28602 0.39524 0.0
O302 O 0.23315 0.27916 0.13349 0.0
O303 O 0.27621 0.27369 0.24327 0.0
O304 O 0.31229 0.22552 0.26737 0.0
O305 O 0.26915 0.21182 0.20716 0.0
O306 O 0.24729 0.30715 0.19739 0.0
O307 O 0.24177 0.22373 0.14168 0.0
C308 C 0.23306 0.20567 0.3179 0.0
C309 C 0.29934 0.26663 0.47463 0.0
C310 C 0.30747 0.27218 0.57181 0.0
C311 C 0.28594 0.26462 0.52839 0.0
C312 C 0.34264 0.28131 0.56052 0.0
C313 C 0.33443 0.27603 0.4646 0.0
C314 C 0.35595 0.28317 0.50728 0.0
C315 C 0.20871 0.30012 0.31034 0.0
C316 C 0.27631 0.25995 0.42938 0.0
C317 C 0.42608 0.27671 0.31459 0.0
C318 C 0.41622 0.31196 0.30842 0.0
C319 C 0.27572 0.30482 0.22355 0.0
C320 C 0.21979 0.24519 0.05847 0.0
C321 C 0.23485 0.25415 1.00706 0.0
C322 C 0.21606 0.24906 0.95972 0.0
C323 C 0.1821 0.23505 0.96464 0.0
C324 C 0.18622 0.2305 0.06186 0.0
C325 C 0.1674 0.22577 1.01539 0.0
C326 C 0.30081 0.20776 0.22653 0.0
C327 C 0.23957 0.25051 0.10793 0.0
H328 H 0.25867 0.25787 0.53626 0.0
H329 H 0.35999 0.28674 0.59296 0.0
H330 H 0.34522 0.27812 0.4239 0.0
H331 H 0.38304 0.29029 0.49902 0.0
H332 H 0.261 0.26507 1.00391 0.0
H333 H 0.16721 0.23043 0.92904 0.0
H334 H 0.17461 0.22218 0.10015 0.0
H335 H 0.14147 0.21444 1.01871 0.0
Tb336 Tb 0.78022 0.25005 0.21976 0.0
C337 C 0.6436 0.26728 0.35351 0.0
C338 C 0.62989 0.32905 0.34752 0.0
C339 C 0.58295 0.28651 0.35982 0.0
C340 C 0.65447 0.30146 0.34601 0.0
C341 C 0.6078 0.25933 0.36173 0.0
C342 C 0.594 0.32136 0.3529 0.0
C343 C 0.62426 0.19894 0.37888 0.0
N344 N 0.6685 0.24197 0.3562 0.0
C345 C 0.65948 0.20822 0.37077 0.0
C346 C 0.59826 0.22452 0.37361 0.0
Tb347 Tb 0.72543 0.25953 0.34192 0.0
N348 N 0.68938 0.30772 0.3418 0.0
C349 C 0.70152 0.34136 0.34203 0.0
C350 C 0.64222 0.36347 0.34595 0.0
C351 C 0.67819 0.36964 0.3434 0.0
H352 H 0.67937 0.18823 0.37462 0.0
H353 H 0.68799 0.39618 0.34285 0.0
H354 H 0.57468 0.3422 0.35335 0.0
H355 H 0.61721 0.17205 0.38905 0.0
H356 H 0.7292 0.34677 0.34035 0.0
H357 H 0.81692 0.11316 0.22509 0.0
H358 H 0.62426 0.38538 0.3485 0.0
H359 H 0.82651 0.32053 0.18329 0.0
H360 H 0.77605 0.16283 0.22639 0.0
H361 H 0.88864 0.33619 0.16709 0.0
H362 H 0.55526 0.28095 0.36545 0.0
H363 H 0.88065 0.12352 0.21677 0.0
H364 H 0.9305 0.16639 0.20888 0.0
H365 H 0.57102 0.21729 0.38013 0.0
H366 H 0.95019 0.22736 0.19392 0.0
N367 N 0.81609 0.20171 0.22166 0.0
C368 C 0.80374 0.1681 0.22368 0.0
C369 C 0.86287 0.1456 0.21888 0.0
C370 C 0.8754 0.17994 0.21546 0.0
C371 C 0.82689 0.13966 0.22297 0.0
C372 C 0.85101 0.2077 0.21635 0.0
H373 H 0.93467 0.29089 0.17706 0.0
N374 N 0.83721 0.26706 0.204 0.0
C375 C 0.88152 0.30951 0.1786 0.0
C376 C 0.86201 0.24171 0.20738 0.0
C377 C 0.84631 0.30051 0.18775 0.0
C378 C 0.90744 0.2839 0.18447 0.0
C379 C 0.8978 0.24934 0.19804 0.0
O380 O 0.77752 0.27415 0.14185 0.0
O381 O 0.7358 0.27536 0.25829 0.0
O382 O 0.69333 0.23711 0.28102 0.0
O383 O 0.7373 0.21199 0.22741 0.0
O384 O 0.76433 0.30474 0.20332 0.0
O385 O 0.7675 0.21918 0.15441 0.0
O386 O 0.72738 0.23467 0.4193 0.0
O387 O 0.77042 0.23483 0.3039 0.0
O388 O 0.81204 0.27413 0.27898 0.0
O389 O 0.76837 0.29772 0.33544 0.0
O390 O 0.74176 0.20491 0.35768 0.0
O391 O 0.73796 0.2897 0.40823 0.0
C392 C 0.73712 0.30528 0.2352 0.0
C393 C 0.79202 0.23751 0.06914 0.0
C394 C 0.79706 0.23432 0.9703 0.0
C395 C 0.77737 0.24218 1.0178 0.0
C396 C 0.83169 0.22229 0.97513 0.0
C397 C 0.8265 0.22524 0.0726 0.0
C398 C 0.84623 0.21782 0.02592 0.0
C399 C 0.704 0.2158 0.24275 0.0
C400 C 0.771 0.24489 0.11872 0.0
C401 C 0.92251 0.22205 0.20043 0.0
C402 C 0.9113 0.18734 0.20893 0.0
C403 C 0.76966 0.20496 0.3272 0.0
C404 C 0.71264 0.27055 0.49271 0.0
C405 C 0.72634 0.26343 0.54418 0.0
C406 C 0.70598 0.26952 0.59172 0.0
C407 C 0.67187 0.28298 0.58678 0.0
C408 C 0.67863 0.28409 0.48913 0.0
C409 C 0.65839 0.29022 0.53584 0.0
C410 C 0.80138 0.29522 0.31756 0.0
C411 C 0.73394 0.26365 0.44323 0.0
H412 H 0.75056 0.25126 1.01496 0.0
H413 H 0.84771 0.21658 0.9395 0.0
H414 H 0.8382 0.22116 0.11128 0.0
H415 H 0.87289 0.20849 0.02912 0.0
H416 H 0.75258 0.25282 0.54716 0.0
H417 H 0.65574 0.28843 0.6224 0.0
H418 H 0.66769 0.2901 0.45038 0.0
H419 H 0.63219 0.30076 0.53254 0.0
Tb420 Tb 0.7827 0.7536 0.83344 0.0
C421 C 0.64628 0.74811 0.72181 0.0
C422 C 0.62945 0.68748 0.73349 0.0
C423 C 0.58466 0.73274 0.7304 0.0
C424 C 0.65552 0.71354 0.72894 0.0
C425 C 0.61077 0.75809 0.72007 0.0
C426 C 0.59401 0.69738 0.73699 0.0
C427 C 0.62964 0.8155 0.68768 0.0
N428 N 0.67233 0.7713 0.70964 0.0
C429 C 0.66447 0.80413 0.68941 0.0
C430 C 0.60268 0.79263 0.7044 0.0
Tb431 Tb 0.72884 0.75124 0.71736 0.0
N432 N 0.68996 0.70526 0.72336 0.0
C433 C 0.69967 0.67121 0.71571 0.0
C434 C 0.63962 0.65245 0.72978 0.0
C435 C 0.67472 0.64444 0.71871 0.0
H436 H 0.6852 0.82214 0.67716 0.0
H437 H 0.68271 0.61757 0.71314 0.0
H438 H 0.57362 0.67778 0.74155 0.0
H439 H 0.62366 0.84192 0.67365 0.0
H440 H 0.72671 0.66421 0.70817 0.0
H441 H 0.82141 0.89006 0.82901 0.0
H442 H 0.62042 0.63163 0.73244 0.0
H443 H 0.82628 0.68182 0.86603 0.0
H444 H 0.78073 0.84162 0.82107 0.0
H445 H 0.88693 0.66466 0.88607 0.0
H446 H 0.5572 0.73992 0.73017 0.0
H447 H 0.88365 0.87843 0.84693 0.0
H448 H 0.93159 0.83463 0.86352 0.0
H449 H 0.57573 0.80138 0.70251 0.0
H450 H 0.94992 0.77314 0.87612 0.0
N451 N 0.81926 0.80144 0.83255 0.0
C452 C 0.80767 0.83541 0.82854 0.0
C453 C 0.86588 0.85671 0.84308 0.0
C454 C 0.87761 0.8221 0.84818 0.0
C455 C 0.83078 0.86335 0.83301 0.0
C456 C 0.85342 0.79478 0.84244 0.0
H457 H 0.93349 0.7095 0.8844 0.0
N458 N 0.83877 0.73536 0.84882 0.0
C459 C 0.88083 0.69169 0.8756 0.0
C460 C 0.86367 0.76041 0.84981 0.0
C461 C 0.84652 0.70151 0.86401 0.0
C462 C 0.90705 0.71704 0.87442 0.0
C463 C 0.89846 0.75205 0.86281 0.0
O464 O 0.7787 0.72693 0.90977 0.0
O465 O 0.73483 0.73345 0.80074 0.0
O466 O 0.69932 0.78239 0.77646 0.0
O467 O 0.74254 0.79494 0.83721 0.0
O468 O 0.76386 0.69954 0.84588 0.0
O469 O 0.77001 0.78237 0.90254 0.0
O470 O 0.72999 0.77625 0.63972 0.0
O471 O 0.7776 0.77075 0.74882 0.0
O472 O 0.81376 0.7246 0.77314 0.0
O473 O 0.76944 0.70974 0.71505 0.0
O474 O 0.74935 0.80405 0.7017 0.0
O475 O 0.73867 0.72102 0.64883 0.0
C476 C 0.73521 0.70227 0.82031 0.0
C477 C 0.79202 0.76035 0.98544 0.0
C478 C 0.79541 0.75673 0.08427 0.0
C479 C 0.77659 0.75201 0.03684 0.0
C480 C 0.82975 0.76979 0.07946 0.0
C481 C 0.82602 0.77404 0.98217 0.0
C482 C 0.84483 0.77846 0.02873 0.0
C483 C 0.71105 0.79974 0.81754 0.0
C484 C 0.77225 0.75537 0.93585 0.0
C485 C 0.92304 0.77901 0.8664 0.0
C486 C 0.91257 0.81401 0.85947 0.0
C487 C 0.7785 0.8012 0.72601 0.0
C488 C 0.71144 0.74097 0.56935 0.0
C489 C 0.72484 0.74285 0.51558 0.0
C490 C 0.70314 0.73578 0.47213 0.0
C491 C 0.66781 0.72729 0.48343 0.0
C492 C 0.67619 0.73219 0.57938 0.0
C493 C 0.65451 0.72555 0.53669 0.0
C494 C 0.80173 0.70629 0.73296 0.0
C495 C 0.7346 0.74717 0.61463 0.0
H496 H 0.75014 0.74183 0.0399 0.0
H497 H 0.84468 0.77412 0.11512 0.0
H498 H 0.83798 0.7818 0.9439 0.0
H499 H 0.87108 0.78903 0.0255 0.0
H500 H 0.75222 0.7491 0.50772 0.0
H501 H 0.65033 0.72226 0.45098 0.0
H502 H 0.6654 0.73018 0.62011 0.0
H503 H 0.6273 0.71892 0.54493 0.0
Tb504 Tb 0.50759 0.47703 0.96629 0.0
C505 C 0.50214 0.61454 0.08089 0.0
C506 C 0.56188 0.63457 0.07266 0.0
C507 C 0.51433 0.67694 0.07513 0.0
C508 C 0.53718 0.60718 0.07522 0.0
C509 C 0.49026 0.64944 0.08342 0.0
C510 C 0.55022 0.66949 0.06975 0.0
C511 C 0.4334 0.62712 0.11219 0.0
N512 N 0.4802 0.58716 0.09077 0.0
C513 C 0.44657 0.59295 0.10918 0.0
C514 C 0.45509 0.65549 0.0978 0.0
Tb515 Tb 0.50326 0.53188 0.08219 0.0
N516 N 0.54708 0.57316 0.08017 0.0
C517 C 0.58128 0.56509 0.08976 0.0
C518 C 0.59724 0.62611 0.0778 0.0
C519 C 0.60677 0.59136 0.08863 0.0
H520 H 0.42936 0.57122 0.11946 0.0
H521 H 0.63381 0.58466 0.09559 0.0
H522 H 0.56877 0.6909 0.06665 0.0
H523 H 0.40645 0.6315 0.12514 0.0
H524 H 0.58944 0.53837 0.09721 0.0
H525 H 0.37544 0.42943 0.94668 0.0
H526 H 0.61707 0.64634 0.07665 0.0
H527 H 0.58033 0.43416 0.93378 0.0
H528 H 0.42145 0.47388 0.94669 0.0
H529 H 0.60103 0.37284 0.93269 0.0
H530 H 0.50571 0.70398 0.07594 0.0
H531 H 0.38923 0.36733 0.96835 0.0
H532 H 0.43531 0.32101 0.98318 0.0
H533 H 0.44489 0.6819 0.1004 0.0
H534 H 0.49789 0.30524 0.97864 0.0
N535 N 0.46207 0.43763 0.96684 0.0
C536 C 0.42845 0.44696 0.95528 0.0
C537 C 0.40984 0.38673 0.96779 0.0
C538 C 0.44463 0.37694 0.97548 0.0
C539 C 0.40198 0.42172 0.95542 0.0
C540 C 0.47044 0.40328 0.97351 0.0
H541 H 0.56008 0.32445 0.95742 0.0
N542 N 0.52846 0.42072 0.96069 0.0
C543 C 0.57403 0.37853 0.94383 0.0
C544 C 0.50523 0.39442 0.9704 0.0
C545 C 0.56214 0.41324 0.9442 0.0
C546 C 0.55091 0.3513 0.95819 0.0
C547 C 0.51571 0.35901 0.97002 0.0
O548 O 0.53665 0.47938 0.89205 0.0
O549 O 0.52506 0.52548 1.00061 0.0
O550 O 0.47472 0.56077 1.01935 0.0
O551 O 0.46559 0.51672 0.95792 0.0
O552 O 0.56115 0.49751 0.9578 0.0
O553 O 0.48113 0.48708 0.89399 0.0
O554 O 0.47585 0.5277 0.15783 0.0
O555 O 0.48576 0.4836 0.04753 0.0
O556 O 0.53578 0.44846 0.02993 0.0
O557 O 0.54628 0.49329 0.08929 0.0
O558 O 0.44985 0.51087 0.0914 0.0
O559 O 0.53157 0.52199 0.15272 0.0
C560 C 0.55686 0.52592 0.9836 0.0
C561 C 0.50602 0.4615 0.81621 0.0
C562 C 0.50581 0.45489 0.71794 0.0
C563 C 0.50875 0.47619 0.76318 0.0
C564 C 0.49994 0.41879 0.72683 0.0
C565 C 0.49991 0.4255 0.82381 0.0
C566 C 0.49698 0.4043 0.77937 0.0
C567 C 0.45951 0.54847 0.97649 0.0
C568 C 0.5091 0.48397 0.86319 0.0
C569 C 0.49038 0.33263 0.97782 0.0
C570 C 0.45476 0.34161 0.98048 0.0
C571 C 0.45403 0.48283 0.06472 0.0
C572 C 0.50768 0.54595 0.23237 0.0
C573 C 0.50718 0.5307 0.28512 0.0
C574 C 0.51194 0.55155 0.33042 0.0
C575 C 0.51663 0.58785 0.32197 0.0
C576 C 0.51275 0.58214 0.22522 0.0
C577 C 0.51701 0.60294 0.26976 0.0
C578 C 0.55176 0.46123 0.07172 0.0
C579 C 0.50419 0.52381 0.18508 0.0
H580 H 0.51347 0.50403 0.75719 0.0
H581 H 0.49705 0.40179 0.69309 0.0
H582 H 0.49721 0.41374 0.86396 0.0
H583 H 0.4922 0.37654 0.78569 0.0
H584 H 0.50387 0.50264 0.29072 0.0
H585 H 0.51979 0.60468 0.35585 0.0
H586 H 0.5137 0.59435 0.18529 0.0
H587 H 0.52077 0.63089 0.26377 0.0
Tb588 Tb 0.01087 0.48094 0.57874 0.0
C589 C 0.99662 0.61785 0.45121 0.0
C590 C 0.93464 0.63084 0.45541 0.0
C591 C 0.97682 0.67837 0.44828 0.0
C592 C 0.96246 0.60651 0.4559 0.0
C593 C 1.00429 0.65385 0.44576 0.0
C594 C 0.94202 0.66687 0.45306 0.0
C595 C 0.06505 0.63835 0.42963 0.0
N596 N 0.02222 0.59326 0.44783 0.0
C597 C 0.05605 0.6029 0.43511 0.0
C598 C 0.03913 0.66397 0.43577 0.0
Tb599 Tb 0.00503 0.53595 0.45734 0.0
N600 N 0.95653 0.57151 0.45719 0.0
C601 C 0.9231 0.55912 0.45491 0.0
C602 C 0.90036 0.61821 0.45533 0.0
C603 C 0.89458 0.5822 0.45475 0.0
H604 H 0.07625 0.58326 0.43069 0.0
H605 H 0.86817 0.57218 0.45391 0.0
H606 H 0.921 0.686 0.45336 0.0
H607 H 0.09196 0.64589 0.42088 0.0
H608 H 0.91809 0.53138 0.45426 0.0
H609 H 0.14898 0.4461 0.58043 0.0
H610 H 0.87826 0.63602 0.45406 0.0
H611 H 0.93948 0.43262 0.61206 0.0
H612 H 0.09981 0.48668 0.57908 0.0
H613 H 0.92578 0.37039 0.62804 0.0
H614 H 0.98215 0.7062 0.44481 0.0
H615 H 0.13886 0.38237 0.58537 0.0
H616 H 0.09666 0.33249 0.59151 0.0
H617 H 0.04615 0.69138 0.43132 0.0
H618 H 0.03605 0.31185 0.60432 0.0
N619 N 0.06046 0.44677 0.57963 0.0
C620 C 0.09407 0.45915 0.5802 0.0
C621 C 0.11671 0.4001 0.58352 0.0
C622 C 0.08245 0.38743 0.58591 0.0
C623 C 0.12252 0.43607 0.58114 0.0
C624 C 0.05445 0.41166 0.58473 0.0
H625 H 0.97245 0.32578 0.61944 0.0
N626 N 0.99386 0.42398 0.59435 0.0
C627 C 0.95241 0.37834 0.61788 0.0
C628 C 0.02018 0.39993 0.59221 0.0
C629 C 0.96044 0.41379 0.60921 0.0
C630 C 0.9788 0.35323 0.61273 0.0
C631 C 0.01324 0.36387 0.60064 0.0
O632 O 1.0003 0.51471 0.64341 0.0
O633 O 0.98537 0.52467 0.5392 0.0
O634 O 0.02587 0.56644 0.52141 0.0
O635 O 0.05112 0.52118 0.5716 0.0
O636 O 0.95452 0.49212 0.58647 0.0
O637 O 0.0236 0.46481 0.65837 0.0
O638 O 0.03166 0.5373 0.38123 0.0
O639 O 0.02885 0.49051 0.49574 0.0
O640 O 0.98514 0.44964 0.52043 0.0
O641 O 0.9682 0.49219 0.45597 0.0
O642 O 0.05984 0.51937 0.44374 0.0
O643 O 0.97672 0.52516 0.38829 0.0
C644 C 0.95434 0.52101 0.55785 0.0
C645 C 0.98599 0.48624 0.7273 0.0
C646 C 0.97403 0.48545 0.82526 0.0
C647 C 0.99716 0.49142 0.78016 0.0
C648 C 0.93968 0.47435 0.81649 0.0
C649 C 0.95152 0.47537 0.71989 0.0
C650 C 0.92861 0.46937 0.76419 0.0
C651 C 0.04667 0.55482 0.55971 0.0
C652 C 0.01032 0.49238 0.68031 0.0
C653 C 0.04095 0.33967 0.59862 0.0
C654 C 0.07546 0.35142 0.59136 0.0
C655 C 0.05909 0.49126 0.4738 0.0
C656 C 0.99705 0.55339 0.30683 0.0
C657 C 0.99888 0.53924 0.25495 0.0
C658 C 0.9917 0.56038 0.20872 0.0
C659 C 0.98328 0.5959 0.21511 0.0
C660 C 0.98849 0.58884 0.31199 0.0
C661 C 0.98178 0.60997 0.26643 0.0
C662 C 0.96783 0.45986 0.47721 0.0
C663 C 1.00347 0.53084 0.35512 0.0
H664 H 0.02375 0.49989 0.78612 0.0
H665 H 0.92104 0.47023 0.85006 0.0
H666 H 0.94206 0.47168 0.68002 0.0
H667 H 0.90203 0.46112 0.75792 0.0
H668 H 0.00511 0.51174 0.25072 0.0
H669 H 0.97801 0.61286 0.18028 0.0
H670 H 0.98682 0.60025 0.35108 0.0
H671 H 0.97524 0.63734 0.27095 0.0
C672 C 0.09979 0.05154 0.40477 0.0
C673 C 0.07353 0.05737 0.4449 0.0
C674 C 0.12051 0.07891 0.38115 0.0
C675 C 0.11798 0.11322 0.40133 0.0
C676 C 0.09107 0.11968 0.4412 0.0
C677 C 0.06778 0.09232 0.45931 0.0
C678 C 0.14547 0.07038 0.33473 0.0
C679 C 0.08851 0.15446 0.46836 0.0
C680 C 0.20801 0.15622 0.37687 0.0
C681 C 0.20177 0.18455 0.34037 0.0
C682 C 0.1807 0.13559 0.4008 0.0
C683 C 0.14573 0.14042 0.38426 0.0
C684 C 0.13891 0.16927 0.34792 0.0
C685 C 0.16654 0.19228 0.32986 0.0
C686 C 0.19 0.10828 0.44362 0.0
C687 C 0.10327 0.17434 0.32417 0.0
H688 H 0.10397 0.02526 0.39061 0.0
H689 H 0.04578 0.09819 0.48602 0.0
H690 H 0.15128 0.09363 0.30785 0.0
H691 H 0.17035 0.06016 0.35092 0.0
H692 H 0.13449 0.04962 0.30991 0.0
H693 H 0.06358 0.15714 0.4923 0.0
H694 H 0.11073 0.15669 0.49573 0.0
H695 H 0.09096 0.17699 0.43936 0.0
H696 H 0.23463 0.15032 0.38807 0.0
H697 H 0.16056 0.21572 0.30633 0.0
H698 H 0.19861 0.08393 0.42392 0.0
H699 H 0.16757 0.10208 0.47193 0.0
H700 H 0.21213 0.11728 0.4676 0.0
H701 H 0.0996 0.15412 0.29376 0.0
H702 H 0.10044 0.20065 0.30426 0.0
H703 H 0.08161 0.17044 0.35443 0.0
C704 C 0.08123 0.93029 0.63453 0.0
C705 C 0.07542 0.9285 0.57894 0.0
C706 C 0.10608 0.90881 0.66007 0.0
C707 C 0.12591 0.88462 0.62948 0.0
C708 C 0.11932 0.88174 0.57358 0.0
C709 C 0.09402 0.90359 0.54906 0.0
C710 C 0.11108 0.91221 0.71989 0.0
C711 C 0.13992 0.85652 0.53919 0.0
C712 C 0.21656 0.85951 0.67889 0.0
C713 C 0.21111 0.82579 0.70166 0.0
C714 C 0.18911 0.87883 0.65566 0.0
C715 C 0.15507 0.86423 0.65514 0.0
C716 C 0.14921 0.83044 0.67917 0.0
C717 C 0.17738 0.81143 0.70123 0.0
C718 C 0.19665 0.91483 0.63105 0.0
C719 C 0.11332 0.81407 0.68091 0.0
H720 H 0.0663 0.94869 0.65842 0.0
H721 H 0.08995 0.9021 0.50618 0.0
H722 H 0.10196 0.88784 0.74145 0.0
H723 H 0.1392 0.9156 0.72817 0.0
H724 H 0.09619 0.9346 0.73678 0.0
H725 H 0.13031 0.85586 0.49729 0.0
H726 H 0.16791 0.86422 0.5371 0.0
H727 H 0.13847 0.82971 0.55781 0.0
H728 H 0.24265 0.87058 0.67842 0.0
H729 H 0.17297 0.7851 0.71714 0.0
H730 H 0.18005 0.93458 0.65162 0.0
H731 H 0.19001 0.91573 0.58765 0.0
H732 H 0.22453 0.92235 0.63424 0.0
H733 H 0.09404 0.83179 0.70053 0.0
H734 H 0.11274 0.78838 0.70341 0.0
H735 H 0.10478 0.81024 0.63906 0.0
C736 C 0.37053 0.81325 0.81148 0.0
C737 C 0.33531 0.81502 0.82893 0.0
C738 C 0.39577 0.83385 0.83469 0.0
C739 C 0.38559 0.85532 0.87792 0.0
C740 C 0.35055 0.85551 0.89806 0.0
C741 C 0.32568 0.83586 0.87259 0.0
C742 C 0.43284 0.83373 0.81151 0.0
C743 C 0.33911 0.87721 0.94557 0.0
C744 C 0.45133 0.89413 0.96859 0.0
C745 C 0.44986 0.92952 0.95188 0.0
C746 C 0.43129 0.86915 0.94381 0.0
C747 C 0.41063 0.87978 0.89983 0.0
C748 C 0.41106 0.91493 0.88011 0.0
C749 C 0.43021 0.93955 0.90705 0.0
C750 C 0.43074 0.83198 0.9667 0.0
C751 C 0.39019 0.92682 0.83192 0.0
H752 H 0.37839 0.79625 0.77918 0.0
H753 H 0.29866 0.83699 0.88708 0.0
H754 H 0.43867 0.85957 0.79145 0.0
H755 H 0.45181 0.82968 0.84415 0.0
H756 H 0.43712 0.81312 0.7813 0.0
H757 H 0.31187 0.87124 0.96 0.0
H758 H 0.35684 0.87258 0.97976 0.0
H759 H 0.34059 0.90544 0.93371 0.0
H760 H 0.46751 0.88593 1.00176 0.0
H761 H 0.42939 0.9667 0.89307 0.0
H762 H 0.43346 0.81295 0.93394 0.0
H763 H 0.40516 0.82696 0.98809 0.0
H764 H 0.45185 0.82701 0.99587 0.0
H765 H 0.3945 0.90879 0.79805 0.0
H766 H 0.39719 0.9538 0.81734 0.0
H767 H 0.36185 0.92635 0.8432 0.0
C768 C 0.44628 0.08422 0.08363 0.0
C769 C 0.43278 0.05041 0.07896 0.0
C770 C 0.42517 0.1117 0.10303 0.0
C771 C 0.38995 0.10502 0.11999 0.0
C772 C 0.37609 0.07101 0.11454 0.0
C773 C 0.39765 0.0442 0.09426 0.0
C774 C 0.44097 0.1476 0.10701 0.0
C775 C 0.33871 0.06264 0.13176 0.0
C776 C 0.3466 0.1603 0.22937 0.0
C777 C 0.32458 0.18236 0.19942 0.0
C778 C 0.36853 0.13567 0.20394 0.0
C779 C 0.36825 0.13267 0.14692 0.0
C780 C 0.34604 0.155 0.11642 0.0
C781 C 0.32453 0.17949 0.14298 0.0
C782 C 0.39142 0.11227 0.23836 0.0
C783 C 0.34515 0.15333 0.05566 0.0
H784 H 0.47356 0.08913 0.07357 0.0
H785 H 0.38722 0.018 0.09142 0.0
H786 H 0.42399 0.16765 0.08758 0.0
H787 H 0.44278 0.15411 0.15024 0.0
H788 H 0.46756 0.14931 0.08748 0.0
H789 H 0.3314 0.03541 0.1226 0.0
H790 H 0.33493 0.0661 0.17598 0.0
H791 H 0.32055 0.081 0.11102 0.0
H792 H 0.3458 0.16129 0.2729 0.0
H793 H 0.30775 0.19663 0.1194 0.0
H794 H 0.41914 0.11451 0.22389 0.0
H795 H 0.38358 0.08455 0.23464 0.0
H796 H 0.38967 0.11882 0.28183 0.0
H797 H 0.37034 0.16323 0.03771 0.0
H798 H 0.3236 0.16938 0.03855 0.0
H799 H 0.34205 0.12589 0.04338 0.0
C800 C 0.94372 0.91485 0.5847 0.0
C801 C 0.93749 0.94988 0.59829 0.0
C802 C 0.92062 0.88737 0.60305 0.0
C803 C 0.89337 0.89389 0.64234 0.0
C804 C 0.89034 0.92837 0.66175 0.0
C805 C 0.91091 0.95577 0.63788 0.0
C806 C 0.92379 0.85234 0.57674 0.0
C807 C 0.865 0.93706 0.70761 0.0
C808 C 0.80358 0.85037 0.66653 0.0
C809 C 0.80983 0.82226 0.70343 0.0
C810 C 0.83084 0.87103 0.64254 0.0
C811 C 0.86576 0.86655 0.65948 0.0
C812 C 0.87262 0.83791 0.69622 0.0
C813 C 0.84507 0.81477 0.71425 0.0
C814 C 0.8215 0.898 0.59924 0.0
C815 C 0.90814 0.83326 0.72055 0.0
H816 H 0.96598 0.90899 0.55851 0.0
H817 H 0.90636 0.98214 0.65142 0.0
H818 H 0.92164 0.83005 0.60623 0.0
H819 H 0.90166 0.84945 0.54939 0.0
H820 H 0.94881 0.8498 0.55301 0.0
H821 H 0.87569 0.95804 0.7323 0.0
H822 H 0.84021 0.94706 0.69084 0.0
H823 H 0.85911 0.91395 0.73476 0.0
H824 H 0.77698 0.85609 0.65502 0.0
H825 H 0.85111 0.79144 0.73794 0.0
H826 H 0.84409 0.9046 0.57147 0.0
H827 H 0.81208 0.92222 0.61852 0.0
H828 H 0.79988 0.88842 0.57473 0.0
H829 H 0.93001 0.83797 0.69094 0.0
H830 H 0.9113 0.80679 0.73978 0.0
H831 H 0.9111 0.85316 0.75164 0.0
C832 C 0.91664 0.10348 0.49468 0.0
C833 C 0.93557 0.07901 0.46439 0.0
C834 C 0.89144 0.1255 0.47037 0.0
C835 C 0.88528 0.12331 0.41422 0.0
C836 C 0.90539 0.09952 0.38326 0.0
C837 C 0.93011 0.07778 0.40863 0.0
C838 C 0.87045 0.15018 0.50521 0.0
C839 C 0.90093 0.09694 0.32316 0.0
C840 C 0.79495 0.14932 0.36451 0.0
C841 C 0.80044 0.18351 0.34368 0.0
C842 C 0.82231 0.12951 0.38705 0.0
C843 C 0.85631 0.14406 0.38871 0.0
C844 C 0.86225 0.1783 0.36647 0.0
C845 C 0.83414 0.19782 0.34527 0.0
C846 C 0.81468 0.09308 0.40987 0.0
C847 C 0.89815 0.19461 0.3658 0.0
H848 H 0.92039 0.10447 0.53769 0.0
H849 H 0.94527 0.05966 0.38452 0.0
H850 H 0.87211 0.17725 0.48764 0.0
H851 H 0.84246 0.1425 0.50624 0.0
H852 H 0.87959 0.15017 0.54743 0.0
H853 H 0.91558 0.07446 0.30604 0.0
H854 H 0.87287 0.09424 0.31397 0.0
H855 H 0.91077 0.12134 0.30254 0.0
H856 H 0.76887 0.13827 0.36413 0.0
H857 H 0.83858 0.22449 0.33096 0.0
H858 H 0.82101 0.09134 0.45338 0.0
H859 H 0.83146 0.07376 0.38865 0.0
H860 H 0.78684 0.08562 0.40585 0.0
H861 H 0.90638 0.19796 0.40792 0.0
H862 H 0.89889 0.22054 0.344 0.0
H863 H 0.91755 0.17711 0.34601 0.0
C864 C 0.68808 0.17472 0.17188 0.0
C865 C 0.67777 0.19534 0.21547 0.0
C866 C 0.6637 0.15482 0.14574 0.0
C867 C 0.62849 0.15459 0.16507 0.0
C868 C 0.61763 0.17589 0.20817 0.0
C869 C 0.64238 0.19671 0.23207 0.0
C870 C 0.67583 0.13333 0.09838 0.0
C871 C 0.58036 0.17557 0.23053 0.0
C872 C 0.56322 0.11562 0.07367 0.0
C873 C 0.56452 0.08026 0.09055 0.0
C874 C 0.58335 0.14057 0.09837 0.0
C875 C 0.6039 0.12996 0.14248 0.0
C876 C 0.60343 0.09482 0.16222 0.0
C877 C 0.5842 0.07021 0.13535 0.0
C878 C 0.58396 0.17774 0.07548 0.0
C879 C 0.62415 0.08295 0.21058 0.0
H880 H 0.71524 0.17389 0.15805 0.0
H881 H 0.63399 0.21355 0.26429 0.0
H882 H 0.67456 0.10506 0.11009 0.0
H883 H 0.65839 0.13782 0.06379 0.0
H884 H 0.70312 0.13962 0.08458 0.0
H885 H 0.57551 0.1962 0.26053 0.0
H886 H 0.56165 0.17926 0.19747 0.0
H887 H 0.57472 0.1497 0.25066 0.0
H888 H 0.54702 0.12384 0.04054 0.0
H889 H 0.58488 0.04308 0.14946 0.0
H890 H 0.60985 0.18303 0.05524 0.0
H891 H 0.58044 0.19672 0.10819 0.0
H892 H 0.56337 0.18256 0.04539 0.0
H893 H 0.65255 0.08382 0.19973 0.0
H894 H 0.61741 0.05584 0.22481 0.0
H895 H 0.6194 0.10079 0.24458 0.0
C896 C 0.66597 0.84786 0.81438 0.0
C897 C 0.68777 0.82564 0.84448 0.0
C898 C 0.64446 0.87292 0.83958 0.0
C899 C 0.64491 0.8762 0.89653 0.0
C900 C 0.66693 0.85376 0.92718 0.0
C901 C 0.68804 0.82883 0.90084 0.0
C902 C 0.62178 0.89643 0.80499 0.0
C903 C 0.668 0.85572 0.98788 0.0
C904 C 0.61616 0.96509 0.94843 0.0
C905 C 0.581 0.95915 0.96382 0.0
C906 C 0.63754 0.93805 0.92836 0.0
C907 C 0.62344 0.90411 0.92324 0.0
C908 C 0.58819 0.89772 0.94026 0.0
C909 C 0.56728 0.92541 0.95939 0.0
C910 C 0.67496 0.94613 0.91099 0.0
C911 C 0.57214 0.8619 0.93663 0.0
H912 H 0.66662 0.84662 0.77088 0.0
H913 H 0.70465 0.8116 0.92455 0.0
H914 H 0.59403 0.89444 0.81944 0.0
H915 H 0.62983 0.9241 0.80854 0.0
H916 H 0.62347 0.88977 0.76156 0.0
H917 H 0.68944 0.83954 1.00506 0.0
H918 H 0.67141 0.8832 0.99978 0.0
H919 H 0.64276 0.84614 1.00608 0.0
H920 H 0.62676 0.99123 0.95103 0.0
H921 H 0.53997 0.92069 0.96942 0.0
H922 H 0.67866 0.94251 0.8668 0.0
H923 H 0.69301 0.92771 0.93182 0.0
H924 H 0.68246 0.97334 0.91993 0.0
H925 H 0.57023 0.85526 0.89347 0.0
H926 H 0.54556 0.86043 0.95624 0.0
H927 H 0.58902 0.8418 0.95619 0.0
C928 C 0.61482 0.55666 0.9761 0.0
C929 C 0.57887 0.55719 0.96639 0.0
C930 C 0.63757 0.58339 0.95567 0.0
C931 C 0.62557 0.6093 0.91771 0.0
C932 C 0.5892 0.60903 0.90583 0.0
C933 C 0.56628 0.58394 0.93177 0.0
C934 C 0.67457 0.58299 0.97534 0.0
C935 C 0.57394 0.63405 0.86433 0.0
C936 C 0.67623 0.69366 0.86999 0.0
C937 C 0.70439 0.68008 0.83921 0.0
C938 C 0.65075 0.67137 0.89632 0.0
C939 C 0.65156 0.63446 0.88851 0.0
C940 C 0.67912 0.62126 0.85452 0.0
C941 C 0.70605 0.64368 0.83384 0.0
C942 C 0.62392 0.68793 0.9337 0.0
C943 C 0.68093 0.58336 0.83911 0.0
H944 H 0.6252 0.5356 1.00146 0.0
H945 H 0.53884 0.58389 0.92196 0.0
H946 H 0.68966 0.56188 0.95543 0.0
H947 H 0.68826 0.60831 0.96782 0.0
H948 H 0.67458 0.5766 1.01949 0.0
H949 H 0.56006 0.65542 0.88556 0.0
H950 H 0.59403 0.64565 0.83583 0.0
H951 H 0.55425 0.62056 0.84043 0.0
H952 H 0.67527 0.7216 0.87633 0.0
H953 H 0.72807 0.63266 0.81132 0.0
H954 H 0.61208 0.66897 0.9639 0.0
H955 H 0.60286 0.69977 0.90916 0.0
H956 H 0.63588 0.70947 0.95579 0.0
H957 H 0.70126 0.56961 0.86282 0.0
H958 H 0.68925 0.58144 0.79585 0.0
H959 H 0.65561 0.56953 0.84549 0.0
C960 C 0.67323 0.31608 0.21823 0.0
C961 C 0.70727 0.32893 0.22284 0.0
C962 C 0.64603 0.33793 0.19967 0.0
C963 C 0.65323 0.37326 0.18379 0.0
C964 C 0.68742 0.38651 0.18974 0.0
C965 C 0.71398 0.36417 0.20885 0.0
C966 C 0.60993 0.32275 0.19497 0.0
C967 C 0.69635 0.42399 0.17383 0.0
C968 C 0.60041 0.4169 0.07192 0.0
C969 C 0.57743 0.43867 0.10063 0.0
C970 C 0.62454 0.39508 0.09855 0.0
C971 C 0.62631 0.39534 0.15572 0.0
C972 C 0.60345 0.4177 0.18506 0.0
C973 C 0.5793 0.43905 0.1572 0.0
C974 C 0.64856 0.37212 0.06525 0.0
C975 C 0.60405 0.4188 0.24588 0.0
H976 H 0.66798 0.28871 0.22746 0.0
H977 H 0.74037 0.37409 0.21175 0.0
H978 H 0.59003 0.33999 0.21414 0.0
H979 H 0.60372 0.32117 0.15158 0.0
H980 H 0.6077 0.29613 0.21431 0.0
H981 H 0.72333 0.431 0.18476 0.0
H982 H 0.69402 0.42816 0.12944 0.0
H983 H 0.67762 0.44209 0.19385 0.0
H984 H 0.60041 0.41769 0.02837 0.0
H985 H 0.56158 0.45578 0.17982 0.0
H986 H 0.6456 0.34435 0.07917 0.0
H987 H 0.67621 0.37953 0.07084 0.0
H988 H 0.64321 0.37421 1.02134 0.0
H989 H 0.59315 0.39396 0.26366 0.0
H990 H 0.58827 0.44086 0.26196 0.0
H991 H 0.6313 0.42121 0.25941 0.0
C992 C 0.94583 0.39904 0.47135 0.0
C993 C 0.94625 0.43386 0.45165 0.0
C994 C 0.92352 0.37461 0.45012 0.0
C995 C 0.90255 0.38504 0.40645 0.0
C996 C 0.90451 0.41948 0.3839 0.0
C997 C 0.92601 0.44373 0.40739 0.0
C998 C 0.92145 0.33815 0.47573 0.0
C999 C 0.88334 0.43089 0.3358 0.0
C1000 C 0.86277 0.31536 0.32431 0.0
C1001 C 0.82759 0.31713 0.34193 0.0
C1002 C 0.88766 0.33742 0.34492 0.0
C1003 C 0.87722 0.36049 0.38587 0.0
C1004 C 0.84222 0.36105 0.40614 0.0
C1005 C 0.8176 0.33969 0.38324 0.0
C1006 C 0.92473 0.33684 0.32164 0.0
C1007 C 0.83069 0.38454 0.45143 0.0
H1008 H 0.96257 0.39081 0.50378 0.0
H1009 H 0.92667 0.47043 0.39117 0.0
H1010 H 0.89499 0.33396 0.49468 0.0
H1011 H 0.92533 0.31816 0.4446 0.0
H1012 H 0.94117 0.33373 0.50729 0.0
H1013 H 0.8905 0.45757 0.32003 0.0
H1014 H 0.88721 0.41224 0.30264 0.0
H1015 H 0.85507 0.4308 0.34752 0.0
H1016 H 0.87097 0.29702 0.29403 0.0
H1017 H 0.79057 0.34078 0.3978 0.0
H1018 H 0.94372 0.33343 0.35436 0.0
H1019 H 0.9306 0.36229 0.30035 0.0
H1020 H 0.929 0.3156 0.2925 0.0
H1021 H 0.84794 0.38062 0.48639 0.0
H1022 H 0.80318 0.37958 0.46549 0.0
H1023 H 0.83298 0.41236 0.43752 0.0
C1024 C 0.84946 0.66049 0.73348 0.0
C1025 C 0.82528 0.68097 0.70496 0.0
C1026 C 0.87052 0.63539 0.70733 0.0
C1027 C 0.86781 0.63093 0.65087 0.0
C1028 C 0.84381 0.65202 0.62169 0.0
C1029 C 0.82276 0.67652 0.64908 0.0
C1030 C 0.89514 0.61306 0.74046 0.0
C1031 C 0.84083 0.64942 0.56126 0.0
C1032 C 0.94459 0.58418 0.58108 0.0
C1033 C 0.9314 0.55026 0.57608 0.0
C1034 C 0.92376 0.61105 0.60296 0.0
C1035 C 0.88934 0.60352 0.62298 0.0
C1036 C 0.87594 0.56924 0.61828 0.0
C1037 C 0.89702 0.54317 0.59467 0.0
C1038 C 0.93886 0.64737 0.60539 0.0
C1039 C 0.83952 0.55991 0.63929 0.0
H1040 H 0.85119 0.66316 0.77657 0.0
H1041 H 0.8045 0.69257 0.62644 0.0
H1042 H 0.88815 0.58503 0.73769 0.0
H1043 H 0.92237 0.61615 0.72409 0.0
H1044 H 0.89438 0.6199 0.78383 0.0
H1045 H 0.81695 0.66273 0.54626 0.0
H1046 H 0.86399 0.66215 0.54093 0.0
H1047 H 0.8405 0.62172 0.54925 0.0
H1048 H 0.97143 0.58974 0.56872 0.0
H1049 H 0.88687 0.51686 0.59186 0.0
H1050 H 0.94135 0.65446 0.64824 0.0
H1051 H 0.921 0.66675 0.58627 0.0
H1052 H 0.96503 0.64952 0.58456 0.0
H1053 H 0.83715 0.56446 0.68338 0.0
H1054 H 0.83287 0.53216 0.63244 0.0
H1055 H 0.82001 0.57703 0.61911 0.0
C1056 C 0.30455 0.36364 0.21083 0.0
C1057 C 0.30648 0.32727 0.20518 0.0
C1058 C 0.33145 0.3863 0.1907 0.0
C1059 C 0.35925 0.3734 0.15689 0.0
C1060 C 0.36029 0.33654 0.14865 0.0
C1061 C 0.33484 0.31399 0.17452 0.0
C1062 C 0.32931 0.42412 0.20645 0.0
C1063 C 0.38731 0.3203 0.11124 0.0
C1064 C 0.39614 0.45189 0.07095 0.0
C1065 C 0.43205 0.45135 0.08094 0.0
C1066 C 0.37337 0.42498 0.09068 0.0
C1067 C 0.38529 0.39881 0.12832 0.0
C1068 C 0.42161 0.39907 0.14052 0.0
C1069 C 0.44456 0.42437 0.11522 0.0
C1070 C 0.33647 0.42547 0.07062 0.0
C1071 C 0.43677 0.37382 0.18178 0.0
H1072 H 0.28234 0.37444 0.23317 0.0
H1073 H 0.33599 0.2861 0.16788 0.0
H1074 H 0.35463 0.43806 0.20079 0.0
H1075 H 0.30917 0.43788 0.18238 0.0
H1076 H 0.32055 0.42587 0.24955 0.0
H1077 H 0.37551 0.29887 0.08872 0.0
H1078 H 0.39916 0.33948 0.08142 0.0
H1079 H 0.40832 0.30837 0.13579 0.0
H1080 H 0.38579 0.47316 0.04599 0.0
H1081 H 0.47196 0.4244 0.12529 0.0
H1082 H 0.3214 0.44674 0.09014 0.0
H1083 H 0.32261 0.40024 0.07817 0.0
H1084 H 0.3367 0.43169 0.02643 0.0
H1085 H 0.4166 0.36197 0.20987 0.0
H1086 H 0.45629 0.3872 0.20615 0.0
H1087 H 0.45084 0.35265 0.16033 0.0
C1088 C 0.43027 0.56905 0.89127 0.0
C1089 C 0.43405 0.5713 0.94735 0.0
C1090 C 0.4062 0.59052 0.86343 0.0
C1091 C 0.38526 0.61485 0.89228 0.0
C1092 C 0.38902 0.61709 0.94888 0.0
C1093 C 0.4132 0.59532 0.97543 0.0
C1094 C 0.40382 0.58756 0.80305 0.0
C1095 C 0.36698 0.64208 0.98179 0.0
C1096 C 0.33875 0.6939 0.8285 0.0
C1097 C 0.30422 0.68182 0.82675 0.0
C1098 C 0.36592 0.67169 0.84615 0.0
C1099 C 0.35819 0.63693 0.8646 0.0
C1100 C 0.32342 0.62449 0.8619 0.0
C1101 C 0.29696 0.64707 0.84316 0.0
C1102 C 0.40267 0.68585 0.84689 0.0
C1103 C 0.31386 0.58773 0.88103 0.0
H1104 H 0.44644 0.55077 0.86893 0.0
H1105 H 0.41492 0.59644 1.01859 0.0
H1106 H 0.37611 0.58725 0.79103 0.0
H1107 H 0.41661 0.61072 0.78278 0.0
H1108 H 0.4171 0.56365 0.78817 0.0
H1109 H 0.37352 0.6411 0.02529 0.0
H1110 H 0.37074 0.66929 0.96561 0.0
H1111 H 0.33885 0.63568 0.97859 0.0
H1112 H 0.34449 0.72094 0.8175 0.0
H1113 H 0.2702 0.63777 0.84258 0.0
H1114 H 0.42133 0.66742 0.82743 0.0
H1115 H 0.41047 0.68845 0.88941 0.0
H1116 H 0.40509 0.71186 0.82558 0.0
H1117 H 0.33117 0.5685 0.86058 0.0
H1118 H 0.28621 0.58132 0.87313 0.0
H1119 H 0.31785 0.5846 0.92521 0.0
C1120 C 0.14795 0.6944 0.72987 0.0
C1121 C 0.18289 0.69275 0.71095 0.0
C1122 C 0.12256 0.67303 0.70891 0.0
C1123 C 0.13226 0.65088 0.66639 0.0
C1124 C 0.16709 0.65017 0.6454 0.0
C1125 C 0.1922 0.67072 0.66865 0.0
C1126 C 0.08569 0.67364 0.73294 0.0
C1127 C 0.1779 0.62757 0.59861 0.0
C1128 C 0.08461 0.56885 0.63538 0.0
C1129 C 0.06584 0.58019 0.59029 0.0
C1130 C 0.10449 0.5924 0.66323 0.0
C1131 C 0.10636 0.62764 0.64419 0.0
C1132 C 0.08614 0.63963 0.60047 0.0
C1133 C 0.06535 0.61577 0.57485 0.0
C1134 C 0.12467 0.57926 0.71143 0.0
C1135 C 0.08814 0.67699 0.57847 0.0
H1136 H 0.14029 0.71224 0.76113 0.0
H1137 H 0.21903 0.66963 0.65322 0.0
H1138 H 0.06665 0.67941 0.70092 0.0
H1139 H 0.07906 0.64744 0.75112 0.0
H1140 H 0.08229 0.69336 0.76473 0.0
H1141 H 0.20548 0.63215 0.58461 0.0
H1142 H 0.17496 0.59952 0.61088 0.0
H1143 H 0.16066 0.63285 0.56399 0.0
H1144 H 0.08411 0.54153 0.64872 0.0
H1145 H 0.04955 0.62494 0.54181 0.0
H1146 H 0.1211 0.59724 0.74553 0.0
H1147 H 0.15303 0.57852 0.70037 0.0
H1148 H 0.11641 0.55255 0.72556 0.0
H1149 H 0.08584 0.69575 0.61165 0.0
H1150 H 0.06743 0.68304 0.54903 0.0
H1151 H 0.11402 0.68133 0.55765 0.0
C1152 C 0.18753 0.3308 0.39343 0.0
C1153 C 0.18473 0.32528 0.33787 0.0
C1154 C 0.16624 0.35546 0.42006 0.0
C1155 C 0.14177 0.37566 0.3904 0.0
C1156 C 0.13852 0.36985 0.33441 0.0
C1157 C 0.15978 0.34459 0.30908 0.0
C1158 C 0.16976 0.35958 0.48009 0.0
C1159 C 0.1134 0.39118 0.30072 0.0
C1160 C 0.06676 0.42674 0.45767 0.0
C1161 C 0.0809 0.46052 0.45876 0.0
C1162 C 0.08676 0.39847 0.43813 0.0
C1163 C 0.12121 0.40439 0.41672 0.0
C1164 C 0.13556 0.4385 0.41791 0.0
C1165 C 0.11533 0.46599 0.43911 0.0
C1166 C 0.07071 0.36244 0.43942 0.0
C1167 C 0.172 0.44622 0.39527 0.0
H1168 H 0.20632 0.3156 0.41635 0.0
H1169 H 0.15769 0.341 0.26628 0.0
H1170 H 0.1725 0.38758 0.4896 0.0
H1171 H 0.14566 0.3496 0.50151 0.0
H1172 H 0.19253 0.34487 0.49613 0.0
H1173 H 0.11319 0.38277 0.25813 0.0
H1174 H 0.08646 0.38897 0.31858 0.0
H1175 H 0.12078 0.41924 0.30065 0.0
H1176 H 0.03987 0.42244 0.47121 0.0
H1177 H 0.12621 0.49216 0.43911 0.0
H1178 H 0.08862 0.34316 0.45863 0.0
H1179 H 0.06678 0.35418 0.39747 0.0
H1180 H 0.04507 0.36156 0.46203 0.0
H1181 H 0.17948 0.47402 0.39967 0.0
H1182 H 0.1737 0.44018 0.35165 0.0
H1183 H 0.19133 0.42929 0.41621 0.0
C1184 C 0.0074 0.05978 0.91836 0.0
C1185 C 0.01826 0.03423 0.88186 0.0
C1186 C 0.99932 0.0509 0.97297 0.0
C1187 C 1.0025 0.01564 0.99176 0.0
C1188 C 0.01279 0.98962 0.95483 0.0
C1189 C 0.02036 0.99921 0.90026 0.0
C1190 C 0.98788 0.07934 1.01073 0.0
C1191 C 0.01657 0.95175 0.97324 0.0
C1192 C 0.01451 0.99555 0.14229 0.0
C1193 C 0.9809 0.98435 0.15927 0.0
C1194 C 0.02185 0.00627 0.08803 0.0
C1195 C 0.9949 0.00591 0.04996 0.0
C1196 C 0.9607 0.99564 0.06731 0.0
C1197 C 0.95413 0.9851 0.12162 0.0
C1198 C 0.05862 0.0172 0.07113 0.0
C1199 C 0.93113 0.9952 0.02829 0.0
H1200 H 0.00552 0.08687 0.90418 0.0
H1201 H 0.02918 0.97946 0.87237 0.0
H1202 H 0.96216 0.07265 0.03047 0.0
H1203 H 0.00694 0.08144 0.04335 0.0
H1204 H 0.98566 0.10528 0.9894 0.0
H1205 H 0.02445 0.93466 0.93942 0.0
H1206 H 0.03651 0.94939 1.0048 0.0
H1207 H 0.99147 0.942 0.99177 0.0
H1208 H 0.03534 0.99489 0.17103 0.0
H1209 H 0.9279 0.97715 0.13465 0.0
H1210 H 0.05841 0.04387 0.05193 0.0
H1211 H 0.06946 0.99918 0.04049 0.0
H1212 H 0.07635 0.01711 0.10587 0.0
H1213 H 0.92806 0.02143 1.00834 0.0
H1214 H 0.9058 0.98756 0.04859 0.0
H1215 H 0.93728 0.97648 0.99593 0.0
C1216 C 0.26826 0.768 0.38741 0.0
C1217 C 0.28533 0.73671 0.40214 0.0
C1218 C 0.2562 0.77382 0.33466 0.0
C1219 C 0.26112 0.74764 0.29578 0.0
C1220 C 0.27761 0.7157 0.31084 0.0
C1221 C 0.28952 0.71065 0.3637 0.0
C1222 C 0.23875 0.80825 0.32022 0.0
C1223 C 0.28301 0.68694 0.27094 0.0
C1224 C 0.20375 0.75062 0.17267 0.0
C1225 C 0.2262 0.7659 0.13246 0.0
C1226 C 0.21482 0.74435 0.22578 0.0
C1227 C 0.24918 0.75367 0.23927 0.0
C1228 C 0.27217 0.76863 0.1987 0.0
C1229 C 0.26045 0.77445 0.14576 0.0
C1230 C 0.18961 0.72797 0.26758 0.0
C1231 C 0.30899 0.779 0.21143 0.0
H1232 H 0.26519 0.78835 0.41672 0.0
H1233 H 0.30222 0.68619 0.37501 0.0
H1234 H 0.25403 0.82203 0.28705 0.0
H1235 H 0.21221 0.80356 0.30515 0.0
H1236 H 0.23638 0.82567 0.35526 0.0
H1237 H 0.29564 0.66337 0.28934 0.0
H1238 H 0.25751 0.67918 0.25492 0.0
H1239 H 0.29963 0.69659 0.23594 0.0
H1240 H 0.17739 0.74354 0.16254 0.0
H1241 H 0.27781 0.7866 0.1151 0.0
H1242 H 0.18507 0.746 0.30138 0.0
H1243 H 0.201 0.7035 0.28501 0.0
H1244 H 0.16397 0.72175 0.25038 0.0
H1245 H 0.30825 0.79876 0.24334 0.0
H1246 H 0.32369 0.79007 0.17532 0.0
H1247 H 0.32351 0.75592 0.22753 0.0
C1248 C 0.46517 0.04024 0.61853 0.0
C1249 C 0.49151 0.03456 0.65616 0.0
C1250 C 0.46863 0.02778 0.56579 0.0
C1251 C 0.49925 0.00925 0.55001 0.0
C1252 C 0.52573 1.00296 0.58803 0.0
C1253 C 0.52148 0.01557 0.64071 0.0
C1254 C 0.43959 0.03468 0.52682 0.0
C1255 C 0.5588 0.98338 0.57279 0.0
C1256 C 0.49645 0.95061 0.42877 0.0
C1257 C 0.51249 0.97163 0.38741 0.0
C1258 C 0.49181 0.96258 0.48166 0.0
C1259 C 0.50353 0.99644 0.49373 0.0
C1260 C 0.51924 0.01804 0.452 0.0
C1261 C 0.52345 0.00542 0.39933 0.0
C1262 C 0.47458 0.93885 0.52472 0.0
C1263 C 0.53212 0.05429 0.46321 0.0
H1264 H 0.44171 0.05448 0.63042 0.0
H1265 H 0.54205 0.01137 0.66939 0.0
H1266 H 0.44971 0.05033 0.49108 0.0
H1267 H 0.42989 0.00958 0.51182 0.0
H1268 H 0.41719 0.04897 0.54567 0.0
H1269 H 0.57671 0.98031 0.60714 0.0
H1270 H 0.55224 0.95701 0.55873 0.0
H1271 H 0.57287 0.99749 0.53869 0.0
H1272 H 0.48746 0.92465 0.41973 0.0
H1273 H 0.53618 0.02168 0.36778 0.0
H1274 H 0.45113 0.95189 0.54258 0.0
H1275 H 0.49286 0.93357 0.558 0.0
H1276 H 0.46649 0.91344 0.50859 0.0
H1277 H 0.51027 0.07037 0.47968 0.0
H1278 H 0.54346 0.06793 0.42631 0.0
H1279 H 0.55237 0.05266 0.49435 0.0
C1280 C 0.21201 0.27469 0.86556 0.0
C1281 C 0.23171 0.25691 0.9048 0.0
C1282 C 0.22459 0.27884 0.81172 0.0
C1283 C 0.25762 0.26465 0.79656 0.0
C1284 C 0.27814 0.24762 0.83638 0.0
C1285 C 0.26499 0.2441 0.89013 0.0
C1286 C 0.2021 0.29762 0.77077 0.0
C1287 C 0.31345 0.23207 0.82182 0.0
C1288 C 0.27301 0.24251 0.64854 0.0
C1289 C 0.29365 0.27072 0.62889 0.0
C1290 C 0.26126 0.24013 0.70306 0.0
C1291 C 0.27014 0.26674 0.73873 0.0
C1292 C 0.29058 0.29551 0.71893 0.0
C1293 C 0.30211 0.29712 0.66435 0.0
C1294 C 0.2396 0.20897 0.72264 0.0
C1295 C 0.30025 0.32462 0.75542 0.0
H1296 H 0.1864 0.28495 0.8769 0.0
H1297 H 0.28015 0.23004 0.92021 0.0
H1298 H 0.2171 0.31913 0.74967 0.0
H1299 H 0.19447 0.27918 0.73954 0.0
H1300 H 0.17793 0.30877 0.78967 0.0
H1301 H 0.32678 0.22099 0.85785 0.0
H1302 H 0.31026 0.21095 0.79268 0.0
H1303 H 0.33059 0.25227 0.80163 0.0
H1304 H 0.2667 0.22186 0.62152 0.0
H1305 H 0.31766 0.31924 0.64926 0.0
H1306 H 0.21383 0.21789 0.73907 0.0
H1307 H 0.2529 0.19474 0.75606 0.0
H1308 H 0.23512 0.19044 0.68991 0.0
H1309 H 0.27619 0.33692 0.77264 0.0
H1310 H 0.31624 0.34522 0.73372 0.0
H1311 H 0.31522 0.31384 0.78992 0.0
C1312 C 0.78784 0.21261 0.87715 0.0
C1313 C 0.78196 0.23843 0.91558 0.0
C1314 C 0.77564 0.21676 0.82433 0.0
C1315 C 0.75709 0.24753 0.80929 0.0
C1316 C 0.75059 0.27349 0.84807 0.0
C1317 C 0.763 0.26857 0.90079 0.0
C1318 C 0.78279 0.18827 0.78451 0.0
C1319 C 0.73097 0.3067 0.83362 0.0
C1320 C 0.75363 0.27328 0.65907 0.0
C1321 C 0.71994 0.26234 0.6466 0.0
C1322 C 0.76607 0.26865 0.7118 0.0
C1323 C 0.7444 0.25245 0.753 0.0
C1324 C 0.71064 0.24075 0.74035 0.0
C1325 C 0.69882 0.24589 0.68744 0.0
C1326 C 0.80221 0.28155 0.72364 0.0
C1327 C 0.68686 0.22298 0.78281 0.0
H1328 H 0.80203 0.189 0.88848 0.0
H1329 H 0.75864 0.28876 0.93007 0.0
H1330 H 0.75778 0.17862 0.76913 0.0
H1331 H 0.79841 0.19892 0.7491 0.0
H1332 H 0.7972 0.16574 0.80277 0.0
H1333 H 0.7278 0.32418 0.86847 0.0
H1334 H 0.7451 0.32118 0.79996 0.0
H1335 H 0.70465 0.30026 0.81924 0.0
H1336 H 0.76995 0.28632 0.6279 0.0
H1337 H 0.67293 0.23694 0.67794 0.0
H1338 H 0.81835 0.25958 0.73964 0.0
H1339 H 0.80038 0.30141 0.75535 0.0
H1340 H 0.81588 0.29338 0.68713 0.0
H1341 H 0.69994 0.19938 0.80016 0.0
H1342 H 0.66154 0.21501 0.76627 0.0
H1343 H 0.68143 0.24086 0.81655 0.0
C1344 C 0.70787 0.71092 0.37945 0.0
C1345 C 0.71696 0.73704 0.41501 0.0
C1346 C 0.71945 0.71233 0.32487 0.0
C1347 C 0.74059 0.74061 0.30518 0.0
C1348 C 0.75009 0.76694 0.34094 0.0
C1349 C 0.73827 0.76477 0.39545 0.0
C1350 C 0.70908 0.68353 0.28831 0.0
C1351 C 0.77252 0.79758 0.32148 0.0
C1352 C 0.79867 0.73113 0.17859 0.0
C1353 C 0.77948 0.74938 0.13918 0.0
C1354 C 0.78593 0.72737 0.23239 0.0
C1355 C 0.75326 0.74242 0.24738 0.0
C1356 C 0.73324 0.75995 0.20741 0.0
C1357 C 0.74653 0.76308 0.15369 0.0
C1358 C 0.80789 0.70805 0.27349 0.0
C1359 C 0.69832 0.77641 0.22178 0.0
H1360 H 0.6918 0.68914 0.39446 0.0
H1361 H 0.74508 0.78522 0.42252 0.0
H1362 H 0.69448 0.69472 0.2537 0.0
H1363 H 0.73284 0.6706 0.27125 0.0
H1364 H 0.69249 0.66335 0.30989 0.0
H1365 H 0.77738 0.81598 0.35424 0.0
H1366 H 0.7981 0.78805 0.30519 0.0
H1367 H 0.75963 0.81215 0.28797 0.0
H1368 H 0.82401 0.7202 0.16738 0.0
H1369 H 0.73177 0.77748 0.12349 0.0
H1370 H 0.79234 0.6869 0.2945 0.0
H1371 H 0.8159 0.72628 0.30477 0.0
H1372 H 0.83182 0.69633 0.25474 0.0
H1373 H 0.68063 0.75666 0.24188 0.0
H1374 H 0.68535 0.78785 0.18567 0.0
H1375 H 0.70202 0.79743 0.25094 0.0
C1376 C 0.4904 0.50078 0.64712 0.0
C1377 C 0.50836 0.46991 0.66145 0.0
C1378 C 0.491 0.51392 0.59319 0.0
C1379 C 0.51023 0.49594 0.55263 0.0
C1380 C 0.52889 0.46511 0.56707 0.0
C1381 C 0.52768 0.45247 0.62116 0.0
C1382 C 0.47066 0.54683 0.57949 0.0
C1383 C 0.55006 0.44536 0.52531 0.0
C1384 C 0.48697 0.51135 0.40471 0.0
C1385 C 0.51227 0.53592 0.38655 0.0
C1386 C 0.48598 0.4981 0.4586 0.0
C1387 C 0.51106 0.50947 0.49514 0.0
C1388 C 0.53706 0.53375 0.4767 0.0
C1389 C 0.53731 0.54667 0.42279 0.0
C1390 C 0.45779 0.4723 0.47666 0.0
C1391 C 0.56453 0.54625 0.51403 0.0
H1392 H 0.47512 0.51419 0.67786 0.0
H1393 H 0.542 0.42886 0.63203 0.0
H1394 H 0.48851 0.56703 0.56095 0.0
H1395 H 0.45082 0.54121 0.54922 0.0
H1396 H 0.45714 0.55779 0.61566 0.0
H1397 H 0.56338 0.42201 0.5432 0.0
H1398 H 0.5328 0.43667 0.49318 0.0
H1399 H 0.57016 0.46281 0.50551 0.0
H1400 H 0.46736 0.50315 0.37713 0.0
H1401 H 0.55728 0.56525 0.40887 0.0
H1402 H 0.44156 0.48322 0.51016 0.0
H1403 H 0.46983 0.44773 0.49255 0.0
H1404 H 0.44043 0.46586 0.44327 0.0
H1405 H 0.5518 0.55938 0.54891 0.0
H1406 H 0.58323 0.56484 0.49324 0.0
H1407 H 0.57947 0.52359 0.5306 0.0
C1408 C 0.97403 0.469 0.92434 0.0
C1409 C 0.98458 0.49204 0.88146 0.0
C1410 C 0.97877 0.47739 0.97844 0.0
C1411 C 0.99465 0.50955 0.99007 0.0
C1412 C 0.00748 0.53184 0.94693 0.0
C1413 C 1.00225 0.52284 0.8931 0.0
C1414 C 0.96482 0.45279 0.02311 0.0
C1415 C 0.02484 0.56622 0.95761 0.0
C1416 C 0.96455 0.55325 0.11926 0.0
C1417 C 0.99218 0.54575 0.15376 0.0
C1418 C 0.96504 0.54139 0.06618 0.0
C1419 C 0.99403 0.52167 0.04681 0.0
C1420 C 0.02188 0.51361 0.08163 0.0
C1421 C 0.02053 0.5256 0.1349 0.0
C1422 C 0.93454 0.55014 0.03073 0.0
C1423 C 0.05329 0.49285 0.06232 0.0
H1424 H 0.96097 0.44481 0.91558 0.0
H1425 H 0.01036 0.54085 0.86026 0.0
H1426 H 0.98481 0.44804 0.05406 0.0
H1427 H 0.94176 0.46491 0.04367 0.0
H1428 H 0.95676 0.42721 1.00756 0.0
H1429 H 0.03731 0.57832 0.9203 0.0
H1430 H 0.005 0.58475 0.97384 0.0
H1431 H 0.04501 0.5625 0.98855 0.0
H1432 H 0.94238 0.56843 0.13394 0.0
H1433 H 0.04205 0.51999 0.16137 0.0
H1434 H 0.92281 0.52572 1.01655 0.0
H1435 H 0.94377 0.56565 0.99429 0.0
H1436 H 0.91382 0.56532 0.05221 0.0
H1437 H 0.04486 0.46723 0.04755 0.0
H1438 H 0.07238 0.48812 0.09473 0.0
H1439 H 0.0667 0.50708 0.02772 0.0
loop_
_geom_bond_atom_site_label_1
_geom_bond_atom_site_label_2
_geom_bond_distance
_geom_bond_site_symmetry_2
_ccdc_geom_bond_type
Tb0 N31 2.652 1_455 S
Tb0 N38 2.600 1_455 S
Tb0 O44 2.550 . S
Tb0 O45 2.612 1_565 S
Tb0 O47 2.314 1_465 S
Tb0 O48 2.557 1_565 S
Tb0 O49 2.412 1_455 S
Tb0 O51 2.359 1_455 S
Tb0 O52 2.427 . S
Tb0 C64 2.834 . S
C1 C4 1.432 . S
C1 C5 1.414 . S
C1 N8 1.359 . S
C2 C4 1.417 . S
C2 C6 1.432 . S
C2 C14 1.410 . S
C3 C5 1.444 . S
C3 C6 1.317 . S
C3 H26 0.929 . S
C4 C1 1.432 . S
C4 C2 1.417 . S
C4 N12 1.360 . S
C5 C1 1.414 . S
C5 C3 1.444 . S
C5 C10 1.385 . S
C6 C2 1.432 . S
C6 C3 1.317 . S
C6 H18 0.930 . S
C7 C9 1.392 . S
C7 C10 1.370 1_655 S
C7 H19 0.931 . S
N8 C1 1.359 . S
N8 C9 1.327 1_455 S
N8 Tb11 2.600 1_455 S
C9 C7 1.392 . S
C9 N8 1.327 1_655 S
C9 H16 0.930 . S
C10 C5 1.385 . S
C10 C7 1.370 1_455 S
C10 H29 0.930 . S
Tb11 N8 2.600 1_655 S
Tb11 N12 2.659 1_655 S
Tb11 O45 2.362 1_655 S
Tb11 O46 2.421 . S
Tb11 O50 2.546 . S
Tb11 O51 2.610 1_545 S
Tb11 O53 2.319 1_645 S
Tb11 O54 2.552 1_545 S
Tb11 O55 2.413 1_655 S
Tb11 C75 2.833 . S
N12 C4 1.360 . S
N12 Tb11 2.659 1_455 S
N12 C13 1.305 . S
C13 N12 1.305 . S
C13 C15 1.407 . S
C13 H20 0.930 . S
C14 C2 1.410 . S
C14 C15 1.345 . S
C14 H22 0.930 . S
C15 C13 1.407 . S
C15 C14 1.345 . S
C15 H17 0.930 . S
H16 C9 0.930 . S
H17 C15 0.930 . S
H18 C6 0.930 . S
H19 C7 0.931 . S
H20 C13 0.930 . S
H21 C35 0.930 . S
H22 C14 0.930 . S
H23 C41 0.930 . S
H24 C32 0.930 . S
H25 C39 0.931 . S
H26 C3 0.929 . S
H27 C33 0.930 . S
H28 C66 0.930 . S
H29 C10 0.930 . S
H30 C65 0.929 . S
N31 Tb0 2.652 1_655 S
N31 C32 1.305 . S
N31 C36 1.360 . S
C32 H24 0.930 . S
C32 N31 1.305 . S
C32 C35 1.407 . S
C33 H27 0.930 . S
C33 C34 1.410 . S
C33 C35 1.345 . S
C34 C33 1.410 . S
C34 C36 1.417 . S
C34 C66 1.432 . S
C35 H21 0.930 . S
C35 C32 1.407 . S
C35 C33 1.345 . S
C36 N31 1.360 . S
C36 C34 1.417 . S
C36 C40 1.432 . S
H37 C42 0.929 . S
N38 Tb0 2.600 1_655 S
N38 C40 1.359 . S
N38 C41 1.327 1_655 S
C39 H25 0.931 . S
C39 C41 1.392 . S
C39 C42 1.343 1_455 S
C40 C36 1.432 . S
C40 N38 1.359 . S
C40 C43 1.414 . S
C41 H23 0.930 . S
C41 N38 1.327 1_455 S
C41 C39 1.392 . S
C42 H37 0.929 . S
C42 C39 1.343 1_655 S
C42 C43 1.412 . S
C43 C40 1.414 . S
C43 C42 1.412 . S
C43 C65 1.444 . S
O44 Tb0 2.550 . S
O44 C64 1.251 . S
O45 Tb0 2.612 1_545 S
O45 Tb11 2.362 1_455 S
O45 C56 1.283 . S
O46 Tb11 2.421 . S
O46 C63 1.262 . S
O47 Tb0 2.314 1_645 S
O47 C63 1.260 . S
O48 Tb0 2.557 1_545 S
O48 C56 1.243 . S
O49 Tb0 2.412 1_655 S
O49 C64 1.256 1_655 S
O50 Tb11 2.546 . S
O50 C75 1.251 . S
O51 Tb0 2.359 1_655 S
O51 Tb11 2.610 1_565 S
O51 C67 1.283 . S
O52 Tb0 2.427 . S
O52 C74 1.262 . S
O53 Tb11 2.319 1_465 S
O53 C74 1.260 . S
O54 Tb11 2.552 1_565 S
O54 C67 1.243 . S
O55 Tb11 2.413 1_455 S
O55 C75 1.256 1_455 S
C56 O45 1.283 . S
C56 O48 1.243 . S
C57 C59 1.382 . S
C57 C61 1.393 . S
C57 C64 1.500 . S
C58 C59 1.400 . S
C58 C60 1.384 . S
C59 C57 1.382 . S
C59 C58 1.400 . S
C59 H76 0.930 1_465 S
C60 C58 1.384 . S
C60 C62 1.392 . S
C60 H77 0.931 . S
C61 C57 1.393 . S
C61 C62 1.401 . S
C61 H78 0.930 . S
C62 C60 1.392 . S
C62 C61 1.401 . S
C62 H79 0.930 . S
C63 O46 1.262 . S
C63 O47 1.260 . S
C64 Tb0 2.834 . S
C64 O44 1.251 . S
C64 O49 1.256 1_455 S
C64 C57 1.500 . S
C65 H30 0.929 . S
C65 C43 1.444 . S
C65 C66 1.317 . S
C66 H28 0.930 . S
C66 C34 1.432 . S
C66 C65 1.317 . S
C67 O51 1.283 . S
C67 O54 1.243 . S
C68 C69 1.382 . S
C68 C72 1.393 . S
C68 C75 1.500 . S
C69 C68 1.382 . S
C69 C70 1.400 . S
C69 H80 0.930 1_645 S
C70 C69 1.400 . S
C70 C71 1.384 . S
C71 C70 1.384 . S
C71 C73 1.392 . S
C71 H81 0.931 . S
C72 C68 1.393 . S
C72 C73 1.401 . S
C72 H82 0.930 . S
C73 C71 1.392 . S
C73 C72 1.401 . S
C73 H83 0.930 . S
C74 O52 1.262 . S
C74 O53 1.260 . S
C75 Tb11 2.833 . S
C75 O50 1.251 . S
C75 O55 1.256 1_655 S
C75 C68 1.500 . S
H76 C59 0.930 1_645 S
H77 C60 0.931 . S
H78 C61 0.930 . S
H79 C62 0.930 . S
H80 C69 0.930 1_465 S
H81 C71 0.931 . S
H82 C72 0.930 . S
H83 C73 0.930 . S
Tb84 N115 2.660 . S
Tb84 N122 2.600 . S
Tb84 O128 2.546 . S
Tb84 O129 2.610 . S
Tb84 O131 2.320 . S
Tb84 O132 2.552 . S
Tb84 O133 2.413 . S
Tb84 O135 2.362 . S
Tb84 O136 2.421 . S
Tb84 C148 2.833 . S
C85 C88 1.432 . S
C85 C89 1.414 . S
C85 N92 1.359 . S
C86 C88 1.417 . S
C86 C90 1.432 . S
C86 C98 1.410 . S
C87 C89 1.444 . S
C87 C90 1.317 . S
C87 H110 0.929 . S
C88 C85 1.432 . S
C88 C86 1.417 . S
C88 N96 1.360 . S
C89 C85 1.414 . S
C89 C87 1.444 . S
C89 C94 1.385 . S
C90 C86 1.432 . S
C90 C87 1.317 . S
C90 H102 0.930 . S
C91 C93 1.392 . S
C91 C94 1.370 . S
C91 H103 0.931 . S
N92 C85 1.359 . S
N92 C93 1.327 . S
N92 Tb95 2.600 . S
C93 C91 1.392 . S
C93 N92 1.327 . S
C93 H100 0.930 . S
C94 C89 1.385 . S
C94 C91 1.370 . S
C94 H113 0.930 . S
Tb95 N92 2.600 . S
Tb95 N96 2.660 . S
Tb95 O129 2.362 . S
Tb95 O130 2.421 . S
Tb95 O134 2.546 . S
Tb95 O135 2.610 . S
Tb95 O137 2.320 . S
Tb95 O138 2.552 . S
Tb95 O139 2.413 . S
Tb95 C159 2.833 . S
N96 C88 1.360 . S
N96 Tb95 2.660 . S
N96 C97 1.305 . S
C97 N96 1.305 . S
C97 C99 1.407 . S
C97 H104 0.930 . S
C98 C86 1.410 . S
C98 C99 1.345 . S
C98 H106 0.930 . S
C99 C97 1.407 . S
C99 C98 1.345 . S
C99 H101 0.930 . S
H100 C93 0.930 . S
H101 C99 0.930 . S
H102 C90 0.930 . S
H103 C91 0.931 . S
H104 C97 0.930 . S
H105 C119 0.930 . S
H106 C98 0.930 . S
H107 C125 0.930 . S
H108 C116 0.930 . S
H109 C123 0.931 . S
H110 C87 0.929 . S
H111 C117 0.930 . S
H112 C150 0.930 . S
H113 C94 0.930 . S
H114 C149 0.929 . S
N115 Tb84 2.660 . S
N115 C116 1.305 . S
N115 C120 1.360 . S
C116 H108 0.930 . S
C116 N115 1.305 . S
C116 C119 1.407 . S
C117 H111 0.930 . S
C117 C118 1.410 . S
C117 C119 1.345 . S
C118 C117 1.410 . S
C118 C120 1.417 . S
C118 C150 1.432 . S
C119 H105 0.930 . S
C119 C116 1.407 . S
C119 C117 1.345 . S
C120 N115 1.360 . S
C120 C118 1.417 . S
C120 C124 1.432 . S
H121 C126 0.930 . S
N122 Tb84 2.600 . S
N122 C124 1.359 . S
N122 C125 1.327 . S
C123 H109 0.931 . S
C123 C125 1.392 . S
C123 C126 1.370 . S
C124 C120 1.432 . S
C124 N122 1.359 . S
C124 C127 1.414 . S
C125 H107 0.930 . S
C125 N122 1.327 . S
C125 C123 1.392 . S
C126 H121 0.930 . S
C126 C123 1.370 . S
C126 C127 1.385 . S
C127 C124 1.414 . S
C127 C126 1.385 . S
C127 C149 1.444 . S
O128 Tb84 2.546 . S
O128 C148 1.251 . S
O129 Tb84 2.610 . S
O129 Tb95 2.362 . S
O129 C140 1.283 . S
O130 Tb95 2.421 . S
O130 C147 1.262 . S
O131 Tb84 2.320 . S
O131 C147 1.260 . S
O132 Tb84 2.552 . S
O132 C140 1.243 . S
O133 Tb84 2.413 . S
O133 C148 1.256 . S
O134 Tb95 2.546 . S
O134 C159 1.251 . S
O135 Tb84 2.362 . S
O135 Tb95 2.610 . S
O135 C151 1.283 . S
O136 Tb84 2.421 . S
O136 C158 1.262 . S
O137 Tb95 2.320 . S
O137 C158 1.260 . S
O138 Tb95 2.552 . S
O138 C151 1.243 . S
O139 Tb95 2.413 . S
O139 C159 1.256 . S
C140 O129 1.283 . S
C140 O132 1.243 . S
C141 C143 1.382 . S
C141 C145 1.393 . S
C141 C148 1.500 . S
C142 C143 1.400 . S
C142 C144 1.384 . S
C143 C141 1.382 . S
C143 C142 1.400 . S
C143 H160 0.930 . S
C144 C142 1.384 . S
C144 C146 1.392 . S
C144 H161 0.931 . S
C145 C141 1.393 . S
C145 C146 1.401 . S
C145 H162 0.930 . S
C146 C144 1.392 . S
C146 C145 1.401 . S
C146 H163 0.930 . S
C147 O130 1.262 . S
C147 O131 1.260 . S
C148 Tb84 2.833 . S
C148 O128 1.251 . S
C148 O133 1.256 . S
C148 C141 1.500 . S
C149 H114 0.929 . S
C149 C127 1.444 . S
C149 C150 1.317 . S
C150 H112 0.930 . S
C150 C118 1.432 . S
C150 C149 1.317 . S
C151 O135 1.283 . S
C151 O138 1.243 . S
C152 C153 1.382 1_556 S
C152 C156 1.393 1_556 S
C152 C159 1.500 . S
C153 C152 1.382 1_554 S
C153 C154 1.400 . S
C153 H164 0.930 1_554 S
C154 C153 1.400 . S
C154 C155 1.384 . S
C155 C154 1.384 . S
C155 C157 1.392 . S
C155 H165 0.931 . S
C156 C152 1.393 1_554 S
C156 C157 1.401 . S
C156 H166 0.930 1_554 S
C157 C155 1.392 . S
C157 C156 1.401 . S
C157 H167 0.930 . S
C158 O136 1.262 . S
C158 O137 1.260 . S
C159 Tb95 2.833 . S
C159 O134 1.251 . S
C159 O139 1.256 . S
C159 C152 1.500 . S
H160 C143 0.930 . S
H161 C144 0.931 . S
H162 C145 0.930 . S
H163 C146 0.930 . S
H164 C153 0.930 1_556 S
H165 C155 0.931 . S
H166 C156 0.930 1_556 S
H167 C157 0.930 . S
Tb168 N199 2.660 . S
Tb168 N206 2.600 . S
Tb168 O212 2.546 . S
Tb168 O213 2.610 1_565 S
Tb168 O215 2.320 1_565 S
Tb168 O216 2.552 1_565 S
Tb168 O217 2.413 . S
Tb168 O219 2.362 1_554 S
Tb168 O220 2.421 . S
Tb168 C232 2.833 . S
C169 C172 1.432 . S
C169 C173 1.414 . S
C169 N176 1.359 . S
C170 C172 1.417 . S
C170 C174 1.432 . S
C170 C182 1.410 . S
C171 C173 1.444 . S
C171 C174 1.317 . S
C171 H194 0.929 . S
C172 C169 1.432 . S
C172 C170 1.417 . S
C172 N180 1.360 . S
C173 C169 1.414 . S
C173 C171 1.444 . S
C173 C178 1.385 . S
C174 C170 1.432 . S
C174 C171 1.317 . S
C174 H186 0.930 . S
C175 C177 1.392 . S
C175 C178 1.370 . S
C175 H187 0.931 . S
N176 C169 1.359 . S
N176 C177 1.327 . S
N176 Tb179 2.600 . S
C177 C175 1.392 . S
C177 N176 1.327 . S
C177 H184 0.930 . S
C178 C173 1.385 . S
C178 C175 1.370 . S
C178 H197 0.930 . S
Tb179 N176 2.600 . S
Tb179 N180 2.660 . S
Tb179 O213 2.362 1_556 S
Tb179 O214 2.421 . S
Tb179 O218 2.546 . S
Tb179 O219 2.610 1_545 S
Tb179 O221 2.320 1_545 S
Tb179 O222 2.552 1_545 S
Tb179 O223 2.413 . S
Tb179 C243 2.833 . S
N180 C172 1.360 . S
N180 Tb179 2.660 . S
N180 C181 1.305 . S
C181 N180 1.305 . S
C181 C183 1.407 . S
C181 H188 0.930 . S
C182 C170 1.410 . S
C182 C183 1.345 . S
C182 H190 0.930 . S
C183 C181 1.407 . S
C183 C182 1.345 . S
C183 H185 0.930 . S
H184 C177 0.930 . S
H185 C183 0.930 . S
H186 C174 0.930 . S
H187 C175 0.931 . S
H188 C181 0.930 . S
H189 C203 0.930 . S
H190 C182 0.930 . S
H191 C209 0.930 . S
H192 C200 0.930 . S
H193 C207 0.931 . S
H194 C171 0.929 . S
H195 C201 0.930 . S
H196 C234 0.930 . S
H197 C178 0.930 . S
H198 C233 0.929 . S
N199 Tb168 2.660 . S
N199 C200 1.305 . S
N199 C204 1.360 . S
C200 H192 0.930 . S
C200 N199 1.305 . S
C200 C203 1.407 . S
C201 H195 0.930 . S
C201 C202 1.410 . S
C201 C203 1.345 . S
C202 C201 1.410 . S
C202 C204 1.417 . S
C202 C234 1.432 . S
C203 H189 0.930 . S
C203 C200 1.407 . S
C203 C201 1.345 . S
C204 N199 1.360 . S
C204 C202 1.417 . S
C204 C208 1.432 . S
H205 C210 0.930 . S
N206 Tb168 2.600 . S
N206 C208 1.359 . S
N206 C209 1.327 . S
C207 H193 0.931 . S
C207 C209 1.392 . S
C207 C210 1.370 . S
C208 C204 1.432 . S
C208 N206 1.359 . S
C208 C211 1.414 . S
C209 H191 0.930 . S
C209 N206 1.327 . S
C209 C207 1.392 . S
C210 H205 0.930 . S
C210 C207 1.370 . S
C210 C211 1.385 . S
C211 C208 1.414 . S
C211 C210 1.385 . S
C211 C233 1.444 . S
O212 Tb168 2.546 . S
O212 C232 1.251 . S
O213 Tb168 2.610 1_545 S
O213 Tb179 2.362 1_554 S
O213 C224 1.283 . S
O214 Tb179 2.421 . S
O214 C231 1.262 1_556 S
O215 Tb168 2.320 1_545 S
O215 C231 1.260 . S
O216 Tb168 2.552 1_545 S
O216 C224 1.243 . S
O217 Tb168 2.413 . S
O217 C232 1.256 . S
O218 Tb179 2.546 . S
O218 C243 1.251 . S
O219 Tb168 2.362 1_556 S
O219 Tb179 2.610 1_565 S
O219 C235 1.283 . S
O220 Tb168 2.421 . S
O220 C242 1.262 1_554 S
O221 Tb179 2.320 1_565 S
O221 C242 1.260 . S
O222 Tb179 2.552 1_565 S
O222 C235 1.243 . S
O223 Tb179 2.413 . S
O223 C243 1.256 . S
C224 O213 1.283 . S
C224 O216 1.243 . S
C225 C227 1.382 . S
C225 C229 1.393 . S
C225 C232 1.500 . S
C226 C227 1.400 . S
C226 C228 1.384 . S
C227 C225 1.382 . S
C227 C226 1.400 . S
C227 H244 0.930 1_565 S
C228 C226 1.384 . S
C228 C230 1.392 . S
C228 H245 0.931 . S
C229 C225 1.393 . S
C229 C230 1.401 . S
C229 H246 0.930 . S
C230 C228 1.392 . S
C230 C229 1.401 . S
C230 H247 0.930 . S
C231 O214 1.262 1_554 S
C231 O215 1.260 . S
C232 Tb168 2.833 . S
C232 O212 1.251 . S
C232 O217 1.256 . S
C232 C225 1.500 . S
C233 H198 0.929 . S
C233 C211 1.444 . S
C233 C234 1.317 . S
C234 H196 0.930 . S
C234 C202 1.432 . S
C234 C233 1.317 . S
C235 O219 1.283 . S
C235 O222 1.243 . S
C236 C237 1.382 . S
C236 C240 1.393 . S
C236 C243 1.500 . S
C237 C236 1.382 . S
C237 C238 1.400 . S
C237 H248 0.930 1_545 S
C238 C237 1.400 . S
C238 C239 1.384 . S
C239 C238 1.384 . S
C239 C241 1.392 . S
C239 H249 0.931 . S
C240 C236 1.393 . S
C240 C241 1.401 . S
C240 H250 0.930 . S
C241 C239 1.392 . S
C241 C240 1.401 . S
C241 H251 0.930 . S
C242 O220 1.262 1_556 S
C242 O221 1.260 . S
C243 Tb179 2.833 . S
C243 O218 1.251 . S
C243 O223 1.256 . S
C243 C236 1.500 . S
H244 C227 0.930 1_545 S
H245 C228 0.931 . S
H246 C229 0.930 . S
H247 C230 0.930 . S
H248 C237 0.930 1_565 S
H249 C239 0.931 . S
H250 C240 0.930 . S
H251 C241 0.930 . S
Tb252 N283 2.660 . S
Tb252 N290 2.600 . S
Tb252 O296 2.546 . S
Tb252 O297 2.610 . S
Tb252 O299 2.320 . S
Tb252 O300 2.552 . S
Tb252 O301 2.413 . S
Tb252 O303 2.362 . S
Tb252 O304 2.421 . S
Tb252 C316 2.833 . S
C253 C256 1.432 . S
C253 C257 1.414 . S
C253 N260 1.359 . S
C254 C256 1.417 . S
C254 C258 1.432 . S
C254 C266 1.410 . S
C255 C257 1.444 . S
C255 C258 1.317 . S
C255 H278 0.929 . S
C256 C253 1.432 . S
C256 C254 1.417 . S
C256 N264 1.360 . S
C257 C253 1.414 . S
C257 C255 1.444 . S
C257 C262 1.385 . S
C258 C254 1.432 . S
C258 C255 1.317 . S
C258 H270 0.930 . S
C259 C261 1.392 . S
C259 C262 1.370 . S
C259 H271 0.931 . S
N260 C253 1.359 . S
N260 C261 1.327 . S
N260 Tb263 2.600 . S
C261 C259 1.392 . S
C261 N260 1.327 . S
C261 H268 0.930 . S
C262 C257 1.385 . S
C262 C259 1.370 . S
C262 H281 0.930 . S
Tb263 N260 2.600 . S
Tb263 N264 2.660 . S
Tb263 O297 2.362 . S
Tb263 O298 2.421 . S
Tb263 O302 2.546 . S
Tb263 O303 2.610 . S
Tb263 O305 2.320 . S
Tb263 O306 2.552 . S
Tb263 O307 2.413 . S
Tb263 C327 2.833 . S
N264 C256 1.360 . S
N264 Tb263 2.660 . S
N264 C265 1.305 . S
C265 N264 1.305 . S
C265 C267 1.407 . S
C265 H272 0.930 . S
C266 C254 1.410 . S
C266 C267 1.345 . S
C266 H274 0.930 . S
C267 C265 1.407 . S
C267 C266 1.345 . S
C267 H269 0.930 . S
H268 C261 0.930 . S
H269 C267 0.930 . S
H270 C258 0.930 . S
H271 C259 0.931 . S
H272 C265 0.930 . S
H273 C287 0.930 . S
H274 C266 0.930 . S
H275 C293 0.930 . S
H276 C284 0.930 . S
H277 C291 0.931 . S
H278 C255 0.929 . S
H279 C285 0.930 . S
H280 C318 0.930 . S
H281 C262 0.930 . S
H282 C317 0.929 . S
N283 Tb252 2.660 . S
N283 C284 1.305 . S
N283 C288 1.360 . S
C284 H276 0.930 . S
C284 N283 1.305 . S
C284 C287 1.407 . S
C285 H279 0.930 . S
C285 C286 1.410 . S
C285 C287 1.345 . S
C286 C285 1.410 . S
C286 C288 1.417 . S
C286 C318 1.432 . S
C287 H273 0.930 . S
C287 C284 1.407 . S
C287 C285 1.345 . S
C288 N283 1.360 . S
C288 C286 1.417 . S
C288 C292 1.432 . S
H289 C294 0.930 . S
N290 Tb252 2.600 . S
N290 C292 1.359 . S
N290 C293 1.327 . S
C291 H277 0.931 . S
C291 C293 1.392 . S
C291 C294 1.370 . S
C292 C288 1.432 . S
C292 N290 1.359 . S
C292 C295 1.414 . S
C293 H275 0.930 . S
C293 N290 1.327 . S
C293 C291 1.392 . S
C294 H289 0.930 . S
C294 C291 1.370 . S
C294 C295 1.385 . S
C295 C292 1.414 . S
C295 C294 1.385 . S
C295 C317 1.444 . S
O296 Tb252 2.546 . S
O296 C316 1.251 . S
O297 Tb252 2.610 . S
O297 Tb263 2.362 . S
O297 C308 1.283 . S
O298 Tb263 2.421 . S
O298 C315 1.262 . S
O299 Tb252 2.320 . S
O299 C315 1.260 . S
O300 Tb252 2.552 . S
O300 C308 1.243 . S
O301 Tb252 2.413 . S
O301 C316 1.256 . S
O302 Tb263 2.546 . S
O302 C327 1.251 . S
O303 Tb252 2.362 . S
O303 Tb263 2.610 . S
O303 C319 1.283 . S
O304 Tb252 2.421 . S
O304 C326 1.262 . S
O305 Tb263 2.320 . S
O305 C326 1.260 . S
O306 Tb263 2.552 . S
O306 C319 1.243 . S
O307 Tb263 2.413 . S
O307 C327 1.256 . S
C308 O297 1.283 . S
C308 O300 1.243 . S
C309 C311 1.382 . S
C309 C313 1.393 . S
C309 C316 1.500 . S
C310 C311 1.400 . S
C310 C312 1.384 . S
C311 C309 1.382 . S
C311 C310 1.400 . S
C311 H328 0.930 . S
C312 C310 1.384 . S
C312 C314 1.392 . S
C312 H329 0.931 . S
C313 C309 1.393 . S
C313 C314 1.401 . S
C313 H330 0.930 . S
C314 C312 1.392 . S
C314 C313 1.401 . S
C314 H331 0.930 . S
C315 O298 1.262 . S
C315 O299 1.260 . S
C316 Tb252 2.833 . S
C316 O296 1.251 . S
C316 O301 1.256 . S
C316 C309 1.500 . S
C317 H282 0.929 . S
C317 C295 1.444 . S
C317 C318 1.317 . S
C318 H280 0.930 . S
C318 C286 1.432 . S
C318 C317 1.317 . S
C319 O303 1.283 . S
C319 O306 1.243 . S
C320 C321 1.382 1_554 S
C320 C324 1.393 1_554 S
C320 C327 1.500 . S
C321 C320 1.382 1_556 S
C321 C322 1.400 . S
C321 H332 0.930 1_556 S
C322 C321 1.400 . S
C322 C323 1.384 . S
C323 C322 1.384 . S
C323 C325 1.392 . S
C323 H333 0.931 . S
C324 C320 1.393 1_556 S
C324 C325 1.401 . S
C324 H334 0.930 1_556 S
C325 C323 1.392 . S
C325 C324 1.401 . S
C325 H335 0.930 . S
C326 O304 1.262 . S
C326 O305 1.260 . S
C327 Tb263 2.833 . S
C327 O302 1.251 . S
C327 O307 1.256 . S
C327 C320 1.500 . S
H328 C311 0.930 . S
H329 C312 0.931 . S
H330 C313 0.930 . S
H331 C314 0.930 . S
H332 C321 0.930 1_554 S
H333 C323 0.931 . S
H334 C324 0.930 1_554 S
H335 C325 0.930 . S
Tb336 N367 2.660 . S
Tb336 N374 2.600 . S
Tb336 O380 2.546 . S
Tb336 O381 2.610 . S
Tb336 O383 2.320 . S
Tb336 O384 2.552 . S
Tb336 O385 2.413 . S
Tb336 O387 2.362 . S
Tb336 O388 2.421 . S
Tb336 C400 2.833 . S
C337 C340 1.432 . S
C337 C341 1.414 . S
C337 N344 1.359 . S
C338 C340 1.417 . S
C338 C342 1.432 . S
C338 C350 1.410 . S
C339 C341 1.444 . S
C339 C342 1.317 . S
C339 H362 0.929 . S
C340 C337 1.432 . S
C340 C338 1.417 . S
C340 N348 1.360 . S
C341 C337 1.414 . S
C341 C339 1.444 . S
C341 C346 1.385 . S
C342 C338 1.432 . S
C342 C339 1.317 . S
C342 H354 0.930 . S
C343 C345 1.392 . S
C343 C346 1.370 . S
C343 H355 0.931 . S
N344 C337 1.359 . S
N344 C345 1.327 . S
N344 Tb347 2.600 . S
C345 C343 1.392 . S
C345 N344 1.327 . S
C345 H352 0.930 . S
C346 C341 1.385 . S
C346 C343 1.370 . S
C346 H365 0.930 . S
Tb347 N344 2.600 . S
Tb347 N348 2.660 . S
Tb347 O381 2.362 . S
Tb347 O382 2.421 . S
Tb347 O386 2.546 . S
Tb347 O387 2.610 . S
Tb347 O389 2.320 . S
Tb347 O390 2.552 . S
Tb347 O391 2.413 . S
Tb347 C411 2.833 . S
N348 C340 1.360 . S
N348 Tb347 2.660 . S
N348 C349 1.305 . S
C349 N348 1.305 . S
C349 C351 1.407 . S
C349 H356 0.930 . S
C350 C338 1.410 . S
C350 C351 1.345 . S
C350 H358 0.930 . S
C351 C349 1.407 . S
C351 C350 1.345 . S
C351 H353 0.930 . S
H352 C345 0.930 . S
H353 C351 0.930 . S
H354 C342 0.930 . S
H355 C343 0.931 . S
H356 C349 0.930 . S
H357 C371 0.930 . S
H358 C350 0.930 . S
H359 C377 0.930 . S
H360 C368 0.930 . S
H361 C375 0.931 . S
H362 C339 0.929 . S
H363 C369 0.930 . S
H364 C402 0.930 . S
H365 C346 0.930 . S
H366 C401 0.929 . S
N367 Tb336 2.660 . S
N367 C368 1.305 . S
N367 C372 1.360 . S
C368 H360 0.930 . S
C368 N367 1.305 . S
C368 C371 1.407 . S
C369 H363 0.930 . S
C369 C370 1.410 . S
C369 C371 1.345 . S
C370 C369 1.410 . S
C370 C372 1.417 . S
C370 C402 1.432 . S
C371 H357 0.930 . S
C371 C368 1.407 . S
C371 C369 1.345 . S
C372 N367 1.360 . S
C372 C370 1.417 . S
C372 C376 1.432 . S
H373 C378 0.930 . S
N374 Tb336 2.600 . S
N374 C376 1.359 . S
N374 C377 1.327 . S
C375 H361 0.931 . S
C375 C377 1.392 . S
C375 C378 1.370 . S
C376 C372 1.432 . S
C376 N374 1.359 . S
C376 C379 1.414 . S
C377 H359 0.930 . S
C377 N374 1.327 . S
C377 C375 1.392 . S
C378 H373 0.930 . S
C378 C375 1.370 . S
C378 C379 1.385 . S
C379 C376 1.414 . S
C379 C378 1.385 . S
C379 C401 1.444 . S
O380 Tb336 2.546 . S
O380 C400 1.251 . S
O381 Tb336 2.610 . S
O381 Tb347 2.362 . S
O381 C392 1.283 . S
O382 Tb347 2.421 . S
O382 C399 1.262 . S
O383 Tb336 2.320 . S
O383 C399 1.260 . S
O384 Tb336 2.552 . S
O384 C392 1.243 . S
O385 Tb336 2.413 . S
O385 C400 1.256 . S
O386 Tb347 2.546 . S
O386 C411 1.251 . S
O387 Tb336 2.362 . S
O387 Tb347 2.610 . S
O387 C403 1.283 . S
O388 Tb336 2.421 . S
O388 C410 1.262 . S
O389 Tb347 2.320 . S
O389 C410 1.260 . S
O390 Tb347 2.552 . S
O390 C403 1.243 . S
O391 Tb347 2.413 . S
O391 C411 1.256 . S
C392 O381 1.283 . S
C392 O384 1.243 . S
C393 C395 1.382 1_554 S
C393 C397 1.393 1_554 S
C393 C400 1.500 . S
C394 C395 1.400 . S
C394 C396 1.384 . S
C395 C393 1.382 1_556 S
C395 C394 1.400 . S
C395 H412 0.930 1_556 S
C396 C394 1.384 . S
C396 C398 1.392 . S
C396 H413 0.931 . S
C397 C393 1.393 1_556 S
C397 C398 1.401 . S
C397 H414 0.930 1_556 S
C398 C396 1.392 . S
C398 C397 1.401 . S
C398 H415 0.930 . S
C399 O382 1.262 . S
C399 O383 1.260 . S
C400 Tb336 2.833 . S
C400 O380 1.251 . S
C400 O385 1.256 . S
C400 C393 1.500 . S
C401 H366 0.929 . S
C401 C379 1.444 . S
C401 C402 1.317 . S
C402 H364 0.930 . S
C402 C370 1.432 . S
C402 C401 1.317 . S
C403 O387 1.283 . S
C403 O390 1.243 . S
C404 C405 1.382 . S
C404 C408 1.393 . S
C404 C411 1.500 . S
C405 C404 1.382 . S
C405 C406 1.400 . S
C405 H416 0.930 . S
C406 C405 1.400 . S
C406 C407 1.384 . S
C407 C406 1.384 . S
C407 C409 1.392 . S
C407 H417 0.931 . S
C408 C404 1.393 . S
C408 C409 1.401 . S
C408 H418 0.930 . S
C409 C407 1.392 . S
C409 C408 1.401 . S
C409 H419 0.930 . S
C410 O388 1.262 . S
C410 O389 1.260 . S
C411 Tb347 2.833 . S
C411 O386 1.251 . S
C411 O391 1.256 . S
C411 C404 1.500 . S
H412 C395 0.930 1_554 S
H413 C396 0.931 . S
H414 C397 0.930 1_554 S
H415 C398 0.930 . S
H416 C405 0.930 . S
H417 C407 0.931 . S
H418 C408 0.930 . S
H419 C409 0.930 . S
Tb420 N451 2.660 . S
Tb420 N458 2.600 . S
Tb420 O464 2.546 . S
Tb420 O465 2.610 . S
Tb420 O467 2.320 . S
Tb420 O468 2.552 . S
Tb420 O469 2.413 . S
Tb420 O471 2.362 . S
Tb420 O472 2.421 . S
Tb420 C484 2.833 . S
C421 C424 1.432 . S
C421 C425 1.414 . S
C421 N428 1.359 . S
C422 C424 1.417 . S
C422 C426 1.432 . S
C422 C434 1.410 . S
C423 C425 1.444 . S
C423 C426 1.317 . S
C423 H446 0.929 . S
C424 C421 1.432 . S
C424 C422 1.417 . S
C424 N432 1.360 . S
C425 C421 1.414 . S
C425 C423 1.444 . S
C425 C430 1.385 . S
C426 C422 1.432 . S
C426 C423 1.317 . S
C426 H438 0.930 . S
C427 C429 1.392 . S
C427 C430 1.370 . S
C427 H439 0.931 . S
N428 C421 1.359 . S
N428 C429 1.327 . S
N428 Tb431 2.600 . S
C429 C427 1.392 . S
C429 N428 1.327 . S
C429 H436 0.930 . S
C430 C425 1.385 . S
C430 C427 1.370 . S
C430 H449 0.930 . S
Tb431 N428 2.600 . S
Tb431 N432 2.660 . S
Tb431 O465 2.362 . S
Tb431 O466 2.421 . S
Tb431 O470 2.546 . S
Tb431 O471 2.610 . S
Tb431 O473 2.320 . S
Tb431 O474 2.552 . S
Tb431 O475 2.413 . S
Tb431 C495 2.833 . S
N432 C424 1.360 . S
N432 Tb431 2.660 . S
N432 C433 1.305 . S
C433 N432 1.305 . S
C433 C435 1.407 . S
C433 H440 0.930 . S
C434 C422 1.410 . S
C434 C435 1.345 . S
C434 H442 0.930 . S
C435 C433 1.407 . S
C435 C434 1.345 . S
C435 H437 0.930 . S
H436 C429 0.930 . S
H437 C435 0.930 . S
H438 C426 0.930 . S
H439 C427 0.931 . S
H440 C433 0.930 . S
H441 C455 0.930 . S
H442 C434 0.930 . S
H443 C461 0.930 . S
H444 C452 0.930 . S
H445 C459 0.931 . S
H446 C423 0.929 . S
H447 C453 0.930 . S
H448 C486 0.930 . S
H449 C430 0.930 . S
H450 C485 0.929 . S
N451 Tb420 2.660 . S
N451 C452 1.305 . S
N451 C456 1.360 . S
C452 H444 0.930 . S
C452 N451 1.305 . S
C452 C455 1.407 . S
C453 H447 0.930 . S
C453 C454 1.410 . S
C453 C455 1.345 . S
C454 C453 1.410 . S
C454 C456 1.417 . S
C454 C486 1.432 . S
C455 H441 0.930 . S
C455 C452 1.407 . S
C455 C453 1.345 . S
C456 N451 1.360 . S
C456 C454 1.417 . S
C456 C460 1.432 . S
H457 C462 0.930 . S
N458 Tb420 2.600 . S
N458 C460 1.359 . S
N458 C461 1.327 . S
C459 H445 0.931 . S
C459 C461 1.392 . S
C459 C462 1.370 . S
C460 C456 1.432 . S
C460 N458 1.359 . S
C460 C463 1.414 . S
C461 H443 0.930 . S
C461 N458 1.327 . S
C461 C459 1.392 . S
C462 H457 0.930 . S
C462 C459 1.370 . S
C462 C463 1.385 . S
C463 C460 1.414 . S
C463 C462 1.385 . S
C463 C485 1.444 . S
O464 Tb420 2.546 . S
O464 C484 1.251 . S
O465 Tb420 2.610 . S
O465 Tb431 2.362 . S
O465 C476 1.283 . S
O466 Tb431 2.421 . S
O466 C483 1.262 . S
O467 Tb420 2.320 . S
O467 C483 1.260 . S
O468 Tb420 2.552 . S
O468 C476 1.243 . S
O469 Tb420 2.413 . S
O469 C484 1.256 . S
O470 Tb431 2.546 . S
O470 C495 1.251 . S
O471 Tb420 2.362 . S
O471 Tb431 2.610 . S
O471 C487 1.283 . S
O472 Tb420 2.421 . S
O472 C494 1.262 . S
O473 Tb431 2.320 . S
O473 C494 1.260 . S
O474 Tb431 2.552 . S
O474 C487 1.243 . S
O475 Tb431 2.413 . S
O475 C495 1.256 . S
C476 O465 1.283 . S
C476 O468 1.243 . S
C477 C479 1.382 1_556 S
C477 C481 1.393 1_556 S
C477 C484 1.500 . S
C478 C479 1.400 . S
C478 C480 1.384 . S
C479 C477 1.382 1_554 S
C479 C478 1.400 . S
C479 H496 0.930 1_554 S
C480 C478 1.384 . S
C480 C482 1.392 . S
C480 H497 0.931 . S
C481 C477 1.393 1_554 S
C481 C482 1.401 . S
C481 H498 0.930 1_554 S
C482 C480 1.392 . S
C482 C481 1.401 . S
C482 H499 0.930 . S
C483 O466 1.262 . S
C483 O467 1.260 . S
C484 Tb420 2.833 . S
C484 O464 1.251 . S
C484 O469 1.256 . S
C484 C477 1.500 . S
C485 H450 0.929 . S
C485 C463 1.444 . S
C485 C486 1.317 . S
C486 H448 0.930 . S
C486 C454 1.432 . S
C486 C485 1.317 . S
C487 O471 1.283 . S
C487 O474 1.243 . S
C488 C489 1.382 . S
C488 C492 1.393 . S
C488 C495 1.500 . S
C489 C488 1.382 . S
C489 C490 1.400 . S
C489 H500 0.930 . S
C490 C489 1.400 . S
C490 C491 1.384 . S
C491 C490 1.384 . S
C491 C493 1.392 . S
C491 H501 0.931 . S
C492 C488 1.393 . S
C492 C493 1.401 . S
C492 H502 0.930 . S
C493 C491 1.392 . S
C493 C492 1.401 . S
C493 H503 0.930 . S
C494 O472 1.262 . S
C494 O473 1.260 . S
C495 Tb431 2.833 . S
C495 O470 1.251 . S
C495 O475 1.256 . S
C495 C488 1.500 . S
H496 C479 0.930 1_556 S
H497 C480 0.931 . S
H498 C481 0.930 1_556 S
H499 C482 0.930 . S
H500 C489 0.930 . S
H501 C491 0.931 . S
H502 C492 0.930 . S
H503 C493 0.930 . S
Tb504 N535 2.660 . S
Tb504 N542 2.600 . S
Tb504 O548 2.546 . S
Tb504 O549 2.610 . S
Tb504 O551 2.320 . S
Tb504 O552 2.552 . S
Tb504 O553 2.413 . S
Tb504 O555 2.362 1_556 S
Tb504 O556 2.421 . S
Tb504 C568 2.833 . S
C505 C508 1.432 . S
C505 C509 1.414 . S
C505 N512 1.359 . S
C506 C508 1.417 . S
C506 C510 1.432 . S
C506 C518 1.410 . S
C507 C509 1.444 . S
C507 C510 1.317 . S
C507 H530 0.929 . S
C508 C505 1.432 . S
C508 C506 1.417 . S
C508 N516 1.360 . S
C509 C505 1.414 . S
C509 C507 1.444 . S
C509 C514 1.385 . S
C510 C506 1.432 . S
C510 C507 1.317 . S
C510 H522 0.930 . S
C511 C513 1.392 . S
C511 C514 1.370 . S
C511 H523 0.931 . S
N512 C505 1.359 . S
N512 C513 1.327 . S
N512 Tb515 2.600 . S
C513 C511 1.392 . S
C513 N512 1.327 . S
C513 H520 0.930 . S
C514 C509 1.385 . S
C514 C511 1.370 . S
C514 H533 0.930 . S
Tb515 N512 2.600 . S
Tb515 N516 2.660 . S
Tb515 O549 2.362 1_554 S
Tb515 O550 2.421 . S
Tb515 O554 2.546 . S
Tb515 O555 2.610 . S
Tb515 O557 2.320 . S
Tb515 O558 2.552 . S
Tb515 O559 2.413 . S
Tb515 C579 2.833 . S
N516 C508 1.360 . S
N516 Tb515 2.660 . S
N516 C517 1.305 . S
C517 N516 1.305 . S
C517 C519 1.407 . S
C517 H524 0.930 . S
C518 C506 1.410 . S
C518 C519 1.345 . S
C518 H526 0.930 . S
C519 C517 1.407 . S
C519 C518 1.345 . S
C519 H521 0.930 . S
H520 C513 0.930 . S
H521 C519 0.930 . S
H522 C510 0.930 . S
H523 C511 0.931 . S
H524 C517 0.930 . S
H525 C539 0.930 . S
H526 C518 0.930 . S
H527 C545 0.930 . S
H528 C536 0.930 . S
H529 C543 0.931 . S
H530 C507 0.929 . S
H531 C537 0.930 . S
H532 C570 0.930 . S
H533 C514 0.930 . S
H534 C569 0.929 . S
N535 Tb504 2.660 . S
N535 C536 1.305 . S
N535 C540 1.360 . S
C536 H528 0.930 . S
C536 N535 1.305 . S
C536 C539 1.407 . S
C537 H531 0.930 . S
C537 C538 1.410 . S
C537 C539 1.345 . S
C538 C537 1.410 . S
C538 C540 1.417 . S
C538 C570 1.432 . S
C539 H525 0.930 . S
C539 C536 1.407 . S
C539 C537 1.345 . S
C540 N535 1.360 . S
C540 C538 1.417 . S
C540 C544 1.432 . S
H541 C546 0.930 . S
N542 Tb504 2.600 . S
N542 C544 1.359 . S
N542 C545 1.327 . S
C543 H529 0.931 . S
C543 C545 1.392 . S
C543 C546 1.370 . S
C544 C540 1.432 . S
C544 N542 1.359 . S
C544 C547 1.414 . S
C545 H527 0.930 . S
C545 N542 1.327 . S
C545 C543 1.392 . S
C546 H541 0.930 . S
C546 C543 1.370 . S
C546 C547 1.385 . S
C547 C544 1.414 . S
C547 C546 1.385 . S
C547 C569 1.444 . S
O548 Tb504 2.546 . S
O548 C568 1.251 . S
O549 Tb504 2.610 . S
O549 Tb515 2.362 1_556 S
O549 C560 1.283 . S
O550 Tb515 2.421 . S
O550 C567 1.262 1_554 S
O551 Tb504 2.320 . S
O551 C567 1.260 . S
O552 Tb504 2.552 . S
O552 C560 1.243 . S
O553 Tb504 2.413 . S
O553 C568 1.256 . S
O554 Tb515 2.546 . S
O554 C579 1.251 . S
O555 Tb504 2.362 1_554 S
O555 Tb515 2.610 . S
O555 C571 1.283 . S
O556 Tb504 2.421 . S
O556 C578 1.262 1_556 S
O557 Tb515 2.320 . S
O557 C578 1.260 . S
O558 Tb515 2.552 . S
O558 C571 1.243 . S
O559 Tb515 2.413 . S
O559 C579 1.256 . S
C560 O549 1.283 . S
C560 O552 1.243 . S
C561 C563 1.382 . S
C561 C565 1.393 . S
C561 C568 1.500 . S
C562 C563 1.400 . S
C562 C564 1.384 . S
C563 C561 1.382 . S
C563 C562 1.400 . S
C563 H580 0.930 . S
C564 C562 1.384 . S
C564 C566 1.392 . S
C564 H581 0.931 . S
C565 C561 1.393 . S
C565 C566 1.401 . S
C565 H582 0.930 . S
C566 C564 1.392 . S
C566 C565 1.401 . S
C566 H583 0.930 . S
C567 O550 1.262 1_556 S
C567 O551 1.260 . S
C568 Tb504 2.833 . S
C568 O548 1.251 . S
C568 O553 1.256 . S
C568 C561 1.500 . S
C569 H534 0.929 . S
C569 C547 1.444 . S
C569 C570 1.317 . S
C570 H532 0.930 . S
C570 C538 1.432 . S
C570 C569 1.317 . S
C571 O555 1.283 . S
C571 O558 1.243 . S
C572 C573 1.382 . S
C572 C576 1.393 . S
C572 C579 1.500 . S
C573 C572 1.382 . S
C573 C574 1.400 . S
C573 H584 0.930 . S
C574 C573 1.400 . S
C574 C575 1.384 . S
C575 C574 1.384 . S
C575 C577 1.392 . S
C575 H585 0.931 . S
C576 C572 1.393 . S
C576 C577 1.401 . S
C576 H586 0.930 . S
C577 C575 1.392 . S
C577 C576 1.401 . S
C577 H587 0.930 . S
C578 O556 1.262 1_554 S
C578 O557 1.260 . S
C579 Tb515 2.833 . S
C579 O554 1.251 . S
C579 O559 1.256 . S
C579 C572 1.500 . S
H580 C563 0.930 . S
H581 C564 0.931 . S
H582 C565 0.930 . S
H583 C566 0.930 . S
H584 C573 0.930 . S
H585 C575 0.931 . S
H586 C576 0.930 . S
H587 C577 0.930 . S
Tb588 N619 2.659 1_655 S
Tb588 N626 2.600 1_655 S
Tb588 O632 2.546 . S
Tb588 O633 2.610 . S
Tb588 O635 2.320 1_655 S
Tb588 O636 2.552 . S
Tb588 O637 2.413 1_655 S
Tb588 O639 2.362 1_655 S
Tb588 O640 2.421 . S
Tb588 C652 2.833 . S
C589 C592 1.432 . S
C589 C593 1.414 . S
C589 N596 1.359 . S
C590 C592 1.417 . S
C590 C594 1.432 . S
C590 C602 1.410 . S
C591 C593 1.444 . S
C591 C594 1.317 . S
C591 H614 0.929 . S
C592 C589 1.432 . S
C592 C590 1.417 . S
C592 N600 1.360 . S
C593 C589 1.414 . S
C593 C591 1.444 . S
C593 C598 1.412 . S
C594 C590 1.432 . S
C594 C591 1.317 . S
C594 H606 0.930 . S
C595 C597 1.392 . S
C595 C598 1.343 1_455 S
C595 H607 0.931 . S
N596 C589 1.359 . S
N596 C597 1.327 1_655 S
N596 Tb599 2.600 1_655 S
C597 C595 1.392 . S
C597 N596 1.327 1_455 S
C597 H604 0.930 . S
C598 C593 1.412 . S
C598 C595 1.343 1_655 S
C598 H617 0.929 . S
Tb599 N596 2.600 1_455 S
Tb599 N600 2.652 1_455 S
Tb599 O633 2.359 1_455 S
Tb599 O634 2.427 . S
Tb599 O638 2.550 . S
Tb599 O639 2.612 . S
Tb599 O641 2.314 1_455 S
Tb599 O642 2.557 . S
Tb599 O643 2.412 1_455 S
Tb599 C663 2.834 . S
N600 C592 1.360 . S
N600 Tb599 2.652 1_655 S
N600 C601 1.305 . S
C601 N600 1.305 . S
C601 C603 1.407 . S
C601 H608 0.930 . S
C602 C590 1.410 . S
C602 C603 1.345 . S
C602 H610 0.930 . S
C603 C601 1.407 . S
C603 C602 1.345 . S
C603 H605 0.930 . S
H604 C597 0.930 . S
H605 C603 0.930 . S
H606 C594 0.930 . S
H607 C595 0.931 . S
H608 C601 0.930 . S
H609 C623 0.930 . S
H610 C602 0.930 . S
H611 C629 0.930 . S
H612 C620 0.930 . S
H613 C627 0.931 . S
H614 C591 0.929 . S
H615 C621 0.930 . S
H616 C654 0.930 . S
H617 C598 0.929 . S
H618 C653 0.929 . S
N619 Tb588 2.659 1_455 S
N619 C620 1.305 . S
N619 C624 1.360 . S
C620 H612 0.930 . S
C620 N619 1.305 . S
C620 C623 1.407 . S
C621 H615 0.930 . S
C621 C622 1.410 . S
C621 C623 1.345 . S
C622 C621 1.410 . S
C622 C624 1.417 . S
C622 C654 1.432 . S
C623 H609 0.930 . S
C623 C620 1.407 . S
C623 C621 1.345 . S
C624 N619 1.360 . S
C624 C622 1.417 . S
C624 C628 1.432 . S
H625 C630 0.930 . S
N626 Tb588 2.600 1_455 S
N626 C628 1.359 . S
N626 C629 1.327 1_455 S
C627 H613 0.931 . S
C627 C629 1.392 . S
C627 C630 1.370 1_655 S
C628 C624 1.432 . S
C628 N626 1.359 . S
C628 C631 1.414 . S
C629 H611 0.930 . S
C629 N626 1.327 1_655 S
C629 C627 1.392 . S
C630 H625 0.930 . S
C630 C627 1.370 1_455 S
C630 C631 1.385 . S
C631 C628 1.414 . S
C631 C630 1.385 . S
C631 C653 1.444 . S
O632 Tb588 2.546 . S
O632 C652 1.251 . S
O633 Tb588 2.610 . S
O633 Tb599 2.359 1_655 S
O633 C644 1.283 . S
O634 Tb599 2.427 . S
O634 C651 1.262 . S
O635 Tb588 2.320 1_455 S
O635 C651 1.260 . S
O636 Tb588 2.552 . S
O636 C644 1.243 . S
O637 Tb588 2.413 1_455 S
O637 C652 1.256 1_455 S
O638 Tb599 2.550 . S
O638 C663 1.251 . S
O639 Tb588 2.362 1_455 S
O639 Tb599 2.612 . S
O639 C655 1.283 . S
O640 Tb588 2.421 . S
O640 C662 1.262 . S
O641 Tb599 2.314 1_655 S
O641 C662 1.260 . S
O642 Tb599 2.557 . S
O642 C655 1.243 . S
O643 Tb599 2.412 1_655 S
O643 C663 1.256 1_655 S
C644 O633 1.283 . S
C644 O636 1.243 . S
C645 C647 1.382 . S
C645 C649 1.393 . S
C645 C652 1.500 . S
C646 C647 1.400 . S
C646 C648 1.384 . S
C647 C645 1.382 . S
C647 C646 1.400 . S
C647 H664 0.930 1_655 S
C648 C646 1.384 . S
C648 C650 1.392 . S
C648 H665 0.931 . S
C649 C645 1.393 . S
C649 C650 1.401 . S
C649 H666 0.930 . S
C650 C648 1.392 . S
C650 C649 1.401 . S
C650 H667 0.930 . S
C651 O634 1.262 . S
C651 O635 1.260 . S
C652 Tb588 2.833 . S
C652 O632 1.251 . S
C652 O637 1.256 1_655 S
C652 C645 1.500 . S
C653 H618 0.929 . S
C653 C631 1.444 . S
C653 C654 1.317 . S
C654 H616 0.930 . S
C654 C622 1.432 . S
C654 C653 1.317 . S
C655 O639 1.283 . S
C655 O642 1.243 . S
C656 C657 1.382 . S
C656 C660 1.393 . S
C656 C663 1.500 . S
C657 C656 1.382 . S
C657 C658 1.400 . S
C657 H668 0.930 1_455 S
C658 C657 1.400 . S
C658 C659 1.384 . S
C659 C658 1.384 . S
C659 C661 1.392 . S
C659 H669 0.931 . S
C660 C656 1.393 . S
C660 C661 1.401 . S
C660 H670 0.930 . S
C661 C659 1.392 . S
C661 C660 1.401 . S
C661 H671 0.930 . S
C662 O640 1.262 . S
C662 O641 1.260 . S
C663 Tb599 2.834 . S
C663 O638 1.251 . S
C663 O643 1.256 1_455 S
C663 C656 1.500 . S
H664 C647 0.930 1_455 S
H665 C648 0.931 . S
H666 C649 0.930 . S
H667 C650 0.930 . S
H668 C657 0.930 1_655 S
H669 C659 0.931 . S
H670 C660 0.930 . S
H671 C661 0.930 . S
C672 C673 1.391 . S
C672 C674 1.394 . S
C672 H688 0.931 . S
C673 C672 1.391 . S
C673 C677 1.376 . S
C674 C672 1.394 . S
C674 C675 1.369 . S
C674 C678 1.531 . S
C675 C674 1.369 . S
C675 C676 1.410 . S
C675 C683 1.503 . S
C676 C675 1.410 . S
C676 C677 1.392 . S
C676 C679 1.511 . S
C677 C673 1.376 . S
C677 C676 1.392 . S
C677 H689 0.929 . S
C678 C674 1.531 . S
C678 H690 0.960 . S
C678 H691 0.962 . S
C678 H692 0.960 . S
C679 C676 1.511 . S
C679 H693 0.961 . S
C679 H694 0.961 . S
C679 H695 0.961 . S
C680 C681 1.370 . S
C680 C682 1.363 . S
C680 H696 0.931 . S
C681 C680 1.370 . S
C681 C685 1.408 . S
C682 C680 1.363 . S
C682 C683 1.370 . S
C682 C686 1.524 . S
C683 C675 1.503 . S
C683 C682 1.370 . S
C683 C684 1.403 . S
C684 C683 1.403 . S
C684 C685 1.404 . S
C684 C687 1.539 . S
C685 C681 1.408 . S
C685 C684 1.404 . S
C685 H697 0.930 . S
C686 C682 1.524 . S
C686 H698 0.956 . S
C686 H699 0.961 . S
C686 H700 0.961 . S
C687 C684 1.539 . S
C687 H701 0.958 . S
C687 H702 0.961 . S
C687 H703 0.960 . S
H688 C672 0.931 . S
H689 C677 0.929 . S
H690 C678 0.960 . S
H691 C678 0.962 . S
H692 C678 0.960 . S
H693 C679 0.961 . S
H694 C679 0.961 . S
H695 C679 0.961 . S
H696 C680 0.931 . S
H697 C685 0.930 . S
H698 C686 0.956 . S
H699 C686 0.961 . S
H700 C686 0.961 . S
H701 C687 0.958 . S
H702 C687 0.961 . S
H703 C687 0.960 . S
C704 C705 1.391 . S
C704 C706 1.394 . S
C704 H720 0.931 . S
C705 C704 1.391 . S
C705 C709 1.376 . S
C706 C704 1.394 . S
C706 C707 1.369 . S
C706 C710 1.531 . S
C707 C706 1.369 . S
C707 C708 1.410 . S
C707 C715 1.503 . S
C708 C707 1.410 . S
C708 C709 1.392 . S
C708 C711 1.511 . S
C709 C705 1.376 . S
C709 C708 1.392 . S
C709 H721 0.929 . S
C710 C706 1.531 . S
C710 H722 0.960 . S
C710 H723 0.962 . S
C710 H724 0.960 . S
C711 C708 1.511 . S
C711 H725 0.961 . S
C711 H726 0.961 . S
C711 H727 0.961 . S
C712 C713 1.370 . S
C712 C714 1.363 . S
C712 H728 0.931 . S
C713 C712 1.370 . S
C713 C717 1.408 . S
C714 C712 1.363 . S
C714 C715 1.370 . S
C714 C718 1.524 . S
C715 C707 1.503 . S
C715 C714 1.370 . S
C715 C716 1.403 . S
C716 C715 1.403 . S
C716 C717 1.404 . S
C716 C719 1.539 . S
C717 C713 1.408 . S
C717 C716 1.404 . S
C717 H729 0.930 . S
C718 C714 1.524 . S
C718 H730 0.956 . S
C718 H731 0.961 . S
C718 H732 0.961 . S
C719 C716 1.539 . S
C719 H733 0.958 . S
C719 H734 0.961 . S
C719 H735 0.960 . S
H720 C704 0.931 . S
H721 C709 0.929 . S
H722 C710 0.960 . S
H723 C710 0.962 . S
H724 C710 0.960 . S
H725 C711 0.961 . S
H726 C711 0.961 . S
H727 C711 0.961 . S
H728 C712 0.931 . S
H729 C717 0.930 . S
H730 C718 0.956 . S
H731 C718 0.961 . S
H732 C718 0.961 . S
H733 C719 0.958 . S
H734 C719 0.961 . S
H735 C719 0.960 . S
C736 C737 1.391 . S
C736 C738 1.394 . S
C736 H752 0.931 . S
C737 C736 1.391 . S
C737 C741 1.376 . S
C738 C736 1.394 . S
C738 C739 1.369 . S
C738 C742 1.531 . S
C739 C738 1.369 . S
C739 C740 1.410 . S
C739 C747 1.503 . S
C740 C739 1.410 . S
C740 C741 1.392 . S
C740 C743 1.511 . S
C741 C737 1.376 . S
C741 C740 1.392 . S
C741 H753 0.929 . S
C742 C738 1.531 . S
C742 H754 0.960 . S
C742 H755 0.962 . S
C742 H756 0.960 . S
C743 C740 1.511 . S
C743 H757 0.961 . S
C743 H758 0.961 . S
C743 H759 0.961 . S
C744 C745 1.370 . S
C744 C746 1.363 . S
C744 H760 0.931 . S
C745 C744 1.370 . S
C745 C749 1.408 . S
C746 C744 1.363 . S
C746 C747 1.370 . S
C746 C750 1.524 . S
C747 C739 1.503 . S
C747 C746 1.370 . S
C747 C748 1.403 . S
C748 C747 1.403 . S
C748 C749 1.404 . S
C748 C751 1.539 . S
C749 C745 1.408 . S
C749 C748 1.404 . S
C749 H761 0.930 . S
C750 C746 1.524 . S
C750 H762 0.956 . S
C750 H763 0.961 . S
C750 H764 0.961 . S
C751 C748 1.539 . S
C751 H765 0.958 . S
C751 H766 0.961 . S
C751 H767 0.960 . S
H752 C736 0.931 . S
H753 C741 0.929 . S
H754 C742 0.960 . S
H755 C742 0.962 . S
H756 C742 0.960 . S
H757 C743 0.961 . S
H758 C743 0.961 . S
H759 C743 0.961 . S
H760 C744 0.931 . S
H761 C749 0.930 . S
H762 C750 0.956 . S
H763 C750 0.961 . S
H764 C750 0.961 . S
H765 C751 0.958 . S
H766 C751 0.961 . S
H767 C751 0.960 . S
C768 C769 1.391 . S
C768 C770 1.394 . S
C768 H784 0.931 . S
C769 C768 1.391 . S
C769 C773 1.376 . S
C770 C768 1.394 . S
C770 C771 1.369 . S
C770 C774 1.531 . S
C771 C770 1.369 . S
C771 C772 1.410 . S
C771 C779 1.503 . S
C772 C771 1.410 . S
C772 C773 1.392 . S
C772 C775 1.511 . S
C773 C769 1.376 . S
C773 C772 1.392 . S
C773 H785 0.929 . S
C774 C770 1.531 . S
C774 H786 0.960 . S
C774 H787 0.962 . S
C774 H788 0.960 . S
C775 C772 1.511 . S
C775 H789 0.961 . S
C775 H790 0.961 . S
C775 H791 0.961 . S
C776 C777 1.370 . S
C776 C778 1.363 . S
C776 H792 0.931 . S
C777 C776 1.370 . S
C777 C781 1.408 . S
C778 C776 1.363 . S
C778 C779 1.370 . S
C778 C782 1.524 . S
C779 C771 1.503 . S
C779 C778 1.370 . S
C779 C780 1.403 . S
C780 C779 1.403 . S
C780 C781 1.404 . S
C780 C783 1.539 . S
C781 C777 1.408 . S
C781 C780 1.404 . S
C781 H793 0.930 . S
C782 C778 1.524 . S
C782 H794 0.956 . S
C782 H795 0.961 . S
C782 H796 0.961 . S
C783 C780 1.539 . S
C783 H797 0.958 . S
C783 H798 0.961 . S
C783 H799 0.960 . S
H784 C768 0.931 . S
H785 C773 0.929 . S
H786 C774 0.960 . S
H787 C774 0.962 . S
H788 C774 0.960 . S
H789 C775 0.961 . S
H790 C775 0.961 . S
H791 C775 0.961 . S
H792 C776 0.931 . S
H793 C781 0.930 . S
H794 C782 0.956 . S
H795 C782 0.961 . S
H796 C782 0.961 . S
H797 C783 0.958 . S
H798 C783 0.961 . S
H799 C783 0.960 . S
C800 C801 1.391 . S
C800 C802 1.394 . S
C800 H816 0.931 . S
C801 C800 1.391 . S
C801 C805 1.376 . S
C802 C800 1.394 . S
C802 C803 1.369 . S
C802 C806 1.531 . S
C803 C802 1.369 . S
C803 C804 1.410 . S
C803 C811 1.503 . S
C804 C803 1.410 . S
C804 C805 1.392 . S
C804 C807 1.511 . S
C805 C801 1.376 . S
C805 C804 1.392 . S
C805 H817 0.929 . S
C806 C802 1.531 . S
C806 H818 0.960 . S
C806 H819 0.962 . S
C806 H820 0.960 . S
C807 C804 1.511 . S
C807 H821 0.961 . S
C807 H822 0.961 . S
C807 H823 0.961 . S
C808 C809 1.370 . S
C808 C810 1.363 . S
C808 H824 0.931 . S
C809 C808 1.370 . S
C809 C813 1.408 . S
C810 C808 1.363 . S
C810 C811 1.370 . S
C810 C814 1.524 . S
C811 C803 1.503 . S
C811 C810 1.370 . S
C811 C812 1.403 . S
C812 C811 1.403 . S
C812 C813 1.404 . S
C812 C815 1.539 . S
C813 C809 1.408 . S
C813 C812 1.404 . S
C813 H825 0.930 . S
C814 C810 1.524 . S
C814 H826 0.956 . S
C814 H827 0.961 . S
C814 H828 0.961 . S
C815 C812 1.539 . S
C815 H829 0.958 . S
C815 H830 0.961 . S
C815 H831 0.960 . S
H816 C800 0.931 . S
H817 C805 0.929 . S
H818 C806 0.960 . S
H819 C806 0.962 . S
H820 C806 0.960 . S
H821 C807 0.961 . S
H822 C807 0.961 . S
H823 C807 0.961 . S
H824 C808 0.931 . S
H825 C813 0.930 . S
H826 C814 0.956 . S
H827 C814 0.961 . S
H828 C814 0.961 . S
H829 C815 0.958 . S
H830 C815 0.961 . S
H831 C815 0.960 . S
C832 C833 1.391 . S
C832 C834 1.394 . S
C832 H848 0.931 . S
C833 C832 1.391 . S
C833 C837 1.376 . S
C834 C832 1.394 . S
C834 C835 1.369 . S
C834 C838 1.531 . S
C835 C834 1.369 . S
C835 C836 1.410 . S
C835 C843 1.503 . S
C836 C835 1.410 . S
C836 C837 1.392 . S
C836 C839 1.511 . S
C837 C833 1.376 . S
C837 C836 1.392 . S
C837 H849 0.929 . S
C838 C834 1.531 . S
C838 H850 0.960 . S
C838 H851 0.962 . S
C838 H852 0.960 . S
C839 C836 1.511 . S
C839 H853 0.961 . S
C839 H854 0.961 . S
C839 H855 0.961 . S
C840 C841 1.370 . S
C840 C842 1.363 . S
C840 H856 0.931 . S
C841 C840 1.370 . S
C841 C845 1.408 . S
C842 C840 1.363 . S
C842 C843 1.370 . S
C842 C846 1.524 . S
C843 C835 1.503 . S
C843 C842 1.370 . S
C843 C844 1.403 . S
C844 C843 1.403 . S
C844 C845 1.404 . S
C844 C847 1.539 . S
C845 C841 1.408 . S
C845 C844 1.404 . S
C845 H857 0.930 . S
C846 C842 1.524 . S
C846 H858 0.956 . S
C846 H859 0.961 . S
C846 H860 0.961 . S
C847 C844 1.539 . S
C847 H861 0.958 . S
C847 H862 0.961 . S
C847 H863 0.960 . S
H848 C832 0.931 . S
H849 C837 0.929 . S
H850 C838 0.960 . S
H851 C838 0.962 . S
H852 C838 0.960 . S
H853 C839 0.961 . S
H854 C839 0.961 . S
H855 C839 0.961 . S
H856 C840 0.931 . S
H857 C845 0.930 . S
H858 C846 0.956 . S
H859 C846 0.961 . S
H860 C846 0.961 . S
H861 C847 0.958 . S
H862 C847 0.961 . S
H863 C847 0.960 . S
C864 C865 1.391 . S
C864 C866 1.394 . S
C864 H880 0.931 . S
C865 C864 1.391 . S
C865 C869 1.376 . S
C866 C864 1.394 . S
C866 C867 1.369 . S
C866 C870 1.531 . S
C867 C866 1.369 . S
C867 C868 1.410 . S
C867 C875 1.503 . S
C868 C867 1.410 . S
C868 C869 1.392 . S
C868 C871 1.511 . S
C869 C865 1.376 . S
C869 C868 1.392 . S
C869 H881 0.929 . S
C870 C866 1.531 . S
C870 H882 0.960 . S
C870 H883 0.962 . S
C870 H884 0.960 . S
C871 C868 1.511 . S
C871 H885 0.961 . S
C871 H886 0.961 . S
C871 H887 0.961 . S
C872 C873 1.370 . S
C872 C874 1.363 . S
C872 H888 0.931 . S
C873 C872 1.370 . S
C873 C877 1.408 . S
C874 C872 1.363 . S
C874 C875 1.370 . S
C874 C878 1.524 . S
C875 C867 1.503 . S
C875 C874 1.370 . S
C875 C876 1.403 . S
C876 C875 1.403 . S
C876 C877 1.404 . S
C876 C879 1.539 . S
C877 C873 1.408 . S
C877 C876 1.404 . S
C877 H889 0.930 . S
C878 C874 1.524 . S
C878 H890 0.956 . S
C878 H891 0.961 . S
C878 H892 0.961 . S
C879 C876 1.539 . S
C879 H893 0.958 . S
C879 H894 0.961 . S
C879 H895 0.960 . S
H880 C864 0.931 . S
H881 C869 0.929 . S
H882 C870 0.960 . S
H883 C870 0.962 . S
H884 C870 0.960 . S
H885 C871 0.961 . S
H886 C871 0.961 . S
H887 C871 0.961 . S
H888 C872 0.931 . S
H889 C877 0.930 . S
H890 C878 0.956 . S
H891 C878 0.961 . S
H892 C878 0.961 . S
H893 C879 0.958 . S
H894 C879 0.961 . S
H895 C879 0.960 . S
C896 C897 1.391 . S
C896 C898 1.394 . S
C896 H912 0.931 . S
C897 C896 1.391 . S
C897 C901 1.376 . S
C898 C896 1.394 . S
C898 C899 1.369 . S
C898 C902 1.531 . S
C899 C898 1.369 . S
C899 C900 1.410 . S
C899 C907 1.503 . S
C900 C899 1.410 . S
C900 C901 1.392 . S
C900 C903 1.511 . S
C901 C897 1.376 . S
C901 C900 1.392 . S
C901 H913 0.929 . S
C902 C898 1.531 . S
C902 H914 0.960 . S
C902 H915 0.962 . S
C902 H916 0.960 . S
C903 C900 1.511 . S
C903 H917 0.961 . S
C903 H918 0.961 . S
C903 H919 0.961 . S
C904 C905 1.370 . S
C904 C906 1.363 . S
C904 H920 0.931 . S
C905 C904 1.370 . S
C905 C909 1.408 . S
C906 C904 1.363 . S
C906 C907 1.370 . S
C906 C910 1.524 . S
C907 C899 1.503 . S
C907 C906 1.370 . S
C907 C908 1.403 . S
C908 C907 1.403 . S
C908 C909 1.404 . S
C908 C911 1.539 . S
C909 C905 1.408 . S
C909 C908 1.404 . S
C909 H921 0.930 . S
C910 C906 1.524 . S
C910 H922 0.956 . S
C910 H923 0.961 . S
C910 H924 0.961 . S
C911 C908 1.539 . S
C911 H925 0.958 . S
C911 H926 0.961 . S
C911 H927 0.960 . S
H912 C896 0.931 . S
H913 C901 0.929 . S
H914 C902 0.960 . S
H915 C902 0.962 . S
H916 C902 0.960 . S
H917 C903 0.961 . S
H918 C903 0.961 . S
H919 C903 0.961 . S
H920 C904 0.931 . S
H921 C909 0.930 . S
H922 C910 0.956 . S
H923 C910 0.961 . S
H924 C910 0.961 . S
H925 C911 0.958 . S
H926 C911 0.961 . S
H927 C911 0.960 . S
C928 C929 1.391 . S
C928 C930 1.394 . S
C928 H944 0.931 . S
C929 C928 1.391 . S
C929 C933 1.376 . S
C930 C928 1.394 . S
C930 C931 1.369 . S
C930 C934 1.531 . S
C931 C930 1.369 . S
C931 C932 1.410 . S
C931 C939 1.503 . S
C932 C931 1.410 . S
C932 C933 1.392 . S
C932 C935 1.511 . S
C933 C929 1.376 . S
C933 C932 1.392 . S
C933 H945 0.929 . S
C934 C930 1.531 . S
C934 H946 0.960 . S
C934 H947 0.962 . S
C934 H948 0.960 . S
C935 C932 1.511 . S
C935 H949 0.961 . S
C935 H950 0.961 . S
C935 H951 0.961 . S
C936 C937 1.370 . S
C936 C938 1.363 . S
C936 H952 0.931 . S
C937 C936 1.370 . S
C937 C941 1.408 . S
C938 C936 1.363 . S
C938 C939 1.370 . S
C938 C942 1.524 . S
C939 C931 1.503 . S
C939 C938 1.370 . S
C939 C940 1.403 . S
C940 C939 1.403 . S
C940 C941 1.404 . S
C940 C943 1.539 . S
C941 C937 1.408 . S
C941 C940 1.404 . S
C941 H953 0.930 . S
C942 C938 1.524 . S
C942 H954 0.956 . S
C942 H955 0.961 . S
C942 H956 0.961 . S
C943 C940 1.539 . S
C943 H957 0.958 . S
C943 H958 0.961 . S
C943 H959 0.960 . S
H944 C928 0.931 . S
H945 C933 0.929 . S
H946 C934 0.960 . S
H947 C934 0.962 . S
H948 C934 0.960 . S
H949 C935 0.961 . S
H950 C935 0.961 . S
H951 C935 0.961 . S
H952 C936 0.931 . S
H953 C941 0.930 . S
H954 C942 0.956 . S
H955 C942 0.961 . S
H956 C942 0.961 . S
H957 C943 0.958 . S
H958 C943 0.961 . S
H959 C943 0.960 . S
C960 C961 1.391 . S
C960 C962 1.394 . S
C960 H976 0.931 . S
C961 C960 1.391 . S
C961 C965 1.376 . S
C962 C960 1.394 . S
C962 C963 1.369 . S
C962 C966 1.531 . S
C963 C962 1.369 . S
C963 C964 1.410 . S
C963 C971 1.503 . S
C964 C963 1.410 . S
C964 C965 1.392 . S
C964 C967 1.511 . S
C965 C961 1.376 . S
C965 C964 1.392 . S
C965 H977 0.929 . S
C966 C962 1.531 . S
C966 H978 0.960 . S
C966 H979 0.962 . S
C966 H980 0.960 . S
C967 C964 1.511 . S
C967 H981 0.961 . S
C967 H982 0.961 . S
C967 H983 0.961 . S
C968 C969 1.370 . S
C968 C970 1.363 . S
C968 H984 0.931 . S
C969 C968 1.370 . S
C969 C973 1.408 . S
C970 C968 1.363 . S
C970 C971 1.370 . S
C970 C974 1.524 . S
C971 C963 1.503 . S
C971 C970 1.370 . S
C971 C972 1.403 . S
C972 C971 1.403 . S
C972 C973 1.404 . S
C972 C975 1.539 . S
C973 C969 1.408 . S
C973 C972 1.404 . S
C973 H985 0.930 . S
C974 C970 1.524 . S
C974 H986 0.956 . S
C974 H987 0.961 . S
C974 H988 0.961 . S
C975 C972 1.539 . S
C975 H989 0.958 . S
C975 H990 0.961 . S
C975 H991 0.960 . S
H976 C960 0.931 . S
H977 C965 0.929 . S
H978 C966 0.960 . S
H979 C966 0.962 . S
H980 C966 0.960 . S
H981 C967 0.961 . S
H982 C967 0.961 . S
H983 C967 0.961 . S
H984 C968 0.931 . S
H985 C973 0.930 . S
H986 C974 0.956 . S
H987 C974 0.961 . S
H988 C974 0.961 . S
H989 C975 0.958 . S
H990 C975 0.961 . S
H991 C975 0.960 . S
C992 C993 1.391 . S
C992 C994 1.394 . S
C992 H1008 0.931 . S
C993 C992 1.391 . S
C993 C997 1.376 . S
C994 C992 1.394 . S
C994 C995 1.369 . S
C994 C998 1.531 . S
C995 C994 1.369 . S
C995 C996 1.410 . S
C995 C1003 1.503 . S
C996 C995 1.410 . S
C996 C997 1.392 . S
C996 C999 1.511 . S
C997 C993 1.376 . S
C997 C996 1.392 . S
C997 H1009 0.929 . S
C998 C994 1.531 . S
C998 H1010 0.960 . S
C998 H1011 0.962 . S
C998 H1012 0.960 . S
C999 C996 1.511 . S
C999 H1013 0.961 . S
C999 H1014 0.961 . S
C999 H1015 0.961 . S
C1000 C1001 1.370 . S
C1000 C1002 1.363 . S
C1000 H1016 0.931 . S
C1001 C1000 1.370 . S
C1001 C1005 1.408 . S
C1002 C1000 1.363 . S
C1002 C1003 1.370 . S
C1002 C1006 1.524 . S
C1003 C995 1.503 . S
C1003 C1002 1.370 . S
C1003 C1004 1.403 . S
C1004 C1003 1.403 . S
C1004 C1005 1.404 . S
C1004 C1007 1.539 . S
C1005 C1001 1.408 . S
C1005 C1004 1.404 . S
C1005 H1017 0.930 . S
C1006 C1002 1.524 . S
C1006 H1018 0.956 . S
C1006 H1019 0.961 . S
C1006 H1020 0.961 . S
C1007 C1004 1.539 . S
C1007 H1021 0.958 . S
C1007 H1022 0.961 . S
C1007 H1023 0.960 . S
H1008 C992 0.931 . S
H1009 C997 0.929 . S
H1010 C998 0.960 . S
H1011 C998 0.962 . S
H1012 C998 0.960 . S
H1013 C999 0.961 . S
H1014 C999 0.961 . S
H1015 C999 0.961 . S
H1016 C1000 0.931 . S
H1017 C1005 0.930 . S
H1018 C1006 0.956 . S
H1019 C1006 0.961 . S
H1020 C1006 0.961 . S
H1021 C1007 0.958 . S
H1022 C1007 0.961 . S
H1023 C1007 0.960 . S
C1024 C1025 1.391 . S
C1024 C1026 1.394 . S
C1024 H1040 0.931 . S
C1025 C1024 1.391 . S
C1025 C1029 1.376 . S
C1026 C1024 1.394 . S
C1026 C1027 1.369 . S
C1026 C1030 1.531 . S
C1027 C1026 1.369 . S
C1027 C1028 1.410 . S
C1027 C1035 1.503 . S
C1028 C1027 1.410 . S
C1028 C1029 1.392 . S
C1028 C1031 1.511 . S
C1029 C1025 1.376 . S
C1029 C1028 1.392 . S
C1029 H1041 0.929 . S
C1030 C1026 1.531 . S
C1030 H1042 0.960 . S
C1030 H1043 0.962 . S
C1030 H1044 0.960 . S
C1031 C1028 1.511 . S
C1031 H1045 0.961 . S
C1031 H1046 0.961 . S
C1031 H1047 0.961 . S
C1032 C1033 1.370 . S
C1032 C1034 1.363 . S
C1032 H1048 0.931 . S
C1033 C1032 1.370 . S
C1033 C1037 1.408 . S
C1034 C1032 1.363 . S
C1034 C1035 1.370 . S
C1034 C1038 1.524 . S
C1035 C1027 1.503 . S
C1035 C1034 1.370 . S
C1035 C1036 1.403 . S
C1036 C1035 1.403 . S
C1036 C1037 1.404 . S
C1036 C1039 1.539 . S
C1037 C1033 1.408 . S
C1037 C1036 1.404 . S
C1037 H1049 0.930 . S
C1038 C1034 1.524 . S
C1038 H1050 0.956 . S
C1038 H1051 0.961 . S
C1038 H1052 0.961 . S
C1039 C1036 1.539 . S
C1039 H1053 0.958 . S
C1039 H1054 0.961 . S
C1039 H1055 0.960 . S
H1040 C1024 0.931 . S
H1041 C1029 0.929 . S
H1042 C1030 0.960 . S
H1043 C1030 0.962 . S
H1044 C1030 0.960 . S
H1045 C1031 0.961 . S
H1046 C1031 0.961 . S
H1047 C1031 0.961 . S
H1048 C1032 0.931 . S
H1049 C1037 0.930 . S
H1050 C1038 0.956 . S
H1051 C1038 0.961 . S
H1052 C1038 0.961 . S
H1053 C1039 0.958 . S
H1054 C1039 0.961 . S
H1055 C1039 0.960 . S
C1056 C1057 1.391 . S
C1056 C1058 1.394 . S
C1056 H1072 0.931 . S
C1057 C1056 1.391 . S
C1057 C1061 1.376 . S
C1058 C1056 1.394 . S
C1058 C1059 1.369 . S
C1058 C1062 1.531 . S
C1059 C1058 1.369 . S
C1059 C1060 1.410 . S
C1059 C1067 1.503 . S
C1060 C1059 1.410 . S
C1060 C1061 1.392 . S
C1060 C1063 1.511 . S
C1061 C1057 1.376 . S
C1061 C1060 1.392 . S
C1061 H1073 0.929 . S
C1062 C1058 1.531 . S
C1062 H1074 0.960 . S
C1062 H1075 0.962 . S
C1062 H1076 0.960 . S
C1063 C1060 1.511 . S
C1063 H1077 0.961 . S
C1063 H1078 0.961 . S
C1063 H1079 0.961 . S
C1064 C1065 1.370 . S
C1064 C1066 1.363 . S
C1064 H1080 0.931 . S
C1065 C1064 1.370 . S
C1065 C1069 1.408 . S
C1066 C1064 1.363 . S
C1066 C1067 1.370 . S
C1066 C1070 1.524 . S
C1067 C1059 1.503 . S
C1067 C1066 1.370 . S
C1067 C1068 1.403 . S
C1068 C1067 1.403 . S
C1068 C1069 1.404 . S
C1068 C1071 1.539 . S
C1069 C1065 1.408 . S
C1069 C1068 1.404 . S
C1069 H1081 0.930 . S
C1070 C1066 1.524 . S
C1070 H1082 0.956 . S
C1070 H1083 0.961 . S
C1070 H1084 0.961 . S
C1071 C1068 1.539 . S
C1071 H1085 0.958 . S
C1071 H1086 0.961 . S
C1071 H1087 0.960 . S
H1072 C1056 0.931 . S
H1073 C1061 0.929 . S
H1074 C1062 0.960 . S
H1075 C1062 0.962 . S
H1076 C1062 0.960 . S
H1077 C1063 0.961 . S
H1078 C1063 0.961 . S
H1079 C1063 0.961 . S
H1080 C1064 0.931 . S
H1081 C1069 0.930 . S
H1082 C1070 0.956 . S
H1083 C1070 0.961 . S
H1084 C1070 0.961 . S
H1085 C1071 0.958 . S
H1086 C1071 0.961 . S
H1087 C1071 0.960 . S
C1088 C1089 1.391 . S
C1088 C1090 1.394 . S
C1088 H1104 0.931 . S
C1089 C1088 1.391 . S
C1089 C1093 1.376 . S
C1090 C1088 1.394 . S
C1090 C1091 1.369 . S
C1090 C1094 1.531 . S
C1091 C1090 1.369 . S
C1091 C1092 1.410 . S
C1091 C1099 1.503 . S
C1092 C1091 1.410 . S
C1092 C1093 1.392 . S
C1092 C1095 1.511 . S
C1093 C1089 1.376 . S
C1093 C1092 1.392 . S
C1093 H1105 0.929 . S
C1094 C1090 1.531 . S
C1094 H1106 0.960 . S
C1094 H1107 0.962 . S
C1094 H1108 0.960 . S
C1095 C1092 1.511 . S
C1095 H1109 0.961 . S
C1095 H1110 0.961 . S
C1095 H1111 0.961 . S
C1096 C1097 1.370 . S
C1096 C1098 1.363 . S
C1096 H1112 0.931 . S
C1097 C1096 1.370 . S
C1097 C1101 1.408 . S
C1098 C1096 1.363 . S
C1098 C1099 1.370 . S
C1098 C1102 1.524 . S
C1099 C1091 1.503 . S
C1099 C1098 1.370 . S
C1099 C1100 1.403 . S
C1100 C1099 1.403 . S
C1100 C1101 1.404 . S
C1100 C1103 1.539 . S
C1101 C1097 1.408 . S
C1101 C1100 1.404 . S
C1101 H1113 0.930 . S
C1102 C1098 1.524 . S
C1102 H1114 0.956 . S
C1102 H1115 0.961 . S
C1102 H1116 0.961 . S
C1103 C1100 1.539 . S
C1103 H1117 0.958 . S
C1103 H1118 0.961 . S
C1103 H1119 0.960 . S
H1104 C1088 0.931 . S
H1105 C1093 0.929 . S
H1106 C1094 0.960 . S
H1107 C1094 0.962 . S
H1108 C1094 0.960 . S
H1109 C1095 0.961 . S
H1110 C1095 0.961 . S
H1111 C1095 0.961 . S
H1112 C1096 0.931 . S
H1113 C1101 0.930 . S
H1114 C1102 0.956 . S
H1115 C1102 0.961 . S
H1116 C1102 0.961 . S
H1117 C1103 0.958 . S
H1118 C1103 0.961 . S
H1119 C1103 0.960 . S
C1120 C1121 1.391 . S
C1120 C1122 1.394 . S
C1120 H1136 0.931 . S
C1121 C1120 1.391 . S
C1121 C1125 1.376 . S
C1122 C1120 1.394 . S
C1122 C1123 1.369 . S
C1122 C1126 1.531 . S
C1123 C1122 1.369 . S
C1123 C1124 1.410 . S
C1123 C1131 1.503 . S
C1124 C1123 1.410 . S
C1124 C1125 1.392 . S
C1124 C1127 1.511 . S
C1125 C1121 1.376 . S
C1125 C1124 1.392 . S
C1125 H1137 0.929 . S
C1126 C1122 1.531 . S
C1126 H1138 0.960 . S
C1126 H1139 0.962 . S
C1126 H1140 0.960 . S
C1127 C1124 1.511 . S
C1127 H1141 0.961 . S
C1127 H1142 0.961 . S
C1127 H1143 0.961 . S
C1128 C1129 1.370 . S
C1128 C1130 1.363 . S
C1128 H1144 0.931 . S
C1129 C1128 1.370 . S
C1129 C1133 1.408 . S
C1130 C1128 1.363 . S
C1130 C1131 1.370 . S
C1130 C1134 1.524 . S
C1131 C1123 1.503 . S
C1131 C1130 1.370 . S
C1131 C1132 1.403 . S
C1132 C1131 1.403 . S
C1132 C1133 1.404 . S
C1132 C1135 1.539 . S
C1133 C1129 1.408 . S
C1133 C1132 1.404 . S
C1133 H1145 0.930 . S
C1134 C1130 1.524 . S
C1134 H1146 0.956 . S
C1134 H1147 0.961 . S
C1134 H1148 0.961 . S
C1135 C1132 1.539 . S
C1135 H1149 0.958 . S
C1135 H1150 0.961 . S
C1135 H1151 0.960 . S
H1136 C1120 0.931 . S
H1137 C1125 0.929 . S
H1138 C1126 0.960 . S
H1139 C1126 0.962 . S
H1140 C1126 0.960 . S
H1141 C1127 0.961 . S
H1142 C1127 0.961 . S
H1143 C1127 0.961 . S
H1144 C1128 0.931 . S
H1145 C1133 0.930 . S
H1146 C1134 0.956 . S
H1147 C1134 0.961 . S
H1148 C1134 0.961 . S
H1149 C1135 0.958 . S
H1150 C1135 0.961 . S
H1151 C1135 0.960 . S
C1152 C1153 1.391 . S
C1152 C1154 1.394 . S
C1152 H1168 0.931 . S
C1153 C1152 1.391 . S
C1153 C1157 1.376 . S
C1154 C1152 1.394 . S
C1154 C1155 1.369 . S
C1154 C1158 1.531 . S
C1155 C1154 1.369 . S
C1155 C1156 1.410 . S
C1155 C1163 1.503 . S
C1156 C1155 1.410 . S
C1156 C1157 1.392 . S
C1156 C1159 1.511 . S
C1157 C1153 1.376 . S
C1157 C1156 1.392 . S
C1157 H1169 0.929 . S
C1158 C1154 1.531 . S
C1158 H1170 0.960 . S
C1158 H1171 0.962 . S
C1158 H1172 0.960 . S
C1159 C1156 1.511 . S
C1159 H1173 0.961 . S
C1159 H1174 0.961 . S
C1159 H1175 0.961 . S
C1160 C1161 1.370 . S
C1160 C1162 1.363 . S
C1160 H1176 0.931 . S
C1161 C1160 1.370 . S
C1161 C1165 1.408 . S
C1162 C1160 1.363 . S
C1162 C1163 1.370 . S
C1162 C1166 1.524 . S
C1163 C1155 1.503 . S
C1163 C1162 1.370 . S
C1163 C1164 1.403 . S
C1164 C1163 1.403 . S
C1164 C1165 1.404 . S
C1164 C1167 1.539 . S
C1165 C1161 1.408 . S
C1165 C1164 1.404 . S
C1165 H1177 0.930 . S
C1166 C1162 1.524 . S
C1166 H1178 0.956 . S
C1166 H1179 0.961 . S
C1166 H1180 0.961 . S
C1167 C1164 1.539 . S
C1167 H1181 0.958 . S
C1167 H1182 0.961 . S
C1167 H1183 0.960 . S
H1168 C1152 0.931 . S
H1169 C1157 0.929 . S
H1170 C1158 0.960 . S
H1171 C1158 0.962 . S
H1172 C1158 0.960 . S
H1173 C1159 0.961 . S
H1174 C1159 0.961 . S
H1175 C1159 0.961 . S
H1176 C1160 0.931 . S
H1177 C1165 0.930 . S
H1178 C1166 0.956 . S
H1179 C1166 0.961 . S
H1180 C1166 0.961 . S
H1181 C1167 0.958 . S
H1182 C1167 0.961 . S
H1183 C1167 0.960 . S
C1184 C1185 1.391 . S
C1184 C1186 1.394 . S
C1184 H1200 0.931 . S
C1185 C1184 1.391 . S
C1185 C1189 1.376 1_655 S
C1186 C1184 1.394 . S
C1186 C1187 1.369 . S
C1186 C1190 1.531 . S
C1187 C1186 1.369 . S
C1187 C1188 1.410 1_655 S
C1187 C1195 1.503 1_656 S
C1188 C1187 1.410 1_455 S
C1188 C1189 1.392 . S
C1188 C1191 1.511 . S
C1189 C1185 1.376 1_455 S
C1189 C1188 1.392 . S
C1189 H1201 0.929 . S
C1190 C1186 1.531 . S
C1190 H1202 0.960 1_556 S
C1190 H1203 0.962 1_565 S
C1190 H1204 0.960 . S
C1191 C1188 1.511 . S
C1191 H1205 0.952 1_565 S
C1191 H1206 0.961 1_566 S
C1191 H1207 0.961 . S
C1192 C1193 1.396 . S
C1192 C1194 1.363 . S
C1192 H1208 0.931 . S
C1193 C1192 1.396 . S
C1193 C1197 1.380 1_545 S
C1194 C1192 1.363 . S
C1194 C1195 1.371 1_545 S
C1194 C1198 1.524 . S
C1195 C1187 1.503 1_454 S
C1195 C1194 1.371 1_565 S
C1195 C1196 1.403 . S
C1196 C1195 1.403 . S
C1196 C1197 1.406 . S
C1196 C1199 1.541 . S
C1197 C1193 1.380 1_565 S
C1197 C1196 1.406 . S
C1197 H1209 0.930 . S
C1198 C1194 1.524 . S
C1198 H1210 0.956 1_455 S
C1198 H1211 0.961 1_554 S
C1198 H1212 0.961 . S
C1199 C1196 1.541 . S
C1199 H1213 0.958 1_455 S
C1199 H1214 0.961 . S
C1199 H1215 0.960 . S
H1200 C1184 0.931 . S
H1201 C1189 0.929 . S
H1202 C1190 0.960 1_554 S
H1203 C1190 0.962 1_545 S
H1204 C1190 0.960 . S
H1205 C1191 0.952 1_545 S
H1206 C1191 0.961 1_544 S
H1207 C1191 0.961 . S
H1208 C1192 0.931 . S
H1209 C1197 0.930 . S
H1210 C1198 0.956 1_655 S
H1211 C1198 0.961 1_556 S
H1212 C1198 0.961 . S
H1213 C1199 0.958 1_655 S
H1214 C1199 0.961 . S
H1215 C1199 0.960 . S
C1216 C1217 1.391 . S
C1216 C1218 1.394 . S
C1216 H1232 0.931 . S
C1217 C1216 1.391 . S
C1217 C1221 1.376 . S
C1218 C1216 1.394 . S
C1218 C1219 1.369 . S
C1218 C1222 1.531 . S
C1219 C1218 1.369 . S
C1219 C1220 1.410 . S
C1219 C1227 1.503 . S
C1220 C1219 1.410 . S
C1220 C1221 1.392 . S
C1220 C1223 1.511 . S
C1221 C1217 1.376 . S
C1221 C1220 1.392 . S
C1221 H1233 0.929 . S
C1222 C1218 1.531 . S
C1222 H1234 0.960 . S
C1222 H1235 0.962 . S
C1222 H1236 0.960 . S
C1223 C1220 1.511 . S
C1223 H1237 0.961 . S
C1223 H1238 0.961 . S
C1223 H1239 0.961 . S
C1224 C1225 1.370 . S
C1224 C1226 1.363 . S
C1224 H1240 0.931 . S
C1225 C1224 1.370 . S
C1225 C1229 1.408 . S
C1226 C1224 1.363 . S
C1226 C1227 1.370 . S
C1226 C1230 1.524 . S
C1227 C1219 1.503 . S
C1227 C1226 1.370 . S
C1227 C1228 1.403 . S
C1228 C1227 1.403 . S
C1228 C1229 1.404 . S
C1228 C1231 1.539 . S
C1229 C1225 1.408 . S
C1229 C1228 1.404 . S
C1229 H1241 0.930 . S
C1230 C1226 1.524 . S
C1230 H1242 0.956 . S
C1230 H1243 0.961 . S
C1230 H1244 0.961 . S
C1231 C1228 1.539 . S
C1231 H1245 0.958 . S
C1231 H1246 0.961 . S
C1231 H1247 0.960 . S
H1232 C1216 0.931 . S
H1233 C1221 0.929 . S
H1234 C1222 0.960 . S
H1235 C1222 0.962 . S
H1236 C1222 0.960 . S
H1237 C1223 0.961 . S
H1238 C1223 0.961 . S
H1239 C1223 0.961 . S
H1240 C1224 0.931 . S
H1241 C1229 0.930 . S
H1242 C1230 0.956 . S
H1243 C1230 0.961 . S
H1244 C1230 0.961 . S
H1245 C1231 0.958 . S
H1246 C1231 0.961 . S
H1247 C1231 0.960 . S
C1248 C1249 1.391 1_545 S
C1248 C1250 1.394 . S
C1248 H1264 0.931 . S
C1249 C1248 1.391 1_565 S
C1249 C1253 1.376 . S
C1250 C1248 1.394 . S
C1250 C1251 1.369 . S
C1250 C1254 1.531 . S
C1251 C1250 1.369 . S
C1251 C1252 1.410 1_545 S
C1251 C1259 1.503 . S
C1252 C1251 1.410 1_565 S
C1252 C1253 1.392 . S
C1252 C1255 1.511 . S
C1253 C1249 1.376 . S
C1253 C1252 1.392 . S
C1253 H1265 0.929 . S
C1254 C1250 1.531 . S
C1254 H1266 0.960 . S
C1254 H1267 0.962 . S
C1254 H1268 0.960 . S
C1255 C1252 1.511 . S
C1255 H1269 0.961 . S
C1255 H1270 0.961 . S
C1255 H1271 0.961 . S
C1256 C1257 1.370 1_565 S
C1256 C1258 1.363 . S
C1256 H1272 0.931 . S
C1257 C1256 1.370 1_545 S
C1257 C1261 1.408 . S
C1258 C1256 1.363 . S
C1258 C1259 1.370 1_565 S
C1258 C1262 1.524 . S
C1259 C1251 1.503 . S
C1259 C1258 1.370 1_545 S
C1259 C1260 1.403 . S
C1260 C1259 1.403 . S
C1260 C1261 1.404 . S
C1260 C1263 1.539 . S
C1261 C1257 1.408 . S
C1261 C1260 1.404 . S
C1261 H1273 0.930 . S
C1262 C1258 1.524 . S
C1262 H1274 0.956 . S
C1262 H1275 0.961 . S
C1262 H1276 0.961 . S
C1263 C1260 1.539 . S
C1263 H1277 0.958 . S
C1263 H1278 0.961 . S
C1263 H1279 0.960 . S
H1264 C1248 0.931 . S
H1265 C1253 0.929 . S
H1266 C1254 0.960 . S
H1267 C1254 0.962 . S
H1268 C1254 0.960 . S
H1269 C1255 0.961 . S
H1270 C1255 0.961 . S
H1271 C1255 0.961 . S
H1272 C1256 0.931 . S
H1273 C1261 0.930 . S
H1274 C1262 0.956 . S
H1275 C1262 0.961 . S
H1276 C1262 0.961 . S
H1277 C1263 0.958 . S
H1278 C1263 0.961 . S
H1279 C1263 0.960 . S
C1280 C1281 1.391 . S
C1280 C1282 1.394 . S
C1280 H1296 0.931 . S
C1281 C1280 1.391 . S
C1281 C1285 1.376 . S
C1282 C1280 1.394 . S
C1282 C1283 1.369 . S
C1282 C1286 1.531 . S
C1283 C1282 1.369 . S
C1283 C1284 1.410 . S
C1283 C1291 1.503 . S
C1284 C1283 1.410 . S
C1284 C1285 1.392 . S
C1284 C1287 1.511 . S
C1285 C1281 1.376 . S
C1285 C1284 1.392 . S
C1285 H1297 0.929 . S
C1286 C1282 1.531 . S
C1286 H1298 0.960 . S
C1286 H1299 0.962 . S
C1286 H1300 0.960 . S
C1287 C1284 1.511 . S
C1287 H1301 0.961 . S
C1287 H1302 0.961 . S
C1287 H1303 0.961 . S
C1288 C1289 1.370 . S
C1288 C1290 1.363 . S
C1288 H1304 0.931 . S
C1289 C1288 1.370 . S
C1289 C1293 1.408 . S
C1290 C1288 1.363 . S
C1290 C1291 1.370 . S
C1290 C1294 1.524 . S
C1291 C1283 1.503 . S
C1291 C1290 1.370 . S
C1291 C1292 1.403 . S
C1292 C1291 1.403 . S
C1292 C1293 1.404 . S
C1292 C1295 1.539 . S
C1293 C1289 1.408 . S
C1293 C1292 1.404 . S
C1293 H1305 0.930 . S
C1294 C1290 1.524 . S
C1294 H1306 0.956 . S
C1294 H1307 0.961 . S
C1294 H1308 0.961 . S
C1295 C1292 1.539 . S
C1295 H1309 0.958 . S
C1295 H1310 0.961 . S
C1295 H1311 0.960 . S
H1296 C1280 0.931 . S
H1297 C1285 0.929 . S
H1298 C1286 0.960 . S
H1299 C1286 0.962 . S
H1300 C1286 0.960 . S
H1301 C1287 0.961 . S
H1302 C1287 0.961 . S
H1303 C1287 0.961 . S
H1304 C1288 0.931 . S
H1305 C1293 0.930 . S
H1306 C1294 0.956 . S
H1307 C1294 0.961 . S
H1308 C1294 0.961 . S
H1309 C1295 0.958 . S
H1310 C1295 0.961 . S
H1311 C1295 0.960 . S
C1312 C1313 1.391 . S
C1312 C1314 1.394 . S
C1312 H1328 0.931 . S
C1313 C1312 1.391 . S
C1313 C1317 1.376 . S
C1314 C1312 1.394 . S
C1314 C1315 1.369 . S
C1314 C1318 1.531 . S
C1315 C1314 1.369 . S
C1315 C1316 1.410 . S
C1315 C1323 1.503 . S
C1316 C1315 1.410 . S
C1316 C1317 1.392 . S
C1316 C1319 1.511 . S
C1317 C1313 1.376 . S
C1317 C1316 1.392 . S
C1317 H1329 0.929 . S
C1318 C1314 1.531 . S
C1318 H1330 0.960 . S
C1318 H1331 0.962 . S
C1318 H1332 0.960 . S
C1319 C1316 1.511 . S
C1319 H1333 0.961 . S
C1319 H1334 0.961 . S
C1319 H1335 0.961 . S
C1320 C1321 1.370 . S
C1320 C1322 1.363 . S
C1320 H1336 0.931 . S
C1321 C1320 1.370 . S
C1321 C1325 1.408 . S
C1322 C1320 1.363 . S
C1322 C1323 1.370 . S
C1322 C1326 1.524 . S
C1323 C1315 1.503 . S
C1323 C1322 1.370 . S
C1323 C1324 1.403 . S
C1324 C1323 1.403 . S
C1324 C1325 1.404 . S
C1324 C1327 1.539 . S
C1325 C1321 1.408 . S
C1325 C1324 1.404 . S
C1325 H1337 0.930 . S
C1326 C1322 1.524 . S
C1326 H1338 0.956 . S
C1326 H1339 0.961 . S
C1326 H1340 0.961 . S
C1327 C1324 1.539 . S
C1327 H1341 0.958 . S
C1327 H1342 0.961 . S
C1327 H1343 0.960 . S
H1328 C1312 0.931 . S
H1329 C1317 0.929 . S
H1330 C1318 0.960 . S
H1331 C1318 0.962 . S
H1332 C1318 0.960 . S
H1333 C1319 0.961 . S
H1334 C1319 0.961 . S
H1335 C1319 0.961 . S
H1336 C1320 0.931 . S
H1337 C1325 0.930 . S
H1338 C1326 0.956 . S
H1339 C1326 0.961 . S
H1340 C1326 0.961 . S
H1341 C1327 0.958 . S
H1342 C1327 0.961 . S
H1343 C1327 0.960 . S
C1344 C1345 1.391 . S
C1344 C1346 1.394 . S
C1344 H1360 0.931 . S
C1345 C1344 1.391 . S
C1345 C1349 1.376 . S
C1346 C1344 1.394 . S
C1346 C1347 1.369 . S
C1346 C1350 1.531 . S
C1347 C1346 1.369 . S
C1347 C1348 1.410 . S
C1347 C1355 1.503 . S
C1348 C1347 1.410 . S
C1348 C1349 1.392 . S
C1348 C1351 1.511 . S
C1349 C1345 1.376 . S
C1349 C1348 1.392 . S
C1349 H1361 0.929 . S
C1350 C1346 1.531 . S
C1350 H1362 0.960 . S
C1350 H1363 0.962 . S
C1350 H1364 0.960 . S
C1351 C1348 1.511 . S
C1351 H1365 0.961 . S
C1351 H1366 0.961 . S
C1351 H1367 0.961 . S
C1352 C1353 1.370 . S
C1352 C1354 1.363 . S
C1352 H1368 0.931 . S
C1353 C1352 1.370 . S
C1353 C1357 1.408 . S
C1354 C1352 1.363 . S
C1354 C1355 1.370 . S
C1354 C1358 1.524 . S
C1355 C1347 1.503 . S
C1355 C1354 1.370 . S
C1355 C1356 1.403 . S
C1356 C1355 1.403 . S
C1356 C1357 1.404 . S
C1356 C1359 1.539 . S
C1357 C1353 1.408 . S
C1357 C1356 1.404 . S
C1357 H1369 0.930 . S
C1358 C1354 1.524 . S
C1358 H1370 0.956 . S
C1358 H1371 0.961 . S
C1358 H1372 0.961 . S
C1359 C1356 1.539 . S
C1359 H1373 0.958 . S
C1359 H1374 0.961 . S
C1359 H1375 0.960 . S
H1360 C1344 0.931 . S
H1361 C1349 0.929 . S
H1362 C1350 0.960 . S
H1363 C1350 0.962 . S
H1364 C1350 0.960 . S
H1365 C1351 0.961 . S
H1366 C1351 0.961 . S
H1367 C1351 0.961 . S
H1368 C1352 0.931 . S
H1369 C1357 0.930 . S
H1370 C1358 0.956 . S
H1371 C1358 0.961 . S
H1372 C1358 0.961 . S
H1373 C1359 0.958 . S
H1374 C1359 0.961 . S
H1375 C1359 0.960 . S
C1376 C1377 1.391 . S
C1376 C1378 1.394 . S
C1376 H1392 0.931 . S
C1377 C1376 1.391 . S
C1377 C1381 1.376 . S
C1378 C1376 1.394 . S
C1378 C1379 1.369 . S
C1378 C1382 1.531 . S
C1379 C1378 1.369 . S
C1379 C1380 1.410 . S
C1379 C1387 1.503 . S
C1380 C1379 1.410 . S
C1380 C1381 1.392 . S
C1380 C1383 1.511 . S
C1381 C1377 1.376 . S
C1381 C1380 1.392 . S
C1381 H1393 0.929 . S
C1382 C1378 1.531 . S
C1382 H1394 0.960 . S
C1382 H1395 0.962 . S
C1382 H1396 0.960 . S
C1383 C1380 1.511 . S
C1383 H1397 0.961 . S
C1383 H1398 0.961 . S
C1383 H1399 0.961 . S
C1384 C1385 1.370 . S
C1384 C1386 1.363 . S
C1384 H1400 0.931 . S
C1385 C1384 1.370 . S
C1385 C1389 1.408 . S
C1386 C1384 1.363 . S
C1386 C1387 1.370 . S
C1386 C1390 1.524 . S
C1387 C1379 1.503 . S
C1387 C1386 1.370 . S
C1387 C1388 1.403 . S
C1388 C1387 1.403 . S
C1388 C1389 1.404 . S
C1388 C1391 1.539 . S
C1389 C1385 1.408 . S
C1389 C1388 1.404 . S
C1389 H1401 0.930 . S
C1390 C1386 1.524 . S
C1390 H1402 0.956 . S
C1390 H1403 0.961 . S
C1390 H1404 0.961 . S
C1391 C1388 1.539 . S
C1391 H1405 0.958 . S
C1391 H1406 0.961 . S
C1391 H1407 0.960 . S
H1392 C1376 0.931 . S
H1393 C1381 0.929 . S
H1394 C1382 0.960 . S
H1395 C1382 0.962 . S
H1396 C1382 0.960 . S
H1397 C1383 0.961 . S
H1398 C1383 0.961 . S
H1399 C1383 0.961 . S
H1400 C1384 0.931 . S
H1401 C1389 0.930 . S
H1402 C1390 0.956 . S
H1403 C1390 0.961 . S
H1404 C1390 0.961 . S
H1405 C1391 0.958 . S
H1406 C1391 0.961 . S
H1407 C1391 0.960 . S
C1408 C1409 1.391 . S
C1408 C1410 1.394 . S
C1408 H1424 0.931 . S
C1409 C1408 1.391 . S
C1409 C1413 1.376 1_655 S
C1410 C1408 1.394 . S
C1410 C1411 1.369 1_655 S
C1410 C1414 1.531 . S
C1411 C1410 1.369 1_455 S
C1411 C1412 1.410 . S
C1411 C1419 1.503 1_556 S
C1412 C1411 1.410 . S
C1412 C1413 1.392 . S
C1412 C1415 1.511 . S
C1413 C1409 1.376 1_455 S
C1413 C1412 1.392 . S
C1413 H1425 0.929 . S
C1414 C1410 1.531 . S
C1414 H1426 0.960 . S
C1414 H1427 0.962 . S
C1414 H1428 0.960 . S
C1415 C1412 1.511 . S
C1415 H1429 0.961 . S
C1415 H1430 0.961 1_556 S
C1415 H1431 0.961 . S
C1416 C1417 1.370 1_655 S
C1416 C1418 1.363 . S
C1416 H1432 0.931 . S
C1417 C1416 1.370 1_455 S
C1417 C1421 1.408 . S
C1418 C1416 1.363 . S
C1418 C1419 1.370 1_655 S
C1418 C1422 1.524 . S
C1419 C1411 1.503 1_554 S
C1419 C1418 1.370 1_455 S
C1419 C1420 1.403 . S
C1420 C1419 1.403 . S
C1420 C1421 1.404 . S
C1420 C1423 1.539 . S
C1421 C1417 1.408 . S
C1421 C1420 1.404 . S
C1421 H1433 0.930 . S
C1422 C1418 1.524 . S
C1422 H1434 0.956 . S
C1422 H1435 0.961 . S
C1422 H1436 0.961 . S
C1423 C1420 1.539 . S
C1423 H1437 0.958 . S
C1423 H1438 0.961 . S
C1423 H1439 0.960 1_554 S
H1424 C1408 0.931 . S
H1425 C1413 0.929 . S
H1426 C1414 0.960 . S
H1427 C1414 0.962 . S
H1428 C1414 0.960 . S
H1429 C1415 0.961 . S
H1430 C1415 0.961 1_554 S
H1431 C1415 0.961 . S
H1432 C1416 0.931 . S
H1433 C1421 0.930 . S
H1434 C1422 0.956 . S
H1435 C1422 0.961 . S
H1436 C1422 0.961 . S
H1437 C1423 0.958 . S
H1438 C1423 0.961 . S
H1439 C1423 0.960 1_556 S
C673 C56 1.583 . S
C681 C308 1.602 . S
C705 C74 1.480 . S
C713 C140 1.449 . S
C737 C158 1.290 . S
C745 C242 1.316 . S
C769 C224 1.474 . S
C777 C326 1.477 . S
C801 C67 1.595 . S
C809 C487 1.612 . S
C833 C63 1.454 . S
C841 C403 1.442 . S
C865 C399 1.312 . S
C873 C231 1.328 . S
C897 C483 1.469 . S
C905 C235 1.452 . S
C929 C560 1.562 . S
C937 C476 1.601 . S
C961 C392 1.473 . S
C969 C578 1.474 . S
C993 C662 1.290 . S
C1001 C410 1.322 . S
C1025 C494 1.442 . S
C1033 C644 1.442 . S
C1057 C319 1.618 . S
C1065 C571 1.590 . S
C1089 C567 1.462 . S
C1097 C151 1.448 . S
C1121 C147 1.347 . S
C1129 C651 1.321 . S
C1153 C315 1.480 . S
C1161 C655 1.454 . S
C1185 C70 1.464 1_565 S
C1193 C58 1.383 1_545 S
C1217 C142 1.375 . S
C1225 C154 1.425 . S
C1249 C238 1.355 1_565 S
C1257 C226 1.429 1_545 S
C1281 C322 1.444 . S
C1289 C310 1.401 . S
C1313 C394 1.417 . S
C1321 C406 1.402 . S
C1345 C490 1.414 . S
C1353 C478 1.413 . S
C1377 C562 1.443 . S
C1385 C574 1.408 . S
C1409 C646 1.393 . S
C1417 C658 1.412 . S
