# Generated by pormake.
# Topology umb, (4)-cn, num edge types: 1
# Building blocks:
#     Node 0, Type 0, BuildingBlock: ICAMEG_clean_sbu_1, # of connection points: 4
#     Node 1, Type 0, BuildingBlock: ICAMEG_clean_sbu_1, # of connection points: 4
#     Node 2, Type 0, BuildingBlock: ICAMEG_clean_sbu_1, # of connection points: 4
#     Node 3, Type 0, BuildingBlock: ICAMEG_clean_sbu_1, # of connection points: 4
#     Node 4, Type 0, BuildingBlock: ICAMEG_clean_sbu_1, # of connection points: 4
#     Node 5, Type 0, BuildingBlock: ICAMEG_clean_sbu_1, # of connection points: 4
#     Node 6, Type 0, BuildingBlock: ICAMEG_clean_sbu_1, # of connection points: 4
#     Node 7, Type 0, BuildingBlock: ICAMEG_clean_sbu_1, # of connection points: 4
#     Node 8, Type 0, BuildingBlock: ICAMEG_clean_sbu_1, # of connection points: 4
#     Node 9, Type 0, BuildingBlock: ICAMEG_clean_sbu_1, # of connection points: 4
#     Node 10, Type 0, BuildingBlock: ICAMEG_clean_sbu_1, # of connection points: 4
#     Node 11, Type 0, BuildingBlock: ICAMEG_clean_sbu_1, # of connection points: 4
#     Edge 12, Type (0, 0), None
#     Edge 13, Type (0, 0), None
#     Edge 14, Type (0, 0), None
#     Edge 15, Type (0, 0), None
#     Edge 16, Type (0, 0), None
#     Edge 17, Type (0, 0), None
#     Edge 18, Type (0, 0), None
#     Edge 19, Type (0, 0), None
#     Edge 20, Type (0, 0), None
#     Edge 21, Type (0, 0), None
#     Edge 22, Type (0, 0), None
#     Edge 23, Type (0, 0), None
#     Edge 24, Type (0, 0), None
#     Edge 25, Type (0, 0), None
#     Edge 26, Type (0, 0), None
#     Edge 27, Type (0, 0), None
#     Edge 28, Type (0, 0), None
#     Edge 29, Type (0, 0), None
#     Edge 30, Type (0, 0), None
#     Edge 31, Type (0, 0), None
#     Edge 32, Type (0, 0), None
#     Edge 33, Type (0, 0), None
#     Edge 34, Type (0, 0), None
#     Edge 35, Type (0, 0), None
# Relax obj value: 0.151
# Max RMSD: 0.187
# Mean RMSD: 0.187
data_MOF--net-umb--node1-ICAMEG_clean_sbu_1--edge1-none
_symmetry_space_group_name_H-M    P1
_symmetry_Int_Tables_number       1
_symmetry_cell_setting            triclinic
loop_
_symmetry_equiv_pos_as_xyz
'x, y, z'
_cell_length_a     26.011206
_cell_length_b     26.058724
_cell_length_c     19.270864
_cell_angle_alpha  90.000845
_cell_angle_beta   89.999198
_cell_angle_gamma 119.81508
loop_
_atom_site_label
_atom_site_type_symbol
_atom_site_fract_x
_atom_site_fract_y
_atom_site_fract_z
_atom_type_partial_charge
Co0 Co 0.49825 0.17426 0.35532 0.0
Co1 Co 0.57527 0.09776 0.35704 0.0
O2 O 0.514 0.11332 0.31814 0.0
C3 C 0.55104 0.24933 0.22618 0.0
O4 O 0.60293 0.25884 0.24633 0.0
C5 C 0.46512 -0.00522 0.39819 0.0
O6 O 0.44125 0.02861 0.40273 0.0
O7 O 0.56596 0.11989 0.45314 0.0
O8 O 0.49179 0.14046 0.45098 0.0
H9 H 0.74857 0.13908 0.50929 0.0
H10 H 0.42912 0.1019 0.23603 0.0
O11 O 0.50445 0.21118 0.2583 0.0
H12 H 0.28155 0.06897 0.41669 0.0
H13 H 0.42619 0.32104 0.34399 0.0
H14 H 0.52658 0.24151 0.48881 0.0
H15 H 0.38862 0.13323 0.43953 0.0
H16 H 0.43326 0.23502 0.30473 0.0
O17 O 0.51787 0.01504 0.3784 0.0
H18 H 0.67695 0.1618 0.45341 0.0
H19 H 0.60353 7e-05 0.34143 0.0
H20 H 0.51448 0.32339 0.53284 0.0
H21 H 0.32279 0.03704 0.211 0.0
H22 H 0.47061 0.36815 0.45672 0.0
H23 H 0.24823 0.02146 0.30106 0.0
O24 O 0.58423 0.22748 0.37448 0.0
H25 H 0.50028 -0.03154 0.14698 0.0
H26 H 0.67666 0.12684 0.26294 0.0
H27 H 0.68835 0.08282 0.153 0.0
H28 H 0.5999 0.00138 0.09716 0.0
H29 H 0.49095 0.01584 0.25305 0.0
H30 H 0.67662 -0.02229 0.3944 0.0
H31 H 0.74931 0.04722 0.4791 0.0
O32 O 0.63365 0.18074 0.34035 0.0
C33 C 0.52881 0.1303 0.48347 0.0
C34 C 0.71779 0.1092 0.47128 0.0
C35 C 0.67698 0.01824 0.4071 0.0
N36 N 0.6365 0.08287 0.39319 0.0
C37 C 0.67699 0.12166 0.43945 0.0
C38 C 0.63603 0.03147 0.3771 0.0
C39 C 0.71791 0.05733 0.45469 0.0
C40 C 0.39682 0.0948 0.2757 0.0
N41 N 0.4147 0.12175 0.33886 0.0
C42 C 0.33676 0.05809 0.26123 0.0
C43 C 0.29497 0.0492 0.31196 0.0
C44 C 0.31365 0.07598 0.37678 0.0
C45 C 0.37417 0.11216 0.38949 0.0
C46 C 0.44762 0.30326 0.37639 0.0
C47 C 0.5029 0.25731 0.4575 0.0
C48 C 0.45249 0.25491 0.35411 0.0
N49 N 0.48219 0.23412 0.39318 0.0
C50 C 0.49694 0.3044 0.48248 0.0
C51 C 0.47156 0.32906 0.44019 0.0
C52 C 0.63181 0.22521 0.36506 0.0
C53 C 0.53942 0.00354 0.17158 0.0
C54 C 0.63841 0.09356 0.23605 0.0
C55 C 0.6451 0.06806 0.17521 0.0
C56 C 0.5953 0.02198 0.14373 0.0
N57 N 0.58383 0.07368 0.26441 0.0
C58 C 0.53447 0.03077 0.23156 0.0
Co59 Co 0.29452 0.51507 0.69455 0.0
Co60 Co 0.44736 0.59313 0.70536 0.0
O61 O 0.37286 0.53013 0.66505 0.0
C62 C 0.24001 0.53842 0.57144 0.0
O63 O 0.22174 0.5643 0.61512 0.0
C64 C 0.43584 0.48371 0.75728 0.0
O65 O 0.37875 0.46325 0.76169 0.0
O66 O 0.41205 0.5871 0.79851 0.0
O67 O 0.31673 0.51552 0.79471 0.0
H68 H 0.57041 0.76945 0.85595 0.0
H69 H 0.30033 0.43852 0.58555 0.0
O70 O 0.27214 0.51708 0.59327 0.0
H71 H 0.18089 0.30293 0.77312 0.0
H72 H 0.07229 0.42193 0.6785 0.0
H73 H 0.2524 0.56637 0.80288 0.0
H74 H 0.22795 0.41126 0.78851 0.0
H75 H 0.1689 0.43069 0.65167 0.0
O76 O 0.47055 0.53522 0.73484 0.0
H77 H 0.47992 0.69804 0.79401 0.0
H78 H 0.57289 0.61944 0.70342 0.0
H79 H 0.15591 0.55756 0.83217 0.0
H80 H 0.25306 0.33082 0.56756 0.0
H81 H 0.06643 0.48866 0.76622 0.0
H82 H 0.19167 0.26237 0.66093 0.0
O83 O 0.32465 0.60126 0.70015 0.0
H84 H 0.50644 0.51394 0.50242 0.0
H85 H 0.5258 0.69363 0.61228 0.0
H86 H 0.58301 0.70249 0.50529 0.0
H87 H 0.57399 0.61234 0.45078 0.0
H88 H 0.44905 0.50758 0.6073 0.0
H89 H 0.66513 0.69276 0.76223 0.0
H90 H 0.66393 0.76811 0.83884 0.0
O91 O 0.42349 0.65065 0.67872 0.0
C92 C 0.36341 0.55215 0.82789 0.0
C93 C 0.5717 0.73799 0.82078 0.0
C94 C 0.62469 0.69429 0.76864 0.0
N95 N 0.52125 0.65515 0.74406 0.0
C96 C 0.52057 0.69715 0.78578 0.0
C97 C 0.57248 0.65326 0.7354 0.0
C98 C 0.6241 0.73675 0.81177 0.0
C99 C 0.27424 0.40897 0.62688 0.0
N100 N 0.26583 0.43094 0.68754 0.0
C101 C 0.24772 0.34808 0.61639 0.0
C102 C 0.21326 0.30969 0.66892 0.0
C103 C 0.20721 0.33249 0.73189 0.0
C104 C 0.23433 0.3937 0.74055 0.0
C105 C 0.11152 0.45327 0.70655 0.0
C106 C 0.21297 0.53407 0.77609 0.0
C107 C 0.1663 0.45798 0.69221 0.0
N108 N 0.21662 0.49968 0.72494 0.0
C109 C 0.1587 0.52983 0.79249 0.0
C110 C 0.10813 0.49042 0.75602 0.0
C111 C 0.37387 0.64819 0.68843 0.0
C112 C 0.51089 0.55372 0.52583 0.0
C113 C 0.52071 0.65435 0.58725 0.0
C114 C 0.55348 0.65959 0.52742 0.0
C115 C 0.54868 0.6089 0.49687 0.0
N116 N 0.48462 0.60018 0.61594 0.0
C117 C 0.4785 0.55026 0.58516 0.0
Co118 Co 0.74226 0.30589 1.02389 0.0
Co119 Co 0.81562 0.45937 0.03608 0.0
O120 O 0.80586 0.3848 0.99764 0.0
C121 C 0.67475 0.25849 0.89118 0.0
O122 O 0.63085 0.26239 0.91856 0.0
C123 C 0.91532 0.45208 0.09074 0.0
O124 O 0.87936 0.39533 0.09959 0.0
O125 O 0.78799 0.42502 0.13009 0.0
O126 O 0.75797 0.32787 0.12556 0.0
H127 H 0.76513 0.58341 0.18948 0.0
H128 H 0.83585 0.32042 0.9269 0.0
O129 O 0.72478 0.28109 0.92256 0.0
H130 H 0.82941 0.1819 0.10507 0.0
H131 H 0.61181 0.08669 0.98907 0.0
H132 H 0.64422 0.26027 0.12508 0.0
H133 H 0.77039 0.23238 0.11915 0.0
H134 H 0.70324 0.18242 0.97504 0.0
O135 O 0.8975 0.48468 0.06397 0.0
H136 H 0.74508 0.49225 0.12806 0.0
H137 H 0.9122 0.58542 1.02796 0.0
H138 H 0.55188 0.16414 0.1422 0.0
H139 H 0.89567 0.2719 0.91156 0.0
H140 H 0.53413 0.07822 0.07066 0.0
H141 H 0.88981 0.19952 0.99912 0.0
O142 O 0.68505 0.33496 1.02397 0.0
H143 H -0.04961 0.51672 0.83005 0.0
H144 H 0.78921 0.53392 0.9418 0.0
H145 H 0.83468 0.58977 0.83328 0.0
H146 H 0.91686 0.58242 0.77834 0.0
H147 H 0.90194 0.46051 0.93648 0.0
H148 H 0.93118 0.67807 0.08586 0.0
H149 H 0.85736 0.67712 0.16671 0.0
O150 O 0.7335 0.43456 1.01124 0.0
C151 C 0.76965 0.37515 0.159 0.0
C152 C 0.79631 0.5845 0.15204 0.0
C153 C 0.89014 0.63751 0.0943 0.0
N154 N 0.82682 0.53357 0.07321 0.0
C155 C 0.78559 0.53303 0.11743 0.0
C156 C 0.8788 0.58502 0.06162 0.0
C157 C 0.84861 0.63706 0.13993 0.0
C158 C 0.83496 0.2908 0.96676 0.0
N159 N 0.79898 0.27828 1.02338 0.0
C160 C 0.86858 0.26314 0.95746 0.0
C161 C 0.86555 0.22283 1.00689 0.0
C162 C 0.83149 0.21293 0.06648 0.0
C163 C 0.79872 0.24183 0.07438 0.0
C164 C 0.61868 0.12442 1.01969 0.0
C165 C 0.63739 0.22204 0.09626 0.0
C166 C 0.67055 0.17876 1.01231 0.0
N167 N 0.67841 0.22735 0.04854 0.0
C168 C 0.58518 0.16813 0.10567 0.0
C169 C 0.5753 0.11958 0.06576 0.0
C170 C 0.6867 0.38444 1.01721 0.0
C171 C 0.91487 0.52071 0.85392 0.0
C172 C 0.82359 0.52938 0.91635 0.0
C173 C 0.84966 0.56149 0.8558 0.0
C174 C 0.89606 0.55756 0.82497 0.0
N175 N 0.84359 0.49488 0.9455 0.0
C176 C 0.88739 0.48899 0.91405 0.0
Co177 Co 0.39496 0.75237 0.35533 0.0
Co178 Co 0.31793 0.82887 0.35706 0.0
O179 O 0.37921 0.81331 0.31815 0.0
C180 C 0.34216 0.6773 0.22618 0.0
O181 O 0.29028 0.66779 0.24634 0.0
C182 C 0.42808 0.93184 0.39822 0.0
O183 O 0.45198 0.89803 0.40273 0.0
O184 O 0.32725 0.80673 0.45315 0.0
O185 O 0.40141 0.78617 0.45098 0.0
H186 H 0.14464 0.78754 0.50931 0.0
H187 H 0.46409 0.82473 0.23604 0.0
O188 O 0.38875 0.71545 0.25831 0.0
H189 H 0.61166 0.85765 0.41668 0.0
H190 H 0.46701 0.60558 0.34399 0.0
H191 H 0.36663 0.68512 0.48881 0.0
H192 H 0.50458 0.7934 0.43953 0.0
H193 H 0.45994 0.69161 0.30473 0.0
O194 O 0.37534 0.91158 0.37842 0.0
H195 H 0.21625 0.76483 0.45343 0.0
H196 H 0.28968 0.92656 0.34146 0.0
H197 H 0.37873 0.60324 0.53284 0.0
H198 H 0.57041 0.88959 0.21099 0.0
H199 H 0.42259 0.55848 0.45671 0.0
H200 H 0.64497 0.90516 0.30105 0.0
O201 O 0.30897 0.69915 0.37449 0.0
H202 H 0.39294 0.95818 0.147 0.0
H203 H 0.21655 0.79981 0.26296 0.0
H204 H 0.20486 0.84383 0.15303 0.0
H205 H 0.29331 0.92526 0.09719 0.0
H206 H 0.40226 0.91079 0.25307 0.0
H207 H 0.2166 0.94892 0.39444 0.0
H208 H 0.1439 0.8794 0.47913 0.0
O209 O 0.25956 0.74589 0.34036 0.0
C210 C 0.36439 0.79633 0.48348 0.0
C211 C 0.17541 0.81743 0.4713 0.0
C212 C 0.21623 0.90839 0.40713 0.0
N213 N 0.2567 0.84376 0.39321 0.0
C214 C 0.21621 0.80497 0.43947 0.0
C215 C 0.25718 0.89517 0.37713 0.0
C216 C 0.17529 0.8693 0.45472 0.0
C217 C 0.49638 0.83183 0.2757 0.0
N218 N 0.47851 0.80488 0.33886 0.0
C219 C 0.55644 0.86854 0.26123 0.0
C220 C 0.59824 0.87742 0.31195 0.0
C221 C 0.57955 0.85065 0.37677 0.0
C222 C 0.51903 0.81447 0.38949 0.0
C223 C 0.44558 0.62337 0.37638 0.0
C224 C 0.39031 0.66932 0.4575 0.0
C225 C 0.44072 0.67172 0.3541 0.0
N226 N 0.41102 0.69251 0.39318 0.0
C227 C 0.39626 0.62223 0.48248 0.0
C228 C 0.42164 0.59757 0.44018 0.0
C229 C 0.2614 0.70142 0.36507 0.0
C230 C 0.35379 0.9231 0.1716 0.0
C231 C 0.2548 0.83308 0.23607 0.0
C232 C 0.24812 0.85858 0.17523 0.0
C233 C 0.29791 0.90466 0.14375 0.0
N234 N 0.30938 0.85296 0.26443 0.0
C235 C 0.35874 0.89586 0.23158 0.0
Co236 Co 0.59868 0.41157 0.69456 0.0
Co237 Co 0.44585 0.3335 0.70537 0.0
O238 O 0.52035 0.3965 0.66505 0.0
C239 C 0.65319 0.38821 0.57144 0.0
O240 O 0.67146 0.36233 0.61512 0.0
C241 C 0.45736 0.44291 0.75733 0.0
O242 O 0.51447 0.4634 0.7617 0.0
O243 O 0.48116 0.33953 0.79851 0.0
O244 O 0.57647 0.41111 0.79472 0.0
H245 H 0.3228 0.15717 0.85596 0.0
H246 H 0.59287 0.48811 0.58556 0.0
O247 O 0.62107 0.40955 0.59328 0.0
H248 H 0.71233 0.62371 0.77312 0.0
H249 H 0.82092 0.5047 0.67849 0.0
H250 H 0.64081 0.36026 0.80288 0.0
H251 H 0.66526 0.51538 0.78851 0.0
H252 H 0.72431 0.49594 0.65166 0.0
O253 O 0.42266 0.3914 0.73486 0.0
H254 H 0.41329 0.22859 0.79401 0.0
H255 H 0.32031 0.30719 0.70343 0.0
H256 H 0.7373 0.36907 0.83217 0.0
H257 H 0.64014 0.59581 0.56756 0.0
H258 H 0.82678 0.43796 0.76621 0.0
H259 H 0.70155 0.66426 0.66092 0.0
O260 O 0.56856 0.32538 0.70016 0.0
H261 H 0.38677 0.4127 0.50244 0.0
H262 H 0.36741 0.23301 0.61228 0.0
H263 H 0.3102 0.22415 0.5053 0.0
H264 H 0.31922 0.3143 0.4508 0.0
H265 H 0.44415 0.41905 0.60733 0.0
H266 H 0.22808 0.23387 0.76224 0.0
H267 H 0.22928 0.15851 0.83885 0.0
O268 O 0.46972 0.27599 0.67872 0.0
C269 C 0.5298 0.37448 0.82789 0.0
C270 C 0.32151 0.18863 0.82079 0.0
C271 C 0.26852 0.23234 0.76865 0.0
N272 N 0.37196 0.27148 0.74407 0.0
C273 C 0.37263 0.22947 0.78578 0.0
C274 C 0.32073 0.27336 0.73541 0.0
C275 C 0.26911 0.18988 0.81177 0.0
C276 C 0.61897 0.51766 0.62688 0.0
N277 N 0.62738 0.49569 0.68755 0.0
C278 C 0.64548 0.57855 0.61639 0.0
C279 C 0.67995 0.61694 0.66891 0.0
C280 C 0.68601 0.59415 0.73189 0.0
C281 C 0.65888 0.53293 0.74055 0.0
C282 C 0.78169 0.47336 0.70654 0.0
C283 C 0.68024 0.39257 0.77609 0.0
C284 C 0.7269 0.46865 0.69221 0.0
N285 N 0.67659 0.42695 0.72494 0.0
C286 C 0.73451 0.39681 0.79249 0.0
C287 C 0.78507 0.43621 0.75602 0.0
C288 C 0.51933 0.27845 0.68843 0.0
C289 C 0.38232 0.37292 0.52585 0.0
C290 C 0.3725 0.27229 0.58726 0.0
C291 C 0.33973 0.26705 0.52743 0.0
C292 C 0.34453 0.31774 0.49688 0.0
N293 N 0.40858 0.32645 0.61595 0.0
C294 C 0.4147 0.37638 0.58518 0.0
Co295 Co 0.15094 0.62074 1.0239 0.0
Co296 Co 0.07759 0.46726 0.03608 0.0
O297 O 0.08734 0.54183 0.99765 0.0
C298 C 0.21845 0.66814 0.89119 0.0
O299 O 0.26235 0.66424 0.91857 0.0
C300 C -0.0221 0.47455 0.09078 0.0
O301 O 0.01384 0.53131 0.0996 0.0
O302 O 0.10522 0.50161 0.13009 0.0
O303 O 0.13523 0.59876 0.12557 0.0
H304 H 0.12809 0.34323 0.18948 0.0
H305 H 0.05735 0.60621 0.9269 0.0
O306 O 0.16842 0.64554 0.92257 0.0
H307 H 0.0638 0.74474 0.10508 0.0
H308 H 0.28139 0.83994 0.98909 0.0
H309 H 0.24898 0.66636 0.12509 0.0
H310 H 0.12281 0.69425 0.11916 0.0
H311 H 0.18997 0.74421 0.97505 0.0
O312 O -0.00428 0.44195 0.06399 0.0
H313 H 0.14813 0.43438 0.12806 0.0
H314 H -0.01898 0.34121 1.02796 0.0
H315 H 0.34132 0.76249 0.14221 0.0
H316 H -0.00246 0.65473 0.91156 0.0
H317 H 0.35907 0.84841 0.07068 0.0
H318 H 0.0034 0.72711 0.99912 0.0
O319 O 0.20815 0.59167 1.02398 0.0
H320 H 0.94281 0.40991 0.83006 0.0
H321 H 0.104 0.39271 0.9418 0.0
H322 H 0.05853 0.33687 0.83328 0.0
H323 H -0.02366 0.34421 0.77834 0.0
H324 H -0.00874 0.46611 0.93649 0.0
H325 H -0.03797 0.24856 0.08585 0.0
H326 H 0.03586 0.24951 0.1667 0.0
O327 O 0.15971 0.49207 1.01123 0.0
C328 C 0.12356 0.55148 0.159 0.0
C329 C 0.0969 0.34214 0.15204 0.0
C330 C 0.00307 0.28912 0.0943 0.0
N331 N 0.06639 0.39306 0.07321 0.0
C332 C 0.10762 0.3936 0.11743 0.0
C333 C 0.01442 0.34161 0.06162 0.0
C334 C 0.0446 0.28957 0.13992 0.0
C335 C 0.05825 0.63583 0.96677 0.0
N336 N 0.09423 0.64835 1.02338 0.0
C337 C 0.02463 0.66349 0.95746 0.0
C338 C 0.02766 0.7038 1.00689 0.0
C339 C 0.06171 0.7137 0.06648 0.0
C340 C 0.09449 0.6848 0.07439 0.0
C341 C 0.27452 0.80221 1.0197 0.0
C342 C 0.25581 0.7046 0.09627 0.0
C343 C 0.22266 0.74787 1.01232 0.0
N344 N 0.21479 0.69928 0.04855 0.0
C345 C 0.30802 0.7585 0.10569 0.0
C346 C 0.3179 0.80705 0.06578 0.0
C347 C 0.20651 0.5422 1.01721 0.0
C348 C -0.02167 0.40591 0.85393 0.0
C349 C 0.06961 0.39726 0.91635 0.0
C350 C 0.04355 0.36514 0.8558 0.0
C351 C -0.00285 0.36907 0.82498 0.0
N352 N 0.04962 0.43175 0.9455 0.0
C353 C 0.00581 0.43763 0.91406 0.0
Co354 Co 0.74205 0.41335 0.37163 0.0
Co355 Co 0.81621 0.33405 0.35653 0.0
O356 O 0.80499 0.39681 0.39773 0.0
C357 C 0.66604 0.3878 0.49687 0.0
O358 O 0.62152 0.36011 0.45414 0.0
C359 C 0.91531 0.44319 0.30538 0.0
O360 O 0.87888 0.46393 0.29905 0.0
O361 O 0.78746 0.34175 0.26353 0.0
O362 O 0.76109 0.41192 0.26982 0.0
H363 H 0.76591 0.15517 0.21037 0.0
H364 H 0.82714 0.48795 0.47935 0.0
O365 O 0.71943 0.41125 0.47389 0.0
H366 H 0.84066 0.626 0.29603 0.0
H367 H 0.61586 0.50794 0.40656 0.0
H368 H 0.64701 0.36781 0.26623 0.0
H369 H 0.77878 0.51779 0.27945 0.0
H370 H 0.70485 0.49887 0.4227 0.0
O371 O 0.89785 0.39181 0.32874 0.0
H372 H 0.74646 0.22978 0.26542 0.0
H373 H 0.91549 0.30828 0.3615 0.0
H374 H 0.55607 0.37493 0.24855 0.0
H375 H 0.88841 0.59543 0.49854 0.0
H376 H 0.53873 0.44227 0.32259 0.0
H377 H 0.89389 0.66507 0.40752 0.0
O378 O 0.68511 0.32748 0.36494 0.0
H379 H -0.04754 0.40728 0.56203 0.0
H380 H 0.78886 0.23245 0.44939 0.0
H381 H 0.8326 0.22007 0.55832 0.0
H382 H 0.91546 0.30786 0.61432 0.0
H383 H 0.90598 0.41715 0.45505 0.0
H384 H 0.93501 0.23344 0.30793 0.0
H385 H 0.85952 0.15611 0.23275 0.0
O386 O 0.73386 0.27626 0.38051 0.0
C387 C 0.77046 0.37494 0.23553 0.0
C388 C 0.79788 0.18772 0.24499 0.0
C389 C 0.8934 0.23214 0.29932 0.0
N390 N 0.82911 0.27253 0.31794 0.0
C391 C 0.78741 0.23011 0.27607 0.0
C392 C 0.88187 0.27417 0.32932 0.0
C393 C 0.85097 0.1886 0.257 0.0
C394 C 0.8302 0.51808 0.43889 0.0
N395 N 0.79869 0.49697 0.37881 0.0
C396 C 0.86497 0.57881 0.45007 0.0
C397 C 0.86806 0.61787 0.39882 0.0
C398 C 0.83812 0.5959 0.33626 0.0
C399 C 0.80371 0.53481 0.32687 0.0
C400 C 0.62242 0.47728 0.37503 0.0
C401 C 0.64015 0.39857 0.29636 0.0
C402 C 0.67317 0.47246 0.3832 0.0
N403 N 0.68017 0.4314 0.34626 0.0
C404 C 0.58889 0.40236 0.28648 0.0
C405 C 0.57933 0.44071 0.32764 0.0
C406 C 0.68696 0.27966 0.3719 0.0
C407 C 0.91645 0.36853 0.53794 0.0
C408 C 0.82391 0.27062 0.47489 0.0
C409 C 0.84893 0.26343 0.53579 0.0
C410 C 0.89564 0.31277 0.56724 0.0
N411 N 0.845 0.32529 0.44614 0.0
C412 C 0.89017 0.37393 0.47724 0.0
Co413 Co 0.29156 0.75352 0.68743 0.0
Co414 Co 0.44394 0.83049 0.68494 0.0
O415 O 0.36771 0.8158 0.72422 0.0
C416 C 0.22983 0.70809 0.83134 0.0
O417 O 0.20089 0.73733 0.82859 0.0
C418 C 0.43399 0.93185 0.6399 0.0
O419 O 0.37632 0.898 0.63885 0.0
O420 O 0.41045 0.80349 0.59021 0.0
O421 O 0.31777 0.78841 0.59224 0.0
H422 H 0.57241 0.7826 0.53533 0.0
H423 H 0.30556 0.83968 0.79802 0.0
O424 O 0.26741 0.71419 0.78399 0.0
H425 H 0.16749 0.84646 0.62798 0.0
H426 H 0.07328 0.59766 0.6881 0.0
H427 H 0.25861 0.68787 0.55373 0.0
H428 H 0.21077 0.78227 0.6081 0.0
H429 H 0.15953 0.68749 0.72857 0.0
O430 O 0.4674 0.91202 0.65804 0.0
H431 H 0.48018 0.76145 0.5951 0.0
H432 H 0.56903 0.93037 0.6914 0.0
H433 H 0.1685 0.60637 0.50392 0.0
H434 H 0.26397 0.90497 0.8192 0.0
H435 H 0.07845 0.55388 0.57589 0.0
H436 H 0.19313 0.90739 0.73506 0.0
O437 O 0.32564 0.70138 0.67118 0.0
H438 H 0.49902 -0.03343 0.88896 0.0
H439 H 0.52247 0.80868 0.77879 0.0
H440 H 0.57964 0.85783 0.88564 0.0
H441 H 0.56868 0.93779 0.93992 0.0
H442 H 0.44145 0.91488 0.78485 0.0
H443 H 0.6626 0.9518 0.63422 0.0
H444 H 0.66452 0.87763 0.55566 0.0
O445 O 0.4206 0.74898 0.709 0.0
C446 C 0.36413 0.79636 0.55967 0.0
C447 C 0.57233 0.81446 0.57099 0.0
C448 C 0.62283 0.90976 0.62611 0.0
N449 N 0.51919 0.84419 0.64765 0.0
C450 C 0.52021 0.80289 0.60491 0.0
C451 C 0.56974 0.89718 0.65843 0.0
C452 C 0.62394 0.86811 0.58194 0.0
C453 C 0.27541 0.84101 0.7604 0.0
N454 N 0.25849 0.80499 0.70337 0.0
C455 C 0.25186 0.87798 0.77291 0.0
C456 C 0.21207 0.87928 0.72563 0.0
C457 C 0.1974 0.84481 0.66579 0.0
C458 C 0.22166 0.80818 0.65512 0.0
C459 C 0.11388 0.61762 0.65817 0.0
C460 C 0.218 0.67029 0.58295 0.0
C461 C 0.16419 0.66786 0.68254 0.0
N462 N 0.21689 0.69146 0.64758 0.0
C463 C 0.16721 0.62285 0.55464 0.0
C464 C 0.11621 0.59394 0.59459 0.0
C465 C 0.37351 0.70287 0.68947 0.0
C466 C 0.50418 0.93162 0.8656 0.0
C467 C 0.51618 0.84199 0.80421 0.0
C468 C 0.549 0.87005 0.86378 0.0
C469 C 0.5432 0.91542 0.89419 0.0
N470 N 0.47908 0.85909 0.77566 0.0
C471 C 0.47161 0.9021 0.80672 0.0
Co472 Co 0.49795 0.30258 0.03377 0.0
Co473 Co 0.57492 0.45574 0.02923 0.0
O474 O 0.51349 0.37972 0.06868 0.0
C475 C 0.55033 0.28489 0.16596 0.0
O476 O 0.6012 0.32957 0.14733 0.0
C477 C 0.46504 0.45002 0.98639 0.0
O478 O 0.44106 0.39251 0.98087 0.0
O479 O 0.56583 0.42321 0.93364 0.0
O480 O 0.49241 0.32856 0.93709 0.0
H481 H 0.74975 0.58614 0.87871 0.0
H482 H 0.42837 0.30837 0.15127 0.0
O483 O 0.5036 0.27308 0.13159 0.0
H484 H 0.28155 0.19266 0.97092 0.0
H485 H 0.42481 0.0845 0.05136 0.0
H486 H 0.5293 0.26175 0.90414 0.0
H487 H 0.38878 0.2338 0.9493 0.0
H488 H 0.43022 0.17797 0.08577 0.0
O489 O 0.51757 0.48159 1.00714 0.0
H490 H 0.67749 0.49237 0.93421 0.0
H491 H 0.60218 0.58129 0.04232 0.0
H492 H 0.52193 0.1681 0.86619 0.0
H493 H 0.322 0.26872 0.17502 0.0
H494 H 0.47494 0.08068 0.94359 0.0
H495 H 0.24781 0.20931 0.08505 0.0
O496 O 0.58396 0.33421 1.01565 0.0
H497 H 0.4986 0.50931 0.239 0.0
H498 H 0.67682 0.53125 0.12196 0.0
H499 H 0.68724 0.58797 0.23047 0.0
H500 H 0.59789 0.57828 0.28741 0.0
H501 H 0.49034 0.45266 0.13329 0.0
H502 H 0.67553 0.67599 0.98942 0.0
H503 H 0.74983 0.67869 0.9072 0.0
O504 O 0.63325 0.43074 0.0468 0.0
C505 C 0.52989 0.37493 0.90404 0.0
C506 C 0.7185 0.58551 0.91596 0.0
C507 C 0.67635 0.63589 0.97765 0.0
N508 N 0.63611 0.53119 0.99254 0.0
C509 C 0.67727 0.53255 0.94745 0.0
C510 C 0.63514 0.58208 1.00748 0.0
C511 C 0.71818 0.63746 0.93149 0.0
C512 C 0.39625 0.28297 0.11165 0.0
N513 N 0.41436 0.27266 0.04924 0.0
C514 C 0.33615 0.26065 0.12539 0.0
C515 C 0.29458 0.22749 0.07473 0.0
C516 C 0.31351 0.21806 1.0107 0.0
C517 C 0.37407 0.24142 0.99867 0.0
C518 C 0.44743 0.12316 1.01853 0.0
C519 C 0.50543 0.22292 0.93615 0.0
C520 C 0.4511 0.17646 0.03795 0.0
N521 N 0.48209 0.2262 0.99836 0.0
C522 C 0.50194 0.17011 0.91461 0.0
C523 C 0.47469 0.1207 0.95747 0.0
C524 C 0.63144 0.38404 1.02338 0.0
C525 C 0.53808 0.51409 0.21419 0.0
C526 C 0.63806 0.52523 0.14906 0.0
C527 C 0.6441 0.55787 0.20929 0.0
C528 C 0.59377 0.55282 0.24126 0.0
N529 N 0.58349 0.48913 0.12144 0.0
C530 C 0.53375 0.48186 0.15451 0.0
Co531 Co 0.15115 0.51328 0.37163 0.0
Co532 Co 0.077 0.59259 0.35653 0.0
O533 O 0.08821 0.52982 0.39773 0.0
C534 C 0.22717 0.53883 0.49687 0.0
O535 O 0.27168 0.56652 0.45414 0.0
C536 C -0.02209 0.48345 0.30535 0.0
O537 O 0.01431 0.46269 0.29905 0.0
O538 O 0.10575 0.58488 0.26353 0.0
O539 O 0.13212 0.51471 0.26983 0.0
H540 H 0.12731 0.77146 0.21038 0.0
H541 H 0.06606 0.43868 0.47935 0.0
O542 O 0.17378 0.51538 0.47389 0.0
H543 H 0.05254 0.30063 0.29603 0.0
H544 H 0.27734 0.41869 0.40655 0.0
H545 H 0.24619 0.55882 0.26623 0.0
H546 H 0.11442 0.40884 0.27945 0.0
H547 H 0.18836 0.42776 0.4227 0.0
O548 O -0.00464 0.53483 0.32873 0.0
H549 H 0.14675 0.69685 0.26542 0.0
H550 H -0.02228 0.61836 0.36151 0.0
H551 H 0.33713 0.5517 0.24854 0.0
H552 H 0.00479 0.3312 0.49855 0.0
H553 H 0.35448 0.48436 0.32258 0.0
H554 H -0.00068 0.26156 0.40752 0.0
O555 O 0.20809 0.59915 0.36494 0.0
H556 H 0.94074 0.51935 0.56203 0.0
H557 H 0.10434 0.69418 0.4494 0.0
H558 H 0.06059 0.70656 0.55833 0.0
H559 H -0.02227 0.61876 0.61433 0.0
H560 H -0.01278 0.50948 0.45505 0.0
H561 H -0.0418 0.6932 0.30793 0.0
H562 H 0.03369 0.77052 0.23275 0.0
O563 O 0.15935 0.65037 0.38052 0.0
C564 C 0.12275 0.55169 0.23554 0.0
C565 C 0.09533 0.73892 0.24499 0.0
C566 C -0.00019 0.69449 0.29932 0.0
N567 N 0.0641 0.6541 0.31795 0.0
C568 C 0.10581 0.69652 0.27608 0.0
C569 C 0.01134 0.65247 0.32933 0.0
C570 C 0.04224 0.73804 0.25701 0.0
C571 C 0.06301 0.40856 0.43889 0.0
N572 N 0.09451 0.42966 0.37881 0.0
C573 C 0.02823 0.34783 0.45007 0.0
C574 C 0.02515 0.30876 0.39882 0.0
C575 C 0.05509 0.33073 0.33626 0.0
C576 C 0.08949 0.39182 0.32687 0.0
C577 C 0.27078 0.44935 0.37503 0.0
C578 C 0.25305 0.52806 0.29636 0.0
C579 C 0.22004 0.45417 0.3832 0.0
N580 N 0.21303 0.49523 0.34626 0.0
C581 C 0.30431 0.52427 0.28648 0.0
C582 C 0.31387 0.48592 0.32763 0.0
C583 C 0.20624 0.64697 0.37191 0.0
C584 C -0.02325 0.55809 0.53794 0.0
C585 C 0.06929 0.65601 0.4749 0.0
C586 C 0.04427 0.66319 0.5358 0.0
C587 C -0.00245 0.61385 0.56724 0.0
N588 N 0.0482 0.60134 0.44614 0.0
C589 C 0.00303 0.5527 0.47724 0.0
Co590 Co 0.60165 0.17311 0.68742 0.0
Co591 Co 0.44927 0.09615 0.68493 0.0
O592 O 0.5255 0.11083 0.72421 0.0
C593 C 0.66338 0.21854 0.83133 0.0
O594 O 0.69232 0.18931 0.82858 0.0
C595 C 0.45923 -0.0052 0.63985 0.0
O596 O 0.5169 0.02863 0.63884 0.0
O597 O 0.48276 0.12315 0.5902 0.0
O598 O 0.57544 0.13822 0.59223 0.0
H599 H 0.3208 0.14404 0.53533 0.0
H600 H 0.58765 0.08695 0.798 0.0
O601 O 0.6258 0.21244 0.78398 0.0
H602 H 0.72573 0.08019 0.62797 0.0
H603 H 0.81992 0.32899 0.68809 0.0
H604 H 0.6346 0.23876 0.55371 0.0
H605 H 0.68245 0.14437 0.60809 0.0
H606 H 0.73368 0.23916 0.72857 0.0
O607 O 0.42581 0.01461 0.65802 0.0
H608 H 0.41303 0.16519 0.59509 0.0
H609 H 0.32418 -0.00374 0.69139 0.0
H610 H 0.72471 0.32027 0.50391 0.0
H611 H 0.62924 0.02167 0.81918 0.0
H612 H 0.81475 0.37277 0.57588 0.0
H613 H 0.70009 0.01926 0.73505 0.0
O614 O 0.56757 0.22526 0.67117 0.0
H615 H 0.39419 0.96006 0.88894 0.0
H616 H 0.37074 0.11795 0.77879 0.0
H617 H 0.31357 0.06879 0.88564 0.0
H618 H 0.32454 -0.01116 0.93991 0.0
H619 H 0.45176 0.01175 0.78483 0.0
H620 H 0.23061 -0.02516 0.63421 0.0
H621 H 0.22869 0.04901 0.55566 0.0
O622 O 0.47261 0.17765 0.709 0.0
C623 C 0.52908 0.13028 0.55966 0.0
C624 C 0.32088 0.11217 0.57099 0.0
C625 C 0.27038 0.01687 0.62611 0.0
N626 N 0.37402 0.08245 0.64765 0.0
C627 C 0.373 0.12375 0.60491 0.0
C628 C 0.32348 0.02945 0.65842 0.0
C629 C 0.26927 0.05852 0.58194 0.0
C630 C 0.6178 0.08562 0.76038 0.0
N631 N 0.63472 0.12165 0.70336 0.0
C632 C 0.64135 0.04865 0.77289 0.0
C633 C 0.68115 0.04736 0.72562 0.0
C634 C 0.69582 0.08183 0.66577 0.0
C635 C 0.67156 0.11846 0.6551 0.0
C636 C 0.77933 0.30903 0.65816 0.0
C637 C 0.67521 0.25634 0.58294 0.0
C638 C 0.72902 0.25878 0.68253 0.0
N639 N 0.67632 0.23517 0.64757 0.0
C640 C 0.726 0.30379 0.55463 0.0
C641 C 0.77699 0.33271 0.59458 0.0
C642 C 0.5197 0.22377 0.68946 0.0
C643 C 0.38903 -0.00499 0.86559 0.0
C644 C 0.37703 0.08464 0.8042 0.0
C645 C 0.34422 0.05658 0.86377 0.0
C646 C 0.35001 0.01121 0.89418 0.0
N647 N 0.41413 0.06754 0.77565 0.0
C648 C 0.4216 0.02453 0.8067 0.0
Co649 Co 0.39526 0.62405 0.03377 0.0
Co650 Co 0.31829 0.4709 0.02922 0.0
O651 O 0.37971 0.54692 0.06868 0.0
C652 C 0.34287 0.64175 0.16596 0.0
O653 O 0.292 0.59706 0.14733 0.0
C654 C 0.42817 0.47661 0.98636 0.0
O655 O 0.45216 0.53413 0.98087 0.0
O656 O 0.32738 0.50342 0.93364 0.0
O657 O 0.4008 0.59807 0.93708 0.0
H658 H 0.14345 0.34049 0.87871 0.0
H659 H 0.46483 0.61827 0.15127 0.0
O660 O 0.3896 0.65356 0.13159 0.0
H661 H 0.61166 0.73399 0.97092 0.0
H662 H 0.46839 0.84213 0.05137 0.0
H663 H 0.36391 0.66488 0.90414 0.0
H664 H 0.50443 0.69284 0.9493 0.0
H665 H 0.46299 0.74867 0.08577 0.0
O666 O 0.37564 0.44504 1.00713 0.0
H667 H 0.21571 0.43426 0.93421 0.0
H668 H 0.29103 0.34535 0.0423 0.0
H669 H 0.37128 0.75854 0.8662 0.0
H670 H 0.57121 0.65791 0.17502 0.0
H671 H 0.41827 0.84595 0.94359 0.0
H672 H 0.6454 0.71733 0.08505 0.0
O673 O 0.30925 0.59243 1.01565 0.0
H674 H 0.39461 0.41732 0.23898 0.0
H675 H 0.21639 0.39538 0.12195 0.0
H676 H 0.20598 0.33867 0.23046 0.0
H677 H 0.29533 0.34836 0.2874 0.0
H678 H 0.40287 0.47397 0.13328 0.0
H679 H 0.21768 0.25064 0.98941 0.0
H680 H 0.14338 0.24795 0.9072 0.0
O681 O 0.25996 0.4959 0.0468 0.0
C682 C 0.36332 0.5517 0.90404 0.0
C683 C 0.17471 0.34112 0.91596 0.0
C684 C 0.21686 0.29074 0.97764 0.0
N685 N 0.2571 0.39544 0.99254 0.0
C686 C 0.21593 0.39408 0.94745 0.0
C687 C 0.25807 0.34456 1.00747 0.0
C688 C 0.17503 0.28917 0.93148 0.0
C689 C 0.49696 0.64367 0.11165 0.0
N690 N 0.47885 0.65398 0.04924 0.0
C691 C 0.55705 0.66599 0.12539 0.0
C692 C 0.59863 0.69915 0.07473 0.0
C693 C 0.57969 0.70858 1.0107 0.0
C694 C 0.51914 0.68522 0.99867 0.0
C695 C 0.44577 0.80347 1.01854 0.0
C696 C 0.38778 0.70372 0.93615 0.0
C697 C 0.4421 0.75017 0.03795 0.0
N698 N 0.41112 0.70043 0.99837 0.0
C699 C 0.39127 0.75653 0.91462 0.0
C700 C 0.41851 0.80593 0.95748 0.0
C701 C 0.26177 0.54259 1.02338 0.0
C702 C 0.35514 0.41254 0.21418 0.0
C703 C 0.25515 0.40141 0.14906 0.0
C704 C 0.24911 0.36876 0.20928 0.0
C705 C 0.29944 0.37381 0.24125 0.0
N706 N 0.30972 0.4375 0.12143 0.0
C707 C 0.35946 0.44477 0.1545 0.0
loop_
_geom_bond_atom_site_label_1
_geom_bond_atom_site_label_2
_geom_bond_distance
_geom_bond_site_symmetry_2
_ccdc_geom_bond_type
Co0 O2 2.143 . S
Co0 O8 2.074 . S
Co0 O11 2.093 . S
Co0 O24 2.097 . S
Co0 N41 2.151 . S
Co0 N49 2.214 . S
Co1 O2 2.160 . S
Co1 O7 2.058 . S
Co1 O17 2.057 . S
Co1 O32 2.037 . S
Co1 N36 2.145 . S
Co1 N57 2.257 . S
O2 Co0 2.143 . S
O2 Co1 2.160 . S
C3 O4 1.278 . S
C3 O11 1.224 . S
O4 C3 1.278 . S
C5 O6 1.245 . S
C5 O17 1.232 . S
O6 C5 1.245 . S
O7 Co1 2.058 . S
O7 C33 1.269 . S
O8 Co0 2.074 . S
O8 C33 1.257 . S
H9 C34 0.930 . S
H10 C40 0.930 . S
O11 Co0 2.093 . S
O11 C3 1.224 . S
H12 C44 0.929 . S
H13 C46 0.930 . S
H14 C47 0.930 . S
H15 C45 0.929 . S
H16 C48 0.928 . S
O17 Co1 2.057 . S
O17 C5 1.232 . S
H18 C37 0.929 . S
H19 C38 0.929 . S
H20 C50 0.931 . S
H21 C42 0.929 . S
H22 C51 0.930 . S
H23 C43 0.931 . S
O24 Co0 2.097 . S
O24 C52 1.214 . S
H25 C53 0.929 . S
H26 C54 0.929 . S
H27 C55 0.930 . S
H28 C56 0.929 . S
H29 C58 0.930 . S
H30 C35 0.930 . S
H31 C39 0.930 . S
O32 Co1 2.037 . S
O32 C52 1.234 . S
C33 O7 1.269 . S
C33 O8 1.257 . S
C34 H9 0.930 . S
C34 C37 1.388 . S
C34 C39 1.418 . S
C35 H30 0.930 . S
C35 C38 1.404 . S
C35 C39 1.353 . S
N36 Co1 2.145 . S
N36 C37 1.397 . S
N36 C38 1.334 . S
C37 H18 0.929 . S
C37 C34 1.388 . S
C37 N36 1.397 . S
C38 H19 0.929 . S
C38 C35 1.404 . S
C38 N36 1.334 . S
C39 H31 0.930 . S
C39 C34 1.418 . S
C39 C35 1.353 . S
C40 H10 0.930 . S
C40 N41 1.330 . S
C40 C42 1.446 . S
N41 Co0 2.151 . S
N41 C40 1.330 . S
N41 C45 1.418 . S
C42 H21 0.929 . S
C42 C40 1.446 . S
C42 C43 1.332 . S
C43 H23 0.931 . S
C43 C42 1.332 . S
C43 C44 1.267 . S
C44 H12 0.929 . S
C44 C43 1.267 . S
C44 C45 1.251 . S
C45 H15 0.929 . S
C45 N41 1.418 . S
C45 C44 1.251 . S
C46 H13 0.930 . S
C46 C48 1.406 . S
C46 C51 1.261 . S
C47 H14 0.930 . S
C47 N49 1.325 . S
C47 C50 1.357 . S
C48 H16 0.928 . S
C48 C46 1.406 . S
C48 N49 1.261 . S
N49 Co0 2.214 . S
N49 C47 1.325 . S
N49 C48 1.261 . S
C50 H20 0.931 . S
C50 C47 1.357 . S
C50 C51 1.312 . S
C51 H22 0.930 . S
C51 C46 1.261 . S
C51 C50 1.312 . S
C52 O24 1.214 . S
C52 O32 1.234 . S
C53 H25 0.929 . S
C53 C56 1.391 . S
C53 C58 1.391 . S
C54 H26 0.929 . S
C54 C55 1.390 . S
C54 N57 1.391 . S
C55 H27 0.930 . S
C55 C54 1.390 . S
C55 C56 1.392 . S
C56 H28 0.929 . S
C56 C53 1.391 . S
C56 C55 1.392 . S
N57 Co1 2.257 . S
N57 C54 1.391 . S
N57 C58 1.388 . S
C58 H29 0.930 . S
C58 C53 1.391 . S
C58 N57 1.388 . S
Co59 O61 2.143 . S
Co59 O67 2.074 . S
Co59 O70 2.093 . S
Co59 O83 2.097 . S
Co59 N100 2.151 . S
Co59 N108 2.214 . S
Co60 O61 2.160 . S
Co60 O66 2.058 . S
Co60 O76 2.057 . S
Co60 O91 2.037 . S
Co60 N95 2.145 . S
Co60 N116 2.257 . S
O61 Co59 2.143 . S
O61 Co60 2.160 . S
C62 O63 1.278 . S
C62 O70 1.224 . S
O63 C62 1.278 . S
C64 O65 1.245 . S
C64 O76 1.232 . S
O65 C64 1.245 . S
O66 Co60 2.058 . S
O66 C92 1.269 . S
O67 Co59 2.074 . S
O67 C92 1.257 . S
H68 C93 0.930 . S
H69 C99 0.930 . S
O70 Co59 2.093 . S
O70 C62 1.224 . S
H71 C103 0.929 . S
H72 C105 0.930 . S
H73 C106 0.930 . S
H74 C104 0.929 . S
H75 C107 0.928 . S
O76 Co60 2.057 . S
O76 C64 1.232 . S
H77 C96 0.929 . S
H78 C97 0.929 . S
H79 C109 0.931 . S
H80 C101 0.929 . S
H81 C110 0.930 . S
H82 C102 0.931 . S
O83 Co59 2.097 . S
O83 C111 1.214 . S
H84 C112 0.929 . S
H85 C113 0.929 . S
H86 C114 0.930 . S
H87 C115 0.929 . S
H88 C117 0.930 . S
H89 C94 0.930 . S
H90 C98 0.930 . S
O91 Co60 2.037 . S
O91 C111 1.234 . S
C92 O66 1.269 . S
C92 O67 1.257 . S
C93 H68 0.930 . S
C93 C96 1.388 . S
C93 C98 1.418 . S
C94 H89 0.930 . S
C94 C97 1.404 . S
C94 C98 1.353 . S
N95 Co60 2.145 . S
N95 C96 1.397 . S
N95 C97 1.334 . S
C96 H77 0.929 . S
C96 C93 1.388 . S
C96 N95 1.397 . S
C97 H78 0.929 . S
C97 C94 1.404 . S
C97 N95 1.334 . S
C98 H90 0.930 . S
C98 C93 1.418 . S
C98 C94 1.353 . S
C99 H69 0.930 . S
C99 N100 1.330 . S
C99 C101 1.446 . S
N100 Co59 2.151 . S
N100 C99 1.330 . S
N100 C104 1.418 . S
C101 H80 0.929 . S
C101 C99 1.446 . S
C101 C102 1.332 . S
C102 H82 0.931 . S
C102 C101 1.332 . S
C102 C103 1.267 . S
C103 H71 0.929 . S
C103 C102 1.267 . S
C103 C104 1.251 . S
C104 H74 0.929 . S
C104 N100 1.418 . S
C104 C103 1.251 . S
C105 H72 0.930 . S
C105 C107 1.406 . S
C105 C110 1.261 . S
C106 H73 0.930 . S
C106 N108 1.325 . S
C106 C109 1.357 . S
C107 H75 0.928 . S
C107 C105 1.406 . S
C107 N108 1.261 . S
N108 Co59 2.214 . S
N108 C106 1.325 . S
N108 C107 1.261 . S
C109 H79 0.931 . S
C109 C106 1.357 . S
C109 C110 1.312 . S
C110 H81 0.930 . S
C110 C105 1.261 . S
C110 C109 1.312 . S
C111 O83 1.214 . S
C111 O91 1.234 . S
C112 H84 0.929 . S
C112 C115 1.391 . S
C112 C117 1.391 . S
C113 H85 0.929 . S
C113 C114 1.390 . S
C113 N116 1.391 . S
C114 H86 0.930 . S
C114 C113 1.390 . S
C114 C115 1.392 . S
C115 H87 0.929 . S
C115 C112 1.391 . S
C115 C114 1.392 . S
N116 Co60 2.257 . S
N116 C113 1.391 . S
N116 C117 1.388 . S
C117 H88 0.930 . S
C117 C112 1.391 . S
C117 N116 1.388 . S
Co118 O120 2.143 1_554 S
Co118 O126 2.074 . S
Co118 O129 2.093 1_554 S
Co118 O142 2.097 1_554 S
Co118 N159 2.151 . S
Co118 N167 2.214 . S
Co119 O120 2.160 1_554 S
Co119 O125 2.058 . S
Co119 O135 2.057 1_554 S
Co119 O150 2.037 . S
Co119 N154 2.145 . S
Co119 N175 2.257 1_554 S
O120 Co118 2.143 1_556 S
O120 Co119 2.160 1_556 S
C121 O122 1.278 . S
C121 O129 1.224 . S
O122 C121 1.278 . S
C123 O124 1.245 . S
C123 O135 1.232 . S
O124 C123 1.245 . S
O125 Co119 2.058 . S
O125 C151 1.269 . S
O126 Co118 2.074 . S
O126 C151 1.257 . S
H127 C152 0.930 . S
H128 C158 0.930 . S
O129 Co118 2.093 1_556 S
O129 C121 1.224 . S
H130 C162 0.929 . S
H131 C164 0.930 . S
H132 C165 0.930 . S
H133 C163 0.929 . S
H134 C166 0.928 . S
O135 Co119 2.057 1_556 S
O135 C123 1.232 . S
H136 C155 0.929 . S
H137 C156 0.929 . S
H138 C168 0.931 . S
H139 C160 0.929 1_556 S
H140 C169 0.930 . S
H141 C161 0.931 . S
O142 Co118 2.097 1_556 S
O142 C170 1.214 1_556 S
H143 C171 0.929 . S
H144 C172 0.929 . S
H145 C173 0.930 . S
H146 C174 0.929 . S
H147 C176 0.930 . S
H148 C153 0.930 . S
H149 C157 0.930 . S
O150 Co119 2.037 . S
O150 C170 1.234 . S
C151 O125 1.269 . S
C151 O126 1.257 . S
C152 H127 0.930 . S
C152 C155 1.388 . S
C152 C157 1.418 . S
C153 H148 0.930 . S
C153 C156 1.404 . S
C153 C157 1.353 . S
N154 Co119 2.145 . S
N154 C155 1.397 . S
N154 C156 1.334 . S
C155 H136 0.929 . S
C155 C152 1.388 . S
C155 N154 1.397 . S
C156 H137 0.929 . S
C156 C153 1.404 . S
C156 N154 1.334 . S
C157 H149 0.930 . S
C157 C152 1.418 . S
C157 C153 1.353 . S
C158 H128 0.930 . S
C158 N159 1.330 1_556 S
C158 C160 1.446 1_556 S
N159 Co118 2.151 . S
N159 C158 1.330 1_554 S
N159 C163 1.418 . S
C160 H139 0.929 1_554 S
C160 C158 1.446 1_554 S
C160 C161 1.332 . S
C161 H141 0.931 . S
C161 C160 1.332 . S
C161 C162 1.267 . S
C162 H130 0.929 . S
C162 C161 1.267 . S
C162 C163 1.251 . S
C163 H133 0.929 . S
C163 N159 1.418 . S
C163 C162 1.251 . S
C164 H131 0.930 . S
C164 C166 1.406 . S
C164 C169 1.261 . S
C165 H132 0.930 . S
C165 N167 1.325 . S
C165 C168 1.357 . S
C166 H134 0.928 . S
C166 C164 1.406 . S
C166 N167 1.261 . S
N167 Co118 2.214 . S
N167 C165 1.325 . S
N167 C166 1.261 . S
C168 H138 0.931 . S
C168 C165 1.357 . S
C168 C169 1.312 . S
C169 H140 0.930 . S
C169 C164 1.261 . S
C169 C168 1.312 . S
C170 O142 1.214 1_554 S
C170 O150 1.234 . S
C171 H143 0.929 . S
C171 C174 1.391 . S
C171 C176 1.391 . S
C172 H144 0.929 . S
C172 C173 1.390 . S
C172 N175 1.391 . S
C173 H145 0.930 . S
C173 C172 1.390 . S
C173 C174 1.392 . S
C174 H146 0.929 . S
C174 C171 1.391 . S
C174 C173 1.392 . S
N175 Co119 2.257 1_556 S
N175 C172 1.391 . S
N175 C176 1.388 . S
C176 H147 0.930 . S
C176 C171 1.391 . S
C176 N175 1.388 . S
Co177 O179 2.143 . S
Co177 O185 2.074 . S
Co177 O188 2.093 . S
Co177 O201 2.097 . S
Co177 N218 2.151 . S
Co177 N226 2.214 . S
Co178 O179 2.160 . S
Co178 O184 2.058 . S
Co178 O194 2.057 . S
Co178 O209 2.037 . S
Co178 N213 2.145 . S
Co178 N234 2.257 . S
O179 Co177 2.143 . S
O179 Co178 2.160 . S
C180 O181 1.278 . S
C180 O188 1.224 . S
O181 C180 1.278 . S
C182 O183 1.245 . S
C182 O194 1.232 . S
O183 C182 1.245 . S
O184 Co178 2.058 . S
O184 C210 1.269 . S
O185 Co177 2.074 . S
O185 C210 1.257 . S
H186 C211 0.930 . S
H187 C217 0.930 . S
O188 Co177 2.093 . S
O188 C180 1.224 . S
H189 C221 0.929 . S
H190 C223 0.930 . S
H191 C224 0.930 . S
H192 C222 0.929 . S
H193 C225 0.928 . S
O194 Co178 2.057 . S
O194 C182 1.232 . S
H195 C214 0.929 . S
H196 C215 0.929 . S
H197 C227 0.931 . S
H198 C219 0.929 . S
H199 C228 0.930 . S
H200 C220 0.931 . S
O201 Co177 2.097 . S
O201 C229 1.214 . S
H202 C230 0.929 . S
H203 C231 0.929 . S
H204 C232 0.930 . S
H205 C233 0.929 . S
H206 C235 0.930 . S
H207 C212 0.930 . S
H208 C216 0.930 . S
O209 Co178 2.037 . S
O209 C229 1.234 . S
C210 O184 1.269 . S
C210 O185 1.257 . S
C211 H186 0.930 . S
C211 C214 1.388 . S
C211 C216 1.418 . S
C212 H207 0.930 . S
C212 C215 1.404 . S
C212 C216 1.353 . S
N213 Co178 2.145 . S
N213 C214 1.397 . S
N213 C215 1.334 . S
C214 H195 0.929 . S
C214 C211 1.388 . S
C214 N213 1.397 . S
C215 H196 0.929 . S
C215 C212 1.404 . S
C215 N213 1.334 . S
C216 H208 0.930 . S
C216 C211 1.418 . S
C216 C212 1.353 . S
C217 H187 0.930 . S
C217 N218 1.330 . S
C217 C219 1.446 . S
N218 Co177 2.151 . S
N218 C217 1.330 . S
N218 C222 1.418 . S
C219 H198 0.929 . S
C219 C217 1.446 . S
C219 C220 1.332 . S
C220 H200 0.931 . S
C220 C219 1.332 . S
C220 C221 1.267 . S
C221 H189 0.929 . S
C221 C220 1.267 . S
C221 C222 1.251 . S
C222 H192 0.929 . S
C222 N218 1.418 . S
C222 C221 1.251 . S
C223 H190 0.930 . S
C223 C225 1.406 . S
C223 C228 1.261 . S
C224 H191 0.930 . S
C224 N226 1.325 . S
C224 C227 1.357 . S
C225 H193 0.928 . S
C225 C223 1.406 . S
C225 N226 1.261 . S
N226 Co177 2.214 . S
N226 C224 1.325 . S
N226 C225 1.261 . S
C227 H197 0.931 . S
C227 C224 1.357 . S
C227 C228 1.312 . S
C228 H199 0.930 . S
C228 C223 1.261 . S
C228 C227 1.312 . S
C229 O201 1.214 . S
C229 O209 1.234 . S
C230 H202 0.929 . S
C230 C233 1.391 . S
C230 C235 1.391 . S
C231 H203 0.929 . S
C231 C232 1.390 . S
C231 N234 1.391 . S
C232 H204 0.930 . S
C232 C231 1.390 . S
C232 C233 1.392 . S
C233 H205 0.929 . S
C233 C230 1.391 . S
C233 C232 1.392 . S
N234 Co178 2.257 . S
N234 C231 1.391 . S
N234 C235 1.388 . S
C235 H206 0.930 . S
C235 C230 1.391 . S
C235 N234 1.388 . S
Co236 O238 2.143 . S
Co236 O244 2.074 . S
Co236 O247 2.093 . S
Co236 O260 2.097 . S
Co236 N277 2.151 . S
Co236 N285 2.214 . S
Co237 O238 2.160 . S
Co237 O243 2.058 . S
Co237 O253 2.057 . S
Co237 O268 2.037 . S
Co237 N272 2.145 . S
Co237 N293 2.257 . S
O238 Co236 2.143 . S
O238 Co237 2.160 . S
C239 O240 1.278 . S
C239 O247 1.224 . S
O240 C239 1.278 . S
C241 O242 1.245 . S
C241 O253 1.232 . S
O242 C241 1.245 . S
O243 Co237 2.058 . S
O243 C269 1.269 . S
O244 Co236 2.074 . S
O244 C269 1.257 . S
H245 C270 0.930 . S
H246 C276 0.930 . S
O247 Co236 2.093 . S
O247 C239 1.224 . S
H248 C280 0.929 . S
H249 C282 0.930 . S
H250 C283 0.930 . S
H251 C281 0.929 . S
H252 C284 0.928 . S
O253 Co237 2.057 . S
O253 C241 1.232 . S
H254 C273 0.929 . S
H255 C274 0.929 . S
H256 C286 0.931 . S
H257 C278 0.929 . S
H258 C287 0.930 . S
H259 C279 0.931 . S
O260 Co236 2.097 . S
O260 C288 1.214 . S
H261 C289 0.929 . S
H262 C290 0.929 . S
H263 C291 0.930 . S
H264 C292 0.929 . S
H265 C294 0.930 . S
H266 C271 0.930 . S
H267 C275 0.930 . S
O268 Co237 2.037 . S
O268 C288 1.234 . S
C269 O243 1.269 . S
C269 O244 1.257 . S
C270 H245 0.930 . S
C270 C273 1.388 . S
C270 C275 1.418 . S
C271 H266 0.930 . S
C271 C274 1.404 . S
C271 C275 1.353 . S
N272 Co237 2.145 . S
N272 C273 1.397 . S
N272 C274 1.334 . S
C273 H254 0.929 . S
C273 C270 1.388 . S
C273 N272 1.397 . S
C274 H255 0.929 . S
C274 C271 1.404 . S
C274 N272 1.334 . S
C275 H267 0.930 . S
C275 C270 1.418 . S
C275 C271 1.353 . S
C276 H246 0.930 . S
C276 N277 1.330 . S
C276 C278 1.446 . S
N277 Co236 2.151 . S
N277 C276 1.330 . S
N277 C281 1.418 . S
C278 H257 0.929 . S
C278 C276 1.446 . S
C278 C279 1.332 . S
C279 H259 0.931 . S
C279 C278 1.332 . S
C279 C280 1.267 . S
C280 H248 0.929 . S
C280 C279 1.267 . S
C280 C281 1.251 . S
C281 H251 0.929 . S
C281 N277 1.418 . S
C281 C280 1.251 . S
C282 H249 0.930 . S
C282 C284 1.406 . S
C282 C287 1.261 . S
C283 H250 0.930 . S
C283 N285 1.325 . S
C283 C286 1.357 . S
C284 H252 0.928 . S
C284 C282 1.406 . S
C284 N285 1.261 . S
N285 Co236 2.214 . S
N285 C283 1.325 . S
N285 C284 1.261 . S
C286 H256 0.931 . S
C286 C283 1.357 . S
C286 C287 1.312 . S
C287 H258 0.930 . S
C287 C282 1.261 . S
C287 C286 1.312 . S
C288 O260 1.214 . S
C288 O268 1.234 . S
C289 H261 0.929 . S
C289 C292 1.391 . S
C289 C294 1.391 . S
C290 H262 0.929 . S
C290 C291 1.390 . S
C290 N293 1.391 . S
C291 H263 0.930 . S
C291 C290 1.390 . S
C291 C292 1.392 . S
C292 H264 0.929 . S
C292 C289 1.391 . S
C292 C291 1.392 . S
N293 Co237 2.257 . S
N293 C290 1.391 . S
N293 C294 1.388 . S
C294 H265 0.930 . S
C294 C289 1.391 . S
C294 N293 1.388 . S
Co295 O297 2.143 1_554 S
Co295 O303 2.074 . S
Co295 O306 2.093 1_554 S
Co295 O319 2.097 1_554 S
Co295 N336 2.151 . S
Co295 N344 2.214 . S
Co296 O297 2.160 1_554 S
Co296 O302 2.058 . S
Co296 O312 2.057 1_554 S
Co296 O327 2.037 . S
Co296 N331 2.145 . S
Co296 N352 2.257 1_554 S
O297 Co295 2.143 1_556 S
O297 Co296 2.160 1_556 S
C298 O299 1.278 . S
C298 O306 1.224 . S
O299 C298 1.278 . S
C300 O301 1.245 . S
C300 O312 1.232 . S
O301 C300 1.245 . S
O302 Co296 2.058 . S
O302 C328 1.269 . S
O303 Co295 2.074 . S
O303 C328 1.257 . S
H304 C329 0.930 . S
H305 C335 0.930 . S
O306 Co295 2.093 1_556 S
O306 C298 1.224 . S
H307 C339 0.929 . S
H308 C341 0.930 . S
H309 C342 0.930 . S
H310 C340 0.929 . S
H311 C343 0.928 . S
O312 Co296 2.057 1_556 S
O312 C300 1.232 . S
H313 C332 0.929 . S
H314 C333 0.929 . S
H315 C345 0.931 . S
H316 C337 0.929 1_556 S
H317 C346 0.930 . S
H318 C338 0.931 . S
O319 Co295 2.097 1_556 S
O319 C347 1.214 1_556 S
H320 C348 0.929 . S
H321 C349 0.929 . S
H322 C350 0.930 . S
H323 C351 0.929 . S
H324 C353 0.930 . S
H325 C330 0.930 . S
H326 C334 0.930 . S
O327 Co296 2.037 . S
O327 C347 1.234 . S
C328 O302 1.269 . S
C328 O303 1.257 . S
C329 H304 0.930 . S
C329 C332 1.388 . S
C329 C334 1.418 . S
C330 H325 0.930 . S
C330 C333 1.404 . S
C330 C334 1.353 . S
N331 Co296 2.145 . S
N331 C332 1.397 . S
N331 C333 1.334 . S
C332 H313 0.929 . S
C332 C329 1.388 . S
C332 N331 1.397 . S
C333 H314 0.929 . S
C333 C330 1.404 . S
C333 N331 1.334 . S
C334 H326 0.930 . S
C334 C329 1.418 . S
C334 C330 1.353 . S
C335 H305 0.930 . S
C335 N336 1.330 1_556 S
C335 C337 1.446 1_556 S
N336 Co295 2.151 . S
N336 C335 1.330 1_554 S
N336 C340 1.418 . S
C337 H316 0.929 1_554 S
C337 C335 1.446 1_554 S
C337 C338 1.332 . S
C338 H318 0.931 . S
C338 C337 1.332 . S
C338 C339 1.267 . S
C339 H307 0.929 . S
C339 C338 1.267 . S
C339 C340 1.251 . S
C340 H310 0.929 . S
C340 N336 1.418 . S
C340 C339 1.251 . S
C341 H308 0.930 . S
C341 C343 1.406 . S
C341 C346 1.261 . S
C342 H309 0.930 . S
C342 N344 1.325 . S
C342 C345 1.357 . S
C343 H311 0.928 . S
C343 C341 1.406 . S
C343 N344 1.261 . S
N344 Co295 2.214 . S
N344 C342 1.325 . S
N344 C343 1.261 . S
C345 H315 0.931 . S
C345 C342 1.357 . S
C345 C346 1.312 . S
C346 H317 0.930 . S
C346 C341 1.261 . S
C346 C345 1.312 . S
C347 O319 1.214 1_554 S
C347 O327 1.234 . S
C348 H320 0.929 . S
C348 C351 1.391 . S
C348 C353 1.391 . S
C349 H321 0.929 . S
C349 C350 1.390 . S
C349 N352 1.391 . S
C350 H322 0.930 . S
C350 C349 1.390 . S
C350 C351 1.392 . S
C351 H323 0.929 . S
C351 C348 1.391 . S
C351 C350 1.392 . S
N352 Co296 2.257 1_556 S
N352 C349 1.391 . S
N352 C353 1.388 . S
C353 H324 0.930 . S
C353 C348 1.391 . S
C353 N352 1.388 . S
Co354 O356 2.143 . S
Co354 O362 2.074 . S
Co354 O365 2.093 . S
Co354 O378 2.097 . S
Co354 N395 2.151 . S
Co354 N403 2.214 . S
Co355 O356 2.160 . S
Co355 O361 2.058 . S
Co355 O371 2.057 . S
Co355 O386 2.037 . S
Co355 N390 2.145 . S
Co355 N411 2.257 . S
O356 Co354 2.143 . S
O356 Co355 2.160 . S
C357 O358 1.278 . S
C357 O365 1.224 . S
O358 C357 1.278 . S
C359 O360 1.245 . S
C359 O371 1.232 . S
O360 C359 1.245 . S
O361 Co355 2.058 . S
O361 C387 1.269 . S
O362 Co354 2.074 . S
O362 C387 1.257 . S
H363 C388 0.930 . S
H364 C394 0.930 . S
O365 Co354 2.093 . S
O365 C357 1.224 . S
H366 C398 0.929 . S
H367 C400 0.930 . S
H368 C401 0.930 . S
H369 C399 0.929 . S
H370 C402 0.928 . S
O371 Co355 2.057 . S
O371 C359 1.232 . S
H372 C391 0.929 . S
H373 C392 0.929 . S
H374 C404 0.931 . S
H375 C396 0.929 . S
H376 C405 0.930 . S
H377 C397 0.931 . S
O378 Co354 2.097 . S
O378 C406 1.214 . S
H379 C407 0.929 . S
H380 C408 0.929 . S
H381 C409 0.930 . S
H382 C410 0.929 . S
H383 C412 0.930 . S
H384 C389 0.930 . S
H385 C393 0.930 . S
O386 Co355 2.037 . S
O386 C406 1.234 . S
C387 O361 1.269 . S
C387 O362 1.257 . S
C388 H363 0.930 . S
C388 C391 1.388 . S
C388 C393 1.418 . S
C389 H384 0.930 . S
C389 C392 1.404 . S
C389 C393 1.353 . S
N390 Co355 2.145 . S
N390 C391 1.397 . S
N390 C392 1.334 . S
C391 H372 0.929 . S
C391 C388 1.388 . S
C391 N390 1.397 . S
C392 H373 0.929 . S
C392 C389 1.404 . S
C392 N390 1.334 . S
C393 H385 0.930 . S
C393 C388 1.418 . S
C393 C389 1.353 . S
C394 H364 0.930 . S
C394 N395 1.330 . S
C394 C396 1.446 . S
N395 Co354 2.151 . S
N395 C394 1.330 . S
N395 C399 1.418 . S
C396 H375 0.929 . S
C396 C394 1.446 . S
C396 C397 1.332 . S
C397 H377 0.931 . S
C397 C396 1.332 . S
C397 C398 1.267 . S
C398 H366 0.929 . S
C398 C397 1.267 . S
C398 C399 1.251 . S
C399 H369 0.929 . S
C399 N395 1.418 . S
C399 C398 1.251 . S
C400 H367 0.930 . S
C400 C402 1.406 . S
C400 C405 1.261 . S
C401 H368 0.930 . S
C401 N403 1.325 . S
C401 C404 1.357 . S
C402 H370 0.928 . S
C402 C400 1.406 . S
C402 N403 1.261 . S
N403 Co354 2.214 . S
N403 C401 1.325 . S
N403 C402 1.261 . S
C404 H374 0.931 . S
C404 C401 1.357 . S
C404 C405 1.312 . S
C405 H376 0.930 . S
C405 C400 1.261 . S
C405 C404 1.312 . S
C406 O378 1.214 . S
C406 O386 1.234 . S
C407 H379 0.929 . S
C407 C410 1.391 . S
C407 C412 1.391 . S
C408 H380 0.929 . S
C408 C409 1.390 . S
C408 N411 1.391 . S
C409 H381 0.930 . S
C409 C408 1.390 . S
C409 C410 1.392 . S
C410 H382 0.929 . S
C410 C407 1.391 . S
C410 C409 1.392 . S
N411 Co355 2.257 . S
N411 C408 1.391 . S
N411 C412 1.388 . S
C412 H383 0.930 . S
C412 C407 1.391 . S
C412 N411 1.388 . S
Co413 O415 2.143 . S
Co413 O421 2.074 . S
Co413 O424 2.093 . S
Co413 O437 2.097 . S
Co413 N454 2.151 . S
Co413 N462 2.214 . S
Co414 O415 2.160 . S
Co414 O420 2.058 . S
Co414 O430 2.057 . S
Co414 O445 2.037 . S
Co414 N449 2.145 . S
Co414 N470 2.257 . S
O415 Co413 2.143 . S
O415 Co414 2.160 . S
C416 O417 1.278 . S
C416 O424 1.224 . S
O417 C416 1.278 . S
C418 O419 1.245 . S
C418 O430 1.232 . S
O419 C418 1.245 . S
O420 Co414 2.058 . S
O420 C446 1.269 . S
O421 Co413 2.074 . S
O421 C446 1.257 . S
H422 C447 0.930 . S
H423 C453 0.930 . S
O424 Co413 2.093 . S
O424 C416 1.224 . S
H425 C457 0.929 . S
H426 C459 0.930 . S
H427 C460 0.930 . S
H428 C458 0.929 . S
H429 C461 0.928 . S
O430 Co414 2.057 . S
O430 C418 1.232 . S
H431 C450 0.929 . S
H432 C451 0.929 . S
H433 C463 0.931 . S
H434 C455 0.929 . S
H435 C464 0.930 . S
H436 C456 0.931 . S
O437 Co413 2.097 . S
O437 C465 1.214 . S
H438 C466 0.929 . S
H439 C467 0.929 . S
H440 C468 0.930 . S
H441 C469 0.929 . S
H442 C471 0.930 . S
H443 C448 0.930 . S
H444 C452 0.930 . S
O445 Co414 2.037 . S
O445 C465 1.234 . S
C446 O420 1.269 . S
C446 O421 1.257 . S
C447 H422 0.930 . S
C447 C450 1.388 . S
C447 C452 1.418 . S
C448 H443 0.930 . S
C448 C451 1.404 . S
C448 C452 1.353 . S
N449 Co414 2.145 . S
N449 C450 1.397 . S
N449 C451 1.334 . S
C450 H431 0.929 . S
C450 C447 1.388 . S
C450 N449 1.397 . S
C451 H432 0.929 . S
C451 C448 1.404 . S
C451 N449 1.334 . S
C452 H444 0.930 . S
C452 C447 1.418 . S
C452 C448 1.353 . S
C453 H423 0.930 . S
C453 N454 1.330 . S
C453 C455 1.446 . S
N454 Co413 2.151 . S
N454 C453 1.330 . S
N454 C458 1.418 . S
C455 H434 0.929 . S
C455 C453 1.446 . S
C455 C456 1.332 . S
C456 H436 0.931 . S
C456 C455 1.332 . S
C456 C457 1.267 . S
C457 H425 0.929 . S
C457 C456 1.267 . S
C457 C458 1.251 . S
C458 H428 0.929 . S
C458 N454 1.418 . S
C458 C457 1.251 . S
C459 H426 0.930 . S
C459 C461 1.406 . S
C459 C464 1.261 . S
C460 H427 0.930 . S
C460 N462 1.325 . S
C460 C463 1.357 . S
C461 H429 0.928 . S
C461 C459 1.406 . S
C461 N462 1.261 . S
N462 Co413 2.214 . S
N462 C460 1.325 . S
N462 C461 1.261 . S
C463 H433 0.931 . S
C463 C460 1.357 . S
C463 C464 1.312 . S
C464 H435 0.930 . S
C464 C459 1.261 . S
C464 C463 1.312 . S
C465 O437 1.214 . S
C465 O445 1.234 . S
C466 H438 0.929 . S
C466 C469 1.391 . S
C466 C471 1.391 . S
C467 H439 0.929 . S
C467 C468 1.390 . S
C467 N470 1.391 . S
C468 H440 0.930 . S
C468 C467 1.390 . S
C468 C469 1.392 . S
C469 H441 0.929 . S
C469 C466 1.391 . S
C469 C468 1.392 . S
N470 Co414 2.257 . S
N470 C467 1.391 . S
N470 C471 1.388 . S
C471 H442 0.930 . S
C471 C466 1.391 . S
C471 N470 1.388 . S
Co472 O474 2.143 1_556 S
Co472 O480 2.074 . S
Co472 O483 2.093 1_556 S
Co472 O496 2.097 1_556 S
Co472 N513 2.151 . S
Co472 N521 2.214 . S
Co473 O474 2.160 1_556 S
Co473 O479 2.058 . S
Co473 O489 2.057 1_556 S
Co473 O504 2.037 . S
Co473 N508 2.145 . S
Co473 N529 2.257 1_556 S
O474 Co472 2.143 1_554 S
O474 Co473 2.160 1_554 S
C475 O476 1.278 . S
C475 O483 1.224 . S
O476 C475 1.278 . S
C477 O478 1.245 . S
C477 O489 1.232 . S
O478 C477 1.245 . S
O479 Co473 2.058 . S
O479 C505 1.269 . S
O480 Co472 2.074 . S
O480 C505 1.257 . S
H481 C506 0.930 . S
H482 C512 0.930 . S
O483 Co472 2.093 1_554 S
O483 C475 1.224 . S
H484 C516 0.929 . S
H485 C518 0.930 . S
H486 C519 0.930 . S
H487 C517 0.929 . S
H488 C520 0.928 . S
O489 Co473 2.057 1_554 S
O489 C477 1.232 . S
H490 C509 0.929 . S
H491 C510 0.929 . S
H492 C522 0.931 . S
H493 C514 0.929 1_554 S
H494 C523 0.930 . S
H495 C515 0.931 . S
O496 Co472 2.097 1_554 S
O496 C524 1.214 1_554 S
H497 C525 0.929 . S
H498 C526 0.929 . S
H499 C527 0.930 . S
H500 C528 0.929 . S
H501 C530 0.930 . S
H502 C507 0.930 . S
H503 C511 0.930 . S
O504 Co473 2.037 . S
O504 C524 1.234 . S
C505 O479 1.269 . S
C505 O480 1.257 . S
C506 H481 0.930 . S
C506 C509 1.388 . S
C506 C511 1.418 . S
C507 H502 0.930 . S
C507 C510 1.404 . S
C507 C511 1.353 . S
N508 Co473 2.145 . S
N508 C509 1.397 . S
N508 C510 1.334 . S
C509 H490 0.929 . S
C509 C506 1.388 . S
C509 N508 1.397 . S
C510 H491 0.929 . S
C510 C507 1.404 . S
C510 N508 1.334 . S
C511 H503 0.930 . S
C511 C506 1.418 . S
C511 C507 1.353 . S
C512 H482 0.930 . S
C512 N513 1.330 1_554 S
C512 C514 1.446 1_554 S
N513 Co472 2.151 . S
N513 C512 1.330 1_556 S
N513 C517 1.418 . S
C514 H493 0.929 1_556 S
C514 C512 1.446 1_556 S
C514 C515 1.332 . S
C515 H495 0.931 . S
C515 C514 1.332 . S
C515 C516 1.267 . S
C516 H484 0.929 . S
C516 C515 1.267 . S
C516 C517 1.251 . S
C517 H487 0.929 . S
C517 N513 1.418 . S
C517 C516 1.251 . S
C518 H485 0.930 . S
C518 C520 1.406 . S
C518 C523 1.261 . S
C519 H486 0.930 . S
C519 N521 1.325 . S
C519 C522 1.357 . S
C520 H488 0.928 . S
C520 C518 1.406 . S
C520 N521 1.261 . S
N521 Co472 2.214 . S
N521 C519 1.325 . S
N521 C520 1.261 . S
C522 H492 0.931 . S
C522 C519 1.357 . S
C522 C523 1.312 . S
C523 H494 0.930 . S
C523 C518 1.261 . S
C523 C522 1.312 . S
C524 O496 1.214 1_556 S
C524 O504 1.234 . S
C525 H497 0.929 . S
C525 C528 1.391 . S
C525 C530 1.391 . S
C526 H498 0.929 . S
C526 C527 1.390 . S
C526 N529 1.391 . S
C527 H499 0.930 . S
C527 C526 1.390 . S
C527 C528 1.392 . S
C528 H500 0.929 . S
C528 C525 1.391 . S
C528 C527 1.392 . S
N529 Co473 2.257 1_554 S
N529 C526 1.391 . S
N529 C530 1.388 . S
C530 H501 0.930 . S
C530 C525 1.391 . S
C530 N529 1.388 . S
Co531 O533 2.143 . S
Co531 O539 2.074 . S
Co531 O542 2.093 . S
Co531 O555 2.097 . S
Co531 N572 2.151 . S
Co531 N580 2.214 . S
Co532 O533 2.160 . S
Co532 O538 2.058 . S
Co532 O548 2.057 . S
Co532 O563 2.037 . S
Co532 N567 2.145 . S
Co532 N588 2.257 . S
O533 Co531 2.143 . S
O533 Co532 2.160 . S
C534 O535 1.278 . S
C534 O542 1.224 . S
O535 C534 1.278 . S
C536 O537 1.245 . S
C536 O548 1.232 . S
O537 C536 1.245 . S
O538 Co532 2.058 . S
O538 C564 1.269 . S
O539 Co531 2.074 . S
O539 C564 1.257 . S
H540 C565 0.930 . S
H541 C571 0.930 . S
O542 Co531 2.093 . S
O542 C534 1.224 . S
H543 C575 0.929 . S
H544 C577 0.930 . S
H545 C578 0.930 . S
H546 C576 0.929 . S
H547 C579 0.928 . S
O548 Co532 2.057 . S
O548 C536 1.232 . S
H549 C568 0.929 . S
H550 C569 0.929 . S
H551 C581 0.931 . S
H552 C573 0.929 . S
H553 C582 0.930 . S
H554 C574 0.931 . S
O555 Co531 2.097 . S
O555 C583 1.214 . S
H556 C584 0.929 . S
H557 C585 0.929 . S
H558 C586 0.930 . S
H559 C587 0.929 . S
H560 C589 0.930 . S
H561 C566 0.930 . S
H562 C570 0.930 . S
O563 Co532 2.037 . S
O563 C583 1.234 . S
C564 O538 1.269 . S
C564 O539 1.257 . S
C565 H540 0.930 . S
C565 C568 1.388 . S
C565 C570 1.418 . S
C566 H561 0.930 . S
C566 C569 1.404 . S
C566 C570 1.353 . S
N567 Co532 2.145 . S
N567 C568 1.397 . S
N567 C569 1.334 . S
C568 H549 0.929 . S
C568 C565 1.388 . S
C568 N567 1.397 . S
C569 H550 0.929 . S
C569 C566 1.404 . S
C569 N567 1.334 . S
C570 H562 0.930 . S
C570 C565 1.418 . S
C570 C566 1.353 . S
C571 H541 0.930 . S
C571 N572 1.330 . S
C571 C573 1.446 . S
N572 Co531 2.151 . S
N572 C571 1.330 . S
N572 C576 1.418 . S
C573 H552 0.929 . S
C573 C571 1.446 . S
C573 C574 1.332 . S
C574 H554 0.931 . S
C574 C573 1.332 . S
C574 C575 1.267 . S
C575 H543 0.929 . S
C575 C574 1.267 . S
C575 C576 1.251 . S
C576 H546 0.929 . S
C576 N572 1.418 . S
C576 C575 1.251 . S
C577 H544 0.930 . S
C577 C579 1.406 . S
C577 C582 1.261 . S
C578 H545 0.930 . S
C578 N580 1.325 . S
C578 C581 1.357 . S
C579 H547 0.928 . S
C579 C577 1.406 . S
C579 N580 1.261 . S
N580 Co531 2.214 . S
N580 C578 1.325 . S
N580 C579 1.261 . S
C581 H551 0.931 . S
C581 C578 1.357 . S
C581 C582 1.312 . S
C582 H553 0.930 . S
C582 C577 1.261 . S
C582 C581 1.312 . S
C583 O555 1.214 . S
C583 O563 1.234 . S
C584 H556 0.929 . S
C584 C587 1.391 . S
C584 C589 1.391 . S
C585 H557 0.929 . S
C585 C586 1.390 . S
C585 N588 1.391 . S
C586 H558 0.930 . S
C586 C585 1.390 . S
C586 C587 1.392 . S
C587 H559 0.929 . S
C587 C584 1.391 . S
C587 C586 1.392 . S
N588 Co532 2.257 . S
N588 C585 1.391 . S
N588 C589 1.388 . S
C589 H560 0.930 . S
C589 C584 1.391 . S
C589 N588 1.388 . S
Co590 O592 2.143 . S
Co590 O598 2.074 . S
Co590 O601 2.093 . S
Co590 O614 2.097 . S
Co590 N631 2.151 . S
Co590 N639 2.214 . S
Co591 O592 2.160 . S
Co591 O597 2.058 . S
Co591 O607 2.057 . S
Co591 O622 2.037 . S
Co591 N626 2.145 . S
Co591 N647 2.257 . S
O592 Co590 2.143 . S
O592 Co591 2.160 . S
C593 O594 1.278 . S
C593 O601 1.224 . S
O594 C593 1.278 . S
C595 O596 1.245 . S
C595 O607 1.232 . S
O596 C595 1.245 . S
O597 Co591 2.058 . S
O597 C623 1.269 . S
O598 Co590 2.074 . S
O598 C623 1.257 . S
H599 C624 0.930 . S
H600 C630 0.930 . S
O601 Co590 2.093 . S
O601 C593 1.224 . S
H602 C634 0.929 . S
H603 C636 0.930 . S
H604 C637 0.930 . S
H605 C635 0.929 . S
H606 C638 0.928 . S
O607 Co591 2.057 . S
O607 C595 1.232 . S
H608 C627 0.929 . S
H609 C628 0.929 . S
H610 C640 0.931 . S
H611 C632 0.929 . S
H612 C641 0.930 . S
H613 C633 0.931 . S
O614 Co590 2.097 . S
O614 C642 1.214 . S
H615 C643 0.929 . S
H616 C644 0.929 . S
H617 C645 0.930 . S
H618 C646 0.929 . S
H619 C648 0.930 . S
H620 C625 0.930 . S
H621 C629 0.930 . S
O622 Co591 2.037 . S
O622 C642 1.234 . S
C623 O597 1.269 . S
C623 O598 1.257 . S
C624 H599 0.930 . S
C624 C627 1.388 . S
C624 C629 1.418 . S
C625 H620 0.930 . S
C625 C628 1.404 . S
C625 C629 1.353 . S
N626 Co591 2.145 . S
N626 C627 1.397 . S
N626 C628 1.334 . S
C627 H608 0.929 . S
C627 C624 1.388 . S
C627 N626 1.397 . S
C628 H609 0.929 . S
C628 C625 1.404 . S
C628 N626 1.334 . S
C629 H621 0.930 . S
C629 C624 1.418 . S
C629 C625 1.353 . S
C630 H600 0.930 . S
C630 N631 1.330 . S
C630 C632 1.446 . S
N631 Co590 2.151 . S
N631 C630 1.330 . S
N631 C635 1.418 . S
C632 H611 0.929 . S
C632 C630 1.446 . S
C632 C633 1.332 . S
C633 H613 0.931 . S
C633 C632 1.332 . S
C633 C634 1.267 . S
C634 H602 0.929 . S
C634 C633 1.267 . S
C634 C635 1.251 . S
C635 H605 0.929 . S
C635 N631 1.418 . S
C635 C634 1.251 . S
C636 H603 0.930 . S
C636 C638 1.406 . S
C636 C641 1.261 . S
C637 H604 0.930 . S
C637 N639 1.325 . S
C637 C640 1.357 . S
C638 H606 0.928 . S
C638 C636 1.406 . S
C638 N639 1.261 . S
N639 Co590 2.214 . S
N639 C637 1.325 . S
N639 C638 1.261 . S
C640 H610 0.931 . S
C640 C637 1.357 . S
C640 C641 1.312 . S
C641 H612 0.930 . S
C641 C636 1.261 . S
C641 C640 1.312 . S
C642 O614 1.214 . S
C642 O622 1.234 . S
C643 H615 0.929 . S
C643 C646 1.391 . S
C643 C648 1.391 . S
C644 H616 0.929 . S
C644 C645 1.390 . S
C644 N647 1.391 . S
C645 H617 0.930 . S
C645 C644 1.390 . S
C645 C646 1.392 . S
C646 H618 0.929 . S
C646 C643 1.391 . S
C646 C645 1.392 . S
N647 Co591 2.257 . S
N647 C644 1.391 . S
N647 C648 1.388 . S
C648 H619 0.930 . S
C648 C643 1.391 . S
C648 N647 1.388 . S
Co649 O651 2.143 1_556 S
Co649 O657 2.074 . S
Co649 O660 2.093 1_556 S
Co649 O673 2.097 1_556 S
Co649 N690 2.151 . S
Co649 N698 2.214 . S
Co650 O651 2.160 1_556 S
Co650 O656 2.058 . S
Co650 O666 2.057 1_556 S
Co650 O681 2.037 . S
Co650 N685 2.145 . S
Co650 N706 2.257 1_556 S
O651 Co649 2.143 1_554 S
O651 Co650 2.160 1_554 S
C652 O653 1.278 . S
C652 O660 1.224 . S
O653 C652 1.278 . S
C654 O655 1.245 . S
C654 O666 1.232 . S
O655 C654 1.245 . S
O656 Co650 2.058 . S
O656 C682 1.269 . S
O657 Co649 2.074 . S
O657 C682 1.257 . S
H658 C683 0.930 . S
H659 C689 0.930 . S
O660 Co649 2.093 1_554 S
O660 C652 1.224 . S
H661 C693 0.929 . S
H662 C695 0.930 . S
H663 C696 0.930 . S
H664 C694 0.929 . S
H665 C697 0.928 . S
O666 Co650 2.057 1_554 S
O666 C654 1.232 . S
H667 C686 0.929 . S
H668 C687 0.929 . S
H669 C699 0.931 . S
H670 C691 0.929 1_554 S
H671 C700 0.930 . S
H672 C692 0.931 . S
O673 Co649 2.097 1_554 S
O673 C701 1.214 1_554 S
H674 C702 0.929 . S
H675 C703 0.929 . S
H676 C704 0.930 . S
H677 C705 0.929 . S
H678 C707 0.930 . S
H679 C684 0.930 . S
H680 C688 0.930 . S
O681 Co650 2.037 . S
O681 C701 1.234 . S
C682 O656 1.269 . S
C682 O657 1.257 . S
C683 H658 0.930 . S
C683 C686 1.388 . S
C683 C688 1.418 . S
C684 H679 0.930 . S
C684 C687 1.404 . S
C684 C688 1.353 . S
N685 Co650 2.145 . S
N685 C686 1.397 . S
N685 C687 1.334 . S
C686 H667 0.929 . S
C686 C683 1.388 . S
C686 N685 1.397 . S
C687 H668 0.929 . S
C687 C684 1.404 . S
C687 N685 1.334 . S
C688 H680 0.930 . S
C688 C683 1.418 . S
C688 C684 1.353 . S
C689 H659 0.930 . S
C689 N690 1.330 1_554 S
C689 C691 1.446 1_554 S
N690 Co649 2.151 . S
N690 C689 1.330 1_556 S
N690 C694 1.418 . S
C691 H670 0.929 1_556 S
C691 C689 1.446 1_556 S
C691 C692 1.332 . S
C692 H672 0.931 . S
C692 C691 1.332 . S
C692 C693 1.267 . S
C693 H661 0.929 . S
C693 C692 1.267 . S
C693 C694 1.251 . S
C694 H664 0.929 . S
C694 N690 1.418 . S
C694 C693 1.251 . S
C695 H662 0.930 . S
C695 C697 1.406 . S
C695 C700 1.261 . S
C696 H663 0.930 . S
C696 N698 1.325 . S
C696 C699 1.357 . S
C697 H665 0.928 . S
C697 C695 1.406 . S
C697 N698 1.261 . S
N698 Co649 2.214 . S
N698 C696 1.325 . S
N698 C697 1.261 . S
C699 H669 0.931 . S
C699 C696 1.357 . S
C699 C700 1.312 . S
C700 H671 0.930 . S
C700 C695 1.261 . S
C700 C699 1.312 . S
C701 O673 1.214 1_556 S
C701 O681 1.234 . S
C702 H674 0.929 . S
C702 C705 1.391 . S
C702 C707 1.391 . S
C703 H675 0.929 . S
C703 C704 1.390 . S
C703 N706 1.391 . S
C704 H676 0.930 . S
C704 C703 1.390 . S
C704 C705 1.392 . S
C705 H677 0.929 . S
C705 C702 1.391 . S
C705 C704 1.392 . S
N706 Co650 2.257 1_554 S
N706 C703 1.391 . S
N706 C707 1.388 . S
C707 H678 0.930 . S
C707 C702 1.391 . S
C707 N706 1.388 . S
C33 C623 2.519 . S
C92 C682 2.520 . S
C387 C151 2.520 . S
C210 C446 2.519 . S
C505 C269 2.520 . S
C564 C328 2.520 . S
C406 C52 0.761 . S
C465 C111 0.761 . S
C524 C170 0.761 1_556 S
C229 C583 0.761 . S
C288 C642 0.761 . S
C347 C701 0.761 1_554 S
C5 C182 1.673 1_545 S
C64 C241 1.672 . S
C123 C300 1.673 1_655 S
C536 C359 1.672 1_455 S
C595 C418 1.673 1_545 S
C654 C477 1.674 . S
C3 C475 1.452 . S
C534 C62 1.452 . S
C121 C593 1.452 . S
C652 C180 1.452 . S
C239 C357 1.452 . S
C298 C416 1.452 . S
