# Generated by pormake.
# Topology sxg, (6)-cn, num edge types: 1
# Building blocks:
#     Node 0, Type 0, BuildingBlock: UKALOJ_clean_sbu_0, # of connection points: 6
#     Node 1, Type 0, BuildingBlock: UKALOJ_clean_sbu_0, # of connection points: 6
#     Node 2, Type 0, BuildingBlock: UKALOJ_clean_sbu_0, # of connection points: 6
#     Node 3, Type 0, BuildingBlock: UKALOJ_clean_sbu_0, # of connection points: 6
#     Node 4, Type 0, BuildingBlock: UKALOJ_clean_sbu_0, # of connection points: 6
#     Node 5, Type 0, BuildingBlock: UKALOJ_clean_sbu_0, # of connection points: 6
#     Node 6, Type 0, BuildingBlock: UKALOJ_clean_sbu_0, # of connection points: 6
#     Node 7, Type 0, BuildingBlock: UKALOJ_clean_sbu_0, # of connection points: 6
#     Node 8, Type 0, BuildingBlock: UKALOJ_clean_sbu_0, # of connection points: 6
#     Node 9, Type 0, BuildingBlock: UKALOJ_clean_sbu_0, # of connection points: 6
#     Node 10, Type 0, BuildingBlock: UKALOJ_clean_sbu_0, # of connection points: 6
#     Node 11, Type 0, BuildingBlock: UKALOJ_clean_sbu_0, # of connection points: 6
#     Node 12, Type 0, BuildingBlock: UKALOJ_clean_sbu_0, # of connection points: 6
#     Node 13, Type 0, BuildingBlock: UKALOJ_clean_sbu_0, # of connection points: 6
#     Node 14, Type 0, BuildingBlock: UKALOJ_clean_sbu_0, # of connection points: 6
#     Node 15, Type 0, BuildingBlock: UKALOJ_clean_sbu_0, # of connection points: 6
#     Node 16, Type 0, BuildingBlock: UKALOJ_clean_sbu_0, # of connection points: 6
#     Node 17, Type 0, BuildingBlock: UKALOJ_clean_sbu_0, # of connection points: 6
#     Node 18, Type 0, BuildingBlock: UKALOJ_clean_sbu_0, # of connection points: 6
#     Node 19, Type 0, BuildingBlock: UKALOJ_clean_sbu_0, # of connection points: 6
#     Node 20, Type 0, BuildingBlock: UKALOJ_clean_sbu_0, # of connection points: 6
#     Node 21, Type 0, BuildingBlock: UKALOJ_clean_sbu_0, # of connection points: 6
#     Node 22, Type 0, BuildingBlock: UKALOJ_clean_sbu_0, # of connection points: 6
#     Node 23, Type 0, BuildingBlock: UKALOJ_clean_sbu_0, # of connection points: 6
#     Edge 24, Type (0, 0), BuildingBlock: KIFKEQ_clean_linker_1, # of connection points: 2
#     Edge 25, Type (0, 0), BuildingBlock: KIFKEQ_clean_linker_1, # of connection points: 2
#     Edge 26, Type (0, 0), BuildingBlock: KIFKEQ_clean_linker_1, # of connection points: 2
#     Edge 27, Type (0, 0), BuildingBlock: KIFKEQ_clean_linker_1, # of connection points: 2
#     Edge 28, Type (0, 0), BuildingBlock: KIFKEQ_clean_linker_1, # of connection points: 2
#     Edge 29, Type (0, 0), BuildingBlock: KIFKEQ_clean_linker_1, # of connection points: 2
#     Edge 30, Type (0, 0), BuildingBlock: KIFKEQ_clean_linker_1, # of connection points: 2
#     Edge 31, Type (0, 0), BuildingBlock: KIFKEQ_clean_linker_1, # of connection points: 2
#     Edge 32, Type (0, 0), BuildingBlock: KIFKEQ_clean_linker_1, # of connection points: 2
#     Edge 33, Type (0, 0), BuildingBlock: KIFKEQ_clean_linker_1, # of connection points: 2
#     Edge 34, Type (0, 0), BuildingBlock: KIFKEQ_clean_linker_1, # of connection points: 2
#     Edge 35, Type (0, 0), BuildingBlock: KIFKEQ_clean_linker_1, # of connection points: 2
#     Edge 36, Type (0, 0), BuildingBlock: KIFKEQ_clean_linker_1, # of connection points: 2
#     Edge 37, Type (0, 0), BuildingBlock: KIFKEQ_clean_linker_1, # of connection points: 2
#     Edge 38, Type (0, 0), BuildingBlock: KIFKEQ_clean_linker_1, # of connection points: 2
#     Edge 39, Type (0, 0), BuildingBlock: KIFKEQ_clean_linker_1, # of connection points: 2
#     Edge 40, Type (0, 0), BuildingBlock: KIFKEQ_clean_linker_1, # of connection points: 2
#     Edge 41, Type (0, 0), BuildingBlock: KIFKEQ_clean_linker_1, # of connection points: 2
#     Edge 42, Type (0, 0), BuildingBlock: KIFKEQ_clean_linker_1, # of connection points: 2
#     Edge 43, Type (0, 0), BuildingBlock: KIFKEQ_clean_linker_1, # of connection points: 2
#     Edge 44, Type (0, 0), BuildingBlock: KIFKEQ_clean_linker_1, # of connection points: 2
#     Edge 45, Type (0, 0), BuildingBlock: KIFKEQ_clean_linker_1, # of connection points: 2
#     Edge 46, Type (0, 0), BuildingBlock: KIFKEQ_clean_linker_1, # of connection points: 2
#     Edge 47, Type (0, 0), BuildingBlock: KIFKEQ_clean_linker_1, # of connection points: 2
#     Edge 48, Type (0, 0), BuildingBlock: KIFKEQ_clean_linker_1, # of connection points: 2
#     Edge 49, Type (0, 0), BuildingBlock: KIFKEQ_clean_linker_1, # of connection points: 2
#     Edge 50, Type (0, 0), BuildingBlock: KIFKEQ_clean_linker_1, # of connection points: 2
#     Edge 51, Type (0, 0), BuildingBlock: KIFKEQ_clean_linker_1, # of connection points: 2
#     Edge 52, Type (0, 0), BuildingBlock: KIFKEQ_clean_linker_1, # of connection points: 2
#     Edge 53, Type (0, 0), BuildingBlock: KIFKEQ_clean_linker_1, # of connection points: 2
#     Edge 54, Type (0, 0), BuildingBlock: KIFKEQ_clean_linker_1, # of connection points: 2
#     Edge 55, Type (0, 0), BuildingBlock: KIFKEQ_clean_linker_1, # of connection points: 2
#     Edge 56, Type (0, 0), BuildingBlock: KIFKEQ_clean_linker_1, # of connection points: 2
#     Edge 57, Type (0, 0), BuildingBlock: KIFKEQ_clean_linker_1, # of connection points: 2
#     Edge 58, Type (0, 0), BuildingBlock: KIFKEQ_clean_linker_1, # of connection points: 2
#     Edge 59, Type (0, 0), BuildingBlock: KIFKEQ_clean_linker_1, # of connection points: 2
#     Edge 60, Type (0, 0), BuildingBlock: KIFKEQ_clean_linker_1, # of connection points: 2
#     Edge 61, Type (0, 0), BuildingBlock: KIFKEQ_clean_linker_1, # of connection points: 2
#     Edge 62, Type (0, 0), BuildingBlock: KIFKEQ_clean_linker_1, # of connection points: 2
#     Edge 63, Type (0, 0), BuildingBlock: KIFKEQ_clean_linker_1, # of connection points: 2
#     Edge 64, Type (0, 0), BuildingBlock: KIFKEQ_clean_linker_1, # of connection points: 2
#     Edge 65, Type (0, 0), BuildingBlock: KIFKEQ_clean_linker_1, # of connection points: 2
#     Edge 66, Type (0, 0), BuildingBlock: KIFKEQ_clean_linker_1, # of connection points: 2
#     Edge 67, Type (0, 0), BuildingBlock: KIFKEQ_clean_linker_1, # of connection points: 2
#     Edge 68, Type (0, 0), BuildingBlock: KIFKEQ_clean_linker_1, # of connection points: 2
#     Edge 69, Type (0, 0), BuildingBlock: KIFKEQ_clean_linker_1, # of connection points: 2
#     Edge 70, Type (0, 0), BuildingBlock: KIFKEQ_clean_linker_1, # of connection points: 2
#     Edge 71, Type (0, 0), BuildingBlock: KIFKEQ_clean_linker_1, # of connection points: 2
#     Edge 72, Type (0, 0), BuildingBlock: KIFKEQ_clean_linker_1, # of connection points: 2
#     Edge 73, Type (0, 0), BuildingBlock: KIFKEQ_clean_linker_1, # of connection points: 2
#     Edge 74, Type (0, 0), BuildingBlock: KIFKEQ_clean_linker_1, # of connection points: 2
#     Edge 75, Type (0, 0), BuildingBlock: KIFKEQ_clean_linker_1, # of connection points: 2
#     Edge 76, Type (0, 0), BuildingBlock: KIFKEQ_clean_linker_1, # of connection points: 2
#     Edge 77, Type (0, 0), BuildingBlock: KIFKEQ_clean_linker_1, # of connection points: 2
#     Edge 78, Type (0, 0), BuildingBlock: KIFKEQ_clean_linker_1, # of connection points: 2
#     Edge 79, Type (0, 0), BuildingBlock: KIFKEQ_clean_linker_1, # of connection points: 2
#     Edge 80, Type (0, 0), BuildingBlock: KIFKEQ_clean_linker_1, # of connection points: 2
#     Edge 81, Type (0, 0), BuildingBlock: KIFKEQ_clean_linker_1, # of connection points: 2
#     Edge 82, Type (0, 0), BuildingBlock: KIFKEQ_clean_linker_1, # of connection points: 2
#     Edge 83, Type (0, 0), BuildingBlock: KIFKEQ_clean_linker_1, # of connection points: 2
#     Edge 84, Type (0, 0), BuildingBlock: KIFKEQ_clean_linker_1, # of connection points: 2
#     Edge 85, Type (0, 0), BuildingBlock: KIFKEQ_clean_linker_1, # of connection points: 2
#     Edge 86, Type (0, 0), BuildingBlock: KIFKEQ_clean_linker_1, # of connection points: 2
#     Edge 87, Type (0, 0), BuildingBlock: KIFKEQ_clean_linker_1, # of connection points: 2
#     Edge 88, Type (0, 0), BuildingBlock: KIFKEQ_clean_linker_1, # of connection points: 2
#     Edge 89, Type (0, 0), BuildingBlock: KIFKEQ_clean_linker_1, # of connection points: 2
#     Edge 90, Type (0, 0), BuildingBlock: KIFKEQ_clean_linker_1, # of connection points: 2
#     Edge 91, Type (0, 0), BuildingBlock: KIFKEQ_clean_linker_1, # of connection points: 2
#     Edge 92, Type (0, 0), BuildingBlock: KIFKEQ_clean_linker_1, # of connection points: 2
#     Edge 93, Type (0, 0), BuildingBlock: KIFKEQ_clean_linker_1, # of connection points: 2
#     Edge 94, Type (0, 0), BuildingBlock: KIFKEQ_clean_linker_1, # of connection points: 2
#     Edge 95, Type (0, 0), BuildingBlock: KIFKEQ_clean_linker_1, # of connection points: 2
# Relax obj value: 0.293
# Max RMSD: 0.283
# Mean RMSD: 0.283
data_MOF--net-sxg--node1-UKALOJ_clean_sbu_0--edge1-KIFKEQ_clean_linker_1
_symmetry_space_group_name_H-M    P1
_symmetry_Int_Tables_number       1
_symmetry_cell_setting            triclinic
loop_
_symmetry_equiv_pos_as_xyz
'x, y, z'
_cell_length_a     48.52617
_cell_length_b     48.534232
_cell_length_c     48.531329
_cell_angle_alpha  89.976267
_cell_angle_beta   89.975035
_cell_angle_gamma 89.968964
loop_
_atom_site_label
_atom_site_type_symbol
_atom_site_fract_x
_atom_site_fract_y
_atom_site_fract_z
_atom_type_partial_charge
Zn0 Zn 0.02035 0.27563 0.19948 0.0
O1 O 0.99021 0.27099 0.23 0.0
C2 C 0.00784 0.33614 0.19823 0.0
Zn3 Zn 0.04728 0.30005 0.22746 0.0
C4 C 0.99368 0.28257 0.2532 0.0
O5 O 0.01591 0.29564 0.25787 0.0
C6 C 0.07383 0.292 0.17298 0.0
O7 O 0.06618 0.26367 0.24089 0.0
O8 O 0.04016 0.23852 0.21352 0.0
N9 N 0.06947 0.32353 0.25447 0.0
C10 C 0.0963 0.3305 0.25528 0.0
C11 C 0.0752 0.35693 0.28323 0.0
N12 N 0.05645 0.33974 0.27215 0.0
N13 N 0.10039 0.3517 0.27282 0.0
C14 C 0.97202 0.26015 0.16062 0.0
C15 C 0.9925 0.23421 0.13182 0.0
N16 N 0.9972 0.25453 0.17104 0.0
N17 N 0.00965 0.23794 0.15331 0.0
N18 N 0.96871 0.24804 0.13578 0.0
H19 H 0.95854 0.28765 0.1934 0.0
H20 H 0.93216 0.26731 0.17791 0.0
H21 H 0.94595 0.29579 0.15909 0.0
C22 C 0.9513 0.27902 0.17365 0.0
C23 C 0.11858 0.31597 0.2397 0.0
H24 H 0.11298 0.29411 0.23614 0.0
H25 H 0.13836 0.31705 0.25113 0.0
H26 H 0.12143 0.32624 0.21955 0.0
O27 O 0.07801 0.30365 0.19608 0.0
O28 O 0.05104 0.27993 0.16884 0.0
C29 C 0.05929 0.24021 0.23149 0.0
O30 O 0.00102 0.31344 0.18711 0.0
O31 O 0.02809 0.33648 0.21467 0.0
Zn32 Zn 0.47751 0.72585 0.70195 0.0
O33 O 0.50746 0.73014 0.73302 0.0
C34 C 0.48656 0.66446 0.70427 0.0
Zn35 Zn 0.44952 0.70437 0.73124 0.0
C36 C 0.50339 0.71931 0.75656 0.0
O37 O 0.48067 0.70718 0.76152 0.0
C38 C 0.42341 0.71214 0.67634 0.0
O39 O 0.43418 0.74248 0.74343 0.0
O40 O 0.45964 0.76508 0.71357 0.0
N41 N 0.42378 0.68526 0.75855 0.0
C42 C 0.41019 0.66114 0.75635 0.0
C43 C 0.39894 0.67892 0.79492 0.0
N44 N 0.41681 0.69626 0.78255 0.0
N45 N 0.39475 0.65659 0.77899 0.0
C46 C 0.52575 0.73552 0.66116 0.0
C47 C 0.50878 0.76571 0.63426 0.0
N48 N 0.50197 0.74422 0.67264 0.0
N49 N 0.49164 0.76325 0.65601 0.0
N50 N 0.53024 0.7483 0.63687 0.0
H51 H 0.54182 0.71391 0.69666 0.0
H52 H 0.56685 0.72193 0.67014 0.0
H53 H 0.54247 0.69497 0.66476 0.0
C54 C 0.54528 0.71547 0.67416 0.0
C55 C 0.41057 0.64283 0.73141 0.0
H56 H 0.39013 0.63311 0.72823 0.0
H57 H 0.42596 0.62622 0.7346 0.0
H58 H 0.41619 0.65424 0.71255 0.0
O59 O 0.41843 0.70281 0.7003 0.0
O60 O 0.44716 0.72169 0.67113 0.0
C61 C 0.44166 0.76516 0.73277 0.0
O62 O 0.49501 0.68615 0.69218 0.0
O63 O 0.466 0.66618 0.72024 0.0
Zn64 Zn 0.55161 0.2023 0.76702 0.0
O65 O 0.56531 0.24128 0.75569 0.0
C66 C 0.5774 0.20947 0.82239 0.0
Zn67 Zn 0.52313 0.22206 0.79696 0.0
C68 C 0.55724 0.26334 0.76719 0.0
O69 O 0.53965 0.26211 0.7867 0.0
C70 C 0.51614 0.16058 0.79315 0.0
O71 O 0.49346 0.22629 0.76561 0.0
O72 O 0.52058 0.20444 0.73662 0.0
N73 N 0.49749 0.23845 0.82635 0.0
C74 C 0.4732 0.22913 0.83617 0.0
C75 C 0.48889 0.25769 0.8655 0.0
N76 N 0.50704 0.25644 0.84449 0.0
N77 N 0.46761 0.24046 0.86096 0.0
C78 C 0.59237 0.16099 0.74136 0.0
C79 C 0.6034 0.17977 0.70319 0.0
N80 N 0.57824 0.18481 0.73956 0.0
N81 N 0.58509 0.19648 0.71582 0.0
N82 N 0.608 0.15724 0.71873 0.0
H83 H 0.61281 0.13242 0.76875 0.0
H84 H 0.57698 0.12549 0.76249 0.0
H85 H 0.58677 0.15308 0.78505 0.0
C86 C 0.59229 0.14211 0.76591 0.0
C87 C 0.45422 0.21016 0.82089 0.0
H88 H 0.45714 0.21197 0.79837 0.0
H89 H 0.43244 0.21486 0.82612 0.0
H90 H 0.45837 0.18864 0.82695 0.0
O91 O 0.50694 0.18175 0.80557 0.0
O92 O 0.53661 0.16326 0.77719 0.0
C93 C 0.49762 0.21597 0.74188 0.0
O94 O 0.58263 0.20126 0.79809 0.0
O95 O 0.55332 0.21797 0.82801 0.0
Zn96 Zn 0.95574 0.79285 0.27752 0.0
O97 O 0.93493 0.75748 0.2633 0.0
C98 C 0.92937 0.78451 0.33171 0.0
Zn99 Zn 0.98154 0.76532 0.30377 0.0
C100 C 0.94071 0.73335 0.27178 0.0
O101 O 0.95982 0.72999 0.2895 0.0
C102 C 0.99778 0.82503 0.30648 0.0
O103 O 0.01107 0.75963 0.27278 0.0
O104 O 0.98673 0.78758 0.24678 0.0
N105 N 0.00365 0.74248 0.33186 0.0
C106 C 0.02858 0.74756 0.34311 0.0
C107 C 0.00707 0.72122 0.37075 0.0
N108 N 0.99056 0.72563 0.34886 0.0
N109 N 0.03109 0.73483 0.36774 0.0
C110 C 0.90766 0.82524 0.25003 0.0
C111 C 0.92947 0.85154 0.22249 0.0
N112 N 0.93438 0.81788 0.25115 0.0
N113 N 0.94785 0.83404 0.23376 0.0
N114 N 0.90408 0.84657 0.23251 0.0
H115 H 0.8903 0.78904 0.269 0.0
H116 H 0.86542 0.81216 0.25343 0.0
H117 H 0.88181 0.82128 0.28529 0.0
C118 C 0.88497 0.81093 0.26524 0.0
C119 C 0.04932 0.76727 0.33147 0.0
H120 H 0.0453 0.7713 0.30944 0.0
H121 H 0.07037 0.75865 0.33326 0.0
H122 H 0.04875 0.78684 0.34329 0.0
O123 O 0.00316 0.80128 0.31599 0.0
O124 O 0.97697 0.82815 0.29107 0.0
C125 C 0.0081 0.77276 0.25033 0.0
O126 O 0.92552 0.79733 0.30917 0.0
O127 O 0.95143 0.77083 0.33489 0.0
Zn128 Zn 0.22904 0.05025 0.29711 0.0
O129 O 0.24232 0.06463 0.25858 0.0
C130 C 0.17428 0.0764 0.28672 0.0
Zn131 Zn 0.20068 0.02262 0.27408 0.0
C132 C 0.23219 0.05726 0.2356 0.0
O133 O 0.2128 0.03955 0.23513 0.0
C134 C 0.20087 0.0145 0.33617 0.0
O135 O 0.23223 0.99322 0.27059 0.0
O136 O 0.25949 0.01879 0.29628 0.0
N137 N 0.17269 0.99658 0.25595 0.0
C138 C 0.1643 0.97111 0.26341 0.0
C139 C 0.1345 0.98705 0.23545 0.0
N140 N 0.15434 0.00624 0.23825 0.0
N141 N 0.14 0.96476 0.25117 0.0
C142 C 0.25351 0.0902 0.34006 0.0
C143 C 0.29277 0.10028 0.3231 0.0
N144 N 0.25595 0.07633 0.31614 0.0
N145 N 0.28037 0.08258 0.30562 0.0
N146 N 0.27642 0.10508 0.345 0.0
H147 H 0.22532 0.11112 0.36743 0.0
H148 H 0.23048 0.07514 0.3745 0.0
H149 H 0.20942 0.08549 0.34593 0.0
C150 C 0.22814 0.09058 0.3578 0.0
C151 C 0.1794 0.95299 0.28345 0.0
H152 H 0.19758 0.96308 0.29249 0.0
H153 H 0.18725 0.9346 0.27243 0.0
H154 H 0.1653 0.94607 0.30005 0.0
O155 O 0.18983 0.00618 0.31393 0.0
O156 O 0.21696 0.03498 0.33527 0.0
C157 C 0.255 0.99669 0.28296 0.0
O158 O 0.19779 0.08137 0.29718 0.0
O159 O 0.16952 0.05271 0.27677 0.0
Zn160 Zn 0.30006 0.98151 0.76978 0.0
O161 O 0.26992 0.01187 0.76294 0.0
C162 C 0.30087 0.99427 0.83067 0.0
Zn163 Zn 0.27164 0.9556 0.79472 0.0
C164 C 0.2476 0.00988 0.77648 0.0
O165 O 0.24323 0.98889 0.79159 0.0
C166 C 0.32517 0.92757 0.78691 0.0
O167 O 0.25638 0.93856 0.75799 0.0
O168 O 0.28716 0.96059 0.73297 0.0
N169 N 0.24375 0.93426 0.81826 0.0
C170 C 0.24232 0.90754 0.82563 0.0
C171 C 0.21502 0.92961 0.85193 0.0
N172 N 0.22646 0.94788 0.83443 0.0
N173 N 0.2248 0.90412 0.847 0.0
C174 C 0.34255 0.02693 0.75574 0.0
C175 C 0.3691 0.00608 0.72781 0.0
N176 N 0.32995 0.00317 0.74886 0.0
N177 N 0.34636 0.99042 0.73113 0.0
N178 N 0.36728 0.02905 0.74325 0.0
H179 H 0.30835 0.04566 0.77736 0.0
H180 H 0.33498 0.06917 0.76595 0.0
H181 H 0.3414 0.04718 0.79466 0.0
C182 C 0.33083 0.04837 0.77452 0.0
C183 C 0.25722 0.88467 0.81128 0.0
H184 H 0.26043 0.88981 0.78923 0.0
H185 H 0.24542 0.86515 0.81297 0.0
H186 H 0.27752 0.88158 0.82119 0.0
O187 O 0.30141 0.92326 0.79711 0.0
O188 O 0.33025 0.95081 0.77612 0.0
C189 C 0.26707 0.94369 0.7346 0.0
O190 O 0.31072 0.00212 0.80767 0.0
O191 O 0.28594 0.9729 0.83131 0.0
Zn192 Zn 0.69969 0.47989 0.73002 0.0
O193 O 0.73072 0.50957 0.7349 0.0
C194 C 0.69716 0.4908 0.66896 0.0
Zn195 Zn 0.72662 0.45237 0.70516 0.0
C196 C 0.75285 0.50632 0.72132 0.0
O197 O 0.75641 0.48458 0.70713 0.0
C198 C 0.67278 0.42613 0.71458 0.0
O199 O 0.74165 0.43515 0.74181 0.0
O200 O 0.71337 0.46001 0.7672 0.0
N201 N 0.75302 0.42989 0.6814 0.0
C202 C 0.7554 0.40271 0.67628 0.0
C203 C 0.77932 0.42387 0.64622 0.0
N204 N 0.76817 0.44295 0.66289 0.0
N205 N 0.77147 0.39831 0.65383 0.0
C206 C 0.65995 0.52783 0.74304 0.0
C207 C 0.63149 0.50883 0.77044 0.0
N208 N 0.67094 0.50341 0.75053 0.0
N209 N 0.65334 0.49181 0.76788 0.0
N210 N 0.63502 0.5315 0.7548 0.0
H211 H 0.69628 0.54511 0.7237 0.0
H212 H 0.66995 0.56973 0.73322 0.0
H213 H 0.66501 0.54798 0.7041 0.0
C214 C 0.67383 0.54873 0.72502 0.0
C215 C 0.74336 0.38086 0.69444 0.0
H216 H 0.74123 0.38849 0.71585 0.0
H217 H 0.7565 0.36214 0.69433 0.0
H218 H 0.72257 0.37539 0.68688 0.0
O219 O 0.69601 0.42109 0.70352 0.0
O220 O 0.66876 0.44949 0.7256 0.0
C221 C 0.7321 0.44159 0.76536 0.0
O222 O 0.68785 0.49941 0.69189 0.0
O223 O 0.71225 0.46956 0.66872 0.0
Zn224 Zn 0.76782 0.54772 0.20275 0.0
O225 O 0.75409 0.56358 0.24034 0.0
C226 C 0.82193 0.57385 0.21337 0.0
Zn227 Zn 0.7954 0.51978 0.22646 0.0
C228 C 0.76311 0.55584 0.26363 0.0
O229 O 0.78162 0.53722 0.26478 0.0
C230 C 0.79706 0.51064 0.16498 0.0
O231 O 0.76451 0.48955 0.22882 0.0
O232 O 0.73733 0.51655 0.2046 0.0
N233 N 0.82373 0.49537 0.24634 0.0
C234 C 0.83473 0.47079 0.23934 0.0
C235 C 0.86243 0.48982 0.26745 0.0
N236 N 0.84076 0.50687 0.26426 0.0
N237 N 0.85929 0.46701 0.25192 0.0
C238 C 0.74382 0.58672 0.15852 0.0
C239 C 0.70468 0.59758 0.1753 0.0
N240 N 0.74111 0.57312 0.18257 0.0
N241 N 0.71675 0.57982 0.19295 0.0
N242 N 0.72116 0.60195 0.15341 0.0
H243 H 0.77262 0.60707 0.1314 0.0
H244 H 0.76651 0.57132 0.12404 0.0
H245 H 0.78778 0.58081 0.15274 0.0
C246 C 0.76925 0.58654 0.14087 0.0
C247 C 0.82241 0.45115 0.21895 0.0
H248 H 0.8026 0.45864 0.21061 0.0
H249 H 0.8184 0.43119 0.2293 0.0
H250 H 0.83732 0.44722 0.2021 0.0
O251 O 0.80788 0.50287 0.18755 0.0
O252 O 0.78053 0.53084 0.16522 0.0
C253 C 0.7416 0.49372 0.21681 0.0
O254 O 0.79896 0.57879 0.20182 0.0
O255 O 0.82593 0.55042 0.22423 0.0
Zn256 Zn 0.27042 0.19871 0.01963 0.0
O257 O 0.26566 0.22868 0.98885 0.0
C258 C 0.33102 0.1969 0.00786 0.0
Zn259 Zn 0.29458 0.22772 0.0457 0.0
C260 C 0.27776 0.25173 0.99136 0.0
O261 O 0.29126 0.25688 0.01322 0.0
C262 C 0.28624 0.17378 0.07363 0.0
O263 O 0.25802 0.2427 0.06294 0.0
O264 O 0.23322 0.21301 0.03925 0.0
N265 N 0.31818 0.25513 0.06742 0.0
C266 C 0.32526 0.25635 0.09422 0.0
C267 C 0.35202 0.28351 0.07254 0.0
N268 N 0.33463 0.27232 0.05405 0.0
N269 N 0.34675 0.27364 0.09794 0.0
C270 C 0.25487 0.15908 0.97197 0.0
C271 C 0.22878 0.13066 0.99281 0.0
N272 N 0.24941 0.16979 0.99706 0.0
N273 N 0.23276 0.15228 0.00975 0.0
N274 N 0.24246 0.13437 0.96893 0.0
H275 H 0.28226 0.19164 0.95782 0.0
H276 H 0.26343 0.17418 0.93144 0.0
H277 H 0.29162 0.1569 0.94761 0.0
C278 C 0.27432 0.17136 0.95132 0.0
C279 C 0.31045 0.24151 0.11683 0.0
H280 H 0.28848 0.23842 0.11135 0.0
H281 H 0.31189 0.25326 0.1364 0.0
H282 H 0.32022 0.22116 0.12001 0.0
O283 O 0.29707 0.19732 0.07759 0.0
O284 O 0.27489 0.16877 0.05066 0.0
C285 C 0.23465 0.23264 0.05671 0.0
O286 O 0.30831 0.18606 0.00063 0.0
O287 O 0.33114 0.21361 0.02789 0.0
Zn288 Zn 0.77069 0.29834 0.98169 0.0
O289 O 0.76655 0.26799 0.01202 0.0
C290 C 0.83157 0.3008 0.99332 0.0
Zn291 Zn 0.79565 0.27078 0.9549 0.0
C292 C 0.77886 0.2451 0.00891 0.0
O293 O 0.79238 0.24062 0.98687 0.0
C294 C 0.78641 0.32485 0.92812 0.0
O295 O 0.75918 0.25615 0.93723 0.0
O296 O 0.73358 0.28418 0.96208 0.0
N297 N 0.81907 0.24413 0.93227 0.0
C298 C 0.82509 0.24325 0.90519 0.0
C299 C 0.85267 0.21583 0.92553 0.0
N300 N 0.83603 0.22682 0.94483 0.0
N301 N 0.84638 0.22594 0.90045 0.0
C302 C 0.75563 0.33625 0.03024 0.0
C303 C 0.73283 0.3677 0.00991 0.0
N304 N 0.74986 0.32698 0.00471 0.0
N305 N 0.73529 0.34642 0.99227 0.0
N306 N 0.74572 0.362 0.03384 0.0
H307 H 0.7575 0.29923 0.05412 0.0
H308 H 0.76741 0.32966 0.0728 0.0
H309 H 0.79025 0.3146 0.04771 0.0
C310 C 0.76853 0.31915 0.05254 0.0
C311 C 0.80918 0.25817 0.88331 0.0
H312 H 0.78735 0.26064 0.88961 0.0
H313 H 0.8102 0.24677 0.86352 0.0
H314 H 0.81816 0.2789 0.88009 0.0
O315 O 0.79835 0.30196 0.9237 0.0
O316 O 0.77448 0.32867 0.95102 0.0
C317 C 0.73555 0.26539 0.94377 0.0
O318 O 0.80861 0.31097 0.00085 0.0
O319 O 0.83204 0.28459 0.9729 0.0
Zn320 Zn 0.72322 0.70059 0.47746 0.0
O321 O 0.72768 0.73125 0.50741 0.0
C322 C 0.66176 0.70353 0.48566 0.0
Zn323 Zn 0.70256 0.7309 0.45007 0.0
C324 C 0.71674 0.75485 0.50435 0.0
O325 O 0.70461 0.7607 0.48184 0.0
C326 C 0.7099 0.67593 0.42327 0.0
O327 O 0.74154 0.74296 0.43604 0.0
O328 O 0.76283 0.71135 0.46054 0.0
N329 N 0.68446 0.75872 0.42412 0.0
C330 C 0.66063 0.757 0.40998 0.0
C331 C 0.67929 0.7953 0.39931 0.0
N332 N 0.69603 0.78256 0.4175 0.0
N333 N 0.65681 0.77976 0.39454 0.0
C334 C 0.73145 0.66118 0.52684 0.0
C335 C 0.75965 0.63187 0.51038 0.0
N336 N 0.74028 0.67111 0.50242 0.0
N337 N 0.75807 0.653 0.49239 0.0
N338 N 0.74288 0.63637 0.53204 0.0
H339 H 0.71391 0.69868 0.54339 0.0
H340 H 0.71794 0.67095 0.56791 0.0
H341 H 0.69115 0.66964 0.5427 0.0
C342 C 0.71263 0.67613 0.54627 0.0
C343 C 0.6419 0.73236 0.40983 0.0
H344 H 0.63227 0.72965 0.38927 0.0
H345 H 0.62523 0.73558 0.42515 0.0
H346 H 0.65299 0.71324 0.41522 0.0
O347 O 0.70147 0.70027 0.41846 0.0
O348 O 0.71886 0.67007 0.44709 0.0
C349 C 0.76377 0.7313 0.44345 0.0
O350 O 0.68333 0.69133 0.49416 0.0
O351 O 0.66372 0.71994 0.46545 0.0
Zn352 Zn 0.20302 0.77139 0.5473 0.0
O353 O 0.24021 0.75809 0.564 0.0
C354 C 0.20948 0.82543 0.57449 0.0
Zn355 Zn 0.22622 0.80017 0.52027 0.0
C356 C 0.26329 0.76877 0.55781 0.0
O357 O 0.26422 0.78828 0.54016 0.0
C358 C 0.16514 0.79887 0.50887 0.0
O359 O 0.23259 0.76985 0.48985 0.0
O360 O 0.20712 0.74229 0.51514 0.0
N361 N 0.24546 0.83037 0.49753 0.0
C362 C 0.23798 0.8417 0.47329 0.0
C363 C 0.2645 0.87037 0.49315 0.0
N364 N 0.26226 0.84812 0.50968 0.0
N365 N 0.24921 0.86695 0.47026 0.0
C366 C 0.17603 0.74093 0.59662 0.0
C367 C 0.14894 0.71332 0.57598 0.0
N368 N 0.18136 0.74301 0.5695 0.0
N369 N 0.16478 0.72552 0.55673 0.0
N370 N 0.15547 0.72277 0.60123 0.0
H371 H 0.21285 0.76037 0.61197 0.0
H372 H 0.19177 0.74369 0.63796 0.0
H373 H 0.18089 0.77569 0.623 0.0
C374 C 0.19145 0.75598 0.61866 0.0
C375 C 0.22071 0.8278 0.45185 0.0
H376 H 0.21783 0.80565 0.45631 0.0
H377 H 0.23065 0.83019 0.43139 0.0
H378 H 0.20043 0.838 0.4506 0.0
O379 O 0.18753 0.80985 0.50072 0.0
O380 O 0.16557 0.7837 0.53009 0.0
C381 C 0.22063 0.74679 0.49314 0.0
O382 O 0.19964 0.80159 0.57907 0.0
O383 O 0.22011 0.83045 0.55114 0.0
Zn384 Zn 0.95315 0.70269 0.76899 0.0
O385 O 0.93697 0.73968 0.7535 0.0
C386 C 0.92534 0.71174 0.82258 0.0
Zn387 Zn 0.97966 0.7267 0.79746 0.0
C388 C 0.94333 0.76296 0.76372 0.0
O389 O 0.96061 0.76414 0.78351 0.0
C390 C 0.99066 0.66605 0.79981 0.0
O391 O 0.01037 0.73087 0.76744 0.0
O392 O 0.98579 0.70476 0.73988 0.0
N393 N 0.00273 0.74682 0.82647 0.0
C394 C 0.02851 0.74106 0.83507 0.0
C395 C 0.00858 0.76287 0.86747 0.0
N396 N 0.9905 0.76072 0.84651 0.0
N397 N 0.03254 0.75041 0.86095 0.0
C398 C 0.9037 0.6748 0.73907 0.0
C399 C 0.92462 0.64338 0.71676 0.0
N400 N 0.93095 0.67916 0.74212 0.0
N401 N 0.94388 0.65981 0.72794 0.0
N402 N 0.89907 0.65198 0.72362 0.0
H403 H 0.89028 0.71529 0.75133 0.0
H404 H 0.86375 0.694 0.73614 0.0
H405 H 0.87582 0.68744 0.77069 0.0
C406 C 0.88209 0.69405 0.74979 0.0
C407 C 0.0506 0.72884 0.81716 0.0
H408 H 0.05276 0.7416 0.79834 0.0
H409 H 0.07082 0.72839 0.82779 0.0
H410 H 0.04509 0.70781 0.81055 0.0
O411 O 0.9984 0.68889 0.80992 0.0
O412 O 0.97012 0.6658 0.78372 0.0
C413 C 0.00777 0.71818 0.74471 0.0
O414 O 0.9209 0.70116 0.79901 0.0
O415 O 0.94863 0.7225 0.82745 0.0
Zn416 Zn 0.52042 0.27155 0.29631 0.0
O417 O 0.49069 0.26736 0.26541 0.0
C418 C 0.51111 0.33313 0.29423 0.0
Zn419 Zn 0.5487 0.29382 0.26788 0.0
C420 C 0.49491 0.27793 0.24181 0.0
O421 O 0.51775 0.2899 0.23689 0.0
C422 C 0.57412 0.28623 0.32287 0.0
O423 O 0.56543 0.25586 0.25699 0.0
O424 O 0.53823 0.23243 0.28458 0.0
N425 N 0.57443 0.31278 0.24054 0.0
C426 C 0.58768 0.33711 0.24226 0.0
C427 C 0.59955 0.3185 0.20427 0.0
N428 N 0.58177 0.30126 0.21689 0.0
N429 N 0.60331 0.34126 0.21967 0.0
C430 C 0.47171 0.26198 0.33643 0.0
C431 C 0.48854 0.23248 0.36417 0.0
N432 N 0.49574 0.25328 0.32549 0.0
N433 N 0.50599 0.23467 0.34264 0.0
N434 N 0.46696 0.24964 0.3609 0.0
H435 H 0.4559 0.2828 0.30031 0.0
H436 H 0.4306 0.275 0.32661 0.0
H437 H 0.45461 0.30232 0.33177 0.0
C438 C 0.45216 0.2816 0.32277 0.0
C439 C 0.58676 0.35603 0.26673 0.0
H440 H 0.60705 0.36605 0.26994 0.0
H441 H 0.57123 0.37238 0.26292 0.0
H442 H 0.58099 0.34503 0.28578 0.0
O443 O 0.5792 0.2968 0.29945 0.0
O444 O 0.55074 0.27537 0.32711 0.0
C445 C 0.55771 0.23294 0.26692 0.0
O446 O 0.50299 0.31132 0.30634 0.0
O447 O 0.53143 0.33167 0.27796 0.0
Zn448 Zn 0.45307 0.79855 0.22639 0.0
O449 O 0.43483 0.76202 0.24045 0.0
C450 C 0.42698 0.7887 0.17269 0.0
Zn451 Zn 0.4809 0.77361 0.19988 0.0
C452 C 0.44272 0.73836 0.23243 0.0
O453 O 0.4624 0.73641 0.21506 0.0
C454 C 0.49203 0.83429 0.19658 0.0
O455 O 0.51145 0.77099 0.23036 0.0
O456 O 0.48414 0.79516 0.25713 0.0
N457 N 0.50454 0.75292 0.17158 0.0
C458 C 0.53018 0.759 0.16273 0.0
C459 C 0.51075 0.73579 0.13105 0.0
N460 N 0.49264 0.73816 0.15198 0.0
N461 N 0.53442 0.74897 0.13712 0.0
C462 C 0.40317 0.82738 0.25465 0.0
C463 C 0.42408 0.85625 0.2802 0.0
N464 N 0.43037 0.82216 0.25259 0.0
N465 N 0.44327 0.83993 0.2687 0.0
N466 N 0.39862 0.84912 0.27161 0.0
H467 H 0.38883 0.78851 0.23881 0.0
H468 H 0.36231 0.8099 0.25386 0.0
H469 H 0.37675 0.8182 0.22054 0.0
C470 C 0.38144 0.80996 0.24133 0.0
C471 C 0.55202 0.77208 0.18029 0.0
H472 H 0.55459 0.75971 0.19931 0.0
H473 H 0.57216 0.77289 0.16951 0.0
H474 H 0.54599 0.79305 0.18663 0.0
O475 O 0.49916 0.81135 0.18621 0.0
O476 O 0.47175 0.83489 0.21299 0.0
C477 C 0.50698 0.78288 0.25325 0.0
O478 O 0.42255 0.80158 0.19505 0.0
O479 O 0.44971 0.77615 0.16954 0.0
Zn480 Zn 0.04457 0.20598 0.72612 0.0
O481 O 0.06313 0.24225 0.74063 0.0
C482 C 0.07007 0.21609 0.67174 0.0
Zn483 Zn 0.01691 0.23112 0.69954 0.0
C484 C 0.05564 0.26593 0.73231 0.0
O485 O 0.03623 0.26792 0.71469 0.0
C486 C 0.00527 0.17044 0.69615 0.0
O487 O 0.98711 0.23414 0.73041 0.0
O488 O 0.01353 0.20903 0.75728 0.0
N489 N 0.99344 0.25324 0.67217 0.0
C490 C 0.9685 0.24771 0.66121 0.0
C491 C 0.98859 0.27572 0.63415 0.0
N492 N 0.00563 0.27113 0.65556 0.0
N493 N 0.96512 0.26116 0.63707 0.0
C494 C 0.09515 0.17681 0.75263 0.0
C495 C 0.07515 0.14667 0.77747 0.0
N496 N 0.06784 0.1818 0.75142 0.0
N497 N 0.05551 0.16322 0.76708 0.0
N498 N 0.10032 0.15444 0.76857 0.0
H499 H 0.1088 0.21639 0.73786 0.0
H500 H 0.13577 0.1948 0.75174 0.0
H501 H 0.12092 0.18748 0.71843 0.0
C502 C 0.11644 0.19495 0.73953 0.0
C503 C 0.94825 0.22749 0.67282 0.0
H504 H 0.95505 0.21891 0.69277 0.0
H505 H 0.92826 0.23799 0.67628 0.0
H506 H 0.94468 0.21079 0.65767 0.0
O507 O 0.99789 0.19343 0.68595 0.0
O508 O 0.02569 0.16986 0.71237 0.0
C509 C 0.99104 0.22196 0.75324 0.0
O510 O 0.07474 0.20346 0.69422 0.0
O511 O 0.04726 0.22845 0.66863 0.0
Zn512 Zn 0.77103 0.95006 0.70114 0.0
O513 O 0.75929 0.93256 0.73852 0.0
C514 C 0.82564 0.92383 0.70783 0.0
Zn515 Zn 0.79964 0.978 0.72352 0.0
C516 C 0.76921 0.94026 0.76148 0.0
O517 O 0.78699 0.95965 0.76208 0.0
C518 C 0.79841 0.98807 0.66247 0.0
O519 O 0.76925 0.00855 0.728 0.0
O520 O 0.7409 0.9813 0.70571 0.0
N521 N 0.82893 0.00196 0.74248 0.0
C522 C 0.83908 0.02696 0.73565 0.0
C523 C 0.86843 0.00776 0.76198 0.0
N524 N 0.84703 0.99031 0.75924 0.0
N525 N 0.86404 0.03095 0.74732 0.0
C526 C 0.74127 0.90016 0.67442 0.0
C527 C 0.71249 0.9205 0.64829 0.0
N528 N 0.74289 0.92726 0.67995 0.0
N529 N 0.72468 0.93983 0.66398 0.0
N530 N 0.72267 0.89539 0.65429 0.0
H531 H 0.76172 0.88494 0.71075 0.0
H532 H 0.74536 0.85873 0.68971 0.0
H533 H 0.77679 0.87468 0.67849 0.0
C534 C 0.75712 0.87834 0.68937 0.0
C535 C 0.82585 0.04661 0.71579 0.0
H536 H 0.80553 0.03934 0.70861 0.0
H537 H 0.82271 0.06677 0.72604 0.0
H538 H 0.83979 0.05006 0.69802 0.0
O539 O 0.81054 0.9957 0.68438 0.0
O540 O 0.78201 0.96783 0.6636 0.0
C541 C 0.74571 0.00422 0.71742 0.0
O542 O 0.80217 0.91926 0.69708 0.0
O543 O 0.83005 0.94695 0.71922 0.0
Zn544 Zn 0.70249 0.01679 0.23138 0.0
O545 O 0.73368 0.98726 0.23501 0.0
C546 C 0.70021 0.0051 0.17051 0.0
Zn547 Zn 0.72942 0.04415 0.20631 0.0
C548 C 0.75659 0.99104 0.22293 0.0
O549 O 0.76061 0.01327 0.20959 0.0
C550 C 0.67452 0.06946 0.21582 0.0
O551 O 0.74344 0.06218 0.243 0.0
O552 O 0.71636 0.03623 0.26858 0.0
N553 N 0.75544 0.06769 0.18296 0.0
C554 C 0.75539 0.09469 0.17652 0.0
C555 C 0.78439 0.07508 0.15004 0.0
N556 N 0.77371 0.05561 0.16667 0.0
N557 N 0.77311 0.09982 0.15564 0.0
C558 C 0.6662 0.96699 0.24527 0.0
C559 C 0.63366 0.98596 0.2677 0.0
N560 N 0.67465 0.9926 0.2519 0.0
N561 N 0.65454 0.00419 0.26624 0.0
N562 N 0.64028 0.96252 0.25436 0.0
H563 H 0.70396 0.94423 0.24396 0.0
H564 H 0.67435 0.9248 0.23313 0.0
H565 H 0.68919 0.95056 0.2109 0.0
C566 C 0.68427 0.94538 0.23247 0.0
C567 C 0.73919 0.11618 0.19166 0.0
H568 H 0.73649 0.11016 0.21355 0.0
H569 H 0.74974 0.13643 0.19055 0.0
H570 H 0.71856 0.11832 0.18212 0.0
O571 O 0.69719 0.07425 0.20358 0.0
O572 O 0.67135 0.04666 0.22812 0.0
C573 C 0.73461 0.05507 0.26665 0.0
O574 O 0.69002 0.99779 0.19351 0.0
O575 O 0.7163 0.02562 0.16984 0.0
Zn576 Zn 0.30038 0.52288 0.27194 0.0
O577 O 0.26938 0.49358 0.26681 0.0
C578 C 0.29841 0.51198 0.3332 0.0
Zn579 Zn 0.27258 0.55126 0.29514 0.0
C580 C 0.24587 0.49801 0.27736 0.0
O581 O 0.24137 0.52065 0.28979 0.0
C582 C 0.3281 0.57549 0.28846 0.0
O583 O 0.26179 0.56958 0.25774 0.0
O584 O 0.28849 0.54193 0.23364 0.0
N585 N 0.24448 0.57535 0.3159 0.0
C586 C 0.24528 0.60088 0.32691 0.0
C587 C 0.20848 0.58175 0.3413 0.0
N588 N 0.22137 0.56373 0.32463 0.0
N589 N 0.22293 0.60535 0.34288 0.0
C590 C 0.33962 0.47395 0.26087 0.0
C591 C 0.36788 0.49127 0.23216 0.0
N592 N 0.32914 0.49841 0.25287 0.0
N593 N 0.3466 0.50898 0.23474 0.0
N594 N 0.36411 0.46922 0.24859 0.0
H595 H 0.30312 0.45784 0.28083 0.0
H596 H 0.32941 0.43261 0.27285 0.0
H597 H 0.33425 0.45599 0.30077 0.0
C598 C 0.32557 0.45404 0.27986 0.0
C599 C 0.26903 0.62039 0.32419 0.0
H600 H 0.27538 0.62183 0.30228 0.0
H601 H 0.26385 0.64134 0.33153 0.0
H602 H 0.28651 0.61262 0.3367 0.0
O603 O 0.30497 0.58054 0.29964 0.0
O604 O 0.33162 0.55258 0.27645 0.0
C605 C 0.27127 0.56181 0.2346 0.0
O606 O 0.31027 0.50427 0.31109 0.0
O607 O 0.28257 0.53272 0.33248 0.0
Zn608 Zn 0.22594 0.45328 0.79628 0.0
O609 O 0.23855 0.43406 0.75978 0.0
C610 C 0.17102 0.42894 0.78724 0.0
Zn611 Zn 0.19978 0.48158 0.77147 0.0
C612 C 0.2307 0.44211 0.73614 0.0
O613 O 0.21414 0.46244 0.7342 0.0
C614 C 0.19804 0.49334 0.83232 0.0
O615 O 0.23112 0.51108 0.76835 0.0
O616 O 0.2578 0.48316 0.79197 0.0
N617 N 0.17224 0.50571 0.75021 0.0
C618 C 0.16149 0.53059 0.75649 0.0
C619 C 0.13358 0.51101 0.729 0.0
N620 N 0.1551 0.49386 0.73264 0.0
N621 N 0.13692 0.53422 0.74388 0.0
C622 C 0.25186 0.40225 0.82486 0.0
C623 C 0.28127 0.42117 0.85136 0.0
N624 N 0.25179 0.42941 0.81919 0.0
N625 N 0.2703 0.44108 0.83546 0.0
N626 N 0.26994 0.39659 0.84525 0.0
H627 H 0.23219 0.38774 0.78783 0.0
H628 H 0.24588 0.36089 0.80986 0.0
H629 H 0.21489 0.37886 0.81936 0.0
C630 C 0.23534 0.38119 0.80949 0.0
C631 C 0.174 0.55069 0.7763 0.0
H632 H 0.19385 0.54338 0.7847 0.0
H633 H 0.17797 0.57039 0.76542 0.0
H634 H 0.1592 0.55508 0.79313 0.0
O635 O 0.18705 0.50033 0.80958 0.0
O636 O 0.21418 0.47283 0.83272 0.0
C637 C 0.25416 0.50608 0.77973 0.0
O638 O 0.19328 0.42416 0.80018 0.0
O639 O 0.16847 0.45149 0.77428 0.0
Zn640 Zn 0.72885 0.79812 0.97912 0.0
O641 O 0.73137 0.7661 0.00824 0.0
C642 C 0.66729 0.79907 0.98882 0.0
Zn643 Zn 0.70501 0.7712 0.95077 0.0
C644 C 0.71951 0.74322 0.00351 0.0
O645 O 0.70706 0.73961 0.98073 0.0
C646 C 0.71534 0.82626 0.92603 0.0
O647 O 0.7428 0.75828 0.93454 0.0
O648 O 0.76729 0.78529 0.96137 0.0
N649 N 0.68508 0.74527 0.92445 0.0
C650 C 0.66099 0.7482 0.91097 0.0
C651 C 0.67814 0.70961 0.89883 0.0
N652 N 0.6957 0.72126 0.91693 0.0
N653 N 0.65609 0.72603 0.89499 0.0
C654 C 0.74071 0.83378 0.03035 0.0
C655 C 0.76491 0.86596 0.01301 0.0
N656 N 0.74786 0.8258 0.00471 0.0
N657 N 0.76324 0.84569 0.99413 0.0
N658 N 0.75064 0.85918 0.03584 0.0
H659 H 0.73637 0.79519 0.0513 0.0
H660 H 0.72746 0.82458 0.07197 0.0
H661 H 0.70458 0.81275 0.04529 0.0
C662 C 0.72638 0.81569 0.05094 0.0
C663 C 0.64308 0.77342 0.9121 0.0
H664 H 0.63329 0.7773 0.89181 0.0
H665 H 0.62653 0.77012 0.92753 0.0
H666 H 0.65487 0.7919 0.91817 0.0
O667 O 0.70382 0.80334 0.92079 0.0
O668 O 0.72649 0.8298 0.94939 0.0
C669 C 0.76611 0.76716 0.94241 0.0
O670 O 0.68993 0.80966 0.99665 0.0
O671 O 0.66737 0.78312 0.96816 0.0
Zn672 Zn 0.22832 0.70342 0.01801 0.0
O673 O 0.23096 0.73478 0.98868 0.0
C674 C 0.16743 0.70079 0.0069 0.0
Zn675 Zn 0.20339 0.7297 0.04616 0.0
C676 C 0.21929 0.75777 0.99312 0.0
O677 O 0.20668 0.76166 0.01582 0.0
C678 C 0.21355 0.67469 0.07064 0.0
O679 O 0.24006 0.74296 0.06477 0.0
O680 O 0.2656 0.71784 0.0369 0.0
N681 N 0.1801 0.75508 0.07041 0.0
C682 C 0.17429 0.75454 0.09755 0.0
C683 C 0.14672 0.78317 0.07894 0.0
N684 N 0.16314 0.77313 0.05894 0.0
N685 N 0.15314 0.77169 0.10338 0.0
C686 C 0.24236 0.66757 0.96769 0.0
C687 C 0.26598 0.63558 0.98614 0.0
N688 N 0.24893 0.67598 0.99334 0.0
N689 N 0.26398 0.6562 0.00461 0.0
N690 N 0.25226 0.64201 0.96287 0.0
H691 H 0.23956 0.70551 0.94538 0.0
H692 H 0.22954 0.67578 0.92571 0.0
H693 H 0.20709 0.68955 0.95188 0.0
C694 C 0.22876 0.68544 0.94641 0.0
C695 C 0.19024 0.73839 0.11849 0.0
H696 H 0.21198 0.73595 0.11186 0.0
H697 H 0.18958 0.74882 0.13883 0.0
H698 H 0.181 0.71767 0.1208 0.0
O699 O 0.20064 0.69694 0.07554 0.0
O700 O 0.22605 0.67206 0.04786 0.0
C701 C 0.2637 0.73482 0.05689 0.0
O702 O 0.19035 0.69046 0.99953 0.0
O703 O 0.16692 0.71704 0.0273 0.0
Zn704 Zn 0.27375 0.29888 0.52102 0.0
O705 O 0.26999 0.26721 0.49202 0.0
C706 C 0.33527 0.29673 0.51159 0.0
Zn707 Zn 0.29605 0.27126 0.55002 0.0
C708 C 0.28036 0.24371 0.49712 0.0
O709 O 0.29199 0.23943 0.52024 0.0
C710 C 0.28835 0.32681 0.57406 0.0
O711 O 0.25802 0.26092 0.56714 0.0
O712 O 0.23466 0.28731 0.53873 0.0
N713 N 0.31494 0.24455 0.57637 0.0
C714 C 0.3394 0.24634 0.58938 0.0
C715 C 0.32062 0.2087 0.60206 0.0
N716 N 0.30332 0.22113 0.58422 0.0
N717 N 0.34352 0.224 0.60537 0.0
C718 C 0.26413 0.3375 0.47119 0.0
C719 C 0.23457 0.36566 0.48721 0.0
N720 N 0.25545 0.32726 0.49552 0.0
N721 N 0.2368 0.34465 0.50528 0.0
N722 N 0.25175 0.3618 0.46575 0.0
H723 H 0.28456 0.30086 0.45608 0.0
H724 H 0.27744 0.32691 0.43034 0.0
H725 H 0.30459 0.33193 0.4546 0.0
C726 C 0.28374 0.32327 0.45203 0.0
C727 C 0.35848 0.27064 0.58777 0.0
H728 H 0.36885 0.2741 0.60784 0.0
H729 H 0.37452 0.26649 0.57201 0.0
H730 H 0.34747 0.28966 0.58186 0.0
O731 O 0.29922 0.30362 0.57954 0.0
O732 O 0.27722 0.33044 0.5507 0.0
C733 C 0.2351 0.27033 0.55879 0.0
O734 O 0.31341 0.3088 0.50355 0.0
O735 O 0.33398 0.28074 0.53217 0.0
Zn736 Zn 0.79708 0.22961 0.4519 0.0
O737 O 0.76027 0.24299 0.43364 0.0
C738 C 0.79044 0.17533 0.42545 0.0
Zn739 Zn 0.7725 0.20176 0.47873 0.0
C740 C 0.73698 0.23254 0.43954 0.0
O741 O 0.73539 0.21379 0.45792 0.0
C742 C 0.83332 0.20203 0.49161 0.0
O743 O 0.76541 0.23256 0.50819 0.0
O744 O 0.79297 0.25927 0.48401 0.0
N745 N 0.75243 0.17226 0.50153 0.0
C746 C 0.75935 0.16147 0.5262 0.0
C747 C 0.73383 0.13209 0.50605 0.0
N748 N 0.73626 0.15406 0.4892 0.0
N749 N 0.74836 0.13613 0.52934 0.0
C750 C 0.82625 0.25858 0.40276 0.0
C751 C 0.85304 0.28625 0.4237 0.0
N752 N 0.81994 0.25721 0.42974 0.0
N753 N 0.83638 0.27472 0.44267 0.0
N754 N 0.84725 0.27632 0.39846 0.0
H755 H 0.78956 0.23953 0.38665 0.0
H756 H 0.81175 0.25522 0.36099 0.0
H757 H 0.82153 0.22334 0.37701 0.0
C758 C 0.81124 0.24336 0.38055 0.0
C759 C 0.77542 0.17617 0.54808 0.0
H760 H 0.77972 0.19782 0.54247 0.0
H761 H 0.76356 0.1757 0.56763 0.0
H762 H 0.79501 0.16533 0.55206 0.0
O763 O 0.81049 0.19176 0.49941 0.0
O764 O 0.83375 0.2169 0.47019 0.0
C765 C 0.77827 0.25515 0.50533 0.0
O766 O 0.80073 0.19895 0.42076 0.0
O767 O 0.77908 0.17083 0.44857 0.0
H768 H 0.13056 0.37136 0.2304 0.0
H769 H 0.12039 0.37599 0.31853 0.0
H770 H 0.16678 0.40573 0.23239 0.0
H771 H 0.15657 0.41134 0.32063 0.0
H772 H 0.19601 0.49735 0.30376 0.0
H773 H 0.162 0.46024 0.30401 0.0
H774 H 0.21424 0.41206 0.25041 0.0
H775 H 0.24809 0.44907 0.24992 0.0
C776 C 0.13682 0.37895 0.25035 0.0
C777 C 0.12347 0.37016 0.27448 0.0
C778 C 0.15734 0.39897 0.25146 0.0
C779 C 0.16464 0.41106 0.27668 0.0
C780 C 0.15127 0.40239 0.30089 0.0
C781 C 0.1308 0.38211 0.29977 0.0
C782 C 0.20015 0.4789 0.29192 0.0
C783 C 0.22463 0.47624 0.27665 0.0
C784 C 0.18083 0.45756 0.29231 0.0
C785 C 0.18555 0.43326 0.2773 0.0
C786 C 0.20998 0.43065 0.26201 0.0
C787 C 0.22935 0.45187 0.26174 0.0
H788 H 0.30532 0.50281 0.80321 0.0
H789 H 0.25166 0.55802 0.75833 0.0
H790 H 0.33977 0.53925 0.8067 0.0
H791 H 0.28625 0.59418 0.76146 0.0
H792 H 0.34163 0.66139 0.79385 0.0
H793 H 0.30755 0.62421 0.79621 0.0
H794 H 0.37121 0.56501 0.7767 0.0
H795 H 0.40514 0.60221 0.77521 0.0
C796 C 0.30096 0.52262 0.79389 0.0
C797 C 0.27579 0.52748 0.7804 0.0
C798 C 0.3207 0.54348 0.7959 0.0
C799 C 0.31563 0.56963 0.78454 0.0
C800 C 0.29055 0.57439 0.77086 0.0
C801 C 0.27086 0.55356 0.7688 0.0
C802 C 0.34824 0.64033 0.79061 0.0
C803 C 0.37572 0.63453 0.78389 0.0
C804 C 0.3288 0.61912 0.79164 0.0
C805 C 0.33664 0.59174 0.78619 0.0
C806 C 0.36452 0.58586 0.781 0.0
C807 C 0.38389 0.60708 0.77992 0.0
H808 H 0.66144 0.16198 0.70489 0.0
H809 H 0.59695 0.10303 0.72041 0.0
H810 H 0.69522 0.12446 0.70228 0.0
H811 H 0.63047 0.06555 0.71883 0.0
H812 H 0.69491 0.00268 0.69338 0.0
H813 H 0.66163 0.04004 0.68955 0.0
H814 H 0.71593 0.09317 0.73593 0.0
H815 H 0.74956 0.056 0.73921 0.0
C816 C 0.65457 0.1409 0.70735 0.0
C817 C 0.62689 0.13521 0.71327 0.0
C818 C 0.67382 0.1195 0.70621 0.0
C819 C 0.66557 0.09208 0.71079 0.0
C820 C 0.6375 0.0864 0.71515 0.0
C821 C 0.61835 0.10778 0.71628 0.0
C822 C 0.69971 0.02228 0.70288 0.0
C823 C 0.72481 0.02633 0.71675 0.0
C824 C 0.68063 0.04369 0.70067 0.0
C825 C 0.6862 0.06959 0.71232 0.0
C826 C 0.71124 0.07359 0.72631 0.0
C827 C 0.73036 0.05219 0.72849 0.0
H828 H 0.88483 0.8698 0.1859 0.0
H829 H 0.8729 0.8668 0.27386 0.0
H830 H 0.8481 0.90445 0.18223 0.0
H831 H 0.83631 0.90074 0.2704 0.0
H832 H 0.75528 0.9429 0.25188 0.0
H833 H 0.78955 0.90635 0.25239 0.0
H834 H 0.8405 0.95309 0.19632 0.0
H835 H 0.80585 0.98963 0.19534 0.0
C836 C 0.87397 0.87621 0.20431 0.0
C837 C 0.88095 0.86489 0.23 0.0
C838 C 0.85317 0.8961 0.20229 0.0
C839 C 0.83914 0.90511 0.22601 0.0
C840 C 0.84621 0.89372 0.25166 0.0
C841 C 0.86698 0.87399 0.25364 0.0
C842 C 0.77373 0.94543 0.23959 0.0
C843 C 0.77787 0.96925 0.22365 0.0
C844 C 0.79342 0.92449 0.23997 0.0
C845 C 0.81772 0.92686 0.22442 0.0
C846 C 0.82182 0.95055 0.20827 0.0
C847 C 0.8021 0.97158 0.20793 0.0
H848 H 0.25994 0.24754 0.44493 0.0
H849 H 0.30175 0.19159 0.50028 0.0
H850 H 0.26235 0.21327 0.40847 0.0
H851 H 0.30449 0.15739 0.4635 0.0
H852 H 0.27111 0.09422 0.39917 0.0
H853 H 0.27348 0.12756 0.43684 0.0
H854 H 0.29691 0.19097 0.37882 0.0
H855 H 0.29364 0.15753 0.34114 0.0
C856 C 0.2696 0.2279 0.44935 0.0
C857 C 0.28056 0.22225 0.47555 0.0
C858 C 0.27124 0.20838 0.42835 0.0
C859 C 0.28384 0.18275 0.43305 0.0
C860 C 0.29454 0.17693 0.45932 0.0
C861 C 0.29296 0.19651 0.48037 0.0
C862 C 0.27681 0.1153 0.39465 0.0
C863 C 0.2816 0.12364 0.36738 0.0
C864 C 0.27844 0.1343 0.41615 0.0
C865 C 0.285 0.16197 0.41071 0.0
C866 C 0.29128 0.1699 0.38354 0.0
C867 C 0.2897 0.15082 0.36206 0.0
H868 H 0.26681 0.87379 0.86714 0.0
H869 H 0.17879 0.88492 0.87159 0.0
H870 H 0.26438 0.83784 0.90181 0.0
H871 H 0.17618 0.84881 0.90704 0.0
H872 H 0.19137 0.80696 0.99232 0.0
H873 H 0.19131 0.84157 0.95565 0.0
H874 H 0.24693 0.791 0.90796 0.0
H875 H 0.24745 0.75685 0.94456 0.0
C876 C 0.24678 0.86782 0.87482 0.0
C877 C 0.22282 0.88133 0.86585 0.0
C878 C 0.2454 0.84742 0.89498 0.0
C879 C 0.22005 0.84028 0.90698 0.0
C880 C 0.19602 0.85394 0.8982 0.0
C881 C 0.19744 0.87436 0.87785 0.0
C882 C 0.20366 0.80332 0.97405 0.0
C883 C 0.21953 0.77922 0.97144 0.0
C884 C 0.2034 0.823 0.95295 0.0
C885 C 0.21911 0.81899 0.92893 0.0
C886 C 0.23484 0.79483 0.92634 0.0
C887 C 0.23506 0.7752 0.94732 0.0
H888 H 0.82245 0.28009 0.52821 0.0
H889 H 0.73396 0.27471 0.53329 0.0
H890 H 0.82308 0.31103 0.56764 0.0
H891 H 0.73387 0.30772 0.57099 0.0
H892 H 0.73743 0.35336 0.64851 0.0
H893 H 0.7416 0.31652 0.61583 0.0
H894 H 0.81549 0.3542 0.58304 0.0
H895 H 0.81323 0.38909 0.61857 0.0
C896 C 0.80307 0.28615 0.53752 0.0
C897 C 0.77813 0.27537 0.52777 0.0
C898 C 0.80333 0.304 0.56009 0.0
C899 C 0.77853 0.31219 0.57282 0.0
C900 C 0.75353 0.3015 0.5625 0.0
C901 C 0.75341 0.28288 0.54057 0.0
C902 C 0.75547 0.35314 0.63559 0.0
C903 C 0.77543 0.37409 0.63696 0.0
C904 C 0.75737 0.33226 0.61591 0.0
C905 C 0.77858 0.33236 0.5961 0.0
C906 C 0.79899 0.35288 0.59797 0.0
C907 C 0.79759 0.37318 0.6183 0.0
H908 H 0.72622 0.59194 0.09906 0.0
H909 H 0.70588 0.65488 0.15826 0.0
H910 H 0.72448 0.62605 0.06192 0.0
H911 H 0.70353 0.68911 0.12119 0.0
H912 H 0.74211 0.74511 0.055 0.0
H913 H 0.73933 0.71035 0.09103 0.0
H914 H 0.69266 0.65756 0.03674 0.0
H915 H 0.69545 0.69235 0.0005 0.0
C916 C 0.72115 0.6131 0.10395 0.0
C917 C 0.71666 0.62108 0.13136 0.0
C918 C 0.71993 0.63254 0.08278 0.0
C919 C 0.7142 0.66028 0.08874 0.0
C920 C 0.70843 0.66794 0.11609 0.0
C921 C 0.70951 0.64844 0.13721 0.0
C922 C 0.73124 0.72613 0.05069 0.0
C923 C 0.71896 0.72154 0.02488 0.0
C924 C 0.72948 0.7063 0.07142 0.0
C925 C 0.71556 0.68138 0.06675 0.0
C926 C 0.7036 0.67657 0.04085 0.0
C927 C 0.7052 0.6965 0.02013 0.0
H928 H 0.3723 0.31927 0.11655 0.0
H929 H 0.36548 0.23163 0.12933 0.0
H930 H 0.40802 0.32149 0.15235 0.0
H931 H 0.40024 0.23377 0.16516 0.0
H932 H 0.44524 0.25192 0.24523 0.0
H933 H 0.40779 0.25264 0.2119 0.0
H934 H 0.45646 0.3041 0.15801 0.0
H935 H 0.49403 0.30364 0.19154 0.0
C936 C 0.37802 0.30066 0.12746 0.0
C937 C 0.36534 0.2755 0.12093 0.0
C938 C 0.39851 0.30184 0.14772 0.0
C939 C 0.40672 0.27782 0.16171 0.0
C940 C 0.39388 0.25273 0.15524 0.0
C941 C 0.37363 0.25156 0.13493 0.0
C942 C 0.44805 0.26333 0.22625 0.0
C943 C 0.47272 0.27755 0.22095 0.0
C944 C 0.42657 0.26372 0.20716 0.0
C945 C 0.42919 0.27845 0.18238 0.0
C946 C 0.45376 0.29284 0.1771 0.0
C947 C 0.47536 0.29233 0.19616 0.0
H948 H 0.87125 0.18023 0.88116 0.0
H949 H 0.86325 0.26769 0.86769 0.0
H950 H 0.90573 0.17784 0.84421 0.0
H951 H 0.89695 0.26541 0.83083 0.0
H952 H 0.94115 0.24766 0.75052 0.0
H953 H 0.90414 0.24669 0.78433 0.0
H954 H 0.95363 0.19495 0.83723 0.0
H955 H 0.99071 0.19556 0.80316 0.0
C956 C 0.87644 0.19877 0.86986 0.0
C957 C 0.86388 0.22394 0.87663 0.0
C958 C 0.89625 0.19749 0.84894 0.0
C959 C 0.9039 0.22143 0.83452 0.0
C960 C 0.89103 0.2465 0.8411 0.0
C961 C 0.87141 0.24776 0.86204 0.0
C962 C 0.94423 0.2361 0.76937 0.0
C963 C 0.96899 0.22187 0.77425 0.0
C964 C 0.92299 0.23557 0.78874 0.0
C965 C 0.92598 0.22075 0.81341 0.0
C966 C 0.95062 0.20628 0.81823 0.0
C967 C 0.97195 0.20687 0.79886 0.0
H968 H 0.50458 0.80768 0.30377 0.0
H969 H 0.55861 0.76047 0.25093 0.0
H970 H 0.54106 0.81078 0.33818 0.0
H971 H 0.59488 0.76335 0.28546 0.0
H972 H 0.66264 0.79429 0.34141 0.0
H973 H 0.62589 0.79751 0.30688 0.0
H974 H 0.56548 0.77987 0.36995 0.0
H975 H 0.60226 0.77741 0.40429 0.0
C976 C 0.52417 0.79784 0.29954 0.0
C977 C 0.52866 0.78375 0.27462 0.0
C978 C 0.54505 0.79962 0.31927 0.0
C979 C 0.57088 0.78745 0.31445 0.0
C980 C 0.57535 0.77335 0.28956 0.0
C981 C 0.55446 0.77148 0.26988 0.0
C982 C 0.64141 0.79165 0.34778 0.0
C983 C 0.63512 0.78519 0.37522 0.0
C984 C 0.62045 0.79318 0.3281 0.0
C985 C 0.59284 0.78854 0.33565 0.0
C986 C 0.58652 0.78359 0.36348 0.0
C987 C 0.60749 0.78197 0.38308 0.0
H988 H 0.13563 0.76467 0.63174 0.0
H989 H 0.13335 0.6764 0.62225 0.0
H990 H 0.10172 0.76201 0.6683 0.0
H991 H 0.0986 0.67354 0.659 0.0
H992 H 0.01147 0.68881 0.69677 0.0
H993 H 0.04975 0.68807 0.66414 0.0
H994 H 0.09452 0.7454 0.71538 0.0
H995 H 0.05614 0.74666 0.74763 0.0
C996 C 0.12873 0.74455 0.63831 0.0
C997 C 0.13791 0.7206 0.62493 0.0
C998 C 0.109 0.74304 0.65907 0.0
C999 C 0.09765 0.71755 0.66667 0.0
C1000 C 0.10696 0.69348 0.65348 0.0
C1001 C 0.12689 0.69503 0.63269 0.0
C1002 C 0.02946 0.70131 0.70102 0.0
C1003 C 0.03069 0.71795 0.72469 0.0
C1004 C 0.05149 0.70062 0.68251 0.0
C1005 C 0.07514 0.71662 0.68726 0.0
C1006 C 0.07646 0.73302 0.71106 0.0
C1007 C 0.05448 0.7337 0.72956 0.0
H1008 H 0.89001 0.61495 0.68337 0.0
H1009 H 0.85299 0.64945 0.75658 0.0
H1010 H 0.8543 0.58018 0.68198 0.0
H1011 H 0.81549 0.61756 0.75305 0.0
H1012 H 0.77191 0.53649 0.7643 0.0
H1013 H 0.80565 0.57345 0.76301 0.0
H1014 H 0.81099 0.56506 0.67425 0.0
H1015 H 0.77919 0.52634 0.67638 0.0
C1016 C 0.87369 0.61586 0.69857 0.0
C1017 C 0.8745 0.63557 0.71979 0.0
C1018 C 0.85292 0.59595 0.69766 0.0
C1019 C 0.83184 0.59558 0.7176 0.0
C1020 C 0.83165 0.61646 0.73772 0.0
C1021 C 0.85297 0.6357 0.7392 0.0
C1022 C 0.78062 0.54253 0.74464 0.0
C1023 C 0.77338 0.5285 0.72052 0.0
C1024 C 0.7997 0.56404 0.74372 0.0
C1025 C 0.81118 0.57274 0.71844 0.0
C1026 C 0.8033 0.55879 0.69421 0.0
C1027 C 0.78496 0.53663 0.69534 0.0
H1028 H 0.65645 0.33661 0.20483 0.0
H1029 H 0.59246 0.39563 0.22237 0.0
H1030 H 0.69018 0.37403 0.20151 0.0
H1031 H 0.62604 0.43306 0.22 0.0
H1032 H 0.69072 0.49557 0.19268 0.0
H1033 H 0.65699 0.45847 0.18945 0.0
H1034 H 0.71142 0.40498 0.23534 0.0
H1035 H 0.74534 0.44181 0.23816 0.0
C1036 C 0.64966 0.35768 0.20766 0.0
C1037 C 0.62215 0.36338 0.21436 0.0
C1038 C 0.6689 0.37902 0.20606 0.0
C1039 C 0.66083 0.40644 0.21093 0.0
C1040 C 0.63291 0.41219 0.21611 0.0
C1041 C 0.61375 0.39083 0.21774 0.0
C1042 C 0.69546 0.47591 0.20213 0.0
C1043 C 0.72065 0.47167 0.2158 0.0
C1044 C 0.67613 0.45468 0.2003 0.0
C1045 C 0.68161 0.42878 0.21203 0.0
C1046 C 0.70679 0.42457 0.22569 0.0
C1047 C 0.7261 0.44578 0.22756 0.0
H1048 H 0.38877 0.88199 0.31511 0.0
H1049 H 0.35422 0.85627 0.23729 0.0
H1050 H 0.35373 0.91735 0.31881 0.0
H1051 H 0.3172 0.88861 0.24273 0.0
H1052 H 0.27615 0.97141 0.23817 0.0
H1053 H 0.30929 0.9339 0.23705 0.0
H1054 H 0.31024 0.93258 0.32636 0.0
H1055 H 0.27901 0.97198 0.32689 0.0
C1056 C 0.37309 0.88313 0.29929 0.0
C1057 C 0.37434 0.86574 0.27615 0.0
C1058 C 0.35271 0.90334 0.30151 0.0
C1059 C 0.33252 0.90632 0.28091 0.0
C1060 C 0.33273 0.88768 0.25869 0.0
C1061 C 0.35368 0.86817 0.256 0.0
C1062 C 0.28382 0.96315 0.25745 0.0
C1063 C 0.27552 0.97458 0.28256 0.0
C1064 C 0.3025 0.94131 0.25694 0.0
C1065 C 0.31247 0.92967 0.28165 0.0
C1066 C 0.30364 0.94114 0.30686 0.0
C1067 C 0.28567 0.96366 0.30727 0.0
H1068 H 0.22692 0.03621 0.73171 0.0
H1069 H 0.22406 0.03468 0.82044 0.0
H1070 H 0.19296 0.0731 0.73104 0.0
H1071 H 0.19214 0.07338 0.82036 0.0
H1072 H 0.11183 0.12068 0.81096 0.0
H1073 H 0.14813 0.08655 0.81341 0.0
H1074 H 0.18222 0.11776 0.7371 0.0
H1075 H 0.14396 0.14891 0.73294 0.0
C1076 C 0.21919 0.0442 0.75108 0.0
C1077 C 0.22762 0.03256 0.77607 0.0
C1078 C 0.19998 0.06564 0.75084 0.0
C1079 C 0.18956 0.07661 0.77569 0.0
C1080 C 0.19889 0.06523 0.80074 0.0
C1081 C 0.21734 0.04313 0.80089 0.0
C1082 C 0.12724 0.12035 0.79482 0.0
C1083 C 0.12501 0.13816 0.77209 0.0
C1084 C 0.14837 0.10086 0.79632 0.0
C1085 C 0.16839 0.09902 0.77538 0.0
C1086 C 0.16699 0.11789 0.75338 0.0
C1087 C 0.14529 0.1367 0.75143 0.0
H1088 H 0.6761 0.87546 0.63169 0.0
H1089 H 0.76419 0.86408 0.63451 0.0
H1090 H 0.67287 0.83954 0.59616 0.0
H1091 H 0.76105 0.82809 0.60013 0.0
H1092 H 0.74302 0.74938 0.55364 0.0
H1093 H 0.74209 0.781 0.59255 0.0
H1094 H 0.68936 0.83617 0.54675 0.0
H1095 H 0.69002 0.8044 0.50771 0.0
C1096 C 0.69459 0.86473 0.62527 0.0
C1097 C 0.72022 0.87179 0.63663 0.0
C1098 C 0.69281 0.84442 0.6049 0.0
C1099 C 0.71671 0.83092 0.59561 0.0
C1100 C 0.74222 0.83766 0.60738 0.0
C1101 C 0.74398 0.85804 0.62745 0.0
C1102 C 0.73124 0.76826 0.55179 0.0
C1103 C 0.71681 0.77454 0.52749 0.0
C1104 C 0.7307 0.78632 0.57411 0.0
C1105 C 0.71561 0.81095 0.57265 0.0
C1106 C 0.70087 0.81712 0.54851 0.0
C1107 C 0.70153 0.79911 0.52608 0.0
H1108 H 0.8068 0.19613 0.01156 0.0
H1109 H 0.75013 0.24753 0.05723 0.0
H1110 H 0.8066 0.1627 0.04915 0.0
H1111 H 0.75039 0.21442 0.09489 0.0
H1112 H 0.731 0.13126 0.1371 0.0
H1113 H 0.73336 0.16771 0.1029 0.0
H1114 H 0.82157 0.15689 0.09745 0.0
H1115 H 0.81904 0.12032 0.13226 0.0
C1116 C 0.79433 0.20032 0.0296 0.0
C1117 C 0.77838 0.22443 0.03133 0.0
C1118 C 0.79445 0.1813 0.05125 0.0
C1119 C 0.77855 0.18597 0.07503 0.0
C1120 C 0.76267 0.21012 0.07674 0.0
C1121 C 0.76259 0.22913 0.05516 0.0
C1122 C 0.75102 0.13739 0.12951 0.0
C1123 C 0.77499 0.12357 0.13802 0.0
C1124 C 0.75235 0.1581 0.10962 0.0
C1125 C 0.77765 0.16525 0.09751 0.0
C1126 C 0.80173 0.15168 0.10626 0.0
C1127 C 0.80037 0.13098 0.12628 0.0
H1128 H 0.19523 0.69673 0.49326 0.0
H1129 H 0.246 0.7498 0.4428 0.0
H1130 H 0.19354 0.66309 0.45623 0.0
H1131 H 0.24483 0.71566 0.40588 0.0
H1132 H 0.21456 0.65983 0.33597 0.0
H1133 H 0.21316 0.69489 0.37247 0.0
H1134 H 0.22401 0.63097 0.43363 0.0
H1135 H 0.22492 0.59637 0.39711 0.0
C1136 C 0.20626 0.70112 0.47435 0.0
C1137 C 0.22091 0.72587 0.47104 0.0
C1138 C 0.20532 0.68178 0.45313 0.0
C1139 C 0.21906 0.68669 0.42813 0.0
C1140 C 0.23373 0.71145 0.42478 0.0
C1141 C 0.23464 0.73086 0.44603 0.0
C1142 C 0.21637 0.65355 0.35731 0.0
C1143 C 0.21987 0.62569 0.36401 0.0
C1144 C 0.21579 0.67347 0.37812 0.0
C1145 C 0.2186 0.6657 0.40593 0.0
C1146 C 0.22144 0.63762 0.41248 0.0
C1147 C 0.22198 0.61782 0.39169 0.0
H1148 H 0.25014 0.24742 0.94254 0.0
H1149 H 0.3045 0.30117 0.98824 0.0
H1150 H 0.25001 0.28008 0.90436 0.0
H1151 H 0.30409 0.3339 0.95011 0.0
H1152 H 0.31638 0.37588 0.86731 0.0
H1153 H 0.31965 0.33876 0.90145 0.0
H1154 H 0.23154 0.32705 0.89673 0.0
H1155 H 0.22839 0.36417 0.86334 0.0
C1156 C 0.26198 0.26624 0.94449 0.0
C1157 C 0.27716 0.27182 0.96851 0.0
C1158 C 0.2619 0.28491 0.92261 0.0
C1159 C 0.2771 0.30947 0.92423 0.0
C1160 C 0.29249 0.31494 0.94813 0.0
C1161 C 0.29248 0.29633 0.97007 0.0
C1162 C 0.29789 0.3649 0.87326 0.0
C1163 C 0.27228 0.37234 0.86207 0.0
C1164 C 0.29969 0.34386 0.89286 0.0
C1165 C 0.27584 0.32998 0.90167 0.0
C1166 C 0.25035 0.33697 0.88992 0.0
C1167 C 0.24856 0.35806 0.8705 0.0
H1168 H 0.55514 0.74087 0.7517 0.0
H1169 H 0.50166 0.69805 0.80869 0.0
H1170 H 0.59198 0.74007 0.78575 0.0
H1171 H 0.53874 0.69686 0.84255 0.0
H1172 H 0.60178 0.73134 0.90544 0.0
H1173 H 0.56431 0.72889 0.87189 0.0
H1174 H 0.62291 0.70696 0.80846 0.0
H1175 H 0.66039 0.71036 0.84209 0.0
C1176 C 0.55123 0.7313 0.77149 0.0
C1177 C 0.52543 0.71963 0.77754 0.0
C1178 C 0.57243 0.73061 0.79089 0.0
C1179 C 0.56829 0.71826 0.81676 0.0
C1180 C 0.54246 0.70671 0.82287 0.0
C1181 C 0.52125 0.70736 0.80345 0.0
C1182 C 0.60651 0.72609 0.88429 0.0
C1183 C 0.63385 0.72162 0.87605 0.0
C1184 C 0.58512 0.72439 0.86516 0.0
C1185 C 0.59072 0.71804 0.83747 0.0
C1186 C 0.61803 0.71239 0.82955 0.0
C1187 C 0.6394 0.71405 0.84874 0.0
H1188 H 0.05674 0.74443 0.2521 0.0
H1189 H 0.00981 0.80075 0.20145 0.0
H1190 H 0.09419 0.74558 0.21864 0.0
H1191 H 0.04715 0.80156 0.16785 0.0
H1192 H 0.12931 0.81672 0.12529 0.0
H1193 H 0.09504 0.81779 0.16242 0.0
H1194 H 0.1024 0.72953 0.17136 0.0
H1195 H 0.13605 0.7286 0.13432 0.0
C1196 C 0.05431 0.75689 0.23374 0.0
C1197 C 0.0302 0.77234 0.22934 0.0
C1198 C 0.07579 0.75755 0.21458 0.0
C1199 C 0.07367 0.77374 0.19066 0.0
C1200 C 0.04957 0.78921 0.18628 0.0
C1201 C 0.02805 0.7885 0.2054 0.0
C1202 C 0.12389 0.79772 0.13566 0.0
C1203 C 0.13597 0.77274 0.12752 0.0
C1204 C 0.10418 0.79825 0.15669 0.0
C1205 C 0.09608 0.77373 0.16985 0.0
C1206 C 0.10862 0.74884 0.16205 0.0
C1207 C 0.12819 0.74833 0.141 0.0
H1208 H 0.44613 0.23804 0.74688 0.0
H1209 H 0.49866 0.19374 0.69013 0.0
H1210 H 0.40892 0.23695 0.71329 0.0
H1211 H 0.46116 0.19219 0.65674 0.0
H1212 H 0.39783 0.22679 0.59396 0.0
H1213 H 0.43565 0.22358 0.62701 0.0
H1214 H 0.37729 0.20437 0.69154 0.0
H1215 H 0.33947 0.20867 0.6584 0.0
C1216 C 0.44974 0.22806 0.72724 0.0
C1217 C 0.4754 0.2161 0.72112 0.0
C1218 C 0.42832 0.22719 0.70811 0.0
C1219 C 0.43205 0.21433 0.68244 0.0
C1220 C 0.45774 0.20245 0.67626 0.0
C1221 C 0.47919 0.20331 0.69541 0.0
C1222 C 0.39324 0.22194 0.61524 0.0
C1223 C 0.36587 0.21863 0.62394 0.0
C1224 C 0.41483 0.2198 0.63409 0.0
C1225 C 0.40941 0.21409 0.66196 0.0
C1226 C 0.38205 0.20934 0.67031 0.0
C1227 C 0.36047 0.2115 0.6514 0.0
H1228 H 0.87086 0.3225 0.3787 0.0
H1229 H 0.86639 0.23456 0.36706 0.0
H1230 H 0.90573 0.32538 0.34209 0.0
H1231 H 0.90031 0.23732 0.33045 0.0
H1232 H 0.94454 0.25547 0.25001 0.0
H1233 H 0.90703 0.25582 0.28337 0.0
H1234 H 0.95447 0.30922 0.33639 0.0
H1235 H 0.99203 0.30914 0.30289 0.0
C1236 C 0.87688 0.30395 0.36786 0.0
C1237 C 0.86516 0.2785 0.37497 0.0
C1238 C 0.89688 0.30552 0.34713 0.0
C1239 C 0.90553 0.28158 0.33327 0.0
C1240 C 0.89356 0.25621 0.34026 0.0
C1241 C 0.87381 0.25466 0.36103 0.0
C1242 C 0.94705 0.26724 0.2688 0.0
C1243 C 0.97137 0.28209 0.27391 0.0
C1244 C 0.92554 0.26744 0.28789 0.0
C1245 C 0.92782 0.28259 0.31243 0.0
C1246 C 0.95202 0.29764 0.31747 0.0
C1247 C 0.97362 0.29734 0.29843 0.0
H1248 H 0.13133 0.07748 0.25072 0.0
H1249 H 0.17151 0.12606 0.31344 0.0
H1250 H 0.10221 0.11632 0.23895 0.0
H1251 H 0.14111 0.16467 0.30292 0.0
H1252 H 0.1105 0.23811 0.25381 0.0
H1253 H 0.13582 0.19804 0.26948 0.0
H1254 H 0.06637 0.14617 0.24867 0.0
H1255 H 0.04167 0.18648 0.23138 0.0
C1256 C 0.13344 0.0963 0.26253 0.0
C1257 C 0.15389 0.09877 0.28289 0.0
C1258 C 0.11657 0.11866 0.25585 0.0
C1259 C 0.11933 0.14397 0.2697 0.0
C1260 C 0.13881 0.14585 0.29119 0.0
C1261 C 0.15609 0.12362 0.29749 0.0
C1262 C 0.10061 0.21813 0.2526 0.0
C1263 C 0.07412 0.21543 0.24128 0.0
C1264 C 0.11506 0.19507 0.26189 0.0
C1265 C 0.10322 0.16864 0.26065 0.0
C1266 C 0.07645 0.16603 0.24962 0.0
C1267 C 0.06218 0.18914 0.23978 0.0
H1268 H 0.31786 0.87264 0.79744 0.0
H1269 H 0.37838 0.93111 0.76851 0.0
H1270 H 0.34862 0.835 0.78589 0.0
H1271 H 0.40958 0.89327 0.75735 0.0
H1272 H 0.41543 0.77239 0.78152 0.0
H1273 H 0.39065 0.81264 0.79773 0.0
H1274 H 0.41321 0.85645 0.72354 0.0
H1275 H 0.43895 0.81601 0.70757 0.0
C1276 C 0.33798 0.87755 0.78929 0.0
C1277 C 0.34556 0.90496 0.78403 0.0
C1278 C 0.35572 0.85589 0.7826 0.0
C1279 C 0.38162 0.86105 0.77056 0.0
C1280 C 0.38965 0.88852 0.7662 0.0
C1281 C 0.37183 0.91022 0.77286 0.0
C1282 C 0.41532 0.79065 0.76868 0.0
C1283 C 0.42889 0.7909 0.74307 0.0
C1284 C 0.40097 0.81373 0.77796 0.0
C1285 C 0.39952 0.83768 0.7618 0.0
C1286 C 0.41403 0.83839 0.73662 0.0
C1287 C 0.42869 0.81522 0.72738 0.0
H1288 H 0.67579 0.3725 0.69746 0.0
H1289 H 0.62231 0.42991 0.73953 0.0
H1290 H 0.64478 0.33509 0.70902 0.0
H1291 H 0.59058 0.39248 0.7503 0.0
H1292 H 0.57732 0.2742 0.71638 0.0
H1293 H 0.60118 0.31523 0.70068 0.0
H1294 H 0.58848 0.35297 0.78036 0.0
H1295 H 0.56345 0.31191 0.79574 0.0
C1296 C 0.65718 0.37725 0.70874 0.0
C1297 C 0.65176 0.40419 0.71773 0.0
C1298 C 0.6392 0.35577 0.71527 0.0
C1299 C 0.61515 0.36069 0.73076 0.0
C1300 C 0.60911 0.38785 0.73876 0.0
C1301 C 0.62721 0.40935 0.73233 0.0
C1302 C 0.57936 0.29137 0.73049 0.0
C1303 C 0.56882 0.28974 0.75742 0.0
C1304 C 0.59319 0.31487 0.72151 0.0
C1305 C 0.59726 0.33726 0.73936 0.0
C1306 C 0.58559 0.33617 0.76597 0.0
C1307 C 0.57134 0.31265 0.77487 0.0
H1308 H 0.82506 0.62406 0.18749 0.0
H1309 H 0.86505 0.57374 0.24907 0.0
H1310 H 0.85613 0.66204 0.1985 0.0
H1311 H 0.89477 0.6118 0.26123 0.0
H1312 H 0.95691 0.67945 0.26947 0.0
H1313 H 0.93115 0.64052 0.25101 0.0
H1314 H 0.8628 0.69481 0.23263 0.0
H1315 H 0.88931 0.73373 0.2495 0.0
C1316 C 0.84057 0.62108 0.20326 0.0
C1317 C 0.84255 0.59593 0.21741 0.0
C1318 C 0.85823 0.64293 0.20982 0.0
C1319 C 0.8779 0.64027 0.23105 0.0
C1320 C 0.88033 0.6147 0.24449 0.0
C1321 C 0.86308 0.59279 0.23759 0.0
C1322 C 0.93641 0.68297 0.26137 0.0
C1323 C 0.92509 0.70957 0.261 0.0
C1324 C 0.92153 0.66065 0.25086 0.0
C1325 C 0.89471 0.66432 0.2403 0.0
C1326 C 0.88353 0.69109 0.23995 0.0
C1327 C 0.89864 0.71345 0.24992 0.0
H1328 H 0.28069 0.08436 0.22936 0.0
H1329 H 0.20823 0.05911 0.18429 0.0
H1330 H 0.29732 0.10911 0.1892 0.0
H1331 H 0.22454 0.08478 0.14405 0.0
H1332 H 0.26941 0.12014 0.07009 0.0
H1333 H 0.25883 0.08877 0.10794 0.0
H1334 H 0.28494 0.15073 0.16626 0.0
H1335 H 0.29589 0.18167 0.12861 0.0
C1336 C 0.26829 0.08406 0.2108 0.0
C1337 C 0.24296 0.07002 0.21009 0.0
C1338 C 0.2778 0.09839 0.18779 0.0
C1339 C 0.26212 0.0993 0.16349 0.0
C1340 C 0.23726 0.08434 0.16237 0.0
C1341 C 0.22782 0.06973 0.18544 0.0
C1342 C 0.27334 0.12688 0.091 0.0
C1343 C 0.28366 0.15347 0.09629 0.0
C1344 C 0.26705 0.10896 0.11269 0.0
C1345 C 0.27088 0.11722 0.14017 0.0
C1346 C 0.28211 0.14345 0.14536 0.0
C1347 C 0.28846 0.16129 0.1237 0.0
H1348 H 0.21873 0.91564 0.73012 0.0
H1349 H 0.29032 0.9399 0.6831 0.0
H1350 H 0.20115 0.89042 0.69067 0.0
H1351 H 0.27318 0.9137 0.6437 0.0
H1352 H 0.19888 0.81848 0.6295 0.0
H1353 H 0.21102 0.84909 0.66699 0.0
H1354 H 0.23898 0.90995 0.60829 0.0
H1355 H 0.22752 0.87874 0.57064 0.0
C1356 C 0.23078 0.91555 0.71133 0.0
C1357 C 0.25606 0.92962 0.70983 0.0
C1358 C 0.22073 0.90094 0.68869 0.0
C1359 C 0.23581 0.89972 0.66399 0.0
C1360 C 0.26081 0.91441 0.66225 0.0
C1361 C 0.27076 0.9293 0.6849 0.0
C1362 C 0.20711 0.83851 0.62447 0.0
C1363 C 0.21226 0.84597 0.59699 0.0
C1364 C 0.21408 0.85622 0.64606 0.0
C1365 C 0.22622 0.88202 0.64077 0.0
C1366 C 0.23017 0.89005 0.6132 0.0
C1367 C 0.22332 0.87223 0.59158 0.0
H1368 H 0.73014 0.458 0.81947 0.0
H1369 H 0.7576 0.3918 0.76679 0.0
H1370 H 0.74758 0.43315 0.8596 0.0
H1371 H 0.77345 0.36626 0.80662 0.0
H1372 H 0.8155 0.32994 0.8797 0.0
H1373 H 0.80554 0.36098 0.84139 0.0
H1374 H 0.73795 0.39612 0.88776 0.0
H1375 H 0.74894 0.36639 0.92621 0.0
C1376 C 0.73971 0.43805 0.81652 0.0
C1377 C 0.74245 0.42687 0.79 0.0
C1378 C 0.74964 0.42368 0.83952 0.0
C1379 C 0.76201 0.39751 0.83658 0.0
C1380 C 0.76473 0.38653 0.80989 0.0
C1381 C 0.75533 0.40111 0.78695 0.0
C1382 C 0.79881 0.34461 0.88176 0.0
C1383 C 0.78296 0.34555 0.90593 0.0
C1384 C 0.79288 0.36231 0.85971 0.0
C1385 C 0.77062 0.38098 0.86114 0.0
C1386 C 0.75549 0.38247 0.88581 0.0
C1387 C 0.76173 0.36519 0.90794 0.0
H1388 H 0.78593 0.55737 0.31543 0.0
H1389 H 0.71562 0.58501 0.26835 0.0
H1390 H 0.76984 0.58431 0.35488 0.0
H1391 H 0.69913 0.61104 0.30776 0.0
H1392 H 0.70108 0.68385 0.3682 0.0
H1393 H 0.71195 0.65228 0.33083 0.0
H1394 H 0.73526 0.58993 0.39003 0.0
H1395 H 0.72513 0.62185 0.42744 0.0
C1396 C 0.76681 0.56878 0.31369 0.0
C1397 C 0.75224 0.56933 0.28871 0.0
C1398 C 0.7575 0.58414 0.3363 0.0
C1399 C 0.73331 0.60013 0.33441 0.0
C1400 C 0.71815 0.59953 0.30978 0.0
C1401 C 0.72756 0.58446 0.2872 0.0
C1402 C 0.70811 0.66328 0.37327 0.0
C1403 C 0.71236 0.65545 0.4008 0.0
C1404 C 0.7143 0.64508 0.35182 0.0
C1405 C 0.72469 0.61855 0.35739 0.0
C1406 C 0.72779 0.61035 0.38498 0.0
C1407 C 0.72174 0.62859 0.40644 0.0
H1408 H 0.18295 0.20972 0.05977 0.0
H1409 H 0.22985 0.28135 0.0839 0.0
H1410 H 0.14321 0.2273 0.08529 0.0
H1411 H 0.19011 0.29938 0.10837 0.0
H1412 H 0.12882 0.30217 0.18006 0.0
H1413 H 0.16633 0.28975 0.14962 0.0
H1414 H 0.10776 0.26158 0.08878 0.0
H1415 H 0.07002 0.27347 0.11985 0.0
C1416 C 0.18463 0.22939 0.07017 0.0
C1417 C 0.20964 0.24395 0.0701 0.0
C1418 C 0.16181 0.23959 0.08467 0.0
C1419 C 0.16347 0.26471 0.09916 0.0
C1420 C 0.18821 0.27971 0.09804 0.0
C1421 C 0.21101 0.26939 0.08387 0.0
C1422 C 0.12381 0.29397 0.16002 0.0
C1423 C 0.09634 0.28894 0.1525 0.0
C1424 C 0.14543 0.28677 0.14242 0.0
C1425 C 0.14018 0.27448 0.11669 0.0
C1426 C 0.11262 0.27054 0.10862 0.0
C1427 C 0.09097 0.27763 0.12634 0.0
H1428 H 0.68342 0.28742 0.94146 0.0
H1429 H 0.7322 0.21837 0.91356 0.0
H1430 H 0.64452 0.27081 0.91415 0.0
H1431 H 0.69328 0.20129 0.88721 0.0
H1432 H 0.6326 0.2014 0.81475 0.0
H1433 H 0.66972 0.21312 0.84622 0.0
H1434 H 0.61005 0.23592 0.90833 0.0
H1435 H 0.57284 0.22501 0.87641 0.0
C1436 C 0.68568 0.26849 0.92986 0.0
C1437 C 0.71096 0.2544 0.92945 0.0
C1438 C 0.66336 0.25885 0.91431 0.0
C1439 C 0.66579 0.23478 0.89823 0.0
C1440 C 0.6908 0.22019 0.89879 0.0
C1441 C 0.71311 0.22994 0.91406 0.0
C1442 C 0.62737 0.20851 0.83525 0.0
C1443 C 0.59974 0.21238 0.84298 0.0
C1444 C 0.64869 0.21518 0.8534 0.0
C1445 C 0.64294 0.22568 0.87984 0.0
C1446 C 0.61526 0.2284 0.88797 0.0
C1447 C 0.59391 0.22188 0.86975 0.0
H1448 H 0.77419 0.78209 0.42269 0.0
H1449 H 0.8128 0.70341 0.43801 0.0
H1450 H 0.81574 0.79838 0.40012 0.0
H1451 H 0.8543 0.71927 0.41415 0.0
H1452 H 0.93176 0.75959 0.38231 0.0
H1453 H 0.89344 0.74895 0.41302 0.0
H1454 H 0.83787 0.79145 0.35786 0.0
H1455 H 0.87615 0.80289 0.32802 0.0
C1456 C 0.79163 0.76822 0.42118 0.0
C1457 C 0.79014 0.74134 0.43185 0.0
C1458 C 0.81546 0.77754 0.40808 0.0
C1459 C 0.83834 0.76007 0.40484 0.0
C1460 C 0.83722 0.73344 0.41645 0.0
C1461 C 0.8134 0.72423 0.43 0.0
C1462 C 0.91142 0.76714 0.37704 0.0
C1463 C 0.90706 0.78204 0.35251 0.0
C1464 C 0.88938 0.76077 0.39453 0.0
C1465 C 0.8624 0.76904 0.38789 0.0
C1466 C 0.85832 0.78497 0.36397 0.0
C1467 C 0.88037 0.7915 0.34665 0.0
H1468 H 0.36851 0.70177 0.68338 0.0
H1469 H 0.42749 0.73075 0.62326 0.0
H1470 H 0.33104 0.7141 0.65252 0.0
H1471 H 0.38994 0.74236 0.59196 0.0
H1472 H 0.2688 0.72033 0.58517 0.0
H1473 H 0.30832 0.70344 0.61065 0.0
H1474 H 0.35402 0.77649 0.58814 0.0
H1475 H 0.31441 0.79305 0.56164 0.0
C1476 C 0.37352 0.71019 0.66332 0.0
C1477 C 0.401 0.71535 0.65587 0.0
C1478 C 0.352 0.71724 0.64553 0.0
C1479 C 0.35742 0.72943 0.61975 0.0
C1480 C 0.38498 0.73349 0.61183 0.0
C1481 C 0.40652 0.72656 0.62969 0.0
C1482 C 0.28732 0.73277 0.58546 0.0
C1483 C 0.28838 0.7582 0.57157 0.0
C1484 C 0.30998 0.72311 0.60023 0.0
C1485 C 0.33429 0.73871 0.60181 0.0
C1486 C 0.3357 0.76379 0.58719 0.0
C1487 C 0.31299 0.77338 0.5721 0.0
H1488 H 0.81982 0.86916 0.69523 0.0
H1489 H 0.87845 0.92781 0.72729 0.0
H1490 H 0.85068 0.83173 0.70678 0.0
H1491 H 0.91006 0.89024 0.73804 0.0
H1492 H 0.93973 0.81406 0.78769 0.0
H1493 H 0.91397 0.85391 0.77089 0.0
H1494 H 0.89215 0.80865 0.69736 0.0
H1495 H 0.91682 0.76869 0.71468 0.0
C1496 C 0.83956 0.87418 0.70412 0.0
C1497 C 0.84644 0.90154 0.71043 0.0
C1498 C 0.85745 0.85261 0.71072 0.0
C1499 C 0.88291 0.85783 0.72357 0.0
C1500 C 0.89042 0.88536 0.72866 0.0
C1501 C 0.87238 0.90694 0.72223 0.0
C1502 C 0.92959 0.81277 0.76785 0.0
C1503 C 0.93005 0.78813 0.75269 0.0
C1504 C 0.91494 0.83567 0.7581 0.0
C1505 C 0.9007 0.83451 0.73281 0.0
C1506 C 0.90227 0.81017 0.71718 0.0
C1507 C 0.91656 0.78725 0.72707 0.0
H1508 H 0.63323 0.07123 0.2537 0.0
H1509 H 0.66797 0.11692 0.18568 0.0
H1510 H 0.60296 0.10952 0.2643 0.0
H1511 H 0.63658 0.15496 0.19537 0.0
H1512 H 0.60801 0.23002 0.24299 0.0
H1513 H 0.63306 0.18967 0.22809 0.0
H1514 H 0.56534 0.13797 0.2543 0.0
H1515 H 0.54065 0.17887 0.27061 0.0
C1516 C 0.63395 0.08926 0.24054 0.0
C1517 C 0.65333 0.09119 0.21905 0.0
C1518 C 0.6164 0.11126 0.24658 0.0
C1519 C 0.61745 0.13566 0.23101 0.0
C1520 C 0.63568 0.13686 0.20838 0.0
C1521 C 0.6536 0.11498 0.20264 0.0
C1522 C 0.59835 0.21006 0.24556 0.0
C1523 C 0.5723 0.20765 0.25802 0.0
C1524 C 0.61266 0.18682 0.23668 0.0
C1525 C 0.60123 0.16038 0.23959 0.0
C1526 C 0.575 0.15793 0.25194 0.0
C1527 C 0.56076 0.18134 0.26125 0.0
H1528 H 0.46116 0.68487 0.23327 0.0
H1529 H 0.39202 0.73608 0.25597 0.0
H1530 H 0.4372 0.64456 0.25157 0.0
H1531 H 0.36751 0.69601 0.27277 0.0
H1532 H 0.33233 0.62429 0.31681 0.0
H1533 H 0.36314 0.66263 0.30669 0.0
H1534 H 0.40114 0.61474 0.24181 0.0
H1535 H 0.37152 0.57621 0.253 0.0
C1536 C 0.44078 0.68745 0.24199 0.0
C1537 C 0.42849 0.71362 0.24315 0.0
C1538 C 0.42694 0.66435 0.25243 0.0
C1539 C 0.4003 0.66685 0.2638 0.0
C1540 C 0.38818 0.69317 0.26489 0.0
C1541 C 0.40217 0.71622 0.25494 0.0
C1542 C 0.34762 0.62184 0.30076 0.0
C1543 C 0.34927 0.59728 0.2856 0.0
C1544 C 0.36517 0.64392 0.29472 0.0
C1545 C 0.38442 0.64214 0.27301 0.0
C1546 C 0.3869 0.61699 0.25883 0.0
C1547 C 0.36973 0.59481 0.2652 0.0
H1548 H 0.03865 0.31985 0.73019 0.0
H1549 H 0.10516 0.26791 0.75847 0.0
H1550 H 0.06287 0.36029 0.74771 0.0
H1551 H 0.12996 0.3081 0.77464 0.0
H1552 H 0.16426 0.38152 0.81742 0.0
H1553 H 0.13344 0.34317 0.80723 0.0
H1554 H 0.10041 0.38846 0.73792 0.0
H1555 H 0.13014 0.42699 0.74895 0.0
C1556 C 0.05851 0.3171 0.74001 0.0
C1557 C 0.06998 0.29069 0.74289 0.0
C1558 C 0.0725 0.34029 0.74999 0.0
C1559 C 0.0985 0.33764 0.76268 0.0
C1560 C 0.10978 0.31109 0.76562 0.0
C1561 C 0.09563 0.28795 0.75606 0.0
C1562 C 0.1501 0.38337 0.80029 0.0
C1563 C 0.14986 0.4072 0.78389 0.0
C1564 C 0.13253 0.3613 0.79426 0.0
C1565 C 0.11461 0.36238 0.77141 0.0
C1566 C 0.11358 0.38681 0.75584 0.0
C1567 C 0.13081 0.40897 0.76212 0.0
H1568 H 0.75258 0.86822 0.92484 0.0
H1569 H 0.68689 0.83129 0.8776 0.0
H1570 H 0.76415 0.89769 0.8861 0.0
H1571 H 0.69733 0.86196 0.83921 0.0
H1572 H 0.74626 0.88954 0.76488 0.0
H1573 H 0.73093 0.86508 0.80547 0.0
H1574 H 0.75476 0.93432 0.85625 0.0
H1575 H 0.77157 0.95836 0.8152 0.0
C1576 C 0.74011 0.86692 0.90638 0.0
C1577 C 0.71899 0.8472 0.90416 0.0
C1578 C 0.74669 0.88397 0.88411 0.0
C1579 C 0.73202 0.88205 0.85919 0.0
C1580 C 0.70969 0.86351 0.85772 0.0
C1581 C 0.70346 0.84608 0.87982 0.0
C1582 C 0.74822 0.89963 0.78469 0.0
C1583 C 0.76014 0.92592 0.78682 0.0
C1584 C 0.73911 0.88566 0.80807 0.0
C1585 C 0.74116 0.89773 0.83432 0.0
C1586 C 0.75305 0.92418 0.83647 0.0
C1587 C 0.76264 0.93804 0.81296 0.0
H1588 H 0.7126 0.05699 0.31879 0.0
H1589 H 0.78192 0.08476 0.27034 0.0
H1590 H 0.72952 0.08359 0.35805 0.0
H1591 H 0.79939 0.11029 0.30963 0.0
H1592 H 0.79939 0.18241 0.3703 0.0
H1593 H 0.78804 0.15103 0.33328 0.0
H1594 H 0.76399 0.08933 0.39286 0.0
H1595 H 0.77472 0.12134 0.43011 0.0
C1596 C 0.73166 0.06841 0.31667 0.0
C1597 C 0.74571 0.06906 0.29138 0.0
C1598 C 0.74149 0.08353 0.33922 0.0
C1599 C 0.76575 0.09936 0.337 0.0
C1600 C 0.78033 0.09893 0.31197 0.0
C1601 C 0.77035 0.08416 0.28943 0.0
C1602 C 0.79232 0.16201 0.37562 0.0
C1603 C 0.78807 0.15449 0.40323 0.0
C1604 C 0.78575 0.14387 0.35429 0.0
C1605 C 0.77493 0.11757 0.35998 0.0
C1606 C 0.77181 0.10957 0.38767 0.0
C1607 C 0.77823 0.12784 0.40904 0.0
H1608 H 0.2523 0.63417 0.07195 0.0
H1609 H 0.18451 0.66788 0.11876 0.0
H1610 H 0.26477 0.60502 0.11056 0.0
H1611 H 0.19624 0.63773 0.15723 0.0
H1612 H 0.2471 0.61211 0.2315 0.0
H1613 H 0.23056 0.63613 0.19103 0.0
H1614 H 0.25602 0.56765 0.13999 0.0
H1615 H 0.27381 0.54401 0.18083 0.0
C1616 C 0.2396 0.63488 0.09029 0.0
C1617 C 0.21763 0.6537 0.09243 0.0
C1618 C 0.24673 0.618 0.11249 0.0
C1619 C 0.23184 0.61921 0.13732 0.0
C1620 C 0.20872 0.63677 0.13876 0.0
C1621 C 0.20182 0.65396 0.11664 0.0
C1622 C 0.24919 0.60211 0.21165 0.0
C1623 C 0.26183 0.57615 0.20937 0.0
C1624 C 0.23939 0.61581 0.18838 0.0
C1625 C 0.24156 0.6038 0.16211 0.0
C1626 C 0.25419 0.57771 0.15981 0.0
C1627 C 0.26438 0.56411 0.18319 0.0
H1628 H 0.23264 0.46055 0.68265 0.0
H1629 H 0.25209 0.39049 0.73395 0.0
H1630 H 0.25101 0.43618 0.64258 0.0
H1631 H 0.26898 0.36566 0.69411 0.0
H1632 H 0.31495 0.33026 0.62375 0.0
H1633 H 0.30406 0.36105 0.66192 0.0
H1634 H 0.24144 0.4004 0.61213 0.0
H1635 H 0.25347 0.37079 0.57376 0.0
C1636 C 0.24061 0.43987 0.68529 0.0
C1637 C 0.24094 0.42747 0.71143 0.0
C1638 C 0.2511 0.42582 0.66233 0.0
C1639 C 0.26172 0.39888 0.66496 0.0
C1640 C 0.26176 0.38657 0.69121 0.0
C1641 C 0.25175 0.40074 0.71411 0.0
C1642 C 0.29928 0.34589 0.62086 0.0
C1643 C 0.28499 0.34795 0.5958 0.0
C1644 C 0.29276 0.36339 0.64283 0.0
C1645 C 0.27142 0.38299 0.64044 0.0
C1646 C 0.25814 0.38586 0.61485 0.0
C1647 C 0.26499 0.36871 0.59276 0.0
H1648 H 0.92981 0.72926 0.87589 0.0
H1649 H 0.87026 0.70152 0.81591 0.0
H1650 H 0.89261 0.74008 0.90784 0.0
H1651 H 0.83313 0.71315 0.84731 0.0
H1652 H 0.77105 0.71899 0.9146 0.0
H1653 H 0.81047 0.70201 0.8889 0.0
H1654 H 0.85706 0.77399 0.91293 0.0
H1655 H 0.81763 0.7905 0.93969 0.0
C1656 C 0.90879 0.72521 0.86958 0.0
C1657 C 0.90302 0.71457 0.84323 0.0
C1658 C 0.88745 0.73168 0.88783 0.0
C1659 C 0.85981 0.72776 0.88014 0.0
C1660 C 0.85414 0.71614 0.85416 0.0
C1661 C 0.87549 0.70951 0.83601 0.0
C1662 C 0.78979 0.73112 0.91461 0.0
C1663 C 0.79117 0.75624 0.92894 0.0
C1664 C 0.81237 0.72143 0.89972 0.0
C1665 C 0.83687 0.73677 0.89845 0.0
C1666 C 0.83861 0.76148 0.91363 0.0
C1667 C 0.81601 0.77105 0.92887 0.0
H1668 H 0.31755 0.73411 0.03945 0.0
H1669 H 0.26572 0.75846 0.10758 0.0
H1670 H 0.35792 0.75123 0.06415 0.0
H1671 H 0.30582 0.77419 0.13276 0.0
H1672 H 0.3785 0.81749 0.16793 0.0
H1673 H 0.34007 0.80746 0.13716 0.0
H1674 H 0.3867 0.74062 0.10106 0.0
H1675 H 0.42534 0.75159 0.13069 0.0
C1676 C 0.31483 0.74295 0.05976 0.0
C1677 C 0.28847 0.74492 0.07154 0.0
C1678 C 0.33796 0.75271 0.07401 0.0
C1679 C 0.33529 0.76423 0.10056 0.0
C1680 C 0.3088 0.76614 0.11218 0.0
C1681 C 0.28573 0.75682 0.0978 0.0
C1682 C 0.38063 0.80096 0.1531 0.0
C1683 C 0.4049 0.78526 0.15191 0.0
C1684 C 0.35851 0.79501 0.13558 0.0
C1685 C 0.35997 0.7729 0.11678 0.0
C1686 C 0.38476 0.75799 0.11491 0.0
C1687 C 0.40697 0.76422 0.1321 0.0
H1688 H 0.18149 0.27252 0.54022 0.0
H1689 H 0.23133 0.24758 0.6096 0.0
H1690 H 0.14032 0.2555 0.56394 0.0
H1691 H 0.19061 0.23192 0.63365 0.0
H1692 H 0.11836 0.18718 0.66642 0.0
H1693 H 0.15693 0.19782 0.63602 0.0
H1694 H 0.11041 0.26517 0.60074 0.0
H1695 H 0.0716 0.25362 0.63005 0.0
C1696 C 0.1836 0.26363 0.56059 0.0
C1697 C 0.20964 0.26132 0.57297 0.0
C1698 C 0.16004 0.2539 0.57425 0.0
C1699 C 0.16204 0.24201 0.60071 0.0
C1700 C 0.18817 0.24013 0.61305 0.0
C1701 C 0.2116 0.24944 0.59931 0.0
C1702 C 0.11627 0.20395 0.65184 0.0
C1703 C 0.09204 0.21969 0.65087 0.0
C1704 C 0.13846 0.21025 0.63453 0.0
C1705 C 0.13711 0.23277 0.61619 0.0
C1706 C 0.11228 0.24758 0.61433 0.0
C1707 C 0.08998 0.241 0.63131 0.0
H1708 H 0.6233 0.31385 0.32636 0.0
H1709 H 0.57503 0.25049 0.36601 0.0
H1710 H 0.66164 0.30383 0.35727 0.0
H1711 H 0.6136 0.23918 0.39553 0.0
H1712 H 0.68307 0.23152 0.45648 0.0
H1713 H 0.64289 0.24875 0.43156 0.0
H1714 H 0.6954 0.27097 0.36295 0.0
H1715 H 0.73533 0.25542 0.38859 0.0
C1716 C 0.62086 0.29789 0.34178 0.0
C1717 C 0.59618 0.28295 0.34367 0.0
C1718 C 0.64294 0.29187 0.35935 0.0
C1719 C 0.64109 0.2703 0.37877 0.0
C1720 C 0.61591 0.25615 0.38124 0.0
C1721 C 0.5937 0.26257 0.36412 0.0
C1722 C 0.68588 0.2402 0.4361 0.0
C1723 C 0.71229 0.24213 0.42449 0.0
C1724 C 0.66286 0.25002 0.4217 0.0
C1725 C 0.66568 0.26142 0.39509 0.0
C1726 C 0.69225 0.26309 0.38358 0.0
C1727 C 0.71523 0.25386 0.39819 0.0
H1728 H 0.91283 0.24943 0.1374 0.0
H1729 H 0.98294 0.26628 0.08548 0.0
H1730 H 0.88215 0.26847 0.10214 0.0
H1731 H 0.95243 0.28493 0.05004 0.0
H1732 H 0.88233 0.27862 0.98388 0.0
H1733 H 0.9169 0.26772 0.01836 0.0
H1734 H 0.87095 0.31364 0.07916 0.0
H1735 H 0.83632 0.32493 0.04446 0.0
C1736 C 0.92163 0.25735 0.11852 0.0
C1737 C 0.95021 0.2566 0.11422 0.0
C1738 C 0.90416 0.26835 0.09838 0.0
C1739 C 0.91493 0.27856 0.07346 0.0
C1740 C 0.9435 0.27721 0.06898 0.0
C1741 C 0.96093 0.26636 0.08915 0.0
C1742 C 0.87989 0.28711 0.00438 0.0
C1743 C 0.85604 0.30199 0.01157 0.0
C1744 C 0.89974 0.28076 0.0242 0.0
C1745 C 0.89624 0.28917 0.05166 0.0
C1746 C 0.87376 0.30622 0.0583 0.0
C1747 C 0.85399 0.31281 0.03836 0.0
H1748 H 0.61984 0.74087 0.48345 0.0
H1749 H 0.64683 0.66848 0.52764 0.0
H1750 H 0.58615 0.7503 0.51929 0.0
H1751 H 0.6139 0.67865 0.56426 0.0
H1752 H 0.53773 0.6968 0.6173 0.0
H1753 H 0.56617 0.68288 0.57828 0.0
H1754 H 0.59014 0.76775 0.56593 0.0
H1755 H 0.56148 0.78144 0.60522 0.0
C1756 C 0.6183 0.72662 0.50058 0.0
C1757 C 0.63667 0.70432 0.50309 0.0
C1758 C 0.59923 0.73233 0.52137 0.0
C1759 C 0.59794 0.71579 0.54511 0.0
C1760 C 0.61454 0.69203 0.54642 0.0
C1761 C 0.63361 0.68629 0.52553 0.0
C1762 C 0.54975 0.71231 0.60674 0.0
C1763 C 0.54829 0.74008 0.61483 0.0
C1764 C 0.56579 0.7044 0.58417 0.0
C1765 C 0.58049 0.72415 0.56895 0.0
C1766 C 0.5788 0.75202 0.57696 0.0
C1767 C 0.56269 0.75989 0.59957 0.0
H1768 H 0.33748 0.1677 0.95977 0.0
H1769 H 0.37959 0.22452 0.01379 0.0
H1770 H 0.37156 0.17677 0.92385 0.0
H1771 H 0.41363 0.23328 0.97808 0.0
H1772 H 0.43986 0.27324 0.89601 0.0
H1773 H 0.40925 0.25876 0.93346 0.0
H1774 H 0.42165 0.17366 0.91066 0.0
H1775 H 0.45269 0.18815 0.87394 0.0
C1776 C 0.3543 0.18158 0.96425 0.0
C1777 C 0.3554 0.19577 0.98947 0.0
C1778 C 0.37383 0.1868 0.94365 0.0
C1779 C 0.3948 0.20632 0.94793 0.0
C1780 C 0.39726 0.21869 0.97395 0.0
C1781 C 0.37789 0.21337 0.99454 0.0
C1782 C 0.43576 0.25151 0.89892 0.0
C1783 C 0.44785 0.23195 0.88142 0.0
C1784 C 0.41848 0.24317 0.92043 0.0
C1785 C 0.41306 0.21503 0.92497 0.0
C1786 C 0.42509 0.19547 0.9074 0.0
C1787 C 0.44254 0.20383 0.88606 0.0
H1788 H 0.16117 0.81531 0.45503 0.0
H1789 H 0.11427 0.77743 0.52042 0.0
H1790 H 0.12714 0.80021 0.42166 0.0
H1791 H 0.08012 0.76217 0.48687 0.0
H1792 H 0.01523 0.75683 0.416 0.0
H1793 H 0.04501 0.77665 0.45159 0.0
H1794 H 0.11668 0.7522 0.40476 0.0
H1795 H 0.08673 0.7319 0.36958 0.0
C1796 C 0.14329 0.80452 0.46248 0.0
C1797 C 0.14079 0.79741 0.49043 0.0
C1798 C 0.12391 0.79549 0.44324 0.0
C1799 C 0.10136 0.77938 0.45156 0.0
C1800 C 0.0974 0.7744 0.4798 0.0
C1801 C 0.11694 0.78328 0.49904 0.0
C1802 C 0.03738 0.75533 0.41366 0.0
C1803 C 0.04879 0.74318 0.38997 0.0
C1804 C 0.05438 0.76679 0.43388 0.0
C1805 C 0.08314 0.76646 0.43068 0.0
C1806 C 0.09454 0.75341 0.40742 0.0
C1807 C 0.07751 0.74174 0.38734 0.0
H1808 H 0.08481 0.9709 0.2542 0.0
H1809 H 0.14936 0.91058 0.26416 0.0
H1810 H 0.05116 0.93749 0.26983 0.0
H1811 H 0.11685 0.87868 0.28376 0.0
H1812 H 0.04938 0.81553 0.28982 0.0
H1813 H 0.08354 0.84861 0.27607 0.0
H1814 H 0.03077 0.91468 0.3049 0.0
H1815 H 0.99528 0.88076 0.3163 0.0
C1816 C 0.09194 0.95061 0.26015 0.0
C1817 C 0.12012 0.94391 0.25881 0.0
C1818 C 0.07263 0.93152 0.26976 0.0
C1819 C 0.08098 0.90525 0.27887 0.0
C1820 C 0.10917 0.89845 0.27692 0.0
C1821 C 0.12826 0.9172 0.26633 0.0
C1822 C 0.04545 0.83706 0.29408 0.0
C1823 C 0.02001 0.84555 0.30484 0.0
C1824 C 0.06516 0.8563 0.28606 0.0
C1825 C 0.06036 0.88473 0.28926 0.0
C1826 C 0.03521 0.89312 0.30138 0.0
C1827 C 0.01499 0.87374 0.3085 0.0
H1828 H 0.47345 0.14413 0.82666 0.0
H1829 H 0.52047 0.11943 0.75522 0.0
H1830 H 0.43818 0.11023 0.81505 0.0
H1831 H 0.48583 0.08501 0.74422 0.0
H1832 H 0.39966 0.06055 0.71094 0.0
H1833 H 0.43889 0.08882 0.72578 0.0
H1834 H 0.42659 0.0615 0.80966 0.0
H1835 H 0.38771 0.03337 0.79457 0.0
C1836 C 0.47649 0.13121 0.80878 0.0
C1837 C 0.49935 0.13513 0.79147 0.0
C1838 C 0.45638 0.11161 0.8022 0.0
C1839 C 0.45885 0.09544 0.77824 0.0
C1840 C 0.48293 0.09769 0.76236 0.0
C1841 C 0.50301 0.1172 0.76896 0.0
C1842 C 0.40546 0.0608 0.73248 0.0
C1843 C 0.39023 0.04568 0.75177 0.0
C1844 C 0.42796 0.07672 0.74101 0.0
C1845 C 0.43576 0.07754 0.76899 0.0
C1846 C 0.42081 0.06178 0.78811 0.0
C1847 C 0.39843 0.04589 0.77954 0.0
H1848 H 0.60149 0.56188 0.78699 0.0
H1849 H 0.61802 0.53996 0.70259 0.0
H1850 H 0.56313 0.59113 0.7718 0.0
H1851 H 0.58007 0.56909 0.6872 0.0
H1852 H 0.5312 0.65068 0.67197 0.0
H1853 H 0.56706 0.61742 0.68363 0.0
H1854 H 0.51739 0.58772 0.75125 0.0
H1855 H 0.48217 0.62157 0.7403 0.0
C1856 C 0.59701 0.56361 0.7652 0.0
C1857 C 0.61327 0.54958 0.74591 0.0
C1858 C 0.57497 0.58007 0.75645 0.0
C1859 C 0.56858 0.58254 0.72821 0.0
C1860 C 0.58473 0.56813 0.709 0.0
C1861 C 0.60668 0.55169 0.71778 0.0
C1862 C 0.52787 0.63698 0.68918 0.0
C1863 C 0.5042 0.6395 0.70565 0.0
C1864 C 0.54835 0.61773 0.69579 0.0
C1865 C 0.54544 0.60043 0.7189 0.0
C1866 C 0.52066 0.6013 0.73384 0.0
C1867 C 0.50025 0.6205 0.72724 0.0
H1868 H 0.95714 0.34012 0.17347 0.0
H1869 H 0.01479 0.38603 0.22327 0.0
H1870 H 0.92102 0.37319 0.18481 0.0
H1871 H 0.9788 0.41898 0.23455 0.0
H1872 H 0.90996 0.48306 0.23652 0.0
H1873 H 0.94693 0.45426 0.21818 0.0
H1874 H 0.89559 0.38227 0.22841 0.0
H1875 H 0.85872 0.41129 0.24701 0.0
C1876 C 0.9623 0.35752 0.18632 0.0
C1877 C 0.98874 0.36002 0.19787 0.0
C1878 C 0.94152 0.37635 0.19303 0.0
C1879 C 0.94687 0.39832 0.21113 0.0
C1880 C 0.97394 0.40225 0.22062 0.0
C1881 C 0.99464 0.38333 0.21405 0.0
C1882 C 0.90675 0.46103 0.23508 0.0
C1883 C 0.88144 0.44939 0.243 0.0
C1884 C 0.92783 0.44457 0.22445 0.0
C1885 C 0.9241 0.41602 0.22151 0.0
C1886 C 0.89887 0.4043 0.22978 0.0
C1887 C 0.87778 0.42083 0.24051 0.0
H1888 H 0.26364 0.08516 0.98274 0.0
H1889 H 0.23999 0.13516 0.91329 0.0
H1890 H 0.28256 0.05037 0.95157 0.0
H1891 H 0.25874 0.10045 0.88186 0.0
H1892 H 0.31616 0.04859 0.83293 0.0
H1893 H 0.30329 0.08189 0.86786 0.0
H1894 H 0.26883 0.01652 0.91743 0.0
H1895 H 0.28253 0.98299 0.88273 0.0
C1896 C 0.26216 0.08842 0.96072 0.0
C1897 C 0.25056 0.11281 0.95031 0.0
C1898 C 0.27308 0.06862 0.94288 0.0
C1899 C 0.27256 0.07281 0.91424 0.0
C1900 C 0.26015 0.09692 0.90385 0.0
C1901 C 0.24926 0.11671 0.92173 0.0
C1902 C 0.30682 0.04107 0.85161 0.0
C1903 C 0.3004 0.01303 0.85481 0.0
C1904 C 0.29892 0.06031 0.8715 0.0
C1905 C 0.28439 0.05197 0.89512 0.0
C1906 C 0.27993 0.02368 0.89945 0.0
C1907 C 0.28788 0.00443 0.87953 0.0
H1908 H 0.7978 0.36983 0.05178 0.0
H1909 H 0.71516 0.40196 0.05718 0.0
H1910 H 0.8147 0.40776 0.07999 0.0
H1911 H 0.73179 0.4399 0.08591 0.0
H1912 H 0.7694 0.51717 0.11636 0.0
H1913 H 0.75897 0.48122 0.08311 0.0
H1914 H 0.81393 0.42572 0.12588 0.0
H1915 H 0.82526 0.46211 0.15838 0.0
C1916 C 0.78312 0.38464 0.05972 0.0
C1917 C 0.75501 0.3826 0.053 0.0
C1918 C 0.79284 0.40653 0.07568 0.0
C1919 C 0.77468 0.42701 0.08515 0.0
C1920 C 0.74648 0.4248 0.07855 0.0
C1921 C 0.73682 0.40294 0.06246 0.0
C1922 C 0.77993 0.49758 0.11824 0.0
C1923 C 0.79766 0.4923 0.14056 0.0
C1924 C 0.77359 0.4768 0.09938 0.0
C1925 C 0.78484 0.45027 0.10237 0.0
C1926 C 0.80465 0.44582 0.12305 0.0
C1927 C 0.81112 0.4667 0.14182 0.0
H1928 H 0.77544 0.60255 0.56147 0.0
H1929 H 0.69047 0.6221 0.54452 0.0
H1930 H 0.76061 0.56529 0.59218 0.0
H1931 H 0.67552 0.58539 0.57539 0.0
H1932 H 0.66571 0.53709 0.6591 0.0
H1933 H 0.67573 0.57281 0.62505 0.0
H1934 H 0.73729 0.5202 0.58813 0.0
H1935 H 0.72802 0.48508 0.62249 0.0
C1936 C 0.75363 0.59905 0.56466 0.0
C1937 C 0.73415 0.61577 0.55146 0.0
C1938 C 0.74509 0.57767 0.58197 0.0
C1939 C 0.71685 0.57245 0.5862 0.0
C1940 C 0.69738 0.5892 0.57292 0.0
C1941 C 0.70594 0.61047 0.55554 0.0
C1942 C 0.68121 0.53311 0.64364 0.0
C1943 C 0.69667 0.50864 0.64419 0.0
C1944 C 0.68684 0.55348 0.62399 0.0
C1945 C 0.70793 0.54961 0.60447 0.0
C1946 C 0.72152 0.52411 0.60345 0.0
C1947 C 0.71588 0.50381 0.62298 0.0
H1948 H 0.28159 0.90118 0.4409 0.0
H1949 H 0.19695 0.8835 0.46098 0.0
H1950 H 0.26643 0.9394 0.41132 0.0
H1951 H 0.18163 0.92081 0.43091 0.0
H1952 H 0.17131 0.96717 0.34555 0.0
H1953 H 0.18194 0.93179 0.37979 0.0
H1954 H 0.2425 0.98548 0.41657 0.0
H1955 H 0.23204 0.02075 0.38251 0.0
C1956 C 0.25978 0.9053 0.43864 0.0
C1957 C 0.24041 0.88872 0.45218 0.0
C1958 C 0.25106 0.92719 0.42195 0.0
C1959 C 0.22279 0.93292 0.41866 0.0
C1960 C 0.20348 0.91654 0.4326 0.0
C1961 C 0.21223 0.89492 0.44946 0.0
C1962 C 0.18639 0.97169 0.36133 0.0
C1963 C 0.20107 0.99665 0.36096 0.0
C1964 C 0.19253 0.9514 0.38091 0.0
C1965 C 0.21354 0.95567 0.40041 0.0
C1966 C 0.22666 0.9814 0.40138 0.0
C1967 C 0.22036 0.00174 0.38203 0.0
H1968 H 0.05209 0.69867 0.86746 0.0
H1969 H 0.05622 0.78093 0.90062 0.0
H1970 H 0.08199 0.68198 0.90427 0.0
H1971 H 0.08642 0.76447 0.93751 0.0
H1972 H 0.11774 0.72612 0.01399 0.0
H1973 H 0.08398 0.73597 0.9784 0.0
H1974 H 0.12887 0.68433 0.92145 0.0
H1975 H 0.16214 0.67351 0.95748 0.0
C1976 C 0.06009 0.71332 0.88224 0.0
C1977 C 0.05253 0.74128 0.88083 0.0
C1978 C 0.077 0.70372 0.90347 0.0
C1979 C 0.08648 0.72182 0.92395 0.0
C1980 C 0.07907 0.74985 0.92236 0.0
C1981 C 0.06212 0.75941 0.90112 0.0
C1982 C 0.12008 0.71621 0.99413 0.0
C1983 C 0.14319 0.69966 0.98836 0.0
C1984 C 0.10089 0.72222 0.97358 0.0
C1985 C 0.10429 0.71178 0.94679 0.0
C1986 C 0.12582 0.693 0.94178 0.0
C1987 C 0.14499 0.68687 0.96244 0.0
H1988 H 0.43567 0.21693 0.39292 0.0
H1989 H 0.4587 0.30153 0.37916 0.0
H1990 H 0.40654 0.23122 0.43165 0.0
H1991 H 0.4297 0.31603 0.41756 0.0
H1992 H 0.349 0.33066 0.46819 0.0
H1993 H 0.38162 0.31991 0.43141 0.0
H1994 H 0.41084 0.24988 0.47796 0.0
H1995 H 0.37753 0.25986 0.51395 0.0
C1996 C 0.43418 0.23859 0.39806 0.0
C1997 C 0.44856 0.25819 0.3825 0.0
C1998 C 0.41779 0.24681 0.42033 0.0
C1999 C 0.41576 0.27483 0.4277 0.0
C2000 C 0.43035 0.29439 0.41214 0.0
C2001 C 0.44671 0.28613 0.38992 0.0
C2002 C 0.36242 0.31304 0.47057 0.0
C2003 C 0.35992 0.29563 0.49355 0.0
C2004 C 0.38132 0.30699 0.44961 0.0
C2005 C 0.39828 0.28351 0.45137 0.0
C2006 C 0.39748 0.26759 0.47554 0.0
C2007 C 0.37861 0.27362 0.49641 0.0
H2008 H 0.61936 0.7702 0.98301 0.0
H2009 H 0.66002 0.82818 0.03689 0.0
H2010 H 0.58609 0.76002 0.019 0.0
H2011 H 0.6275 0.81695 0.07345 0.0
H2012 H 0.55235 0.801 0.12875 0.0
H2013 H 0.5814 0.81736 0.09112 0.0
H2014 H 0.58863 0.7339 0.06087 0.0
H2015 H 0.55908 0.71783 0.09845 0.0
C2016 C 0.62097 0.78118 0.00237 0.0
C2017 C 0.64293 0.79943 0.0073 0.0
C2018 C 0.6021 0.77498 0.0232 0.0
C2019 C 0.60469 0.78687 0.04949 0.0
C2020 C 0.62503 0.80713 0.05357 0.0
C2021 C 0.64382 0.81349 0.03262 0.0
C2022 C 0.56075 0.78611 0.11442 0.0
C2023 C 0.55412 0.75801 0.11687 0.0
C2024 C 0.57721 0.79551 0.09271 0.0
C2025 C 0.58727 0.77703 0.07281 0.0
C2026 C 0.58083 0.74883 0.0755 0.0
C2027 C 0.56425 0.73949 0.09716 0.0
H2028 H 0.83779 0.1805 0.54373 0.0
H2029 H 0.88314 0.22664 0.48265 0.0
H2030 H 0.87098 0.1942 0.57877 0.0
H2031 H 0.91629 0.24027 0.51761 0.0
H2032 H 0.981 0.2444 0.58678 0.0
H2033 H 0.95183 0.22535 0.55046 0.0
H2034 H 0.87993 0.23976 0.60099 0.0
H2035 H 0.9093 0.25911 0.63715 0.0
C2036 C 0.85506 0.19305 0.53761 0.0
C2037 C 0.85733 0.2029 0.51049 0.0
C2038 C 0.87398 0.20113 0.55776 0.0
C2039 C 0.89582 0.21892 0.55109 0.0
C2040 C 0.8996 0.22667 0.52346 0.0
C2041 C 0.88058 0.21873 0.50337 0.0
C2042 C 0.9589 0.24386 0.58987 0.0
C2043 C 0.94735 0.25301 0.6148 0.0
C2044 C 0.94224 0.2328 0.56919 0.0
C2045 C 0.91364 0.23064 0.57303 0.0
C2046 C 0.902 0.24049 0.59772 0.0
C2047 C 0.91871 0.25168 0.61836 0.0
H2048 H 0.91423 0.01767 0.72815 0.0
H2049 H 0.86146 0.08673 0.74645 0.0
H2050 H 0.94927 0.04898 0.71002 0.0
H2051 H 0.89633 0.11825 0.72816 0.0
H2052 H 0.95329 0.16682 0.67414 0.0
H2053 H 0.919 0.13162 0.68445 0.0
H2054 H 0.98092 0.08396 0.72704 0.0
H2055 H 0.01515 0.11897 0.71661 0.0
C2056 C 0.91028 0.03963 0.72844 0.0
C2057 C 0.88511 0.04983 0.73847 0.0
C2058 C 0.93024 0.05753 0.71795 0.0
C2059 C 0.92547 0.08609 0.71731 0.0
C2060 C 0.90037 0.0963 0.72771 0.0
C2061 C 0.88043 0.07834 0.73826 0.0
C2062 C 0.95977 0.14857 0.68508 0.0
C2063 C 0.98689 0.14606 0.69492 0.0
C2064 C 0.94003 0.1285 0.69126 0.0
C2065 C 0.94708 0.10531 0.70715 0.0
C2066 C 0.97475 0.10159 0.71482 0.0
C2067 C 0.99442 0.12171 0.70877 0.0
H2068 H 0.6352 0.94463 0.20181 0.0
H2069 H 0.59901 0.93878 0.28274 0.0
H2070 H 0.5981 0.91659 0.18289 0.0
H2071 H 0.56172 0.91053 0.26396 0.0
H2072 H 0.48549 0.884 0.22197 0.0
H2073 H 0.522 0.91608 0.23385 0.0
H2074 H 0.57903 0.87016 0.18323 0.0
H2075 H 0.54219 0.83853 0.17048 0.0
C2076 C 0.61972 0.9366 0.21571 0.0
C2077 C 0.62036 0.9432 0.24395 0.0
C2078 C 0.59829 0.92079 0.2048 0.0
C2079 C 0.57682 0.9115 0.22183 0.0
C2080 C 0.57768 0.91781 0.25015 0.0
C2081 C 0.59913 0.93363 0.26103 0.0
C2082 C 0.50559 0.88114 0.21267 0.0
C2083 C 0.5111 0.85813 0.19592 0.0
C2084 C 0.52664 0.89934 0.21985 0.0
C2085 C 0.55366 0.89505 0.21036 0.0
C2086 C 0.55851 0.87383 0.19121 0.0
C2087 C 0.53737 0.85564 0.18392 0.0
H2088 H 0.46721 0.34666 0.32766 0.0
H2089 H 0.51512 0.37649 0.25883 0.0
H2090 H 0.43145 0.38051 0.31731 0.0
H2091 H 0.4801 0.4109 0.24924 0.0
H2092 H 0.39597 0.43816 0.21549 0.0
H2093 H 0.43387 0.40784 0.22958 0.0
H2094 H 0.41922 0.42936 0.31473 0.0
H2095 H 0.38172 0.4596 0.30044 0.0
C2096 C 0.47028 0.36059 0.31059 0.0
C2097 C 0.49356 0.35814 0.29356 0.0
C2098 C 0.44991 0.38019 0.30476 0.0
C2099 C 0.45258 0.39785 0.28191 0.0
C2100 C 0.47702 0.39702 0.26645 0.0
C2101 C 0.49731 0.37748 0.27226 0.0
C2102 C 0.40082 0.43608 0.23716 0.0
C2103 C 0.38536 0.45034 0.25692 0.0
C2104 C 0.4226 0.419 0.24528 0.0
C2105 C 0.42952 0.41614 0.27334 0.0
C2106 C 0.41411 0.43066 0.29305 0.0
C2107 C 0.39241 0.44773 0.2849 0.0
H2108 H 0.0866 0.51823 0.76049 0.0
H2109 H 0.13737 0.59001 0.7479 0.0
H2110 H 0.05014 0.54713 0.77972 0.0
H2111 H 0.10105 0.61909 0.76746 0.0
H2112 H 0.04146 0.6614 0.8244 0.0
H2113 H 0.07705 0.62797 0.81232 0.0
H2114 H 0.01788 0.58259 0.76385 0.0
H2115 H 0.98245 0.61593 0.77567 0.0
C2116 C 0.0898 0.54028 0.76162 0.0
C2117 C 0.11484 0.55191 0.75287 0.0
C2118 C 0.06903 0.55679 0.77279 0.0
C2119 C 0.07285 0.58534 0.77548 0.0
C2120 C 0.09776 0.59705 0.7663 0.0
C2121 C 0.11851 0.58049 0.755 0.0
C2122 C 0.03587 0.64401 0.81164 0.0
C2123 C 0.00924 0.64179 0.80044 0.0
C2124 C 0.05634 0.62497 0.80453 0.0
C2125 C 0.05044 0.60308 0.78652 0.0
C2126 C 0.02315 0.59931 0.77765 0.0
C2127 C 0.00277 0.61843 0.78454 0.0
H2128 H 0.78115 0.89785 0.06111 0.0
H2129 H 0.69849 0.86598 0.0546 0.0
H2130 H 0.76449 0.93458 0.09137 0.0
H2131 H 0.68171 0.90249 0.0848 0.0
H2132 H 0.67308 0.95556 0.16555 0.0
H2133 H 0.68398 0.91931 0.13249 0.0
H2134 H 0.7359 0.97591 0.08754 0.0
H2135 H 0.72579 0.0118 0.12091 0.0
C2136 C 0.75951 0.89853 0.06654 0.0
C2137 C 0.74131 0.87867 0.05616 0.0
C2138 C 0.74986 0.91967 0.08354 0.0
C2139 C 0.72169 0.92157 0.09032 0.0
C2140 C 0.70354 0.90144 0.08024 0.0
C2141 C 0.71321 0.88033 0.06319 0.0
C2142 C 0.68646 0.96041 0.14839 0.0
C2143 C 0.69922 0.98635 0.14642 0.0
C2144 C 0.69267 0.93962 0.12938 0.0
C2145 C 0.71156 0.9445 0.10792 0.0
C2146 C 0.72202 0.97124 0.10439 0.0
C2147 C 0.71588 0.99195 0.12336 0.0
H2148 H 0.2255 0.48748 0.88108 0.0
H2149 H 0.17149 0.5431 0.83739 0.0
H2150 H 0.23684 0.52392 0.91346 0.0
H2151 H 0.1836 0.57991 0.86925 0.0
H2152 H 0.19999 0.63517 0.94473 0.0
H2153 H 0.18264 0.59793 0.91587 0.0
H2154 H 0.26512 0.56494 0.90931 0.0
H2155 H 0.28231 0.60232 0.93844 0.0
C2156 C 0.21557 0.50732 0.87863 0.0
C2157 C 0.19806 0.51254 0.85611 0.0
C2158 C 0.22243 0.52836 0.89701 0.0
C2159 C 0.21189 0.55509 0.8934 0.0
C2160 C 0.19234 0.55963 0.87248 0.0
C2161 C 0.18541 0.53851 0.85412 0.0
C2162 C 0.21452 0.62042 0.93644 0.0
C2163 C 0.24268 0.62204 0.94315 0.0
C2164 C 0.20453 0.5989 0.92013 0.0
C2165 C 0.22242 0.57832 0.9104 0.0
C2166 C 0.25066 0.58017 0.91687 0.0
C2167 C 0.26063 0.6017 0.93321 0.0
H2168 H 0.21891 0.39352 0.4343 0.0
H2169 H 0.30373 0.37934 0.45636 0.0
H2170 H 0.23313 0.43181 0.40457 0.0
H2171 H 0.31815 0.41721 0.42668 0.0
H2172 H 0.33181 0.46775 0.34564 0.0
H2173 H 0.32119 0.43082 0.37816 0.0
H2174 H 0.2524 0.47806 0.40915 0.0
H2175 H 0.26226 0.51425 0.37605 0.0
C2176 C 0.2406 0.39843 0.43243 0.0
C2177 C 0.26027 0.38291 0.44677 0.0
C2178 C 0.24878 0.42043 0.41569 0.0
C2179 C 0.27683 0.42755 0.41324 0.0
C2180 C 0.29648 0.41197 0.42769 0.0
C2181 C 0.28825 0.39003 0.44442 0.0
C2182 C 0.31451 0.47025 0.35943 0.0
C2183 C 0.29742 0.49354 0.35755 0.0
C2184 C 0.30853 0.4492 0.37825 0.0
C2185 C 0.28542 0.45116 0.39568 0.0
C2186 C 0.26982 0.47553 0.39541 0.0
C2187 C 0.27578 0.49649 0.37666 0.0
H2188 H 0.71625 0.10181 0.55885 0.0
H2189 H 0.80074 0.12036 0.53892 0.0
H2190 H 0.73172 0.06365 0.58833 0.0
H2191 H 0.81637 0.08296 0.56874 0.0
H2192 H 0.828 0.03539 0.65285 0.0
H2193 H 0.81686 0.0711 0.61917 0.0
H2194 H 0.75536 0.01797 0.58312 0.0
H2195 H 0.76621 0.98245 0.61676 0.0
C2196 C 0.7381 0.09789 0.56115 0.0
C2197 C 0.75734 0.11465 0.54765 0.0
C2198 C 0.74699 0.07602 0.57776 0.0
C2199 C 0.77532 0.07045 0.58097 0.0
C2200 C 0.79449 0.08707 0.56712 0.0
C2201 C 0.78557 0.10872 0.55038 0.0
C2202 C 0.81253 0.0311 0.63741 0.0
C2203 C 0.79771 0.00624 0.63791 0.0
C2204 C 0.80612 0.05157 0.6181 0.0
C2205 C 0.78474 0.04756 0.59897 0.0
C2206 C 0.77146 0.0219 0.59807 0.0
C2207 C 0.77798 0.00141 0.61719 0.0
loop_
_geom_bond_atom_site_label_1
_geom_bond_atom_site_label_2
_geom_bond_distance
_geom_bond_site_symmetry_2
_ccdc_geom_bond_type
Zn0 O1 2.055 1_455 S
Zn0 O8 2.046 . S
Zn0 N16 2.036 1_455 S
Zn0 O28 2.053 . S
Zn0 O30 2.066 . S
O1 Zn0 2.055 1_655 S
O1 C4 1.259 1_655 S
C2 O30 1.256 . S
C2 O31 1.244 . S
Zn3 O5 2.046 . S
Zn3 O7 2.055 . S
Zn3 N9 2.036 . S
Zn3 O27 2.066 . S
Zn3 O31 2.053 . S
C4 O1 1.259 1_455 S
C4 O5 1.254 . S
O5 Zn3 2.046 . S
O5 C4 1.254 . S
C6 O27 1.256 . S
C6 O28 1.244 . S
O7 Zn3 2.055 . S
O7 C29 1.259 . S
O8 Zn0 2.046 . S
O8 C29 1.254 . S
N9 Zn3 2.036 . S
N9 C10 1.298 . S
N9 N12 1.398 . S
C10 N9 1.298 . S
C10 N13 1.367 . S
C10 C23 1.481 . S
C11 N12 1.299 . S
C11 N13 1.379 . S
N12 N9 1.398 . S
N12 C11 1.299 . S
N13 C10 1.367 . S
N13 C11 1.379 . S
C14 N16 1.298 . S
C14 N18 1.367 . S
C14 C22 1.481 . S
C15 N17 1.299 1_655 S
C15 N18 1.379 . S
N16 Zn0 2.036 1_655 S
N16 C14 1.298 . S
N16 N17 1.398 1_655 S
N17 C15 1.299 1_455 S
N17 N16 1.398 1_455 S
N18 C14 1.367 . S
N18 C15 1.379 . S
H19 C22 0.980 . S
H20 C22 0.981 . S
H21 C22 0.981 . S
C22 C14 1.481 . S
C22 H19 0.980 . S
C22 H20 0.981 . S
C22 H21 0.981 . S
C23 C10 1.481 . S
C23 H24 0.980 . S
C23 H25 0.981 . S
C23 H26 0.981 . S
H24 C23 0.980 . S
H25 C23 0.981 . S
H26 C23 0.981 . S
O27 Zn3 2.066 . S
O27 C6 1.256 . S
O28 Zn0 2.053 . S
O28 C6 1.244 . S
C29 O7 1.259 . S
C29 O8 1.254 . S
O30 Zn0 2.066 . S
O30 C2 1.256 . S
O31 C2 1.244 . S
O31 Zn3 2.053 . S
Zn32 O33 2.055 . S
Zn32 O40 2.046 . S
Zn32 N48 2.036 . S
Zn32 O60 2.053 . S
Zn32 O62 2.066 . S
O33 Zn32 2.055 . S
O33 C36 1.259 . S
C34 O62 1.256 . S
C34 O63 1.244 . S
Zn35 O37 2.046 . S
Zn35 O39 2.055 . S
Zn35 N41 2.036 . S
Zn35 O59 2.066 . S
Zn35 O63 2.053 . S
C36 O33 1.259 . S
C36 O37 1.254 . S
O37 Zn35 2.046 . S
O37 C36 1.254 . S
C38 O59 1.256 . S
C38 O60 1.244 . S
O39 Zn35 2.055 . S
O39 C61 1.259 . S
O40 Zn32 2.046 . S
O40 C61 1.254 . S
N41 Zn35 2.036 . S
N41 C42 1.298 . S
N41 N44 1.398 . S
C42 N41 1.298 . S
C42 N45 1.367 . S
C42 C55 1.481 . S
C43 N44 1.299 . S
C43 N45 1.379 . S
N44 N41 1.398 . S
N44 C43 1.299 . S
N45 C42 1.367 . S
N45 C43 1.379 . S
C46 N48 1.298 . S
C46 N50 1.367 . S
C46 C54 1.481 . S
C47 N49 1.299 . S
C47 N50 1.379 . S
N48 Zn32 2.036 . S
N48 C46 1.298 . S
N48 N49 1.398 . S
N49 C47 1.299 . S
N49 N48 1.398 . S
N50 C46 1.367 . S
N50 C47 1.379 . S
H51 C54 0.980 . S
H52 C54 0.981 . S
H53 C54 0.981 . S
C54 C46 1.481 . S
C54 H51 0.980 . S
C54 H52 0.981 . S
C54 H53 0.981 . S
C55 C42 1.481 . S
C55 H56 0.980 . S
C55 H57 0.981 . S
C55 H58 0.981 . S
H56 C55 0.980 . S
H57 C55 0.981 . S
H58 C55 0.981 . S
O59 Zn35 2.066 . S
O59 C38 1.256 . S
O60 Zn32 2.053 . S
O60 C38 1.244 . S
C61 O39 1.259 . S
C61 O40 1.254 . S
O62 Zn32 2.066 . S
O62 C34 1.256 . S
O63 C34 1.244 . S
O63 Zn35 2.053 . S
Zn64 O65 2.055 . S
Zn64 O72 2.046 . S
Zn64 N80 2.036 . S
Zn64 O92 2.053 . S
Zn64 O94 2.066 . S
O65 Zn64 2.055 . S
O65 C68 1.259 . S
C66 O94 1.256 . S
C66 O95 1.244 . S
Zn67 O69 2.046 . S
Zn67 O71 2.055 . S
Zn67 N73 2.036 . S
Zn67 O91 2.066 . S
Zn67 O95 2.053 . S
C68 O65 1.259 . S
C68 O69 1.254 . S
O69 Zn67 2.046 . S
O69 C68 1.254 . S
C70 O91 1.256 . S
C70 O92 1.244 . S
O71 Zn67 2.055 . S
O71 C93 1.259 . S
O72 Zn64 2.046 . S
O72 C93 1.254 . S
N73 Zn67 2.036 . S
N73 C74 1.298 . S
N73 N76 1.398 . S
C74 N73 1.298 . S
C74 N77 1.367 . S
C74 C87 1.481 . S
C75 N76 1.299 . S
C75 N77 1.379 . S
N76 N73 1.398 . S
N76 C75 1.299 . S
N77 C74 1.367 . S
N77 C75 1.379 . S
C78 N80 1.298 . S
C78 N82 1.367 . S
C78 C86 1.481 . S
C79 N81 1.299 . S
C79 N82 1.379 . S
N80 Zn64 2.036 . S
N80 C78 1.298 . S
N80 N81 1.398 . S
N81 C79 1.299 . S
N81 N80 1.398 . S
N82 C78 1.367 . S
N82 C79 1.379 . S
H83 C86 0.980 . S
H84 C86 0.981 . S
H85 C86 0.981 . S
C86 C78 1.481 . S
C86 H83 0.980 . S
C86 H84 0.981 . S
C86 H85 0.981 . S
C87 C74 1.481 . S
C87 H88 0.980 . S
C87 H89 0.981 . S
C87 H90 0.981 . S
H88 C87 0.980 . S
H89 C87 0.981 . S
H90 C87 0.981 . S
O91 Zn67 2.066 . S
O91 C70 1.256 . S
O92 Zn64 2.053 . S
O92 C70 1.244 . S
C93 O71 1.259 . S
C93 O72 1.254 . S
O94 Zn64 2.066 . S
O94 C66 1.256 . S
O95 C66 1.244 . S
O95 Zn67 2.053 . S
Zn96 O97 2.055 . S
Zn96 O104 2.046 . S
Zn96 N112 2.036 . S
Zn96 O124 2.053 . S
Zn96 O126 2.066 . S
O97 Zn96 2.055 . S
O97 C100 1.259 . S
C98 O126 1.256 . S
C98 O127 1.244 . S
Zn99 O101 2.046 . S
Zn99 O103 2.055 1_655 S
Zn99 N105 2.036 1_655 S
Zn99 O123 2.066 . S
Zn99 O127 2.053 . S
C100 O97 1.259 . S
C100 O101 1.254 . S
O101 Zn99 2.046 . S
O101 C100 1.254 . S
C102 O123 1.256 . S
C102 O124 1.244 . S
O103 Zn99 2.055 1_455 S
O103 C125 1.259 1_455 S
O104 Zn96 2.046 . S
O104 C125 1.254 . S
N105 Zn99 2.036 1_455 S
N105 C106 1.298 . S
N105 N108 1.398 1_455 S
C106 N105 1.298 . S
C106 N109 1.367 . S
C106 C119 1.481 . S
C107 N108 1.299 1_455 S
C107 N109 1.379 . S
N108 N105 1.398 1_655 S
N108 C107 1.299 1_655 S
N109 C106 1.367 . S
N109 C107 1.379 . S
C110 N112 1.298 . S
C110 N114 1.367 . S
C110 C118 1.481 . S
C111 N113 1.299 . S
C111 N114 1.379 . S
N112 Zn96 2.036 . S
N112 C110 1.298 . S
N112 N113 1.398 . S
N113 C111 1.299 . S
N113 N112 1.398 . S
N114 C110 1.367 . S
N114 C111 1.379 . S
H115 C118 0.980 . S
H116 C118 0.981 . S
H117 C118 0.981 . S
C118 C110 1.481 . S
C118 H115 0.980 . S
C118 H116 0.981 . S
C118 H117 0.981 . S
C119 C106 1.481 . S
C119 H120 0.980 . S
C119 H121 0.981 . S
C119 H122 0.981 . S
H120 C119 0.980 . S
H121 C119 0.981 . S
H122 C119 0.981 . S
O123 Zn99 2.066 . S
O123 C102 1.256 . S
O124 Zn96 2.053 . S
O124 C102 1.244 . S
C125 O103 1.259 1_655 S
C125 O104 1.254 . S
O126 Zn96 2.066 . S
O126 C98 1.256 . S
O127 C98 1.244 . S
O127 Zn99 2.053 . S
Zn128 O129 2.055 . S
Zn128 O136 2.046 . S
Zn128 N144 2.036 . S
Zn128 O156 2.053 . S
Zn128 O158 2.066 . S
O129 Zn128 2.055 . S
O129 C132 1.259 . S
C130 O158 1.256 . S
C130 O159 1.244 . S
Zn131 O133 2.046 . S
Zn131 O135 2.055 1_545 S
Zn131 N137 2.036 1_545 S
Zn131 O155 2.066 . S
Zn131 O159 2.053 . S
C132 O129 1.259 . S
C132 O133 1.254 . S
O133 Zn131 2.046 . S
O133 C132 1.254 . S
C134 O155 1.256 . S
C134 O156 1.244 . S
O135 Zn131 2.055 1_565 S
O135 C157 1.259 1_565 S
O136 Zn128 2.046 . S
O136 C157 1.254 . S
N137 Zn131 2.036 1_565 S
N137 C138 1.298 . S
N137 N140 1.398 1_565 S
C138 N137 1.298 . S
C138 N141 1.367 . S
C138 C151 1.481 . S
C139 N140 1.299 1_565 S
C139 N141 1.379 . S
N140 N137 1.398 1_545 S
N140 C139 1.299 1_545 S
N141 C138 1.367 . S
N141 C139 1.379 . S
C142 N144 1.298 . S
C142 N146 1.367 . S
C142 C150 1.481 . S
C143 N145 1.299 . S
C143 N146 1.379 . S
N144 Zn128 2.036 . S
N144 C142 1.298 . S
N144 N145 1.398 . S
N145 C143 1.299 . S
N145 N144 1.398 . S
N146 C142 1.367 . S
N146 C143 1.379 . S
H147 C150 0.980 . S
H148 C150 0.981 . S
H149 C150 0.981 . S
C150 C142 1.481 . S
C150 H147 0.980 . S
C150 H148 0.981 . S
C150 H149 0.981 . S
C151 C138 1.481 . S
C151 H152 0.980 . S
C151 H153 0.981 . S
C151 H154 0.981 . S
H152 C151 0.980 . S
H153 C151 0.981 . S
H154 C151 0.981 . S
O155 Zn131 2.066 . S
O155 C134 1.256 . S
O156 Zn128 2.053 . S
O156 C134 1.244 . S
C157 O135 1.259 1_545 S
C157 O136 1.254 . S
O158 Zn128 2.066 . S
O158 C130 1.256 . S
O159 C130 1.244 . S
O159 Zn131 2.053 . S
Zn160 O161 2.055 1_565 S
Zn160 O168 2.046 . S
Zn160 N176 2.036 1_565 S
Zn160 O188 2.053 . S
Zn160 O190 2.066 . S
O161 Zn160 2.055 1_545 S
O161 C164 1.259 1_545 S
C162 O190 1.256 . S
C162 O191 1.244 . S
Zn163 O165 2.046 . S
Zn163 O167 2.055 . S
Zn163 N169 2.036 . S
Zn163 O187 2.066 . S
Zn163 O191 2.053 . S
C164 O161 1.259 1_565 S
C164 O165 1.254 . S
O165 Zn163 2.046 . S
O165 C164 1.254 . S
C166 O187 1.256 . S
C166 O188 1.244 . S
O167 Zn163 2.055 . S
O167 C189 1.259 . S
O168 Zn160 2.046 . S
O168 C189 1.254 . S
N169 Zn163 2.036 . S
N169 C170 1.298 . S
N169 N172 1.398 . S
C170 N169 1.298 . S
C170 N173 1.367 . S
C170 C183 1.481 . S
C171 N172 1.299 . S
C171 N173 1.379 . S
N172 N169 1.398 . S
N172 C171 1.299 . S
N173 C170 1.367 . S
N173 C171 1.379 . S
C174 N176 1.298 . S
C174 N178 1.367 . S
C174 C182 1.481 . S
C175 N177 1.299 1_545 S
C175 N178 1.379 . S
N176 Zn160 2.036 1_545 S
N176 C174 1.298 . S
N176 N177 1.398 1_545 S
N177 C175 1.299 1_565 S
N177 N176 1.398 1_565 S
N178 C174 1.367 . S
N178 C175 1.379 . S
H179 C182 0.980 . S
H180 C182 0.981 . S
H181 C182 0.981 . S
C182 C174 1.481 . S
C182 H179 0.980 . S
C182 H180 0.981 . S
C182 H181 0.981 . S
C183 C170 1.481 . S
C183 H184 0.980 . S
C183 H185 0.981 . S
C183 H186 0.981 . S
H184 C183 0.980 . S
H185 C183 0.981 . S
H186 C183 0.981 . S
O187 Zn163 2.066 . S
O187 C166 1.256 . S
O188 Zn160 2.053 . S
O188 C166 1.244 . S
C189 O167 1.259 . S
C189 O168 1.254 . S
O190 Zn160 2.066 . S
O190 C162 1.256 . S
O191 C162 1.244 . S
O191 Zn163 2.053 . S
Zn192 O193 2.055 . S
Zn192 O200 2.046 . S
Zn192 N208 2.036 . S
Zn192 O220 2.053 . S
Zn192 O222 2.066 . S
O193 Zn192 2.055 . S
O193 C196 1.259 . S
C194 O222 1.256 . S
C194 O223 1.244 . S
Zn195 O197 2.046 . S
Zn195 O199 2.055 . S
Zn195 N201 2.036 . S
Zn195 O219 2.066 . S
Zn195 O223 2.053 . S
C196 O193 1.259 . S
C196 O197 1.254 . S
O197 Zn195 2.046 . S
O197 C196 1.254 . S
C198 O219 1.256 . S
C198 O220 1.244 . S
O199 Zn195 2.055 . S
O199 C221 1.259 . S
O200 Zn192 2.046 . S
O200 C221 1.254 . S
N201 Zn195 2.036 . S
N201 C202 1.298 . S
N201 N204 1.398 . S
C202 N201 1.298 . S
C202 N205 1.367 . S
C202 C215 1.481 . S
C203 N204 1.299 . S
C203 N205 1.379 . S
N204 N201 1.398 . S
N204 C203 1.299 . S
N205 C202 1.367 . S
N205 C203 1.379 . S
C206 N208 1.298 . S
C206 N210 1.367 . S
C206 C214 1.481 . S
C207 N209 1.299 . S
C207 N210 1.379 . S
N208 Zn192 2.036 . S
N208 C206 1.298 . S
N208 N209 1.398 . S
N209 C207 1.299 . S
N209 N208 1.398 . S
N210 C206 1.367 . S
N210 C207 1.379 . S
H211 C214 0.980 . S
H212 C214 0.981 . S
H213 C214 0.981 . S
C214 C206 1.481 . S
C214 H211 0.980 . S
C214 H212 0.981 . S
C214 H213 0.981 . S
C215 C202 1.481 . S
C215 H216 0.980 . S
C215 H217 0.981 . S
C215 H218 0.981 . S
H216 C215 0.980 . S
H217 C215 0.981 . S
H218 C215 0.981 . S
O219 Zn195 2.066 . S
O219 C198 1.256 . S
O220 Zn192 2.053 . S
O220 C198 1.244 . S
C221 O199 1.259 . S
C221 O200 1.254 . S
O222 Zn192 2.066 . S
O222 C194 1.256 . S
O223 C194 1.244 . S
O223 Zn195 2.053 . S
Zn224 O225 2.055 . S
Zn224 O232 2.046 . S
Zn224 N240 2.036 . S
Zn224 O252 2.053 . S
Zn224 O254 2.066 . S
O225 Zn224 2.055 . S
O225 C228 1.259 . S
C226 O254 1.256 . S
C226 O255 1.244 . S
Zn227 O229 2.046 . S
Zn227 O231 2.055 . S
Zn227 N233 2.036 . S
Zn227 O251 2.066 . S
Zn227 O255 2.053 . S
C228 O225 1.259 . S
C228 O229 1.254 . S
O229 Zn227 2.046 . S
O229 C228 1.254 . S
C230 O251 1.256 . S
C230 O252 1.244 . S
O231 Zn227 2.055 . S
O231 C253 1.259 . S
O232 Zn224 2.046 . S
O232 C253 1.254 . S
N233 Zn227 2.036 . S
N233 C234 1.298 . S
N233 N236 1.398 . S
C234 N233 1.298 . S
C234 N237 1.367 . S
C234 C247 1.481 . S
C235 N236 1.299 . S
C235 N237 1.379 . S
N236 N233 1.398 . S
N236 C235 1.299 . S
N237 C234 1.367 . S
N237 C235 1.379 . S
C238 N240 1.298 . S
C238 N242 1.367 . S
C238 C246 1.481 . S
C239 N241 1.299 . S
C239 N242 1.379 . S
N240 Zn224 2.036 . S
N240 C238 1.298 . S
N240 N241 1.398 . S
N241 C239 1.299 . S
N241 N240 1.398 . S
N242 C238 1.367 . S
N242 C239 1.379 . S
H243 C246 0.980 . S
H244 C246 0.981 . S
H245 C246 0.981 . S
C246 C238 1.481 . S
C246 H243 0.980 . S
C246 H244 0.981 . S
C246 H245 0.981 . S
C247 C234 1.481 . S
C247 H248 0.980 . S
C247 H249 0.981 . S
C247 H250 0.981 . S
H248 C247 0.980 . S
H249 C247 0.981 . S
H250 C247 0.981 . S
O251 Zn227 2.066 . S
O251 C230 1.256 . S
O252 Zn224 2.053 . S
O252 C230 1.244 . S
C253 O231 1.259 . S
C253 O232 1.254 . S
O254 Zn224 2.066 . S
O254 C226 1.256 . S
O255 C226 1.244 . S
O255 Zn227 2.053 . S
Zn256 O257 2.055 1_554 S
Zn256 O264 2.046 . S
Zn256 N272 2.036 1_554 S
Zn256 O284 2.053 . S
Zn256 O286 2.066 . S
O257 Zn256 2.055 1_556 S
O257 C260 1.259 1_556 S
C258 O286 1.256 . S
C258 O287 1.244 . S
Zn259 O261 2.046 . S
Zn259 O263 2.055 . S
Zn259 N265 2.036 . S
Zn259 O283 2.066 . S
Zn259 O287 2.053 . S
C260 O257 1.259 1_554 S
C260 O261 1.254 . S
O261 Zn259 2.046 . S
O261 C260 1.254 . S
C262 O283 1.256 . S
C262 O284 1.244 . S
O263 Zn259 2.055 . S
O263 C285 1.259 . S
O264 Zn256 2.046 . S
O264 C285 1.254 . S
N265 Zn259 2.036 . S
N265 C266 1.298 . S
N265 N268 1.398 . S
C266 N265 1.298 . S
C266 N269 1.367 . S
C266 C279 1.481 . S
C267 N268 1.299 . S
C267 N269 1.379 . S
N268 N265 1.398 . S
N268 C267 1.299 . S
N269 C266 1.367 . S
N269 C267 1.379 . S
C270 N272 1.298 . S
C270 N274 1.367 . S
C270 C278 1.481 . S
C271 N273 1.299 1_556 S
C271 N274 1.379 . S
N272 Zn256 2.036 1_556 S
N272 C270 1.298 . S
N272 N273 1.398 1_556 S
N273 C271 1.299 1_554 S
N273 N272 1.398 1_554 S
N274 C270 1.367 . S
N274 C271 1.379 . S
H275 C278 0.980 . S
H276 C278 0.981 . S
H277 C278 0.981 . S
C278 C270 1.481 . S
C278 H275 0.980 . S
C278 H276 0.981 . S
C278 H277 0.981 . S
C279 C266 1.481 . S
C279 H280 0.980 . S
C279 H281 0.981 . S
C279 H282 0.981 . S
H280 C279 0.980 . S
H281 C279 0.981 . S
H282 C279 0.981 . S
O283 Zn259 2.066 . S
O283 C262 1.256 . S
O284 Zn256 2.053 . S
O284 C262 1.244 . S
C285 O263 1.259 . S
C285 O264 1.254 . S
O286 Zn256 2.066 . S
O286 C258 1.256 . S
O287 C258 1.244 . S
O287 Zn259 2.053 . S
Zn288 O289 2.055 1_556 S
Zn288 O296 2.046 . S
Zn288 N304 2.036 1_556 S
Zn288 O316 2.053 . S
Zn288 O318 2.066 . S
O289 Zn288 2.055 1_554 S
O289 C292 1.259 1_554 S
C290 O318 1.256 . S
C290 O319 1.244 . S
Zn291 O293 2.046 . S
Zn291 O295 2.055 . S
Zn291 N297 2.036 . S
Zn291 O315 2.066 . S
Zn291 O319 2.053 . S
C292 O289 1.259 1_556 S
C292 O293 1.254 . S
O293 Zn291 2.046 . S
O293 C292 1.254 . S
C294 O315 1.256 . S
C294 O316 1.244 . S
O295 Zn291 2.055 . S
O295 C317 1.259 . S
O296 Zn288 2.046 . S
O296 C317 1.254 . S
N297 Zn291 2.036 . S
N297 C298 1.298 . S
N297 N300 1.398 . S
C298 N297 1.298 . S
C298 N301 1.367 . S
C298 C311 1.481 . S
C299 N300 1.299 . S
C299 N301 1.379 . S
N300 N297 1.398 . S
N300 C299 1.299 . S
N301 C298 1.367 . S
N301 C299 1.379 . S
C302 N304 1.298 . S
C302 N306 1.367 . S
C302 C310 1.481 . S
C303 N305 1.299 1_554 S
C303 N306 1.379 . S
N304 Zn288 2.036 1_554 S
N304 C302 1.298 . S
N304 N305 1.398 1_554 S
N305 C303 1.299 1_556 S
N305 N304 1.398 1_556 S
N306 C302 1.367 . S
N306 C303 1.379 . S
H307 C310 0.980 . S
H308 C310 0.981 . S
H309 C310 0.981 . S
C310 C302 1.481 . S
C310 H307 0.980 . S
C310 H308 0.981 . S
C310 H309 0.981 . S
C311 C298 1.481 . S
C311 H312 0.980 . S
C311 H313 0.981 . S
C311 H314 0.981 . S
H312 C311 0.980 . S
H313 C311 0.981 . S
H314 C311 0.981 . S
O315 Zn291 2.066 . S
O315 C294 1.256 . S
O316 Zn288 2.053 . S
O316 C294 1.244 . S
C317 O295 1.259 . S
C317 O296 1.254 . S
O318 Zn288 2.066 . S
O318 C290 1.256 . S
O319 C290 1.244 . S
O319 Zn291 2.053 . S
Zn320 O321 2.055 . S
Zn320 O328 2.046 . S
Zn320 N336 2.036 . S
Zn320 O348 2.053 . S
Zn320 O350 2.066 . S
O321 Zn320 2.055 . S
O321 C324 1.259 . S
C322 O350 1.256 . S
C322 O351 1.244 . S
Zn323 O325 2.046 . S
Zn323 O327 2.055 . S
Zn323 N329 2.036 . S
Zn323 O347 2.066 . S
Zn323 O351 2.053 . S
C324 O321 1.259 . S
C324 O325 1.254 . S
O325 Zn323 2.046 . S
O325 C324 1.254 . S
C326 O347 1.256 . S
C326 O348 1.244 . S
O327 Zn323 2.055 . S
O327 C349 1.259 . S
O328 Zn320 2.046 . S
O328 C349 1.254 . S
N329 Zn323 2.036 . S
N329 C330 1.298 . S
N329 N332 1.398 . S
C330 N329 1.298 . S
C330 N333 1.367 . S
C330 C343 1.481 . S
C331 N332 1.299 . S
C331 N333 1.379 . S
N332 N329 1.398 . S
N332 C331 1.299 . S
N333 C330 1.367 . S
N333 C331 1.379 . S
C334 N336 1.298 . S
C334 N338 1.367 . S
C334 C342 1.481 . S
C335 N337 1.299 . S
C335 N338 1.379 . S
N336 Zn320 2.036 . S
N336 C334 1.298 . S
N336 N337 1.398 . S
N337 C335 1.299 . S
N337 N336 1.398 . S
N338 C334 1.367 . S
N338 C335 1.379 . S
H339 C342 0.980 . S
H340 C342 0.981 . S
H341 C342 0.981 . S
C342 C334 1.481 . S
C342 H339 0.980 . S
C342 H340 0.981 . S
C342 H341 0.981 . S
C343 C330 1.481 . S
C343 H344 0.980 . S
C343 H345 0.981 . S
C343 H346 0.981 . S
H344 C343 0.980 . S
H345 C343 0.981 . S
H346 C343 0.981 . S
O347 Zn323 2.066 . S
O347 C326 1.256 . S
O348 Zn320 2.053 . S
O348 C326 1.244 . S
C349 O327 1.259 . S
C349 O328 1.254 . S
O350 Zn320 2.066 . S
O350 C322 1.256 . S
O351 C322 1.244 . S
O351 Zn323 2.053 . S
Zn352 O353 2.055 . S
Zn352 O360 2.046 . S
Zn352 N368 2.036 . S
Zn352 O380 2.053 . S
Zn352 O382 2.066 . S
O353 Zn352 2.055 . S
O353 C356 1.259 . S
C354 O382 1.256 . S
C354 O383 1.244 . S
Zn355 O357 2.046 . S
Zn355 O359 2.055 . S
Zn355 N361 2.036 . S
Zn355 O379 2.066 . S
Zn355 O383 2.053 . S
C356 O353 1.259 . S
C356 O357 1.254 . S
O357 Zn355 2.046 . S
O357 C356 1.254 . S
C358 O379 1.256 . S
C358 O380 1.244 . S
O359 Zn355 2.055 . S
O359 C381 1.259 . S
O360 Zn352 2.046 . S
O360 C381 1.254 . S
N361 Zn355 2.036 . S
N361 C362 1.298 . S
N361 N364 1.398 . S
C362 N361 1.298 . S
C362 N365 1.367 . S
C362 C375 1.481 . S
C363 N364 1.299 . S
C363 N365 1.379 . S
N364 N361 1.398 . S
N364 C363 1.299 . S
N365 C362 1.367 . S
N365 C363 1.379 . S
C366 N368 1.298 . S
C366 N370 1.367 . S
C366 C374 1.481 . S
C367 N369 1.299 . S
C367 N370 1.379 . S
N368 Zn352 2.036 . S
N368 C366 1.298 . S
N368 N369 1.398 . S
N369 C367 1.299 . S
N369 N368 1.398 . S
N370 C366 1.367 . S
N370 C367 1.379 . S
H371 C374 0.980 . S
H372 C374 0.981 . S
H373 C374 0.981 . S
C374 C366 1.481 . S
C374 H371 0.980 . S
C374 H372 0.981 . S
C374 H373 0.981 . S
C375 C362 1.481 . S
C375 H376 0.980 . S
C375 H377 0.981 . S
C375 H378 0.981 . S
H376 C375 0.980 . S
H377 C375 0.981 . S
H378 C375 0.981 . S
O379 Zn355 2.066 . S
O379 C358 1.256 . S
O380 Zn352 2.053 . S
O380 C358 1.244 . S
C381 O359 1.259 . S
C381 O360 1.254 . S
O382 Zn352 2.066 . S
O382 C354 1.256 . S
O383 C354 1.244 . S
O383 Zn355 2.053 . S
Zn384 O385 2.055 . S
Zn384 O392 2.046 . S
Zn384 N400 2.036 . S
Zn384 O412 2.053 . S
Zn384 O414 2.066 . S
O385 Zn384 2.055 . S
O385 C388 1.259 . S
C386 O414 1.256 . S
C386 O415 1.244 . S
Zn387 O389 2.046 . S
Zn387 O391 2.055 1_655 S
Zn387 N393 2.036 1_655 S
Zn387 O411 2.066 . S
Zn387 O415 2.053 . S
C388 O385 1.259 . S
C388 O389 1.254 . S
O389 Zn387 2.046 . S
O389 C388 1.254 . S
C390 O411 1.256 . S
C390 O412 1.244 . S
O391 Zn387 2.055 1_455 S
O391 C413 1.259 1_455 S
O392 Zn384 2.046 . S
O392 C413 1.254 . S
N393 Zn387 2.036 1_455 S
N393 C394 1.298 . S
N393 N396 1.398 1_455 S
C394 N393 1.298 . S
C394 N397 1.367 . S
C394 C407 1.481 . S
C395 N396 1.299 1_455 S
C395 N397 1.379 . S
N396 N393 1.398 1_655 S
N396 C395 1.299 1_655 S
N397 C394 1.367 . S
N397 C395 1.379 . S
C398 N400 1.298 . S
C398 N402 1.367 . S
C398 C406 1.481 . S
C399 N401 1.299 . S
C399 N402 1.379 . S
N400 Zn384 2.036 . S
N400 C398 1.298 . S
N400 N401 1.398 . S
N401 C399 1.299 . S
N401 N400 1.398 . S
N402 C398 1.367 . S
N402 C399 1.379 . S
H403 C406 0.980 . S
H404 C406 0.981 . S
H405 C406 0.981 . S
C406 C398 1.481 . S
C406 H403 0.980 . S
C406 H404 0.981 . S
C406 H405 0.981 . S
C407 C394 1.481 . S
C407 H408 0.980 . S
C407 H409 0.981 . S
C407 H410 0.981 . S
H408 C407 0.980 . S
H409 C407 0.981 . S
H410 C407 0.981 . S
O411 Zn387 2.066 . S
O411 C390 1.256 . S
O412 Zn384 2.053 . S
O412 C390 1.244 . S
C413 O391 1.259 1_655 S
C413 O392 1.254 . S
O414 Zn384 2.066 . S
O414 C386 1.256 . S
O415 C386 1.244 . S
O415 Zn387 2.053 . S
Zn416 O417 2.055 . S
Zn416 O424 2.046 . S
Zn416 N432 2.036 . S
Zn416 O444 2.053 . S
Zn416 O446 2.066 . S
O417 Zn416 2.055 . S
O417 C420 1.259 . S
C418 O446 1.256 . S
C418 O447 1.244 . S
Zn419 O421 2.046 . S
Zn419 O423 2.055 . S
Zn419 N425 2.036 . S
Zn419 O443 2.066 . S
Zn419 O447 2.053 . S
C420 O417 1.259 . S
C420 O421 1.254 . S
O421 Zn419 2.046 . S
O421 C420 1.254 . S
C422 O443 1.256 . S
C422 O444 1.244 . S
O423 Zn419 2.055 . S
O423 C445 1.259 . S
O424 Zn416 2.046 . S
O424 C445 1.254 . S
N425 Zn419 2.036 . S
N425 C426 1.298 . S
N425 N428 1.398 . S
C426 N425 1.298 . S
C426 N429 1.367 . S
C426 C439 1.481 . S
C427 N428 1.299 . S
C427 N429 1.379 . S
N428 N425 1.398 . S
N428 C427 1.299 . S
N429 C426 1.367 . S
N429 C427 1.379 . S
C430 N432 1.298 . S
C430 N434 1.367 . S
C430 C438 1.481 . S
C431 N433 1.299 . S
C431 N434 1.379 . S
N432 Zn416 2.036 . S
N432 C430 1.298 . S
N432 N433 1.398 . S
N433 C431 1.299 . S
N433 N432 1.398 . S
N434 C430 1.367 . S
N434 C431 1.379 . S
H435 C438 0.980 . S
H436 C438 0.981 . S
H437 C438 0.981 . S
C438 C430 1.481 . S
C438 H435 0.980 . S
C438 H436 0.981 . S
C438 H437 0.981 . S
C439 C426 1.481 . S
C439 H440 0.980 . S
C439 H441 0.981 . S
C439 H442 0.981 . S
H440 C439 0.980 . S
H441 C439 0.981 . S
H442 C439 0.981 . S
O443 Zn419 2.066 . S
O443 C422 1.256 . S
O444 Zn416 2.053 . S
O444 C422 1.244 . S
C445 O423 1.259 . S
C445 O424 1.254 . S
O446 Zn416 2.066 . S
O446 C418 1.256 . S
O447 C418 1.244 . S
O447 Zn419 2.053 . S
Zn448 O449 2.055 . S
Zn448 O456 2.046 . S
Zn448 N464 2.036 . S
Zn448 O476 2.053 . S
Zn448 O478 2.066 . S
O449 Zn448 2.055 . S
O449 C452 1.259 . S
C450 O478 1.256 . S
C450 O479 1.244 . S
Zn451 O453 2.046 . S
Zn451 O455 2.055 . S
Zn451 N457 2.036 . S
Zn451 O475 2.066 . S
Zn451 O479 2.053 . S
C452 O449 1.259 . S
C452 O453 1.254 . S
O453 Zn451 2.046 . S
O453 C452 1.254 . S
C454 O475 1.256 . S
C454 O476 1.244 . S
O455 Zn451 2.055 . S
O455 C477 1.259 . S
O456 Zn448 2.046 . S
O456 C477 1.254 . S
N457 Zn451 2.036 . S
N457 C458 1.298 . S
N457 N460 1.398 . S
C458 N457 1.298 . S
C458 N461 1.367 . S
C458 C471 1.481 . S
C459 N460 1.299 . S
C459 N461 1.379 . S
N460 N457 1.398 . S
N460 C459 1.299 . S
N461 C458 1.367 . S
N461 C459 1.379 . S
C462 N464 1.298 . S
C462 N466 1.367 . S
C462 C470 1.481 . S
C463 N465 1.299 . S
C463 N466 1.379 . S
N464 Zn448 2.036 . S
N464 C462 1.298 . S
N464 N465 1.398 . S
N465 C463 1.299 . S
N465 N464 1.398 . S
N466 C462 1.367 . S
N466 C463 1.379 . S
H467 C470 0.980 . S
H468 C470 0.981 . S
H469 C470 0.981 . S
C470 C462 1.481 . S
C470 H467 0.980 . S
C470 H468 0.981 . S
C470 H469 0.981 . S
C471 C458 1.481 . S
C471 H472 0.980 . S
C471 H473 0.981 . S
C471 H474 0.981 . S
H472 C471 0.980 . S
H473 C471 0.981 . S
H474 C471 0.981 . S
O475 Zn451 2.066 . S
O475 C454 1.256 . S
O476 Zn448 2.053 . S
O476 C454 1.244 . S
C477 O455 1.259 . S
C477 O456 1.254 . S
O478 Zn448 2.066 . S
O478 C450 1.256 . S
O479 C450 1.244 . S
O479 Zn451 2.053 . S
Zn480 O481 2.055 . S
Zn480 O488 2.046 . S
Zn480 N496 2.036 . S
Zn480 O508 2.053 . S
Zn480 O510 2.066 . S
O481 Zn480 2.055 . S
O481 C484 1.259 . S
C482 O510 1.256 . S
C482 O511 1.244 . S
Zn483 O485 2.046 . S
Zn483 O487 2.055 1_455 S
Zn483 N489 2.036 1_455 S
Zn483 O507 2.066 . S
Zn483 O511 2.053 . S
C484 O481 1.259 . S
C484 O485 1.254 . S
O485 Zn483 2.046 . S
O485 C484 1.254 . S
C486 O507 1.256 . S
C486 O508 1.244 . S
O487 Zn483 2.055 1_655 S
O487 C509 1.259 1_655 S
O488 Zn480 2.046 . S
O488 C509 1.254 . S
N489 Zn483 2.036 1_655 S
N489 C490 1.298 . S
N489 N492 1.398 1_655 S
C490 N489 1.298 . S
C490 N493 1.367 . S
C490 C503 1.481 . S
C491 N492 1.299 1_655 S
C491 N493 1.379 . S
N492 N489 1.398 1_455 S
N492 C491 1.299 1_455 S
N493 C490 1.367 . S
N493 C491 1.379 . S
C494 N496 1.298 . S
C494 N498 1.367 . S
C494 C502 1.481 . S
C495 N497 1.299 . S
C495 N498 1.379 . S
N496 Zn480 2.036 . S
N496 C494 1.298 . S
N496 N497 1.398 . S
N497 C495 1.299 . S
N497 N496 1.398 . S
N498 C494 1.367 . S
N498 C495 1.379 . S
H499 C502 0.980 . S
H500 C502 0.981 . S
H501 C502 0.981 . S
C502 C494 1.481 . S
C502 H499 0.980 . S
C502 H500 0.981 . S
C502 H501 0.981 . S
C503 C490 1.481 . S
C503 H504 0.980 . S
C503 H505 0.981 . S
C503 H506 0.981 . S
H504 C503 0.980 . S
H505 C503 0.981 . S
H506 C503 0.981 . S
O507 Zn483 2.066 . S
O507 C486 1.256 . S
O508 Zn480 2.053 . S
O508 C486 1.244 . S
C509 O487 1.259 1_455 S
C509 O488 1.254 . S
O510 Zn480 2.066 . S
O510 C482 1.256 . S
O511 C482 1.244 . S
O511 Zn483 2.053 . S
Zn512 O513 2.055 . S
Zn512 O520 2.046 . S
Zn512 N528 2.036 . S
Zn512 O540 2.053 . S
Zn512 O542 2.066 . S
O513 Zn512 2.055 . S
O513 C516 1.259 . S
C514 O542 1.256 . S
C514 O543 1.244 . S
Zn515 O517 2.046 . S
Zn515 O519 2.055 1_565 S
Zn515 N521 2.036 1_565 S
Zn515 O539 2.066 . S
Zn515 O543 2.053 . S
C516 O513 1.259 . S
C516 O517 1.254 . S
O517 Zn515 2.046 . S
O517 C516 1.254 . S
C518 O539 1.256 . S
C518 O540 1.244 . S
O519 Zn515 2.055 1_545 S
O519 C541 1.259 1_545 S
O520 Zn512 2.046 . S
O520 C541 1.254 . S
N521 Zn515 2.036 1_545 S
N521 C522 1.298 . S
N521 N524 1.398 1_545 S
C522 N521 1.298 . S
C522 N525 1.367 . S
C522 C535 1.481 . S
C523 N524 1.299 1_545 S
C523 N525 1.379 . S
N524 N521 1.398 1_565 S
N524 C523 1.299 1_565 S
N525 C522 1.367 . S
N525 C523 1.379 . S
C526 N528 1.298 . S
C526 N530 1.367 . S
C526 C534 1.481 . S
C527 N529 1.299 . S
C527 N530 1.379 . S
N528 Zn512 2.036 . S
N528 C526 1.298 . S
N528 N529 1.398 . S
N529 C527 1.299 . S
N529 N528 1.398 . S
N530 C526 1.367 . S
N530 C527 1.379 . S
H531 C534 0.980 . S
H532 C534 0.981 . S
H533 C534 0.981 . S
C534 C526 1.481 . S
C534 H531 0.980 . S
C534 H532 0.981 . S
C534 H533 0.981 . S
C535 C522 1.481 . S
C535 H536 0.980 . S
C535 H537 0.981 . S
C535 H538 0.981 . S
H536 C535 0.980 . S
H537 C535 0.981 . S
H538 C535 0.981 . S
O539 Zn515 2.066 . S
O539 C518 1.256 . S
O540 Zn512 2.053 . S
O540 C518 1.244 . S
C541 O519 1.259 1_565 S
C541 O520 1.254 . S
O542 Zn512 2.066 . S
O542 C514 1.256 . S
O543 C514 1.244 . S
O543 Zn515 2.053 . S
Zn544 O545 2.055 1_545 S
Zn544 O552 2.046 . S
Zn544 N560 2.036 1_545 S
Zn544 O572 2.053 . S
Zn544 O574 2.066 . S
O545 Zn544 2.055 1_565 S
O545 C548 1.259 1_565 S
C546 O574 1.256 . S
C546 O575 1.244 . S
Zn547 O549 2.046 . S
Zn547 O551 2.055 . S
Zn547 N553 2.036 . S
Zn547 O571 2.066 . S
Zn547 O575 2.053 . S
C548 O545 1.259 1_545 S
C548 O549 1.254 . S
O549 Zn547 2.046 . S
O549 C548 1.254 . S
C550 O571 1.256 . S
C550 O572 1.244 . S
O551 Zn547 2.055 . S
O551 C573 1.259 . S
O552 Zn544 2.046 . S
O552 C573 1.254 . S
N553 Zn547 2.036 . S
N553 C554 1.298 . S
N553 N556 1.398 . S
C554 N553 1.298 . S
C554 N557 1.367 . S
C554 C567 1.481 . S
C555 N556 1.299 . S
C555 N557 1.379 . S
N556 N553 1.398 . S
N556 C555 1.299 . S
N557 C554 1.367 . S
N557 C555 1.379 . S
C558 N560 1.298 . S
C558 N562 1.367 . S
C558 C566 1.481 . S
C559 N561 1.299 1_565 S
C559 N562 1.379 . S
N560 Zn544 2.036 1_565 S
N560 C558 1.298 . S
N560 N561 1.398 1_565 S
N561 C559 1.299 1_545 S
N561 N560 1.398 1_545 S
N562 C558 1.367 . S
N562 C559 1.379 . S
H563 C566 0.980 . S
H564 C566 0.981 . S
H565 C566 0.981 . S
C566 C558 1.481 . S
C566 H563 0.980 . S
C566 H564 0.981 . S
C566 H565 0.981 . S
C567 C554 1.481 . S
C567 H568 0.980 . S
C567 H569 0.981 . S
C567 H570 0.981 . S
H568 C567 0.980 . S
H569 C567 0.981 . S
H570 C567 0.981 . S
O571 Zn547 2.066 . S
O571 C550 1.256 . S
O572 Zn544 2.053 . S
O572 C550 1.244 . S
C573 O551 1.259 . S
C573 O552 1.254 . S
O574 Zn544 2.066 . S
O574 C546 1.256 . S
O575 C546 1.244 . S
O575 Zn547 2.053 . S
Zn576 O577 2.055 . S
Zn576 O584 2.046 . S
Zn576 N592 2.036 . S
Zn576 O604 2.053 . S
Zn576 O606 2.066 . S
O577 Zn576 2.055 . S
O577 C580 1.259 . S
C578 O606 1.256 . S
C578 O607 1.244 . S
Zn579 O581 2.046 . S
Zn579 O583 2.055 . S
Zn579 N585 2.036 . S
Zn579 O603 2.066 . S
Zn579 O607 2.053 . S
C580 O577 1.259 . S
C580 O581 1.254 . S
O581 Zn579 2.046 . S
O581 C580 1.254 . S
C582 O603 1.256 . S
C582 O604 1.244 . S
O583 Zn579 2.055 . S
O583 C605 1.259 . S
O584 Zn576 2.046 . S
O584 C605 1.254 . S
N585 Zn579 2.036 . S
N585 C586 1.298 . S
N585 N588 1.398 . S
C586 N585 1.298 . S
C586 N589 1.367 . S
C586 C599 1.481 . S
C587 N588 1.299 . S
C587 N589 1.379 . S
N588 N585 1.398 . S
N588 C587 1.299 . S
N589 C586 1.367 . S
N589 C587 1.379 . S
C590 N592 1.298 . S
C590 N594 1.367 . S
C590 C598 1.481 . S
C591 N593 1.299 . S
C591 N594 1.379 . S
N592 Zn576 2.036 . S
N592 C590 1.298 . S
N592 N593 1.398 . S
N593 C591 1.299 . S
N593 N592 1.398 . S
N594 C590 1.367 . S
N594 C591 1.379 . S
H595 C598 0.980 . S
H596 C598 0.981 . S
H597 C598 0.981 . S
C598 C590 1.481 . S
C598 H595 0.980 . S
C598 H596 0.981 . S
C598 H597 0.981 . S
C599 C586 1.481 . S
C599 H600 0.980 . S
C599 H601 0.981 . S
C599 H602 0.981 . S
H600 C599 0.980 . S
H601 C599 0.981 . S
H602 C599 0.981 . S
O603 Zn579 2.066 . S
O603 C582 1.256 . S
O604 Zn576 2.053 . S
O604 C582 1.244 . S
C605 O583 1.259 . S
C605 O584 1.254 . S
O606 Zn576 2.066 . S
O606 C578 1.256 . S
O607 C578 1.244 . S
O607 Zn579 2.053 . S
Zn608 O609 2.055 . S
Zn608 O616 2.046 . S
Zn608 N624 2.036 . S
Zn608 O636 2.053 . S
Zn608 O638 2.066 . S
O609 Zn608 2.055 . S
O609 C612 1.259 . S
C610 O638 1.256 . S
C610 O639 1.244 . S
Zn611 O613 2.046 . S
Zn611 O615 2.055 . S
Zn611 N617 2.036 . S
Zn611 O635 2.066 . S
Zn611 O639 2.053 . S
C612 O609 1.259 . S
C612 O613 1.254 . S
O613 Zn611 2.046 . S
O613 C612 1.254 . S
C614 O635 1.256 . S
C614 O636 1.244 . S
O615 Zn611 2.055 . S
O615 C637 1.259 . S
O616 Zn608 2.046 . S
O616 C637 1.254 . S
N617 Zn611 2.036 . S
N617 C618 1.298 . S
N617 N620 1.398 . S
C618 N617 1.298 . S
C618 N621 1.367 . S
C618 C631 1.481 . S
C619 N620 1.299 . S
C619 N621 1.379 . S
N620 N617 1.398 . S
N620 C619 1.299 . S
N621 C618 1.367 . S
N621 C619 1.379 . S
C622 N624 1.298 . S
C622 N626 1.367 . S
C622 C630 1.481 . S
C623 N625 1.299 . S
C623 N626 1.379 . S
N624 Zn608 2.036 . S
N624 C622 1.298 . S
N624 N625 1.398 . S
N625 C623 1.299 . S
N625 N624 1.398 . S
N626 C622 1.367 . S
N626 C623 1.379 . S
H627 C630 0.980 . S
H628 C630 0.981 . S
H629 C630 0.981 . S
C630 C622 1.481 . S
C630 H627 0.980 . S
C630 H628 0.981 . S
C630 H629 0.981 . S
C631 C618 1.481 . S
C631 H632 0.980 . S
C631 H633 0.981 . S
C631 H634 0.981 . S
H632 C631 0.980 . S
H633 C631 0.981 . S
H634 C631 0.981 . S
O635 Zn611 2.066 . S
O635 C614 1.256 . S
O636 Zn608 2.053 . S
O636 C614 1.244 . S
C637 O615 1.259 . S
C637 O616 1.254 . S
O638 Zn608 2.066 . S
O638 C610 1.256 . S
O639 C610 1.244 . S
O639 Zn611 2.053 . S
Zn640 O641 2.055 1_556 S
Zn640 O648 2.046 . S
Zn640 N656 2.036 1_556 S
Zn640 O668 2.053 . S
Zn640 O670 2.066 . S
O641 Zn640 2.055 1_554 S
O641 C644 1.259 1_554 S
C642 O670 1.256 . S
C642 O671 1.244 . S
Zn643 O645 2.046 . S
Zn643 O647 2.055 . S
Zn643 N649 2.036 . S
Zn643 O667 2.066 . S
Zn643 O671 2.053 . S
C644 O641 1.259 1_556 S
C644 O645 1.254 . S
O645 Zn643 2.046 . S
O645 C644 1.254 . S
C646 O667 1.256 . S
C646 O668 1.244 . S
O647 Zn643 2.055 . S
O647 C669 1.259 . S
O648 Zn640 2.046 . S
O648 C669 1.254 . S
N649 Zn643 2.036 . S
N649 C650 1.298 . S
N649 N652 1.398 . S
C650 N649 1.298 . S
C650 N653 1.367 . S
C650 C663 1.481 . S
C651 N652 1.299 . S
C651 N653 1.379 . S
N652 N649 1.398 . S
N652 C651 1.299 . S
N653 C650 1.367 . S
N653 C651 1.379 . S
C654 N656 1.298 . S
C654 N658 1.367 . S
C654 C662 1.481 . S
C655 N657 1.299 1_554 S
C655 N658 1.379 . S
N656 Zn640 2.036 1_554 S
N656 C654 1.298 . S
N656 N657 1.398 1_554 S
N657 C655 1.299 1_556 S
N657 N656 1.398 1_556 S
N658 C654 1.367 . S
N658 C655 1.379 . S
H659 C662 0.980 . S
H660 C662 0.981 . S
H661 C662 0.981 . S
C662 C654 1.481 . S
C662 H659 0.980 . S
C662 H660 0.981 . S
C662 H661 0.981 . S
C663 C650 1.481 . S
C663 H664 0.980 . S
C663 H665 0.981 . S
C663 H666 0.981 . S
H664 C663 0.980 . S
H665 C663 0.981 . S
H666 C663 0.981 . S
O667 Zn643 2.066 . S
O667 C646 1.256 . S
O668 Zn640 2.053 . S
O668 C646 1.244 . S
C669 O647 1.259 . S
C669 O648 1.254 . S
O670 Zn640 2.066 . S
O670 C642 1.256 . S
O671 C642 1.244 . S
O671 Zn643 2.053 . S
Zn672 O673 2.055 1_554 S
Zn672 O680 2.046 . S
Zn672 N688 2.036 1_554 S
Zn672 O700 2.053 . S
Zn672 O702 2.066 . S
O673 Zn672 2.055 1_556 S
O673 C676 1.259 1_556 S
C674 O702 1.256 . S
C674 O703 1.244 . S
Zn675 O677 2.046 . S
Zn675 O679 2.055 . S
Zn675 N681 2.036 . S
Zn675 O699 2.066 . S
Zn675 O703 2.053 . S
C676 O673 1.259 1_554 S
C676 O677 1.254 . S
O677 Zn675 2.046 . S
O677 C676 1.254 . S
C678 O699 1.256 . S
C678 O700 1.244 . S
O679 Zn675 2.055 . S
O679 C701 1.259 . S
O680 Zn672 2.046 . S
O680 C701 1.254 . S
N681 Zn675 2.036 . S
N681 C682 1.298 . S
N681 N684 1.398 . S
C682 N681 1.298 . S
C682 N685 1.367 . S
C682 C695 1.481 . S
C683 N684 1.299 . S
C683 N685 1.379 . S
N684 N681 1.398 . S
N684 C683 1.299 . S
N685 C682 1.367 . S
N685 C683 1.379 . S
C686 N688 1.298 . S
C686 N690 1.367 . S
C686 C694 1.481 . S
C687 N689 1.299 1_556 S
C687 N690 1.379 . S
N688 Zn672 2.036 1_556 S
N688 C686 1.298 . S
N688 N689 1.398 1_556 S
N689 C687 1.299 1_554 S
N689 N688 1.398 1_554 S
N690 C686 1.367 . S
N690 C687 1.379 . S
H691 C694 0.980 . S
H692 C694 0.981 . S
H693 C694 0.981 . S
C694 C686 1.481 . S
C694 H691 0.980 . S
C694 H692 0.981 . S
C694 H693 0.981 . S
C695 C682 1.481 . S
C695 H696 0.980 . S
C695 H697 0.981 . S
C695 H698 0.981 . S
H696 C695 0.980 . S
H697 C695 0.981 . S
H698 C695 0.981 . S
O699 Zn675 2.066 . S
O699 C678 1.256 . S
O700 Zn672 2.053 . S
O700 C678 1.244 . S
C701 O679 1.259 . S
C701 O680 1.254 . S
O702 Zn672 2.066 . S
O702 C674 1.256 . S
O703 C674 1.244 . S
O703 Zn675 2.053 . S
Zn704 O705 2.055 . S
Zn704 O712 2.046 . S
Zn704 N720 2.036 . S
Zn704 O732 2.053 . S
Zn704 O734 2.066 . S
O705 Zn704 2.055 . S
O705 C708 1.259 . S
C706 O734 1.256 . S
C706 O735 1.244 . S
Zn707 O709 2.046 . S
Zn707 O711 2.055 . S
Zn707 N713 2.036 . S
Zn707 O731 2.066 . S
Zn707 O735 2.053 . S
C708 O705 1.259 . S
C708 O709 1.254 . S
O709 Zn707 2.046 . S
O709 C708 1.254 . S
C710 O731 1.256 . S
C710 O732 1.244 . S
O711 Zn707 2.055 . S
O711 C733 1.259 . S
O712 Zn704 2.046 . S
O712 C733 1.254 . S
N713 Zn707 2.036 . S
N713 C714 1.298 . S
N713 N716 1.398 . S
C714 N713 1.298 . S
C714 N717 1.367 . S
C714 C727 1.481 . S
C715 N716 1.299 . S
C715 N717 1.379 . S
N716 N713 1.398 . S
N716 C715 1.299 . S
N717 C714 1.367 . S
N717 C715 1.379 . S
C718 N720 1.298 . S
C718 N722 1.367 . S
C718 C726 1.481 . S
C719 N721 1.299 . S
C719 N722 1.379 . S
N720 Zn704 2.036 . S
N720 C718 1.298 . S
N720 N721 1.398 . S
N721 C719 1.299 . S
N721 N720 1.398 . S
N722 C718 1.367 . S
N722 C719 1.379 . S
H723 C726 0.980 . S
H724 C726 0.981 . S
H725 C726 0.981 . S
C726 C718 1.481 . S
C726 H723 0.980 . S
C726 H724 0.981 . S
C726 H725 0.981 . S
C727 C714 1.481 . S
C727 H728 0.980 . S
C727 H729 0.981 . S
C727 H730 0.981 . S
H728 C727 0.980 . S
H729 C727 0.981 . S
H730 C727 0.981 . S
O731 Zn707 2.066 . S
O731 C710 1.256 . S
O732 Zn704 2.053 . S
O732 C710 1.244 . S
C733 O711 1.259 . S
C733 O712 1.254 . S
O734 Zn704 2.066 . S
O734 C706 1.256 . S
O735 C706 1.244 . S
O735 Zn707 2.053 . S
Zn736 O737 2.055 . S
Zn736 O744 2.046 . S
Zn736 N752 2.036 . S
Zn736 O764 2.053 . S
Zn736 O766 2.066 . S
O737 Zn736 2.055 . S
O737 C740 1.259 . S
C738 O766 1.256 . S
C738 O767 1.244 . S
Zn739 O741 2.046 . S
Zn739 O743 2.055 . S
Zn739 N745 2.036 . S
Zn739 O763 2.066 . S
Zn739 O767 2.053 . S
C740 O737 1.259 . S
C740 O741 1.254 . S
O741 Zn739 2.046 . S
O741 C740 1.254 . S
C742 O763 1.256 . S
C742 O764 1.244 . S
O743 Zn739 2.055 . S
O743 C765 1.259 . S
O744 Zn736 2.046 . S
O744 C765 1.254 . S
N745 Zn739 2.036 . S
N745 C746 1.298 . S
N745 N748 1.398 . S
C746 N745 1.298 . S
C746 N749 1.367 . S
C746 C759 1.481 . S
C747 N748 1.299 . S
C747 N749 1.379 . S
N748 N745 1.398 . S
N748 C747 1.299 . S
N749 C746 1.367 . S
N749 C747 1.379 . S
C750 N752 1.298 . S
C750 N754 1.367 . S
C750 C758 1.481 . S
C751 N753 1.299 . S
C751 N754 1.379 . S
N752 Zn736 2.036 . S
N752 C750 1.298 . S
N752 N753 1.398 . S
N753 C751 1.299 . S
N753 N752 1.398 . S
N754 C750 1.367 . S
N754 C751 1.379 . S
H755 C758 0.980 . S
H756 C758 0.981 . S
H757 C758 0.981 . S
C758 C750 1.481 . S
C758 H755 0.980 . S
C758 H756 0.981 . S
C758 H757 0.981 . S
C759 C746 1.481 . S
C759 H760 0.980 . S
C759 H761 0.981 . S
C759 H762 0.981 . S
H760 C759 0.980 . S
H761 C759 0.981 . S
H762 C759 0.981 . S
O763 Zn739 2.066 . S
O763 C742 1.256 . S
O764 Zn736 2.053 . S
O764 C742 1.244 . S
C765 O743 1.259 . S
C765 O744 1.254 . S
O766 Zn736 2.066 . S
O766 C738 1.256 . S
O767 C738 1.244 . S
O767 Zn739 2.053 . S
H768 C776 0.950 . S
H769 C781 0.950 . S
H770 C778 0.950 . S
H771 C780 0.950 . S
H772 C782 0.950 . S
H773 C784 0.950 . S
H774 C786 0.950 . S
H775 C787 0.950 . S
C776 H768 0.950 . S
C776 C777 1.386 . S
C776 C778 1.391 . S
C777 C776 1.386 . S
C777 C781 1.393 . S
C778 H770 0.950 . S
C778 C776 1.391 . S
C778 C779 1.400 . S
C779 C778 1.400 . S
C779 C780 1.398 . S
C779 C785 1.491 . S
C780 H771 0.950 . S
C780 C779 1.398 . S
C780 C781 1.391 . S
C781 H769 0.950 . S
C781 C777 1.393 . S
C781 C780 1.391 . S
C782 H772 0.950 . S
C782 C783 1.386 . S
C782 C784 1.391 . S
C783 C782 1.386 . S
C783 C787 1.393 . S
C784 H773 0.950 . S
C784 C782 1.391 . S
C784 C785 1.400 . S
C785 C779 1.491 . S
C785 C784 1.400 . S
C785 C786 1.398 . S
C786 H774 0.950 . S
C786 C785 1.398 . S
C786 C787 1.391 . S
C787 H775 0.950 . S
C787 C783 1.393 . S
C787 C786 1.391 . S
H788 C796 0.950 . S
H789 C801 0.950 . S
H790 C798 0.950 . S
H791 C800 0.950 . S
H792 C802 0.950 . S
H793 C804 0.950 . S
H794 C806 0.950 . S
H795 C807 0.950 . S
C796 H788 0.950 . S
C796 C797 1.386 . S
C796 C798 1.391 . S
C797 C796 1.386 . S
C797 C801 1.393 . S
C798 H790 0.950 . S
C798 C796 1.391 . S
C798 C799 1.400 . S
C799 C798 1.400 . S
C799 C800 1.398 . S
C799 C805 1.491 . S
C800 H791 0.950 . S
C800 C799 1.398 . S
C800 C801 1.391 . S
C801 H789 0.950 . S
C801 C797 1.393 . S
C801 C800 1.391 . S
C802 H792 0.950 . S
C802 C803 1.386 . S
C802 C804 1.391 . S
C803 C802 1.386 . S
C803 C807 1.393 . S
C804 H793 0.950 . S
C804 C802 1.391 . S
C804 C805 1.400 . S
C805 C799 1.491 . S
C805 C804 1.400 . S
C805 C806 1.398 . S
C806 H794 0.950 . S
C806 C805 1.398 . S
C806 C807 1.391 . S
C807 H795 0.950 . S
C807 C803 1.393 . S
C807 C806 1.391 . S
H808 C816 0.950 . S
H809 C821 0.950 . S
H810 C818 0.950 . S
H811 C820 0.950 . S
H812 C822 0.950 1_565 S
H813 C824 0.950 . S
H814 C826 0.950 . S
H815 C827 0.950 . S
C816 H808 0.950 . S
C816 C817 1.386 . S
C816 C818 1.391 . S
C817 C816 1.386 . S
C817 C821 1.393 . S
C818 H810 0.950 . S
C818 C816 1.391 . S
C818 C819 1.400 . S
C819 C818 1.400 . S
C819 C820 1.398 . S
C819 C825 1.491 . S
C820 H811 0.950 . S
C820 C819 1.398 . S
C820 C821 1.391 . S
C821 H809 0.950 . S
C821 C817 1.393 . S
C821 C820 1.391 . S
C822 H812 0.950 1_545 S
C822 C823 1.386 . S
C822 C824 1.391 . S
C823 C822 1.386 . S
C823 C827 1.393 . S
C824 H813 0.950 . S
C824 C822 1.391 . S
C824 C825 1.400 . S
C825 C819 1.491 . S
C825 C824 1.400 . S
C825 C826 1.398 . S
C826 H814 0.950 . S
C826 C825 1.398 . S
C826 C827 1.391 . S
C827 H815 0.950 . S
C827 C823 1.393 . S
C827 C826 1.391 . S
H828 C836 0.950 . S
H829 C841 0.950 . S
H830 C838 0.950 . S
H831 C840 0.950 . S
H832 C842 0.950 . S
H833 C844 0.950 . S
H834 C846 0.950 . S
H835 C847 0.950 . S
C836 H828 0.950 . S
C836 C837 1.386 . S
C836 C838 1.391 . S
C837 C836 1.386 . S
C837 C841 1.393 . S
C838 H830 0.950 . S
C838 C836 1.391 . S
C838 C839 1.400 . S
C839 C838 1.400 . S
C839 C840 1.398 . S
C839 C845 1.491 . S
C840 H831 0.950 . S
C840 C839 1.398 . S
C840 C841 1.391 . S
C841 H829 0.950 . S
C841 C837 1.393 . S
C841 C840 1.391 . S
C842 H832 0.950 . S
C842 C843 1.386 . S
C842 C844 1.391 . S
C843 C842 1.386 . S
C843 C847 1.393 . S
C844 H833 0.950 . S
C844 C842 1.391 . S
C844 C845 1.400 . S
C845 C839 1.491 . S
C845 C844 1.400 . S
C845 C846 1.398 . S
C846 H834 0.950 . S
C846 C845 1.398 . S
C846 C847 1.391 . S
C847 H835 0.950 . S
C847 C843 1.393 . S
C847 C846 1.391 . S
H848 C856 0.950 . S
H849 C861 0.950 . S
H850 C858 0.950 . S
H851 C860 0.950 . S
H852 C862 0.950 . S
H853 C864 0.950 . S
H854 C866 0.950 . S
H855 C867 0.950 . S
C856 H848 0.950 . S
C856 C857 1.386 . S
C856 C858 1.391 . S
C857 C856 1.386 . S
C857 C861 1.393 . S
C858 H850 0.950 . S
C858 C856 1.391 . S
C858 C859 1.400 . S
C859 C858 1.400 . S
C859 C860 1.398 . S
C859 C865 1.491 . S
C860 H851 0.950 . S
C860 C859 1.398 . S
C860 C861 1.391 . S
C861 H849 0.950 . S
C861 C857 1.393 . S
C861 C860 1.391 . S
C862 H852 0.950 . S
C862 C863 1.386 . S
C862 C864 1.391 . S
C863 C862 1.386 . S
C863 C867 1.393 . S
C864 H853 0.950 . S
C864 C862 1.391 . S
C864 C865 1.400 . S
C865 C859 1.491 . S
C865 C864 1.400 . S
C865 C866 1.398 . S
C866 H854 0.950 . S
C866 C865 1.398 . S
C866 C867 1.391 . S
C867 H855 0.950 . S
C867 C863 1.393 . S
C867 C866 1.391 . S
H868 C876 0.950 . S
H869 C881 0.950 . S
H870 C878 0.950 . S
H871 C880 0.950 . S
H872 C882 0.950 . S
H873 C884 0.950 . S
H874 C886 0.950 . S
H875 C887 0.950 . S
C876 H868 0.950 . S
C876 C877 1.386 . S
C876 C878 1.391 . S
C877 C876 1.386 . S
C877 C881 1.393 . S
C878 H870 0.950 . S
C878 C876 1.391 . S
C878 C879 1.400 . S
C879 C878 1.400 . S
C879 C880 1.398 . S
C879 C885 1.491 . S
C880 H871 0.950 . S
C880 C879 1.398 . S
C880 C881 1.391 . S
C881 H869 0.950 . S
C881 C877 1.393 . S
C881 C880 1.391 . S
C882 H872 0.950 . S
C882 C883 1.386 . S
C882 C884 1.391 . S
C883 C882 1.386 . S
C883 C887 1.393 . S
C884 H873 0.950 . S
C884 C882 1.391 . S
C884 C885 1.400 . S
C885 C879 1.491 . S
C885 C884 1.400 . S
C885 C886 1.398 . S
C886 H874 0.950 . S
C886 C885 1.398 . S
C886 C887 1.391 . S
C887 H875 0.950 . S
C887 C883 1.393 . S
C887 C886 1.391 . S
H888 C896 0.950 . S
H889 C901 0.950 . S
H890 C898 0.950 . S
H891 C900 0.950 . S
H892 C902 0.950 . S
H893 C904 0.950 . S
H894 C906 0.950 . S
H895 C907 0.950 . S
C896 H888 0.950 . S
C896 C897 1.386 . S
C896 C898 1.391 . S
C897 C896 1.386 . S
C897 C901 1.393 . S
C898 H890 0.950 . S
C898 C896 1.391 . S
C898 C899 1.400 . S
C899 C898 1.400 . S
C899 C900 1.398 . S
C899 C905 1.491 . S
C900 H891 0.950 . S
C900 C899 1.398 . S
C900 C901 1.391 . S
C901 H889 0.950 . S
C901 C897 1.393 . S
C901 C900 1.391 . S
C902 H892 0.950 . S
C902 C903 1.386 . S
C902 C904 1.391 . S
C903 C902 1.386 . S
C903 C907 1.393 . S
C904 H893 0.950 . S
C904 C902 1.391 . S
C904 C905 1.400 . S
C905 C899 1.491 . S
C905 C904 1.400 . S
C905 C906 1.398 . S
C906 H894 0.950 . S
C906 C905 1.398 . S
C906 C907 1.391 . S
C907 H895 0.950 . S
C907 C903 1.393 . S
C907 C906 1.391 . S
H908 C916 0.950 . S
H909 C921 0.950 . S
H910 C918 0.950 . S
H911 C920 0.950 . S
H912 C922 0.950 . S
H913 C924 0.950 . S
H914 C926 0.950 . S
H915 C927 0.950 1_556 S
C916 H908 0.950 . S
C916 C917 1.386 . S
C916 C918 1.391 . S
C917 C916 1.386 . S
C917 C921 1.393 . S
C918 H910 0.950 . S
C918 C916 1.391 . S
C918 C919 1.400 . S
C919 C918 1.400 . S
C919 C920 1.398 . S
C919 C925 1.491 . S
C920 H911 0.950 . S
C920 C919 1.398 . S
C920 C921 1.391 . S
C921 H909 0.950 . S
C921 C917 1.393 . S
C921 C920 1.391 . S
C922 H912 0.950 . S
C922 C923 1.386 . S
C922 C924 1.391 . S
C923 C922 1.386 . S
C923 C927 1.393 . S
C924 H913 0.950 . S
C924 C922 1.391 . S
C924 C925 1.400 . S
C925 C919 1.491 . S
C925 C924 1.400 . S
C925 C926 1.398 . S
C926 H914 0.950 . S
C926 C925 1.398 . S
C926 C927 1.391 . S
C927 H915 0.950 1_554 S
C927 C923 1.393 . S
C927 C926 1.391 . S
H928 C936 0.950 . S
H929 C941 0.950 . S
H930 C938 0.950 . S
H931 C940 0.950 . S
H932 C942 0.950 . S
H933 C944 0.950 . S
H934 C946 0.950 . S
H935 C947 0.950 . S
C936 H928 0.950 . S
C936 C937 1.386 . S
C936 C938 1.391 . S
C937 C936 1.386 . S
C937 C941 1.393 . S
C938 H930 0.950 . S
C938 C936 1.391 . S
C938 C939 1.400 . S
C939 C938 1.400 . S
C939 C940 1.398 . S
C939 C945 1.491 . S
C940 H931 0.950 . S
C940 C939 1.398 . S
C940 C941 1.391 . S
C941 H929 0.950 . S
C941 C937 1.393 . S
C941 C940 1.391 . S
C942 H932 0.950 . S
C942 C943 1.386 . S
C942 C944 1.391 . S
C943 C942 1.386 . S
C943 C947 1.393 . S
C944 H933 0.950 . S
C944 C942 1.391 . S
C944 C945 1.400 . S
C945 C939 1.491 . S
C945 C944 1.400 . S
C945 C946 1.398 . S
C946 H934 0.950 . S
C946 C945 1.398 . S
C946 C947 1.391 . S
C947 H935 0.950 . S
C947 C943 1.393 . S
C947 C946 1.391 . S
H948 C956 0.950 . S
H949 C961 0.950 . S
H950 C958 0.950 . S
H951 C960 0.950 . S
H952 C962 0.950 . S
H953 C964 0.950 . S
H954 C966 0.950 . S
H955 C967 0.950 1_455 S
C956 H948 0.950 . S
C956 C957 1.386 . S
C956 C958 1.391 . S
C957 C956 1.386 . S
C957 C961 1.393 . S
C958 H950 0.950 . S
C958 C956 1.391 . S
C958 C959 1.400 . S
C959 C958 1.400 . S
C959 C960 1.398 . S
C959 C965 1.491 . S
C960 H951 0.950 . S
C960 C959 1.398 . S
C960 C961 1.391 . S
C961 H949 0.950 . S
C961 C957 1.393 . S
C961 C960 1.391 . S
C962 H952 0.950 . S
C962 C963 1.386 . S
C962 C964 1.391 . S
C963 C962 1.386 . S
C963 C967 1.393 . S
C964 H953 0.950 . S
C964 C962 1.391 . S
C964 C965 1.400 . S
C965 C959 1.491 . S
C965 C964 1.400 . S
C965 C966 1.398 . S
C966 H954 0.950 . S
C966 C965 1.398 . S
C966 C967 1.391 . S
C967 H955 0.950 1_655 S
C967 C963 1.393 . S
C967 C966 1.391 . S
H968 C976 0.950 . S
H969 C981 0.950 . S
H970 C978 0.950 . S
H971 C980 0.950 . S
H972 C982 0.950 . S
H973 C984 0.950 . S
H974 C986 0.950 . S
H975 C987 0.950 . S
C976 H968 0.950 . S
C976 C977 1.386 . S
C976 C978 1.391 . S
C977 C976 1.386 . S
C977 C981 1.393 . S
C978 H970 0.950 . S
C978 C976 1.391 . S
C978 C979 1.400 . S
C979 C978 1.400 . S
C979 C980 1.398 . S
C979 C985 1.491 . S
C980 H971 0.950 . S
C980 C979 1.398 . S
C980 C981 1.391 . S
C981 H969 0.950 . S
C981 C977 1.393 . S
C981 C980 1.391 . S
C982 H972 0.950 . S
C982 C983 1.386 . S
C982 C984 1.391 . S
C983 C982 1.386 . S
C983 C987 1.393 . S
C984 H973 0.950 . S
C984 C982 1.391 . S
C984 C985 1.400 . S
C985 C979 1.491 . S
C985 C984 1.400 . S
C985 C986 1.398 . S
C986 H974 0.950 . S
C986 C985 1.398 . S
C986 C987 1.391 . S
C987 H975 0.950 . S
C987 C983 1.393 . S
C987 C986 1.391 . S
H988 C996 0.950 . S
H989 C1001 0.950 . S
H990 C998 0.950 . S
H991 C1000 0.950 . S
H992 C1002 0.950 . S
H993 C1004 0.950 . S
H994 C1006 0.950 . S
H995 C1007 0.950 . S
C996 H988 0.950 . S
C996 C997 1.386 . S
C996 C998 1.391 . S
C997 C996 1.386 . S
C997 C1001 1.393 . S
C998 H990 0.950 . S
C998 C996 1.391 . S
C998 C999 1.400 . S
C999 C998 1.400 . S
C999 C1000 1.398 . S
C999 C1005 1.491 . S
C1000 H991 0.950 . S
C1000 C999 1.398 . S
C1000 C1001 1.391 . S
C1001 H989 0.950 . S
C1001 C997 1.393 . S
C1001 C1000 1.391 . S
C1002 H992 0.950 . S
C1002 C1003 1.386 . S
C1002 C1004 1.391 . S
C1003 C1002 1.386 . S
C1003 C1007 1.393 . S
C1004 H993 0.950 . S
C1004 C1002 1.391 . S
C1004 C1005 1.400 . S
C1005 C999 1.491 . S
C1005 C1004 1.400 . S
C1005 C1006 1.398 . S
C1006 H994 0.950 . S
C1006 C1005 1.398 . S
C1006 C1007 1.391 . S
C1007 H995 0.950 . S
C1007 C1003 1.393 . S
C1007 C1006 1.391 . S
H1008 C1016 0.950 . S
H1009 C1021 0.950 . S
H1010 C1018 0.950 . S
H1011 C1020 0.950 . S
H1012 C1022 0.950 . S
H1013 C1024 0.950 . S
H1014 C1026 0.950 . S
H1015 C1027 0.950 . S
C1016 H1008 0.950 . S
C1016 C1017 1.386 . S
C1016 C1018 1.391 . S
C1017 C1016 1.386 . S
C1017 C1021 1.393 . S
C1018 H1010 0.950 . S
C1018 C1016 1.391 . S
C1018 C1019 1.400 . S
C1019 C1018 1.400 . S
C1019 C1020 1.398 . S
C1019 C1025 1.491 . S
C1020 H1011 0.950 . S
C1020 C1019 1.398 . S
C1020 C1021 1.391 . S
C1021 H1009 0.950 . S
C1021 C1017 1.393 . S
C1021 C1020 1.391 . S
C1022 H1012 0.950 . S
C1022 C1023 1.386 . S
C1022 C1024 1.391 . S
C1023 C1022 1.386 . S
C1023 C1027 1.393 . S
C1024 H1013 0.950 . S
C1024 C1022 1.391 . S
C1024 C1025 1.400 . S
C1025 C1019 1.491 . S
C1025 C1024 1.400 . S
C1025 C1026 1.398 . S
C1026 H1014 0.950 . S
C1026 C1025 1.398 . S
C1026 C1027 1.391 . S
C1027 H1015 0.950 . S
C1027 C1023 1.393 . S
C1027 C1026 1.391 . S
H1028 C1036 0.950 . S
H1029 C1041 0.950 . S
H1030 C1038 0.950 . S
H1031 C1040 0.950 . S
H1032 C1042 0.950 . S
H1033 C1044 0.950 . S
H1034 C1046 0.950 . S
H1035 C1047 0.950 . S
C1036 H1028 0.950 . S
C1036 C1037 1.386 . S
C1036 C1038 1.391 . S
C1037 C1036 1.386 . S
C1037 C1041 1.393 . S
C1038 H1030 0.950 . S
C1038 C1036 1.391 . S
C1038 C1039 1.400 . S
C1039 C1038 1.400 . S
C1039 C1040 1.398 . S
C1039 C1045 1.491 . S
C1040 H1031 0.950 . S
C1040 C1039 1.398 . S
C1040 C1041 1.391 . S
C1041 H1029 0.950 . S
C1041 C1037 1.393 . S
C1041 C1040 1.391 . S
C1042 H1032 0.950 . S
C1042 C1043 1.386 . S
C1042 C1044 1.391 . S
C1043 C1042 1.386 . S
C1043 C1047 1.393 . S
C1044 H1033 0.950 . S
C1044 C1042 1.391 . S
C1044 C1045 1.400 . S
C1045 C1039 1.491 . S
C1045 C1044 1.400 . S
C1045 C1046 1.398 . S
C1046 H1034 0.950 . S
C1046 C1045 1.398 . S
C1046 C1047 1.391 . S
C1047 H1035 0.950 . S
C1047 C1043 1.393 . S
C1047 C1046 1.391 . S
H1048 C1056 0.950 . S
H1049 C1061 0.950 . S
H1050 C1058 0.950 . S
H1051 C1060 0.950 . S
H1052 C1062 0.950 . S
H1053 C1064 0.950 . S
H1054 C1066 0.950 . S
H1055 C1067 0.950 . S
C1056 H1048 0.950 . S
C1056 C1057 1.386 . S
C1056 C1058 1.391 . S
C1057 C1056 1.386 . S
C1057 C1061 1.393 . S
C1058 H1050 0.950 . S
C1058 C1056 1.391 . S
C1058 C1059 1.400 . S
C1059 C1058 1.400 . S
C1059 C1060 1.398 . S
C1059 C1065 1.491 . S
C1060 H1051 0.950 . S
C1060 C1059 1.398 . S
C1060 C1061 1.391 . S
C1061 H1049 0.950 . S
C1061 C1057 1.393 . S
C1061 C1060 1.391 . S
C1062 H1052 0.950 . S
C1062 C1063 1.386 . S
C1062 C1064 1.391 . S
C1063 C1062 1.386 . S
C1063 C1067 1.393 . S
C1064 H1053 0.950 . S
C1064 C1062 1.391 . S
C1064 C1065 1.400 . S
C1065 C1059 1.491 . S
C1065 C1064 1.400 . S
C1065 C1066 1.398 . S
C1066 H1054 0.950 . S
C1066 C1065 1.398 . S
C1066 C1067 1.391 . S
C1067 H1055 0.950 . S
C1067 C1063 1.393 . S
C1067 C1066 1.391 . S
H1068 C1076 0.950 . S
H1069 C1081 0.950 . S
H1070 C1078 0.950 . S
H1071 C1080 0.950 . S
H1072 C1082 0.950 . S
H1073 C1084 0.950 . S
H1074 C1086 0.950 . S
H1075 C1087 0.950 . S
C1076 H1068 0.950 . S
C1076 C1077 1.386 . S
C1076 C1078 1.391 . S
C1077 C1076 1.386 . S
C1077 C1081 1.393 . S
C1078 H1070 0.950 . S
C1078 C1076 1.391 . S
C1078 C1079 1.400 . S
C1079 C1078 1.400 . S
C1079 C1080 1.398 . S
C1079 C1085 1.491 . S
C1080 H1071 0.950 . S
C1080 C1079 1.398 . S
C1080 C1081 1.391 . S
C1081 H1069 0.950 . S
C1081 C1077 1.393 . S
C1081 C1080 1.391 . S
C1082 H1072 0.950 . S
C1082 C1083 1.386 . S
C1082 C1084 1.391 . S
C1083 C1082 1.386 . S
C1083 C1087 1.393 . S
C1084 H1073 0.950 . S
C1084 C1082 1.391 . S
C1084 C1085 1.400 . S
C1085 C1079 1.491 . S
C1085 C1084 1.400 . S
C1085 C1086 1.398 . S
C1086 H1074 0.950 . S
C1086 C1085 1.398 . S
C1086 C1087 1.391 . S
C1087 H1075 0.950 . S
C1087 C1083 1.393 . S
C1087 C1086 1.391 . S
H1088 C1096 0.950 . S
H1089 C1101 0.950 . S
H1090 C1098 0.950 . S
H1091 C1100 0.950 . S
H1092 C1102 0.950 . S
H1093 C1104 0.950 . S
H1094 C1106 0.950 . S
H1095 C1107 0.950 . S
C1096 H1088 0.950 . S
C1096 C1097 1.386 . S
C1096 C1098 1.391 . S
C1097 C1096 1.386 . S
C1097 C1101 1.393 . S
C1098 H1090 0.950 . S
C1098 C1096 1.391 . S
C1098 C1099 1.400 . S
C1099 C1098 1.400 . S
C1099 C1100 1.398 . S
C1099 C1105 1.491 . S
C1100 H1091 0.950 . S
C1100 C1099 1.398 . S
C1100 C1101 1.391 . S
C1101 H1089 0.950 . S
C1101 C1097 1.393 . S
C1101 C1100 1.391 . S
C1102 H1092 0.950 . S
C1102 C1103 1.386 . S
C1102 C1104 1.391 . S
C1103 C1102 1.386 . S
C1103 C1107 1.393 . S
C1104 H1093 0.950 . S
C1104 C1102 1.391 . S
C1104 C1105 1.400 . S
C1105 C1099 1.491 . S
C1105 C1104 1.400 . S
C1105 C1106 1.398 . S
C1106 H1094 0.950 . S
C1106 C1105 1.398 . S
C1106 C1107 1.391 . S
C1107 H1095 0.950 . S
C1107 C1103 1.393 . S
C1107 C1106 1.391 . S
H1108 C1116 0.950 . S
H1109 C1121 0.950 . S
H1110 C1118 0.950 . S
H1111 C1120 0.950 . S
H1112 C1122 0.950 . S
H1113 C1124 0.950 . S
H1114 C1126 0.950 . S
H1115 C1127 0.950 . S
C1116 H1108 0.950 . S
C1116 C1117 1.386 . S
C1116 C1118 1.391 . S
C1117 C1116 1.386 . S
C1117 C1121 1.393 . S
C1118 H1110 0.950 . S
C1118 C1116 1.391 . S
C1118 C1119 1.400 . S
C1119 C1118 1.400 . S
C1119 C1120 1.398 . S
C1119 C1125 1.491 . S
C1120 H1111 0.950 . S
C1120 C1119 1.398 . S
C1120 C1121 1.391 . S
C1121 H1109 0.950 . S
C1121 C1117 1.393 . S
C1121 C1120 1.391 . S
C1122 H1112 0.950 . S
C1122 C1123 1.386 . S
C1122 C1124 1.391 . S
C1123 C1122 1.386 . S
C1123 C1127 1.393 . S
C1124 H1113 0.950 . S
C1124 C1122 1.391 . S
C1124 C1125 1.400 . S
C1125 C1119 1.491 . S
C1125 C1124 1.400 . S
C1125 C1126 1.398 . S
C1126 H1114 0.950 . S
C1126 C1125 1.398 . S
C1126 C1127 1.391 . S
C1127 H1115 0.950 . S
C1127 C1123 1.393 . S
C1127 C1126 1.391 . S
H1128 C1136 0.950 . S
H1129 C1141 0.950 . S
H1130 C1138 0.950 . S
H1131 C1140 0.950 . S
H1132 C1142 0.950 . S
H1133 C1144 0.950 . S
H1134 C1146 0.950 . S
H1135 C1147 0.950 . S
C1136 H1128 0.950 . S
C1136 C1137 1.386 . S
C1136 C1138 1.391 . S
C1137 C1136 1.386 . S
C1137 C1141 1.393 . S
C1138 H1130 0.950 . S
C1138 C1136 1.391 . S
C1138 C1139 1.400 . S
C1139 C1138 1.400 . S
C1139 C1140 1.398 . S
C1139 C1145 1.491 . S
C1140 H1131 0.950 . S
C1140 C1139 1.398 . S
C1140 C1141 1.391 . S
C1141 H1129 0.950 . S
C1141 C1137 1.393 . S
C1141 C1140 1.391 . S
C1142 H1132 0.950 . S
C1142 C1143 1.386 . S
C1142 C1144 1.391 . S
C1143 C1142 1.386 . S
C1143 C1147 1.393 . S
C1144 H1133 0.950 . S
C1144 C1142 1.391 . S
C1144 C1145 1.400 . S
C1145 C1139 1.491 . S
C1145 C1144 1.400 . S
C1145 C1146 1.398 . S
C1146 H1134 0.950 . S
C1146 C1145 1.398 . S
C1146 C1147 1.391 . S
C1147 H1135 0.950 . S
C1147 C1143 1.393 . S
C1147 C1146 1.391 . S
H1148 C1156 0.950 . S
H1149 C1161 0.950 . S
H1150 C1158 0.950 . S
H1151 C1160 0.950 . S
H1152 C1162 0.950 . S
H1153 C1164 0.950 . S
H1154 C1166 0.950 . S
H1155 C1167 0.950 . S
C1156 H1148 0.950 . S
C1156 C1157 1.386 . S
C1156 C1158 1.391 . S
C1157 C1156 1.386 . S
C1157 C1161 1.393 . S
C1158 H1150 0.950 . S
C1158 C1156 1.391 . S
C1158 C1159 1.400 . S
C1159 C1158 1.400 . S
C1159 C1160 1.398 . S
C1159 C1165 1.491 . S
C1160 H1151 0.950 . S
C1160 C1159 1.398 . S
C1160 C1161 1.391 . S
C1161 H1149 0.950 . S
C1161 C1157 1.393 . S
C1161 C1160 1.391 . S
C1162 H1152 0.950 . S
C1162 C1163 1.386 . S
C1162 C1164 1.391 . S
C1163 C1162 1.386 . S
C1163 C1167 1.393 . S
C1164 H1153 0.950 . S
C1164 C1162 1.391 . S
C1164 C1165 1.400 . S
C1165 C1159 1.491 . S
C1165 C1164 1.400 . S
C1165 C1166 1.398 . S
C1166 H1154 0.950 . S
C1166 C1165 1.398 . S
C1166 C1167 1.391 . S
C1167 H1155 0.950 . S
C1167 C1163 1.393 . S
C1167 C1166 1.391 . S
H1168 C1176 0.950 . S
H1169 C1181 0.950 . S
H1170 C1178 0.950 . S
H1171 C1180 0.950 . S
H1172 C1182 0.950 . S
H1173 C1184 0.950 . S
H1174 C1186 0.950 . S
H1175 C1187 0.950 . S
C1176 H1168 0.950 . S
C1176 C1177 1.386 . S
C1176 C1178 1.391 . S
C1177 C1176 1.386 . S
C1177 C1181 1.393 . S
C1178 H1170 0.950 . S
C1178 C1176 1.391 . S
C1178 C1179 1.400 . S
C1179 C1178 1.400 . S
C1179 C1180 1.398 . S
C1179 C1185 1.491 . S
C1180 H1171 0.950 . S
C1180 C1179 1.398 . S
C1180 C1181 1.391 . S
C1181 H1169 0.950 . S
C1181 C1177 1.393 . S
C1181 C1180 1.391 . S
C1182 H1172 0.950 . S
C1182 C1183 1.386 . S
C1182 C1184 1.391 . S
C1183 C1182 1.386 . S
C1183 C1187 1.393 . S
C1184 H1173 0.950 . S
C1184 C1182 1.391 . S
C1184 C1185 1.400 . S
C1185 C1179 1.491 . S
C1185 C1184 1.400 . S
C1185 C1186 1.398 . S
C1186 H1174 0.950 . S
C1186 C1185 1.398 . S
C1186 C1187 1.391 . S
C1187 H1175 0.950 . S
C1187 C1183 1.393 . S
C1187 C1186 1.391 . S
H1188 C1196 0.950 . S
H1189 C1201 0.950 1_655 S
H1190 C1198 0.950 . S
H1191 C1200 0.950 . S
H1192 C1202 0.950 . S
H1193 C1204 0.950 . S
H1194 C1206 0.950 . S
H1195 C1207 0.950 . S
C1196 H1188 0.950 . S
C1196 C1197 1.386 . S
C1196 C1198 1.391 . S
C1197 C1196 1.386 . S
C1197 C1201 1.393 . S
C1198 H1190 0.950 . S
C1198 C1196 1.391 . S
C1198 C1199 1.400 . S
C1199 C1198 1.400 . S
C1199 C1200 1.398 . S
C1199 C1205 1.491 . S
C1200 H1191 0.950 . S
C1200 C1199 1.398 . S
C1200 C1201 1.391 . S
C1201 H1189 0.950 1_455 S
C1201 C1197 1.393 . S
C1201 C1200 1.391 . S
C1202 H1192 0.950 . S
C1202 C1203 1.386 . S
C1202 C1204 1.391 . S
C1203 C1202 1.386 . S
C1203 C1207 1.393 . S
C1204 H1193 0.950 . S
C1204 C1202 1.391 . S
C1204 C1205 1.400 . S
C1205 C1199 1.491 . S
C1205 C1204 1.400 . S
C1205 C1206 1.398 . S
C1206 H1194 0.950 . S
C1206 C1205 1.398 . S
C1206 C1207 1.391 . S
C1207 H1195 0.950 . S
C1207 C1203 1.393 . S
C1207 C1206 1.391 . S
H1208 C1216 0.950 . S
H1209 C1221 0.950 . S
H1210 C1218 0.950 . S
H1211 C1220 0.950 . S
H1212 C1222 0.950 . S
H1213 C1224 0.950 . S
H1214 C1226 0.950 . S
H1215 C1227 0.950 . S
C1216 H1208 0.950 . S
C1216 C1217 1.386 . S
C1216 C1218 1.391 . S
C1217 C1216 1.386 . S
C1217 C1221 1.393 . S
C1218 H1210 0.950 . S
C1218 C1216 1.391 . S
C1218 C1219 1.400 . S
C1219 C1218 1.400 . S
C1219 C1220 1.398 . S
C1219 C1225 1.491 . S
C1220 H1211 0.950 . S
C1220 C1219 1.398 . S
C1220 C1221 1.391 . S
C1221 H1209 0.950 . S
C1221 C1217 1.393 . S
C1221 C1220 1.391 . S
C1222 H1212 0.950 . S
C1222 C1223 1.386 . S
C1222 C1224 1.391 . S
C1223 C1222 1.386 . S
C1223 C1227 1.393 . S
C1224 H1213 0.950 . S
C1224 C1222 1.391 . S
C1224 C1225 1.400 . S
C1225 C1219 1.491 . S
C1225 C1224 1.400 . S
C1225 C1226 1.398 . S
C1226 H1214 0.950 . S
C1226 C1225 1.398 . S
C1226 C1227 1.391 . S
C1227 H1215 0.950 . S
C1227 C1223 1.393 . S
C1227 C1226 1.391 . S
H1228 C1236 0.950 . S
H1229 C1241 0.950 . S
H1230 C1238 0.950 . S
H1231 C1240 0.950 . S
H1232 C1242 0.950 . S
H1233 C1244 0.950 . S
H1234 C1246 0.950 . S
H1235 C1247 0.950 . S
C1236 H1228 0.950 . S
C1236 C1237 1.386 . S
C1236 C1238 1.391 . S
C1237 C1236 1.386 . S
C1237 C1241 1.393 . S
C1238 H1230 0.950 . S
C1238 C1236 1.391 . S
C1238 C1239 1.400 . S
C1239 C1238 1.400 . S
C1239 C1240 1.398 . S
C1239 C1245 1.491 . S
C1240 H1231 0.950 . S
C1240 C1239 1.398 . S
C1240 C1241 1.391 . S
C1241 H1229 0.950 . S
C1241 C1237 1.393 . S
C1241 C1240 1.391 . S
C1242 H1232 0.950 . S
C1242 C1243 1.386 . S
C1242 C1244 1.391 . S
C1243 C1242 1.386 . S
C1243 C1247 1.393 . S
C1244 H1233 0.950 . S
C1244 C1242 1.391 . S
C1244 C1245 1.400 . S
C1245 C1239 1.491 . S
C1245 C1244 1.400 . S
C1245 C1246 1.398 . S
C1246 H1234 0.950 . S
C1246 C1245 1.398 . S
C1246 C1247 1.391 . S
C1247 H1235 0.950 . S
C1247 C1243 1.393 . S
C1247 C1246 1.391 . S
H1248 C1256 0.950 . S
H1249 C1261 0.950 . S
H1250 C1258 0.950 . S
H1251 C1260 0.950 . S
H1252 C1262 0.950 . S
H1253 C1264 0.950 . S
H1254 C1266 0.950 . S
H1255 C1267 0.950 . S
C1256 H1248 0.950 . S
C1256 C1257 1.386 . S
C1256 C1258 1.391 . S
C1257 C1256 1.386 . S
C1257 C1261 1.393 . S
C1258 H1250 0.950 . S
C1258 C1256 1.391 . S
C1258 C1259 1.400 . S
C1259 C1258 1.400 . S
C1259 C1260 1.398 . S
C1259 C1265 1.491 . S
C1260 H1251 0.950 . S
C1260 C1259 1.398 . S
C1260 C1261 1.391 . S
C1261 H1249 0.950 . S
C1261 C1257 1.393 . S
C1261 C1260 1.391 . S
C1262 H1252 0.950 . S
C1262 C1263 1.386 . S
C1262 C1264 1.391 . S
C1263 C1262 1.386 . S
C1263 C1267 1.393 . S
C1264 H1253 0.950 . S
C1264 C1262 1.391 . S
C1264 C1265 1.400 . S
C1265 C1259 1.491 . S
C1265 C1264 1.400 . S
C1265 C1266 1.398 . S
C1266 H1254 0.950 . S
C1266 C1265 1.398 . S
C1266 C1267 1.391 . S
C1267 H1255 0.950 . S
C1267 C1263 1.393 . S
C1267 C1266 1.391 . S
H1268 C1276 0.950 . S
H1269 C1281 0.950 . S
H1270 C1278 0.950 . S
H1271 C1280 0.950 . S
H1272 C1282 0.950 . S
H1273 C1284 0.950 . S
H1274 C1286 0.950 . S
H1275 C1287 0.950 . S
C1276 H1268 0.950 . S
C1276 C1277 1.386 . S
C1276 C1278 1.391 . S
C1277 C1276 1.386 . S
C1277 C1281 1.393 . S
C1278 H1270 0.950 . S
C1278 C1276 1.391 . S
C1278 C1279 1.400 . S
C1279 C1278 1.400 . S
C1279 C1280 1.398 . S
C1279 C1285 1.491 . S
C1280 H1271 0.950 . S
C1280 C1279 1.398 . S
C1280 C1281 1.391 . S
C1281 H1269 0.950 . S
C1281 C1277 1.393 . S
C1281 C1280 1.391 . S
C1282 H1272 0.950 . S
C1282 C1283 1.386 . S
C1282 C1284 1.391 . S
C1283 C1282 1.386 . S
C1283 C1287 1.393 . S
C1284 H1273 0.950 . S
C1284 C1282 1.391 . S
C1284 C1285 1.400 . S
C1285 C1279 1.491 . S
C1285 C1284 1.400 . S
C1285 C1286 1.398 . S
C1286 H1274 0.950 . S
C1286 C1285 1.398 . S
C1286 C1287 1.391 . S
C1287 H1275 0.950 . S
C1287 C1283 1.393 . S
C1287 C1286 1.391 . S
H1288 C1296 0.950 . S
H1289 C1301 0.950 . S
H1290 C1298 0.950 . S
H1291 C1300 0.950 . S
H1292 C1302 0.950 . S
H1293 C1304 0.950 . S
H1294 C1306 0.950 . S
H1295 C1307 0.950 . S
C1296 H1288 0.950 . S
C1296 C1297 1.386 . S
C1296 C1298 1.391 . S
C1297 C1296 1.386 . S
C1297 C1301 1.393 . S
C1298 H1290 0.950 . S
C1298 C1296 1.391 . S
C1298 C1299 1.400 . S
C1299 C1298 1.400 . S
C1299 C1300 1.398 . S
C1299 C1305 1.491 . S
C1300 H1291 0.950 . S
C1300 C1299 1.398 . S
C1300 C1301 1.391 . S
C1301 H1289 0.950 . S
C1301 C1297 1.393 . S
C1301 C1300 1.391 . S
C1302 H1292 0.950 . S
C1302 C1303 1.386 . S
C1302 C1304 1.391 . S
C1303 C1302 1.386 . S
C1303 C1307 1.393 . S
C1304 H1293 0.950 . S
C1304 C1302 1.391 . S
C1304 C1305 1.400 . S
C1305 C1299 1.491 . S
C1305 C1304 1.400 . S
C1305 C1306 1.398 . S
C1306 H1294 0.950 . S
C1306 C1305 1.398 . S
C1306 C1307 1.391 . S
C1307 H1295 0.950 . S
C1307 C1303 1.393 . S
C1307 C1306 1.391 . S
H1308 C1316 0.950 . S
H1309 C1321 0.950 . S
H1310 C1318 0.950 . S
H1311 C1320 0.950 . S
H1312 C1322 0.950 . S
H1313 C1324 0.950 . S
H1314 C1326 0.950 . S
H1315 C1327 0.950 . S
C1316 H1308 0.950 . S
C1316 C1317 1.386 . S
C1316 C1318 1.391 . S
C1317 C1316 1.386 . S
C1317 C1321 1.393 . S
C1318 H1310 0.950 . S
C1318 C1316 1.391 . S
C1318 C1319 1.400 . S
C1319 C1318 1.400 . S
C1319 C1320 1.398 . S
C1319 C1325 1.491 . S
C1320 H1311 0.950 . S
C1320 C1319 1.398 . S
C1320 C1321 1.391 . S
C1321 H1309 0.950 . S
C1321 C1317 1.393 . S
C1321 C1320 1.391 . S
C1322 H1312 0.950 . S
C1322 C1323 1.386 . S
C1322 C1324 1.391 . S
C1323 C1322 1.386 . S
C1323 C1327 1.393 . S
C1324 H1313 0.950 . S
C1324 C1322 1.391 . S
C1324 C1325 1.400 . S
C1325 C1319 1.491 . S
C1325 C1324 1.400 . S
C1325 C1326 1.398 . S
C1326 H1314 0.950 . S
C1326 C1325 1.398 . S
C1326 C1327 1.391 . S
C1327 H1315 0.950 . S
C1327 C1323 1.393 . S
C1327 C1326 1.391 . S
H1328 C1336 0.950 . S
H1329 C1341 0.950 . S
H1330 C1338 0.950 . S
H1331 C1340 0.950 . S
H1332 C1342 0.950 . S
H1333 C1344 0.950 . S
H1334 C1346 0.950 . S
H1335 C1347 0.950 . S
C1336 H1328 0.950 . S
C1336 C1337 1.386 . S
C1336 C1338 1.391 . S
C1337 C1336 1.386 . S
C1337 C1341 1.393 . S
C1338 H1330 0.950 . S
C1338 C1336 1.391 . S
C1338 C1339 1.400 . S
C1339 C1338 1.400 . S
C1339 C1340 1.398 . S
C1339 C1345 1.491 . S
C1340 H1331 0.950 . S
C1340 C1339 1.398 . S
C1340 C1341 1.391 . S
C1341 H1329 0.950 . S
C1341 C1337 1.393 . S
C1341 C1340 1.391 . S
C1342 H1332 0.950 . S
C1342 C1343 1.386 . S
C1342 C1344 1.391 . S
C1343 C1342 1.386 . S
C1343 C1347 1.393 . S
C1344 H1333 0.950 . S
C1344 C1342 1.391 . S
C1344 C1345 1.400 . S
C1345 C1339 1.491 . S
C1345 C1344 1.400 . S
C1345 C1346 1.398 . S
C1346 H1334 0.950 . S
C1346 C1345 1.398 . S
C1346 C1347 1.391 . S
C1347 H1335 0.950 . S
C1347 C1343 1.393 . S
C1347 C1346 1.391 . S
H1348 C1356 0.950 . S
H1349 C1361 0.950 . S
H1350 C1358 0.950 . S
H1351 C1360 0.950 . S
H1352 C1362 0.950 . S
H1353 C1364 0.950 . S
H1354 C1366 0.950 . S
H1355 C1367 0.950 . S
C1356 H1348 0.950 . S
C1356 C1357 1.386 . S
C1356 C1358 1.391 . S
C1357 C1356 1.386 . S
C1357 C1361 1.393 . S
C1358 H1350 0.950 . S
C1358 C1356 1.391 . S
C1358 C1359 1.400 . S
C1359 C1358 1.400 . S
C1359 C1360 1.398 . S
C1359 C1365 1.491 . S
C1360 H1351 0.950 . S
C1360 C1359 1.398 . S
C1360 C1361 1.391 . S
C1361 H1349 0.950 . S
C1361 C1357 1.393 . S
C1361 C1360 1.391 . S
C1362 H1352 0.950 . S
C1362 C1363 1.386 . S
C1362 C1364 1.391 . S
C1363 C1362 1.386 . S
C1363 C1367 1.393 . S
C1364 H1353 0.950 . S
C1364 C1362 1.391 . S
C1364 C1365 1.400 . S
C1365 C1359 1.491 . S
C1365 C1364 1.400 . S
C1365 C1366 1.398 . S
C1366 H1354 0.950 . S
C1366 C1365 1.398 . S
C1366 C1367 1.391 . S
C1367 H1355 0.950 . S
C1367 C1363 1.393 . S
C1367 C1366 1.391 . S
H1368 C1376 0.950 . S
H1369 C1381 0.950 . S
H1370 C1378 0.950 . S
H1371 C1380 0.950 . S
H1372 C1382 0.950 . S
H1373 C1384 0.950 . S
H1374 C1386 0.950 . S
H1375 C1387 0.950 . S
C1376 H1368 0.950 . S
C1376 C1377 1.386 . S
C1376 C1378 1.391 . S
C1377 C1376 1.386 . S
C1377 C1381 1.393 . S
C1378 H1370 0.950 . S
C1378 C1376 1.391 . S
C1378 C1379 1.400 . S
C1379 C1378 1.400 . S
C1379 C1380 1.398 . S
C1379 C1385 1.491 . S
C1380 H1371 0.950 . S
C1380 C1379 1.398 . S
C1380 C1381 1.391 . S
C1381 H1369 0.950 . S
C1381 C1377 1.393 . S
C1381 C1380 1.391 . S
C1382 H1372 0.950 . S
C1382 C1383 1.386 . S
C1382 C1384 1.391 . S
C1383 C1382 1.386 . S
C1383 C1387 1.393 . S
C1384 H1373 0.950 . S
C1384 C1382 1.391 . S
C1384 C1385 1.400 . S
C1385 C1379 1.491 . S
C1385 C1384 1.400 . S
C1385 C1386 1.398 . S
C1386 H1374 0.950 . S
C1386 C1385 1.398 . S
C1386 C1387 1.391 . S
C1387 H1375 0.950 . S
C1387 C1383 1.393 . S
C1387 C1386 1.391 . S
H1388 C1396 0.950 . S
H1389 C1401 0.950 . S
H1390 C1398 0.950 . S
H1391 C1400 0.950 . S
H1392 C1402 0.950 . S
H1393 C1404 0.950 . S
H1394 C1406 0.950 . S
H1395 C1407 0.950 . S
C1396 H1388 0.950 . S
C1396 C1397 1.386 . S
C1396 C1398 1.391 . S
C1397 C1396 1.386 . S
C1397 C1401 1.393 . S
C1398 H1390 0.950 . S
C1398 C1396 1.391 . S
C1398 C1399 1.400 . S
C1399 C1398 1.400 . S
C1399 C1400 1.398 . S
C1399 C1405 1.491 . S
C1400 H1391 0.950 . S
C1400 C1399 1.398 . S
C1400 C1401 1.391 . S
C1401 H1389 0.950 . S
C1401 C1397 1.393 . S
C1401 C1400 1.391 . S
C1402 H1392 0.950 . S
C1402 C1403 1.386 . S
C1402 C1404 1.391 . S
C1403 C1402 1.386 . S
C1403 C1407 1.393 . S
C1404 H1393 0.950 . S
C1404 C1402 1.391 . S
C1404 C1405 1.400 . S
C1405 C1399 1.491 . S
C1405 C1404 1.400 . S
C1405 C1406 1.398 . S
C1406 H1394 0.950 . S
C1406 C1405 1.398 . S
C1406 C1407 1.391 . S
C1407 H1395 0.950 . S
C1407 C1403 1.393 . S
C1407 C1406 1.391 . S
H1408 C1416 0.950 . S
H1409 C1421 0.950 . S
H1410 C1418 0.950 . S
H1411 C1420 0.950 . S
H1412 C1422 0.950 . S
H1413 C1424 0.950 . S
H1414 C1426 0.950 . S
H1415 C1427 0.950 . S
C1416 H1408 0.950 . S
C1416 C1417 1.386 . S
C1416 C1418 1.391 . S
C1417 C1416 1.386 . S
C1417 C1421 1.393 . S
C1418 H1410 0.950 . S
C1418 C1416 1.391 . S
C1418 C1419 1.400 . S
C1419 C1418 1.400 . S
C1419 C1420 1.398 . S
C1419 C1425 1.491 . S
C1420 H1411 0.950 . S
C1420 C1419 1.398 . S
C1420 C1421 1.391 . S
C1421 H1409 0.950 . S
C1421 C1417 1.393 . S
C1421 C1420 1.391 . S
C1422 H1412 0.950 . S
C1422 C1423 1.386 . S
C1422 C1424 1.391 . S
C1423 C1422 1.386 . S
C1423 C1427 1.393 . S
C1424 H1413 0.950 . S
C1424 C1422 1.391 . S
C1424 C1425 1.400 . S
C1425 C1419 1.491 . S
C1425 C1424 1.400 . S
C1425 C1426 1.398 . S
C1426 H1414 0.950 . S
C1426 C1425 1.398 . S
C1426 C1427 1.391 . S
C1427 H1415 0.950 . S
C1427 C1423 1.393 . S
C1427 C1426 1.391 . S
H1428 C1436 0.950 . S
H1429 C1441 0.950 . S
H1430 C1438 0.950 . S
H1431 C1440 0.950 . S
H1432 C1442 0.950 . S
H1433 C1444 0.950 . S
H1434 C1446 0.950 . S
H1435 C1447 0.950 . S
C1436 H1428 0.950 . S
C1436 C1437 1.386 . S
C1436 C1438 1.391 . S
C1437 C1436 1.386 . S
C1437 C1441 1.393 . S
C1438 H1430 0.950 . S
C1438 C1436 1.391 . S
C1438 C1439 1.400 . S
C1439 C1438 1.400 . S
C1439 C1440 1.398 . S
C1439 C1445 1.491 . S
C1440 H1431 0.950 . S
C1440 C1439 1.398 . S
C1440 C1441 1.391 . S
C1441 H1429 0.950 . S
C1441 C1437 1.393 . S
C1441 C1440 1.391 . S
C1442 H1432 0.950 . S
C1442 C1443 1.386 . S
C1442 C1444 1.391 . S
C1443 C1442 1.386 . S
C1443 C1447 1.393 . S
C1444 H1433 0.950 . S
C1444 C1442 1.391 . S
C1444 C1445 1.400 . S
C1445 C1439 1.491 . S
C1445 C1444 1.400 . S
C1445 C1446 1.398 . S
C1446 H1434 0.950 . S
C1446 C1445 1.398 . S
C1446 C1447 1.391 . S
C1447 H1435 0.950 . S
C1447 C1443 1.393 . S
C1447 C1446 1.391 . S
H1448 C1456 0.950 . S
H1449 C1461 0.950 . S
H1450 C1458 0.950 . S
H1451 C1460 0.950 . S
H1452 C1462 0.950 . S
H1453 C1464 0.950 . S
H1454 C1466 0.950 . S
H1455 C1467 0.950 . S
C1456 H1448 0.950 . S
C1456 C1457 1.386 . S
C1456 C1458 1.391 . S
C1457 C1456 1.386 . S
C1457 C1461 1.393 . S
C1458 H1450 0.950 . S
C1458 C1456 1.391 . S
C1458 C1459 1.400 . S
C1459 C1458 1.400 . S
C1459 C1460 1.398 . S
C1459 C1465 1.491 . S
C1460 H1451 0.950 . S
C1460 C1459 1.398 . S
C1460 C1461 1.391 . S
C1461 H1449 0.950 . S
C1461 C1457 1.393 . S
C1461 C1460 1.391 . S
C1462 H1452 0.950 . S
C1462 C1463 1.386 . S
C1462 C1464 1.391 . S
C1463 C1462 1.386 . S
C1463 C1467 1.393 . S
C1464 H1453 0.950 . S
C1464 C1462 1.391 . S
C1464 C1465 1.400 . S
C1465 C1459 1.491 . S
C1465 C1464 1.400 . S
C1465 C1466 1.398 . S
C1466 H1454 0.950 . S
C1466 C1465 1.398 . S
C1466 C1467 1.391 . S
C1467 H1455 0.950 . S
C1467 C1463 1.393 . S
C1467 C1466 1.391 . S
H1468 C1476 0.950 . S
H1469 C1481 0.950 . S
H1470 C1478 0.950 . S
H1471 C1480 0.950 . S
H1472 C1482 0.950 . S
H1473 C1484 0.950 . S
H1474 C1486 0.950 . S
H1475 C1487 0.950 . S
C1476 H1468 0.950 . S
C1476 C1477 1.386 . S
C1476 C1478 1.391 . S
C1477 C1476 1.386 . S
C1477 C1481 1.393 . S
C1478 H1470 0.950 . S
C1478 C1476 1.391 . S
C1478 C1479 1.400 . S
C1479 C1478 1.400 . S
C1479 C1480 1.398 . S
C1479 C1485 1.491 . S
C1480 H1471 0.950 . S
C1480 C1479 1.398 . S
C1480 C1481 1.391 . S
C1481 H1469 0.950 . S
C1481 C1477 1.393 . S
C1481 C1480 1.391 . S
C1482 H1472 0.950 . S
C1482 C1483 1.386 . S
C1482 C1484 1.391 . S
C1483 C1482 1.386 . S
C1483 C1487 1.393 . S
C1484 H1473 0.950 . S
C1484 C1482 1.391 . S
C1484 C1485 1.400 . S
C1485 C1479 1.491 . S
C1485 C1484 1.400 . S
C1485 C1486 1.398 . S
C1486 H1474 0.950 . S
C1486 C1485 1.398 . S
C1486 C1487 1.391 . S
C1487 H1475 0.950 . S
C1487 C1483 1.393 . S
C1487 C1486 1.391 . S
H1488 C1496 0.950 . S
H1489 C1501 0.950 . S
H1490 C1498 0.950 . S
H1491 C1500 0.950 . S
H1492 C1502 0.950 . S
H1493 C1504 0.950 . S
H1494 C1506 0.950 . S
H1495 C1507 0.950 . S
C1496 H1488 0.950 . S
C1496 C1497 1.386 . S
C1496 C1498 1.391 . S
C1497 C1496 1.386 . S
C1497 C1501 1.393 . S
C1498 H1490 0.950 . S
C1498 C1496 1.391 . S
C1498 C1499 1.400 . S
C1499 C1498 1.400 . S
C1499 C1500 1.398 . S
C1499 C1505 1.491 . S
C1500 H1491 0.950 . S
C1500 C1499 1.398 . S
C1500 C1501 1.391 . S
C1501 H1489 0.950 . S
C1501 C1497 1.393 . S
C1501 C1500 1.391 . S
C1502 H1492 0.950 . S
C1502 C1503 1.386 . S
C1502 C1504 1.391 . S
C1503 C1502 1.386 . S
C1503 C1507 1.393 . S
C1504 H1493 0.950 . S
C1504 C1502 1.391 . S
C1504 C1505 1.400 . S
C1505 C1499 1.491 . S
C1505 C1504 1.400 . S
C1505 C1506 1.398 . S
C1506 H1494 0.950 . S
C1506 C1505 1.398 . S
C1506 C1507 1.391 . S
C1507 H1495 0.950 . S
C1507 C1503 1.393 . S
C1507 C1506 1.391 . S
H1508 C1516 0.950 . S
H1509 C1521 0.950 . S
H1510 C1518 0.950 . S
H1511 C1520 0.950 . S
H1512 C1522 0.950 . S
H1513 C1524 0.950 . S
H1514 C1526 0.950 . S
H1515 C1527 0.950 . S
C1516 H1508 0.950 . S
C1516 C1517 1.386 . S
C1516 C1518 1.391 . S
C1517 C1516 1.386 . S
C1517 C1521 1.393 . S
C1518 H1510 0.950 . S
C1518 C1516 1.391 . S
C1518 C1519 1.400 . S
C1519 C1518 1.400 . S
C1519 C1520 1.398 . S
C1519 C1525 1.491 . S
C1520 H1511 0.950 . S
C1520 C1519 1.398 . S
C1520 C1521 1.391 . S
C1521 H1509 0.950 . S
C1521 C1517 1.393 . S
C1521 C1520 1.391 . S
C1522 H1512 0.950 . S
C1522 C1523 1.386 . S
C1522 C1524 1.391 . S
C1523 C1522 1.386 . S
C1523 C1527 1.393 . S
C1524 H1513 0.950 . S
C1524 C1522 1.391 . S
C1524 C1525 1.400 . S
C1525 C1519 1.491 . S
C1525 C1524 1.400 . S
C1525 C1526 1.398 . S
C1526 H1514 0.950 . S
C1526 C1525 1.398 . S
C1526 C1527 1.391 . S
C1527 H1515 0.950 . S
C1527 C1523 1.393 . S
C1527 C1526 1.391 . S
H1528 C1536 0.950 . S
H1529 C1541 0.950 . S
H1530 C1538 0.950 . S
H1531 C1540 0.950 . S
H1532 C1542 0.950 . S
H1533 C1544 0.950 . S
H1534 C1546 0.950 . S
H1535 C1547 0.950 . S
C1536 H1528 0.950 . S
C1536 C1537 1.386 . S
C1536 C1538 1.391 . S
C1537 C1536 1.386 . S
C1537 C1541 1.393 . S
C1538 H1530 0.950 . S
C1538 C1536 1.391 . S
C1538 C1539 1.400 . S
C1539 C1538 1.400 . S
C1539 C1540 1.398 . S
C1539 C1545 1.491 . S
C1540 H1531 0.950 . S
C1540 C1539 1.398 . S
C1540 C1541 1.391 . S
C1541 H1529 0.950 . S
C1541 C1537 1.393 . S
C1541 C1540 1.391 . S
C1542 H1532 0.950 . S
C1542 C1543 1.386 . S
C1542 C1544 1.391 . S
C1543 C1542 1.386 . S
C1543 C1547 1.393 . S
C1544 H1533 0.950 . S
C1544 C1542 1.391 . S
C1544 C1545 1.400 . S
C1545 C1539 1.491 . S
C1545 C1544 1.400 . S
C1545 C1546 1.398 . S
C1546 H1534 0.950 . S
C1546 C1545 1.398 . S
C1546 C1547 1.391 . S
C1547 H1535 0.950 . S
C1547 C1543 1.393 . S
C1547 C1546 1.391 . S
H1548 C1556 0.950 . S
H1549 C1561 0.950 . S
H1550 C1558 0.950 . S
H1551 C1560 0.950 . S
H1552 C1562 0.950 . S
H1553 C1564 0.950 . S
H1554 C1566 0.950 . S
H1555 C1567 0.950 . S
C1556 H1548 0.950 . S
C1556 C1557 1.386 . S
C1556 C1558 1.391 . S
C1557 C1556 1.386 . S
C1557 C1561 1.393 . S
C1558 H1550 0.950 . S
C1558 C1556 1.391 . S
C1558 C1559 1.400 . S
C1559 C1558 1.400 . S
C1559 C1560 1.398 . S
C1559 C1565 1.491 . S
C1560 H1551 0.950 . S
C1560 C1559 1.398 . S
C1560 C1561 1.391 . S
C1561 H1549 0.950 . S
C1561 C1557 1.393 . S
C1561 C1560 1.391 . S
C1562 H1552 0.950 . S
C1562 C1563 1.386 . S
C1562 C1564 1.391 . S
C1563 C1562 1.386 . S
C1563 C1567 1.393 . S
C1564 H1553 0.950 . S
C1564 C1562 1.391 . S
C1564 C1565 1.400 . S
C1565 C1559 1.491 . S
C1565 C1564 1.400 . S
C1565 C1566 1.398 . S
C1566 H1554 0.950 . S
C1566 C1565 1.398 . S
C1566 C1567 1.391 . S
C1567 H1555 0.950 . S
C1567 C1563 1.393 . S
C1567 C1566 1.391 . S
H1568 C1576 0.950 . S
H1569 C1581 0.950 . S
H1570 C1578 0.950 . S
H1571 C1580 0.950 . S
H1572 C1582 0.950 . S
H1573 C1584 0.950 . S
H1574 C1586 0.950 . S
H1575 C1587 0.950 . S
C1576 H1568 0.950 . S
C1576 C1577 1.386 . S
C1576 C1578 1.391 . S
C1577 C1576 1.386 . S
C1577 C1581 1.393 . S
C1578 H1570 0.950 . S
C1578 C1576 1.391 . S
C1578 C1579 1.400 . S
C1579 C1578 1.400 . S
C1579 C1580 1.398 . S
C1579 C1585 1.491 . S
C1580 H1571 0.950 . S
C1580 C1579 1.398 . S
C1580 C1581 1.391 . S
C1581 H1569 0.950 . S
C1581 C1577 1.393 . S
C1581 C1580 1.391 . S
C1582 H1572 0.950 . S
C1582 C1583 1.386 . S
C1582 C1584 1.391 . S
C1583 C1582 1.386 . S
C1583 C1587 1.393 . S
C1584 H1573 0.950 . S
C1584 C1582 1.391 . S
C1584 C1585 1.400 . S
C1585 C1579 1.491 . S
C1585 C1584 1.400 . S
C1585 C1586 1.398 . S
C1586 H1574 0.950 . S
C1586 C1585 1.398 . S
C1586 C1587 1.391 . S
C1587 H1575 0.950 . S
C1587 C1583 1.393 . S
C1587 C1586 1.391 . S
H1588 C1596 0.950 . S
H1589 C1601 0.950 . S
H1590 C1598 0.950 . S
H1591 C1600 0.950 . S
H1592 C1602 0.950 . S
H1593 C1604 0.950 . S
H1594 C1606 0.950 . S
H1595 C1607 0.950 . S
C1596 H1588 0.950 . S
C1596 C1597 1.386 . S
C1596 C1598 1.391 . S
C1597 C1596 1.386 . S
C1597 C1601 1.393 . S
C1598 H1590 0.950 . S
C1598 C1596 1.391 . S
C1598 C1599 1.400 . S
C1599 C1598 1.400 . S
C1599 C1600 1.398 . S
C1599 C1605 1.491 . S
C1600 H1591 0.950 . S
C1600 C1599 1.398 . S
C1600 C1601 1.391 . S
C1601 H1589 0.950 . S
C1601 C1597 1.393 . S
C1601 C1600 1.391 . S
C1602 H1592 0.950 . S
C1602 C1603 1.386 . S
C1602 C1604 1.391 . S
C1603 C1602 1.386 . S
C1603 C1607 1.393 . S
C1604 H1593 0.950 . S
C1604 C1602 1.391 . S
C1604 C1605 1.400 . S
C1605 C1599 1.491 . S
C1605 C1604 1.400 . S
C1605 C1606 1.398 . S
C1606 H1594 0.950 . S
C1606 C1605 1.398 . S
C1606 C1607 1.391 . S
C1607 H1595 0.950 . S
C1607 C1603 1.393 . S
C1607 C1606 1.391 . S
H1608 C1616 0.950 . S
H1609 C1621 0.950 . S
H1610 C1618 0.950 . S
H1611 C1620 0.950 . S
H1612 C1622 0.950 . S
H1613 C1624 0.950 . S
H1614 C1626 0.950 . S
H1615 C1627 0.950 . S
C1616 H1608 0.950 . S
C1616 C1617 1.386 . S
C1616 C1618 1.391 . S
C1617 C1616 1.386 . S
C1617 C1621 1.393 . S
C1618 H1610 0.950 . S
C1618 C1616 1.391 . S
C1618 C1619 1.400 . S
C1619 C1618 1.400 . S
C1619 C1620 1.398 . S
C1619 C1625 1.491 . S
C1620 H1611 0.950 . S
C1620 C1619 1.398 . S
C1620 C1621 1.391 . S
C1621 H1609 0.950 . S
C1621 C1617 1.393 . S
C1621 C1620 1.391 . S
C1622 H1612 0.950 . S
C1622 C1623 1.386 . S
C1622 C1624 1.391 . S
C1623 C1622 1.386 . S
C1623 C1627 1.393 . S
C1624 H1613 0.950 . S
C1624 C1622 1.391 . S
C1624 C1625 1.400 . S
C1625 C1619 1.491 . S
C1625 C1624 1.400 . S
C1625 C1626 1.398 . S
C1626 H1614 0.950 . S
C1626 C1625 1.398 . S
C1626 C1627 1.391 . S
C1627 H1615 0.950 . S
C1627 C1623 1.393 . S
C1627 C1626 1.391 . S
H1628 C1636 0.950 . S
H1629 C1641 0.950 . S
H1630 C1638 0.950 . S
H1631 C1640 0.950 . S
H1632 C1642 0.950 . S
H1633 C1644 0.950 . S
H1634 C1646 0.950 . S
H1635 C1647 0.950 . S
C1636 H1628 0.950 . S
C1636 C1637 1.386 . S
C1636 C1638 1.391 . S
C1637 C1636 1.386 . S
C1637 C1641 1.393 . S
C1638 H1630 0.950 . S
C1638 C1636 1.391 . S
C1638 C1639 1.400 . S
C1639 C1638 1.400 . S
C1639 C1640 1.398 . S
C1639 C1645 1.491 . S
C1640 H1631 0.950 . S
C1640 C1639 1.398 . S
C1640 C1641 1.391 . S
C1641 H1629 0.950 . S
C1641 C1637 1.393 . S
C1641 C1640 1.391 . S
C1642 H1632 0.950 . S
C1642 C1643 1.386 . S
C1642 C1644 1.391 . S
C1643 C1642 1.386 . S
C1643 C1647 1.393 . S
C1644 H1633 0.950 . S
C1644 C1642 1.391 . S
C1644 C1645 1.400 . S
C1645 C1639 1.491 . S
C1645 C1644 1.400 . S
C1645 C1646 1.398 . S
C1646 H1634 0.950 . S
C1646 C1645 1.398 . S
C1646 C1647 1.391 . S
C1647 H1635 0.950 . S
C1647 C1643 1.393 . S
C1647 C1646 1.391 . S
H1648 C1656 0.950 . S
H1649 C1661 0.950 . S
H1650 C1658 0.950 . S
H1651 C1660 0.950 . S
H1652 C1662 0.950 . S
H1653 C1664 0.950 . S
H1654 C1666 0.950 . S
H1655 C1667 0.950 . S
C1656 H1648 0.950 . S
C1656 C1657 1.386 . S
C1656 C1658 1.391 . S
C1657 C1656 1.386 . S
C1657 C1661 1.393 . S
C1658 H1650 0.950 . S
C1658 C1656 1.391 . S
C1658 C1659 1.400 . S
C1659 C1658 1.400 . S
C1659 C1660 1.398 . S
C1659 C1665 1.491 . S
C1660 H1651 0.950 . S
C1660 C1659 1.398 . S
C1660 C1661 1.391 . S
C1661 H1649 0.950 . S
C1661 C1657 1.393 . S
C1661 C1660 1.391 . S
C1662 H1652 0.950 . S
C1662 C1663 1.386 . S
C1662 C1664 1.391 . S
C1663 C1662 1.386 . S
C1663 C1667 1.393 . S
C1664 H1653 0.950 . S
C1664 C1662 1.391 . S
C1664 C1665 1.400 . S
C1665 C1659 1.491 . S
C1665 C1664 1.400 . S
C1665 C1666 1.398 . S
C1666 H1654 0.950 . S
C1666 C1665 1.398 . S
C1666 C1667 1.391 . S
C1667 H1655 0.950 . S
C1667 C1663 1.393 . S
C1667 C1666 1.391 . S
H1668 C1676 0.950 . S
H1669 C1681 0.950 . S
H1670 C1678 0.950 . S
H1671 C1680 0.950 . S
H1672 C1682 0.950 . S
H1673 C1684 0.950 . S
H1674 C1686 0.950 . S
H1675 C1687 0.950 . S
C1676 H1668 0.950 . S
C1676 C1677 1.386 . S
C1676 C1678 1.391 . S
C1677 C1676 1.386 . S
C1677 C1681 1.393 . S
C1678 H1670 0.950 . S
C1678 C1676 1.391 . S
C1678 C1679 1.400 . S
C1679 C1678 1.400 . S
C1679 C1680 1.398 . S
C1679 C1685 1.491 . S
C1680 H1671 0.950 . S
C1680 C1679 1.398 . S
C1680 C1681 1.391 . S
C1681 H1669 0.950 . S
C1681 C1677 1.393 . S
C1681 C1680 1.391 . S
C1682 H1672 0.950 . S
C1682 C1683 1.386 . S
C1682 C1684 1.391 . S
C1683 C1682 1.386 . S
C1683 C1687 1.393 . S
C1684 H1673 0.950 . S
C1684 C1682 1.391 . S
C1684 C1685 1.400 . S
C1685 C1679 1.491 . S
C1685 C1684 1.400 . S
C1685 C1686 1.398 . S
C1686 H1674 0.950 . S
C1686 C1685 1.398 . S
C1686 C1687 1.391 . S
C1687 H1675 0.950 . S
C1687 C1683 1.393 . S
C1687 C1686 1.391 . S
H1688 C1696 0.950 . S
H1689 C1701 0.950 . S
H1690 C1698 0.950 . S
H1691 C1700 0.950 . S
H1692 C1702 0.950 . S
H1693 C1704 0.950 . S
H1694 C1706 0.950 . S
H1695 C1707 0.950 . S
C1696 H1688 0.950 . S
C1696 C1697 1.386 . S
C1696 C1698 1.391 . S
C1697 C1696 1.386 . S
C1697 C1701 1.393 . S
C1698 H1690 0.950 . S
C1698 C1696 1.391 . S
C1698 C1699 1.400 . S
C1699 C1698 1.400 . S
C1699 C1700 1.398 . S
C1699 C1705 1.491 . S
C1700 H1691 0.950 . S
C1700 C1699 1.398 . S
C1700 C1701 1.391 . S
C1701 H1689 0.950 . S
C1701 C1697 1.393 . S
C1701 C1700 1.391 . S
C1702 H1692 0.950 . S
C1702 C1703 1.386 . S
C1702 C1704 1.391 . S
C1703 C1702 1.386 . S
C1703 C1707 1.393 . S
C1704 H1693 0.950 . S
C1704 C1702 1.391 . S
C1704 C1705 1.400 . S
C1705 C1699 1.491 . S
C1705 C1704 1.400 . S
C1705 C1706 1.398 . S
C1706 H1694 0.950 . S
C1706 C1705 1.398 . S
C1706 C1707 1.391 . S
C1707 H1695 0.950 . S
C1707 C1703 1.393 . S
C1707 C1706 1.391 . S
H1708 C1716 0.950 . S
H1709 C1721 0.950 . S
H1710 C1718 0.950 . S
H1711 C1720 0.950 . S
H1712 C1722 0.950 . S
H1713 C1724 0.950 . S
H1714 C1726 0.950 . S
H1715 C1727 0.950 . S
C1716 H1708 0.950 . S
C1716 C1717 1.386 . S
C1716 C1718 1.391 . S
C1717 C1716 1.386 . S
C1717 C1721 1.393 . S
C1718 H1710 0.950 . S
C1718 C1716 1.391 . S
C1718 C1719 1.400 . S
C1719 C1718 1.400 . S
C1719 C1720 1.398 . S
C1719 C1725 1.491 . S
C1720 H1711 0.950 . S
C1720 C1719 1.398 . S
C1720 C1721 1.391 . S
C1721 H1709 0.950 . S
C1721 C1717 1.393 . S
C1721 C1720 1.391 . S
C1722 H1712 0.950 . S
C1722 C1723 1.386 . S
C1722 C1724 1.391 . S
C1723 C1722 1.386 . S
C1723 C1727 1.393 . S
C1724 H1713 0.950 . S
C1724 C1722 1.391 . S
C1724 C1725 1.400 . S
C1725 C1719 1.491 . S
C1725 C1724 1.400 . S
C1725 C1726 1.398 . S
C1726 H1714 0.950 . S
C1726 C1725 1.398 . S
C1726 C1727 1.391 . S
C1727 H1715 0.950 . S
C1727 C1723 1.393 . S
C1727 C1726 1.391 . S
H1728 C1736 0.950 . S
H1729 C1741 0.950 . S
H1730 C1738 0.950 . S
H1731 C1740 0.950 . S
H1732 C1742 0.950 1_556 S
H1733 C1744 0.950 . S
H1734 C1746 0.950 . S
H1735 C1747 0.950 . S
C1736 H1728 0.950 . S
C1736 C1737 1.386 . S
C1736 C1738 1.391 . S
C1737 C1736 1.386 . S
C1737 C1741 1.393 . S
C1738 H1730 0.950 . S
C1738 C1736 1.391 . S
C1738 C1739 1.400 . S
C1739 C1738 1.400 . S
C1739 C1740 1.398 . S
C1739 C1745 1.491 . S
C1740 H1731 0.950 . S
C1740 C1739 1.398 . S
C1740 C1741 1.391 . S
C1741 H1729 0.950 . S
C1741 C1737 1.393 . S
C1741 C1740 1.391 . S
C1742 H1732 0.950 1_554 S
C1742 C1743 1.386 . S
C1742 C1744 1.391 . S
C1743 C1742 1.386 . S
C1743 C1747 1.393 . S
C1744 H1733 0.950 . S
C1744 C1742 1.391 . S
C1744 C1745 1.400 . S
C1745 C1739 1.491 . S
C1745 C1744 1.400 . S
C1745 C1746 1.398 . S
C1746 H1734 0.950 . S
C1746 C1745 1.398 . S
C1746 C1747 1.391 . S
C1747 H1735 0.950 . S
C1747 C1743 1.393 . S
C1747 C1746 1.391 . S
H1748 C1756 0.950 . S
H1749 C1761 0.950 . S
H1750 C1758 0.950 . S
H1751 C1760 0.950 . S
H1752 C1762 0.950 . S
H1753 C1764 0.950 . S
H1754 C1766 0.950 . S
H1755 C1767 0.950 . S
C1756 H1748 0.950 . S
C1756 C1757 1.386 . S
C1756 C1758 1.391 . S
C1757 C1756 1.386 . S
C1757 C1761 1.393 . S
C1758 H1750 0.950 . S
C1758 C1756 1.391 . S
C1758 C1759 1.400 . S
C1759 C1758 1.400 . S
C1759 C1760 1.398 . S
C1759 C1765 1.491 . S
C1760 H1751 0.950 . S
C1760 C1759 1.398 . S
C1760 C1761 1.391 . S
C1761 H1749 0.950 . S
C1761 C1757 1.393 . S
C1761 C1760 1.391 . S
C1762 H1752 0.950 . S
C1762 C1763 1.386 . S
C1762 C1764 1.391 . S
C1763 C1762 1.386 . S
C1763 C1767 1.393 . S
C1764 H1753 0.950 . S
C1764 C1762 1.391 . S
C1764 C1765 1.400 . S
C1765 C1759 1.491 . S
C1765 C1764 1.400 . S
C1765 C1766 1.398 . S
C1766 H1754 0.950 . S
C1766 C1765 1.398 . S
C1766 C1767 1.391 . S
C1767 H1755 0.950 . S
C1767 C1763 1.393 . S
C1767 C1766 1.391 . S
H1768 C1776 0.950 . S
H1769 C1781 0.950 . S
H1770 C1778 0.950 . S
H1771 C1780 0.950 . S
H1772 C1782 0.950 . S
H1773 C1784 0.950 . S
H1774 C1786 0.950 . S
H1775 C1787 0.950 . S
C1776 H1768 0.950 . S
C1776 C1777 1.386 . S
C1776 C1778 1.391 . S
C1777 C1776 1.386 . S
C1777 C1781 1.393 . S
C1778 H1770 0.950 . S
C1778 C1776 1.391 . S
C1778 C1779 1.400 . S
C1779 C1778 1.400 . S
C1779 C1780 1.398 . S
C1779 C1785 1.491 . S
C1780 H1771 0.950 . S
C1780 C1779 1.398 . S
C1780 C1781 1.391 . S
C1781 H1769 0.950 . S
C1781 C1777 1.393 . S
C1781 C1780 1.391 . S
C1782 H1772 0.950 . S
C1782 C1783 1.386 . S
C1782 C1784 1.391 . S
C1783 C1782 1.386 . S
C1783 C1787 1.393 . S
C1784 H1773 0.950 . S
C1784 C1782 1.391 . S
C1784 C1785 1.400 . S
C1785 C1779 1.491 . S
C1785 C1784 1.400 . S
C1785 C1786 1.398 . S
C1786 H1774 0.950 . S
C1786 C1785 1.398 . S
C1786 C1787 1.391 . S
C1787 H1775 0.950 . S
C1787 C1783 1.393 . S
C1787 C1786 1.391 . S
H1788 C1796 0.950 . S
H1789 C1801 0.950 . S
H1790 C1798 0.950 . S
H1791 C1800 0.950 . S
H1792 C1802 0.950 . S
H1793 C1804 0.950 . S
H1794 C1806 0.950 . S
H1795 C1807 0.950 . S
C1796 H1788 0.950 . S
C1796 C1797 1.386 . S
C1796 C1798 1.391 . S
C1797 C1796 1.386 . S
C1797 C1801 1.393 . S
C1798 H1790 0.950 . S
C1798 C1796 1.391 . S
C1798 C1799 1.400 . S
C1799 C1798 1.400 . S
C1799 C1800 1.398 . S
C1799 C1805 1.491 . S
C1800 H1791 0.950 . S
C1800 C1799 1.398 . S
C1800 C1801 1.391 . S
C1801 H1789 0.950 . S
C1801 C1797 1.393 . S
C1801 C1800 1.391 . S
C1802 H1792 0.950 . S
C1802 C1803 1.386 . S
C1802 C1804 1.391 . S
C1803 C1802 1.386 . S
C1803 C1807 1.393 . S
C1804 H1793 0.950 . S
C1804 C1802 1.391 . S
C1804 C1805 1.400 . S
C1805 C1799 1.491 . S
C1805 C1804 1.400 . S
C1805 C1806 1.398 . S
C1806 H1794 0.950 . S
C1806 C1805 1.398 . S
C1806 C1807 1.391 . S
C1807 H1795 0.950 . S
C1807 C1803 1.393 . S
C1807 C1806 1.391 . S
H1808 C1816 0.950 . S
H1809 C1821 0.950 . S
H1810 C1818 0.950 . S
H1811 C1820 0.950 . S
H1812 C1822 0.950 . S
H1813 C1824 0.950 . S
H1814 C1826 0.950 . S
H1815 C1827 0.950 1_655 S
C1816 H1808 0.950 . S
C1816 C1817 1.386 . S
C1816 C1818 1.391 . S
C1817 C1816 1.386 . S
C1817 C1821 1.393 . S
C1818 H1810 0.950 . S
C1818 C1816 1.391 . S
C1818 C1819 1.400 . S
C1819 C1818 1.400 . S
C1819 C1820 1.398 . S
C1819 C1825 1.491 . S
C1820 H1811 0.950 . S
C1820 C1819 1.398 . S
C1820 C1821 1.391 . S
C1821 H1809 0.950 . S
C1821 C1817 1.393 . S
C1821 C1820 1.391 . S
C1822 H1812 0.950 . S
C1822 C1823 1.386 . S
C1822 C1824 1.391 . S
C1823 C1822 1.386 . S
C1823 C1827 1.393 . S
C1824 H1813 0.950 . S
C1824 C1822 1.391 . S
C1824 C1825 1.400 . S
C1825 C1819 1.491 . S
C1825 C1824 1.400 . S
C1825 C1826 1.398 . S
C1826 H1814 0.950 . S
C1826 C1825 1.398 . S
C1826 C1827 1.391 . S
C1827 H1815 0.950 1_455 S
C1827 C1823 1.393 . S
C1827 C1826 1.391 . S
H1828 C1836 0.950 . S
H1829 C1841 0.950 . S
H1830 C1838 0.950 . S
H1831 C1840 0.950 . S
H1832 C1842 0.950 . S
H1833 C1844 0.950 . S
H1834 C1846 0.950 . S
H1835 C1847 0.950 . S
C1836 H1828 0.950 . S
C1836 C1837 1.386 . S
C1836 C1838 1.391 . S
C1837 C1836 1.386 . S
C1837 C1841 1.393 . S
C1838 H1830 0.950 . S
C1838 C1836 1.391 . S
C1838 C1839 1.400 . S
C1839 C1838 1.400 . S
C1839 C1840 1.398 . S
C1839 C1845 1.491 . S
C1840 H1831 0.950 . S
C1840 C1839 1.398 . S
C1840 C1841 1.391 . S
C1841 H1829 0.950 . S
C1841 C1837 1.393 . S
C1841 C1840 1.391 . S
C1842 H1832 0.950 . S
C1842 C1843 1.386 . S
C1842 C1844 1.391 . S
C1843 C1842 1.386 . S
C1843 C1847 1.393 . S
C1844 H1833 0.950 . S
C1844 C1842 1.391 . S
C1844 C1845 1.400 . S
C1845 C1839 1.491 . S
C1845 C1844 1.400 . S
C1845 C1846 1.398 . S
C1846 H1834 0.950 . S
C1846 C1845 1.398 . S
C1846 C1847 1.391 . S
C1847 H1835 0.950 . S
C1847 C1843 1.393 . S
C1847 C1846 1.391 . S
H1848 C1856 0.950 . S
H1849 C1861 0.950 . S
H1850 C1858 0.950 . S
H1851 C1860 0.950 . S
H1852 C1862 0.950 . S
H1853 C1864 0.950 . S
H1854 C1866 0.950 . S
H1855 C1867 0.950 . S
C1856 H1848 0.950 . S
C1856 C1857 1.386 . S
C1856 C1858 1.391 . S
C1857 C1856 1.386 . S
C1857 C1861 1.393 . S
C1858 H1850 0.950 . S
C1858 C1856 1.391 . S
C1858 C1859 1.400 . S
C1859 C1858 1.400 . S
C1859 C1860 1.398 . S
C1859 C1865 1.491 . S
C1860 H1851 0.950 . S
C1860 C1859 1.398 . S
C1860 C1861 1.391 . S
C1861 H1849 0.950 . S
C1861 C1857 1.393 . S
C1861 C1860 1.391 . S
C1862 H1852 0.950 . S
C1862 C1863 1.386 . S
C1862 C1864 1.391 . S
C1863 C1862 1.386 . S
C1863 C1867 1.393 . S
C1864 H1853 0.950 . S
C1864 C1862 1.391 . S
C1864 C1865 1.400 . S
C1865 C1859 1.491 . S
C1865 C1864 1.400 . S
C1865 C1866 1.398 . S
C1866 H1854 0.950 . S
C1866 C1865 1.398 . S
C1866 C1867 1.391 . S
C1867 H1855 0.950 . S
C1867 C1863 1.393 . S
C1867 C1866 1.391 . S
H1868 C1876 0.950 . S
H1869 C1881 0.950 1_455 S
H1870 C1878 0.950 . S
H1871 C1880 0.950 . S
H1872 C1882 0.950 . S
H1873 C1884 0.950 . S
H1874 C1886 0.950 . S
H1875 C1887 0.950 . S
C1876 H1868 0.950 . S
C1876 C1877 1.386 . S
C1876 C1878 1.391 . S
C1877 C1876 1.386 . S
C1877 C1881 1.393 . S
C1878 H1870 0.950 . S
C1878 C1876 1.391 . S
C1878 C1879 1.400 . S
C1879 C1878 1.400 . S
C1879 C1880 1.398 . S
C1879 C1885 1.491 . S
C1880 H1871 0.950 . S
C1880 C1879 1.398 . S
C1880 C1881 1.391 . S
C1881 H1869 0.950 1_655 S
C1881 C1877 1.393 . S
C1881 C1880 1.391 . S
C1882 H1872 0.950 . S
C1882 C1883 1.386 . S
C1882 C1884 1.391 . S
C1883 C1882 1.386 . S
C1883 C1887 1.393 . S
C1884 H1873 0.950 . S
C1884 C1882 1.391 . S
C1884 C1885 1.400 . S
C1885 C1879 1.491 . S
C1885 C1884 1.400 . S
C1885 C1886 1.398 . S
C1886 H1874 0.950 . S
C1886 C1885 1.398 . S
C1886 C1887 1.391 . S
C1887 H1875 0.950 . S
C1887 C1883 1.393 . S
C1887 C1886 1.391 . S
H1888 C1896 0.950 . S
H1889 C1901 0.950 . S
H1890 C1898 0.950 . S
H1891 C1900 0.950 . S
H1892 C1902 0.950 . S
H1893 C1904 0.950 . S
H1894 C1906 0.950 . S
H1895 C1907 0.950 1_565 S
C1896 H1888 0.950 . S
C1896 C1897 1.386 . S
C1896 C1898 1.391 . S
C1897 C1896 1.386 . S
C1897 C1901 1.393 . S
C1898 H1890 0.950 . S
C1898 C1896 1.391 . S
C1898 C1899 1.400 . S
C1899 C1898 1.400 . S
C1899 C1900 1.398 . S
C1899 C1905 1.491 . S
C1900 H1891 0.950 . S
C1900 C1899 1.398 . S
C1900 C1901 1.391 . S
C1901 H1889 0.950 . S
C1901 C1897 1.393 . S
C1901 C1900 1.391 . S
C1902 H1892 0.950 . S
C1902 C1903 1.386 . S
C1902 C1904 1.391 . S
C1903 C1902 1.386 . S
C1903 C1907 1.393 . S
C1904 H1893 0.950 . S
C1904 C1902 1.391 . S
C1904 C1905 1.400 . S
C1905 C1899 1.491 . S
C1905 C1904 1.400 . S
C1905 C1906 1.398 . S
C1906 H1894 0.950 . S
C1906 C1905 1.398 . S
C1906 C1907 1.391 . S
C1907 H1895 0.950 1_545 S
C1907 C1903 1.393 . S
C1907 C1906 1.391 . S
H1908 C1916 0.950 . S
H1909 C1921 0.950 . S
H1910 C1918 0.950 . S
H1911 C1920 0.950 . S
H1912 C1922 0.950 . S
H1913 C1924 0.950 . S
H1914 C1926 0.950 . S
H1915 C1927 0.950 . S
C1916 H1908 0.950 . S
C1916 C1917 1.386 . S
C1916 C1918 1.391 . S
C1917 C1916 1.386 . S
C1917 C1921 1.393 . S
C1918 H1910 0.950 . S
C1918 C1916 1.391 . S
C1918 C1919 1.400 . S
C1919 C1918 1.400 . S
C1919 C1920 1.398 . S
C1919 C1925 1.491 . S
C1920 H1911 0.950 . S
C1920 C1919 1.398 . S
C1920 C1921 1.391 . S
C1921 H1909 0.950 . S
C1921 C1917 1.393 . S
C1921 C1920 1.391 . S
C1922 H1912 0.950 . S
C1922 C1923 1.386 . S
C1922 C1924 1.391 . S
C1923 C1922 1.386 . S
C1923 C1927 1.393 . S
C1924 H1913 0.950 . S
C1924 C1922 1.391 . S
C1924 C1925 1.400 . S
C1925 C1919 1.491 . S
C1925 C1924 1.400 . S
C1925 C1926 1.398 . S
C1926 H1914 0.950 . S
C1926 C1925 1.398 . S
C1926 C1927 1.391 . S
C1927 H1915 0.950 . S
C1927 C1923 1.393 . S
C1927 C1926 1.391 . S
H1928 C1936 0.950 . S
H1929 C1941 0.950 . S
H1930 C1938 0.950 . S
H1931 C1940 0.950 . S
H1932 C1942 0.950 . S
H1933 C1944 0.950 . S
H1934 C1946 0.950 . S
H1935 C1947 0.950 . S
C1936 H1928 0.950 . S
C1936 C1937 1.386 . S
C1936 C1938 1.391 . S
C1937 C1936 1.386 . S
C1937 C1941 1.393 . S
C1938 H1930 0.950 . S
C1938 C1936 1.391 . S
C1938 C1939 1.400 . S
C1939 C1938 1.400 . S
C1939 C1940 1.398 . S
C1939 C1945 1.491 . S
C1940 H1931 0.950 . S
C1940 C1939 1.398 . S
C1940 C1941 1.391 . S
C1941 H1929 0.950 . S
C1941 C1937 1.393 . S
C1941 C1940 1.391 . S
C1942 H1932 0.950 . S
C1942 C1943 1.386 . S
C1942 C1944 1.391 . S
C1943 C1942 1.386 . S
C1943 C1947 1.393 . S
C1944 H1933 0.950 . S
C1944 C1942 1.391 . S
C1944 C1945 1.400 . S
C1945 C1939 1.491 . S
C1945 C1944 1.400 . S
C1945 C1946 1.398 . S
C1946 H1934 0.950 . S
C1946 C1945 1.398 . S
C1946 C1947 1.391 . S
C1947 H1935 0.950 . S
C1947 C1943 1.393 . S
C1947 C1946 1.391 . S
H1948 C1956 0.950 . S
H1949 C1961 0.950 . S
H1950 C1958 0.950 . S
H1951 C1960 0.950 . S
H1952 C1962 0.950 . S
H1953 C1964 0.950 . S
H1954 C1966 0.950 . S
H1955 C1967 0.950 . S
C1956 H1948 0.950 . S
C1956 C1957 1.386 . S
C1956 C1958 1.391 . S
C1957 C1956 1.386 . S
C1957 C1961 1.393 . S
C1958 H1950 0.950 . S
C1958 C1956 1.391 . S
C1958 C1959 1.400 . S
C1959 C1958 1.400 . S
C1959 C1960 1.398 . S
C1959 C1965 1.491 . S
C1960 H1951 0.950 . S
C1960 C1959 1.398 . S
C1960 C1961 1.391 . S
C1961 H1949 0.950 . S
C1961 C1957 1.393 . S
C1961 C1960 1.391 . S
C1962 H1952 0.950 . S
C1962 C1963 1.386 . S
C1962 C1964 1.391 . S
C1963 C1962 1.386 . S
C1963 C1967 1.393 . S
C1964 H1953 0.950 . S
C1964 C1962 1.391 . S
C1964 C1965 1.400 . S
C1965 C1959 1.491 . S
C1965 C1964 1.400 . S
C1965 C1966 1.398 . S
C1966 H1954 0.950 . S
C1966 C1965 1.398 . S
C1966 C1967 1.391 . S
C1967 H1955 0.950 . S
C1967 C1963 1.393 . S
C1967 C1966 1.391 . S
H1968 C1976 0.950 . S
H1969 C1981 0.950 . S
H1970 C1978 0.950 . S
H1971 C1980 0.950 . S
H1972 C1982 0.950 1_554 S
H1973 C1984 0.950 . S
H1974 C1986 0.950 . S
H1975 C1987 0.950 . S
C1976 H1968 0.950 . S
C1976 C1977 1.386 . S
C1976 C1978 1.391 . S
C1977 C1976 1.386 . S
C1977 C1981 1.393 . S
C1978 H1970 0.950 . S
C1978 C1976 1.391 . S
C1978 C1979 1.400 . S
C1979 C1978 1.400 . S
C1979 C1980 1.398 . S
C1979 C1985 1.491 . S
C1980 H1971 0.950 . S
C1980 C1979 1.398 . S
C1980 C1981 1.391 . S
C1981 H1969 0.950 . S
C1981 C1977 1.393 . S
C1981 C1980 1.391 . S
C1982 H1972 0.950 1_556 S
C1982 C1983 1.386 . S
C1982 C1984 1.391 . S
C1983 C1982 1.386 . S
C1983 C1987 1.393 . S
C1984 H1973 0.950 . S
C1984 C1982 1.391 . S
C1984 C1985 1.400 . S
C1985 C1979 1.491 . S
C1985 C1984 1.400 . S
C1985 C1986 1.398 . S
C1986 H1974 0.950 . S
C1986 C1985 1.398 . S
C1986 C1987 1.391 . S
C1987 H1975 0.950 . S
C1987 C1983 1.393 . S
C1987 C1986 1.391 . S
H1988 C1996 0.950 . S
H1989 C2001 0.950 . S
H1990 C1998 0.950 . S
H1991 C2000 0.950 . S
H1992 C2002 0.950 . S
H1993 C2004 0.950 . S
H1994 C2006 0.950 . S
H1995 C2007 0.950 . S
C1996 H1988 0.950 . S
C1996 C1997 1.386 . S
C1996 C1998 1.391 . S
C1997 C1996 1.386 . S
C1997 C2001 1.393 . S
C1998 H1990 0.950 . S
C1998 C1996 1.391 . S
C1998 C1999 1.400 . S
C1999 C1998 1.400 . S
C1999 C2000 1.398 . S
C1999 C2005 1.491 . S
C2000 H1991 0.950 . S
C2000 C1999 1.398 . S
C2000 C2001 1.391 . S
C2001 H1989 0.950 . S
C2001 C1997 1.393 . S
C2001 C2000 1.391 . S
C2002 H1992 0.950 . S
C2002 C2003 1.386 . S
C2002 C2004 1.391 . S
C2003 C2002 1.386 . S
C2003 C2007 1.393 . S
C2004 H1993 0.950 . S
C2004 C2002 1.391 . S
C2004 C2005 1.400 . S
C2005 C1999 1.491 . S
C2005 C2004 1.400 . S
C2005 C2006 1.398 . S
C2006 H1994 0.950 . S
C2006 C2005 1.398 . S
C2006 C2007 1.391 . S
C2007 H1995 0.950 . S
C2007 C2003 1.393 . S
C2007 C2006 1.391 . S
H2008 C2016 0.950 1_556 S
H2009 C2021 0.950 . S
H2010 C2018 0.950 . S
H2011 C2020 0.950 . S
H2012 C2022 0.950 . S
H2013 C2024 0.950 . S
H2014 C2026 0.950 . S
H2015 C2027 0.950 . S
C2016 H2008 0.950 1_554 S
C2016 C2017 1.386 . S
C2016 C2018 1.391 . S
C2017 C2016 1.386 . S
C2017 C2021 1.393 . S
C2018 H2010 0.950 . S
C2018 C2016 1.391 . S
C2018 C2019 1.400 . S
C2019 C2018 1.400 . S
C2019 C2020 1.398 . S
C2019 C2025 1.491 . S
C2020 H2011 0.950 . S
C2020 C2019 1.398 . S
C2020 C2021 1.391 . S
C2021 H2009 0.950 . S
C2021 C2017 1.393 . S
C2021 C2020 1.391 . S
C2022 H2012 0.950 . S
C2022 C2023 1.386 . S
C2022 C2024 1.391 . S
C2023 C2022 1.386 . S
C2023 C2027 1.393 . S
C2024 H2013 0.950 . S
C2024 C2022 1.391 . S
C2024 C2025 1.400 . S
C2025 C2019 1.491 . S
C2025 C2024 1.400 . S
C2025 C2026 1.398 . S
C2026 H2014 0.950 . S
C2026 C2025 1.398 . S
C2026 C2027 1.391 . S
C2027 H2015 0.950 . S
C2027 C2023 1.393 . S
C2027 C2026 1.391 . S
H2028 C2036 0.950 . S
H2029 C2041 0.950 . S
H2030 C2038 0.950 . S
H2031 C2040 0.950 . S
H2032 C2042 0.950 . S
H2033 C2044 0.950 . S
H2034 C2046 0.950 . S
H2035 C2047 0.950 . S
C2036 H2028 0.950 . S
C2036 C2037 1.386 . S
C2036 C2038 1.391 . S
C2037 C2036 1.386 . S
C2037 C2041 1.393 . S
C2038 H2030 0.950 . S
C2038 C2036 1.391 . S
C2038 C2039 1.400 . S
C2039 C2038 1.400 . S
C2039 C2040 1.398 . S
C2039 C2045 1.491 . S
C2040 H2031 0.950 . S
C2040 C2039 1.398 . S
C2040 C2041 1.391 . S
C2041 H2029 0.950 . S
C2041 C2037 1.393 . S
C2041 C2040 1.391 . S
C2042 H2032 0.950 . S
C2042 C2043 1.386 . S
C2042 C2044 1.391 . S
C2043 C2042 1.386 . S
C2043 C2047 1.393 . S
C2044 H2033 0.950 . S
C2044 C2042 1.391 . S
C2044 C2045 1.400 . S
C2045 C2039 1.491 . S
C2045 C2044 1.400 . S
C2045 C2046 1.398 . S
C2046 H2034 0.950 . S
C2046 C2045 1.398 . S
C2046 C2047 1.391 . S
C2047 H2035 0.950 . S
C2047 C2043 1.393 . S
C2047 C2046 1.391 . S
H2048 C2056 0.950 . S
H2049 C2061 0.950 . S
H2050 C2058 0.950 . S
H2051 C2060 0.950 . S
H2052 C2062 0.950 . S
H2053 C2064 0.950 . S
H2054 C2066 0.950 . S
H2055 C2067 0.950 1_455 S
C2056 H2048 0.950 . S
C2056 C2057 1.386 . S
C2056 C2058 1.391 . S
C2057 C2056 1.386 . S
C2057 C2061 1.393 . S
C2058 H2050 0.950 . S
C2058 C2056 1.391 . S
C2058 C2059 1.400 . S
C2059 C2058 1.400 . S
C2059 C2060 1.398 . S
C2059 C2065 1.491 . S
C2060 H2051 0.950 . S
C2060 C2059 1.398 . S
C2060 C2061 1.391 . S
C2061 H2049 0.950 . S
C2061 C2057 1.393 . S
C2061 C2060 1.391 . S
C2062 H2052 0.950 . S
C2062 C2063 1.386 . S
C2062 C2064 1.391 . S
C2063 C2062 1.386 . S
C2063 C2067 1.393 . S
C2064 H2053 0.950 . S
C2064 C2062 1.391 . S
C2064 C2065 1.400 . S
C2065 C2059 1.491 . S
C2065 C2064 1.400 . S
C2065 C2066 1.398 . S
C2066 H2054 0.950 . S
C2066 C2065 1.398 . S
C2066 C2067 1.391 . S
C2067 H2055 0.950 1_655 S
C2067 C2063 1.393 . S
C2067 C2066 1.391 . S
H2068 C2076 0.950 . S
H2069 C2081 0.950 . S
H2070 C2078 0.950 . S
H2071 C2080 0.950 . S
H2072 C2082 0.950 . S
H2073 C2084 0.950 . S
H2074 C2086 0.950 . S
H2075 C2087 0.950 . S
C2076 H2068 0.950 . S
C2076 C2077 1.386 . S
C2076 C2078 1.391 . S
C2077 C2076 1.386 . S
C2077 C2081 1.393 . S
C2078 H2070 0.950 . S
C2078 C2076 1.391 . S
C2078 C2079 1.400 . S
C2079 C2078 1.400 . S
C2079 C2080 1.398 . S
C2079 C2085 1.491 . S
C2080 H2071 0.950 . S
C2080 C2079 1.398 . S
C2080 C2081 1.391 . S
C2081 H2069 0.950 . S
C2081 C2077 1.393 . S
C2081 C2080 1.391 . S
C2082 H2072 0.950 . S
C2082 C2083 1.386 . S
C2082 C2084 1.391 . S
C2083 C2082 1.386 . S
C2083 C2087 1.393 . S
C2084 H2073 0.950 . S
C2084 C2082 1.391 . S
C2084 C2085 1.400 . S
C2085 C2079 1.491 . S
C2085 C2084 1.400 . S
C2085 C2086 1.398 . S
C2086 H2074 0.950 . S
C2086 C2085 1.398 . S
C2086 C2087 1.391 . S
C2087 H2075 0.950 . S
C2087 C2083 1.393 . S
C2087 C2086 1.391 . S
H2088 C2096 0.950 . S
H2089 C2101 0.950 . S
H2090 C2098 0.950 . S
H2091 C2100 0.950 . S
H2092 C2102 0.950 . S
H2093 C2104 0.950 . S
H2094 C2106 0.950 . S
H2095 C2107 0.950 . S
C2096 H2088 0.950 . S
C2096 C2097 1.386 . S
C2096 C2098 1.391 . S
C2097 C2096 1.386 . S
C2097 C2101 1.393 . S
C2098 H2090 0.950 . S
C2098 C2096 1.391 . S
C2098 C2099 1.400 . S
C2099 C2098 1.400 . S
C2099 C2100 1.398 . S
C2099 C2105 1.491 . S
C2100 H2091 0.950 . S
C2100 C2099 1.398 . S
C2100 C2101 1.391 . S
C2101 H2089 0.950 . S
C2101 C2097 1.393 . S
C2101 C2100 1.391 . S
C2102 H2092 0.950 . S
C2102 C2103 1.386 . S
C2102 C2104 1.391 . S
C2103 C2102 1.386 . S
C2103 C2107 1.393 . S
C2104 H2093 0.950 . S
C2104 C2102 1.391 . S
C2104 C2105 1.400 . S
C2105 C2099 1.491 . S
C2105 C2104 1.400 . S
C2105 C2106 1.398 . S
C2106 H2094 0.950 . S
C2106 C2105 1.398 . S
C2106 C2107 1.391 . S
C2107 H2095 0.950 . S
C2107 C2103 1.393 . S
C2107 C2106 1.391 . S
H2108 C2116 0.950 . S
H2109 C2121 0.950 . S
H2110 C2118 0.950 . S
H2111 C2120 0.950 . S
H2112 C2122 0.950 . S
H2113 C2124 0.950 . S
H2114 C2126 0.950 . S
H2115 C2127 0.950 1_655 S
C2116 H2108 0.950 . S
C2116 C2117 1.386 . S
C2116 C2118 1.391 . S
C2117 C2116 1.386 . S
C2117 C2121 1.393 . S
C2118 H2110 0.950 . S
C2118 C2116 1.391 . S
C2118 C2119 1.400 . S
C2119 C2118 1.400 . S
C2119 C2120 1.398 . S
C2119 C2125 1.491 . S
C2120 H2111 0.950 . S
C2120 C2119 1.398 . S
C2120 C2121 1.391 . S
C2121 H2109 0.950 . S
C2121 C2117 1.393 . S
C2121 C2120 1.391 . S
C2122 H2112 0.950 . S
C2122 C2123 1.386 . S
C2122 C2124 1.391 . S
C2123 C2122 1.386 . S
C2123 C2127 1.393 . S
C2124 H2113 0.950 . S
C2124 C2122 1.391 . S
C2124 C2125 1.400 . S
C2125 C2119 1.491 . S
C2125 C2124 1.400 . S
C2125 C2126 1.398 . S
C2126 H2114 0.950 . S
C2126 C2125 1.398 . S
C2126 C2127 1.391 . S
C2127 H2115 0.950 1_455 S
C2127 C2123 1.393 . S
C2127 C2126 1.391 . S
H2128 C2136 0.950 . S
H2129 C2141 0.950 . S
H2130 C2138 0.950 . S
H2131 C2140 0.950 . S
H2132 C2142 0.950 . S
H2133 C2144 0.950 . S
H2134 C2146 0.950 . S
H2135 C2147 0.950 1_545 S
C2136 H2128 0.950 . S
C2136 C2137 1.386 . S
C2136 C2138 1.391 . S
C2137 C2136 1.386 . S
C2137 C2141 1.393 . S
C2138 H2130 0.950 . S
C2138 C2136 1.391 . S
C2138 C2139 1.400 . S
C2139 C2138 1.400 . S
C2139 C2140 1.398 . S
C2139 C2145 1.491 . S
C2140 H2131 0.950 . S
C2140 C2139 1.398 . S
C2140 C2141 1.391 . S
C2141 H2129 0.950 . S
C2141 C2137 1.393 . S
C2141 C2140 1.391 . S
C2142 H2132 0.950 . S
C2142 C2143 1.386 . S
C2142 C2144 1.391 . S
C2143 C2142 1.386 . S
C2143 C2147 1.393 . S
C2144 H2133 0.950 . S
C2144 C2142 1.391 . S
C2144 C2145 1.400 . S
C2145 C2139 1.491 . S
C2145 C2144 1.400 . S
C2145 C2146 1.398 . S
C2146 H2134 0.950 . S
C2146 C2145 1.398 . S
C2146 C2147 1.391 . S
C2147 H2135 0.950 1_565 S
C2147 C2143 1.393 . S
C2147 C2146 1.391 . S
H2148 C2156 0.950 . S
H2149 C2161 0.950 . S
H2150 C2158 0.950 . S
H2151 C2160 0.950 . S
H2152 C2162 0.950 . S
H2153 C2164 0.950 . S
H2154 C2166 0.950 . S
H2155 C2167 0.950 . S
C2156 H2148 0.950 . S
C2156 C2157 1.386 . S
C2156 C2158 1.391 . S
C2157 C2156 1.386 . S
C2157 C2161 1.393 . S
C2158 H2150 0.950 . S
C2158 C2156 1.391 . S
C2158 C2159 1.400 . S
C2159 C2158 1.400 . S
C2159 C2160 1.398 . S
C2159 C2165 1.491 . S
C2160 H2151 0.950 . S
C2160 C2159 1.398 . S
C2160 C2161 1.391 . S
C2161 H2149 0.950 . S
C2161 C2157 1.393 . S
C2161 C2160 1.391 . S
C2162 H2152 0.950 . S
C2162 C2163 1.386 . S
C2162 C2164 1.391 . S
C2163 C2162 1.386 . S
C2163 C2167 1.393 . S
C2164 H2153 0.950 . S
C2164 C2162 1.391 . S
C2164 C2165 1.400 . S
C2165 C2159 1.491 . S
C2165 C2164 1.400 . S
C2165 C2166 1.398 . S
C2166 H2154 0.950 . S
C2166 C2165 1.398 . S
C2166 C2167 1.391 . S
C2167 H2155 0.950 . S
C2167 C2163 1.393 . S
C2167 C2166 1.391 . S
H2168 C2176 0.950 . S
H2169 C2181 0.950 . S
H2170 C2178 0.950 . S
H2171 C2180 0.950 . S
H2172 C2182 0.950 . S
H2173 C2184 0.950 . S
H2174 C2186 0.950 . S
H2175 C2187 0.950 . S
C2176 H2168 0.950 . S
C2176 C2177 1.386 . S
C2176 C2178 1.391 . S
C2177 C2176 1.386 . S
C2177 C2181 1.393 . S
C2178 H2170 0.950 . S
C2178 C2176 1.391 . S
C2178 C2179 1.400 . S
C2179 C2178 1.400 . S
C2179 C2180 1.398 . S
C2179 C2185 1.491 . S
C2180 H2171 0.950 . S
C2180 C2179 1.398 . S
C2180 C2181 1.391 . S
C2181 H2169 0.950 . S
C2181 C2177 1.393 . S
C2181 C2180 1.391 . S
C2182 H2172 0.950 . S
C2182 C2183 1.386 . S
C2182 C2184 1.391 . S
C2183 C2182 1.386 . S
C2183 C2187 1.393 . S
C2184 H2173 0.950 . S
C2184 C2182 1.391 . S
C2184 C2185 1.400 . S
C2185 C2179 1.491 . S
C2185 C2184 1.400 . S
C2185 C2186 1.398 . S
C2186 H2174 0.950 . S
C2186 C2185 1.398 . S
C2186 C2187 1.391 . S
C2187 H2175 0.950 . S
C2187 C2183 1.393 . S
C2187 C2186 1.391 . S
H2188 C2196 0.950 . S
H2189 C2201 0.950 . S
H2190 C2198 0.950 . S
H2191 C2200 0.950 . S
H2192 C2202 0.950 . S
H2193 C2204 0.950 . S
H2194 C2206 0.950 . S
H2195 C2207 0.950 1_565 S
C2196 H2188 0.950 . S
C2196 C2197 1.386 . S
C2196 C2198 1.391 . S
C2197 C2196 1.386 . S
C2197 C2201 1.393 . S
C2198 H2190 0.950 . S
C2198 C2196 1.391 . S
C2198 C2199 1.400 . S
C2199 C2198 1.400 . S
C2199 C2200 1.398 . S
C2199 C2205 1.491 . S
C2200 H2191 0.950 . S
C2200 C2199 1.398 . S
C2200 C2201 1.391 . S
C2201 H2189 0.950 . S
C2201 C2197 1.393 . S
C2201 C2200 1.391 . S
C2202 H2192 0.950 . S
C2202 C2203 1.386 . S
C2202 C2204 1.391 . S
C2203 C2202 1.386 . S
C2203 C2207 1.393 . S
C2204 H2193 0.950 . S
C2204 C2202 1.391 . S
C2204 C2205 1.400 . S
C2205 C2199 1.491 . S
C2205 C2204 1.400 . S
C2205 C2206 1.398 . S
C2206 H2194 0.950 . S
C2206 C2205 1.398 . S
C2206 C2207 1.391 . S
C2207 H2195 0.950 1_545 S
C2207 C2203 1.393 . S
C2207 C2206 1.391 . S
C777 N13 1.107 . S
C783 C580 1.199 . S
C797 C637 1.195 . S
C803 N45 1.116 . S
C817 N82 1.120 . S
C823 C541 1.202 1_545 S
C837 N114 1.148 . S
C843 C548 1.201 1_565 S
C857 C708 1.204 . S
C863 N146 1.136 . S
C877 N173 1.106 . S
C883 C676 1.199 1_556 S
C897 C765 1.203 . S
C903 N205 1.147 . S
C917 N242 1.128 . S
C923 C644 1.196 1_554 S
C937 N269 1.149 . S
C943 C420 1.201 . S
C957 N301 1.146 . S
C963 C509 1.200 1_655 S
C977 C477 1.196 . S
C983 N333 1.109 . S
C997 N370 1.105 . S
C1003 C413 1.198 1_455 S
C1017 N402 1.108 . S
C1023 C196 1.196 . S
C1037 N429 1.125 . S
C1043 C253 1.196 . S
C1057 N466 1.107 . S
C1063 C157 1.196 1_565 S
C1077 C164 1.203 1_545 S
C1083 N498 1.145 . S
C1097 N530 1.105 . S
C1103 C324 1.198 . S
C1117 C292 1.197 1_554 S
C1123 N557 1.105 . S
C1137 C381 1.203 . S
C1143 N589 1.132 . S
C1157 C260 1.201 1_556 S
C1163 N626 1.149 . S
C1177 C36 1.197 . S
C1183 N653 1.134 . S
C1197 C125 1.197 1_455 S
C1203 N685 1.136 . S
C1217 C93 1.196 . S
C1223 N717 1.127 . S
C1237 N754 1.106 . S
C1243 C4 1.198 1_655 S
C1257 C130 1.744 . S
C1263 C29 1.770 . S
C1277 C166 1.745 . S
C1283 C61 1.767 . S
C1297 C198 1.744 . S
C1303 C68 1.767 . S
C1317 C226 1.735 . S
C1323 C100 1.762 . S
C1337 C132 1.763 . S
C1343 C262 1.739 . S
C1357 C189 1.771 . S
C1363 C354 1.746 . S
C1377 C221 1.774 . S
C1383 C294 1.752 . S
C1397 C228 1.770 . S
C1403 C326 1.748 . S
C1417 C285 1.774 . S
C1423 C6 1.753 . S
C1437 C317 1.773 . S
C1443 C66 1.752 . S
C1457 C349 1.766 . S
C1463 C98 1.738 . S
C1477 C38 1.746 . S
C1483 C356 1.768 . S
C1497 C514 1.752 . S
C1503 C388 1.773 . S
C1517 C550 1.738 . S
C1523 C445 1.763 . S
C1537 C452 1.764 . S
C1543 C582 1.740 . S
C1557 C484 1.762 . S
C1563 C610 1.735 . S
C1577 C646 1.740 . S
C1583 C516 1.767 . S
C1597 C573 1.762 . S
C1603 C738 1.734 . S
C1617 C678 1.738 . S
C1623 C605 1.763 . S
C1637 C612 1.766 . S
C1643 C710 1.743 . S
C1657 C386 1.734 . S
C1663 C669 1.762 . S
C1677 C701 1.762 . S
C1683 C450 1.735 . S
C1697 C733 1.763 . S
C1703 C482 1.738 . S
C1717 C422 1.753 . S
C1723 C740 1.774 . S
C1737 N18 1.504 . S
C1743 C290 1.529 1_554 S
C1757 C322 1.553 . S
C1763 N50 1.530 . S
C1777 C258 1.531 1_556 S
C1783 N77 1.502 . S
C1797 C358 1.539 . S
C1803 N109 1.518 . S
C1817 N141 1.527 . S
C1823 C102 1.552 1_455 S
C1837 C70 1.529 . S
C1843 N178 1.501 . S
C1857 N210 1.528 . S
C1863 C34 1.553 . S
C1877 C2 1.535 1_655 S
C1883 N237 1.513 . S
C1897 N274 1.521 . S
C1903 C162 1.549 1_545 S
C1917 N306 1.501 . S
C1923 C230 1.528 . S
C1937 N338 1.530 . S
C1943 C194 1.553 . S
C1957 N365 1.528 . S
C1963 C134 1.549 1_565 S
C1977 N397 1.529 . S
C1983 C674 1.553 1_556 S
C1997 N434 1.504 . S
C2003 C706 1.533 . S
C2017 C642 1.529 1_554 S
C2023 N461 1.500 . S
C2037 C742 1.548 . S
C2043 N493 1.521 . S
C2057 N525 1.507 . S
C2063 C486 1.530 1_655 S
C2077 N562 1.530 . S
C2083 C454 1.552 . S
C2097 C418 1.553 . S
C2103 N594 1.529 . S
C2117 N621 1.508 . S
C2123 C390 1.531 1_455 S
C2137 N658 1.501 . S
C2143 C546 1.528 1_565 S
C2157 C614 1.532 . S
C2163 N690 1.503 . S
C2177 N722 1.502 . S
C2183 C578 1.528 . S
C2197 N749 1.501 . S
C2203 C518 1.528 1_545 S
