# Generated by pormake.
# Topology gme, (4)-cn, num edge types: 1
# Building blocks:
#     Node 0, Type 0, BuildingBlock: TATPOV_clean_sbu_0, # of connection points: 4
#     Node 1, Type 0, BuildingBlock: TATPOV_clean_sbu_0, # of connection points: 4
#     Node 2, Type 0, BuildingBlock: TATPOV_clean_sbu_0, # of connection points: 4
#     Node 3, Type 0, BuildingBlock: TATPOV_clean_sbu_0, # of connection points: 4
#     Node 4, Type 0, BuildingBlock: TATPOV_clean_sbu_0, # of connection points: 4
#     Node 5, Type 0, BuildingBlock: TATPOV_clean_sbu_0, # of connection points: 4
#     Node 6, Type 0, BuildingBlock: TATPOV_clean_sbu_0, # of connection points: 4
#     Node 7, Type 0, BuildingBlock: TATPOV_clean_sbu_0, # of connection points: 4
#     Node 8, Type 0, BuildingBlock: TATPOV_clean_sbu_0, # of connection points: 4
#     Node 9, Type 0, BuildingBlock: TATPOV_clean_sbu_0, # of connection points: 4
#     Node 10, Type 0, BuildingBlock: TATPOV_clean_sbu_0, # of connection points: 4
#     Node 11, Type 0, BuildingBlock: TATPOV_clean_sbu_0, # of connection points: 4
#     Node 12, Type 0, BuildingBlock: TATPOV_clean_sbu_0, # of connection points: 4
#     Node 13, Type 0, BuildingBlock: TATPOV_clean_sbu_0, # of connection points: 4
#     Node 14, Type 0, BuildingBlock: TATPOV_clean_sbu_0, # of connection points: 4
#     Node 15, Type 0, BuildingBlock: TATPOV_clean_sbu_0, # of connection points: 4
#     Node 16, Type 0, BuildingBlock: TATPOV_clean_sbu_0, # of connection points: 4
#     Node 17, Type 0, BuildingBlock: TATPOV_clean_sbu_0, # of connection points: 4
#     Node 18, Type 0, BuildingBlock: TATPOV_clean_sbu_0, # of connection points: 4
#     Node 19, Type 0, BuildingBlock: TATPOV_clean_sbu_0, # of connection points: 4
#     Node 20, Type 0, BuildingBlock: TATPOV_clean_sbu_0, # of connection points: 4
#     Node 21, Type 0, BuildingBlock: TATPOV_clean_sbu_0, # of connection points: 4
#     Node 22, Type 0, BuildingBlock: TATPOV_clean_sbu_0, # of connection points: 4
#     Node 23, Type 0, BuildingBlock: TATPOV_clean_sbu_0, # of connection points: 4
#     Edge 24, Type (0, 0), BuildingBlock: OJICUG_clean_linker_0, # of connection points: 2
#     Edge 25, Type (0, 0), BuildingBlock: OJICUG_clean_linker_0, # of connection points: 2
#     Edge 26, Type (0, 0), BuildingBlock: OJICUG_clean_linker_0, # of connection points: 2
#     Edge 27, Type (0, 0), BuildingBlock: OJICUG_clean_linker_0, # of connection points: 2
#     Edge 28, Type (0, 0), BuildingBlock: OJICUG_clean_linker_0, # of connection points: 2
#     Edge 29, Type (0, 0), BuildingBlock: OJICUG_clean_linker_0, # of connection points: 2
#     Edge 30, Type (0, 0), BuildingBlock: OJICUG_clean_linker_0, # of connection points: 2
#     Edge 31, Type (0, 0), BuildingBlock: OJICUG_clean_linker_0, # of connection points: 2
#     Edge 32, Type (0, 0), BuildingBlock: OJICUG_clean_linker_0, # of connection points: 2
#     Edge 33, Type (0, 0), BuildingBlock: OJICUG_clean_linker_0, # of connection points: 2
#     Edge 34, Type (0, 0), BuildingBlock: OJICUG_clean_linker_0, # of connection points: 2
#     Edge 35, Type (0, 0), BuildingBlock: OJICUG_clean_linker_0, # of connection points: 2
#     Edge 36, Type (0, 0), BuildingBlock: OJICUG_clean_linker_0, # of connection points: 2
#     Edge 37, Type (0, 0), BuildingBlock: OJICUG_clean_linker_0, # of connection points: 2
#     Edge 38, Type (0, 0), BuildingBlock: OJICUG_clean_linker_0, # of connection points: 2
#     Edge 39, Type (0, 0), BuildingBlock: OJICUG_clean_linker_0, # of connection points: 2
#     Edge 40, Type (0, 0), BuildingBlock: OJICUG_clean_linker_0, # of connection points: 2
#     Edge 41, Type (0, 0), BuildingBlock: OJICUG_clean_linker_0, # of connection points: 2
#     Edge 42, Type (0, 0), BuildingBlock: OJICUG_clean_linker_0, # of connection points: 2
#     Edge 43, Type (0, 0), BuildingBlock: OJICUG_clean_linker_0, # of connection points: 2
#     Edge 44, Type (0, 0), BuildingBlock: OJICUG_clean_linker_0, # of connection points: 2
#     Edge 45, Type (0, 0), BuildingBlock: OJICUG_clean_linker_0, # of connection points: 2
#     Edge 46, Type (0, 0), BuildingBlock: OJICUG_clean_linker_0, # of connection points: 2
#     Edge 47, Type (0, 0), BuildingBlock: OJICUG_clean_linker_0, # of connection points: 2
#     Edge 48, Type (0, 0), BuildingBlock: OJICUG_clean_linker_0, # of connection points: 2
#     Edge 49, Type (0, 0), BuildingBlock: OJICUG_clean_linker_0, # of connection points: 2
#     Edge 50, Type (0, 0), BuildingBlock: OJICUG_clean_linker_0, # of connection points: 2
#     Edge 51, Type (0, 0), BuildingBlock: OJICUG_clean_linker_0, # of connection points: 2
#     Edge 52, Type (0, 0), BuildingBlock: OJICUG_clean_linker_0, # of connection points: 2
#     Edge 53, Type (0, 0), BuildingBlock: OJICUG_clean_linker_0, # of connection points: 2
#     Edge 54, Type (0, 0), BuildingBlock: OJICUG_clean_linker_0, # of connection points: 2
#     Edge 55, Type (0, 0), BuildingBlock: OJICUG_clean_linker_0, # of connection points: 2
#     Edge 56, Type (0, 0), BuildingBlock: OJICUG_clean_linker_0, # of connection points: 2
#     Edge 57, Type (0, 0), BuildingBlock: OJICUG_clean_linker_0, # of connection points: 2
#     Edge 58, Type (0, 0), BuildingBlock: OJICUG_clean_linker_0, # of connection points: 2
#     Edge 59, Type (0, 0), BuildingBlock: OJICUG_clean_linker_0, # of connection points: 2
#     Edge 60, Type (0, 0), BuildingBlock: OJICUG_clean_linker_0, # of connection points: 2
#     Edge 61, Type (0, 0), BuildingBlock: OJICUG_clean_linker_0, # of connection points: 2
#     Edge 62, Type (0, 0), BuildingBlock: OJICUG_clean_linker_0, # of connection points: 2
#     Edge 63, Type (0, 0), BuildingBlock: OJICUG_clean_linker_0, # of connection points: 2
#     Edge 64, Type (0, 0), BuildingBlock: OJICUG_clean_linker_0, # of connection points: 2
#     Edge 65, Type (0, 0), BuildingBlock: OJICUG_clean_linker_0, # of connection points: 2
#     Edge 66, Type (0, 0), BuildingBlock: OJICUG_clean_linker_0, # of connection points: 2
#     Edge 67, Type (0, 0), BuildingBlock: OJICUG_clean_linker_0, # of connection points: 2
#     Edge 68, Type (0, 0), BuildingBlock: OJICUG_clean_linker_0, # of connection points: 2
#     Edge 69, Type (0, 0), BuildingBlock: OJICUG_clean_linker_0, # of connection points: 2
#     Edge 70, Type (0, 0), BuildingBlock: OJICUG_clean_linker_0, # of connection points: 2
#     Edge 71, Type (0, 0), BuildingBlock: OJICUG_clean_linker_0, # of connection points: 2
# Relax obj value: 0.147
# Max RMSD: 0.133
# Mean RMSD: 0.133
data_MOF--net-gme--node1-TATPOV_clean_sbu_0--edge1-OJICUG_clean_linker_0
_symmetry_space_group_name_H-M    P1
_symmetry_Int_Tables_number       1
_symmetry_cell_setting            triclinic
loop_
_symmetry_equiv_pos_as_xyz
'x, y, z'
_cell_length_a     45.797649
_cell_length_b     45.870166
_cell_length_c     36.952355
_cell_angle_alpha  89.995602
_cell_angle_beta   90.008218
_cell_angle_gamma 119.96022
loop_
_atom_site_label
_atom_site_type_symbol
_atom_site_fract_x
_atom_site_fract_y
_atom_site_fract_z
_atom_type_partial_charge
Zn0 Zn 0.40945 0.04414 0.12124 0.0
Zn1 Zn 0.43412 0.10387 0.09155 0.0
O2 O 0.4043 0.07001 0.05183 0.0
O3 O 0.38568 0.02019 0.07673 0.0
O4 O 0.44848 0.15033 0.07224 0.0
O5 O 0.38365 0.05364 0.15791 0.0
O6 O 0.41089 0.10584 0.13854 0.0
C7 C 0.38716 0.03793 0.04989 0.0
C8 C 0.48262 0.08132 0.1174 0.0
O9 O 0.47812 0.10296 0.10038 0.0
O10 O 0.45752 0.05511 0.13014 0.0
C11 C 0.43121 0.15597 0.04925 0.0
O12 O 0.4049 0.13041 0.03419 0.0
C13 C 0.39052 0.08386 0.1607 0.0
Zn14 Zn 0.38289 0.40835 0.58682 0.0
Zn15 Zn 0.3365 0.42156 0.58051 0.0
O16 O 0.32475 0.38122 0.54582 0.0
O17 O 0.35889 0.36355 0.56366 0.0
O18 O 0.2964 0.42831 0.57628 0.0
O19 O 0.38359 0.41006 0.64006 0.0
O20 O 0.33749 0.41331 0.63557 0.0
C21 C 0.33468 0.35971 0.54401 0.0
C22 C 0.40655 0.47225 0.55404 0.0
O23 O 0.37745 0.46669 0.56368 0.0
O24 O 0.41427 0.44953 0.55813 0.0
C25 C 0.2828 0.42836 0.54631 0.0
O26 O 0.29575 0.42475 0.51606 0.0
C27 C 0.35903 0.41056 0.65493 0.0
Zn28 Zn 0.97296 0.38685 0.08652 0.0
Zn29 Zn 0.91358 0.34154 0.07948 0.0
O30 O 0.94339 0.32811 0.04858 0.0
O31 O 0.99485 0.36231 0.06732 0.0
O32 O 0.86625 0.30259 0.07233 0.0
O33 O 0.96892 0.38878 0.13939 0.0
O34 O 0.91994 0.34238 0.13507 0.0
C35 C 0.97474 0.33733 0.04847 0.0
C36 C 0.93609 0.41238 0.05183 0.0
O37 O 0.91195 0.38383 0.06187 0.0
O38 O 0.96621 0.41885 0.05554 0.0
C39 C 0.85684 0.28509 0.0435 0.0
O40 O 0.87812 0.29319 0.01645 0.0
C41 C 0.94348 0.36483 0.15441 0.0
Zn42 Zn 0.60431 0.96388 0.62151 0.0
Zn43 Zn 0.5798 0.90423 0.59166 0.0
O44 O 0.60968 0.93825 0.55211 0.0
O45 O 0.62816 0.98801 0.5771 0.0
O46 O 0.56561 0.85789 0.57211 0.0
O47 O 0.63008 0.95431 0.65817 0.0
O48 O 0.60294 0.90215 0.63869 0.0
C49 C 0.62677 0.97033 0.55024 0.0
C50 C 0.53115 0.92659 0.61749 0.0
O51 O 0.53572 0.90502 0.60042 0.0
O52 O 0.55619 0.95279 0.63032 0.0
C53 C 0.58341 0.85249 0.54964 0.0
O54 O 0.61013 0.8782 0.53537 0.0
C55 C 0.62326 0.9241 0.66091 0.0
Zn56 Zn 0.63182 0.60072 0.08708 0.0
Zn57 Zn 0.6777 0.58653 0.08037 0.0
O58 O 0.68938 0.62635 0.04491 0.0
O59 O 0.65576 0.64478 0.06241 0.0
O60 O 0.71746 0.57924 0.07599 0.0
O61 O 0.63244 0.60062 0.14034 0.0
O62 O 0.67758 0.59571 0.13534 0.0
C63 C 0.67965 0.648 0.04263 0.0
C64 C 0.60703 0.53594 0.05555 0.0
O65 O 0.63626 0.5414 0.06444 0.0
O66 O 0.5996 0.55886 0.05982 0.0
C67 C 0.73095 0.57902 0.046 0.0
O68 O 0.71804 0.58271 0.01576 0.0
C69 C 0.65689 0.59965 0.1549 0.0
Zn70 Zn 0.04141 0.62024 0.58686 0.0
Zn71 Zn 0.10056 0.66598 0.57947 0.0
O72 O 0.07017 0.67909 0.54922 0.0
O73 O 0.01899 0.64461 0.56852 0.0
O74 O 0.14769 0.70522 0.5721 0.0
O75 O 0.04615 0.61792 0.63962 0.0
O76 O 0.09467 0.66483 0.63513 0.0
C77 C 0.03877 0.66965 0.54954 0.0
C78 C 0.07843 0.59548 0.55108 0.0
O79 O 0.10247 0.62401 0.56131 0.0
O80 O 0.04826 0.58877 0.55505 0.0
C81 C 0.15675 0.72302 0.54348 0.0
O82 O 0.1352 0.7151 0.51672 0.0
C83 C 0.07157 0.642 0.65455 0.0
Zn84 Zn 0.97849 0.60111 0.37797 0.0
Zn85 Zn 0.91837 0.58669 0.38474 0.0
O86 O 0.94644 0.6264 0.42035 0.0
O87 O 0.99852 0.64512 0.40274 0.0
O88 O 0.87128 0.57928 0.38912 0.0
O89 O 0.97782 0.60112 0.32471 0.0
O90 O 0.92769 0.59601 0.32978 0.0
C91 C 0.97779 0.64813 0.42265 0.0
C92 C 0.93863 0.53625 0.40945 0.0
O93 O 0.91478 0.5416 0.40058 0.0
O94 O 0.96895 0.55924 0.40516 0.0
C95 C 0.85751 0.57896 0.4191 0.0
O96 O 0.87409 0.58264 0.44936 0.0
C97 C 0.95237 0.60009 0.31019 0.0
Zn98 Zn 0.3689 0.96356 0.84274 0.0
Zn99 Zn 0.33392 0.90392 0.87265 0.0
O100 O 0.33809 0.93796 0.9122 0.0
O101 O 0.36921 0.98771 0.88714 0.0
O102 O 0.30185 0.85758 0.89228 0.0
O103 O 0.3335 0.95388 0.80611 0.0
O104 O 0.30862 0.90174 0.82564 0.0
C105 C 0.35303 0.97004 0.91405 0.0
C106 C 0.40495 0.92645 0.84676 0.0
O107 O 0.37885 0.90484 0.86385 0.0
O108 O 0.40601 0.95259 0.83391 0.0
C109 C 0.27871 0.85216 0.91485 0.0
O110 O 0.27771 0.87786 0.92915 0.0
C111 C 0.31017 0.92364 0.80341 0.0
Zn112 Zn 0.4231 0.38582 0.37867 0.0
Zn113 Zn 0.43742 0.34072 0.38565 0.0
O114 O 0.39435 0.32727 0.41687 0.0
O115 O 0.37679 0.36122 0.39817 0.0
O116 O 0.44594 0.30185 0.39268 0.0
O117 O 0.42873 0.38767 0.32578 0.0
O118 O 0.43163 0.34145 0.33007 0.0
C119 C 0.37214 0.33638 0.41711 0.0
C120 C 0.48571 0.41162 0.41311 0.0
O121 O 0.48136 0.38308 0.4031 0.0
O122 O 0.46199 0.41799 0.40943 0.0
C123 C 0.438 0.28436 0.4215 0.0
O124 O 0.4249 0.29242 0.44866 0.0
C125 C 0.43026 0.36376 0.31074 0.0
Zn126 Zn 0.03569 0.40768 0.87824 0.0
Zn127 Zn 0.09542 0.42124 0.88469 0.0
O128 O 0.06696 0.38113 0.9197 0.0
O129 O 0.01508 0.36308 0.90182 0.0
O130 O 0.14233 0.42817 0.88895 0.0
O131 O 0.03656 0.40891 0.82499 0.0
O132 O 0.08612 0.41264 0.82966 0.0
C133 C 0.03554 0.35953 0.92163 0.0
C134 C 0.07582 0.47184 0.91069 0.0
O135 O 0.09945 0.46636 0.90123 0.0
O136 O 0.04541 0.44903 0.90655 0.0
C137 C 0.15602 0.42828 0.91891 0.0
O138 O 0.13946 0.42463 0.94917 0.0
C139 C 0.06172 0.40953 0.81022 0.0
Zn140 Zn 0.64521 0.04455 0.34303 0.0
Zn141 Zn 0.68014 0.10424 0.37281 0.0
O142 O 0.67601 0.07033 0.4125 0.0
O143 O 0.64495 0.02052 0.38752 0.0
O144 O 0.7122 0.15067 0.39225 0.0
O145 O 0.68058 0.05414 0.30642 0.0
O146 O 0.70541 0.10632 0.32583 0.0
C147 C 0.66111 0.03825 0.4144 0.0
C148 C 0.6091 0.0816 0.34686 0.0
O149 O 0.63519 0.10326 0.36393 0.0
O150 O 0.60806 0.05544 0.33409 0.0
C151 C 0.73513 0.15623 0.41517 0.0
O152 O 0.73593 0.13063 0.43003 0.0
C153 C 0.70388 0.08438 0.30365 0.0
Zn154 Zn 0.58922 0.62119 0.87827 0.0
Zn155 Zn 0.57571 0.66681 0.88563 0.0
O156 O 0.61914 0.67992 0.91602 0.0
O157 O 0.63603 0.64565 0.89657 0.0
O158 O 0.56778 0.70602 0.8929 0.0
O159 O 0.58211 0.61873 0.82552 0.0
O160 O 0.5805 0.66563 0.82997 0.0
C161 C 0.64116 0.67056 0.91569 0.0
C162 C 0.52743 0.59637 0.91414 0.0
O163 O 0.53184 0.62484 0.90383 0.0
O164 O 0.55094 0.58973 0.91018 0.0
C165 C 0.57646 0.72386 0.92149 0.0
O166 O 0.5901 0.71602 0.94831 0.0
C167 C 0.58077 0.64279 0.81057 0.0
Zn168 Zn 0.60422 0.96396 0.84298 0.0
Zn169 Zn 0.57966 0.90431 0.87288 0.0
O170 O 0.60951 0.93835 0.91243 0.0
O171 O 0.62804 0.9881 0.88741 0.0
O172 O 0.56544 0.85798 0.89249 0.0
O173 O 0.63001 0.95435 0.80639 0.0
O174 O 0.60283 0.90219 0.8259 0.0
C175 C 0.62661 0.97043 0.91429 0.0
C176 C 0.53105 0.92669 0.84693 0.0
O177 O 0.5356 0.90512 0.86403 0.0
O178 O 0.55611 0.95288 0.8341 0.0
C179 C 0.58319 0.85259 0.91506 0.0
O180 O 0.60987 0.87832 0.92939 0.0
C181 C 0.62318 0.92413 0.80369 0.0
Zn182 Zn 0.63191 0.60055 0.37826 0.0
Zn183 Zn 0.67784 0.58641 0.38488 0.0
O184 O 0.68955 0.62622 0.42037 0.0
O185 O 0.65588 0.64461 0.40293 0.0
O186 O 0.71759 0.57911 0.38919 0.0
O187 O 0.63247 0.60045 0.325 0.0
O188 O 0.67766 0.59561 0.32993 0.0
C189 C 0.67981 0.64785 0.42267 0.0
C190 C 0.60721 0.53578 0.40978 0.0
O191 O 0.63643 0.54126 0.40084 0.0
O192 O 0.59974 0.55868 0.40555 0.0
C193 C 0.73108 0.57882 0.41915 0.0
O194 O 0.71817 0.58245 0.44942 0.0
C195 C 0.65692 0.59954 0.3104 0.0
Zn196 Zn 0.04136 0.62051 0.8781 0.0
Zn197 Zn 0.10052 0.6662 0.88548 0.0
O198 O 0.07017 0.67934 0.91575 0.0
O199 O 0.01898 0.64493 0.89641 0.0
O200 O 0.14767 0.70543 0.89278 0.0
O201 O 0.04606 0.61812 0.82535 0.0
O202 O 0.09461 0.665 0.82982 0.0
C203 C 0.03877 0.66993 0.91542 0.0
C204 C 0.07835 0.5957 0.9139 0.0
O205 O 0.1024 0.62422 0.90365 0.0
O206 O 0.04818 0.58903 0.90995 0.0
C207 C 0.15679 0.7233 0.92134 0.0
O208 O 0.13529 0.71549 0.94813 0.0
C209 C 0.0715 0.64216 0.81042 0.0
Zn210 Zn 0.40982 0.04406 0.34281 0.0
Zn211 Zn 0.43439 0.10376 0.37264 0.0
O212 O 0.40455 0.0698 0.41225 0.0
O213 O 0.38603 0.02002 0.38729 0.0
O214 O 0.44871 0.15017 0.39209 0.0
O215 O 0.38402 0.05363 0.30619 0.0
O216 O 0.41115 0.1058 0.32568 0.0
C217 C 0.38745 0.03772 0.41414 0.0
C218 C 0.48297 0.08131 0.34676 0.0
O219 O 0.47842 0.1029 0.36381 0.0
O220 O 0.45792 0.05511 0.33395 0.0
C221 C 0.43156 0.15575 0.41527 0.0
O222 O 0.40537 0.13016 0.43044 0.0
C223 C 0.3908 0.08383 0.30348 0.0
Zn224 Zn 0.3826 0.40845 0.87883 0.0
Zn225 Zn 0.33624 0.42168 0.88494 0.0
O226 O 0.32444 0.38138 0.91972 0.0
O227 O 0.35856 0.36365 0.90199 0.0
O228 O 0.29615 0.42845 0.88905 0.0
O229 O 0.38342 0.41013 0.82559 0.0
O230 O 0.3373 0.41336 0.82991 0.0
C231 C 0.33434 0.35985 0.92159 0.0
C232 C 0.40626 0.47238 0.91149 0.0
O233 O 0.37719 0.46682 0.90175 0.0
O234 O 0.41397 0.44964 0.90752 0.0
C235 C 0.28252 0.4285 0.91899 0.0
O236 O 0.29544 0.4249 0.94927 0.0
C237 C 0.35888 0.4106 0.81063 0.0
Zn238 Zn 0.97332 0.38683 0.3782 0.0
Zn239 Zn 0.91391 0.3415 0.38533 0.0
O240 O 0.94377 0.32808 0.41616 0.0
O241 O 0.99522 0.3623 0.39742 0.0
O242 O 0.86659 0.30254 0.3925 0.0
O243 O 0.9692 0.38871 0.32534 0.0
O244 O 0.92018 0.34235 0.32973 0.0
C245 C 0.97513 0.33732 0.41627 0.0
C246 C 0.93645 0.41235 0.41296 0.0
O247 O 0.9123 0.38378 0.40297 0.0
O248 O 0.96657 0.41884 0.40917 0.0
C249 C 0.85721 0.28497 0.42128 0.0
O250 O 0.87852 0.29299 0.4483 0.0
C251 C 0.9437 0.36478 0.31035 0.0
Zn252 Zn 0.03594 0.40751 0.58649 0.0
Zn253 Zn 0.09566 0.42112 0.5802 0.0
O254 O 0.06727 0.38103 0.54513 0.0
O255 O 0.01536 0.3629 0.56293 0.0
O256 O 0.14259 0.42807 0.57605 0.0
O257 O 0.03669 0.40876 0.63973 0.0
O258 O 0.08627 0.41252 0.63522 0.0
C259 C 0.03587 0.3594 0.54315 0.0
C260 C 0.07606 0.47169 0.5541 0.0
O261 O 0.09969 0.46624 0.56365 0.0
O262 O 0.04565 0.44884 0.55815 0.0
C263 C 0.15631 0.42817 0.54612 0.0
O264 O 0.13979 0.42451 0.51583 0.0
C265 C 0.06183 0.4094 0.65458 0.0
Zn266 Zn 0.64485 0.04455 0.12152 0.0
Zn267 Zn 0.67982 0.10428 0.09175 0.0
O268 O 0.67572 0.07041 0.05205 0.0
O269 O 0.64466 0.02059 0.07701 0.0
O270 O 0.71185 0.15073 0.07235 0.0
O271 O 0.68024 0.05417 0.15814 0.0
O272 O 0.70514 0.10634 0.1387 0.0
C273 C 0.66082 0.03833 0.05013 0.0
C274 C 0.60875 0.0816 0.11764 0.0
O275 O 0.63486 0.10327 0.10062 0.0
O276 O 0.60769 0.05543 0.13041 0.0
C277 C 0.73477 0.15634 0.04941 0.0
O278 O 0.73557 0.13076 0.03447 0.0
C279 C 0.70359 0.08439 0.16087 0.0
Zn280 Zn 0.58948 0.62116 0.58704 0.0
Zn281 Zn 0.57594 0.66675 0.57957 0.0
O282 O 0.61938 0.67983 0.54923 0.0
O283 O 0.6363 0.6456 0.56875 0.0
O284 O 0.568 0.70595 0.57218 0.0
O285 O 0.58236 0.61876 0.63978 0.0
O286 O 0.58067 0.66562 0.63525 0.0
C287 C 0.64142 0.67049 0.5496 0.0
C288 C 0.52769 0.59627 0.55115 0.0
O289 O 0.53208 0.62475 0.5614 0.0
O290 O 0.55121 0.58965 0.55516 0.0
C291 C 0.5767 0.72375 0.54356 0.0
O292 O 0.59036 0.71588 0.51679 0.0
C293 C 0.58096 0.64281 0.65469 0.0
Zn294 Zn 0.97835 0.60114 0.08691 0.0
Zn295 Zn 0.91827 0.58685 0.08018 0.0
O296 O 0.94638 0.62657 0.04458 0.0
O297 O 0.99845 0.64518 0.06219 0.0
O298 O 0.8712 0.5795 0.07584 0.0
O299 O 0.97772 0.60111 0.14016 0.0
O300 O 0.92763 0.59612 0.13514 0.0
C301 C 0.97775 0.64826 0.04229 0.0
C302 C 0.93839 0.53633 0.05538 0.0
O303 O 0.91459 0.54173 0.06429 0.0
O304 O 0.96874 0.55928 0.05966 0.0
C305 C 0.85741 0.57921 0.04588 0.0
O306 O 0.87395 0.58288 0.0156 0.0
C307 C 0.9523 0.60014 0.15471 0.0
Zn308 Zn 0.36895 0.96338 0.62132 0.0
Zn309 Zn 0.33399 0.90372 0.59148 0.0
O310 O 0.33818 0.93768 0.55183 0.0
O311 O 0.36927 0.98746 0.57686 0.0
O312 O 0.30193 0.85735 0.57194 0.0
O313 O 0.33355 0.95377 0.6579 0.0
O314 O 0.30867 0.9016 0.63845 0.0
C315 C 0.35312 0.96976 0.54996 0.0
C316 C 0.40501 0.92628 0.61746 0.0
O317 O 0.37892 0.90465 0.60036 0.0
O318 O 0.40606 0.95243 0.63026 0.0
C319 C 0.27866 0.8519 0.54953 0.0
O320 O 0.27755 0.87758 0.53534 0.0
C321 C 0.31021 0.92354 0.66063 0.0
Zn322 Zn 0.42291 0.38603 0.08691 0.0
Zn323 Zn 0.43721 0.34089 0.07978 0.0
O324 O 0.39407 0.32749 0.04868 0.0
O325 O 0.37657 0.36147 0.06744 0.0
O326 O 0.44569 0.30202 0.07257 0.0
O327 O 0.42858 0.38777 0.1398 0.0
O328 O 0.43152 0.34157 0.13537 0.0
C329 C 0.37188 0.33662 0.04848 0.0
C330 C 0.48548 0.41183 0.05237 0.0
O331 O 0.48112 0.38327 0.0623 0.0
O332 O 0.46178 0.41822 0.05616 0.0
C333 C 0.43773 0.28463 0.04368 0.0
O334 O 0.42464 0.29281 0.01659 0.0
C335 C 0.43016 0.36384 0.15477 0.0
C336 C 0.35284 0.06945 0.25101 0.0
C337 C 0.38123 0.09382 0.26977 0.0
H338 H 0.33307 0.04778 0.19934 0.0
C339 C 0.40571 0.12218 0.25102 0.0
H340 H 0.33322 0.04777 0.26509 0.0
C341 C 0.40562 0.12219 0.21319 0.0
C342 C 0.38106 0.09384 0.1945 0.0
H343 H 0.42761 0.14159 0.26501 0.0
H344 H 0.42747 0.14161 0.19914 0.0
C345 C 0.35275 0.06946 0.21336 0.0
C346 C 0.33367 0.41493 0.71375 0.0
C347 C 0.35633 0.40834 0.6947 0.0
H348 H 0.31658 0.42087 0.76593 0.0
C349 C 0.37795 0.40061 0.71408 0.0
H350 H 0.31665 0.42086 0.69944 0.0
C351 C 0.37791 0.40062 0.75158 0.0
C352 C 0.35625 0.40836 0.77086 0.0
H353 H 0.39544 0.39498 0.70032 0.0
H354 H 0.39537 0.39499 0.76543 0.0
C355 C 0.33363 0.41494 0.7517 0.0
C356 C 0.91567 0.33715 0.21341 0.0
C357 C 0.94205 0.3638 0.19428 0.0
H358 H 0.89531 0.31634 0.2657 0.0
C359 C 0.96813 0.39036 0.21364 0.0
H360 H 0.89521 0.31637 0.19913 0.0
C361 C 0.96819 0.39034 0.25109 0.0
C362 C 0.94217 0.36377 0.27049 0.0
H363 H 0.98882 0.41142 0.19993 0.0
H364 H 0.98891 0.4114 0.26477 0.0
C365 C 0.91573 0.33714 0.25139 0.0
C366 C 0.60816 0.88577 0.7134 0.0
C367 C 0.63273 0.9141 0.69469 0.0
H368 H 0.58623 0.86638 0.76523 0.0
C369 C 0.66108 0.93844 0.71351 0.0
H370 H 0.58628 0.86638 0.69936 0.0
C371 C 0.66106 0.93845 0.75117 0.0
C372 C 0.63268 0.91411 0.76996 0.0
H373 H 0.68077 0.9601 0.69946 0.0
H374 H 0.68073 0.96012 0.76522 0.0
C375 C 0.60814 0.88577 0.75123 0.0
C376 C 0.6813 0.59363 0.2516 0.0
C377 C 0.6603 0.60246 0.27072 0.0
H378 H 0.69681 0.58576 0.19935 0.0
C379 C 0.64063 0.61277 0.25143 0.0
H380 H 0.69682 0.58571 0.26586 0.0
C381 C 0.64063 0.61281 0.21393 0.0
C382 C 0.66029 0.60253 0.19458 0.0
H383 H 0.62456 0.62026 0.26529 0.0
H384 H 0.62455 0.62031 0.20012 0.0
C385 C 0.68129 0.59367 0.21365 0.0
C386 C 0.0489 0.61503 0.71377 0.0
C387 C 0.07346 0.64278 0.69439 0.0
H388 H 0.02927 0.59314 0.76496 0.0
C389 C 0.09861 0.67051 0.71348 0.0
H390 H 0.02931 0.59307 0.70006 0.0
C391 C 0.09859 0.67055 0.75146 0.0
C392 C 0.07342 0.64287 0.77058 0.0
H393 H 0.11792 0.69221 0.69917 0.0
H394 H 0.11788 0.69228 0.76574 0.0
C395 C 0.04888 0.61507 0.75122 0.0
C396 C 0.98184 0.61366 0.21368 0.0
C397 C 0.95181 0.60308 0.19438 0.0
H398 H 1.00547 0.62134 0.26502 0.0
C399 C 0.92191 0.59399 0.21349 0.0
H400 H 1.00544 0.62136 0.19983 0.0
C401 C 0.92192 0.59397 0.25144 0.0
C402 C 0.95184 0.60306 0.27052 0.0
H403 H 0.89842 0.58586 0.19922 0.0
H404 H 0.89845 0.58583 0.26573 0.0
C405 C 0.98185 0.61365 0.25119 0.0
C406 C 0.28698 0.88524 0.75096 0.0
C407 C 0.29067 0.91356 0.76965 0.0
H408 H 0.28955 0.86585 0.69916 0.0
C409 C 0.28658 0.93783 0.75079 0.0
H410 H 0.28953 0.86591 0.76502 0.0
C411 C 0.28658 0.9378 0.71314 0.0
C412 C 0.29068 0.91349 0.69437 0.0
H413 H 0.28851 0.95948 0.76482 0.0
H414 H 0.28852 0.95943 0.69906 0.0
C415 C 0.28698 0.88521 0.71313 0.0
C416 C 0.42984 0.38865 0.25151 0.0
C417 C 0.43042 0.36262 0.27086 0.0
H418 H 0.42935 0.40933 0.2004 0.0
C419 C 0.43111 0.33646 0.25171 0.0
H420 H 0.42939 0.40929 0.26522 0.0
C421 C 0.43108 0.33648 0.21372 0.0
C422 C 0.43037 0.36266 0.19464 0.0
H423 H 0.43159 0.31608 0.26598 0.0
H424 H 0.43155 0.31612 0.1994 0.0
C425 C 0.42981 0.38867 0.21406 0.0
C426 C 0.03263 0.39839 0.71362 0.0
C427 C 0.06224 0.40697 0.69433 0.0
H428 H 0.00932 0.39218 0.7649 0.0
C429 C 0.09169 0.41434 0.71348 0.0
H430 H 0.00936 0.39211 0.69977 0.0
C431 C 0.09166 0.41437 0.75142 0.0
C432 C 0.06219 0.40704 0.77049 0.0
H433 H 0.11484 0.42093 0.69923 0.0
H434 H 0.11479 0.42099 0.76573 0.0
C435 C 0.03261 0.39843 0.75112 0.0
C436 C 0.72735 0.07011 0.251 0.0
C437 C 0.72334 0.09443 0.26986 0.0
H438 H 0.72525 0.04844 0.19928 0.0
C439 C 0.72704 0.12275 0.25117 0.0
H440 H 0.72542 0.04847 0.26504 0.0
C441 C 0.72695 0.12274 0.21334 0.0
C442 C 0.72316 0.09442 0.19459 0.0
H443 H 0.72456 0.14212 0.26523 0.0
H444 H 0.72439 0.14211 0.19936 0.0
C445 C 0.72726 0.0701 0.21335 0.0
C446 C 0.57655 0.6158 0.71391 0.0
C447 C 0.57976 0.64356 0.69453 0.0
H448 H 0.57417 0.59386 0.76511 0.0
C449 C 0.58223 0.67123 0.71362 0.0
H450 H 0.57425 0.59387 0.70021 0.0
C451 C 0.58218 0.67123 0.7516 0.0
C452 C 0.57966 0.64354 0.77072 0.0
H453 H 0.58464 0.69293 0.69931 0.0
H454 H 0.58456 0.69292 0.76588 0.0
C455 C 0.5765 0.61579 0.75137 0.0
C456 C 0.45676 0.21592 0.06949 0.0
C457 C 0.43698 0.19051 0.04449 0.0
H458 H 0.47237 0.26555 0.08897 0.0
C459 C 0.42005 0.19755 0.01715 0.0
H460 H 0.47011 0.21134 0.09092 0.0
C461 C 0.42161 0.22877 0.01585 0.0
C462 C 0.43975 0.25343 0.04217 0.0
H463 H 0.40472 0.17856 -0.0026 0.0
H464 H 0.4074 0.233 -0.00487 0.0
C465 C 0.45793 0.24696 0.0685 0.0
C466 C 0.20685 0.43341 0.57835 0.0
C467 C 0.1897 0.43032 0.54575 0.0
H468 H 0.2496 0.43537 0.60408 0.0
C469 C 0.20422 0.42809 0.51309 0.0
H470 H 0.19647 0.4353 0.604 0.0
C471 C 0.23481 0.42814 0.51314 0.0
C472 C 0.25151 0.43041 0.54584 0.0
H473 H 0.19171 0.42575 0.48749 0.0
H474 H 0.24504 0.42583 0.48757 0.0
C475 C 0.23737 0.43346 0.57839 0.0
C476 C 0.81713 0.22912 0.01585 0.0
C477 C 0.82363 0.25385 0.04206 0.0
H478 H 0.78385 0.17884 -0.00244 0.0
C479 C 0.79897 0.24743 0.06836 0.0
H480 H 0.83558 0.23332 -0.00484 0.0
C481 C 0.76912 0.21637 0.06943 0.0
C482 C 0.76352 0.19089 0.04454 0.0
H483 H 0.8031 0.26607 0.08875 0.0
H484 H 0.75118 0.21183 0.09084 0.0
C485 C 0.78749 0.19788 0.01723 0.0
C486 C 0.59359 0.78002 0.51632 0.0
C487 C 0.57482 0.75503 0.5421 0.0
H488 H 0.611 0.83049 0.49843 0.0
C489 C 0.55607 0.76121 0.56797 0.0
H490 H 0.60825 0.77602 0.49596 0.0
C491 C 0.55729 0.79226 0.56908 0.0
C492 C 0.57767 0.81798 0.54465 0.0
H493 H 0.54114 0.74236 0.58802 0.0
H494 H 0.54347 0.7966 0.59017 0.0
C495 C 0.59519 0.81126 0.51774 0.0
C496 C 0.77628 0.57376 0.07809 0.0
C497 C 0.76215 0.57682 0.04554 0.0
H498 H 0.8172 0.57196 0.10373 0.0
C499 C 0.77884 0.57904 0.01283 0.0
H500 H 0.76406 0.57187 0.10378 0.0
C501 C 0.80943 0.57909 0.0128 0.0
C502 C 0.82397 0.57692 0.04547 0.0
H503 H 0.7686 0.58135 -0.01274 0.0
H504 H 0.82194 0.58144 -0.01279 0.0
C505 C 0.80681 0.57381 0.07806 0.0
C506 C 0.22564 0.81059 0.51766 0.0
C507 C 0.24993 0.81736 0.54454 0.0
H508 H 0.17735 0.77529 0.4959 0.0
C509 C 0.24467 0.79166 0.56896 0.0
H510 H 0.22902 0.82982 0.49837 0.0
C511 C 0.21485 0.76056 0.56786 0.0
C512 C 0.18989 0.75434 0.542 0.0
H513 H 0.26285 0.79603 0.59003 0.0
H514 H 0.21099 0.74173 0.5879 0.0
C515 C 0.19604 0.77932 0.51624 0.0
C516 C 0.80955 0.57881 0.45225 0.0
C517 C 0.82407 0.57667 0.41955 0.0
H518 H 0.76876 0.58107 0.47785 0.0
C519 C 0.80689 0.5736 0.38698 0.0
H520 H 0.82209 0.58113 0.47783 0.0
C521 C 0.77638 0.57357 0.38699 0.0
C522 C 0.76227 0.5766 0.41957 0.0
H523 H 0.81726 0.57177 0.3613 0.0
H524 H 0.76415 0.57172 0.36132 0.0
C525 C 0.77897 0.57878 0.45226 0.0
C526 C 0.19618 0.77964 0.94844 0.0
C527 C 0.18994 0.75462 0.9227 0.0
H528 H 0.22924 0.83017 0.9662 0.0
C529 C 0.21482 0.7608 0.89675 0.0
H530 H 0.17757 0.77565 0.96886 0.0
C531 C 0.24463 0.79189 0.89554 0.0
C532 C 0.24998 0.81763 0.91994 0.0
H533 H 0.21088 0.74193 0.87673 0.0
H534 H 0.26274 0.79623 0.8744 0.0
C535 C 0.22579 0.81091 0.94692 0.0
C536 C 0.45701 0.21574 0.39521 0.0
C537 C 0.43731 0.19027 0.42019 0.0
H538 H 0.47254 0.26541 0.37591 0.0
C539 C 0.42045 0.19723 0.44766 0.0
H540 H 0.47032 0.21123 0.37368 0.0
C541 C 0.422 0.22845 0.44912 0.0
C542 C 0.44005 0.25317 0.42284 0.0
H543 H 0.40519 0.1782 0.4674 0.0
H544 H 0.40784 0.23262 0.46994 0.0
C545 C 0.45817 0.24677 0.39637 0.0
C546 C 0.23449 0.42827 0.95207 0.0
C547 C 0.25123 0.43055 0.91939 0.0
H548 H 0.19135 0.42588 0.97762 0.0
C549 C 0.23712 0.43359 0.88681 0.0
H550 H 0.24469 0.42597 0.97765 0.0
C551 C 0.2066 0.43354 0.88679 0.0
C552 C 0.18941 0.43044 0.91935 0.0
H553 H 0.24938 0.43551 0.86114 0.0
H554 H 0.19624 0.43542 0.86111 0.0
C555 C 0.20389 0.42822 0.95205 0.0
C556 C 0.78787 0.19769 0.44738 0.0
C557 C 0.76388 0.19077 0.4201 0.0
H558 H 0.83597 0.23308 0.46948 0.0
C559 C 0.76947 0.21631 0.39529 0.0
H560 H 0.78423 0.17861 0.46698 0.0
C561 C 0.79932 0.24736 0.39642 0.0
C562 C 0.824 0.25373 0.42268 0.0
H563 H 0.75152 0.21182 0.37391 0.0
H564 H 0.80344 0.26606 0.37608 0.0
C565 C 0.81751 0.22894 0.44881 0.0
C566 C 0.55587 0.7613 0.8969 0.0
C567 C 0.57458 0.75514 0.92286 0.0
H568 H 0.54331 0.79667 0.87456 0.0
C569 C 0.59332 0.78016 0.94863 0.0
H570 H 0.54097 0.74243 0.87685 0.0
C571 C 0.59492 0.81139 0.94712 0.0
C572 C 0.57744 0.81809 0.92013 0.0
H573 H 0.60794 0.77618 0.96905 0.0
H574 H 0.61069 0.83065 0.96643 0.0
C575 C 0.5571 0.79235 0.89571 0.0
C576 C 0.34447 0.96878 0.98089 0.0
C577 C 0.35509 0.98713 0.94854 0.0
H578 H 0.34598 0.97066 0.0386 0.0
C579 C 0.37152 0.02251 0.94988 0.0
H580 H 0.33144 0.94154 0.98074 0.0
C581 C 0.37993 0.03927 -0.01697 0.0
C582 C 0.37208 0.02091 0.01538 0.0
H583 H 0.37956 0.03738 0.92532 0.0
H584 H 0.39433 0.06651 -0.01681 0.0
C585 C 0.35291 0.98554 0.01404 0.0
C586 C 0.35036 0.30989 0.47714 0.0
C587 C 0.34639 0.32497 0.44592 0.0
H588 H 0.34763 0.30808 0.5348 0.0
C589 C 0.32479 0.33854 0.44733 0.0
H590 H 0.36581 0.29812 0.47674 0.0
C591 C 0.31464 0.34462 0.48074 0.0
C592 C 0.32596 0.3369 0.51265 0.0
H593 H 0.32002 0.3491 0.42333 0.0
H594 H 0.30273 0.35993 0.48145 0.0
C595 C 0.33991 0.31567 0.51052 0.0
C596 C 0.04062 0.34524 -0.01482 0.0
C597 C 0.02156 0.33704 0.95325 0.0
H598 H 0.03973 0.35042 0.04249 0.0
C599 C 0.98639 0.31571 0.95548 0.0
H600 H 0.06783 0.36064 -0.01559 0.0
C601 C 0.97015 0.31028 -0.01118 0.0
C602 C 0.98919 0.32579 0.01992 0.0
H603 H 0.97108 0.30777 0.93119 0.0
H604 H 0.94292 0.29839 -0.01081 0.0
C605 C 0.02439 0.33951 0.01856 0.0
C606 C 0.64279 0.98585 0.45028 0.0
C607 C 0.65903 0.02122 0.44894 0.0
H608 H 0.62006 0.94183 0.48358 0.0
C609 C 0.66941 0.03956 0.48131 0.0
H610 H 0.63493 0.97097 0.42572 0.0
C611 C 0.66091 0.0228 0.51445 0.0
C612 C 0.64191 0.98742 0.51578 0.0
H613 H 0.68229 0.06681 0.48115 0.0
H614 H 0.66765 0.03767 0.53901 0.0
C615 C 0.63431 0.96908 0.48343 0.0
C616 C 0.67493 0.69205 0.00854 0.0
C617 C 0.68822 0.67025 0.01079 0.0
H618 H 0.64932 0.70998 0.97486 0.0
C619 C 0.6986 0.66156 0.97886 0.0
H620 H 0.66795 0.70035 0.03282 0.0
C621 C 0.68819 0.66743 0.94549 0.0
C622 C 0.66724 0.68176 0.94415 0.0
H623 H 0.70996 0.64576 0.97965 0.0
H624 H 0.69222 0.65621 0.92159 0.0
C625 C 0.66423 0.69763 0.97521 0.0
C626 C 0.9886 0.66668 0.51994 0.0
C627 C 0.02388 0.68102 0.52127 0.0
H628 H 0.94518 0.64535 0.48577 0.0
C629 C 0.0428 0.69718 0.49031 0.0
H630 H 0.97334 0.65525 0.54379 0.0
C631 C 0.02653 0.69194 0.45701 0.0
C632 C 0.99144 0.67015 0.45467 0.0
H633 H 0.07006 0.70954 0.49068 0.0
H634 H 0.04185 0.70047 0.43276 0.0
C635 C 0.97235 0.66116 0.4866 0.0
C636 C 0.63411 0.96918 0.98111 0.0
C637 C 0.64172 0.98752 0.94876 0.0
H638 H 0.63468 0.97106 0.03881 0.0
C639 C 0.66069 0.0229 0.95009 0.0
H640 H 0.61987 0.94193 0.98095 0.0
C641 C 0.66917 0.03966 -0.01676 0.0
C642 C 0.65877 0.02131 0.0156 0.0
H643 H 0.66744 0.03777 0.92554 0.0
H644 H 0.68203 0.06691 -0.0166 0.0
C645 C 0.64255 0.98594 0.01426 0.0
C646 C 0.67516 0.69194 0.45675 0.0
C647 C 0.68841 0.67012 0.45449 0.0
H648 H 0.64959 0.70991 0.49042 0.0
C649 C 0.6988 0.66143 0.48643 0.0
H650 H 0.66817 0.70024 0.43246 0.0
C651 C 0.68841 0.66731 0.5198 0.0
C652 C 0.66749 0.68167 0.52114 0.0
H653 H 0.71014 0.6456 0.48564 0.0
H654 H 0.69244 0.65609 0.5437 0.0
C655 C 0.66448 0.69754 0.49007 0.0
C656 C 0.02653 0.69208 0.008 0.0
C657 C 0.99143 0.67032 0.01031 0.0
H658 H 0.07007 0.7097 0.97437 0.0
C659 C 0.97235 0.6614 0.97837 0.0
H660 H 0.04182 0.70055 0.03227 0.0
C661 C 0.98862 0.66698 0.94502 0.0
C662 C 0.0239 0.68128 0.94372 0.0
H663 H 0.94518 0.64562 0.97918 0.0
H664 H 0.97335 0.65559 0.92117 0.0
C665 C 0.04281 0.69738 0.97471 0.0
C666 C 0.34476 0.9685 0.48307 0.0
C667 C 0.35522 0.98683 0.51544 0.0
H668 H 0.34645 0.9704 0.42537 0.0
C669 C 0.37153 0.02221 0.51411 0.0
H670 H 0.33182 0.94125 0.48322 0.0
C671 C 0.38 0.03898 0.48096 0.0
C672 C 0.37233 0.02065 0.44861 0.0
H673 H 0.37945 0.03707 0.53867 0.0
H674 H 0.39431 0.06623 0.48082 0.0
C675 C 0.35326 0.98527 0.44993 0.0
C676 C 0.34994 0.31003 -0.01147 0.0
C677 C 0.34608 0.32521 0.01972 0.0
H678 H 0.3471 0.3081 0.93088 0.0
C679 C 0.32454 0.33886 0.0183 0.0
H680 H 0.36533 0.29819 -0.01106 0.0
C681 C 0.31436 0.34489 -0.01511 0.0
C682 C 0.32558 0.33707 0.95299 0.0
H683 H 0.31985 0.34949 0.04228 0.0
H684 H 0.30251 0.36026 -0.01584 0.0
C685 C 0.33945 0.31577 0.95515 0.0
C686 C 0.04101 0.34523 0.47958 0.0
C687 C 0.02193 0.33695 0.51149 0.0
H688 H 0.04015 0.35051 0.42228 0.0
C689 C 0.98677 0.31558 0.50922 0.0
H690 H 0.06823 0.36066 0.48038 0.0
C691 C 0.97055 0.31018 0.47587 0.0
C692 C 0.9896 0.32577 0.4448 0.0
H693 H 0.97145 0.30757 0.53349 0.0
H694 H 0.94332 0.29826 0.47548 0.0
C695 C 0.02481 0.33954 0.44618 0.0
C696 C 0.54395 0.1087 0.09984 0.0
C697 C 0.51659 0.08505 0.12064 0.0
H698 H 0.59487 0.12635 0.08256 0.0
C699 C 0.52116 0.06283 0.14294 0.0
H700 H 0.54127 0.12622 0.08245 0.0
C701 C 0.55161 0.0629 0.14301 0.0
C702 C 0.57842 0.0852 0.12078 0.0
H703 H 0.50081 0.04455 0.15968 0.0
H704 H 0.55373 0.04468 0.1598 0.0
C705 C 0.57464 0.10877 0.09991 0.0
C706 C 0.49152 0.54015 0.52329 0.0
C707 C 0.49397 0.56834 0.54111 0.0
H708 H 0.46132 0.4875 0.51281 0.0
C709 C 0.46465 0.56622 0.55586 0.0
H710 H 0.51356 0.54115 0.51119 0.0
C711 C 0.43448 0.53523 0.55681 0.0
C712 C 0.43343 0.50615 0.54303 0.0
H713 H 0.4658 0.58756 0.56975 0.0
H714 H 0.41311 0.53349 0.57131 0.0
C715 C 0.46158 0.50937 0.52428 0.0
C716 C 0.90304 0.44236 0.05697 0.0
C717 C 0.93038 0.44046 0.04227 0.0
H718 H 0.88393 0.47483 0.07246 0.0
C719 C 0.95621 0.46885 0.02482 0.0
H720 H 0.88277 0.42087 0.07058 0.0
C721 C 0.95693 0.49956 0.02602 0.0
C722 C 0.93178 0.50252 0.04459 0.0
H723 H 0.97737 0.46804 0.01276 0.0
H724 H 0.97856 0.52156 0.01475 0.0
C725 C 0.90373 0.47329 0.0581 0.0
C726 C 0.43917 0.89917 0.5997 0.0
C727 C 0.43532 0.92265 0.62065 0.0
H728 H 0.47261 0.88181 0.58224 0.0
C729 C 0.46205 0.94484 0.64304 0.0
H730 H 0.41901 0.88167 0.58223 0.0
C731 C 0.4925 0.94492 0.64304 0.0
C732 C 0.49715 0.92281 0.62065 0.0
H733 H 0.45987 0.96298 0.6599 0.0
H734 H 0.51279 0.96312 0.65991 0.0
C735 C 0.46986 0.89925 0.5997 0.0
C736 C 0.55165 0.49904 0.02637 0.0
C737 C 0.57985 0.50209 0.04485 0.0
H738 H 0.49965 0.46742 0.0133 0.0
C739 C 0.57875 0.47291 0.05838 0.0
H740 H 0.55194 0.521 0.01509 0.0
C741 C 0.54853 0.44195 0.05735 0.0
C742 C 0.51922 0.43996 0.04275 0.0
H743 H 0.60017 0.47453 0.07266 0.0
H744 H 0.54739 0.4205 0.07098 0.0
C745 C 0.52167 0.4683 0.02528 0.0
C746 C 0.05792 0.50863 0.52438 0.0
C747 C 0.08291 0.50554 0.54315 0.0
H748 H 0.03754 0.54024 0.51121 0.0
C749 C 0.11089 0.5347 0.55691 0.0
H750 H 0.03635 0.4867 0.51292 0.0
C751 C 0.11159 0.56562 0.55591 0.0
C752 C 0.08432 0.56761 0.54112 0.0
H753 H 0.13057 0.53305 0.57142 0.0
H754 H 0.13175 0.58702 0.56979 0.0
C755 C 0.05864 0.53935 0.52334 0.0
C756 C 0.95729 0.49954 0.43873 0.0
C757 C 0.93207 0.50246 0.42023 0.0
H758 H 0.9778 0.46807 0.45192 0.0
C759 C 0.90401 0.4732 0.40678 0.0
H760 H 0.97893 0.52156 0.44995 0.0
C761 C 0.90335 0.44229 0.40791 0.0
C762 C 0.93074 0.44042 0.42254 0.0
H763 H 0.88416 0.47472 0.39248 0.0
H764 H 0.88306 0.42077 0.39434 0.0
C765 C 0.9566 0.46884 0.43993 0.0
C766 C 0.46975 0.89938 0.86465 0.0
C767 C 0.49706 0.92293 0.84371 0.0
H768 H 0.4189 0.88184 0.88207 0.0
C769 C 0.49244 0.94504 0.82129 0.0
H770 H 0.47249 0.88195 0.88214 0.0
C771 C 0.46199 0.94497 0.82125 0.0
C772 C 0.43525 0.9228 0.84362 0.0
H773 H 0.51274 0.96322 0.80443 0.0
H774 H 0.45984 0.96312 0.80436 0.0
C775 C 0.43907 0.89932 0.86461 0.0
C776 C 0.52193 0.46809 0.44018 0.0
C777 C 0.51946 0.43976 0.42268 0.0
H778 H 0.55218 0.52079 0.45036 0.0
C779 C 0.54877 0.44178 0.408 0.0
H780 H 0.49992 0.46719 0.45223 0.0
C781 C 0.57896 0.47276 0.40694 0.0
C782 C 0.58006 0.50193 0.42051 0.0
H783 H 0.54761 0.42034 0.39435 0.0
H784 H 0.60036 0.47439 0.3926 0.0
C785 C 0.55189 0.49885 0.43905 0.0
C786 C 0.11071 0.53484 0.90799 0.0
C787 C 0.08269 0.50569 0.92169 0.0
H788 H 0.13164 0.58719 0.89521 0.0
C789 C 0.0577 0.50878 0.94044 0.0
H790 H 0.13038 0.53319 0.8935 0.0
C791 C 0.05847 0.53952 0.94155 0.0
C792 C 0.0842 0.5678 0.92382 0.0
H793 H 0.0361 0.48685 0.95186 0.0
H794 H 0.03738 0.54042 0.95366 0.0
C795 C 0.11145 0.56579 0.90905 0.0
C796 C 0.57496 0.10874 0.36453 0.0
C797 C 0.57879 0.08522 0.34365 0.0
H798 H 0.54153 0.12615 0.38192 0.0
C799 C 0.55205 0.06298 0.3213 0.0
H800 H 0.59513 0.12627 0.38196 0.0
C801 C 0.5216 0.06291 0.32128 0.0
C802 C 0.51696 0.08507 0.3436 0.0
H803 H 0.55421 0.0448 0.30449 0.0
H804 H 0.5013 0.04468 0.30445 0.0
C805 C 0.54427 0.10867 0.36451 0.0
C806 C 0.4644 0.56634 0.90943 0.0
C807 C 0.49372 0.56847 0.92422 0.0
H808 H 0.41285 0.53359 0.89402 0.0
C809 C 0.49125 0.54032 0.94214 0.0
H810 H 0.46555 0.58765 0.89546 0.0
C811 C 0.4613 0.50955 0.94122 0.0
C812 C 0.43315 0.5063 0.92243 0.0
H813 H 0.51329 0.54134 0.95427 0.0
H814 H 0.46103 0.4877 0.95276 0.0
C815 C 0.43422 0.53536 0.90855 0.0
loop_
_geom_bond_atom_site_label_1
_geom_bond_atom_site_label_2
_geom_bond_distance
_geom_bond_site_symmetry_2
_ccdc_geom_bond_type
Zn0 O3 2.031 . S
Zn0 O5 2.049 . S
Zn0 O10 2.067 . S
Zn1 O2 1.962 . S
Zn1 O4 1.986 . S
Zn1 O6 1.996 . S
Zn1 O9 1.943 . S
O2 Zn1 1.962 . S
O2 C7 1.254 . S
O3 Zn0 2.031 . S
O3 C7 1.269 . S
O4 Zn1 1.986 . S
O4 C11 1.262 . S
O5 Zn0 2.049 . S
O5 C13 1.260 . S
O6 Zn1 1.996 . S
O6 C13 1.257 . S
C7 O2 1.254 . S
C7 O3 1.269 . S
C8 O9 1.249 . S
C8 O10 1.270 . S
O9 Zn1 1.943 . S
O9 C8 1.249 . S
O10 Zn0 2.067 . S
O10 C8 1.270 . S
C11 O4 1.262 . S
C11 O12 1.232 . S
O12 C11 1.232 . S
C13 O5 1.260 . S
C13 O6 1.257 . S
Zn14 O17 2.031 . S
Zn14 O19 2.049 . S
Zn14 O24 2.067 . S
Zn15 O16 1.962 . S
Zn15 O18 1.986 . S
Zn15 O20 1.996 . S
Zn15 O23 1.943 . S
O16 Zn15 1.962 . S
O16 C21 1.254 . S
O17 Zn14 2.031 . S
O17 C21 1.269 . S
O18 Zn15 1.986 . S
O18 C25 1.262 . S
O19 Zn14 2.049 . S
O19 C27 1.260 . S
O20 Zn15 1.996 . S
O20 C27 1.257 . S
C21 O16 1.254 . S
C21 O17 1.269 . S
C22 O23 1.249 . S
C22 O24 1.270 . S
O23 Zn15 1.943 . S
O23 C22 1.249 . S
O24 Zn14 2.067 . S
O24 C22 1.270 . S
C25 O18 1.262 . S
C25 O26 1.232 . S
O26 C25 1.232 . S
C27 O19 1.260 . S
C27 O20 1.257 . S
Zn28 O31 2.031 . S
Zn28 O33 2.049 . S
Zn28 O38 2.067 . S
Zn29 O30 1.962 . S
Zn29 O32 1.986 . S
Zn29 O34 1.996 . S
Zn29 O37 1.943 . S
O30 Zn29 1.962 . S
O30 C35 1.254 . S
O31 Zn28 2.031 . S
O31 C35 1.269 . S
O32 Zn29 1.986 . S
O32 C39 1.262 . S
O33 Zn28 2.049 . S
O33 C41 1.260 . S
O34 Zn29 1.996 . S
O34 C41 1.257 . S
C35 O30 1.254 . S
C35 O31 1.269 . S
C36 O37 1.249 . S
C36 O38 1.270 . S
O37 Zn29 1.943 . S
O37 C36 1.249 . S
O38 Zn28 2.067 . S
O38 C36 1.270 . S
C39 O32 1.262 . S
C39 O40 1.232 . S
O40 C39 1.232 . S
C41 O33 1.260 . S
C41 O34 1.257 . S
Zn42 O45 2.031 . S
Zn42 O47 2.049 . S
Zn42 O52 2.067 . S
Zn43 O44 1.962 . S
Zn43 O46 1.986 . S
Zn43 O48 1.996 . S
Zn43 O51 1.943 . S
O44 Zn43 1.962 . S
O44 C49 1.254 . S
O45 Zn42 2.031 . S
O45 C49 1.269 . S
O46 Zn43 1.986 . S
O46 C53 1.262 . S
O47 Zn42 2.049 . S
O47 C55 1.260 . S
O48 Zn43 1.996 . S
O48 C55 1.257 . S
C49 O44 1.254 . S
C49 O45 1.269 . S
C50 O51 1.249 . S
C50 O52 1.270 . S
O51 Zn43 1.943 . S
O51 C50 1.249 . S
O52 Zn42 2.067 . S
O52 C50 1.270 . S
C53 O46 1.262 . S
C53 O54 1.232 . S
O54 C53 1.232 . S
C55 O47 1.260 . S
C55 O48 1.257 . S
Zn56 O59 2.031 . S
Zn56 O61 2.049 . S
Zn56 O66 2.067 . S
Zn57 O58 1.962 . S
Zn57 O60 1.986 . S
Zn57 O62 1.996 . S
Zn57 O65 1.943 . S
O58 Zn57 1.962 . S
O58 C63 1.254 . S
O59 Zn56 2.031 . S
O59 C63 1.269 . S
O60 Zn57 1.986 . S
O60 C67 1.262 . S
O61 Zn56 2.049 . S
O61 C69 1.260 . S
O62 Zn57 1.996 . S
O62 C69 1.257 . S
C63 O58 1.254 . S
C63 O59 1.269 . S
C64 O65 1.249 . S
C64 O66 1.270 . S
O65 Zn57 1.943 . S
O65 C64 1.249 . S
O66 Zn56 2.067 . S
O66 C64 1.270 . S
C67 O60 1.262 . S
C67 O68 1.232 . S
O68 C67 1.232 . S
C69 O61 1.260 . S
C69 O62 1.257 . S
Zn70 O73 2.031 . S
Zn70 O75 2.049 . S
Zn70 O80 2.067 . S
Zn71 O72 1.962 . S
Zn71 O74 1.986 . S
Zn71 O76 1.996 . S
Zn71 O79 1.943 . S
O72 Zn71 1.962 . S
O72 C77 1.254 . S
O73 Zn70 2.031 . S
O73 C77 1.269 . S
O74 Zn71 1.986 . S
O74 C81 1.262 . S
O75 Zn70 2.049 . S
O75 C83 1.260 . S
O76 Zn71 1.996 . S
O76 C83 1.257 . S
C77 O72 1.254 . S
C77 O73 1.269 . S
C78 O79 1.249 . S
C78 O80 1.270 . S
O79 Zn71 1.943 . S
O79 C78 1.249 . S
O80 Zn70 2.067 . S
O80 C78 1.270 . S
C81 O74 1.262 . S
C81 O82 1.232 . S
O82 C81 1.232 . S
C83 O75 1.260 . S
C83 O76 1.257 . S
Zn84 O87 2.031 . S
Zn84 O89 2.049 . S
Zn84 O94 2.067 . S
Zn85 O86 1.962 . S
Zn85 O88 1.986 . S
Zn85 O90 1.996 . S
Zn85 O93 1.943 . S
O86 Zn85 1.962 . S
O86 C91 1.254 . S
O87 Zn84 2.031 . S
O87 C91 1.269 . S
O88 Zn85 1.986 . S
O88 C95 1.262 . S
O89 Zn84 2.049 . S
O89 C97 1.260 . S
O90 Zn85 1.996 . S
O90 C97 1.257 . S
C91 O86 1.254 . S
C91 O87 1.269 . S
C92 O93 1.249 . S
C92 O94 1.270 . S
O93 Zn85 1.943 . S
O93 C92 1.249 . S
O94 Zn84 2.067 . S
O94 C92 1.270 . S
C95 O88 1.262 . S
C95 O96 1.232 . S
O96 C95 1.232 . S
C97 O89 1.260 . S
C97 O90 1.257 . S
Zn98 O101 2.031 . S
Zn98 O103 2.049 . S
Zn98 O108 2.067 . S
Zn99 O100 1.962 . S
Zn99 O102 1.986 . S
Zn99 O104 1.996 . S
Zn99 O107 1.943 . S
O100 Zn99 1.962 . S
O100 C105 1.254 . S
O101 Zn98 2.031 . S
O101 C105 1.269 . S
O102 Zn99 1.986 . S
O102 C109 1.262 . S
O103 Zn98 2.049 . S
O103 C111 1.260 . S
O104 Zn99 1.996 . S
O104 C111 1.257 . S
C105 O100 1.254 . S
C105 O101 1.269 . S
C106 O107 1.249 . S
C106 O108 1.270 . S
O107 Zn99 1.943 . S
O107 C106 1.249 . S
O108 Zn98 2.067 . S
O108 C106 1.270 . S
C109 O102 1.262 . S
C109 O110 1.232 . S
O110 C109 1.232 . S
C111 O103 1.260 . S
C111 O104 1.257 . S
Zn112 O115 2.031 . S
Zn112 O117 2.049 . S
Zn112 O122 2.067 . S
Zn113 O114 1.962 . S
Zn113 O116 1.986 . S
Zn113 O118 1.996 . S
Zn113 O121 1.943 . S
O114 Zn113 1.962 . S
O114 C119 1.254 . S
O115 Zn112 2.031 . S
O115 C119 1.269 . S
O116 Zn113 1.986 . S
O116 C123 1.262 . S
O117 Zn112 2.049 . S
O117 C125 1.260 . S
O118 Zn113 1.996 . S
O118 C125 1.257 . S
C119 O114 1.254 . S
C119 O115 1.269 . S
C120 O121 1.249 . S
C120 O122 1.270 . S
O121 Zn113 1.943 . S
O121 C120 1.249 . S
O122 Zn112 2.067 . S
O122 C120 1.270 . S
C123 O116 1.262 . S
C123 O124 1.232 . S
O124 C123 1.232 . S
C125 O117 1.260 . S
C125 O118 1.257 . S
Zn126 O129 2.031 . S
Zn126 O131 2.049 . S
Zn126 O136 2.067 . S
Zn127 O128 1.962 . S
Zn127 O130 1.986 . S
Zn127 O132 1.996 . S
Zn127 O135 1.943 . S
O128 Zn127 1.962 . S
O128 C133 1.254 . S
O129 Zn126 2.031 . S
O129 C133 1.269 . S
O130 Zn127 1.986 . S
O130 C137 1.262 . S
O131 Zn126 2.049 . S
O131 C139 1.260 . S
O132 Zn127 1.996 . S
O132 C139 1.257 . S
C133 O128 1.254 . S
C133 O129 1.269 . S
C134 O135 1.249 . S
C134 O136 1.270 . S
O135 Zn127 1.943 . S
O135 C134 1.249 . S
O136 Zn126 2.067 . S
O136 C134 1.270 . S
C137 O130 1.262 . S
C137 O138 1.232 . S
O138 C137 1.232 . S
C139 O131 1.260 . S
C139 O132 1.257 . S
Zn140 O143 2.031 . S
Zn140 O145 2.049 . S
Zn140 O150 2.067 . S
Zn141 O142 1.962 . S
Zn141 O144 1.986 . S
Zn141 O146 1.996 . S
Zn141 O149 1.943 . S
O142 Zn141 1.962 . S
O142 C147 1.254 . S
O143 Zn140 2.031 . S
O143 C147 1.269 . S
O144 Zn141 1.986 . S
O144 C151 1.262 . S
O145 Zn140 2.049 . S
O145 C153 1.260 . S
O146 Zn141 1.996 . S
O146 C153 1.257 . S
C147 O142 1.254 . S
C147 O143 1.269 . S
C148 O149 1.249 . S
C148 O150 1.270 . S
O149 Zn141 1.943 . S
O149 C148 1.249 . S
O150 Zn140 2.067 . S
O150 C148 1.270 . S
C151 O144 1.262 . S
C151 O152 1.232 . S
O152 C151 1.232 . S
C153 O145 1.260 . S
C153 O146 1.257 . S
Zn154 O157 2.031 . S
Zn154 O159 2.049 . S
Zn154 O164 2.067 . S
Zn155 O156 1.962 . S
Zn155 O158 1.986 . S
Zn155 O160 1.996 . S
Zn155 O163 1.943 . S
O156 Zn155 1.962 . S
O156 C161 1.254 . S
O157 Zn154 2.031 . S
O157 C161 1.269 . S
O158 Zn155 1.986 . S
O158 C165 1.262 . S
O159 Zn154 2.049 . S
O159 C167 1.260 . S
O160 Zn155 1.996 . S
O160 C167 1.257 . S
C161 O156 1.254 . S
C161 O157 1.269 . S
C162 O163 1.249 . S
C162 O164 1.270 . S
O163 Zn155 1.943 . S
O163 C162 1.249 . S
O164 Zn154 2.067 . S
O164 C162 1.270 . S
C165 O158 1.262 . S
C165 O166 1.232 . S
O166 C165 1.232 . S
C167 O159 1.260 . S
C167 O160 1.257 . S
Zn168 O171 2.031 . S
Zn168 O173 2.049 . S
Zn168 O178 2.067 . S
Zn169 O170 1.962 . S
Zn169 O172 1.986 . S
Zn169 O174 1.996 . S
Zn169 O177 1.943 . S
O170 Zn169 1.962 . S
O170 C175 1.254 . S
O171 Zn168 2.031 . S
O171 C175 1.269 . S
O172 Zn169 1.986 . S
O172 C179 1.262 . S
O173 Zn168 2.049 . S
O173 C181 1.260 . S
O174 Zn169 1.996 . S
O174 C181 1.257 . S
C175 O170 1.254 . S
C175 O171 1.269 . S
C176 O177 1.249 . S
C176 O178 1.270 . S
O177 Zn169 1.943 . S
O177 C176 1.249 . S
O178 Zn168 2.067 . S
O178 C176 1.270 . S
C179 O172 1.262 . S
C179 O180 1.232 . S
O180 C179 1.232 . S
C181 O173 1.260 . S
C181 O174 1.257 . S
Zn182 O185 2.031 . S
Zn182 O187 2.049 . S
Zn182 O192 2.067 . S
Zn183 O184 1.962 . S
Zn183 O186 1.986 . S
Zn183 O188 1.996 . S
Zn183 O191 1.943 . S
O184 Zn183 1.962 . S
O184 C189 1.254 . S
O185 Zn182 2.031 . S
O185 C189 1.269 . S
O186 Zn183 1.986 . S
O186 C193 1.262 . S
O187 Zn182 2.049 . S
O187 C195 1.260 . S
O188 Zn183 1.996 . S
O188 C195 1.257 . S
C189 O184 1.254 . S
C189 O185 1.269 . S
C190 O191 1.249 . S
C190 O192 1.270 . S
O191 Zn183 1.943 . S
O191 C190 1.249 . S
O192 Zn182 2.067 . S
O192 C190 1.270 . S
C193 O186 1.262 . S
C193 O194 1.232 . S
O194 C193 1.232 . S
C195 O187 1.260 . S
C195 O188 1.257 . S
Zn196 O199 2.031 . S
Zn196 O201 2.049 . S
Zn196 O206 2.067 . S
Zn197 O198 1.962 . S
Zn197 O200 1.986 . S
Zn197 O202 1.996 . S
Zn197 O205 1.943 . S
O198 Zn197 1.962 . S
O198 C203 1.254 . S
O199 Zn196 2.031 . S
O199 C203 1.269 . S
O200 Zn197 1.986 . S
O200 C207 1.262 . S
O201 Zn196 2.049 . S
O201 C209 1.260 . S
O202 Zn197 1.996 . S
O202 C209 1.257 . S
C203 O198 1.254 . S
C203 O199 1.269 . S
C204 O205 1.249 . S
C204 O206 1.270 . S
O205 Zn197 1.943 . S
O205 C204 1.249 . S
O206 Zn196 2.067 . S
O206 C204 1.270 . S
C207 O200 1.262 . S
C207 O208 1.232 . S
O208 C207 1.232 . S
C209 O201 1.260 . S
C209 O202 1.257 . S
Zn210 O213 2.031 . S
Zn210 O215 2.049 . S
Zn210 O220 2.067 . S
Zn211 O212 1.962 . S
Zn211 O214 1.986 . S
Zn211 O216 1.996 . S
Zn211 O219 1.943 . S
O212 Zn211 1.962 . S
O212 C217 1.254 . S
O213 Zn210 2.031 . S
O213 C217 1.269 . S
O214 Zn211 1.986 . S
O214 C221 1.262 . S
O215 Zn210 2.049 . S
O215 C223 1.260 . S
O216 Zn211 1.996 . S
O216 C223 1.257 . S
C217 O212 1.254 . S
C217 O213 1.269 . S
C218 O219 1.249 . S
C218 O220 1.270 . S
O219 Zn211 1.943 . S
O219 C218 1.249 . S
O220 Zn210 2.067 . S
O220 C218 1.270 . S
C221 O214 1.262 . S
C221 O222 1.232 . S
O222 C221 1.232 . S
C223 O215 1.260 . S
C223 O216 1.257 . S
Zn224 O227 2.031 . S
Zn224 O229 2.049 . S
Zn224 O234 2.067 . S
Zn225 O226 1.962 . S
Zn225 O228 1.986 . S
Zn225 O230 1.996 . S
Zn225 O233 1.943 . S
O226 Zn225 1.962 . S
O226 C231 1.254 . S
O227 Zn224 2.031 . S
O227 C231 1.269 . S
O228 Zn225 1.986 . S
O228 C235 1.262 . S
O229 Zn224 2.049 . S
O229 C237 1.260 . S
O230 Zn225 1.996 . S
O230 C237 1.257 . S
C231 O226 1.254 . S
C231 O227 1.269 . S
C232 O233 1.249 . S
C232 O234 1.270 . S
O233 Zn225 1.943 . S
O233 C232 1.249 . S
O234 Zn224 2.067 . S
O234 C232 1.270 . S
C235 O228 1.262 . S
C235 O236 1.232 . S
O236 C235 1.232 . S
C237 O229 1.260 . S
C237 O230 1.257 . S
Zn238 O241 2.031 . S
Zn238 O243 2.049 . S
Zn238 O248 2.067 . S
Zn239 O240 1.962 . S
Zn239 O242 1.986 . S
Zn239 O244 1.996 . S
Zn239 O247 1.943 . S
O240 Zn239 1.962 . S
O240 C245 1.254 . S
O241 Zn238 2.031 . S
O241 C245 1.269 . S
O242 Zn239 1.986 . S
O242 C249 1.262 . S
O243 Zn238 2.049 . S
O243 C251 1.260 . S
O244 Zn239 1.996 . S
O244 C251 1.257 . S
C245 O240 1.254 . S
C245 O241 1.269 . S
C246 O247 1.249 . S
C246 O248 1.270 . S
O247 Zn239 1.943 . S
O247 C246 1.249 . S
O248 Zn238 2.067 . S
O248 C246 1.270 . S
C249 O242 1.262 . S
C249 O250 1.232 . S
O250 C249 1.232 . S
C251 O243 1.260 . S
C251 O244 1.257 . S
Zn252 O255 2.031 . S
Zn252 O257 2.049 . S
Zn252 O262 2.067 . S
Zn253 O254 1.962 . S
Zn253 O256 1.986 . S
Zn253 O258 1.996 . S
Zn253 O261 1.943 . S
O254 Zn253 1.962 . S
O254 C259 1.254 . S
O255 Zn252 2.031 . S
O255 C259 1.269 . S
O256 Zn253 1.986 . S
O256 C263 1.262 . S
O257 Zn252 2.049 . S
O257 C265 1.260 . S
O258 Zn253 1.996 . S
O258 C265 1.257 . S
C259 O254 1.254 . S
C259 O255 1.269 . S
C260 O261 1.249 . S
C260 O262 1.270 . S
O261 Zn253 1.943 . S
O261 C260 1.249 . S
O262 Zn252 2.067 . S
O262 C260 1.270 . S
C263 O256 1.262 . S
C263 O264 1.232 . S
O264 C263 1.232 . S
C265 O257 1.260 . S
C265 O258 1.257 . S
Zn266 O269 2.031 . S
Zn266 O271 2.049 . S
Zn266 O276 2.067 . S
Zn267 O268 1.962 . S
Zn267 O270 1.986 . S
Zn267 O272 1.996 . S
Zn267 O275 1.943 . S
O268 Zn267 1.962 . S
O268 C273 1.254 . S
O269 Zn266 2.031 . S
O269 C273 1.269 . S
O270 Zn267 1.986 . S
O270 C277 1.262 . S
O271 Zn266 2.049 . S
O271 C279 1.260 . S
O272 Zn267 1.996 . S
O272 C279 1.257 . S
C273 O268 1.254 . S
C273 O269 1.269 . S
C274 O275 1.249 . S
C274 O276 1.270 . S
O275 Zn267 1.943 . S
O275 C274 1.249 . S
O276 Zn266 2.067 . S
O276 C274 1.270 . S
C277 O270 1.262 . S
C277 O278 1.232 . S
O278 C277 1.232 . S
C279 O271 1.260 . S
C279 O272 1.257 . S
Zn280 O283 2.031 . S
Zn280 O285 2.049 . S
Zn280 O290 2.067 . S
Zn281 O282 1.962 . S
Zn281 O284 1.986 . S
Zn281 O286 1.996 . S
Zn281 O289 1.943 . S
O282 Zn281 1.962 . S
O282 C287 1.254 . S
O283 Zn280 2.031 . S
O283 C287 1.269 . S
O284 Zn281 1.986 . S
O284 C291 1.262 . S
O285 Zn280 2.049 . S
O285 C293 1.260 . S
O286 Zn281 1.996 . S
O286 C293 1.257 . S
C287 O282 1.254 . S
C287 O283 1.269 . S
C288 O289 1.249 . S
C288 O290 1.270 . S
O289 Zn281 1.943 . S
O289 C288 1.249 . S
O290 Zn280 2.067 . S
O290 C288 1.270 . S
C291 O284 1.262 . S
C291 O292 1.232 . S
O292 C291 1.232 . S
C293 O285 1.260 . S
C293 O286 1.257 . S
Zn294 O297 2.031 . S
Zn294 O299 2.049 . S
Zn294 O304 2.067 . S
Zn295 O296 1.962 . S
Zn295 O298 1.986 . S
Zn295 O300 1.996 . S
Zn295 O303 1.943 . S
O296 Zn295 1.962 . S
O296 C301 1.254 . S
O297 Zn294 2.031 . S
O297 C301 1.269 . S
O298 Zn295 1.986 . S
O298 C305 1.262 . S
O299 Zn294 2.049 . S
O299 C307 1.260 . S
O300 Zn295 1.996 . S
O300 C307 1.257 . S
C301 O296 1.254 . S
C301 O297 1.269 . S
C302 O303 1.249 . S
C302 O304 1.270 . S
O303 Zn295 1.943 . S
O303 C302 1.249 . S
O304 Zn294 2.067 . S
O304 C302 1.270 . S
C305 O298 1.262 . S
C305 O306 1.232 . S
O306 C305 1.232 . S
C307 O299 1.260 . S
C307 O300 1.257 . S
Zn308 O311 2.031 . S
Zn308 O313 2.049 . S
Zn308 O318 2.067 . S
Zn309 O310 1.962 . S
Zn309 O312 1.986 . S
Zn309 O314 1.996 . S
Zn309 O317 1.943 . S
O310 Zn309 1.962 . S
O310 C315 1.254 . S
O311 Zn308 2.031 . S
O311 C315 1.269 . S
O312 Zn309 1.986 . S
O312 C319 1.262 . S
O313 Zn308 2.049 . S
O313 C321 1.260 . S
O314 Zn309 1.996 . S
O314 C321 1.257 . S
C315 O310 1.254 . S
C315 O311 1.269 . S
C316 O317 1.249 . S
C316 O318 1.270 . S
O317 Zn309 1.943 . S
O317 C316 1.249 . S
O318 Zn308 2.067 . S
O318 C316 1.270 . S
C319 O312 1.262 . S
C319 O320 1.232 . S
O320 C319 1.232 . S
C321 O313 1.260 . S
C321 O314 1.257 . S
Zn322 O325 2.031 . S
Zn322 O327 2.049 . S
Zn322 O332 2.067 . S
Zn323 O324 1.962 . S
Zn323 O326 1.986 . S
Zn323 O328 1.996 . S
Zn323 O331 1.943 . S
O324 Zn323 1.962 . S
O324 C329 1.254 . S
O325 Zn322 2.031 . S
O325 C329 1.269 . S
O326 Zn323 1.986 . S
O326 C333 1.262 . S
O327 Zn322 2.049 . S
O327 C335 1.260 . S
O328 Zn323 1.996 . S
O328 C335 1.257 . S
C329 O324 1.254 . S
C329 O325 1.269 . S
C330 O331 1.249 . S
C330 O332 1.270 . S
O331 Zn323 1.943 . S
O331 C330 1.249 . S
O332 Zn322 2.067 . S
O332 C330 1.270 . S
C333 O326 1.262 . S
C333 O334 1.232 . S
O334 C333 1.232 . S
C335 O327 1.260 . S
C335 O328 1.257 . S
C336 C337 1.387 . S
C336 H340 0.950 . S
C336 C345 1.390 . S
C337 C336 1.387 . S
C337 C339 1.387 . S
H338 C345 0.950 . S
C339 C337 1.387 . S
C339 C341 1.390 . S
C339 H343 0.950 . S
H340 C336 0.950 . S
C341 C339 1.390 . S
C341 C342 1.387 . S
C341 H344 0.950 . S
C342 C341 1.387 . S
C342 C345 1.387 . S
H343 C339 0.950 . S
H344 C341 0.950 . S
C345 C336 1.390 . S
C345 H338 0.950 . S
C345 C342 1.387 . S
C346 C347 1.387 . S
C346 H350 0.950 . S
C346 C355 1.390 . S
C347 C346 1.387 . S
C347 C349 1.387 . S
H348 C355 0.950 . S
C349 C347 1.387 . S
C349 C351 1.390 . S
C349 H353 0.950 . S
H350 C346 0.950 . S
C351 C349 1.390 . S
C351 C352 1.387 . S
C351 H354 0.950 . S
C352 C351 1.387 . S
C352 C355 1.387 . S
H353 C349 0.950 . S
H354 C351 0.950 . S
C355 C346 1.390 . S
C355 H348 0.950 . S
C355 C352 1.387 . S
C356 C357 1.387 . S
C356 H360 0.950 . S
C356 C365 1.390 . S
C357 C356 1.387 . S
C357 C359 1.387 . S
H358 C365 0.950 . S
C359 C357 1.387 . S
C359 C361 1.390 . S
C359 H363 0.950 . S
H360 C356 0.950 . S
C361 C359 1.390 . S
C361 C362 1.387 . S
C361 H364 0.950 . S
C362 C361 1.387 . S
C362 C365 1.387 . S
H363 C359 0.950 . S
H364 C361 0.950 . S
C365 C356 1.390 . S
C365 H358 0.950 . S
C365 C362 1.387 . S
C366 C367 1.387 . S
C366 H370 0.950 . S
C366 C375 1.390 . S
C367 C366 1.387 . S
C367 C369 1.387 . S
H368 C375 0.950 . S
C369 C367 1.387 . S
C369 C371 1.390 . S
C369 H373 0.950 . S
H370 C366 0.950 . S
C371 C369 1.390 . S
C371 C372 1.387 . S
C371 H374 0.950 . S
C372 C371 1.387 . S
C372 C375 1.387 . S
H373 C369 0.950 . S
H374 C371 0.950 . S
C375 C366 1.390 . S
C375 H368 0.950 . S
C375 C372 1.387 . S
C376 C377 1.387 . S
C376 H380 0.950 . S
C376 C385 1.390 . S
C377 C376 1.387 . S
C377 C379 1.387 . S
H378 C385 0.950 . S
C379 C377 1.387 . S
C379 C381 1.390 . S
C379 H383 0.950 . S
H380 C376 0.950 . S
C381 C379 1.390 . S
C381 C382 1.387 . S
C381 H384 0.950 . S
C382 C381 1.387 . S
C382 C385 1.387 . S
H383 C379 0.950 . S
H384 C381 0.950 . S
C385 C376 1.390 . S
C385 H378 0.950 . S
C385 C382 1.387 . S
C386 C387 1.387 . S
C386 H390 0.950 . S
C386 C395 1.390 . S
C387 C386 1.387 . S
C387 C389 1.387 . S
H388 C395 0.950 . S
C389 C387 1.387 . S
C389 C391 1.390 . S
C389 H393 0.950 . S
H390 C386 0.950 . S
C391 C389 1.390 . S
C391 C392 1.387 . S
C391 H394 0.950 . S
C392 C391 1.387 . S
C392 C395 1.387 . S
H393 C389 0.950 . S
H394 C391 0.950 . S
C395 C386 1.390 . S
C395 H388 0.950 . S
C395 C392 1.387 . S
C396 C397 1.387 . S
C396 H400 0.950 . S
C396 C405 1.390 . S
C397 C396 1.387 . S
C397 C399 1.387 . S
H398 C405 0.950 . S
C399 C397 1.387 . S
C399 C401 1.390 . S
C399 H403 0.950 . S
H400 C396 0.950 . S
C401 C399 1.390 . S
C401 C402 1.387 . S
C401 H404 0.950 . S
C402 C401 1.387 . S
C402 C405 1.387 . S
H403 C399 0.950 . S
H404 C401 0.950 . S
C405 C396 1.390 . S
C405 H398 0.950 . S
C405 C402 1.387 . S
C406 C407 1.387 . S
C406 H410 0.950 . S
C406 C415 1.390 . S
C407 C406 1.387 . S
C407 C409 1.387 . S
H408 C415 0.950 . S
C409 C407 1.387 . S
C409 C411 1.390 . S
C409 H413 0.950 . S
H410 C406 0.950 . S
C411 C409 1.390 . S
C411 C412 1.387 . S
C411 H414 0.950 . S
C412 C411 1.387 . S
C412 C415 1.387 . S
H413 C409 0.950 . S
H414 C411 0.950 . S
C415 C406 1.390 . S
C415 H408 0.950 . S
C415 C412 1.387 . S
C416 C417 1.387 . S
C416 H420 0.950 . S
C416 C425 1.390 . S
C417 C416 1.387 . S
C417 C419 1.387 . S
H418 C425 0.950 . S
C419 C417 1.387 . S
C419 C421 1.390 . S
C419 H423 0.950 . S
H420 C416 0.950 . S
C421 C419 1.390 . S
C421 C422 1.387 . S
C421 H424 0.950 . S
C422 C421 1.387 . S
C422 C425 1.387 . S
H423 C419 0.950 . S
H424 C421 0.950 . S
C425 C416 1.390 . S
C425 H418 0.950 . S
C425 C422 1.387 . S
C426 C427 1.387 . S
C426 H430 0.950 . S
C426 C435 1.390 . S
C427 C426 1.387 . S
C427 C429 1.387 . S
H428 C435 0.950 . S
C429 C427 1.387 . S
C429 C431 1.390 . S
C429 H433 0.950 . S
H430 C426 0.950 . S
C431 C429 1.390 . S
C431 C432 1.387 . S
C431 H434 0.950 . S
C432 C431 1.387 . S
C432 C435 1.387 . S
H433 C429 0.950 . S
H434 C431 0.950 . S
C435 C426 1.390 . S
C435 H428 0.950 . S
C435 C432 1.387 . S
C436 C437 1.387 . S
C436 H440 0.950 . S
C436 C445 1.390 . S
C437 C436 1.387 . S
C437 C439 1.387 . S
H438 C445 0.950 . S
C439 C437 1.387 . S
C439 C441 1.390 . S
C439 H443 0.950 . S
H440 C436 0.950 . S
C441 C439 1.390 . S
C441 C442 1.387 . S
C441 H444 0.950 . S
C442 C441 1.387 . S
C442 C445 1.387 . S
H443 C439 0.950 . S
H444 C441 0.950 . S
C445 C436 1.390 . S
C445 H438 0.950 . S
C445 C442 1.387 . S
C446 C447 1.387 . S
C446 H450 0.950 . S
C446 C455 1.390 . S
C447 C446 1.387 . S
C447 C449 1.387 . S
H448 C455 0.950 . S
C449 C447 1.387 . S
C449 C451 1.390 . S
C449 H453 0.950 . S
H450 C446 0.950 . S
C451 C449 1.390 . S
C451 C452 1.387 . S
C451 H454 0.950 . S
C452 C451 1.387 . S
C452 C455 1.387 . S
H453 C449 0.950 . S
H454 C451 0.950 . S
C455 C446 1.390 . S
C455 H448 0.950 . S
C455 C452 1.387 . S
C456 C457 1.387 . S
C456 H460 0.950 . S
C456 C465 1.390 . S
C457 C456 1.387 . S
C457 C459 1.387 . S
H458 C465 0.950 . S
C459 C457 1.387 . S
C459 C461 1.390 . S
C459 H463 0.950 . S
H460 C456 0.950 . S
C461 C459 1.390 . S
C461 C462 1.387 . S
C461 H464 0.950 . S
C462 C461 1.387 . S
C462 C465 1.387 . S
H463 C459 0.950 . S
H464 C461 0.950 . S
C465 C456 1.390 . S
C465 H458 0.950 . S
C465 C462 1.387 . S
C466 C467 1.387 . S
C466 H470 0.950 . S
C466 C475 1.390 . S
C467 C466 1.387 . S
C467 C469 1.387 . S
H468 C475 0.950 . S
C469 C467 1.387 . S
C469 C471 1.390 . S
C469 H473 0.950 . S
H470 C466 0.950 . S
C471 C469 1.390 . S
C471 C472 1.387 . S
C471 H474 0.950 . S
C472 C471 1.387 . S
C472 C475 1.387 . S
H473 C469 0.950 . S
H474 C471 0.950 . S
C475 C466 1.390 . S
C475 H468 0.950 . S
C475 C472 1.387 . S
C476 C477 1.387 . S
C476 H480 0.950 . S
C476 C485 1.390 . S
C477 C476 1.387 . S
C477 C479 1.387 . S
H478 C485 0.950 . S
C479 C477 1.387 . S
C479 C481 1.390 . S
C479 H483 0.950 . S
H480 C476 0.950 . S
C481 C479 1.390 . S
C481 C482 1.387 . S
C481 H484 0.950 . S
C482 C481 1.387 . S
C482 C485 1.387 . S
H483 C479 0.950 . S
H484 C481 0.950 . S
C485 C476 1.390 . S
C485 H478 0.950 . S
C485 C482 1.387 . S
C486 C487 1.387 . S
C486 H490 0.950 . S
C486 C495 1.390 . S
C487 C486 1.387 . S
C487 C489 1.387 . S
H488 C495 0.950 . S
C489 C487 1.387 . S
C489 C491 1.390 . S
C489 H493 0.950 . S
H490 C486 0.950 . S
C491 C489 1.390 . S
C491 C492 1.387 . S
C491 H494 0.950 . S
C492 C491 1.387 . S
C492 C495 1.387 . S
H493 C489 0.950 . S
H494 C491 0.950 . S
C495 C486 1.390 . S
C495 H488 0.950 . S
C495 C492 1.387 . S
C496 C497 1.387 . S
C496 H500 0.950 . S
C496 C505 1.390 . S
C497 C496 1.387 . S
C497 C499 1.387 . S
H498 C505 0.950 . S
C499 C497 1.387 . S
C499 C501 1.390 . S
C499 H503 0.950 . S
H500 C496 0.950 . S
C501 C499 1.390 . S
C501 C502 1.387 . S
C501 H504 0.950 . S
C502 C501 1.387 . S
C502 C505 1.387 . S
H503 C499 0.950 . S
H504 C501 0.950 . S
C505 C496 1.390 . S
C505 H498 0.950 . S
C505 C502 1.387 . S
C506 C507 1.387 . S
C506 H510 0.950 . S
C506 C515 1.390 . S
C507 C506 1.387 . S
C507 C509 1.387 . S
H508 C515 0.950 . S
C509 C507 1.387 . S
C509 C511 1.390 . S
C509 H513 0.950 . S
H510 C506 0.950 . S
C511 C509 1.390 . S
C511 C512 1.387 . S
C511 H514 0.950 . S
C512 C511 1.387 . S
C512 C515 1.387 . S
H513 C509 0.950 . S
H514 C511 0.950 . S
C515 C506 1.390 . S
C515 H508 0.950 . S
C515 C512 1.387 . S
C516 C517 1.387 . S
C516 H520 0.950 . S
C516 C525 1.390 . S
C517 C516 1.387 . S
C517 C519 1.387 . S
H518 C525 0.950 . S
C519 C517 1.387 . S
C519 C521 1.390 . S
C519 H523 0.950 . S
H520 C516 0.950 . S
C521 C519 1.390 . S
C521 C522 1.387 . S
C521 H524 0.950 . S
C522 C521 1.387 . S
C522 C525 1.387 . S
H523 C519 0.950 . S
H524 C521 0.950 . S
C525 C516 1.390 . S
C525 H518 0.950 . S
C525 C522 1.387 . S
C526 C527 1.387 . S
C526 H530 0.950 . S
C526 C535 1.390 . S
C527 C526 1.387 . S
C527 C529 1.387 . S
H528 C535 0.950 . S
C529 C527 1.387 . S
C529 C531 1.390 . S
C529 H533 0.950 . S
H530 C526 0.950 . S
C531 C529 1.390 . S
C531 C532 1.387 . S
C531 H534 0.950 . S
C532 C531 1.387 . S
C532 C535 1.387 . S
H533 C529 0.950 . S
H534 C531 0.950 . S
C535 C526 1.390 . S
C535 H528 0.950 . S
C535 C532 1.387 . S
C536 C537 1.387 . S
C536 H540 0.950 . S
C536 C545 1.390 . S
C537 C536 1.387 . S
C537 C539 1.387 . S
H538 C545 0.950 . S
C539 C537 1.387 . S
C539 C541 1.390 . S
C539 H543 0.950 . S
H540 C536 0.950 . S
C541 C539 1.390 . S
C541 C542 1.387 . S
C541 H544 0.950 . S
C542 C541 1.387 . S
C542 C545 1.387 . S
H543 C539 0.950 . S
H544 C541 0.950 . S
C545 C536 1.390 . S
C545 H538 0.950 . S
C545 C542 1.387 . S
C546 C547 1.387 . S
C546 H550 0.950 . S
C546 C555 1.390 . S
C547 C546 1.387 . S
C547 C549 1.387 . S
H548 C555 0.950 . S
C549 C547 1.387 . S
C549 C551 1.390 . S
C549 H553 0.950 . S
H550 C546 0.950 . S
C551 C549 1.390 . S
C551 C552 1.387 . S
C551 H554 0.950 . S
C552 C551 1.387 . S
C552 C555 1.387 . S
H553 C549 0.950 . S
H554 C551 0.950 . S
C555 C546 1.390 . S
C555 H548 0.950 . S
C555 C552 1.387 . S
C556 C557 1.387 . S
C556 H560 0.950 . S
C556 C565 1.390 . S
C557 C556 1.387 . S
C557 C559 1.387 . S
H558 C565 0.950 . S
C559 C557 1.387 . S
C559 C561 1.390 . S
C559 H563 0.950 . S
H560 C556 0.950 . S
C561 C559 1.390 . S
C561 C562 1.387 . S
C561 H564 0.950 . S
C562 C561 1.387 . S
C562 C565 1.387 . S
H563 C559 0.950 . S
H564 C561 0.950 . S
C565 C556 1.390 . S
C565 H558 0.950 . S
C565 C562 1.387 . S
C566 C567 1.387 . S
C566 H570 0.950 . S
C566 C575 1.390 . S
C567 C566 1.387 . S
C567 C569 1.387 . S
H568 C575 0.950 . S
C569 C567 1.387 . S
C569 C571 1.390 . S
C569 H573 0.950 . S
H570 C566 0.950 . S
C571 C569 1.390 . S
C571 C572 1.387 . S
C571 H574 0.950 . S
C572 C571 1.387 . S
C572 C575 1.387 . S
H573 C569 0.950 . S
H574 C571 0.950 . S
C575 C566 1.390 . S
C575 H568 0.950 . S
C575 C572 1.387 . S
C576 C577 1.387 . S
C576 H580 0.950 . S
C576 C585 1.390 1_566 S
C577 C576 1.387 . S
C577 C579 1.387 . S
H578 C585 0.950 . S
C579 C577 1.387 . S
C579 C581 1.390 1_566 S
C579 H583 0.950 . S
H580 C576 0.950 . S
C581 C579 1.390 1_544 S
C581 C582 1.387 . S
C581 H584 0.950 . S
C582 C581 1.387 . S
C582 C585 1.387 . S
H583 C579 0.950 . S
H584 C581 0.950 . S
C585 C576 1.390 1_544 S
C585 H578 0.950 . S
C585 C582 1.387 . S
C586 C587 1.387 . S
C586 H590 0.950 . S
C586 C595 1.390 . S
C587 C586 1.387 . S
C587 C589 1.387 . S
H588 C595 0.950 . S
C589 C587 1.387 . S
C589 C591 1.390 . S
C589 H593 0.950 . S
H590 C586 0.950 . S
C591 C589 1.390 . S
C591 C592 1.387 . S
C591 H594 0.950 . S
C592 C591 1.387 . S
C592 C595 1.387 . S
H593 C589 0.950 . S
H594 C591 0.950 . S
C595 C586 1.390 . S
C595 H588 0.950 . S
C595 C592 1.387 . S
C596 C597 1.387 1_554 S
C596 H600 0.950 . S
C596 C605 1.390 . S
C597 C596 1.387 1_556 S
C597 C599 1.387 1_455 S
H598 C605 0.950 . S
C599 C597 1.387 1_655 S
C599 C601 1.390 . S
C599 H603 0.950 . S
H600 C596 0.950 . S
C601 C599 1.390 . S
C601 C602 1.387 1_556 S
C601 H604 0.950 . S
C602 C601 1.387 1_554 S
C602 C605 1.387 1_655 S
H603 C599 0.950 . S
H604 C601 0.950 . S
C605 C596 1.390 . S
C605 H598 0.950 . S
C605 C602 1.387 1_455 S
C606 C607 1.387 . S
C606 H610 0.950 . S
C606 C615 1.390 1_545 S
C607 C606 1.387 . S
C607 C609 1.387 . S
H608 C615 0.950 . S
C609 C607 1.387 . S
C609 C611 1.390 1_545 S
C609 H613 0.950 . S
H610 C606 0.950 . S
C611 C609 1.390 1_565 S
C611 C612 1.387 . S
C611 H614 0.950 . S
C612 C611 1.387 . S
C612 C615 1.387 . S
H613 C609 0.950 . S
H614 C611 0.950 . S
C615 C606 1.390 1_565 S
C615 H608 0.950 . S
C615 C612 1.387 . S
C616 C617 1.387 . S
C616 H620 0.950 . S
C616 C625 1.390 . S
C617 C616 1.387 . S
C617 C619 1.387 1_554 S
H618 C625 0.950 . S
C619 C617 1.387 1_556 S
C619 C621 1.390 . S
C619 H623 0.950 . S
H620 C616 0.950 . S
C621 C619 1.390 . S
C621 C622 1.387 . S
C621 H624 0.950 . S
C622 C621 1.387 . S
C622 C625 1.387 1_556 S
H623 C619 0.950 . S
H624 C621 0.950 . S
C625 C616 1.390 . S
C625 H618 0.950 . S
C625 C622 1.387 1_554 S
C626 C627 1.387 . S
C626 H630 0.950 . S
C626 C635 1.390 1_455 S
C627 C626 1.387 . S
C627 C629 1.387 . S
H628 C635 0.950 . S
C629 C627 1.387 . S
C629 C631 1.390 1_455 S
C629 H633 0.950 . S
H630 C626 0.950 . S
C631 C629 1.390 1_655 S
C631 C632 1.387 . S
C631 H634 0.950 . S
C632 C631 1.387 . S
C632 C635 1.387 . S
H633 C629 0.950 . S
H634 C631 0.950 . S
C635 C626 1.390 1_655 S
C635 H628 0.950 . S
C635 C632 1.387 . S
C636 C637 1.387 . S
C636 H640 0.950 . S
C636 C645 1.390 1_566 S
C637 C636 1.387 . S
C637 C639 1.387 . S
H638 C645 0.950 . S
C639 C637 1.387 . S
C639 C641 1.390 1_566 S
C639 H643 0.950 . S
H640 C636 0.950 . S
C641 C639 1.390 1_544 S
C641 C642 1.387 . S
C641 H644 0.950 . S
C642 C641 1.387 . S
C642 C645 1.387 . S
H643 C639 0.950 . S
H644 C641 0.950 . S
C645 C636 1.390 1_544 S
C645 H638 0.950 . S
C645 C642 1.387 . S
C646 C647 1.387 . S
C646 H650 0.950 . S
C646 C655 1.390 . S
C647 C646 1.387 . S
C647 C649 1.387 . S
H648 C655 0.950 . S
C649 C647 1.387 . S
C649 C651 1.390 . S
C649 H653 0.950 . S
H650 C646 0.950 . S
C651 C649 1.390 . S
C651 C652 1.387 . S
C651 H654 0.950 . S
C652 C651 1.387 . S
C652 C655 1.387 . S
H653 C649 0.950 . S
H654 C651 0.950 . S
C655 C646 1.390 . S
C655 H648 0.950 . S
C655 C652 1.387 . S
C656 C657 1.387 1_455 S
C656 H660 0.950 . S
C656 C665 1.390 . S
C657 C656 1.387 1_655 S
C657 C659 1.387 1_554 S
H658 C665 0.950 . S
C659 C657 1.387 1_556 S
C659 C661 1.390 . S
C659 H663 0.950 . S
H660 C656 0.950 . S
C661 C659 1.390 . S
C661 C662 1.387 1_655 S
C661 H664 0.950 . S
C662 C661 1.387 1_455 S
C662 C665 1.387 1_556 S
H663 C659 0.950 . S
H664 C661 0.950 . S
C665 C656 1.390 . S
C665 H658 0.950 . S
C665 C662 1.387 1_554 S
C666 C667 1.387 . S
C666 H670 0.950 . S
C666 C675 1.390 1_565 S
C667 C666 1.387 . S
C667 C669 1.387 . S
H668 C675 0.950 . S
C669 C667 1.387 . S
C669 C671 1.390 1_565 S
C669 H673 0.950 . S
H670 C666 0.950 . S
C671 C669 1.390 1_545 S
C671 C672 1.387 . S
C671 H674 0.950 . S
C672 C671 1.387 . S
C672 C675 1.387 . S
H673 C669 0.950 . S
H674 C671 0.950 . S
C675 C666 1.390 1_545 S
C675 H668 0.950 . S
C675 C672 1.387 . S
C676 C677 1.387 1_556 S
C676 H680 0.950 . S
C676 C685 1.390 . S
C677 C676 1.387 1_554 S
C677 C679 1.387 . S
H678 C685 0.950 . S
C679 C677 1.387 . S
C679 C681 1.390 . S
C679 H683 0.950 . S
H680 C676 0.950 . S
C681 C679 1.390 . S
C681 C682 1.387 1_554 S
C681 H684 0.950 . S
C682 C681 1.387 1_556 S
C682 C685 1.387 . S
H683 C679 0.950 . S
H684 C681 0.950 . S
C685 C676 1.390 . S
C685 H678 0.950 . S
C685 C682 1.387 . S
C686 C687 1.387 . S
C686 H690 0.950 . S
C686 C695 1.390 . S
C687 C686 1.387 . S
C687 C689 1.387 1_455 S
H688 C695 0.950 . S
C689 C687 1.387 1_655 S
C689 C691 1.390 . S
C689 H693 0.950 . S
H690 C686 0.950 . S
C691 C689 1.390 . S
C691 C692 1.387 . S
C691 H694 0.950 . S
C692 C691 1.387 . S
C692 C695 1.387 1_655 S
H693 C689 0.950 . S
H694 C691 0.950 . S
C695 C686 1.390 . S
C695 H688 0.950 . S
C695 C692 1.387 1_455 S
C696 C697 1.387 . S
C696 H700 0.950 . S
C696 C705 1.390 . S
C697 C696 1.387 . S
C697 C699 1.387 . S
H698 C705 0.950 . S
C699 C697 1.387 . S
C699 C701 1.390 . S
C699 H703 0.950 . S
H700 C696 0.950 . S
C701 C699 1.390 . S
C701 C702 1.387 . S
C701 H704 0.950 . S
C702 C701 1.387 . S
C702 C705 1.387 . S
H703 C699 0.950 . S
H704 C701 0.950 . S
C705 C696 1.390 . S
C705 H698 0.950 . S
C705 C702 1.387 . S
C706 C707 1.387 . S
C706 H710 0.950 . S
C706 C715 1.390 . S
C707 C706 1.387 . S
C707 C709 1.387 . S
H708 C715 0.950 . S
C709 C707 1.387 . S
C709 C711 1.390 . S
C709 H713 0.950 . S
H710 C706 0.950 . S
C711 C709 1.390 . S
C711 C712 1.387 . S
C711 H714 0.950 . S
C712 C711 1.387 . S
C712 C715 1.387 . S
H713 C709 0.950 . S
H714 C711 0.950 . S
C715 C706 1.390 . S
C715 H708 0.950 . S
C715 C712 1.387 . S
C716 C717 1.387 . S
C716 H720 0.950 . S
C716 C725 1.390 . S
C717 C716 1.387 . S
C717 C719 1.387 . S
H718 C725 0.950 . S
C719 C717 1.387 . S
C719 C721 1.390 . S
C719 H723 0.950 . S
H720 C716 0.950 . S
C721 C719 1.390 . S
C721 C722 1.387 . S
C721 H724 0.950 . S
C722 C721 1.387 . S
C722 C725 1.387 . S
H723 C719 0.950 . S
H724 C721 0.950 . S
C725 C716 1.390 . S
C725 H718 0.950 . S
C725 C722 1.387 . S
C726 C727 1.387 . S
C726 H730 0.950 . S
C726 C735 1.390 . S
C727 C726 1.387 . S
C727 C729 1.387 . S
H728 C735 0.950 . S
C729 C727 1.387 . S
C729 C731 1.390 . S
C729 H733 0.950 . S
H730 C726 0.950 . S
C731 C729 1.390 . S
C731 C732 1.387 . S
C731 H734 0.950 . S
C732 C731 1.387 . S
C732 C735 1.387 . S
H733 C729 0.950 . S
H734 C731 0.950 . S
C735 C726 1.390 . S
C735 H728 0.950 . S
C735 C732 1.387 . S
C736 C737 1.387 . S
C736 H740 0.950 . S
C736 C745 1.390 . S
C737 C736 1.387 . S
C737 C739 1.387 . S
H738 C745 0.950 . S
C739 C737 1.387 . S
C739 C741 1.390 . S
C739 H743 0.950 . S
H740 C736 0.950 . S
C741 C739 1.390 . S
C741 C742 1.387 . S
C741 H744 0.950 . S
C742 C741 1.387 . S
C742 C745 1.387 . S
H743 C739 0.950 . S
H744 C741 0.950 . S
C745 C736 1.390 . S
C745 H738 0.950 . S
C745 C742 1.387 . S
C746 C747 1.387 . S
C746 H750 0.950 . S
C746 C755 1.390 . S
C747 C746 1.387 . S
C747 C749 1.387 . S
H748 C755 0.950 . S
C749 C747 1.387 . S
C749 C751 1.390 . S
C749 H753 0.950 . S
H750 C746 0.950 . S
C751 C749 1.390 . S
C751 C752 1.387 . S
C751 H754 0.950 . S
C752 C751 1.387 . S
C752 C755 1.387 . S
H753 C749 0.950 . S
H754 C751 0.950 . S
C755 C746 1.390 . S
C755 H748 0.950 . S
C755 C752 1.387 . S
C756 C757 1.387 . S
C756 H760 0.950 . S
C756 C765 1.390 . S
C757 C756 1.387 . S
C757 C759 1.387 . S
H758 C765 0.950 . S
C759 C757 1.387 . S
C759 C761 1.390 . S
C759 H763 0.950 . S
H760 C756 0.950 . S
C761 C759 1.390 . S
C761 C762 1.387 . S
C761 H764 0.950 . S
C762 C761 1.387 . S
C762 C765 1.387 . S
H763 C759 0.950 . S
H764 C761 0.950 . S
C765 C756 1.390 . S
C765 H758 0.950 . S
C765 C762 1.387 . S
C766 C767 1.387 . S
C766 H770 0.950 . S
C766 C775 1.390 . S
C767 C766 1.387 . S
C767 C769 1.387 . S
H768 C775 0.950 . S
C769 C767 1.387 . S
C769 C771 1.390 . S
C769 H773 0.950 . S
H770 C766 0.950 . S
C771 C769 1.390 . S
C771 C772 1.387 . S
C771 H774 0.950 . S
C772 C771 1.387 . S
C772 C775 1.387 . S
H773 C769 0.950 . S
H774 C771 0.950 . S
C775 C766 1.390 . S
C775 H768 0.950 . S
C775 C772 1.387 . S
C776 C777 1.387 . S
C776 H780 0.950 . S
C776 C785 1.390 . S
C777 C776 1.387 . S
C777 C779 1.387 . S
H778 C785 0.950 . S
C779 C777 1.387 . S
C779 C781 1.390 . S
C779 H783 0.950 . S
H780 C776 0.950 . S
C781 C779 1.390 . S
C781 C782 1.387 . S
C781 H784 0.950 . S
C782 C781 1.387 . S
C782 C785 1.387 . S
H783 C779 0.950 . S
H784 C781 0.950 . S
C785 C776 1.390 . S
C785 H778 0.950 . S
C785 C782 1.387 . S
C786 C787 1.387 . S
C786 H790 0.950 . S
C786 C795 1.390 . S
C787 C786 1.387 . S
C787 C789 1.387 . S
H788 C795 0.950 . S
C789 C787 1.387 . S
C789 C791 1.390 . S
C789 H793 0.950 . S
H790 C786 0.950 . S
C791 C789 1.390 . S
C791 C792 1.387 . S
C791 H794 0.950 . S
C792 C791 1.387 . S
C792 C795 1.387 . S
H793 C789 0.950 . S
H794 C791 0.950 . S
C795 C786 1.390 . S
C795 H788 0.950 . S
C795 C792 1.387 . S
C796 C797 1.387 . S
C796 H800 0.950 . S
C796 C805 1.390 . S
C797 C796 1.387 . S
C797 C799 1.387 . S
H798 C805 0.950 . S
C799 C797 1.387 . S
C799 C801 1.390 . S
C799 H803 0.950 . S
H800 C796 0.950 . S
C801 C799 1.390 . S
C801 C802 1.387 . S
C801 H804 0.950 . S
C802 C801 1.387 . S
C802 C805 1.387 . S
H803 C799 0.950 . S
H804 C801 0.950 . S
C805 C796 1.390 . S
C805 H798 0.950 . S
C805 C802 1.387 . S
C806 C807 1.387 . S
C806 H810 0.950 . S
C806 C815 1.390 . S
C807 C806 1.387 . S
C807 C809 1.387 . S
H808 C815 0.950 . S
C809 C807 1.387 . S
C809 C811 1.390 . S
C809 H813 0.950 . S
H810 C806 0.950 . S
C811 C809 1.390 . S
C811 C812 1.387 . S
C811 H814 0.950 . S
C812 C811 1.387 . S
C812 C815 1.387 . S
H813 C809 0.950 . S
H814 C811 0.950 . S
C815 C806 1.390 . S
C815 H808 0.950 . S
C815 C812 1.387 . S
C337 C223 1.387 . S
C342 C13 1.390 . S
C347 C27 1.387 . S
C352 C237 1.390 . S
C357 C41 1.390 . S
C362 C251 1.388 . S
C367 C55 1.388 . S
C372 C181 1.389 . S
C377 C195 1.390 . S
C382 C69 1.387 . S
C387 C83 1.388 . S
C392 C209 1.389 . S
C397 C307 1.387 . S
C402 C97 1.390 . S
C407 C111 1.387 . S
C412 C321 1.390 . S
C417 C125 1.388 . S
C422 C335 1.389 . S
C427 C265 1.387 . S
C432 C139 1.390 . S
C437 C153 1.390 . S
C442 C279 1.387 . S
C447 C293 1.389 . S
C452 C167 1.388 . S
C457 C11 1.400 . S
C462 C333 1.400 . S
C467 C263 1.400 . S
C472 C25 1.400 . S
C477 C39 1.400 . S
C482 C277 1.400 . S
C487 C291 1.400 . S
C492 C53 1.400 . S
C497 C67 1.400 . S
C502 C305 1.400 . S
C507 C319 1.400 . S
C512 C81 1.400 . S
C517 C95 1.400 . S
C522 C193 1.400 . S
C527 C207 1.400 . S
C532 C109 1.400 . S
C537 C221 1.400 . S
C542 C123 1.400 . S
C547 C235 1.400 . S
C552 C137 1.400 . S
C557 C151 1.400 . S
C562 C249 1.400 . S
C567 C165 1.400 . S
C572 C179 1.400 . S
C577 C105 1.168 . S
C582 C7 1.168 . S
C587 C119 1.169 . S
C592 C21 1.168 . S
C597 C133 1.170 . S
C602 C35 1.168 . S
C607 C147 1.168 . S
C612 C49 1.168 . S
C617 C63 1.168 . S
C622 C161 1.169 . S
C627 C77 1.169 . S
C632 C91 1.169 . S
C637 C175 1.169 . S
C642 C273 1.169 . S
C647 C189 1.170 . S
C652 C287 1.168 . S
C657 C301 1.170 . S
C662 C203 1.168 . S
C667 C315 1.168 . S
C672 C217 1.168 . S
C677 C329 1.168 . S
C682 C231 1.170 . S
C687 C259 1.167 . S
C692 C245 1.169 . S
C697 C8 1.435 . S
C702 C274 1.436 . S
C707 C288 1.436 . S
C712 C22 1.434 . S
C717 C36 1.436 . S
C722 C302 1.434 . S
C727 C316 1.436 . S
C732 C50 1.434 . S
C737 C64 1.434 . S
C742 C330 1.436 . S
C747 C260 1.436 . S
C752 C78 1.434 . S
C757 C92 1.434 . S
C762 C246 1.436 . S
C767 C176 1.436 . S
C772 C106 1.435 . S
C777 C120 1.434 . S
C782 C190 1.436 . S
C787 C134 1.436 . S
C792 C204 1.434 . S
C797 C148 1.434 . S
C802 C218 1.436 . S
C807 C162 1.436 . S
C812 C232 1.434 . S
