# Generated by pormake.
# Topology rac, (4)-cn, num edge types: 1
# Building blocks:
#     Node 0, Type 0, BuildingBlock: AZAVOO_clean_sbu_0, # of connection points: 4
#     Node 1, Type 0, BuildingBlock: AZAVOO_clean_sbu_0, # of connection points: 4
#     Node 2, Type 0, BuildingBlock: AZAVOO_clean_sbu_0, # of connection points: 4
#     Node 3, Type 0, BuildingBlock: AZAVOO_clean_sbu_0, # of connection points: 4
#     Node 4, Type 0, BuildingBlock: AZAVOO_clean_sbu_0, # of connection points: 4
#     Node 5, Type 0, BuildingBlock: AZAVOO_clean_sbu_0, # of connection points: 4
#     Node 6, Type 0, BuildingBlock: AZAVOO_clean_sbu_0, # of connection points: 4
#     Node 7, Type 0, BuildingBlock: AZAVOO_clean_sbu_0, # of connection points: 4
#     Edge 8, Type (0, 0), BuildingBlock: XUDNAN_clean_linker_2, # of connection points: 2
#     Edge 9, Type (0, 0), BuildingBlock: XUDNAN_clean_linker_2, # of connection points: 2
#     Edge 10, Type (0, 0), BuildingBlock: XUDNAN_clean_linker_2, # of connection points: 2
#     Edge 11, Type (0, 0), BuildingBlock: XUDNAN_clean_linker_2, # of connection points: 2
#     Edge 12, Type (0, 0), BuildingBlock: XUDNAN_clean_linker_2, # of connection points: 2
#     Edge 13, Type (0, 0), BuildingBlock: XUDNAN_clean_linker_2, # of connection points: 2
#     Edge 14, Type (0, 0), BuildingBlock: XUDNAN_clean_linker_2, # of connection points: 2
#     Edge 15, Type (0, 0), BuildingBlock: XUDNAN_clean_linker_2, # of connection points: 2
#     Edge 16, Type (0, 0), BuildingBlock: XUDNAN_clean_linker_2, # of connection points: 2
#     Edge 17, Type (0, 0), BuildingBlock: XUDNAN_clean_linker_2, # of connection points: 2
#     Edge 18, Type (0, 0), BuildingBlock: XUDNAN_clean_linker_2, # of connection points: 2
#     Edge 19, Type (0, 0), BuildingBlock: XUDNAN_clean_linker_2, # of connection points: 2
#     Edge 20, Type (0, 0), BuildingBlock: XUDNAN_clean_linker_2, # of connection points: 2
#     Edge 21, Type (0, 0), BuildingBlock: XUDNAN_clean_linker_2, # of connection points: 2
#     Edge 22, Type (0, 0), BuildingBlock: XUDNAN_clean_linker_2, # of connection points: 2
#     Edge 23, Type (0, 0), BuildingBlock: XUDNAN_clean_linker_2, # of connection points: 2
# Relax obj value: 0.238
# Max RMSD: 0.131
# Mean RMSD: 0.131
data_MOF--net-rac--node1-AZAVOO_clean_sbu_0--edge1-XUDNAN_clean_linker_2
_symmetry_space_group_name_H-M    P1
_symmetry_Int_Tables_number       1
_symmetry_cell_setting            triclinic
loop_
_symmetry_equiv_pos_as_xyz
'x, y, z'
_cell_length_a     38.66014
_cell_length_b     19.576452
_cell_length_c     45.801002
_cell_angle_alpha  90.015529
_cell_angle_beta   90.03195
_cell_angle_gamma 90.068015
loop_
_atom_site_label
_atom_site_type_symbol
_atom_site_fract_x
_atom_site_fract_y
_atom_site_fract_z
_atom_type_partial_charge
Mg0 Mg 0.38815 0.20003 0.08239 0.0
O1 O 0.35234 0.29395 0.08217 0.0
O2 O 0.29998 0.26255 0.09804 0.0
Mg3 Mg 0.30283 0.14908 0.10993 0.0
C4 C 0.32087 0.30776 0.08834 0.0
C5 C 0.43371 0.30952 0.05287 0.0
O6 O 0.40616 0.31024 0.03607 0.0
O7 O 0.39368 0.21008 0.13211 0.0
O8 O 0.34113 0.17605 0.14631 0.0
O9 O 0.37004 0.17006 0.03736 0.0
O10 O 0.34516 0.13756 0.07853 0.0
C11 C 0.37168 0.19692 0.15216 0.0
C12 C 0.34479 0.13942 0.05047 0.0
O13 O 0.43456 0.26899 0.07454 0.0
Mg14 Mg 0.1104 0.78488 0.06625 0.0
O15 O 0.16177 0.72835 0.07219 0.0
O16 O 0.2023 0.7992 0.0893 0.0
Mg17 Mg 0.17423 0.89965 0.09915 0.0
C18 C 0.19282 0.74051 0.08012 0.0
C19 C 0.06897 0.67464 0.03238 0.0
O20 O 0.065 0.72715 0.01484 0.0
O21 O 0.10008 0.77353 0.11527 0.0
O22 O 0.1413 0.84247 0.13299 0.0
O23 O 0.12956 0.82312 0.02297 0.0
O24 O 0.136 0.87792 0.06485 0.0
C25 C 0.1163 0.80057 0.13669 0.0
C26 C 0.14259 0.87387 0.0374 0.0
O27 O 0.08549 0.6826 0.05612 0.0
Mg28 Mg 0.37534 0.29259 0.43205 0.0
O29 O 0.32634 0.22536 0.4272 0.0
O30 O 0.2855 0.28665 0.40457 0.0
Mg31 Mg 0.30852 0.39058 0.39343 0.0
C32 C 0.2958 0.23179 0.41684 0.0
C33 C 0.39259 0.16899 0.46961 0.0
O34 O 0.36254 0.18951 0.4797 0.0
O35 O 0.38772 0.27212 0.38375 0.0
O36 O 0.34524 0.33292 0.36305 0.0
O37 O 0.35484 0.33718 0.47382 0.0
O38 O 0.34462 0.37981 0.43001 0.0
C39 C 0.37151 0.29365 0.36123 0.0
C40 C 0.3387 0.38079 0.45764 0.0
O41 O 0.40574 0.20015 0.44792 0.0
Mg42 Mg 0.09189 0.70759 0.41589 0.0
O43 O 0.1324 0.79243 0.41651 0.0
O44 O 0.1843 0.75389 0.40323 0.0
Mg45 Mg 0.17495 0.64225 0.38988 0.0
C46 C 0.16457 0.80197 0.41195 0.0
C47 C 0.04177 0.80629 0.44858 0.0
O48 O 0.05408 0.77243 0.47104 0.0
O49 O 0.08767 0.71811 0.36625 0.0
O50 O 0.13986 0.68011 0.35271 0.0
O51 O 0.10947 0.67643 0.46067 0.0
O52 O 0.13011 0.63398 0.41938 0.0
C53 C 0.11015 0.70492 0.3466 0.0
C54 C 0.13124 0.6371 0.44738 0.0
O55 O 0.0513 0.78969 0.42299 0.0
Mg56 Mg 0.62543 0.75396 0.9365 0.0
O57 O 0.66725 0.67299 0.929 0.0
O58 O 0.71115 0.71502 0.90294 0.0
Mg59 Mg 0.69445 0.82322 0.8901 0.0
C60 C 0.69681 0.66627 0.91695 0.0
C61 C 0.6037 0.63927 0.97831 0.0
O62 O 0.63498 0.65439 0.98749 0.0
O63 O 0.60488 0.73393 0.89012 0.0
O64 O 0.64958 0.77609 0.8646 0.0
O65 O 0.65617 0.79712 0.97426 0.0
O66 O 0.66074 0.83073 0.92842 0.0
C67 C 0.62 0.74718 0.86594 0.0
C68 C 0.67128 0.83498 0.95492 0.0
O69 O 0.5913 0.67176 0.95667 0.0
Mg70 Mg 0.91782 0.19043 0.90439 0.0
O71 O 0.86948 0.25946 0.90332 0.0
O72 O 0.8281 0.20109 0.8797 0.0
Mg73 Mg 0.85011 0.09839 0.8645 0.0
C74 C 0.83862 0.25388 0.89351 0.0
C75 C 0.97001 0.2629 0.94249 0.0
O76 O 0.97088 0.19897 0.9512 0.0
O77 O 0.9285 0.21694 0.8564 0.0
O78 O 0.88792 0.15407 0.83431 0.0
O79 O 0.89881 0.14193 0.94579 0.0
O80 O 0.88583 0.10495 0.90154 0.0
C81 C 0.91385 0.19441 0.83329 0.0
C82 C 0.88079 0.10177 0.92934 0.0
O83 O 0.95054 0.27858 0.92115 0.0
Mg84 Mg 0.59985 0.73529 0.58733 0.0
O85 O 0.63961 0.82191 0.59093 0.0
O86 O 0.69001 0.77994 0.60659 0.0
Mg87 Mg 0.68126 0.66559 0.61537 0.0
C88 C 0.67133 0.82975 0.59796 0.0
C89 C 0.55963 0.85131 0.5567 0.0
O90 O 0.58737 0.84781 0.54021 0.0
O91 O 0.59188 0.7382 0.6371 0.0
O92 O 0.64194 0.69115 0.65104 0.0
O93 O 0.62034 0.70724 0.54253 0.0
O94 O 0.63849 0.66357 0.58423 0.0
C95 C 0.61217 0.71584 0.65701 0.0
C96 C 0.64103 0.66665 0.55638 0.0
O97 O 0.55731 0.81259 0.57888 0.0
Mg98 Mg 0.88598 0.30628 0.5625 0.0
O99 O 0.83835 0.2412 0.57492 0.0
O100 O 0.80462 0.30663 0.60312 0.0
Mg101 Mg 0.82923 0.41275 0.60763 0.0
C102 C 0.81104 0.25021 0.59019 0.0
C103 C 0.92226 0.21636 0.51851 0.0
O104 O 0.91621 0.2737 0.50454 0.0
O105 O 0.90703 0.29201 0.60898 0.0
O106 O 0.87379 0.36559 0.63385 0.0
O107 O 0.85809 0.34668 0.52295 0.0
O108 O 0.85652 0.39455 0.56657 0.0
C109 C 0.89886 0.32334 0.63247 0.0
C110 C 0.84549 0.39273 0.54008 0.0
O111 O 0.91356 0.21184 0.54521 0.0
H112 H 0.27733 0.16111 0.0621 0.0
H113 H 0.34572 0.05217 0.00375 0.0
H114 H 0.29584 0.98496 0.98518 0.0
H115 H 0.23418 0.02539 0.08586 0.0
H116 H 0.19236 0.06526 0.08915 0.0
H117 H 0.23077 0.11634 0.09144 0.0
H118 H 0.20879 0.19282 0.04912 0.0
H119 H 0.16998 0.14193 0.04677 0.0
H120 H 0.19654 0.15436 0.01487 0.0
H121 H 0.24123 0.91356 0.98151 0.0
H122 H 0.18872 0.84621 0.99326 0.0
H123 H 0.15723 0.00206 0.05483 0.0
C124 C 0.2816 0.12432 0.0449 0.0
C125 C 0.31511 0.11114 0.03444 0.0
C126 C 0.31996 0.06326 0.01172 0.0
C127 C 0.29179 0.02498 0.00112 0.0
C128 C 0.25909 0.03652 0.01316 0.0
C129 C 0.25391 0.08606 0.03428 0.0
C130 C 0.2179 0.0826 0.04693 0.0
C131 C 0.2189 0.07169 0.08029 0.0
C132 C 0.19707 0.14674 0.03893 0.0
C133 C 0.20424 0.02044 0.03117 0.0
C134 C 0.22785 0.99543 0.01115 0.0
C135 C 0.2222 0.93376 0.99652 0.0
C136 C 0.19231 0.89586 0.00326 0.0
C137 C 0.16901 0.91941 0.02481 0.0
C138 C 0.17451 0.98348 0.038 0.0
H139 H 0.14914 0.50595 0.44048 0.0
H140 H 0.17741 0.69068 0.48656 0.0
H141 H 0.23248 0.63655 0.50215 0.0
H142 H 0.19227 0.3815 0.49304 0.0
H143 H 0.20456 0.32698 0.46309 0.0
H144 H 0.16492 0.37521 0.46126 0.0
H145 H 0.185 0.42866 0.41235 0.0
H146 H 0.22468 0.38147 0.41413 0.0
H147 H 0.22582 0.4732 0.41089 0.0
H148 H 0.28925 0.5704 0.50295 0.0
H149 H 0.3397 0.49618 0.49162 0.0
H150 H 0.27165 0.35337 0.44821 0.0
C151 C 0.16633 0.53372 0.45493 0.0
C152 C 0.15921 0.60169 0.46275 0.0
C153 C 0.18236 0.63781 0.48099 0.0
C154 C 0.21365 0.60751 0.48981 0.0
C155 C 0.22066 0.54081 0.48071 0.0
C156 C 0.19711 0.50384 0.46425 0.0
C157 C 0.21179 0.43608 0.45458 0.0
C158 C 0.19222 0.37642 0.46886 0.0
C159 C 0.21183 0.42957 0.42102 0.0
C160 C 0.24799 0.44223 0.46657 0.0
C161 C 0.25276 0.5024 0.4819 0.0
C162 C 0.2855 0.52226 0.49177 0.0
C163 C 0.31396 0.48008 0.48527 0.0
C164 C 0.3092 0.41944 0.46904 0.0
C165 C 0.27581 0.39956 0.46051 0.0
H166 H 0.69467 0.93974 0.92264 0.0
H167 H 0.71748 0.82413 0.00101 0.0
H168 H 0.77317 0.88697 0.00603 0.0
H169 H 0.77611 0.93166 0.89328 0.0
H170 H 0.77518 0.01587 0.87739 0.0
H171 H 0.73549 0.96977 0.88291 0.0
H172 H 0.71076 0.06977 0.91392 0.0
H173 H 0.75011 0.11658 0.90745 0.0
H174 H 0.73551 0.10213 0.94431 0.0
H175 H 0.82945 0.95816 0.99889 0.0
H176 H 0.87883 0.02746 0.98032 0.0
H177 H 0.81663 0.08896 0.90631 0.0
C178 C 0.71104 0.92822 0.9412 0.0
C179 C 0.70196 0.8771 0.96139 0.0
C180 C 0.72399 0.86366 0.98541 0.0
C181 C 0.75562 0.89895 0.98835 0.0
C182 C 0.76436 0.94756 0.96722 0.0
C183 C 0.74234 0.96231 0.94428 0.0
C184 C 0.75808 0.01211 0.92303 0.0
C185 C 0.76141 0.98042 0.89237 0.0
C186 C 0.73738 0.07913 0.92216 0.0
C187 C 0.79292 0.0222 0.93705 0.0
C188 C 0.79623 0.98569 0.96273 0.0
C189 C 0.82693 0.98701 0.97885 0.0
C190 C 0.85479 0.02625 0.96818 0.0
C191 C 0.85177 0.06206 0.94145 0.0
C192 C 0.82027 0.06052 0.92617 0.0
H193 H 0.66281 0.54361 0.57338 0.0
H194 H 0.68084 0.69974 0.50817 0.0
H195 H 0.73316 0.63699 0.49137 0.0
H196 H 0.74535 0.52663 0.59554 0.0
H197 H 0.74384 0.43573 0.60171 0.0
H198 H 0.70492 0.48529 0.60415 0.0
H199 H 0.67562 0.40792 0.56536 0.0
H200 H 0.71449 0.35751 0.56292 0.0
H201 H 0.69626 0.3952 0.53049 0.0
H202 H 0.78858 0.5636 0.4874 0.0
H203 H 0.83954 0.48879 0.4966 0.0
H204 H 0.78291 0.38568 0.565 0.0
C205 C 0.67722 0.56365 0.55498 0.0
C206 C 0.66803 0.62609 0.54195 0.0
C207 C 0.68744 0.6513 0.51812 0.0
C208 C 0.71713 0.61606 0.50855 0.0
C209 C 0.72633 0.55553 0.52281 0.0
C210 C 0.70644 0.5293 0.54528 0.0
C211 C 0.72297 0.46778 0.55928 0.0
C212 C 0.72967 0.47964 0.59209 0.0
C213 C 0.70103 0.40329 0.55419 0.0
C214 C 0.75619 0.46504 0.54224 0.0
C215 C 0.75769 0.51485 0.52085 0.0
C216 C 0.78731 0.52385 0.50377 0.0
C217 C 0.81607 0.48144 0.50911 0.0
C218 C 0.81488 0.43219 0.53166 0.0
C219 C 0.78444 0.42326 0.54784 0.0
H220 H 0.32746 0.19909 0.19827 0.0
H221 H 0.43628 0.21913 0.17664 0.0
H222 H 0.44974 0.23694 0.2291 0.0
H223 H 0.32525 0.32951 0.25049 0.0
H224 H 0.29462 0.28626 0.27371 0.0
H225 H 0.29476 0.26975 0.23509 0.0
H226 H 0.30231 0.14022 0.24518 0.0
H227 H 0.30238 0.1564 0.2839 0.0
H228 H 0.33799 0.11148 0.26734 0.0
H229 H 0.45016 0.25482 0.28518 0.0
H230 H 0.43667 0.28139 0.33712 0.0
H231 H 0.32756 0.25348 0.31909 0.0
C232 C 0.35426 0.2064 0.20441 0.0
C233 C 0.38085 0.20717 0.18331 0.0
C234 C 0.41546 0.21816 0.19244 0.0
C235 C 0.42335 0.22796 0.22219 0.0
C236 C 0.39631 0.22683 0.24241 0.0
C237 C 0.36245 0.21674 0.23369 0.0
C238 C 0.33757 0.22186 0.25895 0.0
C239 C 0.31154 0.28033 0.25427 0.0
C240 C 0.31898 0.15341 0.26414 0.0
C241 C 0.36251 0.23773 0.28334 0.0
C242 C 0.3964 0.23923 0.27374 0.0
C243 C 0.42369 0.25365 0.29284 0.0
C244 C 0.4159 0.26836 0.32225 0.0
C245 C 0.38112 0.26975 0.33184 0.0
C246 C 0.35437 0.25314 0.3122 0.0
H247 H 0.15602 0.74178 0.3047 0.0
H248 H 0.04702 0.70115 0.31872 0.0
H249 H 0.03591 0.71931 0.26587 0.0
H250 H 0.14366 0.87699 0.2523 0.0
H251 H 0.18128 0.8535 0.23137 0.0
H252 H 0.17992 0.83652 0.26999 0.0
H253 H 0.19243 0.7085 0.25997 0.0
H254 H 0.19359 0.72499 0.22133 0.0
H255 H 0.16449 0.66135 0.23569 0.0
H256 H 0.03832 0.73562 0.21009 0.0
H257 H 0.05279 0.76121 0.15838 0.0
H258 H 0.15944 0.79765 0.18335 0.0
C259 C 0.12977 0.73666 0.29668 0.0
C260 C 0.1024 0.71943 0.31564 0.0
C261 C 0.06833 0.71436 0.30446 0.0
C262 C 0.06185 0.72427 0.27451 0.0
C263 C 0.08966 0.74034 0.2563 0.0
C264 C 0.12283 0.74758 0.26717 0.0
C265 C 0.14821 0.76713 0.24356 0.0
C266 C 0.16419 0.83773 0.24967 0.0
C267 C 0.17633 0.71221 0.23993 0.0
C268 C 0.12433 0.7691 0.2175 0.0
C269 C 0.0907 0.75284 0.22503 0.0
C270 C 0.06451 0.74915 0.20406 0.0
C271 C 0.07294 0.76341 0.17478 0.0
C272 C 0.10711 0.78211 0.16699 0.0
C273 C 0.13296 0.78455 0.18871 0.0
H274 H 0.64876 0.66869 0.82481 0.0
H275 H 0.55771 0.7891 0.84353 0.0
H276 H 0.54071 0.78321 0.79123 0.0
H277 H 0.67122 0.74817 0.76329 0.0
H278 H 0.6866 0.6744 0.74367 0.0
H279 H 0.68709 0.67466 0.78285 0.0
H280 H 0.65015 0.56412 0.7841 0.0
H281 H 0.65017 0.56242 0.74475 0.0
H282 H 0.6098 0.56086 0.7644 0.0
H283 H 0.54049 0.78141 0.73508 0.0
H284 H 0.55474 0.77685 0.68226 0.0
H285 H 0.64607 0.65705 0.70247 0.0
C286 C 0.6244 0.69104 0.81805 0.0
C287 C 0.60414 0.72823 0.83796 0.0
C288 C 0.573 0.7589 0.82851 0.0
C289 C 0.56336 0.75613 0.79887 0.0
C290 C 0.58496 0.72164 0.77934 0.0
C291 C 0.61447 0.68832 0.78883 0.0
C292 C 0.63544 0.66091 0.76365 0.0
C293 C 0.67222 0.6914 0.76337 0.0
C294 C 0.63642 0.58242 0.76426 0.0
C295 C 0.61416 0.68673 0.73836 0.0
C296 C 0.58488 0.72089 0.74757 0.0
C297 C 0.56298 0.75348 0.72768 0.0
C298 C 0.57135 0.75094 0.69774 0.0
C299 C 0.60156 0.71672 0.68814 0.0
C300 C 0.62273 0.68363 0.70889 0.0
H301 H 0.89786 0.2033 0.66177 0.0
H302 H 0.93613 0.41076 0.66598 0.0
H303 H 0.95442 0.39245 0.71718 0.0
H304 H 0.85812 0.20809 0.72706 0.0
H305 H 0.8662 0.12092 0.73771 0.0
H306 H 0.86492 0.1432 0.6997 0.0
H307 H 0.92638 0.09342 0.6924 0.0
H308 H 0.92775 0.07016 0.73048 0.0
H309 H 0.96143 0.12283 0.71516 0.0
H310 H 0.95983 0.35776 0.76976 0.0
H311 H 0.949 0.3122 0.81935 0.0
H312 H 0.90378 0.12987 0.78128 0.0
C313 C 0.91173 0.24342 0.67313 0.0
C314 C 0.91679 0.30756 0.65992 0.0
C315 C 0.93305 0.36068 0.67571 0.0
C316 C 0.94348 0.35067 0.70474 0.0
C317 C 0.93703 0.28745 0.71768 0.0
C318 C 0.92156 0.2346 0.70233 0.0
C319 C 0.91223 0.17592 0.72235 0.0
C320 C 0.87306 0.16125 0.72166 0.0
C321 C 0.93321 0.11179 0.71464 0.0
C322 C 0.92338 0.20517 0.75147 0.0
C323 C 0.93851 0.2687 0.74831 0.0
C324 C 0.94858 0.30752 0.77246 0.0
C325 C 0.94235 0.2813 0.80055 0.0
C326 C 0.92553 0.21761 0.80416 0.0
C327 C 0.91677 0.17867 0.77922 0.0
H328 H 0.43908 0.40376 0.00889 0.0
H329 H 0.49549 0.31737 0.0821 0.0
H330 H 0.54524 0.39199 0.07076 0.0
H331 H 0.51146 0.41867 0.9603 0.0
H332 H 0.49716 0.49842 0.9448 0.0
H333 H 0.46595 0.43838 0.95874 0.0
H334 H 0.441 0.53181 0.99283 0.0
H335 H 0.4721 0.59218 0.97896 0.0
H336 H 0.46948 0.57609 0.01765 0.0
H337 H 0.58886 0.47535 0.05128 0.0
H338 H 0.62309 0.56301 0.02555 0.0
H339 H 0.53798 0.59519 0.96517 0.0
C340 C 0.46187 0.40046 0.02258 0.0
C341 C 0.46341 0.35464 0.04638 0.0
C342 C 0.49371 0.35206 0.06375 0.0
C343 C 0.52211 0.39419 0.05747 0.0
C344 C 0.51974 0.43859 0.03379 0.0
C345 C 0.49039 0.44212 0.01665 0.0
C346 C 0.49441 0.4944 0.99253 0.0
C347 C 0.49212 0.46042 0.9623 0.0
C348 C 0.46766 0.55203 0.9957 0.0
C349 C 0.53066 0.51975 0.99878 0.0
C350 C 0.54482 0.48683 0.02264 0.0
C351 C 0.57804 0.50153 0.03258 0.0
C352 C 0.59728 0.5514 0.01779 0.0
C353 C 0.58322 0.58605 0.99336 0.0
C354 C 0.54947 0.56968 0.98377 0.0
H355 H 0.02895 0.64126 0.98495 0.0
H356 H 0.08115 0.55305 0.05999 0.0
H357 H 0.06264 0.4381 0.04433 0.0
H358 H 0.95537 0.52782 0.9859 0.0
H359 H 0.95217 0.52327 0.94668 0.0
H360 H 0.9696 0.59867 0.9638 0.0
H361 H 0.02544 0.58678 0.93292 0.0
H362 H 0.00828 0.51108 0.91585 0.0
H363 H 0.04955 0.50806 0.93413 0.0
H364 H 0.03942 0.33298 0.02028 0.0
H365 H 0.01036 0.2446 0.9908 0.0
H366 H 0.97256 0.40109 0.93164 0.0
C367 C 0.03641 0.59782 0.99815 0.0
C368 C 0.05651 0.60616 0.0237 0.0
C369 C 0.06567 0.54798 0.04039 0.0
C370 C 0.05539 0.48244 0.03163 0.0
C371 C 0.03586 0.476 0.00622 0.0
C372 C 0.02624 0.53206 0.98981 0.0
C373 C 0.00483 0.51106 0.96357 0.0
C374 C 0.96833 0.54204 0.9651 0.0
C375 C 0.02313 0.53039 0.93493 0.0
C376 C 0.00394 0.43438 0.96781 0.0
C377 C 0.02215 0.41528 0.99246 0.0
C378 C 0.02503 0.34728 0.00095 0.0
C379 C 0.00847 0.29745 0.984 0.0
C380 C 0.98915 0.31588 0.9589 0.0
C381 C 0.98716 0.38532 0.95065 0.0
H382 H 0.5565 0.94075 0.51068 0.0
H383 H 0.49666 0.86241 0.58363 0.0
H384 H 0.44694 0.9326 0.56821 0.0
H385 H 0.52355 0.11272 0.5136 0.0
H386 H 0.52321 0.1231 0.47449 0.0
H387 H 0.55407 0.06661 0.49133 0.0
H388 H 0.53237 0.96736 0.4586 0.0
H389 H 0.50125 0.02341 0.44183 0.0
H390 H 0.48711 0.94511 0.45876 0.0
H391 H 0.40363 0.00961 0.54465 0.0
H392 H 0.3704 0.09362 0.5161 0.0
H393 H 0.45848 0.12259 0.45855 0.0
C394 C 0.533 0.93847 0.52349 0.0
C395 C 0.53046 0.89597 0.54835 0.0
C396 C 0.49924 0.8946 0.56453 0.0
C397 C 0.47081 0.9341 0.5559 0.0
C398 C 0.47406 0.97476 0.5311 0.0
C399 C 0.5044 0.97764 0.51523 0.0
C400 C 0.50121 0.02621 0.48963 0.0
C401 C 0.52704 0.08568 0.49245 0.0
C402 C 0.50575 0.98823 0.46048 0.0
C403 C 0.46431 0.05025 0.49362 0.0
C404 C 0.4491 0.01966 0.51759 0.0
C405 C 0.41525 0.03399 0.52585 0.0
C406 C 0.39658 0.08175 0.50944 0.0
C407 C 0.41184 0.11478 0.4851 0.0
C408 C 0.44605 0.09808 0.47696 0.0
H409 H 0.94746 0.09636 0.54157 0.0
H410 H 0.93214 0.20472 0.45985 0.0
H411 H 0.95779 0.10834 0.43299 0.0
H412 H 0.02974 0.02665 0.5232 0.0
H413 H 0.02238 0.94621 0.54131 0.0
H414 H 0.00096 0.02211 0.55411 0.0
H415 H 0.94157 0.96197 0.54847 0.0
H416 H 0.96282 0.8859 0.53552 0.0
H417 H 0.92968 0.92567 0.5137 0.0
H418 H 0.98602 0.00229 0.41494 0.0
H419 H 0.01821 0.89525 0.40706 0.0
H420 H 0.0165 0.85603 0.50041 0.0
C421 C 0.9493 0.09955 0.51802 0.0
C422 C 0.93771 0.15798 0.50281 0.0
C423 C 0.94087 0.16054 0.472 0.0
C424 C 0.95527 0.10593 0.4565 0.0
C425 C 0.96648 0.04917 0.47211 0.0
C426 C 0.96387 0.04561 0.50217 0.0
C427 C 0.97938 0.97986 0.51367 0.0
C428 C 0.00993 0.99462 0.53428 0.0
C429 C 0.9517 0.93575 0.52873 0.0
C430 C 0.99143 0.94757 0.48539 0.0
C431 C 0.98337 0.98812 0.46168 0.0
C432 C 0.9924 0.96988 0.43331 0.0
C433 C 0.01063 0.90892 0.42906 0.0
C434 C 0.01987 0.86721 0.45311 0.0
C435 C 0.00973 0.88664 0.48157 0.0
H436 H 0.17935 0.60328 0.08029 0.0
H437 H 0.26364 0.74989 0.07888 0.0
H438 H 0.3058 0.65487 0.07867 0.0
H439 H 0.21956 0.48717 0.12937 0.0
H440 H 0.20229 0.41191 0.11195 0.0
H441 H 0.17895 0.4913 0.11009 0.0
H442 H 0.17854 0.48401 0.0536 0.0
H443 H 0.20191 0.40454 0.05527 0.0
H444 H 0.21886 0.47481 0.03424 0.0
H445 H 0.33867 0.54316 0.07876 0.0
H446 H 0.35973 0.42432 0.08245 0.0
H447 H 0.2536 0.35192 0.08614 0.0
C448 C 0.20667 0.6155 0.07961 0.0
C449 C 0.21823 0.68402 0.07937 0.0
C450 C 0.25422 0.69777 0.07905 0.0
C451 C 0.27833 0.64416 0.07882 0.0
C452 C 0.26602 0.57718 0.0792 0.0
C453 C 0.23103 0.56276 0.0798 0.0
C454 C 0.22448 0.48662 0.08164 0.0
C455 C 0.20519 0.4682 0.10995 0.0
C456 C 0.20479 0.46101 0.05457 0.0
C457 C 0.26127 0.46034 0.08207 0.0
C458 C 0.28487 0.51325 0.08031 0.0
C459 C 0.32042 0.50135 0.08021 0.0
C460 C 0.33212 0.43365 0.08226 0.0
C461 C 0.30834 0.37877 0.08475 0.0
C462 C 0.27247 0.39268 0.08448 0.0
H463 H 0.30992 0.09411 0.4175 0.0
H464 H 0.22582 0.24054 0.42118 0.0
H465 H 0.18365 0.14602 0.42328 0.0
H466 H 0.26718 0.97806 0.36994 0.0
H467 H 0.28451 0.90213 0.38669 0.0
H468 H 0.3085 0.98094 0.38818 0.0
H469 H 0.31084 0.97297 0.44461 0.0
H470 H 0.28691 0.89396 0.4433 0.0
H471 H 0.27117 0.96425 0.46495 0.0
H472 H 0.15061 0.03708 0.42368 0.0
H473 H 0.12805 0.91996 0.41953 0.0
H474 H 0.23308 0.84253 0.41303 0.0
C475 C 0.28265 0.10608 0.41917 0.0
C476 C 0.27108 0.17455 0.41935 0.0
C477 C 0.23519 0.18841 0.42097 0.0
C478 C 0.21106 0.13511 0.4223 0.0
C479 C 0.22322 0.06819 0.42171 0.0
C480 C 0.2581 0.05334 0.42 0.0
C481 C 0.26398 0.9769 0.41776 0.0
C482 C 0.28211 0.95845 0.38893 0.0
C483 C 0.28444 0.95047 0.44424 0.0
C484 C 0.22693 0.95132 0.41821 0.0
C485 C 0.20394 0.00491 0.4209 0.0
C486 C 0.16834 0.9946 0.42161 0.0
C487 C 0.15579 0.92772 0.41927 0.0
C488 C 0.17875 0.87181 0.41589 0.0
C489 C 0.21484 0.88405 0.41553 0.0
H490 H 0.76457 0.63447 0.90381 0.0
H491 H 0.66738 0.5443 0.93189 0.0
H492 H 0.69383 0.43003 0.93011 0.0
H493 H 0.78862 0.50437 0.85403 0.0
H494 H 0.83405 0.50652 0.86285 0.0
H495 H 0.80811 0.58213 0.86729 0.0
H496 H 0.82672 0.59036 0.92153 0.0
H497 H 0.8529 0.51493 0.91722 0.0
H498 H 0.82028 0.51805 0.94529 0.0
H499 H 0.72868 0.32524 0.92109 0.0
H500 H 0.77201 0.23632 0.91008 0.0
H501 H 0.84813 0.39305 0.89122 0.0
C502 C 0.74894 0.59075 0.90982 0.0
C503 C 0.71382 0.59848 0.91788 0.0
C504 C 0.69432 0.5399 0.9257 0.0
C505 C 0.70908 0.47465 0.9247 0.0
C506 C 0.74353 0.46874 0.91626 0.0
C507 C 0.76344 0.52514 0.90939 0.0
C508 C 0.79989 0.50425 0.90098 0.0
C509 C 0.80814 0.52558 0.86941 0.0
C510 C 0.82652 0.53364 0.92255 0.0
C511 C 0.79713 0.42725 0.90376 0.0
C512 C 0.76426 0.40799 0.91236 0.0
C513 C 0.75464 0.33965 0.91475 0.0
C514 C 0.77931 0.28957 0.90829 0.0
C515 C 0.81331 0.30803 0.89999 0.0
C516 C 0.8224 0.37776 0.89793 0.0
H517 H 0.74002 0.86555 0.59289 0.0
H518 H 0.63682 0.95119 0.60006 0.0
H519 H 0.66155 0.0674 0.59922 0.0
H520 H 0.78406 0.98956 0.63725 0.0
H521 H 0.82212 0.99261 0.61457 0.0
H522 H 0.79652 0.91577 0.61618 0.0
H523 H 0.7895 0.91785 0.55993 0.0
H524 H 0.81515 0.99461 0.55814 0.0
H525 H 0.77236 0.99314 0.54251 0.0
H526 H 0.69733 0.17387 0.59988 0.0
H527 H 0.7416 0.2646 0.59774 0.0
H528 H 0.82155 0.11125 0.58675 0.0
C529 C 0.72266 0.90878 0.59434 0.0
C530 C 0.68648 0.89926 0.59673 0.0
C531 C 0.66459 0.95718 0.59819 0.0
C532 C 0.67839 0.02341 0.59782 0.0
C533 C 0.71412 0.03102 0.59556 0.0
C534 C 0.73596 0.97543 0.59347 0.0
C535 C 0.77334 0.99807 0.59035 0.0
C536 C 0.7953 0.97248 0.61613 0.0
C537 C 0.78847 0.97452 0.56098 0.0
C538 C 0.76906 0.07504 0.59127 0.0
C539 C 0.7347 0.0928 0.59459 0.0
C540 C 0.72429 0.16064 0.59704 0.0
C541 C 0.74964 0.21178 0.59592 0.0
C542 C 0.78497 0.19497 0.59195 0.0
C543 C 0.7947 0.12561 0.5895 0.0
loop_
_geom_bond_atom_site_label_1
_geom_bond_atom_site_label_2
_geom_bond_distance
_geom_bond_site_symmetry_2
_ccdc_geom_bond_type
Mg0 O1 2.028 . S
Mg0 O7 1.986 . S
Mg0 O9 2.114 . S
Mg0 O10 2.251 . S
Mg0 O13 2.010 . S
O1 Mg0 2.028 . S
O1 C4 1.250 . S
O2 Mg3 2.028 . S
O2 C4 1.248 . S
Mg3 O2 2.028 . S
Mg3 O8 2.032 . S
Mg3 O10 2.079 . S
C4 O1 1.250 . S
C4 O2 1.248 . S
C5 O6 1.264 . S
C5 O13 1.249 . S
O6 C5 1.264 . S
O7 Mg0 1.986 . S
O7 C11 1.246 . S
O8 Mg3 2.032 . S
O8 C11 1.259 . S
O9 Mg0 2.114 . S
O9 C12 1.252 . S
O10 Mg0 2.251 . S
O10 Mg3 2.079 . S
O10 C12 1.273 . S
C11 O7 1.246 . S
C11 O8 1.259 . S
C12 O9 1.252 . S
C12 O10 1.273 . S
O13 Mg0 2.010 . S
O13 C5 1.249 . S
Mg14 O15 2.028 . S
Mg14 O21 1.986 . S
Mg14 O23 2.114 . S
Mg14 O24 2.251 . S
Mg14 O27 2.010 . S
O15 Mg14 2.028 . S
O15 C18 1.250 . S
O16 Mg17 2.028 . S
O16 C18 1.248 . S
Mg17 O16 2.028 . S
Mg17 O22 2.032 . S
Mg17 O24 2.079 . S
C18 O15 1.250 . S
C18 O16 1.248 . S
C19 O20 1.264 . S
C19 O27 1.249 . S
O20 C19 1.264 . S
O21 Mg14 1.986 . S
O21 C25 1.246 . S
O22 Mg17 2.032 . S
O22 C25 1.259 . S
O23 Mg14 2.114 . S
O23 C26 1.252 . S
O24 Mg14 2.251 . S
O24 Mg17 2.079 . S
O24 C26 1.273 . S
C25 O21 1.246 . S
C25 O22 1.259 . S
C26 O23 1.252 . S
C26 O24 1.273 . S
O27 Mg14 2.010 . S
O27 C19 1.249 . S
Mg28 O29 2.028 . S
Mg28 O35 1.986 . S
Mg28 O37 2.114 . S
Mg28 O38 2.251 . S
Mg28 O41 2.010 . S
O29 Mg28 2.028 . S
O29 C32 1.250 . S
O30 Mg31 2.028 . S
O30 C32 1.248 . S
Mg31 O30 2.028 . S
Mg31 O36 2.032 . S
Mg31 O38 2.079 . S
C32 O29 1.250 . S
C32 O30 1.248 . S
C33 O34 1.264 . S
C33 O41 1.249 . S
O34 C33 1.264 . S
O35 Mg28 1.986 . S
O35 C39 1.246 . S
O36 Mg31 2.032 . S
O36 C39 1.259 . S
O37 Mg28 2.114 . S
O37 C40 1.252 . S
O38 Mg28 2.251 . S
O38 Mg31 2.079 . S
O38 C40 1.273 . S
C39 O35 1.246 . S
C39 O36 1.259 . S
C40 O37 1.252 . S
C40 O38 1.273 . S
O41 Mg28 2.010 . S
O41 C33 1.249 . S
Mg42 O43 2.028 . S
Mg42 O49 1.986 . S
Mg42 O51 2.114 . S
Mg42 O52 2.251 . S
Mg42 O55 2.010 . S
O43 Mg42 2.028 . S
O43 C46 1.250 . S
O44 Mg45 2.028 . S
O44 C46 1.248 . S
Mg45 O44 2.028 . S
Mg45 O50 2.032 . S
Mg45 O52 2.079 . S
C46 O43 1.250 . S
C46 O44 1.248 . S
C47 O48 1.264 . S
C47 O55 1.249 . S
O48 C47 1.264 . S
O49 Mg42 1.986 . S
O49 C53 1.246 . S
O50 Mg45 2.032 . S
O50 C53 1.259 . S
O51 Mg42 2.114 . S
O51 C54 1.252 . S
O52 Mg42 2.251 . S
O52 Mg45 2.079 . S
O52 C54 1.273 . S
C53 O49 1.246 . S
C53 O50 1.259 . S
C54 O51 1.252 . S
C54 O52 1.273 . S
O55 Mg42 2.010 . S
O55 C47 1.249 . S
Mg56 O57 2.028 . S
Mg56 O63 1.986 . S
Mg56 O65 2.114 . S
Mg56 O66 2.251 . S
Mg56 O69 2.010 . S
O57 Mg56 2.028 . S
O57 C60 1.250 . S
O58 Mg59 2.028 . S
O58 C60 1.248 . S
Mg59 O58 2.028 . S
Mg59 O64 2.032 . S
Mg59 O66 2.079 . S
C60 O57 1.250 . S
C60 O58 1.248 . S
C61 O62 1.264 . S
C61 O69 1.249 . S
O62 C61 1.264 . S
O63 Mg56 1.986 . S
O63 C67 1.246 . S
O64 Mg59 2.032 . S
O64 C67 1.259 . S
O65 Mg56 2.114 . S
O65 C68 1.252 . S
O66 Mg56 2.251 . S
O66 Mg59 2.079 . S
O66 C68 1.273 . S
C67 O63 1.246 . S
C67 O64 1.259 . S
C68 O65 1.252 . S
C68 O66 1.273 . S
O69 Mg56 2.010 . S
O69 C61 1.249 . S
Mg70 O71 2.028 . S
Mg70 O77 1.986 . S
Mg70 O79 2.114 . S
Mg70 O80 2.251 . S
Mg70 O83 2.010 . S
O71 Mg70 2.028 . S
O71 C74 1.250 . S
O72 Mg73 2.028 . S
O72 C74 1.248 . S
Mg73 O72 2.028 . S
Mg73 O78 2.032 . S
Mg73 O80 2.079 . S
C74 O71 1.250 . S
C74 O72 1.248 . S
C75 O76 1.264 . S
C75 O83 1.249 . S
O76 C75 1.264 . S
O77 Mg70 1.986 . S
O77 C81 1.246 . S
O78 Mg73 2.032 . S
O78 C81 1.259 . S
O79 Mg70 2.114 . S
O79 C82 1.252 . S
O80 Mg70 2.251 . S
O80 Mg73 2.079 . S
O80 C82 1.273 . S
C81 O77 1.246 . S
C81 O78 1.259 . S
C82 O79 1.252 . S
C82 O80 1.273 . S
O83 Mg70 2.010 . S
O83 C75 1.249 . S
Mg84 O85 2.028 . S
Mg84 O91 1.986 . S
Mg84 O93 2.114 . S
Mg84 O94 2.251 . S
Mg84 O97 2.010 . S
O85 Mg84 2.028 . S
O85 C88 1.250 . S
O86 Mg87 2.028 . S
O86 C88 1.248 . S
Mg87 O86 2.028 . S
Mg87 O92 2.032 . S
Mg87 O94 2.079 . S
C88 O85 1.250 . S
C88 O86 1.248 . S
C89 O90 1.264 . S
C89 O97 1.249 . S
O90 C89 1.264 . S
O91 Mg84 1.986 . S
O91 C95 1.246 . S
O92 Mg87 2.032 . S
O92 C95 1.259 . S
O93 Mg84 2.114 . S
O93 C96 1.252 . S
O94 Mg84 2.251 . S
O94 Mg87 2.079 . S
O94 C96 1.273 . S
C95 O91 1.246 . S
C95 O92 1.259 . S
C96 O93 1.252 . S
C96 O94 1.273 . S
O97 Mg84 2.010 . S
O97 C89 1.249 . S
Mg98 O99 2.028 . S
Mg98 O105 1.986 . S
Mg98 O107 2.114 . S
Mg98 O108 2.251 . S
Mg98 O111 2.010 . S
O99 Mg98 2.028 . S
O99 C102 1.250 . S
O100 Mg101 2.028 . S
O100 C102 1.248 . S
Mg101 O100 2.028 . S
Mg101 O106 2.032 . S
Mg101 O108 2.079 . S
C102 O99 1.250 . S
C102 O100 1.248 . S
C103 O104 1.264 . S
C103 O111 1.249 . S
O104 C103 1.264 . S
O105 Mg98 1.986 . S
O105 C109 1.246 . S
O106 Mg101 2.032 . S
O106 C109 1.259 . S
O107 Mg98 2.114 . S
O107 C110 1.252 . S
O108 Mg98 2.251 . S
O108 Mg101 2.079 . S
O108 C110 1.273 . S
C109 O105 1.246 . S
C109 O106 1.259 . S
C110 O107 1.252 . S
C110 O108 1.273 . S
O111 Mg98 2.010 . S
O111 C103 1.249 . S
H112 C124 0.930 . S
H113 C126 0.930 . S
H114 C127 0.930 . S
H115 C131 0.959 . S
H116 C131 0.959 . S
H117 C131 0.961 . S
H118 C132 0.960 . S
H119 C132 0.961 . S
H120 C132 0.959 . S
H121 C135 0.929 . S
H122 C136 0.931 . S
H123 C138 0.930 . S
C124 H112 0.930 . S
C124 C125 1.399 . S
C124 C129 1.399 . S
C125 C124 1.399 . S
C125 C126 1.376 . S
C126 H113 0.930 . S
C126 C125 1.376 . S
C126 C127 1.388 . S
C127 H114 0.930 . S
C127 C126 1.388 . S
C127 C128 1.390 . S
C128 C127 1.390 . S
C128 C129 1.394 . S
C128 C134 1.465 1_545 S
C129 C124 1.399 . S
C129 C128 1.394 . S
C129 C130 1.516 1_545 S
C130 C129 1.516 1_565 S
C130 C131 1.502 . S
C130 C132 1.561 1_565 S
C130 C133 1.526 . S
C131 H115 0.959 . S
C131 H116 0.959 . S
C131 H117 0.961 . S
C131 C130 1.502 . S
C132 H118 0.960 . S
C132 H119 0.961 . S
C132 H120 0.959 . S
C132 C130 1.561 1_545 S
C133 C130 1.526 . S
C133 C134 1.396 . S
C133 C138 1.390 . S
C134 C128 1.465 1_565 S
C134 C133 1.396 . S
C134 C135 1.399 . S
C135 H121 0.929 . S
C135 C134 1.399 . S
C135 C136 1.385 . S
C136 H122 0.931 . S
C136 C135 1.385 . S
C136 C137 1.389 . S
C137 C136 1.389 . S
C137 C138 1.387 . S
C138 H123 0.930 . S
C138 C133 1.390 . S
C138 C137 1.387 . S
H139 C151 0.930 . S
H140 C153 0.930 . S
H141 C154 0.930 . S
H142 C158 0.959 . S
H143 C158 0.959 . S
H144 C158 0.961 . S
H145 C159 0.960 . S
H146 C159 0.961 . S
H147 C159 0.959 . S
H148 C162 0.929 . S
H149 C163 0.931 . S
H150 C165 0.930 . S
C151 H139 0.930 . S
C151 C152 1.399 . S
C151 C156 1.399 . S
C152 C151 1.399 . S
C152 C153 1.376 . S
C153 H140 0.930 . S
C153 C152 1.376 . S
C153 C154 1.388 . S
C154 H141 0.930 . S
C154 C153 1.388 . S
C154 C155 1.390 . S
C155 C154 1.390 . S
C155 C156 1.394 . S
C155 C161 1.465 . S
C156 C151 1.399 . S
C156 C155 1.394 . S
C156 C157 1.516 . S
C157 C156 1.516 . S
C157 C158 1.502 . S
C157 C159 1.561 . S
C157 C160 1.526 . S
C158 H142 0.959 . S
C158 H143 0.959 . S
C158 H144 0.961 . S
C158 C157 1.502 . S
C159 H145 0.960 . S
C159 H146 0.961 . S
C159 H147 0.959 . S
C159 C157 1.561 . S
C160 C157 1.526 . S
C160 C161 1.396 . S
C160 C165 1.390 . S
C161 C155 1.465 . S
C161 C160 1.396 . S
C161 C162 1.399 . S
C162 H148 0.929 . S
C162 C161 1.399 . S
C162 C163 1.385 . S
C163 H149 0.931 . S
C163 C162 1.385 . S
C163 C164 1.389 . S
C164 C163 1.389 . S
C164 C165 1.387 . S
C165 H150 0.930 . S
C165 C160 1.390 . S
C165 C164 1.387 . S
H166 C178 0.930 . S
H167 C180 0.930 . S
H168 C181 0.930 . S
H169 C185 0.959 . S
H170 C185 0.959 1_554 S
H171 C185 0.961 1_554 S
H172 C186 0.960 1_554 S
H173 C186 0.961 1_554 S
H174 C186 0.959 . S
H175 C189 0.929 . S
H176 C190 0.931 . S
H177 C192 0.930 . S
C178 H166 0.930 . S
C178 C179 1.399 . S
C178 C183 1.399 . S
C179 C178 1.399 . S
C179 C180 1.376 . S
C180 H167 0.930 . S
C180 C179 1.376 . S
C180 C181 1.388 . S
C181 H168 0.930 . S
C181 C180 1.388 . S
C181 C182 1.390 . S
C182 C181 1.390 . S
C182 C183 1.394 . S
C182 C188 1.465 1_565 S
C183 C178 1.399 . S
C183 C182 1.394 . S
C183 C184 1.515 . S
C184 C183 1.515 . S
C184 C185 1.503 1_565 S
C184 C186 1.560 . S
C184 C187 1.527 1_565 S
C185 H169 0.959 . S
C185 H170 0.959 1_556 S
C185 H171 0.961 1_556 S
C185 C184 1.503 1_545 S
C186 H172 0.960 1_556 S
C186 H173 0.961 1_556 S
C186 H174 0.959 . S
C186 C184 1.560 . S
C187 C184 1.527 1_545 S
C187 C188 1.396 . S
C187 C192 1.390 . S
C188 C182 1.465 1_545 S
C188 C187 1.396 . S
C188 C189 1.399 . S
C189 H175 0.929 . S
C189 C188 1.399 . S
C189 C190 1.385 . S
C190 H176 0.931 . S
C190 C189 1.385 . S
C190 C191 1.389 . S
C191 C190 1.389 . S
C191 C192 1.387 . S
C192 H177 0.930 . S
C192 C187 1.390 . S
C192 C191 1.387 . S
H193 C205 0.930 . S
H194 C207 0.930 . S
H195 C208 0.930 . S
H196 C212 0.959 . S
H197 C212 0.959 . S
H198 C212 0.961 . S
H199 C213 0.960 . S
H200 C213 0.961 . S
H201 C213 0.959 . S
H202 C216 0.929 . S
H203 C217 0.931 . S
H204 C219 0.930 . S
C205 H193 0.930 . S
C205 C206 1.399 . S
C205 C210 1.399 . S
C206 C205 1.399 . S
C206 C207 1.376 . S
C207 H194 0.930 . S
C207 C206 1.376 . S
C207 C208 1.388 . S
C208 H195 0.930 . S
C208 C207 1.388 . S
C208 C209 1.390 . S
C209 C208 1.390 . S
C209 C210 1.394 . S
C209 C215 1.465 . S
C210 C205 1.399 . S
C210 C209 1.394 . S
C210 C211 1.516 . S
C211 C210 1.516 . S
C211 C212 1.502 . S
C211 C213 1.561 . S
C211 C214 1.526 . S
C212 H196 0.959 . S
C212 H197 0.959 . S
C212 H198 0.961 . S
C212 C211 1.502 . S
C213 H199 0.960 . S
C213 H200 0.961 . S
C213 H201 0.959 . S
C213 C211 1.561 . S
C214 C211 1.526 . S
C214 C215 1.396 . S
C214 C219 1.390 . S
C215 C209 1.465 . S
C215 C214 1.396 . S
C215 C216 1.399 . S
C216 H202 0.929 . S
C216 C215 1.399 . S
C216 C217 1.385 . S
C217 H203 0.931 . S
C217 C216 1.385 . S
C217 C218 1.389 . S
C218 C217 1.389 . S
C218 C219 1.387 . S
C219 H204 0.930 . S
C219 C214 1.390 . S
C219 C218 1.387 . S
H220 C232 0.930 . S
H221 C234 0.930 . S
H222 C235 0.930 . S
H223 C239 0.959 . S
H224 C239 0.959 . S
H225 C239 0.961 . S
H226 C240 0.960 . S
H227 C240 0.961 . S
H228 C240 0.959 . S
H229 C243 0.929 . S
H230 C244 0.931 . S
H231 C246 0.930 . S
C232 H220 0.930 . S
C232 C233 1.399 . S
C232 C237 1.399 . S
C233 C232 1.399 . S
C233 C234 1.376 . S
C234 H221 0.930 . S
C234 C233 1.376 . S
C234 C235 1.388 . S
C235 H222 0.930 . S
C235 C234 1.388 . S
C235 C236 1.390 . S
C236 C235 1.390 . S
C236 C237 1.394 . S
C236 C242 1.465 . S
C237 C232 1.399 . S
C237 C236 1.394 . S
C237 C238 1.516 . S
C238 C237 1.516 . S
C238 C239 1.502 . S
C238 C240 1.561 . S
C238 C241 1.526 . S
C239 H223 0.959 . S
C239 H224 0.959 . S
C239 H225 0.961 . S
C239 C238 1.502 . S
C240 H226 0.960 . S
C240 H227 0.961 . S
C240 H228 0.959 . S
C240 C238 1.561 . S
C241 C238 1.526 . S
C241 C242 1.396 . S
C241 C246 1.390 . S
C242 C236 1.465 . S
C242 C241 1.396 . S
C242 C243 1.399 . S
C243 H229 0.929 . S
C243 C242 1.399 . S
C243 C244 1.385 . S
C244 H230 0.931 . S
C244 C243 1.385 . S
C244 C245 1.389 . S
C245 C244 1.389 . S
C245 C246 1.387 . S
C246 H231 0.930 . S
C246 C241 1.390 . S
C246 C245 1.387 . S
H247 C259 0.930 . S
H248 C261 0.930 . S
H249 C262 0.930 . S
H250 C266 0.959 . S
H251 C266 0.959 . S
H252 C266 0.961 . S
H253 C267 0.960 . S
H254 C267 0.961 . S
H255 C267 0.959 . S
H256 C270 0.929 . S
H257 C271 0.931 . S
H258 C273 0.930 . S
C259 H247 0.930 . S
C259 C260 1.399 . S
C259 C264 1.399 . S
C260 C259 1.399 . S
C260 C261 1.376 . S
C261 H248 0.930 . S
C261 C260 1.376 . S
C261 C262 1.388 . S
C262 H249 0.930 . S
C262 C261 1.388 . S
C262 C263 1.390 . S
C263 C262 1.390 . S
C263 C264 1.394 . S
C263 C269 1.465 . S
C264 C259 1.399 . S
C264 C263 1.394 . S
C264 C265 1.516 . S
C265 C264 1.516 . S
C265 C266 1.502 . S
C265 C267 1.561 . S
C265 C268 1.526 . S
C266 H250 0.959 . S
C266 H251 0.959 . S
C266 H252 0.961 . S
C266 C265 1.502 . S
C267 H253 0.960 . S
C267 H254 0.961 . S
C267 H255 0.959 . S
C267 C265 1.561 . S
C268 C265 1.526 . S
C268 C269 1.396 . S
C268 C273 1.390 . S
C269 C263 1.465 . S
C269 C268 1.396 . S
C269 C270 1.399 . S
C270 H256 0.929 . S
C270 C269 1.399 . S
C270 C271 1.385 . S
C271 H257 0.931 . S
C271 C270 1.385 . S
C271 C272 1.389 . S
C272 C271 1.389 . S
C272 C273 1.387 . S
C273 H258 0.930 . S
C273 C268 1.390 . S
C273 C272 1.387 . S
H274 C286 0.930 . S
H275 C288 0.930 . S
H276 C289 0.930 . S
H277 C293 0.959 . S
H278 C293 0.959 . S
H279 C293 0.961 . S
H280 C294 0.960 . S
H281 C294 0.961 . S
H282 C294 0.959 . S
H283 C297 0.929 . S
H284 C298 0.931 . S
H285 C300 0.930 . S
C286 H274 0.930 . S
C286 C287 1.399 . S
C286 C291 1.399 . S
C287 C286 1.399 . S
C287 C288 1.376 . S
C288 H275 0.930 . S
C288 C287 1.376 . S
C288 C289 1.388 . S
C289 H276 0.930 . S
C289 C288 1.388 . S
C289 C290 1.390 . S
C290 C289 1.390 . S
C290 C291 1.394 . S
C290 C296 1.465 . S
C291 C286 1.399 . S
C291 C290 1.394 . S
C291 C292 1.516 . S
C292 C291 1.516 . S
C292 C293 1.502 . S
C292 C294 1.561 . S
C292 C295 1.526 . S
C293 H277 0.959 . S
C293 H278 0.959 . S
C293 H279 0.961 . S
C293 C292 1.502 . S
C294 H280 0.960 . S
C294 H281 0.961 . S
C294 H282 0.959 . S
C294 C292 1.561 . S
C295 C292 1.526 . S
C295 C296 1.396 . S
C295 C300 1.390 . S
C296 C290 1.465 . S
C296 C295 1.396 . S
C296 C297 1.399 . S
C297 H283 0.929 . S
C297 C296 1.399 . S
C297 C298 1.385 . S
C298 H284 0.931 . S
C298 C297 1.385 . S
C298 C299 1.389 . S
C299 C298 1.389 . S
C299 C300 1.387 . S
C300 H285 0.930 . S
C300 C295 1.390 . S
C300 C299 1.387 . S
H301 C313 0.930 . S
H302 C315 0.930 . S
H303 C316 0.930 . S
H304 C320 0.959 . S
H305 C320 0.959 . S
H306 C320 0.961 . S
H307 C321 0.960 . S
H308 C321 0.961 . S
H309 C321 0.959 . S
H310 C324 0.929 . S
H311 C325 0.931 . S
H312 C327 0.930 . S
C313 H301 0.930 . S
C313 C314 1.399 . S
C313 C318 1.399 . S
C314 C313 1.399 . S
C314 C315 1.376 . S
C315 H302 0.930 . S
C315 C314 1.376 . S
C315 C316 1.388 . S
C316 H303 0.930 . S
C316 C315 1.388 . S
C316 C317 1.390 . S
C317 C316 1.390 . S
C317 C318 1.394 . S
C317 C323 1.465 . S
C318 C313 1.399 . S
C318 C317 1.394 . S
C318 C319 1.516 . S
C319 C318 1.516 . S
C319 C320 1.502 . S
C319 C321 1.561 . S
C319 C322 1.526 . S
C320 H304 0.959 . S
C320 H305 0.959 . S
C320 H306 0.961 . S
C320 C319 1.502 . S
C321 H307 0.960 . S
C321 H308 0.961 . S
C321 H309 0.959 . S
C321 C319 1.561 . S
C322 C319 1.526 . S
C322 C323 1.396 . S
C322 C327 1.390 . S
C323 C317 1.465 . S
C323 C322 1.396 . S
C323 C324 1.399 . S
C324 H310 0.929 . S
C324 C323 1.399 . S
C324 C325 1.385 . S
C325 H311 0.931 . S
C325 C324 1.385 . S
C325 C326 1.389 . S
C326 C325 1.389 . S
C326 C327 1.387 . S
C327 H312 0.930 . S
C327 C322 1.390 . S
C327 C326 1.387 . S
H328 C340 0.930 1_556 S
H329 C342 0.930 . S
H330 C343 0.930 . S
H331 C347 0.959 . S
H332 C347 0.959 . S
H333 C347 0.961 . S
H334 C348 0.960 . S
H335 C348 0.961 . S
H336 C348 0.959 . S
H337 C351 0.929 . S
H338 C352 0.931 . S
H339 C354 0.930 . S
C340 H328 0.930 1_554 S
C340 C341 1.399 . S
C340 C345 1.399 1_554 S
C341 C340 1.399 . S
C341 C342 1.376 . S
C342 H329 0.930 . S
C342 C341 1.376 . S
C342 C343 1.388 . S
C343 H330 0.930 . S
C343 C342 1.388 . S
C343 C344 1.390 . S
C344 C343 1.390 . S
C344 C345 1.394 1_554 S
C344 C350 1.465 . S
C345 C340 1.399 1_556 S
C345 C344 1.394 1_556 S
C345 C346 1.516 . S
C346 C345 1.516 . S
C346 C347 1.502 . S
C346 C348 1.561 . S
C346 C349 1.526 . S
C347 H331 0.959 . S
C347 H332 0.959 . S
C347 H333 0.961 . S
C347 C346 1.502 . S
C348 H334 0.960 . S
C348 H335 0.961 . S
C348 H336 0.959 . S
C348 C346 1.561 . S
C349 C346 1.526 . S
C349 C350 1.396 1_556 S
C349 C354 1.390 . S
C350 C344 1.465 . S
C350 C349 1.396 1_554 S
C350 C351 1.399 . S
C351 H337 0.929 . S
C351 C350 1.399 . S
C351 C352 1.385 . S
C352 H338 0.931 . S
C352 C351 1.385 . S
C352 C353 1.389 1_554 S
C353 C352 1.389 1_556 S
C353 C354 1.387 . S
C354 H339 0.930 . S
C354 C349 1.390 . S
C354 C353 1.387 . S
H355 C367 0.930 1_556 S
H356 C369 0.930 . S
H357 C370 0.930 . S
H358 C374 0.959 . S
H359 C374 0.959 . S
H360 C374 0.961 . S
H361 C375 0.960 . S
H362 C375 0.961 . S
H363 C375 0.959 . S
H364 C378 0.929 . S
H365 C379 0.931 . S
H366 C381 0.930 . S
C367 H355 0.930 1_554 S
C367 C368 1.399 . S
C367 C372 1.399 1_554 S
C368 C367 1.399 . S
C368 C369 1.376 . S
C369 H356 0.930 . S
C369 C368 1.376 . S
C369 C370 1.388 . S
C370 H357 0.930 . S
C370 C369 1.388 . S
C370 C371 1.390 . S
C371 C370 1.390 . S
C371 C372 1.394 1_554 S
C371 C377 1.465 1_455 S
C372 C367 1.399 1_556 S
C372 C371 1.394 1_556 S
C372 C373 1.516 1_455 S
C373 C372 1.516 1_655 S
C373 C374 1.502 . S
C373 C375 1.561 1_655 S
C373 C376 1.526 . S
C374 H358 0.959 . S
C374 H359 0.959 . S
C374 H360 0.961 . S
C374 C373 1.502 . S
C375 H361 0.960 . S
C375 H362 0.961 . S
C375 H363 0.959 . S
C375 C373 1.561 1_455 S
C376 C373 1.526 . S
C376 C377 1.396 1_556 S
C376 C381 1.390 . S
C377 C371 1.465 1_655 S
C377 C376 1.396 1_554 S
C377 C378 1.399 . S
C378 H364 0.929 . S
C378 C377 1.399 . S
C378 C379 1.385 . S
C379 H365 0.931 . S
C379 C378 1.385 . S
C379 C380 1.389 1_554 S
C380 C379 1.389 1_556 S
C380 C381 1.387 . S
C381 H366 0.930 . S
C381 C376 1.390 . S
C381 C380 1.387 . S
H382 C394 0.930 . S
H383 C396 0.930 . S
H384 C397 0.930 . S
H385 C401 0.959 . S
H386 C401 0.959 . S
H387 C401 0.961 . S
H388 C402 0.960 . S
H389 C402 0.961 . S
H390 C402 0.959 . S
H391 C405 0.929 . S
H392 C406 0.931 . S
H393 C408 0.930 . S
C394 H382 0.930 . S
C394 C395 1.399 . S
C394 C399 1.399 . S
C395 C394 1.399 . S
C395 C396 1.376 . S
C396 H383 0.930 . S
C396 C395 1.376 . S
C396 C397 1.388 . S
C397 H384 0.930 . S
C397 C396 1.388 . S
C397 C398 1.390 . S
C398 C397 1.390 . S
C398 C399 1.394 . S
C398 C404 1.465 1_565 S
C399 C394 1.399 . S
C399 C398 1.394 . S
C399 C400 1.515 1_565 S
C400 C399 1.515 1_545 S
C400 C401 1.503 . S
C400 C402 1.560 1_545 S
C400 C403 1.527 . S
C401 H385 0.959 . S
C401 H386 0.959 . S
C401 H387 0.961 . S
C401 C400 1.503 . S
C402 H388 0.960 . S
C402 H389 0.961 . S
C402 H390 0.959 . S
C402 C400 1.560 1_565 S
C403 C400 1.527 . S
C403 C404 1.396 . S
C403 C408 1.390 . S
C404 C398 1.465 1_545 S
C404 C403 1.396 . S
C404 C405 1.399 . S
C405 H391 0.929 . S
C405 C404 1.399 . S
C405 C406 1.385 . S
C406 H392 0.931 . S
C406 C405 1.385 . S
C406 C407 1.389 . S
C407 C406 1.389 . S
C407 C408 1.387 . S
C408 H393 0.930 . S
C408 C403 1.390 . S
C408 C407 1.387 . S
H409 C421 0.930 . S
H410 C423 0.930 . S
H411 C424 0.930 . S
H412 C428 0.959 1_545 S
H413 C428 0.959 . S
H414 C428 0.961 1_545 S
H415 C429 0.960 . S
H416 C429 0.961 1_455 S
H417 C429 0.959 . S
H418 C432 0.929 1_655 S
H419 C433 0.931 . S
H420 C435 0.930 . S
C421 H409 0.930 . S
C421 C422 1.399 . S
C421 C426 1.399 . S
C422 C421 1.399 . S
C422 C423 1.376 . S
C423 H410 0.930 . S
C423 C422 1.376 . S
C423 C424 1.388 . S
C424 H411 0.930 . S
C424 C423 1.388 . S
C424 C425 1.390 . S
C425 C424 1.390 . S
C425 C426 1.394 . S
C425 C431 1.460 1_645 S
C426 C421 1.399 . S
C426 C425 1.394 . S
C426 C427 1.516 1_645 S
C427 C426 1.516 1_465 S
C427 C428 1.502 . S
C427 C429 1.561 1_455 S
C427 C430 1.526 . S
C428 H412 0.959 1_565 S
C428 H413 0.959 . S
C428 H414 0.961 1_565 S
C428 C427 1.502 . S
C429 H415 0.960 . S
C429 H416 0.961 1_655 S
C429 H417 0.959 . S
C429 C427 1.561 1_655 S
C430 C427 1.526 . S
C430 C431 1.402 . S
C430 C435 1.390 . S
C431 C425 1.460 1_465 S
C431 C430 1.402 . S
C431 C432 1.399 . S
C432 H418 0.929 1_455 S
C432 C431 1.399 . S
C432 C433 1.385 . S
C433 H419 0.931 . S
C433 C432 1.385 . S
C433 C434 1.389 . S
C434 C433 1.389 . S
C434 C435 1.387 . S
C435 H420 0.930 . S
C435 C430 1.390 . S
C435 C434 1.387 . S
H436 C448 0.930 . S
H437 C450 0.930 . S
H438 C451 0.930 . S
H439 C455 0.959 . S
H440 C455 0.959 . S
H441 C455 0.961 . S
H442 C456 0.960 . S
H443 C456 0.961 . S
H444 C456 0.959 . S
H445 C459 0.929 . S
H446 C460 0.931 . S
H447 C462 0.930 . S
C448 H436 0.930 . S
C448 C449 1.399 . S
C448 C453 1.399 . S
C449 C448 1.399 . S
C449 C450 1.376 . S
C450 H437 0.930 . S
C450 C449 1.376 . S
C450 C451 1.388 . S
C451 H438 0.930 . S
C451 C450 1.388 . S
C451 C452 1.390 . S
C452 C451 1.390 . S
C452 C453 1.394 . S
C452 C458 1.465 . S
C453 C448 1.399 . S
C453 C452 1.394 . S
C453 C454 1.516 . S
C454 C453 1.516 . S
C454 C455 1.502 . S
C454 C456 1.561 . S
C454 C457 1.526 . S
C455 H439 0.959 . S
C455 H440 0.959 . S
C455 H441 0.961 . S
C455 C454 1.502 . S
C456 H442 0.960 . S
C456 H443 0.961 . S
C456 H444 0.959 . S
C456 C454 1.561 . S
C457 C454 1.526 . S
C457 C458 1.396 . S
C457 C462 1.390 . S
C458 C452 1.465 . S
C458 C457 1.396 . S
C458 C459 1.399 . S
C459 H445 0.929 . S
C459 C458 1.399 . S
C459 C460 1.385 . S
C460 H446 0.931 . S
C460 C459 1.385 . S
C460 C461 1.389 . S
C461 C460 1.389 . S
C461 C462 1.387 . S
C462 H447 0.930 . S
C462 C457 1.390 . S
C462 C461 1.387 . S
H463 C475 0.930 . S
H464 C477 0.930 . S
H465 C478 0.930 . S
H466 C482 0.959 . S
H467 C482 0.959 . S
H468 C482 0.961 . S
H469 C483 0.960 . S
H470 C483 0.961 1_565 S
H471 C483 0.959 . S
H472 C486 0.929 . S
H473 C487 0.931 . S
H474 C489 0.930 . S
C475 H463 0.930 . S
C475 C476 1.399 . S
C475 C480 1.399 . S
C476 C475 1.399 . S
C476 C477 1.376 . S
C477 H464 0.930 . S
C477 C476 1.376 . S
C477 C478 1.388 . S
C478 H465 0.930 . S
C478 C477 1.388 . S
C478 C479 1.390 . S
C479 C478 1.390 . S
C479 C480 1.394 . S
C479 C485 1.465 1_545 S
C480 C475 1.399 . S
C480 C479 1.394 . S
C480 C481 1.516 1_545 S
C481 C480 1.516 1_565 S
C481 C482 1.502 . S
C481 C483 1.561 1_565 S
C481 C484 1.526 . S
C482 H466 0.959 . S
C482 H467 0.959 . S
C482 H468 0.961 . S
C482 C481 1.502 . S
C483 H469 0.960 . S
C483 H470 0.961 1_545 S
C483 H471 0.959 . S
C483 C481 1.561 1_545 S
C484 C481 1.526 . S
C484 C485 1.396 . S
C484 C489 1.390 . S
C485 C479 1.465 1_565 S
C485 C484 1.396 . S
C485 C486 1.399 . S
C486 H472 0.929 . S
C486 C485 1.399 . S
C486 C487 1.385 . S
C487 H473 0.931 . S
C487 C486 1.385 . S
C487 C488 1.389 . S
C488 C487 1.389 . S
C488 C489 1.387 . S
C489 H474 0.930 . S
C489 C484 1.390 . S
C489 C488 1.387 . S
H490 C502 0.930 . S
H491 C504 0.930 . S
H492 C505 0.930 . S
H493 C509 0.959 . S
H494 C509 0.959 . S
H495 C509 0.961 . S
H496 C510 0.960 . S
H497 C510 0.961 . S
H498 C510 0.959 . S
H499 C513 0.929 . S
H500 C514 0.931 . S
H501 C516 0.930 . S
C502 H490 0.930 . S
C502 C503 1.399 . S
C502 C507 1.399 . S
C503 C502 1.399 . S
C503 C504 1.376 . S
C504 H491 0.930 . S
C504 C503 1.376 . S
C504 C505 1.388 . S
C505 H492 0.930 . S
C505 C504 1.388 . S
C505 C506 1.390 . S
C506 C505 1.390 . S
C506 C507 1.394 . S
C506 C512 1.465 . S
C507 C502 1.399 . S
C507 C506 1.394 . S
C507 C508 1.516 . S
C508 C507 1.516 . S
C508 C509 1.502 . S
C508 C510 1.561 . S
C508 C511 1.526 . S
C509 H493 0.959 . S
C509 H494 0.959 . S
C509 H495 0.961 . S
C509 C508 1.502 . S
C510 H496 0.960 . S
C510 H497 0.961 . S
C510 H498 0.959 . S
C510 C508 1.561 . S
C511 C508 1.526 . S
C511 C512 1.396 . S
C511 C516 1.390 . S
C512 C506 1.465 . S
C512 C511 1.396 . S
C512 C513 1.399 . S
C513 H499 0.929 . S
C513 C512 1.399 . S
C513 C514 1.385 . S
C514 H500 0.931 . S
C514 C513 1.385 . S
C514 C515 1.389 . S
C515 C514 1.389 . S
C515 C516 1.387 . S
C516 H501 0.930 . S
C516 C511 1.390 . S
C516 C515 1.387 . S
H517 C529 0.930 . S
H518 C531 0.930 . S
H519 C532 0.930 . S
H520 C536 0.959 . S
H521 C536 0.959 . S
H522 C536 0.961 . S
H523 C537 0.970 . S
H524 C537 0.961 . S
H525 C537 0.959 . S
H526 C540 0.929 . S
H527 C541 0.931 . S
H528 C543 0.930 . S
C529 H517 0.930 . S
C529 C530 1.399 . S
C529 C534 1.399 . S
C530 C529 1.399 . S
C530 C531 1.376 . S
C531 H518 0.930 . S
C531 C530 1.376 . S
C531 C532 1.388 . S
C532 H519 0.930 . S
C532 C531 1.388 . S
C532 C533 1.390 . S
C533 C532 1.390 . S
C533 C534 1.394 . S
C533 C539 1.465 1_565 S
C534 C529 1.399 . S
C534 C533 1.394 . S
C534 C535 1.516 . S
C535 C534 1.516 . S
C535 C536 1.502 . S
C535 C537 1.561 1_565 S
C535 C538 1.526 1_565 S
C536 H520 0.959 . S
C536 H521 0.959 . S
C536 H522 0.961 . S
C536 C535 1.502 . S
C537 H523 0.970 . S
C537 H524 0.961 . S
C537 H525 0.959 . S
C537 C535 1.561 1_545 S
C538 C535 1.526 1_545 S
C538 C539 1.396 . S
C538 C543 1.390 . S
C539 C533 1.465 1_545 S
C539 C538 1.396 . S
C539 C540 1.399 . S
C540 H526 0.929 . S
C540 C539 1.399 . S
C540 C541 1.385 . S
C541 H527 0.931 . S
C541 C540 1.385 . S
C541 C542 1.389 . S
C542 C541 1.389 . S
C542 C543 1.387 . S
C543 H528 0.930 . S
C543 C538 1.390 . S
C543 C542 1.387 . S
C125 C12 1.247 . S
C137 C26 1.291 . S
C152 C54 1.244 . S
C164 C40 1.292 . S
C179 C68 1.213 . S
C191 C82 1.238 . S
C206 C96 1.209 . S
C218 C110 1.262 . S
C233 C11 1.470 . S
C245 C39 1.453 . S
C260 C53 1.429 . S
C272 C25 1.450 . S
C287 C67 1.443 . S
C299 C95 1.439 . S
C314 C109 1.468 . S
C326 C81 1.465 . S
C341 C5 1.473 . S
C353 C61 1.460 . S
C368 C19 1.484 . S
C380 C75 1.448 . S
C395 C89 1.414 . S
C407 C33 1.498 . S
C422 C103 1.495 . S
C434 C47 1.434 . S
C449 C18 0.782 . S
C461 C4 0.832 . S
C476 C32 0.782 . S
C488 C46 0.833 . S
C503 C60 0.839 . S
C515 C74 0.915 . S
C530 C88 0.849 . S
C542 C102 0.788 . S
