# Generated by pormake.
# Topology uof, (4)-cn, num edge types: 1
# Building blocks:
#     Node 0, Type 0, BuildingBlock: CEKHIL_clean_sbu_0, # of connection points: 4
#     Node 1, Type 0, BuildingBlock: CEKHIL_clean_sbu_0, # of connection points: 4
#     Node 2, Type 0, BuildingBlock: CEKHIL_clean_sbu_0, # of connection points: 4
#     Node 3, Type 0, BuildingBlock: CEKHIL_clean_sbu_0, # of connection points: 4
#     Node 4, Type 0, BuildingBlock: CEKHIL_clean_sbu_0, # of connection points: 4
#     Node 5, Type 0, BuildingBlock: CEKHIL_clean_sbu_0, # of connection points: 4
#     Node 6, Type 0, BuildingBlock: CEKHIL_clean_sbu_0, # of connection points: 4
#     Node 7, Type 0, BuildingBlock: CEKHIL_clean_sbu_0, # of connection points: 4
#     Node 8, Type 0, BuildingBlock: CEKHIL_clean_sbu_0, # of connection points: 4
#     Node 9, Type 0, BuildingBlock: CEKHIL_clean_sbu_0, # of connection points: 4
#     Node 10, Type 0, BuildingBlock: CEKHIL_clean_sbu_0, # of connection points: 4
#     Node 11, Type 0, BuildingBlock: CEKHIL_clean_sbu_0, # of connection points: 4
#     Edge 12, Type (0, 0), BuildingBlock: MIFKUJ_clean_linker_0, # of connection points: 2
#     Edge 13, Type (0, 0), BuildingBlock: MIFKUJ_clean_linker_0, # of connection points: 2
#     Edge 14, Type (0, 0), BuildingBlock: MIFKUJ_clean_linker_0, # of connection points: 2
#     Edge 15, Type (0, 0), BuildingBlock: MIFKUJ_clean_linker_0, # of connection points: 2
#     Edge 16, Type (0, 0), BuildingBlock: MIFKUJ_clean_linker_0, # of connection points: 2
#     Edge 17, Type (0, 0), BuildingBlock: MIFKUJ_clean_linker_0, # of connection points: 2
#     Edge 18, Type (0, 0), BuildingBlock: MIFKUJ_clean_linker_0, # of connection points: 2
#     Edge 19, Type (0, 0), BuildingBlock: MIFKUJ_clean_linker_0, # of connection points: 2
#     Edge 20, Type (0, 0), BuildingBlock: MIFKUJ_clean_linker_0, # of connection points: 2
#     Edge 21, Type (0, 0), BuildingBlock: MIFKUJ_clean_linker_0, # of connection points: 2
#     Edge 22, Type (0, 0), BuildingBlock: MIFKUJ_clean_linker_0, # of connection points: 2
#     Edge 23, Type (0, 0), BuildingBlock: MIFKUJ_clean_linker_0, # of connection points: 2
#     Edge 24, Type (0, 0), BuildingBlock: MIFKUJ_clean_linker_0, # of connection points: 2
#     Edge 25, Type (0, 0), BuildingBlock: MIFKUJ_clean_linker_0, # of connection points: 2
#     Edge 26, Type (0, 0), BuildingBlock: MIFKUJ_clean_linker_0, # of connection points: 2
#     Edge 27, Type (0, 0), BuildingBlock: MIFKUJ_clean_linker_0, # of connection points: 2
#     Edge 28, Type (0, 0), BuildingBlock: MIFKUJ_clean_linker_0, # of connection points: 2
#     Edge 29, Type (0, 0), BuildingBlock: MIFKUJ_clean_linker_0, # of connection points: 2
#     Edge 30, Type (0, 0), BuildingBlock: MIFKUJ_clean_linker_0, # of connection points: 2
#     Edge 31, Type (0, 0), BuildingBlock: MIFKUJ_clean_linker_0, # of connection points: 2
#     Edge 32, Type (0, 0), BuildingBlock: MIFKUJ_clean_linker_0, # of connection points: 2
#     Edge 33, Type (0, 0), BuildingBlock: MIFKUJ_clean_linker_0, # of connection points: 2
#     Edge 34, Type (0, 0), BuildingBlock: MIFKUJ_clean_linker_0, # of connection points: 2
#     Edge 35, Type (0, 0), BuildingBlock: MIFKUJ_clean_linker_0, # of connection points: 2
# Relax obj value: 0.203
# Max RMSD: 0.143
# Mean RMSD: 0.143
data_MOF--net-uof--node1-CEKHIL_clean_sbu_0--edge1-MIFKUJ_clean_linker_0
_symmetry_space_group_name_H-M    P1
_symmetry_Int_Tables_number       1
_symmetry_cell_setting            triclinic
loop_
_symmetry_equiv_pos_as_xyz
'x, y, z'
_cell_length_a     41.64289
_cell_length_b     41.641927
_cell_length_c     81.29815
_cell_angle_alpha  89.978385
_cell_angle_beta   89.982236
_cell_angle_gamma 119.99264
loop_
_atom_site_label
_atom_site_type_symbol
_atom_site_fract_x
_atom_site_fract_y
_atom_site_fract_z
_atom_type_partial_charge
Co0 Co 0.22653 0.31446 0.23412 0.0
O1 O 0.17286 0.28644 0.2332 0.0
O2 O 0.20751 0.33118 0.2159 0.0
C3 C 0.23109 0.32228 0.2618 0.0
O4 O 0.2833 0.35009 0.23172 0.0
Co5 Co 0.26977 0.28362 0.25409 0.0
O6 O 0.31114 0.33503 0.25163 0.0
C7 C 0.23552 0.25071 0.22214 0.0
C8 C 0.17444 0.30499 0.22013 0.0
C9 C 0.3122 0.35682 0.24036 0.0
O10 O 0.22783 0.27648 0.21922 0.0
O11 O 0.24986 0.24767 0.23554 0.0
O12 O 0.226 0.34513 0.2527 0.0
O13 O 0.23044 0.29512 0.25413 0.0
Co14 Co 0.91566 0.22627 0.56086 0.0
O15 O 0.88613 0.17259 0.56135 0.0
O16 O 0.88078 0.20729 0.54235 0.0
C17 C 0.91254 0.23585 0.58804 0.0
O18 O 0.94102 0.2831 0.55699 0.0
Co19 Co 0.99034 0.26515 0.58034 0.0
O20 O 0.99091 0.31126 0.57367 0.0
C21 C 0.98003 0.21699 0.55226 0.0
C22 C 0.87083 0.17406 0.54771 0.0
C23 C 0.9687 0.31268 0.56326 0.0
O24 O 0.95348 0.22172 0.54714 0.0
O25 O 0.99552 0.22847 0.56628 0.0
O26 O 0.88541 0.23114 0.57847 0.0
O27 O 0.93763 0.23117 0.58123 0.0
Co28 Co 0.69455 0.91682 0.89007 0.0
O29 O 0.72929 0.89864 0.88942 0.0
O30 O 0.67625 0.87269 0.87608 0.0
C31 C 0.69841 0.92807 0.9176 0.0
O32 O 0.65135 0.92829 0.88825 0.0
Co33 Co 0.72128 0.99824 0.90167 0.0
O34 O 0.66764 0.97993 0.90319 0.0
C35 C 0.74419 0.98374 0.86948 0.0
C36 C 0.70738 0.87345 0.8791 0.0
C37 C 0.64374 0.95183 0.89518 0.0
O38 O 0.72086 0.94888 0.87051 0.0
O39 O 0.75006 0.00706 0.88095 0.0
O40 O 0.67656 0.89462 0.91213 0.0
O41 O 0.71861 0.95168 0.90659 0.0
Co42 Co 0.77849 0.69018 0.22881 0.0
O43 O 0.83142 0.72503 0.22846 0.0
O44 O 0.8047 0.6725 0.21471 0.0
C45 C 0.77076 0.6937 0.25633 0.0
O46 O 0.72414 0.64696 0.22656 0.0
Co47 Co 0.72272 0.71532 0.24073 0.0
O48 O 0.68783 0.66145 0.24182 0.0
C49 C 0.76063 0.73972 0.20855 0.0
C50 C 0.83494 0.70359 0.21795 0.0
C51 C 0.69274 0.63841 0.23346 0.0
O52 O 0.77306 0.71709 0.20944 0.0
O53 O 0.74243 0.74448 0.22005 0.0
O54 O 0.78189 0.67144 0.25086 0.0
O55 O 0.76735 0.71384 0.24533 0.0
Co56 Co 0.09573 0.77795 0.55938 0.0
O57 O 0.12319 0.83187 0.55995 0.0
O58 O 0.13088 0.79854 0.54101 0.0
C59 C 0.09875 0.76824 0.58655 0.0
O60 O 0.07309 0.72139 0.55533 0.0
Co61 Co 0.02068 0.73489 0.57844 0.0
O62 O 0.02141 0.69009 0.57084 0.0
C63 C 0.02773 0.78103 0.54996 0.0
C64 C 0.1393 0.83134 0.54638 0.0
C65 C 0.04532 0.69078 0.56083 0.0
O66 O 0.05698 0.7803 0.54545 0.0
O67 O 0.01162 0.76806 0.56375 0.0
O68 O 0.12669 0.77477 0.57711 0.0
O69 O 0.07277 0.77133 0.57966 0.0
Co70 Co 0.31449 0.09019 0.89154 0.0
O71 O 0.28146 0.11037 0.89122 0.0
O72 O 0.33425 0.13466 0.87768 0.0
C73 C 0.31079 0.07837 0.91896 0.0
O74 O 0.35587 0.07628 0.88942 0.0
Co75 Co 0.28366 0.00767 0.90245 0.0
O76 O 0.33685 0.02329 0.90376 0.0
C77 C 0.26263 0.02499 0.8705 0.0
C78 C 0.30378 0.13515 0.88085 0.0
C79 C 0.36178 0.05127 0.89601 0.0
O80 O 0.28734 0.05931 0.87192 0.0
O81 O 0.25527 1.00063 0.88167 0.0
O82 O 0.33354 0.11166 0.91353 0.0
O83 O 0.28951 0.05538 0.90799 0.0
Co84 Co 0.69261 0.77841 0.44024 0.0
O85 O 0.71729 0.83226 0.43948 0.0
O86 O 0.67888 0.79828 0.45913 0.0
C87 C 0.67688 0.7673 0.41334 0.0
O88 O 0.66079 0.7218 0.44462 0.0
Co89 Co 0.7256 0.73765 0.41997 0.0
O90 O 0.68246 0.69221 0.42878 0.0
C91 C 0.76656 0.78643 0.44733 0.0
C92 C 0.70181 0.83128 0.45346 0.0
C93 C 0.65915 0.69176 0.4391 0.0
O94 O 0.73608 0.78275 0.45305 0.0
O95 O 0.7689 0.77438 0.43318 0.0
O96 O 0.65601 0.77346 0.42331 0.0
O97 O 0.70716 0.77191 0.41954 0.0
Co98 Co 0.92035 0.69718 0.76663 0.0
O99 O 0.89674 0.72714 0.76768 0.0
O100 O 0.88187 0.67926 0.78378 0.0
C101 C 0.92096 0.69389 0.73878 0.0
O102 O 0.9387 0.65909 0.76852 0.0
Co103 Co 0.99695 0.72796 0.74868 0.0
O104 O 0.98406 0.67549 0.74969 0.0
C105 C 0.99245 0.75657 0.78133 0.0
C106 C 0.87709 0.70702 0.77994 0.0
C107 C 0.96122 0.65244 0.76007 0.0
O108 O 0.95817 0.73159 0.78306 0.0
O109 O 0.01146 0.76079 0.76832 0.0
O110 O 0.89129 0.67053 0.74684 0.0
O111 O 0.94696 0.7189 0.74755 0.0
Co112 Co 0.23279 0.92203 0.1112 0.0
O113 O 0.1801 0.90511 0.11112 0.0
O114 O 0.20493 0.87665 0.12426 0.0
C115 C 0.24349 0.93604 0.084 0.0
O116 O 0.28672 0.93204 0.11385 0.0
Co117 Co 0.28929 0.00462 0.10188 0.0
O118 O 0.32566 0.98739 0.10206 0.0
C119 C 0.24804 0.98659 0.13307 0.0
C120 C 0.17535 0.87878 0.1211 0.0
C121 C 0.31937 0.95723 0.10885 0.0
O122 O 0.2374 0.95208 0.13128 0.0
O123 O 0.26651 0.01139 0.12226 0.0
O124 O 0.23026 0.90189 0.08887 0.0
O125 O 0.24611 0.95879 0.09531 0.0
Co126 Co 0.31636 0.22862 0.43891 0.0
O127 O 0.28909 0.17472 0.43886 0.0
O128 O 0.33086 0.2083 0.45744 0.0
C129 C 0.32838 0.23637 0.41161 0.0
O130 O 0.35117 0.28525 0.44242 0.0
Co131 Co 0.28599 0.27219 0.41895 0.0
O132 O 0.33298 0.31639 0.42561 0.0
C133 C 0.24725 0.23014 0.44856 0.0
C134 C 0.30603 0.17542 0.45235 0.0
C135 C 0.35538 0.3158 0.43613 0.0
O136 O 0.27584 0.22785 0.45281 0.0
O137 O 0.24469 0.24339 0.43475 0.0
O138 O 0.34988 0.23028 0.42119 0.0
O139 O 0.2998 0.23438 0.41852 0.0
Co140 Co 0.09375 0.31724 0.77022 0.0
O141 O 0.11348 0.28379 0.77071 0.0
O142 O 0.1359 0.33487 0.78541 0.0
C143 C 0.08672 0.31674 0.74255 0.0
O144 O 0.08031 0.3588 0.77261 0.0
Co145 Co 0.01416 0.29039 0.75622 0.0
O146 O 0.03043 0.34383 0.75661 0.0
C147 C 0.02415 0.26422 0.78859 0.0
C148 C 0.13671 0.30472 0.7819 0.0
C149 C 0.05711 0.3667 0.76562 0.0
O150 O 0.05912 0.28757 0.78853 0.0
O151 O 1.00241 0.2597 0.77659 0.0
O152 O 0.11886 0.33929 0.74907 0.0
O153 O 0.06179 0.29442 0.7526 0.0
Co154 Co 0.78421 0.08653 0.10981 0.0
O155 O 0.83722 0.10542 0.11046 0.0
O156 O 0.8098 0.13202 0.12302 0.0
C157 C 0.7766 0.07269 0.08251 0.0
O158 O 0.72927 0.07436 0.11137 0.0
Co159 Co 0.73074 1.00376 0.09966 0.0
O160 O 0.69485 0.02123 0.09724 0.0
C161 C 0.76741 0.02181 0.13205 0.0
C162 C 0.84036 0.13144 0.12021 0.0
C163 C 0.69834 0.0498 0.10461 0.0
O164 O 0.77903 0.05651 0.13006 0.0
O165 O 0.74997 0.99711 0.12108 0.0
O166 O 0.78777 0.10653 0.08731 0.0
O167 O 0.77385 0.05034 0.09402 0.0
H168 H 0.85459 0.1804 0.14596 0.0
H169 H 0.91214 0.21434 0.16191 0.0
H170 H 0.96496 0.17131 0.1303 0.0
H171 H 0.90768 0.13705 0.11464 0.0
H172 H 0.98138 0.16471 0.15989 0.0
H173 H 0.98601 0.2651 0.12965 0.0
H174 H 0.9634 0.30582 0.11919 0.0
H175 H 0.95539 0.33766 0.16858 0.0
H176 H 0.97751 0.29673 0.17935 0.0
H177 H 0.1677 0.3336 0.19033 0.0
H178 H 0.11265 0.30907 0.1725 0.0
H179 H 0.04944 0.22498 0.20858 0.0
H180 H 0.10386 0.24914 0.22631 0.0
H181 H 0.04164 0.29771 0.17503 0.0
H182 H 0.99202 0.14258 0.18851 0.0
H183 H 0.01861 0.10335 0.1961 0.0
H184 H 0.12361 0.18384 0.17575 0.0
H185 H 0.0974 0.22304 0.16758 0.0
C186 C 0.87863 0.17863 0.14226 0.0
C187 C 0.87629 0.15596 0.12892 0.0
C188 C 0.91171 0.19813 0.15141 0.0
C189 C 0.94344 0.19574 0.1474 0.0
C190 C 0.94118 0.17372 0.13384 0.0
C191 C 0.90824 0.1542 0.12478 0.0
C192 C 0.97845 0.21472 0.15757 0.0
C193 C 0.99435 0.19379 0.16319 0.0
C194 C 0.99636 0.25294 0.16173 0.0
C195 C 0.98306 0.27756 0.15531 0.0
C196 C 0.97915 0.28056 0.13829 0.0
C197 C 0.96647 0.30372 0.1323 0.0
C198 C 0.95787 0.32423 0.14321 0.0
C199 C 0.96202 0.3217 0.16014 0.0
C200 C 0.97465 0.29855 0.16619 0.0
C201 C 0.14195 0.31021 0.19456 0.0
C202 C 0.14048 0.29342 0.20981 0.0
C203 C 0.11039 0.29615 0.18433 0.0
C204 C 0.07673 0.26472 0.18901 0.0
C205 C 0.075 0.24885 0.20448 0.0
C206 C 0.10631 0.26291 0.21469 0.0
C207 C 0.04382 0.2474 0.17761 0.0
C208 C 0.02844 0.2686 0.17176 0.0
C209 C 0.02677 0.20956 0.17292 0.0
C210 C 0.04278 0.18597 0.1776 0.0
C211 C 0.02072 0.15183 0.18556 0.0
C212 C 0.03572 0.12956 0.18994 0.0
C213 C 0.07276 0.14111 0.18641 0.0
C214 C 0.0949 0.17493 0.17847 0.0
C215 C 0.07998 0.19718 0.17395 0.0
H216 H 0.08424 0.12376 0.18979 0.0
H217 H 0.94807 0.34216 0.13856 0.0
H218 H 0.8364 0.10252 0.55877 0.0
H219 H 0.80412 0.04532 0.54285 0.0
H220 H 0.82056 0.10898 0.49864 0.0
H221 H 0.85194 0.16657 0.51475 0.0
H222 H 0.75572 0.04884 0.4967 0.0
H223 H 0.87607 0.07131 0.51007 0.0
H224 H 0.92896 0.08451 0.52802 0.0
H225 H 0.86339 0.98048 0.55276 0.0
H226 H 0.80964 0.96717 0.53535 0.0
H227 H 0.73532 0.90277 0.44201 0.0
H228 H 0.75971 0.96036 0.45787 0.0
H229 H 0.72114 0.89708 0.50269 0.0
H230 H 0.69583 0.8392 0.48681 0.0
H231 H 0.79759 0.95712 0.50369 0.0
H232 H 0.67658 0.93729 0.48959 0.0
H233 H 0.62586 0.92606 0.4706 0.0
H234 H 0.69793 0.02722 0.44498 0.0
H235 H 0.74927 0.03878 0.46369 0.0
C236 C 0.83275 0.10446 0.54569 0.0
C237 C 0.84696 0.13938 0.53809 0.0
C238 C 0.81445 0.07154 0.53652 0.0
C239 C 0.81049 0.07237 0.51935 0.0
C240 C 0.82326 0.10721 0.51181 0.0
C241 C 0.84122 0.14027 0.52106 0.0
C242 C 0.79413 0.03709 0.50934 0.0
C243 C 0.76532 0.02912 0.49814 0.0
C244 C 0.80614 0.01073 0.51113 0.0
C245 C 0.83861 0.01841 0.5215 0.0
C246 C 0.87275 0.05139 0.51945 0.0
C247 C 0.9029 0.05892 0.52955 0.0
C248 C 0.89952 0.03336 0.54153 0.0
C249 C 0.86595 1.00027 0.54348 0.0
C250 C 0.83559 0.99276 0.53352 0.0
C251 C 0.7315 0.901 0.45523 0.0
C252 C 0.71325 0.86614 0.46307 0.0
C253 C 0.74557 0.93408 0.46431 0.0
C254 C 0.74242 0.93336 0.48155 0.0
C255 C 0.72404 0.89858 0.48943 0.0
C256 C 0.70927 0.86541 0.4803 0.0
C257 C 0.75898 0.96883 0.49131 0.0
C258 C 0.78803 0.97689 0.50236 0.0
C259 C 0.7477 0.99555 0.48916 0.0
C260 C 0.71687 0.9887 0.47794 0.0
C261 C 0.68171 0.95697 0.47982 0.0
C262 C 0.65283 0.95058 0.46912 0.0
C263 C 0.6587 0.97586 0.45656 0.0
C264 C 0.69344 0.00763 0.4547 0.0
C265 C 0.72243 0.01413 0.46535 0.0
H266 H 0.6363 0.97087 0.4483 0.0
H267 H 0.92294 0.03918 0.54928 0.0
H268 H 0.77139 0.87131 0.88356 0.0
H269 H 0.79582 0.83931 0.8671 0.0
H270 H 0.69746 0.79172 0.83704 0.0
H271 H 0.67253 0.82361 0.85368 0.0
H272 H 0.71932 0.74119 0.84216 0.0
H273 H 0.77894 0.86794 0.82415 0.0
H274 H 0.81483 0.93599 0.8272 0.0
H275 H 0.90712 0.92871 0.84625 0.0
H276 H 0.87163 0.86061 0.84355 0.0
H277 H 0.86045 0.76101 0.77256 0.0
H278 H 0.82775 0.78424 0.78922 0.0
H279 H 0.80912 0.70349 0.82673 0.0
H280 H 0.84154 0.67957 0.80982 0.0
H281 H 0.84361 0.81772 0.81711 0.0
H282 H 0.73199 0.68549 0.84977 0.0
H283 H 0.69425 0.6182 0.84472 0.0
H284 H 0.70238 0.63766 0.79261 0.0
H285 H 0.73976 0.70506 0.79736 0.0
C286 C 0.75461 0.85373 0.87357 0.0
C287 C 0.71987 0.85023 0.87 0.0
C288 C 0.76883 0.83553 0.86405 0.0
C289 C 0.74896 0.8134 0.85054 0.0
C290 C 0.71357 0.80864 0.84732 0.0
C291 C 0.69926 0.82692 0.85688 0.0
C292 C 0.76576 0.79648 0.83957 0.0
C293 C 0.74654 0.75798 0.83672 0.0
C294 C 0.80113 0.81812 0.83216 0.0
C295 C 0.82247 0.85911 0.8338 0.0
C296 C 0.80677 0.88082 0.82912 0.0
C297 C 0.82705 0.9194 0.83077 0.0
C298 C 0.86316 0.9366 0.83697 0.0
C299 C 0.87911 0.91531 0.84149 0.0
C300 C 0.85894 0.87673 0.83989 0.0
C301 C 0.84903 0.74774 0.78426 0.0
C302 C 0.85364 0.71817 0.78974 0.0
C303 C 0.83041 0.7613 0.79388 0.0
C304 C 0.81563 0.74583 0.80935 0.0
C305 C 0.81963 0.71581 0.81479 0.0
C306 C 0.83826 0.70207 0.80508 0.0
C307 C 0.79745 0.76225 0.81983 0.0
C308 C 0.81646 0.80079 0.82259 0.0
C309 C 0.76172 0.7407 0.82693 0.0
C310 C 0.739 0.70028 0.82393 0.0
C311 C 0.72562 0.6754 0.83724 0.0
C312 C 0.70431 0.63724 0.83443 0.0
C313 C 0.69603 0.62366 0.81835 0.0
C314 C 0.70894 0.64821 0.80505 0.0
C315 C 0.73023 0.68639 0.8078 0.0
H316 H 0.67955 0.59411 0.8162 0.0
H317 H 0.87888 0.96643 0.83823 0.0
H318 H 0.90274 0.76379 0.22479 0.0
H319 H 0.95947 0.79006 0.20837 0.0
H320 H 0.90538 0.70062 0.17356 0.0
H321 H 0.84826 0.67416 0.19002 0.0
H322 H 0.00743 0.77071 0.19898 0.0
H323 H 0.93595 0.73465 0.13447 0.0
H324 H 0.87929 0.72783 0.12148 0.0
H325 H 0.87123 0.79602 0.159 0.0
H326 H 0.92804 0.80366 0.17207 0.0
H327 H 0.15316 0.81764 0.14131 0.0
H328 H 0.09544 0.78433 0.15717 0.0
H329 H 0.05892 0.85706 0.13764 0.0
H330 H 0.11544 0.88902 0.12131 0.0
H331 H 1.00188 0.7957 0.13972 0.0
H332 H 0.0968 0.86477 0.17847 0.0
H333 H 0.15602 0.88734 0.19319 0.0
H334 H 0.1208 0.7768 0.20996 0.0
H335 H 0.06148 0.7535 0.19518 0.0
C336 C 0.90293 0.74933 0.21376 0.0
C337 C 0.8707 0.71667 0.20882 0.0
C338 C 0.93559 0.76447 0.20434 0.0
C339 C 0.93703 0.74774 0.18954 0.0
C340 C 0.90516 0.7145 0.18479 0.0
C341 C 0.87247 0.69915 0.1943 0.0
C342 C 0.97141 0.76571 0.17895 0.0
C343 C 0.00608 0.77581 0.18598 0.0
C344 C 0.9704 0.77408 0.16211 0.0
C345 C 0.93597 0.76924 0.15437 0.0
C346 C 0.92207 0.74817 0.13994 0.0
C347 C 0.88995 0.7442 0.13256 0.0
C348 C 0.87159 0.76136 0.13945 0.0
C349 C 0.88535 0.78259 0.15372 0.0
C350 C 0.91747 0.78667 0.16114 0.0
C351 C 0.1326 0.82621 0.14025 0.0
C352 C 0.13914 0.85605 0.12993 0.0
C353 C 0.09958 0.80732 0.14948 0.0
C354 C 0.0725 0.81828 0.14898 0.0
C355 C 0.07884 0.84761 0.13837 0.0
C356 C 0.11146 0.86605 0.12898 0.0
C357 C 0.03804 0.79998 0.15962 0.0
C358 C 1.00329 0.79002 0.15264 0.0
C359 C 0.03926 0.79355 0.17672 0.0
C360 C 0.0749 0.80733 0.18557 0.0
C361 C 0.10181 0.84523 0.1852 0.0
C362 C 0.13536 0.85816 0.19357 0.0
C363 C 0.14222 0.83349 0.20246 0.0
C364 C 0.11547 0.79586 0.20304 0.0
C365 C 0.08187 0.78277 0.19468 0.0
H366 H 0.16821 0.84355 0.20894 0.0
H367 H 0.84678 0.75831 0.13369 0.0
H368 H 0.31992 0.1675 0.48493 0.0
H369 H 0.29522 0.11005 0.50096 0.0
H370 H 0.24143 0.04642 0.45749 0.0
H371 H 0.26476 0.10372 0.44169 0.0
H372 H 0.19536 0.0175 0.48049 0.0
H373 H 0.32373 0.05259 0.47717 0.0
H374 H 0.39124 0.09366 0.48019 0.0
H375 H 0.37806 0.1003 0.53224 0.0
H376 H 0.31038 0.05962 0.5295 0.0
H377 H 0.15314 0.83977 0.51304 0.0
H378 H 0.1845 0.8979 0.49723 0.0
H379 H 0.20909 0.96052 0.5422 0.0
H380 H 0.17691 0.90263 0.55798 0.0
H381 H 0.27041 0.98928 0.5189 0.0
H382 H 0.14125 0.95118 0.52153 0.0
H383 H 0.07429 0.90891 0.51788 0.0
H384 H 0.08982 0.90704 0.46574 0.0
H385 H 0.15722 0.94828 0.46915 0.0
C386 C 0.30325 0.14124 0.47873 0.0
C387 C 0.29465 0.14047 0.46193 0.0
C388 C 0.2891 0.10815 0.48794 0.0
C389 C 0.26653 0.0732 0.48055 0.0
C390 C 0.25852 0.07259 0.46368 0.0
C391 C 0.27218 0.10559 0.45457 0.0
C392 C 0.25018 0.03743 0.49032 0.0
C393 C 0.21214 0.01129 0.48864 0.0
C394 C 0.27132 0.02894 0.50141 0.0
C395 C 0.31196 0.05337 0.5031 0.0
C396 C 0.3352 0.06303 0.48924 0.0
C397 C 0.3735 0.0862 0.4909 0.0
C398 C 0.38891 0.09966 0.50639 0.0
C399 C 0.36607 0.0899 0.52025 0.0
C400 C 0.32775 0.06676 0.51865 0.0
C401 C 0.16572 0.86589 0.51959 0.0
C402 C 0.16257 0.86636 0.53683 0.0
C403 C 0.18351 0.89921 0.51051 0.0
C404 C 0.19922 0.93389 0.51846 0.0
C405 C 0.19739 0.93434 0.53572 0.0
C406 C 0.1789 0.9011 0.54475 0.0
C407 C 0.21602 0.96954 0.5088 0.0
C408 C 0.25392 0.9956 0.5106 0.0
C409 C 0.1949 0.97778 0.49768 0.0
C410 C 0.15441 0.9525 0.49563 0.0
C411 C 0.13051 0.94134 0.50931 0.0
C412 C 0.09242 0.91762 0.50727 0.0
C413 C 0.07776 0.90539 0.49157 0.0
C414 C 0.10122 0.91655 0.47789 0.0
C415 C 0.13939 0.94001 0.47988 0.0
H416 H 0.04822 0.88744 0.48996 0.0
H417 H 0.41857 0.1176 0.50765 0.0
H418 H 0.2409 0.13926 0.88541 0.0
H419 H 0.21726 0.17165 0.86878 0.0
H420 H 0.3158 0.21762 0.83877 0.0
H421 H 0.33933 0.18436 0.85528 0.0
H422 H 0.23431 0.23835 0.86191 0.0
H423 H 0.29507 0.22746 0.79918 0.0
H424 H 0.31321 0.18609 0.78541 0.0
H425 H 0.23791 0.09553 0.8161 0.0
H426 H 0.21901 0.13622 0.8299 0.0
H427 H 0.19139 0.34251 0.80526 0.0
H428 H 0.22454 0.31878 0.8217 0.0
H429 H 0.16452 0.21333 0.79697 0.0
H430 H 0.13283 0.23736 0.78016 0.0
H431 H 0.22812 0.22338 0.8013 0.0
H432 H 0.1433 0.23214 0.83781 0.0
H433 H 0.11319 0.2619 0.85247 0.0
H434 H 0.21675 0.338 0.87533 0.0
H435 H 0.24759 0.30894 0.86064 0.0
C436 C 0.25787 0.15655 0.87539 0.0
C437 C 0.29215 0.15904 0.87175 0.0
C438 C 0.24423 0.17523 0.86584 0.0
C439 C 0.26429 0.19697 0.85227 0.0
C440 C 0.29925 0.20063 0.84895 0.0
C441 C 0.31292 0.1818 0.85851 0.0
C442 C 0.24791 0.21458 0.84142 0.0
C443 C 0.23329 0.23528 0.84864 0.0
C444 C 0.24517 0.20982 0.82409 0.0
C445 C 0.25603 0.18505 0.81571 0.0
C446 C 0.28233 0.1987 0.80295 0.0
C447 C 0.29275 0.17538 0.79515 0.0
C448 C 0.27687 0.13827 0.79993 0.0
C449 C 0.25034 0.12433 0.81246 0.0
C450 C 0.2398 0.14753 0.82029 0.0
C451 C 0.18561 0.31442 0.8032 0.0
C452 C 0.15938 0.292 0.7913 0.0
C453 C 0.20438 0.30064 0.81275 0.0
C454 C 0.19688 0.26378 0.81092 0.0
C455 C 0.17124 0.2418 0.79876 0.0
C456 C 0.15294 0.25567 0.7891 0.0
C457 C 0.21484 0.24764 0.82175 0.0
C458 C 0.22962 0.22701 0.81454 0.0
C459 C 0.21619 0.25103 0.83917 0.0
C460 C 0.19783 0.26867 0.84797 0.0
C461 C 0.15971 0.25541 0.84586 0.0
C462 C 0.1425 0.27211 0.85419 0.0
C463 C 0.16307 0.3019 0.86478 0.0
C464 C 0.20088 0.31498 0.8671 0.0
C465 C 0.21823 0.2984 0.85878 0.0
H466 H 0.1497 0.31479 0.87123 0.0
H467 H 0.28508 0.12033 0.7939 0.0
H468 H 0.64903 0.59153 0.25716 0.0
H469 H 0.5854 0.54049 0.25419 0.0
H470 H 0.5943 0.55357 0.20148 0.0
H471 H 0.65865 0.60487 0.20449 0.0
H472 H 0.53145 0.55247 0.2137 0.0
H473 H 0.58562 0.47583 0.21814 0.0
H474 H 0.62584 0.45367 0.22963 0.0
H475 H 0.5672 0.42928 0.27554 0.0
H476 H 0.52693 0.4518 0.2644 0.0
H477 H 0.34281 0.39254 0.21079 0.0
H478 H 0.40853 0.43845 0.20568 0.0
H479 H 0.43138 0.44 0.2575 0.0
H480 H 0.36669 0.3945 0.26257 0.0
H481 H 0.47922 0.42942 0.24048 0.0
H482 H 0.43101 0.51351 0.23731 0.0
H483 H 0.39147 0.53705 0.22633 0.0
H484 H 0.43905 0.54779 0.17837 0.0
H485 H 0.47856 0.52385 0.18903 0.0
C486 C 0.63791 0.58258 0.2449 0.0
C487 C 0.65912 0.60164 0.23105 0.0
C488 C 0.60137 0.55352 0.2432 0.0
C489 C 0.58482 0.54295 0.2276 0.0
C490 C 0.60639 0.56107 0.21364 0.0
C491 C 0.64334 0.58999 0.21535 0.0
C492 C 0.54441 0.5148 0.22625 0.0
C493 C 0.52008 0.52521 0.21922 0.0
C494 C 0.52929 0.47941 0.23368 0.0
C495 C 0.55338 0.46573 0.24045 0.0
C496 C 0.58146 0.466 0.23072 0.0
C497 C 0.60424 0.45333 0.23717 0.0
C498 C 0.59912 0.44013 0.25331 0.0
C499 C 0.57114 0.43952 0.26303 0.0
C500 C 0.54829 0.45218 0.25665 0.0
C501 C 0.36175 0.40342 0.2211 0.0
C502 C 0.34946 0.38966 0.23707 0.0
C503 C 0.3994 0.42954 0.21817 0.0
C504 C 0.42527 0.44256 0.23119 0.0
C505 C 0.41236 0.43018 0.24719 0.0
C506 C 0.37515 0.4042 0.25008 0.0
C507 C 0.46608 0.4675 0.22842 0.0
C508 C 0.49054 0.45642 0.2347 0.0
C509 C 0.48121 0.50224 0.22034 0.0
C510 C 0.45735 0.51642 0.21392 0.0
C511 C 0.43277 0.52054 0.22439 0.0
C512 C 0.41043 0.53404 0.21823 0.0
C513 C 0.41264 0.54378 0.20165 0.0
C514 C 0.43729 0.54014 0.1912 0.0
C515 C 0.45967 0.52663 0.19729 0.0
H516 H 0.39534 0.55424 0.19691 0.0
H517 H 0.61679 0.43033 0.25828 0.0
H518 H 0.98143 0.63111 0.55054 0.0
H519 H 0.96813 0.5674 0.54698 0.0
H520 H 0.08221 0.6019 0.558 0.0
H521 H 0.09595 0.66644 0.56068 0.0
H522 H 0.05937 0.54938 0.53661 0.0
H523 H 1.00579 0.55996 0.58737 0.0
H524 H 0.96626 0.57323 0.60547 0.0
H525 H 0.86953 0.49446 0.57893 0.0
H526 H 0.90852 0.48115 0.56052 0.0
H527 H 0.03346 0.37819 0.56663 0.0
H528 H 0.04523 0.44091 0.56232 0.0
H529 H 0.93279 0.39771 0.54566 0.0
H530 H 0.92054 0.334 0.55012 0.0
H531 H 0.9523 0.45306 0.56804 0.0
H532 H 0.00642 0.43934 0.51868 0.0
H533 H 0.04625 0.42393 0.50194 0.0
H534 H 0.14272 0.50742 0.52704 0.0
H535 H 0.10342 0.523 0.5441 0.0
C536 C 1.0039 0.62526 0.55184 0.0
C537 C 0.03981 0.65391 0.55581 0.0
C538 C 0.99615 0.58859 0.55002 0.0
C539 C 0.02375 0.57911 0.55275 0.0
C540 C 0.06017 0.60809 0.55594 0.0
C541 C 0.06815 0.64512 0.55738 0.0
C542 C 0.01428 0.5391 0.55281 0.0
C543 C 0.03618 0.52852 0.54366 0.0
C544 C 0.98342 0.51112 0.56162 0.0
C545 C 0.96012 0.5198 0.57248 0.0
C546 C 0.97613 0.54573 0.5853 0.0
C547 C 0.95381 0.55322 0.59563 0.0
C548 C 0.91541 0.53467 0.59335 0.0
C549 C 0.89927 0.50879 0.58068 0.0
C550 C 0.92146 0.50127 0.5703 0.0
C551 C 0.01112 0.38173 0.56189 0.0
C552 C 0.97591 0.35067 0.55875 0.0
C553 C 0.01807 0.4179 0.55932 0.0
C554 C 0.99013 0.42444 0.5535 0.0
C555 C 0.95498 0.39357 0.5501 0.0
C556 C 0.94802 0.35707 0.55256 0.0
C557 C 0.99745 0.46352 0.55194 0.0
C558 C 0.97525 0.47393 0.56088 0.0
C559 C 0.02816 0.49131 0.54306 0.0
C560 C 0.05192 0.48214 0.53276 0.0
C561 C 0.0361 0.45424 0.52072 0.0
C562 C 0.05859 0.4455 0.51115 0.0
C563 C 0.09698 0.46463 0.51345 0.0
C564 C 0.11297 0.49261 0.52528 0.0
C565 C 0.09061 0.50144 0.53489 0.0
H566 H 0.11435 0.45782 0.50603 0.0
H567 H 0.89808 0.54015 0.60143 0.0
H568 H 0.4019 0.04318 0.92004 0.0
H569 H 0.45107 0.02794 0.91693 0.0
H570 H 0.44969 0.04132 0.86438 0.0
H571 H 0.4002 0.05702 0.86755 0.0
H572 H 0.44558 0.97436 0.87313 0.0
H573 H 0.52418 0.10222 0.88559 0.0
H574 H 0.54561 0.16069 0.90077 0.0
H575 H 0.55897 0.11058 0.94446 0.0
H576 H 0.53712 0.05162 0.9296 0.0
H577 H 0.60684 0.9491 0.86666 0.0
H578 H 0.55866 0.96661 0.86404 0.0
H579 H 0.55247 0.97059 0.9169 0.0
H580 H 0.60067 0.95384 0.91945 0.0
H581 H 0.56365 0.03339 0.90432 0.0
H582 H 0.48008 0.90436 0.89274 0.0
H583 H 0.45765 0.84526 0.87795 0.0
H584 H 0.45326 0.89696 0.83295 0.0
H585 H 0.47615 0.95654 0.84745 0.0
C586 C 0.41295 0.04415 0.90786 0.0
C587 C 0.39767 0.05206 0.89407 0.0
C588 C 0.44096 0.03517 0.90607 0.0
C589 C 0.4543 0.03343 0.89041 0.0
C590 C 0.43997 0.0425 0.8766 0.0
C591 C 0.4121 0.05205 0.87842 0.0
C592 C 0.48165 0.02017 0.88871 0.0
C593 C 0.47178 0.98771 0.87967 0.0
C594 C 0.51554 0.03697 0.8975 0.0
C595 C 0.52875 0.0724 0.9065 0.0
C596 C 0.53141 0.10357 0.89847 0.0
C597 C 0.54369 0.13682 0.90701 0.0
C598 C 0.55358 0.13933 0.92358 0.0
C599 C 0.55128 0.10859 0.93163 0.0
C600 C 0.539 0.07526 0.92314 0.0
C601 C 0.59398 0.95214 0.87768 0.0
C602 C 0.60717 0.94956 0.89327 0.0
C603 C 0.56666 0.96255 0.87619 0.0
C604 C 0.55195 0.97036 0.89028 0.0
C605 C 0.56343 0.96516 0.90582 0.0
C606 C 0.59069 0.95506 0.90728 0.0
C607 C 0.52722 0.98693 0.88911 0.0
C608 C 0.53766 0.02016 0.89762 0.0
C609 C 0.49389 0.97073 0.87987 0.0
C610 C 0.48027 0.93501 0.87114 0.0
C611 C 0.47468 0.90322 0.87966 0.0
C612 C 0.4618 0.86961 0.87134 0.0
C613 C 0.45416 0.86739 0.85451 0.0
C614 C 0.45927 0.89875 0.84598 0.0
C615 C 0.47217 0.93243 0.85424 0.0
H616 H 0.44418 0.84134 0.84809 0.0
H617 H 0.56308 0.1651 0.93017 0.0
H618 H 0.66166 0.62791 0.44073 0.0
H619 H 0.61036 0.56469 0.44348 0.0
H620 H 0.53463 0.60579 0.45034 0.0
H621 H 0.5866 0.66995 0.44779 0.0
H622 H 0.5146 0.54444 0.4695 0.0
H623 H 0.54277 0.57521 0.41326 0.0
H624 H 0.58253 0.59954 0.3887 0.0
H625 H 0.61226 0.51492 0.39314 0.0
H626 H 0.57331 0.49058 0.41798 0.0
H627 H 0.35383 0.37956 0.44045 0.0
H628 H 0.4058 0.4423 0.44448 0.0
H629 H 0.48123 0.39978 0.4456 0.0
H630 H 0.42868 0.3362 0.4419 0.0
H631 H 0.50081 0.46161 0.42285 0.0
H632 H 0.46793 0.43063 0.47977 0.0
H633 H 0.42503 0.40801 0.50338 0.0
H634 H 0.39892 0.49444 0.49569 0.0
H635 H 0.44127 0.51727 0.47187 0.0
C636 C 0.63421 0.62372 0.44308 0.0
C637 C 0.62834 0.65421 0.4439 0.0
C638 C 0.60475 0.58735 0.44458 0.0
C639 C 0.56828 0.58012 0.44672 0.0
C640 C 0.56244 0.61049 0.44858 0.0
C641 C 0.5922 0.64723 0.44719 0.0
C642 C 0.53658 0.5409 0.44604 0.0
C643 C 0.51141 0.52651 0.45921 0.0
C644 C 0.53227 0.51709 0.43267 0.0
C645 C 0.55539 0.53128 0.4176 0.0
C646 C 0.55801 0.56195 0.40908 0.0
C647 C 0.58038 0.57573 0.3951 0.0
C648 C 0.59995 0.55881 0.38937 0.0
C649 C 0.59712 0.52803 0.3976 0.0
C650 C 0.5749 0.51422 0.41164 0.0
C651 C 0.38139 0.38337 0.44187 0.0
C652 C 0.38701 0.35272 0.44098 0.0
C653 C 0.41114 0.41937 0.44416 0.0
C654 C 0.44756 0.42598 0.44537 0.0
C655 C 0.45338 0.39543 0.44475 0.0
C656 C 0.42333 0.35906 0.44278 0.0
C657 C 0.4793 0.46501 0.44644 0.0
C658 C 0.50428 0.47946 0.43322 0.0
C659 C 0.48287 0.48901 0.45957 0.0
C660 C 0.45754 0.47546 0.47394 0.0
C661 C 0.4528 0.44463 0.48302 0.0
C662 C 0.42863 0.43181 0.49647 0.0
C663 C 0.40919 0.44972 0.50101 0.0
C664 C 0.41397 0.48057 0.49215 0.0
C665 C 0.43809 0.49348 0.47868 0.0
H666 H 0.39049 0.43975 0.51142 0.0
H667 H 0.61726 0.56952 0.37854 0.0
H668 H 0.94506 0.60784 0.78788 0.0
H669 H 0.95899 0.55735 0.79203 0.0
H670 H 0.9983 0.57059 0.74202 0.0
H671 H 0.9838 0.6196 0.73776 0.0
H672 H 0.96138 0.50055 0.74869 0.0
H673 H 0.05721 0.60936 0.77705 0.0
H674 H 0.08005 0.65901 0.79788 0.0
H675 H 0.03316 0.57756 0.83631 0.0
H676 H 0.00967 0.52743 0.81566 0.0
H677 H 0.07278 0.42121 0.74353 0.0
H678 H 0.05627 0.46981 0.74567 0.0
H679 H 0.02204 0.43806 0.79596 0.0
H680 H 0.04004 0.3902 0.79395 0.0
H681 H 0.04963 0.51186 0.79236 0.0
H682 H 0.95901 0.40312 0.76424 0.0
H683 H 0.93709 0.35336 0.7435 0.0
H684 H 0.97319 0.43421 0.70477 0.0
H685 H 0.99583 0.4845 0.72529 0.0
C686 C 0.95593 0.59936 0.77771 0.0
C687 C 0.96346 0.61803 0.76252 0.0
C688 C 0.96435 0.57078 0.78014 0.0
C689 C 0.98042 0.56036 0.76742 0.0
C690 C 0.98612 0.5779 0.75209 0.0
C691 C 0.97784 0.60617 0.74969 0.0
C692 C 0.99244 0.53211 0.76976 0.0
C693 C 0.98084 0.50328 0.75821 0.0
C694 C 0.01704 0.53461 0.78243 0.0
C695 C 0.03133 0.56471 0.79481 0.0
C696 C 0.05157 0.60207 0.78993 0.0
C697 C 0.06466 0.63029 0.80171 0.0
C698 C 0.05796 0.62145 0.81841 0.0
C699 C 0.03826 0.58437 0.82337 0.0
C700 C 0.02507 0.55605 0.81164 0.0
C701 C 0.06324 0.42569 0.75525 0.0
C702 C 0.05837 0.4024 0.76866 0.0
C703 C 0.05322 0.45312 0.75641 0.0
C704 C 0.03685 0.45711 0.77084 0.0
C705 C 0.0344 0.43557 0.78466 0.0
C706 C 0.04501 0.40841 0.78356 0.0
C707 C 0.01958 0.4813 0.77092 0.0
C708 C 0.02995 0.50904 0.78294 0.0
C709 C 0.99373 0.47784 0.75868 0.0
C710 C 0.97932 0.44759 0.74631 0.0
C711 C 0.96239 0.41029 0.7513 0.0
C712 C 0.94985 0.38199 0.73958 0.0
C713 C 0.9538 0.39062 0.72283 0.0
C714 C 0.97016 0.42757 0.71775 0.0
C715 C 0.98281 0.45598 0.72942 0.0
H716 H 0.94413 0.36868 0.71377 0.0
H717 H 0.06811 0.64333 0.8275 0.0
H718 H 0.35997 0.97439 0.1369 0.0
H719 H 0.42513 0.99028 0.13899 0.0
H720 H 0.42142 0.95395 0.08902 0.0
H721 H 0.35643 0.93845 0.08693 0.0
H722 H 0.46449 0.93624 0.10876 0.0
H723 H 0.4529 0.04307 0.09679 0.0
H724 H 0.43129 0.08765 0.10158 0.0
H725 H 0.48799 0.1178 0.14801 0.0
H726 H 0.50946 0.07291 0.1436 0.0
H727 H 0.64637 0.03216 0.0811 0.0
H728 H 0.58214 0.01672 0.08482 0.0
H729 H 0.60506 0.05261 0.13531 0.0
H730 H 0.67013 0.06815 0.13161 0.0
H731 H 0.55293 0.06974 0.11871 0.0
H732 H 0.56863 0.96549 0.12931 0.0
H733 H 0.59092 0.9218 0.12359 0.0
H734 H 0.52665 0.88717 0.07917 0.0
H735 H 0.50445 0.93115 0.08448 0.0
C736 C 0.37262 0.96825 0.12664 0.0
C737 C 0.35278 0.95413 0.11192 0.0
C738 C 0.41008 0.97791 0.12774 0.0
C739 C 0.42854 0.97381 0.11409 0.0
C740 C 0.40795 0.95736 0.09974 0.0
C741 C 0.37064 0.94808 0.0986 0.0
C742 C 0.46968 0.98916 0.11425 0.0
C743 C 0.48373 0.96544 0.11087 0.0
C744 C 0.49513 0.02723 0.1173 0.0
C745 C 0.48238 0.0543 0.11996 0.0
C746 C 0.46048 0.05896 0.10809 0.0
C747 C 0.4483 0.08432 0.11072 0.0
C748 C 0.45816 0.10546 0.12512 0.0
C749 C 0.4803 0.10134 0.13688 0.0
C750 C 0.49248 0.07594 0.13432 0.0
C751 C 0.63812 0.0378 0.0929 0.0
C752 C 0.66347 0.05137 0.10607 0.0
C753 C 0.60121 0.02869 0.09504 0.0
C754 C 0.58839 0.03269 0.11044 0.0
C755 C 0.61422 0.04907 0.12332 0.0
C756 C 0.65151 0.05827 0.12117 0.0
C757 C 0.5476 0.01682 0.11309 0.0
C758 C 0.53365 0.04043 0.11689 0.0
C759 C 0.52217 0.97864 0.1104 0.0
C760 C 0.53511 0.95185 0.10723 0.0
C761 C 0.55947 0.94877 0.11826 0.0
C762 C 0.57206 0.92392 0.1151 0.0
C763 C 0.56027 0.90178 0.10101 0.0
C764 C 0.53578 0.90437 0.09007 0.0
C765 C 0.52316 0.92923 0.09316 0.0
H766 H 0.57004 0.88255 0.09859 0.0
H767 H 0.44873 0.1251 0.12713 0.0
H768 H 0.28896 0.04628 0.1522 0.0
H769 H 0.2653 0.07397 0.17173 0.0
H770 H 0.15417 0.98255 0.16468 0.0
H771 H 0.17816 0.95391 0.14543 0.0
H772 H 0.16795 0.0582 0.15708 0.0
H773 H 0.17685 0.98996 0.20105 0.0
H774 H 0.2035 0.95976 0.21784 0.0
H775 H 0.29829 0.06583 0.22864 0.0
H776 H 0.27259 0.09668 0.21169 0.0
H777 H 0.16767 0.20422 0.209 0.0
H778 H 0.14952 0.14394 0.19617 0.0
H779 H 0.26406 0.17118 0.19608 0.0
H780 H 0.28188 0.23034 0.20928 0.0
H781 H 0.21843 0.10644 0.21255 0.0
H782 H 0.21781 0.16782 0.16039 0.0
H783 H 0.1934 0.19877 0.14262 0.0
H784 H 0.08345 0.10536 0.14746 0.0
H785 H 0.10723 0.07403 0.16538 0.0
C786 C 0.25973 0.03149 0.1553 0.0
C787 C 0.23533 0.99813 0.14747 0.0
C788 C 0.24621 0.04722 0.16641 0.0
C789 C 0.20803 0.03019 0.16957 0.0
C790 C 0.18372 0.99584 0.16241 0.0
C791 C 0.19745 0.97952 0.15156 0.0
C792 C 0.19432 0.05152 0.17861 0.0
C793 C 0.17769 0.06792 0.16946 0.0
C794 C 0.20697 0.06391 0.19472 0.0
C795 C 0.22265 0.04567 0.2051 0.0
C796 C 0.20346 0.00687 0.20694 0.0
C797 C 0.21841 0.98962 0.2165 0.0
C798 C 0.25254 0.01087 0.22432 0.0
C799 C 0.2718 0.04942 0.22261 0.0
C800 C 0.25699 0.06681 0.21306 0.0
C801 C 0.18893 0.19766 0.20564 0.0
C802 C 0.2261 0.2215 0.21002 0.0
C803 C 0.17853 0.16326 0.19848 0.0
C804 C 0.20539 0.153 0.19551 0.0
C805 C 0.24288 0.17842 0.19856 0.0
C806 C 0.25312 0.2123 0.20589 0.0
C807 C 0.19524 0.11511 0.19043 0.0
C808 C 0.20708 0.09559 0.20048 0.0
C809 C 0.17831 0.1 0.17517 0.0
C810 C 0.16421 0.11877 0.16433 0.0
C811 C 0.18841 0.154 0.15773 0.0
C812 C 0.1747 0.17157 0.14761 0.0
C813 C 0.1369 0.15404 0.14391 0.0
C814 C 0.11273 0.11887 0.1503 0.0
C815 C 0.1263 0.1012 0.16044 0.0
H816 H 0.12632 0.16773 0.13612 0.0
H817 H 0.26408 0.99746 0.23171 0.0
H818 H 0.98355 0.21866 0.51869 0.0
H819 H 0.01924 0.19944 0.5016 0.0
H820 H 0.0445 0.15474 0.54443 0.0
H821 H 0.01017 0.17533 0.56161 0.0
H822 H 0.10486 0.20291 0.53071 0.0
H823 H 0.99676 0.09615 0.50968 0.0
H824 H 0.93423 0.05973 0.49765 0.0
H825 H 0.96813 0.13248 0.45588 0.0
H826 H 0.03111 0.16882 0.46744 0.0
H827 H 0.23499 0.19083 0.47733 0.0
H828 H 0.1814 0.16906 0.49575 0.0
H829 H 0.13455 0.21774 0.46379 0.0
H830 H 0.18711 0.23898 0.44537 0.0
H831 H 0.08184 0.15072 0.47434 0.0
H832 H 0.18436 0.26323 0.49789 0.0
H833 H 0.24738 0.30079 0.50927 0.0
H834 H 0.22253 0.2188 0.54669 0.0
H835 H 0.15946 0.18057 0.5354 0.0
C836 C 0.99597 0.20392 0.52435 0.0
C837 C 0.99494 0.19922 0.54146 0.0
C838 C 0.01606 0.19256 0.51457 0.0
C839 C 0.03457 0.17557 0.52174 0.0
C840 C 0.03063 0.16795 0.53865 0.0
C841 C 0.01121 0.17991 0.54845 0.0
C842 C 0.06322 0.17232 0.5123 0.0
C843 C 0.0995 0.19038 0.51859 0.0
C844 C 0.05655 0.15673 0.49636 0.0
C845 C 0.01859 0.1353 0.48947 0.0
C846 C 0.99082 0.10449 0.49797 0.0
C847 C 0.95532 0.08382 0.49122 0.0
C848 C 0.9471 0.094 0.47611 0.0
C849 C 0.9745 0.12465 0.46761 0.0
C850 C 0.01018 0.14513 0.47419 0.0
C851 C 0.21322 0.19684 0.47425 0.0
C852 C 0.21549 0.2169 0.45995 0.0
C853 C 0.1826 0.18424 0.48473 0.0
C854 C 0.15408 0.19184 0.4811 0.0
C855 C 0.15608 0.21127 0.46672 0.0
C856 C 0.18639 0.22367 0.45627 0.0
C857 C 0.12318 0.18216 0.49265 0.0
C858 C 0.0867 0.1619 0.48672 0.0
C859 C 0.12959 0.1959 0.50891 0.0
C860 C 0.16745 0.21885 0.51568 0.0
C861 C 0.19247 0.2531 0.50846 0.0
C862 C 0.22816 0.27452 0.51491 0.0
C863 C 0.239 0.26212 0.52866 0.0
C864 C 0.21413 0.22832 0.53602 0.0
C865 C 0.17842 0.20677 0.5296 0.0
H866 H 0.26664 0.27875 0.53363 0.0
H867 H 0.91956 0.07803 0.47096 0.0
H868 H 0.96012 0.24606 0.80399 0.0
H869 H 0.92476 0.19248 0.82167 0.0
H870 H 0.0148 0.16917 0.82111 0.0
H871 H 0.05084 0.22377 0.80346 0.0
H872 H 0.9467 0.10987 0.81022 0.0
H873 H 0.99154 0.18418 0.85735 0.0
H874 H 0.01203 0.23917 0.87498 0.0
H875 H 0.90204 0.22361 0.87443 0.0
H876 H 0.88096 0.1689 0.85659 0.0
H877 H 0.79346 0.9627 0.8606 0.0
H878 H 0.85328 0.00484 0.84764 0.0
H879 H 0.81369 0.07977 0.83534 0.0
H880 H 0.75469 0.03859 0.84878 0.0
H881 H 0.87302 0.10579 0.8589 0.0
H882 H 0.83464 0.03911 0.80628 0.0
H883 H 0.81527 0.9835 0.7892 0.0
H884 H 0.91576 0.98389 0.80141 0.0
H885 H 0.93542 0.03914 0.81883 0.0
C886 C 0.97287 0.2303 0.80815 0.0
C887 C 0.00799 0.2388 0.80249 0.0
C888 C 0.95275 0.19975 0.81824 0.0
C889 C 0.96727 0.17697 0.82268 0.0
C890 C 1.00333 0.18662 0.81784 0.0
C891 C 0.02388 0.21782 0.80792 0.0
C892 C 0.94216 0.14096 0.83044 0.0
C893 C 0.93122 0.10861 0.82118 0.0
C894 C 0.92232 0.13943 0.84477 0.0
C895 C 0.93465 0.17228 0.85562 0.0
C896 C 0.97173 0.19255 0.86092 0.0
C897 C 0.98346 0.2237 0.87096 0.0
C898 C 0.95835 0.23485 0.87583 0.0
C899 C 0.92145 0.21488 0.87068 0.0
C900 C 0.90957 0.18372 0.86063 0.0
C901 C 0.79694 0.98718 0.85429 0.0
C902 C 0.76988 0.99779 0.85565 0.0
C903 C 0.83113 0.01126 0.84702 0.0
C904 C 0.83785 0.04548 0.84084 0.0
C905 C 0.80892 0.05351 0.84021 0.0
C906 C 0.77515 0.02988 0.8477 0.0
C907 C 0.87591 0.07586 0.83788 0.0
C908 C 0.88928 0.1068 0.84827 0.0
C909 C 0.89801 0.07583 0.82473 0.0
C910 C 0.88626 0.04295 0.81406 0.0
C911 C 0.85243 0.02712 0.80547 0.0
C912 C 0.84144 0.99571 0.79569 0.0
C913 C 0.86422 0.9801 0.79426 0.0
C914 C 0.89814 0.996 0.80253 0.0
C915 C 0.90921 0.02735 0.81237 0.0
H916 H 0.85562 0.95573 0.78672 0.0
H917 H 0.96748 0.25898 0.8836 0.0
H918 H 0.72231 0.96477 0.15159 0.0
H919 H 0.74169 0.93062 0.16936 0.0
H920 H 0.85632 0.01462 0.16236 0.0
H921 H 0.83659 0.04935 0.14457 0.0
H922 H 0.84189 0.94626 0.15204 0.0
H923 H 0.82515 0.99443 0.20139 0.0
H924 H 0.79646 0.01749 0.22114 0.0
H925 H 0.69893 0.90975 0.22308 0.0
H926 H 0.72669 0.88612 0.20316 0.0
H927 H 0.83101 0.78508 0.19814 0.0
H928 H 0.85197 0.8467 0.18632 0.0
H929 H 0.73814 0.81703 0.1779 0.0
H930 H 0.71724 0.75611 0.18997 0.0
H931 H 0.77935 0.87456 0.20224 0.0
H932 H 0.79217 0.83514 0.14656 0.0
H933 H 0.82145 0.81153 0.12737 0.0
H934 H 0.92864 0.90405 0.13874 0.0
H935 H 0.9 0.92793 0.1582 0.0
C936 C 0.75148 0.97682 0.15453 0.0
C937 C 0.778 0.00948 0.14685 0.0
C938 C 0.76263 0.95737 0.16468 0.0
C939 C 0.8005 0.97013 0.16716 0.0
C940 C 0.827 0.0045 0.16063 0.0
C941 C 0.81572 0.02439 0.15063 0.0
C942 C 0.81122 0.94391 0.1739 0.0
C943 C 0.82933 0.93127 0.16332 0.0
C944 C 0.79513 0.92459 0.18864 0.0
C945 C 0.77817 0.93846 0.20078 0.0
C946 C 0.79753 0.97565 0.20597 0.0
C947 C 0.78141 0.98883 0.21721 0.0
C948 C 0.74592 0.96509 0.22338 0.0
C949 C 0.72647 0.92809 0.21833 0.0
C950 C 0.74245 0.91476 0.2071 0.0
C951 C 0.81068 0.79112 0.1929 0.0
C952 C 0.77257 0.76636 0.19505 0.0
C953 C 0.82266 0.82637 0.18633 0.0
C954 C 0.79645 0.83641 0.1817 0.0
C955 C 0.75863 0.80971 0.18167 0.0
C956 C 0.74672 0.77486 0.18837 0.0
C957 C 0.8069 0.87554 0.17967 0.0
C958 C 0.79317 0.8905 0.19132 0.0
C959 C 0.82711 0.89693 0.16602 0.0
C960 C 0.84402 0.88309 0.15396 0.0
C961 C 0.82201 0.85032 0.14505 0.0
C962 C 0.83847 0.83691 0.13411 0.0
C963 C 0.87689 0.85623 0.13187 0.0
C964 C 0.89889 0.88909 0.1405 0.0
C965 C 0.88256 0.90259 0.15147 0.0
H966 H 0.88959 0.84574 0.12344 0.0
H967 H 0.73348 0.97536 0.23207 0.0
H968 H 0.83772 0.81904 0.4367 0.0
H969 H 0.89287 0.83682 0.45323 0.0
H970 H 0.82717 0.80953 0.49749 0.0
H971 H 0.77152 0.79203 0.48096 0.0
H972 H 0.90145 0.87104 0.50086 0.0
H973 H 0.8361 0.74406 0.48076 0.0
H974 H 0.80796 0.69653 0.45908 0.0
H975 H 0.91288 0.7432 0.43425 0.0
H976 H 0.94151 0.79138 0.45569 0.0
H977 H 0.97181 0.79491 0.55681 0.0
H978 H 0.9401 0.81476 0.53793 0.0
H979 H 0.01377 0.82253 0.49882 0.0
H980 H 0.04592 0.80242 0.51775 0.0
H981 H 0.94499 0.78173 0.48993 0.0
H982 H 0.01298 0.90203 0.51278 0.0
H983 H 0.04151 0.94923 0.53458 0.0
H984 H 0.93368 0.91652 0.55422 0.0
H985 H 0.90466 0.86868 0.5327 0.0
C986 C 0.83505 0.81744 0.44997 0.0
C987 C 0.80021 0.80323 0.45757 0.0
C988 C 0.86664 0.82786 0.45937 0.0
C989 C 0.86382 0.82379 0.47649 0.0
C990 C 0.82972 0.81274 0.48424 0.0
C991 C 0.79799 0.80257 0.47481 0.0
C992 C 0.89484 0.8255 0.48592 0.0
C993 C 0.91105 0.85155 0.49858 0.0
C994 C 0.90791 0.80071 0.4825 0.0
C995 C 0.89081 0.77155 0.4697 0.0
C996 C 0.85308 0.74435 0.47061 0.0
C997 C 0.83706 0.71728 0.45837 0.0
C998 C 0.85859 0.71692 0.44527 0.0
C999 C 0.89622 0.74356 0.44439 0.0
C1000 C 0.91236 0.77075 0.45658 0.0
C1001 C 0.98174 0.80132 0.54425 0.0
C1002 C 0.01107 0.79651 0.53872 0.0
C1003 C 0.96384 0.81323 0.53351 0.0
C1004 C 0.97498 0.82083 0.51703 0.0
C1005 C 1.00511 0.81736 0.51157 0.0
C1006 C 0.02326 0.8056 0.52237 0.0
C1007 C 0.95159 0.82695 0.50521 0.0
C1008 C 0.9364 0.80206 0.49206 0.0
C1009 C 0.93961 0.85283 0.50822 0.0
C1010 C 0.95675 0.88156 0.52121 0.0
C1011 C 0.99545 0.90467 0.52186 0.0
C1012 C 0.01168 0.93158 0.53414 0.0
C1013 C 0.98942 0.93582 0.5458 0.0
C1014 C 0.95089 0.91319 0.54518 0.0
C1015 C 0.93455 0.8862 0.53293 0.0
H1016 H 1.00202 0.95668 0.5553 0.0
H1017 H 0.84614 0.69593 0.43581 0.0
H1018 H 0.24667 0.96724 0.85052 0.0
H1019 H 0.19434 0.93795 0.8315 0.0
H1020 H 0.16892 0.02493 0.8406 0.0
H1021 H 0.22267 0.05539 0.85916 0.0
H1022 H 0.11244 0.94388 0.84974 0.0
H1023 H 0.17606 0.02067 0.80471 0.0
H1024 H 0.22849 0.05719 0.786 0.0
H1025 H 0.22865 0.95829 0.77127 0.0
H1026 H 0.17639 0.92112 0.78998 0.0
H1027 H 0.96663 0.79666 0.79734 0.0
H1028 H 1.00579 0.85611 0.81144 0.0
H1029 H 0.09943 0.83886 0.80737 0.0
H1030 H 0.06085 0.78031 0.79321 0.0
H1031 H 0.10963 0.90403 0.79206 0.0
H1032 H 0.06231 0.83426 0.84371 0.0
H1033 H 0.01244 0.79677 0.86347 0.0
H1034 H 0.98371 0.88234 0.86626 0.0
H1035 H 0.03322 0.92017 0.84636 0.0
C1036 C 0.23084 0.98085 0.84789 0.0
C1037 C 0.2384 0.01337 0.85613 0.0
C1038 C 0.20104 0.96421 0.8371 0.0
C1039 C 0.17793 0.97938 0.83478 0.0
C1040 C 0.18672 0.01312 0.84223 0.0
C1041 C 0.21736 0.03045 0.8527 0.0
C1042 C 0.14201 0.9562 0.82672 0.0
C1043 C 0.1111 0.93594 0.83693 0.0
C1044 C 0.14071 0.94601 0.81011 0.0
C1045 C 0.17219 0.96808 0.79877 0.0
C1046 C 0.18738 0.0067 0.79755 0.0
C1047 C 0.21708 0.02753 0.78694 0.0
C1048 C 0.23194 0.01009 0.77747 0.0
C1049 C 0.21707 0.97175 0.77859 0.0
C1050 C 0.1873 0.95076 0.78916 0.0
C1051 C 0.99523 0.80506 0.80009 0.0
C1052 C 0.01104 0.78436 0.7942 0.0
C1053 C 0.01755 0.83904 0.80795 0.0
C1054 C 0.05554 0.85203 0.81003 0.0
C1055 C 0.07026 0.82947 0.80557 0.0
C1056 C 0.04821 0.79595 0.79766 0.0
C1057 C 0.0814 0.89019 0.81543 0.0
C1058 C 0.11014 0.91307 0.80462 0.0
C1059 C 0.08081 0.90258 0.83152 0.0
C1060 C 0.05102 0.87975 0.84337 0.0
C1061 C 0.04509 0.84489 0.84841 0.0
C1062 C 0.01697 0.82363 0.85967 0.0
C1063 C 0.99481 0.83709 0.86606 0.0
C1064 C 1.00082 0.8719 0.86126 0.0
C1065 C 0.0289 0.89326 0.85 0.0
H1066 H 0.97308 0.82061 0.87479 0.0
H1067 H 0.25496 0.02629 0.76927 0.0
H1068 H 0.38169 0.30313 0.39948 0.0
H1069 H 0.37865 0.32927 0.37276 0.0
H1070 H 0.28547 0.22351 0.35901 0.0
H1071 H 0.28887 0.19766 0.38546 0.0
H1072 H 0.32621 0.2563 0.33264 0.0
H1073 H 0.27336 0.29245 0.37781 0.0
H1074 H 0.27729 0.32195 0.40463 0.0
H1075 H 0.3653 0.42552 0.38631 0.0
H1076 H 0.36179 0.39657 0.35935 0.0
H1077 H 0.19876 0.27366 0.28627 0.0
H1078 H 0.22855 0.27083 0.31163 0.0
H1079 H 0.32228 0.37866 0.30128 0.0
H1080 H 0.29212 0.38159 0.27564 0.0
H1081 H 0.29634 0.3573 0.33802 0.0
H1082 H 0.34074 0.32031 0.29072 0.0
H1083 H 0.33368 0.28789 0.26441 0.0
H1084 H 0.25866 0.18385 0.28723 0.0
H1085 H 0.26554 0.21561 0.31372 0.0
C1086 C 0.36187 0.28514 0.39037 0.0
C1087 C 0.33605 0.24817 0.39431 0.0
C1088 C 0.35967 0.30021 0.37523 0.0
C1089 C 0.33138 0.27856 0.36393 0.0
C1090 C 0.30757 0.24085 0.36744 0.0
C1091 C 0.3097 0.22594 0.38251 0.0
C1092 C 0.32362 0.2952 0.34926 0.0
C1093 C 0.32003 0.2786 0.33384 0.0
C1094 C 0.31601 0.32473 0.35064 0.0
C1095 C 0.31756 0.34232 0.36666 0.0
C1096 C 0.29358 0.3215 0.37953 0.0
C1097 C 0.29572 0.33811 0.39474 0.0
C1098 C 0.32167 0.37553 0.3972 0.0
C1099 C 0.34528 0.39651 0.3844 0.0
C1100 C 0.34316 0.38006 0.36914 0.0
C1101 C 0.22491 0.29756 0.28979 0.0
C1102 C 0.24281 0.32811 0.27917 0.0
C1103 C 0.2421 0.29575 0.3042 0.0
C1104 C 0.27779 0.32431 0.30825 0.0
C1105 C 0.29464 0.35638 0.2984 0.0
C1106 C 0.27723 0.35825 0.28388 0.0
C1107 C 0.29834 0.31783 0.3216 0.0
C1108 C 0.30388 0.33598 0.33674 0.0
C1109 C 0.30762 0.28958 0.32003 0.0
C1110 C 0.30352 0.27035 0.30416 0.0
C1111 C 0.32262 0.29054 0.2901 0.0
C1112 C 0.31872 0.27228 0.27517 0.0
C1113 C 0.29557 0.23389 0.27412 0.0
C1114 C 0.27654 0.2136 0.28805 0.0
C1115 C 0.28058 0.23168 0.30304 0.0
H1116 H 0.29246 0.21984 0.26253 0.0
H1117 H 0.32341 0.38829 0.40902 0.0
H1118 H 0.90836 0.19459 0.61413 0.0
H1119 H 0.93508 0.2174 0.64125 0.0
H1120 H 0.95866 0.32732 0.62777 0.0
H1121 H 0.93184 0.30415 0.60036 0.0
H1122 H 0.01945 0.32887 0.63984 0.0
H1123 H 0.89555 0.27881 0.65862 0.0
H1124 H 0.82921 0.23251 0.66152 0.0
H1125 H 0.85727 0.15656 0.68412 0.0
H1126 H 0.92379 0.20218 0.68115 0.0
H1127 H 0.09595 0.37554 0.72348 0.0
H1128 H 0.06397 0.37072 0.69727 0.0
H1129 H 0.02076 0.25247 0.69707 0.0
H1130 H 0.05166 0.25723 0.72315 0.0
H1131 H 0.96639 0.26709 0.69313 0.0
H1132 H 0.08959 0.31349 0.66992 0.0
H1133 H 0.15602 0.35932 0.66669 0.0
H1134 H 0.12874 0.44221 0.6526 0.0
H1135 H 0.06212 0.39694 0.65593 0.0
C1136 C 0.91768 0.22324 0.61724 0.0
C1137 C 0.91699 0.24736 0.60539 0.0
C1138 C 0.93321 0.23638 0.63273 0.0
C1139 C 0.9487 0.27411 0.6367 0.0
C1140 C 0.94667 0.29808 0.62507 0.0
C1141 C 0.93083 0.28476 0.60952 0.0
C1142 C 0.96993 0.28842 0.65235 0.0
C1143 C 0.00758 0.31597 0.65158 0.0
C1144 C 0.95476 0.27144 0.66768 0.0
C1145 C 0.91472 0.24392 0.6696 0.0
C1146 C 0.8876 0.25216 0.66412 0.0
C1147 C 0.84995 0.22603 0.66579 0.0
C1148 C 0.83904 0.1916 0.67299 0.0
C1149 C 0.86576 0.18325 0.67856 0.0
C1150 C 0.90345 0.20927 0.67691 0.0
C1151 C 0.08066 0.34884 0.71747 0.0
C1152 C 0.07661 0.31679 0.72516 0.0
C1153 C 0.06212 0.346 0.70259 0.0
C1154 C 0.03964 0.31112 0.6952 0.0
C1155 C 0.03753 0.27961 0.70254 0.0
C1156 C 0.05555 0.28239 0.71736 0.0
C1157 C 0.01623 0.30621 0.68046 0.0
C1158 C 0.97807 0.28051 0.68146 0.0
C1159 C 0.03097 0.32487 0.66539 0.0
C1160 C 0.07095 0.35199 0.66337 0.0
C1161 C 0.09779 0.34158 0.66627 0.0
C1162 C 0.13546 0.36743 0.66439 0.0
C1163 C 0.1466 0.40369 0.6595 0.0
C1164 C 0.12008 0.41414 0.65642 0.0
C1165 C 0.08237 0.3884 0.65829 0.0
H1166 H 0.17578 0.42366 0.65805 0.0
H1167 H 0.80987 0.17141 0.67426 0.0
H1168 H 0.78442 0.11212 0.0539 0.0
H1169 H 0.76656 0.08671 0.02592 0.0
H1170 H 0.7232 0.97605 0.0452 0.0
H1171 H 0.74223 1.00102 0.07259 0.0
H1172 H 0.76093 0.98168 0.01976 0.0
H1173 H 0.66686 0.01259 0.03184 0.0
H1174 H 0.64248 0.05338 0.03998 0.0
H1175 H 0.69612 0.12368 0.9984 0.0
H1176 H 0.72129 0.08358 0.99013 0.0
H1177 H 0.66924 0.88534 0.94562 0.0
H1178 H 0.67651 0.90789 0.97418 0.0
H1179 H 0.7373 0.02075 0.95681 0.0
H1180 H 0.73084 0.99884 0.92874 0.0
H1181 H 0.68737 0.0119 0.98134 0.0
H1182 H 0.78359 0.9813 0.97066 0.0
H1183 H 0.807 0.93949 0.96283 0.0
H1184 H 0.74603 0.86626 0.0026 0.0
H1185 H 0.72187 0.90744 0.01052 0.0
C1186 C 0.77096 0.08241 0.05211 0.0
C1187 C 0.76474 0.05869 0.06552 0.0
C1188 C 0.76056 0.06784 0.03614 0.0
C1189 C 0.74321 0.02928 0.03339 0.0
C1190 C 0.73665 0.00581 0.04687 0.0
C1191 C 0.74743 0.02027 0.06264 0.0
C1192 C 0.73277 0.01289 0.01656 0.0
C1193 C 0.74432 0.98794 0.01151 0.0
C1194 C 0.71153 0.02124 0.00558 0.0
C1195 C 0.69625 0.04527 0.01046 0.0
C1196 C 0.67367 0.03689 0.02449 0.0
C1197 C 0.65968 0.05987 0.02912 0.0
C1198 C 0.66782 0.09115 0.01973 0.0
C1199 C 0.68989 0.09946 0.00567 0.0
C1200 C 0.704 0.07661 0.001 0.0
C1201 C 0.68378 0.9149 0.94793 0.0
C1202 C 0.69946 0.9402 0.93486 0.0
C1203 C 0.68798 0.92777 0.96423 0.0
C1204 C 0.70754 0.96608 0.96762 0.0
C1205 C 0.72195 0.99115 0.95452 0.0
C1206 C 0.71826 0.97842 0.9384 0.0
C1207 C 0.71529 0.98063 0.98474 0.0
C1208 C 0.70352 0.0054 0.98976 0.0
C1209 C 0.73599 0.97186 0.99579 0.0
C1210 C 0.75058 0.94719 0.99106 0.0
C1211 C 0.77493 0.95612 0.97765 0.0
C1212 C 0.78838 0.93257 0.97321 0.0
C1213 C 0.77791 0.90018 0.98218 0.0
C1214 C 0.75405 0.89132 0.99564 0.0
C1215 C 0.74049 0.91475 1.00011 0.0
H1216 H 0.78836 0.88199 0.97873 0.0
H1217 H 0.65696 0.10891 0.02334 0.0
H1218 H 0.76413 0.74916 0.26963 0.0
H1219 H 0.74241 0.75322 0.29677 0.0
H1220 H 0.72987 0.64703 0.30955 0.0
H1221 H 0.75183 0.64257 0.2818 0.0
H1222 H 0.6679 0.65655 0.31904 0.0
H1223 H 0.79885 0.71896 0.32621 0.0
H1224 H 0.86425 0.762 0.31914 0.0
H1225 H 0.84479 0.85389 0.32148 0.0
H1226 H 0.77912 0.81135 0.32833 0.0
H1227 H 0.6459 0.69561 0.40368 0.0
H1228 H 0.65629 0.67564 0.37698 0.0
H1229 H 0.69796 0.78642 0.35809 0.0
H1230 H 0.68985 0.80676 0.38525 0.0
H1231 H 0.74661 0.76717 0.3532 0.0
H1232 H 0.61399 0.70349 0.34422 0.0
H1233 H 0.54868 0.66003 0.35132 0.0
H1234 H 0.57113 0.57003 0.35279 0.0
H1235 H 0.63672 0.61306 0.34595 0.0
C1236 C 0.75696 0.72656 0.27815 0.0
C1237 C 0.75987 0.69555 0.27354 0.0
C1238 C 0.74454 0.72901 0.29373 0.0
C1239 C 0.7347 0.7006 0.30527 0.0
C1240 C 0.73739 0.66933 0.30082 0.0
C1241 C 0.75021 0.66693 0.28506 0.0
C1242 C 0.72195 0.70475 0.32184 0.0
C1243 C 0.68525 0.6803 0.32672 0.0
C1244 C 0.74437 0.7361 0.33171 0.0
C1245 C 0.78397 0.76189 0.32769 0.0
C1246 C 0.80844 0.74831 0.32511 0.0
C1247 C 0.84558 0.77263 0.32116 0.0
C1248 C 0.85866 0.81065 0.31984 0.0
C1249 C 0.83463 0.82443 0.3225 0.0
C1250 C 0.79745 0.80023 0.32645 0.0
C1251 C 0.65601 0.71533 0.39366 0.0
C1252 C 0.66686 0.75268 0.39649 0.0
C1253 C 0.66193 0.70387 0.37831 0.0
C1254 C 0.67817 0.72949 0.36539 0.0
C1255 C 0.68564 0.76608 0.36784 0.0
C1256 C 0.68036 0.77763 0.38328 0.0
C1257 C 0.69188 0.71982 0.35022 0.0
C1258 C 0.72906 0.74324 0.34565 0.0
C1259 C 0.66985 0.68747 0.34074 0.0
C1260 C 0.63034 0.66157 0.34471 0.0
C1261 C 0.60506 0.67448 0.34617 0.0
C1262 C 0.56798 0.64991 0.35014 0.0
C1263 C 0.55579 0.61231 0.35254 0.0
C1264 C 0.58062 0.59917 0.35092 0.0
C1265 C 0.61774 0.62363 0.347 0.0
H1266 H 0.52709 0.59335 0.35564 0.0
H1267 H 0.88742 0.82943 0.31678 0.0
H1268 H 0.07121 0.69745 0.59725 0.0
H1269 H 0.0413 0.67368 0.62402 0.0
H1270 H 0.08101 0.78576 0.64055 0.0
H1271 H 0.1107 0.80927 0.61385 0.0
H1272 H 0.0796 0.74278 0.66578 0.0
H1273 H 0.99695 0.73666 0.62262 0.0
H1274 H 0.9659 0.71727 0.59567 0.0
H1275 H 0.91837 0.60303 0.60961 0.0
H1276 H 0.94962 0.62169 0.63656 0.0
H1277 H 0.95299 0.75012 0.71746 0.0
H1278 H 0.98309 0.75135 0.69158 0.0
H1279 H 0.93992 0.63346 0.69502 0.0
H1280 H 0.90938 0.63214 0.72129 0.0
H1281 H 0.94263 0.6669 0.66078 0.0
H1282 H 0.02089 0.67684 0.70648 0.0
H1283 H 0.05061 0.70068 0.7334 0.0
H1284 H 0.10458 0.81194 0.7146 0.0
H1285 H 0.07523 0.78875 0.68754 0.0
C1286 C 0.07498 0.71695 0.6069 0.0
C1287 C 0.09391 0.7552 0.60367 0.0
C1288 C 0.05746 0.70337 0.62212 0.0
C1289 C 0.05837 0.7279 0.63425 0.0
C1290 C 0.07993 0.76625 0.63144 0.0
C1291 C 0.09722 0.77975 0.61624 0.0
C1292 C 0.03388 0.71415 0.64903 0.0
C1293 C 0.04971 0.72597 0.66466 0.0
C1294 C 0.99476 0.69186 0.64768 0.0
C1295 C 0.97603 0.68055 0.6315 0.0
C1296 C 0.98018 0.70738 0.61986 0.0
C1297 C 0.96257 0.69652 0.60459 0.0
C1298 C 0.94049 0.6589 0.60086 0.0
C1299 C 0.93577 0.6321 0.61245 0.0
C1300 C 0.95339 0.6428 0.62773 0.0
C1301 C 0.94878 0.72419 0.71243 0.0
C1302 C 0.92856 0.69099 0.72127 0.0
C1303 C 0.96624 0.72499 0.6977 0.0
C1304 C 0.96421 0.69264 0.6915 0.0
C1305 C 0.94178 0.65874 0.69962 0.0
C1306 C 0.92406 0.65792 0.71451 0.0
C1307 C 0.98845 0.69583 0.67741 0.0
C1308 C 0.97259 0.6825 0.66192 0.0
C1309 C 0.02754 0.71705 0.67884 0.0
C1310 C 0.04574 0.73107 0.69501 0.0
C1311 C 0.03897 0.70641 0.70811 0.0
C1312 C 0.05577 0.71979 0.72339 0.0
C1313 C 0.0793 0.75781 0.72574 0.0
C1314 C 0.08632 0.7825 0.71277 0.0
C1315 C 0.06974 0.76923 0.69743 0.0
H1316 H 0.09217 0.76812 0.7376 0.0
H1317 H 0.92687 0.65053 0.58903 0.0
H1318 H 0.28843 0.00716 0.07425 0.0
H1319 H 0.30567 0.03127 0.04653 0.0
H1320 H 0.24379 0.92031 0.02705 0.0
H1321 H 0.22733 0.89553 0.05524 0.0
H1322 H 0.30681 0.96127 0.00957 0.0
H1323 H 0.20668 0.97784 0.02773 0.0
H1324 H 0.17345 0.99767 0.04656 0.0
H1325 H 0.26101 0.11079 0.04216 0.0
H1326 H 0.29502 0.09156 0.02348 0.0
H1327 H 0.27272 0.00781 0.93043 0.0
H1328 H 0.26855 0.98579 0.95843 0.0
H1329 H 0.3415 0.09773 0.97485 0.0
H1330 H 0.34626 0.1203 0.94641 0.0
H1331 H 0.27624 0.05815 0.9939 0.0
H1332 H 0.37378 0.0403 0.97349 0.0
H1333 H 0.40355 0.01889 0.9535 0.0
H1334 H 0.31752 0.90617 0.96112 0.0
H1335 H 0.28679 0.92695 0.98092 0.0
C1336 C 0.27868 0.98764 0.06416 0.0
C1337 C 0.25613 0.94935 0.06699 0.0
C1338 C 0.28849 1.0016 0.04823 0.0
C1339 C 0.27531 0.9778 0.03462 0.0
C1340 C 0.2541 0.93929 0.03736 0.0
C1341 C 0.24466 0.92515 0.05345 0.0
C1342 C 0.28253 0.99366 0.01767 0.0
C1343 C 0.29974 0.98213 0.0061 0.0
C1344 C 0.27405 0.02152 0.01317 0.0
C1345 C 0.25356 0.03321 0.02433 0.0
C1346 C 0.21897 0.00691 0.03087 0.0
C1347 C 0.19998 0.01804 0.0415 0.0
C1348 C 0.21515 0.05545 0.04559 0.0
C1349 C 0.24931 0.08182 0.03901 0.0
C1350 C 0.26844 0.07082 0.02838 0.0
C1351 C 0.28829 0.02792 0.93989 0.0
C1352 C 0.31 0.06591 0.93613 0.0
C1353 C 0.2859 0.01515 0.95594 0.0
C1354 C 0.30498 0.03999 0.96872 0.0
C1355 C 0.32669 0.07805 0.96512 0.0
C1356 C 0.32946 0.0909 0.9489 0.0
C1357 C 0.30056 0.02585 0.98586 0.0
C1358 C 0.28366 0.03757 0.99744 0.0
C1359 C 0.30898 0.99795 0.99027 0.0
C1360 C 0.32781 0.98524 0.97862 0.0
C1361 C 0.36105 0.01096 0.97082 0.0
C1362 C 0.37812 0.99894 0.95953 0.0
C1363 C 0.3624 0.9612 0.95602 0.0
C1364 C 0.32965 0.9354 0.96384 0.0
C1365 C 0.31241 0.94729 0.97511 0.0
H1366 H 0.37564 0.95195 0.94727 0.0
H1367 H 0.20041 0.06402 0.05382 0.0
loop_
_geom_bond_atom_site_label_1
_geom_bond_atom_site_label_2
_geom_bond_distance
_geom_bond_site_symmetry_2
_ccdc_geom_bond_type
Co0 O1 2.216 . S
Co0 O2 2.091 . S
Co0 O4 2.004 . S
Co0 O10 2.021 . S
Co0 O12 2.137 . S
Co0 O13 2.244 . S
O1 Co0 2.216 . S
O1 C8 1.247 . S
O2 Co0 2.091 . S
O2 C8 1.261 . S
C3 O12 1.247 . S
C3 O13 1.272 . S
O4 Co0 2.004 . S
O4 C9 1.259 . S
Co5 O6 2.061 . S
Co5 O11 2.052 . S
Co5 O13 2.135 . S
O6 Co5 2.061 . S
O6 C9 1.235 . S
C7 O10 1.238 . S
C7 O11 1.241 . S
C8 O1 1.247 . S
C8 O2 1.261 . S
C9 O4 1.259 . S
C9 O6 1.235 . S
O10 Co0 2.021 . S
O10 C7 1.238 . S
O11 Co5 2.052 . S
O11 C7 1.241 . S
O12 Co0 2.137 . S
O12 C3 1.247 . S
O13 Co0 2.244 . S
O13 C3 1.272 . S
O13 Co5 2.135 . S
Co14 O15 2.216 . S
Co14 O16 2.091 . S
Co14 O18 2.004 . S
Co14 O24 2.021 . S
Co14 O26 2.137 . S
Co14 O27 2.244 . S
O15 Co14 2.216 . S
O15 C22 1.247 . S
O16 Co14 2.091 . S
O16 C22 1.261 . S
C17 O26 1.247 . S
C17 O27 1.272 . S
O18 Co14 2.004 . S
O18 C23 1.259 . S
Co19 O20 2.061 1_455 S
Co19 O25 2.052 . S
Co19 O27 2.135 1_455 S
O20 Co19 2.061 1_655 S
O20 C23 1.235 . S
C21 O24 1.238 1_455 S
C21 O25 1.241 . S
C22 O15 1.247 . S
C22 O16 1.261 . S
C23 O18 1.259 . S
C23 O20 1.235 . S
O24 Co14 2.021 . S
O24 C21 1.238 1_655 S
O25 Co19 2.052 . S
O25 C21 1.241 . S
O26 Co14 2.137 . S
O26 C17 1.247 . S
O27 Co14 2.244 . S
O27 C17 1.272 . S
O27 Co19 2.135 1_655 S
Co28 O29 2.216 . S
Co28 O30 2.091 . S
Co28 O32 2.004 . S
Co28 O38 2.021 . S
Co28 O40 2.137 . S
Co28 O41 2.244 . S
O29 Co28 2.216 . S
O29 C36 1.247 . S
O30 Co28 2.091 . S
O30 C36 1.261 . S
C31 O40 1.247 . S
C31 O41 1.272 . S
O32 Co28 2.004 . S
O32 C37 1.259 . S
Co33 O34 2.061 1_545 S
Co33 O39 2.052 . S
Co33 O41 2.135 1_545 S
O34 Co33 2.061 1_565 S
O34 C37 1.235 . S
C35 O38 1.238 1_545 S
C35 O39 1.241 . S
C36 O29 1.247 . S
C36 O30 1.261 . S
C37 O32 1.259 . S
C37 O34 1.235 . S
O38 Co28 2.021 . S
O38 C35 1.238 1_565 S
O39 Co33 2.052 . S
O39 C35 1.241 . S
O40 Co28 2.137 . S
O40 C31 1.247 . S
O41 Co28 2.244 . S
O41 C31 1.272 . S
O41 Co33 2.135 1_565 S
Co42 O43 2.216 . S
Co42 O44 2.091 . S
Co42 O46 2.004 . S
Co42 O52 2.021 . S
Co42 O54 2.137 . S
Co42 O55 2.244 . S
O43 Co42 2.216 . S
O43 C50 1.247 . S
O44 Co42 2.091 . S
O44 C50 1.261 . S
C45 O54 1.247 . S
C45 O55 1.272 . S
O46 Co42 2.004 . S
O46 C51 1.259 . S
Co47 O48 2.061 . S
Co47 O53 2.052 . S
Co47 O55 2.135 . S
O48 Co47 2.061 . S
O48 C51 1.235 . S
C49 O52 1.238 . S
C49 O53 1.241 . S
C50 O43 1.247 . S
C50 O44 1.261 . S
C51 O46 1.259 . S
C51 O48 1.235 . S
O52 Co42 2.021 . S
O52 C49 1.238 . S
O53 Co47 2.052 . S
O53 C49 1.241 . S
O54 Co42 2.137 . S
O54 C45 1.247 . S
O55 Co42 2.244 . S
O55 C45 1.272 . S
O55 Co47 2.135 . S
Co56 O57 2.216 . S
Co56 O58 2.091 . S
Co56 O60 2.004 . S
Co56 O66 2.021 . S
Co56 O68 2.137 . S
Co56 O69 2.244 . S
O57 Co56 2.216 . S
O57 C64 1.247 . S
O58 Co56 2.091 . S
O58 C64 1.261 . S
C59 O68 1.247 . S
C59 O69 1.272 . S
O60 Co56 2.004 . S
O60 C65 1.259 . S
Co61 O62 2.061 1_655 S
Co61 O67 2.052 . S
Co61 O69 2.135 1_655 S
O62 Co61 2.061 1_455 S
O62 C65 1.235 . S
C63 O66 1.238 1_655 S
C63 O67 1.241 . S
C64 O57 1.247 . S
C64 O58 1.261 . S
C65 O60 1.259 . S
C65 O62 1.235 . S
O66 Co56 2.021 . S
O66 C63 1.238 1_455 S
O67 Co61 2.052 . S
O67 C63 1.241 . S
O68 Co56 2.137 . S
O68 C59 1.247 . S
O69 Co56 2.244 . S
O69 C59 1.272 . S
O69 Co61 2.135 1_455 S
Co70 O71 2.216 . S
Co70 O72 2.091 . S
Co70 O74 2.004 . S
Co70 O80 2.021 . S
Co70 O82 2.137 . S
Co70 O83 2.244 . S
O71 Co70 2.216 . S
O71 C78 1.247 . S
O72 Co70 2.091 . S
O72 C78 1.261 . S
C73 O82 1.247 . S
C73 O83 1.272 . S
O74 Co70 2.004 . S
O74 C79 1.259 . S
Co75 O76 2.061 1_565 S
Co75 O81 2.052 . S
Co75 O83 2.135 1_565 S
O76 Co75 2.061 1_545 S
O76 C79 1.235 . S
C77 O80 1.238 1_565 S
C77 O81 1.241 . S
C78 O71 1.247 . S
C78 O72 1.261 . S
C79 O74 1.259 . S
C79 O76 1.235 . S
O80 Co70 2.021 . S
O80 C77 1.238 1_545 S
O81 Co75 2.052 . S
O81 C77 1.241 . S
O82 Co70 2.137 . S
O82 C73 1.247 . S
O83 Co70 2.244 . S
O83 C73 1.272 . S
O83 Co75 2.135 1_545 S
Co84 O85 2.216 . S
Co84 O86 2.091 . S
Co84 O88 2.004 . S
Co84 O94 2.021 . S
Co84 O96 2.137 . S
Co84 O97 2.244 . S
O85 Co84 2.216 . S
O85 C92 1.247 . S
O86 Co84 2.091 . S
O86 C92 1.261 . S
C87 O96 1.247 . S
C87 O97 1.272 . S
O88 Co84 2.004 . S
O88 C93 1.259 . S
Co89 O90 2.061 . S
Co89 O95 2.052 . S
Co89 O97 2.135 . S
O90 Co89 2.061 . S
O90 C93 1.235 . S
C91 O94 1.238 . S
C91 O95 1.241 . S
C92 O85 1.247 . S
C92 O86 1.261 . S
C93 O88 1.259 . S
C93 O90 1.235 . S
O94 Co84 2.021 . S
O94 C91 1.238 . S
O95 Co89 2.052 . S
O95 C91 1.241 . S
O96 Co84 2.137 . S
O96 C87 1.247 . S
O97 Co84 2.244 . S
O97 C87 1.272 . S
O97 Co89 2.135 . S
Co98 O99 2.216 . S
Co98 O100 2.091 . S
Co98 O102 2.004 . S
Co98 O108 2.021 . S
Co98 O110 2.137 . S
Co98 O111 2.244 . S
O99 Co98 2.216 . S
O99 C106 1.247 . S
O100 Co98 2.091 . S
O100 C106 1.261 . S
C101 O110 1.247 . S
C101 O111 1.272 . S
O102 Co98 2.004 . S
O102 C107 1.259 . S
Co103 O104 2.061 1_455 S
Co103 O109 2.052 . S
Co103 O111 2.135 1_455 S
O104 Co103 2.061 1_655 S
O104 C107 1.235 . S
C105 O108 1.238 1_455 S
C105 O109 1.241 . S
C106 O99 1.247 . S
C106 O100 1.261 . S
C107 O102 1.259 . S
C107 O104 1.235 . S
O108 Co98 2.021 . S
O108 C105 1.238 1_655 S
O109 Co103 2.052 . S
O109 C105 1.241 . S
O110 Co98 2.137 . S
O110 C101 1.247 . S
O111 Co98 2.244 . S
O111 C101 1.272 . S
O111 Co103 2.135 1_655 S
Co112 O113 2.216 . S
Co112 O114 2.091 . S
Co112 O116 2.004 . S
Co112 O122 2.021 . S
Co112 O124 2.137 . S
Co112 O125 2.244 . S
O113 Co112 2.216 . S
O113 C120 1.247 . S
O114 Co112 2.091 . S
O114 C120 1.261 . S
C115 O124 1.247 . S
C115 O125 1.272 . S
O116 Co112 2.004 . S
O116 C121 1.259 . S
Co117 O118 2.061 1_545 S
Co117 O123 2.052 . S
Co117 O125 2.135 1_545 S
O118 Co117 2.061 1_565 S
O118 C121 1.235 . S
C119 O122 1.238 1_545 S
C119 O123 1.241 . S
C120 O113 1.247 . S
C120 O114 1.261 . S
C121 O116 1.259 . S
C121 O118 1.235 . S
O122 Co112 2.021 . S
O122 C119 1.238 1_565 S
O123 Co117 2.052 . S
O123 C119 1.241 . S
O124 Co112 2.137 . S
O124 C115 1.247 . S
O125 Co112 2.244 . S
O125 C115 1.272 . S
O125 Co117 2.135 1_565 S
Co126 O127 2.216 . S
Co126 O128 2.091 . S
Co126 O130 2.004 . S
Co126 O136 2.021 . S
Co126 O138 2.137 . S
Co126 O139 2.244 . S
O127 Co126 2.216 . S
O127 C134 1.247 . S
O128 Co126 2.091 . S
O128 C134 1.261 . S
C129 O138 1.247 . S
C129 O139 1.272 . S
O130 Co126 2.004 . S
O130 C135 1.259 . S
Co131 O132 2.061 . S
Co131 O137 2.052 . S
Co131 O139 2.135 . S
O132 Co131 2.061 . S
O132 C135 1.235 . S
C133 O136 1.238 . S
C133 O137 1.241 . S
C134 O127 1.247 . S
C134 O128 1.261 . S
C135 O130 1.259 . S
C135 O132 1.235 . S
O136 Co126 2.021 . S
O136 C133 1.238 . S
O137 Co131 2.052 . S
O137 C133 1.241 . S
O138 Co126 2.137 . S
O138 C129 1.247 . S
O139 Co126 2.244 . S
O139 C129 1.272 . S
O139 Co131 2.135 . S
Co140 O141 2.216 . S
Co140 O142 2.091 . S
Co140 O144 2.004 . S
Co140 O150 2.021 . S
Co140 O152 2.137 . S
Co140 O153 2.244 . S
O141 Co140 2.216 . S
O141 C148 1.247 . S
O142 Co140 2.091 . S
O142 C148 1.261 . S
C143 O152 1.247 . S
C143 O153 1.272 . S
O144 Co140 2.004 . S
O144 C149 1.259 . S
Co145 O146 2.061 1_655 S
Co145 O151 2.052 . S
Co145 O153 2.135 1_655 S
O146 Co145 2.061 1_455 S
O146 C149 1.235 . S
C147 O150 1.238 1_655 S
C147 O151 1.241 . S
C148 O141 1.247 . S
C148 O142 1.261 . S
C149 O144 1.259 . S
C149 O146 1.235 . S
O150 Co140 2.021 . S
O150 C147 1.238 1_455 S
O151 Co145 2.052 . S
O151 C147 1.241 . S
O152 Co140 2.137 . S
O152 C143 1.247 . S
O153 Co140 2.244 . S
O153 C143 1.272 . S
O153 Co145 2.135 1_455 S
Co154 O155 2.216 . S
Co154 O156 2.091 . S
Co154 O158 2.004 . S
Co154 O164 2.021 . S
Co154 O166 2.137 . S
Co154 O167 2.244 . S
O155 Co154 2.216 . S
O155 C162 1.247 . S
O156 Co154 2.091 . S
O156 C162 1.261 . S
C157 O166 1.247 . S
C157 O167 1.272 . S
O158 Co154 2.004 . S
O158 C163 1.259 . S
Co159 O160 2.061 1_565 S
Co159 O165 2.052 . S
Co159 O167 2.135 1_565 S
O160 Co159 2.061 1_545 S
O160 C163 1.235 . S
C161 O164 1.238 1_565 S
C161 O165 1.241 . S
C162 O155 1.247 . S
C162 O156 1.261 . S
C163 O158 1.259 . S
C163 O160 1.235 . S
O164 Co154 2.021 . S
O164 C161 1.238 1_545 S
O165 Co159 2.052 . S
O165 C161 1.241 . S
O166 Co154 2.137 . S
O166 C157 1.247 . S
O167 Co154 2.244 . S
O167 C157 1.272 . S
O167 Co159 2.135 1_545 S
H168 C186 0.951 . S
H169 C188 0.951 . S
H170 C190 0.950 . S
H171 C191 0.950 . S
H172 C193 0.950 . S
H173 C196 0.950 . S
H174 C197 0.950 . S
H175 C199 0.950 . S
H176 C200 0.950 . S
H177 C201 0.951 . S
H178 C203 0.951 . S
H179 C205 0.950 . S
H180 C206 0.950 . S
H181 C208 0.950 . S
H182 C211 0.950 . S
H183 C212 0.950 . S
H184 C214 0.950 . S
H185 C215 0.950 . S
C186 H168 0.951 . S
C186 C187 1.366 . S
C186 C188 1.388 . S
C187 C186 1.366 . S
C187 C191 1.385 . S
C188 H169 0.951 . S
C188 C186 1.388 . S
C188 C189 1.366 . S
C189 C188 1.366 . S
C189 C190 1.414 . S
C189 C192 1.499 . S
C190 H170 0.950 . S
C190 C189 1.414 . S
C190 C191 1.374 . S
C191 H171 0.950 . S
C191 C187 1.385 . S
C191 C190 1.374 . S
C192 C189 1.499 . S
C192 C193 1.373 . S
C192 C194 1.389 . S
C193 H172 0.950 . S
C193 C192 1.373 . S
C193 C209 1.377 1_655 S
C194 C192 1.389 . S
C194 C195 1.524 . S
C194 C208 1.377 1_655 S
C195 C194 1.524 . S
C195 C196 1.397 . S
C195 C200 1.363 . S
C196 H173 0.950 . S
C196 C195 1.397 . S
C196 C197 1.334 . S
C197 H174 0.950 . S
C197 C196 1.334 . S
C197 C198 1.287 . S
C198 C197 1.287 . S
C198 C199 1.524 . S
C198 H217 0.913 . S
C199 H175 0.950 . S
C199 C198 1.524 . S
C199 C200 1.415 . S
C200 H176 0.950 . S
C200 C195 1.363 . S
C200 C199 1.415 . S
C201 H177 0.951 . S
C201 C202 1.366 . S
C201 C203 1.388 . S
C202 C201 1.366 . S
C202 C206 1.385 . S
C203 H178 0.951 . S
C203 C201 1.388 . S
C203 C204 1.366 . S
C204 C203 1.366 . S
C204 C205 1.414 . S
C204 C207 1.499 . S
C205 H179 0.950 . S
C205 C204 1.414 . S
C205 C206 1.374 . S
C206 H180 0.950 . S
C206 C202 1.385 . S
C206 C205 1.374 . S
C207 C204 1.499 . S
C207 C208 1.373 . S
C207 C209 1.389 . S
C208 H181 0.950 . S
C208 C194 1.377 1_455 S
C208 C207 1.373 . S
C209 C193 1.377 1_455 S
C209 C207 1.389 . S
C209 C210 1.524 . S
C210 C209 1.524 . S
C210 C211 1.397 . S
C210 C215 1.363 . S
C211 H182 0.950 . S
C211 C210 1.397 . S
C211 C212 1.334 . S
C212 H183 0.950 . S
C212 C211 1.334 . S
C212 C213 1.287 . S
C213 C212 1.287 . S
C213 C214 1.524 . S
C213 H216 0.999 . S
C214 H184 0.950 . S
C214 C213 1.524 . S
C214 C215 1.415 . S
C215 H185 0.950 . S
C215 C210 1.363 . S
C215 C214 1.415 . S
H216 C213 0.999 . S
H217 C198 0.913 . S
H218 C236 0.951 . S
H219 C238 0.951 . S
H220 C240 0.950 . S
H221 C241 0.950 . S
H222 C243 0.950 . S
H223 C246 0.950 . S
H224 C247 0.950 . S
H225 C249 0.950 . S
H226 C250 0.950 1_565 S
H227 C251 0.951 . S
H228 C253 0.951 . S
H229 C255 0.950 . S
H230 C256 0.950 . S
H231 C258 0.950 . S
H232 C261 0.950 . S
H233 C262 0.950 . S
H234 C264 0.950 . S
H235 C265 0.950 1_545 S
C236 H218 0.951 . S
C236 C237 1.366 . S
C236 C238 1.388 . S
C237 C236 1.366 . S
C237 C241 1.385 . S
C238 H219 0.951 . S
C238 C236 1.388 . S
C238 C239 1.366 . S
C239 C238 1.366 . S
C239 C240 1.414 . S
C239 C242 1.499 . S
C240 H220 0.950 . S
C240 C239 1.414 . S
C240 C241 1.374 . S
C241 H221 0.950 . S
C241 C237 1.385 . S
C241 C240 1.374 . S
C242 C239 1.499 . S
C242 C243 1.373 . S
C242 C244 1.389 . S
C243 H222 0.950 . S
C243 C242 1.373 . S
C243 C259 1.377 1_545 S
C244 C242 1.389 . S
C244 C245 1.524 . S
C244 C258 1.377 1_545 S
C245 C244 1.524 . S
C245 C246 1.397 . S
C245 C250 1.363 . S
C246 H223 0.950 . S
C246 C245 1.397 . S
C246 C247 1.334 . S
C247 H224 0.950 . S
C247 C246 1.334 . S
C247 C248 1.287 . S
C248 C247 1.287 . S
C248 C249 1.524 . S
C248 H267 0.913 . S
C249 H225 0.950 . S
C249 C248 1.524 . S
C249 C250 1.415 . S
C250 H226 0.950 1_545 S
C250 C245 1.363 . S
C250 C249 1.415 . S
C251 H227 0.951 . S
C251 C252 1.366 . S
C251 C253 1.388 . S
C252 C251 1.366 . S
C252 C256 1.385 . S
C253 H228 0.951 . S
C253 C251 1.388 . S
C253 C254 1.366 . S
C254 C253 1.366 . S
C254 C255 1.414 . S
C254 C257 1.499 . S
C255 H229 0.950 . S
C255 C254 1.414 . S
C255 C256 1.374 . S
C256 H230 0.950 . S
C256 C252 1.385 . S
C256 C255 1.374 . S
C257 C254 1.499 . S
C257 C258 1.373 . S
C257 C259 1.389 . S
C258 H231 0.950 . S
C258 C244 1.377 1_565 S
C258 C257 1.373 . S
C259 C243 1.377 1_565 S
C259 C257 1.389 . S
C259 C260 1.524 . S
C260 C259 1.524 . S
C260 C261 1.397 . S
C260 C265 1.363 . S
C261 H232 0.950 . S
C261 C260 1.397 . S
C261 C262 1.334 . S
C262 H233 0.950 . S
C262 C261 1.334 . S
C262 C263 1.287 . S
C263 C262 1.287 . S
C263 C264 1.524 . S
C263 H266 0.999 . S
C264 H234 0.950 . S
C264 C263 1.524 . S
C264 C265 1.415 . S
C265 H235 0.950 1_565 S
C265 C260 1.363 . S
C265 C264 1.415 . S
H266 C263 0.999 . S
H267 C248 0.913 . S
H268 C286 0.951 . S
H269 C288 0.951 . S
H270 C290 0.950 . S
H271 C291 0.950 . S
H272 C293 0.950 . S
H273 C296 0.950 . S
H274 C297 0.950 . S
H275 C299 0.950 . S
H276 C300 0.950 . S
H277 C301 0.951 . S
H278 C303 0.951 . S
H279 C305 0.950 . S
H280 C306 0.950 . S
H281 C308 0.950 . S
H282 C311 0.950 . S
H283 C312 0.950 . S
H284 C314 0.950 . S
H285 C315 0.950 . S
C286 H268 0.951 . S
C286 C287 1.366 . S
C286 C288 1.388 . S
C287 C286 1.366 . S
C287 C291 1.385 . S
C288 H269 0.951 . S
C288 C286 1.388 . S
C288 C289 1.366 . S
C289 C288 1.366 . S
C289 C290 1.414 . S
C289 C292 1.499 . S
C290 H270 0.950 . S
C290 C289 1.414 . S
C290 C291 1.374 . S
C291 H271 0.950 . S
C291 C287 1.385 . S
C291 C290 1.374 . S
C292 C289 1.499 . S
C292 C293 1.373 . S
C292 C294 1.389 . S
C293 H272 0.950 . S
C293 C292 1.373 . S
C293 C309 1.377 . S
C294 C292 1.389 . S
C294 C295 1.524 . S
C294 C308 1.377 . S
C295 C294 1.524 . S
C295 C296 1.397 . S
C295 C300 1.363 . S
C296 H273 0.950 . S
C296 C295 1.397 . S
C296 C297 1.334 . S
C297 H274 0.950 . S
C297 C296 1.334 . S
C297 C298 1.287 . S
C298 C297 1.287 . S
C298 C299 1.524 . S
C298 H317 0.913 . S
C299 H275 0.950 . S
C299 C298 1.524 . S
C299 C300 1.415 . S
C300 H276 0.950 . S
C300 C295 1.363 . S
C300 C299 1.415 . S
C301 H277 0.951 . S
C301 C302 1.366 . S
C301 C303 1.388 . S
C302 C301 1.366 . S
C302 C306 1.385 . S
C303 H278 0.951 . S
C303 C301 1.388 . S
C303 C304 1.366 . S
C304 C303 1.366 . S
C304 C305 1.414 . S
C304 C307 1.499 . S
C305 H279 0.950 . S
C305 C304 1.414 . S
C305 C306 1.374 . S
C306 H280 0.950 . S
C306 C302 1.385 . S
C306 C305 1.374 . S
C307 C304 1.499 . S
C307 C308 1.373 . S
C307 C309 1.389 . S
C308 H281 0.950 . S
C308 C294 1.377 . S
C308 C307 1.373 . S
C309 C293 1.377 . S
C309 C307 1.389 . S
C309 C310 1.524 . S
C310 C309 1.524 . S
C310 C311 1.397 . S
C310 C315 1.363 . S
C311 H282 0.950 . S
C311 C310 1.397 . S
C311 C312 1.334 . S
C312 H283 0.950 . S
C312 C311 1.334 . S
C312 C313 1.287 . S
C313 C312 1.287 . S
C313 C314 1.524 . S
C313 H316 0.999 . S
C314 H284 0.950 . S
C314 C313 1.524 . S
C314 C315 1.415 . S
C315 H285 0.950 . S
C315 C310 1.363 . S
C315 C314 1.415 . S
H316 C313 0.999 . S
H317 C298 0.913 . S
H318 C336 0.951 . S
H319 C338 0.951 . S
H320 C340 0.950 . S
H321 C341 0.950 . S
H322 C343 0.950 . S
H323 C346 0.950 . S
H324 C347 0.950 . S
H325 C349 0.950 . S
H326 C350 0.950 . S
H327 C351 0.951 . S
H328 C353 0.951 . S
H329 C355 0.950 . S
H330 C356 0.950 . S
H331 C358 0.950 . S
H332 C361 0.950 . S
H333 C362 0.950 . S
H334 C364 0.950 . S
H335 C365 0.950 . S
C336 H318 0.951 . S
C336 C337 1.366 . S
C336 C338 1.388 . S
C337 C336 1.366 . S
C337 C341 1.385 . S
C338 H319 0.951 . S
C338 C336 1.388 . S
C338 C339 1.366 . S
C339 C338 1.366 . S
C339 C340 1.414 . S
C339 C342 1.499 . S
C340 H320 0.950 . S
C340 C339 1.414 . S
C340 C341 1.374 . S
C341 H321 0.950 . S
C341 C337 1.385 . S
C341 C340 1.374 . S
C342 C339 1.499 . S
C342 C343 1.373 . S
C342 C344 1.389 . S
C343 H322 0.950 . S
C343 C342 1.373 . S
C343 C359 1.377 1_655 S
C344 C342 1.389 . S
C344 C345 1.524 . S
C344 C358 1.377 1_655 S
C345 C344 1.524 . S
C345 C346 1.397 . S
C345 C350 1.363 . S
C346 H323 0.950 . S
C346 C345 1.397 . S
C346 C347 1.334 . S
C347 H324 0.950 . S
C347 C346 1.334 . S
C347 C348 1.287 . S
C348 C347 1.287 . S
C348 C349 1.524 . S
C348 H367 0.913 . S
C349 H325 0.950 . S
C349 C348 1.524 . S
C349 C350 1.415 . S
C350 H326 0.950 . S
C350 C345 1.363 . S
C350 C349 1.415 . S
C351 H327 0.951 . S
C351 C352 1.366 . S
C351 C353 1.388 . S
C352 C351 1.366 . S
C352 C356 1.385 . S
C353 H328 0.951 . S
C353 C351 1.388 . S
C353 C354 1.366 . S
C354 C353 1.366 . S
C354 C355 1.414 . S
C354 C357 1.499 . S
C355 H329 0.950 . S
C355 C354 1.414 . S
C355 C356 1.374 . S
C356 H330 0.950 . S
C356 C352 1.385 . S
C356 C355 1.374 . S
C357 C354 1.499 . S
C357 C358 1.373 . S
C357 C359 1.389 . S
C358 H331 0.950 . S
C358 C344 1.377 1_455 S
C358 C357 1.373 . S
C359 C343 1.377 1_455 S
C359 C357 1.389 . S
C359 C360 1.524 . S
C360 C359 1.524 . S
C360 C361 1.397 . S
C360 C365 1.363 . S
C361 H332 0.950 . S
C361 C360 1.397 . S
C361 C362 1.334 . S
C362 H333 0.950 . S
C362 C361 1.334 . S
C362 C363 1.287 . S
C363 C362 1.287 . S
C363 C364 1.524 . S
C363 H366 0.999 . S
C364 H334 0.950 . S
C364 C363 1.524 . S
C364 C365 1.415 . S
C365 H335 0.950 . S
C365 C360 1.363 . S
C365 C364 1.415 . S
H366 C363 0.999 . S
H367 C348 0.913 . S
H368 C386 0.951 . S
H369 C388 0.951 . S
H370 C390 0.950 . S
H371 C391 0.950 . S
H372 C393 0.950 . S
H373 C396 0.950 . S
H374 C397 0.950 . S
H375 C399 0.950 . S
H376 C400 0.950 . S
H377 C401 0.951 . S
H378 C403 0.951 . S
H379 C405 0.950 . S
H380 C406 0.950 . S
H381 C408 0.950 . S
H382 C411 0.950 . S
H383 C412 0.950 . S
H384 C414 0.950 . S
H385 C415 0.950 . S
C386 H368 0.951 . S
C386 C387 1.366 . S
C386 C388 1.388 . S
C387 C386 1.366 . S
C387 C391 1.385 . S
C388 H369 0.951 . S
C388 C386 1.388 . S
C388 C389 1.366 . S
C389 C388 1.366 . S
C389 C390 1.414 . S
C389 C392 1.499 . S
C390 H370 0.950 . S
C390 C389 1.414 . S
C390 C391 1.374 . S
C391 H371 0.950 . S
C391 C387 1.385 . S
C391 C390 1.374 . S
C392 C389 1.499 . S
C392 C393 1.373 . S
C392 C394 1.389 . S
C393 H372 0.950 . S
C393 C392 1.373 . S
C393 C409 1.377 1_545 S
C394 C392 1.389 . S
C394 C395 1.524 . S
C394 C408 1.377 1_545 S
C395 C394 1.524 . S
C395 C396 1.397 . S
C395 C400 1.363 . S
C396 H373 0.950 . S
C396 C395 1.397 . S
C396 C397 1.334 . S
C397 H374 0.950 . S
C397 C396 1.334 . S
C397 C398 1.287 . S
C398 C397 1.287 . S
C398 C399 1.524 . S
C398 H417 0.913 . S
C399 H375 0.950 . S
C399 C398 1.524 . S
C399 C400 1.415 . S
C400 H376 0.950 . S
C400 C395 1.363 . S
C400 C399 1.415 . S
C401 H377 0.951 . S
C401 C402 1.366 . S
C401 C403 1.388 . S
C402 C401 1.366 . S
C402 C406 1.385 . S
C403 H378 0.951 . S
C403 C401 1.388 . S
C403 C404 1.366 . S
C404 C403 1.366 . S
C404 C405 1.414 . S
C404 C407 1.499 . S
C405 H379 0.950 . S
C405 C404 1.414 . S
C405 C406 1.374 . S
C406 H380 0.950 . S
C406 C402 1.385 . S
C406 C405 1.374 . S
C407 C404 1.499 . S
C407 C408 1.373 . S
C407 C409 1.389 . S
C408 H381 0.950 . S
C408 C394 1.377 1_565 S
C408 C407 1.373 . S
C409 C393 1.377 1_565 S
C409 C407 1.389 . S
C409 C410 1.524 . S
C410 C409 1.524 . S
C410 C411 1.397 . S
C410 C415 1.363 . S
C411 H382 0.950 . S
C411 C410 1.397 . S
C411 C412 1.334 . S
C412 H383 0.950 . S
C412 C411 1.334 . S
C412 C413 1.287 . S
C413 C412 1.287 . S
C413 C414 1.524 . S
C413 H416 0.999 . S
C414 H384 0.950 . S
C414 C413 1.524 . S
C414 C415 1.415 . S
C415 H385 0.950 . S
C415 C410 1.363 . S
C415 C414 1.415 . S
H416 C413 0.999 . S
H417 C398 0.913 . S
H418 C436 0.951 . S
H419 C438 0.951 . S
H420 C440 0.950 . S
H421 C441 0.950 . S
H422 C443 0.950 . S
H423 C446 0.950 . S
H424 C447 0.950 . S
H425 C449 0.950 . S
H426 C450 0.950 . S
H427 C451 0.951 . S
H428 C453 0.951 . S
H429 C455 0.950 . S
H430 C456 0.950 . S
H431 C458 0.950 . S
H432 C461 0.950 . S
H433 C462 0.950 . S
H434 C464 0.950 . S
H435 C465 0.950 . S
C436 H418 0.951 . S
C436 C437 1.366 . S
C436 C438 1.388 . S
C437 C436 1.366 . S
C437 C441 1.385 . S
C438 H419 0.951 . S
C438 C436 1.388 . S
C438 C439 1.366 . S
C439 C438 1.366 . S
C439 C440 1.414 . S
C439 C442 1.499 . S
C440 H420 0.950 . S
C440 C439 1.414 . S
C440 C441 1.374 . S
C441 H421 0.950 . S
C441 C437 1.385 . S
C441 C440 1.374 . S
C442 C439 1.499 . S
C442 C443 1.373 . S
C442 C444 1.389 . S
C443 H422 0.950 . S
C443 C442 1.373 . S
C443 C459 1.377 . S
C444 C442 1.389 . S
C444 C445 1.524 . S
C444 C458 1.377 . S
C445 C444 1.524 . S
C445 C446 1.397 . S
C445 C450 1.363 . S
C446 H423 0.950 . S
C446 C445 1.397 . S
C446 C447 1.334 . S
C447 H424 0.950 . S
C447 C446 1.334 . S
C447 C448 1.287 . S
C448 C447 1.287 . S
C448 C449 1.524 . S
C448 H467 0.913 . S
C449 H425 0.950 . S
C449 C448 1.524 . S
C449 C450 1.415 . S
C450 H426 0.950 . S
C450 C445 1.363 . S
C450 C449 1.415 . S
C451 H427 0.951 . S
C451 C452 1.366 . S
C451 C453 1.388 . S
C452 C451 1.366 . S
C452 C456 1.385 . S
C453 H428 0.951 . S
C453 C451 1.388 . S
C453 C454 1.366 . S
C454 C453 1.366 . S
C454 C455 1.414 . S
C454 C457 1.499 . S
C455 H429 0.950 . S
C455 C454 1.414 . S
C455 C456 1.374 . S
C456 H430 0.950 . S
C456 C452 1.385 . S
C456 C455 1.374 . S
C457 C454 1.499 . S
C457 C458 1.373 . S
C457 C459 1.389 . S
C458 H431 0.950 . S
C458 C444 1.377 . S
C458 C457 1.373 . S
C459 C443 1.377 . S
C459 C457 1.389 . S
C459 C460 1.524 . S
C460 C459 1.524 . S
C460 C461 1.397 . S
C460 C465 1.363 . S
C461 H432 0.950 . S
C461 C460 1.397 . S
C461 C462 1.334 . S
C462 H433 0.950 . S
C462 C461 1.334 . S
C462 C463 1.287 . S
C463 C462 1.287 . S
C463 C464 1.524 . S
C463 H466 0.999 . S
C464 H434 0.950 . S
C464 C463 1.524 . S
C464 C465 1.415 . S
C465 H435 0.950 . S
C465 C460 1.363 . S
C465 C464 1.415 . S
H466 C463 0.999 . S
H467 C448 0.913 . S
H468 C486 0.951 . S
H469 C488 0.951 . S
H470 C490 0.950 . S
H471 C491 0.950 . S
H472 C493 0.950 . S
H473 C496 0.950 . S
H474 C497 0.950 . S
H475 C499 0.950 . S
H476 C500 0.950 . S
H477 C501 0.951 . S
H478 C503 0.951 . S
H479 C505 0.950 . S
H480 C506 0.950 . S
H481 C508 0.950 . S
H482 C511 0.950 . S
H483 C512 0.950 . S
H484 C514 0.950 . S
H485 C515 0.950 . S
C486 H468 0.951 . S
C486 C487 1.366 . S
C486 C488 1.388 . S
C487 C486 1.366 . S
C487 C491 1.385 . S
C488 H469 0.951 . S
C488 C486 1.388 . S
C488 C489 1.366 . S
C489 C488 1.366 . S
C489 C490 1.414 . S
C489 C492 1.499 . S
C490 H470 0.950 . S
C490 C489 1.414 . S
C490 C491 1.374 . S
C491 H471 0.950 . S
C491 C487 1.385 . S
C491 C490 1.374 . S
C492 C489 1.499 . S
C492 C493 1.373 . S
C492 C494 1.389 . S
C493 H472 0.950 . S
C493 C492 1.373 . S
C493 C509 1.377 . S
C494 C492 1.389 . S
C494 C495 1.524 . S
C494 C508 1.377 . S
C495 C494 1.524 . S
C495 C496 1.397 . S
C495 C500 1.363 . S
C496 H473 0.950 . S
C496 C495 1.397 . S
C496 C497 1.334 . S
C497 H474 0.950 . S
C497 C496 1.334 . S
C497 C498 1.287 . S
C498 C497 1.287 . S
C498 C499 1.524 . S
C498 H517 0.913 . S
C499 H475 0.950 . S
C499 C498 1.524 . S
C499 C500 1.415 . S
C500 H476 0.950 . S
C500 C495 1.363 . S
C500 C499 1.415 . S
C501 H477 0.951 . S
C501 C502 1.366 . S
C501 C503 1.388 . S
C502 C501 1.366 . S
C502 C506 1.385 . S
C503 H478 0.951 . S
C503 C501 1.388 . S
C503 C504 1.366 . S
C504 C503 1.366 . S
C504 C505 1.414 . S
C504 C507 1.499 . S
C505 H479 0.950 . S
C505 C504 1.414 . S
C505 C506 1.374 . S
C506 H480 0.950 . S
C506 C502 1.385 . S
C506 C505 1.374 . S
C507 C504 1.499 . S
C507 C508 1.373 . S
C507 C509 1.389 . S
C508 H481 0.950 . S
C508 C494 1.377 . S
C508 C507 1.373 . S
C509 C493 1.377 . S
C509 C507 1.389 . S
C509 C510 1.524 . S
C510 C509 1.524 . S
C510 C511 1.397 . S
C510 C515 1.363 . S
C511 H482 0.950 . S
C511 C510 1.397 . S
C511 C512 1.334 . S
C512 H483 0.950 . S
C512 C511 1.334 . S
C512 C513 1.287 . S
C513 C512 1.287 . S
C513 C514 1.524 . S
C513 H516 0.999 . S
C514 H484 0.950 . S
C514 C513 1.524 . S
C514 C515 1.415 . S
C515 H485 0.950 . S
C515 C510 1.363 . S
C515 C514 1.415 . S
H516 C513 0.999 . S
H517 C498 0.913 . S
H518 C536 0.947 . S
H519 C538 0.951 . S
H520 C540 0.950 . S
H521 C541 0.950 . S
H522 C543 0.950 . S
H523 C546 0.950 1_455 S
H524 C547 0.950 . S
H525 C549 0.950 . S
H526 C550 0.950 . S
H527 C551 0.947 . S
H528 C553 0.951 . S
H529 C555 0.950 . S
H530 C556 0.950 . S
H531 C558 0.950 . S
H532 C561 0.950 1_655 S
H533 C562 0.950 . S
H534 C564 0.950 . S
H535 C565 0.950 . S
C536 H518 0.947 . S
C536 C537 1.368 1_655 S
C536 C538 1.389 . S
C537 C536 1.368 1_455 S
C537 C541 1.385 . S
C538 H519 0.951 . S
C538 C536 1.389 . S
C538 C539 1.366 1_655 S
C539 C538 1.366 1_455 S
C539 C540 1.414 . S
C539 C542 1.499 . S
C540 H520 0.950 . S
C540 C539 1.414 . S
C540 C541 1.374 . S
C541 H521 0.950 . S
C541 C537 1.385 . S
C541 C540 1.374 . S
C542 C539 1.499 . S
C542 C543 1.373 . S
C542 C544 1.389 1_455 S
C543 H522 0.950 . S
C543 C542 1.373 . S
C543 C559 1.377 . S
C544 C542 1.389 1_655 S
C544 C545 1.524 . S
C544 C558 1.377 . S
C545 C544 1.524 . S
C545 C546 1.397 . S
C545 C550 1.363 . S
C546 H523 0.950 1_655 S
C546 C545 1.397 . S
C546 C547 1.334 . S
C547 H524 0.950 . S
C547 C546 1.334 . S
C547 C548 1.287 . S
C548 C547 1.287 . S
C548 C549 1.524 . S
C548 H567 0.913 . S
C549 H525 0.950 . S
C549 C548 1.524 . S
C549 C550 1.415 . S
C550 H526 0.950 . S
C550 C545 1.363 . S
C550 C549 1.415 . S
C551 H527 0.947 . S
C551 C552 1.368 1_455 S
C551 C553 1.389 . S
C552 C551 1.368 1_655 S
C552 C556 1.385 . S
C553 H528 0.951 . S
C553 C551 1.389 . S
C553 C554 1.366 1_455 S
C554 C553 1.366 1_655 S
C554 C555 1.414 . S
C554 C557 1.499 . S
C555 H529 0.950 . S
C555 C554 1.414 . S
C555 C556 1.374 . S
C556 H530 0.950 . S
C556 C552 1.385 . S
C556 C555 1.374 . S
C557 C554 1.499 . S
C557 C558 1.373 . S
C557 C559 1.389 1_655 S
C558 H531 0.950 . S
C558 C544 1.377 . S
C558 C557 1.373 . S
C559 C543 1.377 . S
C559 C557 1.389 1_455 S
C559 C560 1.524 . S
C560 C559 1.524 . S
C560 C561 1.397 . S
C560 C565 1.363 . S
C561 H532 0.950 1_455 S
C561 C560 1.397 . S
C561 C562 1.334 . S
C562 H533 0.950 . S
C562 C561 1.334 . S
C562 C563 1.287 . S
C563 C562 1.287 . S
C563 C564 1.524 . S
C563 H566 0.999 . S
C564 H534 0.950 . S
C564 C563 1.524 . S
C564 C565 1.415 . S
C565 H535 0.950 . S
C565 C560 1.363 . S
C565 C564 1.415 . S
H566 C563 0.999 . S
H567 C548 0.913 . S
H568 C586 0.951 . S
H569 C588 0.951 . S
H570 C590 0.947 1_565 S
H571 C591 0.950 . S
H572 C593 0.950 . S
H573 C596 0.950 . S
H574 C597 0.950 . S
H575 C599 0.950 . S
H576 C600 0.950 . S
H577 C601 0.951 . S
H578 C603 0.951 . S
H579 C605 0.947 1_545 S
H580 C606 0.950 . S
H581 C608 0.950 . S
H582 C611 0.950 . S
H583 C612 0.950 . S
H584 C614 0.950 . S
H585 C615 0.950 . S
C586 H568 0.951 . S
C586 C587 1.366 . S
C586 C588 1.388 . S
C587 C586 1.366 . S
C587 C591 1.385 . S
C588 H569 0.951 . S
C588 C586 1.388 . S
C588 C589 1.366 . S
C589 C588 1.366 . S
C589 C590 1.414 . S
C589 C592 1.499 . S
C590 H570 0.947 1_545 S
C590 C589 1.414 . S
C590 C591 1.374 . S
C591 H571 0.950 . S
C591 C587 1.385 . S
C591 C590 1.374 . S
C592 C589 1.499 . S
C592 C593 1.373 1_545 S
C592 C594 1.389 . S
C593 H572 0.950 . S
C593 C592 1.373 1_565 S
C593 C609 1.377 . S
C594 C592 1.389 . S
C594 C595 1.524 . S
C594 C608 1.377 . S
C595 C594 1.524 . S
C595 C596 1.397 . S
C595 C600 1.363 . S
C596 H573 0.950 . S
C596 C595 1.397 . S
C596 C597 1.334 . S
C597 H574 0.950 . S
C597 C596 1.334 . S
C597 C598 1.287 . S
C598 C597 1.287 . S
C598 C599 1.524 . S
C598 H617 0.913 . S
C599 H575 0.950 . S
C599 C598 1.524 . S
C599 C600 1.415 . S
C600 H576 0.950 . S
C600 C595 1.363 . S
C600 C599 1.415 . S
C601 H577 0.951 . S
C601 C602 1.366 . S
C601 C603 1.388 . S
C602 C601 1.366 . S
C602 C606 1.385 . S
C603 H578 0.951 . S
C603 C601 1.388 . S
C603 C604 1.366 . S
C604 C603 1.366 . S
C604 C605 1.414 . S
C604 C607 1.499 . S
C605 H579 0.947 1_565 S
C605 C604 1.414 . S
C605 C606 1.374 . S
C606 H580 0.950 . S
C606 C602 1.385 . S
C606 C605 1.374 . S
C607 C604 1.499 . S
C607 C608 1.373 1_565 S
C607 C609 1.389 . S
C608 H581 0.950 . S
C608 C594 1.377 . S
C608 C607 1.373 1_545 S
C609 C593 1.377 . S
C609 C607 1.389 . S
C609 C610 1.524 . S
C610 C609 1.524 . S
C610 C611 1.397 . S
C610 C615 1.363 . S
C611 H582 0.950 . S
C611 C610 1.397 . S
C611 C612 1.334 . S
C612 H583 0.950 . S
C612 C611 1.334 . S
C612 C613 1.287 . S
C613 C612 1.287 . S
C613 C614 1.524 . S
C613 H616 0.999 . S
C614 H584 0.950 . S
C614 C613 1.524 . S
C614 C615 1.415 . S
C615 H585 0.950 . S
C615 C610 1.363 . S
C615 C614 1.415 . S
H616 C613 0.999 . S
H617 C598 0.913 . S
H618 C636 0.951 . S
H619 C638 0.951 . S
H620 C640 0.950 . S
H621 C641 0.950 . S
H622 C643 0.950 . S
H623 C646 0.950 . S
H624 C647 0.950 . S
H625 C649 0.950 . S
H626 C650 0.950 . S
H627 C651 0.951 . S
H628 C653 0.951 . S
H629 C655 0.950 . S
H630 C656 0.950 . S
H631 C658 0.950 . S
H632 C661 0.950 . S
H633 C662 0.950 . S
H634 C664 0.950 . S
H635 C665 0.950 . S
C636 H618 0.951 . S
C636 C637 1.366 . S
C636 C638 1.388 . S
C637 C636 1.366 . S
C637 C641 1.385 . S
C638 H619 0.951 . S
C638 C636 1.388 . S
C638 C639 1.366 . S
C639 C638 1.366 . S
C639 C640 1.414 . S
C639 C642 1.499 . S
C640 H620 0.950 . S
C640 C639 1.414 . S
C640 C641 1.374 . S
C641 H621 0.950 . S
C641 C637 1.385 . S
C641 C640 1.374 . S
C642 C639 1.499 . S
C642 C643 1.373 . S
C642 C644 1.389 . S
C643 H622 0.950 . S
C643 C642 1.373 . S
C643 C659 1.377 . S
C644 C642 1.389 . S
C644 C645 1.524 . S
C644 C658 1.377 . S
C645 C644 1.524 . S
C645 C646 1.397 . S
C645 C650 1.363 . S
C646 H623 0.950 . S
C646 C645 1.397 . S
C646 C647 1.334 . S
C647 H624 0.950 . S
C647 C646 1.334 . S
C647 C648 1.287 . S
C648 C647 1.287 . S
C648 C649 1.524 . S
C648 H667 0.913 . S
C649 H625 0.950 . S
C649 C648 1.524 . S
C649 C650 1.415 . S
C650 H626 0.950 . S
C650 C645 1.363 . S
C650 C649 1.415 . S
C651 H627 0.951 . S
C651 C652 1.366 . S
C651 C653 1.388 . S
C652 C651 1.366 . S
C652 C656 1.385 . S
C653 H628 0.951 . S
C653 C651 1.388 . S
C653 C654 1.366 . S
C654 C653 1.366 . S
C654 C655 1.414 . S
C654 C657 1.499 . S
C655 H629 0.950 . S
C655 C654 1.414 . S
C655 C656 1.374 . S
C656 H630 0.950 . S
C656 C652 1.385 . S
C656 C655 1.374 . S
C657 C654 1.499 . S
C657 C658 1.373 . S
C657 C659 1.389 . S
C658 H631 0.950 . S
C658 C644 1.377 . S
C658 C657 1.373 . S
C659 C643 1.377 . S
C659 C657 1.389 . S
C659 C660 1.524 . S
C660 C659 1.524 . S
C660 C661 1.397 . S
C660 C665 1.363 . S
C661 H632 0.950 . S
C661 C660 1.397 . S
C661 C662 1.334 . S
C662 H633 0.950 . S
C662 C661 1.334 . S
C662 C663 1.287 . S
C663 C662 1.287 . S
C663 C664 1.524 . S
C663 H666 0.999 . S
C664 H634 0.950 . S
C664 C663 1.524 . S
C664 C665 1.415 . S
C665 H635 0.950 . S
C665 C660 1.363 . S
C665 C664 1.415 . S
H666 C663 0.999 . S
H667 C648 0.913 . S
H668 C686 0.951 . S
H669 C688 0.951 . S
H670 C690 0.950 . S
H671 C691 0.950 1_455 S
H672 C693 0.956 . S
H673 C696 0.950 . S
H674 C697 0.950 . S
H675 C699 0.950 . S
H676 C700 0.950 . S
H677 C701 0.951 . S
H678 C703 0.951 . S
H679 C705 0.950 . S
H680 C706 0.950 1_655 S
H681 C708 0.956 . S
H682 C711 0.950 . S
H683 C712 0.950 . S
H684 C714 0.950 . S
H685 C715 0.950 . S
C686 H668 0.951 . S
C686 C687 1.366 . S
C686 C688 1.388 . S
C687 C686 1.366 . S
C687 C691 1.385 . S
C688 H669 0.951 . S
C688 C686 1.388 . S
C688 C689 1.366 . S
C689 C688 1.366 . S
C689 C690 1.414 1_655 S
C689 C692 1.499 . S
C690 H670 0.950 . S
C690 C689 1.414 1_455 S
C690 C691 1.374 1_455 S
C691 H671 0.950 1_655 S
C691 C687 1.385 . S
C691 C690 1.374 1_655 S
C692 C689 1.499 . S
C692 C693 1.369 1_655 S
C692 C694 1.389 . S
C693 H672 0.956 . S
C693 C692 1.369 1_455 S
C693 C709 1.384 . S
C694 C692 1.389 . S
C694 C695 1.524 . S
C694 C708 1.384 . S
C695 C694 1.524 . S
C695 C696 1.397 1_655 S
C695 C700 1.363 . S
C696 H673 0.950 . S
C696 C695 1.397 1_455 S
C696 C697 1.334 . S
C697 H674 0.950 . S
C697 C696 1.334 . S
C697 C698 1.287 1_455 S
C698 C697 1.287 1_655 S
C698 C699 1.524 . S
C698 H717 0.913 . S
C699 H675 0.950 . S
C699 C698 1.524 . S
C699 C700 1.415 . S
C700 H676 0.950 . S
C700 C695 1.363 . S
C700 C699 1.415 . S
C701 H677 0.951 . S
C701 C702 1.366 . S
C701 C703 1.388 . S
C702 C701 1.366 . S
C702 C706 1.385 . S
C703 H678 0.951 . S
C703 C701 1.388 . S
C703 C704 1.366 . S
C704 C703 1.366 . S
C704 C705 1.414 1_455 S
C704 C707 1.499 . S
C705 H679 0.950 . S
C705 C704 1.414 1_655 S
C705 C706 1.374 1_655 S
C706 H680 0.950 1_455 S
C706 C702 1.385 . S
C706 C705 1.374 1_455 S
C707 C704 1.499 . S
C707 C708 1.369 1_455 S
C707 C709 1.389 . S
C708 H681 0.956 . S
C708 C694 1.384 . S
C708 C707 1.369 1_655 S
C709 C693 1.384 . S
C709 C707 1.389 . S
C709 C710 1.524 . S
C710 C709 1.524 . S
C710 C711 1.397 1_455 S
C710 C715 1.363 . S
C711 H682 0.950 . S
C711 C710 1.397 1_655 S
C711 C712 1.334 . S
C712 H683 0.950 . S
C712 C711 1.334 . S
C712 C713 1.287 1_655 S
C713 C712 1.287 1_455 S
C713 C714 1.524 . S
C713 H716 0.999 . S
C714 H684 0.950 . S
C714 C713 1.524 . S
C714 C715 1.415 . S
C715 H685 0.950 . S
C715 C710 1.363 . S
C715 C714 1.415 . S
H716 C713 0.999 . S
H717 C698 0.913 . S
H718 C736 0.951 1_545 S
H719 C738 0.951 . S
H720 C740 0.950 . S
H721 C741 0.950 . S
H722 C743 0.950 . S
H723 C746 0.950 . S
H724 C747 0.950 . S
H725 C749 0.950 . S
H726 C750 0.950 . S
H727 C751 0.951 1_565 S
H728 C753 0.951 . S
H729 C755 0.950 . S
H730 C756 0.950 . S
H731 C758 0.950 . S
H732 C761 0.950 . S
H733 C762 0.950 . S
H734 C764 0.950 . S
H735 C765 0.950 . S
C736 H718 0.951 1_565 S
C736 C737 1.366 . S
C736 C738 1.388 1_565 S
C737 C736 1.366 . S
C737 C741 1.385 . S
C738 H719 0.951 . S
C738 C736 1.388 1_545 S
C738 C739 1.366 1_545 S
C739 C738 1.366 1_565 S
C739 C740 1.414 . S
C739 C742 1.499 . S
C740 H720 0.950 . S
C740 C739 1.414 . S
C740 C741 1.374 . S
C741 H721 0.950 . S
C741 C737 1.385 . S
C741 C740 1.374 . S
C742 C739 1.499 . S
C742 C743 1.373 . S
C742 C744 1.389 1_565 S
C743 H722 0.950 . S
C743 C742 1.373 . S
C743 C759 1.377 . S
C744 C742 1.389 1_545 S
C744 C745 1.524 . S
C744 C758 1.377 . S
C745 C744 1.524 . S
C745 C746 1.397 . S
C745 C750 1.363 . S
C746 H723 0.950 . S
C746 C745 1.397 . S
C746 C747 1.334 . S
C747 H724 0.950 . S
C747 C746 1.334 . S
C747 C748 1.287 . S
C748 C747 1.287 . S
C748 C749 1.524 . S
C748 H767 0.913 . S
C749 H725 0.950 . S
C749 C748 1.524 . S
C749 C750 1.415 . S
C750 H726 0.950 . S
C750 C745 1.363 . S
C750 C749 1.415 . S
C751 H727 0.951 1_545 S
C751 C752 1.366 . S
C751 C753 1.388 1_545 S
C752 C751 1.366 . S
C752 C756 1.385 . S
C753 H728 0.951 . S
C753 C751 1.388 1_565 S
C753 C754 1.366 1_565 S
C754 C753 1.366 1_545 S
C754 C755 1.414 . S
C754 C757 1.499 . S
C755 H729 0.950 . S
C755 C754 1.414 . S
C755 C756 1.374 . S
C756 H730 0.950 . S
C756 C752 1.385 . S
C756 C755 1.374 . S
C757 C754 1.499 . S
C757 C758 1.373 . S
C757 C759 1.389 1_545 S
C758 H731 0.950 . S
C758 C744 1.377 . S
C758 C757 1.373 . S
C759 C743 1.377 . S
C759 C757 1.389 1_565 S
C759 C760 1.524 . S
C760 C759 1.524 . S
C760 C761 1.397 . S
C760 C765 1.363 . S
C761 H732 0.950 . S
C761 C760 1.397 . S
C761 C762 1.334 . S
C762 H733 0.950 . S
C762 C761 1.334 . S
C762 C763 1.287 . S
C763 C762 1.287 . S
C763 C764 1.524 . S
C763 H766 0.999 . S
C764 H734 0.950 . S
C764 C763 1.524 . S
C764 C765 1.415 . S
C765 H735 0.950 . S
C765 C760 1.363 . S
C765 C764 1.415 . S
H766 C763 0.999 . S
H767 C748 0.913 . S
H768 C786 0.951 . S
H769 C788 0.951 . S
H770 C790 0.950 . S
H771 C791 0.950 1_565 S
H772 C793 0.950 . S
H773 C796 0.950 . S
H774 C797 0.950 . S
H775 C799 0.950 . S
H776 C800 0.950 . S
H777 C801 0.951 . S
H778 C803 0.951 . S
H779 C805 0.950 . S
H780 C806 0.950 . S
H781 C808 0.950 . S
H782 C811 0.950 . S
H783 C812 0.950 . S
H784 C814 0.950 . S
H785 C815 0.950 . S
C786 H768 0.951 . S
C786 C787 1.366 . S
C786 C788 1.388 . S
C787 C786 1.366 . S
C787 C791 1.385 . S
C788 H769 0.951 . S
C788 C786 1.388 . S
C788 C789 1.366 . S
C789 C788 1.366 . S
C789 C790 1.414 . S
C789 C792 1.499 . S
C790 H770 0.950 . S
C790 C789 1.414 . S
C790 C791 1.374 . S
C791 H771 0.950 1_545 S
C791 C787 1.385 . S
C791 C790 1.374 . S
C792 C789 1.499 . S
C792 C793 1.373 . S
C792 C794 1.389 . S
C793 H772 0.950 . S
C793 C792 1.373 . S
C793 C809 1.377 . S
C794 C792 1.389 . S
C794 C795 1.524 . S
C794 C808 1.377 . S
C795 C794 1.524 . S
C795 C796 1.397 . S
C795 C800 1.363 . S
C796 H773 0.950 . S
C796 C795 1.397 . S
C796 C797 1.334 . S
C797 H774 0.950 . S
C797 C796 1.334 . S
C797 C798 1.287 . S
C798 C797 1.287 . S
C798 C799 1.524 . S
C798 H817 0.913 . S
C799 H775 0.950 . S
C799 C798 1.524 . S
C799 C800 1.415 . S
C800 H776 0.950 . S
C800 C795 1.363 . S
C800 C799 1.415 . S
C801 H777 0.951 . S
C801 C802 1.366 . S
C801 C803 1.388 . S
C802 C801 1.366 . S
C802 C806 1.385 . S
C803 H778 0.951 . S
C803 C801 1.388 . S
C803 C804 1.366 . S
C804 C803 1.366 . S
C804 C805 1.414 . S
C804 C807 1.499 . S
C805 H779 0.950 . S
C805 C804 1.414 . S
C805 C806 1.374 . S
C806 H780 0.950 . S
C806 C802 1.385 . S
C806 C805 1.374 . S
C807 C804 1.499 . S
C807 C808 1.373 . S
C807 C809 1.389 . S
C808 H781 0.950 . S
C808 C794 1.377 . S
C808 C807 1.373 . S
C809 C793 1.377 . S
C809 C807 1.389 . S
C809 C810 1.524 . S
C810 C809 1.524 . S
C810 C811 1.397 . S
C810 C815 1.363 . S
C811 H782 0.950 . S
C811 C810 1.397 . S
C811 C812 1.334 . S
C812 H783 0.950 . S
C812 C811 1.334 . S
C812 C813 1.287 . S
C813 C812 1.287 . S
C813 C814 1.524 . S
C813 H816 0.999 . S
C814 H784 0.950 . S
C814 C813 1.524 . S
C814 C815 1.415 . S
C815 H785 0.950 . S
C815 C810 1.363 . S
C815 C814 1.415 . S
H816 C813 0.999 . S
H817 C798 0.913 . S
H818 C836 0.951 . S
H819 C838 0.951 . S
H820 C840 0.950 . S
H821 C841 0.950 . S
H822 C843 0.950 . S
H823 C846 0.950 . S
H824 C847 0.950 1_655 S
H825 C849 0.950 . S
H826 C850 0.950 . S
H827 C851 0.951 . S
H828 C853 0.951 . S
H829 C855 0.950 . S
H830 C856 0.950 . S
H831 C858 0.950 . S
H832 C861 0.950 . S
H833 C862 0.950 . S
H834 C864 0.950 . S
H835 C865 0.950 . S
C836 H818 0.951 . S
C836 C837 1.366 . S
C836 C838 1.388 . S
C837 C836 1.366 . S
C837 C841 1.385 . S
C838 H819 0.951 . S
C838 C836 1.388 . S
C838 C839 1.366 . S
C839 C838 1.366 . S
C839 C840 1.414 . S
C839 C842 1.499 . S
C840 H820 0.950 . S
C840 C839 1.414 . S
C840 C841 1.374 . S
C841 H821 0.950 . S
C841 C837 1.385 . S
C841 C840 1.374 . S
C842 C839 1.499 . S
C842 C843 1.373 . S
C842 C844 1.389 . S
C843 H822 0.950 . S
C843 C842 1.373 . S
C843 C859 1.377 . S
C844 C842 1.389 . S
C844 C845 1.524 . S
C844 C858 1.377 . S
C845 C844 1.524 . S
C845 C846 1.397 . S
C845 C850 1.363 . S
C846 H823 0.950 . S
C846 C845 1.397 . S
C846 C847 1.334 . S
C847 H824 0.950 1_455 S
C847 C846 1.334 . S
C847 C848 1.290 . S
C848 C847 1.290 . S
C848 C849 1.531 . S
C848 H867 0.899 1_455 S
C849 H825 0.950 . S
C849 C848 1.531 . S
C849 C850 1.415 . S
C850 H826 0.950 . S
C850 C845 1.363 . S
C850 C849 1.415 . S
C851 H827 0.951 . S
C851 C852 1.366 . S
C851 C853 1.388 . S
C852 C851 1.366 . S
C852 C856 1.385 . S
C853 H828 0.951 . S
C853 C851 1.388 . S
C853 C854 1.366 . S
C854 C853 1.366 . S
C854 C855 1.414 . S
C854 C857 1.499 . S
C855 H829 0.950 . S
C855 C854 1.414 . S
C855 C856 1.374 . S
C856 H830 0.950 . S
C856 C852 1.385 . S
C856 C855 1.374 . S
C857 C854 1.499 . S
C857 C858 1.373 . S
C857 C859 1.389 . S
C858 H831 0.950 . S
C858 C844 1.377 . S
C858 C857 1.373 . S
C859 C843 1.377 . S
C859 C857 1.389 . S
C859 C860 1.524 . S
C860 C859 1.524 . S
C860 C861 1.397 . S
C860 C865 1.363 . S
C861 H832 0.950 . S
C861 C860 1.397 . S
C861 C862 1.334 . S
C862 H833 0.950 . S
C862 C861 1.334 . S
C862 C863 1.287 . S
C863 C862 1.287 . S
C863 C864 1.524 . S
C863 H866 0.999 . S
C864 H834 0.950 . S
C864 C863 1.524 . S
C864 C865 1.415 . S
C865 H835 0.950 . S
C865 C860 1.363 . S
C865 C864 1.415 . S
H866 C863 0.999 . S
H867 C848 0.899 1_655 S
H868 C886 0.951 . S
H869 C888 0.951 . S
H870 C890 0.950 . S
H871 C891 0.950 1_455 S
H872 C893 0.950 . S
H873 C896 0.950 . S
H874 C897 0.950 . S
H875 C899 0.950 . S
H876 C900 0.950 . S
H877 C901 0.951 1_565 S
H878 C903 0.951 . S
H879 C905 0.950 . S
H880 C906 0.950 . S
H881 C908 0.950 . S
H882 C911 0.950 . S
H883 C912 0.950 . S
H884 C914 0.950 . S
H885 C915 0.950 . S
C886 H868 0.951 . S
C886 C887 1.366 . S
C886 C888 1.388 . S
C887 C886 1.366 . S
C887 C891 1.385 . S
C888 H869 0.951 . S
C888 C886 1.388 . S
C888 C889 1.366 . S
C889 C888 1.366 . S
C889 C890 1.414 . S
C889 C892 1.499 . S
C890 H870 0.950 . S
C890 C889 1.414 . S
C890 C891 1.374 . S
C891 H871 0.950 1_655 S
C891 C887 1.385 . S
C891 C890 1.374 . S
C892 C889 1.499 . S
C892 C893 1.373 . S
C892 C894 1.389 . S
C893 H872 0.950 . S
C893 C892 1.373 . S
C893 C909 1.377 . S
C894 C892 1.389 . S
C894 C895 1.524 . S
C894 C908 1.377 . S
C895 C894 1.524 . S
C895 C896 1.397 . S
C895 C900 1.363 . S
C896 H873 0.950 . S
C896 C895 1.397 . S
C896 C897 1.334 . S
C897 H874 0.950 . S
C897 C896 1.334 . S
C897 C898 1.287 . S
C898 C897 1.287 . S
C898 C899 1.524 . S
C898 H917 0.913 . S
C899 H875 0.950 . S
C899 C898 1.524 . S
C899 C900 1.415 . S
C900 H876 0.950 . S
C900 C895 1.363 . S
C900 C899 1.415 . S
C901 H877 0.951 1_545 S
C901 C902 1.366 . S
C901 C903 1.388 . S
C902 C901 1.366 . S
C902 C906 1.385 . S
C903 H878 0.951 . S
C903 C901 1.388 . S
C903 C904 1.366 . S
C904 C903 1.366 . S
C904 C905 1.414 . S
C904 C907 1.499 . S
C905 H879 0.950 . S
C905 C904 1.414 . S
C905 C906 1.374 . S
C906 H880 0.950 . S
C906 C902 1.385 . S
C906 C905 1.374 . S
C907 C904 1.499 . S
C907 C908 1.373 . S
C907 C909 1.389 . S
C908 H881 0.950 . S
C908 C894 1.377 . S
C908 C907 1.373 . S
C909 C893 1.377 . S
C909 C907 1.389 . S
C909 C910 1.524 . S
C910 C909 1.524 . S
C910 C911 1.397 . S
C910 C915 1.363 . S
C911 H882 0.950 . S
C911 C910 1.397 . S
C911 C912 1.334 . S
C912 H883 0.950 . S
C912 C911 1.334 . S
C912 C913 1.287 . S
C913 C912 1.287 . S
C913 C914 1.524 . S
C913 H916 0.999 1_545 S
C914 H884 0.950 . S
C914 C913 1.524 . S
C914 C915 1.415 . S
C915 H885 0.950 . S
C915 C910 1.363 . S
C915 C914 1.415 . S
H916 C913 0.999 1_565 S
H917 C898 0.913 . S
H918 C936 0.951 . S
H919 C938 0.951 . S
H920 C940 0.950 . S
H921 C941 0.950 1_545 S
H922 C943 0.950 . S
H923 C946 0.950 . S
H924 C947 0.950 . S
H925 C949 0.950 . S
H926 C950 0.950 . S
H927 C951 0.951 . S
H928 C953 0.951 . S
H929 C955 0.950 . S
H930 C956 0.950 . S
H931 C958 0.950 . S
H932 C961 0.950 . S
H933 C962 0.950 . S
H934 C964 0.950 . S
H935 C965 0.950 . S
C936 H918 0.951 . S
C936 C937 1.366 . S
C936 C938 1.388 . S
C937 C936 1.366 . S
C937 C941 1.385 . S
C938 H919 0.951 . S
C938 C936 1.388 . S
C938 C939 1.366 . S
C939 C938 1.366 . S
C939 C940 1.414 . S
C939 C942 1.499 . S
C940 H920 0.950 . S
C940 C939 1.414 . S
C940 C941 1.374 . S
C941 H921 0.950 1_565 S
C941 C937 1.385 . S
C941 C940 1.374 . S
C942 C939 1.499 . S
C942 C943 1.373 . S
C942 C944 1.389 . S
C943 H922 0.950 . S
C943 C942 1.373 . S
C943 C959 1.377 . S
C944 C942 1.389 . S
C944 C945 1.524 . S
C944 C958 1.377 . S
C945 C944 1.524 . S
C945 C946 1.397 . S
C945 C950 1.363 . S
C946 H923 0.950 . S
C946 C945 1.397 . S
C946 C947 1.334 . S
C947 H924 0.950 . S
C947 C946 1.334 . S
C947 C948 1.287 . S
C948 C947 1.287 . S
C948 C949 1.524 . S
C948 H967 0.913 . S
C949 H925 0.950 . S
C949 C948 1.524 . S
C949 C950 1.415 . S
C950 H926 0.950 . S
C950 C945 1.363 . S
C950 C949 1.415 . S
C951 H927 0.951 . S
C951 C952 1.366 . S
C951 C953 1.388 . S
C952 C951 1.366 . S
C952 C956 1.385 . S
C953 H928 0.951 . S
C953 C951 1.388 . S
C953 C954 1.366 . S
C954 C953 1.366 . S
C954 C955 1.414 . S
C954 C957 1.499 . S
C955 H929 0.950 . S
C955 C954 1.414 . S
C955 C956 1.374 . S
C956 H930 0.950 . S
C956 C952 1.385 . S
C956 C955 1.374 . S
C957 C954 1.499 . S
C957 C958 1.373 . S
C957 C959 1.389 . S
C958 H931 0.950 . S
C958 C944 1.377 . S
C958 C957 1.373 . S
C959 C943 1.377 . S
C959 C957 1.389 . S
C959 C960 1.524 . S
C960 C959 1.524 . S
C960 C961 1.397 . S
C960 C965 1.363 . S
C961 H932 0.950 . S
C961 C960 1.397 . S
C961 C962 1.334 . S
C962 H933 0.950 . S
C962 C961 1.334 . S
C962 C963 1.287 . S
C963 C962 1.287 . S
C963 C964 1.524 . S
C963 H966 0.999 . S
C964 H934 0.950 . S
C964 C963 1.524 . S
C964 C965 1.415 . S
C965 H935 0.950 . S
C965 C960 1.363 . S
C965 C964 1.415 . S
H966 C963 0.999 . S
H967 C948 0.913 . S
H968 C986 0.951 . S
H969 C988 0.951 . S
H970 C990 0.950 . S
H971 C991 0.950 . S
H972 C993 0.950 . S
H973 C996 0.950 . S
H974 C997 0.950 . S
H975 C999 0.950 . S
H976 C1000 0.950 . S
H977 C1001 0.951 . S
H978 C1003 0.951 . S
H979 C1005 0.950 . S
H980 C1006 0.950 1_455 S
H981 C1008 0.950 . S
H982 C1011 0.950 . S
H983 C1012 0.950 . S
H984 C1014 0.950 . S
H985 C1015 0.950 . S
C986 H968 0.951 . S
C986 C987 1.366 . S
C986 C988 1.388 . S
C987 C986 1.366 . S
C987 C991 1.385 . S
C988 H969 0.951 . S
C988 C986 1.388 . S
C988 C989 1.366 . S
C989 C988 1.366 . S
C989 C990 1.414 . S
C989 C992 1.499 . S
C990 H970 0.950 . S
C990 C989 1.414 . S
C990 C991 1.374 . S
C991 H971 0.950 . S
C991 C987 1.385 . S
C991 C990 1.374 . S
C992 C989 1.499 . S
C992 C993 1.373 . S
C992 C994 1.389 . S
C993 H972 0.950 . S
C993 C992 1.373 . S
C993 C1009 1.377 . S
C994 C992 1.389 . S
C994 C995 1.524 . S
C994 C1008 1.377 . S
C995 C994 1.524 . S
C995 C996 1.397 . S
C995 C1000 1.363 . S
C996 H973 0.950 . S
C996 C995 1.397 . S
C996 C997 1.334 . S
C997 H974 0.950 . S
C997 C996 1.334 . S
C997 C998 1.287 . S
C998 C997 1.287 . S
C998 C999 1.524 . S
C998 H1017 0.913 . S
C999 H975 0.950 . S
C999 C998 1.524 . S
C999 C1000 1.415 . S
C1000 H976 0.950 . S
C1000 C995 1.363 . S
C1000 C999 1.415 . S
C1001 H977 0.951 . S
C1001 C1002 1.366 . S
C1001 C1003 1.388 . S
C1002 C1001 1.366 . S
C1002 C1006 1.385 . S
C1003 H978 0.951 . S
C1003 C1001 1.388 . S
C1003 C1004 1.366 . S
C1004 C1003 1.366 . S
C1004 C1005 1.414 . S
C1004 C1007 1.499 . S
C1005 H979 0.950 . S
C1005 C1004 1.414 . S
C1005 C1006 1.374 . S
C1006 H980 0.950 1_655 S
C1006 C1002 1.385 . S
C1006 C1005 1.374 . S
C1007 C1004 1.499 . S
C1007 C1008 1.373 . S
C1007 C1009 1.389 . S
C1008 H981 0.950 . S
C1008 C994 1.377 . S
C1008 C1007 1.373 . S
C1009 C993 1.377 . S
C1009 C1007 1.389 . S
C1009 C1010 1.524 . S
C1010 C1009 1.524 . S
C1010 C1011 1.397 . S
C1010 C1015 1.363 . S
C1011 H982 0.950 . S
C1011 C1010 1.397 . S
C1011 C1012 1.334 . S
C1012 H983 0.950 . S
C1012 C1011 1.334 . S
C1012 C1013 1.287 . S
C1013 C1012 1.287 . S
C1013 C1014 1.524 . S
C1013 H1016 0.999 . S
C1014 H984 0.950 . S
C1014 C1013 1.524 . S
C1014 C1015 1.415 . S
C1015 H985 0.950 . S
C1015 C1010 1.363 . S
C1015 C1014 1.415 . S
H1016 C1013 0.999 . S
H1017 C998 0.913 . S
H1018 C1036 0.951 . S
H1019 C1038 0.951 . S
H1020 C1040 0.950 . S
H1021 C1041 0.950 . S
H1022 C1043 0.950 . S
H1023 C1046 0.950 . S
H1024 C1047 0.950 1_545 S
H1025 C1049 0.950 . S
H1026 C1050 0.950 . S
H1027 C1051 0.951 1_655 S
H1028 C1053 0.951 . S
H1029 C1055 0.950 . S
H1030 C1056 0.950 . S
H1031 C1058 0.950 . S
H1032 C1061 0.950 . S
H1033 C1062 0.950 . S
H1034 C1064 0.950 . S
H1035 C1065 0.950 . S
C1036 H1018 0.951 . S
C1036 C1037 1.366 . S
C1036 C1038 1.388 . S
C1037 C1036 1.366 . S
C1037 C1041 1.385 . S
C1038 H1019 0.951 . S
C1038 C1036 1.388 . S
C1038 C1039 1.366 . S
C1039 C1038 1.366 . S
C1039 C1040 1.414 . S
C1039 C1042 1.499 . S
C1040 H1020 0.950 . S
C1040 C1039 1.414 . S
C1040 C1041 1.374 . S
C1041 H1021 0.950 . S
C1041 C1037 1.385 . S
C1041 C1040 1.374 . S
C1042 C1039 1.499 . S
C1042 C1043 1.373 . S
C1042 C1044 1.389 . S
C1043 H1022 0.950 . S
C1043 C1042 1.373 . S
C1043 C1059 1.377 . S
C1044 C1042 1.389 . S
C1044 C1045 1.524 . S
C1044 C1058 1.377 . S
C1045 C1044 1.524 . S
C1045 C1046 1.397 . S
C1045 C1050 1.363 . S
C1046 H1023 0.950 . S
C1046 C1045 1.397 . S
C1046 C1047 1.334 . S
C1047 H1024 0.950 1_565 S
C1047 C1046 1.334 . S
C1047 C1048 1.287 . S
C1048 C1047 1.287 . S
C1048 C1049 1.524 . S
C1048 H1067 0.913 . S
C1049 H1025 0.950 . S
C1049 C1048 1.524 . S
C1049 C1050 1.415 . S
C1050 H1026 0.950 . S
C1050 C1045 1.363 . S
C1050 C1049 1.415 . S
C1051 H1027 0.951 1_455 S
C1051 C1052 1.366 . S
C1051 C1053 1.388 . S
C1052 C1051 1.366 . S
C1052 C1056 1.385 . S
C1053 H1028 0.951 . S
C1053 C1051 1.388 . S
C1053 C1054 1.366 . S
C1054 C1053 1.366 . S
C1054 C1055 1.414 . S
C1054 C1057 1.499 . S
C1055 H1029 0.950 . S
C1055 C1054 1.414 . S
C1055 C1056 1.374 . S
C1056 H1030 0.950 . S
C1056 C1052 1.385 . S
C1056 C1055 1.374 . S
C1057 C1054 1.499 . S
C1057 C1058 1.373 . S
C1057 C1059 1.389 . S
C1058 H1031 0.950 . S
C1058 C1044 1.377 . S
C1058 C1057 1.373 . S
C1059 C1043 1.377 . S
C1059 C1057 1.389 . S
C1059 C1060 1.524 . S
C1060 C1059 1.524 . S
C1060 C1061 1.397 . S
C1060 C1065 1.363 . S
C1061 H1032 0.950 . S
C1061 C1060 1.397 . S
C1061 C1062 1.334 . S
C1062 H1033 0.950 . S
C1062 C1061 1.334 . S
C1062 C1063 1.287 . S
C1063 C1062 1.287 . S
C1063 C1064 1.524 . S
C1063 H1066 0.999 . S
C1064 H1034 0.950 . S
C1064 C1063 1.524 . S
C1064 C1065 1.415 . S
C1065 H1035 0.950 . S
C1065 C1060 1.363 . S
C1065 C1064 1.415 . S
H1066 C1063 0.999 . S
H1067 C1048 0.913 . S
H1068 C1086 0.951 . S
H1069 C1088 0.951 . S
H1070 C1090 0.950 . S
H1071 C1091 0.950 . S
H1072 C1093 0.950 . S
H1073 C1096 0.950 . S
H1074 C1097 0.950 . S
H1075 C1099 0.950 . S
H1076 C1100 0.950 . S
H1077 C1101 0.951 . S
H1078 C1103 0.951 . S
H1079 C1105 0.950 . S
H1080 C1106 0.950 . S
H1081 C1108 0.950 . S
H1082 C1111 0.950 . S
H1083 C1112 0.950 . S
H1084 C1114 0.950 . S
H1085 C1115 0.950 . S
C1086 H1068 0.951 . S
C1086 C1087 1.366 . S
C1086 C1088 1.388 . S
C1087 C1086 1.366 . S
C1087 C1091 1.385 . S
C1088 H1069 0.951 . S
C1088 C1086 1.388 . S
C1088 C1089 1.366 . S
C1089 C1088 1.366 . S
C1089 C1090 1.414 . S
C1089 C1092 1.499 . S
C1090 H1070 0.950 . S
C1090 C1089 1.414 . S
C1090 C1091 1.374 . S
C1091 H1071 0.950 . S
C1091 C1087 1.385 . S
C1091 C1090 1.374 . S
C1092 C1089 1.499 . S
C1092 C1093 1.373 . S
C1092 C1094 1.389 . S
C1093 H1072 0.950 . S
C1093 C1092 1.373 . S
C1093 C1109 1.377 . S
C1094 C1092 1.389 . S
C1094 C1095 1.524 . S
C1094 C1108 1.377 . S
C1095 C1094 1.524 . S
C1095 C1096 1.397 . S
C1095 C1100 1.363 . S
C1096 H1073 0.950 . S
C1096 C1095 1.397 . S
C1096 C1097 1.334 . S
C1097 H1074 0.950 . S
C1097 C1096 1.334 . S
C1097 C1098 1.287 . S
C1098 C1097 1.287 . S
C1098 C1099 1.524 . S
C1098 H1117 0.913 . S
C1099 H1075 0.950 . S
C1099 C1098 1.524 . S
C1099 C1100 1.415 . S
C1100 H1076 0.950 . S
C1100 C1095 1.363 . S
C1100 C1099 1.415 . S
C1101 H1077 0.951 . S
C1101 C1102 1.366 . S
C1101 C1103 1.388 . S
C1102 C1101 1.366 . S
C1102 C1106 1.385 . S
C1103 H1078 0.951 . S
C1103 C1101 1.388 . S
C1103 C1104 1.366 . S
C1104 C1103 1.366 . S
C1104 C1105 1.414 . S
C1104 C1107 1.499 . S
C1105 H1079 0.950 . S
C1105 C1104 1.414 . S
C1105 C1106 1.374 . S
C1106 H1080 0.950 . S
C1106 C1102 1.385 . S
C1106 C1105 1.374 . S
C1107 C1104 1.499 . S
C1107 C1108 1.373 . S
C1107 C1109 1.389 . S
C1108 H1081 0.950 . S
C1108 C1094 1.377 . S
C1108 C1107 1.373 . S
C1109 C1093 1.377 . S
C1109 C1107 1.389 . S
C1109 C1110 1.524 . S
C1110 C1109 1.524 . S
C1110 C1111 1.397 . S
C1110 C1115 1.363 . S
C1111 H1082 0.950 . S
C1111 C1110 1.397 . S
C1111 C1112 1.334 . S
C1112 H1083 0.950 . S
C1112 C1111 1.334 . S
C1112 C1113 1.287 . S
C1113 C1112 1.287 . S
C1113 C1114 1.524 . S
C1113 H1116 0.999 . S
C1114 H1084 0.950 . S
C1114 C1113 1.524 . S
C1114 C1115 1.415 . S
C1115 H1085 0.950 . S
C1115 C1110 1.363 . S
C1115 C1114 1.415 . S
H1116 C1113 0.999 . S
H1117 C1098 0.913 . S
H1118 C1136 0.951 . S
H1119 C1138 0.951 . S
H1120 C1140 0.950 . S
H1121 C1141 0.950 . S
H1122 C1143 0.950 . S
H1123 C1146 0.950 . S
H1124 C1147 0.950 . S
H1125 C1149 0.950 . S
H1126 C1150 0.950 . S
H1127 C1151 0.951 . S
H1128 C1153 0.951 . S
H1129 C1155 0.950 . S
H1130 C1156 0.950 . S
H1131 C1158 0.950 . S
H1132 C1161 0.950 . S
H1133 C1162 0.950 . S
H1134 C1164 0.950 . S
H1135 C1165 0.950 . S
C1136 H1118 0.951 . S
C1136 C1137 1.366 . S
C1136 C1138 1.388 . S
C1137 C1136 1.366 . S
C1137 C1141 1.385 . S
C1138 H1119 0.951 . S
C1138 C1136 1.388 . S
C1138 C1139 1.366 . S
C1139 C1138 1.366 . S
C1139 C1140 1.414 . S
C1139 C1142 1.499 . S
C1140 H1120 0.950 . S
C1140 C1139 1.414 . S
C1140 C1141 1.374 . S
C1141 H1121 0.950 . S
C1141 C1137 1.385 . S
C1141 C1140 1.374 . S
C1142 C1139 1.499 . S
C1142 C1143 1.373 1_655 S
C1142 C1144 1.389 . S
C1143 H1122 0.950 . S
C1143 C1142 1.373 1_455 S
C1143 C1159 1.377 . S
C1144 C1142 1.389 . S
C1144 C1145 1.524 . S
C1144 C1158 1.377 . S
C1145 C1144 1.524 . S
C1145 C1146 1.397 . S
C1145 C1150 1.363 . S
C1146 H1123 0.950 . S
C1146 C1145 1.397 . S
C1146 C1147 1.334 . S
C1147 H1124 0.950 . S
C1147 C1146 1.334 . S
C1147 C1148 1.287 . S
C1148 C1147 1.287 . S
C1148 C1149 1.524 . S
C1148 H1167 0.913 . S
C1149 H1125 0.950 . S
C1149 C1148 1.524 . S
C1149 C1150 1.415 . S
C1150 H1126 0.950 . S
C1150 C1145 1.363 . S
C1150 C1149 1.415 . S
C1151 H1127 0.951 . S
C1151 C1152 1.366 . S
C1151 C1153 1.388 . S
C1152 C1151 1.366 . S
C1152 C1156 1.385 . S
C1153 H1128 0.951 . S
C1153 C1151 1.388 . S
C1153 C1154 1.366 . S
C1154 C1153 1.366 . S
C1154 C1155 1.414 . S
C1154 C1157 1.499 . S
C1155 H1129 0.950 . S
C1155 C1154 1.414 . S
C1155 C1156 1.374 . S
C1156 H1130 0.950 . S
C1156 C1152 1.385 . S
C1156 C1155 1.374 . S
C1157 C1154 1.499 . S
C1157 C1158 1.373 1_455 S
C1157 C1159 1.389 . S
C1158 H1131 0.950 . S
C1158 C1144 1.377 . S
C1158 C1157 1.373 1_655 S
C1159 C1143 1.377 . S
C1159 C1157 1.389 . S
C1159 C1160 1.524 . S
C1160 C1159 1.524 . S
C1160 C1161 1.397 . S
C1160 C1165 1.363 . S
C1161 H1132 0.950 . S
C1161 C1160 1.397 . S
C1161 C1162 1.334 . S
C1162 H1133 0.950 . S
C1162 C1161 1.334 . S
C1162 C1163 1.287 . S
C1163 C1162 1.287 . S
C1163 C1164 1.524 . S
C1163 H1166 0.999 . S
C1164 H1134 0.950 . S
C1164 C1163 1.524 . S
C1164 C1165 1.415 . S
C1165 H1135 0.950 . S
C1165 C1160 1.363 . S
C1165 C1164 1.415 . S
H1166 C1163 0.999 . S
H1167 C1148 0.913 . S
H1168 C1186 0.951 . S
H1169 C1188 0.951 . S
H1170 C1190 0.950 . S
H1171 C1191 0.950 1_565 S
H1172 C1193 0.950 . S
H1173 C1196 0.950 . S
H1174 C1197 0.950 . S
H1175 C1199 0.950 1_556 S
H1176 C1200 0.934 1_556 S
H1177 C1201 0.951 . S
H1178 C1203 0.951 . S
H1179 C1205 0.950 . S
H1180 C1206 0.950 1_545 S
H1181 C1208 0.950 . S
H1182 C1211 0.950 . S
H1183 C1212 0.950 . S
H1184 C1214 0.950 1_554 S
H1185 C1215 0.934 1_554 S
C1186 H1168 0.951 . S
C1186 C1187 1.366 . S
C1186 C1188 1.388 . S
C1187 C1186 1.366 . S
C1187 C1191 1.385 . S
C1188 H1169 0.951 . S
C1188 C1186 1.388 . S
C1188 C1189 1.366 . S
C1189 C1188 1.366 . S
C1189 C1190 1.414 1_545 S
C1189 C1192 1.499 . S
C1190 H1170 0.950 . S
C1190 C1189 1.414 1_565 S
C1190 C1191 1.374 1_565 S
C1191 H1171 0.950 1_545 S
C1191 C1187 1.385 . S
C1191 C1190 1.374 1_545 S
C1192 C1189 1.499 . S
C1192 C1193 1.373 1_545 S
C1192 C1194 1.389 . S
C1193 H1172 0.950 . S
C1193 C1192 1.373 1_565 S
C1193 C1209 1.377 1_554 S
C1194 C1192 1.389 . S
C1194 C1195 1.524 . S
C1194 C1208 1.377 1_554 S
C1195 C1194 1.524 . S
C1195 C1196 1.397 . S
C1195 C1200 1.374 . S
C1196 H1173 0.950 . S
C1196 C1195 1.397 . S
C1196 C1197 1.334 . S
C1197 H1174 0.950 . S
C1197 C1196 1.334 . S
C1197 C1198 1.287 . S
C1198 C1197 1.287 . S
C1198 C1199 1.524 . S
C1198 H1217 0.913 . S
C1199 H1175 0.950 1_554 S
C1199 C1198 1.524 . S
C1199 C1200 1.419 . S
C1200 H1176 0.934 1_554 S
C1200 C1195 1.374 . S
C1200 C1199 1.419 . S
C1201 H1177 0.951 . S
C1201 C1202 1.366 . S
C1201 C1203 1.388 . S
C1202 C1201 1.366 . S
C1202 C1206 1.385 . S
C1203 H1178 0.951 . S
C1203 C1201 1.388 . S
C1203 C1204 1.366 . S
C1204 C1203 1.366 . S
C1204 C1205 1.414 1_565 S
C1204 C1207 1.499 . S
C1205 H1179 0.950 . S
C1205 C1204 1.414 1_545 S
C1205 C1206 1.374 1_545 S
C1206 H1180 0.950 1_565 S
C1206 C1202 1.385 . S
C1206 C1205 1.374 1_565 S
C1207 C1204 1.499 . S
C1207 C1208 1.373 1_565 S
C1207 C1209 1.389 . S
C1208 H1181 0.950 . S
C1208 C1194 1.377 1_556 S
C1208 C1207 1.373 1_545 S
C1209 C1193 1.377 1_556 S
C1209 C1207 1.389 . S
C1209 C1210 1.524 . S
C1210 C1209 1.524 . S
C1210 C1211 1.397 . S
C1210 C1215 1.375 . S
C1211 H1182 0.950 . S
C1211 C1210 1.397 . S
C1211 C1212 1.334 . S
C1212 H1183 0.950 . S
C1212 C1211 1.334 . S
C1212 C1213 1.287 . S
C1213 C1212 1.287 . S
C1213 C1214 1.524 . S
C1213 H1216 0.999 . S
C1214 H1184 0.950 1_556 S
C1214 C1213 1.524 . S
C1214 C1215 1.419 . S
C1215 H1185 0.934 1_556 S
C1215 C1210 1.375 . S
C1215 C1214 1.419 . S
H1216 C1213 0.999 . S
H1217 C1198 0.913 . S
H1218 C1236 0.951 . S
H1219 C1238 0.951 . S
H1220 C1240 0.950 . S
H1221 C1241 0.950 . S
H1222 C1243 0.950 . S
H1223 C1246 0.950 . S
H1224 C1247 0.950 . S
H1225 C1249 0.950 . S
H1226 C1250 0.950 . S
H1227 C1251 0.951 . S
H1228 C1253 0.951 . S
H1229 C1255 0.950 . S
H1230 C1256 0.950 . S
H1231 C1258 0.950 . S
H1232 C1261 0.950 . S
H1233 C1262 0.950 . S
H1234 C1264 0.950 . S
H1235 C1265 0.950 . S
C1236 H1218 0.951 . S
C1236 C1237 1.366 . S
C1236 C1238 1.388 . S
C1237 C1236 1.366 . S
C1237 C1241 1.385 . S
C1238 H1219 0.951 . S
C1238 C1236 1.388 . S
C1238 C1239 1.366 . S
C1239 C1238 1.366 . S
C1239 C1240 1.414 . S
C1239 C1242 1.499 . S
C1240 H1220 0.950 . S
C1240 C1239 1.414 . S
C1240 C1241 1.374 . S
C1241 H1221 0.950 . S
C1241 C1237 1.385 . S
C1241 C1240 1.374 . S
C1242 C1239 1.499 . S
C1242 C1243 1.373 . S
C1242 C1244 1.389 . S
C1243 H1222 0.950 . S
C1243 C1242 1.373 . S
C1243 C1259 1.377 . S
C1244 C1242 1.389 . S
C1244 C1245 1.524 . S
C1244 C1258 1.377 . S
C1245 C1244 1.524 . S
C1245 C1246 1.397 . S
C1245 C1250 1.363 . S
C1246 H1223 0.950 . S
C1246 C1245 1.397 . S
C1246 C1247 1.334 . S
C1247 H1224 0.950 . S
C1247 C1246 1.334 . S
C1247 C1248 1.287 . S
C1248 C1247 1.287 . S
C1248 C1249 1.524 . S
C1248 H1267 0.913 . S
C1249 H1225 0.950 . S
C1249 C1248 1.524 . S
C1249 C1250 1.415 . S
C1250 H1226 0.950 . S
C1250 C1245 1.363 . S
C1250 C1249 1.415 . S
C1251 H1227 0.951 . S
C1251 C1252 1.366 . S
C1251 C1253 1.388 . S
C1252 C1251 1.366 . S
C1252 C1256 1.385 . S
C1253 H1228 0.951 . S
C1253 C1251 1.388 . S
C1253 C1254 1.366 . S
C1254 C1253 1.366 . S
C1254 C1255 1.414 . S
C1254 C1257 1.499 . S
C1255 H1229 0.950 . S
C1255 C1254 1.414 . S
C1255 C1256 1.374 . S
C1256 H1230 0.950 . S
C1256 C1252 1.385 . S
C1256 C1255 1.374 . S
C1257 C1254 1.499 . S
C1257 C1258 1.373 . S
C1257 C1259 1.389 . S
C1258 H1231 0.950 . S
C1258 C1244 1.377 . S
C1258 C1257 1.373 . S
C1259 C1243 1.377 . S
C1259 C1257 1.389 . S
C1259 C1260 1.524 . S
C1260 C1259 1.524 . S
C1260 C1261 1.397 . S
C1260 C1265 1.363 . S
C1261 H1232 0.950 . S
C1261 C1260 1.397 . S
C1261 C1262 1.334 . S
C1262 H1233 0.950 . S
C1262 C1261 1.334 . S
C1262 C1263 1.287 . S
C1263 C1262 1.287 . S
C1263 C1264 1.524 . S
C1263 H1266 0.999 . S
C1264 H1234 0.950 . S
C1264 C1263 1.524 . S
C1264 C1265 1.415 . S
C1265 H1235 0.950 . S
C1265 C1260 1.363 . S
C1265 C1264 1.415 . S
H1266 C1263 0.999 . S
H1267 C1248 0.913 . S
H1268 C1286 0.951 . S
H1269 C1288 0.951 . S
H1270 C1290 0.950 . S
H1271 C1291 0.950 . S
H1272 C1293 0.950 . S
H1273 C1296 0.950 . S
H1274 C1297 0.950 . S
H1275 C1299 0.950 . S
H1276 C1300 0.950 . S
H1277 C1301 0.951 . S
H1278 C1303 0.951 . S
H1279 C1305 0.950 . S
H1280 C1306 0.950 . S
H1281 C1308 0.950 . S
H1282 C1311 0.950 . S
H1283 C1312 0.950 . S
H1284 C1314 0.950 . S
H1285 C1315 0.950 . S
C1286 H1268 0.951 . S
C1286 C1287 1.366 . S
C1286 C1288 1.388 . S
C1287 C1286 1.366 . S
C1287 C1291 1.385 . S
C1288 H1269 0.951 . S
C1288 C1286 1.388 . S
C1288 C1289 1.366 . S
C1289 C1288 1.366 . S
C1289 C1290 1.414 . S
C1289 C1292 1.499 . S
C1290 H1270 0.950 . S
C1290 C1289 1.414 . S
C1290 C1291 1.374 . S
C1291 H1271 0.950 . S
C1291 C1287 1.385 . S
C1291 C1290 1.374 . S
C1292 C1289 1.499 . S
C1292 C1293 1.373 . S
C1292 C1294 1.389 1_455 S
C1293 H1272 0.950 . S
C1293 C1292 1.373 . S
C1293 C1309 1.377 . S
C1294 C1292 1.389 1_655 S
C1294 C1295 1.524 . S
C1294 C1308 1.377 . S
C1295 C1294 1.524 . S
C1295 C1296 1.397 . S
C1295 C1300 1.363 . S
C1296 H1273 0.950 . S
C1296 C1295 1.397 . S
C1296 C1297 1.334 . S
C1297 H1274 0.950 . S
C1297 C1296 1.334 . S
C1297 C1298 1.287 . S
C1298 C1297 1.287 . S
C1298 C1299 1.524 . S
C1298 H1317 0.913 . S
C1299 H1275 0.950 . S
C1299 C1298 1.524 . S
C1299 C1300 1.415 . S
C1300 H1276 0.950 . S
C1300 C1295 1.363 . S
C1300 C1299 1.415 . S
C1301 H1277 0.951 . S
C1301 C1302 1.366 . S
C1301 C1303 1.388 . S
C1302 C1301 1.366 . S
C1302 C1306 1.385 . S
C1303 H1278 0.951 . S
C1303 C1301 1.388 . S
C1303 C1304 1.366 . S
C1304 C1303 1.366 . S
C1304 C1305 1.414 . S
C1304 C1307 1.499 . S
C1305 H1279 0.950 . S
C1305 C1304 1.414 . S
C1305 C1306 1.374 . S
C1306 H1280 0.950 . S
C1306 C1302 1.385 . S
C1306 C1305 1.374 . S
C1307 C1304 1.499 . S
C1307 C1308 1.373 . S
C1307 C1309 1.389 1_655 S
C1308 H1281 0.950 . S
C1308 C1294 1.377 . S
C1308 C1307 1.373 . S
C1309 C1293 1.377 . S
C1309 C1307 1.389 1_455 S
C1309 C1310 1.524 . S
C1310 C1309 1.524 . S
C1310 C1311 1.397 . S
C1310 C1315 1.363 . S
C1311 H1282 0.950 . S
C1311 C1310 1.397 . S
C1311 C1312 1.334 . S
C1312 H1283 0.950 . S
C1312 C1311 1.334 . S
C1312 C1313 1.287 . S
C1313 C1312 1.287 . S
C1313 C1314 1.524 . S
C1313 H1316 0.999 . S
C1314 H1284 0.950 . S
C1314 C1313 1.524 . S
C1314 C1315 1.415 . S
C1315 H1285 0.950 . S
C1315 C1310 1.363 . S
C1315 C1314 1.415 . S
H1316 C1313 0.999 . S
H1317 C1298 0.913 . S
H1318 C1336 0.951 1_545 S
H1319 C1338 0.951 . S
H1320 C1340 0.950 . S
H1321 C1341 0.950 . S
H1322 C1343 0.950 . S
H1323 C1346 0.950 1_565 S
H1324 C1347 0.950 . S
H1325 C1349 0.950 . S
H1326 C1350 0.950 . S
H1327 C1351 0.951 1_565 S
H1328 C1353 0.951 . S
H1329 C1355 0.950 . S
H1330 C1356 0.950 . S
H1331 C1358 0.950 . S
H1332 C1361 0.950 1_545 S
H1333 C1362 0.950 . S
H1334 C1364 0.950 . S
H1335 C1365 0.950 . S
C1336 H1318 0.951 1_565 S
C1336 C1337 1.366 . S
C1336 C1338 1.388 1_565 S
C1337 C1336 1.366 . S
C1337 C1341 1.385 . S
C1338 H1319 0.951 . S
C1338 C1336 1.388 1_545 S
C1338 C1339 1.366 1_545 S
C1339 C1338 1.366 1_565 S
C1339 C1340 1.414 . S
C1339 C1342 1.499 . S
C1340 H1320 0.950 . S
C1340 C1339 1.414 . S
C1340 C1341 1.374 . S
C1341 H1321 0.950 . S
C1341 C1337 1.385 . S
C1341 C1340 1.374 . S
C1342 C1339 1.499 . S
C1342 C1343 1.373 . S
C1342 C1344 1.389 1_565 S
C1343 H1322 0.950 . S
C1343 C1342 1.373 . S
C1343 C1359 1.377 1_554 S
C1344 C1342 1.389 1_545 S
C1344 C1345 1.524 . S
C1344 C1358 1.377 1_554 S
C1345 C1344 1.524 . S
C1345 C1346 1.397 . S
C1345 C1350 1.363 . S
C1346 H1323 0.950 1_545 S
C1346 C1345 1.397 . S
C1346 C1347 1.334 . S
C1347 H1324 0.950 . S
C1347 C1346 1.334 . S
C1347 C1348 1.287 . S
C1348 C1347 1.287 . S
C1348 C1349 1.524 . S
C1348 H1367 0.913 . S
C1349 H1325 0.950 . S
C1349 C1348 1.524 . S
C1349 C1350 1.415 . S
C1350 H1326 0.950 . S
C1350 C1345 1.363 . S
C1350 C1349 1.415 . S
C1351 H1327 0.951 1_545 S
C1351 C1352 1.366 . S
C1351 C1353 1.388 1_545 S
C1352 C1351 1.366 . S
C1352 C1356 1.385 . S
C1353 H1328 0.951 . S
C1353 C1351 1.388 1_565 S
C1353 C1354 1.366 1_565 S
C1354 C1353 1.366 1_545 S
C1354 C1355 1.414 . S
C1354 C1357 1.499 . S
C1355 H1329 0.950 . S
C1355 C1354 1.414 . S
C1355 C1356 1.374 . S
C1356 H1330 0.950 . S
C1356 C1352 1.385 . S
C1356 C1355 1.374 . S
C1357 C1354 1.499 . S
C1357 C1358 1.373 . S
C1357 C1359 1.389 1_545 S
C1358 H1331 0.950 . S
C1358 C1344 1.377 1_556 S
C1358 C1357 1.373 . S
C1359 C1343 1.377 1_556 S
C1359 C1357 1.389 1_565 S
C1359 C1360 1.524 . S
C1360 C1359 1.524 . S
C1360 C1361 1.397 . S
C1360 C1365 1.363 . S
C1361 H1332 0.950 1_565 S
C1361 C1360 1.397 . S
C1361 C1362 1.334 . S
C1362 H1333 0.950 . S
C1362 C1361 1.334 . S
C1362 C1363 1.287 . S
C1363 C1362 1.287 . S
C1363 C1364 1.524 . S
C1363 H1366 0.999 . S
C1364 H1334 0.950 . S
C1364 C1363 1.524 . S
C1364 C1365 1.415 . S
C1365 H1335 0.950 . S
C1365 C1360 1.363 . S
C1365 C1364 1.415 . S
H1366 C1363 0.999 . S
H1367 C1348 0.913 . S
C187 C162 1.717 . S
C202 C8 1.717 . S
C237 C22 1.717 . S
C252 C92 1.717 . S
C287 C36 1.718 . S
C302 C106 1.717 . S
C337 C50 1.717 . S
C352 C120 1.717 . S
C387 C134 1.717 . S
C402 C64 1.717 . S
C437 C78 1.718 . S
C452 C148 1.718 . S
C487 C51 1.131 . S
C502 C9 1.131 . S
C537 C65 1.132 . S
C552 C23 1.131 . S
C587 C79 1.131 . S
C602 C37 1.131 . S
C637 C93 1.132 . S
C652 C135 1.131 . S
C687 C107 1.131 . S
C702 C149 1.132 . S
C737 C121 1.132 . S
C752 C163 1.131 . S
C787 C119 0.349 . S
C802 C7 0.349 . S
C837 C21 0.349 . S
C852 C133 0.351 . S
C887 C147 0.349 . S
C902 C35 0.349 . S
C937 C161 0.349 . S
C952 C49 0.349 . S
C987 C91 0.353 . S
C1002 C63 0.351 . S
C1037 C77 0.349 . S
C1052 C105 0.350 . S
C1087 C129 1.662 . S
C1102 C3 1.662 . S
C1137 C17 1.662 . S
C1152 C143 1.662 . S
C1187 C157 1.662 . S
C1202 C31 1.662 . S
C1237 C45 1.662 . S
C1252 C87 1.662 . S
C1287 C59 1.663 . S
C1302 C101 1.662 . S
C1337 C115 1.662 . S
C1352 C73 1.662 . S
