# Generated by pormake.
# Topology wiv, (6)-cn, num edge types: 1
# Building blocks:
#     Node 0, Type 0, BuildingBlock: PAMTOO_clean_sbu_0, # of connection points: 6
#     Node 1, Type 0, BuildingBlock: PAMTOO_clean_sbu_0, # of connection points: 6
#     Node 2, Type 0, BuildingBlock: PAMTOO_clean_sbu_0, # of connection points: 6
#     Node 3, Type 0, BuildingBlock: PAMTOO_clean_sbu_0, # of connection points: 6
#     Node 4, Type 0, BuildingBlock: PAMTOO_clean_sbu_0, # of connection points: 6
#     Node 5, Type 0, BuildingBlock: PAMTOO_clean_sbu_0, # of connection points: 6
#     Node 6, Type 0, BuildingBlock: PAMTOO_clean_sbu_0, # of connection points: 6
#     Node 7, Type 0, BuildingBlock: PAMTOO_clean_sbu_0, # of connection points: 6
#     Node 8, Type 0, BuildingBlock: PAMTOO_clean_sbu_0, # of connection points: 6
#     Node 9, Type 0, BuildingBlock: PAMTOO_clean_sbu_0, # of connection points: 6
#     Node 10, Type 0, BuildingBlock: PAMTOO_clean_sbu_0, # of connection points: 6
#     Node 11, Type 0, BuildingBlock: PAMTOO_clean_sbu_0, # of connection points: 6
#     Node 12, Type 0, BuildingBlock: PAMTOO_clean_sbu_0, # of connection points: 6
#     Node 13, Type 0, BuildingBlock: PAMTOO_clean_sbu_0, # of connection points: 6
#     Node 14, Type 0, BuildingBlock: PAMTOO_clean_sbu_0, # of connection points: 6
#     Node 15, Type 0, BuildingBlock: PAMTOO_clean_sbu_0, # of connection points: 6
#     Edge 16, Type (0, 0), BuildingBlock: CIFDUS_clean_linker_0, # of connection points: 2
#     Edge 17, Type (0, 0), BuildingBlock: CIFDUS_clean_linker_0, # of connection points: 2
#     Edge 18, Type (0, 0), BuildingBlock: CIFDUS_clean_linker_0, # of connection points: 2
#     Edge 19, Type (0, 0), BuildingBlock: CIFDUS_clean_linker_0, # of connection points: 2
#     Edge 20, Type (0, 0), BuildingBlock: CIFDUS_clean_linker_0, # of connection points: 2
#     Edge 21, Type (0, 0), BuildingBlock: CIFDUS_clean_linker_0, # of connection points: 2
#     Edge 22, Type (0, 0), BuildingBlock: CIFDUS_clean_linker_0, # of connection points: 2
#     Edge 23, Type (0, 0), BuildingBlock: CIFDUS_clean_linker_0, # of connection points: 2
#     Edge 24, Type (0, 0), BuildingBlock: CIFDUS_clean_linker_0, # of connection points: 2
#     Edge 25, Type (0, 0), BuildingBlock: CIFDUS_clean_linker_0, # of connection points: 2
#     Edge 26, Type (0, 0), BuildingBlock: CIFDUS_clean_linker_0, # of connection points: 2
#     Edge 27, Type (0, 0), BuildingBlock: CIFDUS_clean_linker_0, # of connection points: 2
#     Edge 28, Type (0, 0), BuildingBlock: CIFDUS_clean_linker_0, # of connection points: 2
#     Edge 29, Type (0, 0), BuildingBlock: CIFDUS_clean_linker_0, # of connection points: 2
#     Edge 30, Type (0, 0), BuildingBlock: CIFDUS_clean_linker_0, # of connection points: 2
#     Edge 31, Type (0, 0), BuildingBlock: CIFDUS_clean_linker_0, # of connection points: 2
#     Edge 32, Type (0, 0), BuildingBlock: CIFDUS_clean_linker_0, # of connection points: 2
#     Edge 33, Type (0, 0), BuildingBlock: CIFDUS_clean_linker_0, # of connection points: 2
#     Edge 34, Type (0, 0), BuildingBlock: CIFDUS_clean_linker_0, # of connection points: 2
#     Edge 35, Type (0, 0), BuildingBlock: CIFDUS_clean_linker_0, # of connection points: 2
#     Edge 36, Type (0, 0), BuildingBlock: CIFDUS_clean_linker_0, # of connection points: 2
#     Edge 37, Type (0, 0), BuildingBlock: CIFDUS_clean_linker_0, # of connection points: 2
#     Edge 38, Type (0, 0), BuildingBlock: CIFDUS_clean_linker_0, # of connection points: 2
#     Edge 39, Type (0, 0), BuildingBlock: CIFDUS_clean_linker_0, # of connection points: 2
#     Edge 40, Type (0, 0), BuildingBlock: CIFDUS_clean_linker_0, # of connection points: 2
#     Edge 41, Type (0, 0), BuildingBlock: CIFDUS_clean_linker_0, # of connection points: 2
#     Edge 42, Type (0, 0), BuildingBlock: CIFDUS_clean_linker_0, # of connection points: 2
#     Edge 43, Type (0, 0), BuildingBlock: CIFDUS_clean_linker_0, # of connection points: 2
#     Edge 44, Type (0, 0), BuildingBlock: CIFDUS_clean_linker_0, # of connection points: 2
#     Edge 45, Type (0, 0), BuildingBlock: CIFDUS_clean_linker_0, # of connection points: 2
#     Edge 46, Type (0, 0), BuildingBlock: CIFDUS_clean_linker_0, # of connection points: 2
#     Edge 47, Type (0, 0), BuildingBlock: CIFDUS_clean_linker_0, # of connection points: 2
#     Edge 48, Type (0, 0), BuildingBlock: CIFDUS_clean_linker_0, # of connection points: 2
#     Edge 49, Type (0, 0), BuildingBlock: CIFDUS_clean_linker_0, # of connection points: 2
#     Edge 50, Type (0, 0), BuildingBlock: CIFDUS_clean_linker_0, # of connection points: 2
#     Edge 51, Type (0, 0), BuildingBlock: CIFDUS_clean_linker_0, # of connection points: 2
#     Edge 52, Type (0, 0), BuildingBlock: CIFDUS_clean_linker_0, # of connection points: 2
#     Edge 53, Type (0, 0), BuildingBlock: CIFDUS_clean_linker_0, # of connection points: 2
#     Edge 54, Type (0, 0), BuildingBlock: CIFDUS_clean_linker_0, # of connection points: 2
#     Edge 55, Type (0, 0), BuildingBlock: CIFDUS_clean_linker_0, # of connection points: 2
#     Edge 56, Type (0, 0), BuildingBlock: CIFDUS_clean_linker_0, # of connection points: 2
#     Edge 57, Type (0, 0), BuildingBlock: CIFDUS_clean_linker_0, # of connection points: 2
#     Edge 58, Type (0, 0), BuildingBlock: CIFDUS_clean_linker_0, # of connection points: 2
#     Edge 59, Type (0, 0), BuildingBlock: CIFDUS_clean_linker_0, # of connection points: 2
#     Edge 60, Type (0, 0), BuildingBlock: CIFDUS_clean_linker_0, # of connection points: 2
#     Edge 61, Type (0, 0), BuildingBlock: CIFDUS_clean_linker_0, # of connection points: 2
#     Edge 62, Type (0, 0), BuildingBlock: CIFDUS_clean_linker_0, # of connection points: 2
#     Edge 63, Type (0, 0), BuildingBlock: CIFDUS_clean_linker_0, # of connection points: 2
# Relax obj value: 0.158
# Max RMSD: 0.203
# Mean RMSD: 0.203
data_MOF--net-wiv--node1-PAMTOO_clean_sbu_0--edge1-CIFDUS_clean_linker_0
_symmetry_space_group_name_H-M    P1
_symmetry_Int_Tables_number       1
_symmetry_cell_setting            triclinic
loop_
_symmetry_equiv_pos_as_xyz
'x, y, z'
_cell_length_a     44.081548
_cell_length_b     44.093157
_cell_length_c     22.783183
_cell_angle_alpha  90.039529
_cell_angle_beta   90.070329
_cell_angle_gamma 89.997312
loop_
_atom_site_label
_atom_site_type_symbol
_atom_site_fract_x
_atom_site_fract_y
_atom_site_fract_z
_atom_type_partial_charge
Dy0 Dy 0.36661 0.09923 0.07243 0.0
Dy1 Dy 0.31979 0.10508 0.18547 0.0
C2 C 0.34494 0.16399 0.12252 0.0
O3 O 0.39618 0.11638 0.14405 0.0
O4 O 0.36703 0.10524 0.22577 0.0
O5 O 0.39568 0.11833 1.00522 0.0
O6 O 0.38627 0.07016 1.00633 0.0
O7 O 0.32666 0.057 0.15963 0.0
O8 O 0.37582 0.05975 0.13332 0.0
O9 O 0.2907 0.11293 0.10442 0.0
O10 O 0.32077 0.08661 0.04031 0.0
O11 O 0.29288 0.08082 0.24942 0.0
O12 O 0.29322 0.12968 0.24978 0.0
C13 C 0.39276 0.11424 0.20134 0.0
O14 O 0.34975 0.1478 0.07461 0.0
O15 O 0.33854 0.15105 0.17266 0.0
C16 C 0.3883 0.09431 0.9134 0.0
C17 C 0.37018 0.10041 0.79448 0.0
C18 C 0.35212 0.08429 0.8347 0.0
C19 C 0.361 0.08139 0.89345 0.0
C20 C 0.40671 0.10982 0.87325 0.0
C21 C 0.39779 0.11284 0.81448 0.0
C22 C 0.39707 0.09287 0.97615 0.0
C23 C 0.35383 0.04518 0.15999 0.0
C24 C 0.29545 0.10078 0.05217 0.0
C25 C 0.29289 0.10448 0.34179 0.0
C26 C 0.30828 0.09876 0.46206 0.0
C27 C 0.32765 0.11407 0.42287 0.0
C28 C 0.32009 0.11681 0.36339 0.0
C29 C 0.27344 0.08934 0.38059 0.0
C30 C 0.281 0.08655 0.44009 0.0
C31 C 0.2858 0.10521 0.27841 0.0
H32 H 0.33065 0.07458 0.82128 0.0
H33 H 0.34619 0.06944 0.92347 0.0
H34 H 0.42788 0.11992 0.88752 0.0
H35 H 0.41261 0.1249 0.78468 0.0
H36 H 0.34912 0.12321 0.43776 0.0
H37 H 0.33579 0.12806 0.33406 0.0
H38 H 0.25255 0.07931 0.36468 0.0
H39 H 0.26544 0.07476 0.46886 0.0
Dy40 Dy 0.10032 0.67289 0.87521 0.0
Dy41 Dy 0.09579 0.62618 0.98802 0.0
C42 C 0.03991 0.64365 0.90938 0.0
O43 O 0.10998 0.702 0.95546 0.0
O44 O 0.08415 0.67223 1.02068 0.0
O45 O 0.07519 0.69604 0.80756 0.0
O46 O 0.12382 0.70173 0.81267 0.0
O47 O 0.1437 0.64437 0.98414 0.0
O48 O 0.14588 0.65263 0.88514 0.0
O49 O 0.11111 0.59623 0.91515 0.0
O50 O 0.09729 0.62578 0.83571 0.0
O51 O 0.11537 0.59549 0.05168 0.0
O52 O 0.06809 0.6082 0.05817 0.0
C53 C 0.09823 0.69755 1.00817 0.0
O54 O 0.05366 0.66985 0.91077 0.0
O55 O 0.05424 0.62004 0.93096 0.0
C56 C 0.10173 0.69795 0.7179 0.0
C57 C 0.10425 0.68376 0.59661 0.0
C58 C 0.09135 0.66333 0.63696 0.0
C59 C 0.09021 0.67028 0.69681 0.0
C60 C 0.11503 0.71824 0.67818 0.0
C61 C 0.11627 0.71125 0.61814 0.0
C62 C 0.09948 0.70571 0.78094 0.0
C63 C 0.15945 0.64798 0.9354 0.0
C64 C 0.1068 0.59988 0.8584 0.0
C65 C 0.09509 0.60267 0.14688 0.0
C66 C 0.10075 0.61791 0.26726 0.0
C67 C 0.11332 0.63668 0.2236 0.0
C68 C 0.11057 0.62909 0.16405 0.0
C69 C 0.0825 0.58393 0.19011 0.0
C70 C 0.08534 0.59141 0.24965 0.0
C71 C 0.091 0.59514 0.08414 0.0
H72 H 0.08146 0.64217 0.62222 0.0
H73 H 0.07992 0.65412 0.72655 0.0
H74 H 0.12432 0.73956 0.69355 0.0
H75 H 0.1268 0.72736 0.58865 0.0
H76 H 0.1256 0.65706 0.23546 0.0
H77 H 0.12048 0.64389 0.13132 0.0
H78 H 0.07026 0.56359 0.1778 0.0
H79 H 0.07501 0.57664 0.2819 0.0
Dy80 Dy 0.62675 0.89906 0.06728 0.0
Dy81 Dy 0.67285 0.90099 0.18102 0.0
C82 C 0.6542 0.83824 0.12258 0.0
O83 O 0.59816 0.88098 0.13967 0.0
O84 O 0.62543 0.89925 0.21877 0.0
O85 O 0.59982 0.87611 1.00095 0.0
O86 O 0.60378 0.92504 1.00041 0.0
O87 O 0.66664 0.94714 0.14315 0.0
O88 O 0.61718 0.94042 0.12253 0.0
O89 O 0.70404 0.89498 0.10304 0.0
O90 O 0.67167 0.91304 0.03209 0.0
O91 O 0.68935 0.92874 0.25222 0.0
O92 O 0.70615 0.88295 0.24178 0.0
C93 C 0.60087 0.88666 0.19615 0.0
O94 O 0.64869 0.85306 0.07347 0.0
O95 O 0.65863 0.85269 0.17223 0.0
C96 C 0.6034 0.90017 0.90826 0.0
C97 C 0.61875 0.89816 0.78752 0.0
C98 C 0.59226 0.88391 0.8084 0.0
C99 C 0.5847 0.8849 0.86812 0.0
C100 C 0.62994 0.91428 0.8877 0.0
C101 C 0.63752 0.91329 0.82807 0.0
C102 C 0.59527 0.901 0.97128 0.0
C103 C 0.63923 0.95821 0.14008 0.0
C104 C 0.69867 0.90396 0.04871 0.0
C105 C 0.69944 0.90176 0.33856 0.0
C106 C 0.68581 0.89714 0.45956 0.0
C107 C 0.71155 0.91321 0.44034 0.0
C108 C 0.71825 0.91552 0.38044 0.0
C109 C 0.67389 0.88545 0.35734 0.0
C110 C 0.66717 0.8831 0.41725 0.0
C111 C 0.70511 0.90686 0.27558 0.0
H112 H 0.57745 0.87173 0.77865 0.0
H113 H 0.56422 0.87372 0.88299 0.0
H114 H 0.64478 0.92627 0.91768 0.0
H115 H 0.65783 0.9249 0.81361 0.0
H116 H 0.7262 0.92464 0.47151 0.0
H117 H 0.73784 0.92856 0.36676 0.0
H118 H 0.65886 0.87495 0.3256 0.0
H119 H 0.64734 0.87032 0.43042 0.0
Dy120 Dy 0.89919 0.33003 0.88526 0.0
Dy121 Dy 0.8992 0.37605 0.99935 0.0
C122 C 0.95731 0.36554 0.92005 0.0
O123 O 0.89103 0.30002 0.9644 0.0
O124 O 0.91336 0.33079 0.03284 0.0
O125 O 0.9257 0.30683 0.8196 0.0
O126 O 0.87706 0.30121 0.82081 0.0
O127 O 0.85225 0.35574 0.99226 0.0
O128 O 0.85214 0.3473 0.89319 0.0
O129 O 0.88296 0.4053 0.92607 0.0
O130 O 0.89921 0.37715 0.84645 0.0
O131 O 0.87674 0.40469 0.06298 0.0
O132 O 0.92505 0.39661 0.06954 0.0
C133 C 0.90158 0.30462 1.01799 0.0
O134 O 0.94655 0.33801 0.91521 0.0
O135 O 0.94068 0.38657 0.94513 0.0
C136 C 0.90083 0.30457 0.72802 0.0
C137 C 0.89884 0.31862 0.60684 0.0
C138 C 0.91105 0.33937 0.64749 0.0
C139 C 0.91195 0.33247 0.70739 0.0
C140 C 0.88845 0.2839 0.68788 0.0
C141 C 0.88744 0.29084 0.62788 0.0
C142 C 0.90198 0.29708 0.79117 0.0
C143 C 0.8375 0.3514 0.94251 0.0
C144 C 0.88801 0.40227 0.86941 0.0
C145 C 0.8979 0.40001 0.15802 0.0
C146 C 0.89477 0.38466 0.2784 0.0
C147 C 0.88322 0.36485 0.2353 0.0
C148 C 0.88477 0.37247 0.17569 0.0
C149 C 0.90941 0.41981 0.20067 0.0
C150 C 0.90784 0.41226 0.26025 0.0
C151 C 0.90103 0.40757 0.09529 0.0
H152 H 0.92038 0.3608 0.63297 0.0
H153 H 0.92152 0.3489 0.73756 0.0
H154 H 0.87949 0.26242 0.70303 0.0
H155 H 0.87741 0.2746 0.59796 0.0
H156 H 0.87273 0.34359 0.24763 0.0
H157 H 0.87584 0.35681 0.14333 0.0
H158 H 0.91991 0.44101 0.18784 0.0
H159 H 0.91738 0.42785 0.29205 0.0
Dy160 Dy 0.37474 0.40336 0.24276 0.0
Dy161 Dy 0.3291 0.40617 0.12787 0.0
C162 C 0.34849 0.34316 0.18248 0.0
O163 O 0.40391 0.38665 0.16962 0.0
O164 O 0.37657 0.40453 0.09019 0.0
O165 O 0.40066 0.37883 0.30839 0.0
O166 O 0.39817 0.42782 0.31118 0.0
O167 O 0.33644 0.45254 0.1636 0.0
O168 O 0.38515 0.44574 0.19143 0.0
O169 O 0.29776 0.40018 0.20601 0.0
O170 O 0.32981 0.4173 0.27837 0.0
O171 O 0.31271 0.43343 0.05594 0.0
O172 O 0.29513 0.38811 0.06855 0.0
C173 C 0.40129 0.39238 0.1131 0.0
O174 O 0.35298 0.35743 0.23263 0.0
O175 O 0.3444 0.3582 0.13354 0.0
C176 C 0.3975 0.4019 0.40204 0.0
C177 C 0.38179 0.39923 0.52244 0.0
C178 C 0.40806 0.38464 0.5014 0.0
C179 C 0.41579 0.38595 0.44181 0.0
C180 C 0.37113 0.41629 0.42273 0.0
C181 C 0.36336 0.41497 0.48221 0.0
C182 C 0.40587 0.40321 0.33924 0.0
C183 C 0.36394 0.46325 0.16938 0.0
C184 C 0.3028 0.40874 0.26081 0.0
C185 C 0.30157 0.40566 0.971 0.0
C186 C 0.31461 0.39958 0.85004 0.0
C187 C 0.28909 0.4161 0.86904 0.0
C188 C 0.28266 0.41908 0.92893 0.0
C189 C 0.32682 0.3888 0.95245 0.0
C190 C 0.33322 0.38571 0.89256 0.0
C191 C 0.29638 0.41161 0.03381 0.0
H192 H 0.42258 0.37199 0.53094 0.0
H193 H 0.43612 0.37453 0.42679 0.0
H194 H 0.35663 0.42881 0.39298 0.0
H195 H 0.34323 0.42684 0.49685 0.0
H196 H 0.27448 0.42741 0.83769 0.0
H197 H 0.26327 0.43247 0.94244 0.0
H198 H 0.34188 0.37849 0.98434 0.0
H199 H 0.35285 0.37256 0.87958 0.0
Dy200 Dy 0.39907 0.67804 0.93873 0.0
Dy201 Dy 0.40088 0.63043 0.82649 0.0
C202 C 0.45711 0.64198 0.90855 0.0
O203 O 0.39205 0.7073 0.85806 0.0
O204 O 0.41569 0.67545 0.79322 0.0
O205 O 0.42546 0.70397 1.00092 0.0
O206 O 0.37662 0.70585 1.00422 0.0
O207 O 0.3539 0.65046 0.83032 0.0
O208 O 0.35215 0.66077 0.92875 0.0
O209 O 0.38389 0.60186 0.90021 0.0
O210 O 0.39923 0.63112 0.97935 0.0
O211 O 0.37956 0.60096 0.76266 0.0
O212 O 0.42762 0.61061 0.75683 0.0
C213 C 0.40371 0.70183 0.8057 0.0
O214 O 0.44623 0.66951 0.90886 0.0
O215 O 0.44107 0.62027 0.88435 0.0
C216 C 0.40312 0.70444 0.09559 0.0
C217 C 0.40554 0.68488 0.21397 0.0
C218 C 0.43229 0.68878 0.18133 0.0
C219 C 0.43112 0.6986 0.12306 0.0
C220 C 0.37641 0.70178 0.12897 0.0
C221 C 0.37761 0.69214 0.18755 0.0
C222 C 0.40187 0.71172 0.03188 0.0
C223 C 0.33842 0.65503 0.87901 0.0
C224 C 0.3884 0.60563 0.95696 0.0
C225 C 0.40029 0.60972 0.66739 0.0
C226 C 0.39577 0.63271 0.55129 0.0
C227 C 0.37019 0.63174 0.58821 0.0
C228 C 0.37243 0.62049 0.64554 0.0
C229 C 0.42568 0.61003 0.6302 0.0
C230 C 0.42351 0.6215 0.57306 0.0
C231 C 0.40374 0.60015 0.72959 0.0
H232 H 0.45421 0.68391 0.20073 0.0
H233 H 0.45222 0.70088 0.09913 0.0
H234 H 0.35449 0.70646 0.10946 0.0
H235 H 0.35659 0.68937 0.21151 0.0
H236 H 0.34832 0.63965 0.57289 0.0
H237 H 0.35235 0.62067 0.6729 0.0
H238 H 0.44748 0.60203 0.64583 0.0
H239 H 0.44385 0.62226 0.54653 0.0
Dy240 Dy 0.62845 0.59741 0.23558 0.0
Dy241 Dy 0.67655 0.59658 0.12397 0.0
C242 C 0.65393 0.6585 0.17868 0.0
O243 O 0.59906 0.61087 0.15943 0.0
O244 O 0.63012 0.59473 0.08389 0.0
O245 O 0.60404 0.62134 0.30425 0.0
O246 O 0.60308 0.57237 0.30041 0.0
O247 O 0.66901 0.54911 0.15423 0.0
O248 O 0.62026 0.55449 0.18484 0.0
O249 O 0.70614 0.60217 0.20406 0.0
O250 O 0.67292 0.58234 0.27148 0.0
O251 O 0.69672 0.57066 0.05365 0.0
O252 O 0.70886 0.61777 0.06528 0.0
C253 C 0.60374 0.60448 0.1035 0.0
O254 O 0.64919 0.64384 0.22809 0.0
O255 O 0.65858 0.64374 0.12958 0.0
C256 C 0.6087 0.59479 0.39425 0.0
C257 C 0.6317 0.59423 0.51071 0.0
C258 C 0.60784 0.61388 0.49466 0.0
C259 C 0.59646 0.61411 0.43708 0.0
C260 C 0.63232 0.57499 0.41026 0.0
C261 C 0.64349 0.57457 0.46768 0.0
C262 C 0.59804 0.59633 0.33254 0.0
C263 C 0.64172 0.53788 0.16117 0.0
C264 C 0.69999 0.5921 0.2572 0.0
C265 C 0.70138 0.59963 0.96827 0.0
C266 C 0.67916 0.60261 0.85171 0.0
C267 C 0.70375 0.58354 0.86623 0.0
C268 C 0.71473 0.58212 0.92391 0.0
C269 C 0.67751 0.61935 0.95379 0.0
C270 C 0.66671 0.62101 0.89615 0.0
C271 C 0.70954 0.59433 0.03024 0.0
H272 H 0.59844 0.62969 0.52614 0.0
H273 H 0.57845 0.62977 0.42575 0.0
H274 H 0.64247 0.55994 0.37823 0.0
H275 H 0.66146 0.55874 0.4782 0.0
H276 H 0.71378 0.56874 0.83368 0.0
H277 H 0.7329 0.56646 0.9343 0.0
H278 H 0.66655 0.63284 0.98742 0.0
H279 H 0.64823 0.63644 0.88674 0.0
Dy280 Dy 0.59645 0.32671 0.9285 0.0
Dy281 Dy 0.59822 0.37237 0.81385 0.0
C282 C 0.5395 0.36343 0.89145 0.0
O283 O 0.60344 0.29649 0.84895 0.0
O284 O 0.58161 0.32776 0.78105 0.0
O285 O 0.56943 0.30907 0.99965 0.0
O286 O 0.61519 0.29272 0.98694 0.0
O287 O 0.64463 0.35124 0.82398 0.0
O288 O 0.64404 0.34278 0.9231 0.0
O289 O 0.61499 0.40186 0.88641 0.0
O290 O 0.59958 0.37392 0.9671 0.0
O291 O 0.62272 0.3973 0.74692 0.0
O292 O 0.57368 0.39593 0.74566 0.0
C293 C 0.59253 0.3012 0.79568 0.0
O294 O 0.54958 0.33564 0.89642 0.0
O295 O 0.55694 0.38412 0.86744 0.0
C296 C 0.59716 0.29774 0.08466 0.0
C297 C 0.6022 0.31021 0.20622 0.0
C298 C 0.58469 0.28559 0.18592 0.0
C299 C 0.5822 0.27948 0.12577 0.0
C300 C 0.61516 0.32192 0.10449 0.0
C301 C 0.61777 0.32801 0.16464 0.0
C302 C 0.59157 0.2931 1.02146 0.0
C303 C 0.659 0.34717 0.87423 0.0
C304 C 0.61076 0.39889 0.94336 0.0
C305 C 0.59897 0.3946 0.65374 0.0
C306 C 0.60153 0.37854 0.53341 0.0
C307 C 0.61967 0.40217 0.55579 0.0
C308 C 0.61842 0.41006 0.61533 0.0
C309 C 0.58078 0.37103 0.63149 0.0
C310 C 0.58207 0.36309 0.57203 0.0
C311 C 0.59822 0.40294 0.71673 0.0
H312 H 0.57209 0.27156 0.21631 0.0
H313 H 0.56797 0.26087 0.11128 0.0
H314 H 0.62671 0.33648 0.0734 0.0
H315 H 0.63184 0.34683 0.17849 0.0
H316 H 0.63508 0.41439 0.52735 0.0
H317 H 0.63273 0.42824 0.63145 0.0
H318 H 0.56541 0.35881 0.65997 0.0
H319 H 0.56736 0.34524 0.55601 0.0
Dy320 Dy 0.87454 0.59728 0.56868 0.0
Dy321 Dy 0.82692 0.59803 0.68009 0.0
C322 C 0.85101 0.65881 0.62453 0.0
O323 O 0.90395 0.6095 0.64581 0.0
O324 O 0.87303 0.59196 0.72042 0.0
O325 O 0.90364 0.62005 0.50621 0.0
O326 O 0.89406 0.57218 0.49644 0.0
O327 O 0.83406 0.55029 0.65084 0.0
O328 O 0.88278 0.5543 0.61893 0.0
O329 O 0.7984 0.60736 0.5996 0.0
O330 O 0.82938 0.5822 0.53597 0.0
O331 O 0.799 0.57316 0.74142 0.0
O332 O 0.80131 0.62195 0.74689 0.0
C333 C 0.8994 0.60185 0.70113 0.0
O334 O 0.85417 0.64393 0.57487 0.0
O335 O 0.84715 0.64413 0.67387 0.0
C336 C 0.89455 0.60123 0.41014 0.0
C337 C 0.87124 0.60511 0.29427 0.0
C338 C 0.85822 0.62206 0.34028 0.0
C339 C 0.8696 0.61997 0.39755 0.0
C340 C 0.90799 0.58474 0.36444 0.0
C341 C 0.89647 0.5866 0.30719 0.0
C342 C 0.90465 0.59653 0.47137 0.0
C343 C 0.86111 0.53845 0.6438 0.0
C344 C 0.80343 0.59532 0.54751 0.0
C345 C 0.8026 0.59498 0.83608 0.0
C346 C 0.82447 0.59638 0.95307 0.0
C347 C 0.83815 0.57762 0.91065 0.0
C348 C 0.82752 0.57709 0.85288 0.0
C349 C 0.78809 0.61289 0.87855 0.0
C350 C 0.79889 0.61359 0.93651 0.0
C351 C 0.79363 0.597 0.77362 0.0
H352 H 0.83907 0.63687 0.3323 0.0
H353 H 0.8585 0.6326 0.43224 0.0
H354 H 0.92691 0.56973 0.37334 0.0
H355 H 0.9068 0.57271 0.2735 0.0
H356 H 0.85741 0.5635 0.92182 0.0
H357 H 0.8393 0.56315 0.82103 0.0
H358 H 0.76895 0.62699 0.86651 0.0
H359 H 0.78782 0.62845 0.96771 0.0
Dy360 Dy 0.60494 0.16904 0.37653 0.0
Dy361 Dy 0.59526 0.12231 0.48882 0.0
C362 C 0.54038 0.1388 0.39965 0.0
O363 O 0.59032 0.19832 0.45373 0.0
O364 O 0.60804 0.1671 0.52564 0.0
O365 O 0.58841 0.20372 0.31732 0.0
O366 O 0.63423 0.18674 0.30868 0.0
O367 O 0.6439 0.11796 0.45952 0.0
O368 O 0.64937 0.16574 0.42176 0.0
O369 O 0.59171 0.09071 0.41272 0.0
O370 O 0.61241 0.12163 0.34096 0.0
O371 O 0.61299 0.09233 0.55639 0.0
O372 O 0.56598 0.10603 0.55779 0.0
C373 C 0.59794 0.19356 0.50904 0.0
O374 O 0.56031 0.1478 0.36092 0.0
O375 O 0.54816 0.13307 0.45447 0.0
C376 C 0.60824 0.198 0.22126 0.0
C377 C 0.60354 0.18577 0.09943 0.0
C378 C 0.58749 0.16819 0.14068 0.0
C379 C 0.58991 0.17417 0.20089 0.0
C380 C 0.62386 0.21595 0.1805 0.0
C381 C 0.62153 0.20994 0.12023 0.0
C382 C 0.61277 0.2029 0.28479 0.0
C383 C 0.66112 0.1401 0.43969 0.0
C384 C 0.60261 0.09492 0.35949 0.0
C385 C 0.59124 0.10294 0.64967 0.0
C386 C 0.59649 0.11944 0.76991 0.0
C387 C 0.61065 0.09307 0.74798 0.0
C388 C 0.60793 0.08489 0.68873 0.0
C389 C 0.57772 0.12971 0.67093 0.0
C390 C 0.58019 0.13777 0.73026 0.0
C391 C 0.58814 0.09373 0.58721 0.0
H392 H 0.57303 0.14974 0.1265 0.0
H393 H 0.57779 0.1599 0.23164 0.0
H394 H 0.63828 0.23432 0.19536 0.0
H395 H 0.63446 0.22382 0.09009 0.0
H396 H 0.624 0.07868 0.77652 0.0
H397 H 0.61885 0.06435 0.67341 0.0
H398 H 0.56493 0.14436 0.64185 0.0
H399 H 0.56871 0.15806 0.74514 0.0
Dy400 Dy 0.11914 0.402 0.5599 0.0
Dy401 Dy 0.16509 0.40168 0.67383 0.0
C402 C 0.14366 0.34032 0.61547 0.0
O403 O 0.08963 0.38603 0.63333 0.0
O404 O 0.1179 0.40243 0.71267 0.0
O405 O 0.09138 0.37916 0.49514 0.0
O406 O 0.09734 0.42782 0.49122 0.0
O407 O 0.15804 0.44916 0.64382 0.0
O408 O 0.10943 0.4439 0.6133 0.0
O409 O 0.19565 0.3954 0.59467 0.0
O410 O 0.16425 0.41647 0.52563 0.0
O411 O 0.18693 0.42741 0.7424 0.0
O412 O 0.19512 0.37923 0.73573 0.0
C413 C 0.0926 0.39144 0.68996 0.0
O414 O 0.13992 0.3554 0.56606 0.0
O415 O 0.14746 0.35469 0.66521 0.0
C416 C 0.09599 0.4018 0.40146 0.0
C417 C 0.11429 0.40387 0.28256 0.0
C418 C 0.13333 0.39106 0.32559 0.0
C419 C 0.12428 0.39008 0.38446 0.0
C420 C 0.0766 0.41383 0.35868 0.0
C421 C 0.08558 0.41477 0.29981 0.0
C422 C 0.08763 0.40369 0.46396 0.0
C423 C 0.13076 0.46043 0.63774 0.0
C424 C 0.19094 0.40611 0.54123 0.0
C425 C 0.19034 0.40012 0.83096 0.0
C426 C 0.17598 0.39483 0.95151 0.0
C427 C 0.15463 0.40639 0.91139 0.0
C428 C 0.16171 0.40898 0.85185 0.0
C429 C 0.21157 0.3881 0.87047 0.0
C430 C 0.20451 0.38551 0.93027 0.0
C431 C 0.19793 0.40344 0.76817 0.0
H432 H 0.15561 0.38261 0.31418 0.0
H433 H 0.13964 0.38081 0.41696 0.0
H434 H 0.05471 0.42301 0.37096 0.0
H435 H 0.07006 0.42424 0.26784 0.0
H436 H 0.13224 0.41318 0.92589 0.0
H437 H 0.14475 0.41797 0.82213 0.0
H438 H 0.23363 0.38079 0.8551 0.0
H439 H 0.22153 0.37664 0.95996 0.0
Dy440 Dy 0.4023 0.82813 0.37925 0.0
Dy441 Dy 0.40291 0.87604 0.49155 0.0
C442 C 0.46182 0.86178 0.41619 0.0
O443 O 0.39542 0.79884 0.46003 0.0
O444 O 0.4173 0.83115 0.52665 0.0
O445 O 0.42742 0.80441 0.31206 0.0
O446 O 0.37879 0.7993 0.31654 0.0
O447 O 0.3565 0.8551 0.48556 0.0
O448 O 0.3559 0.84769 0.38654 0.0
O449 O 0.39015 0.90545 0.41476 0.0
O450 O 0.40656 0.87451 0.33926 0.0
O451 O 0.37982 0.90428 0.55529 0.0
O452 O 0.42835 0.89766 0.56114 0.0
C453 C 0.40614 0.80448 0.51318 0.0
O454 O 0.44995 0.83474 0.40933 0.0
O455 O 0.44586 0.88357 0.4405 0.0
C456 C 0.40087 0.80257 0.22186 0.0
C457 C 0.39592 0.81753 0.10111 0.0
C458 C 0.4098 0.83762 0.14099 0.0
C459 C 0.41215 0.83028 0.20059 0.0
C460 C 0.38705 0.7824 0.18235 0.0
C461 C 0.38453 0.78981 0.12259 0.0
C462 C 0.4031 0.79495 0.2851 0.0
C463 C 0.34145 0.85145 0.43618 0.0
C464 C 0.39697 0.90095 0.35896 0.0
C465 C 0.40169 0.89954 0.65045 0.0
C466 C 0.40345 0.88066 0.76958 0.0
C467 C 0.38637 0.86444 0.72765 0.0
C468 C 0.38565 0.87368 0.66873 0.0
C469 C 0.41768 0.91647 0.69234 0.0
C470 C 0.41847 0.90725 0.75116 0.0
C471 C 0.4041 0.90762 0.58755 0.0
H472 H 0.41838 0.85934 0.12632 0.0
H473 H 0.42271 0.8464 0.23015 0.0
H474 H 0.37811 0.76098 0.1978 0.0
H475 H 0.37388 0.77372 0.09312 0.0
H476 H 0.37438 0.84397 0.73975 0.0
H477 H 0.37323 0.86011 0.63713 0.0
H478 H 0.43018 0.93652 0.67931 0.0
H479 H 0.43116 0.92093 0.7821 0.0
Dy480 Dy 0.87781 0.89875 0.74298 0.0
Dy481 Dy 0.83032 0.89917 0.63032 0.0
C482 C 0.85322 0.83786 0.68588 0.0
O483 O 0.90697 0.88551 0.6662 0.0
O484 O 0.87681 0.90433 0.59151 0.0
O485 O 0.9052 0.87514 0.80737 0.0
O486 O 0.90023 0.92387 0.812 0.0
O487 O 0.83667 0.94649 0.66234 0.0
O488 O 0.88553 0.94203 0.69316 0.0
O489 O 0.80087 0.89189 0.71034 0.0
O490 O 0.83293 0.91333 0.77789 0.0
O491 O 0.8069 0.9245 0.56304 0.0
O492 O 0.80133 0.87591 0.56761 0.0
C493 C 0.90281 0.89358 0.61098 0.0
O494 O 0.85663 0.85252 0.73575 0.0
O495 O 0.84982 0.85272 0.6366 0.0
C496 C 0.90067 0.89767 0.90171 0.0
C497 C 0.88146 0.90039 1.0203 0.0
C498 C 0.86376 0.8854 0.97772 0.0
C499 C 0.87321 0.88417 0.919 0.0
C500 C 0.91878 0.91183 0.94421 0.0
C501 C 0.90935 0.91313 1.00284 0.0
C502 C 0.90926 0.89947 0.83911 0.0
C503 C 0.86372 0.95829 0.66964 0.0
C504 C 0.80622 0.90255 0.76357 0.0
C505 C 0.80489 0.89786 0.47298 0.0
C506 C 0.81967 0.89275 0.35222 0.0
C507 C 0.83927 0.90775 0.39153 0.0
C508 C 0.83199 0.91025 0.45111 0.0
C509 C 0.78539 0.88263 0.43421 0.0
C510 C 0.79261 0.88019 0.37443 0.0
C511 C 0.79727 0.90025 0.53612 0.0
H512 H 0.84212 0.87546 0.98929 0.0
H513 H 0.85868 0.87335 0.88681 0.0
H514 H 0.93998 0.92248 0.93182 0.0
H515 H 0.92388 0.92436 0.03446 0.0
H516 H 0.86058 0.91715 0.3765 0.0
H517 H 0.84772 0.92174 0.48016 0.0
H518 H 0.76454 0.87262 0.4502 0.0
H519 H 0.77682 0.8687 0.34552 0.0
Dy520 Dy 0.89704 0.16834 0.43227 0.0
Dy521 Dy 0.90259 0.12247 0.31924 0.0
C522 C 0.9584 0.14123 0.39774 0.0
O523 O 0.88904 0.1995 0.35494 0.0
O524 O 0.90979 0.16898 0.28326 0.0
O525 O 0.92158 0.1923 0.49974 0.0
O526 O 0.87257 0.19396 0.49847 0.0
O527 O 0.85422 0.13942 0.32104 0.0
O528 O 0.85134 0.14823 0.41993 0.0
O529 O 0.88577 0.09271 0.39083 0.0
O530 O 0.90171 0.1211 0.46983 0.0
O531 O 0.88507 0.08955 0.25753 0.0
O532 O 0.93142 0.1053 0.25016 0.0
C533 C 0.89875 0.19516 0.30067 0.0
O534 O 0.94395 0.16703 0.39755 0.0
O535 O 0.94442 0.11741 0.3762 0.0
C536 C 0.89659 0.18657 0.59005 0.0
C537 C 0.89447 0.16248 0.70479 0.0
C538 C 0.91048 0.14737 0.66025 0.0
C539 C 0.91155 0.15928 0.60359 0.0
C540 C 0.88032 0.20159 0.63415 0.0
C541 C 0.87945 0.18979 0.69123 0.0
C542 C 0.89709 0.19837 0.52946 0.0
C543 C 0.83823 0.14279 0.36948 0.0
C544 C 0.89082 0.09577 0.44736 0.0
C545 C 0.90437 0.09868 0.16264 0.0
C546 C 0.90041 0.11898 0.04556 0.0
C547 C 0.88376 0.1334 0.09011 0.0
C548 C 0.88574 0.12337 0.14809 0.0
C549 C 0.92029 0.08356 0.1181 0.0
C550 C 0.9182 0.09354 0.05983 0.0
C551 C 0.90928 0.09073 0.22466 0.0
H552 H 0.92252 0.12648 0.66933 0.0
H553 H 0.9241 0.14703 0.57031 0.0
H554 H 0.86804 0.22221 0.6243 0.0
H555 H 0.8666 0.20174 0.7245 0.0
H556 H 0.8694 0.15263 0.08014 0.0
H557 H 0.87327 0.13535 0.18186 0.0
H558 H 0.93496 0.06461 0.12862 0.0
H559 H 0.93134 0.08209 1.02634 0.0
Dy560 Dy 0.129 0.09683 0.72759 0.0
Dy561 Dy 0.17695 0.10322 0.617 0.0
C562 C 0.14751 0.16107 0.67379 0.0
O563 O 0.09865 0.10852 0.65196 0.0
O564 O 0.13095 0.09519 0.57612 0.0
O565 O 0.09948 0.1162 0.7937 0.0
O566 O 0.11013 0.06832 0.79567 0.0
O567 O 0.17498 0.05554 0.64836 0.0
O568 O 0.12529 0.05433 0.67261 0.0
O569 O 0.20455 0.11348 0.69921 0.0
O570 O 0.17495 0.08561 0.76119 0.0
O571 O 0.20348 0.08041 0.55073 0.0
O572 O 0.20369 0.12932 0.55479 0.0
C573 C 0.10384 0.10271 0.59605 0.0
O574 O 0.14485 0.14549 0.72287 0.0
O575 O 0.15299 0.14726 0.62412 0.0
C576 C 0.10869 0.09342 0.88722 0.0
C577 C 0.13144 0.09358 1.00394 0.0
C578 C 0.13743 0.11796 0.96578 0.0
C579 C 0.12637 0.11779 0.90797 0.0
C580 C 0.10201 0.06953 0.92575 0.0
C581 C 0.11328 0.06955 0.98328 0.0
C582 C 0.09915 0.09131 0.82474 0.0
C583 C 0.14911 0.041 0.64941 0.0
C584 C 0.19975 0.10101 0.7512 0.0
C585 C 0.20311 0.10679 0.45959 0.0
C586 C 0.18793 0.11046 0.33845 0.0
C587 C 0.17977 0.08494 0.37196 0.0
C588 C 0.18721 0.08313 0.43164 0.0
C589 C 0.21174 0.13209 0.42603 0.0
C590 C 0.20419 0.13395 0.36625 0.0
C591 C 0.21031 0.10545 0.52344 0.0
H592 H 0.1516 0.13665 0.97991 0.0
H593 H 0.13233 0.13638 0.87916 0.0
H594 H 0.08856 0.05043 0.9109 0.0
H595 H 0.10784 0.0506 1.01161 0.0
H596 H 0.16691 0.06659 0.35243 0.0
H597 H 0.1801 0.06327 0.45595 0.0
H598 H 0.22422 0.15054 0.44615 0.0
H599 H 0.21123 0.15376 0.34173 0.0
Dy600 Dy 0.1017 0.8218 0.43645 0.0
Dy601 Dy 0.09849 0.87007 0.32557 0.0
C602 C 0.0415 0.85048 0.39995 0.0
O603 O 0.10964 0.79264 0.35595 0.0
O604 O 0.0879 0.82468 0.28831 0.0
O605 O 0.07581 0.80155 0.50657 0.0
O606 O 0.12326 0.79018 0.49624 0.0
O607 O 0.14652 0.85281 0.33163 0.0
O608 O 0.1479 0.84161 0.42971 0.0
O609 O 0.11287 0.8996 0.40042 0.0
O610 O 0.0969 0.86851 0.47602 0.0
O611 O 0.11922 0.89696 0.25662 0.0
O612 O 0.07041 0.89319 0.26207 0.0
C613 C 0.09961 0.79837 0.30235 0.0
O614 O 0.05545 0.82439 0.39851 0.0
O615 O 0.056 0.87439 0.38029 0.0
C616 C 0.10399 0.79656 0.59338 0.0
C617 C 0.10675 0.81748 0.71102 0.0
C618 C 0.08376 0.79734 0.69285 0.0
C619 C 0.08243 0.78703 0.63471 0.0
C620 C 0.12751 0.81589 0.61165 0.0
C621 C 0.12898 0.82606 0.66983 0.0
C622 C 0.09955 0.78908 0.5306 0.0
C623 C 0.16183 0.848 0.38048 0.0
C624 C 0.10655 0.89493 0.45623 0.0
C625 C 0.09245 0.88986 0.16702 0.0
C626 C 0.09314 0.86626 0.05082 0.0
C627 C 0.11551 0.88692 0.06985 0.0
C628 C 0.1151 0.89861 0.12717 0.0
C629 C 0.06987 0.86955 0.14784 0.0
C630 C 0.07014 0.85805 0.09059 0.0
C631 C 0.09348 0.90042 0.22906 0.0
H632 H 0.06605 0.79041 0.72286 0.0
H633 H 0.06393 0.77234 0.62152 0.0
H634 H 0.1443 0.8239 0.58062 0.0
H635 H 0.14734 0.84107 0.68225 0.0
H636 H 0.13384 0.89352 0.041 0.0
H637 H 0.13289 0.91405 0.14076 0.0
H638 H 0.05207 0.86213 0.17724 0.0
H639 H 0.05219 0.84269 0.07759 0.0
H640 H 0.36204 0.95157 0.36952 0.0
H641 H 0.42422 0.90715 0.25148 0.0
H642 H 0.41771 0.94803 0.17995 0.0
H643 H 0.39326 0.99664 0.14967 0.0
H644 H 0.32899 0.03825 0.26725 0.0
H645 H 0.33746 0.99878 0.3394 0.0
C646 C 0.37436 0.9509 0.32835 0.0
C647 C 0.39368 0.92633 0.31625 0.0
C648 C 0.37 0.97413 0.28678 0.0
C649 C 0.40912 0.92574 0.26212 0.0
C650 C 0.40544 0.94917 0.22107 0.0
C651 C 0.38118 0.99696 0.19109 0.0
C652 C 0.36019 0.02032 0.20249 0.0
C653 C 0.38577 0.9735 0.23267 0.0
C654 C 0.34475 0.02036 0.25651 0.0
C655 C 0.34973 0.9978 0.29824 0.0
H656 H 0.93673 0.6497 0.71674 0.0
H657 H 0.91765 0.56011 0.78197 0.0
H658 H 0.9593 0.56461 0.85316 0.0
H659 H 0.002 0.59427 0.89595 0.0
H660 H 0.01625 0.6861 0.83608 0.0
H661 H 0.97585 0.68057 0.76467 0.0
C662 C 0.94188 0.63114 0.7464 0.0
C663 C 0.92465 0.60445 0.7436 0.0
C664 C 0.96499 0.63437 0.78857 0.0
C665 C 0.93089 0.58081 0.78317 0.0
C666 C 0.95465 0.5834 0.82388 0.0
C667 C 0.99605 0.61312 0.86765 0.0
C668 C 0.0126 0.64041 0.87127 0.0
C669 C 0.97195 0.61013 0.82703 0.0
C670 C 0.00428 0.66469 0.8344 0.0
C671 C 0.98109 0.6616 0.79316 0.0
H672 H 0.5945 0.97131 0.21792 0.0
H673 H 0.67153 0.01039 0.1298 0.0
H674 H 0.66582 0.05716 0.18691 0.0
H675 H 0.64095 0.08572 0.2668 0.0
H676 H 0.56703 0.04437 0.36136 0.0
H677 H 0.5695 -7e-05 0.29747 0.0
C678 C 0.60958 0.99036 0.21045 0.0
C679 C 0.63305 0.98769 0.16896 0.0
C680 C 0.60699 0.01666 0.24538 0.0
C681 C 0.65308 0.01212 0.16101 0.0
C682 C 0.64992 0.03878 0.1939 0.0
C683 C 0.62524 0.06708 0.2731 0.0
C684 C 0.60386 0.06844 0.31897 0.0
C685 C 0.62728 0.04114 0.23699 0.0
C686 C 0.58387 0.04389 0.32679 0.0
C687 C 0.58519 0.01846 0.29008 0.0
H688 H 0.97833 0.33873 0.82168 0.0
H689 H 0.99847 0.41121 0.94253 0.0
H690 H 0.04318 0.42506 0.88386 0.0
H691 H 0.07595 0.417 0.79577 0.0
H692 H 0.05148 0.34689 0.67213 0.0
H693 H 0.00914 0.33181 0.73405 0.0
C694 C 0.99263 0.35737 0.83573 0.0
C695 C 0.9853 0.37359 0.88704 0.0
C696 C 0.01749 0.3658 0.80078 0.0
C697 C 0.00373 0.39819 0.90351 0.0
C698 C 0.02926 0.40614 0.86986 0.0
C699 C 0.06135 0.3984 0.78261 0.0
C700 C 0.06695 0.38312 0.7292 0.0
C701 C 0.0363 0.3902 0.81805 0.0
C702 C 0.04764 0.35922 0.71259 0.0
C703 C 0.02343 0.35046 0.74814 0.0
H704 H 0.33176 0.49284 0.08593 0.0
H705 H 0.41407 0.49939 0.18756 0.0
H706 H 0.42817 0.54563 0.1341 0.0
H707 H 0.41812 0.58288 0.05379 0.0
H708 H 0.33775 0.57197 0.94772 0.0
H709 H 0.3219 0.52894 1.0074 0.0
C710 C 0.35265 0.50449 0.09705 0.0
C711 C 0.3717 0.4927 0.14112 0.0
C712 C 0.36107 0.5303 0.06479 0.0
C713 C 0.39891 0.50799 0.15402 0.0
C714 C 0.40701 0.53441 0.12331 0.0
C715 C 0.39705 0.57116 0.0443 0.0
C716 C 0.37911 0.58057 0.99639 0.0
C717 C 0.38845 0.5456 0.07794 0.0
C718 C 0.35203 0.56501 0.98405 0.0
C719 C 0.34291 0.54044 1.01825 0.0
H720 H 0.54727 0.62828 0.12186 0.0
H721 H 0.60362 0.5887 0.98716 0.0
H722 H 0.56308 0.59516 0.9154 0.0
H723 H 0.51146 0.61337 0.88954 0.0
H724 H 0.45636 0.65426 1.02405 0.0
H725 H 0.49611 0.64584 0.0967 0.0
C726 C 0.5507 0.62093 0.07692 0.0
C727 C 0.57857 0.608 0.06034 0.0
C728 C 0.52734 0.62498 0.03545 0.0
C729 C 0.58248 0.59876 1.00156 0.0
C730 C 0.55924 0.60241 0.96025 0.0
C731 C 0.50826 0.6202 0.93485 0.0
C732 C 0.48123 0.63472 0.9514 0.0
C733 C 0.53157 0.61564 0.97651 0.0
C734 C 0.47724 0.64356 1.01015 0.0
C735 C 0.49992 0.63863 0.05181 0.0
H736 H 0.66969 0.51223 0.06802 0.0
H737 H 0.59545 0.49853 0.18805 0.0
H738 H 0.58015 0.45291 0.13373 0.0
H739 H 0.58649 0.4183 0.04809 0.0
H740 H 0.65838 0.43611 0.92445 0.0
H741 H 0.67588 0.47858 0.9839 0.0
C742 C 0.65042 0.49905 0.08295 0.0
C743 C 0.63396 0.5086 0.13249 0.0
C744 C 0.64111 0.47366 0.05025 0.0
C745 C 0.60862 0.49157 0.15027 0.0
C746 C 0.59981 0.46554 0.11907 0.0
C747 C 0.60606 0.43144 0.03453 0.0
C748 C 0.62101 0.42411 0.98173 0.0
C749 C 0.61563 0.45657 0.06837 0.0
C750 C 0.64623 0.44145 0.96446 0.0
C751 C 0.65637 0.4657 0.99859 0.0
H752 H 0.42214 0.41978 1.01219 0.0
H753 H 0.43722 0.34331 0.12664 0.0
H754 H 0.47935 0.32654 0.0656 0.0
H755 H 0.51304 0.33411 0.9822 0.0
H756 H 0.50242 0.4127 0.87166 0.0
H757 H 0.45744 0.42798 0.92801 0.0
C758 C 0.43463 0.39941 1.02344 0.0
C759 C 0.42655 0.38285 0.07406 0.0
C760 C 0.45963 0.39024 0.98876 0.0
C761 C 0.4431 0.35663 0.08835 0.0
C762 C 0.46716 0.34693 0.05331 0.0
C763 C 0.50078 0.35445 0.96987 0.0
C764 C 0.51098 0.37205 0.92227 0.0
C765 C 0.47577 0.36362 1.00373 0.0
C766 C 0.495 0.39864 0.90787 0.0
C767 C 0.46932 0.40741 0.94022 0.0
H768 H 0.91218 0.41868 0.76273 0.0
H769 H 0.84339 0.44301 0.88902 0.0
H770 H 0.82768 0.48545 0.82796 0.0
H771 H 0.83415 0.51673 0.74102 0.0
H772 H 0.90533 0.49656 0.61748 0.0
H773 H 0.91924 0.45135 0.67455 0.0
C774 C 0.89369 0.43325 0.77658 0.0
C775 C 0.87905 0.42771 0.83051 0.0
C776 C 0.88511 0.45829 0.74164 0.0
C777 C 0.85527 0.4469 0.84811 0.0
C778 C 0.84613 0.47114 0.81307 0.0
C779 C 0.85243 0.50222 0.72595 0.0
C780 C 0.86837 0.50971 0.67454 0.0
C781 C 0.86096 0.47714 0.76002 0.0
C782 C 0.89254 0.49111 0.65665 0.0
C783 C 0.90055 0.46534 0.6894 0.0
H784 H 0.51555 0.16361 0.3033 0.0
H785 H 0.49423 0.10333 0.4463 0.0
H786 H 0.44505 0.09156 0.40012 0.0
H787 H 0.40987 0.09559 0.31336 0.0
H788 H 0.43478 0.1555 0.17134 0.0
H789 H 0.48063 0.16997 0.22277 0.0
C790 C 0.50018 0.14796 0.32488 0.0
C791 C 0.5088 0.13415 0.37798 0.0
C792 C 0.47253 0.14097 0.29772 0.0
C793 C 0.48821 0.11435 0.40544 0.0
C794 C 0.46017 0.10746 0.37876 0.0
C795 C 0.42524 0.112 0.29417 0.0
C796 C 0.41899 0.12401 0.23792 0.0
C797 C 0.4523 0.12018 0.32406 0.0
C798 C 0.43915 0.14537 0.21383 0.0
C799 C 0.46543 0.15383 0.24334 0.0
H800 H 0.07959 0.58098 0.75547 0.0
H801 H 0.15347 0.56138 0.87397 0.0
H802 H 0.16855 0.51835 0.81374 0.0
H803 H 0.16007 0.48507 0.73021 0.0
H804 H 0.08394 0.50023 0.61503 0.0
H805 H 0.07052 0.54613 0.67058 0.0
C806 C 0.09904 0.56731 0.76771 0.0
C807 C 0.11534 0.57435 0.81928 0.0
C808 C 0.1072 0.54179 0.73346 0.0
C809 C 0.14036 0.5563 0.83491 0.0
C810 C 0.1491 0.53172 0.80036 0.0
C811 C 0.14072 0.49855 0.71662 0.0
C812 C 0.12327 0.48939 0.66801 0.0
C813 C 0.13259 0.5241 0.7499 0.0
C814 C 0.09788 0.50686 0.65207 0.0
C815 C 0.09017 0.53307 0.68394 0.0
H816 H 0.58196 0.91317 0.2991 0.0
H817 H 0.56282 0.83932 0.18029 0.0
H818 H 0.52004 0.82376 0.24073 0.0
H819 H 0.48667 0.83207 0.32431 0.0
H820 H 0.5019 0.90804 0.43986 0.0
H821 H 0.54762 0.92166 0.38432 0.0
C822 C 0.56849 0.89358 0.28684 0.0
C823 C 0.57555 0.87747 0.23513 0.0
C824 C 0.54323 0.8851 0.32126 0.0
C825 C 0.55774 0.85229 0.21948 0.0
C826 C 0.5333 0.84327 0.25416 0.0
C827 C 0.50019 0.85136 0.33805 0.0
C828 C 0.49105 0.86878 0.38669 0.0
C829 C 0.52567 0.85963 0.30477 0.0
C830 C 0.50853 0.89413 0.40284 0.0
C831 C 0.53462 0.90197 0.37094 0.0
H832 H 0.83581 0.98175 0.57472 0.0
H833 H 0.90863 0.99942 0.69642 0.0
H834 H 0.92265 0.04503 0.6407 0.0
H835 H 0.91551 0.07848 0.55343 0.0
H836 H 0.84502 0.05644 0.4288 0.0
H837 H 0.82891 0.01402 0.48937 0.0
C838 C 0.85449 0.99578 0.58973 0.0
C839 C 0.87089 0.98741 0.64012 0.0
C840 C 0.86309 0.02106 0.55631 0.0
C841 C 0.89551 0.0055 0.65797 0.0
C842 C 0.90358 0.0315 0.62597 0.0
C843 C 0.8966 0.06439 0.53984 0.0
C844 C 0.88165 0.07049 0.48639 0.0
C845 C 0.88779 0.0393 0.57445 0.0
C846 C 0.85721 0.05201 0.46923 0.0
C847 C 0.84784 0.0278 0.504 0.0
H848 H 0.06406 0.1488 0.58527 0.0
H849 H 0.08721 0.06195 0.51151 0.0
H850 H 0.04431 0.06562 0.44282 0.0
H851 H 0.99918 0.09367 0.40501 0.0
H852 H 0.98069 0.18307 0.47389 0.0
H853 H 0.02253 0.17835 0.5423 0.0
C854 C 0.0596 0.13068 0.55418 0.0
C855 C 0.07836 0.10498 0.55388 0.0
C856 C 0.03567 0.13347 0.51362 0.0
C857 C 0.07288 0.08191 0.5126 0.0
C858 C 0.04837 0.08402 0.47338 0.0
C859 C 0.00451 0.11218 0.43464 0.0
C860 C 0.98636 0.13853 0.43436 0.0
C861 C 0.02947 0.10972 0.47352 0.0
C862 C 0.99389 0.16239 0.47292 0.0
C863 C 0.01792 0.15975 0.51245 0.0
H864 H 0.15122 0.93697 0.45833 0.0
H865 H 0.07031 0.90923 0.54946 0.0
H866 H 0.07598 0.95173 0.61822 0.0
H867 H 0.10378 0.99787 0.65114 0.0
H868 H 0.18735 0.02166 0.56387 0.0
H869 H 0.18088 0.9799 0.49566 0.0
C870 C 0.1348 0.94033 0.49318 0.0
C871 C 0.11018 0.92031 0.49837 0.0
C872 C 0.13876 0.96416 0.53357 0.0
C873 C 0.08942 0.92447 0.54449 0.0
C874 C 0.09265 0.94877 0.58378 0.0
C875 C 0.12068 0.9937 0.61755 0.0
C876 C 0.14593 0.01316 0.61281 0.0
C877 C 0.11723 0.9689 0.5787 0.0
C878 C 0.16769 0.00722 0.56904 0.0
C879 C 0.16399 0.9833 0.52958 0.0
H880 H 0.00541 0.90065 0.41707 0.0
H881 H 0.01586 0.80701 0.46879 0.0
H882 H 0.97559 0.81261 0.54063 0.0
H883 H 0.93788 0.84423 0.59151 0.0
H884 H 0.92322 0.93611 0.53428 0.0
H885 H 0.96443 0.93121 0.46256 0.0
C886 C 0.99864 0.8814 0.44358 0.0
C887 C 0.01404 0.85356 0.4376 0.0
C888 C 0.97481 0.88455 0.48455 0.0
C889 C 0.00471 0.82882 0.47229 0.0
C890 C 0.98165 0.83197 0.51379 0.0
C891 C 0.94392 0.86317 0.5635 0.0
C892 C 0.92806 0.89064 0.56873 0.0
C893 C 0.96679 0.85979 0.52089 0.0
C894 C 0.93542 0.91483 0.53124 0.0
C895 C 0.9589 0.912 0.49018 0.0
H896 H 0.34678 0.20121 0.217 0.0
H897 H 0.3474 0.20278 1.02754 0.0
H898 H 0.3485 0.25843 0.0295 0.0
H899 H 0.34839 0.30652 0.08552 0.0
H900 H 0.34837 0.3038 0.27507 0.0
H901 H 0.34781 0.24849 0.27234 0.0
C902 C 0.34707 0.21357 0.17587 0.0
C903 C 0.34674 0.19769 0.12206 0.0
C904 C 0.34773 0.24537 0.17742 0.0
C905 C 0.34759 0.21432 0.06951 0.0
C906 C 0.34814 0.24616 0.07068 0.0
C907 C 0.34817 0.29386 0.12631 0.0
C908 C 0.34821 0.30945 0.18055 0.0
C909 C 0.34803 0.26192 0.12444 0.0
C910 C 0.34827 0.29255 0.23279 0.0
C911 C 0.34795 0.26087 0.23126 0.0
H912 H 0.30133 0.65329 0.97421 0.0
H913 H 0.29988 0.65167 0.78465 0.0
H914 H 0.24448 0.64855 0.7861 0.0
H915 H 0.19678 0.64714 0.84085 0.0
H916 H 0.19798 0.64833 0.03039 0.0
H917 H 0.2535 0.65054 1.02915 0.0
C918 C 0.28897 0.65237 0.93306 0.0
C919 C 0.30482 0.65301 0.87926 0.0
C920 C 0.25717 0.65041 0.93426 0.0
C921 C 0.28833 0.65135 0.82659 0.0
C922 C 0.25665 0.64956 0.82742 0.0
C923 C 0.20908 0.64788 0.88208 0.0
C924 C 0.19313 0.64778 0.93576 0.0
C925 C 0.24088 0.6492 0.88098 0.0
C926 C 0.2096 0.64841 0.98853 0.0
C927 C 0.24134 0.64975 0.9878 0.0
H928 H 0.65417 0.8007 0.21755 0.0
H929 H 0.65503 0.79965 1.02808 0.0
H930 H 0.65536 0.74419 1.02884 0.0
H931 H 0.65517 0.69594 0.08323 0.0
H932 H 0.65299 0.69721 0.27269 0.0
H933 H 0.6534 0.7526 0.2718 0.0
C934 C 0.65457 0.78841 0.1763 0.0
C935 C 0.65474 0.80448 0.12278 0.0
C936 C 0.65446 0.75649 0.17704 0.0
C937 C 0.65492 0.788 0.06992 0.0
C938 C 0.65512 0.75623 0.07032 0.0
C939 C 0.65486 0.70828 0.12442 0.0
C940 C 0.65415 0.69227 0.17801 0.0
C941 C 0.65487 0.74023 0.12362 0.0
C942 C 0.65353 0.7088 0.2308 0.0
C943 C 0.65379 0.74054 0.23034 0.0
H944 H 0.8016 0.3506 0.84543 0.0
H945 H 0.7973 0.35177 0.03476 0.0
H946 H 0.7418 0.35037 0.02997 0.0
H947 H 0.69469 0.34845 0.97201 0.0
H948 H 0.69931 0.3481 0.78266 0.0
H949 H 0.7547 0.34952 0.78768 0.0
C950 C 0.78864 0.35049 0.88585 0.0
C951 C 0.80376 0.35112 0.94052 0.0
C952 C 0.7568 0.34979 0.88273 0.0
C953 C 0.78638 0.35126 0.99216 0.0
C954 C 0.75462 0.35042 0.98941 0.0
C955 C 0.70774 0.34856 0.9317 0.0
C956 C 0.69272 0.34795 0.8769 0.0
C957 C 0.73961 0.34958 0.93492 0.0
C958 C 0.71015 0.34847 0.82535 0.0
C959 C 0.74186 0.34928 0.82821 0.0
H960 H 0.85176 0.69554 0.72064 0.0
H961 H 0.85218 0.69801 0.53118 0.0
H962 H 0.85292 0.75346 0.53371 0.0
H963 H 0.85309 0.80116 0.58959 0.0
H964 H 0.85341 0.79858 0.77906 0.0
H965 H 0.85277 0.74317 0.77647 0.0
C966 C 0.85196 0.70813 0.67977 0.0
C967 C 0.85177 0.69251 0.62572 0.0
C968 C 0.85252 0.74001 0.68155 0.0
C969 C 0.85229 0.70935 0.57337 0.0
C970 C 0.85269 0.74109 0.5748 0.0
C971 C 0.85298 0.78854 0.63043 0.0
C972 C 0.85317 0.80415 0.68452 0.0
C973 C 0.85274 0.75665 0.62862 0.0
C974 C 0.85325 0.78728 0.73684 0.0
C975 C 0.85285 0.75555 0.73538 0.0
H976 H 0.80257 0.11836 0.45322 0.0
H977 H 0.79886 0.16328 0.28536 0.0
H978 H 0.74337 0.16634 0.29254 0.0
H979 H 0.69636 0.15897 0.34981 0.0
H980 H 0.69987 0.11088 0.51436 0.0
H981 H 0.75515 0.10629 0.50549 0.0
C982 C 0.78954 0.12858 0.41796 0.0
C983 C 0.80471 0.14089 0.36904 0.0
C984 C 0.75776 0.1299 0.42221 0.0
C985 C 0.78764 0.15361 0.32326 0.0
C986 C 0.75598 0.15553 0.32763 0.0
C987 C 0.70929 0.14747 0.38368 0.0
C988 C 0.69424 0.13575 0.43328 0.0
C989 C 0.74088 0.14427 0.37742 0.0
C990 C 0.71104 0.12024 0.4761 0.0
C991 C 0.74259 0.11765 0.471 0.0
H992 H 0.14283 0.30324 0.71105 0.0
H993 H 0.14385 0.30137 0.52155 0.0
H994 H 0.1445 0.24591 0.52336 0.0
H995 H 0.14572 0.19817 0.57851 0.0
H996 H 0.14422 0.19985 0.76799 0.0
H997 H 0.14266 0.25534 0.76627 0.0
C998 C 0.14324 0.29078 0.67001 0.0
C999 C 0.14351 0.30659 0.61613 0.0
C1000 C 0.14349 0.25888 0.6714 0.0
C1001 C 0.14371 0.28991 0.56358 0.0
C1002 C 0.14409 0.25816 0.56461 0.0
C1003 C 0.14504 0.21058 0.6196 0.0
C1004 C 0.14527 0.19473 0.67342 0.0
C1005 C 0.14414 0.24244 0.61825 0.0
C1006 C 0.14409 0.21135 0.726 0.0
C1007 C 0.14327 0.24311 0.72501 0.0
H1008 H 0.30387 0.85257 0.34111 0.0
H1009 H 0.30301 0.85017 0.53057 0.0
H1010 H 0.24757 0.84899 0.52975 0.0
H1011 H 0.19943 0.84808 0.47544 0.0
H1012 H 0.20018 0.85146 0.28604 0.0
H1013 H 0.25564 0.85288 0.28682 0.0
C1014 C 0.29162 0.85176 0.38233 0.0
C1015 C 0.30772 0.85131 0.43588 0.0
C1016 C 0.2597 0.85126 0.38156 0.0
C1017 C 0.29132 0.85053 0.48873 0.0
C1018 C 0.25958 0.84981 0.48829 0.0
C1019 C 0.21165 0.84908 0.4342 0.0
C1020 C 0.19553 0.84948 0.38067 0.0
C1021 C 0.24354 0.85007 0.43498 0.0
C1022 C 0.21189 0.8511 0.32785 0.0
C1023 C 0.24365 0.85188 0.32827 0.0
H1024 H 0.18804 0.09345 0.86761 0.0
H1025 H 0.26053 0.1165 0.74851 0.0
H1026 H 0.29577 0.12 0.83169 0.0
H1027 H 0.3066 0.11356 0.93792 0.0
H1028 H 0.23352 0.09308 0.05701 0.0
H1029 H 0.19799 0.09105 0.97406 0.0
C1030 C 0.2116 0.09911 0.85952 0.0
C1031 C 0.22164 0.10422 0.80125 0.0
C1032 C 0.23166 0.10128 0.90769 0.0
C1033 C 0.25214 0.1122 0.79239 0.0
C1034 C 0.27234 0.11406 0.84008 0.0
C1035 C 0.28282 0.10881 0.94571 0.0
C1036 C 0.27279 0.10311 1.00365 0.0
C1037 C 0.26245 0.10822 0.8978 0.0
C1038 C 0.24183 0.09762 1.01315 0.0
C1039 C 0.22154 0.09637 0.96558 0.0
H1040 H 0.08611 0.68928 0.12417 0.0
H1041 H 0.11768 0.75715 1.00224 0.0
H1042 H 0.12188 0.79379 0.08315 0.0
H1043 H 0.11438 0.80702 0.18797 0.0
H1044 H 0.08643 0.73778 0.30985 0.0
H1045 H 0.0828 0.70111 0.22903 0.0
C1046 C 0.09395 0.71206 0.11483 0.0
C1047 C 0.10116 0.72043 0.0565 0.0
C1048 C 0.09687 0.73274 0.16166 0.0
C1049 C 0.11163 0.75005 0.04619 0.0
C1050 C 0.11405 0.771 0.09255 0.0
C1051 C 0.10786 0.78376 0.19694 0.0
C1052 C 0.10071 0.77506 0.25506 0.0
C1053 C 0.10643 0.76268 0.15034 0.0
C1054 C 0.09243 0.74489 0.26595 0.0
C1055 C 0.09019 0.72401 0.21963 0.0
H1056 H 0.69172 0.89524 0.93169 0.0
H1057 H 0.76028 0.91148 0.06313 0.0
H1058 H 0.79918 0.91352 0.98626 0.0
H1059 H 0.81348 0.91106 0.88159 0.0
H1060 H 0.74499 0.89229 0.7509 0.0
H1061 H 0.70624 0.89088 0.82779 0.0
C1062 C 0.71516 0.89938 0.9436 0.0
C1063 C 0.72298 0.90365 1.00321 0.0
C1064 C 0.73739 0.90002 0.89923 0.0
C1065 C 0.7536 0.90816 1.01781 0.0
C1066 C 0.77583 0.90937 0.97375 0.0
C1067 C 0.79008 0.9067 0.86963 0.0
C1068 C 0.78226 0.90199 0.81001 0.0
C1069 C 0.76796 0.90544 0.91427 0.0
C1070 C 0.75177 0.89611 0.796 0.0
C1071 C 0.72957 0.89532 0.84004 0.0
H1072 H 0.91035 0.31078 0.13647 0.0
H1073 H 0.88678 0.2444 1.00465 0.0
H1074 H 0.88222 0.20572 0.0811 0.0
H1075 H 0.8878 0.18978 0.18404 0.0
H1076 H 0.90782 0.25642 0.317 0.0
H1077 H 0.91137 0.29582 0.24105 0.0
C1078 C 0.90442 0.28781 0.1241 0.0
C1079 C 0.89937 0.28059 0.06424 0.0
C1080 C 0.90158 0.26558 0.16841 0.0
C1081 C 0.89118 0.2507 0.04983 0.0
C1082 C 0.88871 0.22847 0.09356 0.0
C1083 C 0.89277 0.21296 0.19655 0.0
C1084 C 0.89783 0.22003 0.25625 0.0
C1085 C 0.89424 0.23552 0.15279 0.0
C1086 C 0.90377 0.25031 0.2716 0.0
C1087 C 0.90595 0.27281 0.22808 0.0
H1088 H 0.30826 0.4008 0.37892 0.0
H1089 H 0.24126 0.41556 0.24389 0.0
H1090 H 0.20131 0.41713 0.31868 0.0
H1091 H 0.18547 0.4146 0.42258 0.0
H1092 H 0.25227 0.397 0.557 0.0
H1093 H 0.2922 0.39639 0.48231 0.0
C1094 C 0.28494 0.40455 0.36575 0.0
C1095 C 0.27794 0.40849 0.30559 0.0
C1096 C 0.26202 0.40487 0.40903 0.0
C1097 C 0.24741 0.4125 0.28955 0.0
C1098 C 0.22454 0.41344 0.33247 0.0
C1099 C 0.20874 0.41062 0.43585 0.0
C1100 C 0.21567 0.406 0.49595 0.0
C1101 C 0.23158 0.40973 0.39238 0.0
C1102 C 0.24609 0.4007 0.51154 0.0
C1103 C 0.26899 0.40036 0.46871 0.0
H1104 H 0.40113 0.69206 0.68793 0.0
H1105 H 0.40602 0.76397 0.81611 0.0
H1106 H 0.40873 0.80145 0.73692 0.0
H1107 H 0.40911 0.81389 0.6313 0.0
H1108 H 0.4009 0.74228 0.50305 0.0
H1109 H 0.40006 0.70463 0.5824 0.0
C1110 C 0.40265 0.716 0.69864 0.0
C1111 C 0.40354 0.72516 0.75819 0.0
C1112 C 0.40333 0.73749 0.65276 0.0
C1113 C 0.40513 0.75626 0.77099 0.0
C1114 C 0.40664 0.77771 0.72556 0.0
C1115 C 0.40703 0.79007 0.62041 0.0
C1116 C 0.40522 0.78106 0.56081 0.0
C1117 C 0.40569 0.76862 0.6663 0.0
C1118 C 0.40231 0.75 0.54813 0.0
C1119 C 0.40175 0.72844 0.59355 0.0
H1120 H 0.69371 0.61155 0.36904 0.0
H1121 H 0.7587 0.57205 0.25033 0.0
H1122 H 0.79578 0.56828 0.33062 0.0
H1123 H 0.80965 0.57653 0.43394 0.0
H1124 H 0.74567 0.61902 0.55151 0.0
H1125 H 0.70878 0.62268 0.47123 0.0
C1126 C 0.71613 0.60237 0.3607 0.0
C1127 C 0.72351 0.59201 0.30388 0.0
C1128 C 0.73755 0.60111 0.40661 0.0
C1129 C 0.7526 0.58032 0.29352 0.0
C1130 C 0.77371 0.57809 0.33947 0.0
C1131 C 0.78752 0.5863 0.44254 0.0
C1132 C 0.78036 0.59697 0.49946 0.0
C1133 C 0.76643 0.58841 0.39618 0.0
C1134 C 0.75175 0.6102 0.50873 0.0
C1135 C 0.73062 0.61228 0.46279 0.0
H1136 H 0.61113 0.18852 0.62576 0.0
H1137 H 0.57818 0.25281 0.49773 0.0
H1138 H 0.57262 0.29094 0.57533 0.0
H1139 H 0.57744 0.30612 0.67932 0.0
H1140 H 0.61124 0.24186 0.80639 0.0
H1141 H 0.6159 0.20357 0.72906 0.0
C1142 C 0.60276 0.21088 0.61436 0.0
C1143 C 0.59513 0.21762 0.55532 0.0
C1144 C 0.59962 0.2327 0.65925 0.0
C1145 C 0.58431 0.24683 0.5423 0.0
C1146 C 0.5811 0.26868 0.58684 0.0
C1147 C 0.58568 0.28373 0.69048 0.0
C1148 C 0.59383 0.27706 0.74927 0.0
C1149 C 0.58865 0.26187 0.64548 0.0
C1150 C 0.60462 0.24779 0.76208 0.0
C1151 C 0.60737 0.22586 0.7177 0.0
H1152 H 0.33595 0.13971 0.53493 0.0
H1153 H 0.30039 0.04852 0.53128 0.0
H1154 H 0.31566 0.04122 0.63325 0.0
H1155 H 0.34076 0.05997 0.72269 0.0
H1156 H 0.37621 0.15123 0.72629 0.0
H1157 H 0.36019 0.15877 0.62489 0.0
C1158 C 0.33172 0.11813 0.5562 0.0
C1159 C 0.317 0.09473 0.52504 0.0
C1160 C 0.34087 0.11392 0.61488 0.0
C1161 C 0.31127 0.06714 0.55406 0.0
C1162 C 0.32022 0.06283 0.61241 0.0
C1163 C 0.34475 0.08164 0.70162 0.0
C1164 C 0.35996 0.10488 0.73242 0.0
C1165 C 0.33519 0.086 0.6432 0.0
C1166 C 0.36516 0.13266 0.70368 0.0
C1167 C 0.35577 0.13711 0.64566 0.0
H1168 H 0.11401 0.62883 0.54356 0.0
H1169 H 0.0945 0.72261 0.50453 0.0
H1170 H 0.09296 0.71092 0.40004 0.0
H1171 H 0.09501 0.67367 0.31934 0.0
H1172 H 0.11319 0.57971 0.35878 0.0
H1173 H 0.11656 0.59178 0.46316 0.0
C1174 C 0.10919 0.64673 0.51232 0.0
C1175 C 0.1044 0.67662 0.53239 0.0
C1176 C 0.1078 0.63976 0.45205 0.0
C1177 C 0.09877 0.69951 0.49073 0.0
C1178 C 0.09762 0.69278 0.43074 0.0
C1179 C 0.10001 0.65587 0.35061 0.0
C1180 C 0.10368 0.62576 0.33089 0.0
C1181 C 0.1019 0.66296 0.41084 0.0
C1182 C 0.10979 0.60299 0.37251 0.0
C1183 C 0.1119 0.60989 0.43231 0.0
H1184 H 0.62995 0.90234 0.51029 0.0
H1185 H 0.72445 0.88881 0.55254 0.0
H1186 H 0.71218 0.88789 0.65705 0.0
H1187 H 0.67458 0.89088 0.73671 0.0
H1188 H 0.58016 0.90477 0.69416 0.0
H1189 H 0.59238 0.90481 0.58974 0.0
C1190 C 0.64785 0.89882 0.54227 0.0
C1191 C 0.67811 0.89567 0.52331 0.0
C1192 C 0.64063 0.89825 0.60243 0.0
C1193 C 0.70102 0.89167 0.56569 0.0
C1194 C 0.694 0.891 0.62557 0.0
C1195 C 0.65668 0.89414 0.7047 0.0
C1196 C 0.62644 0.89777 0.72365 0.0
C1197 C 0.6639 0.8944 0.6445 0.0
C1198 C 0.60355 0.90148 0.68114 0.0
C1199 C 0.61055 0.90172 0.62128 0.0
H1200 H 0.9051 0.32948 0.32967 0.0
H1201 H 0.88105 0.422 0.37058 0.0
H1202 H 0.88007 0.40977 0.47497 0.0
H1203 H 0.88603 0.37295 0.55488 0.0
H1204 H 0.91038 0.28045 0.51439 0.0
H1205 H 0.91035 0.29237 0.40975 0.0
C1206 C 0.8993 0.34691 0.36129 0.0
C1207 C 0.8933 0.37668 0.34201 0.0
C1208 C 0.89866 0.3397 0.42148 0.0
C1209 C 0.88625 0.39902 0.38399 0.0
C1210 C 0.8855 0.39201 0.44379 0.0
C1211 C 0.89159 0.35542 0.52328 0.0
C1212 C 0.89826 0.32585 0.54282 0.0
C1213 C 0.89183 0.36248 0.46308 0.0
C1214 C 0.90481 0.30333 0.50085 0.0
C1215 C 0.905 0.31017 0.44089 0.0
H1216 H 0.32583 0.39256 0.57294 0.0
H1217 H 0.42043 0.40502 0.61581 0.0
H1218 H 0.40814 0.40526 0.72017 0.0
H1219 H 0.3705 0.40365 0.79938 0.0
H1220 H 0.27582 0.39146 0.75707 0.0
H1221 H 0.28813 0.39014 0.65254 0.0
C1222 C 0.34376 0.39552 0.60504 0.0
C1223 C 0.37405 0.39873 0.58623 0.0
C1224 C 0.3365 0.39591 0.66522 0.0
C1225 C 0.39698 0.40207 0.62877 0.0
C1226 C 0.38996 0.40242 0.68858 0.0
C1227 C 0.35257 0.40029 0.76742 0.0
C1228 C 0.32226 0.39767 0.78633 0.0
C1229 C 0.3598 0.39946 0.70732 0.0
C1230 C 0.2993 0.39391 0.74394 0.0
C1231 C 0.30634 0.393 0.68408 0.0
H1232 H 0.37515 0.7038 0.31207 0.0
H1233 H 0.4387 0.63641 0.25103 0.0
H1234 H 0.44106 0.6143 0.34907 0.0
H1235 H 0.42475 0.61356 0.45178 0.0
H1236 H 0.36196 0.6815 0.51401 0.0
H1237 H 0.3592 0.70337 0.41594 0.0
C1238 C 0.38939 0.68419 0.32025 0.0
C1239 C 0.40681 0.67189 0.27425 0.0
C1240 C 0.39067 0.67151 0.37695 0.0
C1241 C 0.42538 0.64663 0.28575 0.0
C1242 C 0.42662 0.63383 0.34177 0.0
C1243 C 0.41069 0.63336 0.44427 0.0
C1244 C 0.3937 0.64579 0.49081 0.0
C1245 C 0.40941 0.64609 0.38774 0.0
C1246 C 0.37509 0.67108 0.47931 0.0
C1247 C 0.37361 0.6838 0.42313 0.0
H1248 H 0.70838 0.59583 0.74627 0.0
H1249 H 0.61916 0.60823 0.82075 0.0
H1250 H 0.59689 0.60768 0.72291 0.0
H1251 H 0.60234 0.60247 0.61589 0.0
H1252 H 0.69112 0.58632 0.54282 0.0
H1253 H 0.71358 0.58871 0.64007 0.0
C1254 C 0.68402 0.5981 0.74141 0.0
C1255 C 0.66569 0.60236 0.79137 0.0
C1256 C 0.67111 0.59694 0.68493 0.0
C1257 C 0.63413 0.60567 0.78344 0.0
C1258 C 0.62123 0.60504 0.72734 0.0
C1259 C 0.62664 0.59979 0.62103 0.0
C1260 C 0.64497 0.59482 0.57127 0.0
C1261 C 0.63948 0.60068 0.67769 0.0
C1262 C 0.67634 0.59051 0.57963 0.0
C1263 C 0.68929 0.59184 0.63554 0.0
H1264 H 0.60286 0.32197 0.48405 0.0
H1265 H 0.60209 0.41709 0.43967 0.0
H1266 H 0.60282 0.40441 0.33535 0.0
H1267 H 0.60223 0.36649 0.25661 0.0
H1268 H 0.60436 0.27127 0.3003 0.0
H1269 H 0.60388 0.28382 0.40471 0.0
C1270 C 0.60272 0.33991 0.45153 0.0
C1271 C 0.60244 0.37047 0.46983 0.0
C1272 C 0.60319 0.33246 0.39138 0.0
C1273 C 0.60266 0.39342 0.42698 0.0
C1274 C 0.60291 0.38618 0.36723 0.0
C1275 C 0.60308 0.34842 0.2888 0.0
C1276 C 0.60327 0.31792 0.27015 0.0
C1277 C 0.60314 0.3558 0.3489 0.0
C1278 C 0.60374 0.29492 0.31301 0.0
C1279 C 0.60364 0.30209 0.37289 0.0
H1280 H 0.79459 0.60224 0.05826 0.0
H1281 H 0.88452 0.59639 0.98402 0.0
H1282 H 0.90668 0.59867 0.0818 0.0
H1283 H 0.90088 0.60225 0.18858 0.0
H1284 H 0.81124 0.61015 0.26284 0.0
H1285 H 0.78893 0.60808 0.16521 0.0
C1286 C 0.81905 0.60178 0.06328 0.0
C1287 C 0.8377 0.5987 1.0134 0.0
C1288 C 0.83184 0.60361 0.11989 0.0
C1289 C 0.8694 0.59794 1.02133 0.0
C1290 C 0.8822 0.59953 0.07738 0.0
C1291 C 0.87644 0.60324 0.18367 0.0
C1292 C 0.85786 0.60573 0.23376 0.0
C1293 C 0.86366 0.60217 0.12704 0.0
C1294 C 0.82625 0.60797 0.22568 0.0
C1295 C 0.81338 0.60675 0.16959 0.0
H1296 H 0.59956 0.17593 0.82147 0.0
H1297 H 0.5964 0.08048 0.8638 0.0
H1298 H 0.599 0.0925 0.96791 0.0
H1299 H 0.60196 0.12982 0.04754 0.0
H1300 H 0.60192 0.22533 1.00628 0.0
H1301 H 0.60059 0.21348 0.90163 0.0
C1302 C 0.59912 0.15769 0.85326 0.0
C1303 C 0.59803 0.12724 0.83398 0.0
C1304 C 0.60004 0.16475 0.91363 0.0
C1305 C 0.59792 0.10409 0.87657 0.0
C1306 C 0.59912 0.11094 0.93646 0.0
C1307 C 0.60125 0.14812 1.01583 0.0
C1308 C 0.60206 0.17849 0.03528 0.0
C1309 C 0.60014 0.14116 0.95554 0.0
C1310 C 0.60177 0.20176 0.99299 0.0
C1311 C 0.60083 0.19499 0.93293 0.0
H1312 H 0.14722 0.3633 0.21709 0.0
H1313 H 0.10499 0.45154 0.208 0.0
H1314 H 0.12059 0.45656 0.10596 0.0
H1315 H 0.1459 0.43604 1.01888 0.0
H1316 H 0.18865 0.34813 1.0272 0.0
H1317 H 0.17402 0.34335 0.13029 0.0
C1318 C 0.14166 0.38376 0.19304 0.0
C1319 C 0.12458 0.40683 0.22038 0.0
C1320 C 0.15099 0.3867 0.1342 0.0
C1321 C 0.11745 0.43307 0.18802 0.0
C1322 C 0.12659 0.43611 0.12964 0.0
C1323 C 0.15187 0.41572 0.04308 0.0
C1324 C 0.16821 0.39241 1.01504 0.0
C1325 C 0.14318 0.41301 0.10217 0.0
C1326 C 0.1763 0.36655 0.04764 0.0
C1327 C 0.16776 0.3637 0.10656 0.0
H1328 H 0.43841 0.84381 0.03043 0.0
H1329 H 0.34658 0.8101 1.029 0.0
H1330 H 0.34077 0.82605 0.92678 0.0
H1331 H 0.3611 0.8516 0.83879 0.0
H1332 H 0.45373 0.88362 0.84027 0.0
H1333 H 0.45945 0.86705 0.94143 0.0
C1334 C 0.41706 0.84005 1.00788 0.0
C1335 C 0.39293 0.82591 0.03775 0.0
C1336 C 0.41384 0.84934 0.94905 0.0
C1337 C 0.36564 0.82071 1.0072 0.0
C1338 C 0.36223 0.83002 0.94874 0.0
C1339 C 0.38267 0.85472 0.86084 0.0
C1340 C 0.40673 0.86946 0.8315 0.0
C1341 C 0.38611 0.84459 0.91927 0.0
C1342 C 0.43441 0.87327 0.86164 0.0
C1343 C 0.43787 0.86349 0.91962 0.0
H1344 H 0.84605 0.93523 0.28137 0.0
H1345 H 0.81174 0.84357 0.27976 0.0
H1346 H 0.82681 0.83808 0.17715 0.0
H1347 H 0.85175 0.85856 0.08867 0.0
H1348 H 0.88613 0.95023 0.09126 0.0
H1349 H 0.86974 0.95604 0.19273 0.0
C1350 C 0.84203 0.91394 0.25882 0.0
C1351 C 0.82784 0.88983 0.28873 0.0
C1352 C 0.85108 0.91078 0.19989 0.0
C1353 C 0.8223 0.86267 0.25801 0.0
C1354 C 0.83113 0.85941 0.19929 0.0
C1355 C 0.85543 0.87991 0.1112 0.0
C1356 C 0.87055 0.90377 0.08215 0.0
C1357 C 0.84575 0.88323 0.16985 0.0
C1358 C 0.87523 0.93119 0.11257 0.0
C1359 C 0.86563 0.93465 0.17064 0.0
H1360 H 0.89165 0.08846 0.94279 0.0
H1361 H 0.90958 0.17745 1.01287 0.0
H1362 H 0.90779 0.19914 0.91439 0.0
H1363 H 0.90215 0.19265 0.80788 0.0
H1364 H 0.88545 0.10345 0.73691 0.0
H1365 H 0.88621 0.08193 0.83571 0.0
C1366 C 0.89526 0.11256 0.93629 0.0
C1367 C 0.90014 0.13147 0.98509 0.0
C1368 C 0.89458 0.1248 0.87929 0.0
C1369 C 0.90483 0.16265 0.97615 0.0
C1370 C 0.90411 0.17499 0.91979 0.0
C1371 C 0.89834 0.16856 0.81413 0.0
C1372 C 0.89374 0.14971 0.76512 0.0
C1373 C 0.89892 0.15631 0.87102 0.0
C1374 C 0.88933 0.11843 0.77387 0.0
C1375 C 0.88967 0.10611 0.83037 0.0
H1376 H 0.13604 0.13969 0.08445 0.0
H1377 H 0.15749 0.04512 0.05915 0.0
H1378 H 0.17772 0.04223 0.15875 0.0
H1379 H 0.18815 0.06605 0.25435 0.0
H1380 H 0.16622 0.16045 0.2805 0.0
H1381 H 0.14812 0.16401 0.17937 0.0
C1382 C 0.14537 0.11851 0.10055 0.0
C1383 C 0.1448 0.09256 0.06433 0.0
C1384 C 0.15701 0.11696 0.15821 0.0
C1385 C 0.15695 0.0653 0.08626 0.0
C1386 C 0.16873 0.06366 0.14322 0.0
C1387 C 0.17931 0.0874 0.23807 0.0
C1388 C 0.17852 0.1129 0.27544 0.0
C1389 C 0.16856 0.08923 0.17988 0.0
C1390 C 0.16748 0.1405 0.25287 0.0
C1391 C 0.15688 0.14252 0.19501 0.0
H1392 H 0.09132 0.78974 0.81466 0.0
H1393 H 0.12152 0.87544 0.7441 0.0
H1394 H 0.1207 0.89766 0.84199 0.0
H1395 H 0.11013 0.89346 0.94756 0.0
H1396 H 0.07766 0.80845 1.01726 0.0
H1397 H 0.07991 0.78579 0.91998 0.0
C1398 C 0.0975 0.81335 0.82045 0.0
C1399 C 0.10669 0.83068 0.7716 0.0
C1400 C 0.0964 0.82632 0.87695 0.0
C1401 C 0.11498 0.8612 0.78065 0.0
C1402 C 0.11425 0.8741 0.83673 0.0
C1403 C 0.10386 0.86987 0.94178 0.0
C1404 C 0.0941 0.85273 0.99046 0.0
C1405 C 0.10494 0.85691 0.88525 0.0
C1406 C 0.08531 0.82238 0.98116 0.0
C1407 C 0.08664 0.80928 0.9253 0.0
loop_
_geom_bond_atom_site_label_1
_geom_bond_atom_site_label_2
_geom_bond_distance
_geom_bond_site_symmetry_2
_ccdc_geom_bond_type
Dy0 O3 2.307 . S
Dy0 O5 2.395 1_554 S
Dy0 O6 2.379 1_554 S
Dy0 O8 2.339 . S
Dy0 O10 2.298 . S
Dy0 O14 2.275 . S
Dy0 C22 2.738 1_554 S
Dy1 O4 2.298 . S
Dy1 O7 2.275 . S
Dy1 O9 2.307 . S
Dy1 O11 2.395 . S
Dy1 O12 2.379 . S
Dy1 O15 2.339 . S
Dy1 C31 2.738 . S
C2 O14 1.254 . S
C2 O15 1.257 . S
O3 Dy0 2.307 . S
O3 C13 1.266 . S
O4 Dy1 2.298 . S
O4 C13 1.236 . S
O5 Dy0 2.395 1_556 S
O5 C22 1.255 . S
O6 Dy0 2.379 1_556 S
O6 C22 1.249 . S
O7 Dy1 2.275 . S
O7 C23 1.254 . S
O8 Dy0 2.339 . S
O8 C23 1.257 . S
O9 Dy1 2.307 . S
O9 C24 1.266 . S
O10 Dy0 2.298 . S
O10 C24 1.236 . S
O11 Dy1 2.395 . S
O11 C31 1.255 . S
O12 Dy1 2.379 . S
O12 C31 1.249 . S
C13 O3 1.266 . S
C13 O4 1.236 . S
O14 Dy0 2.275 . S
O14 C2 1.254 . S
O15 Dy1 2.339 . S
O15 C2 1.257 . S
C16 C19 1.344 . S
C16 C20 1.328 . S
C16 C22 1.516 . S
C17 C18 1.304 . S
C17 C21 1.323 . S
C18 C17 1.304 . S
C18 C19 1.371 . S
C18 H32 0.930 . S
C19 C16 1.344 . S
C19 C18 1.371 . S
C19 H33 0.931 . S
C20 C16 1.328 . S
C20 C21 1.433 . S
C20 H34 0.931 . S
C21 C17 1.323 . S
C21 C20 1.433 . S
C21 H35 0.933 . S
C22 Dy0 2.738 1_556 S
C22 O5 1.255 . S
C22 O6 1.249 . S
C22 C16 1.516 . S
C23 O7 1.254 . S
C23 O8 1.257 . S
C24 O9 1.266 . S
C24 O10 1.236 . S
C25 C28 1.344 . S
C25 C29 1.328 . S
C25 C31 1.516 . S
C26 C27 1.304 . S
C26 C30 1.323 . S
C27 C26 1.304 . S
C27 C28 1.371 . S
C27 H36 0.930 . S
C28 C25 1.344 . S
C28 C27 1.371 . S
C28 H37 0.931 . S
C29 C25 1.328 . S
C29 C30 1.433 . S
C29 H38 0.931 . S
C30 C26 1.323 . S
C30 C29 1.433 . S
C30 H39 0.933 . S
C31 Dy1 2.738 . S
C31 O11 1.255 . S
C31 O12 1.249 . S
C31 C25 1.516 . S
H32 C18 0.930 . S
H33 C19 0.931 . S
H34 C20 0.931 . S
H35 C21 0.933 . S
H36 C27 0.930 . S
H37 C28 0.931 . S
H38 C29 0.931 . S
H39 C30 0.933 . S
Dy40 O43 2.307 . S
Dy40 O45 2.395 . S
Dy40 O46 2.379 . S
Dy40 O48 2.339 . S
Dy40 O50 2.298 . S
Dy40 O54 2.275 . S
Dy40 C62 2.738 . S
Dy41 O44 2.298 . S
Dy41 O47 2.275 . S
Dy41 O49 2.307 . S
Dy41 O51 2.395 1_556 S
Dy41 O52 2.379 1_556 S
Dy41 O55 2.339 . S
Dy41 C71 2.738 1_556 S
C42 O54 1.254 . S
C42 O55 1.257 . S
O43 Dy40 2.307 . S
O43 C53 1.266 . S
O44 Dy41 2.298 . S
O44 C53 1.236 . S
O45 Dy40 2.395 . S
O45 C62 1.255 . S
O46 Dy40 2.379 . S
O46 C62 1.249 . S
O47 Dy41 2.275 . S
O47 C63 1.254 . S
O48 Dy40 2.339 . S
O48 C63 1.257 . S
O49 Dy41 2.307 . S
O49 C64 1.266 . S
O50 Dy40 2.298 . S
O50 C64 1.236 . S
O51 Dy41 2.395 1_554 S
O51 C71 1.255 . S
O52 Dy41 2.379 1_554 S
O52 C71 1.249 . S
C53 O43 1.266 . S
C53 O44 1.236 . S
O54 Dy40 2.275 . S
O54 C42 1.254 . S
O55 Dy41 2.339 . S
O55 C42 1.257 . S
C56 C59 1.344 . S
C56 C60 1.328 . S
C56 C62 1.516 . S
C57 C58 1.304 . S
C57 C61 1.323 . S
C58 C57 1.304 . S
C58 C59 1.371 . S
C58 H72 0.930 . S
C59 C56 1.344 . S
C59 C58 1.371 . S
C59 H73 0.931 . S
C60 C56 1.328 . S
C60 C61 1.433 . S
C60 H74 0.931 . S
C61 C57 1.323 . S
C61 C60 1.433 . S
C61 H75 0.933 . S
C62 Dy40 2.738 . S
C62 O45 1.255 . S
C62 O46 1.249 . S
C62 C56 1.516 . S
C63 O47 1.254 . S
C63 O48 1.257 . S
C64 O49 1.266 . S
C64 O50 1.236 . S
C65 C68 1.344 . S
C65 C69 1.328 . S
C65 C71 1.516 . S
C66 C67 1.304 . S
C66 C70 1.323 . S
C67 C66 1.304 . S
C67 C68 1.371 . S
C67 H76 0.930 . S
C68 C65 1.344 . S
C68 C67 1.371 . S
C68 H77 0.931 . S
C69 C65 1.328 . S
C69 C70 1.433 . S
C69 H78 0.931 . S
C70 C66 1.323 . S
C70 C69 1.433 . S
C70 H79 0.933 . S
C71 Dy41 2.738 1_554 S
C71 O51 1.255 . S
C71 O52 1.249 . S
C71 C65 1.516 . S
H72 C58 0.930 . S
H73 C59 0.931 . S
H74 C60 0.931 . S
H75 C61 0.933 . S
H76 C67 0.930 . S
H77 C68 0.931 . S
H78 C69 0.931 . S
H79 C70 0.933 . S
Dy80 O83 2.307 . S
Dy80 O85 2.395 1_554 S
Dy80 O86 2.379 1_554 S
Dy80 O88 2.339 . S
Dy80 O90 2.298 . S
Dy80 O94 2.275 . S
Dy80 C102 2.738 1_554 S
Dy81 O84 2.298 . S
Dy81 O87 2.275 . S
Dy81 O89 2.307 . S
Dy81 O91 2.395 . S
Dy81 O92 2.379 . S
Dy81 O95 2.339 . S
Dy81 C111 2.738 . S
C82 O94 1.254 . S
C82 O95 1.257 . S
O83 Dy80 2.307 . S
O83 C93 1.266 . S
O84 Dy81 2.298 . S
O84 C93 1.236 . S
O85 Dy80 2.395 1_556 S
O85 C102 1.255 . S
O86 Dy80 2.379 1_556 S
O86 C102 1.249 . S
O87 Dy81 2.275 . S
O87 C103 1.254 . S
O88 Dy80 2.339 . S
O88 C103 1.257 . S
O89 Dy81 2.307 . S
O89 C104 1.266 . S
O90 Dy80 2.298 . S
O90 C104 1.236 . S
O91 Dy81 2.395 . S
O91 C111 1.255 . S
O92 Dy81 2.379 . S
O92 C111 1.249 . S
C93 O83 1.266 . S
C93 O84 1.236 . S
O94 Dy80 2.275 . S
O94 C82 1.254 . S
O95 Dy81 2.339 . S
O95 C82 1.257 . S
C96 C99 1.344 . S
C96 C100 1.328 . S
C96 C102 1.516 . S
C97 C98 1.304 . S
C97 C101 1.323 . S
C98 C97 1.304 . S
C98 C99 1.371 . S
C98 H112 0.930 . S
C99 C96 1.344 . S
C99 C98 1.371 . S
C99 H113 0.931 . S
C100 C96 1.328 . S
C100 C101 1.433 . S
C100 H114 0.931 . S
C101 C97 1.323 . S
C101 C100 1.433 . S
C101 H115 0.933 . S
C102 Dy80 2.738 1_556 S
C102 O85 1.255 . S
C102 O86 1.249 . S
C102 C96 1.516 . S
C103 O87 1.254 . S
C103 O88 1.257 . S
C104 O89 1.266 . S
C104 O90 1.236 . S
C105 C108 1.344 . S
C105 C109 1.328 . S
C105 C111 1.516 . S
C106 C107 1.304 . S
C106 C110 1.323 . S
C107 C106 1.304 . S
C107 C108 1.371 . S
C107 H116 0.930 . S
C108 C105 1.344 . S
C108 C107 1.371 . S
C108 H117 0.931 . S
C109 C105 1.328 . S
C109 C110 1.433 . S
C109 H118 0.931 . S
C110 C106 1.323 . S
C110 C109 1.433 . S
C110 H119 0.933 . S
C111 Dy81 2.738 . S
C111 O91 1.255 . S
C111 O92 1.249 . S
C111 C105 1.516 . S
H112 C98 0.930 . S
H113 C99 0.931 . S
H114 C100 0.931 . S
H115 C101 0.933 . S
H116 C107 0.930 . S
H117 C108 0.931 . S
H118 C109 0.931 . S
H119 C110 0.933 . S
Dy120 O123 2.307 . S
Dy120 O125 2.395 . S
Dy120 O126 2.379 . S
Dy120 O128 2.339 . S
Dy120 O130 2.298 . S
Dy120 O134 2.275 . S
Dy120 C142 2.738 . S
Dy121 O124 2.298 . S
Dy121 O127 2.275 . S
Dy121 O129 2.307 . S
Dy121 O131 2.395 1_556 S
Dy121 O132 2.379 1_556 S
Dy121 O135 2.339 . S
Dy121 C151 2.738 1_556 S
C122 O134 1.254 . S
C122 O135 1.257 . S
O123 Dy120 2.307 . S
O123 C133 1.266 . S
O124 Dy121 2.298 . S
O124 C133 1.236 . S
O125 Dy120 2.395 . S
O125 C142 1.255 . S
O126 Dy120 2.379 . S
O126 C142 1.249 . S
O127 Dy121 2.275 . S
O127 C143 1.254 . S
O128 Dy120 2.339 . S
O128 C143 1.257 . S
O129 Dy121 2.307 . S
O129 C144 1.266 . S
O130 Dy120 2.298 . S
O130 C144 1.236 . S
O131 Dy121 2.395 1_554 S
O131 C151 1.255 . S
O132 Dy121 2.379 1_554 S
O132 C151 1.249 . S
C133 O123 1.266 . S
C133 O124 1.236 . S
O134 Dy120 2.275 . S
O134 C122 1.254 . S
O135 Dy121 2.339 . S
O135 C122 1.257 . S
C136 C139 1.344 . S
C136 C140 1.328 . S
C136 C142 1.516 . S
C137 C138 1.304 . S
C137 C141 1.323 . S
C138 C137 1.304 . S
C138 C139 1.371 . S
C138 H152 0.930 . S
C139 C136 1.344 . S
C139 C138 1.371 . S
C139 H153 0.931 . S
C140 C136 1.328 . S
C140 C141 1.433 . S
C140 H154 0.931 . S
C141 C137 1.323 . S
C141 C140 1.433 . S
C141 H155 0.933 . S
C142 Dy120 2.738 . S
C142 O125 1.255 . S
C142 O126 1.249 . S
C142 C136 1.516 . S
C143 O127 1.254 . S
C143 O128 1.257 . S
C144 O129 1.266 . S
C144 O130 1.236 . S
C145 C148 1.344 . S
C145 C149 1.328 . S
C145 C151 1.516 . S
C146 C147 1.304 . S
C146 C150 1.323 . S
C147 C146 1.304 . S
C147 C148 1.371 . S
C147 H156 0.930 . S
C148 C145 1.344 . S
C148 C147 1.371 . S
C148 H157 0.931 . S
C149 C145 1.328 . S
C149 C150 1.433 . S
C149 H158 0.931 . S
C150 C146 1.323 . S
C150 C149 1.433 . S
C150 H159 0.933 . S
C151 Dy121 2.738 1_554 S
C151 O131 1.255 . S
C151 O132 1.249 . S
C151 C145 1.516 . S
H152 C138 0.930 . S
H153 C139 0.931 . S
H154 C140 0.931 . S
H155 C141 0.933 . S
H156 C147 0.930 . S
H157 C148 0.931 . S
H158 C149 0.931 . S
H159 C150 0.933 . S
Dy160 O163 2.307 . S
Dy160 O165 2.395 . S
Dy160 O166 2.379 . S
Dy160 O168 2.339 . S
Dy160 O170 2.298 . S
Dy160 O174 2.275 . S
Dy160 C182 2.738 . S
Dy161 O164 2.298 . S
Dy161 O167 2.275 . S
Dy161 O169 2.307 . S
Dy161 O171 2.395 1_554 S
Dy161 O172 2.379 1_554 S
Dy161 O175 2.339 . S
Dy161 C191 2.738 1_554 S
C162 O174 1.254 . S
C162 O175 1.257 . S
O163 Dy160 2.307 . S
O163 C173 1.266 . S
O164 Dy161 2.298 . S
O164 C173 1.236 . S
O165 Dy160 2.395 . S
O165 C182 1.255 . S
O166 Dy160 2.379 . S
O166 C182 1.249 . S
O167 Dy161 2.275 . S
O167 C183 1.254 . S
O168 Dy160 2.339 . S
O168 C183 1.257 . S
O169 Dy161 2.307 . S
O169 C184 1.266 . S
O170 Dy160 2.298 . S
O170 C184 1.236 . S
O171 Dy161 2.395 1_556 S
O171 C191 1.255 . S
O172 Dy161 2.379 1_556 S
O172 C191 1.249 . S
C173 O163 1.266 . S
C173 O164 1.236 . S
O174 Dy160 2.275 . S
O174 C162 1.254 . S
O175 Dy161 2.339 . S
O175 C162 1.257 . S
C176 C179 1.344 . S
C176 C180 1.328 . S
C176 C182 1.516 . S
C177 C178 1.304 . S
C177 C181 1.323 . S
C178 C177 1.304 . S
C178 C179 1.371 . S
C178 H192 0.930 . S
C179 C176 1.344 . S
C179 C178 1.371 . S
C179 H193 0.931 . S
C180 C176 1.328 . S
C180 C181 1.433 . S
C180 H194 0.931 . S
C181 C177 1.323 . S
C181 C180 1.433 . S
C181 H195 0.933 . S
C182 Dy160 2.738 . S
C182 O165 1.255 . S
C182 O166 1.249 . S
C182 C176 1.516 . S
C183 O167 1.254 . S
C183 O168 1.257 . S
C184 O169 1.266 . S
C184 O170 1.236 . S
C185 C188 1.344 . S
C185 C189 1.328 . S
C185 C191 1.516 . S
C186 C187 1.304 . S
C186 C190 1.323 . S
C187 C186 1.304 . S
C187 C188 1.371 . S
C187 H196 0.930 . S
C188 C185 1.344 . S
C188 C187 1.371 . S
C188 H197 0.931 . S
C189 C185 1.328 . S
C189 C190 1.433 . S
C189 H198 0.931 . S
C190 C186 1.323 . S
C190 C189 1.433 . S
C190 H199 0.933 . S
C191 Dy161 2.738 1_556 S
C191 O171 1.255 . S
C191 O172 1.249 . S
C191 C185 1.516 . S
H192 C178 0.930 . S
H193 C179 0.931 . S
H194 C180 0.931 . S
H195 C181 0.933 . S
H196 C187 0.930 . S
H197 C188 0.931 . S
H198 C189 0.931 . S
H199 C190 0.933 . S
Dy200 O203 2.307 . S
Dy200 O205 2.395 1_556 S
Dy200 O206 2.379 1_556 S
Dy200 O208 2.339 . S
Dy200 O210 2.298 . S
Dy200 O214 2.275 . S
Dy200 C222 2.738 1_556 S
Dy201 O204 2.298 . S
Dy201 O207 2.275 . S
Dy201 O209 2.307 . S
Dy201 O211 2.395 . S
Dy201 O212 2.379 . S
Dy201 O215 2.339 . S
Dy201 C231 2.738 . S
C202 O214 1.254 . S
C202 O215 1.257 . S
O203 Dy200 2.307 . S
O203 C213 1.266 . S
O204 Dy201 2.298 . S
O204 C213 1.236 . S
O205 Dy200 2.395 1_554 S
O205 C222 1.255 . S
O206 Dy200 2.379 1_554 S
O206 C222 1.249 . S
O207 Dy201 2.275 . S
O207 C223 1.254 . S
O208 Dy200 2.339 . S
O208 C223 1.257 . S
O209 Dy201 2.307 . S
O209 C224 1.266 . S
O210 Dy200 2.298 . S
O210 C224 1.236 . S
O211 Dy201 2.395 . S
O211 C231 1.255 . S
O212 Dy201 2.379 . S
O212 C231 1.249 . S
C213 O203 1.266 . S
C213 O204 1.236 . S
O214 Dy200 2.275 . S
O214 C202 1.254 . S
O215 Dy201 2.339 . S
O215 C202 1.257 . S
C216 C219 1.344 . S
C216 C220 1.328 . S
C216 C222 1.516 . S
C217 C218 1.304 . S
C217 C221 1.323 . S
C218 C217 1.304 . S
C218 C219 1.371 . S
C218 H232 0.930 . S
C219 C216 1.344 . S
C219 C218 1.371 . S
C219 H233 0.931 . S
C220 C216 1.328 . S
C220 C221 1.433 . S
C220 H234 0.931 . S
C221 C217 1.323 . S
C221 C220 1.433 . S
C221 H235 0.933 . S
C222 Dy200 2.738 1_554 S
C222 O205 1.255 . S
C222 O206 1.249 . S
C222 C216 1.516 . S
C223 O207 1.254 . S
C223 O208 1.257 . S
C224 O209 1.266 . S
C224 O210 1.236 . S
C225 C228 1.344 . S
C225 C229 1.328 . S
C225 C231 1.516 . S
C226 C227 1.304 . S
C226 C230 1.323 . S
C227 C226 1.304 . S
C227 C228 1.371 . S
C227 H236 0.930 . S
C228 C225 1.344 . S
C228 C227 1.371 . S
C228 H237 0.931 . S
C229 C225 1.328 . S
C229 C230 1.433 . S
C229 H238 0.931 . S
C230 C226 1.323 . S
C230 C229 1.433 . S
C230 H239 0.933 . S
C231 Dy201 2.738 . S
C231 O211 1.255 . S
C231 O212 1.249 . S
C231 C225 1.516 . S
H232 C218 0.930 . S
H233 C219 0.931 . S
H234 C220 0.931 . S
H235 C221 0.933 . S
H236 C227 0.930 . S
H237 C228 0.931 . S
H238 C229 0.931 . S
H239 C230 0.933 . S
Dy240 O243 2.307 . S
Dy240 O245 2.395 . S
Dy240 O246 2.379 . S
Dy240 O248 2.339 . S
Dy240 O250 2.298 . S
Dy240 O254 2.275 . S
Dy240 C262 2.738 . S
Dy241 O244 2.298 . S
Dy241 O247 2.275 . S
Dy241 O249 2.307 . S
Dy241 O251 2.395 1_554 S
Dy241 O252 2.379 1_554 S
Dy241 O255 2.339 . S
Dy241 C271 2.738 1_554 S
C242 O254 1.254 . S
C242 O255 1.257 . S
O243 Dy240 2.307 . S
O243 C253 1.266 . S
O244 Dy241 2.298 . S
O244 C253 1.236 . S
O245 Dy240 2.395 . S
O245 C262 1.255 . S
O246 Dy240 2.379 . S
O246 C262 1.249 . S
O247 Dy241 2.275 . S
O247 C263 1.254 . S
O248 Dy240 2.339 . S
O248 C263 1.257 . S
O249 Dy241 2.307 . S
O249 C264 1.266 . S
O250 Dy240 2.298 . S
O250 C264 1.236 . S
O251 Dy241 2.395 1_556 S
O251 C271 1.255 . S
O252 Dy241 2.379 1_556 S
O252 C271 1.249 . S
C253 O243 1.266 . S
C253 O244 1.236 . S
O254 Dy240 2.275 . S
O254 C242 1.254 . S
O255 Dy241 2.339 . S
O255 C242 1.257 . S
C256 C259 1.344 . S
C256 C260 1.328 . S
C256 C262 1.516 . S
C257 C258 1.304 . S
C257 C261 1.323 . S
C258 C257 1.304 . S
C258 C259 1.371 . S
C258 H272 0.930 . S
C259 C256 1.344 . S
C259 C258 1.371 . S
C259 H273 0.931 . S
C260 C256 1.328 . S
C260 C261 1.433 . S
C260 H274 0.931 . S
C261 C257 1.323 . S
C261 C260 1.433 . S
C261 H275 0.933 . S
C262 Dy240 2.738 . S
C262 O245 1.255 . S
C262 O246 1.249 . S
C262 C256 1.516 . S
C263 O247 1.254 . S
C263 O248 1.257 . S
C264 O249 1.266 . S
C264 O250 1.236 . S
C265 C268 1.344 . S
C265 C269 1.328 . S
C265 C271 1.516 . S
C266 C267 1.304 . S
C266 C270 1.323 . S
C267 C266 1.304 . S
C267 C268 1.371 . S
C267 H276 0.930 . S
C268 C265 1.344 . S
C268 C267 1.371 . S
C268 H277 0.931 . S
C269 C265 1.328 . S
C269 C270 1.433 . S
C269 H278 0.931 . S
C270 C266 1.323 . S
C270 C269 1.433 . S
C270 H279 0.933 . S
C271 Dy241 2.738 1_556 S
C271 O251 1.255 . S
C271 O252 1.249 . S
C271 C265 1.516 . S
H272 C258 0.930 . S
H273 C259 0.931 . S
H274 C260 0.931 . S
H275 C261 0.933 . S
H276 C267 0.930 . S
H277 C268 0.931 . S
H278 C269 0.931 . S
H279 C270 0.933 . S
Dy280 O283 2.307 . S
Dy280 O285 2.395 1_556 S
Dy280 O286 2.379 1_556 S
Dy280 O288 2.339 . S
Dy280 O290 2.298 . S
Dy280 O294 2.275 . S
Dy280 C302 2.738 1_556 S
Dy281 O284 2.298 . S
Dy281 O287 2.275 . S
Dy281 O289 2.307 . S
Dy281 O291 2.395 . S
Dy281 O292 2.379 . S
Dy281 O295 2.339 . S
Dy281 C311 2.738 . S
C282 O294 1.254 . S
C282 O295 1.257 . S
O283 Dy280 2.307 . S
O283 C293 1.266 . S
O284 Dy281 2.298 . S
O284 C293 1.236 . S
O285 Dy280 2.395 1_554 S
O285 C302 1.255 . S
O286 Dy280 2.379 1_554 S
O286 C302 1.249 . S
O287 Dy281 2.275 . S
O287 C303 1.254 . S
O288 Dy280 2.339 . S
O288 C303 1.257 . S
O289 Dy281 2.307 . S
O289 C304 1.266 . S
O290 Dy280 2.298 . S
O290 C304 1.236 . S
O291 Dy281 2.395 . S
O291 C311 1.255 . S
O292 Dy281 2.379 . S
O292 C311 1.249 . S
C293 O283 1.266 . S
C293 O284 1.236 . S
O294 Dy280 2.275 . S
O294 C282 1.254 . S
O295 Dy281 2.339 . S
O295 C282 1.257 . S
C296 C299 1.344 . S
C296 C300 1.328 . S
C296 C302 1.516 . S
C297 C298 1.304 . S
C297 C301 1.323 . S
C298 C297 1.304 . S
C298 C299 1.371 . S
C298 H312 0.930 . S
C299 C296 1.344 . S
C299 C298 1.371 . S
C299 H313 0.931 . S
C300 C296 1.328 . S
C300 C301 1.433 . S
C300 H314 0.931 . S
C301 C297 1.323 . S
C301 C300 1.433 . S
C301 H315 0.933 . S
C302 Dy280 2.738 1_554 S
C302 O285 1.255 . S
C302 O286 1.249 . S
C302 C296 1.516 . S
C303 O287 1.254 . S
C303 O288 1.257 . S
C304 O289 1.266 . S
C304 O290 1.236 . S
C305 C308 1.344 . S
C305 C309 1.328 . S
C305 C311 1.516 . S
C306 C307 1.304 . S
C306 C310 1.323 . S
C307 C306 1.304 . S
C307 C308 1.371 . S
C307 H316 0.930 . S
C308 C305 1.344 . S
C308 C307 1.371 . S
C308 H317 0.931 . S
C309 C305 1.328 . S
C309 C310 1.433 . S
C309 H318 0.931 . S
C310 C306 1.323 . S
C310 C309 1.433 . S
C310 H319 0.933 . S
C311 Dy281 2.738 . S
C311 O291 1.255 . S
C311 O292 1.249 . S
C311 C305 1.516 . S
H312 C298 0.930 . S
H313 C299 0.931 . S
H314 C300 0.931 . S
H315 C301 0.933 . S
H316 C307 0.930 . S
H317 C308 0.931 . S
H318 C309 0.931 . S
H319 C310 0.933 . S
Dy320 O323 2.307 . S
Dy320 O325 2.395 . S
Dy320 O326 2.379 . S
Dy320 O328 2.339 . S
Dy320 O330 2.298 . S
Dy320 O334 2.275 . S
Dy320 C342 2.738 . S
Dy321 O324 2.298 . S
Dy321 O327 2.275 . S
Dy321 O329 2.307 . S
Dy321 O331 2.395 . S
Dy321 O332 2.379 . S
Dy321 O335 2.339 . S
Dy321 C351 2.738 . S
C322 O334 1.254 . S
C322 O335 1.257 . S
O323 Dy320 2.307 . S
O323 C333 1.266 . S
O324 Dy321 2.298 . S
O324 C333 1.236 . S
O325 Dy320 2.395 . S
O325 C342 1.255 . S
O326 Dy320 2.379 . S
O326 C342 1.249 . S
O327 Dy321 2.275 . S
O327 C343 1.254 . S
O328 Dy320 2.339 . S
O328 C343 1.257 . S
O329 Dy321 2.307 . S
O329 C344 1.266 . S
O330 Dy320 2.298 . S
O330 C344 1.236 . S
O331 Dy321 2.395 . S
O331 C351 1.255 . S
O332 Dy321 2.379 . S
O332 C351 1.249 . S
C333 O323 1.266 . S
C333 O324 1.236 . S
O334 Dy320 2.275 . S
O334 C322 1.254 . S
O335 Dy321 2.339 . S
O335 C322 1.257 . S
C336 C339 1.344 . S
C336 C340 1.328 . S
C336 C342 1.516 . S
C337 C338 1.304 . S
C337 C341 1.323 . S
C338 C337 1.304 . S
C338 C339 1.371 . S
C338 H352 0.930 . S
C339 C336 1.344 . S
C339 C338 1.371 . S
C339 H353 0.931 . S
C340 C336 1.328 . S
C340 C341 1.433 . S
C340 H354 0.931 . S
C341 C337 1.323 . S
C341 C340 1.433 . S
C341 H355 0.933 . S
C342 Dy320 2.738 . S
C342 O325 1.255 . S
C342 O326 1.249 . S
C342 C336 1.516 . S
C343 O327 1.254 . S
C343 O328 1.257 . S
C344 O329 1.266 . S
C344 O330 1.236 . S
C345 C348 1.344 . S
C345 C349 1.328 . S
C345 C351 1.516 . S
C346 C347 1.304 . S
C346 C350 1.323 . S
C347 C346 1.304 . S
C347 C348 1.371 . S
C347 H356 0.930 . S
C348 C345 1.344 . S
C348 C347 1.371 . S
C348 H357 0.931 . S
C349 C345 1.328 . S
C349 C350 1.433 . S
C349 H358 0.931 . S
C350 C346 1.323 . S
C350 C349 1.433 . S
C350 H359 0.933 . S
C351 Dy321 2.738 . S
C351 O331 1.255 . S
C351 O332 1.249 . S
C351 C345 1.516 . S
H352 C338 0.930 . S
H353 C339 0.931 . S
H354 C340 0.931 . S
H355 C341 0.933 . S
H356 C347 0.930 . S
H357 C348 0.931 . S
H358 C349 0.931 . S
H359 C350 0.933 . S
Dy360 O363 2.307 . S
Dy360 O365 2.395 . S
Dy360 O366 2.379 . S
Dy360 O368 2.339 . S
Dy360 O370 2.298 . S
Dy360 O374 2.275 . S
Dy360 C382 2.738 . S
Dy361 O364 2.298 . S
Dy361 O367 2.275 . S
Dy361 O369 2.307 . S
Dy361 O371 2.395 . S
Dy361 O372 2.379 . S
Dy361 O375 2.339 . S
Dy361 C391 2.738 . S
C362 O374 1.254 . S
C362 O375 1.257 . S
O363 Dy360 2.307 . S
O363 C373 1.266 . S
O364 Dy361 2.298 . S
O364 C373 1.236 . S
O365 Dy360 2.395 . S
O365 C382 1.255 . S
O366 Dy360 2.379 . S
O366 C382 1.249 . S
O367 Dy361 2.275 . S
O367 C383 1.254 . S
O368 Dy360 2.339 . S
O368 C383 1.257 . S
O369 Dy361 2.307 . S
O369 C384 1.266 . S
O370 Dy360 2.298 . S
O370 C384 1.236 . S
O371 Dy361 2.395 . S
O371 C391 1.255 . S
O372 Dy361 2.379 . S
O372 C391 1.249 . S
C373 O363 1.266 . S
C373 O364 1.236 . S
O374 Dy360 2.275 . S
O374 C362 1.254 . S
O375 Dy361 2.339 . S
O375 C362 1.257 . S
C376 C379 1.344 . S
C376 C380 1.328 . S
C376 C382 1.516 . S
C377 C378 1.304 . S
C377 C381 1.323 . S
C378 C377 1.304 . S
C378 C379 1.371 . S
C378 H392 0.930 . S
C379 C376 1.344 . S
C379 C378 1.371 . S
C379 H393 0.931 . S
C380 C376 1.328 . S
C380 C381 1.433 . S
C380 H394 0.931 . S
C381 C377 1.323 . S
C381 C380 1.433 . S
C381 H395 0.933 . S
C382 Dy360 2.738 . S
C382 O365 1.255 . S
C382 O366 1.249 . S
C382 C376 1.516 . S
C383 O367 1.254 . S
C383 O368 1.257 . S
C384 O369 1.266 . S
C384 O370 1.236 . S
C385 C388 1.344 . S
C385 C389 1.328 . S
C385 C391 1.516 . S
C386 C387 1.304 . S
C386 C390 1.323 . S
C387 C386 1.304 . S
C387 C388 1.371 . S
C387 H396 0.930 . S
C388 C385 1.344 . S
C388 C387 1.371 . S
C388 H397 0.931 . S
C389 C385 1.328 . S
C389 C390 1.433 . S
C389 H398 0.931 . S
C390 C386 1.323 . S
C390 C389 1.433 . S
C390 H399 0.933 . S
C391 Dy361 2.738 . S
C391 O371 1.255 . S
C391 O372 1.249 . S
C391 C385 1.516 . S
H392 C378 0.930 . S
H393 C379 0.931 . S
H394 C380 0.931 . S
H395 C381 0.933 . S
H396 C387 0.930 . S
H397 C388 0.931 . S
H398 C389 0.931 . S
H399 C390 0.933 . S
Dy400 O403 2.307 . S
Dy400 O405 2.395 . S
Dy400 O406 2.379 . S
Dy400 O408 2.339 . S
Dy400 O410 2.298 . S
Dy400 O414 2.275 . S
Dy400 C422 2.738 . S
Dy401 O404 2.298 . S
Dy401 O407 2.275 . S
Dy401 O409 2.307 . S
Dy401 O411 2.395 . S
Dy401 O412 2.379 . S
Dy401 O415 2.339 . S
Dy401 C431 2.738 . S
C402 O414 1.254 . S
C402 O415 1.257 . S
O403 Dy400 2.307 . S
O403 C413 1.266 . S
O404 Dy401 2.298 . S
O404 C413 1.236 . S
O405 Dy400 2.395 . S
O405 C422 1.255 . S
O406 Dy400 2.379 . S
O406 C422 1.249 . S
O407 Dy401 2.275 . S
O407 C423 1.254 . S
O408 Dy400 2.339 . S
O408 C423 1.257 . S
O409 Dy401 2.307 . S
O409 C424 1.266 . S
O410 Dy400 2.298 . S
O410 C424 1.236 . S
O411 Dy401 2.395 . S
O411 C431 1.255 . S
O412 Dy401 2.379 . S
O412 C431 1.249 . S
C413 O403 1.266 . S
C413 O404 1.236 . S
O414 Dy400 2.275 . S
O414 C402 1.254 . S
O415 Dy401 2.339 . S
O415 C402 1.257 . S
C416 C419 1.344 . S
C416 C420 1.328 . S
C416 C422 1.516 . S
C417 C418 1.304 . S
C417 C421 1.323 . S
C418 C417 1.304 . S
C418 C419 1.371 . S
C418 H432 0.930 . S
C419 C416 1.344 . S
C419 C418 1.371 . S
C419 H433 0.931 . S
C420 C416 1.328 . S
C420 C421 1.433 . S
C420 H434 0.931 . S
C421 C417 1.323 . S
C421 C420 1.433 . S
C421 H435 0.933 . S
C422 Dy400 2.738 . S
C422 O405 1.255 . S
C422 O406 1.249 . S
C422 C416 1.516 . S
C423 O407 1.254 . S
C423 O408 1.257 . S
C424 O409 1.266 . S
C424 O410 1.236 . S
C425 C428 1.344 . S
C425 C429 1.328 . S
C425 C431 1.516 . S
C426 C427 1.304 . S
C426 C430 1.323 . S
C427 C426 1.304 . S
C427 C428 1.371 . S
C427 H436 0.930 . S
C428 C425 1.344 . S
C428 C427 1.371 . S
C428 H437 0.931 . S
C429 C425 1.328 . S
C429 C430 1.433 . S
C429 H438 0.931 . S
C430 C426 1.323 . S
C430 C429 1.433 . S
C430 H439 0.933 . S
C431 Dy401 2.738 . S
C431 O411 1.255 . S
C431 O412 1.249 . S
C431 C425 1.516 . S
H432 C418 0.930 . S
H433 C419 0.931 . S
H434 C420 0.931 . S
H435 C421 0.933 . S
H436 C427 0.930 . S
H437 C428 0.931 . S
H438 C429 0.931 . S
H439 C430 0.933 . S
Dy440 O443 2.307 . S
Dy440 O445 2.395 . S
Dy440 O446 2.379 . S
Dy440 O448 2.339 . S
Dy440 O450 2.298 . S
Dy440 O454 2.275 . S
Dy440 C462 2.738 . S
Dy441 O444 2.298 . S
Dy441 O447 2.275 . S
Dy441 O449 2.307 . S
Dy441 O451 2.395 . S
Dy441 O452 2.379 . S
Dy441 O455 2.339 . S
Dy441 C471 2.738 . S
C442 O454 1.254 . S
C442 O455 1.257 . S
O443 Dy440 2.307 . S
O443 C453 1.266 . S
O444 Dy441 2.298 . S
O444 C453 1.236 . S
O445 Dy440 2.395 . S
O445 C462 1.255 . S
O446 Dy440 2.379 . S
O446 C462 1.249 . S
O447 Dy441 2.275 . S
O447 C463 1.254 . S
O448 Dy440 2.339 . S
O448 C463 1.257 . S
O449 Dy441 2.307 . S
O449 C464 1.266 . S
O450 Dy440 2.298 . S
O450 C464 1.236 . S
O451 Dy441 2.395 . S
O451 C471 1.255 . S
O452 Dy441 2.379 . S
O452 C471 1.249 . S
C453 O443 1.266 . S
C453 O444 1.236 . S
O454 Dy440 2.275 . S
O454 C442 1.254 . S
O455 Dy441 2.339 . S
O455 C442 1.257 . S
C456 C459 1.344 . S
C456 C460 1.328 . S
C456 C462 1.516 . S
C457 C458 1.304 . S
C457 C461 1.323 . S
C458 C457 1.304 . S
C458 C459 1.371 . S
C458 H472 0.930 . S
C459 C456 1.344 . S
C459 C458 1.371 . S
C459 H473 0.931 . S
C460 C456 1.328 . S
C460 C461 1.433 . S
C460 H474 0.931 . S
C461 C457 1.323 . S
C461 C460 1.433 . S
C461 H475 0.933 . S
C462 Dy440 2.738 . S
C462 O445 1.255 . S
C462 O446 1.249 . S
C462 C456 1.516 . S
C463 O447 1.254 . S
C463 O448 1.257 . S
C464 O449 1.266 . S
C464 O450 1.236 . S
C465 C468 1.344 . S
C465 C469 1.328 . S
C465 C471 1.516 . S
C466 C467 1.304 . S
C466 C470 1.323 . S
C467 C466 1.304 . S
C467 C468 1.371 . S
C467 H476 0.930 . S
C468 C465 1.344 . S
C468 C467 1.371 . S
C468 H477 0.931 . S
C469 C465 1.328 . S
C469 C470 1.433 . S
C469 H478 0.931 . S
C470 C466 1.323 . S
C470 C469 1.433 . S
C470 H479 0.933 . S
C471 Dy441 2.738 . S
C471 O451 1.255 . S
C471 O452 1.249 . S
C471 C465 1.516 . S
H472 C458 0.930 . S
H473 C459 0.931 . S
H474 C460 0.931 . S
H475 C461 0.933 . S
H476 C467 0.930 . S
H477 C468 0.931 . S
H478 C469 0.931 . S
H479 C470 0.933 . S
Dy480 O483 2.307 . S
Dy480 O485 2.395 . S
Dy480 O486 2.379 . S
Dy480 O488 2.339 . S
Dy480 O490 2.298 . S
Dy480 O494 2.275 . S
Dy480 C502 2.738 . S
Dy481 O484 2.298 . S
Dy481 O487 2.275 . S
Dy481 O489 2.307 . S
Dy481 O491 2.395 . S
Dy481 O492 2.379 . S
Dy481 O495 2.339 . S
Dy481 C511 2.738 . S
C482 O494 1.254 . S
C482 O495 1.257 . S
O483 Dy480 2.307 . S
O483 C493 1.266 . S
O484 Dy481 2.298 . S
O484 C493 1.236 . S
O485 Dy480 2.395 . S
O485 C502 1.255 . S
O486 Dy480 2.379 . S
O486 C502 1.249 . S
O487 Dy481 2.275 . S
O487 C503 1.254 . S
O488 Dy480 2.339 . S
O488 C503 1.257 . S
O489 Dy481 2.307 . S
O489 C504 1.266 . S
O490 Dy480 2.298 . S
O490 C504 1.236 . S
O491 Dy481 2.395 . S
O491 C511 1.255 . S
O492 Dy481 2.379 . S
O492 C511 1.249 . S
C493 O483 1.266 . S
C493 O484 1.236 . S
O494 Dy480 2.275 . S
O494 C482 1.254 . S
O495 Dy481 2.339 . S
O495 C482 1.257 . S
C496 C499 1.344 . S
C496 C500 1.328 . S
C496 C502 1.516 . S
C497 C498 1.304 . S
C497 C501 1.323 . S
C498 C497 1.304 . S
C498 C499 1.371 . S
C498 H512 0.930 . S
C499 C496 1.344 . S
C499 C498 1.371 . S
C499 H513 0.931 . S
C500 C496 1.328 . S
C500 C501 1.433 . S
C500 H514 0.931 . S
C501 C497 1.323 . S
C501 C500 1.433 . S
C501 H515 0.933 . S
C502 Dy480 2.738 . S
C502 O485 1.255 . S
C502 O486 1.249 . S
C502 C496 1.516 . S
C503 O487 1.254 . S
C503 O488 1.257 . S
C504 O489 1.266 . S
C504 O490 1.236 . S
C505 C508 1.344 . S
C505 C509 1.328 . S
C505 C511 1.516 . S
C506 C507 1.304 . S
C506 C510 1.323 . S
C507 C506 1.304 . S
C507 C508 1.371 . S
C507 H516 0.930 . S
C508 C505 1.344 . S
C508 C507 1.371 . S
C508 H517 0.931 . S
C509 C505 1.328 . S
C509 C510 1.433 . S
C509 H518 0.931 . S
C510 C506 1.323 . S
C510 C509 1.433 . S
C510 H519 0.933 . S
C511 Dy481 2.738 . S
C511 O491 1.255 . S
C511 O492 1.249 . S
C511 C505 1.516 . S
H512 C498 0.930 . S
H513 C499 0.931 . S
H514 C500 0.931 . S
H515 C501 0.933 . S
H516 C507 0.930 . S
H517 C508 0.931 . S
H518 C509 0.931 . S
H519 C510 0.933 . S
Dy520 O523 2.307 . S
Dy520 O525 2.395 . S
Dy520 O526 2.379 . S
Dy520 O528 2.339 . S
Dy520 O530 2.298 . S
Dy520 O534 2.275 . S
Dy520 C542 2.738 . S
Dy521 O524 2.298 . S
Dy521 O527 2.275 . S
Dy521 O529 2.307 . S
Dy521 O531 2.395 . S
Dy521 O532 2.379 . S
Dy521 O535 2.339 . S
Dy521 C551 2.738 . S
C522 O534 1.254 . S
C522 O535 1.257 . S
O523 Dy520 2.307 . S
O523 C533 1.266 . S
O524 Dy521 2.298 . S
O524 C533 1.236 . S
O525 Dy520 2.395 . S
O525 C542 1.255 . S
O526 Dy520 2.379 . S
O526 C542 1.249 . S
O527 Dy521 2.275 . S
O527 C543 1.254 . S
O528 Dy520 2.339 . S
O528 C543 1.257 . S
O529 Dy521 2.307 . S
O529 C544 1.266 . S
O530 Dy520 2.298 . S
O530 C544 1.236 . S
O531 Dy521 2.395 . S
O531 C551 1.255 . S
O532 Dy521 2.379 . S
O532 C551 1.249 . S
C533 O523 1.266 . S
C533 O524 1.236 . S
O534 Dy520 2.275 . S
O534 C522 1.254 . S
O535 Dy521 2.339 . S
O535 C522 1.257 . S
C536 C539 1.344 . S
C536 C540 1.328 . S
C536 C542 1.516 . S
C537 C538 1.304 . S
C537 C541 1.323 . S
C538 C537 1.304 . S
C538 C539 1.371 . S
C538 H552 0.930 . S
C539 C536 1.344 . S
C539 C538 1.371 . S
C539 H553 0.931 . S
C540 C536 1.328 . S
C540 C541 1.433 . S
C540 H554 0.931 . S
C541 C537 1.323 . S
C541 C540 1.433 . S
C541 H555 0.933 . S
C542 Dy520 2.738 . S
C542 O525 1.255 . S
C542 O526 1.249 . S
C542 C536 1.516 . S
C543 O527 1.254 . S
C543 O528 1.257 . S
C544 O529 1.266 . S
C544 O530 1.236 . S
C545 C548 1.344 . S
C545 C549 1.328 . S
C545 C551 1.516 . S
C546 C547 1.304 . S
C546 C550 1.323 . S
C547 C546 1.304 . S
C547 C548 1.371 . S
C547 H556 0.930 . S
C548 C545 1.344 . S
C548 C547 1.371 . S
C548 H557 0.931 . S
C549 C545 1.328 . S
C549 C550 1.433 . S
C549 H558 0.931 . S
C550 C546 1.323 . S
C550 C549 1.433 . S
C550 H559 0.933 . S
C551 Dy521 2.738 . S
C551 O531 1.255 . S
C551 O532 1.249 . S
C551 C545 1.516 . S
H552 C538 0.930 . S
H553 C539 0.931 . S
H554 C540 0.931 . S
H555 C541 0.933 . S
H556 C547 0.930 . S
H557 C548 0.931 . S
H558 C549 0.931 . S
H559 C550 0.933 . S
Dy560 O563 2.307 . S
Dy560 O565 2.395 . S
Dy560 O566 2.379 . S
Dy560 O568 2.339 . S
Dy560 O570 2.298 . S
Dy560 O574 2.275 . S
Dy560 C582 2.738 . S
Dy561 O564 2.298 . S
Dy561 O567 2.275 . S
Dy561 O569 2.307 . S
Dy561 O571 2.395 . S
Dy561 O572 2.379 . S
Dy561 O575 2.339 . S
Dy561 C591 2.738 . S
C562 O574 1.254 . S
C562 O575 1.257 . S
O563 Dy560 2.307 . S
O563 C573 1.266 . S
O564 Dy561 2.298 . S
O564 C573 1.236 . S
O565 Dy560 2.395 . S
O565 C582 1.255 . S
O566 Dy560 2.379 . S
O566 C582 1.249 . S
O567 Dy561 2.275 . S
O567 C583 1.254 . S
O568 Dy560 2.339 . S
O568 C583 1.257 . S
O569 Dy561 2.307 . S
O569 C584 1.266 . S
O570 Dy560 2.298 . S
O570 C584 1.236 . S
O571 Dy561 2.395 . S
O571 C591 1.255 . S
O572 Dy561 2.379 . S
O572 C591 1.249 . S
C573 O563 1.266 . S
C573 O564 1.236 . S
O574 Dy560 2.275 . S
O574 C562 1.254 . S
O575 Dy561 2.339 . S
O575 C562 1.257 . S
C576 C579 1.344 . S
C576 C580 1.328 . S
C576 C582 1.516 . S
C577 C578 1.304 . S
C577 C581 1.323 . S
C578 C577 1.304 . S
C578 C579 1.371 . S
C578 H592 0.930 . S
C579 C576 1.344 . S
C579 C578 1.371 . S
C579 H593 0.931 . S
C580 C576 1.328 . S
C580 C581 1.433 . S
C580 H594 0.931 . S
C581 C577 1.323 . S
C581 C580 1.433 . S
C581 H595 0.933 . S
C582 Dy560 2.738 . S
C582 O565 1.255 . S
C582 O566 1.249 . S
C582 C576 1.516 . S
C583 O567 1.254 . S
C583 O568 1.257 . S
C584 O569 1.266 . S
C584 O570 1.236 . S
C585 C588 1.344 . S
C585 C589 1.328 . S
C585 C591 1.516 . S
C586 C587 1.304 . S
C586 C590 1.323 . S
C587 C586 1.304 . S
C587 C588 1.371 . S
C587 H596 0.930 . S
C588 C585 1.344 . S
C588 C587 1.371 . S
C588 H597 0.931 . S
C589 C585 1.328 . S
C589 C590 1.433 . S
C589 H598 0.931 . S
C590 C586 1.323 . S
C590 C589 1.433 . S
C590 H599 0.933 . S
C591 Dy561 2.738 . S
C591 O571 1.255 . S
C591 O572 1.249 . S
C591 C585 1.516 . S
H592 C578 0.930 . S
H593 C579 0.931 . S
H594 C580 0.931 . S
H595 C581 0.933 . S
H596 C587 0.930 . S
H597 C588 0.931 . S
H598 C589 0.931 . S
H599 C590 0.933 . S
Dy600 O603 2.307 . S
Dy600 O605 2.395 . S
Dy600 O606 2.379 . S
Dy600 O608 2.339 . S
Dy600 O610 2.298 . S
Dy600 O614 2.275 . S
Dy600 C622 2.738 . S
Dy601 O604 2.298 . S
Dy601 O607 2.275 . S
Dy601 O609 2.307 . S
Dy601 O611 2.395 . S
Dy601 O612 2.379 . S
Dy601 O615 2.339 . S
Dy601 C631 2.738 . S
C602 O614 1.254 . S
C602 O615 1.257 . S
O603 Dy600 2.307 . S
O603 C613 1.266 . S
O604 Dy601 2.298 . S
O604 C613 1.236 . S
O605 Dy600 2.395 . S
O605 C622 1.255 . S
O606 Dy600 2.379 . S
O606 C622 1.249 . S
O607 Dy601 2.275 . S
O607 C623 1.254 . S
O608 Dy600 2.339 . S
O608 C623 1.257 . S
O609 Dy601 2.307 . S
O609 C624 1.266 . S
O610 Dy600 2.298 . S
O610 C624 1.236 . S
O611 Dy601 2.395 . S
O611 C631 1.255 . S
O612 Dy601 2.379 . S
O612 C631 1.249 . S
C613 O603 1.266 . S
C613 O604 1.236 . S
O614 Dy600 2.275 . S
O614 C602 1.254 . S
O615 Dy601 2.339 . S
O615 C602 1.257 . S
C616 C619 1.344 . S
C616 C620 1.328 . S
C616 C622 1.516 . S
C617 C618 1.304 . S
C617 C621 1.323 . S
C618 C617 1.304 . S
C618 C619 1.371 . S
C618 H632 0.930 . S
C619 C616 1.344 . S
C619 C618 1.371 . S
C619 H633 0.931 . S
C620 C616 1.328 . S
C620 C621 1.433 . S
C620 H634 0.931 . S
C621 C617 1.323 . S
C621 C620 1.433 . S
C621 H635 0.933 . S
C622 Dy600 2.738 . S
C622 O605 1.255 . S
C622 O606 1.249 . S
C622 C616 1.516 . S
C623 O607 1.254 . S
C623 O608 1.257 . S
C624 O609 1.266 . S
C624 O610 1.236 . S
C625 C628 1.344 . S
C625 C629 1.328 . S
C625 C631 1.516 . S
C626 C627 1.304 . S
C626 C630 1.323 . S
C627 C626 1.304 . S
C627 C628 1.371 . S
C627 H636 0.930 . S
C628 C625 1.344 . S
C628 C627 1.371 . S
C628 H637 0.931 . S
C629 C625 1.328 . S
C629 C630 1.433 . S
C629 H638 0.931 . S
C630 C626 1.323 . S
C630 C629 1.433 . S
C630 H639 0.933 . S
C631 Dy601 2.738 . S
C631 O611 1.255 . S
C631 O612 1.249 . S
C631 C625 1.516 . S
H632 C618 0.930 . S
H633 C619 0.931 . S
H634 C620 0.931 . S
H635 C621 0.933 . S
H636 C627 0.930 . S
H637 C628 0.931 . S
H638 C629 0.931 . S
H639 C630 0.933 . S
H640 C646 0.930 . S
H641 C649 0.930 . S
H642 C650 0.930 . S
H643 C651 0.930 . S
H644 C654 0.930 . S
H645 C655 0.930 . S
C646 H640 0.930 . S
C646 C647 1.355 . S
C646 C648 1.415 . S
C647 C646 1.355 . S
C647 C649 1.419 . S
C648 C646 1.415 . S
C648 C653 1.425 . S
C648 C655 1.409 . S
C649 H641 0.930 . S
C649 C647 1.419 . S
C649 C650 1.362 . S
C650 H642 0.930 . S
C650 C649 1.362 . S
C650 C653 1.409 . S
C651 H643 0.930 . S
C651 C652 1.355 . S
C651 C653 1.415 1_545 S
C652 C651 1.355 . S
C652 C654 1.419 . S
C653 C648 1.425 . S
C653 C650 1.409 . S
C653 C651 1.415 1_565 S
C654 H644 0.930 . S
C654 C652 1.419 . S
C654 C655 1.362 1_545 S
C655 H645 0.930 . S
C655 C648 1.409 . S
C655 C654 1.362 1_565 S
H656 C662 0.930 . S
H657 C665 0.930 . S
H658 C666 0.930 . S
H659 C667 0.927 1_455 S
H660 C670 0.930 . S
H661 C671 0.930 . S
C662 H656 0.930 . S
C662 C663 1.355 . S
C662 C664 1.415 . S
C663 C662 1.355 . S
C663 C665 1.419 . S
C664 C662 1.415 . S
C664 C669 1.425 . S
C664 C671 1.409 . S
C665 H657 0.930 . S
C665 C663 1.419 . S
C665 C666 1.362 . S
C666 H658 0.930 . S
C666 C665 1.362 . S
C666 C669 1.409 . S
C667 H659 0.927 1_655 S
C667 C668 1.355 1_655 S
C667 C669 1.415 . S
C668 C667 1.355 1_455 S
C668 C670 1.419 . S
C669 C664 1.425 . S
C669 C666 1.409 . S
C669 C667 1.415 . S
C670 H660 0.930 . S
C670 C668 1.419 . S
C670 C671 1.362 1_455 S
C671 H661 0.930 . S
C671 C664 1.409 . S
C671 C670 1.362 1_655 S
H672 C678 0.930 . S
H673 C681 0.930 . S
H674 C682 0.930 . S
H675 C683 0.930 . S
H676 C686 0.930 . S
H677 C687 0.930 . S
C678 H672 0.930 . S
C678 C679 1.355 . S
C678 C680 1.415 1_565 S
C679 C678 1.355 . S
C679 C681 1.419 1_565 S
C680 C678 1.415 1_545 S
C680 C685 1.425 . S
C680 C687 1.409 . S
C681 H673 0.930 . S
C681 C679 1.419 1_545 S
C681 C682 1.362 . S
C682 H674 0.930 . S
C682 C681 1.362 . S
C682 C685 1.409 . S
C683 H675 0.930 . S
C683 C684 1.355 . S
C683 C685 1.415 . S
C684 C683 1.355 . S
C684 C686 1.419 . S
C685 C680 1.425 . S
C685 C682 1.409 . S
C685 C683 1.415 . S
C686 H676 0.930 . S
C686 C684 1.419 . S
C686 C687 1.362 . S
C687 H677 0.930 . S
C687 C680 1.409 . S
C687 C686 1.362 . S
H688 C694 0.930 . S
H689 C697 0.930 . S
H690 C698 0.930 . S
H691 C699 0.930 . S
H692 C702 0.930 . S
H693 C703 0.930 . S
C694 H688 0.930 . S
C694 C695 1.355 1_455 S
C694 C696 1.415 . S
C695 C694 1.355 1_655 S
C695 C697 1.419 . S
C696 C694 1.415 . S
C696 C701 1.425 . S
C696 C703 1.409 . S
C697 H689 0.930 . S
C697 C695 1.419 . S
C697 C698 1.362 1_655 S
C698 H690 0.930 . S
C698 C697 1.362 1_455 S
C698 C701 1.409 . S
C699 H691 0.930 . S
C699 C700 1.355 . S
C699 C701 1.415 . S
C700 C699 1.355 . S
C700 C702 1.419 . S
C701 C696 1.425 . S
C701 C698 1.409 . S
C701 C699 1.415 . S
C702 H692 0.930 . S
C702 C700 1.419 . S
C702 C703 1.362 . S
C703 H693 0.930 . S
C703 C696 1.409 . S
C703 C702 1.362 . S
H704 C710 0.930 . S
H705 C713 0.930 . S
H706 C714 0.930 . S
H707 C715 0.930 . S
H708 C718 0.930 . S
H709 C719 0.930 . S
C710 H704 0.930 . S
C710 C711 1.355 . S
C710 C712 1.415 . S
C711 C710 1.355 . S
C711 C713 1.419 . S
C712 C710 1.415 . S
C712 C717 1.425 . S
C712 C719 1.409 . S
C713 H705 0.930 . S
C713 C711 1.419 . S
C713 C714 1.362 . S
C714 H706 0.930 . S
C714 C713 1.362 . S
C714 C717 1.409 . S
C715 H707 0.930 . S
C715 C716 1.355 . S
C715 C717 1.415 1_556 S
C716 C715 1.355 . S
C716 C718 1.419 . S
C717 C712 1.425 . S
C717 C714 1.409 . S
C717 C715 1.415 1_554 S
C718 H708 0.930 . S
C718 C716 1.419 . S
C718 C719 1.362 1_556 S
C719 H709 0.930 . S
C719 C712 1.409 . S
C719 C718 1.362 1_554 S
H720 C726 0.930 . S
H721 C729 0.930 . S
H722 C730 0.930 . S
H723 C731 0.930 . S
H724 C734 0.930 1_554 S
H725 C735 0.930 . S
C726 H720 0.930 . S
C726 C727 1.355 . S
C726 C728 1.415 . S
C727 C726 1.355 . S
C727 C729 1.419 1_554 S
C728 C726 1.415 . S
C728 C733 1.425 1_554 S
C728 C735 1.409 . S
C729 H721 0.930 . S
C729 C727 1.419 1_556 S
C729 C730 1.362 . S
C730 H722 0.930 . S
C730 C729 1.362 . S
C730 C733 1.409 . S
C731 H723 0.930 . S
C731 C732 1.355 . S
C731 C733 1.415 . S
C732 C731 1.355 . S
C732 C734 1.419 . S
C733 C728 1.425 1_556 S
C733 C730 1.409 . S
C733 C731 1.415 . S
C734 H724 0.930 1_556 S
C734 C732 1.419 . S
C734 C735 1.362 1_556 S
C735 H725 0.930 . S
C735 C728 1.409 . S
C735 C734 1.362 1_554 S
H736 C742 0.930 . S
H737 C745 0.930 . S
H738 C746 0.940 . S
H739 C747 0.930 . S
H740 C750 0.930 . S
H741 C751 0.930 . S
C742 H736 0.930 . S
C742 C743 1.355 . S
C742 C744 1.415 . S
C743 C742 1.355 . S
C743 C745 1.419 . S
C744 C742 1.415 . S
C744 C749 1.425 . S
C744 C751 1.409 . S
C745 H737 0.930 . S
C745 C743 1.419 . S
C745 C746 1.354 1_554 S
C746 H738 0.940 . S
C746 C745 1.354 1_556 S
C746 C749 1.407 1_556 S
C747 H739 0.930 . S
C747 C748 1.355 . S
C747 C749 1.415 1_556 S
C748 C747 1.355 . S
C748 C750 1.419 1_556 S
C749 C744 1.425 . S
C749 C746 1.407 1_554 S
C749 C747 1.415 1_554 S
C750 H740 0.930 . S
C750 C748 1.419 1_554 S
C750 C751 1.362 . S
C751 H741 0.930 . S
C751 C744 1.409 . S
C751 C750 1.362 . S
H752 C758 0.930 . S
H753 C761 0.930 . S
H754 C762 0.930 . S
H755 C763 0.930 . S
H756 C766 0.930 . S
H757 C767 0.930 . S
C758 H752 0.930 . S
C758 C759 1.355 . S
C758 C760 1.415 1_554 S
C759 C758 1.355 . S
C759 C761 1.419 1_554 S
C760 C758 1.415 1_556 S
C760 C765 1.425 . S
C760 C767 1.409 1_556 S
C761 H753 0.930 . S
C761 C759 1.419 1_556 S
C761 C762 1.362 . S
C762 H754 0.930 . S
C762 C761 1.362 . S
C762 C765 1.409 . S
C763 H755 0.930 . S
C763 C764 1.355 . S
C763 C765 1.415 . S
C764 C763 1.355 . S
C764 C766 1.419 . S
C765 C760 1.425 . S
C765 C762 1.409 . S
C765 C763 1.415 . S
C766 H756 0.930 . S
C766 C764 1.419 . S
C766 C767 1.362 1_556 S
C767 H757 0.930 . S
C767 C760 1.409 1_554 S
C767 C766 1.362 1_554 S
H768 C774 0.930 . S
H769 C777 0.930 . S
H770 C778 0.930 . S
H771 C779 0.930 . S
H772 C782 0.930 . S
H773 C783 0.930 . S
C774 H768 0.930 . S
C774 C775 1.355 . S
C774 C776 1.415 . S
C775 C774 1.355 . S
C775 C777 1.419 . S
C776 C774 1.415 . S
C776 C781 1.425 . S
C776 C783 1.409 . S
C777 H769 0.930 . S
C777 C775 1.419 . S
C777 C778 1.362 . S
C778 H770 0.930 . S
C778 C777 1.362 . S
C778 C781 1.409 . S
C779 H771 0.930 . S
C779 C780 1.355 . S
C779 C781 1.415 . S
C780 C779 1.355 . S
C780 C782 1.419 . S
C781 C776 1.425 . S
C781 C778 1.409 . S
C781 C779 1.415 . S
C782 H772 0.930 . S
C782 C780 1.419 . S
C782 C783 1.362 . S
C783 H773 0.930 . S
C783 C776 1.409 . S
C783 C782 1.362 . S
H784 C790 0.930 . S
H785 C793 0.930 . S
H786 C794 0.930 . S
H787 C795 0.930 . S
H788 C798 0.930 . S
H789 C799 0.930 . S
C790 H784 0.930 . S
C790 C791 1.355 . S
C790 C792 1.415 . S
C791 C790 1.355 . S
C791 C793 1.419 . S
C792 C790 1.415 . S
C792 C797 1.425 . S
C792 C799 1.409 . S
C793 H785 0.930 . S
C793 C791 1.419 . S
C793 C794 1.362 . S
C794 H786 0.930 . S
C794 C793 1.362 . S
C794 C797 1.409 . S
C795 H787 0.930 . S
C795 C796 1.355 . S
C795 C797 1.415 . S
C796 C795 1.355 . S
C796 C798 1.419 . S
C797 C792 1.425 . S
C797 C794 1.409 . S
C797 C795 1.415 . S
C798 H788 0.930 . S
C798 C796 1.419 . S
C798 C799 1.362 . S
C799 H789 0.930 . S
C799 C792 1.409 . S
C799 C798 1.362 . S
H800 C806 0.930 . S
H801 C809 0.930 . S
H802 C810 0.930 . S
H803 C811 0.930 . S
H804 C814 0.930 . S
H805 C815 0.930 . S
C806 H800 0.930 . S
C806 C807 1.355 . S
C806 C808 1.415 . S
C807 C806 1.355 . S
C807 C809 1.419 . S
C808 C806 1.415 . S
C808 C813 1.425 . S
C808 C815 1.409 . S
C809 H801 0.930 . S
C809 C807 1.419 . S
C809 C810 1.362 . S
C810 H802 0.930 . S
C810 C809 1.362 . S
C810 C813 1.409 . S
C811 H803 0.930 . S
C811 C812 1.355 . S
C811 C813 1.415 . S
C812 C811 1.355 . S
C812 C814 1.419 . S
C813 C808 1.425 . S
C813 C810 1.409 . S
C813 C811 1.415 . S
C814 H804 0.930 . S
C814 C812 1.419 . S
C814 C815 1.362 . S
C815 H805 0.930 . S
C815 C808 1.409 . S
C815 C814 1.362 . S
H816 C822 0.930 . S
H817 C825 0.930 . S
H818 C826 0.930 . S
H819 C827 0.930 . S
H820 C830 0.930 . S
H821 C831 0.930 . S
C822 H816 0.930 . S
C822 C823 1.355 . S
C822 C824 1.415 . S
C823 C822 1.355 . S
C823 C825 1.419 . S
C824 C822 1.415 . S
C824 C829 1.425 . S
C824 C831 1.409 . S
C825 H817 0.930 . S
C825 C823 1.419 . S
C825 C826 1.362 . S
C826 H818 0.930 . S
C826 C825 1.362 . S
C826 C829 1.409 . S
C827 H819 0.930 . S
C827 C828 1.355 . S
C827 C829 1.415 . S
C828 C827 1.355 . S
C828 C830 1.419 . S
C829 C824 1.425 . S
C829 C826 1.409 . S
C829 C827 1.415 . S
C830 H820 0.930 . S
C830 C828 1.419 . S
C830 C831 1.362 . S
C831 H821 0.930 . S
C831 C824 1.409 . S
C831 C830 1.362 . S
H832 C838 0.930 . S
H833 C841 0.930 . S
H834 C842 0.928 1_565 S
H835 C843 0.930 . S
H836 C846 0.930 . S
H837 C847 0.930 . S
C838 H832 0.930 . S
C838 C839 1.355 1_545 S
C838 C840 1.415 . S
C839 C838 1.355 1_565 S
C839 C841 1.419 . S
C840 C838 1.415 . S
C840 C845 1.425 . S
C840 C847 1.409 . S
C841 H833 0.930 . S
C841 C839 1.419 . S
C841 C842 1.340 1_565 S
C842 H834 0.928 1_545 S
C842 C841 1.340 1_545 S
C842 C845 1.433 . S
C843 H835 0.930 . S
C843 C844 1.355 . S
C843 C845 1.415 . S
C844 C843 1.355 . S
C844 C846 1.419 . S
C845 C840 1.425 . S
C845 C842 1.433 . S
C845 C843 1.415 . S
C846 H836 0.930 . S
C846 C844 1.419 . S
C846 C847 1.362 . S
C847 H837 0.930 . S
C847 C840 1.409 . S
C847 C846 1.362 . S
H848 C854 0.930 . S
H849 C857 0.930 . S
H850 C858 0.930 . S
H851 C859 0.930 . S
H852 C862 0.930 . S
H853 C863 0.929 1_655 S
C854 H848 0.930 . S
C854 C855 1.355 . S
C854 C856 1.415 . S
C855 C854 1.355 . S
C855 C857 1.419 . S
C856 C854 1.415 . S
C856 C861 1.425 . S
C856 C863 1.409 . S
C857 H849 0.930 . S
C857 C855 1.419 . S
C857 C858 1.362 . S
C858 H850 0.930 . S
C858 C857 1.362 . S
C858 C861 1.409 . S
C859 H851 0.930 . S
C859 C860 1.355 1_455 S
C859 C861 1.415 . S
C860 C859 1.355 1_655 S
C860 C862 1.419 . S
C861 C856 1.425 . S
C861 C858 1.409 . S
C861 C859 1.415 . S
C862 H852 0.930 . S
C862 C860 1.419 . S
C862 C863 1.362 1_655 S
C863 H853 0.929 1_455 S
C863 C856 1.409 . S
C863 C862 1.362 1_455 S
H864 C870 0.930 . S
H865 C873 0.930 . S
H866 C874 0.930 . S
H867 C875 0.930 . S
H868 C878 0.930 . S
H869 C879 0.930 . S
C870 H864 0.930 . S
C870 C871 1.355 . S
C870 C872 1.415 . S
C871 C870 1.355 . S
C871 C873 1.419 . S
C872 C870 1.415 . S
C872 C877 1.425 . S
C872 C879 1.409 1_565 S
C873 H865 0.930 . S
C873 C871 1.419 . S
C873 C874 1.362 . S
C874 H866 0.930 . S
C874 C873 1.362 . S
C874 C877 1.409 . S
C875 H867 0.930 . S
C875 C876 1.355 1_565 S
C875 C877 1.415 . S
C876 C875 1.355 1_545 S
C876 C878 1.419 . S
C877 C872 1.425 . S
C877 C874 1.409 . S
C877 C875 1.415 . S
C878 H868 0.930 . S
C878 C876 1.419 . S
C878 C879 1.362 . S
C879 H869 0.930 . S
C879 C872 1.409 1_545 S
C879 C878 1.362 . S
H880 C886 0.930 . S
H881 C889 0.930 . S
H882 C890 0.930 . S
H883 C891 0.930 . S
H884 C894 0.930 . S
H885 C895 0.930 . S
C886 H880 0.930 . S
C886 C887 1.355 . S
C886 C888 1.415 1_455 S
C887 C886 1.355 . S
C887 C889 1.419 . S
C888 C886 1.415 1_655 S
C888 C893 1.425 . S
C888 C895 1.409 . S
C889 H881 0.930 . S
C889 C887 1.419 . S
C889 C890 1.362 1_455 S
C890 H882 0.930 . S
C890 C889 1.362 1_655 S
C890 C893 1.409 . S
C891 H883 0.930 . S
C891 C892 1.355 . S
C891 C893 1.415 . S
C892 C891 1.355 . S
C892 C894 1.419 . S
C893 C888 1.425 . S
C893 C890 1.409 . S
C893 C891 1.415 . S
C894 H884 0.930 . S
C894 C892 1.419 . S
C894 C895 1.362 . S
C895 H885 0.930 . S
C895 C888 1.409 . S
C895 C894 1.362 . S
H896 C902 0.930 . S
H897 C905 0.930 . S
H898 C906 0.930 . S
H899 C907 0.930 . S
H900 C910 0.930 . S
H901 C911 0.930 . S
C902 H896 0.930 . S
C902 C903 1.355 . S
C902 C904 1.415 . S
C903 C902 1.355 . S
C903 C905 1.419 . S
C904 C902 1.415 . S
C904 C909 1.425 . S
C904 C911 1.409 . S
C905 H897 0.930 . S
C905 C903 1.419 . S
C905 C906 1.362 . S
C906 H898 0.930 . S
C906 C905 1.362 . S
C906 C909 1.409 . S
C907 H899 0.930 . S
C907 C908 1.355 . S
C907 C909 1.415 . S
C908 C907 1.355 . S
C908 C910 1.419 . S
C909 C904 1.425 . S
C909 C906 1.409 . S
C909 C907 1.415 . S
C910 H900 0.930 . S
C910 C908 1.419 . S
C910 C911 1.362 . S
C911 H901 0.930 . S
C911 C904 1.409 . S
C911 C910 1.362 . S
H912 C918 0.930 . S
H913 C921 0.930 . S
H914 C922 0.930 . S
H915 C923 0.930 . S
H916 C926 0.930 . S
H917 C927 0.930 . S
C918 H912 0.930 . S
C918 C919 1.355 . S
C918 C920 1.415 . S
C919 C918 1.355 . S
C919 C921 1.419 . S
C920 C918 1.415 . S
C920 C925 1.425 . S
C920 C927 1.409 . S
C921 H913 0.930 . S
C921 C919 1.419 . S
C921 C922 1.362 . S
C922 H914 0.930 . S
C922 C921 1.362 . S
C922 C925 1.409 . S
C923 H915 0.930 . S
C923 C924 1.355 . S
C923 C925 1.415 . S
C924 C923 1.355 . S
C924 C926 1.419 . S
C925 C920 1.425 . S
C925 C922 1.409 . S
C925 C923 1.415 . S
C926 H916 0.930 . S
C926 C924 1.419 . S
C926 C927 1.362 . S
C927 H917 0.930 . S
C927 C920 1.409 . S
C927 C926 1.362 . S
H928 C934 0.930 . S
H929 C937 0.930 . S
H930 C938 0.930 . S
H931 C939 0.930 . S
H932 C942 0.930 . S
H933 C943 0.930 . S
C934 H928 0.930 . S
C934 C935 1.355 . S
C934 C936 1.415 . S
C935 C934 1.355 . S
C935 C937 1.419 . S
C936 C934 1.415 . S
C936 C941 1.425 . S
C936 C943 1.409 . S
C937 H929 0.930 . S
C937 C935 1.419 . S
C937 C938 1.362 . S
C938 H930 0.930 . S
C938 C937 1.362 . S
C938 C941 1.409 . S
C939 H931 0.930 . S
C939 C940 1.355 . S
C939 C941 1.415 . S
C940 C939 1.355 . S
C940 C942 1.419 . S
C941 C936 1.425 . S
C941 C938 1.409 . S
C941 C939 1.415 . S
C942 H932 0.930 . S
C942 C940 1.419 . S
C942 C943 1.362 . S
C943 H933 0.930 . S
C943 C936 1.409 . S
C943 C942 1.362 . S
H944 C950 0.930 . S
H945 C953 0.930 . S
H946 C954 0.930 . S
H947 C955 0.930 . S
H948 C958 0.930 . S
H949 C959 0.930 . S
C950 H944 0.930 . S
C950 C951 1.355 . S
C950 C952 1.415 . S
C951 C950 1.355 . S
C951 C953 1.419 . S
C952 C950 1.415 . S
C952 C957 1.425 . S
C952 C959 1.409 . S
C953 H945 0.930 . S
C953 C951 1.419 . S
C953 C954 1.362 . S
C954 H946 0.930 . S
C954 C953 1.362 . S
C954 C957 1.409 . S
C955 H947 0.930 . S
C955 C956 1.355 . S
C955 C957 1.415 . S
C956 C955 1.355 . S
C956 C958 1.419 . S
C957 C952 1.425 . S
C957 C954 1.409 . S
C957 C955 1.415 . S
C958 H948 0.930 . S
C958 C956 1.419 . S
C958 C959 1.362 . S
C959 H949 0.930 . S
C959 C952 1.409 . S
C959 C958 1.362 . S
H960 C966 0.930 . S
H961 C969 0.930 . S
H962 C970 0.930 . S
H963 C971 0.930 . S
H964 C974 0.930 . S
H965 C975 0.930 . S
C966 H960 0.930 . S
C966 C967 1.355 . S
C966 C968 1.415 . S
C967 C966 1.355 . S
C967 C969 1.419 . S
C968 C966 1.415 . S
C968 C973 1.425 . S
C968 C975 1.409 . S
C969 H961 0.930 . S
C969 C967 1.419 . S
C969 C970 1.362 . S
C970 H962 0.930 . S
C970 C969 1.362 . S
C970 C973 1.409 . S
C971 H963 0.930 . S
C971 C972 1.355 . S
C971 C973 1.415 . S
C972 C971 1.355 . S
C972 C974 1.419 . S
C973 C968 1.425 . S
C973 C970 1.409 . S
C973 C971 1.415 . S
C974 H964 0.930 . S
C974 C972 1.419 . S
C974 C975 1.362 . S
C975 H965 0.930 . S
C975 C968 1.409 . S
C975 C974 1.362 . S
H976 C982 0.930 . S
H977 C985 0.930 . S
H978 C986 0.930 . S
H979 C987 0.930 . S
H980 C990 0.930 . S
H981 C991 0.930 . S
C982 H976 0.930 . S
C982 C983 1.355 . S
C982 C984 1.415 . S
C983 C982 1.355 . S
C983 C985 1.419 . S
C984 C982 1.415 . S
C984 C989 1.425 . S
C984 C991 1.409 . S
C985 H977 0.930 . S
C985 C983 1.419 . S
C985 C986 1.362 . S
C986 H978 0.930 . S
C986 C985 1.362 . S
C986 C989 1.409 . S
C987 H979 0.930 . S
C987 C988 1.355 . S
C987 C989 1.415 . S
C988 C987 1.355 . S
C988 C990 1.419 . S
C989 C984 1.425 . S
C989 C986 1.409 . S
C989 C987 1.415 . S
C990 H980 0.930 . S
C990 C988 1.419 . S
C990 C991 1.362 . S
C991 H981 0.930 . S
C991 C984 1.409 . S
C991 C990 1.362 . S
H992 C998 0.930 . S
H993 C1001 0.930 . S
H994 C1002 0.930 . S
H995 C1003 0.930 . S
H996 C1006 0.930 . S
H997 C1007 0.930 . S
C998 H992 0.930 . S
C998 C999 1.355 . S
C998 C1000 1.415 . S
C999 C998 1.355 . S
C999 C1001 1.419 . S
C1000 C998 1.415 . S
C1000 C1005 1.425 . S
C1000 C1007 1.409 . S
C1001 H993 0.930 . S
C1001 C999 1.419 . S
C1001 C1002 1.362 . S
C1002 H994 0.930 . S
C1002 C1001 1.362 . S
C1002 C1005 1.409 . S
C1003 H995 0.930 . S
C1003 C1004 1.355 . S
C1003 C1005 1.415 . S
C1004 C1003 1.355 . S
C1004 C1006 1.419 . S
C1005 C1000 1.425 . S
C1005 C1002 1.409 . S
C1005 C1003 1.415 . S
C1006 H996 0.930 . S
C1006 C1004 1.419 . S
C1006 C1007 1.362 . S
C1007 H997 0.930 . S
C1007 C1000 1.409 . S
C1007 C1006 1.362 . S
H1008 C1014 0.930 . S
H1009 C1017 0.930 . S
H1010 C1018 0.930 . S
H1011 C1019 0.930 . S
H1012 C1022 0.930 . S
H1013 C1023 0.930 . S
C1014 H1008 0.930 . S
C1014 C1015 1.355 . S
C1014 C1016 1.415 . S
C1015 C1014 1.355 . S
C1015 C1017 1.419 . S
C1016 C1014 1.415 . S
C1016 C1021 1.425 . S
C1016 C1023 1.409 . S
C1017 H1009 0.930 . S
C1017 C1015 1.419 . S
C1017 C1018 1.362 . S
C1018 H1010 0.930 . S
C1018 C1017 1.362 . S
C1018 C1021 1.409 . S
C1019 H1011 0.930 . S
C1019 C1020 1.355 . S
C1019 C1021 1.415 . S
C1020 C1019 1.355 . S
C1020 C1022 1.419 . S
C1021 C1016 1.425 . S
C1021 C1018 1.409 . S
C1021 C1019 1.415 . S
C1022 H1012 0.930 . S
C1022 C1020 1.419 . S
C1022 C1023 1.362 . S
C1023 H1013 0.930 . S
C1023 C1016 1.409 . S
C1023 C1022 1.362 . S
H1024 C1030 0.930 . S
H1025 C1033 0.930 . S
H1026 C1034 0.930 . S
H1027 C1035 0.930 . S
H1028 C1038 0.930 . S
H1029 C1039 0.930 . S
C1030 H1024 0.930 . S
C1030 C1031 1.355 . S
C1030 C1032 1.415 . S
C1031 C1030 1.355 . S
C1031 C1033 1.419 . S
C1032 C1030 1.415 . S
C1032 C1037 1.425 . S
C1032 C1039 1.409 . S
C1033 H1025 0.930 . S
C1033 C1031 1.419 . S
C1033 C1034 1.362 . S
C1034 H1026 0.930 . S
C1034 C1033 1.362 . S
C1034 C1037 1.409 . S
C1035 H1027 0.930 . S
C1035 C1036 1.355 . S
C1035 C1037 1.415 . S
C1036 C1035 1.355 . S
C1036 C1038 1.419 . S
C1037 C1032 1.425 . S
C1037 C1034 1.409 . S
C1037 C1035 1.415 . S
C1038 H1028 0.930 . S
C1038 C1036 1.419 . S
C1038 C1039 1.362 . S
C1039 H1029 0.930 . S
C1039 C1032 1.409 . S
C1039 C1038 1.362 . S
H1040 C1046 0.930 . S
H1041 C1049 0.913 1_556 S
H1042 C1050 0.930 . S
H1043 C1051 0.930 . S
H1044 C1054 0.930 . S
H1045 C1055 0.930 . S
C1046 H1040 0.930 . S
C1046 C1047 1.355 . S
C1046 C1048 1.415 . S
C1047 C1046 1.355 . S
C1047 C1049 1.419 . S
C1048 C1046 1.415 . S
C1048 C1053 1.425 . S
C1048 C1055 1.409 . S
C1049 H1041 0.913 1_554 S
C1049 C1047 1.419 . S
C1049 C1050 1.362 . S
C1050 H1042 0.930 . S
C1050 C1049 1.362 . S
C1050 C1053 1.409 . S
C1051 H1043 0.930 . S
C1051 C1052 1.355 . S
C1051 C1053 1.415 . S
C1052 C1051 1.355 . S
C1052 C1054 1.419 . S
C1053 C1048 1.425 . S
C1053 C1050 1.409 . S
C1053 C1051 1.415 . S
C1054 H1044 0.930 . S
C1054 C1052 1.419 . S
C1054 C1055 1.362 . S
C1055 H1045 0.930 . S
C1055 C1048 1.409 . S
C1055 C1054 1.362 . S
H1056 C1062 0.930 . S
H1057 C1065 0.930 . S
H1058 C1066 0.930 . S
H1059 C1067 0.930 . S
H1060 C1070 0.930 . S
H1061 C1071 0.930 . S
C1062 H1056 0.930 . S
C1062 C1063 1.355 . S
C1062 C1064 1.415 . S
C1063 C1062 1.355 . S
C1063 C1065 1.419 . S
C1064 C1062 1.415 . S
C1064 C1069 1.425 . S
C1064 C1071 1.409 . S
C1065 H1057 0.930 . S
C1065 C1063 1.419 . S
C1065 C1066 1.362 . S
C1066 H1058 0.930 . S
C1066 C1065 1.362 . S
C1066 C1069 1.409 . S
C1067 H1059 0.930 . S
C1067 C1068 1.355 . S
C1067 C1069 1.415 . S
C1068 C1067 1.355 . S
C1068 C1070 1.419 . S
C1069 C1064 1.425 . S
C1069 C1066 1.409 . S
C1069 C1067 1.415 . S
C1070 H1060 0.930 . S
C1070 C1068 1.419 . S
C1070 C1071 1.362 . S
C1071 H1061 0.930 . S
C1071 C1064 1.409 . S
C1071 C1070 1.362 . S
H1072 C1078 0.930 . S
H1073 C1081 0.930 . S
H1074 C1082 0.930 . S
H1075 C1083 0.930 . S
H1076 C1086 0.930 . S
H1077 C1087 0.930 . S
C1078 H1072 0.930 . S
C1078 C1079 1.355 . S
C1078 C1080 1.415 . S
C1079 C1078 1.355 . S
C1079 C1081 1.419 . S
C1080 C1078 1.415 . S
C1080 C1085 1.425 . S
C1080 C1087 1.409 . S
C1081 H1073 0.930 . S
C1081 C1079 1.419 . S
C1081 C1082 1.362 . S
C1082 H1074 0.930 . S
C1082 C1081 1.362 . S
C1082 C1085 1.409 . S
C1083 H1075 0.930 . S
C1083 C1084 1.355 . S
C1083 C1085 1.415 . S
C1084 C1083 1.355 . S
C1084 C1086 1.419 . S
C1085 C1080 1.425 . S
C1085 C1082 1.409 . S
C1085 C1083 1.415 . S
C1086 H1076 0.930 . S
C1086 C1084 1.419 . S
C1086 C1087 1.362 . S
C1087 H1077 0.930 . S
C1087 C1080 1.409 . S
C1087 C1086 1.362 . S
H1088 C1094 0.930 . S
H1089 C1097 0.930 . S
H1090 C1098 0.930 . S
H1091 C1099 0.930 . S
H1092 C1102 0.930 . S
H1093 C1103 0.930 . S
C1094 H1088 0.930 . S
C1094 C1095 1.355 . S
C1094 C1096 1.415 . S
C1095 C1094 1.355 . S
C1095 C1097 1.419 . S
C1096 C1094 1.415 . S
C1096 C1101 1.425 . S
C1096 C1103 1.409 . S
C1097 H1089 0.930 . S
C1097 C1095 1.419 . S
C1097 C1098 1.362 . S
C1098 H1090 0.930 . S
C1098 C1097 1.362 . S
C1098 C1101 1.409 . S
C1099 H1091 0.930 . S
C1099 C1100 1.355 . S
C1099 C1101 1.415 . S
C1100 C1099 1.355 . S
C1100 C1102 1.419 . S
C1101 C1096 1.425 . S
C1101 C1098 1.409 . S
C1101 C1099 1.415 . S
C1102 H1092 0.930 . S
C1102 C1100 1.419 . S
C1102 C1103 1.362 . S
C1103 H1093 0.930 . S
C1103 C1096 1.409 . S
C1103 C1102 1.362 . S
H1104 C1110 0.930 . S
H1105 C1113 0.930 . S
H1106 C1114 0.930 . S
H1107 C1115 0.930 . S
H1108 C1118 0.930 . S
H1109 C1119 0.930 . S
C1110 H1104 0.930 . S
C1110 C1111 1.355 . S
C1110 C1112 1.415 . S
C1111 C1110 1.355 . S
C1111 C1113 1.419 . S
C1112 C1110 1.415 . S
C1112 C1117 1.425 . S
C1112 C1119 1.409 . S
C1113 H1105 0.930 . S
C1113 C1111 1.419 . S
C1113 C1114 1.362 . S
C1114 H1106 0.930 . S
C1114 C1113 1.362 . S
C1114 C1117 1.409 . S
C1115 H1107 0.930 . S
C1115 C1116 1.355 . S
C1115 C1117 1.415 . S
C1116 C1115 1.355 . S
C1116 C1118 1.419 . S
C1117 C1112 1.425 . S
C1117 C1114 1.409 . S
C1117 C1115 1.415 . S
C1118 H1108 0.930 . S
C1118 C1116 1.419 . S
C1118 C1119 1.362 . S
C1119 H1109 0.930 . S
C1119 C1112 1.409 . S
C1119 C1118 1.362 . S
H1120 C1126 0.930 . S
H1121 C1129 0.930 . S
H1122 C1130 0.930 . S
H1123 C1131 0.930 . S
H1124 C1134 0.930 . S
H1125 C1135 0.930 . S
C1126 H1120 0.930 . S
C1126 C1127 1.355 . S
C1126 C1128 1.415 . S
C1127 C1126 1.355 . S
C1127 C1129 1.419 . S
C1128 C1126 1.415 . S
C1128 C1133 1.425 . S
C1128 C1135 1.409 . S
C1129 H1121 0.930 . S
C1129 C1127 1.419 . S
C1129 C1130 1.362 . S
C1130 H1122 0.930 . S
C1130 C1129 1.362 . S
C1130 C1133 1.409 . S
C1131 H1123 0.930 . S
C1131 C1132 1.355 . S
C1131 C1133 1.415 . S
C1132 C1131 1.355 . S
C1132 C1134 1.419 . S
C1133 C1128 1.425 . S
C1133 C1130 1.409 . S
C1133 C1131 1.415 . S
C1134 H1124 0.930 . S
C1134 C1132 1.419 . S
C1134 C1135 1.362 . S
C1135 H1125 0.930 . S
C1135 C1128 1.409 . S
C1135 C1134 1.362 . S
H1136 C1142 0.930 . S
H1137 C1145 0.930 . S
H1138 C1146 0.930 . S
H1139 C1147 0.930 . S
H1140 C1150 0.930 . S
H1141 C1151 0.930 . S
C1142 H1136 0.930 . S
C1142 C1143 1.355 . S
C1142 C1144 1.415 . S
C1143 C1142 1.355 . S
C1143 C1145 1.419 . S
C1144 C1142 1.415 . S
C1144 C1149 1.425 . S
C1144 C1151 1.409 . S
C1145 H1137 0.930 . S
C1145 C1143 1.419 . S
C1145 C1146 1.362 . S
C1146 H1138 0.930 . S
C1146 C1145 1.362 . S
C1146 C1149 1.409 . S
C1147 H1139 0.930 . S
C1147 C1148 1.355 . S
C1147 C1149 1.415 . S
C1148 C1147 1.355 . S
C1148 C1150 1.419 . S
C1149 C1144 1.425 . S
C1149 C1146 1.409 . S
C1149 C1147 1.415 . S
C1150 H1140 0.930 . S
C1150 C1148 1.419 . S
C1150 C1151 1.362 . S
C1151 H1141 0.930 . S
C1151 C1144 1.409 . S
C1151 C1150 1.362 . S
H1152 C1158 0.930 . S
H1153 C1161 0.930 . S
H1154 C1162 0.930 . S
H1155 C1163 0.930 . S
H1156 C1166 0.930 . S
H1157 C1167 0.930 . S
C1158 H1152 0.930 . S
C1158 C1159 1.355 . S
C1158 C1160 1.415 . S
C1159 C1158 1.355 . S
C1159 C1161 1.419 . S
C1160 C1158 1.415 . S
C1160 C1165 1.425 . S
C1160 C1167 1.409 . S
C1161 H1153 0.930 . S
C1161 C1159 1.419 . S
C1161 C1162 1.362 . S
C1162 H1154 0.930 . S
C1162 C1161 1.362 . S
C1162 C1165 1.409 . S
C1163 H1155 0.930 . S
C1163 C1164 1.355 . S
C1163 C1165 1.415 . S
C1164 C1163 1.355 . S
C1164 C1166 1.419 . S
C1165 C1160 1.425 . S
C1165 C1162 1.409 . S
C1165 C1163 1.415 . S
C1166 H1156 0.930 . S
C1166 C1164 1.419 . S
C1166 C1167 1.362 . S
C1167 H1157 0.930 . S
C1167 C1160 1.409 . S
C1167 C1166 1.362 . S
H1168 C1174 0.930 . S
H1169 C1177 0.930 . S
H1170 C1178 0.930 . S
H1171 C1179 0.930 . S
H1172 C1182 0.930 . S
H1173 C1183 0.930 . S
C1174 H1168 0.930 . S
C1174 C1175 1.355 . S
C1174 C1176 1.415 . S
C1175 C1174 1.355 . S
C1175 C1177 1.419 . S
C1176 C1174 1.415 . S
C1176 C1181 1.425 . S
C1176 C1183 1.409 . S
C1177 H1169 0.930 . S
C1177 C1175 1.419 . S
C1177 C1178 1.362 . S
C1178 H1170 0.930 . S
C1178 C1177 1.362 . S
C1178 C1181 1.409 . S
C1179 H1171 0.930 . S
C1179 C1180 1.355 . S
C1179 C1181 1.415 . S
C1180 C1179 1.355 . S
C1180 C1182 1.419 . S
C1181 C1176 1.425 . S
C1181 C1178 1.409 . S
C1181 C1179 1.415 . S
C1182 H1172 0.930 . S
C1182 C1180 1.419 . S
C1182 C1183 1.362 . S
C1183 H1173 0.930 . S
C1183 C1176 1.409 . S
C1183 C1182 1.362 . S
H1184 C1190 0.930 . S
H1185 C1193 0.930 . S
H1186 C1194 0.930 . S
H1187 C1195 0.930 . S
H1188 C1198 0.930 . S
H1189 C1199 0.930 . S
C1190 H1184 0.930 . S
C1190 C1191 1.355 . S
C1190 C1192 1.415 . S
C1191 C1190 1.355 . S
C1191 C1193 1.419 . S
C1192 C1190 1.415 . S
C1192 C1197 1.425 . S
C1192 C1199 1.409 . S
C1193 H1185 0.930 . S
C1193 C1191 1.419 . S
C1193 C1194 1.362 . S
C1194 H1186 0.930 . S
C1194 C1193 1.362 . S
C1194 C1197 1.409 . S
C1195 H1187 0.930 . S
C1195 C1196 1.355 . S
C1195 C1197 1.415 . S
C1196 C1195 1.355 . S
C1196 C1198 1.419 . S
C1197 C1192 1.425 . S
C1197 C1194 1.409 . S
C1197 C1195 1.415 . S
C1198 H1188 0.930 . S
C1198 C1196 1.419 . S
C1198 C1199 1.362 . S
C1199 H1189 0.930 . S
C1199 C1192 1.409 . S
C1199 C1198 1.362 . S
H1200 C1206 0.930 . S
H1201 C1209 0.930 . S
H1202 C1210 0.930 . S
H1203 C1211 0.930 . S
H1204 C1214 0.930 . S
H1205 C1215 0.930 . S
C1206 H1200 0.930 . S
C1206 C1207 1.355 . S
C1206 C1208 1.415 . S
C1207 C1206 1.355 . S
C1207 C1209 1.419 . S
C1208 C1206 1.415 . S
C1208 C1213 1.425 . S
C1208 C1215 1.409 . S
C1209 H1201 0.930 . S
C1209 C1207 1.419 . S
C1209 C1210 1.362 . S
C1210 H1202 0.930 . S
C1210 C1209 1.362 . S
C1210 C1213 1.409 . S
C1211 H1203 0.930 . S
C1211 C1212 1.355 . S
C1211 C1213 1.415 . S
C1212 C1211 1.355 . S
C1212 C1214 1.419 . S
C1213 C1208 1.425 . S
C1213 C1210 1.409 . S
C1213 C1211 1.415 . S
C1214 H1204 0.930 . S
C1214 C1212 1.419 . S
C1214 C1215 1.362 . S
C1215 H1205 0.930 . S
C1215 C1208 1.409 . S
C1215 C1214 1.362 . S
H1216 C1222 0.930 . S
H1217 C1225 0.930 . S
H1218 C1226 0.930 . S
H1219 C1227 0.930 . S
H1220 C1230 0.930 . S
H1221 C1231 0.930 . S
C1222 H1216 0.930 . S
C1222 C1223 1.355 . S
C1222 C1224 1.415 . S
C1223 C1222 1.355 . S
C1223 C1225 1.419 . S
C1224 C1222 1.415 . S
C1224 C1229 1.425 . S
C1224 C1231 1.409 . S
C1225 H1217 0.930 . S
C1225 C1223 1.419 . S
C1225 C1226 1.362 . S
C1226 H1218 0.930 . S
C1226 C1225 1.362 . S
C1226 C1229 1.409 . S
C1227 H1219 0.930 . S
C1227 C1228 1.355 . S
C1227 C1229 1.415 . S
C1228 C1227 1.355 . S
C1228 C1230 1.419 . S
C1229 C1224 1.425 . S
C1229 C1226 1.409 . S
C1229 C1227 1.415 . S
C1230 H1220 0.930 . S
C1230 C1228 1.419 . S
C1230 C1231 1.362 . S
C1231 H1221 0.930 . S
C1231 C1224 1.409 . S
C1231 C1230 1.362 . S
H1232 C1238 0.930 . S
H1233 C1241 0.930 . S
H1234 C1242 0.930 . S
H1235 C1243 0.930 . S
H1236 C1246 0.930 . S
H1237 C1247 0.930 . S
C1238 H1232 0.930 . S
C1238 C1239 1.355 . S
C1238 C1240 1.415 . S
C1239 C1238 1.355 . S
C1239 C1241 1.419 . S
C1240 C1238 1.415 . S
C1240 C1245 1.425 . S
C1240 C1247 1.409 . S
C1241 H1233 0.930 . S
C1241 C1239 1.419 . S
C1241 C1242 1.362 . S
C1242 H1234 0.930 . S
C1242 C1241 1.362 . S
C1242 C1245 1.409 . S
C1243 H1235 0.930 . S
C1243 C1244 1.355 . S
C1243 C1245 1.415 . S
C1244 C1243 1.355 . S
C1244 C1246 1.419 . S
C1245 C1240 1.425 . S
C1245 C1242 1.409 . S
C1245 C1243 1.415 . S
C1246 H1236 0.930 . S
C1246 C1244 1.419 . S
C1246 C1247 1.362 . S
C1247 H1237 0.930 . S
C1247 C1240 1.409 . S
C1247 C1246 1.362 . S
H1248 C1254 0.930 . S
H1249 C1257 0.930 . S
H1250 C1258 0.930 . S
H1251 C1259 0.930 . S
H1252 C1262 0.930 . S
H1253 C1263 0.930 . S
C1254 H1248 0.930 . S
C1254 C1255 1.355 . S
C1254 C1256 1.415 . S
C1255 C1254 1.355 . S
C1255 C1257 1.419 . S
C1256 C1254 1.415 . S
C1256 C1261 1.425 . S
C1256 C1263 1.409 . S
C1257 H1249 0.930 . S
C1257 C1255 1.419 . S
C1257 C1258 1.362 . S
C1258 H1250 0.930 . S
C1258 C1257 1.362 . S
C1258 C1261 1.409 . S
C1259 H1251 0.930 . S
C1259 C1260 1.355 . S
C1259 C1261 1.415 . S
C1260 C1259 1.355 . S
C1260 C1262 1.419 . S
C1261 C1256 1.425 . S
C1261 C1258 1.409 . S
C1261 C1259 1.415 . S
C1262 H1252 0.930 . S
C1262 C1260 1.419 . S
C1262 C1263 1.362 . S
C1263 H1253 0.930 . S
C1263 C1256 1.409 . S
C1263 C1262 1.362 . S
H1264 C1270 0.930 . S
H1265 C1273 0.930 . S
H1266 C1274 0.930 . S
H1267 C1275 0.930 . S
H1268 C1278 0.930 . S
H1269 C1279 0.930 . S
C1270 H1264 0.930 . S
C1270 C1271 1.355 . S
C1270 C1272 1.415 . S
C1271 C1270 1.355 . S
C1271 C1273 1.419 . S
C1272 C1270 1.415 . S
C1272 C1277 1.425 . S
C1272 C1279 1.409 . S
C1273 H1265 0.930 . S
C1273 C1271 1.419 . S
C1273 C1274 1.362 . S
C1274 H1266 0.930 . S
C1274 C1273 1.362 . S
C1274 C1277 1.409 . S
C1275 H1267 0.930 . S
C1275 C1276 1.355 . S
C1275 C1277 1.415 . S
C1276 C1275 1.355 . S
C1276 C1278 1.419 . S
C1277 C1272 1.425 . S
C1277 C1274 1.409 . S
C1277 C1275 1.415 . S
C1278 H1268 0.930 . S
C1278 C1276 1.419 . S
C1278 C1279 1.362 . S
C1279 H1269 0.930 . S
C1279 C1272 1.409 . S
C1279 C1278 1.362 . S
H1280 C1286 0.930 . S
H1281 C1289 0.930 1_556 S
H1282 C1290 0.930 . S
H1283 C1291 0.930 . S
H1284 C1294 0.930 . S
H1285 C1295 0.930 . S
C1286 H1280 0.930 . S
C1286 C1287 1.355 . S
C1286 C1288 1.415 . S
C1287 C1286 1.355 . S
C1287 C1289 1.419 . S
C1288 C1286 1.415 . S
C1288 C1293 1.425 . S
C1288 C1295 1.409 . S
C1289 H1281 0.930 1_554 S
C1289 C1287 1.419 . S
C1289 C1290 1.362 . S
C1290 H1282 0.930 . S
C1290 C1289 1.362 . S
C1290 C1293 1.409 . S
C1291 H1283 0.930 . S
C1291 C1292 1.355 . S
C1291 C1293 1.415 . S
C1292 C1291 1.355 . S
C1292 C1294 1.419 . S
C1293 C1288 1.425 . S
C1293 C1290 1.409 . S
C1293 C1291 1.415 . S
C1294 H1284 0.930 . S
C1294 C1292 1.419 . S
C1294 C1295 1.362 . S
C1295 H1285 0.930 . S
C1295 C1288 1.409 . S
C1295 C1294 1.362 . S
H1296 C1302 0.930 . S
H1297 C1305 0.930 . S
H1298 C1306 0.930 . S
H1299 C1307 0.930 . S
H1300 C1310 0.930 . S
H1301 C1311 0.930 . S
C1302 H1296 0.930 . S
C1302 C1303 1.355 . S
C1302 C1304 1.415 . S
C1303 C1302 1.355 . S
C1303 C1305 1.419 . S
C1304 C1302 1.415 . S
C1304 C1309 1.425 . S
C1304 C1311 1.409 . S
C1305 H1297 0.930 . S
C1305 C1303 1.419 . S
C1305 C1306 1.362 . S
C1306 H1298 0.930 . S
C1306 C1305 1.362 . S
C1306 C1309 1.409 . S
C1307 H1299 0.930 . S
C1307 C1308 1.355 . S
C1307 C1309 1.415 . S
C1308 C1307 1.355 . S
C1308 C1310 1.419 . S
C1309 C1304 1.425 . S
C1309 C1306 1.409 . S
C1309 C1307 1.415 . S
C1310 H1300 0.930 . S
C1310 C1308 1.419 . S
C1310 C1311 1.362 . S
C1311 H1301 0.930 . S
C1311 C1304 1.409 . S
C1311 C1310 1.362 . S
H1312 C1318 0.930 . S
H1313 C1321 0.930 . S
H1314 C1322 0.930 . S
H1315 C1323 0.930 . S
H1316 C1326 0.930 . S
H1317 C1327 0.930 . S
C1318 H1312 0.930 . S
C1318 C1319 1.355 . S
C1318 C1320 1.415 . S
C1319 C1318 1.355 . S
C1319 C1321 1.419 . S
C1320 C1318 1.415 . S
C1320 C1325 1.425 . S
C1320 C1327 1.409 . S
C1321 H1313 0.930 . S
C1321 C1319 1.419 . S
C1321 C1322 1.362 . S
C1322 H1314 0.930 . S
C1322 C1321 1.362 . S
C1322 C1325 1.409 . S
C1323 H1315 0.930 . S
C1323 C1324 1.355 . S
C1323 C1325 1.415 . S
C1324 C1323 1.355 . S
C1324 C1326 1.419 . S
C1325 C1320 1.425 . S
C1325 C1322 1.409 . S
C1325 C1323 1.415 . S
C1326 H1316 0.930 . S
C1326 C1324 1.419 . S
C1326 C1327 1.362 . S
C1327 H1317 0.930 . S
C1327 C1320 1.409 . S
C1327 C1326 1.362 . S
H1328 C1334 0.930 . S
H1329 C1337 0.930 . S
H1330 C1338 0.930 . S
H1331 C1339 0.930 . S
H1332 C1342 0.930 . S
H1333 C1343 0.930 . S
C1334 H1328 0.930 . S
C1334 C1335 1.355 . S
C1334 C1336 1.415 . S
C1335 C1334 1.355 . S
C1335 C1337 1.419 . S
C1336 C1334 1.415 . S
C1336 C1341 1.425 . S
C1336 C1343 1.409 . S
C1337 H1329 0.930 . S
C1337 C1335 1.419 . S
C1337 C1338 1.362 . S
C1338 H1330 0.930 . S
C1338 C1337 1.362 . S
C1338 C1341 1.409 . S
C1339 H1331 0.930 . S
C1339 C1340 1.355 . S
C1339 C1341 1.415 . S
C1340 C1339 1.355 . S
C1340 C1342 1.419 . S
C1341 C1336 1.425 . S
C1341 C1338 1.409 . S
C1341 C1339 1.415 . S
C1342 H1332 0.930 . S
C1342 C1340 1.419 . S
C1342 C1343 1.362 . S
C1343 H1333 0.930 . S
C1343 C1336 1.409 . S
C1343 C1342 1.362 . S
H1344 C1350 0.930 . S
H1345 C1353 0.930 . S
H1346 C1354 0.930 . S
H1347 C1355 0.930 . S
H1348 C1358 0.930 . S
H1349 C1359 0.930 . S
C1350 H1344 0.930 . S
C1350 C1351 1.355 . S
C1350 C1352 1.415 . S
C1351 C1350 1.355 . S
C1351 C1353 1.419 . S
C1352 C1350 1.415 . S
C1352 C1357 1.425 . S
C1352 C1359 1.409 . S
C1353 H1345 0.930 . S
C1353 C1351 1.419 . S
C1353 C1354 1.362 . S
C1354 H1346 0.930 . S
C1354 C1353 1.362 . S
C1354 C1357 1.409 . S
C1355 H1347 0.930 . S
C1355 C1356 1.355 . S
C1355 C1357 1.415 . S
C1356 C1355 1.355 . S
C1356 C1358 1.419 . S
C1357 C1352 1.425 . S
C1357 C1354 1.409 . S
C1357 C1355 1.415 . S
C1358 H1348 0.930 . S
C1358 C1356 1.419 . S
C1358 C1359 1.362 . S
C1359 H1349 0.930 . S
C1359 C1352 1.409 . S
C1359 C1358 1.362 . S
H1360 C1366 0.930 . S
H1361 C1369 0.930 1_554 S
H1362 C1370 0.930 . S
H1363 C1371 0.930 . S
H1364 C1374 0.930 . S
H1365 C1375 0.930 . S
C1366 H1360 0.930 . S
C1366 C1367 1.355 . S
C1366 C1368 1.415 . S
C1367 C1366 1.355 . S
C1367 C1369 1.419 . S
C1368 C1366 1.415 . S
C1368 C1373 1.425 . S
C1368 C1375 1.409 . S
C1369 H1361 0.930 1_556 S
C1369 C1367 1.419 . S
C1369 C1370 1.362 . S
C1370 H1362 0.930 . S
C1370 C1369 1.362 . S
C1370 C1373 1.409 . S
C1371 H1363 0.930 . S
C1371 C1372 1.355 . S
C1371 C1373 1.415 . S
C1372 C1371 1.355 . S
C1372 C1374 1.419 . S
C1373 C1368 1.425 . S
C1373 C1370 1.409 . S
C1373 C1371 1.415 . S
C1374 H1364 0.930 . S
C1374 C1372 1.419 . S
C1374 C1375 1.362 . S
C1375 H1365 0.930 . S
C1375 C1368 1.409 . S
C1375 C1374 1.362 . S
H1376 C1382 0.930 . S
H1377 C1385 0.930 1_556 S
H1378 C1386 0.930 . S
H1379 C1387 0.930 . S
H1380 C1390 0.930 . S
H1381 C1391 0.930 . S
C1382 H1376 0.930 . S
C1382 C1383 1.355 . S
C1382 C1384 1.415 . S
C1383 C1382 1.355 . S
C1383 C1385 1.419 . S
C1384 C1382 1.415 . S
C1384 C1389 1.425 . S
C1384 C1391 1.409 . S
C1385 H1377 0.930 1_554 S
C1385 C1383 1.419 . S
C1385 C1386 1.362 . S
C1386 H1378 0.930 . S
C1386 C1385 1.362 . S
C1386 C1389 1.409 . S
C1387 H1379 0.930 . S
C1387 C1388 1.355 . S
C1387 C1389 1.415 . S
C1388 C1387 1.355 . S
C1388 C1390 1.419 . S
C1389 C1384 1.425 . S
C1389 C1386 1.409 . S
C1389 C1387 1.415 . S
C1390 H1380 0.930 . S
C1390 C1388 1.419 . S
C1390 C1391 1.362 . S
C1391 H1381 0.930 . S
C1391 C1384 1.409 . S
C1391 C1390 1.362 . S
H1392 C1398 0.930 . S
H1393 C1401 0.930 . S
H1394 C1402 0.930 . S
H1395 C1403 0.930 . S
H1396 C1406 0.930 1_554 S
H1397 C1407 0.930 . S
C1398 H1392 0.930 . S
C1398 C1399 1.355 . S
C1398 C1400 1.415 . S
C1399 C1398 1.355 . S
C1399 C1401 1.419 . S
C1400 C1398 1.415 . S
C1400 C1405 1.425 . S
C1400 C1407 1.409 . S
C1401 H1393 0.930 . S
C1401 C1399 1.419 . S
C1401 C1402 1.362 . S
C1402 H1394 0.930 . S
C1402 C1401 1.362 . S
C1402 C1405 1.409 . S
C1403 H1395 0.930 . S
C1403 C1404 1.355 . S
C1403 C1405 1.415 . S
C1404 C1403 1.355 . S
C1404 C1406 1.419 . S
C1405 C1400 1.425 . S
C1405 C1402 1.409 . S
C1405 C1403 1.415 . S
C1406 H1396 0.930 1_556 S
C1406 C1404 1.419 . S
C1406 C1407 1.362 . S
C1407 H1397 0.930 . S
C1407 C1400 1.409 . S
C1407 C1406 1.362 . S
C647 C464 1.727 . S
C652 C23 1.727 . S
C663 C333 1.728 . S
C668 C42 1.729 . S
C679 C103 1.711 . S
C684 C384 1.707 . S
C695 C122 1.696 . S
C700 C413 1.694 . S
C711 C183 1.727 . S
C716 C224 1.724 . S
C727 C253 1.725 . S
C732 C202 1.725 . S
C743 C263 1.711 . S
C748 C304 1.711 . S
C759 C173 1.716 . S
C764 C282 1.716 . S
C775 C144 1.704 . S
C780 C343 1.704 . S
C791 C362 1.706 . S
C796 C13 1.702 . S
C807 C64 1.708 . S
C812 C423 1.712 . S
C823 C93 1.694 . S
C828 C442 1.696 . S
C839 C503 1.704 . S
C844 C544 1.704 . S
C855 C573 1.727 . S
C860 C522 1.727 . S
C871 C624 1.710 . S
C876 C583 1.710 . S
C887 C602 1.727 . S
C892 C493 1.727 . S
C903 C2 1.254 . S
C908 C162 1.257 . S
C919 C223 1.261 . S
C924 C63 1.262 . S
C935 C82 1.201 . S
C940 C242 1.208 . S
C951 C143 1.261 . S
C956 C303 1.262 . S
C967 C322 1.191 . S
C972 C482 1.198 . S
C983 C543 1.246 . S
C988 C383 1.241 . S
C999 C402 1.262 . S
C1004 C562 1.260 . S
C1015 C463 1.142 . S
C1020 C623 1.143 . S
C1031 C584 2.410 . S
C1036 C24 2.410 1_556 S
C1047 C53 2.460 1_554 S
C1052 C613 2.459 . S
C1063 C104 2.423 1_556 S
C1068 C504 2.420 . S
C1079 C133 2.416 1_554 S
C1084 C533 2.414 . S
C1095 C184 2.411 . S
C1100 C424 2.410 . S
C1111 C213 2.455 . S
C1116 C453 2.457 . S
C1127 C264 2.460 . S
C1132 C344 2.460 . S
C1143 C373 2.457 . S
C1148 C293 2.458 . S
C1159 C26 1.123 . S
C1164 C17 1.123 . S
C1175 C57 1.134 . S
C1180 C66 1.134 . S
C1191 C106 1.105 . S
C1196 C97 1.105 . S
C1207 C146 1.128 . S
C1212 C137 1.128 . S
C1223 C177 1.135 . S
C1228 C186 1.135 . S
C1239 C217 1.063 . S
C1244 C226 1.063 . S
C1255 C266 1.081 . S
C1260 C257 1.081 . S
C1271 C306 1.117 . S
C1276 C297 1.117 . S
C1287 C346 1.054 1_554 S
C1292 C337 1.054 . S
C1303 C386 1.121 . S
C1308 C377 1.121 1_556 S
C1319 C417 1.064 . S
C1324 C426 1.064 1_554 S
C1335 C457 1.083 1_556 S
C1340 C466 1.083 . S
C1351 C506 1.129 . S
C1356 C497 1.129 1_554 S
C1367 C546 1.066 1_556 S
C1372 C537 1.066 . S
C1383 C577 1.054 1_554 S
C1388 C586 1.054 . S
C1399 C617 1.056 . S
C1404 C626 1.056 1_556 S
