# Generated by pormake.
# Topology atn, (4)-cn, num edge types: 1
# Building blocks:
#     Node 0, Type 0, BuildingBlock: CEKHIL_clean_sbu_0, # of connection points: 4
#     Node 1, Type 0, BuildingBlock: CEKHIL_clean_sbu_0, # of connection points: 4
#     Node 2, Type 0, BuildingBlock: CEKHIL_clean_sbu_0, # of connection points: 4
#     Node 3, Type 0, BuildingBlock: CEKHIL_clean_sbu_0, # of connection points: 4
#     Node 4, Type 0, BuildingBlock: CEKHIL_clean_sbu_0, # of connection points: 4
#     Node 5, Type 0, BuildingBlock: CEKHIL_clean_sbu_0, # of connection points: 4
#     Node 6, Type 0, BuildingBlock: CEKHIL_clean_sbu_0, # of connection points: 4
#     Node 7, Type 0, BuildingBlock: CEKHIL_clean_sbu_0, # of connection points: 4
#     Node 8, Type 0, BuildingBlock: CEKHIL_clean_sbu_0, # of connection points: 4
#     Node 9, Type 0, BuildingBlock: CEKHIL_clean_sbu_0, # of connection points: 4
#     Node 10, Type 0, BuildingBlock: CEKHIL_clean_sbu_0, # of connection points: 4
#     Node 11, Type 0, BuildingBlock: CEKHIL_clean_sbu_0, # of connection points: 4
#     Node 12, Type 0, BuildingBlock: CEKHIL_clean_sbu_0, # of connection points: 4
#     Node 13, Type 0, BuildingBlock: CEKHIL_clean_sbu_0, # of connection points: 4
#     Node 14, Type 0, BuildingBlock: CEKHIL_clean_sbu_0, # of connection points: 4
#     Node 15, Type 0, BuildingBlock: CEKHIL_clean_sbu_0, # of connection points: 4
#     Edge 16, Type (0, 0), BuildingBlock: ZUJKAS_clean_linker_0, # of connection points: 2
#     Edge 17, Type (0, 0), BuildingBlock: ZUJKAS_clean_linker_0, # of connection points: 2
#     Edge 18, Type (0, 0), BuildingBlock: ZUJKAS_clean_linker_0, # of connection points: 2
#     Edge 19, Type (0, 0), BuildingBlock: ZUJKAS_clean_linker_0, # of connection points: 2
#     Edge 20, Type (0, 0), BuildingBlock: ZUJKAS_clean_linker_0, # of connection points: 2
#     Edge 21, Type (0, 0), BuildingBlock: ZUJKAS_clean_linker_0, # of connection points: 2
#     Edge 22, Type (0, 0), BuildingBlock: ZUJKAS_clean_linker_0, # of connection points: 2
#     Edge 23, Type (0, 0), BuildingBlock: ZUJKAS_clean_linker_0, # of connection points: 2
#     Edge 24, Type (0, 0), BuildingBlock: ZUJKAS_clean_linker_0, # of connection points: 2
#     Edge 25, Type (0, 0), BuildingBlock: ZUJKAS_clean_linker_0, # of connection points: 2
#     Edge 26, Type (0, 0), BuildingBlock: ZUJKAS_clean_linker_0, # of connection points: 2
#     Edge 27, Type (0, 0), BuildingBlock: ZUJKAS_clean_linker_0, # of connection points: 2
#     Edge 28, Type (0, 0), BuildingBlock: ZUJKAS_clean_linker_0, # of connection points: 2
#     Edge 29, Type (0, 0), BuildingBlock: ZUJKAS_clean_linker_0, # of connection points: 2
#     Edge 30, Type (0, 0), BuildingBlock: ZUJKAS_clean_linker_0, # of connection points: 2
#     Edge 31, Type (0, 0), BuildingBlock: ZUJKAS_clean_linker_0, # of connection points: 2
#     Edge 32, Type (0, 0), BuildingBlock: ZUJKAS_clean_linker_0, # of connection points: 2
#     Edge 33, Type (0, 0), BuildingBlock: ZUJKAS_clean_linker_0, # of connection points: 2
#     Edge 34, Type (0, 0), BuildingBlock: ZUJKAS_clean_linker_0, # of connection points: 2
#     Edge 35, Type (0, 0), BuildingBlock: ZUJKAS_clean_linker_0, # of connection points: 2
#     Edge 36, Type (0, 0), BuildingBlock: ZUJKAS_clean_linker_0, # of connection points: 2
#     Edge 37, Type (0, 0), BuildingBlock: ZUJKAS_clean_linker_0, # of connection points: 2
#     Edge 38, Type (0, 0), BuildingBlock: ZUJKAS_clean_linker_0, # of connection points: 2
#     Edge 39, Type (0, 0), BuildingBlock: ZUJKAS_clean_linker_0, # of connection points: 2
#     Edge 40, Type (0, 0), BuildingBlock: ZUJKAS_clean_linker_0, # of connection points: 2
#     Edge 41, Type (0, 0), BuildingBlock: ZUJKAS_clean_linker_0, # of connection points: 2
#     Edge 42, Type (0, 0), BuildingBlock: ZUJKAS_clean_linker_0, # of connection points: 2
#     Edge 43, Type (0, 0), BuildingBlock: ZUJKAS_clean_linker_0, # of connection points: 2
#     Edge 44, Type (0, 0), BuildingBlock: ZUJKAS_clean_linker_0, # of connection points: 2
#     Edge 45, Type (0, 0), BuildingBlock: ZUJKAS_clean_linker_0, # of connection points: 2
#     Edge 46, Type (0, 0), BuildingBlock: ZUJKAS_clean_linker_0, # of connection points: 2
#     Edge 47, Type (0, 0), BuildingBlock: ZUJKAS_clean_linker_0, # of connection points: 2
# Relax obj value: 0.034
# Max RMSD: 0.063
# Mean RMSD: 0.063
data_MOF--net-atn--node1-CEKHIL_clean_sbu_0--edge1-ZUJKAS_clean_linker_0
_symmetry_space_group_name_H-M    P1
_symmetry_Int_Tables_number       1
_symmetry_cell_setting            triclinic
loop_
_symmetry_equiv_pos_as_xyz
'x, y, z'
_cell_length_a     77.022288
_cell_length_b     76.993173
_cell_length_c     35.326769
_cell_angle_alpha  89.988386
_cell_angle_beta   90.002227
_cell_angle_gamma 90.021963
loop_
_atom_site_label
_atom_site_type_symbol
_atom_site_fract_x
_atom_site_fract_y
_atom_site_fract_z
_atom_type_partial_charge
Co0 Co 0.19656 0.38082 0.99141 0.0
O1 O 0.18403 0.40247 0.99188 0.0
O2 O 0.2111 0.39924 0.01149 0.0
C3 C 0.18909 0.37335 0.93182 0.0
O4 O 0.21405 0.36081 0.99343 0.0
Co5 Co 0.17734 0.34556 0.98062 0.0
O6 O 0.20111 0.33649 0.97228 0.0
C7 C 0.17543 0.36391 0.05411 0.0
C8 C 0.19808 0.40958 0.00492 0.0
C9 C 0.21461 0.34481 0.98263 0.0
O10 O 0.18724 0.37477 0.04349 0.0
O11 O 0.16884 0.35249 0.032 0.0
O12 O 0.20188 0.38402 0.93764 0.0
O13 O 0.18053 0.36879 0.96154 0.0
Co14 Co 0.62395 0.19662 0.99079 0.0
O15 O 0.60237 0.18396 0.99061 0.0
O16 O 0.60537 0.21102 0.01053 0.0
C17 C 0.63179 0.1893 0.93135 0.0
O18 O 0.64386 0.21422 0.99341 0.0
Co19 Co 0.65936 0.17761 0.9808 0.0
O20 O 0.66831 0.20145 0.97256 0.0
C21 C 0.64048 0.17529 0.05357 0.0
C22 C 0.59513 0.19796 0.00358 0.0
C23 C 0.65987 0.2149 0.9828 0.0
O24 O 0.62975 0.18721 0.04291 0.0
O25 O 0.65201 0.16877 0.03167 0.0
O26 O 0.62101 0.20201 0.93699 0.0
O27 O 0.63623 0.18071 0.96112 0.0
Co28 Co 0.8076 0.62424 0.99085 0.0
O29 O 0.81996 0.6025 0.9909 0.0
O30 O 0.79278 0.60579 0.00976 0.0
C31 C 0.81551 0.63223 0.93187 0.0
O32 O 0.79026 0.64438 0.99309 0.0
Co33 Co 0.82719 0.65944 0.98236 0.0
O34 O 0.80357 0.66877 0.97338 0.0
C35 C 0.82839 0.6404 0.05507 0.0
C36 C 0.80578 0.5954 0.00333 0.0
C37 C 0.78991 0.66047 0.98287 0.0
O38 O 0.8166 0.62973 0.04345 0.0
O39 O 0.83522 0.65201 0.03379 0.0
O40 O 0.80263 0.62156 0.93679 0.0
O41 O 0.82391 0.63643 0.96206 0.0
Co42 Co 0.38169 0.8084 0.99318 0.0
O43 O 0.40329 0.82102 0.99371 0.0
O44 O 0.40016 0.79388 0.01304 0.0
C45 C 0.37419 0.81609 0.93373 0.0
O46 O 0.36171 0.79085 0.99513 0.0
Co47 Co 0.34629 0.82736 0.98241 0.0
O48 O 0.33793 0.80359 0.97067 0.0
C49 C 0.36471 0.82932 0.05596 0.0
C50 C 0.41045 0.80696 0.00659 0.0
C51 C 0.34609 0.79017 0.98204 0.0
O52 O 0.37567 0.81762 0.04529 0.0
O53 O 0.35316 0.83576 0.03396 0.0
O54 O 0.38487 0.80328 0.93926 0.0
O55 O 0.3696 0.82448 0.96365 0.0
Co56 Co 0.19708 0.62467 0.00625 0.0
O57 O 0.18454 0.60301 0.00548 0.0
O58 O 0.21159 0.60634 0.98579 0.0
C59 C 0.1896 0.6319 0.06596 0.0
O60 O 0.21455 0.64472 0.00437 0.0
Co61 Co 0.17808 0.65997 0.01781 0.0
O62 O 0.20184 0.66842 0.02922 0.0
C63 C 0.1763 0.6421 0.94358 0.0
C64 C 0.19857 0.59597 0.99218 0.0
C65 C 0.21524 0.66033 0.01752 0.0
O66 O 0.18771 0.63086 0.95437 0.0
O67 O 0.16999 0.6537 0.96564 0.0
O68 O 0.20242 0.62129 0.05994 0.0
O69 O 0.18105 0.6366 0.03631 0.0
Co70 Co 0.37991 0.197 0.00424 0.0
O71 O 0.40161 0.18455 0.00437 0.0
O72 O 0.39835 0.21158 0.98442 0.0
C73 C 0.37212 0.18961 0.06366 0.0
O74 O 0.35987 0.21444 0.00163 0.0
Co75 Co 0.34467 0.17769 0.01405 0.0
O76 O 0.33549 0.20143 0.02218 0.0
C77 C 0.36336 0.17586 0.94098 0.0
C78 C 0.40871 0.19859 0.99124 0.0
C79 C 0.34382 0.21496 0.01203 0.0
O80 O 0.37422 0.18757 0.9521 0.0
O81 O 0.35173 0.16933 0.96264 0.0
O82 O 0.38281 0.20241 0.05802 0.0
O83 O 0.36776 0.18097 0.03389 0.0
Co84 Co 0.80703 0.38019 0.00646 0.0
O85 O 0.81954 0.40187 0.00638 0.0
O86 O 0.79259 0.39858 0.98602 0.0
C87 C 0.81416 0.37262 0.06617 0.0
O88 O 0.78955 0.36018 0.00394 0.0
Co89 Co 0.82615 0.34493 0.01722 0.0
O90 O 0.80236 0.33587 0.02548 0.0
C91 C 0.82819 0.36324 0.9437 0.0
C92 C 0.80557 0.40894 0.99284 0.0
C93 C 0.78891 0.34419 0.01485 0.0
O94 O 0.81661 0.37428 0.95459 0.0
O95 O 0.83456 0.35161 0.96558 0.0
O96 O 0.80142 0.38331 0.06006 0.0
O97 O 0.82292 0.36811 0.03666 0.0
Co98 Co 0.62549 0.80868 0.00664 0.0
O99 O 0.60384 0.82122 0.00649 0.0
O100 O 0.6071 0.79427 0.98607 0.0
C101 C 0.63296 0.81579 0.06643 0.0
O102 O 0.64546 0.79118 0.00411 0.0
Co103 Co 0.66078 0.82774 0.01789 0.0
O104 O 0.66982 0.8039 0.02566 0.0
C105 C 0.64229 0.83032 0.94469 0.0
C106 C 0.59676 0.80725 0.99294 0.0
C107 C 0.66144 0.79049 0.01493 0.0
O108 O 0.63152 0.81835 0.95488 0.0
O109 O 0.65372 0.83676 0.96698 0.0
O110 O 0.62228 0.80304 0.06024 0.0
O111 O 0.63754 0.82453 0.03694 0.0
Co112 Co 0.69823 0.88099 0.49055 0.0
O113 O 0.68523 0.90237 0.49138 0.0
O114 O 0.71253 0.89974 0.50989 0.0
C115 C 0.69039 0.87321 0.43138 0.0
O116 O 0.7162 0.8614 0.49204 0.0
Co117 Co 0.6799 0.84521 0.48088 0.0
O118 O 0.70377 0.83686 0.47067 0.0
C119 C 0.67838 0.86348 0.55459 0.0
C120 C 0.69923 0.90979 0.50384 0.0
C121 C 0.71712 0.84549 0.48075 0.0
O122 O 0.68949 0.87487 0.54305 0.0
O123 O 0.67208 0.85167 0.53306 0.0
O124 O 0.70297 0.8842 0.43653 0.0
O125 O 0.68222 0.8685 0.46152 0.0
Co126 Co 0.12398 0.69617 0.49027 0.0
O127 O 0.10247 0.68344 0.48951 0.0
O128 O 0.10528 0.71037 0.51031 0.0
C129 C 0.13189 0.68905 0.43074 0.0
O130 O 0.14386 0.71379 0.49351 0.0
Co131 Co 0.1595 0.6774 0.47988 0.0
O132 O 0.16782 0.7013 0.46929 0.0
C133 C 0.14081 0.67499 0.553 0.0
C134 C 0.09511 0.69731 0.50282 0.0
C135 C 0.15956 0.71461 0.48091 0.0
O136 O 0.12976 0.68659 0.54224 0.0
O137 O 0.15254 0.66875 0.53118 0.0
O138 O 0.1211 0.70174 0.43647 0.0
O139 O 0.13634 0.68042 0.46045 0.0
Co140 Co 0.30874 0.12413 0.48874 0.0
O141 O 0.32129 0.10251 0.48759 0.0
O142 O 0.2945 0.10551 0.50904 0.0
C143 C 0.31564 0.13205 0.42909 0.0
O144 O 0.29128 0.14412 0.4925 0.0
Co145 Co 0.32773 0.15955 0.47814 0.0
O146 O 0.30384 0.16817 0.46883 0.0
C147 C 0.33046 0.14066 0.55094 0.0
C148 C 0.30744 0.09525 0.50121 0.0
C149 C 0.29052 0.15992 0.48049 0.0
O150 O 0.31863 0.12978 0.5405 0.0
O151 O 0.33671 0.15234 0.52899 0.0
O152 O 0.30289 0.12134 0.43506 0.0
O153 O 0.32443 0.13642 0.45862 0.0
Co154 Co 0.88008 0.30931 0.49081 0.0
O155 O 0.90165 0.32194 0.48877 0.0
O156 O 0.89888 0.29514 0.51044 0.0
C157 C 0.87154 0.31606 0.43149 0.0
O158 O 0.86021 0.29175 0.49525 0.0
Co159 Co 0.84462 0.32834 0.48208 0.0
O160 O 0.8355 0.30445 0.47565 0.0
C161 C 0.86428 0.3312 0.55368 0.0
C162 C 0.90904 0.30812 0.50222 0.0
C163 C 0.84405 0.29105 0.48578 0.0
O164 O 0.87488 0.31921 0.54283 0.0
O165 O 0.85251 0.33758 0.53218 0.0
O166 O 0.8824 0.30341 0.43708 0.0
O167 O 0.86747 0.32493 0.46112 0.0
Co168 Co 0.69771 0.12516 0.50701 0.0
O169 O 0.68473 0.10375 0.50577 0.0
O170 O 0.71201 0.10654 0.48719 0.0
C171 C 0.68986 0.13262 0.56636 0.0
O172 O 0.71568 0.14477 0.50586 0.0
Co173 Co 0.67946 0.16091 0.5176 0.0
O174 O 0.70335 0.16919 0.52806 0.0
C175 C 0.67779 0.14296 0.44351 0.0
C176 C 0.69874 0.09642 0.49307 0.0
C177 C 0.71665 0.1606 0.51762 0.0
O178 O 0.68891 0.13151 0.4547 0.0
O179 O 0.67156 0.15468 0.46534 0.0
O180 O 0.70247 0.12171 0.56096 0.0
O181 O 0.6817 0.13749 0.53632 0.0
Co182 Co 0.87988 0.69638 0.50686 0.0
O183 O 0.90131 0.68351 0.5076 0.0
O184 O 0.89856 0.71027 0.48576 0.0
C185 C 0.87224 0.6899 0.56689 0.0
O186 O 0.8602 0.71419 0.5035 0.0
Co187 Co 0.84429 0.67797 0.5187 0.0
O188 O 0.83567 0.70201 0.52563 0.0
C189 C 0.86261 0.67472 0.44541 0.0
C190 C 0.90868 0.69722 0.49356 0.0
C191 C 0.84424 0.71521 0.51437 0.0
O192 O 0.87377 0.68637 0.45544 0.0
O193 O 0.85098 0.66873 0.46779 0.0
O194 O 0.88311 0.70244 0.56025 0.0
O195 O 0.86755 0.68099 0.53775 0.0
Co196 Co 0.30842 0.87994 0.50927 0.0
O197 O 0.32115 0.90148 0.50943 0.0
O198 O 0.29419 0.89854 0.48894 0.0
C199 C 0.31565 0.87231 0.56889 0.0
O200 O 0.29074 0.8601 0.50667 0.0
Co201 Co 0.32698 0.84437 0.52024 0.0
O202 O 0.30311 0.8363 0.5319 0.0
C203 C 0.32903 0.86249 0.44633 0.0
C204 C 0.30725 0.90876 0.4961 0.0
C205 C 0.28983 0.84454 0.52005 0.0
O206 O 0.31787 0.87393 0.45737 0.0
O207 O 0.33509 0.85065 0.46812 0.0
O208 O 0.30296 0.88309 0.56298 0.0
O209 O 0.32422 0.86767 0.53924 0.0
Co210 Co 0.12439 0.30783 0.50755 0.0
O211 O 0.10303 0.32083 0.50747 0.0
O212 O 0.10561 0.29375 0.48745 0.0
C213 C 0.1321 0.3152 0.56705 0.0
O214 O 0.14401 0.2899 0.50525 0.0
Co215 Co 0.16018 0.32601 0.51824 0.0
O216 O 0.16787 0.30209 0.53064 0.0
C217 C 0.14194 0.32827 0.4445 0.0
C218 C 0.09557 0.30698 0.49434 0.0
C219 C 0.1595 0.28886 0.51892 0.0
O220 O 0.13052 0.31707 0.4555 0.0
O221 O 0.15379 0.3343 0.46629 0.0
O222 O 0.12117 0.30261 0.5614 0.0
O223 O 0.13684 0.32359 0.53722 0.0
H224 H 0.22794 0.57629 0.98237 0.0
H225 H 0.23004 0.54444 0.98263 0.0
H226 H 0.17442 0.54073 0.99365 0.0
H227 H 0.17222 0.57239 0.99362 0.0
H228 H 0.21659 0.522 0.04435 0.0
H229 H 0.18732 0.50741 0.90428 0.0
H230 H 0.19648 0.52837 0.91578 0.0
H231 H 0.17533 0.52249 0.93299 0.0
C232 C 0.21615 0.56867 0.98423 0.0
C233 C 0.19991 0.57686 0.98787 0.0
C234 C 0.21738 0.5505 0.98457 0.0
C235 C 0.20237 0.54024 0.98794 0.0
C236 C 0.18614 0.54839 0.9906 0.0
H237 H 0.17184 0.43323 0.00211 0.0
H238 H 0.17418 0.46484 5e-05 0.0
C239 C 0.18491 0.5665 0.99064 0.0
C240 C 0.20357 0.52103 0.99052 0.0
H241 H 0.19057 0.48372 0.94673 0.0
C242 C 0.2111 0.51357 0.02286 0.0
C243 C 0.1963 0.51012 0.96253 0.0
C244 C 0.18851 0.51744 0.92674 0.0
C245 C 0.21094 0.49548 0.02866 0.0
C246 C 0.20339 0.48455 0.00091 0.0
C247 C 0.19627 0.49206 0.96812 0.0
C248 C 0.20216 0.46536 0.0056 0.0
C249 C 0.21821 0.48833 0.06513 0.0
C250 C 0.21709 0.45505 0.01004 0.0
C251 C 0.21575 0.43689 0.01171 0.0
C252 C 0.19949 0.42872 0.00838 0.0
C253 C 0.18456 0.4391 0.00477 0.0
C254 C 0.18589 0.4572 0.00344 0.0
H255 H 0.2192 0.49851 0.08733 0.0
H256 H 0.21003 0.47756 0.07608 0.0
H257 H 0.23144 0.48318 0.05989 0.0
H258 H 0.22982 0.46098 0.01099 0.0
H259 H 0.22751 0.42926 0.01407 0.0
H260 H 0.43242 0.17239 0.99467 0.0
H261 H 0.46407 0.17479 0.99514 0.0
H262 H 0.46012 0.23025 0.9809 0.0
H263 H 0.42829 0.22796 0.98018 0.0
H264 H 0.48716 0.19143 0.93721 0.0
H265 H 0.49004 0.22165 0.08036 0.0
H266 H 0.47135 0.20952 0.06436 0.0
H267 H 0.47537 0.23088 0.04613 0.0
C268 C 0.43825 0.1851 0.99126 0.0
C269 C 0.42783 0.2 0.98747 0.0
C270 C 0.45635 0.18644 0.99158 0.0
C271 C 0.46441 0.20271 0.98855 0.0
C272 C 0.45411 0.21759 0.9837 0.0
H273 H 0.57529 0.22727 0.013 0.0
H274 H 0.54355 0.22946 0.00895 0.0
C275 C 0.43595 0.21624 0.98304 0.0
C276 C 0.48361 0.20394 0.99107 0.0
H277 H 0.51665 0.21585 0.05022 0.0
C278 C 0.49364 0.19686 0.96178 0.0
C279 C 0.49198 0.21113 0.02307 0.0
C280 C 0.48172 0.21868 0.0555 0.0
C281 C 0.51185 0.19664 0.96374 0.0
C282 C 0.52027 0.2032 0.99645 0.0
C283 C 0.51022 0.21072 0.02531 0.0
C284 C 0.53941 0.20186 0.00156 0.0
C285 C 0.5219 0.18951 0.93051 0.0
C286 C 0.54759 0.18559 0.00024 0.0
C287 C 0.56567 0.18432 0.00236 0.0
C288 C 0.57597 0.19928 0.00645 0.0
C289 C 0.56772 0.2155 0.00986 0.0
C290 C 0.54959 0.21678 0.00743 0.0
H291 H 0.51421 0.19023 0.90394 0.0
H292 H 0.53427 0.19667 0.9263 0.0
H293 H 0.52498 0.17564 0.93579 0.0
H294 H 0.54001 0.17384 0.99693 0.0
H295 H 0.57159 0.1716 0.0 0.0
H296 H 0.77631 0.42856 0.98101 0.0
H297 H 0.77415 0.46041 0.98074 0.0
H298 H 0.82956 0.46425 0.9958 0.0
H299 H 0.83183 0.4326 0.99627 0.0
H300 H 0.78643 0.48315 0.0427 0.0
H301 H 0.81817 0.49715 0.90495 0.0
H302 H 0.80895 0.47619 0.91622 0.0
H303 H 0.82975 0.4823 0.93501 0.0
C304 C 0.78805 0.4362 0.98368 0.0
C305 C 0.80425 0.42806 0.98855 0.0
C306 C 0.78678 0.45438 0.98371 0.0
C307 C 0.80171 0.46467 0.988 0.0
C308 C 0.81791 0.45656 0.992 0.0
H309 H 0.832 0.57171 0.00234 0.0
H310 H 0.82964 0.5401 0.00052 0.0
C311 C 0.81917 0.43845 0.99233 0.0
C312 C 0.80045 0.4839 0.99006 0.0
H313 H 0.81422 0.52102 0.94661 0.0
C314 C 0.79231 0.49149 0.02153 0.0
C315 C 0.80821 0.49469 0.96248 0.0
C316 C 0.81665 0.48723 0.92755 0.0
C317 C 0.79235 0.5096 0.02694 0.0
C318 C 0.80041 0.52041 -0.00035 0.0
C319 C 0.80812 0.51277 0.96767 0.0
C320 C 0.80159 0.53962 0.00407 0.0
C321 C 0.78441 0.5169 0.0626 0.0
C322 C 0.78662 0.54997 0.00726 0.0
C323 C 0.78796 0.56813 0.00883 0.0
C324 C 0.80428 0.57626 0.0066 0.0
C325 C 0.81923 0.56586 0.00412 0.0
C326 C 0.8179 0.54777 0.00294 0.0
H327 H 0.78305 0.50682 0.08492 0.0
H328 H 0.79234 0.52774 0.074 0.0
H329 H 0.77126 0.52196 0.0561 0.0
H330 H 0.77386 0.54406 0.00735 0.0
H331 H 0.77619 0.57579 0.0103 0.0
H332 H 0.57711 0.77788 0.9827 0.0
H333 H 0.54528 0.77569 0.98331 0.0
H334 H 0.54149 0.83125 0.99572 0.0
H335 H 0.57314 0.83355 0.9954 0.0
H336 H 0.52293 0.78902 0.04587 0.0
H337 H 0.5081 0.81839 0.90595 0.0
H338 H 0.52903 0.80912 0.91717 0.0
H339 H 0.52331 0.83026 0.93463 0.0
C340 C 0.56948 0.78965 0.98496 0.0
C341 C 0.57765 0.8059 0.9889 0.0
C342 C 0.55132 0.78836 0.9855 0.0
C343 C 0.54105 0.80332 0.98936 0.0
C344 C 0.54917 0.81957 0.99233 0.0
H345 H 0.43398 0.83333 0.00393 0.0
H346 H 0.46558 0.83114 0.00185 0.0
C347 C 0.56727 0.82085 0.99219 0.0
C348 C 0.52186 0.80206 0.99204 0.0
H349 H 0.48447 0.81486 0.94836 0.0
C350 C 0.51446 0.79448 0.02441 0.0
C351 C 0.5109 0.80927 0.96409 0.0
C352 C 0.51817 0.81711 0.9283 0.0
C353 C 0.49638 0.79453 0.03026 0.0
C354 C 0.48541 0.80202 0.00253 0.0
C355 C 0.49285 0.80919 0.96972 0.0
C356 C 0.46623 0.80315 0.00727 0.0
C357 C 0.48929 0.78722 0.06674 0.0
C358 C 0.45598 0.78816 0.01166 0.0
C359 C 0.43783 0.7894 0.01332 0.0
C360 C 0.42959 0.80564 0.01006 0.0
C361 C 0.4399 0.82062 0.00653 0.0
C362 C 0.45799 0.81939 0.0052 0.0
H363 H 0.49948 0.78626 0.0889 0.0
H364 H 0.47851 0.79535 0.07774 0.0
H365 H 0.48418 0.77397 0.0615 0.0
H366 H 0.46197 0.77545 0.01255 0.0
H367 H 0.43024 0.7776 0.01563 0.0
H368 H 0.72778 0.07638 0.48243 0.0
H369 H 0.72952 0.04453 0.48262 0.0
H370 H 0.67396 0.04144 0.4956 0.0
H371 H 0.6721 0.07313 0.49558 0.0
H372 H 0.71664 0.02225 0.54435 0.0
H373 H 0.68547 0.00796 0.40608 0.0
H374 H 0.69476 0.02891 0.41718 0.0
H375 H 0.67387 0.02297 0.43572 0.0
C376 C 0.71591 0.06891 0.48472 0.0
C377 C 0.6998 0.07729 0.48888 0.0
C378 C 0.71694 0.05072 0.48501 0.0
C379 C 0.70185 0.04063 0.48888 0.0
C380 C 0.68573 0.04897 0.49212 0.0
H381 H 0.67248 0.93293 0.50245 0.0
H382 H 0.67418 0.96459 0.50104 0.0
C383 C 0.68471 0.0671 0.49217 0.0
C384 C 0.7029 0.02141 0.49137 0.0
H385 H 0.68945 0.98417 0.44787 0.0
C386 C 0.71086 0.01388 0.52313 0.0
C387 C 0.69526 0.01056 0.46374 0.0
C388 C 0.68697 0.01795 0.42855 0.0
C389 C 0.71086 0.99577 0.52866 0.0
C390 C 0.70303 0.98489 0.50119 0.0
C391 C 0.69539 0.99247 0.46904 0.0
C392 C 0.70219 0.96565 0.50539 0.0
C393 C 0.71863 0.98856 0.56457 0.0
C394 C 0.71735 0.95562 0.50888 0.0
C395 C 0.71639 0.93744 0.5102 0.0
C396 C 0.70026 0.92896 0.50743 0.0
C397 C 0.68511 0.93904 0.50467 0.0
C398 C 0.68606 0.95717 0.50372 0.0
H399 H 0.71962 0.99863 0.587 0.0
H400 H 0.71081 0.97755 0.5756 0.0
H401 H 0.73193 0.98376 0.55857 0.0
H402 H 0.72998 0.96179 0.50938 0.0
H403 H 0.72832 0.93003 0.5119 0.0
H404 H 0.92849 0.72462 0.46835 0.0
H405 H 0.96031 0.72697 0.46935 0.0
H406 H 0.96392 0.6749 0.51348 0.0
H407 H 0.93232 0.6724 0.5125 0.0
H408 H 0.98318 0.7018 0.55502 0.0
H409 H 0.99657 0.70102 0.40008 0.0
H410 H 0.98011 0.71573 0.41691 0.0
H411 H 0.97657 0.69275 0.41981 0.0
C412 C 0.93608 0.71359 0.47776 0.0
C413 C 0.92786 0.69831 0.49027 0.0
C414 C 0.95424 0.71497 0.47834 0.0
C415 C 0.96445 0.7011 0.49147 0.0
C416 C 0.95628 0.68576 0.5033 0.0
H417 H 0.07146 0.67264 0.48304 0.0
H418 H 0.03988 0.67517 0.48185 0.0
C419 C 0.9382 0.68434 0.50255 0.0
C420 C 0.98363 0.70258 0.49412 0.0
H421 H 0.02065 0.70336 0.44088 0.0
C422 C 0.99139 0.70232 0.5301 0.0
C423 C 0.99427 0.70315 0.46154 0.0
C424 C 0.98657 0.70308 0.42229 0.0
C425 C 0.00954 0.70238 0.53435 0.0
C426 C 0.02017 0.70271 0.50177 0.0
C427 C 0.01243 0.70321 0.4658 0.0
C428 C 0.03935 0.70127 0.50432 0.0
C429 C 0.01728 0.70149 0.57351 0.0
C430 C 0.04954 0.71509 0.51775 0.0
C431 C 0.06771 0.71372 0.51841 0.0
C432 C 0.07593 0.69847 0.50574 0.0
C433 C 0.06559 0.68456 0.49312 0.0
C434 C 0.04752 0.68598 0.49225 0.0
H435 H 0.00727 0.69929 0.59565 0.0
H436 H 0.02702 0.69087 0.57504 0.0
H437 H 0.02409 0.71386 0.57981 0.0
H438 H 0.04346 0.72704 0.52701 0.0
H439 H 0.0753 0.72469 0.52811 0.0
H440 H 0.33185 0.07139 0.48115 0.0
H441 H 0.32901 0.03982 0.47984 0.0
H442 H 0.27733 0.04382 0.52579 0.0
H443 H 0.28001 0.07564 0.52705 0.0
H444 H 0.3006 0.01728 0.5601 0.0
H445 H 0.29657 0.0133 0.40337 0.0
H446 H 0.3142 0.02621 0.42129 0.0
H447 H 0.29222 0.03308 0.42922 0.0
C448 C 0.3199 0.06561 0.49126 0.0
C449 C 0.30612 0.07607 0.5041 0.0
C450 C 0.31827 0.04755 0.49026 0.0
C451 C 0.30287 0.03951 0.50211 0.0
C452 C 0.28928 0.04981 0.51623 0.0
H453 H 0.27991 0.92834 0.46986 0.0
H454 H 0.2773 0.96017 0.47076 0.0
C455 C 0.29085 0.06796 0.51702 0.0
C456 C 0.30113 0.02035 0.49957 0.0
H457 H 0.30127 0.98671 0.43637 0.0
C458 C 0.30055 0.01059 0.53308 0.0
C459 C 0.30091 0.01166 0.46426 0.0
C460 C 0.30086 0.02156 0.42741 0.0
C461 C 0.3005 0.99234 0.53219 0.0
C462 C 0.3011 0.98365 0.49691 0.0
C463 C 0.30093 0.9934 0.46338 0.0
C464 C 0.30283 0.96449 0.49449 0.0
C465 C 0.30004 0.98242 0.56901 0.0
C466 C 0.3182 0.95647 0.50651 0.0
C467 C 0.31979 0.9384 0.50568 0.0
C468 C 0.306 0.92793 0.49292 0.0
C469 C 0.29076 0.93603 0.47984 0.0
C470 C 0.28923 0.95419 0.48043 0.0
H471 H 0.29571 0.99072 0.59293 0.0
H472 H 0.29124 0.97103 0.56682 0.0
H473 H 0.31326 0.97755 0.57554 0.0
H474 H 0.32893 0.96421 0.51694 0.0
H475 H 0.33172 0.93263 0.51593 0.0
H476 H 0.07558 0.27955 0.46997 0.0
H477 H 0.04373 0.2775 0.47054 0.0
H478 H 0.04048 0.32991 0.51277 0.0
H479 H 0.0721 0.33212 0.51217 0.0
H480 H 0.02085 0.3032 0.55495 0.0
H481 H 0.00794 0.30368 0.3998 0.0
H482 H 0.02432 0.28901 0.41717 0.0
H483 H 0.02788 0.312 0.41973 0.0
C484 C 0.06806 0.29071 0.47889 0.0
C485 C 0.07639 0.30601 0.49095 0.0
C486 C 0.04988 0.28951 0.47921 0.0
C487 C 0.03977 0.30357 0.49168 0.0
C488 C 0.04805 0.31891 0.5031 0.0
H489 H 0.93274 0.33244 0.48062 0.0
H490 H 0.96432 0.32983 0.47949 0.0
C491 C 0.06614 0.32016 0.50258 0.0
C492 C 0.02057 0.30229 0.49406 0.0
H493 H 0.98371 0.30174 0.44028 0.0
C494 C 0.01271 0.30271 0.52992 0.0
C495 C 0.01002 0.30177 0.46134 0.0
C496 C 0.01786 0.30168 0.42221 0.0
C497 C 0.99454 0.30283 0.5339 0.0
C498 C 0.984 0.30251 0.50117 0.0
C499 C 0.99186 0.30188 0.46532 0.0
C500 C 0.96481 0.304 0.50344 0.0
C501 C 0.98671 0.30388 0.57297 0.0
C502 C 0.95459 0.29036 0.51761 0.0
C503 C 0.93643 0.29178 0.51823 0.0
C504 C 0.92824 0.3069 0.5048 0.0
C505 C 0.93859 0.32063 0.49132 0.0
C506 C 0.95667 0.31915 0.49048 0.0
H507 H 0.99665 0.30635 0.59511 0.0
H508 H 0.97683 0.31437 0.5741 0.0
H509 H 0.98008 0.29145 0.57961 0.0
H510 H 0.96064 0.2785 0.52751 0.0
H511 H 0.92883 0.28095 0.52861 0.0
H512 H 0.22115 0.31232 0.95527 0.0
H513 H 0.24773 0.29547 0.96047 0.0
H514 H 0.27294 0.33833 0.01657 0.0
H515 H 0.2461 0.35541 0.01197 0.0
H516 H 0.28156 0.30179 0.93419 0.0
H517 H 0.27866 0.29764 0.0915 0.0
H518 H 0.26043 0.30487 0.06356 0.0
H519 H 0.27865 0.31901 0.07094 0.0
C520 C 0.2323 0.31828 0.96868 0.0
C521 C 0.23136 0.33521 0.98359 0.0
C522 C 0.24756 0.30861 0.97146 0.0
C523 C 0.26226 0.31554 0.98929 0.0
C524 C 0.26165 0.33263 0.00318 0.0
H525 H 0.35486 0.24678 0.9851 0.0
H526 H 0.33788 0.2737 0.98073 0.0
C527 C 0.24632 0.3424 0.00036 0.0
C528 C 0.27781 0.30436 0.99427 0.0
H529 H 0.29997 0.28108 0.06091 0.0
C530 C 0.28584 0.29748 0.96189 0.0
C531 C 0.28326 0.2987 0.03048 0.0
C532 C 0.27479 0.30529 0.06621 0.0
C533 C 0.29859 0.28448 0.96464 0.0
C534 C 0.3036 0.27837 0.00081 0.0
C535 C 0.29617 0.28586 0.03324 0.0
C536 C 0.31464 0.2627 0.00547 0.0
C537 C 0.3058 0.27663 0.9288 0.0
C538 C 0.3074 0.24777 0.02178 0.0
C539 C 0.31702 0.23247 0.02446 0.0
C540 C 0.3342 0.2317 0.01094 0.0
C541 C 0.34165 0.24686 0.99559 0.0
C542 C 0.33194 0.26224 0.9929 0.0
H543 H 0.29858 0.28094 0.90325 0.0
H544 H 0.31958 0.28056 0.92551 0.0
H545 H 0.30534 0.26222 0.93023 0.0
H546 H 0.29408 0.24782 0.03171 0.0
H547 H 0.31082 0.22116 0.03672 0.0
H548 H 0.75768 0.35465 0.98415 0.0
H549 H 0.7307 0.33774 0.97998 0.0
H550 H 0.7554 0.29522 0.03831 0.0
H551 H 0.78212 0.31188 0.043 0.0
H552 H 0.7261 0.30618 0.9439 0.0
H553 H 0.70981 0.2995 0.09544 0.0
H554 H 0.72508 0.31549 0.07829 0.0
H555 H 0.73189 0.29342 0.08635 0.0
C556 C 0.75729 0.34179 0.99653 0.0
C557 C 0.77212 0.33466 0.0139 0.0
C558 C 0.74186 0.33214 0.99409 0.0
C559 C 0.74093 0.31533 0.00942 0.0
C560 C 0.75565 0.30831 0.0271 0.0
H561 H 0.69188 0.22197 0.95349 0.0
H562 H 0.70847 0.24875 0.95816 0.0
C563 C 0.77101 0.31785 0.02943 0.0
C564 C 0.72518 0.3044 0.00473 0.0
H565 H 0.69814 0.27737 0.05379 0.0
C566 C 0.71973 0.30016 0.96795 0.0
C567 C 0.71662 0.29676 0.03605 0.0
C568 C 0.72103 0.30168 0.07625 0.0
C569 C 0.70687 0.28754 0.96166 0.0
C570 C 0.69947 0.27874 0.99295 0.0
C571 C 0.70397 0.28393 0.02976 0.0
C572 C 0.68855 0.26299 0.98811 0.0
C573 C 0.70166 0.28341 0.9215 0.0
C574 C 0.67185 0.26193 0.00397 0.0
C575 C 0.66225 0.24648 0.00152 0.0
C576 C 0.66931 0.23174 0.98363 0.0
C577 C 0.68598 0.233 0.96751 0.0
C578 C 0.69547 0.2484 0.96983 0.0
H579 H 0.7037 0.29477 0.90261 0.0
H580 H 0.70984 0.27262 0.91076 0.0
H581 H 0.68784 0.27938 0.91981 0.0
H582 H 0.66632 0.273 0.01855 0.0
H583 H 0.64949 0.24597 0.01436 0.0
H584 H 0.75826 0.65012 0.01168 0.0
H585 H 0.73146 0.66732 0.01533 0.0
H586 H 0.75722 0.71 0.95974 0.0
H587 H 0.78376 0.69305 0.95555 0.0
H588 H 0.72702 0.69865 0.05252 0.0
H589 H 0.71207 0.70679 0.90064 0.0
H590 H 0.72698 0.69048 0.91774 0.0
H591 H 0.73414 0.71253 0.91091 0.0
C592 C 0.75814 0.66308 -0.00023 0.0
C593 C 0.77322 0.67017 0.98335 0.0
C594 C 0.74282 0.67289 0.00192 0.0
C595 C 0.74225 0.68985 0.98724 0.0
C596 C 0.7572 0.69682 0.97045 0.0
H597 H 0.69333 0.78323 0.04471 0.0
H598 H 0.70993 0.75648 0.03953 0.0
C599 C 0.77246 0.68711 0.96841 0.0
C600 C 0.7266 0.70093 0.99175 0.0
H601 H 0.70023 0.72862 0.94275 0.0
C602 C 0.72091 0.70493 0.02848 0.0
C603 C 0.71839 0.70893 0.96041 0.0
C604 C 0.72309 0.70432 0.9202 0.0
C605 C 0.70813 0.71762 0.03477 0.0
C606 C 0.70105 0.72672 0.00356 0.0
C607 C 0.70581 0.72182 0.96673 0.0
C608 C 0.69014 0.74246 0.00861 0.0
C609 C 0.70264 0.72148 0.07488 0.0
C610 C 0.67353 0.74363 0.9924 0.0
C611 C 0.66392 0.75906 0.99517 0.0
C612 C 0.6709 0.77367 0.01373 0.0
C613 C 0.68749 0.77231 0.03018 0.0
C614 C 0.69699 0.75692 0.02755 0.0
H615 H 0.70454 0.71 0.0935 0.0
H616 H 0.71074 0.73221 0.08622 0.0
H617 H 0.68881 0.7255 0.07623 0.0
H618 H 0.66806 0.73267 0.97732 0.0
H619 H 0.65123 0.75966 0.98205 0.0
H620 H 0.22533 0.68621 0.06501 0.0
H621 H 0.2507 0.70503 0.05918 0.0
H622 H 0.26783 0.67584 0.96193 0.0
H623 H 0.24265 0.65646 0.96849 0.0
H624 H 0.29537 0.68665 0.00634 0.0
H625 H 0.25099 0.74165 0.97734 0.0
H626 H 0.24675 0.73162 0.02221 0.0
H627 H 0.24354 0.71947 0.97921 0.0
C628 C 0.23461 0.68364 0.04265 0.0
C629 C 0.23186 0.67002 0.01684 0.0
C630 C 0.24907 0.69446 0.03926 0.0
C631 C 0.26089 0.69218 0.00944 0.0
C632 C 0.25879 0.67794 0.98497 0.0
H633 H 0.3217 0.77964 0.93163 0.0
H634 H 0.30303 0.7541 0.93545 0.0
C635 C 0.24441 0.66688 0.98874 0.0
C636 C 0.27466 0.70535 0.00253 0.0
H637 H 0.28054 0.74876 0.98803 0.0
C638 C 0.29217 0.70023 0.00208 0.0
C639 C 0.27046 0.72302 0.99621 0.0
C640 C 0.25192 0.72925 0.99334 0.0
C641 C 0.3056 0.71239 0.99636 0.0
C642 C 0.30139 0.73019 0.99184 0.0
C643 C 0.28385 0.73517 0.99172 0.0
C644 C 0.31471 0.74404 0.98673 0.0
C645 C 0.32407 0.70598 0.9945 0.0
C646 C 0.32792 0.74672 0.01364 0.0
C647 C 0.3389 0.76121 0.01101 0.0
C648 C 0.33655 0.77348 0.982 0.0
C649 C 0.32374 0.77046 0.95447 0.0
C650 C 0.31305 0.75586 0.95665 0.0
H651 H 0.32465 0.69204 0.98645 0.0
H652 H 0.33184 0.7136 0.97387 0.0
H653 H 0.33015 0.70733 0.02283 0.0
H654 H 0.32925 0.73808 0.03763 0.0
H655 H 0.34856 0.76332 0.03281 0.0
H656 H 0.85576 0.74635 0.48485 0.0
H657 H 0.83954 0.77373 0.4803 0.0
H658 H 0.79565 0.74962 0.53489 0.0
H659 H 0.81162 0.72253 0.54001 0.0
H660 H 0.80875 0.7796 0.4425 0.0
H661 H 0.8002 0.79452 0.59417 0.0
H662 H 0.816 0.77898 0.57747 0.0
H663 H 0.79366 0.77268 0.5838 0.0
C664 C 0.84273 0.74695 0.49629 0.0
C665 C 0.83504 0.73218 0.51282 0.0
C666 C 0.83349 0.76261 0.49365 0.0
C667 C 0.8165 0.76383 0.50789 0.0
C668 C 0.80889 0.74916 0.52457 0.0
H669 H 0.72482 0.81429 0.44831 0.0
H670 H 0.75162 0.79777 0.45302 0.0
C671 C 0.81804 0.73357 0.52715 0.0
C672 C 0.80603 0.7799 0.50319 0.0
H673 H 0.77875 0.80686 0.55164 0.0
C674 C 0.80248 0.78582 0.46641 0.0
C675 C 0.7981 0.78828 0.53437 0.0
C676 C 0.80234 0.7834 0.57468 0.0
C677 C 0.79018 0.79896 0.45988 0.0
C678 C 0.78101 0.80614 0.49088 0.0
C679 C 0.78558 0.80119 0.5278 0.0
C680 C 0.7654 0.81721 0.4855 0.0
C681 C 0.78678 0.80468 0.41972 0.0
C682 C 0.76407 0.83362 0.50264 0.0
C683 C 0.74859 0.84317 0.50017 0.0
C684 C 0.7341 0.83633 0.48099 0.0
C685 C 0.73566 0.82 0.46338 0.0
C686 C 0.75108 0.81056 0.46571 0.0
H687 H 0.79847 0.80285 0.40173 0.0
H688 H 0.77619 0.79665 0.40758 0.0
H689 H 0.78281 0.81853 0.41849 0.0
H690 H 0.77491 0.83892 0.51838 0.0
H691 H 0.74784 0.85566 0.51418 0.0
H692 H 0.26301 0.84752 0.46931 0.0
H693 H 0.23759 0.82847 0.46407 0.0
H694 H 0.25336 0.80156 0.56558 0.0
H695 H 0.27905 0.81999 0.56988 0.0
H696 H 0.24794 0.77943 0.51197 0.0
H697 H 0.19151 0.8239 0.51557 0.0
H698 H 0.20685 0.82959 0.47943 0.0
H699 H 0.21311 0.83082 0.52846 0.0
C700 C 0.26082 0.83776 0.49089 0.0
C701 C 0.27306 0.83514 0.51983 0.0
C702 C 0.24622 0.82694 0.48802 0.0
C703 C 0.24342 0.81361 0.5146 0.0
C704 C 0.25521 0.81168 0.54464 0.0
H705 H 0.15575 0.74157 0.53114 0.0
H706 H 0.17511 0.76674 0.53844 0.0
C707 C 0.26991 0.82222 0.54708 0.0
C708 C 0.22949 0.80042 0.50912 0.0
H709 H 0.18591 0.79477 0.49484 0.0
C710 C 0.23437 0.78285 0.50854 0.0
C711 C 0.21172 0.80477 0.50493 0.0
C712 C 0.20544 0.82329 0.50751 0.0
C713 C 0.22213 0.76957 0.50364 0.0
C714 C 0.20449 0.77393 0.49766 0.0
C715 C 0.19947 0.79146 0.49884 0.0
C716 C 0.19124 0.76028 0.49028 0.0
C717 C 0.22826 0.75096 0.50566 0.0
C718 C 0.19341 0.74877 0.45987 0.0
C719 C 0.18261 0.73431 0.45606 0.0
C720 C 0.16912 0.73129 0.48205 0.0
C721 C 0.16606 0.74356 0.51075 0.0
C722 C 0.17711 0.75793 0.51494 0.0
H723 H 0.24069 0.74982 0.52144 0.0
H724 H 0.21847 0.74252 0.5196 0.0
H725 H 0.2305 0.74603 0.47656 0.0
H726 H 0.2039 0.75059 0.43984 0.0
H727 H 0.1851 0.72524 0.43326 0.0
H728 H 0.28067 0.18719 0.4366 0.0
H729 H 0.25519 0.20567 0.44414 0.0
H730 H 0.23741 0.17355 0.53635 0.0
H731 H 0.26279 0.15457 0.52817 0.0
H732 H 0.21016 0.18557 0.49091 0.0
H733 H 0.25376 0.23955 0.53205 0.0
H734 H 0.25893 0.23091 0.48628 0.0
H735 H 0.26127 0.21747 0.52769 0.0
C736 C 0.27126 0.18392 0.45825 0.0
C737 C 0.27389 0.16957 0.4822 0.0
C738 C 0.25671 0.19453 0.46258 0.0
C739 C 0.24465 0.19128 0.49148 0.0
C740 C 0.24665 0.17638 0.51406 0.0
H741 H 0.18217 0.27721 0.5718 0.0
H742 H 0.20063 0.2515 0.56855 0.0
C743 C 0.26114 0.16555 0.50936 0.0
C744 C 0.23071 0.20412 0.49942 0.0
H745 H 0.22445 0.24704 0.519 0.0
C746 C 0.21323 0.19899 0.49737 0.0
C747 C 0.23473 0.22156 0.50864 0.0
C748 C 0.25318 0.22768 0.51421 0.0
C749 C 0.19966 0.21098 0.50318 0.0
C750 C 0.20373 0.22863 0.51038 0.0
C751 C 0.22124 0.23357 0.51325 0.0
C752 C 0.1903 0.2424 0.51508 0.0
C753 C 0.18118 0.20454 0.50212 0.0
C754 C 0.17786 0.24565 0.48676 0.0
C755 C 0.16697 0.26021 0.48907 0.0
C756 C 0.16869 0.272 0.51919 0.0
C757 C 0.18066 0.26839 0.54812 0.0
C758 C 0.19123 0.2537 0.54625 0.0
H759 H 0.18043 0.19046 0.50885 0.0
H760 H 0.17285 0.21175 0.52239 0.0
H761 H 0.17588 0.2064 0.4732 0.0
H762 H 0.17713 0.23744 0.46194 0.0
H763 H 0.15797 0.26279 0.4662 0.0
H764 H 0.85576 0.25936 0.51198 0.0
H765 H 0.83932 0.23206 0.51604 0.0
H766 H 0.79458 0.25751 0.46812 0.0
H767 H 0.81073 0.28453 0.46355 0.0
H768 H 0.80896 0.22571 0.5562 0.0
H769 H 0.79792 0.21381 0.40393 0.0
H770 H 0.81417 0.22884 0.4209 0.0
H771 H 0.79182 0.23547 0.41699 0.0
C772 C 0.84247 0.25909 0.50195 0.0
C773 C 0.83462 0.27419 0.48738 0.0
C774 C 0.83311 0.24348 0.50431 0.0
C775 C 0.81582 0.24266 0.49171 0.0
C776 C 0.80802 0.25769 0.47712 0.0
H777 H 0.72473 0.19119 0.55233 0.0
H778 H 0.7515 0.2078 0.54765 0.0
C779 C 0.81729 0.27322 0.47484 0.0
C780 C 0.80534 0.22657 0.49576 0.0
H781 H 0.77724 0.20059 0.44688 0.0
C782 C 0.80231 0.21996 0.53221 0.0
C783 C 0.79689 0.21881 0.46443 0.0
C784 C 0.80052 0.22449 0.42433 0.0
C785 C 0.79006 0.20673 0.53842 0.0
C786 C 0.78043 0.20014 0.50746 0.0
C787 C 0.78444 0.20579 0.47071 0.0
C788 C 0.7649 0.18895 0.51289 0.0
C789 C 0.78721 0.20026 0.57824 0.0
C790 C 0.76338 0.17283 0.49455 0.0
C791 C 0.74794 0.16322 0.49705 0.0
C792 C 0.73365 0.16974 0.51744 0.0
C793 C 0.73541 0.18575 0.53629 0.0
C794 C 0.75081 0.19523 0.53396 0.0
H795 H 0.79912 0.20184 0.59567 0.0
H796 H 0.77673 0.20798 0.59169 0.0
H797 H 0.78333 0.18637 0.57849 0.0
H798 H 0.77405 0.16781 0.47781 0.0
H799 H 0.74702 0.15099 0.48207 0.0
H800 H 0.16148 0.3543 0.41384 0.0
H801 H 0.16409 0.36244 0.34765 0.0
H802 H 0.12573 0.32408 0.31747 0.0
H803 H 0.12314 0.31553 0.38417 0.0
H804 H 0.1559 0.32198 0.27499 0.0
H805 H 0.13245 0.38998 0.27797 0.0
H806 H 0.14896 0.3857 0.31257 0.0
H807 H 0.12832 0.37485 0.316 0.0
C808 C 0.1534 0.34765 0.39335 0.0
C809 C 0.14212 0.33416 0.40446 0.0
C810 C 0.15482 0.35248 0.35543 0.0
C811 C 0.14492 0.34407 0.32768 0.0
C812 C 0.13339 0.33083 0.33856 0.0
H813 H 0.14724 0.34712 0.08306 0.0
H814 H 0.13935 0.3434 0.14926 0.0
C815 C 0.13191 0.32598 0.37667 0.0
C816 C 0.14784 0.34816 0.28713 0.0
H817 H 0.14846 0.38139 0.22293 0.0
C818 C 0.15407 0.33492 0.26351 0.0
C819 C 0.14562 0.3651 0.27231 0.0
C820 C 0.13832 0.37969 0.29594 0.0
C821 C 0.15853 0.33823 0.22569 0.0
C822 C 0.15645 0.35519 0.21097 0.0
C823 C 0.15012 0.36844 0.23443 0.0
C824 C 0.16037 0.35914 0.17084 0.0
C825 C 0.16578 0.32364 0.20195 0.0
C826 C 0.17443 0.36984 0.16099 0.0
C827 C 0.17904 0.37207 0.12287 0.0
C828 C 0.1696 0.36361 0.09417 0.0
C829 C 0.15499 0.35364 0.10434 0.0
C830 C 0.15042 0.35146 0.14222 0.0
H831 H 0.17028 0.31258 0.21964 0.0
H832 H 0.15552 0.31878 0.18262 0.0
H833 H 0.17681 0.32826 0.18438 0.0
H834 H 0.1822 0.37596 0.18281 0.0
H835 H 0.19032 0.37987 0.11605 0.0
H836 H 0.68751 0.12118 0.38516 0.0
H837 H 0.679 0.12331 0.31837 0.0
H838 H 0.64715 0.1678 0.34415 0.0
H839 H 0.65516 0.16564 0.41044 0.0
H840 H 0.63092 0.14516 0.29553 0.0
H841 H 0.69787 0.16032 0.24676 0.0
H842 H 0.69568 0.14022 0.27214 0.0
H843 H 0.69188 0.16045 0.29612 0.0
C844 C 0.67863 0.13135 0.37663 0.0
C845 C 0.67218 0.14331 0.40326 0.0
C846 C 0.67384 0.13261 0.33843 0.0
C847 C 0.66265 0.1459 0.32622 0.0
C848 C 0.65582 0.15748 0.35289 0.0
H849 H 0.62571 0.1909 0.11591 0.0
H850 H 0.62952 0.18249 0.18241 0.0
C851 C 0.66051 0.15622 0.39089 0.0
C852 C 0.65834 0.14829 0.28561 0.0
H853 H 0.67618 0.15847 0.20001 0.0
C854 C 0.64081 0.14799 0.27457 0.0
C855 C 0.67126 0.15213 0.25841 0.0
C856 C 0.69022 0.15347 0.26886 0.0
C857 C 0.63586 0.15136 0.23698 0.0
C858 C 0.64878 0.15532 0.20992 0.0
C859 C 0.6663 0.15541 0.22086 0.0
C860 C 0.64457 0.15944 0.16995 0.0
C861 C 0.6169 0.15051 0.22647 0.0
C862 C 0.65165 0.14924 0.141 0.0
C863 C 0.64961 0.15405 0.10322 0.0
C864 C 0.64048 0.16925 0.09346 0.0
C865 C 0.63274 0.1791 0.12244 0.0
C866 C 0.63486 0.17427 0.16043 0.0
H867 H 0.60922 0.1432 0.2478 0.0
H868 H 0.61161 0.16389 0.22485 0.0
H869 H 0.61514 0.14429 0.19837 0.0
H870 H 0.65917 0.13775 0.1477 0.0
H871 H 0.65561 0.14605 0.08168 0.0
H872 H 0.84321 0.64814 0.4168 0.0
H873 H 0.83993 0.6395 0.35101 0.0
H874 H 0.87748 0.67806 0.31745 0.0
H875 H 0.88096 0.68693 0.38378 0.0
H876 H 0.82851 0.66306 0.29398 0.0
H877 H 0.89227 0.6331 0.25959 0.0
H878 H 0.88468 0.63575 0.30765 0.0
H879 H 0.89299 0.65407 0.282 0.0
C880 C 0.85098 0.65473 0.39566 0.0
C881 C 0.86228 0.66837 0.4057 0.0
C882 C 0.84907 0.64971 0.35799 0.0
C883 C 0.85849 0.65807 0.32943 0.0
C884 C 0.87025 0.67129 0.33922 0.0
H885 H 0.85532 0.65819 0.08698 0.0
H886 H 0.86261 0.66067 0.15372 0.0
C887 C 0.87218 0.67638 0.37711 0.0
C888 C 0.8548 0.65384 0.28933 0.0
H889 H 0.87255 0.637 0.20877 0.0
C890 C 0.83809 0.65726 0.27536 0.0
C891 C 0.86735 0.64631 0.26524 0.0
C892 C 0.88531 0.64194 0.27928 0.0
C893 C 0.83368 0.65372 0.23762 0.0
C894 C 0.84621 0.64616 0.21343 0.0
C895 C 0.86292 0.64264 0.22748 0.0
C896 C 0.84257 0.64305 0.17276 0.0
C897 C 0.81583 0.65868 0.22366 0.0
C898 C 0.82916 0.63188 0.16111 0.0
C899 C 0.82483 0.63046 0.1227 0.0
C900 C 0.8339 0.64017 0.09535 0.0
C901 C 0.84788 0.65066 0.10717 0.0
C902 C 0.85216 0.65206 0.1454 0.0
H903 H 0.80923 0.66784 0.24325 0.0
H904 H 0.81656 0.66478 0.19522 0.0
H905 H 0.80769 0.64683 0.22138 0.0
H906 H 0.82181 0.62454 0.18179 0.0
H907 H 0.81409 0.62217 0.11461 0.0
H908 H 0.3184 0.88352 0.38749 0.0
H909 H 0.32667 0.88115 0.32063 0.0
H910 H 0.36063 0.83839 0.34752 0.0
H911 H 0.35284 0.8408 0.41396 0.0
H912 H 0.37535 0.86125 0.29651 0.0
H913 H 0.30867 0.84223 0.25263 0.0
H914 H 0.31014 0.8627 0.27677 0.0
H915 H 0.31526 0.84298 0.3016 0.0
C916 C 0.32773 0.8737 0.37922 0.0
C917 C 0.33477 0.86224 0.40618 0.0
C918 C 0.33238 0.87231 0.34098 0.0
C919 C 0.34404 0.85938 0.32905 0.0
C920 C 0.35156 0.84841 0.35606 0.0
H921 H 0.38059 0.81446 0.11795 0.0
H922 H 0.37706 0.82292 0.18449 0.0
C923 C 0.347 0.8498 0.39412 0.0
C924 C 0.34801 0.85667 0.2884 0.0
H925 H 0.32963 0.84472 0.20443 0.0
C926 C 0.36536 0.8577 0.27629 0.0
C927 C 0.33496 0.85188 0.2622 0.0
C928 C 0.31623 0.84971 0.27388 0.0
C929 C 0.36999 0.8542 0.23858 0.0
C930 C 0.35695 0.84934 0.21251 0.0
C931 C 0.3396 0.84847 0.22454 0.0
C932 C 0.36083 0.84519 0.17242 0.0
C933 C 0.38874 0.8559 0.22682 0.0
C934 C 0.35295 0.85493 0.14368 0.0
C935 C 0.35483 0.85009 0.10589 0.0
C936 C 0.36459 0.83532 0.09589 0.0
C937 C 0.37304 0.82592 0.12464 0.0
C938 C 0.37109 0.83078 0.16266 0.0
H939 H 0.39636 0.86366 0.2475 0.0
H940 H 0.39463 0.84278 0.22505 0.0
H941 H 0.38981 0.86209 0.19851 0.0
H942 H 0.34499 0.86609 0.15058 0.0
H943 H 0.34826 0.85776 0.08455 0.0
H944 H 0.12524 0.69011 0.61503 0.0
H945 H 0.12912 0.68189 0.68171 0.0
H946 H 0.16049 0.63825 0.64773 0.0
H947 H 0.15685 0.64631 0.58156 0.0
H948 H 0.12288 0.64922 0.72263 0.0
H949 H 0.19261 0.66766 0.71692 0.0
H950 H 0.17717 0.67441 0.68139 0.0
H951 H 0.18572 0.6527 0.6809 0.0
C952 C 0.13276 0.67863 0.62175 0.0
C953 C 0.14095 0.66904 0.59295 0.0
C954 C 0.13498 0.67397 0.65982 0.0
C955 C 0.14539 0.65967 0.66956 0.0
C956 C 0.15271 0.64953 0.64081 0.0
H957 H 0.18818 0.62239 0.8838 0.0
H958 H 0.17959 0.62475 0.81712 0.0
C959 C 0.15058 0.65418 0.60296 0.0
C960 C 0.14939 0.65574 0.70966 0.0
H961 H 0.18284 0.65412 0.77297 0.0
C962 C 0.13596 0.65031 0.73373 0.0
C963 C 0.16651 0.65708 0.72391 0.0
C964 C 0.18134 0.66342 0.6996 0.0
C965 C 0.13925 0.64602 0.77174 0.0
C966 C 0.15636 0.64754 0.78609 0.0
C967 C 0.16978 0.65283 0.76186 0.0
C968 C 0.16048 0.64488 0.8267 0.0
C969 C 0.12443 0.63971 0.79603 0.0
C970 C 0.15262 0.65541 0.85411 0.0
C971 C 0.15747 0.6541 0.89203 0.0
C972 C 0.17045 0.64233 0.9035 0.0
C973 C 0.17814 0.63156 0.87604 0.0
C974 C 0.17324 0.6329 0.83794 0.0
H975 H 0.11382 0.6341 0.77857 0.0
H976 H 0.12885 0.62976 0.81665 0.0
H977 H 0.11897 0.65084 0.81204 0.0
H978 H 0.14306 0.66504 0.84604 0.0
H979 H 0.15123 0.66265 0.91223 0.0
H980 H 0.31547 0.12533 0.61342 0.0
H981 H 0.32415 0.12911 0.67984 0.0
H982 H 0.36813 0.15971 0.64453 0.0
H983 H 0.35962 0.15617 0.57859 0.0
H984 H 0.3571 0.12243 0.71994 0.0
H985 H 0.33942 0.1924 0.71409 0.0
H986 H 0.33225 0.17696 0.67894 0.0
H987 H 0.35408 0.18517 0.67781 0.0
C988 C 0.32712 0.13265 0.61978 0.0
C989 C 0.33668 0.14067 0.59069 0.0
C990 C 0.33205 0.13481 0.65771 0.0
C991 C 0.34658 0.14498 0.667 0.0
C992 C 0.35668 0.15211 0.63795 0.0
H993 H 0.38339 0.18794 0.88182 0.0
H994 H 0.38153 0.17933 0.81506 0.0
C995 C 0.35177 0.15003 0.60024 0.0
C996 C 0.35076 0.14899 0.70697 0.0
H997 H 0.35269 0.18246 0.77021 0.0
C998 C 0.35613 0.13553 0.73102 0.0
C999 C 0.34961 0.16613 0.72117 0.0
C1000 C 0.3434 0.18101 0.69683 0.0
C1001 C 0.36048 0.1388 0.76899 0.0
C1002 C 0.35907 0.15592 0.78336 0.0
C1003 C 0.3539 0.16938 0.7591 0.0
C1004 C 0.36154 0.15999 0.82406 0.0
C1005 C 0.36673 0.12393 0.79323 0.0
C1006 C 0.35095 0.152 0.85117 0.0
C1007 C 0.35199 0.15684 0.88913 0.0
C1008 C 0.36353 0.16997 0.90093 0.0
C1009 C 0.37438 0.17778 0.8738 0.0
C1010 C 0.37333 0.17288 0.83565 0.0
H1011 H 0.3725 0.11342 0.77573 0.0
H1012 H 0.37653 0.12832 0.8142 0.0
H1013 H 0.35553 0.11833 0.8088 0.0
H1014 H 0.34144 0.14236 0.84283 0.0
H1015 H 0.34337 0.1505 0.90905 0.0
H1016 H 0.81761 0.38443 0.8851 0.0
H1017 H 0.82619 0.38248 0.81838 0.0
H1018 H 0.86039 0.33986 0.84496 0.0
H1019 H 0.85229 0.34189 0.91128 0.0
H1020 H 0.87515 0.36284 0.79471 0.0
H1021 H 0.80869 0.34395 0.74909 0.0
H1022 H 0.80999 0.36435 0.77357 0.0
H1023 H 0.81506 0.34456 0.7982 0.0
C1024 C 0.82705 0.37473 0.87679 0.0
C1025 C 0.83407 0.3632 0.90363 0.0
C1026 C 0.83188 0.37358 0.83862 0.0
C1027 C 0.8437 0.36081 0.82662 0.0
C1028 C 0.8512 0.34976 0.85353 0.0
H1029 H 0.88024 0.31625 0.61545 0.0
H1030 H 0.87695 0.32479 0.682 0.0
C1031 C 0.84646 0.35093 0.89154 0.0
C1032 C 0.84784 0.35831 0.78596 0.0
H1033 H 0.82982 0.34683 0.70132 0.0
C1034 C 0.86525 0.3594 0.77421 0.0
C1035 C 0.83491 0.35366 0.75938 0.0
C1036 C 0.81613 0.35139 0.77062 0.0
C1037 C 0.87004 0.35608 0.7365 0.0
C1038 C 0.8571 0.35139 0.71005 0.0
C1039 C 0.83971 0.35047 0.72171 0.0
C1040 C 0.86114 0.34737 0.66997 0.0
C1041 C 0.88883 0.35778 0.72514 0.0
C1042 C 0.85351 0.35731 0.64125 0.0
C1043 C 0.85528 0.35245 0.60344 0.0
C1044 C 0.86466 0.33743 0.59343 0.0
C1045 C 0.87299 0.3279 0.62215 0.0
C1046 C 0.87116 0.33279 0.66018 0.0
H1047 H 0.89643 0.3653 0.74628 0.0
H1048 H 0.89465 0.34464 0.72284 0.0
H1049 H 0.89003 0.36423 0.69713 0.0
H1050 H 0.84574 0.3686 0.64819 0.0
H1051 H 0.84883 0.36023 0.58212 0.0
H1052 H 0.65801 0.85942 0.91718 0.0
H1053 H 0.66149 0.8681 0.85137 0.0
H1054 H 0.63094 0.82409 0.81575 0.0
H1055 H 0.6272 0.81531 0.88201 0.0
H1056 H 0.67789 0.84774 0.79787 0.0
H1057 H 0.61088 0.86403 0.75231 0.0
H1058 H 0.61702 0.86241 0.80153 0.0
H1059 H 0.61308 0.8431 0.77428 0.0
C1060 C 0.6518 0.85165 0.8955 0.0
C1061 C 0.64241 0.83656 0.90493 0.0
C1062 C 0.6538 0.85668 0.85784 0.0
C1063 C 0.64643 0.84681 0.82868 0.0
C1064 C 0.63651 0.83207 0.83789 0.0
H1065 H 0.65559 0.84113 0.58821 0.0
H1066 H 0.64791 0.83907 0.6547 0.0
C1067 C 0.63443 0.82703 0.87576 0.0
C1068 C 0.65047 0.85118 0.78875 0.0
H1069 H 0.63224 0.86187 0.70382 0.0
C1070 C 0.66793 0.85099 0.77735 0.0
C1071 C 0.63745 0.85541 0.76212 0.0
C1072 C 0.61856 0.85642 0.77314 0.0
C1073 C 0.67271 0.85438 0.73973 0.0
C1074 C 0.65968 0.85843 0.71293 0.0
C1075 C 0.64222 0.85888 0.72447 0.0
C1076 C 0.66377 0.8608 0.67221 0.0
C1077 C 0.69159 0.8529 0.72875 0.0
C1078 C 0.67503 0.87398 0.6597 0.0
C1079 C 0.67963 0.87517 0.62137 0.0
C1080 C 0.67291 0.86326 0.59493 0.0
C1081 C 0.66115 0.8505 0.6076 0.0
C1082 C 0.65665 0.8493 0.64572 0.0
H1083 H 0.69933 0.84598 0.7506 0.0
H1084 H 0.69303 0.84593 0.70141 0.0
H1085 H 0.69714 0.86611 0.72536 0.0
H1086 H 0.68041 0.88321 0.67961 0.0
H1087 H 0.68859 0.88523 0.61261 0.0
H1088 H 0.88132 0.70501 0.6342 0.0
H1089 H 0.87066 0.69736 0.69753 0.0
H1090 H 0.83702 0.65861 0.64863 0.0
H1091 H 0.84752 0.66615 0.58549 0.0
H1092 H 0.8213 0.68067 0.70615 0.0
H1093 H 0.88379 0.65069 0.75081 0.0
H1094 H 0.88502 0.67242 0.73229 0.0
H1095 H 0.87863 0.65491 0.7018 0.0
C1096 C 0.87159 0.69493 0.63698 0.0
C1097 C 0.86533 0.6861 0.60496 0.0
C1098 C 0.86557 0.69055 0.6731 0.0
C1099 C 0.85321 0.6773 0.67763 0.0
C1100 C 0.84659 0.66883 0.64564 0.0
H1101 H 0.80149 0.6243 0.86279 0.0
H1102 H 0.80998 0.63613 0.80107 0.0
C1103 C 0.85264 0.67314 0.60963 0.0
C1104 C 0.84745 0.67185 0.71572 0.0
H1105 H 0.86131 0.65144 0.7959 0.0
C1106 C 0.83002 0.67433 0.7259 0.0
C1107 C 0.8589 0.66354 0.7412 0.0
C1108 C 0.87761 0.66007 0.73106 0.0
C1109 C 0.82374 0.66884 0.76125 0.0
C1110 C 0.83514 0.66032 0.78657 0.0
C1111 C 0.8526 0.65798 0.77641 0.0
C1112 C 0.82932 0.65369 0.82382 0.0
C1113 C 0.80506 0.67246 0.77136 0.0
C1114 C 0.83759 0.65939 0.85693 0.0
C1115 C 0.83293 0.65251 0.89201 0.0
C1116 C 0.81991 0.63978 0.89469 0.0
C1117 C 0.8115 0.63417 0.86158 0.0
C1118 C 0.81625 0.64101 0.82637 0.0
H1119 H 0.79957 0.68314 0.75392 0.0
H1120 H 0.7972 0.66063 0.76607 0.0
H1121 H 0.80375 0.67597 0.80171 0.0
H1122 H 0.84775 0.6691 0.85557 0.0
H1123 H 0.83966 0.65709 0.91701 0.0
H1124 H 0.33916 0.84712 0.58572 0.0
H1125 H 0.34718 0.83617 0.64815 0.0
H1126 H 0.30981 0.87044 0.69991 0.0
H1127 H 0.30164 0.88153 0.63722 0.0
H1128 H 0.34478 0.87179 0.73007 0.0
H1129 H 0.31934 0.80437 0.72141 0.0
H1130 H 0.33226 0.81126 0.68178 0.0
H1131 H 0.31178 0.8216 0.69085 0.0
C1132 C 0.3325 0.85223 0.61031 0.0
C1133 C 0.31976 0.86519 0.60661 0.0
C1134 C 0.33704 0.84587 0.64593 0.0
C1135 C 0.32893 0.85235 0.67849 0.0
C1136 C 0.31611 0.8652 0.67497 0.0
H1137 H 0.34911 0.83983 0.91798 0.0
H1138 H 0.33776 0.84807 0.85613 0.0
C1139 C 0.31146 0.87151 0.63923 0.0
C1140 C 0.33473 0.8465 0.71626 0.0
H1141 H 0.33784 0.81085 0.77334 0.0
C1142 C 0.34315 0.85852 0.73973 0.0
C1143 C 0.33274 0.82912 0.72841 0.0
C1144 C 0.32342 0.81583 0.70449 0.0
C1145 C 0.34995 0.85354 0.77491 0.0
C1146 C 0.34787 0.83617 0.78725 0.0
C1147 C 0.33942 0.82415 0.76376 0.0
C1148 C 0.35416 0.83038 0.82477 0.0
C1149 C 0.35969 0.86683 0.79808 0.0
C1150 C 0.36667 0.81719 0.82774 0.0
C1151 C 0.37308 0.81227 0.86324 0.0
C1152 C 0.36703 0.82049 0.89619 0.0
C1153 C 0.35416 0.83336 0.8931 0.0
C1154 C 0.34771 0.83816 0.85775 0.0
H1155 H 0.36432 0.87781 0.78035 0.0
H1156 H 0.3509 0.87221 0.82003 0.0
H1157 H 0.37103 0.86089 0.81251 0.0
H1158 H 0.37171 0.81094 0.80255 0.0
H1159 H 0.38294 0.80227 0.86481 0.0
H1160 H 0.15766 0.33839 0.5831 0.0
H1161 H 0.16895 0.34648 0.64511 0.0
H1162 H 0.13383 0.31026 0.69825 0.0
H1163 H 0.1227 0.30176 0.6359 0.0
H1164 H 0.15065 0.36114 0.70261 0.0
H1165 H 0.17967 0.2988 0.74973 0.0
H1166 H 0.17346 0.30277 0.70121 0.0
H1167 H 0.1573 0.29716 0.73585 0.0
C1168 C 0.15245 0.33199 0.60791 0.0
C1169 C 0.1393 0.31941 0.60466 0.0
C1170 C 0.15892 0.33664 0.64334 0.0
C1171 C 0.15239 0.32884 0.67625 0.0
C1172 C 0.13933 0.31618 0.67314 0.0
H1173 H 0.16446 0.34925 0.91469 0.0
H1174 H 0.15644 0.33832 0.85217 0.0
C1175 C 0.1329 0.31141 0.63757 0.0
C1176 C 0.15859 0.33481 0.71375 0.0
H1177 H 0.17773 0.32128 0.7958 0.0
C1178 C 0.15668 0.35245 0.72289 0.0
C1179 C 0.16643 0.32343 0.74012 0.0
C1180 C 0.16951 0.30451 0.7312 0.0
C1181 C 0.16214 0.35898 0.75796 0.0
C1182 C 0.16988 0.34759 0.78438 0.0
C1183 C 0.17182 0.32996 0.77533 0.0
C1184 C 0.17548 0.35369 0.82213 0.0
C1185 C 0.1592 0.37793 0.76686 0.0
C1186 C 0.18905 0.36575 0.82589 0.0
C1187 C 0.1937 0.37203 0.86164 0.0
C1188 C 0.18483 0.36631 0.89409 0.0
C1189 C 0.1715 0.35395 0.89021 0.0
C1190 C 0.16692 0.34766 0.85455 0.0
H1191 H 0.14996 0.38407 0.74677 0.0
H1192 H 0.15412 0.37952 0.79608 0.0
H1193 H 0.17174 0.38498 0.76498 0.0
H1194 H 0.19595 0.37038 0.80115 0.0
H1195 H 0.20407 0.38148 0.86381 0.0
H1196 H 0.65678 0.16551 0.91488 0.0
H1197 H 0.66803 0.1576 0.85261 0.0
H1198 H 0.6345 0.19553 0.8005 0.0
H1199 H 0.62311 0.20358 0.86297 0.0
H1200 H 0.63306 0.16083 0.7693 0.0
H1201 H 0.70064 0.18551 0.7813 0.0
H1202 H 0.69332 0.17236 0.8202 0.0
H1203 H 0.68326 0.19302 0.81151 0.0
C1204 C 0.6519 0.1723 0.89024 0.0
C1205 C 0.63906 0.18518 0.89377 0.0
C1206 C 0.65843 0.16783 0.85472 0.0
C1207 C 0.65225 0.17614 0.82211 0.0
C1208 C 0.6395 0.18908 0.82547 0.0
H1209 H 0.66637 0.15793 0.58227 0.0
H1210 H 0.65777 0.16882 0.64432 0.0
C1211 C 0.63302 0.19365 0.86109 0.0
C1212 C 0.65833 0.17051 0.78439 0.0
H1213 H 0.69433 0.16756 0.72839 0.0
C1214 C 0.64641 0.16241 0.76016 0.0
C1215 C 0.67581 0.17244 0.77292 0.0
C1216 C 0.68901 0.18143 0.79765 0.0
C1217 C 0.65156 0.15589 0.72486 0.0
C1218 C 0.66903 0.15792 0.71319 0.0
C1219 C 0.68097 0.16603 0.73745 0.0
C1220 C 0.67502 0.15192 0.6756 0.0
C1221 C 0.63835 0.1465 0.70081 0.0
C1222 C 0.68808 0.13927 0.67257 0.0
C1223 C 0.69318 0.13312 0.63698 0.0
C1224 C 0.68529 0.13957 0.60399 0.0
C1225 C 0.67258 0.15258 0.60717 0.0
C1226 C 0.66758 0.15876 0.64262 0.0
H1227 H 0.62719 0.14184 0.71794 0.0
H1228 H 0.63325 0.15554 0.67902 0.0
H1229 H 0.64428 0.13521 0.68614 0.0
H1230 H 0.69407 0.13392 0.69775 0.0
H1231 H 0.70306 0.12313 0.63535 0.0
H1232 H 0.84579 0.33912 0.41585 0.0
H1233 H 0.83395 0.3468 0.35404 0.0
H1234 H 0.86849 0.31013 0.30067 0.0
H1235 H 0.88015 0.30203 0.3628 0.0
H1236 H 0.85175 0.36111 0.29585 0.0
H1237 H 0.82253 0.29863 0.2504 0.0
H1238 H 0.82907 0.30271 0.29866 0.0
H1239 H 0.84497 0.29692 0.26357 0.0
C1240 C 0.85074 0.33252 0.39103 0.0
C1241 C 0.8639 0.31995 0.39413 0.0
C1242 C 0.84396 0.33694 0.35572 0.0
C1243 C 0.85018 0.3289 0.3228 0.0
C1244 C 0.86322 0.31621 0.32579 0.0
H1245 H 0.83867 0.34852 0.0841 0.0
H1246 H 0.84635 0.33771 0.14695 0.0
C1247 C 0.86995 0.31168 0.36125 0.0
C1248 C 0.84381 0.33472 0.28531 0.0
H1249 H 0.82473 0.3208 0.20349 0.0
C1250 C 0.84571 0.35232 0.27578 0.0
C1251 C 0.83595 0.32322 0.25919 0.0
C1252 C 0.83284 0.30435 0.26853 0.0
C1253 C 0.84028 0.35869 0.24054 0.0
C1254 C 0.83259 0.34717 0.21431 0.0
C1255 C 0.83061 0.32958 0.22379 0.0
C1256 C 0.82712 0.35309 0.17634 0.0
C1257 C 0.84323 0.3776 0.23122 0.0
C1258 C 0.81355 0.36509 0.1721 0.0
C1259 C 0.8091 0.37131 0.13618 0.0
C1260 C 0.81818 0.36558 0.10403 0.0
C1261 C 0.83148 0.35324 0.10835 0.0
C1262 C 0.83587 0.347 0.1442 0.0
H1263 H 0.85237 0.38388 0.25134 0.0
H1264 H 0.84843 0.37905 0.20207 0.0
H1265 H 0.83067 0.38462 0.23264 0.0
H1266 H 0.80651 0.36976 0.19662 0.0
H1267 H 0.79874 0.38074 0.13367 0.0
H1268 H 0.6245 0.80068 0.13412 0.0
H1269 H 0.63534 0.80865 0.1971 0.0
H1270 H 0.66782 0.84809 0.14707 0.0
H1271 H 0.65715 0.84022 0.08425 0.0
H1272 H 0.68445 0.82657 0.20383 0.0
H1273 H 0.62158 0.85476 0.25125 0.0
H1274 H 0.6207 0.833 0.23286 0.0
H1275 H 0.62639 0.85064 0.20204 0.0
C1276 C 0.63399 0.811 0.13658 0.0
C1277 C 0.63989 0.8199 0.10433 0.0
C1278 C 0.64012 0.81556 0.17251 0.0
C1279 C 0.65222 0.82907 0.17663 0.0
C1280 C 0.65845 0.83766 0.14441 0.0
H1281 H 0.70378 0.88222 0.36231 0.0
H1282 H 0.69525 0.87079 0.30026 0.0
C1283 C 0.6523 0.83316 0.10858 0.0
C1284 C 0.65814 0.83462 0.21455 0.0
H1285 H 0.64435 0.85416 0.29578 0.0
C1286 C 0.67571 0.83258 0.22404 0.0
C1287 C 0.64668 0.84248 0.24064 0.0
C1288 C 0.6278 0.84552 0.23126 0.0
C1289 C 0.68211 0.83802 0.25932 0.0
C1290 C 0.67067 0.84604 0.28531 0.0
C1291 C 0.65308 0.848 0.27579 0.0
C1292 C 0.67655 0.85246 0.3227 0.0
C1293 C 0.70096 0.83486 0.26868 0.0
C1294 C 0.66867 0.84618 0.35575 0.0
C1295 C 0.67335 0.85282 0.39103 0.0
C1296 C 0.68602 0.8659 0.39396 0.0
C1297 C 0.69405 0.87208 0.36089 0.0
C1298 C 0.68928 0.86548 0.32549 0.0
H1299 H 0.70665 0.82453 0.25057 0.0
H1300 H 0.70843 0.84697 0.26377 0.0
H1301 H 0.70257 0.83108 0.29882 0.0
H1302 H 0.65877 0.8362 0.3542 0.0
H1303 H 0.66691 0.84779 0.41598 0.0
H1304 H 0.15752 0.66593 0.41491 0.0
H1305 H 0.16909 0.65805 0.35304 0.0
H1306 H 0.13423 0.69442 0.29969 0.0
H1307 H 0.12282 0.70274 0.36193 0.0
H1308 H 0.15114 0.64351 0.29521 0.0
H1309 H 0.18012 0.70601 0.24895 0.0
H1310 H 0.17371 0.70199 0.29731 0.0
H1311 H 0.1577 0.7076 0.26234 0.0
C1312 C 0.15243 0.67242 0.39008 0.0
C1313 C 0.13927 0.68498 0.39324 0.0
C1314 C 0.15906 0.66788 0.35473 0.0
C1315 C 0.15268 0.67578 0.3218 0.0
C1316 C 0.13961 0.68844 0.32482 0.0
H1317 H 0.16493 0.65587 0.08345 0.0
H1318 H 0.15695 0.66664 0.1461 0.0
C1319 C 0.13303 0.6931 0.36033 0.0
C1320 C 0.15901 0.6699 0.28435 0.0
H1321 H 0.17825 0.68364 0.20257 0.0
C1322 C 0.15718 0.65226 0.27506 0.0
C1323 C 0.16688 0.68135 0.25815 0.0
C1324 C 0.16989 0.70026 0.26724 0.0
C1325 C 0.16273 0.64581 0.23999 0.0
C1326 C 0.17047 0.65728 0.21371 0.0
C1327 C 0.17234 0.6749 0.22293 0.0
C1328 C 0.17607 0.65128 0.1759 0.0
C1329 C 0.15987 0.62687 0.23092 0.0
C1330 C 0.18967 0.63928 0.17197 0.0
C1331 C 0.19429 0.63308 0.13613 0.0
C1332 C 0.18537 0.63883 0.10379 0.0
C1333 C 0.17201 0.65114 0.10785 0.0
C1334 C 0.16746 0.65735 0.14358 0.0
H1335 H 0.15067 0.62063 0.25097 0.0
H1336 H 0.15479 0.6253 0.2017 0.0
H1337 H 0.17245 0.61988 0.23271 0.0
H1338 H 0.1966 0.63462 0.19663 0.0
H1339 H 0.20468 0.62367 0.13382 0.0
H1340 H 0.30198 0.12271 0.36042 0.0
H1341 H 0.31051 0.13372 0.29787 0.0
H1342 H 0.34668 0.16897 0.35071 0.0
H1343 H 0.33859 0.15781 0.41283 0.0
H1344 H 0.30986 0.16712 0.26684 0.0
H1345 H 0.37738 0.14245 0.27706 0.0
H1346 H 0.36047 0.13572 0.30924 0.0
H1347 H 0.37129 0.15621 0.31583 0.0
C1348 C 0.31171 0.13283 0.35861 0.0
C1349 C 0.31975 0.13927 0.39144 0.0
C1350 C 0.31656 0.13911 0.32295 0.0
C1351 C 0.32948 0.15189 0.31969 0.0
C1352 C 0.337 0.15879 0.35255 0.0
H1353 H 0.38056 0.2041 0.13195 0.0
H1354 H 0.36924 0.19598 0.19443 0.0
C1355 C 0.33228 0.15245 0.38805 0.0
C1356 C 0.33534 0.15794 0.28202 0.0
H1357 H 0.37121 0.16139 0.22575 0.0
C1358 C 0.32325 0.16581 0.25773 0.0
C1359 C 0.35282 0.15618 0.27027 0.0
C1360 C 0.36621 0.14703 0.29428 0.0
C1361 C 0.32827 0.17225 0.22219 0.0
C1362 C 0.34577 0.17062 0.21068 0.0
C1363 C 0.35784 0.16275 0.23491 0.0
C1364 C 0.35175 0.17632 0.17292 0.0
C1365 C 0.3149 0.18097 0.19744 0.0
C1366 C 0.3457 0.16788 0.14035 0.0
C1367 C 0.35219 0.1724 0.10481 0.0
C1368 C 0.36486 0.18544 0.10123 0.0
C1369 C 0.37077 0.19404 0.13386 0.0
C1370 C 0.36433 0.18943 0.1695 0.0
H1371 H 0.30322 0.18489 0.2138 0.0
H1372 H 0.32045 0.19264 0.18346 0.0
H1373 H 0.31073 0.1718 0.17499 0.0
H1374 H 0.33623 0.15752 0.14251 0.0
H1375 H 0.34741 0.16551 0.08021 0.0
loop_
_geom_bond_atom_site_label_1
_geom_bond_atom_site_label_2
_geom_bond_distance
_geom_bond_site_symmetry_2
_ccdc_geom_bond_type
Co0 O1 2.216 . S
Co0 O2 2.090 1_556 S
Co0 O4 2.004 . S
Co0 O10 2.021 1_556 S
Co0 O12 2.137 . S
Co0 O13 2.244 . S
O1 Co0 2.216 . S
O1 C8 1.246 . S
O2 Co0 2.090 1_554 S
O2 C8 1.261 1_554 S
C3 O12 1.247 . S
C3 O13 1.272 . S
O4 Co0 2.004 . S
O4 C9 1.259 . S
Co5 O6 2.060 1_556 S
Co5 O11 2.034 1_556 S
Co5 O13 2.147 . S
O6 Co5 2.060 1_554 S
O6 C9 1.235 1_554 S
C7 O10 1.238 . S
C7 O11 1.241 . S
C8 O1 1.246 . S
C8 O2 1.261 1_556 S
C9 O4 1.259 . S
C9 O6 1.235 1_556 S
O10 Co0 2.021 1_554 S
O10 C7 1.238 . S
O11 Co5 2.034 1_554 S
O11 C7 1.241 . S
O12 Co0 2.137 . S
O12 C3 1.247 . S
O13 Co0 2.244 . S
O13 C3 1.272 . S
O13 Co5 2.147 . S
Co14 O15 2.216 . S
Co14 O16 2.090 1_556 S
Co14 O18 2.004 . S
Co14 O24 2.021 1_556 S
Co14 O26 2.137 . S
Co14 O27 2.244 . S
O15 Co14 2.216 . S
O15 C22 1.246 . S
O16 Co14 2.090 1_554 S
O16 C22 1.261 1_554 S
C17 O26 1.247 . S
C17 O27 1.272 . S
O18 Co14 2.004 . S
O18 C23 1.259 . S
Co19 O20 2.060 1_556 S
Co19 O25 2.034 1_556 S
Co19 O27 2.147 . S
O20 Co19 2.060 1_554 S
O20 C23 1.235 1_554 S
C21 O24 1.238 . S
C21 O25 1.241 . S
C22 O15 1.246 . S
C22 O16 1.261 1_556 S
C23 O18 1.259 . S
C23 O20 1.235 1_556 S
O24 Co14 2.021 1_554 S
O24 C21 1.238 . S
O25 Co19 2.034 1_554 S
O25 C21 1.241 . S
O26 Co14 2.137 . S
O26 C17 1.247 . S
O27 Co14 2.244 . S
O27 C17 1.272 . S
O27 Co19 2.147 . S
Co28 O29 2.216 . S
Co28 O30 2.090 1_556 S
Co28 O32 2.004 . S
Co28 O38 2.021 1_556 S
Co28 O40 2.137 . S
Co28 O41 2.244 . S
O29 Co28 2.216 . S
O29 C36 1.246 . S
O30 Co28 2.090 1_554 S
O30 C36 1.261 1_554 S
C31 O40 1.247 . S
C31 O41 1.272 . S
O32 Co28 2.004 . S
O32 C37 1.259 . S
Co33 O34 2.060 1_556 S
Co33 O39 2.034 1_556 S
Co33 O41 2.147 . S
O34 Co33 2.060 1_554 S
O34 C37 1.235 1_554 S
C35 O38 1.238 . S
C35 O39 1.241 . S
C36 O29 1.246 . S
C36 O30 1.261 1_556 S
C37 O32 1.259 . S
C37 O34 1.235 1_556 S
O38 Co28 2.021 1_554 S
O38 C35 1.238 . S
O39 Co33 2.034 1_554 S
O39 C35 1.241 . S
O40 Co28 2.137 . S
O40 C31 1.247 . S
O41 Co28 2.244 . S
O41 C31 1.272 . S
O41 Co33 2.147 . S
Co42 O43 2.216 . S
Co42 O44 2.090 1_556 S
Co42 O46 2.004 . S
Co42 O52 2.021 1_556 S
Co42 O54 2.137 . S
Co42 O55 2.244 . S
O43 Co42 2.216 . S
O43 C50 1.246 . S
O44 Co42 2.090 1_554 S
O44 C50 1.261 1_554 S
C45 O54 1.247 . S
C45 O55 1.272 . S
O46 Co42 2.004 . S
O46 C51 1.259 . S
Co47 O48 2.060 1_556 S
Co47 O53 2.034 1_556 S
Co47 O55 2.147 . S
O48 Co47 2.060 1_554 S
O48 C51 1.235 1_554 S
C49 O52 1.238 . S
C49 O53 1.241 . S
C50 O43 1.246 . S
C50 O44 1.261 1_556 S
C51 O46 1.259 . S
C51 O48 1.235 1_556 S
O52 Co42 2.021 1_554 S
O52 C49 1.238 . S
O53 Co47 2.034 1_554 S
O53 C49 1.241 . S
O54 Co42 2.137 . S
O54 C45 1.247 . S
O55 Co42 2.244 . S
O55 C45 1.272 . S
O55 Co47 2.147 . S
Co56 O57 2.216 . S
Co56 O58 2.090 1_554 S
Co56 O60 2.004 . S
Co56 O66 2.021 1_554 S
Co56 O68 2.137 . S
Co56 O69 2.244 . S
O57 Co56 2.216 . S
O57 C64 1.247 . S
O58 Co56 2.090 1_556 S
O58 C64 1.261 1_556 S
C59 O68 1.247 . S
C59 O69 1.272 . S
O60 Co56 2.004 . S
O60 C65 1.259 . S
Co61 O62 2.060 1_554 S
Co61 O67 2.028 1_554 S
Co61 O69 2.151 . S
O62 Co61 2.060 1_556 S
O62 C65 1.235 1_556 S
C63 O66 1.238 . S
C63 O67 1.241 . S
C64 O57 1.247 . S
C64 O58 1.261 1_554 S
C65 O60 1.259 . S
C65 O62 1.235 1_554 S
O66 Co56 2.021 1_556 S
O66 C63 1.238 . S
O67 Co61 2.028 1_556 S
O67 C63 1.241 . S
O68 Co56 2.137 . S
O68 C59 1.247 . S
O69 Co56 2.244 . S
O69 C59 1.272 . S
O69 Co61 2.151 . S
Co70 O71 2.216 . S
Co70 O72 2.090 1_554 S
Co70 O74 2.004 . S
Co70 O80 2.021 1_554 S
Co70 O82 2.137 . S
Co70 O83 2.244 . S
O71 Co70 2.216 . S
O71 C78 1.247 . S
O72 Co70 2.090 1_556 S
O72 C78 1.261 1_556 S
C73 O82 1.247 . S
C73 O83 1.272 . S
O74 Co70 2.004 . S
O74 C79 1.259 . S
Co75 O76 2.060 1_554 S
Co75 O81 2.028 1_554 S
Co75 O83 2.151 . S
O76 Co75 2.060 1_556 S
O76 C79 1.235 1_556 S
C77 O80 1.238 . S
C77 O81 1.241 . S
C78 O71 1.247 . S
C78 O72 1.261 1_554 S
C79 O74 1.259 . S
C79 O76 1.235 1_554 S
O80 Co70 2.021 1_556 S
O80 C77 1.238 . S
O81 Co75 2.028 1_556 S
O81 C77 1.241 . S
O82 Co70 2.137 . S
O82 C73 1.247 . S
O83 Co70 2.244 . S
O83 C73 1.272 . S
O83 Co75 2.151 . S
Co84 O85 2.216 . S
Co84 O86 2.090 1_554 S
Co84 O88 2.004 . S
Co84 O94 2.021 1_554 S
Co84 O96 2.137 . S
Co84 O97 2.244 . S
O85 Co84 2.216 . S
O85 C92 1.247 . S
O86 Co84 2.090 1_556 S
O86 C92 1.261 1_556 S
C87 O96 1.247 . S
C87 O97 1.272 . S
O88 Co84 2.004 . S
O88 C93 1.259 . S
Co89 O90 2.060 1_554 S
Co89 O95 2.028 1_554 S
Co89 O97 2.151 . S
O90 Co89 2.060 1_556 S
O90 C93 1.235 1_556 S
C91 O94 1.238 . S
C91 O95 1.241 . S
C92 O85 1.247 . S
C92 O86 1.261 1_554 S
C93 O88 1.259 . S
C93 O90 1.235 1_554 S
O94 Co84 2.021 1_556 S
O94 C91 1.238 . S
O95 Co89 2.028 1_556 S
O95 C91 1.241 . S
O96 Co84 2.137 . S
O96 C87 1.247 . S
O97 Co84 2.244 . S
O97 C87 1.272 . S
O97 Co89 2.151 . S
Co98 O99 2.216 . S
Co98 O100 2.090 1_554 S
Co98 O102 2.004 . S
Co98 O108 2.021 1_554 S
Co98 O110 2.137 . S
Co98 O111 2.244 . S
O99 Co98 2.216 . S
O99 C106 1.247 . S
O100 Co98 2.090 1_556 S
O100 C106 1.261 1_556 S
C101 O110 1.247 . S
C101 O111 1.272 . S
O102 Co98 2.004 . S
O102 C107 1.259 . S
Co103 O104 2.060 1_554 S
Co103 O109 2.028 1_554 S
Co103 O111 2.151 . S
O104 Co103 2.060 1_556 S
O104 C107 1.235 1_556 S
C105 O108 1.238 . S
C105 O109 1.241 . S
C106 O99 1.247 . S
C106 O100 1.261 1_554 S
C107 O102 1.259 . S
C107 O104 1.235 1_554 S
O108 Co98 2.021 1_556 S
O108 C105 1.238 . S
O109 Co103 2.028 1_556 S
O109 C105 1.241 . S
O110 Co98 2.137 . S
O110 C101 1.247 . S
O111 Co98 2.244 . S
O111 C101 1.272 . S
O111 Co103 2.151 . S
Co112 O113 2.216 . S
Co112 O114 2.091 . S
Co112 O116 2.004 . S
Co112 O122 2.021 . S
Co112 O124 2.137 . S
Co112 O125 2.244 . S
O113 Co112 2.216 . S
O113 C120 1.247 . S
O114 Co112 2.091 . S
O114 C120 1.261 . S
C115 O124 1.247 . S
C115 O125 1.272 . S
O116 Co112 2.004 . S
O116 C121 1.259 . S
Co117 O118 2.061 . S
Co117 O123 2.052 . S
Co117 O125 2.135 . S
O118 Co117 2.061 . S
O118 C121 1.235 . S
C119 O122 1.238 . S
C119 O123 1.241 . S
C120 O113 1.247 . S
C120 O114 1.261 . S
C121 O116 1.259 . S
C121 O118 1.235 . S
O122 Co112 2.021 . S
O122 C119 1.238 . S
O123 Co117 2.052 . S
O123 C119 1.241 . S
O124 Co112 2.137 . S
O124 C115 1.247 . S
O125 Co112 2.244 . S
O125 C115 1.272 . S
O125 Co117 2.135 . S
Co126 O127 2.216 . S
Co126 O128 2.091 . S
Co126 O130 2.004 . S
Co126 O136 2.021 . S
Co126 O138 2.137 . S
Co126 O139 2.244 . S
O127 Co126 2.216 . S
O127 C134 1.247 . S
O128 Co126 2.091 . S
O128 C134 1.261 . S
C129 O138 1.247 . S
C129 O139 1.272 . S
O130 Co126 2.004 . S
O130 C135 1.259 . S
Co131 O132 2.061 . S
Co131 O137 2.052 . S
Co131 O139 2.135 . S
O132 Co131 2.061 . S
O132 C135 1.235 . S
C133 O136 1.238 . S
C133 O137 1.241 . S
C134 O127 1.247 . S
C134 O128 1.261 . S
C135 O130 1.259 . S
C135 O132 1.235 . S
O136 Co126 2.021 . S
O136 C133 1.238 . S
O137 Co131 2.052 . S
O137 C133 1.241 . S
O138 Co126 2.137 . S
O138 C129 1.247 . S
O139 Co126 2.244 . S
O139 C129 1.272 . S
O139 Co131 2.135 . S
Co140 O141 2.216 . S
Co140 O142 2.091 . S
Co140 O144 2.004 . S
Co140 O150 2.021 . S
Co140 O152 2.137 . S
Co140 O153 2.244 . S
O141 Co140 2.216 . S
O141 C148 1.247 . S
O142 Co140 2.091 . S
O142 C148 1.261 . S
C143 O152 1.247 . S
C143 O153 1.272 . S
O144 Co140 2.004 . S
O144 C149 1.259 . S
Co145 O146 2.061 . S
Co145 O151 2.052 . S
Co145 O153 2.135 . S
O146 Co145 2.061 . S
O146 C149 1.235 . S
C147 O150 1.238 . S
C147 O151 1.241 . S
C148 O141 1.247 . S
C148 O142 1.261 . S
C149 O144 1.259 . S
C149 O146 1.235 . S
O150 Co140 2.021 . S
O150 C147 1.238 . S
O151 Co145 2.052 . S
O151 C147 1.241 . S
O152 Co140 2.137 . S
O152 C143 1.247 . S
O153 Co140 2.244 . S
O153 C143 1.272 . S
O153 Co145 2.135 . S
Co154 O155 2.216 . S
Co154 O156 2.091 . S
Co154 O158 2.004 . S
Co154 O164 2.021 . S
Co154 O166 2.137 . S
Co154 O167 2.244 . S
O155 Co154 2.216 . S
O155 C162 1.247 . S
O156 Co154 2.091 . S
O156 C162 1.261 . S
C157 O166 1.247 . S
C157 O167 1.272 . S
O158 Co154 2.004 . S
O158 C163 1.259 . S
Co159 O160 2.061 . S
Co159 O165 2.052 . S
Co159 O167 2.135 . S
O160 Co159 2.061 . S
O160 C163 1.235 . S
C161 O164 1.238 . S
C161 O165 1.241 . S
C162 O155 1.247 . S
C162 O156 1.261 . S
C163 O158 1.259 . S
C163 O160 1.235 . S
O164 Co154 2.021 . S
O164 C161 1.238 . S
O165 Co159 2.052 . S
O165 C161 1.241 . S
O166 Co154 2.137 . S
O166 C157 1.247 . S
O167 Co154 2.244 . S
O167 C157 1.272 . S
O167 Co159 2.135 . S
Co168 O169 2.216 . S
Co168 O170 2.091 . S
Co168 O172 2.004 . S
Co168 O178 2.021 . S
Co168 O180 2.137 . S
Co168 O181 2.244 . S
O169 Co168 2.216 . S
O169 C176 1.247 . S
O170 Co168 2.091 . S
O170 C176 1.261 . S
C171 O180 1.247 . S
C171 O181 1.272 . S
O172 Co168 2.004 . S
O172 C177 1.259 . S
Co173 O174 2.061 . S
Co173 O179 2.052 . S
Co173 O181 2.135 . S
O174 Co173 2.061 . S
O174 C177 1.235 . S
C175 O178 1.238 . S
C175 O179 1.241 . S
C176 O169 1.247 . S
C176 O170 1.261 . S
C177 O172 1.259 . S
C177 O174 1.235 . S
O178 Co168 2.021 . S
O178 C175 1.238 . S
O179 Co173 2.052 . S
O179 C175 1.241 . S
O180 Co168 2.137 . S
O180 C171 1.247 . S
O181 Co168 2.244 . S
O181 C171 1.272 . S
O181 Co173 2.135 . S
Co182 O183 2.216 . S
Co182 O184 2.091 . S
Co182 O186 2.004 . S
Co182 O192 2.021 . S
Co182 O194 2.137 . S
Co182 O195 2.244 . S
O183 Co182 2.216 . S
O183 C190 1.247 . S
O184 Co182 2.091 . S
O184 C190 1.261 . S
C185 O194 1.247 . S
C185 O195 1.272 . S
O186 Co182 2.004 . S
O186 C191 1.259 . S
Co187 O188 2.061 . S
Co187 O193 2.052 . S
Co187 O195 2.135 . S
O188 Co187 2.061 . S
O188 C191 1.235 . S
C189 O192 1.238 . S
C189 O193 1.241 . S
C190 O183 1.247 . S
C190 O184 1.261 . S
C191 O186 1.259 . S
C191 O188 1.235 . S
O192 Co182 2.021 . S
O192 C189 1.238 . S
O193 Co187 2.052 . S
O193 C189 1.241 . S
O194 Co182 2.137 . S
O194 C185 1.247 . S
O195 Co182 2.244 . S
O195 C185 1.272 . S
O195 Co187 2.135 . S
Co196 O197 2.216 . S
Co196 O198 2.091 . S
Co196 O200 2.004 . S
Co196 O206 2.021 . S
Co196 O208 2.137 . S
Co196 O209 2.244 . S
O197 Co196 2.216 . S
O197 C204 1.247 . S
O198 Co196 2.091 . S
O198 C204 1.261 . S
C199 O208 1.247 . S
C199 O209 1.272 . S
O200 Co196 2.004 . S
O200 C205 1.259 . S
Co201 O202 2.061 . S
Co201 O207 2.052 . S
Co201 O209 2.135 . S
O202 Co201 2.061 . S
O202 C205 1.235 . S
C203 O206 1.238 . S
C203 O207 1.241 . S
C204 O197 1.247 . S
C204 O198 1.261 . S
C205 O200 1.259 . S
C205 O202 1.235 . S
O206 Co196 2.021 . S
O206 C203 1.238 . S
O207 Co201 2.052 . S
O207 C203 1.241 . S
O208 Co196 2.137 . S
O208 C199 1.247 . S
O209 Co196 2.244 . S
O209 C199 1.272 . S
O209 Co201 2.135 . S
Co210 O211 2.216 . S
Co210 O212 2.091 . S
Co210 O214 2.004 . S
Co210 O220 2.021 . S
Co210 O222 2.137 . S
Co210 O223 2.244 . S
O211 Co210 2.216 . S
O211 C218 1.247 . S
O212 Co210 2.091 . S
O212 C218 1.261 . S
C213 O222 1.247 . S
C213 O223 1.272 . S
O214 Co210 2.004 . S
O214 C219 1.259 . S
Co215 O216 2.061 . S
Co215 O221 2.052 . S
Co215 O223 2.135 . S
O216 Co215 2.061 . S
O216 C219 1.235 . S
C217 O220 1.238 . S
C217 O221 1.241 . S
C218 O211 1.247 . S
C218 O212 1.261 . S
C219 O214 1.259 . S
C219 O216 1.235 . S
O220 Co210 2.021 . S
O220 C217 1.238 . S
O221 Co215 2.052 . S
O221 C217 1.241 . S
O222 Co210 2.137 . S
O222 C213 1.247 . S
O223 Co210 2.244 . S
O223 C213 1.272 . S
O223 Co215 2.135 . S
H224 C232 0.929 . S
H225 C234 0.930 . S
H226 C236 0.930 1_554 S
H227 C239 0.929 1_554 S
H228 C242 0.930 . S
H229 C244 0.960 . S
H230 C244 0.960 . S
H231 C244 0.960 . S
C232 H224 0.929 . S
C232 C233 1.377 . S
C232 C234 1.384 . S
C233 C232 1.377 . S
C233 C239 1.390 . S
C234 H225 0.930 . S
C234 C232 1.384 . S
C234 C235 1.372 . S
C235 C234 1.372 . S
C235 C236 1.400 . S
C235 C240 1.490 1_556 S
C236 H226 0.930 1_556 S
C236 C235 1.400 . S
C236 C239 1.386 . S
H237 C253 0.930 . S
H238 C254 0.931 . S
C239 H227 0.929 1_556 S
C239 C233 1.390 . S
C239 C236 1.386 . S
C240 C235 1.490 1_554 S
C240 C242 1.404 . S
C240 C243 1.394 1_554 S
H241 C247 0.930 . S
C242 H228 0.930 . S
C242 C240 1.404 . S
C242 C245 1.403 . S
C243 C240 1.394 1_556 S
C243 C244 1.524 . S
C243 C247 1.400 . S
C244 H229 0.960 . S
C244 H230 0.960 . S
C244 H231 0.960 . S
C244 C243 1.524 . S
C245 C242 1.403 . S
C245 C246 1.392 . S
C245 C249 1.495 . S
C246 C245 1.392 . S
C246 C247 1.385 1_554 S
C246 C248 1.478 . S
C247 H241 0.930 . S
C247 C243 1.400 . S
C247 C246 1.385 1_556 S
C248 C246 1.478 . S
C248 C250 1.381 . S
C248 C254 1.383 . S
C249 C245 1.495 . S
C249 H255 0.959 . S
C249 H256 0.961 . S
C249 H257 0.960 . S
C250 C248 1.381 . S
C250 C251 1.393 1_554 S
C250 H258 0.930 1_554 S
C251 C250 1.393 1_556 S
C251 C252 1.381 1_556 S
C251 H259 0.933 . S
C252 C251 1.381 1_554 S
C252 C253 1.377 . S
C253 H237 0.930 . S
C253 C252 1.377 . S
C253 C254 1.379 . S
C254 H238 0.931 . S
C254 C248 1.383 . S
C254 C253 1.379 . S
H255 C249 0.959 . S
H256 C249 0.961 . S
H257 C249 0.960 . S
H258 C250 0.930 1_556 S
H259 C251 0.933 . S
H260 C268 0.929 . S
H261 C270 0.930 . S
H262 C272 0.930 . S
H263 C275 0.929 . S
H264 C278 0.930 . S
H265 C280 0.960 . S
H266 C280 0.960 . S
H267 C280 0.960 . S
C268 H260 0.929 . S
C268 C269 1.371 1_554 S
C268 C270 1.384 . S
C269 C268 1.371 1_556 S
C269 C275 1.396 . S
C270 H261 0.930 . S
C270 C268 1.384 . S
C270 C271 1.378 . S
C271 C270 1.378 . S
C271 C272 1.394 1_554 S
C271 C276 1.490 . S
C272 H262 0.930 . S
C272 C271 1.394 1_556 S
C272 C275 1.386 . S
H273 C289 0.930 . S
H274 C290 0.931 . S
C275 H263 0.929 . S
C275 C269 1.396 . S
C275 C272 1.386 . S
C276 C271 1.490 . S
C276 C278 1.394 1_554 S
C276 C279 1.403 . S
H277 C283 0.930 . S
C278 H264 0.930 . S
C278 C276 1.394 1_556 S
C278 C281 1.403 . S
C279 C276 1.403 . S
C279 C280 1.524 . S
C279 C283 1.400 . S
C280 H265 0.960 . S
C280 H266 0.960 . S
C280 H267 0.960 . S
C280 C279 1.524 . S
C281 C278 1.403 . S
C281 C282 1.392 . S
C281 C285 1.495 . S
C282 C281 1.392 . S
C282 C283 1.385 1_556 S
C282 C284 1.478 . S
C283 H277 0.930 . S
C283 C279 1.400 . S
C283 C282 1.385 1_554 S
C284 C282 1.478 . S
C284 C286 1.381 1_556 S
C284 C290 1.383 . S
C285 C281 1.495 . S
C285 H291 0.959 . S
C285 H292 0.961 . S
C285 H293 0.960 . S
C286 C284 1.381 1_554 S
C286 C287 1.394 . S
C286 H294 0.930 . S
C287 C286 1.394 . S
C287 C288 1.378 1_554 S
C287 H295 0.929 . S
C288 C287 1.378 1_556 S
C288 C289 1.383 . S
C289 H273 0.930 . S
C289 C288 1.383 . S
C289 C290 1.379 . S
C290 H274 0.931 . S
C290 C284 1.383 . S
C290 C289 1.379 . S
H291 C285 0.959 . S
H292 C285 0.961 . S
H293 C285 0.960 . S
H294 C286 0.930 . S
H295 C287 0.929 . S
H296 C304 0.929 . S
H297 C306 0.930 . S
H298 C308 0.930 . S
H299 C311 0.929 . S
H300 C314 0.930 . S
H301 C316 0.960 . S
H302 C316 0.960 1_556 S
H303 C316 0.960 . S
C304 H296 0.929 . S
C304 C305 1.377 . S
C304 C306 1.384 . S
C305 C304 1.377 . S
C305 C311 1.390 1_556 S
C306 H297 0.930 . S
C306 C304 1.384 . S
C306 C307 1.372 . S
C307 C306 1.372 . S
C307 C308 1.400 1_556 S
C307 C312 1.490 . S
C308 H298 0.930 . S
C308 C307 1.400 1_554 S
C308 C311 1.386 . S
H309 C325 0.930 . S
H310 C326 0.931 . S
C311 H299 0.929 . S
C311 C305 1.390 1_554 S
C311 C308 1.386 . S
C312 C307 1.490 . S
C312 C314 1.395 . S
C312 C315 1.403 1_556 S
H313 C319 0.930 . S
C314 H300 0.930 . S
C314 C312 1.395 . S
C314 C317 1.403 . S
C315 C312 1.403 1_554 S
C315 C316 1.524 . S
C315 C319 1.400 . S
C316 H301 0.960 . S
C316 H302 0.960 1_554 S
C316 H303 0.960 . S
C316 C315 1.524 . S
C317 C314 1.403 . S
C317 C318 1.392 . S
C317 C321 1.495 . S
C318 C317 1.392 . S
C318 C319 1.385 1_556 S
C318 C320 1.478 . S
C319 H313 0.930 . S
C319 C315 1.400 . S
C319 C318 1.385 1_554 S
C320 C318 1.478 . S
C320 C322 1.384 . S
C320 C326 1.379 1_556 S
C321 C317 1.495 . S
C321 H327 0.959 . S
C321 H328 0.961 1_556 S
C321 H329 0.960 . S
C322 C320 1.384 . S
C322 C323 1.394 . S
C322 H330 0.930 . S
C323 C322 1.394 . S
C323 C324 1.383 1_556 S
C323 H331 0.929 . S
C324 C323 1.383 1_554 S
C324 C325 1.377 . S
C325 H309 0.930 . S
C325 C324 1.377 . S
C325 C326 1.379 . S
C326 H310 0.931 . S
C326 C320 1.379 1_554 S
C326 C325 1.379 . S
H327 C321 0.959 . S
H328 C321 0.961 1_554 S
H329 C321 0.960 . S
H330 C322 0.930 . S
H331 C323 0.929 . S
H332 C340 0.929 . S
H333 C342 0.930 . S
H334 C344 0.930 . S
H335 C347 0.929 . S
H336 C350 0.930 . S
H337 C352 0.960 . S
H338 C352 0.960 . S
H339 C352 0.960 . S
C340 H332 0.929 . S
C340 C341 1.377 1_554 S
C340 C342 1.384 . S
C341 C340 1.377 1_556 S
C341 C347 1.390 . S
C342 H333 0.930 . S
C342 C340 1.384 . S
C342 C343 1.369 1_554 S
C343 C342 1.369 1_556 S
C343 C344 1.403 . S
C343 C348 1.489 1_556 S
C344 H334 0.930 . S
C344 C343 1.403 . S
C344 C347 1.386 . S
H345 C361 0.926 1_556 S
H346 C362 0.934 . S
C347 H335 0.929 . S
C347 C341 1.390 . S
C347 C344 1.386 . S
C348 C343 1.489 1_554 S
C348 C350 1.395 . S
C348 C351 1.403 1_554 S
H349 C355 0.930 . S
C350 H336 0.930 . S
C350 C348 1.395 . S
C350 C353 1.403 . S
C351 C348 1.403 1_556 S
C351 C352 1.524 . S
C351 C355 1.400 . S
C352 H337 0.960 . S
C352 H338 0.960 . S
C352 H339 0.960 . S
C352 C351 1.524 . S
C353 C350 1.403 . S
C353 C354 1.392 . S
C353 C357 1.495 . S
C354 C353 1.392 . S
C354 C355 1.385 1_554 S
C354 C356 1.478 . S
C355 H349 0.930 . S
C355 C351 1.400 . S
C355 C354 1.385 1_556 S
C356 C354 1.478 . S
C356 C358 1.381 . S
C356 C362 1.383 . S
C357 C353 1.495 . S
C357 H363 0.959 . S
C357 H364 0.961 . S
C357 H365 0.960 . S
C358 C356 1.381 . S
C358 C359 1.394 . S
C358 H366 0.930 . S
C359 C358 1.394 . S
C359 C360 1.383 . S
C359 H367 0.929 . S
C360 C359 1.383 . S
C360 C361 1.379 . S
C361 H345 0.926 1_554 S
C361 C360 1.379 . S
C361 C362 1.381 . S
C362 H346 0.934 . S
C362 C356 1.383 . S
C362 C361 1.381 . S
H363 C357 0.959 . S
H364 C357 0.961 . S
H365 C357 0.960 . S
H366 C358 0.930 . S
H367 C359 0.929 . S
H368 C376 0.929 . S
H369 C378 0.930 . S
H370 C380 0.930 . S
H371 C383 0.929 . S
H372 C386 0.930 . S
H373 C388 0.960 . S
H374 C388 0.960 . S
H375 C388 0.960 . S
C376 H368 0.929 . S
C376 C377 1.377 . S
C376 C378 1.384 . S
C377 C376 1.377 . S
C377 C383 1.390 . S
C378 H369 0.930 . S
C378 C376 1.384 . S
C378 C379 1.372 . S
C379 C378 1.372 . S
C379 C380 1.400 . S
C379 C384 1.490 . S
C380 H370 0.930 . S
C380 C379 1.400 . S
C380 C383 1.386 . S
H381 C397 0.930 . S
H382 C398 0.931 . S
C383 H371 0.929 . S
C383 C377 1.390 . S
C383 C380 1.386 . S
C384 C379 1.490 . S
C384 C386 1.395 . S
C384 C387 1.403 . S
H385 C391 0.930 . S
C386 H372 0.930 . S
C386 C384 1.395 . S
C386 C389 1.403 1_545 S
C387 C384 1.403 . S
C387 C388 1.524 . S
C387 C391 1.400 1_545 S
C388 H373 0.960 . S
C388 H374 0.960 . S
C388 H375 0.960 . S
C388 C387 1.524 . S
C389 C386 1.403 1_565 S
C389 C390 1.392 . S
C389 C393 1.495 . S
C390 C389 1.392 . S
C390 C391 1.385 . S
C390 C392 1.478 . S
C391 H385 0.930 . S
C391 C387 1.400 1_565 S
C391 C390 1.385 . S
C392 C390 1.478 . S
C392 C394 1.381 . S
C392 C398 1.383 . S
C393 C389 1.495 . S
C393 H399 0.959 . S
C393 H400 0.961 . S
C393 H401 0.960 . S
C394 C392 1.381 . S
C394 C395 1.394 . S
C394 H402 0.930 . S
C395 C394 1.394 . S
C395 C396 1.383 . S
C395 H403 0.929 . S
C396 C395 1.383 . S
C396 C397 1.377 . S
C397 H381 0.930 . S
C397 C396 1.377 . S
C397 C398 1.379 . S
C398 H382 0.931 . S
C398 C392 1.383 . S
C398 C397 1.379 . S
H399 C393 0.959 . S
H400 C393 0.961 . S
H401 C393 0.960 . S
H402 C394 0.930 . S
H403 C395 0.929 . S
H404 C412 0.929 . S
H405 C414 0.930 . S
H406 C416 0.930 . S
H407 C419 0.929 . S
H408 C422 0.930 . S
H409 C424 0.960 . S
H410 C424 0.960 . S
H411 C424 0.960 . S
C412 H404 0.929 . S
C412 C413 1.377 . S
C412 C414 1.384 . S
C413 C412 1.377 . S
C413 C419 1.390 . S
C414 H405 0.930 . S
C414 C412 1.384 . S
C414 C415 1.372 . S
C415 C414 1.372 . S
C415 C416 1.400 . S
C415 C420 1.490 . S
C416 H406 0.930 . S
C416 C415 1.400 . S
C416 C419 1.386 . S
H417 C433 0.930 . S
H418 C434 0.931 . S
C419 H407 0.929 . S
C419 C413 1.390 . S
C419 C416 1.386 . S
C420 C415 1.490 . S
C420 C422 1.395 . S
C420 C423 1.403 . S
H421 C427 0.930 . S
C422 H408 0.930 . S
C422 C420 1.395 . S
C422 C425 1.403 1_655 S
C423 C420 1.403 . S
C423 C424 1.524 . S
C423 C427 1.400 1_655 S
C424 H409 0.960 . S
C424 H410 0.960 . S
C424 H411 0.960 . S
C424 C423 1.524 . S
C425 C422 1.403 1_455 S
C425 C426 1.392 . S
C425 C429 1.495 . S
C426 C425 1.392 . S
C426 C427 1.385 . S
C426 C428 1.478 . S
C427 H421 0.930 . S
C427 C423 1.400 1_455 S
C427 C426 1.385 . S
C428 C426 1.478 . S
C428 C430 1.381 . S
C428 C434 1.383 . S
C429 C425 1.495 . S
C429 H435 0.959 . S
C429 H436 0.961 . S
C429 H437 0.960 . S
C430 C428 1.381 . S
C430 C431 1.394 . S
C430 H438 0.930 . S
C431 C430 1.394 . S
C431 C432 1.383 . S
C431 H439 0.929 . S
C432 C431 1.383 . S
C432 C433 1.377 . S
C433 H417 0.930 . S
C433 C432 1.377 . S
C433 C434 1.379 . S
C434 H418 0.931 . S
C434 C428 1.383 . S
C434 C433 1.379 . S
H435 C429 0.959 . S
H436 C429 0.961 . S
H437 C429 0.960 . S
H438 C430 0.930 . S
H439 C431 0.929 . S
H440 C448 0.929 . S
H441 C450 0.930 . S
H442 C452 0.930 . S
H443 C455 0.929 . S
H444 C458 0.930 . S
H445 C460 0.960 . S
H446 C460 0.960 . S
H447 C460 0.960 . S
C448 H440 0.929 . S
C448 C449 1.377 . S
C448 C450 1.384 . S
C449 C448 1.377 . S
C449 C455 1.390 . S
C450 H441 0.930 . S
C450 C448 1.384 . S
C450 C451 1.372 . S
C451 C450 1.372 . S
C451 C452 1.400 . S
C451 C456 1.490 . S
C452 H442 0.930 . S
C452 C451 1.400 . S
C452 C455 1.386 . S
H453 C469 0.930 . S
H454 C470 0.931 . S
C455 H443 0.929 . S
C455 C449 1.390 . S
C455 C452 1.386 . S
C456 C451 1.490 . S
C456 C458 1.395 . S
C456 C459 1.403 . S
H457 C463 0.930 . S
C458 H444 0.930 . S
C458 C456 1.395 . S
C458 C461 1.403 1_545 S
C459 C456 1.403 . S
C459 C460 1.524 . S
C459 C463 1.400 1_545 S
C460 H445 0.960 . S
C460 H446 0.960 . S
C460 H447 0.960 . S
C460 C459 1.524 . S
C461 C458 1.403 1_565 S
C461 C462 1.392 . S
C461 C465 1.495 . S
C462 C461 1.392 . S
C462 C463 1.385 . S
C462 C464 1.478 . S
C463 H457 0.930 . S
C463 C459 1.400 1_565 S
C463 C462 1.385 . S
C464 C462 1.478 . S
C464 C466 1.381 . S
C464 C470 1.383 . S
C465 C461 1.495 . S
C465 H471 0.959 . S
C465 H472 0.961 . S
C465 H473 0.960 . S
C466 C464 1.381 . S
C466 C467 1.394 . S
C466 H474 0.930 . S
C467 C466 1.394 . S
C467 C468 1.383 . S
C467 H475 0.929 . S
C468 C467 1.383 . S
C468 C469 1.377 . S
C469 H453 0.930 . S
C469 C468 1.377 . S
C469 C470 1.379 . S
C470 H454 0.931 . S
C470 C464 1.383 . S
C470 C469 1.379 . S
H471 C465 0.959 . S
H472 C465 0.961 . S
H473 C465 0.960 . S
H474 C466 0.930 . S
H475 C467 0.929 . S
H476 C484 0.929 . S
H477 C486 0.930 . S
H478 C488 0.930 . S
H479 C491 0.929 . S
H480 C494 0.930 . S
H481 C496 0.960 . S
H482 C496 0.960 . S
H483 C496 0.960 . S
C484 H476 0.929 . S
C484 C485 1.377 . S
C484 C486 1.384 . S
C485 C484 1.377 . S
C485 C491 1.390 . S
C486 H477 0.930 . S
C486 C484 1.384 . S
C486 C487 1.372 . S
C487 C486 1.372 . S
C487 C488 1.400 . S
C487 C492 1.490 . S
C488 H478 0.930 . S
C488 C487 1.400 . S
C488 C491 1.386 . S
H489 C505 0.930 . S
H490 C506 0.931 . S
C491 H479 0.929 . S
C491 C485 1.390 . S
C491 C488 1.386 . S
C492 C487 1.490 . S
C492 C494 1.395 . S
C492 C495 1.403 . S
H493 C499 0.930 . S
C494 H480 0.930 . S
C494 C492 1.395 . S
C494 C497 1.403 1_455 S
C495 C492 1.403 . S
C495 C496 1.524 . S
C495 C499 1.400 1_455 S
C496 H481 0.960 . S
C496 H482 0.960 . S
C496 H483 0.960 . S
C496 C495 1.524 . S
C497 C494 1.403 1_655 S
C497 C498 1.392 . S
C497 C501 1.495 . S
C498 C497 1.392 . S
C498 C499 1.385 . S
C498 C500 1.478 . S
C499 H493 0.930 . S
C499 C495 1.400 1_655 S
C499 C498 1.385 . S
C500 C498 1.478 . S
C500 C502 1.381 . S
C500 C506 1.383 . S
C501 C497 1.495 . S
C501 H507 0.959 . S
C501 H508 0.961 . S
C501 H509 0.960 . S
C502 C500 1.381 . S
C502 C503 1.394 . S
C502 H510 0.930 . S
C503 C502 1.394 . S
C503 C504 1.383 . S
C503 H511 0.929 . S
C504 C503 1.383 . S
C504 C505 1.377 . S
C505 H489 0.930 . S
C505 C504 1.377 . S
C505 C506 1.379 . S
C506 H490 0.931 . S
C506 C500 1.383 . S
C506 C505 1.379 . S
H507 C501 0.959 . S
H508 C501 0.961 . S
H509 C501 0.960 . S
H510 C502 0.930 . S
H511 C503 0.929 . S
H512 C520 0.929 . S
H513 C522 0.930 . S
H514 C524 0.930 . S
H515 C527 0.929 . S
H516 C530 0.930 . S
H517 C532 0.960 . S
H518 C532 0.960 . S
H519 C532 0.960 . S
C520 H512 0.929 . S
C520 C521 1.394 . S
C520 C522 1.384 . S
C521 C520 1.394 . S
C521 C527 1.373 1_556 S
C522 H513 0.930 . S
C522 C520 1.384 . S
C522 C523 1.372 . S
C523 C522 1.372 . S
C523 C524 1.400 1_556 S
C523 C528 1.490 . S
C524 H514 0.930 . S
C524 C523 1.400 1_554 S
C524 C527 1.386 . S
H525 C541 0.930 . S
H526 C542 0.931 . S
C527 H515 0.929 . S
C527 C521 1.373 1_554 S
C527 C524 1.386 . S
C528 C523 1.490 . S
C528 C530 1.395 . S
C528 C531 1.403 1_556 S
H529 C535 0.930 . S
C530 H516 0.930 . S
C530 C528 1.395 . S
C530 C533 1.403 . S
C531 C528 1.403 1_554 S
C531 C532 1.524 . S
C531 C535 1.400 . S
C532 H517 0.960 . S
C532 H518 0.960 . S
C532 H519 0.960 . S
C532 C531 1.524 . S
C533 C530 1.403 . S
C533 C534 1.392 . S
C533 C537 1.495 . S
C534 C533 1.392 . S
C534 C535 1.385 1_556 S
C534 C536 1.478 . S
C535 H529 0.930 . S
C535 C531 1.400 . S
C535 C534 1.385 1_554 S
C536 C534 1.478 . S
C536 C538 1.381 . S
C536 C542 1.383 1_556 S
C537 C533 1.495 . S
C537 H543 0.959 . S
C537 H544 0.961 . S
C537 H545 0.960 . S
C538 C536 1.381 . S
C538 C539 1.394 . S
C538 H546 0.930 . S
C539 C538 1.394 . S
C539 C540 1.383 . S
C539 H547 0.929 . S
C540 C539 1.383 . S
C540 C541 1.377 1_556 S
C541 H525 0.930 . S
C541 C540 1.377 1_554 S
C541 C542 1.379 . S
C542 H526 0.931 . S
C542 C536 1.383 1_554 S
C542 C541 1.379 . S
H543 C537 0.959 . S
H544 C537 0.961 . S
H545 C537 0.960 . S
H546 C538 0.930 . S
H547 C539 0.929 . S
H548 C556 0.931 . S
H549 C558 0.930 . S
H550 C560 0.930 . S
H551 C563 0.929 . S
H552 C566 0.930 . S
H553 C568 0.960 . S
H554 C568 0.960 . S
H555 C568 0.960 . S
C556 H548 0.931 . S
C556 C557 1.376 1_556 S
C556 C558 1.384 . S
C557 C556 1.376 1_554 S
C557 C563 1.390 . S
C558 H549 0.930 . S
C558 C556 1.384 . S
C558 C559 1.371 1_556 S
C559 C558 1.371 1_554 S
C559 C560 1.402 . S
C559 C564 1.489 1_554 S
C560 H550 0.930 . S
C560 C559 1.402 . S
C560 C563 1.386 . S
H561 C577 0.930 . S
H562 C578 0.931 . S
C563 H551 0.929 . S
C563 C557 1.390 . S
C563 C560 1.386 . S
C564 C559 1.489 1_556 S
C564 C566 1.411 . S
C564 C567 1.387 1_556 S
H565 C571 0.930 . S
C566 H552 0.930 . S
C566 C564 1.411 . S
C566 C569 1.403 . S
C567 C564 1.387 1_554 S
C567 C568 1.524 . S
C567 C571 1.400 . S
C568 H553 0.960 . S
C568 H554 0.960 . S
C568 H555 0.960 . S
C568 C567 1.524 . S
C569 C566 1.403 . S
C569 C570 1.392 . S
C569 C573 1.495 . S
C570 C569 1.392 . S
C570 C571 1.385 1_556 S
C570 C572 1.478 . S
C571 H565 0.930 . S
C571 C567 1.400 . S
C571 C570 1.385 1_554 S
C572 C570 1.478 . S
C572 C574 1.381 . S
C572 C578 1.383 . S
C573 C569 1.495 . S
C573 H579 0.959 . S
C573 H580 0.961 . S
C573 H581 0.960 . S
C574 C572 1.381 . S
C574 C575 1.394 . S
C574 H582 0.930 . S
C575 C574 1.394 . S
C575 C576 1.383 . S
C575 H583 0.929 . S
C576 C575 1.383 . S
C576 C577 1.377 . S
C577 H561 0.930 . S
C577 C576 1.377 . S
C577 C578 1.379 . S
C578 H562 0.931 . S
C578 C572 1.383 . S
C578 C577 1.379 . S
H579 C573 0.959 . S
H580 C573 0.961 . S
H581 C573 0.960 . S
H582 C574 0.930 . S
H583 C575 0.929 . S
H584 C592 0.929 . S
H585 C594 0.930 . S
H586 C596 0.930 . S
H587 C599 0.929 . S
H588 C602 0.930 . S
H589 C604 0.960 . S
H590 C604 0.960 . S
H591 C604 0.960 . S
C592 H584 0.929 . S
C592 C593 1.377 . S
C592 C594 1.384 . S
C593 C592 1.377 . S
C593 C599 1.390 1_556 S
C594 H585 0.930 . S
C594 C592 1.384 . S
C594 C595 1.375 . S
C595 C594 1.375 . S
C595 C596 1.398 1_556 S
C595 C600 1.489 1_556 S
C596 H586 0.930 . S
C596 C595 1.398 1_554 S
C596 C599 1.386 . S
H597 C613 0.930 . S
H598 C614 0.931 . S
C599 H587 0.929 . S
C599 C593 1.390 1_554 S
C599 C596 1.386 . S
C600 C595 1.489 1_554 S
C600 C602 1.402 . S
C600 C603 1.396 1_554 S
H601 C607 0.930 . S
C602 H588 0.930 . S
C602 C600 1.402 . S
C602 C605 1.403 . S
C603 C600 1.396 1_556 S
C603 C604 1.524 . S
C603 C607 1.400 . S
C604 H589 0.960 . S
C604 H590 0.960 . S
C604 H591 0.960 . S
C604 C603 1.524 . S
C605 C602 1.403 . S
C605 C606 1.392 . S
C605 C609 1.495 . S
C606 C605 1.392 . S
C606 C607 1.385 1_554 S
C606 C608 1.478 . S
C607 H601 0.930 . S
C607 C603 1.400 . S
C607 C606 1.385 1_556 S
C608 C606 1.478 . S
C608 C610 1.381 1_554 S
C608 C614 1.383 . S
C609 C605 1.495 . S
C609 H615 0.959 . S
C609 H616 0.961 . S
C609 H617 0.960 . S
C610 C608 1.381 1_556 S
C610 C611 1.394 . S
C610 H618 0.930 . S
C611 C610 1.394 . S
C611 C612 1.383 1_556 S
C611 H619 0.929 . S
C612 C611 1.383 1_554 S
C612 C613 1.377 . S
C613 H597 0.930 . S
C613 C612 1.377 . S
C613 C614 1.379 . S
C614 H598 0.931 . S
C614 C608 1.383 . S
C614 C613 1.379 . S
H615 C609 0.959 . S
H616 C609 0.961 . S
H617 C609 0.960 . S
H618 C610 0.930 . S
H619 C611 0.929 . S
H620 C628 0.929 . S
H621 C630 0.930 . S
H622 C632 0.930 . S
H623 C635 0.929 . S
H624 C638 0.930 . S
H625 C640 0.960 . S
H626 C640 0.960 1_554 S
H627 C640 0.960 . S
C628 H620 0.929 . S
C628 C629 1.377 . S
C628 C630 1.384 . S
C629 C628 1.377 . S
C629 C635 1.390 1_554 S
C630 H621 0.930 . S
C630 C628 1.384 . S
C630 C631 1.372 . S
C631 C630 1.372 . S
C631 C632 1.400 1_554 S
C631 C636 1.490 . S
C632 H622 0.930 . S
C632 C631 1.400 1_556 S
C632 C635 1.386 . S
H633 C649 0.930 . S
H634 C650 0.931 . S
C635 H623 0.929 . S
C635 C629 1.390 1_556 S
C635 C632 1.386 . S
C636 C631 1.490 . S
C636 C638 1.395 . S
C636 C639 1.403 1_554 S
H637 C643 0.930 . S
C638 H624 0.930 . S
C638 C636 1.395 . S
C638 C641 1.403 . S
C639 C636 1.403 1_556 S
C639 C640 1.524 . S
C639 C643 1.400 . S
C640 H625 0.960 . S
C640 H626 0.960 1_556 S
C640 H627 0.960 . S
C640 C639 1.524 . S
C641 C638 1.403 . S
C641 C642 1.392 . S
C641 C645 1.495 . S
C642 C641 1.392 . S
C642 C643 1.385 1_554 S
C642 C644 1.478 . S
C643 H637 0.930 . S
C643 C639 1.400 . S
C643 C642 1.385 1_556 S
C644 C642 1.478 . S
C644 C646 1.381 . S
C644 C650 1.383 1_554 S
C645 C641 1.495 . S
C645 H651 0.959 . S
C645 H652 0.961 1_554 S
C645 H653 0.960 . S
C646 C644 1.381 . S
C646 C647 1.394 . S
C646 H654 0.930 . S
C647 C646 1.394 . S
C647 C648 1.369 1_554 S
C647 H655 0.929 . S
C648 C647 1.369 1_556 S
C648 C649 1.391 . S
C649 H633 0.930 . S
C649 C648 1.391 . S
C649 C650 1.379 . S
C650 H634 0.931 . S
C650 C644 1.383 1_556 S
C650 C649 1.379 . S
H651 C645 0.959 . S
H652 C645 0.961 1_556 S
H653 C645 0.960 . S
H654 C646 0.930 . S
H655 C647 0.929 . S
H656 C664 0.929 . S
H657 C666 0.930 . S
H658 C668 0.930 . S
H659 C671 0.929 . S
H660 C674 0.930 . S
H661 C676 0.960 . S
H662 C676 0.960 . S
H663 C676 0.960 . S
C664 H656 0.929 . S
C664 C665 1.377 . S
C664 C666 1.384 . S
C665 C664 1.377 . S
C665 C671 1.390 . S
C666 H657 0.930 . S
C666 C664 1.384 . S
C666 C667 1.372 . S
C667 C666 1.372 . S
C667 C668 1.400 . S
C667 C672 1.490 . S
C668 H658 0.930 . S
C668 C667 1.400 . S
C668 C671 1.386 . S
H669 C685 0.930 . S
H670 C686 0.931 . S
C671 H659 0.929 . S
C671 C665 1.390 . S
C671 C668 1.386 . S
C672 C667 1.490 . S
C672 C674 1.395 . S
C672 C675 1.403 . S
H673 C679 0.930 . S
C674 H660 0.930 . S
C674 C672 1.395 . S
C674 C677 1.403 . S
C675 C672 1.403 . S
C675 C676 1.524 . S
C675 C679 1.400 . S
C676 H661 0.960 . S
C676 H662 0.960 . S
C676 H663 0.960 . S
C676 C675 1.524 . S
C677 C674 1.403 . S
C677 C678 1.392 . S
C677 C681 1.495 . S
C678 C677 1.392 . S
C678 C679 1.385 . S
C678 C680 1.478 . S
C679 H673 0.930 . S
C679 C675 1.400 . S
C679 C678 1.385 . S
C680 C678 1.478 . S
C680 C682 1.381 . S
C680 C686 1.383 . S
C681 C677 1.495 . S
C681 H687 0.959 . S
C681 H688 0.961 . S
C681 H689 0.960 . S
C682 C680 1.381 . S
C682 C683 1.394 . S
C682 H690 0.930 . S
C683 C682 1.394 . S
C683 C684 1.383 . S
C683 H691 0.929 . S
C684 C683 1.383 . S
C684 C685 1.377 . S
C685 H669 0.930 . S
C685 C684 1.377 . S
C685 C686 1.379 . S
C686 H670 0.931 . S
C686 C680 1.383 . S
C686 C685 1.379 . S
H687 C681 0.959 . S
H688 C681 0.961 . S
H689 C681 0.960 . S
H690 C682 0.930 . S
H691 C683 0.929 . S
H692 C700 0.929 . S
H693 C702 0.930 . S
H694 C704 0.930 . S
H695 C707 0.929 . S
H696 C710 0.930 . S
H697 C712 0.960 . S
H698 C712 0.960 . S
H699 C712 0.960 . S
C700 H692 0.929 . S
C700 C701 1.377 . S
C700 C702 1.384 . S
C701 C700 1.377 . S
C701 C707 1.390 . S
C702 H693 0.930 . S
C702 C700 1.384 . S
C702 C703 1.372 . S
C703 C702 1.372 . S
C703 C704 1.400 . S
C703 C708 1.490 . S
C704 H694 0.930 . S
C704 C703 1.400 . S
C704 C707 1.386 . S
H705 C721 0.930 . S
H706 C722 0.931 . S
C707 H695 0.929 . S
C707 C701 1.390 . S
C707 C704 1.386 . S
C708 C703 1.490 . S
C708 C710 1.395 . S
C708 C711 1.403 . S
H709 C715 0.930 . S
C710 H696 0.930 . S
C710 C708 1.395 . S
C710 C713 1.403 . S
C711 C708 1.403 . S
C711 C712 1.524 . S
C711 C715 1.400 . S
C712 H697 0.960 . S
C712 H698 0.960 . S
C712 H699 0.960 . S
C712 C711 1.524 . S
C713 C710 1.403 . S
C713 C714 1.392 . S
C713 C717 1.495 . S
C714 C713 1.392 . S
C714 C715 1.385 . S
C714 C716 1.478 . S
C715 H709 0.930 . S
C715 C711 1.400 . S
C715 C714 1.385 . S
C716 C714 1.478 . S
C716 C718 1.381 . S
C716 C722 1.383 . S
C717 C713 1.495 . S
C717 H723 0.959 . S
C717 H724 0.961 . S
C717 H725 0.960 . S
C718 C716 1.381 . S
C718 C719 1.394 . S
C718 H726 0.930 . S
C719 C718 1.394 . S
C719 C720 1.383 . S
C719 H727 0.929 . S
C720 C719 1.383 . S
C720 C721 1.377 . S
C721 H705 0.930 . S
C721 C720 1.377 . S
C721 C722 1.379 . S
C722 H706 0.931 . S
C722 C716 1.383 . S
C722 C721 1.379 . S
H723 C717 0.959 . S
H724 C717 0.961 . S
H725 C717 0.960 . S
H726 C718 0.930 . S
H727 C719 0.929 . S
H728 C736 0.929 . S
H729 C738 0.930 . S
H730 C740 0.930 . S
H731 C743 0.929 . S
H732 C746 0.930 . S
H733 C748 0.960 . S
H734 C748 0.960 . S
H735 C748 0.960 . S
C736 H728 0.929 . S
C736 C737 1.377 . S
C736 C738 1.384 . S
C737 C736 1.377 . S
C737 C743 1.390 . S
C738 H729 0.930 . S
C738 C736 1.384 . S
C738 C739 1.372 . S
C739 C738 1.372 . S
C739 C740 1.400 . S
C739 C744 1.490 . S
C740 H730 0.930 . S
C740 C739 1.400 . S
C740 C743 1.386 . S
H741 C757 0.930 . S
H742 C758 0.931 . S
C743 H731 0.929 . S
C743 C737 1.390 . S
C743 C740 1.386 . S
C744 C739 1.490 . S
C744 C746 1.395 . S
C744 C747 1.403 . S
H745 C751 0.930 . S
C746 H732 0.930 . S
C746 C744 1.395 . S
C746 C749 1.403 . S
C747 C744 1.403 . S
C747 C748 1.524 . S
C747 C751 1.400 . S
C748 H733 0.960 . S
C748 H734 0.960 . S
C748 H735 0.960 . S
C748 C747 1.524 . S
C749 C746 1.403 . S
C749 C750 1.392 . S
C749 C753 1.495 . S
C750 C749 1.392 . S
C750 C751 1.385 . S
C750 C752 1.478 . S
C751 H745 0.930 . S
C751 C747 1.400 . S
C751 C750 1.385 . S
C752 C750 1.478 . S
C752 C754 1.381 . S
C752 C758 1.383 . S
C753 C749 1.495 . S
C753 H759 0.959 . S
C753 H760 0.961 . S
C753 H761 0.960 . S
C754 C752 1.381 . S
C754 C755 1.394 . S
C754 H762 0.930 . S
C755 C754 1.394 . S
C755 C756 1.383 . S
C755 H763 0.929 . S
C756 C755 1.383 . S
C756 C757 1.377 . S
C757 H741 0.930 . S
C757 C756 1.377 . S
C757 C758 1.379 . S
C758 H742 0.931 . S
C758 C752 1.383 . S
C758 C757 1.379 . S
H759 C753 0.959 . S
H760 C753 0.961 . S
H761 C753 0.960 . S
H762 C754 0.930 . S
H763 C755 0.929 . S
H764 C772 0.929 . S
H765 C774 0.930 . S
H766 C776 0.930 . S
H767 C779 0.929 . S
H768 C782 0.930 . S
H769 C784 0.960 . S
H770 C784 0.960 . S
H771 C784 0.960 . S
C772 H764 0.929 . S
C772 C773 1.377 . S
C772 C774 1.384 . S
C773 C772 1.377 . S
C773 C779 1.390 . S
C774 H765 0.930 . S
C774 C772 1.384 . S
C774 C775 1.372 . S
C775 C774 1.372 . S
C775 C776 1.400 . S
C775 C780 1.490 . S
C776 H766 0.930 . S
C776 C775 1.400 . S
C776 C779 1.386 . S
H777 C793 0.930 . S
H778 C794 0.931 . S
C779 H767 0.929 . S
C779 C773 1.390 . S
C779 C776 1.386 . S
C780 C775 1.490 . S
C780 C782 1.395 . S
C780 C783 1.403 . S
H781 C787 0.930 . S
C782 H768 0.930 . S
C782 C780 1.395 . S
C782 C785 1.403 . S
C783 C780 1.403 . S
C783 C784 1.524 . S
C783 C787 1.400 . S
C784 H769 0.960 . S
C784 H770 0.960 . S
C784 H771 0.960 . S
C784 C783 1.524 . S
C785 C782 1.403 . S
C785 C786 1.392 . S
C785 C789 1.495 . S
C786 C785 1.392 . S
C786 C787 1.385 . S
C786 C788 1.478 . S
C787 H781 0.930 . S
C787 C783 1.400 . S
C787 C786 1.385 . S
C788 C786 1.478 . S
C788 C790 1.381 . S
C788 C794 1.383 . S
C789 C785 1.495 . S
C789 H795 0.959 . S
C789 H796 0.961 . S
C789 H797 0.960 . S
C790 C788 1.381 . S
C790 C791 1.394 . S
C790 H798 0.930 . S
C791 C790 1.394 . S
C791 C792 1.383 . S
C791 H799 0.929 . S
C792 C791 1.383 . S
C792 C793 1.377 . S
C793 H777 0.930 . S
C793 C792 1.377 . S
C793 C794 1.379 . S
C794 H778 0.931 . S
C794 C788 1.383 . S
C794 C793 1.379 . S
H795 C789 0.959 . S
H796 C789 0.961 . S
H797 C789 0.960 . S
H798 C790 0.930 . S
H799 C791 0.929 . S
H800 C808 0.929 . S
H801 C810 0.930 . S
H802 C812 0.930 . S
H803 C815 0.929 . S
H804 C818 0.930 . S
H805 C820 0.960 . S
H806 C820 0.960 . S
H807 C820 0.960 . S
C808 H800 0.929 . S
C808 C809 1.377 . S
C808 C810 1.384 . S
C809 C808 1.377 . S
C809 C815 1.390 . S
C810 H801 0.930 . S
C810 C808 1.384 . S
C810 C811 1.372 . S
C811 C810 1.372 . S
C811 C812 1.400 . S
C811 C816 1.490 . S
C812 H802 0.930 . S
C812 C811 1.400 . S
C812 C815 1.386 . S
H813 C829 0.930 . S
H814 C830 0.931 . S
C815 H803 0.929 . S
C815 C809 1.390 . S
C815 C812 1.386 . S
C816 C811 1.490 . S
C816 C818 1.395 . S
C816 C819 1.403 . S
H817 C823 0.930 . S
C818 H804 0.930 . S
C818 C816 1.395 . S
C818 C821 1.403 . S
C819 C816 1.403 . S
C819 C820 1.524 . S
C819 C823 1.400 . S
C820 H805 0.960 . S
C820 H806 0.960 . S
C820 H807 0.960 . S
C820 C819 1.524 . S
C821 C818 1.403 . S
C821 C822 1.392 . S
C821 C825 1.495 . S
C822 C821 1.392 . S
C822 C823 1.385 . S
C822 C824 1.478 . S
C823 H817 0.930 . S
C823 C819 1.400 . S
C823 C822 1.385 . S
C824 C822 1.478 . S
C824 C826 1.381 . S
C824 C830 1.383 . S
C825 C821 1.495 . S
C825 H831 0.959 . S
C825 H832 0.961 . S
C825 H833 0.960 . S
C826 C824 1.381 . S
C826 C827 1.394 . S
C826 H834 0.930 . S
C827 C826 1.394 . S
C827 C828 1.383 . S
C827 H835 0.929 . S
C828 C827 1.383 . S
C828 C829 1.377 . S
C829 H813 0.930 . S
C829 C828 1.377 . S
C829 C830 1.379 . S
C830 H814 0.931 . S
C830 C824 1.383 . S
C830 C829 1.379 . S
H831 C825 0.959 . S
H832 C825 0.961 . S
H833 C825 0.960 . S
H834 C826 0.930 . S
H835 C827 0.929 . S
H836 C844 0.929 . S
H837 C846 0.930 . S
H838 C848 0.930 . S
H839 C851 0.929 . S
H840 C854 0.930 . S
H841 C856 0.960 . S
H842 C856 0.960 . S
H843 C856 0.960 . S
C844 H836 0.929 . S
C844 C845 1.377 . S
C844 C846 1.384 . S
C845 C844 1.377 . S
C845 C851 1.390 . S
C846 H837 0.930 . S
C846 C844 1.384 . S
C846 C847 1.372 . S
C847 C846 1.372 . S
C847 C848 1.400 . S
C847 C852 1.490 . S
C848 H838 0.930 . S
C848 C847 1.400 . S
C848 C851 1.386 . S
H849 C865 0.930 . S
H850 C866 0.931 . S
C851 H839 0.929 . S
C851 C845 1.390 . S
C851 C848 1.386 . S
C852 C847 1.490 . S
C852 C854 1.395 . S
C852 C855 1.403 . S
H853 C859 0.930 . S
C854 H840 0.930 . S
C854 C852 1.395 . S
C854 C857 1.403 . S
C855 C852 1.403 . S
C855 C856 1.524 . S
C855 C859 1.400 . S
C856 H841 0.960 . S
C856 H842 0.960 . S
C856 H843 0.960 . S
C856 C855 1.524 . S
C857 C854 1.403 . S
C857 C858 1.392 . S
C857 C861 1.495 . S
C858 C857 1.392 . S
C858 C859 1.385 . S
C858 C860 1.478 . S
C859 H853 0.930 . S
C859 C855 1.400 . S
C859 C858 1.385 . S
C860 C858 1.478 . S
C860 C862 1.381 . S
C860 C866 1.383 . S
C861 C857 1.495 . S
C861 H867 0.959 . S
C861 H868 0.961 . S
C861 H869 0.960 . S
C862 C860 1.381 . S
C862 C863 1.394 . S
C862 H870 0.930 . S
C863 C862 1.394 . S
C863 C864 1.383 . S
C863 H871 0.929 . S
C864 C863 1.383 . S
C864 C865 1.377 . S
C865 H849 0.930 . S
C865 C864 1.377 . S
C865 C866 1.379 . S
C866 H850 0.931 . S
C866 C860 1.383 . S
C866 C865 1.379 . S
H867 C861 0.959 . S
H868 C861 0.961 . S
H869 C861 0.960 . S
H870 C862 0.930 . S
H871 C863 0.929 . S
H872 C880 0.929 . S
H873 C882 0.930 . S
H874 C884 0.930 . S
H875 C887 0.929 . S
H876 C890 0.930 . S
H877 C892 0.960 . S
H878 C892 0.960 . S
H879 C892 0.960 . S
C880 H872 0.929 . S
C880 C881 1.377 . S
C880 C882 1.384 . S
C881 C880 1.377 . S
C881 C887 1.390 . S
C882 H873 0.930 . S
C882 C880 1.384 . S
C882 C883 1.372 . S
C883 C882 1.372 . S
C883 C884 1.400 . S
C883 C888 1.490 . S
C884 H874 0.930 . S
C884 C883 1.400 . S
C884 C887 1.386 . S
H885 C901 0.930 . S
H886 C902 0.931 . S
C887 H875 0.929 . S
C887 C881 1.390 . S
C887 C884 1.386 . S
C888 C883 1.490 . S
C888 C890 1.395 . S
C888 C891 1.403 . S
H889 C895 0.930 . S
C890 H876 0.930 . S
C890 C888 1.395 . S
C890 C893 1.403 . S
C891 C888 1.403 . S
C891 C892 1.524 . S
C891 C895 1.400 . S
C892 H877 0.960 . S
C892 H878 0.960 . S
C892 H879 0.960 . S
C892 C891 1.524 . S
C893 C890 1.403 . S
C893 C894 1.392 . S
C893 C897 1.495 . S
C894 C893 1.392 . S
C894 C895 1.385 . S
C894 C896 1.478 . S
C895 H889 0.930 . S
C895 C891 1.400 . S
C895 C894 1.385 . S
C896 C894 1.478 . S
C896 C898 1.381 . S
C896 C902 1.383 . S
C897 C893 1.495 . S
C897 H903 0.959 . S
C897 H904 0.961 . S
C897 H905 0.960 . S
C898 C896 1.381 . S
C898 C899 1.394 . S
C898 H906 0.930 . S
C899 C898 1.394 . S
C899 C900 1.383 . S
C899 H907 0.929 . S
C900 C899 1.383 . S
C900 C901 1.377 . S
C901 H885 0.930 . S
C901 C900 1.377 . S
C901 C902 1.379 . S
C902 H886 0.931 . S
C902 C896 1.383 . S
C902 C901 1.379 . S
H903 C897 0.959 . S
H904 C897 0.961 . S
H905 C897 0.960 . S
H906 C898 0.930 . S
H907 C899 0.929 . S
H908 C916 0.929 . S
H909 C918 0.930 . S
H910 C920 0.930 . S
H911 C923 0.929 . S
H912 C926 0.930 . S
H913 C928 0.960 . S
H914 C928 0.960 . S
H915 C928 0.960 . S
C916 H908 0.929 . S
C916 C917 1.377 . S
C916 C918 1.384 . S
C917 C916 1.377 . S
C917 C923 1.390 . S
C918 H909 0.930 . S
C918 C916 1.384 . S
C918 C919 1.372 . S
C919 C918 1.372 . S
C919 C920 1.400 . S
C919 C924 1.490 . S
C920 H910 0.930 . S
C920 C919 1.400 . S
C920 C923 1.386 . S
H921 C937 0.930 . S
H922 C938 0.931 . S
C923 H911 0.929 . S
C923 C917 1.390 . S
C923 C920 1.386 . S
C924 C919 1.490 . S
C924 C926 1.395 . S
C924 C927 1.403 . S
H925 C931 0.930 . S
C926 H912 0.930 . S
C926 C924 1.395 . S
C926 C929 1.403 . S
C927 C924 1.403 . S
C927 C928 1.524 . S
C927 C931 1.400 . S
C928 H913 0.960 . S
C928 H914 0.960 . S
C928 H915 0.960 . S
C928 C927 1.524 . S
C929 C926 1.403 . S
C929 C930 1.392 . S
C929 C933 1.495 . S
C930 C929 1.392 . S
C930 C931 1.385 . S
C930 C932 1.478 . S
C931 H925 0.930 . S
C931 C927 1.400 . S
C931 C930 1.385 . S
C932 C930 1.478 . S
C932 C934 1.381 . S
C932 C938 1.383 . S
C933 C929 1.495 . S
C933 H939 0.959 . S
C933 H940 0.961 . S
C933 H941 0.960 . S
C934 C932 1.381 . S
C934 C935 1.394 . S
C934 H942 0.930 . S
C935 C934 1.394 . S
C935 C936 1.383 . S
C935 H943 0.929 . S
C936 C935 1.383 . S
C936 C937 1.377 . S
C937 H921 0.930 . S
C937 C936 1.377 . S
C937 C938 1.379 . S
C938 H922 0.931 . S
C938 C932 1.383 . S
C938 C937 1.379 . S
H939 C933 0.959 . S
H940 C933 0.961 . S
H941 C933 0.960 . S
H942 C934 0.930 . S
H943 C935 0.929 . S
H944 C952 0.929 . S
H945 C954 0.930 . S
H946 C956 0.930 . S
H947 C959 0.929 . S
H948 C962 0.930 . S
H949 C964 0.960 . S
H950 C964 0.960 . S
H951 C964 0.960 . S
C952 H944 0.929 . S
C952 C953 1.377 . S
C952 C954 1.384 . S
C953 C952 1.377 . S
C953 C959 1.390 . S
C954 H945 0.930 . S
C954 C952 1.384 . S
C954 C955 1.372 . S
C955 C954 1.372 . S
C955 C956 1.400 . S
C955 C960 1.490 . S
C956 H946 0.930 . S
C956 C955 1.400 . S
C956 C959 1.386 . S
H957 C973 0.930 . S
H958 C974 0.931 . S
C959 H947 0.929 . S
C959 C953 1.390 . S
C959 C956 1.386 . S
C960 C955 1.490 . S
C960 C962 1.395 . S
C960 C963 1.403 . S
H961 C967 0.930 . S
C962 H948 0.930 . S
C962 C960 1.395 . S
C962 C965 1.403 . S
C963 C960 1.403 . S
C963 C964 1.524 . S
C963 C967 1.400 . S
C964 H949 0.960 . S
C964 H950 0.960 . S
C964 H951 0.960 . S
C964 C963 1.524 . S
C965 C962 1.403 . S
C965 C966 1.392 . S
C965 C969 1.495 . S
C966 C965 1.392 . S
C966 C967 1.385 . S
C966 C968 1.478 . S
C967 H961 0.930 . S
C967 C963 1.400 . S
C967 C966 1.385 . S
C968 C966 1.478 . S
C968 C970 1.381 . S
C968 C974 1.383 . S
C969 C965 1.495 . S
C969 H975 0.959 . S
C969 H976 0.961 . S
C969 H977 0.960 . S
C970 C968 1.381 . S
C970 C971 1.394 . S
C970 H978 0.930 . S
C971 C970 1.394 . S
C971 C972 1.383 . S
C971 H979 0.929 . S
C972 C971 1.383 . S
C972 C973 1.377 . S
C973 H957 0.930 . S
C973 C972 1.377 . S
C973 C974 1.379 . S
C974 H958 0.931 . S
C974 C968 1.383 . S
C974 C973 1.379 . S
H975 C969 0.959 . S
H976 C969 0.961 . S
H977 C969 0.960 . S
H978 C970 0.930 . S
H979 C971 0.929 . S
H980 C988 0.929 . S
H981 C990 0.930 . S
H982 C992 0.930 . S
H983 C995 0.929 . S
H984 C998 0.930 . S
H985 C1000 0.960 . S
H986 C1000 0.960 . S
H987 C1000 0.960 . S
C988 H980 0.929 . S
C988 C989 1.377 . S
C988 C990 1.384 . S
C989 C988 1.377 . S
C989 C995 1.390 . S
C990 H981 0.930 . S
C990 C988 1.384 . S
C990 C991 1.372 . S
C991 C990 1.372 . S
C991 C992 1.400 . S
C991 C996 1.490 . S
C992 H982 0.930 . S
C992 C991 1.400 . S
C992 C995 1.386 . S
H993 C1009 0.930 . S
H994 C1010 0.931 . S
C995 H983 0.929 . S
C995 C989 1.390 . S
C995 C992 1.386 . S
C996 C991 1.490 . S
C996 C998 1.395 . S
C996 C999 1.403 . S
H997 C1003 0.930 . S
C998 H984 0.930 . S
C998 C996 1.395 . S
C998 C1001 1.403 . S
C999 C996 1.403 . S
C999 C1000 1.524 . S
C999 C1003 1.400 . S
C1000 H985 0.960 . S
C1000 H986 0.960 . S
C1000 H987 0.960 . S
C1000 C999 1.524 . S
C1001 C998 1.403 . S
C1001 C1002 1.392 . S
C1001 C1005 1.495 . S
C1002 C1001 1.392 . S
C1002 C1003 1.385 . S
C1002 C1004 1.478 . S
C1003 H997 0.930 . S
C1003 C999 1.400 . S
C1003 C1002 1.385 . S
C1004 C1002 1.478 . S
C1004 C1006 1.381 . S
C1004 C1010 1.383 . S
C1005 C1001 1.495 . S
C1005 H1011 0.959 . S
C1005 H1012 0.961 . S
C1005 H1013 0.960 . S
C1006 C1004 1.381 . S
C1006 C1007 1.394 . S
C1006 H1014 0.930 . S
C1007 C1006 1.394 . S
C1007 C1008 1.383 . S
C1007 H1015 0.929 . S
C1008 C1007 1.383 . S
C1008 C1009 1.377 . S
C1009 H993 0.930 . S
C1009 C1008 1.377 . S
C1009 C1010 1.379 . S
C1010 H994 0.931 . S
C1010 C1004 1.383 . S
C1010 C1009 1.379 . S
H1011 C1005 0.959 . S
H1012 C1005 0.961 . S
H1013 C1005 0.960 . S
H1014 C1006 0.930 . S
H1015 C1007 0.929 . S
H1016 C1024 0.929 . S
H1017 C1026 0.930 . S
H1018 C1028 0.930 . S
H1019 C1031 0.929 . S
H1020 C1034 0.930 . S
H1021 C1036 0.960 . S
H1022 C1036 0.960 . S
H1023 C1036 0.960 . S
C1024 H1016 0.929 . S
C1024 C1025 1.377 . S
C1024 C1026 1.384 . S
C1025 C1024 1.377 . S
C1025 C1031 1.390 . S
C1026 H1017 0.930 . S
C1026 C1024 1.384 . S
C1026 C1027 1.372 . S
C1027 C1026 1.372 . S
C1027 C1028 1.400 . S
C1027 C1032 1.490 . S
C1028 H1018 0.930 . S
C1028 C1027 1.400 . S
C1028 C1031 1.386 . S
H1029 C1045 0.930 . S
H1030 C1046 0.931 . S
C1031 H1019 0.929 . S
C1031 C1025 1.390 . S
C1031 C1028 1.386 . S
C1032 C1027 1.490 . S
C1032 C1034 1.395 . S
C1032 C1035 1.403 . S
H1033 C1039 0.930 . S
C1034 H1020 0.930 . S
C1034 C1032 1.395 . S
C1034 C1037 1.403 . S
C1035 C1032 1.403 . S
C1035 C1036 1.524 . S
C1035 C1039 1.400 . S
C1036 H1021 0.960 . S
C1036 H1022 0.960 . S
C1036 H1023 0.960 . S
C1036 C1035 1.524 . S
C1037 C1034 1.403 . S
C1037 C1038 1.392 . S
C1037 C1041 1.495 . S
C1038 C1037 1.392 . S
C1038 C1039 1.385 . S
C1038 C1040 1.478 . S
C1039 H1033 0.930 . S
C1039 C1035 1.400 . S
C1039 C1038 1.385 . S
C1040 C1038 1.478 . S
C1040 C1042 1.381 . S
C1040 C1046 1.383 . S
C1041 C1037 1.495 . S
C1041 H1047 0.959 . S
C1041 H1048 0.961 . S
C1041 H1049 0.960 . S
C1042 C1040 1.381 . S
C1042 C1043 1.394 . S
C1042 H1050 0.930 . S
C1043 C1042 1.394 . S
C1043 C1044 1.383 . S
C1043 H1051 0.929 . S
C1044 C1043 1.383 . S
C1044 C1045 1.377 . S
C1045 H1029 0.930 . S
C1045 C1044 1.377 . S
C1045 C1046 1.379 . S
C1046 H1030 0.931 . S
C1046 C1040 1.383 . S
C1046 C1045 1.379 . S
H1047 C1041 0.959 . S
H1048 C1041 0.961 . S
H1049 C1041 0.960 . S
H1050 C1042 0.930 . S
H1051 C1043 0.929 . S
H1052 C1060 0.929 . S
H1053 C1062 0.930 . S
H1054 C1064 0.930 . S
H1055 C1067 0.929 . S
H1056 C1070 0.930 . S
H1057 C1072 0.960 . S
H1058 C1072 0.960 . S
H1059 C1072 0.960 . S
C1060 H1052 0.929 . S
C1060 C1061 1.377 . S
C1060 C1062 1.384 . S
C1061 C1060 1.377 . S
C1061 C1067 1.390 . S
C1062 H1053 0.930 . S
C1062 C1060 1.384 . S
C1062 C1063 1.372 . S
C1063 C1062 1.372 . S
C1063 C1064 1.400 . S
C1063 C1068 1.490 . S
C1064 H1054 0.930 . S
C1064 C1063 1.400 . S
C1064 C1067 1.386 . S
H1065 C1081 0.930 . S
H1066 C1082 0.931 . S
C1067 H1055 0.929 . S
C1067 C1061 1.390 . S
C1067 C1064 1.386 . S
C1068 C1063 1.490 . S
C1068 C1070 1.395 . S
C1068 C1071 1.403 . S
H1069 C1075 0.930 . S
C1070 H1056 0.930 . S
C1070 C1068 1.395 . S
C1070 C1073 1.403 . S
C1071 C1068 1.403 . S
C1071 C1072 1.524 . S
C1071 C1075 1.400 . S
C1072 H1057 0.960 . S
C1072 H1058 0.960 . S
C1072 H1059 0.960 . S
C1072 C1071 1.524 . S
C1073 C1070 1.403 . S
C1073 C1074 1.392 . S
C1073 C1077 1.495 . S
C1074 C1073 1.392 . S
C1074 C1075 1.385 . S
C1074 C1076 1.478 . S
C1075 H1069 0.930 . S
C1075 C1071 1.400 . S
C1075 C1074 1.385 . S
C1076 C1074 1.478 . S
C1076 C1078 1.381 . S
C1076 C1082 1.383 . S
C1077 C1073 1.495 . S
C1077 H1083 0.959 . S
C1077 H1084 0.961 . S
C1077 H1085 0.960 . S
C1078 C1076 1.381 . S
C1078 C1079 1.394 . S
C1078 H1086 0.930 . S
C1079 C1078 1.394 . S
C1079 C1080 1.383 . S
C1079 H1087 0.929 . S
C1080 C1079 1.383 . S
C1080 C1081 1.377 . S
C1081 H1065 0.930 . S
C1081 C1080 1.377 . S
C1081 C1082 1.379 . S
C1082 H1066 0.931 . S
C1082 C1076 1.383 . S
C1082 C1081 1.379 . S
H1083 C1077 0.959 . S
H1084 C1077 0.961 . S
H1085 C1077 0.960 . S
H1086 C1078 0.930 . S
H1087 C1079 0.929 . S
H1088 C1096 0.929 . S
H1089 C1098 0.930 . S
H1090 C1100 0.930 . S
H1091 C1103 0.929 . S
H1092 C1106 0.930 . S
H1093 C1108 0.960 . S
H1094 C1108 0.960 . S
H1095 C1108 0.960 . S
C1096 H1088 0.929 . S
C1096 C1097 1.377 . S
C1096 C1098 1.384 . S
C1097 C1096 1.377 . S
C1097 C1103 1.390 . S
C1098 H1089 0.930 . S
C1098 C1096 1.384 . S
C1098 C1099 1.372 . S
C1099 C1098 1.372 . S
C1099 C1100 1.400 . S
C1099 C1104 1.490 . S
C1100 H1090 0.930 . S
C1100 C1099 1.400 . S
C1100 C1103 1.386 . S
H1101 C1117 0.930 . S
H1102 C1118 0.931 . S
C1103 H1091 0.929 . S
C1103 C1097 1.390 . S
C1103 C1100 1.386 . S
C1104 C1099 1.490 . S
C1104 C1106 1.395 . S
C1104 C1107 1.403 . S
H1105 C1111 0.930 . S
C1106 H1092 0.930 . S
C1106 C1104 1.395 . S
C1106 C1109 1.403 . S
C1107 C1104 1.403 . S
C1107 C1108 1.524 . S
C1107 C1111 1.400 . S
C1108 H1093 0.960 . S
C1108 H1094 0.960 . S
C1108 H1095 0.960 . S
C1108 C1107 1.524 . S
C1109 C1106 1.403 . S
C1109 C1110 1.392 . S
C1109 C1113 1.495 . S
C1110 C1109 1.392 . S
C1110 C1111 1.385 . S
C1110 C1112 1.478 . S
C1111 H1105 0.930 . S
C1111 C1107 1.400 . S
C1111 C1110 1.385 . S
C1112 C1110 1.478 . S
C1112 C1114 1.381 . S
C1112 C1118 1.383 . S
C1113 C1109 1.495 . S
C1113 H1119 0.959 . S
C1113 H1120 0.961 . S
C1113 H1121 0.960 . S
C1114 C1112 1.381 . S
C1114 C1115 1.394 . S
C1114 H1122 0.930 . S
C1115 C1114 1.394 . S
C1115 C1116 1.383 . S
C1115 H1123 0.929 . S
C1116 C1115 1.383 . S
C1116 C1117 1.377 . S
C1117 H1101 0.930 . S
C1117 C1116 1.377 . S
C1117 C1118 1.379 . S
C1118 H1102 0.931 . S
C1118 C1112 1.383 . S
C1118 C1117 1.379 . S
H1119 C1113 0.959 . S
H1120 C1113 0.961 . S
H1121 C1113 0.960 . S
H1122 C1114 0.930 . S
H1123 C1115 0.929 . S
H1124 C1132 0.929 . S
H1125 C1134 0.930 . S
H1126 C1136 0.930 . S
H1127 C1139 0.929 . S
H1128 C1142 0.930 . S
H1129 C1144 0.960 . S
H1130 C1144 0.960 . S
H1131 C1144 0.960 . S
C1132 H1124 0.929 . S
C1132 C1133 1.377 . S
C1132 C1134 1.384 . S
C1133 C1132 1.377 . S
C1133 C1139 1.390 . S
C1134 H1125 0.930 . S
C1134 C1132 1.384 . S
C1134 C1135 1.372 . S
C1135 C1134 1.372 . S
C1135 C1136 1.400 . S
C1135 C1140 1.490 . S
C1136 H1126 0.930 . S
C1136 C1135 1.400 . S
C1136 C1139 1.386 . S
H1137 C1153 0.930 . S
H1138 C1154 0.931 . S
C1139 H1127 0.929 . S
C1139 C1133 1.390 . S
C1139 C1136 1.386 . S
C1140 C1135 1.490 . S
C1140 C1142 1.395 . S
C1140 C1143 1.403 . S
H1141 C1147 0.930 . S
C1142 H1128 0.930 . S
C1142 C1140 1.395 . S
C1142 C1145 1.403 . S
C1143 C1140 1.403 . S
C1143 C1144 1.524 . S
C1143 C1147 1.400 . S
C1144 H1129 0.960 . S
C1144 H1130 0.960 . S
C1144 H1131 0.960 . S
C1144 C1143 1.524 . S
C1145 C1142 1.403 . S
C1145 C1146 1.392 . S
C1145 C1149 1.495 . S
C1146 C1145 1.392 . S
C1146 C1147 1.385 . S
C1146 C1148 1.478 . S
C1147 H1141 0.930 . S
C1147 C1143 1.400 . S
C1147 C1146 1.385 . S
C1148 C1146 1.478 . S
C1148 C1150 1.381 . S
C1148 C1154 1.383 . S
C1149 C1145 1.495 . S
C1149 H1155 0.959 . S
C1149 H1156 0.961 . S
C1149 H1157 0.960 . S
C1150 C1148 1.381 . S
C1150 C1151 1.394 . S
C1150 H1158 0.930 . S
C1151 C1150 1.394 . S
C1151 C1152 1.383 . S
C1151 H1159 0.929 . S
C1152 C1151 1.383 . S
C1152 C1153 1.377 . S
C1153 H1137 0.930 . S
C1153 C1152 1.377 . S
C1153 C1154 1.379 . S
C1154 H1138 0.931 . S
C1154 C1148 1.383 . S
C1154 C1153 1.379 . S
H1155 C1149 0.959 . S
H1156 C1149 0.961 . S
H1157 C1149 0.960 . S
H1158 C1150 0.930 . S
H1159 C1151 0.929 . S
H1160 C1168 0.929 . S
H1161 C1170 0.930 . S
H1162 C1172 0.930 . S
H1163 C1175 0.929 . S
H1164 C1178 0.930 . S
H1165 C1180 0.960 . S
H1166 C1180 0.960 . S
H1167 C1180 0.960 . S
C1168 H1160 0.929 . S
C1168 C1169 1.377 . S
C1168 C1170 1.384 . S
C1169 C1168 1.377 . S
C1169 C1175 1.390 . S
C1170 H1161 0.930 . S
C1170 C1168 1.384 . S
C1170 C1171 1.372 . S
C1171 C1170 1.372 . S
C1171 C1172 1.400 . S
C1171 C1176 1.490 . S
C1172 H1162 0.930 . S
C1172 C1171 1.400 . S
C1172 C1175 1.386 . S
H1173 C1189 0.930 . S
H1174 C1190 0.931 . S
C1175 H1163 0.929 . S
C1175 C1169 1.390 . S
C1175 C1172 1.386 . S
C1176 C1171 1.490 . S
C1176 C1178 1.395 . S
C1176 C1179 1.403 . S
H1177 C1183 0.930 . S
C1178 H1164 0.930 . S
C1178 C1176 1.395 . S
C1178 C1181 1.403 . S
C1179 C1176 1.403 . S
C1179 C1180 1.524 . S
C1179 C1183 1.400 . S
C1180 H1165 0.960 . S
C1180 H1166 0.960 . S
C1180 H1167 0.960 . S
C1180 C1179 1.524 . S
C1181 C1178 1.403 . S
C1181 C1182 1.392 . S
C1181 C1185 1.495 . S
C1182 C1181 1.392 . S
C1182 C1183 1.385 . S
C1182 C1184 1.478 . S
C1183 H1177 0.930 . S
C1183 C1179 1.400 . S
C1183 C1182 1.385 . S
C1184 C1182 1.478 . S
C1184 C1186 1.381 . S
C1184 C1190 1.383 . S
C1185 C1181 1.495 . S
C1185 H1191 0.959 . S
C1185 H1192 0.961 . S
C1185 H1193 0.960 . S
C1186 C1184 1.381 . S
C1186 C1187 1.394 . S
C1186 H1194 0.930 . S
C1187 C1186 1.394 . S
C1187 C1188 1.383 . S
C1187 H1195 0.929 . S
C1188 C1187 1.383 . S
C1188 C1189 1.377 . S
C1189 H1173 0.930 . S
C1189 C1188 1.377 . S
C1189 C1190 1.379 . S
C1190 H1174 0.931 . S
C1190 C1184 1.383 . S
C1190 C1189 1.379 . S
H1191 C1185 0.959 . S
H1192 C1185 0.961 . S
H1193 C1185 0.960 . S
H1194 C1186 0.930 . S
H1195 C1187 0.929 . S
H1196 C1204 0.929 . S
H1197 C1206 0.930 . S
H1198 C1208 0.930 . S
H1199 C1211 0.929 . S
H1200 C1214 0.930 . S
H1201 C1216 0.960 . S
H1202 C1216 0.960 . S
H1203 C1216 0.960 . S
C1204 H1196 0.929 . S
C1204 C1205 1.377 . S
C1204 C1206 1.384 . S
C1205 C1204 1.377 . S
C1205 C1211 1.390 . S
C1206 H1197 0.930 . S
C1206 C1204 1.384 . S
C1206 C1207 1.372 . S
C1207 C1206 1.372 . S
C1207 C1208 1.400 . S
C1207 C1212 1.490 . S
C1208 H1198 0.930 . S
C1208 C1207 1.400 . S
C1208 C1211 1.386 . S
H1209 C1225 0.930 . S
H1210 C1226 0.931 . S
C1211 H1199 0.929 . S
C1211 C1205 1.390 . S
C1211 C1208 1.386 . S
C1212 C1207 1.490 . S
C1212 C1214 1.395 . S
C1212 C1215 1.403 . S
H1213 C1219 0.930 . S
C1214 H1200 0.930 . S
C1214 C1212 1.395 . S
C1214 C1217 1.403 . S
C1215 C1212 1.403 . S
C1215 C1216 1.524 . S
C1215 C1219 1.400 . S
C1216 H1201 0.960 . S
C1216 H1202 0.960 . S
C1216 H1203 0.960 . S
C1216 C1215 1.524 . S
C1217 C1214 1.403 . S
C1217 C1218 1.392 . S
C1217 C1221 1.495 . S
C1218 C1217 1.392 . S
C1218 C1219 1.385 . S
C1218 C1220 1.478 . S
C1219 H1213 0.930 . S
C1219 C1215 1.400 . S
C1219 C1218 1.385 . S
C1220 C1218 1.478 . S
C1220 C1222 1.381 . S
C1220 C1226 1.383 . S
C1221 C1217 1.495 . S
C1221 H1227 0.959 . S
C1221 H1228 0.961 . S
C1221 H1229 0.960 . S
C1222 C1220 1.381 . S
C1222 C1223 1.394 . S
C1222 H1230 0.930 . S
C1223 C1222 1.394 . S
C1223 C1224 1.383 . S
C1223 H1231 0.929 . S
C1224 C1223 1.383 . S
C1224 C1225 1.377 . S
C1225 H1209 0.930 . S
C1225 C1224 1.377 . S
C1225 C1226 1.379 . S
C1226 H1210 0.931 . S
C1226 C1220 1.383 . S
C1226 C1225 1.379 . S
H1227 C1221 0.959 . S
H1228 C1221 0.961 . S
H1229 C1221 0.960 . S
H1230 C1222 0.930 . S
H1231 C1223 0.929 . S
H1232 C1240 0.929 . S
H1233 C1242 0.930 . S
H1234 C1244 0.930 . S
H1235 C1247 0.929 . S
H1236 C1250 0.930 . S
H1237 C1252 0.960 . S
H1238 C1252 0.960 . S
H1239 C1252 0.960 . S
C1240 H1232 0.929 . S
C1240 C1241 1.377 . S
C1240 C1242 1.384 . S
C1241 C1240 1.377 . S
C1241 C1247 1.390 . S
C1242 H1233 0.930 . S
C1242 C1240 1.384 . S
C1242 C1243 1.372 . S
C1243 C1242 1.372 . S
C1243 C1244 1.400 . S
C1243 C1248 1.490 . S
C1244 H1234 0.930 . S
C1244 C1243 1.400 . S
C1244 C1247 1.386 . S
H1245 C1261 0.930 . S
H1246 C1262 0.931 . S
C1247 H1235 0.929 . S
C1247 C1241 1.390 . S
C1247 C1244 1.386 . S
C1248 C1243 1.490 . S
C1248 C1250 1.395 . S
C1248 C1251 1.403 . S
H1249 C1255 0.930 . S
C1250 H1236 0.930 . S
C1250 C1248 1.395 . S
C1250 C1253 1.403 . S
C1251 C1248 1.403 . S
C1251 C1252 1.524 . S
C1251 C1255 1.400 . S
C1252 H1237 0.960 . S
C1252 H1238 0.960 . S
C1252 H1239 0.960 . S
C1252 C1251 1.524 . S
C1253 C1250 1.403 . S
C1253 C1254 1.392 . S
C1253 C1257 1.495 . S
C1254 C1253 1.392 . S
C1254 C1255 1.385 . S
C1254 C1256 1.478 . S
C1255 H1249 0.930 . S
C1255 C1251 1.400 . S
C1255 C1254 1.385 . S
C1256 C1254 1.478 . S
C1256 C1258 1.381 . S
C1256 C1262 1.383 . S
C1257 C1253 1.495 . S
C1257 H1263 0.959 . S
C1257 H1264 0.961 . S
C1257 H1265 0.960 . S
C1258 C1256 1.381 . S
C1258 C1259 1.394 . S
C1258 H1266 0.930 . S
C1259 C1258 1.394 . S
C1259 C1260 1.383 . S
C1259 H1267 0.929 . S
C1260 C1259 1.383 . S
C1260 C1261 1.377 . S
C1261 H1245 0.930 . S
C1261 C1260 1.377 . S
C1261 C1262 1.379 . S
C1262 H1246 0.931 . S
C1262 C1256 1.383 . S
C1262 C1261 1.379 . S
H1263 C1257 0.959 . S
H1264 C1257 0.961 . S
H1265 C1257 0.960 . S
H1266 C1258 0.930 . S
H1267 C1259 0.929 . S
H1268 C1276 0.929 . S
H1269 C1278 0.930 . S
H1270 C1280 0.930 . S
H1271 C1283 0.929 . S
H1272 C1286 0.930 . S
H1273 C1288 0.960 . S
H1274 C1288 0.960 . S
H1275 C1288 0.960 . S
C1276 H1268 0.929 . S
C1276 C1277 1.377 . S
C1276 C1278 1.384 . S
C1277 C1276 1.377 . S
C1277 C1283 1.390 . S
C1278 H1269 0.930 . S
C1278 C1276 1.384 . S
C1278 C1279 1.372 . S
C1279 C1278 1.372 . S
C1279 C1280 1.400 . S
C1279 C1284 1.490 . S
C1280 H1270 0.930 . S
C1280 C1279 1.400 . S
C1280 C1283 1.386 . S
H1281 C1297 0.930 . S
H1282 C1298 0.931 . S
C1283 H1271 0.929 . S
C1283 C1277 1.390 . S
C1283 C1280 1.386 . S
C1284 C1279 1.490 . S
C1284 C1286 1.395 . S
C1284 C1287 1.403 . S
H1285 C1291 0.930 . S
C1286 H1272 0.930 . S
C1286 C1284 1.395 . S
C1286 C1289 1.403 . S
C1287 C1284 1.403 . S
C1287 C1288 1.524 . S
C1287 C1291 1.400 . S
C1288 H1273 0.960 . S
C1288 H1274 0.960 . S
C1288 H1275 0.960 . S
C1288 C1287 1.524 . S
C1289 C1286 1.403 . S
C1289 C1290 1.392 . S
C1289 C1293 1.495 . S
C1290 C1289 1.392 . S
C1290 C1291 1.385 . S
C1290 C1292 1.478 . S
C1291 H1285 0.930 . S
C1291 C1287 1.400 . S
C1291 C1290 1.385 . S
C1292 C1290 1.478 . S
C1292 C1294 1.381 . S
C1292 C1298 1.383 . S
C1293 C1289 1.495 . S
C1293 H1299 0.959 . S
C1293 H1300 0.961 . S
C1293 H1301 0.960 . S
C1294 C1292 1.381 . S
C1294 C1295 1.394 . S
C1294 H1302 0.930 . S
C1295 C1294 1.394 . S
C1295 C1296 1.383 . S
C1295 H1303 0.929 . S
C1296 C1295 1.383 . S
C1296 C1297 1.377 . S
C1297 H1281 0.930 . S
C1297 C1296 1.377 . S
C1297 C1298 1.379 . S
C1298 H1282 0.931 . S
C1298 C1292 1.383 . S
C1298 C1297 1.379 . S
H1299 C1293 0.959 . S
H1300 C1293 0.961 . S
H1301 C1293 0.960 . S
H1302 C1294 0.930 . S
H1303 C1295 0.929 . S
H1304 C1312 0.929 . S
H1305 C1314 0.930 . S
H1306 C1316 0.930 . S
H1307 C1319 0.929 . S
H1308 C1322 0.930 . S
H1309 C1324 0.960 . S
H1310 C1324 0.960 . S
H1311 C1324 0.960 . S
C1312 H1304 0.929 . S
C1312 C1313 1.377 . S
C1312 C1314 1.384 . S
C1313 C1312 1.377 . S
C1313 C1319 1.390 . S
C1314 H1305 0.930 . S
C1314 C1312 1.384 . S
C1314 C1315 1.372 . S
C1315 C1314 1.372 . S
C1315 C1316 1.400 . S
C1315 C1320 1.490 . S
C1316 H1306 0.930 . S
C1316 C1315 1.400 . S
C1316 C1319 1.386 . S
H1317 C1333 0.930 . S
H1318 C1334 0.931 . S
C1319 H1307 0.929 . S
C1319 C1313 1.390 . S
C1319 C1316 1.386 . S
C1320 C1315 1.490 . S
C1320 C1322 1.395 . S
C1320 C1323 1.403 . S
H1321 C1327 0.930 . S
C1322 H1308 0.930 . S
C1322 C1320 1.395 . S
C1322 C1325 1.403 . S
C1323 C1320 1.403 . S
C1323 C1324 1.524 . S
C1323 C1327 1.400 . S
C1324 H1309 0.960 . S
C1324 H1310 0.960 . S
C1324 H1311 0.960 . S
C1324 C1323 1.524 . S
C1325 C1322 1.403 . S
C1325 C1326 1.392 . S
C1325 C1329 1.495 . S
C1326 C1325 1.392 . S
C1326 C1327 1.385 . S
C1326 C1328 1.478 . S
C1327 H1321 0.930 . S
C1327 C1323 1.400 . S
C1327 C1326 1.385 . S
C1328 C1326 1.478 . S
C1328 C1330 1.381 . S
C1328 C1334 1.383 . S
C1329 C1325 1.495 . S
C1329 H1335 0.959 . S
C1329 H1336 0.961 . S
C1329 H1337 0.960 . S
C1330 C1328 1.381 . S
C1330 C1331 1.394 . S
C1330 H1338 0.930 . S
C1331 C1330 1.394 . S
C1331 C1332 1.383 . S
C1331 H1339 0.929 . S
C1332 C1331 1.383 . S
C1332 C1333 1.377 . S
C1333 H1317 0.930 . S
C1333 C1332 1.377 . S
C1333 C1334 1.379 . S
C1334 H1318 0.931 . S
C1334 C1328 1.383 . S
C1334 C1333 1.379 . S
H1335 C1329 0.959 . S
H1336 C1329 0.961 . S
H1337 C1329 0.960 . S
H1338 C1330 0.930 . S
H1339 C1331 0.929 . S
H1340 C1348 0.929 . S
H1341 C1350 0.930 . S
H1342 C1352 0.930 . S
H1343 C1355 0.929 . S
H1344 C1358 0.930 . S
H1345 C1360 0.960 . S
H1346 C1360 0.960 . S
H1347 C1360 0.960 . S
C1348 H1340 0.929 . S
C1348 C1349 1.377 . S
C1348 C1350 1.384 . S
C1349 C1348 1.377 . S
C1349 C1355 1.390 . S
C1350 H1341 0.930 . S
C1350 C1348 1.384 . S
C1350 C1351 1.372 . S
C1351 C1350 1.372 . S
C1351 C1352 1.400 . S
C1351 C1356 1.490 . S
C1352 H1342 0.930 . S
C1352 C1351 1.400 . S
C1352 C1355 1.386 . S
H1353 C1369 0.930 . S
H1354 C1370 0.931 . S
C1355 H1343 0.929 . S
C1355 C1349 1.390 . S
C1355 C1352 1.386 . S
C1356 C1351 1.490 . S
C1356 C1358 1.395 . S
C1356 C1359 1.403 . S
H1357 C1363 0.930 . S
C1358 H1344 0.930 . S
C1358 C1356 1.395 . S
C1358 C1361 1.403 . S
C1359 C1356 1.403 . S
C1359 C1360 1.524 . S
C1359 C1363 1.400 . S
C1360 H1345 0.960 . S
C1360 H1346 0.960 . S
C1360 H1347 0.960 . S
C1360 C1359 1.524 . S
C1361 C1358 1.403 . S
C1361 C1362 1.392 . S
C1361 C1365 1.495 . S
C1362 C1361 1.392 . S
C1362 C1363 1.385 . S
C1362 C1364 1.478 . S
C1363 H1357 0.930 . S
C1363 C1359 1.400 . S
C1363 C1362 1.385 . S
C1364 C1362 1.478 . S
C1364 C1366 1.381 . S
C1364 C1370 1.383 . S
C1365 C1361 1.495 . S
C1365 H1371 0.959 . S
C1365 H1372 0.961 . S
C1365 H1373 0.960 . S
C1366 C1364 1.381 . S
C1366 C1367 1.394 . S
C1366 H1374 0.930 . S
C1367 C1366 1.394 . S
C1367 C1368 1.383 . S
C1367 H1375 0.929 . S
C1368 C1367 1.383 . S
C1368 C1369 1.377 . S
C1369 H1353 0.930 . S
C1369 C1368 1.377 . S
C1369 C1370 1.379 . S
C1370 H1354 0.931 . S
C1370 C1364 1.383 . S
C1370 C1369 1.379 . S
H1371 C1365 0.959 . S
H1372 C1365 0.961 . S
H1373 C1365 0.960 . S
H1374 C1366 0.930 . S
H1375 C1367 0.929 . S
C233 C64 1.392 1_556 S
C252 C8 1.392 1_554 S
C269 C78 1.391 1_556 S
C288 C22 1.389 . S
C305 C92 1.393 1_556 S
C324 C36 1.385 1_554 S
C341 C106 1.392 1_556 S
C360 C50 1.393 1_554 S
C377 C176 1.394 . S
C396 C120 1.386 . S
C413 C190 1.392 . S
C432 C134 1.395 . S
C449 C148 1.393 . S
C468 C204 1.384 . S
C485 C218 1.392 . S
C504 C162 1.395 . S
C521 C9 1.459 . S
C540 C79 1.468 1_556 S
C557 C93 1.464 . S
C576 C23 1.463 . S
C593 C37 1.464 . S
C612 C107 1.466 . S
C629 C65 1.460 . S
C648 C51 1.477 . S
C665 C191 1.463 . S
C684 C121 1.469 . S
C701 C205 1.465 . S
C720 C135 1.442 . S
C737 C149 1.459 . S
C756 C219 1.476 . S
C773 C163 1.462 . S
C792 C177 1.472 . S
C809 C217 1.339 . S
C828 C7 1.312 . S
C845 C175 1.347 . S
C864 C21 1.359 . S
C881 C189 1.341 . S
C900 C35 1.314 . S
C917 C203 1.346 . S
C936 C49 1.360 . S
C953 C133 1.339 . S
C972 C63 1.338 . S
C989 C147 1.338 . S
C1008 C77 1.333 . S
C1025 C91 1.346 . S
C1044 C161 1.367 . S
C1061 C105 1.347 . S
C1080 C119 1.346 . S
C1097 C185 1.334 . S
C1116 C31 1.324 . S
C1133 C199 1.339 . S
C1152 C45 1.348 . S
C1169 C213 1.335 . S
C1188 C3 1.331 . S
C1205 C17 1.338 . S
C1224 C171 1.347 . S
C1241 C157 1.334 . S
C1260 C87 1.320 . S
C1277 C101 1.333 . S
C1296 C115 1.317 . S
C1313 C129 1.333 . S
C1332 C59 1.319 . S
C1349 C143 1.338 . S
C1368 C73 1.341 . S
