# Generated by pormake.
# Topology uos, (4)-cn, num edge types: 1
# Building blocks:
#     Node 0, Type 0, BuildingBlock: QUQFOY_clean_sbu_3, # of connection points: 4
#     Node 1, Type 0, BuildingBlock: QUQFOY_clean_sbu_3, # of connection points: 4
#     Node 2, Type 0, BuildingBlock: QUQFOY_clean_sbu_3, # of connection points: 4
#     Node 3, Type 0, BuildingBlock: QUQFOY_clean_sbu_3, # of connection points: 4
#     Node 4, Type 0, BuildingBlock: QUQFOY_clean_sbu_3, # of connection points: 4
#     Node 5, Type 0, BuildingBlock: QUQFOY_clean_sbu_3, # of connection points: 4
#     Node 6, Type 0, BuildingBlock: QUQFOY_clean_sbu_3, # of connection points: 4
#     Node 7, Type 0, BuildingBlock: QUQFOY_clean_sbu_3, # of connection points: 4
#     Node 8, Type 0, BuildingBlock: QUQFOY_clean_sbu_3, # of connection points: 4
#     Node 9, Type 0, BuildingBlock: QUQFOY_clean_sbu_3, # of connection points: 4
#     Node 10, Type 0, BuildingBlock: QUQFOY_clean_sbu_3, # of connection points: 4
#     Node 11, Type 0, BuildingBlock: QUQFOY_clean_sbu_3, # of connection points: 4
#     Node 12, Type 0, BuildingBlock: QUQFOY_clean_sbu_3, # of connection points: 4
#     Node 13, Type 0, BuildingBlock: QUQFOY_clean_sbu_3, # of connection points: 4
#     Node 14, Type 0, BuildingBlock: QUQFOY_clean_sbu_3, # of connection points: 4
#     Node 15, Type 0, BuildingBlock: QUQFOY_clean_sbu_3, # of connection points: 4
#     Node 16, Type 0, BuildingBlock: QUQFOY_clean_sbu_3, # of connection points: 4
#     Node 17, Type 0, BuildingBlock: QUQFOY_clean_sbu_3, # of connection points: 4
#     Node 18, Type 0, BuildingBlock: QUQFOY_clean_sbu_3, # of connection points: 4
#     Node 19, Type 0, BuildingBlock: QUQFOY_clean_sbu_3, # of connection points: 4
#     Node 20, Type 0, BuildingBlock: QUQFOY_clean_sbu_3, # of connection points: 4
#     Node 21, Type 0, BuildingBlock: QUQFOY_clean_sbu_3, # of connection points: 4
#     Node 22, Type 0, BuildingBlock: QUQFOY_clean_sbu_3, # of connection points: 4
#     Node 23, Type 0, BuildingBlock: QUQFOY_clean_sbu_3, # of connection points: 4
#     Node 24, Type 0, BuildingBlock: QUQFOY_clean_sbu_3, # of connection points: 4
#     Node 25, Type 0, BuildingBlock: QUQFOY_clean_sbu_3, # of connection points: 4
#     Node 26, Type 0, BuildingBlock: QUQFOY_clean_sbu_3, # of connection points: 4
#     Node 27, Type 0, BuildingBlock: QUQFOY_clean_sbu_3, # of connection points: 4
#     Node 28, Type 0, BuildingBlock: QUQFOY_clean_sbu_3, # of connection points: 4
#     Node 29, Type 0, BuildingBlock: QUQFOY_clean_sbu_3, # of connection points: 4
#     Node 30, Type 0, BuildingBlock: QUQFOY_clean_sbu_3, # of connection points: 4
#     Node 31, Type 0, BuildingBlock: QUQFOY_clean_sbu_3, # of connection points: 4
#     Edge 32, Type (0, 0), BuildingBlock: UVAHIK_clean_linker_0, # of connection points: 2
#     Edge 33, Type (0, 0), BuildingBlock: UVAHIK_clean_linker_0, # of connection points: 2
#     Edge 34, Type (0, 0), BuildingBlock: UVAHIK_clean_linker_0, # of connection points: 2
#     Edge 35, Type (0, 0), BuildingBlock: UVAHIK_clean_linker_0, # of connection points: 2
#     Edge 36, Type (0, 0), BuildingBlock: UVAHIK_clean_linker_0, # of connection points: 2
#     Edge 37, Type (0, 0), BuildingBlock: UVAHIK_clean_linker_0, # of connection points: 2
#     Edge 38, Type (0, 0), BuildingBlock: UVAHIK_clean_linker_0, # of connection points: 2
#     Edge 39, Type (0, 0), BuildingBlock: UVAHIK_clean_linker_0, # of connection points: 2
#     Edge 40, Type (0, 0), BuildingBlock: UVAHIK_clean_linker_0, # of connection points: 2
#     Edge 41, Type (0, 0), BuildingBlock: UVAHIK_clean_linker_0, # of connection points: 2
#     Edge 42, Type (0, 0), BuildingBlock: UVAHIK_clean_linker_0, # of connection points: 2
#     Edge 43, Type (0, 0), BuildingBlock: UVAHIK_clean_linker_0, # of connection points: 2
#     Edge 44, Type (0, 0), BuildingBlock: UVAHIK_clean_linker_0, # of connection points: 2
#     Edge 45, Type (0, 0), BuildingBlock: UVAHIK_clean_linker_0, # of connection points: 2
#     Edge 46, Type (0, 0), BuildingBlock: UVAHIK_clean_linker_0, # of connection points: 2
#     Edge 47, Type (0, 0), BuildingBlock: UVAHIK_clean_linker_0, # of connection points: 2
#     Edge 48, Type (0, 0), BuildingBlock: UVAHIK_clean_linker_0, # of connection points: 2
#     Edge 49, Type (0, 0), BuildingBlock: UVAHIK_clean_linker_0, # of connection points: 2
#     Edge 50, Type (0, 0), BuildingBlock: UVAHIK_clean_linker_0, # of connection points: 2
#     Edge 51, Type (0, 0), BuildingBlock: UVAHIK_clean_linker_0, # of connection points: 2
#     Edge 52, Type (0, 0), BuildingBlock: UVAHIK_clean_linker_0, # of connection points: 2
#     Edge 53, Type (0, 0), BuildingBlock: UVAHIK_clean_linker_0, # of connection points: 2
#     Edge 54, Type (0, 0), BuildingBlock: UVAHIK_clean_linker_0, # of connection points: 2
#     Edge 55, Type (0, 0), BuildingBlock: UVAHIK_clean_linker_0, # of connection points: 2
#     Edge 56, Type (0, 0), BuildingBlock: UVAHIK_clean_linker_0, # of connection points: 2
#     Edge 57, Type (0, 0), BuildingBlock: UVAHIK_clean_linker_0, # of connection points: 2
#     Edge 58, Type (0, 0), BuildingBlock: UVAHIK_clean_linker_0, # of connection points: 2
#     Edge 59, Type (0, 0), BuildingBlock: UVAHIK_clean_linker_0, # of connection points: 2
#     Edge 60, Type (0, 0), BuildingBlock: UVAHIK_clean_linker_0, # of connection points: 2
#     Edge 61, Type (0, 0), BuildingBlock: UVAHIK_clean_linker_0, # of connection points: 2
#     Edge 62, Type (0, 0), BuildingBlock: UVAHIK_clean_linker_0, # of connection points: 2
#     Edge 63, Type (0, 0), BuildingBlock: UVAHIK_clean_linker_0, # of connection points: 2
#     Edge 64, Type (0, 0), BuildingBlock: UVAHIK_clean_linker_0, # of connection points: 2
#     Edge 65, Type (0, 0), BuildingBlock: UVAHIK_clean_linker_0, # of connection points: 2
#     Edge 66, Type (0, 0), BuildingBlock: UVAHIK_clean_linker_0, # of connection points: 2
#     Edge 67, Type (0, 0), BuildingBlock: UVAHIK_clean_linker_0, # of connection points: 2
#     Edge 68, Type (0, 0), BuildingBlock: UVAHIK_clean_linker_0, # of connection points: 2
#     Edge 69, Type (0, 0), BuildingBlock: UVAHIK_clean_linker_0, # of connection points: 2
#     Edge 70, Type (0, 0), BuildingBlock: UVAHIK_clean_linker_0, # of connection points: 2
#     Edge 71, Type (0, 0), BuildingBlock: UVAHIK_clean_linker_0, # of connection points: 2
#     Edge 72, Type (0, 0), BuildingBlock: UVAHIK_clean_linker_0, # of connection points: 2
#     Edge 73, Type (0, 0), BuildingBlock: UVAHIK_clean_linker_0, # of connection points: 2
#     Edge 74, Type (0, 0), BuildingBlock: UVAHIK_clean_linker_0, # of connection points: 2
#     Edge 75, Type (0, 0), BuildingBlock: UVAHIK_clean_linker_0, # of connection points: 2
#     Edge 76, Type (0, 0), BuildingBlock: UVAHIK_clean_linker_0, # of connection points: 2
#     Edge 77, Type (0, 0), BuildingBlock: UVAHIK_clean_linker_0, # of connection points: 2
#     Edge 78, Type (0, 0), BuildingBlock: UVAHIK_clean_linker_0, # of connection points: 2
#     Edge 79, Type (0, 0), BuildingBlock: UVAHIK_clean_linker_0, # of connection points: 2
#     Edge 80, Type (0, 0), BuildingBlock: UVAHIK_clean_linker_0, # of connection points: 2
#     Edge 81, Type (0, 0), BuildingBlock: UVAHIK_clean_linker_0, # of connection points: 2
#     Edge 82, Type (0, 0), BuildingBlock: UVAHIK_clean_linker_0, # of connection points: 2
#     Edge 83, Type (0, 0), BuildingBlock: UVAHIK_clean_linker_0, # of connection points: 2
#     Edge 84, Type (0, 0), BuildingBlock: UVAHIK_clean_linker_0, # of connection points: 2
#     Edge 85, Type (0, 0), BuildingBlock: UVAHIK_clean_linker_0, # of connection points: 2
#     Edge 86, Type (0, 0), BuildingBlock: UVAHIK_clean_linker_0, # of connection points: 2
#     Edge 87, Type (0, 0), BuildingBlock: UVAHIK_clean_linker_0, # of connection points: 2
#     Edge 88, Type (0, 0), BuildingBlock: UVAHIK_clean_linker_0, # of connection points: 2
#     Edge 89, Type (0, 0), BuildingBlock: UVAHIK_clean_linker_0, # of connection points: 2
#     Edge 90, Type (0, 0), BuildingBlock: UVAHIK_clean_linker_0, # of connection points: 2
#     Edge 91, Type (0, 0), BuildingBlock: UVAHIK_clean_linker_0, # of connection points: 2
#     Edge 92, Type (0, 0), BuildingBlock: UVAHIK_clean_linker_0, # of connection points: 2
#     Edge 93, Type (0, 0), BuildingBlock: UVAHIK_clean_linker_0, # of connection points: 2
#     Edge 94, Type (0, 0), BuildingBlock: UVAHIK_clean_linker_0, # of connection points: 2
#     Edge 95, Type (0, 0), BuildingBlock: UVAHIK_clean_linker_0, # of connection points: 2
# Relax obj value: 0.044
# Max RMSD: 0.062
# Mean RMSD: 0.062
data_MOF--net-uos--node1-QUQFOY_clean_sbu_3--edge1-UVAHIK_clean_linker_0
_symmetry_space_group_name_H-M    P1
_symmetry_Int_Tables_number       1
_symmetry_cell_setting            triclinic
loop_
_symmetry_equiv_pos_as_xyz
'x, y, z'
_cell_length_a     112.47841
_cell_length_b     112.39167
_cell_length_c     30.922523
_cell_angle_alpha  89.935159
_cell_angle_beta   89.998283
_cell_angle_gamma 90.014135
loop_
_atom_site_label
_atom_site_type_symbol
_atom_site_fract_x
_atom_site_fract_y
_atom_site_fract_z
_atom_type_partial_charge
C0 C 0.15716 0.18044 0.14863 0.0
O1 O 0.1548 0.17604 0.18548 0.0
Cd2 Cd 0.15503 0.1555 0.20341 0.0
O3 O 0.15966 0.17372 0.11669 0.0
Cd4 Cd 0.16115 0.15194 0.10371 0.0
C5 C 0.1839 0.14965 0.1738 0.0
O6 O 0.14427 0.14621 0.14663 0.0
O7 O 0.15592 0.13183 0.12977 0.0
O8 O 0.1514 0.15496 0.0349 0.0
C9 C 0.14624 0.13514 0.1469 0.0
O10 O 0.17609 0.15026 0.20355 0.0
C11 C 0.15828 0.14819 0.01368 0.0
O12 O 0.18101 0.15078 0.1342 0.0
O13 O 0.16704 0.14374 0.03396 0.0
C14 C 0.05071 0.91074 0.37347 0.0
O15 O 0.05036 0.91059 0.41452 0.0
Cd16 Cd 0.06658 0.9083 0.46392 0.0
O17 O 0.06055 0.91002 0.3533 0.0
Cd18 Cd 0.08175 0.9092 0.37519 0.0
C19 C 0.08155 0.93381 0.43762 0.0
O20 O 0.08016 0.89461 0.43338 0.0
O21 O 0.09678 0.90404 0.42801 0.0
O22 O 0.08638 0.89567 0.31695 0.0
C23 C 0.09069 0.89613 0.44696 0.0
O24 O 0.07645 0.92738 0.46601 0.0
C25 C 0.09474 0.90188 0.30111 0.0
O26 O 0.08343 0.92993 0.39947 0.0
O27 O 0.09666 0.91195 0.31839 0.0
C28 C 0.33012 0.80693 0.64129 0.0
O29 O 0.33137 0.80979 0.68073 0.0
Cd30 Cd 0.32843 0.82911 0.70982 0.0
O31 O 0.32736 0.81473 0.61301 0.0
Cd32 Cd 0.32416 0.83669 0.61187 0.0
C33 C 0.29987 0.83471 0.67404 0.0
O34 O 0.3395 0.8417 0.66344 0.0
O35 O 0.32706 0.85574 0.64963 0.0
O36 O 0.33614 0.83683 0.54723 0.0
C37 C 0.33658 0.85249 0.66807 0.0
O38 O 0.30716 0.83314 0.70508 0.0
C39 C 0.32977 0.8442 0.52657 0.0
O40 O 0.30353 0.83543 0.63513 0.0
O41 O 0.32018 0.84754 0.54457 0.0
C42 C 0.4339 0.08704 0.87923 0.0
O43 O 0.43342 0.08867 0.9198 0.0
Cd44 Cd 0.41702 0.08354 0.96468 0.0
O45 O 0.42496 0.08301 0.85861 0.0
Cd46 Cd 0.40392 0.07806 0.87528 0.0
C47 C 0.41231 0.05435 0.93315 0.0
O48 O 0.40035 0.09254 0.93163 0.0
O49 O 0.38735 0.07854 0.92687 0.0
O50 O 0.39911 0.09069 0.81526 0.0
C51 C 0.39058 0.0882 0.94443 0.0
O52 O 0.41512 0.06195 0.96194 0.0
C53 C 0.39152 0.08382 0.79813 0.0
O54 O 0.40865 0.05767 0.89602 0.0
O55 O 0.39008 0.07367 0.81562 0.0
C56 C 0.15102 0.80558 0.85982 0.0
O57 O 0.1479 0.80791 0.82126 0.0
Cd58 Cd 0.14832 0.82708 0.78864 0.0
O59 O 0.15453 0.81381 0.88511 0.0
Cd60 Cd 0.15668 0.83581 0.88176 0.0
C61 C 0.1777 0.83428 0.80424 0.0
O62 O 0.13873 0.83932 0.84081 0.0
O63 O 0.15027 0.85445 0.84657 0.0
O64 O 0.14905 0.83569 0.95476 0.0
C65 C 0.14042 0.85026 0.83381 0.0
O66 O 0.16928 0.83206 0.77791 0.0
C67 C 0.15627 0.84338 0.96935 0.0
O68 O 0.17568 0.83529 0.84459 0.0
O69 O 0.16414 0.84725 0.94343 0.0
C70 C 0.4342 0.89775 0.09846 0.0
O71 O 0.43261 0.89597 0.05832 0.0
Cd72 Cd 0.41512 0.90105 0.01873 0.0
O73 O 0.42591 0.90198 0.12194 0.0
Cd74 Cd 0.40467 0.90759 0.11426 0.0
C75 C 0.4122 0.93054 0.05007 0.0
O76 O 0.3993 0.89321 0.06002 0.0
O77 O 0.38639 0.907 0.0708 0.0
O78 O 0.40179 0.89594 0.17862 0.0
C79 C 0.38927 0.89762 0.05066 0.0
O80 O 0.41396 0.92274 0.02086 0.0
C81 C 0.39502 0.9033 0.19758 0.0
O82 O 0.40951 0.92753 0.08862 0.0
O83 O 0.39305 0.91312 0.17841 0.0
C84 C 0.33439 0.1807 0.35959 0.0
O85 O 0.337 0.17795 0.32091 0.0
Cd86 Cd 0.33525 0.15881 0.28884 0.0
O87 O 0.33066 0.17284 0.38613 0.0
Cd88 Cd 0.32726 0.15091 0.38543 0.0
C89 C 0.30566 0.15319 0.31034 0.0
O90 O 0.34407 0.14607 0.34072 0.0
O91 O 0.33182 0.13169 0.3505 0.0
O92 O 0.33599 0.15054 0.45675 0.0
C93 C 0.3415 0.13527 0.33417 0.0
O94 O 0.31395 0.15491 0.28291 0.0
C95 C 0.32844 0.14343 0.473 0.0
O96 O 0.30795 0.15226 0.35056 0.0
O97 O 0.31988 0.1402 0.44892 0.0
C98 C 0.0543 0.07912 0.58628 0.0
O99 O 0.05595 0.08001 0.54576 0.0
Cd100 Cd 0.07431 0.08189 0.50764 0.0
O101 O 0.06303 0.07934 0.61252 0.0
Cd102 Cd 0.08492 0.08088 0.60533 0.0
C103 C 0.08667 0.0559 0.54512 0.0
O104 O 0.08639 0.0952 0.54694 0.0
O105 O 0.10238 0.08558 0.56208 0.0
O106 O 0.08625 0.09433 0.66611 0.0
C107 C 0.09731 0.09344 0.53923 0.0
O108 O 0.08311 0.06224 0.5135 0.0
C109 C 0.09415 0.0884 0.686 0.0
O110 O 0.08719 0.06012 0.58335 0.0
O111 O 0.0972 0.0785 0.66958 0.0
C112 C 0.83649 0.80828 0.8488 0.0
O113 O 0.83927 0.81179 0.81107 0.0
Cd114 Cd 0.83613 0.83137 0.78406 0.0
O115 O 0.83189 0.81544 0.87602 0.0
Cd116 Cd 0.8265 0.83687 0.87953 0.0
C117 C 0.80595 0.8333 0.80113 0.0
O118 O 0.84366 0.84367 0.8403 0.0
O119 O 0.83022 0.85697 0.84977 0.0
O120 O 0.83399 0.8357 0.95256 0.0
C121 C 0.84052 0.8544 0.8361 0.0
O122 O 0.81459 0.83308 0.77449 0.0
C123 C 0.82613 0.84239 0.96911 0.0
O124 O 0.8078 0.83388 0.8417 0.0
O125 O 0.81797 0.84613 0.94417 0.0
C126 C 0.93242 0.07651 0.5932 0.0
O127 O 0.9305 0.07836 0.55328 0.0
Cd128 Cd 0.91177 0.07983 0.51763 0.0
O129 O 0.92384 0.07535 0.61978 0.0
Cd130 Cd 0.90183 0.07545 0.61489 0.0
C131 C 0.90197 0.05199 0.54706 0.0
O132 O 0.89935 0.09127 0.56281 0.0
O133 O 0.88391 0.08042 0.57382 0.0
O134 O 0.90118 0.08715 0.67999 0.0
C135 C 0.8885 0.08928 0.55473 0.0
O136 O 0.90466 0.05943 0.51754 0.0
C137 C 0.89317 0.08102 0.69844 0.0
O138 O 0.90132 0.05513 0.58662 0.0
O139 O 0.88971 0.07166 0.67911 0.0
C140 C 0.65753 0.18236 0.33787 0.0
O141 O 0.65549 0.17986 0.29853 0.0
Cd142 Cd 0.65443 0.16068 0.26636 0.0
O143 O 0.65899 0.17414 0.36584 0.0
Cd144 Cd 0.65896 0.15199 0.36443 0.0
C145 C 0.68239 0.15149 0.29671 0.0
O146 O 0.64293 0.14883 0.31361 0.0
O147 O 0.65398 0.13361 0.32565 0.0
O148 O 0.64761 0.15135 0.43066 0.0
C149 C 0.64493 0.13791 0.30697 0.0
O150 O 0.67496 0.15391 0.26686 0.0
C151 C 0.65416 0.14372 0.44933 0.0
O152 O 0.67918 0.15112 0.33623 0.0
O153 O 0.66353 0.14054 0.42955 0.0
C154 C 0.55536 0.89902 0.10876 0.0
O155 O 0.5577 0.89668 0.06951 0.0
Cd156 Cd 0.57598 0.90128 0.03446 0.0
O157 O 0.56317 0.90376 0.13319 0.0
Cd158 Cd 0.58443 0.90976 0.12801 0.0
C159 C 0.57777 0.93133 0.0567 0.0
O160 O 0.59075 0.89362 0.08173 0.0
O161 O 0.60336 0.90786 0.0888 0.0
O162 O 0.58595 0.90065 0.19839 0.0
C163 C 0.60102 0.89764 0.07377 0.0
O164 O 0.57677 0.92298 0.02907 0.0
C165 C 0.59279 0.90845 0.21453 0.0
O166 O 0.57978 0.92903 0.09638 0.0
O167 O 0.59543 0.9173 0.19081 0.0
C168 C 0.8343 0.18207 0.13844 0.0
O169 O 0.83632 0.17914 0.17743 0.0
Cd170 Cd 0.83445 0.15967 0.20685 0.0
O171 O 0.8313 0.17428 0.11057 0.0
Cd172 Cd 0.8286 0.15234 0.10931 0.0
C173 C 0.80551 0.15359 0.17816 0.0
O174 O 0.84476 0.1473 0.15728 0.0
O175 O 0.83245 0.13311 0.1447 0.0
O176 O 0.83903 0.15224 0.04113 0.0
C177 C 0.84204 0.13648 0.16235 0.0
O178 O 0.8132 0.15522 0.20781 0.0
C179 C 0.83188 0.14525 0.02215 0.0
O180 O 0.8086 0.15306 0.13858 0.0
O181 O 0.82271 0.14203 0.04312 0.0
C182 C 0.55234 0.08585 0.86962 0.0
O183 O 0.55369 0.08784 0.90972 0.0
Cd184 Cd 0.57122 0.0833 0.94946 0.0
O185 O 0.56083 0.08165 0.84702 0.0
Cd186 Cd 0.58215 0.07663 0.85743 0.0
C187 C 0.57506 0.05372 0.92192 0.0
O188 O 0.58671 0.09219 0.90865 0.0
O189 O 0.60004 0.07858 0.90282 0.0
O190 O 0.58455 0.08748 0.79106 0.0
C191 C 0.5969 0.08842 0.91915 0.0
O192 O 0.57295 0.06163 0.95041 0.0
C193 C 0.59202 0.08045 0.7741 0.0
O194 O 0.57789 0.05664 0.88344 0.0
O195 O 0.59467 0.07114 0.79535 0.0
C196 C 0.65048 0.80381 0.62509 0.0
O197 O 0.64947 0.80421 0.66594 0.0
Cd198 Cd 0.65523 0.82049 0.71026 0.0
O199 O 0.6541 0.81283 0.60381 0.0
Cd200 Cd 0.65902 0.83397 0.62022 0.0
C201 C 0.68377 0.82576 0.6724 0.0
O202 O 0.64556 0.83722 0.68029 0.0
O203 O 0.65921 0.85045 0.67232 0.0
O204 O 0.64543 0.83925 0.5634 0.0
C205 C 0.65002 0.847 0.69242 0.0
O206 O 0.67669 0.82261 0.70248 0.0
C207 C 0.65221 0.84665 0.54465 0.0
O208 O 0.67981 0.82963 0.63641 0.0
O209 O 0.66266 0.84778 0.55981 0.0
C210 C 0.93394 0.89859 0.37117 0.0
O211 O 0.93424 0.89707 0.41185 0.0
Cd212 Cd 0.91839 0.90122 0.46121 0.0
O213 O 0.92433 0.90162 0.35232 0.0
Cd214 Cd 0.90325 0.90443 0.37341 0.0
C215 C 0.91019 0.92942 0.42643 0.0
O216 O 0.90117 0.89143 0.4362 0.0
O217 O 0.88774 0.90493 0.42734 0.0
O218 O 0.8968 0.89026 0.32002 0.0
C219 C 0.89156 0.89617 0.44906 0.0
O220 O 0.91429 0.92248 0.45549 0.0
C221 C 0.88939 0.89711 0.3016 0.0
O222 O 0.90635 0.92535 0.39057 0.0
O223 O 0.88886 0.90777 0.31517 0.0
C224 C 0.64961 0.68502 0.62089 0.0
O225 O 0.64755 0.68381 0.66104 0.0
Cd226 Cd 0.65199 0.66662 0.70338 0.0
O227 O 0.65386 0.67646 0.59876 0.0
Cd228 Cd 0.65897 0.65517 0.61013 0.0
C229 C 0.68159 0.66261 0.67579 0.0
O230 O 0.64399 0.65061 0.66344 0.0
O231 O 0.65753 0.6373 0.6555 0.0
O232 O 0.64798 0.65183 0.54471 0.0
C233 C 0.64807 0.64055 0.67431 0.0
O234 O 0.67363 0.66488 0.70395 0.0
C235 C 0.6554 0.64474 0.52773 0.0
O236 O 0.67878 0.65964 0.63733 0.0
O237 O 0.66496 0.64278 0.54849 0.0
C238 C 0.55045 0.39952 0.8759 0.0
O239 O 0.54983 0.39879 0.9168 0.0
Cd240 Cd 0.56504 0.40437 0.96607 0.0
O241 O 0.56008 0.40258 0.85726 0.0
Cd242 Cd 0.58095 0.40643 0.88062 0.0
C243 C 0.57294 0.43215 0.92661 0.0
O244 O 0.58205 0.3936 0.94387 0.0
O245 O 0.59593 0.40672 0.93762 0.0
O246 O 0.58757 0.39199 0.82844 0.0
C247 C 0.59169 0.39791 0.95805 0.0
O248 O 0.56833 0.42568 0.95603 0.0
C249 C 0.59528 0.39862 0.81059 0.0
O250 O 0.57775 0.42752 0.89333 0.0
O251 O 0.59602 0.40927 0.8241 0.0
C252 C 0.83041 0.30639 0.14244 0.0
O253 O 0.83212 0.30932 0.1816 0.0
Cd254 Cd 0.83021 0.32888 0.21004 0.0
O255 O 0.82764 0.31419 0.11421 0.0
Cd256 Cd 0.82493 0.33613 0.11235 0.0
C257 C 0.80149 0.33533 0.17935 0.0
O258 O 0.84107 0.34093 0.16072 0.0
O259 O 0.82916 0.35538 0.14712 0.0
O260 O 0.83541 0.33567 0.0443 0.0
C261 C 0.83864 0.35184 0.16503 0.0
O262 O 0.80903 0.33367 0.2095 0.0
C263 C 0.82853 0.34285 0.0249 0.0
O264 O 0.80476 0.3357 0.13995 0.0
O265 O 0.81951 0.3465 0.04567 0.0
C266 C 0.92984 0.58436 0.39638 0.0
O267 O 0.9272 0.58575 0.436 0.0
Cd268 Cd 0.90813 0.58276 0.46789 0.0
O269 O 0.92194 0.58142 0.36881 0.0
Cd270 Cd 0.90017 0.57775 0.36819 0.0
C271 C 0.90321 0.554 0.43297 0.0
O272 O 0.89503 0.59261 0.42043 0.0
O273 O 0.88105 0.5802 0.4066 0.0
O274 O 0.89977 0.58951 0.3031 0.0
C275 C 0.88443 0.58937 0.42702 0.0
O276 O 0.90427 0.56141 0.46388 0.0
C277 C 0.89268 0.58279 0.28258 0.0
O278 O 0.90268 0.5574 0.39369 0.0
O279 O 0.8895 0.57321 0.30117 0.0
C280 C 0.65628 0.3071 0.35449 0.0
O281 O 0.65316 0.31037 0.31683 0.0
Cd282 Cd 0.65104 0.33029 0.29142 0.0
O283 O 0.65852 0.31474 0.38381 0.0
Cd284 Cd 0.65872 0.3368 0.38868 0.0
C285 C 0.67975 0.33888 0.3108 0.0
O286 O 0.6409 0.34071 0.34716 0.0
O287 O 0.65178 0.35598 0.36025 0.0
O288 O 0.65094 0.33525 0.46147 0.0
C289 C 0.6423 0.35184 0.34412 0.0
O290 O 0.67149 0.33711 0.28337 0.0
C291 C 0.65823 0.3426 0.47791 0.0
O292 O 0.67767 0.33841 0.35126 0.0
O293 O 0.66618 0.34682 0.45307 0.0
C294 C 0.93431 0.39992 0.60082 0.0
O295 O 0.9327 0.39847 0.56051 0.0
Cd296 Cd 0.91462 0.40178 0.52188 0.0
O297 O 0.92578 0.40306 0.62533 0.0
Cd298 Cd 0.90421 0.4068 0.61712 0.0
C299 C 0.90852 0.43054 0.55395 0.0
O300 O 0.89978 0.39206 0.56245 0.0
O301 O 0.88622 0.40523 0.57271 0.0
O302 O 0.90142 0.39454 0.68 0.0
C303 C 0.88952 0.39591 0.55313 0.0
O304 O 0.91042 0.42305 0.52383 0.0
C305 C 0.89414 0.40143 0.69881 0.0
O306 O 0.90718 0.42724 0.59309 0.0
O307 O 0.89204 0.41137 0.68069 0.0
C308 C 0.83655 0.684 0.84143 0.0
O309 O 0.83843 0.68112 0.80234 0.0
Cd310 Cd 0.83385 0.66219 0.77217 0.0
O311 O 0.83255 0.6764 0.86839 0.0
Cd312 Cd 0.82755 0.65489 0.86921 0.0
C313 C 0.80442 0.65974 0.8037 0.0
O314 O 0.84255 0.648 0.81923 0.0
O315 O 0.82833 0.63565 0.83182 0.0
O316 O 0.83923 0.654 0.93426 0.0
C317 C 0.83824 0.6377 0.81383 0.0
O318 O 0.81223 0.66063 0.774 0.0
C319 C 0.83222 0.64724 0.955 0.0
O320 O 0.80744 0.65842 0.84313 0.0
O321 O 0.82244 0.64459 0.93677 0.0
C322 C 0.55744 0.58395 0.09049 0.0
O323 O 0.56032 0.58676 0.05212 0.0
Cd324 Cd 0.57945 0.58479 0.02081 0.0
O325 O 0.56526 0.5803 0.11727 0.0
Cd326 Cd 0.58727 0.57741 0.11711 0.0
C327 C 0.584 0.55514 0.04572 0.0
O328 O 0.59253 0.59386 0.07082 0.0
O329 O 0.60633 0.5809 0.08015 0.0
O330 O 0.58759 0.58762 0.18539 0.0
C331 C 0.60319 0.59081 0.06427 0.0
O332 O 0.58225 0.56329 0.01778 0.0
C333 C 0.59491 0.58066 0.20368 0.0
O334 O 0.58557 0.55766 0.08549 0.0
O335 O 0.5981 0.57151 0.18254 0.0
C336 C 0.33376 0.30446 0.35284 0.0
O337 O 0.33583 0.30693 0.31347 0.0
Cd338 Cd 0.33337 0.32595 0.28065 0.0
O339 O 0.3304 0.31252 0.37913 0.0
Cd340 Cd 0.32702 0.33438 0.37668 0.0
C341 C 0.30417 0.33148 0.30752 0.0
O342 O 0.34322 0.33926 0.3283 0.0
O343 O 0.3306 0.35332 0.33926 0.0
O344 O 0.33687 0.33531 0.44597 0.0
C345 C 0.34028 0.34999 0.32218 0.0
O346 O 0.31197 0.32969 0.27836 0.0
C347 C 0.32945 0.34237 0.46322 0.0
O348 O 0.30716 0.33265 0.34699 0.0
O349 O 0.32049 0.34533 0.44068 0.0
C350 C 0.43258 0.58431 0.08766 0.0
O351 O 0.4298 0.58623 0.04846 0.0
Cd352 Cd 0.4107 0.58474 0.0161 0.0
O353 O 0.42464 0.58171 0.11559 0.0
Cd354 Cd 0.4026 0.57952 0.11582 0.0
C355 C 0.40472 0.55594 0.0493 0.0
O356 O 0.39788 0.59471 0.06395 0.0
O357 O 0.38368 0.58249 0.07718 0.0
O358 O 0.40187 0.59135 0.1806 0.0
C359 C 0.38723 0.59166 0.05709 0.0
O360 O 0.40641 0.5635 0.01917 0.0
C361 C 0.39462 0.58467 0.20062 0.0
O362 O 0.40388 0.55919 0.0887 0.0
O363 O 0.39169 0.57499 0.18226 0.0
C364 C 0.1518 0.68321 0.85614 0.0
O365 O 0.1497 0.68153 0.81628 0.0
Cd366 Cd 0.15254 0.66343 0.77807 0.0
O367 O 0.15519 0.67467 0.88035 0.0
Cd368 Cd 0.15819 0.65285 0.87232 0.0
C369 C 0.18158 0.65714 0.80736 0.0
O370 O 0.14269 0.64893 0.8202 0.0
O371 O 0.15557 0.63496 0.82772 0.0
O372 O 0.14637 0.65055 0.93646 0.0
C373 C 0.14601 0.63853 0.81042 0.0
O374 O 0.17387 0.65966 0.77855 0.0
C375 C 0.15299 0.64285 0.95435 0.0
O376 O 0.17848 0.65507 0.8463 0.0
O377 O 0.16269 0.64033 0.9353 0.0
C378 C 0.05443 0.4034 0.59378 0.0
O379 O 0.05546 0.40283 0.55295 0.0
Cd380 Cd 0.07288 0.40742 0.51263 0.0
O381 O 0.0633 0.40602 0.61758 0.0
Cd382 Cd 0.08493 0.40961 0.60755 0.0
C383 C 0.0798 0.43515 0.55529 0.0
O384 O 0.08803 0.39648 0.54711 0.0
O385 O 0.10235 0.40866 0.55954 0.0
O386 O 0.08762 0.39544 0.66484 0.0
C387 C 0.0983 0.40015 0.53713 0.0
O388 O 0.07679 0.42852 0.52372 0.0
C389 C 0.0952 0.40147 0.68585 0.0
O390 O 0.08242 0.43072 0.59203 0.0
O391 O 0.09773 0.41175 0.67134 0.0
C392 C 0.33434 0.68266 0.64088 0.0
O393 O 0.33653 0.6797 0.6797 0.0
Cd394 Cd 0.33379 0.66029 0.70905 0.0
O395 O 0.33085 0.67495 0.61348 0.0
Cd396 Cd 0.32733 0.65312 0.61205 0.0
C397 C 0.30447 0.65571 0.68093 0.0
O398 O 0.34328 0.64723 0.65972 0.0
O399 O 0.33013 0.63376 0.6476 0.0
O400 O 0.33793 0.65315 0.54439 0.0
C401 C 0.33994 0.63658 0.66493 0.0
O402 O 0.31235 0.65697 0.71019 0.0
C403 C 0.33085 0.64621 0.52484 0.0
O404 O 0.30737 0.65495 0.64121 0.0
O405 O 0.3216 0.64294 0.54524 0.0
C406 C 0.05379 0.5872 0.39178 0.0
O407 O 0.05671 0.58987 0.43025 0.0
Cd408 Cd 0.07595 0.58814 0.46169 0.0
O409 O 0.06151 0.58341 0.3649 0.0
Cd410 Cd 0.08332 0.57981 0.36409 0.0
C411 C 0.08107 0.55844 0.44047 0.0
O412 O 0.08858 0.59648 0.40852 0.0
O413 O 0.10277 0.58411 0.39745 0.0
O414 O 0.08348 0.58865 0.29303 0.0
C415 C 0.09935 0.59376 0.41454 0.0
O416 O 0.07964 0.56677 0.4679 0.0
C417 C 0.09036 0.58099 0.27618 0.0
O418 O 0.08182 0.56066 0.40013 0.0
O419 O 0.09349 0.57229 0.29981 0.0
C420 C 0.15383 0.30757 0.15123 0.0
O421 O 0.15113 0.31179 0.18801 0.0
Cd422 Cd 0.15222 0.33225 0.20743 0.0
O423 O 0.15695 0.31442 0.12038 0.0
Cd424 Cd 0.15925 0.33612 0.10836 0.0
C425 C 0.18157 0.33682 0.1804 0.0
O426 O 0.14258 0.34284 0.15094 0.0
O427 O 0.15524 0.3564 0.13412 0.0
O428 O 0.14958 0.33341 0.03947 0.0
C429 C 0.14538 0.35374 0.15138 0.0
O430 O 0.17352 0.33638 0.20936 0.0
C431 C 0.15668 0.34 0.01833 0.0
O432 O 0.17892 0.33612 0.14043 0.0
O433 O 0.16553 0.34422 0.03872 0.0
C434 C 0.43393 0.40122 0.87232 0.0
O435 O 0.43349 0.39947 0.91286 0.0
Cd436 Cd 0.41692 0.40383 0.95817 0.0
O437 O 0.42485 0.40493 0.85171 0.0
Cd438 Cd 0.40361 0.40891 0.86836 0.0
C439 C 0.41063 0.43282 0.92743 0.0
O440 O 0.40047 0.3944 0.92544 0.0
O441 O 0.38693 0.40785 0.91895 0.0
O442 O 0.39923 0.39613 0.80847 0.0
C443 C 0.39054 0.3985 0.93773 0.0
O444 O 0.41388 0.42529 0.95594 0.0
C445 C 0.39162 0.40288 0.79075 0.0
O446 O 0.40722 0.42943 0.8901 0.0
O447 O 0.38992 0.413 0.80805 0.0
C448 C 0.29068 0.15251 0.25057 0.0
C449 C 0.29326 0.15207 0.29503 0.0
C450 C 0.27901 0.15131 0.23595 0.0
C451 C 0.24946 0.14024 0.26856 0.0
H452 H 0.23818 0.16142 0.17836 0.0
C453 C 0.19984 0.14685 0.22934 0.0
C454 C 0.19654 0.14815 0.18573 0.0
C455 C 0.2118 0.14622 0.24101 0.0
C456 C 0.24124 0.15531 0.20309 0.0
H457 H 0.28558 0.15002 0.35901 0.0
H458 H 0.26519 0.14809 0.33345 0.0
H459 H 0.25877 0.16267 0.20228 0.0
H460 H 0.20324 0.1494 0.12003 0.0
H461 H 0.22414 0.14824 0.14052 0.0
H462 H 0.23185 0.13301 0.26976 0.0
C463 C 0.27223 0.14919 0.3099 0.0
C464 C 0.25303 0.15604 0.21683 0.0
C465 C 0.28391 0.15039 0.32454 0.0
C466 C 0.20547 0.14847 0.15394 0.0
C467 C 0.21745 0.14786 0.16566 0.0
C468 C 0.23766 0.13952 0.25484 0.0
C469 C 0.26966 0.14965 0.26545 0.0
C470 C 0.25724 0.14858 0.24994 0.0
C471 C 0.22073 0.14688 0.20936 0.0
C472 C 0.23341 0.14711 0.2222 0.0
H473 H 0.29768 0.15374 0.22691 0.0
H474 H 0.27733 0.15155 0.20147 0.0
H475 H 0.2525 0.13423 0.29364 0.0
H476 H 0.19319 0.14656 0.25466 0.0
H477 H 0.21405 0.14559 0.27499 0.0
C478 C 0.0875 0.95469 0.41856 0.0
C479 C 0.08533 0.94591 0.44992 0.0
C480 C 0.09023 0.96632 0.43112 0.0
C481 C 0.08592 0.98638 0.52371 0.0
H482 H 0.10692 0.0073 0.45952 0.0
C483 C 0.09153 0.03536 0.57148 0.0
C484 C 0.08981 0.04334 0.53704 0.0
C485 C 0.09343 0.02328 0.56334 0.0
C486 C 0.10105 0.00153 0.47777 0.0
H487 H 0.0851 0.9422 0.51884 0.0
H488 H 0.09013 0.96232 0.54055 0.0
H489 H 0.10567 0.98626 0.43995 0.0
H490 H 0.08944 0.04504 0.46706 0.0
H491 H 0.09265 0.02402 0.45306 0.0
H492 H 0.08111 0.00163 0.56091 0.0
C493 C 0.08935 0.96037 0.50637 0.0
C494 C 0.1003 0.98952 0.46648 0.0
C495 C 0.08649 0.94883 0.49389 0.0
C496 C 0.09062 0.03911 0.49437 0.0
C497 C 0.09258 0.02708 0.48627 0.0
C498 C 0.08672 -0.00166 0.53509 0.0
C499 C 0.09097 0.96932 0.47522 0.0
C500 C 0.09258 0.98186 0.48893 0.0
C501 C 0.09374 0.019 0.52066 0.0
C502 C 0.09413 0.00608 0.51179 0.0
H503 H 0.08668 0.95267 0.38444 0.0
H504 H 0.09133 0.97305 0.40632 0.0
H505 H 0.07972 0.98079 0.54119 0.0
H506 H 0.09103 0.03836 0.60471 0.0
H507 H 0.09441 0.01725 0.59045 0.0
C508 C 0.19949 0.83725 0.81652 0.0
C509 C 0.18997 0.83562 0.78774 0.0
C510 C 0.2111 0.83829 0.80104 0.0
C511 C 0.22975 0.83083 0.70718 0.0
H512 H 0.25198 0.8525 0.76177 0.0
C513 C 0.27856 0.83612 0.65043 0.0
C514 C 0.28705 0.8358 0.68377 0.0
C515 C 0.26646 0.83706 0.66015 0.0
C516 C 0.24587 0.84639 0.74631 0.0
H517 H 0.18515 0.83401 0.72 0.0
H518 H 0.20541 0.83596 0.69302 0.0
H519 H 0.2312 0.85251 0.78418 0.0
H520 H 0.2895 0.83636 0.75343 0.0
H521 H 0.26846 0.83797 0.77019 0.0
H522 H 0.2445 0.82464 0.66962 0.0
C523 C 0.20391 0.83626 0.7276 0.0
C524 C 0.23399 0.84637 0.75919 0.0
C525 C 0.19229 0.83519 0.74309 0.0
C526 C 0.2832 0.83656 0.72693 0.0
C527 C 0.27115 0.83758 0.73658 0.0
C528 C 0.24164 0.83089 0.69418 0.0
C529 C 0.21344 0.83776 0.75643 0.0
C530 C 0.22584 0.83844 0.74032 0.0
C531 C 0.26265 0.83782 0.70334 0.0
C532 C 0.24986 0.83852 0.71418 0.0
H533 H 0.19802 0.83759 0.85112 0.0
H534 H 0.21827 0.83925 0.82415 0.0
H535 H 0.22373 0.82452 0.69234 0.0
H536 H 0.28124 0.83557 0.61685 0.0
H537 H 0.26008 0.83729 0.63391 0.0
C538 C 0.41472 0.03799 0.98708 0.0
C539 C 0.41297 0.04156 0.94394 0.0
C540 C 0.41494 0.02596 -0.00197 0.0
C541 C 0.4204 -0.00372 0.95504 0.0
H542 H 0.40127 0.98578 0.05225 0.0
C543 C 0.41354 0.94667 -0.00537 0.0
C544 C 0.41298 0.94327 0.03834 0.0
C545 C 0.41384 0.95867 0.9831 0.0
C546 C 0.40681 0.98858 0.02546 0.0
H547 H 0.41029 0.03527 0.87834 0.0
H548 H 0.41081 0.01415 0.89762 0.0
H549 H 0.40124 0.00671 0.03159 0.0
H550 H 0.41257 0.94979 0.10431 0.0
H551 H 0.41342 0.97076 0.08423 0.0
H552 H 0.42615 0.97822 0.94927 0.0
C553 C 0.41198 0.02074 0.92281 0.0
C554 C 0.40674 0.00055 0.01353 0.0
C555 C 0.41164 0.03281 0.91185 0.0
C556 C 0.41292 0.95213 0.07034 0.0
C557 C 0.41333 0.96415 0.0588 0.0
C558 C 0.42057 0.98431 0.96722 0.0
C559 C 0.41352 0.01723 0.96608 0.0
C560 C 0.41353 0.00451 0.97821 0.0
C561 C 0.41371 0.96755 0.01501 0.0
C562 C 0.41375 0.98032 0.00254 0.0
H563 H 0.41577 0.04449 0.01264 0.0
H564 H 0.41627 0.02348 0.03155 0.0
H565 H 0.42582 -0.00086 0.92799 0.0
H566 H 0.41351 0.94008 0.96912 0.0
H567 H 0.41392 0.96096 0.94908 0.0
C568 C 0.79125 0.83374 0.74026 0.0
C569 C 0.79364 0.8325 0.78469 0.0
C570 C 0.77965 0.83261 0.72464 0.0
C571 C 0.75108 0.81888 0.75078 0.0
H572 H 0.7375 0.84247 0.6736 0.0
C573 C 0.70095 0.82213 0.72176 0.0
C574 C 0.69672 0.82533 0.68058 0.0
C575 C 0.71307 0.8223 0.7308 0.0
C576 C 0.74122 0.83569 0.69448 0.0
H577 H 0.78571 0.82917 0.84756 0.0
H578 H 0.7655 0.8271 0.82016 0.0
H579 H 0.7582 0.84435 0.69659 0.0
H580 H 0.70199 0.83096 0.61623 0.0
H581 H 0.72329 0.83105 0.6319 0.0
H582 H 0.73421 0.81017 0.74875 0.0
C583 C 0.77262 0.82892 0.79748 0.0
C584 C 0.75305 0.8368 0.70776 0.0
C585 C 0.78418 0.83018 0.81317 0.0
C586 C 0.70495 0.82848 0.64832 0.0
C587 C 0.71714 0.8286 0.65737 0.0
C588 C 0.73931 0.81771 0.73724 0.0
C589 C 0.77025 0.83006 0.75307 0.0
C590 C 0.758 0.82852 0.73666 0.0
C591 C 0.72132 0.82559 0.69884 0.0
C592 C 0.73417 0.82622 0.70962 0.0
H593 H 0.79833 0.83556 0.71749 0.0
H594 H 0.77805 0.83348 0.69023 0.0
H595 H 0.75476 0.81226 0.77244 0.0
H596 H 0.69487 0.81971 0.74749 0.0
H597 H 0.71594 0.82015 0.76331 0.0
C598 C 0.91143 0.94638 0.47824 0.0
C599 C 0.90915 0.94225 0.43615 0.0
C600 C 0.90958 0.95828 0.48882 0.0
C601 C 0.90785 0.98812 0.44337 0.0
H602 H 0.89093 -0.00452 0.54939 0.0
C603 C 0.89824 0.0364 0.49137 0.0
C604 C 0.90028 0.03941 0.53484 0.0
C605 C 0.89786 0.02452 0.47861 0.0
C606 C 0.89575 0.99357 0.51989 0.0
H607 H 0.9034 0.94745 0.37185 0.0
H608 H 0.90033 0.96838 0.39038 0.0
H609 H 0.89356 0.97477 0.52774 0.0
H610 H 0.90306 0.03235 0.59932 0.0
H611 H 0.90268 0.01156 0.5769 0.0
H612 H 0.91041 0.00683 0.43603 0.0
C613 C 0.9035 0.96233 0.4151 0.0
C614 C 0.89723 0.98173 0.50748 0.0
C615 C 0.90525 0.95036 0.40455 0.0
C616 C 0.90145 0.0303 0.56561 0.0
C617 C 0.90118 0.01838 0.55274 0.0
C618 C 0.90647 -5e-05 0.45595 0.0
C619 C 0.9055 0.96634 0.45749 0.0
C620 C 0.90339 0.9789 0.46932 0.0
C621 C 0.89962 0.01538 0.50893 0.0
C622 C 0.90048 0.00282 0.49454 0.0
H623 H 0.91444 0.94039 0.50342 0.0
H624 H 0.91137 0.9612 0.52156 0.0
H625 H 0.91274 0.98616 0.41405 0.0
H626 H 0.89714 0.04324 0.46697 0.0
H627 H 0.89635 0.02251 0.4448 0.0
C628 C 0.70387 0.14931 0.31689 0.0
C629 C 0.69498 0.14961 0.285 0.0
C630 C 0.71584 0.1485 0.30515 0.0
C631 C 0.73553 0.15513 0.21339 0.0
H632 H 0.75865 0.13664 0.27772 0.0
C633 C 0.78414 0.15081 0.15787 0.0
C634 C 0.79286 0.15222 0.19001 0.0
C635 C 0.77218 0.14962 0.16916 0.0
C636 C 0.75229 0.1419 0.25966 0.0
H637 H 0.69162 0.14868 0.21592 0.0
H638 H 0.71243 0.14709 0.19563 0.0
H639 H 0.73769 0.13583 0.29827 0.0
H640 H 0.79586 0.15335 0.25927 0.0
H641 H 0.77498 0.15138 0.27882 0.0
H642 H 0.75009 0.16127 0.175 0.0
C643 C 0.71019 0.14776 0.22962 0.0
C644 C 0.74031 0.14144 0.27142 0.0
C645 C 0.69826 0.14863 0.2413 0.0
C646 C 0.78937 0.1523 0.23368 0.0
C647 C 0.77742 0.15108 0.24495 0.0
C648 C 0.74748 0.15556 0.2016 0.0
C649 C 0.71912 0.14793 0.26132 0.0
C650 C 0.73181 0.14808 0.24845 0.0
C651 C 0.76871 0.14979 0.2128 0.0
C652 C 0.75599 0.14899 0.22469 0.0
H653 H 0.70163 0.15005 0.35085 0.0
H654 H 0.72254 0.14873 0.33031 0.0
H655 H 0.72923 0.16053 0.19558 0.0
H656 H 0.78652 0.15066 0.12394 0.0
H657 H 0.76566 0.14851 0.14372 0.0
C658 C 0.57308 0.03777 0.97786 0.0
C659 C 0.57445 0.04102 0.93424 0.0
C660 C 0.57285 0.02582 0.98996 0.0
C661 C 0.58172 -0.00401 0.95217 0.0
H662 H 0.56086 0.98537 0.04439 0.0
C663 C 0.5762 0.94654 -0.00218 0.0
C664 C 0.57673 0.94382 0.04219 0.0
C665 C 0.57548 0.95833 0.98392 0.0
C666 C 0.56678 0.98824 0.0188 0.0
H667 H 0.57643 0.03424 0.86897 0.0
H668 H 0.57577 0.01333 0.89003 0.0
H669 H 0.56015 0.00606 0.02059 0.0
H670 H 0.57676 0.95138 0.10676 0.0
H671 H 0.57545 0.972 0.08233 0.0
H672 H 0.58827 0.97812 0.95028 0.0
C673 C 0.57512 0.02005 0.91498 0.0
C674 C 0.5664 8e-05 0.00519 0.0
C675 C 0.57543 0.03203 0.90288 0.0
C676 C 0.57638 0.95317 0.07236 0.0
C677 C 0.57556 0.96496 0.05841 0.0
C678 C 0.58203 0.98413 0.96558 0.0
C679 C 0.57389 0.01681 0.95871 0.0
C680 C 0.57393 0.00411 0.97194 0.0
C681 C 0.57518 0.96765 0.01406 0.0
C682 C 0.57462 0.98016 -0.00079 0.0
H683 H 0.57238 0.04447 0.00291 0.0
H684 H 0.57209 0.02365 0.02398 0.0
H685 H 0.58777 -0.00116 0.92698 0.0
H686 H 0.57645 0.93956 0.97371 0.0
H687 H 0.57508 0.96015 0.94954 0.0
C688 C 0.7033 0.66139 0.65801 0.0
C689 C 0.69424 0.663 0.6887 0.0
C690 C 0.71521 0.66127 0.6708 0.0
C691 C 0.73521 0.66991 0.76059 0.0
H692 H 0.75638 0.6468 0.70836 0.0
C693 C 0.7828 0.66073 0.82351 0.0
C694 C 0.79171 0.66014 0.79169 0.0
C695 C 0.77081 0.6611 0.81166 0.0
C696 C 0.75058 0.65335 0.723 0.0
H697 H 0.69058 0.6658 0.75691 0.0
H698 H 0.71129 0.66537 0.77918 0.0
H699 H 0.73564 0.64762 0.68577 0.0
H700 H 0.795 0.65942 0.72251 0.0
H701 H 0.77414 0.66004 0.70207 0.0
H702 H 0.75018 0.67554 0.79815 0.0
C703 C 0.70923 0.66442 0.74514 0.0
C704 C 0.73872 0.65386 0.70996 0.0
C705 C 0.69734 0.66461 0.73235 0.0
C706 C 0.78838 0.65989 0.74788 0.0
C707 C 0.77642 0.66016 0.73611 0.0
C708 C 0.74706 0.66936 0.77382 0.0
C709 C 0.7183 0.66269 0.71457 0.0
C710 C 0.73091 0.66218 0.72845 0.0
C711 C 0.76753 0.66077 0.76784 0.0
C712 C 0.75487 0.66111 0.75497 0.0
H713 H 0.70122 0.66018 0.6241 0.0
H714 H 0.722 0.66011 0.64634 0.0
H715 H 0.72946 0.67653 0.77506 0.0
H716 H 0.78508 0.66095 0.85754 0.0
H717 H 0.76411 0.66149 0.83677 0.0
C718 C 0.58201 0.45208 0.91182 0.0
C719 C 0.57342 0.44514 0.93313 0.0
C720 C 0.58336 0.46411 0.92204 0.0
C721 C 0.57664 0.4854 0.01008 0.0
H722 H 0.58536 0.509 0.9243 0.0
C723 C 0.58802 0.5335 0.05874 0.0
C724 C 0.58378 0.54259 0.03165 0.0
C725 C 0.58746 0.52163 0.04556 0.0
C726 C 0.58283 0.50254 0.94863 0.0
H727 H 0.55907 0.44548 0.97996 0.0
H728 H 0.5611 0.46652 -0.00347 0.0
H729 H 0.58212 0.48849 0.90215 0.0
H730 H 0.57564 0.54638 0.96948 0.0
H731 H 0.57431 0.52572 0.94719 0.0
H732 H 0.57682 0.49951 0.05623 0.0
C733 C 0.5671 0.46262 0.97312 0.0
C734 C 0.58112 0.49074 0.93599 0.0
C735 C 0.56586 0.45058 0.96335 0.0
C736 C 0.57906 0.53958 0.99102 0.0
C737 C 0.57837 0.52773 0.97809 0.0
C738 C 0.57822 0.49721 0.02263 0.0
C739 C 0.57605 0.46947 0.95338 0.0
C740 C 0.57794 0.48204 0.96655 0.0
C741 C 0.58251 0.51859 0.00525 0.0
C742 C 0.58129 0.50594 0.99205 0.0
H743 H 0.58801 0.44811 0.88856 0.0
H744 H 0.59041 0.46909 0.90647 0.0
H745 H 0.57443 0.4789 0.03468 0.0
H746 H 0.59179 0.53555 0.09009 0.0
H747 H 0.59092 0.51483 0.06698 0.0
C748 C 0.69441 0.34172 0.25078 0.0
C749 C 0.69201 0.34093 0.29532 0.0
C750 C 0.70608 0.34278 0.23597 0.0
C751 C 0.73675 0.34998 0.27064 0.0
H752 H 0.74567 0.32922 0.17589 0.0
C753 C 0.78525 0.33746 0.23399 0.0
C754 C 0.78883 0.33704 0.19047 0.0
C755 C 0.77332 0.33915 0.24468 0.0
C756 C 0.74328 0.3352 0.20193 0.0
H757 H 0.69997 0.34103 0.35927 0.0
H758 H 0.72033 0.3427 0.33338 0.0
H759 H 0.72495 0.33032 0.19841 0.0
H760 H 0.78269 0.33814 0.12402 0.0
H761 H 0.76183 0.34108 0.14283 0.0
H762 H 0.75517 0.35464 0.27473 0.0
C763 C 0.71318 0.34264 0.30992 0.0
C764 C 0.73141 0.33585 0.21481 0.0
C765 C 0.7015 0.34161 0.32476 0.0
C766 C 0.78022 0.33838 0.15786 0.0
C767 C 0.76828 0.34003 0.16859 0.0
C768 C 0.74863 0.34932 0.25781 0.0
C769 C 0.7156 0.34306 0.26536 0.0
C770 C 0.72805 0.34313 0.24966 0.0
C771 C 0.76472 0.34043 0.21211 0.0
C772 C 0.75203 0.3418 0.22371 0.0
H773 H 0.6873 0.34132 0.22722 0.0
H774 H 0.70766 0.34327 0.20146 0.0
H775 H 0.73439 0.35581 0.29715 0.0
H776 H 0.79164 0.33647 0.25993 0.0
H777 H 0.77081 0.33925 0.2785 0.0
C778 C 0.90188 0.44642 0.50368 0.0
C779 C 0.90743 0.44318 0.54253 0.0
C780 C 0.90081 0.45836 0.4922 0.0
C781 C 0.90389 0.48914 0.53644 0.0
H782 H 0.90416 0.49716 0.41453 0.0
C783 C 0.89681 0.53737 0.48057 0.0
C784 C 0.90276 0.54125 0.44332 0.0
C785 C 0.89675 0.52534 0.49169 0.0
C786 C 0.90425 0.49515 0.44877 0.0
H787 H 0.91631 0.44972 0.59984 0.0
H788 H 0.91519 0.4706 0.57865 0.0
H789 H 0.90605 0.47661 0.43633 0.0
H790 H 0.91335 0.53579 0.38842 0.0
H791 H 0.91396 0.51489 0.40905 0.0
H792 H 0.90306 0.50776 0.54897 0.0
C793 C 0.91118 0.46401 0.5577 0.0
C794 C 0.90509 0.48326 0.46135 0.0
C795 C 0.91193 0.45205 0.5698 0.0
C796 C 0.90861 0.53295 0.41713 0.0
C797 C 0.90887 0.52095 0.42892 0.0
C798 C 0.9034 0.50106 0.52388 0.0
C799 C 0.9056 0.46734 0.51868 0.0
C800 C 0.90484 0.48007 0.50537 0.0
C801 C 0.90297 0.51698 0.4665 0.0
C802 C 0.9035 0.50424 0.47984 0.0
H803 H 0.89819 0.43971 0.48244 0.0
H804 H 0.89613 0.4605 0.46262 0.0
H805 H 0.90347 0.4871 0.57061 0.0
H806 H 0.89211 0.54364 0.50098 0.0
H807 H 0.8918 0.52265 0.52008 0.0
C808 C 0.28812 0.3318 0.25148 0.0
C809 C 0.29152 0.33245 0.29518 0.0
C810 C 0.27621 0.33295 0.23968 0.0
C811 C 0.24593 0.32988 0.28225 0.0
H812 H 0.23733 0.34905 0.18265 0.0
C813 C 0.19716 0.33882 0.23757 0.0
C814 C 0.19415 0.33769 0.19364 0.0
C815 C 0.20904 0.339 0.25043 0.0
C816 C 0.23961 0.34359 0.21031 0.0
H817 H 0.28503 0.3348 0.36075 0.0
H818 H 0.26423 0.33683 0.34002 0.0
H819 H 0.25814 0.34761 0.20439 0.0
H820 H 0.20129 0.33612 0.12866 0.0
H821 H 0.22203 0.33628 0.15124 0.0
H822 H 0.22746 0.32574 0.28795 0.0
C823 C 0.2708 0.33534 0.31499 0.0
C824 C 0.25151 0.34277 0.22275 0.0
C825 C 0.28272 0.33422 0.32682 0.0
C826 C 0.2033 0.33701 0.16276 0.0
C827 C 0.21519 0.33717 0.17566 0.0
C828 C 0.23405 0.33069 0.26979 0.0
C829 C 0.26743 0.33474 0.2713 0.0
C830 C 0.25479 0.33586 0.25872 0.0
C831 C 0.21818 0.33802 0.21968 0.0
C832 C 0.23076 0.33751 0.23359 0.0
H833 H 0.29467 0.33043 0.22628 0.0
H834 H 0.27385 0.33229 0.2058 0.0
H835 H 0.24822 0.32436 0.30975 0.0
H836 H 0.19034 0.33946 0.26219 0.0
H837 H 0.21108 0.33986 0.28453 0.0
C838 C 0.40301 0.53973 -0.00552 0.0
C839 C 0.40413 0.54319 0.03798 0.0
C840 C 0.40309 0.52773 0.98314 0.0
C841 C 0.41425 0.49907 0.01987 0.0
H842 H 0.39214 0.48604 0.93611 0.0
C843 C 0.41232 0.44907 0.98206 0.0
C844 C 0.41031 0.44557 0.93904 0.0
C845 C 0.41144 0.46098 -0.00602 0.0
C846 C 0.39848 0.48958 0.95908 0.0
H847 H 0.40597 0.53675 0.10381 0.0
H848 H 0.4062 0.51571 0.08381 0.0
H849 H 0.39031 0.50679 0.95828 0.0
H850 H 0.40601 0.45189 0.87461 0.0
H851 H 0.40476 0.47281 0.89529 0.0
H852 H 0.42259 0.48199 0.02018 0.0
C853 C 0.4053 0.52234 0.0586 0.0
C854 C 0.39739 0.50144 0.97192 0.0
C855 C 0.4051 0.53437 0.07003 0.0
C856 C 0.40758 0.45429 0.90803 0.0
C857 C 0.40677 0.46626 0.91996 0.0
C858 C 0.41541 0.48725 0.00681 0.0
C859 C 0.40439 0.51894 0.01501 0.0
C860 C 0.40526 0.50628 0.00245 0.0
C861 C 0.40863 0.46972 0.96314 0.0
C862 C 0.40752 0.48236 0.97631 0.0
H863 H 0.40219 0.54631 0.969 0.0
H864 H 0.40247 0.52536 0.94927 0.0
H865 H 0.42057 0.50264 0.0429 0.0
H866 H 0.41436 0.44257 0.00688 0.0
H867 H 0.41274 0.4633 0.02764 0.0
C868 C 0.28282 0.6551 0.66196 0.0
C869 C 0.29181 0.65518 0.69353 0.0
C870 C 0.27087 0.65482 0.67412 0.0
C871 C 0.25094 0.64703 0.76399 0.0
H872 H 0.22923 0.66906 0.70844 0.0
C873 C 0.20318 0.65518 0.82621 0.0
C874 C 0.19424 0.65653 0.79487 0.0
C875 C 0.21513 0.65467 0.81392 0.0
C876 C 0.23514 0.66274 0.72388 0.0
H877 H 0.2953 0.65481 0.76261 0.0
H878 H 0.27445 0.65434 0.78366 0.0
H879 H 0.24998 0.66851 0.68606 0.0
H880 H 0.19081 0.65818 0.72599 0.0
H881 H 0.21154 0.6571 0.70469 0.0
H882 H 0.23607 0.64121 0.8017 0.0
C883 C 0.27666 0.65444 0.74957 0.0
C884 C 0.24702 0.66244 0.71106 0.0
C885 C 0.2886 0.65479 0.73746 0.0
C886 C 0.19747 0.65725 0.75104 0.0
C887 C 0.20938 0.65669 0.73879 0.0
C888 C 0.23903 0.64728 0.7767 0.0
C889 C 0.26769 0.65453 0.71804 0.0
C890 C 0.25503 0.6546 0.73103 0.0
C891 C 0.21835 0.65547 0.77006 0.0
C892 C 0.231 0.65516 0.7568 0.0
H893 H 0.285 0.65536 0.62785 0.0
H894 H 0.26412 0.65477 0.64915 0.0
H895 H 0.25691 0.64081 0.77961 0.0
H896 H 0.20098 0.65461 0.86025 0.0
H897 H 0.22185 0.65386 0.83883 0.0
C898 C 0.08005 0.45267 0.50581 0.0
C899 C 0.08068 0.44812 0.54811 0.0
C900 C 0.08126 0.46481 0.49818 0.0
C901 C 0.0774 0.49388 0.54703 0.0
H902 H 0.09732 0.50433 0.45183 0.0
C903 C 0.08234 0.54346 0.50036 0.0
C904 C 0.08199 0.54602 0.45584 0.0
C905 C 0.08325 0.53173 0.51484 0.0
C906 C 0.09166 0.50155 0.47832 0.0
H907 H 0.08295 0.45279 0.61568 0.0
H908 H 0.08491 0.4742 0.60217 0.0
H909 H 0.09695 0.48336 0.47195 0.0
H910 H 0.08229 0.53824 0.39164 0.0
H911 H 0.08364 0.51779 0.41688 0.0
H912 H 0.07179 0.512 0.55252 0.0
C913 C 0.08352 0.46826 0.57507 0.0
C914 C 0.09149 0.48956 0.48992 0.0
C915 C 0.08243 0.45603 0.58273 0.0
C916 C 0.08259 0.53659 0.42614 0.0
C917 C 0.08345 0.52487 0.44062 0.0
C918 C 0.07751 0.50588 0.53526 0.0
C919 C 0.08304 0.47272 0.53264 0.0
C920 C 0.08418 0.48559 0.52378 0.0
C921 C 0.0838 0.5223 0.48511 0.0
C922 C 0.08446 0.5098 0.50019 0.0
H923 H 0.07873 0.44684 0.47835 0.0
H924 H 0.08067 0.46804 0.46522 0.0
H925 H 0.07163 0.49101 0.57308 0.0
H926 H 0.08197 0.55052 0.52411 0.0
H927 H 0.08362 0.53004 0.54931 0.0
C928 C 0.16061 0.13412 0.95189 0.0
C929 C 0.15505 0.14415 0.9699 0.0
C930 C 0.15565 0.12846 0.91599 0.0
C931 C 0.13285 0.13111 0.83005 0.0
H932 H 0.12804 0.09744 0.8519 0.0
C933 C 0.09724 0.10471 0.73938 0.0
C934 C 0.10059 0.09355 0.72303 0.0
C935 C 0.1045 0.11063 0.7689 0.0
C936 C 0.12942 0.10679 0.84503 0.0
H937 H 0.14066 0.15681 0.96206 0.0
H938 H 0.13204 0.14698 0.89949 0.0
H939 H 0.14091 0.10893 0.89954 0.0
H940 H 0.11382 0.07954 0.72654 0.0
H941 H 0.12653 0.08991 0.77806 0.0
H942 H 0.12121 0.129 0.77593 0.0
C943 C 0.14018 0.14343 0.91306 0.0
C944 C 0.13685 0.11336 0.87215 0.0
C945 C 0.14511 0.14905 0.94902 0.0
C946 C 0.11099 0.08812 0.73864 0.0
C947 C 0.11828 0.09407 0.76813 0.0
C948 C 0.12544 0.12453 0.80289 0.0
C949 C 0.14511 0.1328 0.89738 0.0
C950 C 0.13849 0.12562 0.86531 0.0
C951 C 0.11527 0.10553 0.78258 0.0
C952 C 0.1235 0.11235 0.81054 0.0
H953 H 0.16833 0.13016 0.96717 0.0
H954 H 0.15974 0.12038 0.90403 0.0
H955 H 0.13405 0.14051 0.82378 0.0
H956 H 0.08923 0.10908 0.72816 0.0
H957 H 0.1018 0.11933 0.78033 0.0
C958 C 0.15997 0.85942 0.02376 0.0
C959 C 0.15455 0.84858 0.01266 0.0
C960 C 0.15644 0.86551 0.06102 0.0
C961 C 0.13863 0.86266 0.16179 0.0
H962 H 0.12928 0.89519 0.13695 0.0
C963 C 0.10083 0.88535 0.25236 0.0
C964 C 0.10257 0.89703 0.26716 0.0
C965 C 0.109 0.8801 0.22446 0.0
C966 C 0.13202 0.88619 0.14465 0.0
H967 H 0.14197 0.83512 0.03347 0.0
H968 H 0.13582 0.84568 0.09811 0.0
H969 H 0.14152 0.88433 0.08512 0.0
H970 H 0.11401 0.91254 0.26302 0.0
H971 H 0.12827 0.90334 0.21343 0.0
H972 H 0.12869 0.86436 0.22041 0.0
C973 C 0.14279 0.84953 0.07833 0.0
C974 C 0.13907 0.87998 0.11511 0.0
C975 C 0.14625 0.84349 0.04108 0.0
C976 C 0.11243 0.90353 0.2521 0.0
C977 C 0.12059 0.89827 0.22384 0.0
C978 C 0.13156 0.86884 0.19117 0.0
C979 C 0.14753 0.86079 0.08789 0.0
C980 C 0.14213 0.86802 0.12277 0.0
C981 C 0.11907 0.88642 0.21055 0.0
C982 C 0.12787 0.88053 0.1822 0.0
H983 H 0.16642 0.86353 0.00246 0.0
H984 H 0.16035 0.87411 0.06791 0.0
H985 H 0.14102 0.85353 0.16891 0.0
H986 H 0.09331 0.88012 0.26324 0.0
H987 H 0.10747 0.87104 0.21391 0.0
C988 C 0.37855 0.90592 0.25127 0.0
C989 C 0.38888 0.89993 0.23787 0.0
C990 C 0.37169 0.9014 0.28524 0.0
C991 C 0.37228 0.87997 0.37624 0.0
H992 H 0.33867 0.87595 0.35199 0.0
C993 C 0.34497 0.84585 0.46846 0.0
C994 C 0.33429 0.84988 0.48683 0.0
C995 C 0.35077 0.85261 0.43715 0.0
C996 C 0.34801 0.87713 0.35935 0.0
H997 H 0.40051 0.88497 0.25101 0.0
H998 H 0.38863 0.87714 0.31006 0.0
H999 H 0.35102 0.88776 0.30285 0.0
H1000 H 0.32083 0.8637 0.48444 0.0
H1001 H 0.33102 0.87553 0.42925 0.0
H1002 H 0.36939 0.86913 0.43204 0.0
C1003 C 0.3858 0.88531 0.29458 0.0
C1004 C 0.35506 0.88393 0.33144 0.0
C1005 C 0.39258 0.88977 0.26056 0.0
C1006 C 0.32906 0.86037 0.47085 0.0
C1007 C 0.33489 0.86715 0.43936 0.0
C1008 C 0.36527 0.87315 0.40393 0.0
C1009 C 0.37513 0.8909 0.30659 0.0
C1010 C 0.36732 0.88519 0.33914 0.0
C1011 C 0.34602 0.86354 0.42353 0.0
C1012 C 0.35313 0.87143 0.39523 0.0
H1013 H 0.37548 0.91377 0.23424 0.0
H1014 H 0.36356 0.90594 0.29417 0.0
H1015 H 0.38166 0.88096 0.38342 0.0
H1016 H 0.34916 0.83775 0.47978 0.0
H1017 H 0.3592 0.84948 0.42464 0.0
C1018 C 0.3737 0.08176 0.74978 0.0
C1019 C 0.38382 0.08816 0.76286 0.0
C1020 C 0.36542 0.08694 0.72165 0.0
C1021 C 0.35477 0.11644 0.68986 0.0
H1022 H 0.34319 0.10155 0.58503 0.0
C1023 C 0.33937 0.14267 0.54286 0.0
C1024 C 0.33048 0.13805 0.51584 0.0
C1025 C 0.34307 0.13636 0.57925 0.0
C1026 C 0.3461 0.10572 0.61475 0.0
H1027 H 0.39358 0.10468 0.75467 0.0
H1028 H 0.37924 0.11361 0.70575 0.0
H1029 H 0.35573 0.09019 0.63476 0.0
H1030 H 0.31788 0.12363 0.50725 0.0
H1031 H 0.32439 0.11255 0.57118 0.0
H1032 H 0.34549 0.13207 0.66949 0.0
C1033 C 0.37757 0.10472 0.71782 0.0
C1034 C 0.35332 0.09923 0.64304 0.0
C1035 C 0.38582 0.09955 0.74555 0.0
C1036 C 0.32477 0.12739 0.52753 0.0
C1037 C 0.32855 0.12101 0.56388 0.0
C1038 C 0.34754 0.12289 0.6618 0.0
C1039 C 0.36713 0.09861 0.70658 0.0
C1040 C 0.35807 0.1047 0.67997 0.0
C1041 C 0.33798 0.12527 0.58931 0.0
C1042 C 0.34349 0.11775 0.62317 0.0
H1043 H 0.37192 0.07297 0.76265 0.0
H1044 H 0.35747 0.08204 0.71314 0.0
H1045 H 0.35812 0.12076 0.71871 0.0
H1046 H 0.3439 0.15088 0.53472 0.0
H1047 H 0.35043 0.13984 0.59792 0.0
C1048 C 0.82196 0.85749 0.02637 0.0
C1049 C 0.82748 0.84685 0.01363 0.0
C1050 C 0.82542 0.86316 0.06459 0.0
C1051 C 0.84321 0.85955 0.16486 0.0
H1052 H 0.85366 0.89179 0.14087 0.0
C1053 C 0.88196 0.88055 0.25552 0.0
C1054 C 0.88109 0.89247 0.26877 0.0
C1055 C 0.8734 0.87562 0.22839 0.0
C1056 C 0.8506 0.88289 0.14846 0.0
H1057 H 0.84007 0.8332 0.03259 0.0
H1058 H 0.84602 0.843 0.09915 0.0
H1059 H 0.84095 0.88151 0.08908 0.0
H1060 H 0.87073 0.90867 0.26301 0.0
H1061 H 0.85574 0.90002 0.21506 0.0
H1062 H 0.85324 0.86076 0.22343 0.0
C1063 C 0.83908 0.84703 0.0798 0.0
C1064 C 0.84328 0.87701 0.11889 0.0
C1065 C 0.83572 0.84144 0.04151 0.0
C1066 C 0.87166 0.89947 0.25319 0.0
C1067 C 0.86307 0.89452 0.22586 0.0
C1068 C 0.85051 0.86542 0.1944 0.0
C1069 C 0.83433 0.85818 0.09082 0.0
C1070 C 0.83986 0.86514 0.12613 0.0
C1071 C 0.86375 0.88248 0.21386 0.0
C1072 C 0.85462 0.87699 0.18574 0.0
H1073 H 0.81557 0.86186 0.00549 0.0
H1074 H 0.82153 0.8717 0.07261 0.0
H1075 H 0.84056 0.85046 0.17154 0.0
H1076 H 0.88914 0.87493 0.26679 0.0
H1077 H 0.87434 0.86641 0.21879 0.0
C1078 C 0.8451 0.14392 0.95784 0.0
C1079 C 0.83501 0.13988 0.98021 0.0
C1080 C 0.84962 0.13744 0.92316 0.0
C1081 C 0.85121 0.10672 0.8859 0.0
H1082 H 0.86735 0.12107 0.78811 0.0
C1083 C 0.87618 0.08059 0.75069 0.0
C1084 C 0.88696 0.08565 0.73691 0.0
C1085 C 0.86903 0.08652 0.78072 0.0
C1086 C 0.86293 0.11695 0.81544 0.0
H1087 H 0.82121 0.1264 0.98189 0.0
H1088 H 0.8291 0.1151 0.92079 0.0
H1089 H 0.85504 0.1334 0.83493 0.0
H1090 H 0.8992 0.10035 0.7464 0.0
H1091 H 0.8868 0.11059 0.799 0.0
H1092 H 0.85926 0.09028 0.86645 0.0
C1093 C 0.83359 0.12318 0.93061 0.0
C1094 C 0.85585 0.12399 0.84209 0.0
C1095 C 0.82903 0.1297 0.9653 0.0
C1096 C 0.89088 0.09628 0.75605 0.0
C1097 C 0.88374 0.1022 0.78587 0.0
C1098 C 0.85826 0.09965 0.85903 0.0
C1099 C 0.84415 0.12679 0.91013 0.0
C1100 C 0.85014 0.11902 0.87821 0.0
C1101 C 0.87256 0.09761 0.79726 0.0
C1102 C 0.86442 0.10478 0.82422 0.0
H1103 H 0.84988 0.15175 0.96851 0.0
H1104 H 0.85782 0.14042 0.9083 0.0
H1105 H 0.84703 0.10265 0.91381 0.0
H1106 H 0.87293 0.0724 0.73647 0.0
H1107 H 0.86046 0.08277 0.78915 0.0
C1108 C 0.59376 0.09325 0.70889 0.0
C1109 C 0.59814 0.08376 0.73371 0.0
C1110 C 0.60042 0.09788 0.67491 0.0
C1111 C 0.6313 0.10161 0.64186 0.0
H1112 H 0.61666 0.11484 0.53898 0.0
C1113 C 0.65598 0.12734 0.5039 0.0
C1114 C 0.65002 0.13751 0.4886 0.0
C1115 C 0.65063 0.11997 0.53476 0.0
C1116 C 0.62085 0.11123 0.56768 0.0
H1117 H 0.61265 0.07122 0.74106 0.0
H1118 H 0.62437 0.07934 0.6811 0.0
H1119 H 0.60506 0.10202 0.58646 0.0
H1120 H 0.63428 0.14847 0.49625 0.0
H1121 H 0.62503 0.13566 0.55008 0.0
H1122 H 0.6471 0.11099 0.6229 0.0
C1123 C 0.6158 0.08324 0.68837 0.0
C1124 C 0.61423 0.10386 0.59475 0.0
C1125 C 0.60905 0.07854 0.72237 0.0
C1126 C 0.63905 0.14065 0.50707 0.0
C1127 C 0.63371 0.13327 0.53762 0.0
C1128 C 0.63798 0.10895 0.61449 0.0
C1129 C 0.61166 0.09315 0.66499 0.0
C1130 C 0.61927 0.09925 0.63278 0.0
C1131 C 0.63924 0.12265 0.5505 0.0
C1132 C 0.63268 0.11409 0.57787 0.0
H1133 H 0.58536 0.09744 0.71681 0.0
H1134 H 0.59703 0.10559 0.65789 0.0
H1135 H 0.6354 0.09828 0.67116 0.0
H1136 H 0.66445 0.12471 0.49028 0.0
H1137 H 0.65509 0.11185 0.5444 0.0
C1138 C 0.65428 0.86398 0.49387 0.0
C1139 C 0.6476 0.85435 0.50978 0.0
C1140 C 0.64914 0.87215 0.4652 0.0
C1141 C 0.61975 0.88353 0.43389 0.0
H1142 H 0.6347 0.89322 0.32654 0.0
C1143 C 0.5937 0.89781 0.28495 0.0
C1144 C 0.59837 0.90648 0.25702 0.0
C1145 C 0.60002 0.89427 0.32148 0.0
C1146 C 0.63052 0.89083 0.35689 0.0
H1147 H 0.63053 0.84538 0.50648 0.0
H1148 H 0.62167 0.85949 0.45648 0.0
H1149 H 0.64577 0.88095 0.37802 0.0
H1150 H 0.61298 0.91875 0.24658 0.0
H1151 H 0.62413 0.91245 0.31069 0.0
H1152 H 0.60437 0.89301 0.41226 0.0
C1153 C 0.63077 0.8609 0.46677 0.0
C1154 C 0.63684 0.88378 0.38622 0.0
C1155 C 0.63589 0.85275 0.49511 0.0
C1156 C 0.60917 0.91206 0.26766 0.0
C1157 C 0.61558 0.9084 0.3041 0.0
C1158 C 0.61345 0.89057 0.40469 0.0
C1159 C 0.63723 0.87082 0.45232 0.0
C1160 C 0.63134 0.87971 0.42423 0.0
C1161 C 0.6112 0.89925 0.3307 0.0
C1162 C 0.61862 0.89394 0.36522 0.0
H1163 H 0.66332 0.86544 0.50469 0.0
H1164 H 0.65432 0.8797 0.45432 0.0
H1165 H 0.6154 0.88075 0.46349 0.0
H1166 H 0.58539 0.89338 0.27758 0.0
H1167 H 0.59646 0.88712 0.34108 0.0
C1168 C 0.64256 0.64199 0.4632 0.0
C1169 C 0.65234 0.63825 0.48786 0.0
C1170 C 0.63829 0.63496 0.42963 0.0
C1171 C 0.63633 0.60386 0.39719 0.0
H1172 H 0.62218 0.61775 0.29455 0.0
C1173 C 0.61144 0.57866 0.25747 0.0
C1174 C 0.60087 0.58425 0.2441 0.0
C1175 C 0.61866 0.58398 0.28885 0.0
C1176 C 0.62608 0.61376 0.32313 0.0
H1177 H 0.66572 0.62452 0.49546 0.0
H1178 H 0.65822 0.61216 0.4362 0.0
H1179 H 0.63453 0.63002 0.34136 0.0
H1180 H 0.58896 0.59907 0.25612 0.0
H1181 H 0.60152 0.60827 0.31071 0.0
H1182 H 0.62771 0.58758 0.37865 0.0
C1183 C 0.65383 0.62051 0.44326 0.0
C1184 C 0.63316 0.62076 0.34984 0.0
C1185 C 0.65817 0.62762 0.47685 0.0
C1186 C 0.59712 0.59462 0.26535 0.0
C1187 C 0.60434 0.59994 0.29639 0.0
C1188 C 0.6293 0.5968 0.37011 0.0
C1189 C 0.64368 0.624 0.41995 0.0
C1190 C 0.63804 0.61601 0.3879 0.0
C1191 C 0.61539 0.59494 0.30698 0.0
C1192 C 0.62381 0.60183 0.33367 0.0
H1193 H 0.6379 0.65015 0.4709 0.0
H1194 H 0.63037 0.63785 0.41268 0.0
H1195 H 0.63991 0.59997 0.42648 0.0
H1196 H 0.61454 0.57064 0.24167 0.0
H1197 H 0.62713 0.57994 0.2968 0.0
C1198 C 0.60234 0.38189 0.76461 0.0
C1199 C 0.60355 0.39376 0.77806 0.0
C1200 C 0.61073 0.37678 0.73723 0.0
C1201 C 0.63357 0.38359 0.65693 0.0
H1202 H 0.6428 0.35087 0.67898 0.0
C1203 C 0.66202 0.35781 0.53515 0.0
C1204 C 0.65648 0.34719 0.52208 0.0
C1205 C 0.65842 0.36353 0.57305 0.0
C1206 C 0.64036 0.36003 0.67257 0.0
H1207 H 0.61433 0.40969 0.77251 0.0
H1208 H 0.62905 0.40071 0.72417 0.0
H1209 H 0.63044 0.36137 0.73133 0.0
H1210 H 0.64362 0.3337 0.54015 0.0
H1211 H 0.6374 0.34361 0.60621 0.0
H1212 H 0.64313 0.38209 0.5974 0.0
C1213 C 0.62158 0.39539 0.73499 0.0
C1214 C 0.63325 0.36602 0.70238 0.0
C1215 C 0.61316 0.40053 0.76256 0.0
C1216 C 0.64801 0.3419 0.54931 0.0
C1217 C 0.64449 0.34756 0.5873 0.0
C1218 C 0.6407 0.37759 0.62709 0.0
C1219 C 0.62054 0.3834 0.72267 0.0
C1220 C 0.62946 0.37772 0.69415 0.0
C1221 C 0.64933 0.35865 0.59869 0.0
C1222 C 0.64384 0.36562 0.63399 0.0
H1223 H 0.59501 0.37645 0.77578 0.0
H1224 H 0.60952 0.36761 0.72741 0.0
H1225 H 0.63074 0.39258 0.64966 0.0
H1226 H 0.66861 0.36208 0.51483 0.0
H1227 H 0.6624 0.372 0.58139 0.0
C1228 C 0.87702 0.40329 0.75007 0.0
C1229 C 0.8873 0.39725 0.73652 0.0
C1230 C 0.86925 0.39799 0.77973 0.0
C1231 C 0.86033 0.36821 0.81469 0.0
H1232 H 0.84614 0.38387 0.91364 0.0
C1233 C 0.84151 0.34308 0.9598 0.0
C1234 C 0.83182 0.34785 0.98252 0.0
C1235 C 0.84625 0.34911 0.92438 0.0
C1236 C 0.84983 0.37945 0.88557 0.0
H1237 H 0.89803 0.38141 0.74589 0.0
H1238 H 0.8846 0.37228 0.79787 0.0
H1239 H 0.85918 0.39513 0.86535 0.0
H1240 H 0.81894 0.36221 0.98427 0.0
H1241 H 0.82723 0.37274 0.92196 0.0
H1242 H 0.85121 0.35249 0.83515 0.0
C1243 C 0.88237 0.38095 0.78482 0.0
C1244 C 0.85734 0.38588 0.85814 0.0
C1245 C 0.89011 0.38623 0.75536 0.0
C1246 C 0.82643 0.35834 0.96737 0.0
C1247 C 0.83123 0.36441 0.93198 0.0
C1248 C 0.85282 0.3618 0.84194 0.0
C1249 C 0.87168 0.38658 0.79611 0.0
C1250 C 0.86291 0.38021 0.82318 0.0
C1251 C 0.84141 0.36003 0.91102 0.0
C1252 C 0.84774 0.36727 0.8783 0.0
H1253 H 0.87463 0.41179 0.73604 0.0
H1254 H 0.86108 0.40254 0.78811 0.0
H1255 H 0.86429 0.3637 0.78727 0.0
H1256 H 0.84582 0.335 0.97067 0.0
H1257 H 0.85415 0.34554 0.90913 0.0
C1258 C 0.87687 0.58145 0.2259 0.0
C1259 C 0.88731 0.58679 0.24159 0.0
C1260 C 0.87055 0.58672 0.19197 0.0
C1261 C 0.87268 0.60946 0.10554 0.0
H1262 H 0.83904 0.61419 0.12762 0.0
C1263 C 0.84689 0.64501 0.01459 0.0
C1264 C 0.83622 0.64136 -0.00492 0.0
C1265 C 0.8523 0.63795 0.04594 0.0
C1266 C 0.84839 0.61283 0.12086 0.0
H1267 H 0.89978 0.6013 0.23228 0.0
H1268 H 0.88882 0.61042 0.17329 0.0
H1269 H 0.85067 0.60138 0.17561 0.0
H1270 H 0.82235 0.62795 -0.00446 0.0
H1271 H 0.83185 0.61557 0.05068 0.0
H1272 H 0.87048 0.62107 0.05139 0.0
C1273 C 0.88548 0.60221 0.18699 0.0
C1274 C 0.85504 0.60546 0.14811 0.0
C1275 C 0.89174 0.597 0.22094 0.0
C1276 C 0.83057 0.63099 0.01005 0.0
C1277 C 0.83602 0.62389 0.04151 0.0
C1278 C 0.86606 0.61684 0.07848 0.0
C1279 C 0.87464 0.59733 0.17299 0.0
C1280 C 0.8673 0.60388 0.14114 0.0
C1281 C 0.84717 0.62708 0.05838 0.0
C1282 C 0.85391 0.61879 0.08636 0.0
H1283 H 0.87325 0.57358 0.24124 0.0
H1284 H 0.8623 0.58269 0.18139 0.0
H1285 H 0.88206 0.60825 0.09894 0.0
H1286 H 0.85139 0.65303 0.00405 0.0
H1287 H 0.86075 0.64077 0.05928 0.0
C1288 C 0.34128 0.3435 0.53103 0.0
C1289 C 0.33194 0.34787 0.50547 0.0
C1290 C 0.34514 0.34983 0.56708 0.0
C1291 C 0.34739 0.38034 0.6046 0.0
H1292 H 0.36011 0.36513 0.70722 0.0
C1293 C 0.37395 0.40456 0.74152 0.0
C1294 C 0.38423 0.39844 0.75481 0.0
C1295 C 0.36598 0.39923 0.71262 0.0
C1296 C 0.35658 0.3695 0.67872 0.0
H1297 H 0.31883 0.36191 0.49894 0.0
H1298 H 0.32563 0.37303 0.56227 0.0
H1299 H 0.34783 0.35367 0.65741 0.0
H1300 H 0.39463 0.38235 0.74614 0.0
H1301 H 0.38084 0.37318 0.69579 0.0
H1302 H 0.35648 0.3961 0.62557 0.0
C1303 C 0.32999 0.36474 0.55411 0.0
C1304 C 0.34955 0.36295 0.65032 0.0
C1305 C 0.32606 0.35833 0.51811 0.0
C1306 C 0.38673 0.38725 0.7369 0.0
C1307 C 0.37879 0.38194 0.70833 0.0
C1308 C 0.35442 0.38692 0.6332 0.0
C1309 C 0.33977 0.3607 0.57824 0.0
C1310 C 0.34522 0.36819 0.61223 0.0
C1311 C 0.36818 0.38771 0.69692 0.0
C1312 C 0.35941 0.38142 0.66968 0.0
H1313 H 0.34597 0.33545 0.52211 0.0
H1314 H 0.35278 0.34654 0.58475 0.0
H1315 H 0.34425 0.38459 0.57529 0.0
H1316 H 0.3718 0.4132 0.75486 0.0
H1317 H 0.35789 0.40388 0.70403 0.0
C1318 C 0.34407 0.64543 0.46047 0.0
C1319 C 0.33419 0.64095 0.48293 0.0
C1320 C 0.34891 0.63912 0.42598 0.0
C1321 C 0.35214 0.60846 0.3898 0.0
H1322 H 0.36734 0.62338 0.29115 0.0
C1323 C 0.37813 0.58331 0.25472 0.0
C1324 C 0.3885 0.58897 0.23977 0.0
C1325 C 0.37084 0.58892 0.28513 0.0
C1326 C 0.3632 0.61911 0.31874 0.0
H1327 H 0.32108 0.62681 0.48504 0.0
H1328 H 0.32954 0.61577 0.42428 0.0
H1329 H 0.35444 0.63515 0.33771 0.0
H1330 H 0.39992 0.60438 0.24772 0.0
H1331 H 0.3873 0.61403 0.30107 0.0
H1332 H 0.36107 0.59243 0.37088 0.0
C1333 C 0.33362 0.62409 0.43384 0.0
C1334 C 0.35578 0.62583 0.34523 0.0
C1335 C 0.32872 0.63046 0.46831 0.0
C1336 C 0.39192 0.59985 0.25826 0.0
C1337 C 0.38465 0.60543 0.28851 0.0
C1338 C 0.35955 0.60171 0.36311 0.0
C1339 C 0.34399 0.62818 0.41327 0.0
C1340 C 0.35038 0.62065 0.38161 0.0
C1341 C 0.37381 0.60025 0.30093 0.0
C1342 C 0.36537 0.60706 0.32797 0.0
H1343 H 0.34846 0.65352 0.47094 0.0
H1344 H 0.35695 0.64247 0.41103 0.0
H1345 H 0.34822 0.60425 0.41792 0.0
H1346 H 0.37527 0.57492 0.24102 0.0
H1347 H 0.36255 0.5847 0.29434 0.0
C1348 C 0.13764 0.63892 0.01034 0.0
C1349 C 0.14862 0.63594 0.99168 0.0
C1350 C 0.13206 0.63111 0.03879 0.0
C1351 C 0.13576 0.6059 0.11137 0.0
H1352 H 0.10264 0.60018 0.08286 0.0
C1353 C 0.10618 0.57719 0.22112 0.0
C1354 C 0.09573 0.58315 0.23342 0.0
C1355 C 0.11275 0.58116 0.18552 0.0
C1356 C 0.11188 0.60166 0.09118 0.0
H1357 H 0.16283 0.62288 0.99077 0.0
H1358 H 0.15306 0.60924 0.04145 0.0
H1359 H 0.11468 0.61287 0.03622 0.0
H1360 H 0.08339 0.59719 0.2161 0.0
H1361 H 0.09477 0.60408 0.15433 0.0
H1362 H 0.13282 0.59512 0.16743 0.0
C1363 C 0.14877 0.61759 0.03347 0.0
C1364 C 0.11875 0.60894 0.0646 0.0
C1365 C 0.15436 0.62541 0.00466 0.0
C1366 C 0.09144 0.59246 0.2075 0.0
C1367 C 0.09795 0.59637 0.17191 0.0
C1368 C 0.12885 0.59866 0.13823 0.0
C1369 C 0.13737 0.62019 0.04938 0.0
C1370 C 0.13064 0.61141 0.07518 0.0
C1371 C 0.1089 0.59106 0.16151 0.0
C1372 C 0.11674 0.59677 0.12905 0.0
H1373 H 0.13304 0.64702 0.00132 0.0
H1374 H 0.12339 0.63344 0.05152 0.0
H1375 H 0.14492 0.60766 0.12009 0.0
H1376 H 0.10968 0.56997 0.24051 0.0
H1377 H 0.12107 0.5768 0.17785 0.0
C1378 C 0.11181 0.40144 0.73981 0.0
C1379 C 0.10146 0.39618 0.72305 0.0
C1380 C 0.11854 0.3955 0.77116 0.0
C1381 C 0.11693 0.37126 0.85151 0.0
H1382 H 0.15106 0.3691 0.8349 0.0
C1383 C 0.14382 0.33906 0.95299 0.0
C1384 C 0.15352 0.34419 0.97465 0.0
C1385 C 0.13867 0.34485 0.91782 0.0
C1386 C 0.14155 0.36968 0.83996 0.0
H1387 H 0.08976 0.38086 0.72711 0.0
H1388 H 0.10143 0.37057 0.78152 0.0
H1389 H 0.13913 0.38137 0.78588 0.0
H1390 H 0.1662 0.35873 0.97388 0.0
H1391 H 0.15712 0.3689 0.91248 0.0
H1392 H 0.11927 0.35962 0.90537 0.0
C1393 C 0.10436 0.37926 0.77073 0.0
C1394 C 0.13474 0.37675 0.81216 0.0
C1395 C 0.0977 0.38515 0.73941 0.0
C1396 C 0.15871 0.35459 0.95786 0.0
C1397 C 0.1535 0.36042 0.9227 0.0
C1398 C 0.12371 0.3642 0.8791 0.0
C1399 C 0.11496 0.38427 0.78642 0.0
C1400 C 0.12235 0.37751 0.81749 0.0
C1401 C 0.14309 0.35589 0.90381 0.0
C1402 C 0.13606 0.36323 0.87338 0.0
H1403 H 0.11493 0.40993 0.72768 0.0
H1404 H 0.1266 0.39962 0.78311 0.0
H1405 H 0.10743 0.37185 0.85689 0.0
H1406 H 0.13973 0.33096 0.96488 0.0
H1407 H 0.13083 0.341 0.90305 0.0
C1408 C 0.15703 0.28946 0.10513 0.0
C1409 C 0.15393 0.29453 0.14516 0.0
C1410 C 0.15789 0.2771 0.10073 0.0
C1411 C 0.16337 0.25051 0.16605 0.0
H1412 H 0.14848 0.2329 0.0728 0.0
C1413 C 0.15475 0.20079 0.17929 0.0
C1414 C 0.15718 0.19351 0.14347 0.0
C1415 C 0.15508 0.21312 0.17544 0.0
C1416 C 0.15284 0.23773 0.09861 0.0
H1417 H 0.14892 0.29058 0.21149 0.0
H1418 H 0.15041 0.26915 0.2037 0.0
H1419 H 0.14756 0.25469 0.07313 0.0
H1420 H 0.16169 0.19349 0.07521 0.0
H1421 H 0.16228 0.2152 0.06856 0.0
H1422 H 0.16852 0.23367 0.19197 0.0
C1423 C 0.15233 0.27471 0.17592 0.0
C1424 C 0.1523 0.25017 0.09882 0.0
C1425 C 0.15141 0.287 0.18027 0.0
C1426 C 0.15979 0.19886 0.10343 0.0
C1427 C 0.16009 0.21127 0.09956 0.0
C1428 C 0.16393 0.23814 0.1658 0.0
C1429 C 0.15575 0.26965 0.13637 0.0
C1430 C 0.1573 0.25662 0.13318 0.0
C1431 C 0.15786 0.21849 0.13571 0.0
C1432 C 0.1584 0.23161 0.13273 0.0
H1433 H 0.159 0.29502 0.07742 0.0
H1434 H 0.16055 0.2734 0.06989 0.0
H1435 H 0.16753 0.2553 0.1924 0.0
H1436 H 0.15264 0.19699 0.21057 0.0
H1437 H 0.15309 0.21846 0.20366 0.0
C1438 C 0.94683 0.90452 0.30869 0.0
C1439 C 0.94512 0.89773 0.34641 0.0
C1440 C 0.95812 0.90533 0.28989 0.0
C1441 C 0.98397 0.91379 0.29361 0.0
H1442 H 0.00711 0.88821 0.29395 0.0
C1443 C 0.02966 0.91721 0.36785 0.0
C1444 C 0.03942 0.91134 0.34942 0.0
C1445 C 0.0185 0.91657 0.34847 0.0
C1446 C 0.00077 0.89545 0.29248 0.0
H1447 H 0.95353 0.88566 0.39174 0.0
H1448 H 0.97312 0.88695 0.3588 0.0
H1449 H 0.98591 0.88351 0.29273 0.0
H1450 H 0.04538 0.90066 0.29528 0.0
H1451 H 0.0256 0.89917 0.26196 0.0
H1452 H -0.00119 0.9257 0.29693 0.0
C1453 C 0.96582 0.89169 0.34374 0.0
C1454 C 0.98864 0.89275 0.29208 0.0
C1455 C 0.95462 0.89104 0.3629 0.0
C1456 C 0.03796 0.90528 0.31004 0.0
C1457 C 0.02669 0.90442 0.29105 0.0
C1458 C -0.00391 0.91648 0.2944 0.0
C1459 C 0.96778 0.89918 0.30803 0.0
C1460 C 0.98015 0.90189 0.29496 0.0
C1461 C 0.01683 0.90987 0.31064 0.0
C1462 C 0.00456 0.90731 0.29616 0.0
H1463 H 0.93964 0.90977 0.29531 0.0
H1464 H 0.95941 0.91116 0.26236 0.0
H1465 H 0.97764 0.92102 0.29601 0.0
H1466 H 0.03057 0.922 0.39805 0.0
H1467 H 0.01104 0.92072 0.36463 0.0
C1468 C 0.32814 0.79007 0.58841 0.0
C1469 C 0.33212 0.79443 0.62848 0.0
C1470 C 0.32978 0.77808 0.57764 0.0
C1471 C 0.34747 0.75159 0.60652 0.0
H1472 H 0.31928 0.73342 0.57738 0.0
C1473 C 0.34152 0.70324 0.6557 0.0
C1474 C 0.33577 0.69523 0.62786 0.0
C1475 C 0.34245 0.71523 0.64486 0.0
C1476 C 0.3273 0.73839 0.58447 0.0
H1477 H 0.34123 0.78977 0.68805 0.0
H1478 H 0.34409 0.76902 0.66923 0.0
H1479 H 0.31844 0.75515 0.57742 0.0
H1480 H 0.32669 0.69348 0.56626 0.0
H1481 H 0.32823 0.71461 0.5475 0.0
H1482 H 0.3562 0.73487 0.61549 0.0
C1483 C 0.33976 0.77481 0.64606 0.0
C1484 C 0.32682 0.75082 0.5845 0.0
C1485 C 0.338 0.78668 0.65701 0.0
C1486 C 0.33117 0.69945 0.58841 0.0
C1487 C 0.33201 0.71152 0.5777 0.0
C1488 C 0.34796 0.73921 0.60643 0.0
C1489 C 0.3356 0.77036 0.60646 0.0
C1490 C 0.33677 0.7575 0.59726 0.0
C1491 C 0.33761 0.71953 0.606 0.0
C1492 C 0.33775 0.73248 0.59717 0.0
H1493 H 0.32358 0.79584 0.56578 0.0
H1494 H 0.32648 0.77483 0.54692 0.0
H1495 H 0.35533 0.75656 0.61573 0.0
H1496 H 0.3452 0.7003 0.68626 0.0
H1497 H 0.34664 0.72122 0.66769 0.0
C1498 C 0.4534 0.09739 0.87514 0.0
C1499 C 0.4451 0.08966 0.85631 0.0
C1500 C 0.46451 0.09906 0.85628 0.0
C1501 C 0.48625 0.08237 0.79721 0.0
H1502 H 0.50385 0.1119 0.80791 0.0
C1503 C 0.53731 0.08288 0.81061 0.0
C1504 C 0.54075 0.08843 0.84938 0.0
C1505 C 0.52587 0.08462 0.79396 0.0
C1506 C 0.49904 0.10362 0.80405 0.0
H1507 H 0.44166 0.07802 0.80183 0.0
H1508 H 0.46136 0.08073 0.7692 0.0
H1509 H 0.48215 0.11226 0.80904 0.0
H1510 H 0.53522 0.1007 0.89962 0.0
H1511 H 0.51541 0.10376 0.87068 0.0
H1512 H 0.50314 0.07364 0.79544 0.0
C1513 C 0.45916 0.08556 0.79842 0.0
C1514 C 0.48665 0.10382 0.80469 0.0
C1515 C 0.44792 0.08402 0.81706 0.0
C1516 C 0.53279 0.09621 0.86991 0.0
C1517 C 0.52148 0.09808 0.853 0.0
C1518 C 0.49867 0.08217 0.79654 0.0
C1519 C 0.46763 0.09294 0.81836 0.0
C1520 C 0.48017 0.09314 0.80386 0.0
C1521 C 0.5178 0.09213 0.8154 0.0
C1522 C 0.50515 0.09272 0.80253 0.0
H1523 H 0.45144 0.10194 0.90518 0.0
H1524 H 0.4709 0.10465 0.87283 0.0
H1525 H 0.48149 0.07399 0.79665 0.0
H1526 H 0.54328 0.07685 0.79407 0.0
H1527 H 0.52323 0.07991 0.76496 0.0
C1528 C 0.14323 0.78496 0.8526 0.0
C1529 C 0.15019 0.7932 0.87547 0.0
C1530 C 0.14243 0.77321 0.86645 0.0
C1531 C 0.15906 0.75028 0.92022 0.0
H1532 H 0.12909 0.73338 0.91125 0.0
C1533 C 0.15626 0.69884 0.91181 0.0
C1534 C 0.15027 0.69526 0.87409 0.0
C1535 C 0.1554 0.71061 0.92629 0.0
C1536 C 0.1375 0.73798 0.91446 0.0
H1537 H 0.16169 0.79562 0.93109 0.0
H1538 H 0.1605 0.77479 0.95482 0.0
H1539 H 0.12923 0.75509 0.91084 0.0
H1540 H 0.13826 0.70096 0.82323 0.0
H1541 H 0.1367 0.72132 0.84855 0.0
H1542 H 0.16738 0.73313 0.92101 0.0
C1543 C 0.15559 0.77757 0.92641 0.0
C1544 C 0.13758 0.75038 0.9142 0.0
C1545 C 0.15626 0.78945 0.91285 0.0
C1546 C 0.14304 0.70347 0.85223 0.0
C1547 C 0.14205 0.71511 0.867 0.0
C1548 C 0.15898 0.73784 0.92044 0.0
C1549 C 0.14865 0.76937 0.90328 0.0
C1550 C 0.1484 0.75662 0.9149 0.0
C1551 C 0.14834 0.71886 0.90376 0.0
C1552 C 0.14823 0.73161 0.91537 0.0
H1553 H 0.1384 0.78757 0.82381 0.0
H1554 H 0.13719 0.76702 0.84753 0.0
H1555 H 0.16752 0.75489 0.92069 0.0
H1556 H 0.1619 0.69267 0.92924 0.0
H1557 H 0.16036 0.71331 0.95467 0.0
C1558 C 0.44941 0.90022 0.15716 0.0
C1559 C 0.44595 0.89515 0.11755 0.0
C1560 C 0.46099 0.89865 0.17271 0.0
C1561 C 0.48841 0.88082 0.15743 0.0
H1562 H 0.50491 0.91069 0.17565 0.0
C1563 C 0.53573 0.8889 0.10207 0.0
C1564 C 0.54337 0.89635 0.12565 0.0
C1565 C 0.5241 0.88699 0.1158 0.0
C1566 C 0.50043 0.90222 0.17187 0.0
H1567 H 0.45166 0.88389 0.06453 0.0
H1568 H 0.47173 0.88114 0.09153 0.0
H1569 H 0.48325 0.91037 0.17395 0.0
H1570 H 0.54494 0.90729 0.18314 0.0
H1571 H 0.5244 0.90408 0.20686 0.0
H1572 H 0.50561 0.87279 0.15278 0.0
C1573 C 0.46555 0.8863 0.11071 0.0
C1574 C 0.48802 0.90204 0.17089 0.0
C1575 C 0.45407 0.88799 0.09498 0.0
C1576 C 0.53924 0.90153 0.16422 0.0
C1577 C 0.5275 0.89971 0.17778 0.0
C1578 C 0.50081 0.881 0.15845 0.0
C1579 C 0.46921 0.89182 0.14922 0.0
C1580 C 0.48193 0.89143 0.16153 0.0
C1581 C 0.51978 0.89255 0.15331 0.0
C1582 C 0.50694 0.8918 0.16353 0.0
H1583 H 0.44332 0.90577 0.17532 0.0
H1584 H 0.46359 0.90297 0.20252 0.0
H1585 H 0.48392 0.87248 0.15095 0.0
H1586 H 0.53866 0.88471 0.07239 0.0
H1587 H 0.51832 0.88159 0.09584 0.0
C1588 C 0.33043 0.19744 0.41151 0.0
C1589 C 0.33581 0.19319 0.37349 0.0
C1590 C 0.3314 0.20947 0.42285 0.0
C1591 C 0.34895 0.23662 0.40024 0.0
H1592 H 0.31932 0.25363 0.41732 0.0
C1593 C 0.34183 0.28402 0.34254 0.0
C1594 C 0.33533 0.29208 0.36788 0.0
C1595 C 0.34303 0.27221 0.35534 0.0
C1596 C 0.32771 0.24899 0.41366 0.0
H1597 H 0.34676 0.19809 0.31845 0.0
H1598 H 0.34844 0.21889 0.33814 0.0
H1599 H 0.31942 0.23188 0.41865 0.0
H1600 H 0.32512 0.29412 0.42696 0.0
H1601 H 0.32706 0.27323 0.44899 0.0
H1602 H 0.35712 0.25369 0.39287 0.0
C1603 C 0.34352 0.21299 0.35936 0.0
C1604 C 0.32776 0.23656 0.41443 0.0
C1605 C 0.34245 0.20108 0.34783 0.0
C1606 C 0.3302 0.2881 0.40679 0.0
C1607 C 0.33128 0.27618 0.41936 0.0
C1608 C 0.34888 0.24902 0.39941 0.0
C1609 C 0.33793 0.21735 0.39671 0.0
C1610 C 0.3383 0.23027 0.40584 0.0
C1611 C 0.33768 0.26813 0.3936 0.0
C1612 C 0.33818 0.2553 0.40424 0.0
H1613 H 0.32526 0.19156 0.43193 0.0
H1614 H 0.327 0.21262 0.45181 0.0
H1615 H 0.35723 0.23199 0.39436 0.0
H1616 H 0.34594 0.28681 0.31251 0.0
H1617 H 0.34786 0.26616 0.33447 0.0
C1618 C 0.95356 0.07173 0.57814 0.0
C1619 C 0.9448 0.07508 0.60804 0.0
C1620 C 0.96528 0.07022 0.59124 0.0
C1621 C 0.98734 0.08109 0.66278 0.0
H1622 H 0.00481 0.0538 0.6197 0.0
C1623 C 0.03904 0.07942 0.64582 0.0
C1624 C 0.0421 0.0772 0.60244 0.0
C1625 C 0.02736 0.07759 0.66014 0.0
C1626 C 5e-05 0.06138 0.63265 0.0
H1627 H 0.94142 0.07952 0.67517 0.0
H1628 H 0.96227 0.07725 0.69792 0.0
H1629 H 0.98312 0.05334 0.62091 0.0
H1630 H 0.03543 0.07109 0.54044 0.0
H1631 H 0.01526 0.06781 0.56542 0.0
H1632 H 0.00432 0.08947 0.6713 0.0
C1633 C 0.95988 0.07562 0.66452 0.0
C1634 C 0.98768 0.06111 0.63338 0.0
C1635 C 0.94801 0.07691 0.6515 0.0
C1636 C 0.03336 0.07295 0.57398 0.0
C1637 C 0.02183 0.07094 0.58839 0.0
C1638 C -0.00022 0.08137 0.66198 0.0
C1639 C 0.96857 0.07217 0.63442 0.0
C1640 C 0.98123 0.0712 0.64622 0.0
C1641 C 0.0187 0.07326 0.63149 0.0
C1642 C 0.00617 0.07175 0.64463 0.0
H1643 H 0.95136 0.07019 0.5445 0.0
H1644 H 0.97187 0.06775 0.56728 0.0
H1645 H 0.98253 0.08898 0.67269 0.0
H1646 H 0.04562 0.08271 0.66843 0.0
H1647 H 0.0251 0.07951 0.69346 0.0
C1648 C 0.83442 0.70066 0.89482 0.0
C1649 C 0.83882 0.69637 0.85522 0.0
C1650 C 0.83588 0.71263 0.906 0.0
C1651 C 0.85288 0.73979 0.87834 0.0
H1652 H 0.8238 0.75654 0.90709 0.0
C1653 C 0.84494 0.78824 0.83281 0.0
C1654 C 0.83853 0.79571 0.86076 0.0
C1655 C 0.84646 0.77624 0.84265 0.0
C1656 C 0.83207 0.75199 0.90009 0.0
H1657 H 0.84861 0.70112 0.79722 0.0
H1658 H 0.85111 0.72189 0.81665 0.0
H1659 H 0.82394 0.73485 0.90607 0.0
H1660 H 0.82895 0.79651 0.92162 0.0
H1661 H 0.83156 0.7754 0.93866 0.0
H1662 H 0.86087 0.75693 0.87052 0.0
C1663 C 0.8466 0.71604 0.83919 0.0
C1664 C 0.83215 0.73956 0.89951 0.0
C1665 C 0.84507 0.70415 0.82786 0.0
C1666 C 0.83391 0.79097 0.89936 0.0
C1667 C 0.83537 0.7789 0.90909 0.0
C1668 C 0.85281 0.75219 0.87896 0.0
C1669 C 0.84187 0.72045 0.87803 0.0
C1670 C 0.84244 0.73337 0.88704 0.0
C1671 C 0.84158 0.77141 0.88061 0.0
C1672 C 0.84228 0.75842 0.88824 0.0
H1673 H 0.82959 0.69487 0.91662 0.0
H1674 H 0.83218 0.71581 0.93621 0.0
H1675 H 0.86099 0.73522 0.86938 0.0
H1676 H 0.84866 0.7916 0.80288 0.0
H1677 H 0.85111 0.77066 0.81969 0.0
C1678 C 0.65977 0.20368 0.31773 0.0
C1679 C 0.65879 0.195 0.35025 0.0
C1680 C 0.66137 0.21559 0.32837 0.0
C1681 C 0.65545 0.23785 0.40908 0.0
H1682 H 0.67815 0.25586 0.34085 0.0
C1683 C 0.6588 0.28989 0.40582 0.0
C1684 C 0.65784 0.29427 0.36331 0.0
C1685 C 0.66047 0.2777 0.41327 0.0
C1686 C 0.67187 0.25093 0.3605 0.0
H1687 H 0.65853 0.19206 0.41962 0.0
H1688 H 0.6611 0.21316 0.43827 0.0
H1689 H 0.6784 0.23418 0.33821 0.0
H1690 H 0.65795 0.28935 0.29542 0.0
H1691 H 0.66098 0.26827 0.30844 0.0
H1692 H 0.64855 0.25474 0.42962 0.0
C1693 C 0.66074 0.21058 0.40455 0.0
C1694 C 0.672 0.23856 0.35898 0.0
C1695 C 0.65929 0.19855 0.39386 0.0
C1696 C 0.65862 0.28628 0.32856 0.0
C1697 C 0.66046 0.27421 0.33596 0.0
C1698 C 0.65533 0.2503 0.41067 0.0
C1699 C 0.66194 0.21916 0.37177 0.0
C1700 C 0.66345 0.23193 0.38167 0.0
C1701 C 0.66144 0.26981 0.37828 0.0
C1702 C 0.6632 0.25691 0.38483 0.0
H1703 H 0.65944 0.20129 0.28382 0.0
H1704 H 0.66203 0.22205 0.30245 0.0
H1705 H 0.64876 0.23292 0.42682 0.0
H1706 H 0.6582 0.29584 0.43324 0.0
H1707 H 0.66116 0.27446 0.44619 0.0
C1708 C 0.82789 0.2896 0.08961 0.0
C1709 C 0.83201 0.29384 0.12969 0.0
C1710 C 0.82933 0.27762 0.07846 0.0
C1711 C 0.84699 0.25104 0.10546 0.0
H1712 H 0.81872 0.23293 0.07667 0.0
C1713 C 0.84114 0.20272 0.1538 0.0
C1714 C 0.8355 0.19468 0.12573 0.0
C1715 C 0.84197 0.21472 0.14315 0.0
C1716 C 0.82676 0.23788 0.08363 0.0
H1717 H 0.84109 0.2889 0.18903 0.0
H1718 H 0.84363 0.26815 0.16954 0.0
H1719 H 0.81786 0.25467 0.07777 0.0
H1720 H 0.82647 0.19291 0.06405 0.0
H1721 H 0.82781 0.2141 0.04566 0.0
H1722 H 0.85576 0.2343 0.11329 0.0
C1723 C 0.83934 0.27406 0.14665 0.0
C1724 C 0.82626 0.25031 0.08428 0.0
C1725 C 0.83777 0.28593 0.15798 0.0
C1726 C 0.83087 0.1989 0.08632 0.0
C1727 C 0.83161 0.211 0.07583 0.0
C1728 C 0.84749 0.23865 0.10473 0.0
C1729 C 0.83511 0.26977 0.10691 0.0
C1730 C 0.83625 0.25695 0.09701 0.0
C1731 C 0.83714 0.21901 0.10429 0.0
C1732 C 0.83726 0.23196 0.09563 0.0
H1733 H 0.82341 0.29549 0.06716 0.0
H1734 H 0.82598 0.27449 0.04767 0.0
H1735 H 0.85487 0.25598 0.1146 0.0
H1736 H 0.84483 0.19977 0.18432 0.0
H1737 H 0.8461 0.22071 0.16609 0.0
C1738 C 0.65289 0.69992 0.56152 0.0
C1739 C 0.64718 0.6966 0.60016 0.0
C1740 C 0.65138 0.71139 0.54464 0.0
C1741 C 0.63283 0.73858 0.55384 0.0
H1742 H 0.66272 0.75562 0.54552 0.0
C1743 C 0.63983 0.78446 0.62226 0.0
C1744 C 0.64762 0.79259 0.60269 0.0
C1745 C 0.63799 0.77328 0.60416 0.0
C1746 C 0.65427 0.751 0.54636 0.0
H1747 H 0.63487 0.70237 0.64988 0.0
H1748 H 0.63222 0.72223 0.62055 0.0
H1749 H 0.66271 0.73394 0.54543 0.0
H1750 H 0.65919 0.79566 0.54772 0.0
H1751 H 0.65619 0.77581 0.51643 0.0
H1752 H 0.62448 0.75565 0.55797 0.0
C1753 C 0.63784 0.71604 0.60315 0.0
C1754 C 0.65426 0.73857 0.54633 0.0
C1755 C 0.63947 0.7047 0.62027 0.0
C1756 C 0.65314 0.78953 0.56346 0.0
C1757 C 0.65144 0.7782 0.54562 0.0
C1758 C 0.63283 0.75099 0.55385 0.0
C1759 C 0.64396 0.7196 0.56571 0.0
C1760 C 0.6436 0.73227 0.55258 0.0
C1761 C 0.64401 0.76991 0.56631 0.0
C1762 C 0.64361 0.75729 0.55263 0.0
H1763 H 0.65888 0.69384 0.5453 0.0
H1764 H 0.65621 0.71392 0.51577 0.0
H1765 H 0.62447 0.73392 0.55787 0.0
H1766 H 0.63538 0.78661 0.65233 0.0
H1767 H 0.63235 0.76703 0.62127 0.0
C1768 C 0.53723 0.40316 0.81189 0.0
C1769 C 0.53969 0.39698 0.85039 0.0
C1770 C 0.52613 0.40194 0.79181 0.0
C1771 C 0.49842 0.3839 0.79262 0.0
H1772 H 0.48219 0.41433 0.79291 0.0
C1773 C 0.45337 0.39083 0.86691 0.0
C1774 C 0.44516 0.39888 0.84927 0.0
C1775 C 0.46441 0.38916 0.84751 0.0
C1776 C 0.48659 0.40577 0.79126 0.0
H1777 H 0.53299 0.384 0.89615 0.0
H1778 H 0.51382 0.38173 0.86113 0.0
H1779 H 0.50385 0.41376 0.79236 0.0
H1780 H 0.44185 0.4112 0.79663 0.0
H1781 H 0.4615 0.40855 0.76326 0.0
H1782 H 0.48115 0.37594 0.79531 0.0
C1783 C 0.52034 0.38755 0.84631 0.0
C1784 C 0.49901 0.40544 0.7909 0.0
C1785 C 0.53127 0.38894 0.8667 0.0
C1786 C 0.44805 0.40494 0.81087 0.0
C1787 C 0.45924 0.40343 0.7918 0.0
C1788 C 0.48602 0.38423 0.79305 0.0
C1789 C 0.5175 0.39429 0.80945 0.0
C1790 C 0.505 0.39451 0.79439 0.0
C1791 C 0.46757 0.39562 0.81032 0.0
C1792 C 0.48003 0.39518 0.79514 0.0
H1793 H 0.54361 0.40942 0.79874 0.0
H1794 H 0.52414 0.40725 0.76348 0.0
H1795 H 0.50284 0.37535 0.79457 0.0
H1796 H 0.45136 0.38596 0.89627 0.0
H1797 H 0.47071 0.38324 0.86298 0.0
C1798 C 0.94642 0.58178 0.3428 0.0
C1799 C 0.94226 0.58625 0.38249 0.0
C1800 C 0.95836 0.58317 0.33112 0.0
C1801 C 0.98515 0.60082 0.35555 0.0
H1802 H 0.0028 0.57194 0.33132 0.0
C1803 C 0.03331 0.59476 0.40527 0.0
C1804 C 0.04124 0.58853 0.37853 0.0
C1805 C 0.02135 0.59572 0.39424 0.0
C1806 C -0.00202 0.58014 0.33697 0.0
H1807 H 0.94722 0.59598 0.44032 0.0
H1808 H 0.96792 0.59844 0.41987 0.0
H1809 H 0.98107 0.57144 0.33222 0.0
H1810 H 0.04288 0.57858 0.31872 0.0
H1811 H 0.02179 0.58015 0.29966 0.0
H1812 H 0.00202 0.6094 0.36225 0.0
C1813 C 0.96199 0.59391 0.39773 0.0
C1814 C 0.98556 0.57985 0.33751 0.0
C1815 C 0.95016 0.59239 0.40963 0.0
C1816 C 0.03698 0.58344 0.33999 0.0
C1817 C 0.02493 0.58431 0.32911 0.0
C1818 C -0.00246 0.60111 0.3549 0.0
C1819 C 0.96625 0.58923 0.3586 0.0
C1820 C 0.97907 0.59008 0.34862 0.0
C1821 C 0.017 0.59042 0.3563 0.0
C1822 C 0.00407 0.59066 0.34747 0.0
H1823 H 0.94053 0.577 0.32125 0.0
H1824 H 0.96145 0.57948 0.3008 0.0
H1825 H 0.98033 0.60887 0.36345 0.0
H1826 H 0.03629 0.59883 0.4351 0.0
H1827 H 0.01543 0.6003 0.41626 0.0
C1828 C 0.94963 0.40302 0.65878 0.0
C1829 C 0.94627 0.39795 0.61906 0.0
C1830 C 0.96129 0.4018 0.67395 0.0
C1831 C 0.98896 0.38454 0.65796 0.0
H1832 H 0.00522 0.41469 0.67303 0.0
C1833 C 0.03454 0.39383 0.59066 0.0
C1834 C 0.04278 0.40078 0.61346 0.0
C1835 C 0.02326 0.39178 0.60747 0.0
C1836 C 0.00081 0.40615 0.67022 0.0
H1837 H 0.95226 0.38713 0.56525 0.0
H1838 H 0.97246 0.38496 0.59166 0.0
H1839 H 0.98352 0.41406 0.67408 0.0
H1840 H 0.04582 0.41081 0.67231 0.0
H1841 H 0.02575 0.4075 0.70131 0.0
H1842 H 0.00622 0.37678 0.65089 0.0
C1843 C 0.96614 0.38986 0.61121 0.0
C1844 C 0.98839 0.40579 0.67081 0.0
C1845 C 0.9546 0.39122 0.5958 0.0
C1846 C 0.03962 0.40541 0.65409 0.0
C1847 C 0.02818 0.40353 0.67065 0.0
C1848 C 0.00135 0.3849 0.65734 0.0
C1849 C 0.96967 0.39529 0.65003 0.0
C1850 C 0.98238 0.39509 0.66225 0.0
C1851 C 0.01989 0.39676 0.64724 0.0
C1852 C 0.00734 0.39581 0.66104 0.0
H1853 H 0.94337 0.40825 0.67739 0.0
H1854 H 0.96381 0.4061 0.70392 0.0
H1855 H 0.98453 0.37614 0.65206 0.0
H1856 H 0.03676 0.39007 0.55944 0.0
H1857 H 0.01698 0.38671 0.58835 0.0
C1858 C 0.44908 0.58182 0.14216 0.0
C1859 C 0.4453 0.58441 0.09975 0.0
C1860 C 0.46123 0.58096 0.15176 0.0
C1861 C 0.48893 0.57337 0.09854 0.0
H1862 H 0.50575 0.59313 0.18118 0.0
C1863 C 0.53622 0.58737 0.07137 0.0
C1864 C 0.54473 0.58424 0.10267 0.0
C1865 C 0.52416 0.58652 0.0805 0.0
C1866 C 0.50111 0.58738 0.15874 0.0
H1867 H 0.45136 0.58865 0.03476 0.0
H1868 H 0.47233 0.58706 0.05149 0.0
H1869 H 0.48384 0.59313 0.18013 0.0
H1870 H 0.54719 0.57839 0.16902 0.0
H1871 H 0.52581 0.57708 0.1851 0.0
H1872 H 0.50604 0.56812 0.07542 0.0
C1873 C 0.46593 0.58557 0.07715 0.0
C1874 C 0.48864 0.58737 0.15813 0.0
C1875 C 0.4539 0.58653 0.06767 0.0
C1876 C 0.54085 0.5808 0.14416 0.0
C1877 C 0.52867 0.58006 0.15344 0.0
C1878 C 0.50128 0.57339 0.09912 0.0
C1879 C 0.46971 0.58255 0.11894 0.0
C1880 C 0.48252 0.58075 0.12672 0.0
C1881 C 0.52028 0.58263 0.12119 0.0
C1882 C 0.50746 0.58075 0.12797 0.0
H1883 H 0.44267 0.5802 0.16763 0.0
H1884 H 0.46399 0.57868 0.18429 0.0
H1885 H 0.48437 0.56806 0.07446 0.0
H1886 H 0.53884 0.59015 0.03921 0.0
H1887 H 0.51781 0.5887 0.05534 0.0
C1888 C 0.12853 0.13115 0.19261 0.0
C1889 C 0.13956 0.12737 0.17651 0.0
C1890 C 0.12323 0.1252 0.22715 0.0
C1891 C 0.1326 0.1097 0.32298 0.0
H1892 H 0.09887 0.10451 0.34089 0.0
C1893 C 0.11363 0.09271 0.48477 0.0
C1894 C 0.10274 0.09751 0.49849 0.0
C1895 C 0.11806 0.09532 0.44375 0.0
C1896 C 0.1083 0.10603 0.33646 0.0
H1897 H 0.15328 0.11387 0.18132 0.0
H1898 H 0.14403 0.10351 0.24222 0.0
H1899 H 0.10618 0.10964 0.26885 0.0
H1900 H 0.08821 0.10924 0.48098 0.0
H1901 H 0.09615 0.11413 0.40978 0.0
H1902 H 0.13474 0.10661 0.39068 0.0
C1903 C 0.13954 0.11111 0.22817 0.0
C1904 C 0.11247 0.10885 0.29521 0.0
C1905 C 0.14478 0.117 0.19326 0.0
C1906 C 0.0966 0.10537 0.47115 0.0
C1907 C 0.10108 0.10805 0.43021 0.0
C1908 C 0.12843 0.10698 0.36426 0.0
C1909 C 0.12894 0.11543 0.24634 0.0
C1910 C 0.12464 0.11086 0.28826 0.0
C1911 C 0.11174 0.10288 0.41577 0.0
C1912 C 0.11622 0.10528 0.37158 0.0
H1913 H 0.12428 0.13908 0.18002 0.0
H1914 H 0.11509 0.12875 0.24066 0.0
H1915 H 0.142 0.11143 0.31865 0.0
H1916 H 0.11855 0.08659 0.50509 0.0
H1917 H 0.12625 0.09112 0.43351 0.0
C1918 C 0.08757 0.88287 0.51103 0.0
C1919 C 0.09469 0.89105 0.48841 0.0
C1920 C 0.09099 0.87886 0.55195 0.0
C1921 C 0.10922 0.88734 0.64515 0.0
H1922 H 0.10968 0.85362 0.67134 0.0
C1923 C 0.13684 0.86721 0.7832 0.0
C1924 C 0.13275 0.8568 0.80339 0.0
C1925 C 0.13041 0.87226 0.74925 0.0
C1926 C 0.10936 0.86309 0.665 0.0
H1927 H 0.11109 0.90124 0.49038 0.0
H1928 H 0.11702 0.89423 0.56168 0.0
H1929 H 0.10196 0.86039 0.60199 0.0
H1930 H 0.1183 0.84406 0.80658 0.0
H1931 H 0.1069 0.85306 0.74809 0.0
H1932 H 0.11672 0.89007 0.70792 0.0
C1933 C 0.10875 0.89104 0.548 0.0
C1934 C 0.10499 0.86694 0.62518 0.0
C1935 C 0.10539 0.89496 0.50704 0.0
C1936 C 0.12173 0.852 0.79115 0.0
C1937 C 0.11524 0.85712 0.7575 0.0
C1938 C 0.11351 0.88351 0.68513 0.0
C1939 C 0.10152 0.88306 0.571 0.0
C1940 C 0.10512 0.87907 0.61458 0.0
C1941 C 0.11971 0.86706 0.73521 0.0
C1942 C 0.11386 0.87131 0.69514 0.0
H1943 H 0.07927 0.87972 0.49744 0.0
H1944 H 0.08528 0.87269 0.56911 0.0
H1945 H 0.10923 0.89678 0.63793 0.0
H1946 H 0.14532 0.8711 0.79201 0.0
H1947 H 0.13416 0.87986 0.73256 0.0
C1948 C 0.37275 0.9001 -0.00277 0.0
C1949 C 0.38284 0.89385 0.01152 0.0
C1950 C 0.36749 0.89731 0.9576 0.0
C1951 C 0.37469 0.88345 0.85332 0.0
H1952 H 0.3406 0.8797 0.84068 0.0
C1953 C 0.35341 0.8562 0.71836 0.0
C1954 C 0.3426 0.86 0.70032 0.0
C1955 C 0.35853 0.86246 0.75242 0.0
C1956 C 0.35012 0.88096 0.84348 0.0
H1957 H 0.39502 0.87946 -0.00345 0.0
H1958 H 0.38576 0.87451 0.92779 0.0
H1959 H 0.34879 0.88615 0.90993 0.0
H1960 H 0.32894 0.87361 0.70229 0.0
H1961 H 0.33795 0.88457 0.7623 0.0
H1962 H 0.37606 0.87798 0.78731 0.0
C1963 C 0.38207 0.88172 0.94673 0.0
C1964 C 0.3548 0.88461 0.88313 0.0
C1965 C 0.3873 0.88449 0.98628 0.0
C1966 C 0.33727 0.87047 0.71571 0.0
C1967 C 0.34238 0.8767 0.75011 0.0
C1968 C 0.37002 0.87983 0.81375 0.0
C1969 C 0.37226 0.88824 0.93164 0.0
C1970 C 0.36715 0.88557 0.88869 0.0
C1971 C 0.35294 0.87262 0.76925 0.0
C1972 C 0.35772 0.87825 0.80879 0.0
H1973 H 0.36912 0.90736 0.01606 0.0
H1974 H 0.35993 0.90246 0.9467 0.0
H1975 H 0.38424 0.8844 0.85647 0.0
H1976 H 0.35774 0.84818 0.70702 0.0
H1977 H 0.36661 0.85901 0.76683 0.0
C1978 C 0.37474 0.08698 0.00102 0.0
C1979 C 0.38452 0.09295 0.98291 0.0
C1980 C 0.3696 0.09107 0.03935 0.0
C1981 C 0.36744 0.11758 0.10884 0.0
H1982 H 0.3606 0.09489 0.2002 0.0
C1983 C 0.35776 0.13328 0.28018 0.0
C1984 C 0.34756 0.12852 0.29983 0.0
C1985 C 0.36243 0.12807 0.24305 0.0
C1986 C 0.36238 0.10129 0.17482 0.0
H1987 H 0.39644 0.10801 0.99 0.0
H1988 H 0.38754 0.11509 0.05682 0.0
H1989 H 0.36774 0.08778 0.1301 0.0
H1990 H 0.33471 0.11413 0.29788 0.0
H1991 H 0.34289 0.10503 0.23261 0.0
H1992 H 0.36219 0.13109 0.15339 0.0
C1993 C 0.38376 0.10732 0.04134 0.0
C1994 C 0.36642 0.09724 0.13472 0.0
C1995 C 0.38889 0.10323 0.00317 0.0
C1996 C 0.34256 0.11801 0.28329 0.0
C1997 C 0.34725 0.11279 0.24601 0.0
C1998 C 0.36344 0.12161 0.14881 0.0
C1999 C 0.37414 0.10122 0.06003 0.0
C2000 C 0.36911 0.10537 0.10154 0.0
C2001 C 0.35699 0.11801 0.22482 0.0
C2002 C 0.36102 0.11353 0.18236 0.0
H2003 H 0.37117 0.07904 0.98602 0.0
H2004 H 0.3621 0.08629 0.05282 0.0
H2005 H 0.36922 0.12403 0.08359 0.0
H2006 H 0.36188 0.1413 0.29249 0.0
H2007 H 0.37012 0.13211 0.22788 0.0
C2008 C 0.87632 0.89954 0.50629 0.0
C2009 C 0.88636 0.89331 0.49155 0.0
C2010 C 0.8718 0.89747 0.5476 0.0
C2011 C 0.87997 0.8852 0.65416 0.0
H2012 H 0.84593 0.88127 0.66808 0.0
C2013 C 0.85845 0.85903 0.79218 0.0
C2014 C 0.84718 0.86243 0.80726 0.0
C2015 C 0.86397 0.8654 0.75914 0.0
C2016 C 0.85543 0.88262 0.66502 0.0
H2017 H 0.89947 0.87992 0.50821 0.0
H2018 H 0.89143 0.87613 0.58024 0.0
H2019 H 0.85393 0.88681 0.59783 0.0
H2020 H 0.83326 0.87571 0.80225 0.0
H2021 H 0.84295 0.8869 0.7443 0.0
H2022 H 0.88147 0.88062 0.72116 0.0
C2023 C 0.88719 0.88278 0.56008 0.0
C2024 C 0.86002 0.88574 0.62469 0.0
C2025 C 0.89171 0.88485 0.5187 0.0
C2026 C 0.84191 0.87284 0.79097 0.0
C2027 C 0.84742 0.8792 0.75771 0.0
C2028 C 0.87538 0.88207 0.69454 0.0
C2029 C 0.87723 0.88911 0.575 0.0
C2030 C 0.87235 0.8868 0.61863 0.0
C2031 C 0.85831 0.87529 0.7405 0.0
C2032 C 0.86308 0.88049 0.7001 0.0
H2033 H 0.87202 0.90615 0.48614 0.0
H2034 H 0.86417 0.90254 0.55832 0.0
H2035 H 0.8895 0.88619 0.65059 0.0
H2036 H 0.86277 0.8511 0.80442 0.0
H2037 H 0.87231 0.86211 0.74639 0.0
C2038 C 0.85854 0.13333 0.21467 0.0
C2039 C 0.84791 0.12929 0.19591 0.0
C2040 C 0.86322 0.12763 0.25088 0.0
C2041 C 0.85319 0.11098 0.34446 0.0
H2042 H 0.88686 0.10601 0.36426 0.0
C2043 C 0.87201 0.08993 0.50076 0.0
C2044 C 0.88275 0.0946 0.51658 0.0
C2045 C 0.86747 0.09379 0.46118 0.0
C2046 C 0.87744 0.10748 0.35934 0.0
H2047 H 0.83422 0.11571 0.19857 0.0
H2048 H 0.84242 0.10574 0.2622 0.0
H2049 H 0.88 0.11234 0.29306 0.0
H2050 H 0.89677 0.10747 0.50489 0.0
H2051 H 0.88868 0.11441 0.43629 0.0
H2052 H 0.85064 0.1064 0.41096 0.0
C2053 C 0.84704 0.11339 0.249 0.0
C2054 C 0.87352 0.11102 0.31855 0.0
C2055 C 0.8424 0.11904 0.2125 0.0
C2056 C 0.88852 0.10364 0.49329 0.0
C2057 C 0.88396 0.10753 0.45384 0.0
C2058 C 0.85711 0.10749 0.38533 0.0
C2059 C 0.85732 0.11782 0.2691 0.0
C2060 C 0.86138 0.11293 0.31088 0.0
C2061 C 0.87355 0.10243 0.43687 0.0
C2062 C 0.86929 0.10585 0.39332 0.0
H2063 H 0.863 0.14118 0.20239 0.0
H2064 H 0.87112 0.13127 0.2659 0.0
H2065 H 0.84379 0.11258 0.33956 0.0
H2066 H 0.86736 0.08295 0.51803 0.0
H2067 H 0.85945 0.08967 0.44886 0.0
C2068 C 0.63006 0.13719 0.24731 0.0
C2069 C 0.63922 0.13165 0.27066 0.0
C2070 C 0.62576 0.13209 0.20935 0.0
C2071 C 0.62474 0.10436 0.14591 0.0
H2072 H 0.62036 0.12611 0.04967 0.0
C2073 C 0.61314 0.08798 0.97439 0.0
C2074 C 0.6035 0.0939 0.9551 0.0
C2075 C 0.61847 0.09262 0.01153 0.0
C2076 C 0.6215 0.11995 0.07631 0.0
H2077 H 0.65063 0.11611 0.27394 0.0
H2078 H 0.64317 0.10724 0.20732 0.0
H2079 H 0.62704 0.13375 0.11927 0.0
H2080 H 0.59223 0.10955 0.95817 0.0
H2081 H 0.60153 0.11761 0.02282 0.0
H2082 H 0.61913 0.09057 0.10282 0.0
C2083 C 0.63929 0.11551 0.21847 0.0
C2084 C 0.62527 0.12431 0.11618 0.0
C2085 C 0.64358 0.1206 0.25655 0.0
C2086 C 0.59963 0.10477 0.97243 0.0
C2087 C 0.60499 0.10943 0.00932 0.0
C2088 C 0.62099 0.09998 0.10594 0.0
C2089 C 0.63055 0.12136 0.19395 0.0
C2090 C 0.62678 0.11659 0.15153 0.0
C2091 C 0.61431 0.10329 0.02969 0.0
C2092 C 0.61921 0.10776 0.07093 0.0
H2093 H 0.62645 0.14567 0.25762 0.0
H2094 H 0.61882 0.13667 0.19161 0.0
H2095 H 0.62576 0.09822 0.17267 0.0
H2096 H 0.61632 0.0796 0.96164 0.0
H2097 H 0.62574 0.08779 0.02636 0.0
C2098 C 0.63689 0.84774 0.75725 0.0
C2099 C 0.64608 0.8528 0.73264 0.0
C2100 C 0.63366 0.8527 0.79683 0.0
C2101 C 0.63451 0.8802 0.85983 0.0
H2102 H 0.62811 0.8589 0.95588 0.0
C2103 C 0.61886 0.89771 0.02535 0.0
C2104 C 0.60875 0.89186 0.04156 0.0
C2105 C 0.6253 0.89277 0.99117 0.0
C2106 C 0.62986 0.86495 0.92934 0.0
H2107 H 0.65893 0.86718 0.72957 0.0
H2108 H 0.65322 0.87589 0.79894 0.0
H2109 H 0.63546 0.85084 0.88774 0.0
H2110 H 0.59781 0.87603 0.03636 0.0
H2111 H 0.60899 0.86747 0.97677 0.0
H2112 H 0.6286 0.89428 0.90106 0.0
C2113 C 0.64854 0.86808 0.7875 0.0
C2114 C 0.63404 0.86034 0.89036 0.0
C2115 C 0.6518 0.86309 0.74789 0.0
C2116 C 0.60554 0.88076 0.02445 0.0
C2117 C 0.612 0.87581 0.99047 0.0
C2118 C 0.63032 0.88481 0.89885 0.0
C2119 C 0.63953 0.86284 0.81256 0.0
C2120 C 0.63615 0.86789 0.85495 0.0
C2121 C 0.62179 0.88188 0.97288 0.0
C2122 C 0.62771 0.8772 0.93367 0.0
H2123 H 0.63228 0.83984 0.74627 0.0
H2124 H 0.62652 0.8486 0.81508 0.0
H2125 H 0.636 0.88621 0.83296 0.0
H2126 H 0.62156 0.90627 0.03807 0.0
H2127 H 0.6329 0.89756 0.97853 0.0
C2128 C 0.62087 0.59165 0.0153 0.0
C2129 C 0.61044 0.59691 0.03137 0.0
C2130 C 0.62673 0.59662 0.9798 0.0
C2131 C 0.62882 0.62372 0.91231 0.0
H2132 H 0.63525 0.60151 0.81922 0.0
C2133 C 0.63437 0.63934 0.73748 0.0
C2134 C 0.64384 0.63451 0.7137 0.0
C2135 C 0.63124 0.6345 0.77739 0.0
C2136 C 0.63365 0.6078 0.8451 0.0
H2137 H 0.59839 0.61188 0.02486 0.0
H2138 H 0.60857 0.62051 0.963 0.0
H2139 H 0.62902 0.59401 0.88973 0.0
H2140 H 0.65715 0.62053 0.71211 0.0
H2141 H 0.65164 0.61207 0.78205 0.0
H2142 H 0.6332 0.63752 0.86744 0.0
C2143 C 0.61225 0.61258 0.97774 0.0
C2144 C 0.63014 0.60351 0.88549 0.0
C2145 C 0.60638 0.60759 0.01302 0.0
C2146 C 0.64981 0.62445 0.72977 0.0
C2147 C 0.64666 0.6196 0.76974 0.0
C2148 C 0.63232 0.628 0.87196 0.0
C2149 C 0.6223 0.60698 0.96009 0.0
C2150 C 0.62747 0.61145 0.91922 0.0
C2151 C 0.6375 0.62474 0.79429 0.0
C2152 C 0.63455 0.6201 0.83774 0.0
H2153 H 0.62423 0.58343 0.02898 0.0
H2154 H 0.63455 0.59221 0.96713 0.0
H2155 H 0.62698 0.63002 0.93793 0.0
H2156 H 0.62956 0.64705 0.7258 0.0
H2157 H 0.62396 0.63848 0.79522 0.0
C2158 C 0.63877 0.37037 0.30133 0.0
C2159 C 0.6351 0.35891 0.31367 0.0
C2160 C 0.6331 0.37625 0.26732 0.0
C2161 C 0.60651 0.37623 0.1974 0.0
H2162 H 0.62847 0.38702 0.10891 0.0
C2163 C 0.59179 0.38434 0.02195 0.0
C2164 C 0.59665 0.39413 -4e-05 0.0
C2165 C 0.59612 0.38107 0.06253 0.0
C2166 C 0.6222 0.38425 0.13353 0.0
H2167 H 0.62211 0.34498 0.3024 0.0
H2168 H 0.61222 0.35527 0.24308 0.0
H2169 H 0.63612 0.38019 0.17824 0.0
H2170 H 0.60986 0.40818 0.003 0.0
H2171 H 0.6173 0.40258 0.07416 0.0
H2172 H 0.59259 0.38017 0.1525 0.0
C2173 C 0.61947 0.3597 0.2596 0.0
C2174 C 0.62659 0.38035 0.17327 0.0
C2175 C 0.62517 0.35379 0.2934 0.0
C2176 C 0.60598 0.40054 0.01911 0.0
C2177 C 0.61026 0.39732 0.05982 0.0
C2178 C 0.60211 0.3802 0.15772 0.0
C2179 C 0.62362 0.37082 0.24537 0.0
C2180 C 0.6188 0.37614 0.20532 0.0
C2181 C 0.60534 0.38758 0.08204 0.0
C2182 C 0.60993 0.38407 0.12512 0.0
H2183 H 0.64635 0.37458 0.31656 0.0
H2184 H 0.63637 0.3849 0.25731 0.0
H2185 H 0.60031 0.37313 0.22175 0.0
H2186 H 0.58462 0.3792 0.00787 0.0
H2187 H 0.5923 0.37338 0.07843 0.0
C2188 C 0.88803 0.38235 0.48969 0.0
C2189 C 0.88331 0.39178 0.514 0.0
C2190 C 0.88308 0.37937 0.44985 0.0
C2191 C 0.85629 0.38227 0.38288 0.0
H2192 H 0.87831 0.3755 0.28949 0.0
C2193 C 0.83987 0.36972 0.21282 0.0
C2194 C 0.84491 0.35912 0.19732 0.0
C2195 C 0.84497 0.3756 0.24803 0.0
C2196 C 0.87207 0.37739 0.31526 0.0
H2197 H 0.8694 0.40514 0.51666 0.0
H2198 H 0.86076 0.39991 0.44681 0.0
H2199 H 0.88596 0.38154 0.35994 0.0
H2200 H 0.8596 0.34677 0.20431 0.0
H2201 H 0.86847 0.357 0.26555 0.0
H2202 H 0.84241 0.37788 0.33838 0.0
C2203 C 0.86828 0.39484 0.45865 0.0
C2204 C 0.87643 0.38077 0.35559 0.0
C2205 C 0.87323 0.39783 0.49858 0.0
C2206 C 0.8555 0.35489 0.21578 0.0
C2207 C 0.86062 0.3608 0.25068 0.0
C2208 C 0.85192 0.37889 0.34248 0.0
C2209 C 0.87332 0.38575 0.43352 0.0
C2210 C 0.8686 0.383 0.39004 0.0
C2211 C 0.85523 0.37102 0.26788 0.0
C2212 C 0.85979 0.37618 0.30858 0.0
H2213 H 0.89574 0.37747 0.50088 0.0
H2214 H 0.88698 0.37213 0.4316 0.0
H2215 H 0.85006 0.38387 0.40892 0.0
H2216 H 0.83173 0.37319 0.19905 0.0
H2217 H 0.84072 0.38354 0.26042 0.0
C2218 C 0.83656 0.6199 0.76576 0.0
C2219 C 0.84318 0.62964 0.78095 0.0
C2220 C 0.84066 0.61323 0.73069 0.0
C2221 C 0.86729 0.60729 0.66407 0.0
H2222 H 0.84481 0.6038 0.5697 0.0
C2223 C 0.88284 0.60289 0.49023 0.0
C2224 C 0.87793 0.59371 0.46521 0.0
C2225 C 0.87786 0.60588 0.52992 0.0
C2226 C 0.85112 0.60455 0.59601 0.0
H2227 H 0.85953 0.63965 0.77319 0.0
H2228 H 0.86665 0.62807 0.71218 0.0
H2229 H 0.83785 0.61064 0.64034 0.0
H2230 H 0.86351 0.58093 0.46081 0.0
H2231 H 0.85468 0.5863 0.53051 0.0
H2232 H 0.88063 0.60163 0.61941 0.0
C2233 C 0.85834 0.62553 0.72728 0.0
C2234 C 0.84715 0.60841 0.63643 0.0
C2235 C 0.85422 0.63222 0.76204 0.0
C2236 C 0.8675 0.58803 0.47951 0.0
C2237 C 0.86246 0.59107 0.51932 0.0
C2238 C 0.87125 0.60348 0.62376 0.0
C2239 C 0.85148 0.61614 0.71065 0.0
C2240 C 0.85527 0.61015 0.67043 0.0
C2241 C 0.86782 0.59979 0.54535 0.0
C2242 C 0.86327 0.60243 0.58905 0.0
H2243 H 0.82802 0.6177 0.77986 0.0
H2244 H 0.83526 0.60597 0.7187 0.0
H2245 H 0.87369 0.60834 0.68996 0.0
H2246 H 0.89081 0.60751 0.47989 0.0
H2247 H 0.88198 0.61284 0.54894 0.0
C2248 C 0.34131 0.36796 0.2745 0.0
C2249 C 0.34639 0.3573 0.28942 0.0
C2250 C 0.34636 0.37404 0.23964 0.0
C2251 C 0.37358 0.37651 0.17343 0.0
H2252 H 0.35175 0.38448 0.08068 0.0
C2253 C 0.3897 0.38447 0.00019 0.0
C2254 C 0.38477 0.3941 0.97744 0.0
C2255 C 0.38488 0.38092 0.03968 0.0
C2256 C 0.35794 0.38247 0.10651 0.0
H2257 H 0.36107 0.34499 0.28128 0.0
H2258 H 0.36986 0.35558 0.22054 0.0
H2259 H 0.34397 0.37734 0.14963 0.0
H2260 H 0.37075 0.40735 0.97749 0.0
H2261 H 0.36236 0.40116 0.04672 0.0
H2262 H 0.38756 0.38144 0.13011 0.0
C2263 C 0.36201 0.35927 0.23573 0.0
C2264 C 0.35349 0.37841 0.146 0.0
C2265 C 0.35693 0.35316 0.27036 0.0
C2266 C 0.37473 0.39989 -0.00567 0.0
C2267 C 0.36991 0.39634 0.03389 0.0
C2268 C 0.37803 0.38057 0.134 0.0
C2269 C 0.35663 0.36961 0.21942 0.0
C2270 C 0.36128 0.3752 0.17955 0.0
C2271 C 0.37505 0.38693 0.05723 0.0
C2272 C 0.37026 0.38337 0.09989 0.0
H2273 H 0.3332 0.37138 0.28871 0.0
H2274 H 0.34212 0.38208 0.22798 0.0
H2275 H 0.37977 0.37425 0.19897 0.0
H2276 H 0.3974 0.37979 0.98787 0.0
H2277 H 0.38888 0.37347 0.05654 0.0
C2278 C 0.38586 0.6053 -0.00608 0.0
C2279 C 0.38088 0.59608 0.01868 0.0
C2280 C 0.381 0.60829 0.95396 0.0
C2281 C 0.35445 0.6061 0.88595 0.0
H2282 H 0.37726 0.61074 0.79323 0.0
C2283 C 0.33966 0.61887 0.71397 0.0
C2284 C 0.34554 0.629 0.69798 0.0
C2285 C 0.34416 0.61281 0.74986 0.0
C2286 C 0.37079 0.60945 0.81879 0.0
H2287 H 0.36649 0.58325 0.02231 0.0
H2288 H 0.35797 0.58855 0.95218 0.0
H2289 H 0.3842 0.6048 0.86475 0.0
H2290 H 0.36109 0.64025 0.70495 0.0
H2291 H 0.36892 0.62969 0.76739 0.0
H2292 H 0.34107 0.61106 0.84017 0.0
C2293 C 0.36566 0.59339 0.96375 0.0
C2294 C 0.37476 0.60612 0.85971 0.0
C2295 C 0.37053 0.59037 0.00384 0.0
C2296 C 0.35635 0.6325 0.71673 0.0
C2297 C 0.36087 0.62641 0.75234 0.0
C2298 C 0.35048 0.60946 0.84494 0.0
C2299 C 0.37107 0.60215 0.93796 0.0
C2300 C 0.36666 0.6047 0.89392 0.0
C2301 C 0.35465 0.61671 0.76997 0.0
C2302 C 0.35865 0.61144 0.81128 0.0
H2303 H 0.39377 0.60993 0.00469 0.0
H2304 H 0.38517 0.61529 0.93517 0.0
H2305 H 0.34803 0.60509 0.9118 0.0
H2306 H 0.33133 0.61595 0.70001 0.0
H2307 H 0.33928 0.60527 0.76257 0.0
C2308 C 0.14622 0.62215 0.75578 0.0
C2309 C 0.1407 0.63226 0.77338 0.0
C2310 C 0.14197 0.61716 0.71744 0.0
C2311 C 0.11599 0.61648 0.6448 0.0
H2312 H 0.13928 0.61003 0.55521 0.0
C2313 C 0.10157 0.6095 0.47035 0.0
C2314 C 0.10614 0.59935 0.44978 0.0
C2315 C 0.10662 0.61357 0.50867 0.0
C2316 C 0.1327 0.6117 0.58006 0.0
H2317 H 0.12612 0.64473 0.76601 0.0
H2318 H 0.11875 0.63606 0.69921 0.0
H2319 H 0.14594 0.61601 0.62724 0.0
H2320 H 0.12011 0.58605 0.45123 0.0
H2321 H 0.12893 0.59318 0.51854 0.0
H2322 H 0.10276 0.6123 0.59772 0.0
C2323 C 0.12631 0.63195 0.71498 0.0
C2324 C 0.1365 0.61506 0.62127 0.0
C2325 C 0.13056 0.63695 0.75314 0.0
C2326 C 0.11638 0.59387 0.46651 0.0
C2327 C 0.12143 0.59795 0.50499 0.0
C2328 C 0.11221 0.61315 0.6037 0.0
C2329 C 0.13211 0.62216 0.69631 0.0
C2330 C 0.12816 0.61762 0.65385 0.0
C2331 C 0.11633 0.60758 0.52715 0.0
C2332 C 0.12051 0.61089 0.57078 0.0
H2333 H 0.15403 0.61833 0.77082 0.0
H2334 H 0.14651 0.60951 0.704 0.0
H2335 H 0.10939 0.6182 0.6695 0.0
H2336 H 0.09377 0.61399 0.45789 0.0
H2337 H 0.1027 0.6212 0.52459 0.0
C2338 C 0.14464 0.3728 0.19284 0.0
C2339 C 0.13919 0.3621 0.18027 0.0
C2340 C 0.13974 0.37964 0.22605 0.0
C2341 C 0.11296 0.38369 0.29393 0.0
H2342 H 0.13566 0.38939 0.38611 0.0
C2343 C 0.09843 0.38797 0.47 0.0
C2344 C 0.10377 0.39676 0.49568 0.0
C2345 C 0.1028 0.38552 0.42884 0.0
C2346 C 0.12924 0.38807 0.36045 0.0
H2347 H 0.12389 0.35064 0.18986 0.0
H2348 H 0.11535 0.36255 0.24765 0.0
H2349 H 0.1427 0.38288 0.31547 0.0
H2350 H 0.11809 0.40967 0.49902 0.0
H2351 H 0.12576 0.40536 0.42679 0.0
H2352 H 0.09947 0.38854 0.33928 0.0
C2353 C 0.12339 0.36568 0.23203 0.0
C2354 C 0.13327 0.38438 0.31996 0.0
C2355 C 0.12832 0.35881 0.19913 0.0
C2356 C 0.11381 0.40282 0.47993 0.0
C2357 C 0.11819 0.40037 0.43863 0.0
C2358 C 0.10893 0.38741 0.33435 0.0
C2359 C 0.12926 0.37593 0.24679 0.0
C2360 C 0.12514 0.38184 0.28672 0.0
C2361 C 0.11261 0.39182 0.41247 0.0
C2362 C 0.11701 0.38929 0.36836 0.0
H2363 H 0.15299 0.37558 0.17867 0.0
H2364 H 0.14436 0.38758 0.23656 0.0
H2365 H 0.10653 0.38194 0.26865 0.0
H2366 H 0.09072 0.3831 0.48137 0.0
H2367 H 0.0985 0.37867 0.40982 0.0
loop_
_geom_bond_atom_site_label_1
_geom_bond_atom_site_label_2
_geom_bond_distance
_geom_bond_site_symmetry_2
_ccdc_geom_bond_type
C0 O1 1.306 . S
C0 O3 1.160 . S
O1 C0 1.306 . S
O1 Cd2 2.228 . S
Cd2 O1 2.228 . S
Cd2 O6 2.273 . S
Cd2 O10 2.277 . S
O3 C0 1.160 . S
O3 Cd4 2.203 . S
Cd4 O3 2.203 . S
Cd4 O6 2.411 . S
Cd4 O7 2.333 . S
Cd4 O8 2.352 . S
Cd4 O12 2.277 . S
Cd4 O13 2.356 . S
C5 O10 1.209 . S
C5 O12 1.226 . S
O6 Cd2 2.273 . S
O6 Cd4 2.411 . S
O6 C9 1.320 . S
O7 Cd4 2.333 . S
O7 C9 1.214 . S
O8 Cd4 2.352 . S
O8 C11 1.258 . S
C9 O6 1.320 . S
C9 O7 1.214 . S
O10 Cd2 2.277 . S
O10 C5 1.209 . S
C11 O8 1.258 . S
C11 O13 1.282 . S
O12 Cd4 2.277 . S
O12 C5 1.226 . S
O13 Cd4 2.356 . S
O13 C11 1.282 . S
C14 O15 1.306 . S
C14 O17 1.160 . S
O15 C14 1.306 . S
O15 Cd16 2.228 . S
Cd16 O15 2.228 . S
Cd16 O20 2.273 . S
Cd16 O24 2.277 . S
O17 C14 1.160 . S
O17 Cd18 2.203 . S
Cd18 O17 2.203 . S
Cd18 O20 2.411 . S
Cd18 O21 2.333 . S
Cd18 O22 2.352 . S
Cd18 O26 2.277 . S
Cd18 O27 2.356 . S
C19 O24 1.209 . S
C19 O26 1.226 . S
O20 Cd16 2.273 . S
O20 Cd18 2.411 . S
O20 C23 1.320 . S
O21 Cd18 2.333 . S
O21 C23 1.214 . S
O22 Cd18 2.352 . S
O22 C25 1.258 . S
C23 O20 1.320 . S
C23 O21 1.214 . S
O24 Cd16 2.277 . S
O24 C19 1.209 . S
C25 O22 1.258 . S
C25 O27 1.282 . S
O26 Cd18 2.277 . S
O26 C19 1.226 . S
O27 Cd18 2.356 . S
O27 C25 1.282 . S
C28 O29 1.306 . S
C28 O31 1.160 . S
O29 C28 1.306 . S
O29 Cd30 2.228 . S
Cd30 O29 2.228 . S
Cd30 O34 2.273 . S
Cd30 O38 2.277 . S
O31 C28 1.160 . S
O31 Cd32 2.203 . S
Cd32 O31 2.203 . S
Cd32 O34 2.411 . S
Cd32 O35 2.333 . S
Cd32 O36 2.352 . S
Cd32 O40 2.277 . S
Cd32 O41 2.356 . S
C33 O38 1.209 . S
C33 O40 1.226 . S
O34 Cd30 2.273 . S
O34 Cd32 2.411 . S
O34 C37 1.320 . S
O35 Cd32 2.333 . S
O35 C37 1.214 . S
O36 Cd32 2.352 . S
O36 C39 1.258 . S
C37 O34 1.320 . S
C37 O35 1.214 . S
O38 Cd30 2.277 . S
O38 C33 1.209 . S
C39 O36 1.258 . S
C39 O41 1.282 . S
O40 Cd32 2.277 . S
O40 C33 1.226 . S
O41 Cd32 2.356 . S
O41 C39 1.282 . S
C42 O43 1.306 . S
C42 O45 1.160 . S
O43 C42 1.306 . S
O43 Cd44 2.228 . S
Cd44 O43 2.228 . S
Cd44 O48 2.273 . S
Cd44 O52 2.277 . S
O45 C42 1.160 . S
O45 Cd46 2.203 . S
Cd46 O45 2.203 . S
Cd46 O48 2.411 . S
Cd46 O49 2.333 . S
Cd46 O50 2.352 . S
Cd46 O54 2.277 . S
Cd46 O55 2.356 . S
C47 O52 1.209 . S
C47 O54 1.226 . S
O48 Cd44 2.273 . S
O48 Cd46 2.411 . S
O48 C51 1.320 . S
O49 Cd46 2.333 . S
O49 C51 1.214 . S
O50 Cd46 2.352 . S
O50 C53 1.258 . S
C51 O48 1.320 . S
C51 O49 1.214 . S
O52 Cd44 2.277 . S
O52 C47 1.209 . S
C53 O50 1.258 . S
C53 O55 1.282 . S
O54 Cd46 2.277 . S
O54 C47 1.226 . S
O55 Cd46 2.356 . S
O55 C53 1.282 . S
C56 O57 1.306 . S
C56 O59 1.160 . S
O57 C56 1.306 . S
O57 Cd58 2.228 . S
Cd58 O57 2.228 . S
Cd58 O62 2.273 . S
Cd58 O66 2.277 . S
O59 C56 1.160 . S
O59 Cd60 2.203 . S
Cd60 O59 2.203 . S
Cd60 O62 2.411 . S
Cd60 O63 2.333 . S
Cd60 O64 2.352 . S
Cd60 O68 2.277 . S
Cd60 O69 2.356 . S
C61 O66 1.209 . S
C61 O68 1.226 . S
O62 Cd58 2.273 . S
O62 Cd60 2.411 . S
O62 C65 1.320 . S
O63 Cd60 2.333 . S
O63 C65 1.214 . S
O64 Cd60 2.352 . S
O64 C67 1.258 . S
C65 O62 1.320 . S
C65 O63 1.214 . S
O66 Cd58 2.277 . S
O66 C61 1.209 . S
C67 O64 1.258 . S
C67 O69 1.282 . S
O68 Cd60 2.277 . S
O68 C61 1.226 . S
O69 Cd60 2.356 . S
O69 C67 1.282 . S
C70 O71 1.306 . S
C70 O73 1.160 . S
O71 C70 1.306 . S
O71 Cd72 2.228 . S
Cd72 O71 2.228 . S
Cd72 O76 2.273 . S
Cd72 O80 2.277 . S
O73 C70 1.160 . S
O73 Cd74 2.203 . S
Cd74 O73 2.203 . S
Cd74 O76 2.411 . S
Cd74 O77 2.333 . S
Cd74 O78 2.352 . S
Cd74 O82 2.277 . S
Cd74 O83 2.356 . S
C75 O80 1.209 . S
C75 O82 1.226 . S
O76 Cd72 2.273 . S
O76 Cd74 2.411 . S
O76 C79 1.320 . S
O77 Cd74 2.333 . S
O77 C79 1.214 . S
O78 Cd74 2.352 . S
O78 C81 1.258 . S
C79 O76 1.320 . S
C79 O77 1.214 . S
O80 Cd72 2.277 . S
O80 C75 1.209 . S
C81 O78 1.258 . S
C81 O83 1.282 . S
O82 Cd74 2.277 . S
O82 C75 1.226 . S
O83 Cd74 2.356 . S
O83 C81 1.282 . S
C84 O85 1.306 . S
C84 O87 1.160 . S
O85 C84 1.306 . S
O85 Cd86 2.228 . S
Cd86 O85 2.228 . S
Cd86 O90 2.273 . S
Cd86 O94 2.277 . S
O87 C84 1.160 . S
O87 Cd88 2.203 . S
Cd88 O87 2.203 . S
Cd88 O90 2.411 . S
Cd88 O91 2.333 . S
Cd88 O92 2.352 . S
Cd88 O96 2.277 . S
Cd88 O97 2.356 . S
C89 O94 1.209 . S
C89 O96 1.226 . S
O90 Cd86 2.273 . S
O90 Cd88 2.411 . S
O90 C93 1.320 . S
O91 Cd88 2.333 . S
O91 C93 1.214 . S
O92 Cd88 2.352 . S
O92 C95 1.258 . S
C93 O90 1.320 . S
C93 O91 1.214 . S
O94 Cd86 2.277 . S
O94 C89 1.209 . S
C95 O92 1.258 . S
C95 O97 1.282 . S
O96 Cd88 2.277 . S
O96 C89 1.226 . S
O97 Cd88 2.356 . S
O97 C95 1.282 . S
C98 O99 1.306 . S
C98 O101 1.160 . S
O99 C98 1.306 . S
O99 Cd100 2.228 . S
Cd100 O99 2.228 . S
Cd100 O104 2.273 . S
Cd100 O108 2.277 . S
O101 C98 1.160 . S
O101 Cd102 2.203 . S
Cd102 O101 2.203 . S
Cd102 O104 2.411 . S
Cd102 O105 2.333 . S
Cd102 O106 2.352 . S
Cd102 O110 2.277 . S
Cd102 O111 2.356 . S
C103 O108 1.209 . S
C103 O110 1.226 . S
O104 Cd100 2.273 . S
O104 Cd102 2.411 . S
O104 C107 1.320 . S
O105 Cd102 2.333 . S
O105 C107 1.214 . S
O106 Cd102 2.352 . S
O106 C109 1.258 . S
C107 O104 1.320 . S
C107 O105 1.214 . S
O108 Cd100 2.277 . S
O108 C103 1.209 . S
C109 O106 1.258 . S
C109 O111 1.282 . S
O110 Cd102 2.277 . S
O110 C103 1.226 . S
O111 Cd102 2.356 . S
O111 C109 1.282 . S
C112 O113 1.306 . S
C112 O115 1.160 . S
O113 C112 1.306 . S
O113 Cd114 2.228 . S
Cd114 O113 2.228 . S
Cd114 O118 2.273 . S
Cd114 O122 2.277 . S
O115 C112 1.160 . S
O115 Cd116 2.203 . S
Cd116 O115 2.203 . S
Cd116 O118 2.411 . S
Cd116 O119 2.333 . S
Cd116 O120 2.352 . S
Cd116 O124 2.277 . S
Cd116 O125 2.356 . S
C117 O122 1.209 . S
C117 O124 1.226 . S
O118 Cd114 2.273 . S
O118 Cd116 2.411 . S
O118 C121 1.320 . S
O119 Cd116 2.333 . S
O119 C121 1.214 . S
O120 Cd116 2.352 . S
O120 C123 1.258 . S
C121 O118 1.320 . S
C121 O119 1.214 . S
O122 Cd114 2.277 . S
O122 C117 1.209 . S
C123 O120 1.258 . S
C123 O125 1.282 . S
O124 Cd116 2.277 . S
O124 C117 1.226 . S
O125 Cd116 2.356 . S
O125 C123 1.282 . S
C126 O127 1.306 . S
C126 O129 1.160 . S
O127 C126 1.306 . S
O127 Cd128 2.228 . S
Cd128 O127 2.228 . S
Cd128 O132 2.273 . S
Cd128 O136 2.277 . S
O129 C126 1.160 . S
O129 Cd130 2.203 . S
Cd130 O129 2.203 . S
Cd130 O132 2.411 . S
Cd130 O133 2.333 . S
Cd130 O134 2.352 . S
Cd130 O138 2.277 . S
Cd130 O139 2.356 . S
C131 O136 1.209 . S
C131 O138 1.226 . S
O132 Cd128 2.273 . S
O132 Cd130 2.411 . S
O132 C135 1.320 . S
O133 Cd130 2.333 . S
O133 C135 1.214 . S
O134 Cd130 2.352 . S
O134 C137 1.258 . S
C135 O132 1.320 . S
C135 O133 1.214 . S
O136 Cd128 2.277 . S
O136 C131 1.209 . S
C137 O134 1.258 . S
C137 O139 1.282 . S
O138 Cd130 2.277 . S
O138 C131 1.226 . S
O139 Cd130 2.356 . S
O139 C137 1.282 . S
C140 O141 1.306 . S
C140 O143 1.160 . S
O141 C140 1.306 . S
O141 Cd142 2.228 . S
Cd142 O141 2.228 . S
Cd142 O146 2.273 . S
Cd142 O150 2.277 . S
O143 C140 1.160 . S
O143 Cd144 2.203 . S
Cd144 O143 2.203 . S
Cd144 O146 2.411 . S
Cd144 O147 2.333 . S
Cd144 O148 2.352 . S
Cd144 O152 2.277 . S
Cd144 O153 2.356 . S
C145 O150 1.209 . S
C145 O152 1.226 . S
O146 Cd142 2.273 . S
O146 Cd144 2.411 . S
O146 C149 1.320 . S
O147 Cd144 2.333 . S
O147 C149 1.214 . S
O148 Cd144 2.352 . S
O148 C151 1.258 . S
C149 O146 1.320 . S
C149 O147 1.214 . S
O150 Cd142 2.277 . S
O150 C145 1.209 . S
C151 O148 1.258 . S
C151 O153 1.282 . S
O152 Cd144 2.277 . S
O152 C145 1.226 . S
O153 Cd144 2.356 . S
O153 C151 1.282 . S
C154 O155 1.306 . S
C154 O157 1.160 . S
O155 C154 1.306 . S
O155 Cd156 2.228 . S
Cd156 O155 2.228 . S
Cd156 O160 2.273 . S
Cd156 O164 2.277 . S
O157 C154 1.160 . S
O157 Cd158 2.203 . S
Cd158 O157 2.203 . S
Cd158 O160 2.411 . S
Cd158 O161 2.333 . S
Cd158 O162 2.352 . S
Cd158 O166 2.277 . S
Cd158 O167 2.356 . S
C159 O164 1.209 . S
C159 O166 1.226 . S
O160 Cd156 2.273 . S
O160 Cd158 2.411 . S
O160 C163 1.320 . S
O161 Cd158 2.333 . S
O161 C163 1.214 . S
O162 Cd158 2.352 . S
O162 C165 1.258 . S
C163 O160 1.320 . S
C163 O161 1.214 . S
O164 Cd156 2.277 . S
O164 C159 1.209 . S
C165 O162 1.258 . S
C165 O167 1.282 . S
O166 Cd158 2.277 . S
O166 C159 1.226 . S
O167 Cd158 2.356 . S
O167 C165 1.282 . S
C168 O169 1.306 . S
C168 O171 1.160 . S
O169 C168 1.306 . S
O169 Cd170 2.228 . S
Cd170 O169 2.228 . S
Cd170 O174 2.273 . S
Cd170 O178 2.277 . S
O171 C168 1.160 . S
O171 Cd172 2.203 . S
Cd172 O171 2.203 . S
Cd172 O174 2.411 . S
Cd172 O175 2.333 . S
Cd172 O176 2.352 . S
Cd172 O180 2.277 . S
Cd172 O181 2.356 . S
C173 O178 1.209 . S
C173 O180 1.226 . S
O174 Cd170 2.273 . S
O174 Cd172 2.411 . S
O174 C177 1.320 . S
O175 Cd172 2.333 . S
O175 C177 1.214 . S
O176 Cd172 2.352 . S
O176 C179 1.258 . S
C177 O174 1.320 . S
C177 O175 1.214 . S
O178 Cd170 2.277 . S
O178 C173 1.209 . S
C179 O176 1.258 . S
C179 O181 1.282 . S
O180 Cd172 2.277 . S
O180 C173 1.226 . S
O181 Cd172 2.356 . S
O181 C179 1.282 . S
C182 O183 1.306 . S
C182 O185 1.160 . S
O183 C182 1.306 . S
O183 Cd184 2.228 . S
Cd184 O183 2.228 . S
Cd184 O188 2.273 . S
Cd184 O192 2.277 . S
O185 C182 1.160 . S
O185 Cd186 2.203 . S
Cd186 O185 2.203 . S
Cd186 O188 2.411 . S
Cd186 O189 2.333 . S
Cd186 O190 2.352 . S
Cd186 O194 2.277 . S
Cd186 O195 2.356 . S
C187 O192 1.209 . S
C187 O194 1.226 . S
O188 Cd184 2.273 . S
O188 Cd186 2.411 . S
O188 C191 1.320 . S
O189 Cd186 2.333 . S
O189 C191 1.214 . S
O190 Cd186 2.352 . S
O190 C193 1.258 . S
C191 O188 1.320 . S
C191 O189 1.214 . S
O192 Cd184 2.277 . S
O192 C187 1.209 . S
C193 O190 1.258 . S
C193 O195 1.282 . S
O194 Cd186 2.277 . S
O194 C187 1.226 . S
O195 Cd186 2.356 . S
O195 C193 1.282 . S
C196 O197 1.306 . S
C196 O199 1.160 . S
O197 C196 1.306 . S
O197 Cd198 2.228 . S
Cd198 O197 2.228 . S
Cd198 O202 2.273 . S
Cd198 O206 2.277 . S
O199 C196 1.160 . S
O199 Cd200 2.203 . S
Cd200 O199 2.203 . S
Cd200 O202 2.411 . S
Cd200 O203 2.333 . S
Cd200 O204 2.352 . S
Cd200 O208 2.277 . S
Cd200 O209 2.356 . S
C201 O206 1.209 . S
C201 O208 1.226 . S
O202 Cd198 2.273 . S
O202 Cd200 2.411 . S
O202 C205 1.320 . S
O203 Cd200 2.333 . S
O203 C205 1.214 . S
O204 Cd200 2.352 . S
O204 C207 1.258 . S
C205 O202 1.320 . S
C205 O203 1.214 . S
O206 Cd198 2.277 . S
O206 C201 1.209 . S
C207 O204 1.258 . S
C207 O209 1.282 . S
O208 Cd200 2.277 . S
O208 C201 1.226 . S
O209 Cd200 2.356 . S
O209 C207 1.282 . S
C210 O211 1.306 . S
C210 O213 1.160 . S
O211 C210 1.306 . S
O211 Cd212 2.228 . S
Cd212 O211 2.228 . S
Cd212 O216 2.273 . S
Cd212 O220 2.277 . S
O213 C210 1.160 . S
O213 Cd214 2.203 . S
Cd214 O213 2.203 . S
Cd214 O216 2.411 . S
Cd214 O217 2.333 . S
Cd214 O218 2.352 . S
Cd214 O222 2.277 . S
Cd214 O223 2.356 . S
C215 O220 1.209 . S
C215 O222 1.226 . S
O216 Cd212 2.273 . S
O216 Cd214 2.411 . S
O216 C219 1.320 . S
O217 Cd214 2.333 . S
O217 C219 1.214 . S
O218 Cd214 2.352 . S
O218 C221 1.258 . S
C219 O216 1.320 . S
C219 O217 1.214 . S
O220 Cd212 2.277 . S
O220 C215 1.209 . S
C221 O218 1.258 . S
C221 O223 1.282 . S
O222 Cd214 2.277 . S
O222 C215 1.226 . S
O223 Cd214 2.356 . S
O223 C221 1.282 . S
C224 O225 1.306 . S
C224 O227 1.160 . S
O225 C224 1.306 . S
O225 Cd226 2.228 . S
Cd226 O225 2.228 . S
Cd226 O230 2.273 . S
Cd226 O234 2.277 . S
O227 C224 1.160 . S
O227 Cd228 2.203 . S
Cd228 O227 2.203 . S
Cd228 O230 2.411 . S
Cd228 O231 2.333 . S
Cd228 O232 2.352 . S
Cd228 O236 2.277 . S
Cd228 O237 2.356 . S
C229 O234 1.209 . S
C229 O236 1.226 . S
O230 Cd226 2.273 . S
O230 Cd228 2.411 . S
O230 C233 1.320 . S
O231 Cd228 2.333 . S
O231 C233 1.214 . S
O232 Cd228 2.352 . S
O232 C235 1.258 . S
C233 O230 1.320 . S
C233 O231 1.214 . S
O234 Cd226 2.277 . S
O234 C229 1.209 . S
C235 O232 1.258 . S
C235 O237 1.282 . S
O236 Cd228 2.277 . S
O236 C229 1.226 . S
O237 Cd228 2.356 . S
O237 C235 1.282 . S
C238 O239 1.306 . S
C238 O241 1.160 . S
O239 C238 1.306 . S
O239 Cd240 2.228 . S
Cd240 O239 2.228 . S
Cd240 O244 2.273 . S
Cd240 O248 2.277 . S
O241 C238 1.160 . S
O241 Cd242 2.203 . S
Cd242 O241 2.203 . S
Cd242 O244 2.411 . S
Cd242 O245 2.333 . S
Cd242 O246 2.352 . S
Cd242 O250 2.277 . S
Cd242 O251 2.356 . S
C243 O248 1.209 . S
C243 O250 1.226 . S
O244 Cd240 2.273 . S
O244 Cd242 2.411 . S
O244 C247 1.320 . S
O245 Cd242 2.333 . S
O245 C247 1.214 . S
O246 Cd242 2.352 . S
O246 C249 1.258 . S
C247 O244 1.320 . S
C247 O245 1.214 . S
O248 Cd240 2.277 . S
O248 C243 1.209 . S
C249 O246 1.258 . S
C249 O251 1.282 . S
O250 Cd242 2.277 . S
O250 C243 1.226 . S
O251 Cd242 2.356 . S
O251 C249 1.282 . S
C252 O253 1.306 . S
C252 O255 1.160 . S
O253 C252 1.306 . S
O253 Cd254 2.228 . S
Cd254 O253 2.228 . S
Cd254 O258 2.273 . S
Cd254 O262 2.277 . S
O255 C252 1.160 . S
O255 Cd256 2.203 . S
Cd256 O255 2.203 . S
Cd256 O258 2.411 . S
Cd256 O259 2.333 . S
Cd256 O260 2.352 . S
Cd256 O264 2.277 . S
Cd256 O265 2.356 . S
C257 O262 1.209 . S
C257 O264 1.226 . S
O258 Cd254 2.273 . S
O258 Cd256 2.411 . S
O258 C261 1.320 . S
O259 Cd256 2.333 . S
O259 C261 1.214 . S
O260 Cd256 2.352 . S
O260 C263 1.258 . S
C261 O258 1.320 . S
C261 O259 1.214 . S
O262 Cd254 2.277 . S
O262 C257 1.209 . S
C263 O260 1.258 . S
C263 O265 1.282 . S
O264 Cd256 2.277 . S
O264 C257 1.226 . S
O265 Cd256 2.356 . S
O265 C263 1.282 . S
C266 O267 1.306 . S
C266 O269 1.160 . S
O267 C266 1.306 . S
O267 Cd268 2.228 . S
Cd268 O267 2.228 . S
Cd268 O272 2.273 . S
Cd268 O276 2.277 . S
O269 C266 1.160 . S
O269 Cd270 2.203 . S
Cd270 O269 2.203 . S
Cd270 O272 2.411 . S
Cd270 O273 2.333 . S
Cd270 O274 2.352 . S
Cd270 O278 2.277 . S
Cd270 O279 2.356 . S
C271 O276 1.209 . S
C271 O278 1.226 . S
O272 Cd268 2.273 . S
O272 Cd270 2.411 . S
O272 C275 1.320 . S
O273 Cd270 2.333 . S
O273 C275 1.214 . S
O274 Cd270 2.352 . S
O274 C277 1.258 . S
C275 O272 1.320 . S
C275 O273 1.214 . S
O276 Cd268 2.277 . S
O276 C271 1.209 . S
C277 O274 1.258 . S
C277 O279 1.282 . S
O278 Cd270 2.277 . S
O278 C271 1.226 . S
O279 Cd270 2.356 . S
O279 C277 1.282 . S
C280 O281 1.306 . S
C280 O283 1.160 . S
O281 C280 1.306 . S
O281 Cd282 2.228 . S
Cd282 O281 2.228 . S
Cd282 O286 2.273 . S
Cd282 O290 2.277 . S
O283 C280 1.160 . S
O283 Cd284 2.203 . S
Cd284 O283 2.203 . S
Cd284 O286 2.411 . S
Cd284 O287 2.333 . S
Cd284 O288 2.352 . S
Cd284 O292 2.277 . S
Cd284 O293 2.356 . S
C285 O290 1.209 . S
C285 O292 1.226 . S
O286 Cd282 2.273 . S
O286 Cd284 2.411 . S
O286 C289 1.320 . S
O287 Cd284 2.333 . S
O287 C289 1.214 . S
O288 Cd284 2.352 . S
O288 C291 1.258 . S
C289 O286 1.320 . S
C289 O287 1.214 . S
O290 Cd282 2.277 . S
O290 C285 1.209 . S
C291 O288 1.258 . S
C291 O293 1.282 . S
O292 Cd284 2.277 . S
O292 C285 1.226 . S
O293 Cd284 2.356 . S
O293 C291 1.282 . S
C294 O295 1.306 . S
C294 O297 1.160 . S
O295 C294 1.306 . S
O295 Cd296 2.228 . S
Cd296 O295 2.228 . S
Cd296 O300 2.273 . S
Cd296 O304 2.277 . S
O297 C294 1.160 . S
O297 Cd298 2.203 . S
Cd298 O297 2.203 . S
Cd298 O300 2.411 . S
Cd298 O301 2.333 . S
Cd298 O302 2.352 . S
Cd298 O306 2.277 . S
Cd298 O307 2.356 . S
C299 O304 1.209 . S
C299 O306 1.226 . S
O300 Cd296 2.273 . S
O300 Cd298 2.411 . S
O300 C303 1.320 . S
O301 Cd298 2.333 . S
O301 C303 1.214 . S
O302 Cd298 2.352 . S
O302 C305 1.258 . S
C303 O300 1.320 . S
C303 O301 1.214 . S
O304 Cd296 2.277 . S
O304 C299 1.209 . S
C305 O302 1.258 . S
C305 O307 1.282 . S
O306 Cd298 2.277 . S
O306 C299 1.226 . S
O307 Cd298 2.356 . S
O307 C305 1.282 . S
C308 O309 1.306 . S
C308 O311 1.160 . S
O309 C308 1.306 . S
O309 Cd310 2.228 . S
Cd310 O309 2.228 . S
Cd310 O314 2.273 . S
Cd310 O318 2.277 . S
O311 C308 1.160 . S
O311 Cd312 2.203 . S
Cd312 O311 2.203 . S
Cd312 O314 2.411 . S
Cd312 O315 2.333 . S
Cd312 O316 2.352 . S
Cd312 O320 2.277 . S
Cd312 O321 2.356 . S
C313 O318 1.209 . S
C313 O320 1.226 . S
O314 Cd310 2.273 . S
O314 Cd312 2.411 . S
O314 C317 1.320 . S
O315 Cd312 2.333 . S
O315 C317 1.214 . S
O316 Cd312 2.352 . S
O316 C319 1.258 . S
C317 O314 1.320 . S
C317 O315 1.214 . S
O318 Cd310 2.277 . S
O318 C313 1.209 . S
C319 O316 1.258 . S
C319 O321 1.282 . S
O320 Cd312 2.277 . S
O320 C313 1.226 . S
O321 Cd312 2.356 . S
O321 C319 1.282 . S
C322 O323 1.306 . S
C322 O325 1.160 . S
O323 C322 1.306 . S
O323 Cd324 2.228 . S
Cd324 O323 2.228 . S
Cd324 O328 2.273 . S
Cd324 O332 2.277 . S
O325 C322 1.160 . S
O325 Cd326 2.203 . S
Cd326 O325 2.203 . S
Cd326 O328 2.411 . S
Cd326 O329 2.333 . S
Cd326 O330 2.352 . S
Cd326 O334 2.277 . S
Cd326 O335 2.356 . S
C327 O332 1.209 . S
C327 O334 1.226 . S
O328 Cd324 2.273 . S
O328 Cd326 2.411 . S
O328 C331 1.320 . S
O329 Cd326 2.333 . S
O329 C331 1.214 . S
O330 Cd326 2.352 . S
O330 C333 1.258 . S
C331 O328 1.320 . S
C331 O329 1.214 . S
O332 Cd324 2.277 . S
O332 C327 1.209 . S
C333 O330 1.258 . S
C333 O335 1.282 . S
O334 Cd326 2.277 . S
O334 C327 1.226 . S
O335 Cd326 2.356 . S
O335 C333 1.282 . S
C336 O337 1.306 . S
C336 O339 1.160 . S
O337 C336 1.306 . S
O337 Cd338 2.228 . S
Cd338 O337 2.228 . S
Cd338 O342 2.273 . S
Cd338 O346 2.277 . S
O339 C336 1.160 . S
O339 Cd340 2.203 . S
Cd340 O339 2.203 . S
Cd340 O342 2.411 . S
Cd340 O343 2.333 . S
Cd340 O344 2.352 . S
Cd340 O348 2.277 . S
Cd340 O349 2.356 . S
C341 O346 1.209 . S
C341 O348 1.226 . S
O342 Cd338 2.273 . S
O342 Cd340 2.411 . S
O342 C345 1.320 . S
O343 Cd340 2.333 . S
O343 C345 1.214 . S
O344 Cd340 2.352 . S
O344 C347 1.258 . S
C345 O342 1.320 . S
C345 O343 1.214 . S
O346 Cd338 2.277 . S
O346 C341 1.209 . S
C347 O344 1.258 . S
C347 O349 1.282 . S
O348 Cd340 2.277 . S
O348 C341 1.226 . S
O349 Cd340 2.356 . S
O349 C347 1.282 . S
C350 O351 1.306 . S
C350 O353 1.160 . S
O351 C350 1.306 . S
O351 Cd352 2.228 . S
Cd352 O351 2.228 . S
Cd352 O356 2.273 . S
Cd352 O360 2.277 . S
O353 C350 1.160 . S
O353 Cd354 2.203 . S
Cd354 O353 2.203 . S
Cd354 O356 2.411 . S
Cd354 O357 2.333 . S
Cd354 O358 2.352 . S
Cd354 O362 2.277 . S
Cd354 O363 2.356 . S
C355 O360 1.209 . S
C355 O362 1.226 . S
O356 Cd352 2.273 . S
O356 Cd354 2.411 . S
O356 C359 1.320 . S
O357 Cd354 2.333 . S
O357 C359 1.214 . S
O358 Cd354 2.352 . S
O358 C361 1.258 . S
C359 O356 1.320 . S
C359 O357 1.214 . S
O360 Cd352 2.277 . S
O360 C355 1.209 . S
C361 O358 1.258 . S
C361 O363 1.282 . S
O362 Cd354 2.277 . S
O362 C355 1.226 . S
O363 Cd354 2.356 . S
O363 C361 1.282 . S
C364 O365 1.306 . S
C364 O367 1.160 . S
O365 C364 1.306 . S
O365 Cd366 2.228 . S
Cd366 O365 2.228 . S
Cd366 O370 2.273 . S
Cd366 O374 2.277 . S
O367 C364 1.160 . S
O367 Cd368 2.203 . S
Cd368 O367 2.203 . S
Cd368 O370 2.411 . S
Cd368 O371 2.333 . S
Cd368 O372 2.352 . S
Cd368 O376 2.277 . S
Cd368 O377 2.356 . S
C369 O374 1.209 . S
C369 O376 1.226 . S
O370 Cd366 2.273 . S
O370 Cd368 2.411 . S
O370 C373 1.320 . S
O371 Cd368 2.333 . S
O371 C373 1.214 . S
O372 Cd368 2.352 . S
O372 C375 1.258 . S
C373 O370 1.320 . S
C373 O371 1.214 . S
O374 Cd366 2.277 . S
O374 C369 1.209 . S
C375 O372 1.258 . S
C375 O377 1.282 . S
O376 Cd368 2.277 . S
O376 C369 1.226 . S
O377 Cd368 2.356 . S
O377 C375 1.282 . S
C378 O379 1.306 . S
C378 O381 1.160 . S
O379 C378 1.306 . S
O379 Cd380 2.228 . S
Cd380 O379 2.228 . S
Cd380 O384 2.273 . S
Cd380 O388 2.277 . S
O381 C378 1.160 . S
O381 Cd382 2.203 . S
Cd382 O381 2.203 . S
Cd382 O384 2.411 . S
Cd382 O385 2.333 . S
Cd382 O386 2.352 . S
Cd382 O390 2.277 . S
Cd382 O391 2.356 . S
C383 O388 1.209 . S
C383 O390 1.226 . S
O384 Cd380 2.273 . S
O384 Cd382 2.411 . S
O384 C387 1.320 . S
O385 Cd382 2.333 . S
O385 C387 1.214 . S
O386 Cd382 2.352 . S
O386 C389 1.258 . S
C387 O384 1.320 . S
C387 O385 1.214 . S
O388 Cd380 2.277 . S
O388 C383 1.209 . S
C389 O386 1.258 . S
C389 O391 1.282 . S
O390 Cd382 2.277 . S
O390 C383 1.226 . S
O391 Cd382 2.356 . S
O391 C389 1.282 . S
C392 O393 1.306 . S
C392 O395 1.160 . S
O393 C392 1.306 . S
O393 Cd394 2.228 . S
Cd394 O393 2.228 . S
Cd394 O398 2.273 . S
Cd394 O402 2.277 . S
O395 C392 1.160 . S
O395 Cd396 2.203 . S
Cd396 O395 2.203 . S
Cd396 O398 2.411 . S
Cd396 O399 2.333 . S
Cd396 O400 2.352 . S
Cd396 O404 2.277 . S
Cd396 O405 2.356 . S
C397 O402 1.209 . S
C397 O404 1.226 . S
O398 Cd394 2.273 . S
O398 Cd396 2.411 . S
O398 C401 1.320 . S
O399 Cd396 2.333 . S
O399 C401 1.214 . S
O400 Cd396 2.352 . S
O400 C403 1.258 . S
C401 O398 1.320 . S
C401 O399 1.214 . S
O402 Cd394 2.277 . S
O402 C397 1.209 . S
C403 O400 1.258 . S
C403 O405 1.282 . S
O404 Cd396 2.277 . S
O404 C397 1.226 . S
O405 Cd396 2.356 . S
O405 C403 1.282 . S
C406 O407 1.306 . S
C406 O409 1.160 . S
O407 C406 1.306 . S
O407 Cd408 2.228 . S
Cd408 O407 2.228 . S
Cd408 O412 2.273 . S
Cd408 O416 2.277 . S
O409 C406 1.160 . S
O409 Cd410 2.203 . S
Cd410 O409 2.203 . S
Cd410 O412 2.411 . S
Cd410 O413 2.333 . S
Cd410 O414 2.352 . S
Cd410 O418 2.277 . S
Cd410 O419 2.356 . S
C411 O416 1.209 . S
C411 O418 1.226 . S
O412 Cd408 2.273 . S
O412 Cd410 2.411 . S
O412 C415 1.320 . S
O413 Cd410 2.333 . S
O413 C415 1.214 . S
O414 Cd410 2.352 . S
O414 C417 1.258 . S
C415 O412 1.320 . S
C415 O413 1.214 . S
O416 Cd408 2.277 . S
O416 C411 1.209 . S
C417 O414 1.258 . S
C417 O419 1.282 . S
O418 Cd410 2.277 . S
O418 C411 1.226 . S
O419 Cd410 2.356 . S
O419 C417 1.282 . S
C420 O421 1.306 . S
C420 O423 1.160 . S
O421 C420 1.306 . S
O421 Cd422 2.228 . S
Cd422 O421 2.228 . S
Cd422 O426 2.273 . S
Cd422 O430 2.277 . S
O423 C420 1.160 . S
O423 Cd424 2.203 . S
Cd424 O423 2.203 . S
Cd424 O426 2.411 . S
Cd424 O427 2.333 . S
Cd424 O428 2.352 . S
Cd424 O432 2.277 . S
Cd424 O433 2.356 . S
C425 O430 1.209 . S
C425 O432 1.226 . S
O426 Cd422 2.273 . S
O426 Cd424 2.411 . S
O426 C429 1.320 . S
O427 Cd424 2.333 . S
O427 C429 1.214 . S
O428 Cd424 2.352 . S
O428 C431 1.258 . S
C429 O426 1.320 . S
C429 O427 1.214 . S
O430 Cd422 2.277 . S
O430 C425 1.209 . S
C431 O428 1.258 . S
C431 O433 1.282 . S
O432 Cd424 2.277 . S
O432 C425 1.226 . S
O433 Cd424 2.356 . S
O433 C431 1.282 . S
C434 O435 1.306 . S
C434 O437 1.160 . S
O435 C434 1.306 . S
O435 Cd436 2.228 . S
Cd436 O435 2.228 . S
Cd436 O440 2.273 . S
Cd436 O444 2.277 . S
O437 C434 1.160 . S
O437 Cd438 2.203 . S
Cd438 O437 2.203 . S
Cd438 O440 2.411 . S
Cd438 O441 2.333 . S
Cd438 O442 2.352 . S
Cd438 O446 2.277 . S
Cd438 O447 2.356 . S
C439 O444 1.209 . S
C439 O446 1.226 . S
O440 Cd436 2.273 . S
O440 Cd438 2.411 . S
O440 C443 1.320 . S
O441 Cd438 2.333 . S
O441 C443 1.214 . S
O442 Cd438 2.352 . S
O442 C445 1.258 . S
C443 O440 1.320 . S
C443 O441 1.214 . S
O444 Cd436 2.277 . S
O444 C439 1.209 . S
C445 O442 1.258 . S
C445 O447 1.282 . S
O446 Cd438 2.277 . S
O446 C439 1.226 . S
O447 Cd438 2.356 . S
O447 C445 1.282 . S
C448 C449 1.349 . S
C448 C450 1.327 . S
C448 H473 0.950 . S
C449 C448 1.349 . S
C449 C465 1.349 . S
C450 C448 1.327 . S
C450 C469 1.429 . S
C450 H474 0.950 . S
C451 C468 1.574 . S
C451 C470 1.368 . S
C451 H475 0.949 . S
H452 C456 0.949 . S
C453 C454 1.349 . S
C453 C455 1.327 . S
C453 H476 0.950 . S
C454 C453 1.349 . S
C454 C466 1.349 . S
C455 C453 1.327 . S
C455 C471 1.429 . S
C455 H477 0.950 . S
C456 H452 0.949 . S
C456 C464 1.574 . S
C456 C472 1.368 . S
H457 C465 0.950 . S
H458 C463 0.950 . S
H459 C464 0.949 . S
H460 C466 0.950 . S
H461 C467 0.950 . S
H462 C468 0.949 . S
C463 H458 0.950 . S
C463 C465 1.327 . S
C463 C469 1.429 . S
C464 C456 1.574 . S
C464 H459 0.949 . S
C464 C470 1.368 . S
C465 C449 1.349 . S
C465 H457 0.950 . S
C465 C463 1.327 . S
C466 C454 1.349 . S
C466 H460 0.950 . S
C466 C467 1.327 . S
C467 H461 0.950 . S
C467 C466 1.327 . S
C467 C471 1.429 . S
C468 C451 1.574 . S
C468 H462 0.949 . S
C468 C472 1.368 . S
C469 C450 1.429 . S
C469 C463 1.429 . S
C469 C470 1.523 . S
C470 C451 1.368 . S
C470 C464 1.368 . S
C470 C469 1.523 . S
C471 C455 1.429 . S
C471 C467 1.429 . S
C471 C472 1.523 . S
C472 C456 1.368 . S
C472 C468 1.368 . S
C472 C471 1.523 . S
H473 C448 0.950 . S
H474 C450 0.950 . S
H475 C451 0.949 . S
H476 C453 0.950 . S
H477 C455 0.950 . S
C478 C479 1.349 . S
C478 C480 1.327 . S
C478 H503 0.950 . S
C479 C478 1.349 . S
C479 C495 1.349 . S
C480 C478 1.327 . S
C480 C499 1.429 . S
C480 H504 0.950 . S
C481 C498 1.574 1_565 S
C481 C500 1.368 . S
C481 H505 0.949 . S
H482 C486 0.949 . S
C483 C484 1.349 . S
C483 C485 1.327 . S
C483 H506 0.950 . S
C484 C483 1.349 . S
C484 C496 1.349 . S
C485 C483 1.327 . S
C485 C501 1.429 . S
C485 H507 0.950 . S
C486 H482 0.949 . S
C486 C494 1.574 1_545 S
C486 C502 1.368 . S
H487 C495 0.950 . S
H488 C493 0.950 . S
H489 C494 0.949 . S
H490 C496 0.950 . S
H491 C497 0.950 . S
H492 C498 0.949 . S
C493 H488 0.950 . S
C493 C495 1.327 . S
C493 C499 1.429 . S
C494 C486 1.574 1_565 S
C494 H489 0.949 . S
C494 C500 1.368 . S
C495 C479 1.349 . S
C495 H487 0.950 . S
C495 C493 1.327 . S
C496 C484 1.349 . S
C496 H490 0.950 . S
C496 C497 1.327 . S
C497 H491 0.950 . S
C497 C496 1.327 . S
C497 C501 1.429 . S
C498 C481 1.574 1_545 S
C498 H492 0.949 . S
C498 C502 1.368 . S
C499 C480 1.429 . S
C499 C493 1.429 . S
C499 C500 1.523 . S
C500 C481 1.368 . S
C500 C494 1.368 . S
C500 C499 1.523 . S
C501 C485 1.429 . S
C501 C497 1.429 . S
C501 C502 1.523 . S
C502 C486 1.368 . S
C502 C498 1.368 . S
C502 C501 1.523 . S
H503 C478 0.950 . S
H504 C480 0.950 . S
H505 C481 0.949 . S
H506 C483 0.950 . S
H507 C485 0.950 . S
C508 C509 1.349 . S
C508 C510 1.327 . S
C508 H533 0.950 . S
C509 C508 1.349 . S
C509 C525 1.349 . S
C510 C508 1.327 . S
C510 C529 1.429 . S
C510 H534 0.950 . S
C511 C528 1.574 . S
C511 C530 1.368 . S
C511 H535 0.949 . S
H512 C516 0.949 . S
C513 C514 1.349 . S
C513 C515 1.327 . S
C513 H536 0.950 . S
C514 C513 1.349 . S
C514 C526 1.349 . S
C515 C513 1.327 . S
C515 C531 1.429 . S
C515 H537 0.950 . S
C516 H512 0.949 . S
C516 C524 1.574 . S
C516 C532 1.368 . S
H517 C525 0.950 . S
H518 C523 0.950 . S
H519 C524 0.949 . S
H520 C526 0.950 . S
H521 C527 0.950 . S
H522 C528 0.949 . S
C523 H518 0.950 . S
C523 C525 1.327 . S
C523 C529 1.429 . S
C524 C516 1.574 . S
C524 H519 0.949 . S
C524 C530 1.368 . S
C525 C509 1.349 . S
C525 H517 0.950 . S
C525 C523 1.327 . S
C526 C514 1.349 . S
C526 H520 0.950 . S
C526 C527 1.327 . S
C527 H521 0.950 . S
C527 C526 1.327 . S
C527 C531 1.429 . S
C528 C511 1.574 . S
C528 H522 0.949 . S
C528 C532 1.368 . S
C529 C510 1.429 . S
C529 C523 1.429 . S
C529 C530 1.523 . S
C530 C511 1.368 . S
C530 C524 1.368 . S
C530 C529 1.523 . S
C531 C515 1.429 . S
C531 C527 1.429 . S
C531 C532 1.523 . S
C532 C516 1.368 . S
C532 C528 1.368 . S
C532 C531 1.523 . S
H533 C508 0.950 . S
H534 C510 0.950 . S
H535 C511 0.949 . S
H536 C513 0.950 . S
H537 C515 0.950 . S
C538 C539 1.349 . S
C538 C540 1.327 . S
C538 H563 0.950 . S
C539 C538 1.349 . S
C539 C555 1.349 . S
C540 C538 1.327 . S
C540 C559 1.429 . S
C540 H564 0.950 1_556 S
C541 C558 1.574 1_545 S
C541 C560 1.368 . S
C541 H565 0.949 . S
H542 C546 0.949 . S
C543 C544 1.349 . S
C543 C545 1.327 . S
C543 H566 0.950 . S
C544 C543 1.349 . S
C544 C556 1.349 . S
C545 C543 1.327 . S
C545 C561 1.429 . S
C545 H567 0.950 1_554 S
C546 H542 0.949 . S
C546 C554 1.574 1_565 S
C546 C562 1.368 . S
H547 C555 0.950 . S
H548 C553 0.950 . S
H549 C554 0.949 . S
H550 C556 0.950 . S
H551 C557 0.950 . S
H552 C558 0.949 . S
C553 H548 0.950 . S
C553 C555 1.327 . S
C553 C559 1.429 . S
C554 C546 1.574 1_545 S
C554 H549 0.949 . S
C554 C560 1.368 1_554 S
C555 C539 1.349 . S
C555 H547 0.950 . S
C555 C553 1.327 . S
C556 C544 1.349 . S
C556 H550 0.950 . S
C556 C557 1.327 . S
C557 H551 0.950 . S
C557 C556 1.327 . S
C557 C561 1.429 . S
C558 C541 1.574 1_565 S
C558 H552 0.949 . S
C558 C562 1.368 1_556 S
C559 C540 1.429 . S
C559 C553 1.429 . S
C559 C560 1.523 . S
C560 C541 1.368 . S
C560 C554 1.368 1_556 S
C560 C559 1.523 . S
C561 C545 1.429 . S
C561 C557 1.429 . S
C561 C562 1.523 . S
C562 C546 1.368 . S
C562 C558 1.368 1_554 S
C562 C561 1.523 . S
H563 C538 0.950 . S
H564 C540 0.950 1_554 S
H565 C541 0.949 . S
H566 C543 0.950 . S
H567 C545 0.950 1_556 S
C568 C569 1.349 . S
C568 C570 1.327 . S
C568 H593 0.950 . S
C569 C568 1.349 . S
C569 C585 1.349 . S
C570 C568 1.327 . S
C570 C589 1.429 . S
C570 H594 0.950 . S
C571 C588 1.574 . S
C571 C590 1.368 . S
C571 H595 0.949 . S
H572 C576 0.949 . S
C573 C574 1.349 . S
C573 C575 1.327 . S
C573 H596 0.950 . S
C574 C573 1.349 . S
C574 C586 1.349 . S
C575 C573 1.327 . S
C575 C591 1.429 . S
C575 H597 0.950 . S
C576 H572 0.949 . S
C576 C584 1.574 . S
C576 C592 1.368 . S
H577 C585 0.950 . S
H578 C583 0.950 . S
H579 C584 0.949 . S
H580 C586 0.950 . S
H581 C587 0.950 . S
H582 C588 0.949 . S
C583 H578 0.950 . S
C583 C585 1.327 . S
C583 C589 1.429 . S
C584 C576 1.574 . S
C584 H579 0.949 . S
C584 C590 1.368 . S
C585 C569 1.349 . S
C585 H577 0.950 . S
C585 C583 1.327 . S
C586 C574 1.349 . S
C586 H580 0.950 . S
C586 C587 1.327 . S
C587 H581 0.950 . S
C587 C586 1.327 . S
C587 C591 1.429 . S
C588 C571 1.574 . S
C588 H582 0.949 . S
C588 C592 1.368 . S
C589 C570 1.429 . S
C589 C583 1.429 . S
C589 C590 1.523 . S
C590 C571 1.368 . S
C590 C584 1.368 . S
C590 C589 1.523 . S
C591 C575 1.429 . S
C591 C587 1.429 . S
C591 C592 1.523 . S
C592 C576 1.368 . S
C592 C588 1.368 . S
C592 C591 1.523 . S
H593 C568 0.950 . S
H594 C570 0.950 . S
H595 C571 0.949 . S
H596 C573 0.950 . S
H597 C575 0.950 . S
C598 C599 1.349 . S
C598 C600 1.327 . S
C598 H623 0.950 . S
C599 C598 1.349 . S
C599 C615 1.349 . S
C600 C598 1.327 . S
C600 C619 1.429 . S
C600 H624 0.950 . S
C601 C618 1.574 1_565 S
C601 C620 1.368 . S
C601 H625 0.949 . S
H602 C606 0.949 . S
C603 C604 1.349 . S
C603 C605 1.327 . S
C603 H626 0.950 . S
C604 C603 1.349 . S
C604 C616 1.349 . S
C605 C603 1.327 . S
C605 C621 1.429 . S
C605 H627 0.950 . S
C606 H602 0.949 . S
C606 C614 1.574 1_545 S
C606 C622 1.368 . S
H607 C615 0.950 . S
H608 C613 0.950 . S
H609 C614 0.949 . S
H610 C616 0.950 . S
H611 C617 0.950 . S
H612 C618 0.949 . S
C613 H608 0.950 . S
C613 C615 1.327 . S
C613 C619 1.429 . S
C614 C606 1.574 1_565 S
C614 H609 0.949 . S
C614 C620 1.368 . S
C615 C599 1.349 . S
C615 H607 0.950 . S
C615 C613 1.327 . S
C616 C604 1.349 . S
C616 H610 0.950 . S
C616 C617 1.327 . S
C617 H611 0.950 . S
C617 C616 1.327 . S
C617 C621 1.429 . S
C618 C601 1.574 1_545 S
C618 H612 0.949 . S
C618 C622 1.368 . S
C619 C600 1.429 . S
C619 C613 1.429 . S
C619 C620 1.523 . S
C620 C601 1.368 . S
C620 C614 1.368 . S
C620 C619 1.523 . S
C621 C605 1.429 . S
C621 C617 1.429 . S
C621 C622 1.523 . S
C622 C606 1.368 . S
C622 C618 1.368 . S
C622 C621 1.523 . S
H623 C598 0.950 . S
H624 C600 0.950 . S
H625 C601 0.949 . S
H626 C603 0.950 . S
H627 C605 0.950 . S
C628 C629 1.349 . S
C628 C630 1.327 . S
C628 H653 0.950 . S
C629 C628 1.349 . S
C629 C645 1.349 . S
C630 C628 1.327 . S
C630 C649 1.429 . S
C630 H654 0.950 . S
C631 C648 1.574 . S
C631 C650 1.368 . S
C631 H655 0.949 . S
H632 C636 0.949 . S
C633 C634 1.349 . S
C633 C635 1.327 . S
C633 H656 0.950 . S
C634 C633 1.349 . S
C634 C646 1.349 . S
C635 C633 1.327 . S
C635 C651 1.429 . S
C635 H657 0.950 . S
C636 H632 0.949 . S
C636 C644 1.574 . S
C636 C652 1.368 . S
H637 C645 0.950 . S
H638 C643 0.950 . S
H639 C644 0.949 . S
H640 C646 0.950 . S
H641 C647 0.950 . S
H642 C648 0.949 . S
C643 H638 0.950 . S
C643 C645 1.327 . S
C643 C649 1.429 . S
C644 C636 1.574 . S
C644 H639 0.949 . S
C644 C650 1.368 . S
C645 C629 1.349 . S
C645 H637 0.950 . S
C645 C643 1.327 . S
C646 C634 1.349 . S
C646 H640 0.950 . S
C646 C647 1.327 . S
C647 H641 0.950 . S
C647 C646 1.327 . S
C647 C651 1.429 . S
C648 C631 1.574 . S
C648 H642 0.949 . S
C648 C652 1.368 . S
C649 C630 1.429 . S
C649 C643 1.429 . S
C649 C650 1.523 . S
C650 C631 1.368 . S
C650 C644 1.368 . S
C650 C649 1.523 . S
C651 C635 1.429 . S
C651 C647 1.429 . S
C651 C652 1.523 . S
C652 C636 1.368 . S
C652 C648 1.368 . S
C652 C651 1.523 . S
H653 C628 0.950 . S
H654 C630 0.950 . S
H655 C631 0.949 . S
H656 C633 0.950 . S
H657 C635 0.950 . S
C658 C659 1.349 . S
C658 C660 1.327 . S
C658 H683 0.950 . S
C659 C658 1.349 . S
C659 C675 1.349 . S
C660 C658 1.327 . S
C660 C679 1.429 . S
C660 H684 0.950 1_556 S
C661 C678 1.574 1_545 S
C661 C680 1.368 . S
C661 H685 0.949 . S
H662 C666 0.949 . S
C663 C664 1.349 . S
C663 C665 1.327 . S
C663 H686 0.950 . S
C664 C663 1.349 . S
C664 C676 1.349 . S
C665 C663 1.327 . S
C665 C681 1.429 . S
C665 H687 0.950 1_554 S
C666 H662 0.949 . S
C666 C674 1.574 1_565 S
C666 C682 1.368 . S
H667 C675 0.950 . S
H668 C673 0.950 . S
H669 C674 0.949 . S
H670 C676 0.950 . S
H671 C677 0.950 . S
H672 C678 0.949 . S
C673 H668 0.950 . S
C673 C675 1.327 . S
C673 C679 1.429 . S
C674 C666 1.574 1_545 S
C674 H669 0.949 . S
C674 C680 1.368 1_554 S
C675 C659 1.349 . S
C675 H667 0.950 . S
C675 C673 1.327 . S
C676 C664 1.349 . S
C676 H670 0.950 . S
C676 C677 1.327 . S
C677 H671 0.950 . S
C677 C676 1.327 . S
C677 C681 1.429 . S
C678 C661 1.574 1_565 S
C678 H672 0.949 . S
C678 C682 1.368 1_556 S
C679 C660 1.429 . S
C679 C673 1.429 . S
C679 C680 1.523 . S
C680 C661 1.368 . S
C680 C674 1.368 1_556 S
C680 C679 1.523 . S
C681 C665 1.429 . S
C681 C677 1.429 . S
C681 C682 1.523 . S
C682 C666 1.368 . S
C682 C678 1.368 1_554 S
C682 C681 1.523 . S
H683 C658 0.950 . S
H684 C660 0.950 1_554 S
H685 C661 0.949 . S
H686 C663 0.950 . S
H687 C665 0.950 1_556 S
C688 C689 1.349 . S
C688 C690 1.327 . S
C688 H713 0.950 . S
C689 C688 1.349 . S
C689 C705 1.349 . S
C690 C688 1.327 . S
C690 C709 1.429 . S
C690 H714 0.950 . S
C691 C708 1.574 . S
C691 C710 1.368 . S
C691 H715 0.949 . S
H692 C696 0.949 . S
C693 C694 1.349 . S
C693 C695 1.327 . S
C693 H716 0.950 . S
C694 C693 1.349 . S
C694 C706 1.349 . S
C695 C693 1.327 . S
C695 C711 1.429 . S
C695 H717 0.950 . S
C696 H692 0.949 . S
C696 C704 1.574 . S
C696 C712 1.368 . S
H697 C705 0.950 . S
H698 C703 0.950 . S
H699 C704 0.949 . S
H700 C706 0.950 . S
H701 C707 0.950 . S
H702 C708 0.949 . S
C703 H698 0.950 . S
C703 C705 1.327 . S
C703 C709 1.429 . S
C704 C696 1.574 . S
C704 H699 0.949 . S
C704 C710 1.368 . S
C705 C689 1.349 . S
C705 H697 0.950 . S
C705 C703 1.327 . S
C706 C694 1.349 . S
C706 H700 0.950 . S
C706 C707 1.327 . S
C707 H701 0.950 . S
C707 C706 1.327 . S
C707 C711 1.429 . S
C708 C691 1.574 . S
C708 H702 0.949 . S
C708 C712 1.368 . S
C709 C690 1.429 . S
C709 C703 1.429 . S
C709 C710 1.523 . S
C710 C691 1.368 . S
C710 C704 1.368 . S
C710 C709 1.523 . S
C711 C695 1.429 . S
C711 C707 1.429 . S
C711 C712 1.523 . S
C712 C696 1.368 . S
C712 C708 1.368 . S
C712 C711 1.523 . S
H713 C688 0.950 . S
H714 C690 0.950 . S
H715 C691 0.949 . S
H716 C693 0.950 . S
H717 C695 0.950 . S
C718 C719 1.349 . S
C718 C720 1.327 . S
C718 H743 0.950 . S
C719 C718 1.349 . S
C719 C735 1.349 . S
C720 C718 1.327 . S
C720 C739 1.429 . S
C720 H744 0.950 . S
C721 C738 1.574 . S
C721 C740 1.368 1_554 S
C721 H745 0.949 . S
H722 C726 0.949 . S
C723 C724 1.349 . S
C723 C725 1.327 . S
C723 H746 0.950 . S
C724 C723 1.349 . S
C724 C736 1.349 . S
C725 C723 1.327 . S
C725 C741 1.429 . S
C725 H747 0.950 . S
C726 H722 0.949 . S
C726 C734 1.574 . S
C726 C742 1.368 1_556 S
H727 C735 0.950 . S
H728 C733 0.950 1_554 S
H729 C734 0.949 . S
H730 C736 0.950 . S
H731 C737 0.950 1_556 S
H732 C738 0.949 . S
C733 H728 0.950 1_556 S
C733 C735 1.327 . S
C733 C739 1.429 . S
C734 C726 1.574 . S
C734 H729 0.949 . S
C734 C740 1.368 . S
C735 C719 1.349 . S
C735 H727 0.950 . S
C735 C733 1.327 . S
C736 C724 1.349 . S
C736 H730 0.950 . S
C736 C737 1.327 . S
C737 H731 0.950 1_554 S
C737 C736 1.327 . S
C737 C741 1.429 . S
C738 C721 1.574 . S
C738 H732 0.949 . S
C738 C742 1.368 . S
C739 C720 1.429 . S
C739 C733 1.429 . S
C739 C740 1.523 . S
C740 C721 1.368 1_556 S
C740 C734 1.368 . S
C740 C739 1.523 . S
C741 C725 1.429 . S
C741 C737 1.429 . S
C741 C742 1.523 . S
C742 C726 1.368 1_554 S
C742 C738 1.368 . S
C742 C741 1.523 . S
H743 C718 0.950 . S
H744 C720 0.950 . S
H745 C721 0.949 . S
H746 C723 0.950 . S
H747 C725 0.950 . S
C748 C749 1.349 . S
C748 C750 1.327 . S
C748 H773 0.950 . S
C749 C748 1.349 . S
C749 C765 1.349 . S
C750 C748 1.327 . S
C750 C769 1.429 . S
C750 H774 0.950 . S
C751 C768 1.574 . S
C751 C770 1.368 . S
C751 H775 0.949 . S
H752 C756 0.949 . S
C753 C754 1.349 . S
C753 C755 1.327 . S
C753 H776 0.950 . S
C754 C753 1.349 . S
C754 C766 1.349 . S
C755 C753 1.327 . S
C755 C771 1.429 . S
C755 H777 0.950 . S
C756 H752 0.949 . S
C756 C764 1.574 . S
C756 C772 1.368 . S
H757 C765 0.950 . S
H758 C763 0.950 . S
H759 C764 0.949 . S
H760 C766 0.950 . S
H761 C767 0.950 . S
H762 C768 0.949 . S
C763 H758 0.950 . S
C763 C765 1.327 . S
C763 C769 1.429 . S
C764 C756 1.574 . S
C764 H759 0.949 . S
C764 C770 1.368 . S
C765 C749 1.349 . S
C765 H757 0.950 . S
C765 C763 1.327 . S
C766 C754 1.349 . S
C766 H760 0.950 . S
C766 C767 1.327 . S
C767 H761 0.950 . S
C767 C766 1.327 . S
C767 C771 1.429 . S
C768 C751 1.574 . S
C768 H762 0.949 . S
C768 C772 1.368 . S
C769 C750 1.429 . S
C769 C763 1.429 . S
C769 C770 1.523 . S
C770 C751 1.368 . S
C770 C764 1.368 . S
C770 C769 1.523 . S
C771 C755 1.429 . S
C771 C767 1.429 . S
C771 C772 1.523 . S
C772 C756 1.368 . S
C772 C768 1.368 . S
C772 C771 1.523 . S
H773 C748 0.950 . S
H774 C750 0.950 . S
H775 C751 0.949 . S
H776 C753 0.950 . S
H777 C755 0.950 . S
C778 C779 1.349 . S
C778 C780 1.327 . S
C778 H803 0.950 . S
C779 C778 1.349 . S
C779 C795 1.349 . S
C780 C778 1.327 . S
C780 C799 1.429 . S
C780 H804 0.950 . S
C781 C798 1.574 . S
C781 C800 1.368 . S
C781 H805 0.949 . S
H782 C786 0.949 . S
C783 C784 1.349 . S
C783 C785 1.327 . S
C783 H806 0.950 . S
C784 C783 1.349 . S
C784 C796 1.349 . S
C785 C783 1.327 . S
C785 C801 1.429 . S
C785 H807 0.950 . S
C786 H782 0.949 . S
C786 C794 1.574 . S
C786 C802 1.368 . S
H787 C795 0.950 . S
H788 C793 0.950 . S
H789 C794 0.949 . S
H790 C796 0.950 . S
H791 C797 0.950 . S
H792 C798 0.949 . S
C793 H788 0.950 . S
C793 C795 1.327 . S
C793 C799 1.429 . S
C794 C786 1.574 . S
C794 H789 0.949 . S
C794 C800 1.368 . S
C795 C779 1.349 . S
C795 H787 0.950 . S
C795 C793 1.327 . S
C796 C784 1.349 . S
C796 H790 0.950 . S
C796 C797 1.327 . S
C797 H791 0.950 . S
C797 C796 1.327 . S
C797 C801 1.429 . S
C798 C781 1.574 . S
C798 H792 0.949 . S
C798 C802 1.368 . S
C799 C780 1.429 . S
C799 C793 1.429 . S
C799 C800 1.523 . S
C800 C781 1.368 . S
C800 C794 1.368 . S
C800 C799 1.523 . S
C801 C785 1.429 . S
C801 C797 1.429 . S
C801 C802 1.523 . S
C802 C786 1.368 . S
C802 C798 1.368 . S
C802 C801 1.523 . S
H803 C778 0.950 . S
H804 C780 0.950 . S
H805 C781 0.949 . S
H806 C783 0.950 . S
H807 C785 0.950 . S
C808 C809 1.349 . S
C808 C810 1.327 . S
C808 H833 0.950 . S
C809 C808 1.349 . S
C809 C825 1.349 . S
C810 C808 1.327 . S
C810 C829 1.429 . S
C810 H834 0.950 . S
C811 C828 1.574 . S
C811 C830 1.368 . S
C811 H835 0.949 . S
H812 C816 0.949 . S
C813 C814 1.349 . S
C813 C815 1.327 . S
C813 H836 0.950 . S
C814 C813 1.349 . S
C814 C826 1.349 . S
C815 C813 1.327 . S
C815 C831 1.429 . S
C815 H837 0.950 . S
C816 H812 0.949 . S
C816 C824 1.574 . S
C816 C832 1.368 . S
H817 C825 0.950 . S
H818 C823 0.950 . S
H819 C824 0.949 . S
H820 C826 0.950 . S
H821 C827 0.950 . S
H822 C828 0.949 . S
C823 H818 0.950 . S
C823 C825 1.327 . S
C823 C829 1.429 . S
C824 C816 1.574 . S
C824 H819 0.949 . S
C824 C830 1.368 . S
C825 C809 1.349 . S
C825 H817 0.950 . S
C825 C823 1.327 . S
C826 C814 1.349 . S
C826 H820 0.950 . S
C826 C827 1.327 . S
C827 H821 0.950 . S
C827 C826 1.327 . S
C827 C831 1.429 . S
C828 C811 1.574 . S
C828 H822 0.949 . S
C828 C832 1.368 . S
C829 C810 1.429 . S
C829 C823 1.429 . S
C829 C830 1.523 . S
C830 C811 1.368 . S
C830 C824 1.368 . S
C830 C829 1.523 . S
C831 C815 1.429 . S
C831 C827 1.429 . S
C831 C832 1.523 . S
C832 C816 1.368 . S
C832 C828 1.368 . S
C832 C831 1.523 . S
H833 C808 0.950 . S
H834 C810 0.950 . S
H835 C811 0.949 . S
H836 C813 0.950 . S
H837 C815 0.950 . S
C838 C839 1.349 . S
C838 C840 1.327 . S
C838 H863 0.950 . S
C839 C838 1.349 . S
C839 C855 1.349 . S
C840 C838 1.327 . S
C840 C859 1.429 . S
C840 H864 0.950 1_554 S
C841 C858 1.574 . S
C841 C860 1.368 . S
C841 H865 0.949 . S
H842 C846 0.949 . S
C843 C844 1.349 . S
C843 C845 1.327 . S
C843 H866 0.950 . S
C844 C843 1.349 . S
C844 C856 1.349 . S
C845 C843 1.327 . S
C845 C861 1.429 . S
C845 H867 0.950 1_556 S
C846 H842 0.949 . S
C846 C854 1.574 . S
C846 C862 1.368 . S
H847 C855 0.950 . S
H848 C853 0.950 . S
H849 C854 0.949 . S
H850 C856 0.950 . S
H851 C857 0.950 . S
H852 C858 0.949 . S
C853 H848 0.950 . S
C853 C855 1.327 . S
C853 C859 1.429 . S
C854 C846 1.574 . S
C854 H849 0.949 . S
C854 C860 1.368 1_556 S
C855 C839 1.349 . S
C855 H847 0.950 . S
C855 C853 1.327 . S
C856 C844 1.349 . S
C856 H850 0.950 . S
C856 C857 1.327 . S
C857 H851 0.950 . S
C857 C856 1.327 . S
C857 C861 1.429 . S
C858 C841 1.574 . S
C858 H852 0.949 . S
C858 C862 1.368 1_554 S
C859 C840 1.429 . S
C859 C853 1.429 . S
C859 C860 1.523 . S
C860 C841 1.368 . S
C860 C854 1.368 1_554 S
C860 C859 1.523 . S
C861 C845 1.429 . S
C861 C857 1.429 . S
C861 C862 1.523 . S
C862 C846 1.368 . S
C862 C858 1.368 1_556 S
C862 C861 1.523 . S
H863 C838 0.950 . S
H864 C840 0.950 1_556 S
H865 C841 0.949 . S
H866 C843 0.950 . S
H867 C845 0.950 1_554 S
C868 C869 1.349 . S
C868 C870 1.327 . S
C868 H893 0.950 . S
C869 C868 1.349 . S
C869 C885 1.349 . S
C870 C868 1.327 . S
C870 C889 1.429 . S
C870 H894 0.950 . S
C871 C888 1.574 . S
C871 C890 1.368 . S
C871 H895 0.949 . S
H872 C876 0.949 . S
C873 C874 1.349 . S
C873 C875 1.327 . S
C873 H896 0.950 . S
C874 C873 1.349 . S
C874 C886 1.349 . S
C875 C873 1.327 . S
C875 C891 1.429 . S
C875 H897 0.950 . S
C876 H872 0.949 . S
C876 C884 1.574 . S
C876 C892 1.368 . S
H877 C885 0.950 . S
H878 C883 0.950 . S
H879 C884 0.949 . S
H880 C886 0.950 . S
H881 C887 0.950 . S
H882 C888 0.949 . S
C883 H878 0.950 . S
C883 C885 1.327 . S
C883 C889 1.429 . S
C884 C876 1.574 . S
C884 H879 0.949 . S
C884 C890 1.368 . S
C885 C869 1.349 . S
C885 H877 0.950 . S
C885 C883 1.327 . S
C886 C874 1.349 . S
C886 H880 0.950 . S
C886 C887 1.327 . S
C887 H881 0.950 . S
C887 C886 1.327 . S
C887 C891 1.429 . S
C888 C871 1.574 . S
C888 H882 0.949 . S
C888 C892 1.368 . S
C889 C870 1.429 . S
C889 C883 1.429 . S
C889 C890 1.523 . S
C890 C871 1.368 . S
C890 C884 1.368 . S
C890 C889 1.523 . S
C891 C875 1.429 . S
C891 C887 1.429 . S
C891 C892 1.523 . S
C892 C876 1.368 . S
C892 C888 1.368 . S
C892 C891 1.523 . S
H893 C868 0.950 . S
H894 C870 0.950 . S
H895 C871 0.949 . S
H896 C873 0.950 . S
H897 C875 0.950 . S
C898 C899 1.349 . S
C898 C900 1.327 . S
C898 H923 0.950 . S
C899 C898 1.349 . S
C899 C915 1.349 . S
C900 C898 1.327 . S
C900 C919 1.429 . S
C900 H924 0.950 . S
C901 C918 1.574 . S
C901 C920 1.368 . S
C901 H925 0.949 . S
H902 C906 0.949 . S
C903 C904 1.349 . S
C903 C905 1.327 . S
C903 H926 0.950 . S
C904 C903 1.349 . S
C904 C916 1.349 . S
C905 C903 1.327 . S
C905 C921 1.429 . S
C905 H927 0.950 . S
C906 H902 0.949 . S
C906 C914 1.574 . S
C906 C922 1.368 . S
H907 C915 0.950 . S
H908 C913 0.950 . S
H909 C914 0.949 . S
H910 C916 0.950 . S
H911 C917 0.950 . S
H912 C918 0.949 . S
C913 H908 0.950 . S
C913 C915 1.327 . S
C913 C919 1.429 . S
C914 C906 1.574 . S
C914 H909 0.949 . S
C914 C920 1.368 . S
C915 C899 1.349 . S
C915 H907 0.950 . S
C915 C913 1.327 . S
C916 C904 1.349 . S
C916 H910 0.950 . S
C916 C917 1.327 . S
C917 H911 0.950 . S
C917 C916 1.327 . S
C917 C921 1.429 . S
C918 C901 1.574 . S
C918 H912 0.949 . S
C918 C922 1.368 . S
C919 C900 1.429 . S
C919 C913 1.429 . S
C919 C920 1.523 . S
C920 C901 1.368 . S
C920 C914 1.368 . S
C920 C919 1.523 . S
C921 C905 1.429 . S
C921 C917 1.429 . S
C921 C922 1.523 . S
C922 C906 1.368 . S
C922 C918 1.368 . S
C922 C921 1.523 . S
H923 C898 0.950 . S
H924 C900 0.950 . S
H925 C901 0.949 . S
H926 C903 0.950 . S
H927 C905 0.950 . S
C928 C929 1.349 . S
C928 C930 1.327 1_554 S
C928 H953 0.950 . S
C929 C928 1.349 . S
C929 C945 1.349 1_554 S
C930 C928 1.327 1_556 S
C930 C949 1.429 . S
C930 H954 0.950 . S
C931 C948 1.574 . S
C931 C950 1.368 . S
C931 H955 0.949 . S
H932 C936 0.949 . S
C933 C934 1.349 . S
C933 C935 1.327 . S
C933 H956 0.950 . S
C934 C933 1.349 . S
C934 C946 1.349 . S
C935 C933 1.327 . S
C935 C951 1.429 . S
C935 H957 0.950 . S
C936 H932 0.949 . S
C936 C944 1.574 . S
C936 C952 1.368 . S
H937 C945 0.950 . S
H938 C943 0.950 . S
H939 C944 0.949 . S
H940 C946 0.950 . S
H941 C947 0.950 . S
H942 C948 0.949 . S
C943 H938 0.950 . S
C943 C945 1.327 . S
C943 C949 1.429 . S
C944 C936 1.574 . S
C944 H939 0.949 . S
C944 C950 1.368 . S
C945 C929 1.349 1_556 S
C945 H937 0.950 . S
C945 C943 1.327 . S
C946 C934 1.349 . S
C946 H940 0.950 . S
C946 C947 1.327 . S
C947 H941 0.950 . S
C947 C946 1.327 . S
C947 C951 1.429 . S
C948 C931 1.574 . S
C948 H942 0.949 . S
C948 C952 1.368 . S
C949 C930 1.429 . S
C949 C943 1.429 . S
C949 C950 1.523 . S
C950 C931 1.368 . S
C950 C944 1.368 . S
C950 C949 1.523 . S
C951 C935 1.429 . S
C951 C947 1.429 . S
C951 C952 1.523 . S
C952 C936 1.368 . S
C952 C948 1.368 . S
C952 C951 1.523 . S
H953 C928 0.950 . S
H954 C930 0.950 . S
H955 C931 0.949 . S
H956 C933 0.950 . S
H957 C935 0.950 . S
C958 C959 1.349 . S
C958 C960 1.327 1_556 S
C958 H983 0.950 . S
C959 C958 1.349 . S
C959 C975 1.349 1_556 S
C960 C958 1.327 1_554 S
C960 C979 1.429 . S
C960 H984 0.950 . S
C961 C978 1.574 . S
C961 C980 1.368 . S
C961 H985 0.949 . S
H962 C966 0.949 . S
C963 C964 1.349 . S
C963 C965 1.327 . S
C963 H986 0.950 . S
C964 C963 1.349 . S
C964 C976 1.349 . S
C965 C963 1.327 . S
C965 C981 1.429 . S
C965 H987 0.950 . S
C966 H962 0.949 . S
C966 C974 1.574 . S
C966 C982 1.368 . S
H967 C975 0.950 . S
H968 C973 0.950 . S
H969 C974 0.949 . S
H970 C976 0.950 . S
H971 C977 0.950 . S
H972 C978 0.949 . S
C973 H968 0.950 . S
C973 C975 1.327 . S
C973 C979 1.429 . S
C974 C966 1.574 . S
C974 H969 0.949 . S
C974 C980 1.368 . S
C975 C959 1.349 1_554 S
C975 H967 0.950 . S
C975 C973 1.327 . S
C976 C964 1.349 . S
C976 H970 0.950 . S
C976 C977 1.327 . S
C977 H971 0.950 . S
C977 C976 1.327 . S
C977 C981 1.429 . S
C978 C961 1.574 . S
C978 H972 0.949 . S
C978 C982 1.368 . S
C979 C960 1.429 . S
C979 C973 1.429 . S
C979 C980 1.523 . S
C980 C961 1.368 . S
C980 C974 1.368 . S
C980 C979 1.523 . S
C981 C965 1.429 . S
C981 C977 1.429 . S
C981 C982 1.523 . S
C982 C966 1.368 . S
C982 C978 1.368 . S
C982 C981 1.523 . S
H983 C958 0.950 . S
H984 C960 0.950 . S
H985 C961 0.949 . S
H986 C963 0.950 . S
H987 C965 0.950 . S
C988 C989 1.349 . S
C988 C990 1.327 . S
C988 H1013 0.950 . S
C989 C988 1.349 . S
C989 C1005 1.349 . S
C990 C988 1.327 . S
C990 C1009 1.429 . S
C990 H1014 0.950 . S
C991 C1008 1.574 . S
C991 C1010 1.368 . S
C991 H1015 0.949 . S
H992 C996 0.949 . S
C993 C994 1.349 . S
C993 C995 1.327 . S
C993 H1016 0.950 . S
C994 C993 1.349 . S
C994 C1006 1.349 . S
C995 C993 1.327 . S
C995 C1011 1.429 . S
C995 H1017 0.950 . S
C996 H992 0.949 . S
C996 C1004 1.574 . S
C996 C1012 1.368 . S
H997 C1005 0.950 . S
H998 C1003 0.950 . S
H999 C1004 0.949 . S
H1000 C1006 0.950 . S
H1001 C1007 0.950 . S
H1002 C1008 0.949 . S
C1003 H998 0.950 . S
C1003 C1005 1.327 . S
C1003 C1009 1.429 . S
C1004 C996 1.574 . S
C1004 H999 0.949 . S
C1004 C1010 1.368 . S
C1005 C989 1.349 . S
C1005 H997 0.950 . S
C1005 C1003 1.327 . S
C1006 C994 1.349 . S
C1006 H1000 0.950 . S
C1006 C1007 1.327 . S
C1007 H1001 0.950 . S
C1007 C1006 1.327 . S
C1007 C1011 1.429 . S
C1008 C991 1.574 . S
C1008 H1002 0.949 . S
C1008 C1012 1.368 . S
C1009 C990 1.429 . S
C1009 C1003 1.429 . S
C1009 C1010 1.523 . S
C1010 C991 1.368 . S
C1010 C1004 1.368 . S
C1010 C1009 1.523 . S
C1011 C995 1.429 . S
C1011 C1007 1.429 . S
C1011 C1012 1.523 . S
C1012 C996 1.368 . S
C1012 C1008 1.368 . S
C1012 C1011 1.523 . S
H1013 C988 0.950 . S
H1014 C990 0.950 . S
H1015 C991 0.949 . S
H1016 C993 0.950 . S
H1017 C995 0.950 . S
C1018 C1019 1.349 . S
C1018 C1020 1.327 . S
C1018 H1043 0.950 . S
C1019 C1018 1.349 . S
C1019 C1035 1.349 . S
C1020 C1018 1.327 . S
C1020 C1039 1.429 . S
C1020 H1044 0.950 . S
C1021 C1038 1.574 . S
C1021 C1040 1.368 . S
C1021 H1045 0.949 . S
H1022 C1026 0.949 . S
C1023 C1024 1.349 . S
C1023 C1025 1.327 . S
C1023 H1046 0.950 . S
C1024 C1023 1.349 . S
C1024 C1036 1.349 . S
C1025 C1023 1.327 . S
C1025 C1041 1.429 . S
C1025 H1047 0.950 . S
C1026 H1022 0.949 . S
C1026 C1034 1.574 . S
C1026 C1042 1.368 . S
H1027 C1035 0.950 . S
H1028 C1033 0.950 . S
H1029 C1034 0.949 . S
H1030 C1036 0.950 . S
H1031 C1037 0.950 . S
H1032 C1038 0.949 . S
C1033 H1028 0.950 . S
C1033 C1035 1.327 . S
C1033 C1039 1.429 . S
C1034 C1026 1.574 . S
C1034 H1029 0.949 . S
C1034 C1040 1.368 . S
C1035 C1019 1.349 . S
C1035 H1027 0.950 . S
C1035 C1033 1.327 . S
C1036 C1024 1.349 . S
C1036 H1030 0.950 . S
C1036 C1037 1.327 . S
C1037 H1031 0.950 . S
C1037 C1036 1.327 . S
C1037 C1041 1.429 . S
C1038 C1021 1.574 . S
C1038 H1032 0.949 . S
C1038 C1042 1.368 . S
C1039 C1020 1.429 . S
C1039 C1033 1.429 . S
C1039 C1040 1.523 . S
C1040 C1021 1.368 . S
C1040 C1034 1.368 . S
C1040 C1039 1.523 . S
C1041 C1025 1.429 . S
C1041 C1037 1.429 . S
C1041 C1042 1.523 . S
C1042 C1026 1.368 . S
C1042 C1038 1.368 . S
C1042 C1041 1.523 . S
H1043 C1018 0.950 . S
H1044 C1020 0.950 . S
H1045 C1021 0.949 . S
H1046 C1023 0.950 . S
H1047 C1025 0.950 . S
C1048 C1049 1.349 1_554 S
C1048 C1050 1.327 . S
C1048 H1073 0.950 1_554 S
C1049 C1048 1.349 1_556 S
C1049 C1065 1.349 . S
C1050 C1048 1.327 . S
C1050 C1069 1.429 . S
C1050 H1074 0.950 . S
C1051 C1068 1.574 . S
C1051 C1070 1.368 . S
C1051 H1075 0.949 . S
H1052 C1056 0.949 . S
C1053 C1054 1.349 . S
C1053 C1055 1.327 . S
C1053 H1076 0.950 . S
C1054 C1053 1.349 . S
C1054 C1066 1.349 . S
C1055 C1053 1.327 . S
C1055 C1071 1.429 . S
C1055 H1077 0.950 . S
C1056 H1052 0.949 . S
C1056 C1064 1.574 . S
C1056 C1072 1.368 . S
H1057 C1065 0.949 . S
H1058 C1063 0.950 . S
H1059 C1064 0.949 . S
H1060 C1066 0.950 . S
H1061 C1067 0.950 . S
H1062 C1068 0.949 . S
C1063 H1058 0.950 . S
C1063 C1065 1.328 1_554 S
C1063 C1069 1.429 . S
C1064 C1056 1.574 . S
C1064 H1059 0.949 . S
C1064 C1070 1.368 . S
C1065 C1049 1.349 . S
C1065 H1057 0.949 . S
C1065 C1063 1.328 1_556 S
C1066 C1054 1.349 . S
C1066 H1060 0.950 . S
C1066 C1067 1.327 . S
C1067 H1061 0.950 . S
C1067 C1066 1.327 . S
C1067 C1071 1.429 . S
C1068 C1051 1.574 . S
C1068 H1062 0.949 . S
C1068 C1072 1.368 . S
C1069 C1050 1.429 . S
C1069 C1063 1.429 . S
C1069 C1070 1.523 . S
C1070 C1051 1.368 . S
C1070 C1064 1.368 . S
C1070 C1069 1.523 . S
C1071 C1055 1.429 . S
C1071 C1067 1.429 . S
C1071 C1072 1.523 . S
C1072 C1056 1.368 . S
C1072 C1068 1.368 . S
C1072 C1071 1.523 . S
H1073 C1048 0.950 1_556 S
H1074 C1050 0.950 . S
H1075 C1051 0.949 . S
H1076 C1053 0.950 . S
H1077 C1055 0.950 . S
C1078 C1079 1.349 . S
C1078 C1080 1.327 1_554 S
C1078 H1103 0.950 . S
C1079 C1078 1.349 . S
C1079 C1095 1.349 1_554 S
C1080 C1078 1.327 1_556 S
C1080 C1099 1.429 . S
C1080 H1104 0.950 . S
C1081 C1098 1.574 . S
C1081 C1100 1.368 . S
C1081 H1105 0.949 . S
H1082 C1086 0.949 . S
C1083 C1084 1.349 . S
C1083 C1085 1.327 . S
C1083 H1106 0.950 . S
C1084 C1083 1.349 . S
C1084 C1096 1.349 . S
C1085 C1083 1.327 . S
C1085 C1101 1.429 . S
C1085 H1107 0.950 . S
C1086 H1082 0.949 . S
C1086 C1094 1.574 . S
C1086 C1102 1.368 . S
H1087 C1095 0.950 1_554 S
H1088 C1093 0.950 . S
H1089 C1094 0.949 . S
H1090 C1096 0.950 . S
H1091 C1097 0.950 . S
H1092 C1098 0.949 . S
C1093 H1088 0.950 . S
C1093 C1095 1.327 . S
C1093 C1099 1.429 . S
C1094 C1086 1.574 . S
C1094 H1089 0.949 . S
C1094 C1100 1.368 . S
C1095 C1079 1.349 1_556 S
C1095 H1087 0.950 1_556 S
C1095 C1093 1.327 . S
C1096 C1084 1.349 . S
C1096 H1090 0.950 . S
C1096 C1097 1.327 . S
C1097 H1091 0.950 . S
C1097 C1096 1.327 . S
C1097 C1101 1.429 . S
C1098 C1081 1.574 . S
C1098 H1092 0.949 . S
C1098 C1102 1.368 . S
C1099 C1080 1.429 . S
C1099 C1093 1.429 . S
C1099 C1100 1.523 . S
C1100 C1081 1.368 . S
C1100 C1094 1.368 . S
C1100 C1099 1.523 . S
C1101 C1085 1.429 . S
C1101 C1097 1.429 . S
C1101 C1102 1.523 . S
C1102 C1086 1.368 . S
C1102 C1098 1.368 . S
C1102 C1101 1.523 . S
H1103 C1078 0.950 . S
H1104 C1080 0.950 . S
H1105 C1081 0.949 . S
H1106 C1083 0.950 . S
H1107 C1085 0.950 . S
C1108 C1109 1.349 . S
C1108 C1110 1.327 . S
C1108 H1133 0.950 . S
C1109 C1108 1.349 . S
C1109 C1125 1.349 . S
C1110 C1108 1.327 . S
C1110 C1129 1.429 . S
C1110 H1134 0.950 . S
C1111 C1128 1.574 . S
C1111 C1130 1.368 . S
C1111 H1135 0.949 . S
H1112 C1116 0.949 . S
C1113 C1114 1.349 . S
C1113 C1115 1.327 . S
C1113 H1136 0.950 . S
C1114 C1113 1.349 . S
C1114 C1126 1.349 . S
C1115 C1113 1.327 . S
C1115 C1131 1.429 . S
C1115 H1137 0.950 . S
C1116 H1112 0.949 . S
C1116 C1124 1.574 . S
C1116 C1132 1.368 . S
H1117 C1125 0.950 . S
H1118 C1123 0.950 . S
H1119 C1124 0.949 . S
H1120 C1126 0.950 . S
H1121 C1127 0.950 . S
H1122 C1128 0.949 . S
C1123 H1118 0.950 . S
C1123 C1125 1.327 . S
C1123 C1129 1.429 . S
C1124 C1116 1.574 . S
C1124 H1119 0.949 . S
C1124 C1130 1.368 . S
C1125 C1109 1.349 . S
C1125 H1117 0.950 . S
C1125 C1123 1.327 . S
C1126 C1114 1.349 . S
C1126 H1120 0.950 . S
C1126 C1127 1.327 . S
C1127 H1121 0.950 . S
C1127 C1126 1.327 . S
C1127 C1131 1.429 . S
C1128 C1111 1.574 . S
C1128 H1122 0.949 . S
C1128 C1132 1.368 . S
C1129 C1110 1.429 . S
C1129 C1123 1.429 . S
C1129 C1130 1.523 . S
C1130 C1111 1.368 . S
C1130 C1124 1.368 . S
C1130 C1129 1.523 . S
C1131 C1115 1.429 . S
C1131 C1127 1.429 . S
C1131 C1132 1.523 . S
C1132 C1116 1.368 . S
C1132 C1128 1.368 . S
C1132 C1131 1.523 . S
H1133 C1108 0.950 . S
H1134 C1110 0.950 . S
H1135 C1111 0.949 . S
H1136 C1113 0.950 . S
H1137 C1115 0.950 . S
C1138 C1139 1.349 . S
C1138 C1140 1.327 . S
C1138 H1163 0.950 . S
C1139 C1138 1.349 . S
C1139 C1155 1.349 . S
C1140 C1138 1.327 . S
C1140 C1159 1.429 . S
C1140 H1164 0.950 . S
C1141 C1158 1.574 . S
C1141 C1160 1.368 . S
C1141 H1165 0.949 . S
H1142 C1146 0.949 . S
C1143 C1144 1.349 . S
C1143 C1145 1.327 . S
C1143 H1166 0.950 . S
C1144 C1143 1.349 . S
C1144 C1156 1.349 . S
C1145 C1143 1.327 . S
C1145 C1161 1.429 . S
C1145 H1167 0.950 . S
C1146 H1142 0.949 . S
C1146 C1154 1.574 . S
C1146 C1162 1.368 . S
H1147 C1155 0.950 . S
H1148 C1153 0.950 . S
H1149 C1154 0.949 . S
H1150 C1156 0.950 . S
H1151 C1157 0.950 . S
H1152 C1158 0.949 . S
C1153 H1148 0.950 . S
C1153 C1155 1.327 . S
C1153 C1159 1.429 . S
C1154 C1146 1.574 . S
C1154 H1149 0.949 . S
C1154 C1160 1.368 . S
C1155 C1139 1.349 . S
C1155 H1147 0.950 . S
C1155 C1153 1.327 . S
C1156 C1144 1.349 . S
C1156 H1150 0.950 . S
C1156 C1157 1.327 . S
C1157 H1151 0.950 . S
C1157 C1156 1.327 . S
C1157 C1161 1.429 . S
C1158 C1141 1.574 . S
C1158 H1152 0.949 . S
C1158 C1162 1.368 . S
C1159 C1140 1.429 . S
C1159 C1153 1.429 . S
C1159 C1160 1.523 . S
C1160 C1141 1.368 . S
C1160 C1154 1.368 . S
C1160 C1159 1.523 . S
C1161 C1145 1.429 . S
C1161 C1157 1.429 . S
C1161 C1162 1.523 . S
C1162 C1146 1.368 . S
C1162 C1158 1.368 . S
C1162 C1161 1.523 . S
H1163 C1138 0.950 . S
H1164 C1140 0.950 . S
H1165 C1141 0.949 . S
H1166 C1143 0.950 . S
H1167 C1145 0.950 . S
C1168 C1169 1.349 . S
C1168 C1170 1.327 . S
C1168 H1193 0.950 . S
C1169 C1168 1.349 . S
C1169 C1185 1.349 . S
C1170 C1168 1.327 . S
C1170 C1189 1.429 . S
C1170 H1194 0.950 . S
C1171 C1188 1.574 . S
C1171 C1190 1.368 . S
C1171 H1195 0.949 . S
H1172 C1176 0.949 . S
C1173 C1174 1.349 . S
C1173 C1175 1.327 . S
C1173 H1196 0.950 . S
C1174 C1173 1.349 . S
C1174 C1186 1.349 . S
C1175 C1173 1.327 . S
C1175 C1191 1.429 . S
C1175 H1197 0.950 . S
C1176 H1172 0.949 . S
C1176 C1184 1.574 . S
C1176 C1192 1.368 . S
H1177 C1185 0.950 . S
H1178 C1183 0.950 . S
H1179 C1184 0.949 . S
H1180 C1186 0.950 . S
H1181 C1187 0.950 . S
H1182 C1188 0.949 . S
C1183 H1178 0.950 . S
C1183 C1185 1.327 . S
C1183 C1189 1.429 . S
C1184 C1176 1.574 . S
C1184 H1179 0.949 . S
C1184 C1190 1.368 . S
C1185 C1169 1.349 . S
C1185 H1177 0.950 . S
C1185 C1183 1.327 . S
C1186 C1174 1.349 . S
C1186 H1180 0.950 . S
C1186 C1187 1.327 . S
C1187 H1181 0.950 . S
C1187 C1186 1.327 . S
C1187 C1191 1.429 . S
C1188 C1171 1.574 . S
C1188 H1182 0.949 . S
C1188 C1192 1.368 . S
C1189 C1170 1.429 . S
C1189 C1183 1.429 . S
C1189 C1190 1.523 . S
C1190 C1171 1.368 . S
C1190 C1184 1.368 . S
C1190 C1189 1.523 . S
C1191 C1175 1.429 . S
C1191 C1187 1.429 . S
C1191 C1192 1.523 . S
C1192 C1176 1.368 . S
C1192 C1188 1.368 . S
C1192 C1191 1.523 . S
H1193 C1168 0.950 . S
H1194 C1170 0.950 . S
H1195 C1171 0.949 . S
H1196 C1173 0.950 . S
H1197 C1175 0.950 . S
C1198 C1199 1.349 . S
C1198 C1200 1.327 . S
C1198 H1223 0.950 . S
C1199 C1198 1.349 . S
C1199 C1215 1.349 . S
C1200 C1198 1.327 . S
C1200 C1219 1.429 . S
C1200 H1224 0.950 . S
C1201 C1218 1.574 . S
C1201 C1220 1.368 . S
C1201 H1225 0.949 . S
H1202 C1206 0.949 . S
C1203 C1204 1.349 . S
C1203 C1205 1.327 . S
C1203 H1226 0.950 . S
C1204 C1203 1.349 . S
C1204 C1216 1.349 . S
C1205 C1203 1.327 . S
C1205 C1221 1.429 . S
C1205 H1227 0.950 . S
C1206 H1202 0.949 . S
C1206 C1214 1.574 . S
C1206 C1222 1.368 . S
H1207 C1215 0.950 . S
H1208 C1213 0.950 . S
H1209 C1214 0.949 . S
H1210 C1216 0.950 . S
H1211 C1217 0.950 . S
H1212 C1218 0.949 . S
C1213 H1208 0.950 . S
C1213 C1215 1.327 . S
C1213 C1219 1.429 . S
C1214 C1206 1.574 . S
C1214 H1209 0.949 . S
C1214 C1220 1.368 . S
C1215 C1199 1.349 . S
C1215 H1207 0.950 . S
C1215 C1213 1.327 . S
C1216 C1204 1.349 . S
C1216 H1210 0.950 . S
C1216 C1217 1.327 . S
C1217 H1211 0.950 . S
C1217 C1216 1.327 . S
C1217 C1221 1.429 . S
C1218 C1201 1.574 . S
C1218 H1212 0.949 . S
C1218 C1222 1.368 . S
C1219 C1200 1.429 . S
C1219 C1213 1.429 . S
C1219 C1220 1.523 . S
C1220 C1201 1.368 . S
C1220 C1214 1.368 . S
C1220 C1219 1.523 . S
C1221 C1205 1.429 . S
C1221 C1217 1.429 . S
C1221 C1222 1.523 . S
C1222 C1206 1.368 . S
C1222 C1218 1.368 . S
C1222 C1221 1.523 . S
H1223 C1198 0.950 . S
H1224 C1200 0.950 . S
H1225 C1201 0.949 . S
H1226 C1203 0.950 . S
H1227 C1205 0.950 . S
C1228 C1229 1.349 . S
C1228 C1230 1.327 . S
C1228 H1253 0.950 . S
C1229 C1228 1.349 . S
C1229 C1245 1.349 . S
C1230 C1228 1.327 . S
C1230 C1249 1.429 . S
C1230 H1254 0.950 . S
C1231 C1248 1.574 . S
C1231 C1250 1.368 . S
C1231 H1255 0.949 . S
H1232 C1236 0.949 . S
C1233 C1234 1.349 1_556 S
C1233 C1235 1.327 . S
C1233 H1256 0.950 . S
C1234 C1233 1.349 1_554 S
C1234 C1246 1.349 . S
C1235 C1233 1.327 . S
C1235 C1251 1.429 . S
C1235 H1257 0.950 . S
C1236 H1232 0.949 . S
C1236 C1244 1.574 . S
C1236 C1252 1.368 . S
H1237 C1245 0.950 . S
H1238 C1243 0.950 . S
H1239 C1244 0.949 . S
H1240 C1246 0.950 . S
H1241 C1247 0.950 . S
H1242 C1248 0.949 . S
C1243 H1238 0.950 . S
C1243 C1245 1.327 . S
C1243 C1249 1.429 . S
C1244 C1236 1.574 . S
C1244 H1239 0.949 . S
C1244 C1250 1.368 . S
C1245 C1229 1.349 . S
C1245 H1237 0.950 . S
C1245 C1243 1.327 . S
C1246 C1234 1.349 . S
C1246 H1240 0.950 . S
C1246 C1247 1.327 1_554 S
C1247 H1241 0.950 . S
C1247 C1246 1.327 1_556 S
C1247 C1251 1.429 . S
C1248 C1231 1.574 . S
C1248 H1242 0.949 . S
C1248 C1252 1.368 . S
C1249 C1230 1.429 . S
C1249 C1243 1.429 . S
C1249 C1250 1.523 . S
C1250 C1231 1.368 . S
C1250 C1244 1.368 . S
C1250 C1249 1.523 . S
C1251 C1235 1.429 . S
C1251 C1247 1.429 . S
C1251 C1252 1.523 . S
C1252 C1236 1.368 . S
C1252 C1248 1.368 . S
C1252 C1251 1.523 . S
H1253 C1228 0.950 . S
H1254 C1230 0.950 . S
H1255 C1231 0.949 . S
H1256 C1233 0.950 . S
H1257 C1235 0.950 . S
C1258 C1259 1.349 . S
C1258 C1260 1.327 . S
C1258 H1283 0.950 . S
C1259 C1258 1.349 . S
C1259 C1275 1.349 . S
C1260 C1258 1.327 . S
C1260 C1279 1.429 . S
C1260 H1284 0.950 . S
C1261 C1278 1.574 . S
C1261 C1280 1.368 . S
C1261 H1285 0.949 . S
H1262 C1266 0.949 . S
C1263 C1264 1.349 1_554 S
C1263 C1265 1.327 . S
C1263 H1286 0.950 1_554 S
C1264 C1263 1.349 1_556 S
C1264 C1276 1.349 . S
C1265 C1263 1.327 . S
C1265 C1281 1.429 . S
C1265 H1287 0.950 . S
C1266 H1262 0.949 . S
C1266 C1274 1.574 . S
C1266 C1282 1.368 . S
H1267 C1275 0.950 . S
H1268 C1273 0.950 . S
H1269 C1274 0.949 . S
H1270 C1276 0.950 . S
H1271 C1277 0.950 . S
H1272 C1278 0.949 . S
C1273 H1268 0.950 . S
C1273 C1275 1.327 . S
C1273 C1279 1.429 . S
C1274 C1266 1.574 . S
C1274 H1269 0.949 . S
C1274 C1280 1.368 . S
C1275 C1259 1.349 . S
C1275 H1267 0.950 . S
C1275 C1273 1.327 . S
C1276 C1264 1.349 . S
C1276 H1270 0.950 . S
C1276 C1277 1.327 1_556 S
C1277 H1271 0.950 . S
C1277 C1276 1.327 1_554 S
C1277 C1281 1.429 . S
C1278 C1261 1.574 . S
C1278 H1272 0.949 . S
C1278 C1282 1.368 . S
C1279 C1260 1.429 . S
C1279 C1273 1.429 . S
C1279 C1280 1.523 . S
C1280 C1261 1.368 . S
C1280 C1274 1.368 . S
C1280 C1279 1.523 . S
C1281 C1265 1.429 . S
C1281 C1277 1.429 . S
C1281 C1282 1.523 . S
C1282 C1266 1.368 . S
C1282 C1278 1.368 . S
C1282 C1281 1.523 . S
H1283 C1258 0.950 . S
H1284 C1260 0.950 . S
H1285 C1261 0.949 . S
H1286 C1263 0.950 1_556 S
H1287 C1265 0.950 . S
C1288 C1289 1.349 . S
C1288 C1290 1.327 . S
C1288 H1313 0.950 . S
C1289 C1288 1.349 . S
C1289 C1305 1.349 . S
C1290 C1288 1.327 . S
C1290 C1309 1.429 . S
C1290 H1314 0.950 . S
C1291 C1308 1.574 . S
C1291 C1310 1.368 . S
C1291 H1315 0.949 . S
H1292 C1296 0.949 . S
C1293 C1294 1.349 . S
C1293 C1295 1.327 . S
C1293 H1316 0.950 . S
C1294 C1293 1.349 . S
C1294 C1306 1.349 . S
C1295 C1293 1.327 . S
C1295 C1311 1.429 . S
C1295 H1317 0.950 . S
C1296 H1292 0.949 . S
C1296 C1304 1.574 . S
C1296 C1312 1.368 . S
H1297 C1305 0.950 . S
H1298 C1303 0.950 . S
H1299 C1304 0.949 . S
H1300 C1306 0.950 . S
H1301 C1307 0.950 . S
H1302 C1308 0.949 . S
C1303 H1298 0.950 . S
C1303 C1305 1.327 . S
C1303 C1309 1.429 . S
C1304 C1296 1.574 . S
C1304 H1299 0.949 . S
C1304 C1310 1.368 . S
C1305 C1289 1.349 . S
C1305 H1297 0.950 . S
C1305 C1303 1.327 . S
C1306 C1294 1.349 . S
C1306 H1300 0.950 . S
C1306 C1307 1.327 . S
C1307 H1301 0.950 . S
C1307 C1306 1.327 . S
C1307 C1311 1.429 . S
C1308 C1291 1.574 . S
C1308 H1302 0.949 . S
C1308 C1312 1.368 . S
C1309 C1290 1.429 . S
C1309 C1303 1.429 . S
C1309 C1310 1.523 . S
C1310 C1291 1.368 . S
C1310 C1304 1.368 . S
C1310 C1309 1.523 . S
C1311 C1295 1.429 . S
C1311 C1307 1.429 . S
C1311 C1312 1.523 . S
C1312 C1296 1.368 . S
C1312 C1308 1.368 . S
C1312 C1311 1.523 . S
H1313 C1288 0.950 . S
H1314 C1290 0.950 . S
H1315 C1291 0.949 . S
H1316 C1293 0.950 . S
H1317 C1295 0.950 . S
C1318 C1319 1.349 . S
C1318 C1320 1.327 . S
C1318 H1343 0.950 . S
C1319 C1318 1.349 . S
C1319 C1335 1.349 . S
C1320 C1318 1.327 . S
C1320 C1339 1.429 . S
C1320 H1344 0.950 . S
C1321 C1338 1.574 . S
C1321 C1340 1.368 . S
C1321 H1345 0.949 . S
H1322 C1326 0.949 . S
C1323 C1324 1.349 . S
C1323 C1325 1.327 . S
C1323 H1346 0.950 . S
C1324 C1323 1.349 . S
C1324 C1336 1.349 . S
C1325 C1323 1.327 . S
C1325 C1341 1.429 . S
C1325 H1347 0.950 . S
C1326 H1322 0.949 . S
C1326 C1334 1.574 . S
C1326 C1342 1.368 . S
H1327 C1335 0.950 . S
H1328 C1333 0.950 . S
H1329 C1334 0.949 . S
H1330 C1336 0.950 . S
H1331 C1337 0.950 . S
H1332 C1338 0.949 . S
C1333 H1328 0.950 . S
C1333 C1335 1.327 . S
C1333 C1339 1.429 . S
C1334 C1326 1.574 . S
C1334 H1329 0.949 . S
C1334 C1340 1.368 . S
C1335 C1319 1.349 . S
C1335 H1327 0.950 . S
C1335 C1333 1.327 . S
C1336 C1324 1.349 . S
C1336 H1330 0.950 . S
C1336 C1337 1.327 . S
C1337 H1331 0.950 . S
C1337 C1336 1.327 . S
C1337 C1341 1.429 . S
C1338 C1321 1.574 . S
C1338 H1332 0.949 . S
C1338 C1342 1.368 . S
C1339 C1320 1.429 . S
C1339 C1333 1.429 . S
C1339 C1340 1.523 . S
C1340 C1321 1.368 . S
C1340 C1334 1.368 . S
C1340 C1339 1.523 . S
C1341 C1325 1.429 . S
C1341 C1337 1.429 . S
C1341 C1342 1.523 . S
C1342 C1326 1.368 . S
C1342 C1338 1.368 . S
C1342 C1341 1.523 . S
H1343 C1318 0.950 . S
H1344 C1320 0.950 . S
H1345 C1321 0.949 . S
H1346 C1323 0.950 . S
H1347 C1325 0.950 . S
C1348 C1349 1.349 1_554 S
C1348 C1350 1.327 . S
C1348 H1373 0.950 1_554 S
C1349 C1348 1.349 1_556 S
C1349 C1365 1.349 . S
C1350 C1348 1.327 . S
C1350 C1369 1.429 . S
C1350 H1374 0.950 . S
C1351 C1368 1.574 . S
C1351 C1370 1.368 . S
C1351 H1375 0.949 . S
H1352 C1356 0.949 . S
C1353 C1354 1.349 . S
C1353 C1355 1.327 . S
C1353 H1376 0.950 . S
C1354 C1353 1.349 . S
C1354 C1366 1.349 . S
C1355 C1353 1.327 . S
C1355 C1371 1.429 . S
C1355 H1377 0.950 . S
C1356 H1352 0.949 . S
C1356 C1364 1.574 . S
C1356 C1372 1.368 . S
H1357 C1365 0.950 . S
H1358 C1363 0.950 . S
H1359 C1364 0.949 . S
H1360 C1366 0.950 . S
H1361 C1367 0.950 . S
H1362 C1368 0.949 . S
C1363 H1358 0.950 . S
C1363 C1365 1.327 1_554 S
C1363 C1369 1.429 . S
C1364 C1356 1.574 . S
C1364 H1359 0.949 . S
C1364 C1370 1.368 . S
C1365 C1349 1.349 . S
C1365 H1357 0.950 . S
C1365 C1363 1.327 1_556 S
C1366 C1354 1.349 . S
C1366 H1360 0.950 . S
C1366 C1367 1.327 . S
C1367 H1361 0.950 . S
C1367 C1366 1.327 . S
C1367 C1371 1.429 . S
C1368 C1351 1.574 . S
C1368 H1362 0.949 . S
C1368 C1372 1.368 . S
C1369 C1350 1.429 . S
C1369 C1363 1.429 . S
C1369 C1370 1.523 . S
C1370 C1351 1.368 . S
C1370 C1364 1.368 . S
C1370 C1369 1.523 . S
C1371 C1355 1.429 . S
C1371 C1367 1.429 . S
C1371 C1372 1.523 . S
C1372 C1356 1.368 . S
C1372 C1368 1.368 . S
C1372 C1371 1.523 . S
H1373 C1348 0.950 1_556 S
H1374 C1350 0.950 . S
H1375 C1351 0.949 . S
H1376 C1353 0.950 . S
H1377 C1355 0.950 . S
C1378 C1379 1.349 . S
C1378 C1380 1.327 . S
C1378 H1403 0.950 . S
C1379 C1378 1.349 . S
C1379 C1395 1.349 . S
C1380 C1378 1.327 . S
C1380 C1399 1.429 . S
C1380 H1404 0.950 . S
C1381 C1398 1.574 . S
C1381 C1400 1.368 . S
C1381 H1405 0.949 . S
H1382 C1386 0.949 . S
C1383 C1384 1.349 . S
C1383 C1385 1.327 1_554 S
C1383 H1406 0.950 . S
C1384 C1383 1.349 . S
C1384 C1396 1.349 1_554 S
C1385 C1383 1.327 1_556 S
C1385 C1401 1.429 . S
C1385 H1407 0.950 . S
C1386 H1382 0.949 . S
C1386 C1394 1.574 . S
C1386 C1402 1.368 . S
H1387 C1395 0.950 . S
H1388 C1393 0.950 . S
H1389 C1394 0.949 . S
H1390 C1396 0.950 . S
H1391 C1397 0.950 . S
H1392 C1398 0.949 . S
C1393 H1388 0.950 . S
C1393 C1395 1.327 . S
C1393 C1399 1.429 . S
C1394 C1386 1.574 . S
C1394 H1389 0.949 . S
C1394 C1400 1.368 . S
C1395 C1379 1.349 . S
C1395 H1387 0.950 . S
C1395 C1393 1.327 . S
C1396 C1384 1.349 1_556 S
C1396 H1390 0.950 . S
C1396 C1397 1.327 . S
C1397 H1391 0.950 . S
C1397 C1396 1.327 . S
C1397 C1401 1.429 . S
C1398 C1381 1.574 . S
C1398 H1392 0.949 . S
C1398 C1402 1.368 . S
C1399 C1380 1.429 . S
C1399 C1393 1.429 . S
C1399 C1400 1.523 . S
C1400 C1381 1.368 . S
C1400 C1394 1.368 . S
C1400 C1399 1.523 . S
C1401 C1385 1.429 . S
C1401 C1397 1.429 . S
C1401 C1402 1.523 . S
C1402 C1386 1.368 . S
C1402 C1398 1.368 . S
C1402 C1401 1.523 . S
H1403 C1378 0.950 . S
H1404 C1380 0.950 . S
H1405 C1381 0.949 . S
H1406 C1383 0.950 . S
H1407 C1385 0.950 . S
C1408 C1409 1.349 . S
C1408 C1410 1.327 . S
C1408 H1433 0.950 . S
C1409 C1408 1.349 . S
C1409 C1425 1.349 . S
C1410 C1408 1.327 . S
C1410 C1429 1.429 . S
C1410 H1434 0.950 . S
C1411 C1428 1.574 . S
C1411 C1430 1.368 . S
C1411 H1435 0.949 . S
H1412 C1416 0.949 . S
C1413 C1414 1.349 . S
C1413 C1415 1.327 . S
C1413 H1436 0.950 . S
C1414 C1413 1.349 . S
C1414 C1426 1.349 . S
C1415 C1413 1.327 . S
C1415 C1431 1.429 . S
C1415 H1437 0.950 . S
C1416 H1412 0.949 . S
C1416 C1424 1.574 . S
C1416 C1432 1.368 . S
H1417 C1425 0.950 . S
H1418 C1423 0.950 . S
H1419 C1424 0.949 . S
H1420 C1426 0.950 . S
H1421 C1427 0.950 . S
H1422 C1428 0.949 . S
C1423 H1418 0.950 . S
C1423 C1425 1.327 . S
C1423 C1429 1.429 . S
C1424 C1416 1.574 . S
C1424 H1419 0.949 . S
C1424 C1430 1.368 . S
C1425 C1409 1.349 . S
C1425 H1417 0.950 . S
C1425 C1423 1.327 . S
C1426 C1414 1.349 . S
C1426 H1420 0.950 . S
C1426 C1427 1.327 . S
C1427 H1421 0.950 . S
C1427 C1426 1.327 . S
C1427 C1431 1.429 . S
C1428 C1411 1.574 . S
C1428 H1422 0.949 . S
C1428 C1432 1.368 . S
C1429 C1410 1.429 . S
C1429 C1423 1.429 . S
C1429 C1430 1.523 . S
C1430 C1411 1.368 . S
C1430 C1424 1.368 . S
C1430 C1429 1.523 . S
C1431 C1415 1.429 . S
C1431 C1427 1.429 . S
C1431 C1432 1.523 . S
C1432 C1416 1.368 . S
C1432 C1428 1.368 . S
C1432 C1431 1.523 . S
H1433 C1408 0.950 . S
H1434 C1410 0.950 . S
H1435 C1411 0.949 . S
H1436 C1413 0.950 . S
H1437 C1415 0.950 . S
C1438 C1439 1.349 . S
C1438 C1440 1.327 . S
C1438 H1463 0.950 . S
C1439 C1438 1.349 . S
C1439 C1455 1.349 . S
C1440 C1438 1.327 . S
C1440 C1459 1.429 . S
C1440 H1464 0.950 . S
C1441 C1458 1.574 1_655 S
C1441 C1460 1.368 . S
C1441 H1465 0.949 . S
H1442 C1446 0.949 . S
C1443 C1444 1.349 . S
C1443 C1445 1.327 . S
C1443 H1466 0.950 . S
C1444 C1443 1.349 . S
C1444 C1456 1.349 . S
C1445 C1443 1.327 . S
C1445 C1461 1.429 . S
C1445 H1467 0.950 . S
C1446 H1442 0.949 . S
C1446 C1454 1.574 1_455 S
C1446 C1462 1.368 . S
H1447 C1455 0.950 . S
H1448 C1453 0.950 . S
H1449 C1454 0.949 . S
H1450 C1456 0.950 . S
H1451 C1457 0.950 . S
H1452 C1458 0.949 . S
C1453 H1448 0.950 . S
C1453 C1455 1.327 . S
C1453 C1459 1.429 . S
C1454 C1446 1.574 1_655 S
C1454 H1449 0.949 . S
C1454 C1460 1.368 . S
C1455 C1439 1.349 . S
C1455 H1447 0.950 . S
C1455 C1453 1.327 . S
C1456 C1444 1.349 . S
C1456 H1450 0.950 . S
C1456 C1457 1.327 . S
C1457 H1451 0.950 . S
C1457 C1456 1.327 . S
C1457 C1461 1.429 . S
C1458 C1441 1.574 1_455 S
C1458 H1452 0.949 . S
C1458 C1462 1.368 . S
C1459 C1440 1.429 . S
C1459 C1453 1.429 . S
C1459 C1460 1.523 . S
C1460 C1441 1.368 . S
C1460 C1454 1.368 . S
C1460 C1459 1.523 . S
C1461 C1445 1.429 . S
C1461 C1457 1.429 . S
C1461 C1462 1.523 . S
C1462 C1446 1.368 . S
C1462 C1458 1.368 . S
C1462 C1461 1.523 . S
H1463 C1438 0.950 . S
H1464 C1440 0.950 . S
H1465 C1441 0.949 . S
H1466 C1443 0.950 . S
H1467 C1445 0.950 . S
C1468 C1469 1.349 . S
C1468 C1470 1.327 . S
C1468 H1493 0.950 . S
C1469 C1468 1.349 . S
C1469 C1485 1.349 . S
C1470 C1468 1.327 . S
C1470 C1489 1.429 . S
C1470 H1494 0.950 . S
C1471 C1488 1.574 . S
C1471 C1490 1.368 . S
C1471 H1495 0.949 . S
H1472 C1476 0.949 . S
C1473 C1474 1.349 . S
C1473 C1475 1.327 . S
C1473 H1496 0.950 . S
C1474 C1473 1.349 . S
C1474 C1486 1.349 . S
C1475 C1473 1.327 . S
C1475 C1491 1.429 . S
C1475 H1497 0.950 . S
C1476 H1472 0.949 . S
C1476 C1484 1.574 . S
C1476 C1492 1.368 . S
H1477 C1485 0.950 . S
H1478 C1483 0.950 . S
H1479 C1484 0.949 . S
H1480 C1486 0.950 . S
H1481 C1487 0.950 . S
H1482 C1488 0.949 . S
C1483 H1478 0.950 . S
C1483 C1485 1.327 . S
C1483 C1489 1.429 . S
C1484 C1476 1.574 . S
C1484 H1479 0.949 . S
C1484 C1490 1.368 . S
C1485 C1469 1.349 . S
C1485 H1477 0.950 . S
C1485 C1483 1.327 . S
C1486 C1474 1.349 . S
C1486 H1480 0.950 . S
C1486 C1487 1.327 . S
C1487 H1481 0.950 . S
C1487 C1486 1.327 . S
C1487 C1491 1.429 . S
C1488 C1471 1.574 . S
C1488 H1482 0.949 . S
C1488 C1492 1.368 . S
C1489 C1470 1.429 . S
C1489 C1483 1.429 . S
C1489 C1490 1.523 . S
C1490 C1471 1.368 . S
C1490 C1484 1.368 . S
C1490 C1489 1.523 . S
C1491 C1475 1.429 . S
C1491 C1487 1.429 . S
C1491 C1492 1.523 . S
C1492 C1476 1.368 . S
C1492 C1488 1.368 . S
C1492 C1491 1.523 . S
H1493 C1468 0.950 . S
H1494 C1470 0.950 . S
H1495 C1471 0.949 . S
H1496 C1473 0.950 . S
H1497 C1475 0.950 . S
C1498 C1499 1.349 . S
C1498 C1500 1.327 . S
C1498 H1523 0.950 . S
C1499 C1498 1.349 . S
C1499 C1515 1.349 . S
C1500 C1498 1.327 . S
C1500 C1519 1.429 . S
C1500 H1524 0.950 . S
C1501 C1518 1.574 . S
C1501 C1520 1.368 . S
C1501 H1525 0.949 . S
H1502 C1506 0.949 . S
C1503 C1504 1.349 . S
C1503 C1505 1.327 . S
C1503 H1526 0.950 . S
C1504 C1503 1.349 . S
C1504 C1516 1.349 . S
C1505 C1503 1.327 . S
C1505 C1521 1.429 . S
C1505 H1527 0.950 . S
C1506 H1502 0.949 . S
C1506 C1514 1.574 . S
C1506 C1522 1.368 . S
H1507 C1515 0.950 . S
H1508 C1513 0.950 . S
H1509 C1514 0.949 . S
H1510 C1516 0.950 . S
H1511 C1517 0.950 . S
H1512 C1518 0.949 . S
C1513 H1508 0.950 . S
C1513 C1515 1.327 . S
C1513 C1519 1.429 . S
C1514 C1506 1.574 . S
C1514 H1509 0.949 . S
C1514 C1520 1.368 . S
C1515 C1499 1.349 . S
C1515 H1507 0.950 . S
C1515 C1513 1.327 . S
C1516 C1504 1.349 . S
C1516 H1510 0.950 . S
C1516 C1517 1.327 . S
C1517 H1511 0.950 . S
C1517 C1516 1.327 . S
C1517 C1521 1.429 . S
C1518 C1501 1.574 . S
C1518 H1512 0.949 . S
C1518 C1522 1.368 . S
C1519 C1500 1.429 . S
C1519 C1513 1.429 . S
C1519 C1520 1.523 . S
C1520 C1501 1.368 . S
C1520 C1514 1.368 . S
C1520 C1519 1.523 . S
C1521 C1505 1.429 . S
C1521 C1517 1.429 . S
C1521 C1522 1.523 . S
C1522 C1506 1.368 . S
C1522 C1518 1.368 . S
C1522 C1521 1.523 . S
H1523 C1498 0.950 . S
H1524 C1500 0.950 . S
H1525 C1501 0.949 . S
H1526 C1503 0.950 . S
H1527 C1505 0.950 . S
C1528 C1529 1.349 . S
C1528 C1530 1.327 . S
C1528 H1553 0.950 . S
C1529 C1528 1.349 . S
C1529 C1545 1.349 . S
C1530 C1528 1.327 . S
C1530 C1549 1.429 . S
C1530 H1554 0.950 . S
C1531 C1548 1.574 . S
C1531 C1550 1.368 . S
C1531 H1555 0.949 . S
H1532 C1536 0.949 . S
C1533 C1534 1.349 . S
C1533 C1535 1.327 . S
C1533 H1556 0.950 . S
C1534 C1533 1.349 . S
C1534 C1546 1.349 . S
C1535 C1533 1.327 . S
C1535 C1551 1.429 . S
C1535 H1557 0.950 . S
C1536 H1532 0.949 . S
C1536 C1544 1.574 . S
C1536 C1552 1.368 . S
H1537 C1545 0.950 . S
H1538 C1543 0.950 . S
H1539 C1544 0.949 . S
H1540 C1546 0.950 . S
H1541 C1547 0.950 . S
H1542 C1548 0.949 . S
C1543 H1538 0.950 . S
C1543 C1545 1.327 . S
C1543 C1549 1.429 . S
C1544 C1536 1.574 . S
C1544 H1539 0.949 . S
C1544 C1550 1.368 . S
C1545 C1529 1.349 . S
C1545 H1537 0.950 . S
C1545 C1543 1.327 . S
C1546 C1534 1.349 . S
C1546 H1540 0.950 . S
C1546 C1547 1.327 . S
C1547 H1541 0.950 . S
C1547 C1546 1.327 . S
C1547 C1551 1.429 . S
C1548 C1531 1.574 . S
C1548 H1542 0.949 . S
C1548 C1552 1.368 . S
C1549 C1530 1.429 . S
C1549 C1543 1.429 . S
C1549 C1550 1.523 . S
C1550 C1531 1.368 . S
C1550 C1544 1.368 . S
C1550 C1549 1.523 . S
C1551 C1535 1.429 . S
C1551 C1547 1.429 . S
C1551 C1552 1.523 . S
C1552 C1536 1.368 . S
C1552 C1548 1.368 . S
C1552 C1551 1.523 . S
H1553 C1528 0.950 . S
H1554 C1530 0.950 . S
H1555 C1531 0.949 . S
H1556 C1533 0.950 . S
H1557 C1535 0.950 . S
C1558 C1559 1.349 . S
C1558 C1560 1.327 . S
C1558 H1583 0.950 . S
C1559 C1558 1.349 . S
C1559 C1575 1.349 . S
C1560 C1558 1.327 . S
C1560 C1579 1.429 . S
C1560 H1584 0.950 . S
C1561 C1578 1.574 . S
C1561 C1580 1.368 . S
C1561 H1585 0.949 . S
H1562 C1566 0.949 . S
C1563 C1564 1.349 . S
C1563 C1565 1.327 . S
C1563 H1586 0.950 . S
C1564 C1563 1.349 . S
C1564 C1576 1.349 . S
C1565 C1563 1.327 . S
C1565 C1581 1.429 . S
C1565 H1587 0.950 . S
C1566 H1562 0.949 . S
C1566 C1574 1.574 . S
C1566 C1582 1.368 . S
H1567 C1575 0.950 . S
H1568 C1573 0.950 . S
H1569 C1574 0.949 . S
H1570 C1576 0.950 . S
H1571 C1577 0.950 . S
H1572 C1578 0.949 . S
C1573 H1568 0.950 . S
C1573 C1575 1.327 . S
C1573 C1579 1.429 . S
C1574 C1566 1.574 . S
C1574 H1569 0.949 . S
C1574 C1580 1.368 . S
C1575 C1559 1.349 . S
C1575 H1567 0.950 . S
C1575 C1573 1.327 . S
C1576 C1564 1.349 . S
C1576 H1570 0.950 . S
C1576 C1577 1.327 . S
C1577 H1571 0.950 . S
C1577 C1576 1.327 . S
C1577 C1581 1.429 . S
C1578 C1561 1.574 . S
C1578 H1572 0.949 . S
C1578 C1582 1.368 . S
C1579 C1560 1.429 . S
C1579 C1573 1.429 . S
C1579 C1580 1.523 . S
C1580 C1561 1.368 . S
C1580 C1574 1.368 . S
C1580 C1579 1.523 . S
C1581 C1565 1.429 . S
C1581 C1577 1.429 . S
C1581 C1582 1.523 . S
C1582 C1566 1.368 . S
C1582 C1578 1.368 . S
C1582 C1581 1.523 . S
H1583 C1558 0.950 . S
H1584 C1560 0.950 . S
H1585 C1561 0.949 . S
H1586 C1563 0.950 . S
H1587 C1565 0.950 . S
C1588 C1589 1.349 . S
C1588 C1590 1.327 . S
C1588 H1613 0.950 . S
C1589 C1588 1.349 . S
C1589 C1605 1.349 . S
C1590 C1588 1.327 . S
C1590 C1609 1.429 . S
C1590 H1614 0.950 . S
C1591 C1608 1.574 . S
C1591 C1610 1.368 . S
C1591 H1615 0.949 . S
H1592 C1596 0.949 . S
C1593 C1594 1.349 . S
C1593 C1595 1.327 . S
C1593 H1616 0.950 . S
C1594 C1593 1.349 . S
C1594 C1606 1.349 . S
C1595 C1593 1.327 . S
C1595 C1611 1.429 . S
C1595 H1617 0.950 . S
C1596 H1592 0.949 . S
C1596 C1604 1.574 . S
C1596 C1612 1.368 . S
H1597 C1605 0.950 . S
H1598 C1603 0.950 . S
H1599 C1604 0.949 . S
H1600 C1606 0.950 . S
H1601 C1607 0.950 . S
H1602 C1608 0.949 . S
C1603 H1598 0.950 . S
C1603 C1605 1.327 . S
C1603 C1609 1.429 . S
C1604 C1596 1.574 . S
C1604 H1599 0.949 . S
C1604 C1610 1.368 . S
C1605 C1589 1.349 . S
C1605 H1597 0.950 . S
C1605 C1603 1.327 . S
C1606 C1594 1.349 . S
C1606 H1600 0.950 . S
C1606 C1607 1.327 . S
C1607 H1601 0.950 . S
C1607 C1606 1.327 . S
C1607 C1611 1.429 . S
C1608 C1591 1.574 . S
C1608 H1602 0.949 . S
C1608 C1612 1.368 . S
C1609 C1590 1.429 . S
C1609 C1603 1.429 . S
C1609 C1610 1.523 . S
C1610 C1591 1.368 . S
C1610 C1604 1.368 . S
C1610 C1609 1.523 . S
C1611 C1595 1.429 . S
C1611 C1607 1.429 . S
C1611 C1612 1.523 . S
C1612 C1596 1.368 . S
C1612 C1608 1.368 . S
C1612 C1611 1.523 . S
H1613 C1588 0.950 . S
H1614 C1590 0.950 . S
H1615 C1591 0.949 . S
H1616 C1593 0.950 . S
H1617 C1595 0.950 . S
C1618 C1619 1.349 . S
C1618 C1620 1.327 . S
C1618 H1643 0.950 . S
C1619 C1618 1.349 . S
C1619 C1635 1.349 . S
C1620 C1618 1.327 . S
C1620 C1639 1.429 . S
C1620 H1644 0.950 . S
C1621 C1638 1.574 1_655 S
C1621 C1640 1.368 . S
C1621 H1645 0.949 . S
H1622 C1626 0.949 . S
C1623 C1624 1.349 . S
C1623 C1625 1.327 . S
C1623 H1646 0.950 . S
C1624 C1623 1.349 . S
C1624 C1636 1.349 . S
C1625 C1623 1.327 . S
C1625 C1641 1.429 . S
C1625 H1647 0.950 . S
C1626 H1622 0.949 . S
C1626 C1634 1.574 1_455 S
C1626 C1642 1.368 . S
H1627 C1635 0.950 . S
H1628 C1633 0.950 . S
H1629 C1634 0.949 . S
H1630 C1636 0.950 . S
H1631 C1637 0.950 . S
H1632 C1638 0.949 . S
C1633 H1628 0.950 . S
C1633 C1635 1.327 . S
C1633 C1639 1.429 . S
C1634 C1626 1.574 1_655 S
C1634 H1629 0.949 . S
C1634 C1640 1.368 . S
C1635 C1619 1.349 . S
C1635 H1627 0.950 . S
C1635 C1633 1.327 . S
C1636 C1624 1.349 . S
C1636 H1630 0.950 . S
C1636 C1637 1.327 . S
C1637 H1631 0.950 . S
C1637 C1636 1.327 . S
C1637 C1641 1.429 . S
C1638 C1621 1.574 1_455 S
C1638 H1632 0.949 . S
C1638 C1642 1.368 . S
C1639 C1620 1.429 . S
C1639 C1633 1.429 . S
C1639 C1640 1.523 . S
C1640 C1621 1.368 . S
C1640 C1634 1.368 . S
C1640 C1639 1.523 . S
C1641 C1625 1.429 . S
C1641 C1637 1.429 . S
C1641 C1642 1.523 . S
C1642 C1626 1.368 . S
C1642 C1638 1.368 . S
C1642 C1641 1.523 . S
H1643 C1618 0.950 . S
H1644 C1620 0.950 . S
H1645 C1621 0.949 . S
H1646 C1623 0.950 . S
H1647 C1625 0.950 . S
C1648 C1649 1.349 . S
C1648 C1650 1.327 . S
C1648 H1673 0.950 . S
C1649 C1648 1.349 . S
C1649 C1665 1.349 . S
C1650 C1648 1.327 . S
C1650 C1669 1.429 . S
C1650 H1674 0.950 . S
C1651 C1668 1.574 . S
C1651 C1670 1.368 . S
C1651 H1675 0.949 . S
H1652 C1656 0.949 . S
C1653 C1654 1.349 . S
C1653 C1655 1.327 . S
C1653 H1676 0.950 . S
C1654 C1653 1.349 . S
C1654 C1666 1.349 . S
C1655 C1653 1.327 . S
C1655 C1671 1.429 . S
C1655 H1677 0.950 . S
C1656 H1652 0.949 . S
C1656 C1664 1.574 . S
C1656 C1672 1.368 . S
H1657 C1665 0.950 . S
H1658 C1663 0.950 . S
H1659 C1664 0.949 . S
H1660 C1666 0.950 . S
H1661 C1667 0.950 . S
H1662 C1668 0.949 . S
C1663 H1658 0.950 . S
C1663 C1665 1.327 . S
C1663 C1669 1.429 . S
C1664 C1656 1.574 . S
C1664 H1659 0.949 . S
C1664 C1670 1.368 . S
C1665 C1649 1.349 . S
C1665 H1657 0.950 . S
C1665 C1663 1.327 . S
C1666 C1654 1.349 . S
C1666 H1660 0.950 . S
C1666 C1667 1.327 . S
C1667 H1661 0.950 . S
C1667 C1666 1.327 . S
C1667 C1671 1.429 . S
C1668 C1651 1.574 . S
C1668 H1662 0.949 . S
C1668 C1672 1.368 . S
C1669 C1650 1.429 . S
C1669 C1663 1.429 . S
C1669 C1670 1.523 . S
C1670 C1651 1.368 . S
C1670 C1664 1.368 . S
C1670 C1669 1.523 . S
C1671 C1655 1.429 . S
C1671 C1667 1.429 . S
C1671 C1672 1.523 . S
C1672 C1656 1.368 . S
C1672 C1668 1.368 . S
C1672 C1671 1.523 . S
H1673 C1648 0.950 . S
H1674 C1650 0.950 . S
H1675 C1651 0.949 . S
H1676 C1653 0.950 . S
H1677 C1655 0.950 . S
C1678 C1679 1.349 . S
C1678 C1680 1.327 . S
C1678 H1703 0.950 . S
C1679 C1678 1.349 . S
C1679 C1695 1.349 . S
C1680 C1678 1.327 . S
C1680 C1699 1.429 . S
C1680 H1704 0.950 . S
C1681 C1698 1.574 . S
C1681 C1700 1.368 . S
C1681 H1705 0.949 . S
H1682 C1686 0.949 . S
C1683 C1684 1.349 . S
C1683 C1685 1.327 . S
C1683 H1706 0.950 . S
C1684 C1683 1.349 . S
C1684 C1696 1.349 . S
C1685 C1683 1.327 . S
C1685 C1701 1.429 . S
C1685 H1707 0.950 . S
C1686 H1682 0.949 . S
C1686 C1694 1.574 . S
C1686 C1702 1.368 . S
H1687 C1695 0.950 . S
H1688 C1693 0.950 . S
H1689 C1694 0.949 . S
H1690 C1696 0.950 . S
H1691 C1697 0.950 . S
H1692 C1698 0.949 . S
C1693 H1688 0.950 . S
C1693 C1695 1.327 . S
C1693 C1699 1.429 . S
C1694 C1686 1.574 . S
C1694 H1689 0.949 . S
C1694 C1700 1.368 . S
C1695 C1679 1.349 . S
C1695 H1687 0.950 . S
C1695 C1693 1.327 . S
C1696 C1684 1.349 . S
C1696 H1690 0.950 . S
C1696 C1697 1.327 . S
C1697 H1691 0.950 . S
C1697 C1696 1.327 . S
C1697 C1701 1.429 . S
C1698 C1681 1.574 . S
C1698 H1692 0.949 . S
C1698 C1702 1.368 . S
C1699 C1680 1.429 . S
C1699 C1693 1.429 . S
C1699 C1700 1.523 . S
C1700 C1681 1.368 . S
C1700 C1694 1.368 . S
C1700 C1699 1.523 . S
C1701 C1685 1.429 . S
C1701 C1697 1.429 . S
C1701 C1702 1.523 . S
C1702 C1686 1.368 . S
C1702 C1698 1.368 . S
C1702 C1701 1.523 . S
H1703 C1678 0.950 . S
H1704 C1680 0.950 . S
H1705 C1681 0.949 . S
H1706 C1683 0.950 . S
H1707 C1685 0.950 . S
C1708 C1709 1.349 . S
C1708 C1710 1.327 . S
C1708 H1733 0.950 . S
C1709 C1708 1.349 . S
C1709 C1725 1.349 . S
C1710 C1708 1.327 . S
C1710 C1729 1.429 . S
C1710 H1734 0.950 . S
C1711 C1728 1.574 . S
C1711 C1730 1.368 . S
C1711 H1735 0.949 . S
H1712 C1716 0.949 . S
C1713 C1714 1.349 . S
C1713 C1715 1.327 . S
C1713 H1736 0.950 . S
C1714 C1713 1.349 . S
C1714 C1726 1.349 . S
C1715 C1713 1.327 . S
C1715 C1731 1.429 . S
C1715 H1737 0.950 . S
C1716 H1712 0.949 . S
C1716 C1724 1.574 . S
C1716 C1732 1.368 . S
H1717 C1725 0.950 . S
H1718 C1723 0.950 . S
H1719 C1724 0.949 . S
H1720 C1726 0.950 . S
H1721 C1727 0.950 . S
H1722 C1728 0.949 . S
C1723 H1718 0.950 . S
C1723 C1725 1.327 . S
C1723 C1729 1.429 . S
C1724 C1716 1.574 . S
C1724 H1719 0.949 . S
C1724 C1730 1.368 . S
C1725 C1709 1.349 . S
C1725 H1717 0.950 . S
C1725 C1723 1.327 . S
C1726 C1714 1.349 . S
C1726 H1720 0.950 . S
C1726 C1727 1.327 . S
C1727 H1721 0.950 . S
C1727 C1726 1.327 . S
C1727 C1731 1.429 . S
C1728 C1711 1.574 . S
C1728 H1722 0.949 . S
C1728 C1732 1.368 . S
C1729 C1710 1.429 . S
C1729 C1723 1.429 . S
C1729 C1730 1.523 . S
C1730 C1711 1.368 . S
C1730 C1724 1.368 . S
C1730 C1729 1.523 . S
C1731 C1715 1.429 . S
C1731 C1727 1.429 . S
C1731 C1732 1.523 . S
C1732 C1716 1.368 . S
C1732 C1728 1.368 . S
C1732 C1731 1.523 . S
H1733 C1708 0.950 . S
H1734 C1710 0.950 . S
H1735 C1711 0.949 . S
H1736 C1713 0.950 . S
H1737 C1715 0.950 . S
C1738 C1739 1.349 . S
C1738 C1740 1.327 . S
C1738 H1763 0.950 . S
C1739 C1738 1.349 . S
C1739 C1755 1.349 . S
C1740 C1738 1.327 . S
C1740 C1759 1.429 . S
C1740 H1764 0.950 . S
C1741 C1758 1.574 . S
C1741 C1760 1.368 . S
C1741 H1765 0.949 . S
H1742 C1746 0.949 . S
C1743 C1744 1.349 . S
C1743 C1745 1.327 . S
C1743 H1766 0.950 . S
C1744 C1743 1.349 . S
C1744 C1756 1.349 . S
C1745 C1743 1.327 . S
C1745 C1761 1.429 . S
C1745 H1767 0.950 . S
C1746 H1742 0.949 . S
C1746 C1754 1.574 . S
C1746 C1762 1.368 . S
H1747 C1755 0.950 . S
H1748 C1753 0.950 . S
H1749 C1754 0.949 . S
H1750 C1756 0.950 . S
H1751 C1757 0.950 . S
H1752 C1758 0.949 . S
C1753 H1748 0.950 . S
C1753 C1755 1.327 . S
C1753 C1759 1.429 . S
C1754 C1746 1.574 . S
C1754 H1749 0.949 . S
C1754 C1760 1.368 . S
C1755 C1739 1.349 . S
C1755 H1747 0.950 . S
C1755 C1753 1.327 . S
C1756 C1744 1.349 . S
C1756 H1750 0.950 . S
C1756 C1757 1.327 . S
C1757 H1751 0.950 . S
C1757 C1756 1.327 . S
C1757 C1761 1.429 . S
C1758 C1741 1.574 . S
C1758 H1752 0.949 . S
C1758 C1762 1.368 . S
C1759 C1740 1.429 . S
C1759 C1753 1.429 . S
C1759 C1760 1.523 . S
C1760 C1741 1.368 . S
C1760 C1754 1.368 . S
C1760 C1759 1.523 . S
C1761 C1745 1.429 . S
C1761 C1757 1.429 . S
C1761 C1762 1.523 . S
C1762 C1746 1.368 . S
C1762 C1758 1.368 . S
C1762 C1761 1.523 . S
H1763 C1738 0.950 . S
H1764 C1740 0.950 . S
H1765 C1741 0.949 . S
H1766 C1743 0.950 . S
H1767 C1745 0.950 . S
C1768 C1769 1.349 . S
C1768 C1770 1.327 . S
C1768 H1793 0.950 . S
C1769 C1768 1.349 . S
C1769 C1785 1.349 . S
C1770 C1768 1.327 . S
C1770 C1789 1.429 . S
C1770 H1794 0.950 . S
C1771 C1788 1.574 . S
C1771 C1790 1.368 . S
C1771 H1795 0.949 . S
H1772 C1776 0.949 . S
C1773 C1774 1.349 . S
C1773 C1775 1.327 . S
C1773 H1796 0.950 . S
C1774 C1773 1.349 . S
C1774 C1786 1.349 . S
C1775 C1773 1.327 . S
C1775 C1791 1.429 . S
C1775 H1797 0.950 . S
C1776 H1772 0.949 . S
C1776 C1784 1.574 . S
C1776 C1792 1.368 . S
H1777 C1785 0.950 . S
H1778 C1783 0.950 . S
H1779 C1784 0.949 . S
H1780 C1786 0.950 . S
H1781 C1787 0.950 . S
H1782 C1788 0.949 . S
C1783 H1778 0.950 . S
C1783 C1785 1.327 . S
C1783 C1789 1.429 . S
C1784 C1776 1.574 . S
C1784 H1779 0.949 . S
C1784 C1790 1.368 . S
C1785 C1769 1.349 . S
C1785 H1777 0.950 . S
C1785 C1783 1.327 . S
C1786 C1774 1.349 . S
C1786 H1780 0.950 . S
C1786 C1787 1.327 . S
C1787 H1781 0.950 . S
C1787 C1786 1.327 . S
C1787 C1791 1.429 . S
C1788 C1771 1.574 . S
C1788 H1782 0.949 . S
C1788 C1792 1.368 . S
C1789 C1770 1.429 . S
C1789 C1783 1.429 . S
C1789 C1790 1.523 . S
C1790 C1771 1.368 . S
C1790 C1784 1.368 . S
C1790 C1789 1.523 . S
C1791 C1775 1.429 . S
C1791 C1787 1.429 . S
C1791 C1792 1.523 . S
C1792 C1776 1.368 . S
C1792 C1788 1.368 . S
C1792 C1791 1.523 . S
H1793 C1768 0.950 . S
H1794 C1770 0.950 . S
H1795 C1771 0.949 . S
H1796 C1773 0.950 . S
H1797 C1775 0.950 . S
C1798 C1799 1.349 . S
C1798 C1800 1.327 . S
C1798 H1823 0.950 . S
C1799 C1798 1.349 . S
C1799 C1815 1.349 . S
C1800 C1798 1.327 . S
C1800 C1819 1.429 . S
C1800 H1824 0.950 . S
C1801 C1818 1.574 1_655 S
C1801 C1820 1.368 . S
C1801 H1825 0.949 . S
H1802 C1806 0.949 . S
C1803 C1804 1.349 . S
C1803 C1805 1.327 . S
C1803 H1826 0.950 . S
C1804 C1803 1.349 . S
C1804 C1816 1.349 . S
C1805 C1803 1.327 . S
C1805 C1821 1.429 . S
C1805 H1827 0.950 . S
C1806 H1802 0.949 . S
C1806 C1814 1.574 1_455 S
C1806 C1822 1.368 . S
H1807 C1815 0.950 . S
H1808 C1813 0.950 . S
H1809 C1814 0.949 . S
H1810 C1816 0.950 . S
H1811 C1817 0.950 . S
H1812 C1818 0.949 . S
C1813 H1808 0.950 . S
C1813 C1815 1.327 . S
C1813 C1819 1.429 . S
C1814 C1806 1.574 1_655 S
C1814 H1809 0.949 . S
C1814 C1820 1.368 . S
C1815 C1799 1.349 . S
C1815 H1807 0.950 . S
C1815 C1813 1.327 . S
C1816 C1804 1.349 . S
C1816 H1810 0.950 . S
C1816 C1817 1.327 . S
C1817 H1811 0.950 . S
C1817 C1816 1.327 . S
C1817 C1821 1.429 . S
C1818 C1801 1.574 1_455 S
C1818 H1812 0.949 . S
C1818 C1822 1.368 . S
C1819 C1800 1.429 . S
C1819 C1813 1.429 . S
C1819 C1820 1.523 . S
C1820 C1801 1.368 . S
C1820 C1814 1.368 . S
C1820 C1819 1.523 . S
C1821 C1805 1.429 . S
C1821 C1817 1.429 . S
C1821 C1822 1.523 . S
C1822 C1806 1.368 . S
C1822 C1818 1.368 . S
C1822 C1821 1.523 . S
H1823 C1798 0.950 . S
H1824 C1800 0.950 . S
H1825 C1801 0.949 . S
H1826 C1803 0.950 . S
H1827 C1805 0.950 . S
C1828 C1829 1.349 . S
C1828 C1830 1.327 . S
C1828 H1853 0.950 . S
C1829 C1828 1.349 . S
C1829 C1845 1.349 . S
C1830 C1828 1.327 . S
C1830 C1849 1.429 . S
C1830 H1854 0.950 . S
C1831 C1848 1.574 1_655 S
C1831 C1850 1.368 . S
C1831 H1855 0.949 . S
H1832 C1836 0.949 . S
C1833 C1834 1.349 . S
C1833 C1835 1.327 . S
C1833 H1856 0.950 . S
C1834 C1833 1.349 . S
C1834 C1846 1.349 . S
C1835 C1833 1.327 . S
C1835 C1851 1.429 . S
C1835 H1857 0.950 . S
C1836 H1832 0.949 . S
C1836 C1844 1.574 1_455 S
C1836 C1852 1.368 . S
H1837 C1845 0.950 . S
H1838 C1843 0.950 . S
H1839 C1844 0.949 . S
H1840 C1846 0.950 . S
H1841 C1847 0.950 . S
H1842 C1848 0.949 . S
C1843 H1838 0.950 . S
C1843 C1845 1.327 . S
C1843 C1849 1.429 . S
C1844 C1836 1.574 1_655 S
C1844 H1839 0.949 . S
C1844 C1850 1.368 . S
C1845 C1829 1.349 . S
C1845 H1837 0.950 . S
C1845 C1843 1.327 . S
C1846 C1834 1.349 . S
C1846 H1840 0.950 . S
C1846 C1847 1.327 . S
C1847 H1841 0.950 . S
C1847 C1846 1.327 . S
C1847 C1851 1.429 . S
C1848 C1831 1.574 1_455 S
C1848 H1842 0.949 . S
C1848 C1852 1.368 . S
C1849 C1830 1.429 . S
C1849 C1843 1.429 . S
C1849 C1850 1.523 . S
C1850 C1831 1.368 . S
C1850 C1844 1.368 . S
C1850 C1849 1.523 . S
C1851 C1835 1.429 . S
C1851 C1847 1.429 . S
C1851 C1852 1.523 . S
C1852 C1836 1.368 . S
C1852 C1848 1.368 . S
C1852 C1851 1.523 . S
H1853 C1828 0.950 . S
H1854 C1830 0.950 . S
H1855 C1831 0.949 . S
H1856 C1833 0.950 . S
H1857 C1835 0.950 . S
C1858 C1859 1.349 . S
C1858 C1860 1.327 . S
C1858 H1883 0.950 . S
C1859 C1858 1.349 . S
C1859 C1875 1.349 . S
C1860 C1858 1.327 . S
C1860 C1879 1.429 . S
C1860 H1884 0.950 . S
C1861 C1878 1.574 . S
C1861 C1880 1.368 . S
C1861 H1885 0.949 . S
H1862 C1866 0.949 . S
C1863 C1864 1.349 . S
C1863 C1865 1.327 . S
C1863 H1886 0.950 . S
C1864 C1863 1.349 . S
C1864 C1876 1.349 . S
C1865 C1863 1.327 . S
C1865 C1881 1.429 . S
C1865 H1887 0.950 . S
C1866 H1862 0.949 . S
C1866 C1874 1.574 . S
C1866 C1882 1.368 . S
H1867 C1875 0.950 . S
H1868 C1873 0.950 . S
H1869 C1874 0.949 . S
H1870 C1876 0.950 . S
H1871 C1877 0.950 . S
H1872 C1878 0.949 . S
C1873 H1868 0.950 . S
C1873 C1875 1.327 . S
C1873 C1879 1.429 . S
C1874 C1866 1.574 . S
C1874 H1869 0.949 . S
C1874 C1880 1.368 . S
C1875 C1859 1.349 . S
C1875 H1867 0.950 . S
C1875 C1873 1.327 . S
C1876 C1864 1.349 . S
C1876 H1870 0.950 . S
C1876 C1877 1.327 . S
C1877 H1871 0.950 . S
C1877 C1876 1.327 . S
C1877 C1881 1.429 . S
C1878 C1861 1.574 . S
C1878 H1872 0.949 . S
C1878 C1882 1.368 . S
C1879 C1860 1.429 . S
C1879 C1873 1.429 . S
C1879 C1880 1.523 . S
C1880 C1861 1.368 . S
C1880 C1874 1.368 . S
C1880 C1879 1.523 . S
C1881 C1865 1.429 . S
C1881 C1877 1.429 . S
C1881 C1882 1.523 . S
C1882 C1866 1.368 . S
C1882 C1878 1.368 . S
C1882 C1881 1.523 . S
H1883 C1858 0.950 . S
H1884 C1860 0.950 . S
H1885 C1861 0.949 . S
H1886 C1863 0.950 . S
H1887 C1865 0.950 . S
C1888 C1889 1.349 . S
C1888 C1890 1.327 . S
C1888 H1913 0.950 . S
C1889 C1888 1.349 . S
C1889 C1905 1.349 . S
C1890 C1888 1.327 . S
C1890 C1909 1.429 . S
C1890 H1914 0.950 . S
C1891 C1908 1.574 . S
C1891 C1910 1.368 . S
C1891 H1915 0.949 . S
H1892 C1896 0.949 . S
C1893 C1894 1.349 . S
C1893 C1895 1.327 . S
C1893 H1916 0.950 . S
C1894 C1893 1.349 . S
C1894 C1906 1.349 . S
C1895 C1893 1.327 . S
C1895 C1911 1.429 . S
C1895 H1917 0.950 . S
C1896 H1892 0.949 . S
C1896 C1904 1.574 . S
C1896 C1912 1.368 . S
H1897 C1905 0.950 . S
H1898 C1903 0.950 . S
H1899 C1904 0.949 . S
H1900 C1906 0.950 . S
H1901 C1907 0.950 . S
H1902 C1908 0.949 . S
C1903 H1898 0.950 . S
C1903 C1905 1.327 . S
C1903 C1909 1.429 . S
C1904 C1896 1.574 . S
C1904 H1899 0.949 . S
C1904 C1910 1.368 . S
C1905 C1889 1.349 . S
C1905 H1897 0.950 . S
C1905 C1903 1.327 . S
C1906 C1894 1.349 . S
C1906 H1900 0.950 . S
C1906 C1907 1.327 . S
C1907 H1901 0.950 . S
C1907 C1906 1.327 . S
C1907 C1911 1.429 . S
C1908 C1891 1.574 . S
C1908 H1902 0.949 . S
C1908 C1912 1.368 . S
C1909 C1890 1.429 . S
C1909 C1903 1.429 . S
C1909 C1910 1.523 . S
C1910 C1891 1.368 . S
C1910 C1904 1.368 . S
C1910 C1909 1.523 . S
C1911 C1895 1.429 . S
C1911 C1907 1.429 . S
C1911 C1912 1.523 . S
C1912 C1896 1.368 . S
C1912 C1908 1.368 . S
C1912 C1911 1.523 . S
H1913 C1888 0.950 . S
H1914 C1890 0.950 . S
H1915 C1891 0.949 . S
H1916 C1893 0.950 . S
H1917 C1895 0.950 . S
C1918 C1919 1.349 . S
C1918 C1920 1.327 . S
C1918 H1943 0.950 . S
C1919 C1918 1.349 . S
C1919 C1935 1.349 . S
C1920 C1918 1.327 . S
C1920 C1939 1.429 . S
C1920 H1944 0.950 . S
C1921 C1938 1.574 . S
C1921 C1940 1.368 . S
C1921 H1945 0.949 . S
H1922 C1926 0.949 . S
C1923 C1924 1.349 . S
C1923 C1925 1.327 . S
C1923 H1946 0.950 . S
C1924 C1923 1.349 . S
C1924 C1936 1.349 . S
C1925 C1923 1.327 . S
C1925 C1941 1.429 . S
C1925 H1947 0.950 . S
C1926 H1922 0.949 . S
C1926 C1934 1.574 . S
C1926 C1942 1.368 . S
H1927 C1935 0.950 . S
H1928 C1933 0.950 . S
H1929 C1934 0.949 . S
H1930 C1936 0.950 . S
H1931 C1937 0.950 . S
H1932 C1938 0.949 . S
C1933 H1928 0.950 . S
C1933 C1935 1.327 . S
C1933 C1939 1.429 . S
C1934 C1926 1.574 . S
C1934 H1929 0.949 . S
C1934 C1940 1.368 . S
C1935 C1919 1.349 . S
C1935 H1927 0.950 . S
C1935 C1933 1.327 . S
C1936 C1924 1.349 . S
C1936 H1930 0.950 . S
C1936 C1937 1.327 . S
C1937 H1931 0.950 . S
C1937 C1936 1.327 . S
C1937 C1941 1.429 . S
C1938 C1921 1.574 . S
C1938 H1932 0.949 . S
C1938 C1942 1.368 . S
C1939 C1920 1.429 . S
C1939 C1933 1.429 . S
C1939 C1940 1.523 . S
C1940 C1921 1.368 . S
C1940 C1934 1.368 . S
C1940 C1939 1.523 . S
C1941 C1925 1.429 . S
C1941 C1937 1.429 . S
C1941 C1942 1.523 . S
C1942 C1926 1.368 . S
C1942 C1938 1.368 . S
C1942 C1941 1.523 . S
H1943 C1918 0.950 . S
H1944 C1920 0.950 . S
H1945 C1921 0.949 . S
H1946 C1923 0.950 . S
H1947 C1925 0.950 . S
C1948 C1949 1.349 . S
C1948 C1950 1.327 1_554 S
C1948 H1973 0.950 . S
C1949 C1948 1.349 . S
C1949 C1965 1.349 1_554 S
C1950 C1948 1.327 1_556 S
C1950 C1969 1.429 . S
C1950 H1974 0.950 . S
C1951 C1968 1.574 . S
C1951 C1970 1.368 . S
C1951 H1975 0.949 . S
H1952 C1956 0.949 . S
C1953 C1954 1.349 . S
C1953 C1955 1.327 . S
C1953 H1976 0.950 . S
C1954 C1953 1.349 . S
C1954 C1966 1.349 . S
C1955 C1953 1.327 . S
C1955 C1971 1.429 . S
C1955 H1977 0.950 . S
C1956 H1952 0.949 . S
C1956 C1964 1.574 . S
C1956 C1972 1.368 . S
H1957 C1965 0.950 . S
H1958 C1963 0.950 . S
H1959 C1964 0.949 . S
H1960 C1966 0.950 . S
H1961 C1967 0.950 . S
H1962 C1968 0.949 . S
C1963 H1958 0.950 . S
C1963 C1965 1.327 . S
C1963 C1969 1.429 . S
C1964 C1956 1.574 . S
C1964 H1959 0.949 . S
C1964 C1970 1.368 . S
C1965 C1949 1.349 1_556 S
C1965 H1957 0.950 . S
C1965 C1963 1.327 . S
C1966 C1954 1.349 . S
C1966 H1960 0.950 . S
C1966 C1967 1.327 . S
C1967 H1961 0.950 . S
C1967 C1966 1.327 . S
C1967 C1971 1.429 . S
C1968 C1951 1.574 . S
C1968 H1962 0.949 . S
C1968 C1972 1.368 . S
C1969 C1950 1.429 . S
C1969 C1963 1.429 . S
C1969 C1970 1.523 . S
C1970 C1951 1.368 . S
C1970 C1964 1.368 . S
C1970 C1969 1.523 . S
C1971 C1955 1.429 . S
C1971 C1967 1.429 . S
C1971 C1972 1.523 . S
C1972 C1956 1.368 . S
C1972 C1968 1.368 . S
C1972 C1971 1.523 . S
H1973 C1948 0.950 . S
H1974 C1950 0.950 . S
H1975 C1951 0.949 . S
H1976 C1953 0.950 . S
H1977 C1955 0.950 . S
C1978 C1979 1.349 1_554 S
C1978 C1980 1.327 . S
C1978 H2003 0.950 . S
C1979 C1978 1.349 1_556 S
C1979 C1995 1.349 . S
C1980 C1978 1.327 . S
C1980 C1999 1.429 . S
C1980 H2004 0.950 . S
C1981 C1998 1.574 . S
C1981 C2000 1.368 . S
C1981 H2005 0.949 . S
H1982 C1986 0.949 . S
C1983 C1984 1.349 . S
C1983 C1985 1.327 . S
C1983 H2006 0.950 . S
C1984 C1983 1.349 . S
C1984 C1996 1.349 . S
C1985 C1983 1.327 . S
C1985 C2001 1.429 . S
C1985 H2007 0.950 . S
C1986 H1982 0.949 . S
C1986 C1994 1.574 . S
C1986 C2002 1.368 . S
H1987 C1995 0.950 . S
H1988 C1993 0.950 . S
H1989 C1994 0.949 . S
H1990 C1996 0.950 . S
H1991 C1997 0.950 . S
H1992 C1998 0.949 . S
C1993 H1988 0.950 . S
C1993 C1995 1.327 1_554 S
C1993 C1999 1.429 . S
C1994 C1986 1.574 . S
C1994 H1989 0.949 . S
C1994 C2000 1.368 . S
C1995 C1979 1.349 . S
C1995 H1987 0.950 . S
C1995 C1993 1.327 1_556 S
C1996 C1984 1.349 . S
C1996 H1990 0.950 . S
C1996 C1997 1.327 . S
C1997 H1991 0.950 . S
C1997 C1996 1.327 . S
C1997 C2001 1.429 . S
C1998 C1981 1.574 . S
C1998 H1992 0.949 . S
C1998 C2002 1.368 . S
C1999 C1980 1.429 . S
C1999 C1993 1.429 . S
C1999 C2000 1.523 . S
C2000 C1981 1.368 . S
C2000 C1994 1.368 . S
C2000 C1999 1.523 . S
C2001 C1985 1.429 . S
C2001 C1997 1.429 . S
C2001 C2002 1.523 . S
C2002 C1986 1.368 . S
C2002 C1998 1.368 . S
C2002 C2001 1.523 . S
H2003 C1978 0.950 . S
H2004 C1980 0.950 . S
H2005 C1981 0.949 . S
H2006 C1983 0.950 . S
H2007 C1985 0.950 . S
C2008 C2009 1.349 . S
C2008 C2010 1.327 . S
C2008 H2033 0.950 . S
C2009 C2008 1.349 . S
C2009 C2025 1.349 . S
C2010 C2008 1.327 . S
C2010 C2029 1.429 . S
C2010 H2034 0.950 . S
C2011 C2028 1.574 . S
C2011 C2030 1.368 . S
C2011 H2035 0.949 . S
H2012 C2016 0.949 . S
C2013 C2014 1.349 . S
C2013 C2015 1.327 . S
C2013 H2036 0.950 . S
C2014 C2013 1.349 . S
C2014 C2026 1.349 . S
C2015 C2013 1.327 . S
C2015 C2031 1.429 . S
C2015 H2037 0.950 . S
C2016 H2012 0.949 . S
C2016 C2024 1.574 . S
C2016 C2032 1.368 . S
H2017 C2025 0.950 . S
H2018 C2023 0.950 . S
H2019 C2024 0.949 . S
H2020 C2026 0.950 . S
H2021 C2027 0.950 . S
H2022 C2028 0.949 . S
C2023 H2018 0.950 . S
C2023 C2025 1.327 . S
C2023 C2029 1.429 . S
C2024 C2016 1.574 . S
C2024 H2019 0.949 . S
C2024 C2030 1.368 . S
C2025 C2009 1.349 . S
C2025 H2017 0.950 . S
C2025 C2023 1.327 . S
C2026 C2014 1.349 . S
C2026 H2020 0.950 . S
C2026 C2027 1.327 . S
C2027 H2021 0.950 . S
C2027 C2026 1.327 . S
C2027 C2031 1.429 . S
C2028 C2011 1.574 . S
C2028 H2022 0.949 . S
C2028 C2032 1.368 . S
C2029 C2010 1.429 . S
C2029 C2023 1.429 . S
C2029 C2030 1.523 . S
C2030 C2011 1.368 . S
C2030 C2024 1.368 . S
C2030 C2029 1.523 . S
C2031 C2015 1.429 . S
C2031 C2027 1.429 . S
C2031 C2032 1.523 . S
C2032 C2016 1.368 . S
C2032 C2028 1.368 . S
C2032 C2031 1.523 . S
H2033 C2008 0.950 . S
H2034 C2010 0.950 . S
H2035 C2011 0.949 . S
H2036 C2013 0.950 . S
H2037 C2015 0.950 . S
C2038 C2039 1.349 . S
C2038 C2040 1.327 . S
C2038 H2063 0.950 . S
C2039 C2038 1.349 . S
C2039 C2055 1.349 . S
C2040 C2038 1.327 . S
C2040 C2059 1.429 . S
C2040 H2064 0.950 . S
C2041 C2058 1.574 . S
C2041 C2060 1.368 . S
C2041 H2065 0.949 . S
H2042 C2046 0.949 . S
C2043 C2044 1.349 . S
C2043 C2045 1.327 . S
C2043 H2066 0.950 . S
C2044 C2043 1.349 . S
C2044 C2056 1.349 . S
C2045 C2043 1.327 . S
C2045 C2061 1.429 . S
C2045 H2067 0.950 . S
C2046 H2042 0.949 . S
C2046 C2054 1.574 . S
C2046 C2062 1.368 . S
H2047 C2055 0.950 . S
H2048 C2053 0.950 . S
H2049 C2054 0.949 . S
H2050 C2056 0.950 . S
H2051 C2057 0.950 . S
H2052 C2058 0.949 . S
C2053 H2048 0.950 . S
C2053 C2055 1.327 . S
C2053 C2059 1.429 . S
C2054 C2046 1.574 . S
C2054 H2049 0.949 . S
C2054 C2060 1.368 . S
C2055 C2039 1.349 . S
C2055 H2047 0.950 . S
C2055 C2053 1.327 . S
C2056 C2044 1.349 . S
C2056 H2050 0.950 . S
C2056 C2057 1.327 . S
C2057 H2051 0.950 . S
C2057 C2056 1.327 . S
C2057 C2061 1.429 . S
C2058 C2041 1.574 . S
C2058 H2052 0.949 . S
C2058 C2062 1.368 . S
C2059 C2040 1.429 . S
C2059 C2053 1.429 . S
C2059 C2060 1.523 . S
C2060 C2041 1.368 . S
C2060 C2054 1.368 . S
C2060 C2059 1.523 . S
C2061 C2045 1.429 . S
C2061 C2057 1.429 . S
C2061 C2062 1.523 . S
C2062 C2046 1.368 . S
C2062 C2058 1.368 . S
C2062 C2061 1.523 . S
H2063 C2038 0.950 . S
H2064 C2040 0.950 . S
H2065 C2041 0.949 . S
H2066 C2043 0.950 . S
H2067 C2045 0.950 . S
C2068 C2069 1.349 . S
C2068 C2070 1.327 . S
C2068 H2093 0.950 . S
C2069 C2068 1.349 . S
C2069 C2085 1.349 . S
C2070 C2068 1.327 . S
C2070 C2089 1.429 . S
C2070 H2094 0.950 . S
C2071 C2088 1.574 . S
C2071 C2090 1.368 . S
C2071 H2095 0.949 . S
H2072 C2076 0.949 . S
C2073 C2074 1.349 1_554 S
C2073 C2075 1.327 . S
C2073 H2096 0.950 . S
C2074 C2073 1.349 1_556 S
C2074 C2086 1.349 . S
C2075 C2073 1.327 . S
C2075 C2091 1.429 . S
C2075 H2097 0.950 . S
C2076 H2072 0.949 . S
C2076 C2084 1.574 . S
C2076 C2092 1.368 . S
H2077 C2085 0.950 . S
H2078 C2083 0.950 . S
H2079 C2084 0.949 . S
H2080 C2086 0.950 . S
H2081 C2087 0.950 . S
H2082 C2088 0.949 . S
C2083 H2078 0.950 . S
C2083 C2085 1.327 . S
C2083 C2089 1.429 . S
C2084 C2076 1.574 . S
C2084 H2079 0.949 . S
C2084 C2090 1.368 . S
C2085 C2069 1.349 . S
C2085 H2077 0.950 . S
C2085 C2083 1.327 . S
C2086 C2074 1.349 . S
C2086 H2080 0.950 . S
C2086 C2087 1.327 1_556 S
C2087 H2081 0.950 . S
C2087 C2086 1.327 1_554 S
C2087 C2091 1.429 . S
C2088 C2071 1.574 . S
C2088 H2082 0.949 . S
C2088 C2092 1.368 . S
C2089 C2070 1.429 . S
C2089 C2083 1.429 . S
C2089 C2090 1.523 . S
C2090 C2071 1.368 . S
C2090 C2084 1.368 . S
C2090 C2089 1.523 . S
C2091 C2075 1.429 . S
C2091 C2087 1.429 . S
C2091 C2092 1.523 . S
C2092 C2076 1.368 . S
C2092 C2088 1.368 . S
C2092 C2091 1.523 . S
H2093 C2068 0.950 . S
H2094 C2070 0.950 . S
H2095 C2071 0.949 . S
H2096 C2073 0.950 . S
H2097 C2075 0.950 . S
C2098 C2099 1.349 . S
C2098 C2100 1.327 . S
C2098 H2123 0.950 . S
C2099 C2098 1.349 . S
C2099 C2115 1.349 . S
C2100 C2098 1.327 . S
C2100 C2119 1.429 . S
C2100 H2124 0.950 . S
C2101 C2118 1.574 . S
C2101 C2120 1.368 . S
C2101 H2125 0.949 . S
H2102 C2106 0.949 . S
C2103 C2104 1.349 1_556 S
C2103 C2105 1.327 . S
C2103 H2126 0.950 . S
C2104 C2103 1.349 1_554 S
C2104 C2116 1.349 . S
C2105 C2103 1.327 . S
C2105 C2121 1.429 . S
C2105 H2127 0.950 . S
C2106 H2102 0.949 . S
C2106 C2114 1.574 . S
C2106 C2122 1.368 . S
H2107 C2115 0.950 . S
H2108 C2113 0.950 . S
H2109 C2114 0.949 . S
H2110 C2116 0.950 . S
H2111 C2117 0.950 . S
H2112 C2118 0.949 . S
C2113 H2108 0.950 . S
C2113 C2115 1.327 . S
C2113 C2119 1.429 . S
C2114 C2106 1.574 . S
C2114 H2109 0.949 . S
C2114 C2120 1.368 . S
C2115 C2099 1.349 . S
C2115 H2107 0.950 . S
C2115 C2113 1.327 . S
C2116 C2104 1.349 . S
C2116 H2110 0.950 . S
C2116 C2117 1.327 1_554 S
C2117 H2111 0.950 . S
C2117 C2116 1.327 1_556 S
C2117 C2121 1.429 . S
C2118 C2101 1.574 . S
C2118 H2112 0.949 . S
C2118 C2122 1.368 . S
C2119 C2100 1.429 . S
C2119 C2113 1.429 . S
C2119 C2120 1.523 . S
C2120 C2101 1.368 . S
C2120 C2114 1.368 . S
C2120 C2119 1.523 . S
C2121 C2105 1.429 . S
C2121 C2117 1.429 . S
C2121 C2122 1.523 . S
C2122 C2106 1.368 . S
C2122 C2118 1.368 . S
C2122 C2121 1.523 . S
H2123 C2098 0.950 . S
H2124 C2100 0.950 . S
H2125 C2101 0.949 . S
H2126 C2103 0.950 . S
H2127 C2105 0.950 . S
C2128 C2129 1.349 1_556 S
C2128 C2130 1.327 . S
C2128 H2153 0.950 . S
C2129 C2128 1.349 1_554 S
C2129 C2145 1.349 . S
C2130 C2128 1.327 . S
C2130 C2149 1.429 . S
C2130 H2154 0.950 . S
C2131 C2148 1.574 . S
C2131 C2150 1.368 . S
C2131 H2155 0.949 . S
H2132 C2136 0.949 . S
C2133 C2134 1.349 . S
C2133 C2135 1.327 . S
C2133 H2156 0.950 . S
C2134 C2133 1.349 . S
C2134 C2146 1.349 . S
C2135 C2133 1.327 . S
C2135 C2151 1.429 . S
C2135 H2157 0.950 . S
C2136 H2132 0.949 . S
C2136 C2144 1.574 . S
C2136 C2152 1.368 . S
H2137 C2145 0.950 . S
H2138 C2143 0.950 . S
H2139 C2144 0.949 . S
H2140 C2146 0.950 . S
H2141 C2147 0.950 . S
H2142 C2148 0.949 . S
C2143 H2138 0.950 . S
C2143 C2145 1.327 1_556 S
C2143 C2149 1.429 . S
C2144 C2136 1.574 . S
C2144 H2139 0.949 . S
C2144 C2150 1.368 . S
C2145 C2129 1.349 . S
C2145 H2137 0.950 . S
C2145 C2143 1.327 1_554 S
C2146 C2134 1.349 . S
C2146 H2140 0.950 . S
C2146 C2147 1.327 . S
C2147 H2141 0.950 . S
C2147 C2146 1.327 . S
C2147 C2151 1.429 . S
C2148 C2131 1.574 . S
C2148 H2142 0.949 . S
C2148 C2152 1.368 . S
C2149 C2130 1.429 . S
C2149 C2143 1.429 . S
C2149 C2150 1.523 . S
C2150 C2131 1.368 . S
C2150 C2144 1.368 . S
C2150 C2149 1.523 . S
C2151 C2135 1.429 . S
C2151 C2147 1.429 . S
C2151 C2152 1.523 . S
C2152 C2136 1.368 . S
C2152 C2148 1.368 . S
C2152 C2151 1.523 . S
H2153 C2128 0.950 . S
H2154 C2130 0.950 . S
H2155 C2131 0.949 . S
H2156 C2133 0.950 . S
H2157 C2135 0.950 . S
C2158 C2159 1.349 . S
C2158 C2160 1.327 . S
C2158 H2183 0.950 . S
C2159 C2158 1.349 . S
C2159 C2175 1.349 . S
C2160 C2158 1.327 . S
C2160 C2179 1.429 . S
C2160 H2184 0.950 . S
C2161 C2178 1.574 . S
C2161 C2180 1.368 . S
C2161 H2185 0.949 . S
H2162 C2166 0.949 . S
C2163 C2164 1.349 . S
C2163 C2165 1.327 1_556 S
C2163 H2186 0.950 . S
C2164 C2163 1.349 . S
C2164 C2176 1.349 . S
C2165 C2163 1.327 1_554 S
C2165 C2181 1.429 . S
C2165 H2187 0.950 . S
C2166 H2162 0.949 . S
C2166 C2174 1.574 . S
C2166 C2182 1.368 . S
H2167 C2175 0.950 . S
H2168 C2173 0.950 . S
H2169 C2174 0.949 . S
H2170 C2176 0.950 . S
H2171 C2177 0.950 . S
H2172 C2178 0.949 . S
C2173 H2168 0.950 . S
C2173 C2175 1.327 . S
C2173 C2179 1.429 . S
C2174 C2166 1.574 . S
C2174 H2169 0.949 . S
C2174 C2180 1.368 . S
C2175 C2159 1.349 . S
C2175 H2167 0.950 . S
C2175 C2173 1.327 . S
C2176 C2164 1.349 . S
C2176 H2170 0.950 . S
C2176 C2177 1.327 1_556 S
C2177 H2171 0.950 . S
C2177 C2176 1.327 1_554 S
C2177 C2181 1.429 . S
C2178 C2161 1.574 . S
C2178 H2172 0.949 . S
C2178 C2182 1.368 . S
C2179 C2160 1.429 . S
C2179 C2173 1.429 . S
C2179 C2180 1.523 . S
C2180 C2161 1.368 . S
C2180 C2174 1.368 . S
C2180 C2179 1.523 . S
C2181 C2165 1.429 . S
C2181 C2177 1.429 . S
C2181 C2182 1.523 . S
C2182 C2166 1.368 . S
C2182 C2178 1.368 . S
C2182 C2181 1.523 . S
H2183 C2158 0.950 . S
H2184 C2160 0.950 . S
H2185 C2161 0.949 . S
H2186 C2163 0.950 . S
H2187 C2165 0.950 . S
C2188 C2189 1.349 . S
C2188 C2190 1.327 . S
C2188 H2213 0.950 . S
C2189 C2188 1.349 . S
C2189 C2205 1.349 . S
C2190 C2188 1.327 . S
C2190 C2209 1.429 . S
C2190 H2214 0.950 . S
C2191 C2208 1.574 . S
C2191 C2210 1.368 . S
C2191 H2215 0.949 . S
H2192 C2196 0.949 . S
C2193 C2194 1.349 . S
C2193 C2195 1.327 . S
C2193 H2216 0.950 . S
C2194 C2193 1.349 . S
C2194 C2206 1.349 . S
C2195 C2193 1.327 . S
C2195 C2211 1.429 . S
C2195 H2217 0.950 . S
C2196 H2192 0.949 . S
C2196 C2204 1.574 . S
C2196 C2212 1.368 . S
H2197 C2205 0.950 . S
H2198 C2203 0.950 . S
H2199 C2204 0.949 . S
H2200 C2206 0.950 . S
H2201 C2207 0.950 . S
H2202 C2208 0.949 . S
C2203 H2198 0.950 . S
C2203 C2205 1.327 . S
C2203 C2209 1.429 . S
C2204 C2196 1.574 . S
C2204 H2199 0.949 . S
C2204 C2210 1.368 . S
C2205 C2189 1.349 . S
C2205 H2197 0.950 . S
C2205 C2203 1.327 . S
C2206 C2194 1.349 . S
C2206 H2200 0.950 . S
C2206 C2207 1.327 . S
C2207 H2201 0.950 . S
C2207 C2206 1.327 . S
C2207 C2211 1.429 . S
C2208 C2191 1.574 . S
C2208 H2202 0.949 . S
C2208 C2212 1.368 . S
C2209 C2190 1.429 . S
C2209 C2203 1.429 . S
C2209 C2210 1.523 . S
C2210 C2191 1.368 . S
C2210 C2204 1.368 . S
C2210 C2209 1.523 . S
C2211 C2195 1.429 . S
C2211 C2207 1.429 . S
C2211 C2212 1.523 . S
C2212 C2196 1.368 . S
C2212 C2208 1.368 . S
C2212 C2211 1.523 . S
H2213 C2188 0.950 . S
H2214 C2190 0.950 . S
H2215 C2191 0.949 . S
H2216 C2193 0.950 . S
H2217 C2195 0.950 . S
C2218 C2219 1.349 . S
C2218 C2220 1.327 . S
C2218 H2243 0.950 . S
C2219 C2218 1.349 . S
C2219 C2235 1.349 . S
C2220 C2218 1.327 . S
C2220 C2239 1.429 . S
C2220 H2244 0.950 . S
C2221 C2238 1.574 . S
C2221 C2240 1.368 . S
C2221 H2245 0.949 . S
H2222 C2226 0.949 . S
C2223 C2224 1.349 . S
C2223 C2225 1.327 . S
C2223 H2246 0.950 . S
C2224 C2223 1.349 . S
C2224 C2236 1.349 . S
C2225 C2223 1.327 . S
C2225 C2241 1.429 . S
C2225 H2247 0.950 . S
C2226 H2222 0.949 . S
C2226 C2234 1.574 . S
C2226 C2242 1.368 . S
H2227 C2235 0.950 . S
H2228 C2233 0.950 . S
H2229 C2234 0.949 . S
H2230 C2236 0.950 . S
H2231 C2237 0.950 . S
H2232 C2238 0.949 . S
C2233 H2228 0.950 . S
C2233 C2235 1.327 . S
C2233 C2239 1.429 . S
C2234 C2226 1.574 . S
C2234 H2229 0.949 . S
C2234 C2240 1.368 . S
C2235 C2219 1.349 . S
C2235 H2227 0.950 . S
C2235 C2233 1.327 . S
C2236 C2224 1.349 . S
C2236 H2230 0.950 . S
C2236 C2237 1.327 . S
C2237 H2231 0.950 . S
C2237 C2236 1.327 . S
C2237 C2241 1.429 . S
C2238 C2221 1.574 . S
C2238 H2232 0.949 . S
C2238 C2242 1.368 . S
C2239 C2220 1.429 . S
C2239 C2233 1.429 . S
C2239 C2240 1.523 . S
C2240 C2221 1.368 . S
C2240 C2234 1.368 . S
C2240 C2239 1.523 . S
C2241 C2225 1.429 . S
C2241 C2237 1.429 . S
C2241 C2242 1.523 . S
C2242 C2226 1.368 . S
C2242 C2238 1.368 . S
C2242 C2241 1.523 . S
H2243 C2218 0.950 . S
H2244 C2220 0.950 . S
H2245 C2221 0.949 . S
H2246 C2223 0.950 . S
H2247 C2225 0.950 . S
C2248 C2249 1.349 . S
C2248 C2250 1.327 . S
C2248 H2273 0.950 . S
C2249 C2248 1.349 . S
C2249 C2265 1.349 . S
C2250 C2248 1.327 . S
C2250 C2269 1.429 . S
C2250 H2274 0.950 . S
C2251 C2268 1.574 . S
C2251 C2270 1.368 . S
C2251 H2275 0.949 . S
H2252 C2256 0.949 . S
C2253 C2254 1.349 1_554 S
C2253 C2255 1.327 . S
C2253 H2276 0.950 . S
C2254 C2253 1.349 1_556 S
C2254 C2266 1.349 . S
C2255 C2253 1.327 . S
C2255 C2271 1.429 . S
C2255 H2277 0.950 . S
C2256 H2252 0.949 . S
C2256 C2264 1.574 . S
C2256 C2272 1.368 . S
H2257 C2265 0.950 . S
H2258 C2263 0.950 . S
H2259 C2264 0.949 . S
H2260 C2266 0.950 . S
H2261 C2267 0.950 . S
H2262 C2268 0.949 . S
C2263 H2258 0.950 . S
C2263 C2265 1.327 . S
C2263 C2269 1.429 . S
C2264 C2256 1.574 . S
C2264 H2259 0.949 . S
C2264 C2270 1.368 . S
C2265 C2249 1.349 . S
C2265 H2257 0.950 . S
C2265 C2263 1.327 . S
C2266 C2254 1.349 . S
C2266 H2260 0.950 . S
C2266 C2267 1.327 1_556 S
C2267 H2261 0.950 . S
C2267 C2266 1.327 1_554 S
C2267 C2271 1.429 . S
C2268 C2251 1.574 . S
C2268 H2262 0.949 . S
C2268 C2272 1.368 . S
C2269 C2250 1.429 . S
C2269 C2263 1.429 . S
C2269 C2270 1.523 . S
C2270 C2251 1.368 . S
C2270 C2264 1.368 . S
C2270 C2269 1.523 . S
C2271 C2255 1.429 . S
C2271 C2267 1.429 . S
C2271 C2272 1.523 . S
C2272 C2256 1.368 . S
C2272 C2268 1.368 . S
C2272 C2271 1.523 . S
H2273 C2248 0.950 . S
H2274 C2250 0.950 . S
H2275 C2251 0.949 . S
H2276 C2253 0.950 . S
H2277 C2255 0.950 . S
C2278 C2279 1.360 . S
C2278 C2280 1.306 1_554 S
C2278 H2303 0.960 . S
C2279 C2278 1.360 . S
C2279 C2295 1.349 . S
C2280 C2278 1.306 1_556 S
C2280 C2299 1.429 . S
C2280 H2304 0.950 . S
C2281 C2298 1.574 . S
C2281 C2300 1.368 . S
C2281 H2305 0.949 . S
H2282 C2286 0.949 . S
C2283 C2284 1.349 . S
C2283 C2285 1.327 . S
C2283 H2306 0.950 . S
C2284 C2283 1.349 . S
C2284 C2296 1.349 . S
C2285 C2283 1.327 . S
C2285 C2301 1.429 . S
C2285 H2307 0.950 . S
C2286 H2282 0.949 . S
C2286 C2294 1.574 . S
C2286 C2302 1.368 . S
H2287 C2295 0.950 . S
H2288 C2293 0.950 . S
H2289 C2294 0.949 . S
H2290 C2296 0.950 . S
H2291 C2297 0.950 . S
H2292 C2298 0.949 . S
C2293 H2288 0.950 . S
C2293 C2295 1.327 1_556 S
C2293 C2299 1.429 . S
C2294 C2286 1.574 . S
C2294 H2289 0.949 . S
C2294 C2300 1.368 . S
C2295 C2279 1.349 . S
C2295 H2287 0.950 . S
C2295 C2293 1.327 1_554 S
C2296 C2284 1.349 . S
C2296 H2290 0.950 . S
C2296 C2297 1.327 . S
C2297 H2291 0.950 . S
C2297 C2296 1.327 . S
C2297 C2301 1.429 . S
C2298 C2281 1.574 . S
C2298 H2292 0.949 . S
C2298 C2302 1.368 . S
C2299 C2280 1.429 . S
C2299 C2293 1.429 . S
C2299 C2300 1.523 . S
C2300 C2281 1.368 . S
C2300 C2294 1.368 . S
C2300 C2299 1.523 . S
C2301 C2285 1.429 . S
C2301 C2297 1.429 . S
C2301 C2302 1.523 . S
C2302 C2286 1.368 . S
C2302 C2298 1.368 . S
C2302 C2301 1.523 . S
H2303 C2278 0.960 . S
H2304 C2280 0.950 . S
H2305 C2281 0.949 . S
H2306 C2283 0.950 . S
H2307 C2285 0.950 . S
C2308 C2309 1.349 . S
C2308 C2310 1.327 . S
C2308 H2333 0.950 . S
C2309 C2308 1.349 . S
C2309 C2325 1.349 . S
C2310 C2308 1.327 . S
C2310 C2329 1.429 . S
C2310 H2334 0.950 . S
C2311 C2328 1.574 . S
C2311 C2330 1.368 . S
C2311 H2335 0.949 . S
H2312 C2316 0.949 . S
C2313 C2314 1.349 . S
C2313 C2315 1.327 . S
C2313 H2336 0.950 . S
C2314 C2313 1.349 . S
C2314 C2326 1.349 . S
C2315 C2313 1.327 . S
C2315 C2331 1.429 . S
C2315 H2337 0.950 . S
C2316 H2312 0.949 . S
C2316 C2324 1.574 . S
C2316 C2332 1.368 . S
H2317 C2325 0.950 . S
H2318 C2323 0.950 . S
H2319 C2324 0.949 . S
H2320 C2326 0.950 . S
H2321 C2327 0.950 . S
H2322 C2328 0.949 . S
C2323 H2318 0.950 . S
C2323 C2325 1.327 . S
C2323 C2329 1.429 . S
C2324 C2316 1.574 . S
C2324 H2319 0.949 . S
C2324 C2330 1.368 . S
C2325 C2309 1.349 . S
C2325 H2317 0.950 . S
C2325 C2323 1.327 . S
C2326 C2314 1.349 . S
C2326 H2320 0.950 . S
C2326 C2327 1.327 . S
C2327 H2321 0.950 . S
C2327 C2326 1.327 . S
C2327 C2331 1.429 . S
C2328 C2311 1.574 . S
C2328 H2322 0.949 . S
C2328 C2332 1.368 . S
C2329 C2310 1.429 . S
C2329 C2323 1.429 . S
C2329 C2330 1.523 . S
C2330 C2311 1.368 . S
C2330 C2324 1.368 . S
C2330 C2329 1.523 . S
C2331 C2315 1.429 . S
C2331 C2327 1.429 . S
C2331 C2332 1.523 . S
C2332 C2316 1.368 . S
C2332 C2328 1.368 . S
C2332 C2331 1.523 . S
H2333 C2308 0.950 . S
H2334 C2310 0.950 . S
H2335 C2311 0.949 . S
H2336 C2313 0.950 . S
H2337 C2315 0.950 . S
C2338 C2339 1.349 . S
C2338 C2340 1.327 . S
C2338 H2363 0.950 . S
C2339 C2338 1.349 . S
C2339 C2355 1.349 . S
C2340 C2338 1.327 . S
C2340 C2359 1.429 . S
C2340 H2364 0.950 . S
C2341 C2358 1.574 . S
C2341 C2360 1.368 . S
C2341 H2365 0.949 . S
H2342 C2346 0.949 . S
C2343 C2344 1.349 . S
C2343 C2345 1.327 . S
C2343 H2366 0.950 . S
C2344 C2343 1.349 . S
C2344 C2356 1.349 . S
C2345 C2343 1.327 . S
C2345 C2361 1.429 . S
C2345 H2367 0.950 . S
C2346 H2342 0.949 . S
C2346 C2354 1.574 . S
C2346 C2362 1.368 . S
H2347 C2355 0.950 . S
H2348 C2353 0.950 . S
H2349 C2354 0.949 . S
H2350 C2356 0.950 . S
H2351 C2357 0.950 . S
H2352 C2358 0.949 . S
C2353 H2348 0.950 . S
C2353 C2355 1.327 . S
C2353 C2359 1.429 . S
C2354 C2346 1.574 . S
C2354 H2349 0.949 . S
C2354 C2360 1.368 . S
C2355 C2339 1.349 . S
C2355 H2347 0.950 . S
C2355 C2353 1.327 . S
C2356 C2344 1.349 . S
C2356 H2350 0.950 . S
C2356 C2357 1.327 . S
C2357 H2351 0.950 . S
C2357 C2356 1.327 . S
C2357 C2361 1.429 . S
C2358 C2341 1.574 . S
C2358 H2352 0.949 . S
C2358 C2362 1.368 . S
C2359 C2340 1.429 . S
C2359 C2353 1.429 . S
C2359 C2360 1.523 . S
C2360 C2341 1.368 . S
C2360 C2354 1.368 . S
C2360 C2359 1.523 . S
C2361 C2345 1.429 . S
C2361 C2357 1.429 . S
C2361 C2362 1.523 . S
C2362 C2346 1.368 . S
C2362 C2358 1.368 . S
C2362 C2361 1.523 . S
H2363 C2338 0.950 . S
H2364 C2340 0.950 . S
H2365 C2341 0.949 . S
H2366 C2343 0.950 . S
H2367 C2345 0.950 . S
C449 C89 1.485 . S
C454 C5 1.485 . S
C479 C19 1.485 . S
C484 C103 1.485 . S
C509 C61 1.485 . S
C514 C33 1.485 . S
C539 C47 1.485 . S
C544 C75 1.485 . S
C569 C117 1.485 . S
C574 C201 1.485 . S
C599 C215 1.485 . S
C604 C131 1.485 . S
C629 C145 1.485 . S
C634 C173 1.485 . S
C659 C187 1.485 . S
C664 C159 1.485 . S
C689 C229 1.485 . S
C694 C313 1.485 . S
C719 C243 1.485 . S
C724 C327 1.485 . S
C749 C285 1.485 . S
C754 C257 1.485 . S
C779 C299 1.485 . S
C784 C271 1.485 . S
C809 C341 1.485 . S
C814 C425 1.485 . S
C839 C355 1.485 . S
C844 C439 1.485 . S
C869 C397 1.485 . S
C874 C369 1.485 . S
C899 C383 1.485 . S
C904 C411 1.485 . S
C929 C11 1.470 . S
C934 C109 1.470 . S
C959 C67 1.470 . S
C964 C25 1.470 . S
C989 C81 1.470 . S
C994 C39 1.470 . S
C1019 C53 1.470 . S
C1024 C95 1.470 . S
C1049 C123 1.470 . S
C1054 C221 1.470 . S
C1079 C179 1.470 . S
C1084 C137 1.470 . S
C1109 C193 1.470 . S
C1114 C151 1.470 . S
C1139 C207 1.470 . S
C1144 C165 1.470 . S
C1169 C235 1.470 . S
C1174 C333 1.470 . S
C1199 C249 1.470 . S
C1204 C291 1.470 . S
C1229 C305 1.470 . S
C1234 C263 1.470 . S
C1259 C277 1.470 . S
C1264 C319 1.470 . S
C1289 C347 1.470 . S
C1294 C445 1.470 . S
C1319 C403 1.470 . S
C1324 C361 1.470 . S
C1349 C375 1.470 . S
C1354 C417 1.470 . S
C1379 C389 1.470 . S
C1384 C431 1.470 . S
C1409 C420 1.473 . S
C1414 C0 1.473 . S
C1439 C210 1.473 . S
C1444 C14 1.473 . S
C1469 C28 1.473 . S
C1474 C392 1.473 . S
C1499 C42 1.473 . S
C1504 C182 1.473 . S
C1529 C56 1.473 . S
C1534 C364 1.473 . S
C1559 C70 1.473 . S
C1564 C154 1.473 . S
C1589 C84 1.473 . S
C1594 C336 1.473 . S
C1619 C126 1.473 . S
C1624 C98 1.473 . S
C1649 C308 1.473 . S
C1654 C112 1.473 . S
C1679 C140 1.473 . S
C1684 C280 1.473 . S
C1709 C252 1.473 . S
C1714 C168 1.473 . S
C1739 C224 1.473 . S
C1744 C196 1.473 . S
C1769 C238 1.473 . S
C1774 C434 1.473 . S
C1799 C266 1.473 . S
C1804 C406 1.473 . S
C1829 C294 1.473 . S
C1834 C378 1.473 . S
C1859 C350 1.473 . S
C1864 C322 1.473 . S
C1889 C9 1.452 . S
C1894 C107 1.452 . S
C1919 C23 1.452 . S
C1924 C65 1.452 . S
C1949 C79 1.452 . S
C1954 C37 1.452 . S
C1979 C51 1.452 . S
C1984 C93 1.452 . S
C2009 C219 1.452 . S
C2014 C121 1.452 . S
C2039 C177 1.452 . S
C2044 C135 1.452 . S
C2069 C149 1.452 . S
C2074 C191 1.452 . S
C2099 C205 1.452 . S
C2104 C163 1.452 . S
C2129 C331 1.452 . S
C2134 C233 1.452 . S
C2159 C289 1.452 . S
C2164 C247 1.452 . S
C2189 C303 1.452 . S
C2194 C261 1.452 . S
C2219 C317 1.452 . S
C2224 C275 1.452 . S
C2249 C345 1.452 . S
C2254 C443 1.452 . S
C2279 C359 1.452 . S
C2284 C401 1.452 . S
C2309 C373 1.452 . S
C2314 C415 1.452 . S
C2339 C429 1.452 . S
C2344 C387 1.452 . S
