# Generated by pormake.
# Topology smu, (6)-cn, num edge types: 1
# Building blocks:
#     Node 0, Type 0, BuildingBlock: INOVEN_clean_sbu_0, # of connection points: 6
#     Node 1, Type 0, BuildingBlock: INOVEN_clean_sbu_0, # of connection points: 6
#     Node 2, Type 0, BuildingBlock: INOVEN_clean_sbu_0, # of connection points: 6
#     Node 3, Type 0, BuildingBlock: INOVEN_clean_sbu_0, # of connection points: 6
#     Node 4, Type 0, BuildingBlock: INOVEN_clean_sbu_0, # of connection points: 6
#     Node 5, Type 0, BuildingBlock: INOVEN_clean_sbu_0, # of connection points: 6
#     Edge 6, Type (0, 0), BuildingBlock: TEMPAE_clean_linker_10, # of connection points: 2
#     Edge 7, Type (0, 0), BuildingBlock: TEMPAE_clean_linker_10, # of connection points: 2
#     Edge 8, Type (0, 0), BuildingBlock: TEMPAE_clean_linker_10, # of connection points: 2
#     Edge 9, Type (0, 0), BuildingBlock: TEMPAE_clean_linker_10, # of connection points: 2
#     Edge 10, Type (0, 0), BuildingBlock: TEMPAE_clean_linker_10, # of connection points: 2
#     Edge 11, Type (0, 0), BuildingBlock: TEMPAE_clean_linker_10, # of connection points: 2
#     Edge 12, Type (0, 0), BuildingBlock: TEMPAE_clean_linker_10, # of connection points: 2
#     Edge 13, Type (0, 0), BuildingBlock: TEMPAE_clean_linker_10, # of connection points: 2
#     Edge 14, Type (0, 0), BuildingBlock: TEMPAE_clean_linker_10, # of connection points: 2
#     Edge 15, Type (0, 0), BuildingBlock: TEMPAE_clean_linker_10, # of connection points: 2
#     Edge 16, Type (0, 0), BuildingBlock: TEMPAE_clean_linker_10, # of connection points: 2
#     Edge 17, Type (0, 0), BuildingBlock: TEMPAE_clean_linker_10, # of connection points: 2
#     Edge 18, Type (0, 0), BuildingBlock: TEMPAE_clean_linker_10, # of connection points: 2
#     Edge 19, Type (0, 0), BuildingBlock: TEMPAE_clean_linker_10, # of connection points: 2
#     Edge 20, Type (0, 0), BuildingBlock: TEMPAE_clean_linker_10, # of connection points: 2
#     Edge 21, Type (0, 0), BuildingBlock: TEMPAE_clean_linker_10, # of connection points: 2
#     Edge 22, Type (0, 0), BuildingBlock: TEMPAE_clean_linker_10, # of connection points: 2
#     Edge 23, Type (0, 0), BuildingBlock: TEMPAE_clean_linker_10, # of connection points: 2
# Relax obj value: 0.216
# Max RMSD: 0.314
# Mean RMSD: 0.314
data_MOF--net-smu--node1-INOVEN_clean_sbu_0--edge1-TEMPAE_clean_linker_10
_symmetry_space_group_name_H-M    P1
_symmetry_Int_Tables_number       1
_symmetry_cell_setting            triclinic
loop_
_symmetry_equiv_pos_as_xyz
'x, y, z'
_cell_length_a     39.850431
_cell_length_b     39.672314
_cell_length_c     26.815592
_cell_angle_alpha  89.957141
_cell_angle_beta   90.083651
_cell_angle_gamma 119.91552
loop_
_atom_site_label
_atom_site_type_symbol
_atom_site_fract_x
_atom_site_fract_y
_atom_site_fract_z
_atom_type_partial_charge
Gd0 Gd 0.38437 0.09242 0.29523 0.0
Gd1 Gd 0.3251 0.11597 0.31391 0.0
C2 C 0.41124 0.18477 0.29645 0.0
C3 C 0.44475 0.08634 0.27127 0.0
C4 C 0.48754 0.11057 0.26483 0.0
C5 C 0.50902 0.14713 0.28788 0.0
C6 C 0.50778 0.09482 0.24055 0.0
C7 C 0.57032 0.15072 0.26456 0.0
C8 C 0.54848 0.11449 0.24042 0.0
C9 C 0.54979 0.16701 0.28753 0.0
C10 C 0.35525 0.07395 0.38865 0.0
C11 C 0.29546 0.02669 0.30139 0.0
C12 C 0.2829 0.1438 0.34925 0.0
C13 C 0.26514 0.16744 0.33416 0.0
C14 C 0.25163 0.16633 0.28539 0.0
C15 C 0.25914 0.18943 0.37031 0.0
C16 C 0.2243 0.20711 0.31016 0.0
C17 C 0.23903 0.20903 0.35853 0.0
C18 C 0.23142 0.18592 0.27354 0.0
C19 C 0.32327 0.09324 0.2179 0.0
O20 O 0.4218 0.15831 0.3032 0.0
O21 O 0.37441 0.17446 0.29328 0.0
O22 O 0.43204 0.08409 0.31659 0.0
O23 O 0.42179 0.0886 0.23811 0.0
O24 O 0.36378 0.05277 0.36064 0.0
O25 O 0.36296 0.10558 0.36632 0.0
O26 O 0.29238 0.0523 0.32958 0.0
O27 O 0.32794 0.03666 0.2762 0.0
O28 O 0.32052 0.16147 0.35387 0.0
O29 O 0.26878 0.10945 0.32908 0.0
O30 O 0.29416 0.09147 0.24152 0.0
O31 O 0.35384 0.11214 0.244 0.0
H32 H 0.49427 0.15979 0.30753 0.0
H33 H 0.49205 0.06643 0.22318 0.0
H34 H 0.56274 0.10042 0.22295 0.0
H35 H 0.56518 0.195 0.30587 0.0
H36 H 0.25596 0.14967 0.25671 0.0
H37 H 0.26907 0.19056 0.40823 0.0
H38 H 0.23376 0.22446 0.38797 0.0
H39 H 0.22102 0.18412 0.23577 0.0
Gd40 Gd 0.74144 0.65504 0.27299 0.0
Gd41 Gd 0.82724 0.7226 0.29236 0.0
C42 C 0.81099 0.63412 0.27991 0.0
C43 C 0.67934 0.59878 0.2325 0.0
C44 C 0.6525 0.5568 0.24256 0.0
C45 C 0.61973 0.53576 0.21237 0.0
C46 C 0.66013 0.53695 0.28036 0.0
C47 C 0.60277 0.47534 0.25688 0.0
C48 C 0.63553 0.49675 0.28753 0.0
C49 C 0.59519 0.49563 0.2194 0.0
C50 C 0.75244 0.67092 0.37369 0.0
C51 C 0.76072 0.74276 0.28846 0.0
C52 C 0.89609 0.7687 0.3271 0.0
C53 C 0.93728 0.78555 0.31224 0.0
C54 C 0.95136 0.80594 0.26712 0.0
C55 C 0.96357 0.7835 0.34529 0.0
C56 C 1.01762 0.82408 0.29012 0.0
C57 C 1.00323 0.80241 0.33434 0.0
C58 C 0.99106 0.82504 0.25628 0.0
C59 C 0.80217 0.72111 0.19786 0.0
O60 O 0.77315 0.62097 0.28115 0.0
O61 O 0.83661 0.67175 0.27972 0.0
O62 O 0.67874 0.62395 0.2636 0.0
O63 O 0.71453 0.6081 0.21932 0.0
O64 O 0.72085 0.64358 0.35388 0.0
O65 O 0.77684 0.68586 0.33882 0.0
O66 O 0.78982 0.74661 0.31621 0.0
O67 O 0.74039 0.71141 0.26015 0.0
O68 O 0.87665 0.73144 0.33719 0.0
O69 O 0.87547 0.78076 0.30298 0.0
O70 O 0.83035 0.7514 0.21898 0.0
O71 O 0.79273 0.69153 0.22536 0.0
H72 H 0.61324 0.55034 0.18289 0.0
H73 H 0.68542 0.55245 0.30393 0.0
H74 H 0.64269 0.4823 0.31642 0.0
H75 H 0.57005 0.48053 0.19552 0.0
H76 H 0.93186 0.80792 0.24065 0.0
H77 H 0.95354 0.76815 0.38039 0.0
H78 H 0.02281 0.80137 0.36154 0.0
H79 H 1.00105 0.84106 0.22163 0.0
Gd80 Gd 0.9525 0.30702 0.28106 0.0
Gd81 Gd 0.92118 0.22069 0.28729 0.0
C82 C 0.86129 0.25231 0.29096 0.0
C83 C 0.97687 0.37961 0.25965 0.0
C84 C 0.95837 0.40427 0.26205 0.0
C85 C 0.92662 0.39453 0.29358 0.0
C86 C 0.97199 0.43757 0.23204 0.0
C87 C 0.92284 0.45141 0.26551 0.0
C88 C 0.95448 0.4608 0.23367 0.0
C89 C 0.90921 0.41785 0.29544 0.0
C90 C 0.9416 0.28009 0.37778 0.0
C91 C 1.0122 0.27245 0.28951 0.0
C92 C 0.88196 0.14607 0.30271 0.0
C93 C 0.87264 0.10603 0.28835 0.0
C94 C 0.84268 0.08446 0.25402 0.0
C95 C 0.88909 0.08692 0.31418 0.0
C96 C 0.84425 0.02522 0.27392 0.0
C97 C 0.87523 0.04708 0.30686 0.0
C98 C 0.82873 0.04467 0.24688 0.0
C99 C 0.9482 0.25107 0.19546 0.0
O100 O 0.88836 0.28488 0.27073 0.0
O101 O 0.87068 0.22775 0.31062 0.0
O102 O 0.98372 0.36806 0.30217 0.0
O103 O 0.96306 0.35189 0.22631 0.0
O104 O 0.93295 0.30559 0.3612 0.0
O105 O 0.95312 0.26871 0.3412 0.0
O106 O 0.98241 0.23947 0.30519 0.0
O107 O 1.0076 0.30166 0.27253 0.0
O108 O 0.87094 0.16469 0.27262 0.0
O109 O 0.91453 0.16916 0.32577 0.0
O110 O 0.94901 0.22142 0.21417 0.0
O111 O 0.9291 0.2607 0.22422 0.0
H112 H 0.91517 0.36877 0.31675 0.0
H113 H 0.99631 0.44571 0.20728 0.0
H114 H 0.96616 0.48652 0.21043 0.0
H115 H 0.88464 0.40922 0.31989 0.0
H116 H 0.82885 0.09795 0.23393 0.0
H117 H 0.91165 0.10236 0.34159 0.0
H118 H 0.88764 0.03304 0.32874 0.0
H119 H 0.80522 0.02894 0.22077 0.0
Gd120 Gd 0.12606 0.32366 0.78751 0.0
Gd121 Gd 0.09293 0.37663 0.78132 0.0
C122 C 0.03509 0.2823 0.78924 0.0
C123 C 0.1666 0.28969 0.80252 0.0
C124 C 0.1756 0.25895 0.78744 0.0
C125 C 0.20668 0.2681 0.75487 0.0
C126 C 0.15735 0.22227 0.81064 0.0
C127 C 0.20253 0.20563 0.77129 0.0
C128 C 0.17053 0.19587 0.80247 0.0
C129 C 0.2199 0.2418 0.74684 0.0
C130 C 0.09862 0.32608 0.69553 0.0
C131 C 0.18405 0.41499 0.78903 0.0
C132 C 0.06732 0.42405 0.7624 0.0
C133 C 0.08582 0.46736 0.76411 0.0
C134 C 0.06901 0.48483 0.79256 0.0
C135 C 0.12085 0.4917 0.73918 0.0
C136 C 0.12181 0.54996 0.77138 0.0
C137 C 0.13847 0.53239 0.74258 0.0
C138 C 0.08677 0.5255 0.79627 0.0
C139 C 0.10503 0.36145 0.87805 0.0
O140 O 0.06528 0.28006 0.80531 0.0
O141 O 0.03881 0.31569 0.77217 0.0
O142 O 0.17684 0.31906 0.77218 0.0
O143 O 0.13435 0.28003 0.82636 0.0
O144 O 0.09836 0.29597 0.71447 0.0
O145 O 0.11722 0.35505 0.72421 0.0
O146 O 0.15647 0.41885 0.76736 0.0
O147 O 0.17533 0.38204 0.8111 0.0
O148 O 0.06226 0.40644 0.8052 0.0
O149 O 0.07896 0.40902 0.72776 0.0
O150 O 0.11367 0.39549 0.86109 0.0
O151 O 0.09327 0.33833 0.84166 0.0
H152 H 0.22184 0.29626 0.73687 0.0
H153 H 0.13383 0.21448 0.83664 0.0
H154 H 0.1567 0.16848 0.82241 0.0
H155 H 0.24429 0.25014 0.72214 0.0
H156 H 0.04213 0.46693 0.81227 0.0
H157 H 0.13494 0.47935 0.71736 0.0
H158 H 0.16561 0.55012 0.72334 0.0
H159 H 0.07277 0.53782 0.81831 0.0
Gd160 Gd 0.21846 0.91456 0.81322 0.0
Gd161 Gd 0.3001 0.93466 0.79387 0.0
C162 C 0.2795 1.0027 0.79839 0.0
C163 C 0.14926 0.88864 0.84974 0.0
C164 C 0.10761 0.86338 0.83729 0.0
C165 C 0.09255 0.86462 0.79028 0.0
C166 C 0.08188 0.83984 0.87459 0.0
C167 C 0.0264 0.8213 0.81946 0.0
C168 C 0.04184 0.81904 0.86583 0.0
C169 C 0.05245 0.84382 0.78148 0.0
C170 C 0.23899 0.93544 0.7166 0.0
C171 C 0.23274 0.84353 0.79648 0.0
C172 C 0.36495 0.93759 0.76917 0.0
C173 C 0.38225 0.91198 0.7642 0.0
C174 C 0.36888 0.87783 0.79266 0.0
C175 C 0.41566 0.92433 0.73515 0.0
C176 C 0.42359 0.87035 0.76545 0.0
C177 C 0.43601 0.90384 0.73568 0.0
C178 C 0.38924 0.85729 0.79324 0.0
C179 C 0.29109 0.95512 0.88674 0.0
O180 O 0.25104 0.97845 0.82771 0.0
O181 O 0.30078 0.99105 0.77327 0.0
O182 O 0.16995 0.87197 0.85793 0.0
O183 O 0.16836 0.92126 0.82525 0.0
O184 O 0.21276 0.93917 0.74029 0.0
O185 O 0.2499 0.91605 0.74328 0.0
O186 O 0.26979 0.86882 0.80434 0.0
O187 O 0.20745 0.85544 0.79179 0.0
O188 O 0.35595 0.94231 0.81432 0.0
O189 O 0.33933 0.93479 0.73636 0.0
O190 O 0.3206 0.97528 0.8582 0.0
O191 O 0.26644 0.92348 0.86524 0.0
H192 H 0.11166 0.88254 0.76075 0.0
H193 H 0.09269 0.83834 0.91114 0.0
H194 H 0.02292 0.80157 0.89575 0.0
H195 H 0.0418 0.84666 0.74545 0.0
H196 H 0.34332 0.86767 0.81568 0.0
H197 H 0.42693 0.95078 0.71337 0.0
H198 H 0.46246 0.91529 0.71422 0.0
H199 H 0.37827 0.83139 0.81605 0.0
Gd200 Gd 0.71209 0.80795 0.78994 0.0
Gd201 Gd 0.65809 0.72274 0.7741 0.0
C202 C 0.75022 0.75493 0.78018 0.0
C203 C 0.74767 0.88046 0.8167 0.0
C204 C 0.78026 0.92059 0.81046 0.0
C205 C 0.79726 0.93512 0.76367 0.0
C206 C 0.79015 0.94646 0.85064 0.0
C207 C 0.83113 1.00136 0.79675 0.0
C208 C 0.81524 0.98634 0.84391 0.0
C209 C 0.82264 0.97513 0.75695 0.0
C210 C 0.71404 0.78411 0.69517 0.0
C211 C 0.62047 0.77834 0.78987 0.0
C212 C 0.60077 0.65544 0.74753 0.0
C213 C 0.55763 0.63706 0.7476 0.0
C214 C 0.53772 0.63859 0.79012 0.0
C215 C 0.53572 0.61591 0.70609 0.0
C216 C 0.47487 0.59635 0.75065 0.0
C217 C 0.49498 0.596 0.70746 0.0
C218 C 0.4971 0.61843 0.79172 0.0
C219 C 0.68806 0.73854 0.86665 0.0
O220 O 0.75248 0.7854 0.80332 0.0
O221 O 0.71734 0.72801 0.75871 0.0
O222 O 0.72283 0.86628 0.78001 0.0
O223 O 0.75304 0.85424 0.83947 0.0
O224 O 0.74349 0.8115 0.71847 0.0
O225 O 0.68396 0.77239 0.72191 0.0
O226 O 0.61389 0.74232 0.7871 0.0
O227 O 0.65595 0.80787 0.7906 0.0
O228 O 0.61742 0.66261 0.79121 0.0
O229 O 0.6205 0.68345 0.71555 0.0
O230 O 0.68142 0.70839 0.84056 0.0
O231 O 0.67697 0.75961 0.84348 0.0
H232 H 0.78974 0.9158 0.73192 0.0
H233 H 0.77714 0.936 0.88693 0.0
H234 H 0.82174 1.00556 0.87559 0.0
H235 H 0.83434 0.98569 0.72015 0.0
H236 H 0.55354 0.65471 0.82284 0.0
H237 H 0.55014 0.61428 0.67272 0.0
H238 H 0.4793 0.58021 0.67453 0.0
H239 H 0.48327 0.6193 0.82601 0.0
C240 C 0.30476 1.01136 0.94053 0.0
C241 C 0.28831 0.97088 0.93615 0.0
C242 C 0.30866 0.02954 0.98681 0.0
C243 C 0.29766 1.00708 1.03106 0.0
C244 C 0.28068 0.96595 1.0271 0.0
C245 C 0.27555 0.94824 0.97957 0.0
C246 C 0.32519 0.07306 0.9882 0.0
C247 C 0.26838 0.94057 0.07294 0.0
C248 C 0.3474 0.06654 0.14892 0.0
C249 C 0.31819 0.07191 0.16986 0.0
C250 C 0.3406 0.04403 0.10516 0.0
C251 C 0.30401 0.02722 0.08081 0.0
C252 C 0.27453 0.03268 0.10195 0.0
C253 C 0.28184 0.05445 0.14612 0.0
C254 C 0.3726 0.03814 0.08493 0.0
C255 C 0.23533 0.01611 0.07739 0.0
H256 H 0.31538 0.02921 0.90733 0.0
H257 H 0.26346 0.91704 0.97671 0.0
H258 H 0.30564 0.08024 1.00932 0.0
H259 H 0.35351 0.08707 1.00774 0.0
H260 H 0.32944 0.08587 0.95028 0.0
H261 H 0.26504 0.91154 0.06521 0.0
H262 H 0.28952 0.95445 0.10377 0.0
H263 H 0.24005 0.93616 0.08583 0.0
H264 H 0.3754 0.07958 0.16688 0.0
H265 H 0.25881 0.05805 0.16199 0.0
H266 H 0.38221 0.05273 0.04822 0.0
H267 H 0.36175 1.00667 0.07898 0.0
H268 H 0.39802 0.04991 0.11033 0.0
H269 H 0.23868 0.02689 0.03848 0.0
H270 H 0.21585 0.02391 0.09763 0.0
H271 H 0.22123 0.98398 0.0757 0.0
C272 C 0.69174 0.75193 0.61046 0.0
C273 C 0.71846 0.76473 0.64983 0.0
C274 C 0.69873 0.73724 0.56587 0.0
C275 C 0.73219 0.73326 0.5615 0.0
C276 C 0.75829 0.7447 0.60224 0.0
C277 C 0.75177 0.76139 0.64481 0.0
C278 C 0.67091 0.72712 0.52283 0.0
C279 C 0.79319 0.73927 0.60115 0.0
C280 C 0.72851 0.66222 0.46166 0.0
C281 C 0.75313 0.68717 0.42438 0.0
C282 C 0.7227 0.67666 0.50698 0.0
C283 C 0.74013 0.71736 0.51455 0.0
C284 C 0.76553 0.74275 0.47734 0.0
C285 C 0.77269 0.72736 0.43367 0.0
C286 C 0.69742 0.64824 0.54651 0.0
C287 C 0.7837 0.78629 0.48243 0.0
H288 H 0.66626 0.75497 0.61365 0.0
H289 H 0.77282 0.77154 0.67467 0.0
H290 H 0.68682 0.74337 0.48902 0.0
H291 H 0.65736 0.69571 0.51406 0.0
H292 H 0.64762 0.73397 0.53084 0.0
H293 H 0.80802 0.74536 0.63791 0.0
H294 H 0.78446 0.70904 0.59003 0.0
H295 H 0.81427 0.75898 0.5731 0.0
H296 H 0.71327 0.6311 0.45507 0.0
H297 H 0.79214 0.74711 0.40594 0.0
H298 H 0.67028 0.6493 0.55044 0.0
H299 H 0.71238 0.65622 0.58317 0.0
H300 H 0.68975 0.61789 0.53749 0.0
H301 H 0.76062 0.79406 0.48598 0.0
H302 H 0.80219 0.80213 0.44997 0.0
H303 H 0.80157 0.79653 0.51672 0.0
C304 C 1.00847 0.27303 0.14571 0.0
C305 C 0.97411 0.27405 0.15332 0.0
C306 C 0.03245 0.29093 0.1042 0.0
C307 C 1.0214 0.30946 0.06779 0.0
C308 C 0.98712 0.31146 0.07583 0.0
C309 C 0.9642 0.29427 0.11888 0.0
C310 C 0.06917 0.28902 0.0987 0.0
C311 C 0.97361 0.33005 0.0377 0.0
C312 C 0.09502 0.37441 0.96806 0.0
C313 C 0.08668 0.3482 0.92846 0.0
C314 C 0.07443 0.36235 1.01369 0.0
C315 C 0.04388 0.32337 1.01962 0.0
C316 C 0.03554 0.29688 0.97974 0.0
C317 C 0.05729 0.30938 0.93537 0.0
C318 C 0.08529 0.39136 0.05553 0.0
C319 C 1.00308 0.25523 0.98356 0.0
H320 H 1.01657 0.25771 0.17228 0.0
H321 H 0.93763 0.29502 0.12429 0.0
H322 H 0.06727 0.2718 0.06517 0.0
H323 H 0.09425 0.31869 0.09341 0.0
H324 H 0.07483 0.27557 0.13163 0.0
H325 H 0.94794 0.3316 0.05063 0.0
H326 H 0.99718 0.35986 1.02883 0.0
H327 H 0.96597 0.313 1.00258 0.0
H328 H 0.11747 0.40446 0.96324 0.0
H329 H 0.05025 0.28878 0.90525 0.0
H330 H 0.0922 0.38014 0.08965 0.0
H331 H 0.06044 0.3955 0.06462 0.0
H332 H 0.11059 0.42006 0.04598 0.0
H333 H 1.00932 0.24012 1.01389 0.0
H334 H 0.99874 0.2388 0.94837 0.0
H335 H 0.9756 0.25443 0.99313 0.0
C336 C 0.34508 0.08072 0.48102 0.0
C337 C 0.33513 0.05845 0.43727 0.0
C338 C 0.33088 0.06287 0.52809 0.0
C339 C 0.30489 0.02198 0.53124 0.0
C340 C 0.29328 1.00007 0.48654 0.0
C341 C 0.30931 0.01827 0.44081 0.0
C342 C 0.34435 0.08827 0.5739 0.0
C343 C 0.26422 0.95705 0.48686 0.0
C344 C 0.28991 0.95959 0.64802 0.0
C345 C 0.25625 0.95661 0.66872 0.0
C346 C 0.30702 0.98216 0.60473 0.0
C347 C 0.28954 1.00145 0.58046 0.0
C348 C 0.25558 0.9985 0.60136 0.0
C349 C 0.23958 0.97643 0.64502 0.0
C350 C 0.34408 0.98569 0.58511 0.0
C351 C 0.23573 0.01824 0.57714 0.0
H352 H 0.36551 0.11164 0.47891 0.0
H353 H 0.30199 1.00063 0.4074 0.0
H354 H 0.32789 0.10395 0.57689 0.0
H355 H 0.34026 0.0716 0.60878 0.0
H356 H 0.37545 0.11059 0.57048 0.0
H357 H 0.25556 0.94499 0.44861 0.0
H358 H 0.27667 0.94108 0.50624 0.0
H359 H 0.23785 0.95147 0.50757 0.0
H360 H 0.30309 0.94463 0.66582 0.0
H361 H 0.21373 0.97474 0.66071 0.0
H362 H 0.3661 0.01683 0.5801 0.0
H363 H 0.33886 0.97154 0.54804 0.0
H364 H 0.35601 0.97206 0.61044 0.0
H365 H 0.2564 0.04983 0.57318 0.0
H366 H 0.2103 1.01435 0.59883 0.0
H367 H 0.22596 1.0063 0.5391 0.0
C368 C 0.69356 0.75371 0.95941 0.0
C369 C 0.7076 0.74523 0.91607 0.0
C370 C 0.70713 0.75052 1.0072 0.0
C371 C 0.73548 0.73882 1.01165 0.0
C372 C 0.7508 0.73205 0.96761 0.0
C373 C 0.73654 0.73506 0.92085 0.0
C374 C 0.69013 0.75826 0.05302 0.0
C375 C 0.78161 0.72048 0.96972 0.0
C376 C 0.79919 0.76062 0.12725 0.0
C377 C 0.78345 0.72417 0.1509 0.0
C378 C 0.78304 0.76602 0.08337 0.0
C379 C 0.75002 0.7342 0.06178 0.0
C380 C 0.73335 0.69738 0.08597 0.0
C381 C 0.75027 0.69277 0.13015 0.0
C382 C 0.80216 0.80574 0.05934 0.0
C383 C 0.69798 0.66265 0.06467 0.0
H384 H 0.67062 0.76073 0.95618 0.0
H385 H 0.74734 0.72812 0.88758 0.0
H386 H 0.67445 0.73119 0.07528 0.0
H387 H 0.71351 0.78022 0.07701 0.0
H388 H 0.66975 0.76876 0.04355 0.0
H389 H 0.79136 0.71742 0.93203 0.0
H390 H 0.80712 0.7425 0.99085 0.0
H391 H 0.77031 0.69239 0.98968 0.0
H392 H 0.82463 0.78532 0.143 0.0
H393 H 0.73761 0.66467 0.14825 0.0
H394 H 0.78052 0.81497 0.05205 0.0
H395 H 0.81461 0.80454 1.02285 0.0
H396 H 0.82568 0.82819 0.08282 0.0
H397 H 0.67484 0.66991 0.05787 0.0
H398 H 0.68655 0.63697 0.08974 0.0
H399 H 0.70524 0.65474 1.02819 0.0
C400 C 0.99099 0.27768 0.4339 0.0
C401 C 0.96022 0.28516 0.42803 0.0
C402 C 1.01273 0.28683 0.47832 0.0
C403 C 1.00295 0.30276 0.51934 0.0
C404 C 0.9711 0.30928 0.5144 0.0
C405 C 0.95058 0.30103 0.46867 0.0
C406 C 0.04664 0.27982 0.48104 0.0
C407 C 0.95873 0.325 0.55745 0.0
C408 C 0.03959 0.28653 0.64377 0.0
C409 C 0.07278 0.32268 0.65301 0.0
C410 C 1.01554 0.28047 0.60228 0.0
C411 C 0.02532 0.31093 0.56759 0.0
C412 C 0.05842 0.34789 0.57725 0.0
C413 C 0.0814 0.3535 0.62025 0.0
C414 C 0.98006 0.24099 0.59502 0.0
C415 C 0.07064 0.38099 0.5409 0.0
H416 H 0.99911 0.26577 0.40297 0.0
H417 H 0.92706 0.30713 0.46464 0.0
H418 H 0.07316 0.30685 0.49257 0.0
H419 H 0.04102 0.25735 0.50956 0.0
H420 H 0.05237 0.27005 0.44487 0.0
H421 H 0.93269 0.32723 0.54844 0.0
H422 H 0.95235 0.30591 0.5905 0.0
H423 H 0.98261 0.35424 0.56799 0.0
H424 H 0.03241 0.26256 0.6691 0.0
H425 H 0.10701 0.38145 0.62698 0.0
H426 H 0.98277 0.22752 0.56015 0.0
H427 H 0.954 0.24409 0.59119 0.0
H428 H 0.97551 0.22094 0.6265 0.0
H429 H 0.07912 0.37338 0.50507 0.0
H430 H 0.09543 0.40849 0.55503 0.0
H431 H 0.04612 0.38593 0.53289 0.0
C432 C 0.63572 0.16751 0.22797 0.0
C433 C 0.61399 0.17032 0.26747 0.0
C434 C 0.67622 0.18339 0.23153 0.0
C435 C 0.69615 0.20308 0.27553 0.0
C436 C 0.67469 0.20711 0.31494 0.0
C437 C 0.63414 0.19067 0.31056 0.0
C438 C 0.69759 0.1782 0.18849 0.0
C439 C 0.69444 0.2279 0.3625 0.0
C440 C 0.79075 0.20435 0.306 0.0
C441 C 0.81935 0.24141 0.2897 0.0
C442 C 0.75096 0.19189 0.30204 0.0
C443 C 0.73881 0.21701 0.28153 0.0
C444 C 0.76747 0.25482 0.26598 0.0
C445 C 0.80725 0.26647 0.27001 0.0
C446 C 0.72181 0.15133 0.31897 0.0
C447 C 0.75608 0.28282 0.2444 0.0
H448 H 0.62104 0.15268 0.19402 0.0
H449 H 0.6181 0.19282 0.34178 0.0
H450 H 0.72171 0.20682 0.17639 0.0
H451 H 0.71051 0.16039 0.20058 0.0
H452 H 0.6784 0.16375 0.156 0.0
H453 H 0.67448 0.23149 0.38797 0.0
H454 H 0.70598 0.21126 0.3823 0.0
H455 H 0.71939 0.25703 0.35393 0.0
H456 H 0.79938 0.18447 0.32112 0.0
H457 H 0.82885 0.29512 0.25723 0.0
H458 H 0.70343 0.13436 0.28701 0.0
H459 H 0.70237 0.15261 0.34755 0.0
H460 H 0.73579 0.13552 0.3349 0.0
H461 H 0.73961 0.27076 0.20932 0.0
H462 H 0.7816 0.31174 0.23633 0.0
H463 H 0.73678 0.2867 0.27066 0.0
C464 C 0.56099 0.40747 0.22203 0.0
C465 C 0.57672 0.43214 0.26358 0.0
C466 C 0.53572 0.36711 0.22757 0.0
C467 C 0.52557 0.3505 0.27589 0.0
C468 C 0.54178 0.37506 0.318 0.0
C469 C 0.56708 0.41536 0.31138 0.0
C470 C 0.51946 0.34226 0.18152 0.0
C471 C 0.53176 0.35888 0.37022 0.0
C472 C 0.42937 0.25526 0.28974 0.0
C473 C 0.44098 0.22712 0.29215 0.0
C474 C 0.45648 0.2952 0.28497 0.0
C475 C 0.49657 0.30788 0.28227 0.0
C476 C 0.5086 0.27972 0.2849 0.0
C477 C 0.48078 0.23984 0.28988 0.0
C478 C 0.44209 0.3239 0.28252 0.0
C479 C 0.55092 0.29169 0.28205 0.0
H480 H 0.56862 0.41971 0.18487 0.0
H481 H 0.57858 0.43391 0.34386 0.0
H482 H 0.52602 0.31818 0.1821 0.0
H483 H 0.48748 0.32891 0.18098 0.0
H484 H 0.53127 0.35919 0.14661 0.0
H485 H 0.54806 0.38131 0.39904 0.0
H486 H 0.50032 0.34668 0.37684 0.0
H487 H 0.53802 0.33476 0.37484 0.0
H488 H 0.39884 0.24612 0.29158 0.0
H489 H 0.49028 0.21862 0.29153 0.0
H490 H 0.45075 0.33985 0.24657 0.0
H491 H 0.4555 0.34575 0.31272 0.0
H492 H 0.4101 0.30957 0.28606 0.0
H493 H 0.5632 0.30664 0.24612 0.0
H494 H 0.55572 0.26648 0.28528 0.0
H495 H 0.56719 0.31267 0.31226 0.0
C496 C 0.89864 0.4928 0.22403 0.0
C497 C 0.90437 0.47657 0.26764 0.0
C498 C 0.88201 0.51698 0.22558 0.0
C499 C 0.87085 0.52564 0.27191 0.0
C500 C 0.87621 0.50909 0.31601 0.0
C501 C 0.8927 0.48481 0.31335 0.0
C502 C 0.87666 0.53356 0.17751 0.0
C503 C 0.86518 0.51764 0.3663 0.0
C504 C 0.86579 0.61941 0.28146 0.0
C505 C 0.8258 0.60591 0.27834 0.0
C506 C 0.88061 0.59373 0.2797 0.0
C507 C 0.85507 0.55319 0.2744 0.0
C508 C 0.81466 0.53926 0.27129 0.0
C509 C 0.80055 0.56565 0.27343 0.0
C510 C 0.92381 0.61012 0.28348 0.0
C511 C 0.78628 0.49641 0.26542 0.0
H512 H 0.9069 0.48632 0.18837 0.0
H513 H 0.89728 0.47296 0.34743 0.0
H514 H 0.84589 0.52563 0.17311 0.0
H515 H 0.89406 0.56577 0.17849 0.0
H516 H 0.88545 0.52303 0.14437 0.0
H517 H 0.86994 0.5016 0.39693 0.0
H518 H 0.8825 0.54926 0.37418 0.0
H519 H 0.83427 0.50973 0.36625 0.0
H520 H 0.8858 0.6503 0.28544 0.0
H521 H 0.76966 0.55466 0.27089 0.0
H522 H 0.93458 0.60274 0.24942 0.0
H523 H 0.93057 0.59686 0.3156 0.0
H524 H 0.93983 0.64222 0.28815 0.0
H525 H 0.79281 0.48539 0.23089 0.0
H526 H 0.75582 0.49007 0.26363 0.0
H527 H 0.78917 0.48006 0.29713 0.0
C528 C 0.15718 0.6174 0.73348 0.0
C529 C 0.14081 0.5935 0.77548 0.0
C530 C 0.17405 0.6582 0.73655 0.0
C531 C 0.17502 0.67596 0.78285 0.0
C532 C 0.15928 0.65207 0.82558 0.0
C533 C 0.14231 0.61133 0.82136 0.0
C534 C 0.19003 0.68227 0.68987 0.0
C535 C 0.15989 0.66953 0.87579 0.0
C536 C 0.24373 0.78579 0.79945 0.0
C537 C 0.21866 0.80079 0.7928 0.0
C538 C 0.2301 0.74541 0.79629 0.0
C539 C 0.19042 0.71915 0.78604 0.0
C540 C 0.16511 0.7342 0.77904 0.0
C541 C 0.17942 0.77453 0.78259 0.0
C542 C 0.25817 0.73082 0.80421 0.0
C543 C 0.12269 0.70761 0.76781 0.0
H544 H 0.15593 0.60411 0.69773 0.0
H545 H 0.13037 0.59338 0.85426 0.0
H546 H 0.17334 0.69704 0.68096 0.0
H547 H 0.22055 0.70527 0.69586 0.0
H548 H 0.18874 0.66442 0.65725 0.0
H549 H 0.14832 0.64735 0.9059 0.0
H550 H 0.18992 0.69201 0.88558 0.0
H551 H 0.14233 0.68413 0.87428 0.0
H552 H 0.27404 0.80558 0.80735 0.0
H553 H 0.15959 0.78546 0.77726 0.0
H554 H 0.25847 0.71435 0.77095 0.0
H555 H 0.2487 0.71049 0.83632 0.0
H556 H 0.28812 0.75484 0.81135 0.0
H557 H 0.11939 0.69065 0.73345 0.0
H558 H 0.10686 0.72381 0.76267 0.0
H559 H 0.10888 0.68647 0.79866 0.0
C560 C 0.45239 0.83635 0.81511 0.0
C561 C 0.44745 0.85051 0.76916 0.0
C562 C 0.47713 0.82056 0.81996 0.0
C563 C 0.49776 0.81873 0.77794 0.0
C564 C 0.49184 0.83165 0.73112 0.0
C565 C 0.46693 0.84729 0.72732 0.0
C566 C 0.48242 0.80731 0.87065 0.0
C567 C 0.51292 0.83022 0.68517 0.0
C568 C 0.59603 0.82559 0.79758 0.0
C569 C 0.58788 0.78709 0.79031 0.0
C570 C 0.567 0.83586 0.79448 0.0
C571 C 0.5283 0.80708 0.78376 0.0
C572 C 0.5195 0.76792 0.77753 0.0
C573 C 0.5493 0.75839 0.78087 0.0
C574 C 0.57804 0.87791 0.80175 0.0
C575 C 0.47873 0.73619 0.76627 0.0
H576 H 0.43802 0.83891 0.84795 0.0
H577 H 0.46299 0.85736 0.6914 0.0
H578 H 0.47881 0.77776 0.86825 0.0
H579 H 0.51223 0.82716 0.88427 0.0
H580 H 0.46159 0.80689 0.89848 0.0
H581 H 0.50301 0.83842 0.65088 0.0
H582 H 0.54445 0.85043 0.6897 0.0
H583 H 0.50869 0.80059 0.68017 0.0
H584 H 0.62552 0.84819 0.80514 0.0
H585 H 0.54248 0.7286 0.77504 0.0
H586 H 0.56037 0.88036 0.83193 0.0
H587 H 0.57196 0.88928 0.76715 0.0
H588 H 0.60913 0.89662 0.81133 0.0
H589 H 0.45845 0.73619 0.79457 0.0
H590 H 0.47602 0.70692 0.76551 0.0
H591 H 0.46956 0.74172 0.72953 0.0
C592 C 0.23854 0.4753 0.74913 0.0
C593 C 0.22566 0.44622 0.78589 0.0
C594 C 0.27843 0.50181 0.74217 0.0
C595 C 0.30628 0.49976 0.77317 0.0
C596 C 0.29324 0.47145 0.81159 0.0
C597 C 0.25336 0.44498 0.81716 0.0
C598 C 0.29082 0.53107 0.70037 0.0
C599 C 0.32154 0.46847 0.84625 0.0
C600 C 0.41039 0.53673 0.72933 0.0
C601 C 0.4312 0.57283 0.75374 0.0
C602 C 0.36983 0.51349 0.73395 0.0
C603 C 0.34906 0.52596 0.7645 0.0
C604 C 0.36963 0.56255 0.78862 0.0
C605 C 0.41013 0.58556 0.78261 0.0
C606 C 0.34927 0.47501 0.70693 0.0
C607 C 0.34897 0.57702 0.82189 0.0
H608 H 0.21755 0.47642 0.72447 0.0
H609 H 0.24389 0.42282 0.84583 0.0
H610 H 0.31017 0.56084 0.7148 0.0
H611 H 0.30755 0.52488 0.67243 0.0
H612 H 0.26577 0.53052 0.68136 0.0
H613 H 0.30678 0.44665 0.87624 0.0
H614 H 0.34007 0.46014 0.82478 0.0
H615 H 0.34091 0.49711 0.86371 0.0
H616 H 0.42587 0.52591 0.7075 0.0
H617 H 0.42527 0.61361 0.80089 0.0
H618 H 0.3248 0.47297 0.68472 0.0
H619 H 0.33694 0.45089 0.7344 0.0
H620 H 0.36888 0.47075 0.68161 0.0
H621 H 0.32516 0.57758 0.80113 0.0
H622 H 0.36873 0.60662 0.83671 0.0
H623 H 0.33569 0.55682 0.8538 0.0
C624 C 0.20809 0.26084 0.32049 0.0
C625 C 0.19964 0.22505 0.2992 0.0
C626 C 0.18262 0.27565 0.31528 0.0
C627 C 0.14763 0.25422 0.28824 0.0
C628 C 0.14004 0.21925 0.26427 0.0
C629 C 0.16599 0.20513 0.27004 0.0
C630 C 0.19218 0.31318 0.34109 0.0
C631 C 0.10316 0.19531 0.2351 0.0
C632 C 0.05639 0.25357 0.33014 0.0
C633 C 0.05068 0.27496 0.29267 0.0
C634 C 0.08873 0.24847 0.33028 0.0
C635 C 0.11632 0.26469 0.29148 0.0
C636 C 0.11193 0.2881 0.25475 0.0
C637 C 0.07919 0.29317 0.25592 0.0
C638 C 0.09213 0.22377 0.37074 0.0
C639 C 0.14067 0.30607 0.21282 0.0
H640 H 0.23432 0.27697 0.34226 0.0
H641 H 0.15881 0.17736 0.25368 0.0
H642 H 0.1871 0.3323 0.31572 0.0
H643 H 0.17289 0.3068 0.37379 0.0
H644 H 0.22267 0.3292 0.35426 0.0
H645 H 0.10361 0.17153 0.21381 0.0
H646 H 0.0782 0.18221 0.26112 0.0
H647 H 0.09827 0.21398 0.20868 0.0
H648 H 0.03458 0.23938 0.35875 0.0
H649 H 0.07488 0.30948 0.22663 0.0
H650 H 0.12109 0.2395 0.38856 0.0
H651 H 0.08899 0.19672 0.35417 0.0
H652 H 0.06977 0.21562 0.40015 0.0
H653 H 0.17074 0.32026 0.22736 0.0
H654 H 0.13652 0.32786 0.19176 0.0
H655 H 0.13722 0.28295 0.18657 0.0
C656 C 0.07667 0.88638 0.2645 0.0
C657 C 0.0603 0.84785 0.28135 0.0
C658 C 0.11703 0.91084 0.26185 0.0
C659 C 0.14188 0.89657 0.27624 0.0
C660 C 0.12558 0.85699 0.28998 0.0
C661 C 0.08504 0.83319 0.29278 0.0
C662 C 0.13308 0.95273 0.24648 0.0
C663 C 0.15103 0.84027 0.3038 0.0
C664 C 0.24928 0.96758 0.25165 0.0
C665 C 0.26023 0.98787 0.29698 0.0
C666 C 0.2114 0.93593 0.24485 0.0
C667 C 0.18406 0.92457 0.28429 0.0
C668 C 0.19616 0.94329 0.33111 0.0
C669 C 0.23383 0.97461 0.33671 0.0
C670 C 0.20036 0.91675 0.19437 0.0
C671 C 0.16847 0.93232 0.37451 0.0
H672 H 0.05794 0.89812 0.25578 0.0
H673 H 0.0727 0.80325 0.30484 0.0
H674 H 0.14754 0.97202 0.27888 0.0
H675 H 0.15518 0.96055 0.21688 0.0
H676 H 0.11019 0.95854 0.2325 0.0
H677 H 0.13431 0.80808 0.30712 0.0
H678 H 0.17411 0.84842 0.27547 0.0
H679 H 0.16546 0.85256 0.34003 0.0
H680 H 0.2693 0.97794 0.22052 0.0
H681 H 0.2419 0.99023 0.3718 0.0
H682 H 0.19164 0.93364 0.16986 0.0
H683 H 0.17592 0.88642 0.19653 0.0
H684 H 0.22545 0.91658 0.17666 0.0
H685 H 0.14588 0.94001 0.36571 0.0
H686 H 0.18331 0.94742 0.4095 0.0
H687 H 0.15362 0.90051 0.38116 0.0
C688 C 0.78647 0.95752 0.26905 0.0
C689 C 0.82689 0.98205 0.26984 0.0
C690 C 0.76962 0.91675 0.26841 0.0
C691 C 0.79365 0.89987 0.2684 0.0
C692 C 0.83444 0.92446 0.26763 0.0
C693 C 0.85051 0.96511 0.26854 0.0
C694 C 0.7261 0.89173 0.26956 0.0
C695 C 0.86122 0.90779 0.26716 0.0
C696 C 0.76326 0.80115 0.32563 0.0
C697 C 0.75732 0.77806 0.28337 0.0
C698 C 0.77248 0.84011 0.32125 0.0
C699 C 0.77661 0.85675 0.27328 0.0
C700 C 0.76793 0.83272 0.23048 0.0
C701 C 0.75805 0.79347 0.2361 0.0
C702 C 0.78069 0.86416 0.36803 0.0
C703 C 0.7721 0.8491 0.17862 0.0
H704 H 0.76789 0.97019 0.27064 0.0
H705 H 0.8817 0.98372 0.26844 0.0
H706 H 0.71605 0.86966 0.23942 0.0
H707 H 0.71702 0.8758 0.30551 0.0
H708 H 0.7114 0.90912 0.26532 0.0
H709 H 0.89208 0.93065 0.26321 0.0
H710 H 0.85791 0.89168 0.30235 0.0
H711 H 0.85349 0.88676 0.23603 0.0
H712 H 0.76293 0.78932 0.36222 0.0
H713 H 0.75408 0.77589 0.20332 0.0
H714 H 0.76562 0.88129 0.36682 0.0
H715 H 0.81221 0.88506 0.37071 0.0
H716 H 0.77155 0.84591 0.40222 0.0
H717 H 0.75869 0.86773 0.17615 0.0
H718 H 0.75876 0.8258 0.15002 0.0
H719 H 0.8033 0.86757 0.16973 0.0
C720 C 0.19477 0.13882 0.76292 0.0
C721 C 0.2191 0.17922 0.76672 0.0
C722 C 0.20993 0.11349 0.76273 0.0
C723 C 0.25047 0.12877 0.76674 0.0
C724 C 0.27529 0.16957 0.76857 0.0
C725 C 0.25936 0.19426 0.76853 0.0
C726 C 0.18235 0.07019 0.76027 0.0
C727 C 0.31859 0.18712 0.77305 0.0
C728 C 0.27507 0.05872 0.83107 0.0
C729 C 0.28299 0.04127 0.79078 0.0
C730 C 0.26717 0.08907 0.82388 0.0
C731 C 0.26608 0.10181 0.77489 0.0
C732 C 0.27641 0.08596 0.73417 0.0
C733 C 0.28517 0.05606 0.74268 0.0
C734 C 0.2571 0.1054 0.86864 0.0
C735 C 0.27539 0.09843 0.68134 0.0
H736 H 0.16372 0.12692 0.76069 0.0
H737 H 0.27847 0.22538 0.77197 0.0
H738 H 0.19149 0.05688 0.73076 0.0
H739 H 0.18289 0.05661 0.79624 0.0
H740 H 0.1521 0.06308 0.75265 0.0
H741 H 0.33418 0.21921 0.76827 0.0
H742 H 0.3258 0.18034 0.81036 0.0
H743 H 0.32935 0.17433 0.74488 0.0
H744 H 0.2728 0.04707 0.86824 0.0
H745 H 0.2907 0.04228 0.71135 0.0
H746 H 0.22576 0.09582 0.86786 0.0
H747 H 0.27324 0.13765 0.86768 0.0
H748 H 0.26367 0.09567 0.90437 0.0
H749 H 0.24484 0.08659 0.66954 0.0
H750 H 0.28945 0.08771 0.65506 0.0
H751 H 0.28991 0.13057 0.67864 0.0
C752 C 0.9662 0.78511 0.76601 0.0
C753 C 0.98341 0.80237 0.81181 0.0
C754 C 0.92635 0.77038 0.7573 0.0
C755 C 0.90297 0.77311 0.79509 0.0
C756 C 0.91979 0.78883 0.84211 0.0
C757 C 0.95961 0.80323 0.84984 0.0
C758 C 0.90961 0.75346 0.70687 0.0
C759 C 0.89619 0.79258 0.88351 0.0
C760 C 0.82032 0.79067 0.76229 0.0
C761 C 0.78744 0.75528 0.77488 0.0
C762 C 0.85769 0.79593 0.7661 0.0
C763 C 0.86277 0.76511 0.78363 0.0
C764 C 0.82954 0.72848 0.79398 0.0
C765 C 0.7921 0.72392 0.78937 0.0
C766 C 0.89188 0.83541 0.75418 0.0
C767 C 0.83356 0.69482 0.81268 0.0
H768 H 0.98401 0.78358 0.7366 0.0
H769 H 0.9724 0.8168 0.88519 0.0
H770 H 0.88232 0.72532 0.71114 0.0
H771 H 0.90244 0.77346 0.68659 0.0
H772 H 0.93007 0.74882 0.68376 0.0
H773 H 0.91235 0.80161 0.91933 0.0
H774 H 0.88793 0.81453 0.87299 0.0
H775 H 0.86904 0.76457 0.88932 0.0
H776 H 0.81681 0.81501 0.75104 0.0
H777 H 0.76682 0.69672 0.79988 0.0
H778 H 0.91175 0.8325 0.72789 0.0
H779 H 0.90843 0.84895 0.78881 0.0
H780 H 0.88293 0.85536 0.73748 0.0
H781 H 0.85579 0.69211 0.791 0.0
H782 H 0.80573 0.66691 0.81055 0.0
H783 H 0.84318 0.70005 0.85217 0.0
C784 C 0.96981 0.23443 0.75302 0.0
C785 C 0.99732 0.24563 0.7913 0.0
C786 C 0.93849 0.19586 0.75033 0.0
C787 C 0.93471 0.16823 0.78691 0.0
C788 C 0.96107 0.18041 0.82729 0.0
C789 C 0.99191 0.21871 0.82883 0.0
C790 C 0.91073 0.18419 0.70702 0.0
C791 C 0.95817 0.15239 0.86757 0.0
C792 C 0.84521 0.06993 0.81092 0.0
C793 C 0.85576 0.04428 0.78934 0.0
C794 C 0.86936 0.1105 0.80746 0.0
C795 C 0.9052 0.12599 0.78216 0.0
C796 C 0.91516 0.10028 0.75827 0.0
C797 C 0.8903 0.05981 0.762 0.0
C798 C 0.85734 0.13671 0.83296 0.0
C799 C 0.95315 0.11546 0.73112 0.0
H800 H 0.97396 0.255 0.72373 0.0
H801 H 1.01299 0.22717 0.85865 0.0
H802 H 0.91611 0.16563 0.68108 0.0
H803 H 0.88038 0.16682 0.72012 0.0
H804 H 0.91405 0.20984 0.68604 0.0
H805 H 0.97948 0.16711 0.89806 0.0
H806 H 0.92871 0.13748 0.88394 0.0
H807 H 0.96332 0.1297 0.85117 0.0
H808 H 0.81816 0.05824 0.83118 0.0
H809 H 0.89874 0.0403 0.74525 0.0
H810 H 0.86165 0.16076 0.80781 0.0
H811 H 0.8757 0.15002 0.86639 0.0
H812 H 0.82657 0.12066 0.84495 0.0
H813 H 0.95742 0.13874 0.7046 0.0
H814 H 0.95488 0.09219 0.71025 0.0
H815 H 0.97734 0.12841 0.75839 0.0
loop_
_geom_bond_atom_site_label_1
_geom_bond_atom_site_label_2
_geom_bond_distance
_geom_bond_site_symmetry_2
_ccdc_geom_bond_type
Gd0 C3 2.818 . S
Gd0 O20 2.377 . S
Gd0 O22 2.448 . S
Gd0 O23 2.506 . S
Gd0 O24 2.435 . S
Gd0 O25 2.717 . S
Gd0 O27 2.395 . S
Gd0 O31 2.327 . S
Gd1 C12 2.818 . S
Gd1 O21 2.395 . S
Gd1 O25 2.327 . S
Gd1 O26 2.377 . S
Gd1 O28 2.448 . S
Gd1 O29 2.506 . S
Gd1 O30 2.435 . S
Gd1 O31 2.717 . S
C2 O20 1.240 . S
C2 O21 1.240 . S
C3 Gd0 2.818 . S
C3 C4 1.510 . S
C3 O22 1.249 . S
C3 O23 1.252 . S
C4 C3 1.510 . S
C4 C5 1.404 . S
C4 C6 1.352 . S
C5 C4 1.404 . S
C5 C9 1.389 . S
C5 H32 0.930 . S
C6 C4 1.352 . S
C6 C8 1.374 . S
C6 H33 0.931 . S
C7 C8 1.359 . S
C7 C9 1.364 . S
C8 C6 1.374 . S
C8 C7 1.359 . S
C8 H34 0.931 . S
C9 C5 1.389 . S
C9 C7 1.364 . S
C9 H35 0.931 . S
C10 O24 1.256 . S
C10 O25 1.257 . S
C11 O26 1.240 . S
C11 O27 1.240 . S
C12 Gd1 2.818 . S
C12 C13 1.510 . S
C12 O28 1.249 . S
C12 O29 1.252 . S
C13 C12 1.510 . S
C13 C14 1.404 . S
C13 C15 1.352 . S
C14 C13 1.404 . S
C14 C18 1.389 . S
C14 H36 0.930 . S
C15 C13 1.352 . S
C15 C17 1.374 . S
C15 H37 0.931 . S
C16 C17 1.359 . S
C16 C18 1.364 . S
C17 C15 1.374 . S
C17 C16 1.359 . S
C17 H38 0.931 . S
C18 C14 1.389 . S
C18 C16 1.364 . S
C18 H39 0.931 . S
C19 O30 1.256 . S
C19 O31 1.257 . S
O20 Gd0 2.377 . S
O20 C2 1.240 . S
O21 Gd1 2.395 . S
O21 C2 1.240 . S
O22 Gd0 2.448 . S
O22 C3 1.249 . S
O23 Gd0 2.506 . S
O23 C3 1.252 . S
O24 Gd0 2.435 . S
O24 C10 1.256 . S
O25 Gd0 2.717 . S
O25 Gd1 2.327 . S
O25 C10 1.257 . S
O26 Gd1 2.377 . S
O26 C11 1.240 . S
O27 Gd0 2.395 . S
O27 C11 1.240 . S
O28 Gd1 2.448 . S
O28 C12 1.249 . S
O29 Gd1 2.506 . S
O29 C12 1.252 . S
O30 Gd1 2.435 . S
O30 C19 1.256 . S
O31 Gd0 2.327 . S
O31 Gd1 2.717 . S
O31 C19 1.257 . S
H32 C5 0.930 . S
H33 C6 0.931 . S
H34 C8 0.931 . S
H35 C9 0.931 . S
H36 C14 0.930 . S
H37 C15 0.931 . S
H38 C17 0.931 . S
H39 C18 0.931 . S
Gd40 C43 2.818 . S
Gd40 O60 2.377 . S
Gd40 O62 2.448 . S
Gd40 O63 2.506 . S
Gd40 O64 2.435 . S
Gd40 O65 2.717 . S
Gd40 O67 2.395 . S
Gd40 O71 2.327 . S
Gd41 C52 2.818 . S
Gd41 O61 2.395 . S
Gd41 O65 2.327 . S
Gd41 O66 2.377 . S
Gd41 O68 2.448 . S
Gd41 O69 2.506 . S
Gd41 O70 2.435 . S
Gd41 O71 2.717 . S
C42 O60 1.240 . S
C42 O61 1.240 . S
C43 Gd40 2.818 . S
C43 C44 1.510 . S
C43 O62 1.249 . S
C43 O63 1.252 . S
C44 C43 1.510 . S
C44 C45 1.404 . S
C44 C46 1.352 . S
C45 C44 1.404 . S
C45 C49 1.389 . S
C45 H72 0.930 . S
C46 C44 1.352 . S
C46 C48 1.374 . S
C46 H73 0.931 . S
C47 C48 1.359 . S
C47 C49 1.364 . S
C48 C46 1.374 . S
C48 C47 1.359 . S
C48 H74 0.931 . S
C49 C45 1.389 . S
C49 C47 1.364 . S
C49 H75 0.931 . S
C50 O64 1.256 . S
C50 O65 1.257 . S
C51 O66 1.240 . S
C51 O67 1.240 . S
C52 Gd41 2.818 . S
C52 C53 1.510 . S
C52 O68 1.249 . S
C52 O69 1.252 . S
C53 C52 1.510 . S
C53 C54 1.404 . S
C53 C55 1.352 . S
C54 C53 1.404 . S
C54 C58 1.389 . S
C54 H76 0.930 . S
C55 C53 1.352 . S
C55 C57 1.374 . S
C55 H77 0.931 . S
C56 C57 1.359 . S
C56 C58 1.364 . S
C57 C55 1.374 . S
C57 C56 1.359 . S
C57 H78 0.931 . S
C58 C54 1.389 . S
C58 C56 1.364 . S
C58 H79 0.931 1_655 S
C59 O70 1.256 . S
C59 O71 1.257 . S
O60 Gd40 2.377 . S
O60 C42 1.240 . S
O61 Gd41 2.395 . S
O61 C42 1.240 . S
O62 Gd40 2.448 . S
O62 C43 1.249 . S
O63 Gd40 2.506 . S
O63 C43 1.252 . S
O64 Gd40 2.435 . S
O64 C50 1.256 . S
O65 Gd40 2.717 . S
O65 Gd41 2.327 . S
O65 C50 1.257 . S
O66 Gd41 2.377 . S
O66 C51 1.240 . S
O67 Gd40 2.395 . S
O67 C51 1.240 . S
O68 Gd41 2.448 . S
O68 C52 1.249 . S
O69 Gd41 2.506 . S
O69 C52 1.252 . S
O70 Gd41 2.435 . S
O70 C59 1.256 . S
O71 Gd40 2.327 . S
O71 Gd41 2.717 . S
O71 C59 1.257 . S
H72 C45 0.930 . S
H73 C46 0.931 . S
H74 C48 0.931 . S
H75 C49 0.931 . S
H76 C54 0.930 . S
H77 C55 0.931 . S
H78 C57 0.931 . S
H79 C58 0.931 1_455 S
Gd80 C83 2.818 . S
Gd80 O100 2.377 . S
Gd80 O102 2.448 . S
Gd80 O103 2.506 . S
Gd80 O104 2.435 . S
Gd80 O105 2.717 . S
Gd80 O107 2.395 . S
Gd80 O111 2.327 . S
Gd81 C92 2.818 . S
Gd81 O101 2.395 . S
Gd81 O105 2.327 . S
Gd81 O106 2.377 . S
Gd81 O108 2.448 . S
Gd81 O109 2.506 . S
Gd81 O110 2.435 . S
Gd81 O111 2.717 . S
C82 O100 1.240 . S
C82 O101 1.240 . S
C83 Gd80 2.818 . S
C83 C84 1.510 . S
C83 O102 1.249 . S
C83 O103 1.252 . S
C84 C83 1.510 . S
C84 C85 1.404 . S
C84 C86 1.352 . S
C85 C84 1.404 . S
C85 C89 1.389 . S
C85 H112 0.930 . S
C86 C84 1.352 . S
C86 C88 1.374 . S
C86 H113 0.931 . S
C87 C88 1.359 . S
C87 C89 1.364 . S
C88 C86 1.374 . S
C88 C87 1.359 . S
C88 H114 0.931 . S
C89 C85 1.389 . S
C89 C87 1.364 . S
C89 H115 0.931 . S
C90 O104 1.256 . S
C90 O105 1.257 . S
C91 O106 1.240 . S
C91 O107 1.240 . S
C92 Gd81 2.818 . S
C92 C93 1.510 . S
C92 O108 1.249 . S
C92 O109 1.252 . S
C93 C92 1.510 . S
C93 C94 1.404 . S
C93 C95 1.352 . S
C94 C93 1.404 . S
C94 C98 1.389 . S
C94 H116 0.930 . S
C95 C93 1.352 . S
C95 C97 1.374 . S
C95 H117 0.931 . S
C96 C97 1.359 . S
C96 C98 1.364 . S
C97 C95 1.374 . S
C97 C96 1.359 . S
C97 H118 0.931 . S
C98 C94 1.389 . S
C98 C96 1.364 . S
C98 H119 0.931 1_545 S
C99 O110 1.256 . S
C99 O111 1.257 . S
O100 Gd80 2.377 . S
O100 C82 1.240 . S
O101 Gd81 2.395 . S
O101 C82 1.240 . S
O102 Gd80 2.448 . S
O102 C83 1.249 . S
O103 Gd80 2.506 . S
O103 C83 1.252 . S
O104 Gd80 2.435 . S
O104 C90 1.256 . S
O105 Gd80 2.717 . S
O105 Gd81 2.327 . S
O105 C90 1.257 . S
O106 Gd81 2.377 . S
O106 C91 1.240 . S
O107 Gd80 2.395 . S
O107 C91 1.240 . S
O108 Gd81 2.448 . S
O108 C92 1.249 . S
O109 Gd81 2.506 . S
O109 C92 1.252 . S
O110 Gd81 2.435 . S
O110 C99 1.256 . S
O111 Gd80 2.327 . S
O111 Gd81 2.717 . S
O111 C99 1.257 . S
H112 C85 0.930 . S
H113 C86 0.931 . S
H114 C88 0.931 . S
H115 C89 0.931 . S
H116 C94 0.930 . S
H117 C95 0.931 . S
H118 C97 0.931 . S
H119 C98 0.931 1_565 S
Gd120 C123 2.818 . S
Gd120 O140 2.377 . S
Gd120 O142 2.448 . S
Gd120 O143 2.506 . S
Gd120 O144 2.435 . S
Gd120 O145 2.717 . S
Gd120 O147 2.395 . S
Gd120 O151 2.327 . S
Gd121 C132 2.818 . S
Gd121 O141 2.395 . S
Gd121 O145 2.327 . S
Gd121 O146 2.377 . S
Gd121 O148 2.448 . S
Gd121 O149 2.506 . S
Gd121 O150 2.435 . S
Gd121 O151 2.717 . S
C122 O140 1.240 . S
C122 O141 1.240 . S
C123 Gd120 2.818 . S
C123 C124 1.510 . S
C123 O142 1.249 . S
C123 O143 1.252 . S
C124 C123 1.510 . S
C124 C125 1.404 . S
C124 C126 1.352 . S
C125 C124 1.404 . S
C125 C129 1.389 . S
C125 H152 0.930 . S
C126 C124 1.352 . S
C126 C128 1.374 . S
C126 H153 0.931 . S
C127 C128 1.359 . S
C127 C129 1.364 . S
C128 C126 1.374 . S
C128 C127 1.359 . S
C128 H154 0.931 . S
C129 C125 1.389 . S
C129 C127 1.364 . S
C129 H155 0.931 . S
C130 O144 1.256 . S
C130 O145 1.257 . S
C131 O146 1.240 . S
C131 O147 1.240 . S
C132 Gd121 2.818 . S
C132 C133 1.510 . S
C132 O148 1.249 . S
C132 O149 1.252 . S
C133 C132 1.510 . S
C133 C134 1.404 . S
C133 C135 1.352 . S
C134 C133 1.404 . S
C134 C138 1.389 . S
C134 H156 0.930 . S
C135 C133 1.352 . S
C135 C137 1.374 . S
C135 H157 0.931 . S
C136 C137 1.359 . S
C136 C138 1.364 . S
C137 C135 1.374 . S
C137 C136 1.359 . S
C137 H158 0.931 . S
C138 C134 1.389 . S
C138 C136 1.364 . S
C138 H159 0.931 . S
C139 O150 1.256 . S
C139 O151 1.257 . S
O140 Gd120 2.377 . S
O140 C122 1.240 . S
O141 Gd121 2.395 . S
O141 C122 1.240 . S
O142 Gd120 2.448 . S
O142 C123 1.249 . S
O143 Gd120 2.506 . S
O143 C123 1.252 . S
O144 Gd120 2.435 . S
O144 C130 1.256 . S
O145 Gd120 2.717 . S
O145 Gd121 2.327 . S
O145 C130 1.257 . S
O146 Gd121 2.377 . S
O146 C131 1.240 . S
O147 Gd120 2.395 . S
O147 C131 1.240 . S
O148 Gd121 2.448 . S
O148 C132 1.249 . S
O149 Gd121 2.506 . S
O149 C132 1.252 . S
O150 Gd121 2.435 . S
O150 C139 1.256 . S
O151 Gd120 2.327 . S
O151 Gd121 2.717 . S
O151 C139 1.257 . S
H152 C125 0.930 . S
H153 C126 0.931 . S
H154 C128 0.931 . S
H155 C129 0.931 . S
H156 C134 0.930 . S
H157 C135 0.931 . S
H158 C137 0.931 . S
H159 C138 0.931 . S
Gd160 C163 2.818 . S
Gd160 O180 2.377 . S
Gd160 O182 2.448 . S
Gd160 O183 2.506 . S
Gd160 O184 2.435 . S
Gd160 O185 2.717 . S
Gd160 O187 2.395 . S
Gd160 O191 2.327 . S
Gd161 C172 2.818 . S
Gd161 O181 2.395 . S
Gd161 O185 2.327 . S
Gd161 O186 2.377 . S
Gd161 O188 2.448 . S
Gd161 O189 2.506 . S
Gd161 O190 2.435 . S
Gd161 O191 2.717 . S
C162 O180 1.240 . S
C162 O181 1.240 . S
C163 Gd160 2.818 . S
C163 C164 1.510 . S
C163 O182 1.249 . S
C163 O183 1.252 . S
C164 C163 1.510 . S
C164 C165 1.404 . S
C164 C166 1.352 . S
C165 C164 1.404 . S
C165 C169 1.389 . S
C165 H192 0.930 . S
C166 C164 1.352 . S
C166 C168 1.374 . S
C166 H193 0.931 . S
C167 C168 1.359 . S
C167 C169 1.364 . S
C168 C166 1.374 . S
C168 C167 1.359 . S
C168 H194 0.931 . S
C169 C165 1.389 . S
C169 C167 1.364 . S
C169 H195 0.931 1_455 S
C170 O184 1.256 . S
C170 O185 1.257 . S
C171 O186 1.240 . S
C171 O187 1.240 . S
C172 Gd161 2.818 . S
C172 C173 1.510 . S
C172 O188 1.249 . S
C172 O189 1.252 . S
C173 C172 1.510 . S
C173 C174 1.404 . S
C173 C175 1.352 . S
C174 C173 1.404 . S
C174 C178 1.389 . S
C174 H196 0.930 . S
C175 C173 1.352 . S
C175 C177 1.374 . S
C175 H197 0.931 . S
C176 C177 1.359 . S
C176 C178 1.364 . S
C177 C175 1.374 . S
C177 C176 1.359 . S
C177 H198 0.931 . S
C178 C174 1.389 . S
C178 C176 1.364 . S
C178 H199 0.931 . S
C179 O190 1.256 . S
C179 O191 1.257 . S
O180 Gd160 2.377 . S
O180 C162 1.240 . S
O181 Gd161 2.395 . S
O181 C162 1.240 . S
O182 Gd160 2.448 . S
O182 C163 1.249 . S
O183 Gd160 2.506 . S
O183 C163 1.252 . S
O184 Gd160 2.435 . S
O184 C170 1.256 . S
O185 Gd160 2.717 . S
O185 Gd161 2.327 . S
O185 C170 1.257 . S
O186 Gd161 2.377 . S
O186 C171 1.240 . S
O187 Gd160 2.395 . S
O187 C171 1.240 . S
O188 Gd161 2.448 . S
O188 C172 1.249 . S
O189 Gd161 2.506 . S
O189 C172 1.252 . S
O190 Gd161 2.435 . S
O190 C179 1.256 . S
O191 Gd160 2.327 . S
O191 Gd161 2.717 . S
O191 C179 1.257 . S
H192 C165 0.930 . S
H193 C166 0.931 . S
H194 C168 0.931 . S
H195 C169 0.931 1_655 S
H196 C174 0.930 . S
H197 C175 0.931 . S
H198 C177 0.931 . S
H199 C178 0.931 . S
Gd200 C203 2.818 . S
Gd200 O220 2.377 . S
Gd200 O222 2.448 . S
Gd200 O223 2.506 . S
Gd200 O224 2.435 . S
Gd200 O225 2.717 . S
Gd200 O227 2.395 . S
Gd200 O231 2.327 . S
Gd201 C212 2.818 . S
Gd201 O221 2.395 . S
Gd201 O225 2.327 . S
Gd201 O226 2.377 . S
Gd201 O228 2.448 . S
Gd201 O229 2.506 . S
Gd201 O230 2.435 . S
Gd201 O231 2.717 . S
C202 O220 1.240 . S
C202 O221 1.240 . S
C203 Gd200 2.818 . S
C203 C204 1.510 . S
C203 O222 1.249 . S
C203 O223 1.252 . S
C204 C203 1.510 . S
C204 C205 1.404 . S
C204 C206 1.352 . S
C205 C204 1.404 . S
C205 C209 1.389 . S
C205 H232 0.930 . S
C206 C204 1.352 . S
C206 C208 1.374 . S
C206 H233 0.931 . S
C207 C208 1.359 . S
C207 C209 1.364 . S
C208 C206 1.374 . S
C208 C207 1.359 . S
C208 H234 0.931 . S
C209 C205 1.389 . S
C209 C207 1.364 . S
C209 H235 0.931 1_565 S
C210 O224 1.256 . S
C210 O225 1.257 . S
C211 O226 1.240 . S
C211 O227 1.240 . S
C212 Gd201 2.818 . S
C212 C213 1.510 . S
C212 O228 1.249 . S
C212 O229 1.252 . S
C213 C212 1.510 . S
C213 C214 1.404 . S
C213 C215 1.352 . S
C214 C213 1.404 . S
C214 C218 1.389 . S
C214 H236 0.930 . S
C215 C213 1.352 . S
C215 C217 1.374 . S
C215 H237 0.931 . S
C216 C217 1.359 . S
C216 C218 1.364 . S
C217 C215 1.374 . S
C217 C216 1.359 . S
C217 H238 0.931 . S
C218 C214 1.389 . S
C218 C216 1.364 . S
C218 H239 0.931 . S
C219 O230 1.256 . S
C219 O231 1.257 . S
O220 Gd200 2.377 . S
O220 C202 1.240 . S
O221 Gd201 2.395 . S
O221 C202 1.240 . S
O222 Gd200 2.448 . S
O222 C203 1.249 . S
O223 Gd200 2.506 . S
O223 C203 1.252 . S
O224 Gd200 2.435 . S
O224 C210 1.256 . S
O225 Gd200 2.717 . S
O225 Gd201 2.327 . S
O225 C210 1.257 . S
O226 Gd201 2.377 . S
O226 C211 1.240 . S
O227 Gd200 2.395 . S
O227 C211 1.240 . S
O228 Gd201 2.448 . S
O228 C212 1.249 . S
O229 Gd201 2.506 . S
O229 C212 1.252 . S
O230 Gd201 2.435 . S
O230 C219 1.256 . S
O231 Gd200 2.327 . S
O231 Gd201 2.717 . S
O231 C219 1.257 . S
H232 C205 0.930 . S
H233 C206 0.931 . S
H234 C208 0.931 . S
H235 C209 0.931 1_545 S
H236 C214 0.930 . S
H237 C215 0.931 . S
H238 C217 0.931 . S
H239 C218 0.931 . S
C240 C241 1.391 . S
C240 C242 1.394 . S
C240 H256 0.931 . S
C241 C240 1.391 . S
C241 C245 1.376 . S
C242 C240 1.394 . S
C242 C243 1.369 . S
C242 C246 1.531 . S
C243 C242 1.369 . S
C243 C244 1.410 . S
C243 C251 1.503 1_566 S
C244 C243 1.410 . S
C244 C245 1.392 . S
C244 C247 1.511 1_565 S
C245 C241 1.376 . S
C245 C244 1.392 . S
C245 H257 0.929 . S
C246 C242 1.531 . S
C246 H258 0.960 1_565 S
C246 H259 0.962 1_556 S
C246 H260 0.960 . S
C247 C244 1.511 1_545 S
C247 H261 0.961 1_545 S
C247 H262 0.961 1_556 S
C247 H263 0.961 . S
C248 C249 1.370 . S
C248 C250 1.363 . S
C248 H264 0.931 . S
C249 C248 1.370 . S
C249 C253 1.408 . S
C250 C248 1.363 . S
C250 C251 1.370 . S
C250 C254 1.524 1_545 S
C251 C243 1.503 1_544 S
C251 C250 1.370 . S
C251 C252 1.403 . S
C252 C251 1.403 . S
C252 C253 1.404 . S
C252 C255 1.539 1_554 S
C253 C249 1.408 . S
C253 C252 1.404 . S
C253 H265 0.930 . S
C254 C250 1.524 1_565 S
C254 H266 0.956 . S
C254 H267 0.961 . S
C254 H268 0.961 . S
C255 C252 1.539 1_556 S
C255 H269 0.958 . S
C255 H270 0.961 . S
C255 H271 0.960 . S
H256 C240 0.931 . S
H257 C245 0.929 . S
H258 C246 0.960 1_545 S
H259 C246 0.962 1_554 S
H260 C246 0.960 . S
H261 C247 0.961 1_565 S
H262 C247 0.961 1_554 S
H263 C247 0.961 . S
H264 C248 0.931 . S
H265 C253 0.930 . S
H266 C254 0.956 . S
H267 C254 0.961 . S
H268 C254 0.961 . S
H269 C255 0.958 . S
H270 C255 0.961 . S
H271 C255 0.960 . S
C272 C273 1.391 . S
C272 C274 1.394 . S
C272 H288 0.931 . S
C273 C272 1.391 . S
C273 C277 1.376 . S
C274 C272 1.394 . S
C274 C275 1.369 . S
C274 C278 1.531 . S
C275 C274 1.369 . S
C275 C276 1.410 . S
C275 C283 1.503 . S
C276 C275 1.410 . S
C276 C277 1.392 . S
C276 C279 1.511 . S
C277 C273 1.376 . S
C277 C276 1.392 . S
C277 H289 0.929 . S
C278 C274 1.531 . S
C278 H290 0.960 . S
C278 H291 0.962 . S
C278 H292 0.960 . S
C279 C276 1.511 . S
C279 H293 0.961 . S
C279 H294 0.961 . S
C279 H295 0.961 . S
C280 C281 1.370 . S
C280 C282 1.363 . S
C280 H296 0.931 . S
C281 C280 1.370 . S
C281 C285 1.408 . S
C282 C280 1.363 . S
C282 C283 1.370 . S
C282 C286 1.524 . S
C283 C275 1.503 . S
C283 C282 1.370 . S
C283 C284 1.403 . S
C284 C283 1.403 . S
C284 C285 1.404 . S
C284 C287 1.539 . S
C285 C281 1.408 . S
C285 C284 1.404 . S
C285 H297 0.930 . S
C286 C282 1.524 . S
C286 H298 0.956 . S
C286 H299 0.961 . S
C286 H300 0.961 . S
C287 C284 1.539 . S
C287 H301 0.958 . S
C287 H302 0.961 . S
C287 H303 0.960 . S
H288 C272 0.931 . S
H289 C277 0.929 . S
H290 C278 0.960 . S
H291 C278 0.962 . S
H292 C278 0.960 . S
H293 C279 0.961 . S
H294 C279 0.961 . S
H295 C279 0.961 . S
H296 C280 0.931 . S
H297 C285 0.930 . S
H298 C286 0.956 . S
H299 C286 0.961 . S
H300 C286 0.961 . S
H301 C287 0.958 . S
H302 C287 0.961 . S
H303 C287 0.960 . S
C304 C305 1.391 . S
C304 C306 1.394 . S
C304 H320 0.931 . S
C305 C304 1.391 . S
C305 C309 1.376 . S
C306 C304 1.394 . S
C306 C307 1.369 . S
C306 C310 1.531 1_655 S
C307 C306 1.369 . S
C307 C308 1.410 . S
C307 C315 1.503 1_654 S
C308 C307 1.410 . S
C308 C309 1.392 . S
C308 C311 1.511 1_554 S
C309 C305 1.376 . S
C309 C308 1.392 . S
C309 H321 0.929 . S
C310 C306 1.531 1_455 S
C310 H322 0.960 . S
C310 H323 0.962 . S
C310 H324 0.960 . S
C311 C308 1.511 1_556 S
C311 H325 0.961 . S
C311 H326 0.961 . S
C311 H327 0.961 . S
C312 C313 1.370 . S
C312 C314 1.363 . S
C312 H328 0.931 . S
C313 C312 1.370 . S
C313 C317 1.408 . S
C314 C312 1.363 . S
C314 C315 1.370 . S
C314 C318 1.524 1_556 S
C315 C307 1.503 1_456 S
C315 C314 1.370 . S
C315 C316 1.403 . S
C316 C315 1.403 . S
C316 C317 1.404 . S
C316 C319 1.539 1_455 S
C317 C313 1.408 . S
C317 C316 1.404 . S
C317 H329 0.930 . S
C318 C314 1.524 1_554 S
C318 H330 0.956 . S
C318 H331 0.961 . S
C318 H332 0.961 1_554 S
C319 C316 1.539 1_655 S
C319 H333 0.958 . S
C319 H334 0.961 . S
C319 H335 0.960 . S
H320 C304 0.931 . S
H321 C309 0.929 . S
H322 C310 0.960 . S
H323 C310 0.962 . S
H324 C310 0.960 . S
H325 C311 0.961 . S
H326 C311 0.961 . S
H327 C311 0.961 . S
H328 C312 0.931 . S
H329 C317 0.930 . S
H330 C318 0.956 . S
H331 C318 0.961 . S
H332 C318 0.961 1_556 S
H333 C319 0.958 . S
H334 C319 0.961 . S
H335 C319 0.960 . S
C336 C337 1.391 . S
C336 C338 1.394 . S
C336 H352 0.931 . S
C337 C336 1.391 . S
C337 C341 1.376 . S
C338 C336 1.394 . S
C338 C339 1.369 . S
C338 C342 1.531 . S
C339 C338 1.369 . S
C339 C340 1.410 1_545 S
C339 C347 1.503 1_545 S
C340 C339 1.410 1_565 S
C340 C341 1.394 1_565 S
C340 C343 1.509 . S
C341 C337 1.376 . S
C341 C340 1.394 1_545 S
C341 H353 0.929 . S
C342 C338 1.531 . S
C342 H354 0.960 . S
C342 H355 0.962 . S
C342 H356 0.960 . S
C343 C340 1.509 . S
C343 H357 0.961 . S
C343 H358 0.961 . S
C343 H359 0.961 . S
C344 C345 1.370 . S
C344 C346 1.363 . S
C344 H360 0.931 . S
C345 C344 1.370 . S
C345 C349 1.408 . S
C346 C344 1.363 . S
C346 C347 1.370 . S
C346 C350 1.524 . S
C347 C339 1.503 1_565 S
C347 C346 1.370 . S
C347 C348 1.403 . S
C348 C347 1.403 . S
C348 C349 1.404 . S
C348 C351 1.539 . S
C349 C345 1.408 . S
C349 C348 1.404 . S
C349 H361 0.930 . S
C350 C346 1.524 . S
C350 H362 0.956 1_565 S
C350 H363 0.961 . S
C350 H364 0.961 . S
C351 C348 1.539 . S
C351 H365 0.958 1_565 S
C351 H366 0.961 . S
C351 H367 0.960 . S
H352 C336 0.931 . S
H353 C341 0.929 . S
H354 C342 0.960 . S
H355 C342 0.962 . S
H356 C342 0.960 . S
H357 C343 0.961 . S
H358 C343 0.961 . S
H359 C343 0.961 . S
H360 C344 0.931 . S
H361 C349 0.930 . S
H362 C350 0.956 1_545 S
H363 C350 0.961 . S
H364 C350 0.961 . S
H365 C351 0.958 1_545 S
H366 C351 0.961 . S
H367 C351 0.960 . S
C368 C369 1.391 . S
C368 C370 1.394 . S
C368 H384 0.931 . S
C369 C368 1.391 . S
C369 C373 1.376 . S
C370 C368 1.394 . S
C370 C371 1.369 . S
C370 C374 1.531 . S
C371 C370 1.369 . S
C371 C372 1.410 . S
C371 C379 1.503 1_556 S
C372 C371 1.410 . S
C372 C373 1.392 . S
C372 C375 1.511 . S
C373 C369 1.376 . S
C373 C372 1.392 . S
C373 H385 0.929 . S
C374 C370 1.531 . S
C374 H386 0.960 1_556 S
C374 H387 0.962 . S
C374 H388 0.960 . S
C375 C372 1.511 . S
C375 H389 0.961 . S
C375 H390 0.961 1_556 S
C375 H391 0.961 1_556 S
C376 C377 1.370 . S
C376 C378 1.363 . S
C376 H392 0.931 . S
C377 C376 1.370 . S
C377 C381 1.408 . S
C378 C376 1.363 . S
C378 C379 1.370 . S
C378 C382 1.524 1_554 S
C379 C371 1.503 1_554 S
C379 C378 1.370 . S
C379 C380 1.403 . S
C380 C379 1.403 . S
C380 C381 1.404 . S
C380 C383 1.539 . S
C381 C377 1.408 . S
C381 C380 1.404 . S
C381 H393 0.930 . S
C382 C378 1.524 1_556 S
C382 H394 0.956 . S
C382 H395 0.961 . S
C382 H396 0.961 . S
C383 C380 1.539 . S
C383 H397 0.958 . S
C383 H398 0.961 . S
C383 H399 0.960 . S
H384 C368 0.931 . S
H385 C373 0.929 . S
H386 C374 0.960 1_554 S
H387 C374 0.962 . S
H388 C374 0.960 . S
H389 C375 0.961 . S
H390 C375 0.961 1_554 S
H391 C375 0.961 1_554 S
H392 C376 0.931 . S
H393 C381 0.930 . S
H394 C382 0.956 . S
H395 C382 0.961 . S
H396 C382 0.961 . S
H397 C383 0.958 . S
H398 C383 0.961 . S
H399 C383 0.960 . S
C400 C401 1.391 . S
C400 C402 1.391 1_655 S
C400 H416 0.931 . S
C401 C400 1.391 . S
C401 C405 1.376 . S
C402 C400 1.391 1_455 S
C402 C403 1.367 1_455 S
C402 C406 1.535 . S
C403 C402 1.367 1_655 S
C403 C404 1.410 . S
C403 C411 1.503 1_655 S
C404 C403 1.410 . S
C404 C405 1.392 . S
C404 C407 1.511 . S
C405 C401 1.376 . S
C405 C404 1.392 . S
C405 H417 0.929 . S
C406 C402 1.535 . S
C406 H418 0.960 . S
C406 H419 0.962 . S
C406 H420 0.960 . S
C407 C404 1.511 . S
C407 H421 0.961 . S
C407 H422 0.961 . S
C407 H423 0.961 . S
C408 C409 1.370 . S
C408 C410 1.363 . S
C408 H424 0.931 . S
C409 C408 1.370 . S
C409 C413 1.408 . S
C410 C408 1.363 . S
C410 C411 1.370 . S
C410 C414 1.524 . S
C411 C403 1.503 1_455 S
C411 C410 1.370 . S
C411 C412 1.403 . S
C412 C411 1.403 . S
C412 C413 1.404 . S
C412 C415 1.539 . S
C413 C409 1.408 . S
C413 C412 1.404 . S
C413 H425 0.930 . S
C414 C410 1.524 . S
C414 H426 0.956 . S
C414 H427 0.961 1_455 S
C414 H428 0.961 . S
C415 C412 1.539 . S
C415 H429 0.958 . S
C415 H430 0.961 . S
C415 H431 0.960 . S
H416 C400 0.931 . S
H417 C405 0.929 . S
H418 C406 0.960 . S
H419 C406 0.962 . S
H420 C406 0.960 . S
H421 C407 0.961 . S
H422 C407 0.961 . S
H423 C407 0.961 . S
H424 C408 0.931 . S
H425 C413 0.930 . S
H426 C414 0.956 . S
H427 C414 0.961 1_655 S
H428 C414 0.961 . S
H429 C415 0.958 . S
H430 C415 0.961 . S
H431 C415 0.960 . S
C432 C433 1.391 . S
C432 C434 1.394 . S
C432 H448 0.931 . S
C433 C432 1.391 . S
C433 C437 1.376 . S
C434 C432 1.394 . S
C434 C435 1.369 . S
C434 C438 1.531 . S
C435 C434 1.369 . S
C435 C436 1.410 . S
C435 C443 1.503 . S
C436 C435 1.410 . S
C436 C437 1.392 . S
C436 C439 1.511 . S
C437 C433 1.376 . S
C437 C436 1.392 . S
C437 H449 0.929 . S
C438 C434 1.531 . S
C438 H450 0.960 . S
C438 H451 0.962 . S
C438 H452 0.960 . S
C439 C436 1.511 . S
C439 H453 0.961 . S
C439 H454 0.961 . S
C439 H455 0.961 . S
C440 C441 1.370 . S
C440 C442 1.363 . S
C440 H456 0.931 . S
C441 C440 1.370 . S
C441 C445 1.408 . S
C442 C440 1.363 . S
C442 C443 1.370 . S
C442 C446 1.524 . S
C443 C435 1.503 . S
C443 C442 1.370 . S
C443 C444 1.403 . S
C444 C443 1.403 . S
C444 C445 1.404 . S
C444 C447 1.539 . S
C445 C441 1.408 . S
C445 C444 1.404 . S
C445 H457 0.930 . S
C446 C442 1.524 . S
C446 H458 0.956 . S
C446 H459 0.961 . S
C446 H460 0.961 . S
C447 C444 1.539 . S
C447 H461 0.958 . S
C447 H462 0.961 . S
C447 H463 0.960 . S
H448 C432 0.931 . S
H449 C437 0.929 . S
H450 C438 0.960 . S
H451 C438 0.962 . S
H452 C438 0.960 . S
H453 C439 0.961 . S
H454 C439 0.961 . S
H455 C439 0.961 . S
H456 C440 0.931 . S
H457 C445 0.930 . S
H458 C446 0.956 . S
H459 C446 0.961 . S
H460 C446 0.961 . S
H461 C447 0.958 . S
H462 C447 0.961 . S
H463 C447 0.960 . S
C464 C465 1.391 . S
C464 C466 1.394 . S
C464 H480 0.931 . S
C465 C464 1.391 . S
C465 C469 1.376 . S
C466 C464 1.394 . S
C466 C467 1.369 . S
C466 C470 1.531 . S
C467 C466 1.369 . S
C467 C468 1.410 . S
C467 C475 1.503 . S
C468 C467 1.410 . S
C468 C469 1.392 . S
C468 C471 1.511 . S
C469 C465 1.376 . S
C469 C468 1.392 . S
C469 H481 0.929 . S
C470 C466 1.531 . S
C470 H482 0.960 . S
C470 H483 0.962 . S
C470 H484 0.960 . S
C471 C468 1.511 . S
C471 H485 0.961 . S
C471 H486 0.961 . S
C471 H487 0.961 . S
C472 C473 1.370 . S
C472 C474 1.363 . S
C472 H488 0.931 . S
C473 C472 1.370 . S
C473 C477 1.408 . S
C474 C472 1.363 . S
C474 C475 1.370 . S
C474 C478 1.524 . S
C475 C467 1.503 . S
C475 C474 1.370 . S
C475 C476 1.403 . S
C476 C475 1.403 . S
C476 C477 1.404 . S
C476 C479 1.539 . S
C477 C473 1.408 . S
C477 C476 1.404 . S
C477 H489 0.930 . S
C478 C474 1.524 . S
C478 H490 0.956 . S
C478 H491 0.961 . S
C478 H492 0.961 . S
C479 C476 1.539 . S
C479 H493 0.958 . S
C479 H494 0.961 . S
C479 H495 0.960 . S
H480 C464 0.931 . S
H481 C469 0.929 . S
H482 C470 0.960 . S
H483 C470 0.962 . S
H484 C470 0.960 . S
H485 C471 0.961 . S
H486 C471 0.961 . S
H487 C471 0.961 . S
H488 C472 0.931 . S
H489 C477 0.930 . S
H490 C478 0.956 . S
H491 C478 0.961 . S
H492 C478 0.961 . S
H493 C479 0.958 . S
H494 C479 0.961 . S
H495 C479 0.960 . S
C496 C497 1.391 . S
C496 C498 1.394 . S
C496 H512 0.931 . S
C497 C496 1.391 . S
C497 C501 1.376 . S
C498 C496 1.394 . S
C498 C499 1.369 . S
C498 C502 1.531 . S
C499 C498 1.369 . S
C499 C500 1.410 . S
C499 C507 1.503 . S
C500 C499 1.410 . S
C500 C501 1.392 . S
C500 C503 1.511 . S
C501 C497 1.376 . S
C501 C500 1.392 . S
C501 H513 0.929 . S
C502 C498 1.531 . S
C502 H514 0.960 . S
C502 H515 0.962 . S
C502 H516 0.960 . S
C503 C500 1.511 . S
C503 H517 0.961 . S
C503 H518 0.961 . S
C503 H519 0.961 . S
C504 C505 1.370 . S
C504 C506 1.363 . S
C504 H520 0.931 . S
C505 C504 1.370 . S
C505 C509 1.408 . S
C506 C504 1.363 . S
C506 C507 1.370 . S
C506 C510 1.524 . S
C507 C499 1.503 . S
C507 C506 1.370 . S
C507 C508 1.403 . S
C508 C507 1.403 . S
C508 C509 1.404 . S
C508 C511 1.539 . S
C509 C505 1.408 . S
C509 C508 1.404 . S
C509 H521 0.930 . S
C510 C506 1.524 . S
C510 H522 0.956 . S
C510 H523 0.961 . S
C510 H524 0.961 . S
C511 C508 1.539 . S
C511 H525 0.958 . S
C511 H526 0.961 . S
C511 H527 0.960 . S
H512 C496 0.931 . S
H513 C501 0.929 . S
H514 C502 0.960 . S
H515 C502 0.962 . S
H516 C502 0.960 . S
H517 C503 0.961 . S
H518 C503 0.961 . S
H519 C503 0.961 . S
H520 C504 0.931 . S
H521 C509 0.930 . S
H522 C510 0.956 . S
H523 C510 0.961 . S
H524 C510 0.961 . S
H525 C511 0.958 . S
H526 C511 0.961 . S
H527 C511 0.960 . S
C528 C529 1.391 . S
C528 C530 1.394 . S
C528 H544 0.931 . S
C529 C528 1.391 . S
C529 C533 1.376 . S
C530 C528 1.394 . S
C530 C531 1.369 . S
C530 C534 1.531 . S
C531 C530 1.369 . S
C531 C532 1.410 . S
C531 C539 1.503 . S
C532 C531 1.410 . S
C532 C533 1.392 . S
C532 C535 1.511 . S
C533 C529 1.376 . S
C533 C532 1.392 . S
C533 H545 0.929 . S
C534 C530 1.531 . S
C534 H546 0.960 . S
C534 H547 0.962 . S
C534 H548 0.960 . S
C535 C532 1.511 . S
C535 H549 0.961 . S
C535 H550 0.961 . S
C535 H551 0.961 . S
C536 C537 1.370 . S
C536 C538 1.363 . S
C536 H552 0.931 . S
C537 C536 1.370 . S
C537 C541 1.408 . S
C538 C536 1.363 . S
C538 C539 1.370 . S
C538 C542 1.524 . S
C539 C531 1.503 . S
C539 C538 1.370 . S
C539 C540 1.403 . S
C540 C539 1.403 . S
C540 C541 1.404 . S
C540 C543 1.539 . S
C541 C537 1.408 . S
C541 C540 1.404 . S
C541 H553 0.930 . S
C542 C538 1.524 . S
C542 H554 0.956 . S
C542 H555 0.961 . S
C542 H556 0.961 . S
C543 C540 1.539 . S
C543 H557 0.958 . S
C543 H558 0.961 . S
C543 H559 0.960 . S
H544 C528 0.931 . S
H545 C533 0.929 . S
H546 C534 0.960 . S
H547 C534 0.962 . S
H548 C534 0.960 . S
H549 C535 0.961 . S
H550 C535 0.961 . S
H551 C535 0.961 . S
H552 C536 0.931 . S
H553 C541 0.930 . S
H554 C542 0.956 . S
H555 C542 0.961 . S
H556 C542 0.961 . S
H557 C543 0.958 . S
H558 C543 0.961 . S
H559 C543 0.960 . S
C560 C561 1.391 . S
C560 C562 1.394 . S
C560 H576 0.931 . S
C561 C560 1.391 . S
C561 C565 1.376 . S
C562 C560 1.394 . S
C562 C563 1.369 . S
C562 C566 1.531 . S
C563 C562 1.369 . S
C563 C564 1.410 . S
C563 C571 1.503 . S
C564 C563 1.410 . S
C564 C565 1.392 . S
C564 C567 1.511 . S
C565 C561 1.376 . S
C565 C564 1.392 . S
C565 H577 0.929 . S
C566 C562 1.531 . S
C566 H578 0.960 . S
C566 H579 0.962 . S
C566 H580 0.960 . S
C567 C564 1.511 . S
C567 H581 0.961 . S
C567 H582 0.961 . S
C567 H583 0.961 . S
C568 C569 1.370 . S
C568 C570 1.363 . S
C568 H584 0.931 . S
C569 C568 1.370 . S
C569 C573 1.408 . S
C570 C568 1.363 . S
C570 C571 1.370 . S
C570 C574 1.524 . S
C571 C563 1.503 . S
C571 C570 1.370 . S
C571 C572 1.403 . S
C572 C571 1.403 . S
C572 C573 1.404 . S
C572 C575 1.539 . S
C573 C569 1.408 . S
C573 C572 1.404 . S
C573 H585 0.930 . S
C574 C570 1.524 . S
C574 H586 0.956 . S
C574 H587 0.961 . S
C574 H588 0.961 . S
C575 C572 1.539 . S
C575 H589 0.958 . S
C575 H590 0.961 . S
C575 H591 0.960 . S
H576 C560 0.931 . S
H577 C565 0.929 . S
H578 C566 0.960 . S
H579 C566 0.962 . S
H580 C566 0.960 . S
H581 C567 0.961 . S
H582 C567 0.961 . S
H583 C567 0.961 . S
H584 C568 0.931 . S
H585 C573 0.930 . S
H586 C574 0.956 . S
H587 C574 0.961 . S
H588 C574 0.961 . S
H589 C575 0.958 . S
H590 C575 0.961 . S
H591 C575 0.960 . S
C592 C593 1.391 . S
C592 C594 1.394 . S
C592 H608 0.931 . S
C593 C592 1.391 . S
C593 C597 1.376 . S
C594 C592 1.394 . S
C594 C595 1.369 . S
C594 C598 1.531 . S
C595 C594 1.369 . S
C595 C596 1.410 . S
C595 C603 1.503 . S
C596 C595 1.410 . S
C596 C597 1.392 . S
C596 C599 1.511 . S
C597 C593 1.376 . S
C597 C596 1.392 . S
C597 H609 0.929 . S
C598 C594 1.531 . S
C598 H610 0.960 . S
C598 H611 0.962 . S
C598 H612 0.960 . S
C599 C596 1.511 . S
C599 H613 0.961 . S
C599 H614 0.961 . S
C599 H615 0.961 . S
C600 C601 1.370 . S
C600 C602 1.363 . S
C600 H616 0.931 . S
C601 C600 1.370 . S
C601 C605 1.408 . S
C602 C600 1.363 . S
C602 C603 1.370 . S
C602 C606 1.524 . S
C603 C595 1.503 . S
C603 C602 1.370 . S
C603 C604 1.403 . S
C604 C603 1.403 . S
C604 C605 1.404 . S
C604 C607 1.539 . S
C605 C601 1.408 . S
C605 C604 1.404 . S
C605 H617 0.930 . S
C606 C602 1.524 . S
C606 H618 0.956 . S
C606 H619 0.961 . S
C606 H620 0.961 . S
C607 C604 1.539 . S
C607 H621 0.958 . S
C607 H622 0.961 . S
C607 H623 0.960 . S
H608 C592 0.931 . S
H609 C597 0.929 . S
H610 C598 0.960 . S
H611 C598 0.962 . S
H612 C598 0.960 . S
H613 C599 0.961 . S
H614 C599 0.961 . S
H615 C599 0.961 . S
H616 C600 0.931 . S
H617 C605 0.930 . S
H618 C606 0.956 . S
H619 C606 0.961 . S
H620 C606 0.961 . S
H621 C607 0.958 . S
H622 C607 0.961 . S
H623 C607 0.960 . S
C624 C625 1.391 . S
C624 C626 1.394 . S
C624 H640 0.931 . S
C625 C624 1.391 . S
C625 C629 1.376 . S
C626 C624 1.394 . S
C626 C627 1.369 . S
C626 C630 1.531 . S
C627 C626 1.369 . S
C627 C628 1.410 . S
C627 C635 1.503 . S
C628 C627 1.410 . S
C628 C629 1.392 . S
C628 C631 1.511 . S
C629 C625 1.376 . S
C629 C628 1.392 . S
C629 H641 0.929 . S
C630 C626 1.531 . S
C630 H642 0.960 . S
C630 H643 0.962 . S
C630 H644 0.960 . S
C631 C628 1.511 . S
C631 H645 0.961 . S
C631 H646 0.959 . S
C631 H647 0.961 . S
C632 C633 1.370 . S
C632 C634 1.363 . S
C632 H648 0.931 . S
C633 C632 1.370 . S
C633 C637 1.408 1_655 S
C634 C632 1.363 . S
C634 C635 1.370 1_655 S
C634 C638 1.524 . S
C635 C627 1.503 . S
C635 C634 1.370 1_455 S
C635 C636 1.403 . S
C636 C635 1.403 . S
C636 C637 1.404 . S
C636 C639 1.539 . S
C637 C633 1.408 1_455 S
C637 C636 1.404 . S
C637 H649 0.930 . S
C638 C634 1.524 . S
C638 H650 0.956 . S
C638 H651 0.961 . S
C638 H652 0.961 . S
C639 C636 1.539 . S
C639 H653 0.958 . S
C639 H654 0.961 . S
C639 H655 0.960 . S
H640 C624 0.931 . S
H641 C629 0.929 . S
H642 C630 0.960 . S
H643 C630 0.962 . S
H644 C630 0.960 . S
H645 C631 0.961 . S
H646 C631 0.959 . S
H647 C631 0.961 . S
H648 C632 0.931 . S
H649 C637 0.930 . S
H650 C638 0.956 . S
H651 C638 0.961 . S
H652 C638 0.961 . S
H653 C639 0.958 . S
H654 C639 0.961 . S
H655 C639 0.960 . S
C656 C657 1.391 . S
C656 C658 1.394 . S
C656 H672 0.931 . S
C657 C656 1.391 . S
C657 C661 1.376 . S
C658 C656 1.394 . S
C658 C659 1.369 . S
C658 C662 1.531 1_565 S
C659 C658 1.369 . S
C659 C660 1.410 . S
C659 C667 1.503 . S
C660 C659 1.410 . S
C660 C661 1.392 . S
C660 C663 1.511 . S
C661 C657 1.376 . S
C661 C660 1.392 . S
C661 H673 0.929 . S
C662 C658 1.531 1_545 S
C662 H674 0.960 . S
C662 H675 0.962 . S
C662 H676 0.960 . S
C663 C660 1.511 . S
C663 H677 0.961 . S
C663 H678 0.961 . S
C663 H679 0.961 . S
C664 C665 1.370 1_565 S
C664 C666 1.363 . S
C664 H680 0.931 . S
C665 C664 1.370 1_545 S
C665 C669 1.408 . S
C666 C664 1.363 . S
C666 C667 1.370 . S
C666 C670 1.524 . S
C667 C659 1.503 . S
C667 C666 1.370 . S
C667 C668 1.403 1_565 S
C668 C667 1.403 1_545 S
C668 C669 1.404 . S
C668 C671 1.539 . S
C669 C665 1.408 . S
C669 C668 1.404 . S
C669 H681 0.930 . S
C670 C666 1.524 . S
C670 H682 0.956 . S
C670 H683 0.961 . S
C670 H684 0.961 . S
C671 C668 1.539 . S
C671 H685 0.958 . S
C671 H686 0.961 . S
C671 H687 0.960 1_545 S
H672 C656 0.931 . S
H673 C661 0.929 . S
H674 C662 0.960 . S
H675 C662 0.962 . S
H676 C662 0.960 . S
H677 C663 0.961 . S
H678 C663 0.961 . S
H679 C663 0.961 . S
H680 C664 0.931 . S
H681 C669 0.930 . S
H682 C670 0.956 . S
H683 C670 0.961 . S
H684 C670 0.961 . S
H685 C671 0.958 . S
H686 C671 0.961 . S
H687 C671 0.960 1_565 S
C688 C689 1.391 . S
C688 C690 1.394 . S
C688 H704 0.931 . S
C689 C688 1.391 . S
C689 C693 1.376 . S
C690 C688 1.394 . S
C690 C691 1.369 . S
C690 C694 1.531 . S
C691 C690 1.369 . S
C691 C692 1.410 . S
C691 C699 1.503 . S
C692 C691 1.410 . S
C692 C693 1.392 . S
C692 C695 1.511 . S
C693 C689 1.376 . S
C693 C692 1.392 . S
C693 H705 0.929 . S
C694 C690 1.531 . S
C694 H706 0.960 . S
C694 H707 0.962 . S
C694 H708 0.960 . S
C695 C692 1.511 . S
C695 H709 0.961 . S
C695 H710 0.961 . S
C695 H711 0.961 . S
C696 C697 1.370 . S
C696 C698 1.363 . S
C696 H712 0.931 . S
C697 C696 1.370 . S
C697 C701 1.408 . S
C698 C696 1.363 . S
C698 C699 1.370 . S
C698 C702 1.524 . S
C699 C691 1.503 . S
C699 C698 1.370 . S
C699 C700 1.403 . S
C700 C699 1.403 . S
C700 C701 1.404 . S
C700 C703 1.539 . S
C701 C697 1.408 . S
C701 C700 1.404 . S
C701 H713 0.930 . S
C702 C698 1.524 . S
C702 H714 0.956 . S
C702 H715 0.961 . S
C702 H716 0.961 . S
C703 C700 1.539 . S
C703 H717 0.958 . S
C703 H718 0.961 . S
C703 H719 0.960 . S
H704 C688 0.931 . S
H705 C693 0.929 . S
H706 C694 0.960 . S
H707 C694 0.962 . S
H708 C694 0.960 . S
H709 C695 0.961 . S
H710 C695 0.961 . S
H711 C695 0.961 . S
H712 C696 0.931 . S
H713 C701 0.930 . S
H714 C702 0.956 . S
H715 C702 0.961 . S
H716 C702 0.961 . S
H717 C703 0.958 . S
H718 C703 0.961 . S
H719 C703 0.960 . S
C720 C721 1.391 . S
C720 C722 1.394 . S
C720 H736 0.931 . S
C721 C720 1.391 . S
C721 C725 1.376 . S
C722 C720 1.394 . S
C722 C723 1.369 . S
C722 C726 1.531 1_545 S
C723 C722 1.369 . S
C723 C724 1.410 . S
C723 C731 1.503 . S
C724 C723 1.410 . S
C724 C725 1.392 . S
C724 C727 1.511 . S
C725 C721 1.376 . S
C725 C724 1.392 . S
C725 H737 0.929 . S
C726 C722 1.531 1_565 S
C726 H738 0.960 . S
C726 H739 0.962 . S
C726 H740 0.960 . S
C727 C724 1.511 . S
C727 H741 0.961 . S
C727 H742 0.961 . S
C727 H743 0.961 . S
C728 C729 1.370 1_545 S
C728 C730 1.363 . S
C728 H744 0.931 . S
C729 C728 1.370 1_565 S
C729 C733 1.408 . S
C730 C728 1.363 . S
C730 C731 1.370 . S
C730 C734 1.524 . S
C731 C723 1.503 . S
C731 C730 1.370 . S
C731 C732 1.401 1_545 S
C732 C731 1.401 1_565 S
C732 C733 1.407 . S
C732 C735 1.538 . S
C733 C729 1.408 . S
C733 C732 1.407 . S
C733 H745 0.930 . S
C734 C730 1.524 . S
C734 H746 0.956 . S
C734 H747 0.961 . S
C734 H748 0.961 . S
C735 C732 1.538 . S
C735 H749 0.958 . S
C735 H750 0.961 . S
C735 H751 0.960 1_565 S
H736 C720 0.931 . S
H737 C725 0.929 . S
H738 C726 0.960 . S
H739 C726 0.962 . S
H740 C726 0.960 . S
H741 C727 0.961 . S
H742 C727 0.961 . S
H743 C727 0.961 . S
H744 C728 0.931 . S
H745 C733 0.930 . S
H746 C734 0.956 . S
H747 C734 0.961 . S
H748 C734 0.961 . S
H749 C735 0.958 . S
H750 C735 0.961 . S
H751 C735 0.960 1_545 S
C752 C753 1.391 . S
C752 C754 1.394 . S
C752 H768 0.931 . S
C753 C752 1.391 . S
C753 C757 1.376 . S
C754 C752 1.394 . S
C754 C755 1.369 . S
C754 C758 1.531 . S
C755 C754 1.369 . S
C755 C756 1.410 . S
C755 C763 1.503 . S
C756 C755 1.410 . S
C756 C757 1.392 . S
C756 C759 1.511 . S
C757 C753 1.376 . S
C757 C756 1.392 . S
C757 H769 0.929 . S
C758 C754 1.531 . S
C758 H770 0.960 . S
C758 H771 0.962 . S
C758 H772 0.960 . S
C759 C756 1.511 . S
C759 H773 0.961 . S
C759 H774 0.961 . S
C759 H775 0.961 . S
C760 C761 1.370 . S
C760 C762 1.363 . S
C760 H776 0.931 . S
C761 C760 1.370 . S
C761 C765 1.408 . S
C762 C760 1.363 . S
C762 C763 1.370 . S
C762 C766 1.524 . S
C763 C755 1.503 . S
C763 C762 1.370 . S
C763 C764 1.403 . S
C764 C763 1.403 . S
C764 C765 1.404 . S
C764 C767 1.539 . S
C765 C761 1.408 . S
C765 C764 1.404 . S
C765 H777 0.930 . S
C766 C762 1.524 . S
C766 H778 0.956 . S
C766 H779 0.961 . S
C766 H780 0.961 . S
C767 C764 1.539 . S
C767 H781 0.958 . S
C767 H782 0.961 . S
C767 H783 0.960 . S
H768 C752 0.931 . S
H769 C757 0.929 . S
H770 C758 0.960 . S
H771 C758 0.962 . S
H772 C758 0.960 . S
H773 C759 0.961 . S
H774 C759 0.961 . S
H775 C759 0.961 . S
H776 C760 0.931 . S
H777 C765 0.930 . S
H778 C766 0.956 . S
H779 C766 0.961 . S
H780 C766 0.961 . S
H781 C767 0.958 . S
H782 C767 0.961 . S
H783 C767 0.960 . S
C784 C785 1.391 1_655 S
C784 C786 1.394 . S
C784 H800 0.931 . S
C785 C784 1.391 1_455 S
C785 C789 1.376 . S
C786 C784 1.394 . S
C786 C787 1.369 . S
C786 C790 1.531 . S
C787 C786 1.369 . S
C787 C788 1.410 1_655 S
C787 C795 1.503 . S
C788 C787 1.410 1_455 S
C788 C789 1.392 . S
C788 C791 1.511 . S
C789 C785 1.376 . S
C789 C788 1.392 . S
C789 H801 0.929 . S
C790 C786 1.531 . S
C790 H802 0.960 . S
C790 H803 0.962 . S
C790 H804 0.960 . S
C791 C788 1.511 . S
C791 H805 0.961 . S
C791 H806 0.961 . S
C791 H807 0.961 . S
C792 C793 1.370 . S
C792 C794 1.363 . S
C792 H808 0.931 . S
C793 C792 1.370 . S
C793 C797 1.408 . S
C794 C792 1.363 . S
C794 C795 1.370 . S
C794 C798 1.524 . S
C795 C787 1.503 . S
C795 C794 1.370 . S
C795 C796 1.403 . S
C796 C795 1.403 . S
C796 C797 1.404 . S
C796 C799 1.539 . S
C797 C793 1.408 . S
C797 C796 1.404 . S
C797 H809 0.930 . S
C798 C794 1.524 . S
C798 H810 0.956 . S
C798 H811 0.961 . S
C798 H812 0.961 . S
C799 C796 1.539 . S
C799 H813 0.958 . S
C799 H814 0.983 . S
C799 H815 0.960 1_655 S
H800 C784 0.931 . S
H801 C789 0.929 . S
H802 C790 0.960 . S
H803 C790 0.962 . S
H804 C790 0.960 . S
H805 C791 0.961 . S
H806 C791 0.961 . S
H807 C791 0.961 . S
H808 C792 0.931 . S
H809 C797 0.930 . S
H810 C798 0.956 . S
H811 C798 0.961 . S
H812 C798 0.961 . S
H813 C799 0.958 . S
H814 C799 0.983 . S
H815 C799 0.960 1_455 S
C241 C179 2.300 . S
C249 C19 2.484 . S
C273 C210 2.458 . S
C281 C50 2.341 . S
C305 C99 2.464 . S
C313 C139 2.333 . S
C337 C10 2.349 . S
C345 C170 2.471 . S
C369 C219 2.357 . S
C377 C59 2.472 . S
C401 C90 2.306 . S
C409 C130 2.485 . S
C433 C7 1.895 . S
C441 C82 1.857 . S
C465 C47 1.902 . S
C473 C2 1.863 . S
C497 C87 1.895 . S
C505 C42 1.857 . S
C529 C136 1.911 . S
C537 C171 1.849 . S
C561 C176 1.893 . S
C569 C211 1.862 . S
C593 C131 1.839 . S
C601 C216 1.910 . S
C625 C16 1.166 . S
C633 C91 1.256 . S
C657 C56 1.235 1_455 S
C665 C11 1.248 . S
C689 C96 1.200 1_565 S
C697 C51 1.245 . S
C721 C127 1.220 . S
C729 C162 1.244 . S
C753 C167 1.200 1_655 S
C761 C202 1.254 . S
C785 C122 1.225 . S
C793 C207 1.220 1_545 S
