# Generated by pormake.
# Topology tfs, (6)-cn, num edge types: 1
# Building blocks:
#     Node 0, Type 0, BuildingBlock: LEVNOQ01_clean_sbu_1, # of connection points: 6
#     Node 1, Type 0, BuildingBlock: LEVNOQ01_clean_sbu_1, # of connection points: 6
#     Node 2, Type 0, BuildingBlock: LEVNOQ01_clean_sbu_1, # of connection points: 6
#     Node 3, Type 0, BuildingBlock: LEVNOQ01_clean_sbu_1, # of connection points: 6
#     Node 4, Type 0, BuildingBlock: LEVNOQ01_clean_sbu_1, # of connection points: 6
#     Node 5, Type 0, BuildingBlock: LEVNOQ01_clean_sbu_1, # of connection points: 6
#     Edge 6, Type (0, 0), BuildingBlock: ZUJKAS_clean_linker_0, # of connection points: 2
#     Edge 7, Type (0, 0), BuildingBlock: ZUJKAS_clean_linker_0, # of connection points: 2
#     Edge 8, Type (0, 0), BuildingBlock: ZUJKAS_clean_linker_0, # of connection points: 2
#     Edge 9, Type (0, 0), BuildingBlock: ZUJKAS_clean_linker_0, # of connection points: 2
#     Edge 10, Type (0, 0), BuildingBlock: ZUJKAS_clean_linker_0, # of connection points: 2
#     Edge 11, Type (0, 0), BuildingBlock: ZUJKAS_clean_linker_0, # of connection points: 2
#     Edge 12, Type (0, 0), BuildingBlock: ZUJKAS_clean_linker_0, # of connection points: 2
#     Edge 13, Type (0, 0), BuildingBlock: ZUJKAS_clean_linker_0, # of connection points: 2
#     Edge 14, Type (0, 0), BuildingBlock: ZUJKAS_clean_linker_0, # of connection points: 2
#     Edge 15, Type (0, 0), BuildingBlock: ZUJKAS_clean_linker_0, # of connection points: 2
#     Edge 16, Type (0, 0), BuildingBlock: ZUJKAS_clean_linker_0, # of connection points: 2
#     Edge 17, Type (0, 0), BuildingBlock: ZUJKAS_clean_linker_0, # of connection points: 2
#     Edge 18, Type (0, 0), BuildingBlock: ZUJKAS_clean_linker_0, # of connection points: 2
#     Edge 19, Type (0, 0), BuildingBlock: ZUJKAS_clean_linker_0, # of connection points: 2
#     Edge 20, Type (0, 0), BuildingBlock: ZUJKAS_clean_linker_0, # of connection points: 2
#     Edge 21, Type (0, 0), BuildingBlock: ZUJKAS_clean_linker_0, # of connection points: 2
#     Edge 22, Type (0, 0), BuildingBlock: ZUJKAS_clean_linker_0, # of connection points: 2
#     Edge 23, Type (0, 0), BuildingBlock: ZUJKAS_clean_linker_0, # of connection points: 2
# Relax obj value: 0.217
# Max RMSD: 0.175
# Mean RMSD: 0.175
data_MOF--net-tfs--node1-LEVNOQ01_clean_sbu_1--edge1-ZUJKAS_clean_linker_0
_symmetry_space_group_name_H-M    P1
_symmetry_Int_Tables_number       1
_symmetry_cell_setting            triclinic
loop_
_symmetry_equiv_pos_as_xyz
'x, y, z'
_cell_length_a     54.44531
_cell_length_b     54.568171
_cell_length_c     20.608153
_cell_angle_alpha  90.175526
_cell_angle_beta   89.836145
_cell_angle_gamma 119.89261
loop_
_atom_site_label
_atom_site_type_symbol
_atom_site_fract_x
_atom_site_fract_y
_atom_site_fract_z
_atom_type_partial_charge
O0 O 0.27277 0.44592 0.02783 0.0
Mg1 Mg 0.24663 0.40437 0.053 0.0
O2 O 0.23744 0.45068 0.99072 0.0
Mg3 Mg 0.19357 0.40991 0.00025 0.0
O4 O 0.20868 0.3777 0.00593 0.0
O5 O 0.2491 0.38296 0.97266 0.0
O6 O 0.14755 0.37091 0.00923 0.0
O7 O 0.19469 0.40357 0.88671 0.0
Mg8 Mg 0.15956 0.42178 0.92034 0.0
O9 O 0.17932 0.44372 0.00076 0.0
O10 O 0.12803 0.37958 0.92516 0.0
O11 O 0.18623 0.43481 0.84099 0.0
O12 O 0.14611 0.44852 0.94644 0.0
C13 C 0.2093 0.40963 0.15706 0.0
C14 C 0.26362 0.46064 0.00224 0.0
C15 C 0.22211 0.3697 0.96777 0.0
C16 C 0.12689 0.36336 0.96999 0.0
C17 C 0.19505 0.4175 0.83683 0.0
C18 C 0.16559 0.45712 0.99022 0.0
O19 O 0.22831 0.40326 0.14384 0.0
O20 O 0.19523 0.4138 0.11303 0.0
O21 O 0.81974 0.27655 0.04273 0.0
Mg22 Mg 0.83486 0.24941 0.0647 0.0
O23 O 0.78125 0.2432 -0.00471 0.0
Mg24 Mg 0.7787 0.19984 -0.00288 0.0
O25 O 0.82569 0.2152 0.00592 0.0
O26 O 0.86483 0.2559 -0.00419 0.0
O27 O 0.77505 0.1534 -0.00049 0.0
O28 O 0.78624 0.20661 0.88639 0.0
Mg29 Mg 0.73837 0.15921 0.94389 0.0
O30 O 0.73089 0.18803 0.98871 0.0
O31 O 0.72909 0.12629 0.00501 0.0
O32 O 0.75931 0.16308 0.85475 0.0
O33 O 0.70161 0.15544 0.91683 0.0
C34 C 0.7921 0.20742 0.15849 0.0
C35 C 0.79684 0.26863 0.01306 0.0
C36 C 0.84907 0.23051 0.97531 0.0
C37 C 0.7533 0.12929 0.01173 0.0
C38 C 0.77777 0.18817 0.84186 0.0
C39 C 0.70683 0.17511 0.95833 0.0
O40 O 0.81784 0.2263 0.14977 0.0
O41 O 0.77428 0.19702 0.11151 0.0
O42 O 0.53145 0.80957 0.06243 0.0
Mg43 Mg 0.57486 0.82876 0.0716 0.0
O44 O 0.52861 0.77898 0.98845 0.0
Mg45 Mg 0.56975 0.77591 0.00212 0.0
O46 O 0.60101 0.82348 0.00788 0.0
O47 O 0.59097 0.85752 -0.00312 0.0
O48 O 0.60833 0.76908 0.01977 0.0
O49 O 0.575 0.78336 0.88859 0.0
Mg50 Mg 0.56281 0.72424 0.90846 0.0
O51 O 0.54133 0.72753 0.99299 0.0
O52 O 0.60539 0.7576 0.91875 0.0
O53 O 0.56686 0.74675 0.82597 0.0
O54 O 0.5219 0.71767 0.89758 0.0
C55 C 0.57566 0.78925 0.1622 0.0
C56 C 0.51776 0.79152 0.01937 0.0
C57 C 0.60552 0.84617 0.97844 0.0
C58 C 0.61761 0.76134 0.97228 0.0
C59 C 0.57301 0.77222 0.83276 0.0
C60 C 0.51865 0.71649 0.95881 0.0
O61 O 0.58699 0.81572 0.15369 0.0
O62 O 0.5643 0.7715 0.11559 0.0
O63 O 0.70622 0.5423 0.03371 0.0
Mg64 Mg 0.73789 0.5794 0.07578 0.0
O65 O 0.73851 0.53206 -0.00193 0.0
Mg66 Mg 0.78403 0.57217 -0.00069 0.0
O67 O 0.76756 0.60308 0.00838 0.0
O68 O 0.73903 0.61627 0.05605 0.0
O69 O 0.8304 0.61011 -0.00456 0.0
O70 O 0.77916 0.57783 0.88724 0.0
Mg71 Mg 0.82167 0.55344 0.90398 0.0
O72 O 0.80107 0.54209 0.99217 0.0
O73 O 0.85385 0.59194 0.94274 0.0
O74 O 0.80708 0.56739 0.82935 0.0
O75 O 0.78825 0.51162 0.91437 0.0
C76 C 0.77574 0.56973 0.16404 0.0
C77 C 0.71268 0.52513 0.00828 0.0
C78 C 0.75823 0.62064 0.01347 0.0
C79 C 0.85327 0.61215 0.97245 0.0
C80 C 0.78973 0.5762 0.83316 0.0
C81 C 0.78791 0.51615 0.97502 0.0
O82 O 0.75554 0.57487 0.16087 0.0
O83 O 0.78846 0.56828 0.11303 0.0
O84 O 0.16082 0.71223 0.04596 0.0
Mg85 Mg 0.15327 0.74329 0.08332 0.0
O86 O 0.19957 0.74379 -0.00507 0.0
Mg87 Mg 0.2036 0.78803 -0.00314 0.0
O88 O 0.15657 0.77113 0.01408 0.0
O89 O 0.1163 0.74257 0.06665 0.0
O90 O 0.21235 0.83474 -0.00219 0.0
O91 O 0.18968 0.78202 0.88609 0.0
Mg92 Mg 0.25148 0.82145 0.89223 0.0
O93 O 0.2494 0.80228 0.97635 0.0
O94 O 0.24215 0.85298 0.91421 0.0
O95 O 0.22684 0.7917 0.82462 0.0
O96 O 0.28915 0.82488 0.91843 0.0
C97 C 0.20209 0.7833 0.16373 0.0
C98 C 0.183 0.71863 0.01369 0.0
C99 C 0.12983 0.7617 0.02327 0.0
C100 C 0.22821 0.85547 0.96063 0.0
C101 C 0.20051 0.78155 0.83132 0.0
C102 C 0.27561 0.80957 0.96785 0.0
O103 O 0.17651 0.7638 0.1647 0.0
O104 O 0.21536 0.79388 0.11029 0.0
O105 O 0.44075 0.16357 0.04587 0.0
Mg106 Mg 0.40215 0.156 0.08446 0.0
O107 O 0.44995 0.20444 0.00146 0.0
Mg108 Mg 0.4095 0.20814 -0.0014 0.0
O109 O 0.38008 0.16065 0.01139 0.0
O110 O 0.36624 0.11959 0.06154 0.0
O111 O 0.36903 0.21312 -0.00389 0.0
O112 O 0.40644 0.19723 0.8878 0.0
Mg113 Mg 0.41679 0.26103 0.91062 0.0
O114 O 0.43808 0.25548 0.98493 0.0
O115 O 0.38274 0.2573 0.9642 0.0
O116 O 0.40527 0.23184 0.83431 0.0
O117 O 0.45999 0.2892 0.91327 0.0
C118 C 0.4086 0.20469 0.164 0.0
C119 C 0.45723 0.18634 0.01665 0.0
C120 C 0.36277 0.13376 0.01599 0.0
C121 C 0.36454 0.23387 0.98873 0.0
C122 C 0.40365 0.20793 0.83537 0.0
C123 C 0.46161 0.27542 0.96203 0.0
O124 O 0.40312 0.17929 0.16522 0.0
O125 O 0.41223 0.21814 0.11083 0.0
H126 H 0.32016 0.20978 0.90803 0.0
H127 H 0.28358 0.22334 0.90172 0.0
H128 H 0.31184 0.2672 0.08465 0.0
H129 H 0.34884 0.25414 0.09013 0.0
H130 H 0.23913 0.22046 0.98619 0.0
H131 H 0.32909 0.32939 0.94625 0.0
H132 H 0.33302 0.29849 0.94091 0.0
H133 H 0.33118 0.31235 0.01878 0.0
C134 C 0.31742 0.22093 0.94851 0.0
C135 C 0.33671 0.23056 0.00015 0.0
C136 C 0.29686 0.22898 0.94448 0.0
C137 C 0.2955 0.24664 0.99216 0.0
C138 C 0.3129 0.25381 0.04712 0.0
H139 H 0.20181 0.3292 0.05776 0.0
H140 H 0.21611 0.29348 0.05703 0.0
C141 C 0.33362 0.24597 0.05083 0.0
C142 C 0.27824 0.26007 0.98085 0.0
H143 H 0.28321 0.32402 0.95383 0.0
C144 C 0.24868 0.24306 0.97897 0.0
C145 C 0.29101 0.28953 0.97014 0.0
C146 C 0.32282 0.30856 0.96849 0.0
C147 C 0.23137 0.25497 0.96894 0.0
C148 C 0.24405 0.28439 0.96018 0.0
C149 C 0.27365 0.30136 0.96037 0.0
C150 C 0.22708 0.29847 0.95515 0.0
C151 C 0.19966 0.23627 0.96798 0.0
C152 C 0.22677 0.31158 0.89702 0.0
C153 C 0.21842 0.33198 0.89726 0.0
C154 C 0.2109 0.33964 0.9559 0.0
C155 C 0.2069 0.32322 0.01157 0.0
C156 C 0.21561 0.30315 0.01157 0.0
H157 H 0.19318 0.21348 0.96741 0.0
H158 H 0.19048 0.24061 0.0117 0.0
H159 H 0.19069 0.24109 0.92475 0.0
H160 H 0.23554 0.30805 0.85306 0.0
H161 H 0.22193 0.34459 0.85407 0.0
H162 H 0.09699 0.32737 0.87462 0.0
H163 H 0.0466 0.29267 0.87718 0.0
H164 H 0.0446 0.30635 0.08303 0.0
H165 H 0.09545 0.34172 0.0803 0.0
H166 H 0.01256 0.24332 0.94353 0.0
H167 H 0.98874 0.32863 0.00709 0.0
H168 H 0.0236 0.336 0.98261 0.0
H169 H 0.01109 0.32374 0.06334 0.0
C170 C 0.086 0.32222 0.92086 0.0
C171 C 0.09997 0.33691 0.97739 0.0
C172 C 0.05722 0.30255 0.92219 0.0
C173 C 0.04185 0.29732 0.98002 0.0
C174 C 0.05613 0.31042 0.03776 0.0
H175 H 0.86278 0.19641 0.03912 0.0
H176 H 0.91215 0.20802 0.03623 0.0
C177 C 0.08517 0.33018 0.03647 0.0
C178 C 0.01067 0.27974 0.97755 0.0
H179 H 0.94987 0.28303 0.98992 0.0
C180 C -0.00121 0.25187 0.95442 0.0
C181 C -0.00707 0.29129 0.99031 0.0
C182 C 0.00463 0.3216 0.01168 0.0
C183 C 0.96958 0.23523 0.94354 0.0
C184 C 0.95203 0.24674 0.95635 0.0
C185 C 0.9637 0.27443 0.98023 0.0
C186 C 0.92128 0.23061 0.94536 0.0
C187 C 0.95753 0.20574 0.91679 0.0
C188 C 0.90973 0.23733 0.89224 0.0
C189 C 0.88142 0.23059 0.89375 0.0
C190 C 0.86503 0.21783 0.94916 0.0
C191 C 0.87506 0.20618 -0.00429 0.0
C192 C 0.90346 0.21328 -0.00519 0.0
H193 H 0.97417 0.20007 0.90734 0.0
H194 H 0.9419 0.19036 0.95163 0.0
H195 H 0.94609 0.20387 0.87084 0.0
H196 H 0.9233 0.25053 0.85344 0.0
H197 H 0.87397 0.2396 0.85725 0.0
H198 H 0.73097 0.09031 0.10599 0.0
H199 H 0.71425 0.03993 0.09115 0.0
H200 H 0.75623 0.05758 0.90525 0.0
H201 H 0.77351 0.10812 0.92091 0.0
H202 H 0.67834 0.011 0.98801 0.0
H203 H 0.7741 -0.00069 0.98427 0.0
H204 H 0.77417 0.0298 0.01886 0.0
H205 H 0.77548 0.02639 0.93237 0.0
C206 C 0.73803 0.08355 0.06388 0.0
C207 C 0.75432 0.10307 0.01562 0.0
C208 C 0.72806 0.05477 0.05484 0.0
C209 C 0.73411 0.04507 -0.00277 0.0
C210 C 0.75188 0.06471 0.95069 0.0
H211 H 0.62516 0.87229 0.862 0.0
H212 H 0.66144 0.92255 0.85648 0.0
C213 C 0.76209 0.0936 0.96004 0.0
C214 C 0.71949 0.0144 0.9833 0.0
H215 H 0.73059 0.9589 0.95659 0.0
C216 C 0.68975 -0.00038 0.98066 0.0
C217 C 0.73446 -0.0003 0.97394 0.0
C218 C 0.76631 0.01449 0.97795 0.0
C219 C 0.6746 0.97039 0.96956 0.0
C220 C 0.68967 0.95574 0.96049 0.0
C221 C 0.71931 0.97047 0.96254 0.0
C222 C 0.67469 0.92469 0.95617 0.0
C223 C 0.64259 0.95512 0.97047 0.0
C224 C 0.67235 0.9091 0.01195 0.0
C225 C 0.65269 0.88033 0.01409 0.0
C226 C 0.63445 0.86722 0.96134 0.0
C227 C 0.63926 0.88199 0.90284 0.0
C228 C 0.65953 0.91072 0.90014 0.0
H229 H 0.63417 0.96978 0.97753 0.0
H230 H 0.6341 0.94353 0.92418 0.0
H231 H 0.63455 0.93932 0.01026 0.0
H232 H 0.68377 0.91964 0.05573 0.0
H233 H 0.64879 0.86953 0.0603 0.0
H234 H 0.73505 0.61565 0.896 0.0
H235 H 0.71739 0.64777 0.87146 0.0
H236 H 0.77683 0.70805 0.00826 0.0
H237 H 0.79449 0.67607 0.03176 0.0
H238 H 0.69198 0.6519 0.98069 0.0
H239 H 0.76537 0.75964 0.89047 0.0
H240 H 0.77186 0.73054 0.87857 0.0
H241 H 0.7808 0.74954 0.95436 0.0
C242 C 0.74598 0.63678 0.91649 0.0
C243 C 0.76544 0.64329 0.96717 0.0
C244 C 0.73551 0.65495 0.90332 0.0
C245 C 0.74525 0.67996 0.93944 0.0
C246 C 0.76896 0.68892 0.9797 0.0
H247 H 0.65853 0.77235 0.06581 0.0
H248 H 0.68991 0.75162 0.06984 0.0
C249 C 0.77935 0.67071 0.99273 0.0
C250 C 0.7266 0.69213 0.94931 0.0
H251 H 0.72527 0.75394 0.95206 0.0
C252 C 0.69921 0.67418 0.9737 0.0
C253 C 0.73627 0.72125 0.942 0.0
C254 C 0.7651 0.74128 0.91435 0.0
C255 C 0.68117 0.68459 0.99035 0.0
C256 C 0.69079 0.71368 0.98245 0.0
C257 C 0.71828 0.73173 0.95932 0.0
C258 C 0.67101 0.72465 0.98608 0.0
C259 C 0.65182 0.66438 0.01547 0.0
C260 C 0.65031 0.71618 0.93811 0.0
C261 C 0.63304 0.72805 0.93519 0.0
C262 C 0.63594 0.74876 0.98033 0.0
C263 C 0.65605 0.75665 0.0302 0.0
C264 C 0.67383 0.74484 0.03255 0.0
H265 H 0.65046 0.64487 0.03563 0.0
H266 H 0.64541 0.67452 0.05359 0.0
H267 H 0.63645 0.65809 0.97494 0.0
H268 H 0.64802 0.70086 0.90154 0.0
H269 H 0.61744 0.721 0.89673 0.0
H270 H 0.10984 0.79676 0.04924 0.0
H271 H 0.06058 0.78149 0.02388 0.0
H272 H 0.06036 0.72376 0.88016 0.0
H273 H 0.1097 0.739 0.90603 0.0
H274 H 0.01909 0.7669 0.92258 0.0
H275 H 0.01758 0.67464 0.04128 0.0
H276 H 0.04949 0.70848 0.03429 0.0
H277 H 0.03635 0.68512 0.96551 0.0
C278 C 0.09992 0.78244 0.00881 0.0
C279 C 0.11306 0.76861 0.98035 0.0
C280 C 0.07165 0.77342 -0.00508 0.0
C281 C 0.05673 0.75078 0.95208 0.0
C282 C 0.07154 0.74094 0.91432 0.0
H283 H 0.8889 0.63376 0.87228 0.0
H284 H 0.9376 0.67242 0.87407 0.0
C285 C 0.09987 0.75002 0.92827 0.0
C286 C 0.02572 0.73369 0.95869 0.0
H287 H 0.97335 0.66979 0.01323 0.0
C288 C 0.00903 0.7457 0.9424 0.0
C289 C 0.01291 0.70635 0.98664 0.0
C290 C 0.02996 0.69291 0.00856 0.0
C291 C 0.97953 0.73044 0.95056 0.0
C292 C 0.96675 0.70286 0.97612 0.0
C293 C 0.98348 0.6912 -0.00557 0.0
C294 C 0.93597 0.68386 0.97378 0.0
C295 C 0.96195 0.74341 0.93056 0.0
C296 C 0.91884 0.67817 0.02916 0.0
C297 C 0.89065 0.65597 0.02826 0.0
C298 C 0.87997 0.63919 0.97239 0.0
C299 C 0.8968 0.64627 0.91618 0.0
C300 C 0.92454 0.66839 0.91691 0.0
H301 H 0.97523 0.76613 0.91798 0.0
H302 H 0.94893 0.73191 0.88771 0.0
H303 H 0.94719 0.74121 0.97036 0.0
H304 H 0.92763 0.68998 0.07355 0.0
H305 H 0.87797 0.65078 0.07202 0.0
H306 H 0.28082 0.89842 0.95395 0.0
H307 H 0.29644 0.94826 0.95449 0.0
H308 H 0.21251 0.93027 0.00877 0.0
H309 H 0.19587 0.87886 0.00572 0.0
H310 H 0.26342 0.96731 0.8656 0.0
H311 H 0.28291 0.00031 0.12497 0.0
H312 H 0.28267 0.96909 0.09494 0.0
H313 H 0.24991 0.96894 0.10483 0.0
C314 C 0.26551 0.90486 0.96654 0.0
C315 C 0.23684 0.88481 0.97736 0.0
C316 C 0.27462 0.93339 0.96709 0.0
C317 C 0.25546 0.94262 0.98013 0.0
C318 C 0.22733 0.92308 -0.0025 0.0
H319 H 0.30677 0.11566 0.01976 0.0
H320 H 0.27357 0.06692 0.98928 0.0
C321 C 0.21792 0.89396 -0.00388 0.0
C322 C 0.26508 0.9726 0.96946 0.0
H323 H 0.29332 0.0357 0.04757 0.0
C324 C 0.26925 0.98236 0.90517 0.0
C325 C 0.2741 0.9919 0.02133 0.0
C326 C 0.27246 0.98228 0.09058 0.0
C327 C 0.28167 0.01125 0.89135 0.0
C328 C 0.28975 0.03061 0.94338 0.0
C329 C 0.28598 0.02069 0.00771 0.0
C330 C 0.30435 0.06151 0.93391 0.0
C331 C 0.28654 0.0207 0.8215 0.0
C332 C 0.33153 0.07541 0.90626 0.0
C333 C 0.35008 0.1037 0.92138 0.0
C334 C 0.3419 0.11761 0.96646 0.0
C335 C 0.31339 0.10533 0.9845 0.0
C336 C 0.29457 0.0773 0.96796 0.0
H337 H 0.27173 0.00356 0.78853 0.0
H338 H 0.28412 0.03954 0.81436 0.0
H339 H 0.30842 0.02634 0.80729 0.0
H340 H 0.33972 0.06368 0.88048 0.0
H341 H 0.37215 0.11284 0.90745 0.0
H342 H 0.18525 0.68944 0.11412 0.0
H343 H 0.19259 0.64896 0.11184 0.0
H344 H 0.20893 0.66008 0.90594 0.0
H345 H 0.2019 0.70152 0.9082 0.0
H346 H 0.15393 0.60247 0.01358 0.0
H347 H 0.27008 0.64174 0.0056 0.0
H348 H 0.2562 0.66282 0.04046 0.0
H349 H 0.2548 0.65749 0.95449 0.0
C350 C 0.19083 0.6835 0.0685 0.0
C351 C 0.1922 0.69773 0.01094 0.0
C352 C 0.19519 0.66062 0.06742 0.0
C353 C 0.201 0.65165 0.00878 0.0
C354 C 0.20448 0.667 0.95158 0.0
H355 H 0.20146 0.50037 0.91867 0.0
H356 H 0.21327 0.54944 0.93125 0.0
C357 C 0.20039 0.69039 0.95279 0.0
C358 C 0.19944 0.62411 0.00771 0.0
H359 H 0.23964 0.5925 0.01642 0.0
C360 C 0.17258 0.60011 0.01378 0.0
C361 C 0.22392 0.6216 0.00842 0.0
C362 C 0.25301 0.6472 0.00203 0.0
C363 C 0.16947 0.57325 0.02045 0.0
C364 C 0.19404 0.57066 0.02281 0.0
C365 C 0.22094 0.59476 0.01607 0.0
C366 C 0.19193 0.54273 0.02378 0.0
C367 C 0.13991 0.54795 0.02303 0.0
C368 C 0.17719 0.52309 0.07334 0.0
C369 C 0.17 0.49483 0.0656 0.0
C370 C 0.1783 0.48656 0.00922 0.0
C371 C 0.19521 0.50669 0.96284 0.0
C372 C 0.20194 0.53462 0.96997 0.0
H373 H 0.12366 0.55326 0.00685 0.0
H374 H 0.13828 0.5305 0.99212 0.0
H375 H 0.13482 0.5402 0.07372 0.0
H376 H 0.16982 0.52926 0.11585 0.0
H377 H 0.15676 0.47933 0.10143 0.0
H378 H 0.47325 0.15397 0.95055 0.0
H379 H 0.52112 0.16026 0.94669 0.0
H380 H 0.55282 0.23744 0.05725 0.0
H381 H 0.50501 0.23153 0.0599 0.0
H382 H 0.57727 0.21573 0.90644 0.0
H383 H 0.56681 0.17399 0.15803 0.0
H384 H 0.53639 0.16538 0.10792 0.0
H385 H 0.55628 0.19999 0.14263 0.0
C386 C 0.49066 0.17257 0.97255 0.0
C387 C 0.48601 0.19251 0.00483 0.0
C388 C 0.51774 0.17606 0.9706 0.0
C389 C 0.54004 0.19917 0.00216 0.0
C390 C 0.5356 0.21957 0.03272 0.0
H391 H 0.71208 0.22275 0.01624 0.0
H392 H 0.67362 0.23317 0.03644 0.0
C393 C 0.50858 0.21634 0.03368 0.0
C394 C 0.56772 0.20116 0.0051 0.0
H395 H 0.60841 0.18467 0.10045 0.0
C396 C 0.5845 0.20961 0.94918 0.0
C397 C 0.57641 0.19259 0.06094 0.0
C398 C 0.55809 0.18232 0.12094 0.0
C399 C 0.60982 0.20905 0.94706 0.0
C400 C 0.61823 0.19991 0.00228 0.0
C401 C 0.60192 0.19228 0.05899 0.0
C402 C 0.64101 0.19335 -0.00277 0.0
C403 C 0.62665 0.21657 0.88478 0.0
C404 C 0.63482 0.16755 0.96932 0.0
C405 C 0.65641 0.16176 0.95708 0.0
C406 C 0.68445 0.1816 0.97333 0.0
C407 C 0.69056 0.20717 0.00338 0.0
C408 C 0.66879 0.21309 0.0151 0.0
H409 H 0.61951 0.22709 0.84958 0.0
H410 H 0.64954 0.2307 0.89491 0.0
H411 H 0.62418 0.197 0.86198 0.0
H412 H 0.61334 0.15223 0.95541 0.0
H413 H 0.65108 0.14174 0.93459 0.0
H414 H 0.49553 0.66492 0.90619 0.0
H415 H 0.45082 0.62353 0.93294 0.0
H416 H 0.43939 0.6686 0.09195 0.0
H417 H 0.48493 0.71114 0.06418 0.0
H418 H 0.43068 0.59148 0.04473 0.0
H419 H 0.36916 0.64385 0.97395 0.0
H420 H 0.40622 0.65875 0.95457 0.0
H421 H 0.3956 0.66067 0.03608 0.0
C422 C 0.48358 0.66613 0.94704 0.0
C423 C 0.49315 0.69136 0.98227 0.0
C424 C 0.45816 0.64235 0.96254 0.0
C425 C 0.44172 0.6432 0.01373 0.0
C426 C 0.45178 0.66786 0.05159 0.0
H427 H 0.26986 0.50367 0.07756 0.0
H428 H 0.31331 0.54983 0.08582 0.0
C429 C 0.47763 0.69196 0.03602 0.0
C430 C 0.41338 0.61845 0.02301 0.0
H431 H 0.34358 0.59507 0.99284 0.0
C432 C 0.41152 0.59227 0.03478 0.0
C433 C 0.38865 0.61966 0.00855 0.0
C434 C 0.38979 0.64715 0.9921 0.0
C435 C 0.3856 0.56708 0.03042 0.0
C436 C 0.36105 0.5683 0.01402 0.0
C437 C 0.36262 0.59447 0.00526 0.0
C438 C 0.33367 0.54248 0.00371 0.0
C439 C 0.38482 0.53937 0.04184 0.0
C440 C 0.3305 0.52402 0.95283 0.0
C441 C 0.30581 0.49791 0.94796 0.0
C442 C 0.28393 0.49039 0.99303 0.0
C443 C 0.28625 0.50966 0.04108 0.0
C444 C 0.31109 0.5357 0.04637 0.0
H445 H 0.40391 0.54239 0.06822 0.0
H446 H 0.36566 0.52461 0.06989 0.0
H447 H 0.38408 0.52934 -0.0056 0.0
H448 H 0.34765 0.52923 0.91891 0.0
H449 H 0.30452 0.48288 0.9117 0.0
H450 H 0.83368 0.51081 0.97123 0.0
H451 H 0.8334 0.46678 0.99024 0.0
H452 H 0.75215 0.4327 0.08538 0.0
H453 H 0.752 0.47687 0.06358 0.0
H454 H 0.82791 0.43058 0.08206 0.0
H455 H 0.73299 0.38443 0.92271 0.0
H456 H 0.75442 0.42188 0.93712 0.0
H457 H 0.72877 0.39952 -0.00352 0.0
C458 C 0.81631 0.49431 -0.00131 0.0
C459 C 0.79228 0.49645 0.01387 0.0
C460 C 0.8161 0.46914 0.00916 0.0
C461 C 0.79219 0.44622 0.03669 0.0
C462 C 0.77023 0.44996 0.06159 0.0
H463 H 0.75428 0.27331 0.06838 0.0
H464 H 0.75082 0.31654 0.06966 0.0
C465 C 0.77015 0.47508 0.04954 0.0
C466 C 0.78895 0.41792 0.03089 0.0
H467 H 0.74834 0.35346 0.95965 0.0
C468 C 0.81039 0.41361 0.05591 0.0
C469 C 0.76656 0.3963 -0.00558 0.0
C470 C 0.74453 0.40076 0.96048 0.0
C471 C 0.80976 0.38794 0.04657 0.0
C472 C 0.78693 0.36614 0.01196 0.0
C473 C 0.7655 0.37033 0.98685 0.0
C474 C 0.78519 0.3388 0.00144 0.0
C475 C 0.83353 0.38432 0.07342 0.0
C476 C 0.80466 0.33698 0.9601 0.0
C477 C 0.80665 0.31257 0.95949 0.0
C478 C 0.78887 0.28977 -0.00068 0.0
C479 C 0.76776 0.29065 0.0365 0.0
C480 C 0.76593 0.31524 0.03759 0.0
H481 H 0.84723 0.40163 0.10735 0.0
H482 H 0.82492 0.3638 0.09912 0.0
H483 H 0.84695 0.38428 0.03281 0.0
H484 H 0.81942 0.35502 0.93153 0.0
H485 H 0.82323 0.31213 0.93114 0.0
H486 H 0.32056 0.84239 0.03995 0.0
H487 H 0.35859 0.83224 0.05758 0.0
H488 H 0.30249 0.74471 0.00666 0.0
H489 H 0.26474 0.75569 0.98424 0.0
H490 H 0.37442 0.80355 0.11846 0.0
H491 H 0.358 0.76599 0.86329 0.0
H492 H 0.33748 0.77986 0.90031 0.0
H493 H 0.32851 0.74373 0.91426 0.0
C494 C 0.31607 0.82074 0.03547 0.0
C495 C 0.29028 0.79994 0.01003 0.0
C496 C 0.33784 0.81492 0.04494 0.0
C497 C 0.33375 0.78799 0.03045 0.0
C498 C 0.30639 0.76594 0.01531 0.0
H499 H 0.4665 0.74269 0.01872 0.0
H500 H 0.41999 0.74011 0.01935 0.0
C501 C 0.28465 0.77199 0.00428 0.0
C502 C 0.35887 0.78444 0.02482 0.0
H503 H 0.39534 0.76556 0.91983 0.0
C504 C 0.37881 0.79498 0.07523 0.0
C505 C 0.36508 0.7742 0.96722 0.0
C506 C 0.34632 0.76563 0.90793 0.0
C507 C 0.4047 0.79558 0.06983 0.0
C508 C 0.41029 0.78434 0.01357 0.0
C509 C 0.39042 0.7735 0.9634 0.0
C510 C 0.4374 0.78504 0.00484 0.0
C511 C 0.42615 0.80881 0.12366 0.0
C512 C 0.46199 0.8109 -0.00643 0.0
C513 C 0.48817 0.81231 0.99289 0.0
C514 C 0.49007 0.78786 0.00285 0.0
C515 C 0.46534 0.76162 0.00979 0.0
C516 C 0.43897 0.76023 0.01081 0.0
H517 H 0.41679 0.81242 0.16814 0.0
H518 H 0.43535 0.79528 0.13601 0.0
H519 H 0.44368 0.82957 0.10713 0.0
H520 H 0.461 0.83014 0.98813 0.0
H521 H 0.50715 0.83279 0.98792 0.0
H522 H 0.71462 0.47645 0.01932 0.0
H523 H 0.674 0.42816 0.02186 0.0
H524 H 0.61838 0.4604 0.97344 0.0
H525 H 0.65875 0.50858 0.97276 0.0
H526 H 0.62291 0.41388 0.1099 0.0
H527 H 0.59839 0.39149 0.84705 0.0
H528 H 0.63309 0.41759 0.87584 0.0
H529 H 0.60463 0.42525 0.87602 0.0
C530 C 0.69383 0.47307 0.0081 0.0
C531 C 0.68972 0.49608 -0.00352 0.0
C532 C 0.67069 0.44561 0.00983 0.0
C533 C 0.64334 0.44093 -0.00192 0.0
C534 C 0.63941 0.46372 0.98259 0.0
H535 H 0.47228 0.31918 0.03809 0.0
H536 H 0.51971 0.35771 0.06361 0.0
C537 C 0.66242 0.49114 0.98215 0.0
C538 C 0.61851 0.41257 0.00587 0.0
H539 H 0.564 0.35982 0.9217 0.0
C540 C 0.6102 0.40174 0.06884 0.0
C541 C 0.60196 0.39724 0.95211 0.0
C542 C 0.60996 0.40831 0.88378 0.0
C543 C 0.58512 0.37604 0.07944 0.0
C544 C 0.56857 0.3608 0.02564 0.0
C545 C 0.57719 0.37142 0.96269 0.0
C546 C 0.54083 0.33499 0.03271 0.0
C547 C 0.57601 0.36554 0.14769 0.0
C548 C 0.53706 0.30907 0.00986 0.0
C549 C 0.5099 0.28704 -0.00516 0.0
C550 C 0.48649 0.29085 0.00322 0.0
C551 C 0.49007 0.31559 0.03306 0.0
C552 C 0.51714 0.33765 0.04738 0.0
H553 H 0.59253 0.37852 0.18394 0.0
H554 H 0.55642 0.36614 0.15961 0.0
H555 H 0.57099 0.34322 0.15157 0.0
H556 H 0.55525 0.30688 -0.00216 0.0
H557 H 0.50757 0.26836 0.97056 0.0
H558 H 0.2419 0.43123 0.7636 0.0
H559 H 0.2418 0.4258 0.64481 0.0
H560 H 0.15044 0.37828 0.64619 0.0
H561 H 0.15054 0.3834 0.76419 0.0
H562 H 0.20781 0.37257 0.55198 0.0
H563 H 0.18068 0.45847 0.54629 0.0
H564 H 0.19712 0.4524 0.6157 0.0
H565 H 0.16025 0.42905 0.59958 0.0
C566 C 0.22199 0.41866 0.73848 0.0
C567 C 0.19625 0.40754 0.772 0.0
C568 C 0.2219 0.41573 0.67105 0.0
C569 C 0.19607 0.40198 0.63742 0.0
C570 C 0.17048 0.38898 0.6717 0.0
H571 H 0.15939 0.39383 0.22177 0.0
H572 H 0.15355 0.39266 0.34076 0.0
C573 C 0.17058 0.39175 0.73877 0.0
C574 C 0.19558 0.40406 0.56653 0.0
H575 H 0.18321 0.43912 0.44554 0.0
C576 C 0.20236 0.387 0.52854 0.0
C577 C 0.1883 0.4229 0.53679 0.0
C578 C 0.18131 0.44194 0.57643 0.0
C579 C 0.2022 0.38841 0.46077 0.0
C580 C 0.19545 0.40762 0.43095 0.0
C581 C 0.18817 0.42434 0.46896 0.0
C582 C 0.19846 0.41221 0.36052 0.0
C583 C 0.20954 0.36957 0.42137 0.0
C584 C 0.2256 0.42482 0.33341 0.0
C585 C 0.22889 0.4253 0.26659 0.0
C586 C 0.2051 0.41344 0.2258 0.0
C587 C 0.17796 0.40296 0.25258 0.0
C588 C 0.17464 0.40223 0.32011 0.0
H589 H 0.20776 0.35166 0.45051 0.0
H590 H 0.19551 0.36099 0.37834 0.0
H591 H 0.2317 0.38212 0.4038 0.0
H592 H 0.24418 0.43307 0.36414 0.0
H593 H 0.25008 0.43399 0.24681 0.0
H594 H 0.74588 0.20303 0.7731 0.0
H595 H 0.74502 0.20684 0.65499 0.0
H596 H 0.81845 0.19647 0.64006 0.0
H597 H 0.81851 0.19147 0.75876 0.0
H598 H 0.77968 0.23903 0.55912 0.0
H599 H 0.7599 0.1293 0.539 0.0
H600 H 0.75981 0.14512 0.61587 0.0
H601 H 0.79276 0.15264 0.57843 0.0
C602 C 0.76216 0.20217 0.7444 0.0
C603 C 0.78214 0.1968 0.77398 0.0
C604 C 0.76164 0.20433 0.67717 0.0
C605 C 0.78116 0.20114 0.63879 0.0
C606 C 0.8027 0.19817 0.66891 0.0
H607 H 0.82333 0.20136 0.25064 0.0
H608 H 0.81511 0.1979 0.3671 0.0
C609 C 0.80296 0.19561 0.73638 0.0
C610 C 0.77739 0.1986 0.5676 0.0
H611 H 0.76851 0.15485 0.44036 0.0
C612 C 0.77699 0.22055 0.53307 0.0
C613 C 0.77309 0.17408 0.53413 0.0
C614 C 0.77109 0.14882 0.56882 0.0
C615 C 0.77411 0.21933 0.46527 0.0
C616 C 0.77142 0.19548 0.43172 0.0
C617 C 0.77053 0.17305 0.46653 0.0
C618 C 0.77423 0.19528 0.36059 0.0
C619 C 0.77529 0.244 0.42965 0.0
C620 C 0.75338 0.19394 0.31829 0.0
C621 C 0.75796 0.19568 0.251 0.0
C622 C 0.78347 0.19895 0.22607 0.0
C623 C 0.80348 0.19884 0.26869 0.0
C624 C 0.79888 0.19698 0.33518 0.0
H625 H 0.77961 0.26183 0.46271 0.0
H626 H 0.792 0.25171 0.3917 0.0
H627 H 0.75474 0.23708 0.40507 0.0
H628 H 0.73404 0.19226 0.33733 0.0
H629 H 0.74241 0.19608 0.219 0.0
H630 H 0.53069 0.77305 0.76973 0.0
H631 H 0.52969 0.77726 0.65188 0.0
H632 H 0.61955 0.80757 0.64352 0.0
H633 H 0.62027 0.80236 0.7615 0.0
H634 H 0.55616 0.81537 0.55301 0.0
H635 H 0.58464 0.7308 0.55302 0.0
H636 H 0.57564 0.74279 0.62622 0.0
H637 H 0.61056 0.7628 0.59174 0.0
C638 C 0.55045 0.78211 0.74289 0.0
C639 C 0.57559 0.78767 0.77376 0.0
C640 C 0.54982 0.78418 0.67571 0.0
C641 C 0.57438 0.79188 0.63934 0.0
C642 C 0.60029 0.80098 0.67108 0.0
H643 H 0.6185 0.80384 0.24533 0.0
H644 H 0.61457 0.79987 0.36352 0.0
C645 C 0.60084 0.79857 0.73828 0.0
C646 C 0.57205 0.78682 0.56894 0.0
H647 H 0.58249 0.74921 0.45032 0.0
C648 C 0.56176 0.80083 0.53043 0.0
C649 C 0.57867 0.76717 0.54034 0.0
C650 C 0.5877 0.74979 0.58 0.0
C651 C 0.55922 0.79675 0.46316 0.0
C652 C 0.56705 0.77808 0.43445 0.0
C653 C 0.5765 0.76343 0.47307 0.0
C654 C 0.56875 0.77609 0.36382 0.0
C655 C 0.54913 0.81306 0.42295 0.0
C656 C 0.54422 0.7628 0.32562 0.0
C657 C 0.54648 0.76452 0.25806 0.0
C658 C 0.57326 0.77974 0.22894 0.0
C659 C 0.59773 0.79159 0.26725 0.0
C660 C 0.59549 0.78954 0.3344 0.0
H661 H 0.54679 0.82893 0.4522 0.0
H662 H 0.56417 0.82409 0.38257 0.0
H663 H 0.52826 0.79816 0.40127 0.0
H664 H 0.52345 0.7523 0.34806 0.0
H665 H 0.5274 0.75591 0.22899 0.0
H666 H 0.82709 0.61951 0.76146 0.0
H667 H 0.82594 0.62009 0.64303 0.0
H668 H 0.7392 0.55232 0.6458 0.0
H669 H 0.74044 0.55139 0.76503 0.0
H670 H 0.8004 0.5529 0.58412 0.0
H671 H 0.76238 0.62468 0.49555 0.0
H672 H 0.78279 0.63236 0.56939 0.0
H673 H 0.74711 0.6035 0.56743 0.0
C674 C 0.80723 0.60593 0.73691 0.0
C675 C 0.78372 0.58558 0.77196 0.0
C676 C 0.80677 0.606 0.66935 0.0
C677 C 0.78263 0.58602 0.6362 0.0
C678 C 0.758 0.56784 0.67108 0.0
H679 H 0.73894 0.53242 0.24886 0.0
H680 H 0.74467 0.53384 0.36639 0.0
C681 C 0.75853 0.56764 0.73899 0.0
C682 C 0.78466 0.58151 0.56637 0.0
H683 H 0.77386 0.60055 0.41663 0.0
C684 C 0.7947 0.56332 0.54728 0.0
C685 C 0.7774 0.59537 0.51916 0.0
C686 C 0.76681 0.61516 0.53832 0.0
C687 C 0.79716 0.55827 0.48137 0.0
C688 C 0.7896 0.57194 0.43414 0.0
C689 C 0.77991 0.59037 0.45337 0.0
C690 C 0.78901 0.56569 0.36436 0.0
C691 C 0.8072 0.53805 0.46221 0.0
C692 C 0.81254 0.58215 0.32446 0.0
C693 C 0.80936 0.58123 0.25678 0.0
C694 C 0.78257 0.56402 0.22918 0.0
C695 C 0.75985 0.54572 0.26918 0.0
C696 C 0.76305 0.54654 0.33623 0.0
H697 H 0.81286 0.52951 0.50495 0.0
H698 H 0.79031 0.52015 0.43436 0.0
H699 H 0.82598 0.54892 0.42995 0.0
H700 H 0.8327 0.59715 0.34578 0.0
H701 H 0.82702 0.59577 0.22687 0.0
H702 H 0.21066 0.8298 0.23026 0.0
H703 H 0.21088 0.8328 0.34919 0.0
H704 H 0.21798 0.75771 0.36154 0.0
H705 H 0.21803 0.75493 0.24327 0.0
H706 H 0.16671 0.78828 0.41795 0.0
H707 H 0.27081 0.80704 0.50638 0.0
H708 H 0.26557 0.81525 0.42449 0.0
H709 H 0.25504 0.77949 0.44664 0.0
C710 C 0.21413 0.81508 0.25847 0.0
C711 C 0.2153 0.7927 0.22772 0.0
C712 C 0.21371 0.81647 0.32634 0.0
C713 C 0.21459 0.79556 0.36424 0.0
C714 C 0.21795 0.77444 0.33346 0.0
H715 H 0.18773 0.73701 0.75513 0.0
H716 H 0.18649 0.73927 0.63695 0.0
C717 C 0.2183 0.77304 0.2658 0.0
C718 C 0.20808 0.79335 0.43464 0.0
H719 H 0.23282 0.78838 0.58301 0.0
C720 C 0.18131 0.78869 0.45422 0.0
C721 C 0.22701 0.79358 0.48172 0.0
C722 C 0.25632 0.79936 0.46394 0.0
C723 C 0.17267 0.78343 0.51944 0.0
C724 C 0.19141 0.78312 0.56609 0.0
C725 C 0.21837 0.78835 0.5468 0.0
C726 C 0.1838 0.7775 0.63552 0.0
C727 C 0.14334 0.77739 0.53784 0.0
C728 C 0.18069 0.79716 0.67361 0.0
C729 C 0.18082 0.79551 0.74133 0.0
C730 C 0.18438 0.77437 0.77113 0.0
C731 C 0.18421 0.75299 0.73302 0.0
C732 C 0.18403 0.7546 0.66559 0.0
H733 H 0.12927 0.77185 0.49488 0.0
H734 H 0.1335 0.75983 0.57343 0.0
H735 H 0.14482 0.79648 0.56093 0.0
H736 H 0.18085 0.81519 0.6513 0.0
H737 H 0.18185 0.81273 0.76984 0.0
H738 H 0.35661 0.18295 0.76169 0.0
H739 H 0.35665 0.17972 0.64322 0.0
H740 H 0.44504 0.20355 0.64725 0.0
H741 H 0.44465 0.2059 0.76578 0.0
H742 H 0.38974 0.22853 0.57915 0.0
H743 H 0.41669 0.14777 0.49847 0.0
H744 H 0.40364 0.1479 0.57906 0.0
H745 H 0.44031 0.17119 0.55928 0.0
C746 C 0.37551 0.18577 0.73731 0.0
C747 C 0.4005 0.19419 0.77243 0.0
C748 C 0.37565 0.1843 0.66968 0.0
C749 C 0.40087 0.1915 0.63631 0.0
C750 C 0.4252 0.19738 0.67185 0.0
H751 H 0.45561 0.23214 0.23704 0.0
H752 H 0.45536 0.2339 0.3559 0.0
C753 C 0.42495 0.19856 0.73964 0.0
C754 C 0.40293 0.19756 0.5658 0.0
H755 H 0.42211 0.18227 0.42016 0.0
C756 C 0.39658 0.21822 0.54429 0.0
C757 C 0.41222 0.1844 0.52057 0.0
C758 C 0.41836 0.1614 0.54033 0.0
C759 C 0.39949 0.22623 0.47887 0.0
C760 C 0.40882 0.21312 0.43373 0.0
C761 C 0.41526 0.19253 0.45514 0.0
C762 C 0.41045 0.21904 0.36334 0.0
C763 C 0.39297 0.24894 0.45871 0.0
C764 C 0.3856 0.21159 0.32834 0.0
C765 C 0.38586 0.21102 0.26059 0.0
C766 C 0.41094 0.21788 0.22716 0.0
C767 C 0.43625 0.22767 0.26192 0.0
C768 C 0.43601 0.22823 0.3297 0.0
H769 H 0.3935 0.26202 0.50068 0.0
H770 H 0.40823 0.26299 0.42143 0.0
H771 H 0.3714 0.23888 0.43743 0.0
H772 H 0.36556 0.2039 0.35329 0.0
H773 H 0.36596 0.20244 0.2347 0.0
loop_
_geom_bond_atom_site_label_1
_geom_bond_atom_site_label_2
_geom_bond_distance
_geom_bond_site_symmetry_2
_ccdc_geom_bond_type
O0 Mg1 1.990 . S
O0 C14 1.253 . S
Mg1 O0 1.990 . S
Mg1 O4 2.180 . S
Mg1 O5 2.117 . S
Mg1 O19 2.030 . S
O2 Mg3 2.072 . S
O2 C14 1.260 . S
Mg3 O2 2.072 . S
Mg3 O4 2.099 . S
Mg3 O6 2.079 . S
Mg3 O7 2.072 1_554 S
Mg3 O9 2.099 1_554 S
Mg3 O20 2.079 . S
O4 Mg1 2.180 . S
O4 Mg3 2.099 . S
O4 C15 1.286 . S
O5 Mg1 2.117 . S
O5 C15 1.255 . S
O6 Mg3 2.079 . S
O6 C16 1.264 1_554 S
O7 Mg3 2.072 1_556 S
O7 C17 1.260 . S
Mg8 O9 2.180 . S
Mg8 O10 2.030 . S
Mg8 O11 1.990 . S
Mg8 O12 2.117 . S
O9 Mg3 2.099 1_556 S
O9 Mg8 2.180 . S
O9 C18 1.279 . S
O10 Mg8 2.030 . S
O10 C16 1.248 . S
O11 Mg8 1.990 . S
O11 C17 1.253 . S
O12 Mg8 2.117 . S
O12 C18 1.250 . S
C13 O19 1.248 . S
C13 O20 1.264 . S
C14 O0 1.253 . S
C14 O2 1.260 . S
C15 O4 1.286 . S
C15 O5 1.255 . S
C16 O6 1.264 1_556 S
C16 O10 1.248 . S
C17 O7 1.260 . S
C17 O11 1.253 . S
C18 O9 1.279 . S
C18 O12 1.250 . S
O19 Mg1 2.030 . S
O19 C13 1.248 . S
O20 Mg3 2.079 . S
O20 C13 1.264 . S
O21 Mg22 1.990 . S
O21 C35 1.253 . S
Mg22 O21 1.990 . S
Mg22 O25 2.180 . S
Mg22 O26 2.117 . S
Mg22 O40 2.030 . S
O23 Mg24 2.072 . S
O23 C35 1.260 . S
Mg24 O23 2.072 . S
Mg24 O25 2.099 . S
Mg24 O27 2.079 . S
Mg24 O28 2.072 1_554 S
Mg24 O30 2.099 1_554 S
Mg24 O41 2.079 . S
O25 Mg22 2.180 . S
O25 Mg24 2.099 . S
O25 C36 1.286 . S
O26 Mg22 2.117 . S
O26 C36 1.255 . S
O27 Mg24 2.079 . S
O27 C37 1.264 1_554 S
O28 Mg24 2.072 1_556 S
O28 C38 1.260 . S
Mg29 O30 2.180 . S
Mg29 O31 2.030 . S
Mg29 O32 1.990 . S
Mg29 O33 2.117 . S
O30 Mg24 2.099 1_556 S
O30 Mg29 2.180 . S
O30 C39 1.279 . S
O31 Mg29 2.030 . S
O31 C37 1.248 . S
O32 Mg29 1.990 . S
O32 C38 1.253 . S
O33 Mg29 2.117 . S
O33 C39 1.250 . S
C34 O40 1.248 . S
C34 O41 1.264 . S
C35 O21 1.253 . S
C35 O23 1.260 . S
C36 O25 1.286 . S
C36 O26 1.255 . S
C37 O27 1.264 1_556 S
C37 O31 1.248 . S
C38 O28 1.260 . S
C38 O32 1.253 . S
C39 O30 1.279 . S
C39 O33 1.250 . S
O40 Mg22 2.030 . S
O40 C34 1.248 . S
O41 Mg24 2.079 . S
O41 C34 1.264 . S
O42 Mg43 1.990 . S
O42 C56 1.253 . S
Mg43 O42 1.990 . S
Mg43 O46 2.180 . S
Mg43 O47 2.117 . S
Mg43 O61 2.030 . S
O44 Mg45 2.072 . S
O44 C56 1.260 . S
Mg45 O44 2.072 . S
Mg45 O46 2.099 . S
Mg45 O48 2.079 . S
Mg45 O49 2.072 1_554 S
Mg45 O51 2.099 1_554 S
Mg45 O62 2.079 . S
O46 Mg43 2.180 . S
O46 Mg45 2.099 . S
O46 C57 1.286 . S
O47 Mg43 2.117 . S
O47 C57 1.255 . S
O48 Mg45 2.079 . S
O48 C58 1.264 1_554 S
O49 Mg45 2.072 1_556 S
O49 C59 1.260 . S
Mg50 O51 2.180 . S
Mg50 O52 2.030 . S
Mg50 O53 1.990 . S
Mg50 O54 2.117 . S
O51 Mg45 2.099 1_556 S
O51 Mg50 2.180 . S
O51 C60 1.279 . S
O52 Mg50 2.030 . S
O52 C58 1.248 . S
O53 Mg50 1.990 . S
O53 C59 1.253 . S
O54 Mg50 2.117 . S
O54 C60 1.250 . S
C55 O61 1.248 . S
C55 O62 1.264 . S
C56 O42 1.253 . S
C56 O44 1.260 . S
C57 O46 1.286 . S
C57 O47 1.255 . S
C58 O48 1.264 1_556 S
C58 O52 1.248 . S
C59 O49 1.260 . S
C59 O53 1.253 . S
C60 O51 1.279 . S
C60 O54 1.250 . S
O61 Mg43 2.030 . S
O61 C55 1.248 . S
O62 Mg45 2.079 . S
O62 C55 1.264 . S
O63 Mg64 1.990 . S
O63 C77 1.253 . S
Mg64 O63 1.990 . S
Mg64 O67 2.180 . S
Mg64 O68 2.117 . S
Mg64 O82 2.030 . S
O65 Mg66 2.072 . S
O65 C77 1.260 . S
Mg66 O65 2.072 . S
Mg66 O67 2.099 . S
Mg66 O69 2.079 . S
Mg66 O70 2.072 1_554 S
Mg66 O72 2.099 1_554 S
Mg66 O83 2.079 . S
O67 Mg64 2.180 . S
O67 Mg66 2.099 . S
O67 C78 1.286 . S
O68 Mg64 2.117 . S
O68 C78 1.255 . S
O69 Mg66 2.079 . S
O69 C79 1.264 1_554 S
O70 Mg66 2.072 1_556 S
O70 C80 1.260 . S
Mg71 O72 2.180 . S
Mg71 O73 2.030 . S
Mg71 O74 1.990 . S
Mg71 O75 2.117 . S
O72 Mg66 2.099 1_556 S
O72 Mg71 2.180 . S
O72 C81 1.279 . S
O73 Mg71 2.030 . S
O73 C79 1.248 . S
O74 Mg71 1.990 . S
O74 C80 1.253 . S
O75 Mg71 2.117 . S
O75 C81 1.250 . S
C76 O82 1.248 . S
C76 O83 1.264 . S
C77 O63 1.253 . S
C77 O65 1.260 . S
C78 O67 1.286 . S
C78 O68 1.255 . S
C79 O69 1.264 1_556 S
C79 O73 1.248 . S
C80 O70 1.260 . S
C80 O74 1.253 . S
C81 O72 1.279 . S
C81 O75 1.250 . S
O82 Mg64 2.030 . S
O82 C76 1.248 . S
O83 Mg66 2.079 . S
O83 C76 1.264 . S
O84 Mg85 1.990 . S
O84 C98 1.253 . S
Mg85 O84 1.990 . S
Mg85 O88 2.180 . S
Mg85 O89 2.117 . S
Mg85 O103 2.030 . S
O86 Mg87 2.072 . S
O86 C98 1.260 . S
Mg87 O86 2.072 . S
Mg87 O88 2.099 . S
Mg87 O90 2.079 . S
Mg87 O91 2.072 1_554 S
Mg87 O93 2.099 1_554 S
Mg87 O104 2.079 . S
O88 Mg85 2.180 . S
O88 Mg87 2.099 . S
O88 C99 1.286 . S
O89 Mg85 2.117 . S
O89 C99 1.255 . S
O90 Mg87 2.079 . S
O90 C100 1.264 1_554 S
O91 Mg87 2.072 1_556 S
O91 C101 1.260 . S
Mg92 O93 2.180 . S
Mg92 O94 2.030 . S
Mg92 O95 1.990 . S
Mg92 O96 2.117 . S
O93 Mg87 2.099 1_556 S
O93 Mg92 2.180 . S
O93 C102 1.279 . S
O94 Mg92 2.030 . S
O94 C100 1.248 . S
O95 Mg92 1.990 . S
O95 C101 1.253 . S
O96 Mg92 2.117 . S
O96 C102 1.250 . S
C97 O103 1.248 . S
C97 O104 1.264 . S
C98 O84 1.253 . S
C98 O86 1.260 . S
C99 O88 1.286 . S
C99 O89 1.255 . S
C100 O90 1.264 1_556 S
C100 O94 1.248 . S
C101 O91 1.260 . S
C101 O95 1.253 . S
C102 O93 1.279 . S
C102 O96 1.250 . S
O103 Mg85 2.030 . S
O103 C97 1.248 . S
O104 Mg87 2.079 . S
O104 C97 1.264 . S
O105 Mg106 1.990 . S
O105 C119 1.253 . S
Mg106 O105 1.990 . S
Mg106 O109 2.180 . S
Mg106 O110 2.117 . S
Mg106 O124 2.030 . S
O107 Mg108 2.072 . S
O107 C119 1.260 . S
Mg108 O107 2.072 . S
Mg108 O109 2.099 . S
Mg108 O111 2.079 . S
Mg108 O112 2.072 1_554 S
Mg108 O114 2.099 1_554 S
Mg108 O125 2.079 . S
O109 Mg106 2.180 . S
O109 Mg108 2.099 . S
O109 C120 1.286 . S
O110 Mg106 2.117 . S
O110 C120 1.255 . S
O111 Mg108 2.079 . S
O111 C121 1.264 1_554 S
O112 Mg108 2.072 1_556 S
O112 C122 1.260 . S
Mg113 O114 2.180 . S
Mg113 O115 2.030 . S
Mg113 O116 1.990 . S
Mg113 O117 2.117 . S
O114 Mg108 2.099 1_556 S
O114 Mg113 2.180 . S
O114 C123 1.279 . S
O115 Mg113 2.030 . S
O115 C121 1.248 . S
O116 Mg113 1.990 . S
O116 C122 1.253 . S
O117 Mg113 2.117 . S
O117 C123 1.250 . S
C118 O124 1.248 . S
C118 O125 1.264 . S
C119 O105 1.253 . S
C119 O107 1.260 . S
C120 O109 1.286 . S
C120 O110 1.255 . S
C121 O111 1.264 1_556 S
C121 O115 1.248 . S
C122 O112 1.260 . S
C122 O116 1.253 . S
C123 O114 1.279 . S
C123 O117 1.250 . S
O124 Mg106 2.030 . S
O124 C118 1.248 . S
O125 Mg108 2.079 . S
O125 C118 1.264 . S
H126 C134 0.929 . S
H127 C136 0.930 . S
H128 C138 0.930 . S
H129 C141 0.929 . S
H130 C144 0.930 . S
H131 C146 0.960 . S
H132 C146 0.960 . S
H133 C146 0.960 1_554 S
C134 H126 0.929 . S
C134 C135 1.377 . S
C134 C136 1.384 . S
C135 C134 1.377 . S
C135 C141 1.390 1_556 S
C136 H127 0.930 . S
C136 C134 1.384 . S
C136 C137 1.372 . S
C137 C136 1.372 . S
C137 C138 1.400 1_556 S
C137 C142 1.490 . S
C138 H128 0.930 . S
C138 C137 1.400 1_554 S
C138 C141 1.386 . S
H139 C155 0.930 . S
H140 C156 0.931 . S
C141 H129 0.929 . S
C141 C135 1.390 1_554 S
C141 C138 1.386 . S
C142 C137 1.490 . S
C142 C144 1.395 . S
C142 C145 1.403 . S
H143 C149 0.930 . S
C144 H130 0.930 . S
C144 C142 1.395 . S
C144 C147 1.403 . S
C145 C142 1.403 . S
C145 C146 1.524 . S
C145 C149 1.400 . S
C146 H131 0.960 . S
C146 H132 0.960 . S
C146 H133 0.960 1_556 S
C146 C145 1.524 . S
C147 C144 1.403 . S
C147 C148 1.392 . S
C147 C151 1.495 . S
C148 C147 1.392 . S
C148 C149 1.385 . S
C148 C150 1.478 . S
C149 H143 0.930 . S
C149 C145 1.400 . S
C149 C148 1.385 . S
C150 C148 1.478 . S
C150 C152 1.381 . S
C150 C156 1.383 1_556 S
C151 C147 1.495 . S
C151 H157 0.959 . S
C151 H158 0.961 1_556 S
C151 H159 0.960 . S
C152 C150 1.381 . S
C152 C153 1.394 . S
C152 H160 0.930 . S
C153 C152 1.394 . S
C153 C154 1.383 . S
C153 H161 0.929 . S
C154 C153 1.383 . S
C154 C155 1.377 1_556 S
C155 H139 0.930 . S
C155 C154 1.377 1_554 S
C155 C156 1.379 . S
C156 H140 0.931 . S
C156 C150 1.383 1_554 S
C156 C155 1.379 . S
H157 C151 0.959 . S
H158 C151 0.961 1_554 S
H159 C151 0.960 . S
H160 C152 0.930 . S
H161 C153 0.929 . S
H162 C170 0.929 . S
H163 C172 0.930 . S
H164 C174 0.930 . S
H165 C177 0.929 . S
H166 C180 0.930 . S
H167 C182 0.960 . S
H168 C182 0.960 1_556 S
H169 C182 0.960 . S
C170 H162 0.929 . S
C170 C171 1.377 . S
C170 C172 1.384 . S
C171 C170 1.377 . S
C171 C177 1.390 1_556 S
C172 H163 0.930 . S
C172 C170 1.384 . S
C172 C173 1.372 . S
C173 C172 1.372 . S
C173 C174 1.400 1_556 S
C173 C178 1.490 . S
C174 H164 0.930 . S
C174 C173 1.400 1_554 S
C174 C177 1.386 . S
H175 C191 0.930 . S
H176 C192 0.931 . S
C177 H165 0.929 . S
C177 C171 1.390 1_554 S
C177 C174 1.386 . S
C178 C173 1.490 . S
C178 C180 1.395 . S
C178 C181 1.403 . S
H179 C185 0.930 1_554 S
C180 H166 0.930 . S
C180 C178 1.395 . S
C180 C183 1.403 1_455 S
C181 C178 1.403 . S
C181 C182 1.524 1_556 S
C181 C185 1.400 1_455 S
C182 H167 0.960 . S
C182 H168 0.960 1_554 S
C182 H169 0.960 . S
C182 C181 1.524 1_554 S
C183 C180 1.403 1_655 S
C183 C184 1.392 . S
C183 C187 1.495 . S
C184 C183 1.392 . S
C184 C185 1.385 . S
C184 C186 1.478 . S
C185 H179 0.930 1_556 S
C185 C181 1.400 1_655 S
C185 C184 1.385 . S
C186 C184 1.478 . S
C186 C188 1.381 . S
C186 C192 1.383 1_556 S
C187 C183 1.495 . S
C187 H193 0.959 . S
C187 H194 0.961 . S
C187 H195 0.960 . S
C188 C186 1.381 . S
C188 C189 1.394 . S
C188 H196 0.930 . S
C189 C188 1.394 . S
C189 C190 1.383 . S
C189 H197 0.929 . S
C190 C189 1.383 . S
C190 C191 1.377 1_556 S
C191 H175 0.930 . S
C191 C190 1.377 1_554 S
C191 C192 1.379 . S
C192 H176 0.931 . S
C192 C186 1.383 1_554 S
C192 C191 1.379 . S
H193 C187 0.959 . S
H194 C187 0.961 . S
H195 C187 0.960 . S
H196 C188 0.930 . S
H197 C189 0.929 . S
H198 C206 0.929 . S
H199 C208 0.930 . S
H200 C210 0.930 . S
H201 C213 0.929 . S
H202 C216 0.930 . S
H203 C218 0.960 . S
H204 C218 0.960 1_554 S
H205 C218 0.960 . S
C206 H198 0.929 . S
C206 C207 1.377 1_554 S
C206 C208 1.384 . S
C207 C206 1.377 1_556 S
C207 C213 1.390 . S
C208 H199 0.930 . S
C208 C206 1.384 . S
C208 C209 1.372 1_554 S
C209 C208 1.372 1_556 S
C209 C210 1.400 . S
C209 C214 1.490 . S
C210 H200 0.930 . S
C210 C209 1.400 . S
C210 C213 1.386 . S
H211 C227 0.930 . S
H212 C228 0.931 . S
C213 H201 0.929 . S
C213 C207 1.390 . S
C213 C210 1.386 . S
C214 C209 1.490 . S
C214 C216 1.395 . S
C214 C217 1.403 . S
H215 C221 0.930 . S
C216 H202 0.930 . S
C216 C214 1.395 . S
C216 C219 1.403 1_545 S
C217 C214 1.403 . S
C217 C218 1.524 . S
C217 C221 1.400 1_545 S
C218 H203 0.960 . S
C218 H204 0.960 1_556 S
C218 H205 0.960 . S
C218 C217 1.524 . S
C219 C216 1.403 1_565 S
C219 C220 1.392 . S
C219 C223 1.495 . S
C220 C219 1.392 . S
C220 C221 1.385 . S
C220 C222 1.478 . S
C221 H215 0.930 . S
C221 C217 1.400 1_565 S
C221 C220 1.385 . S
C222 C220 1.478 . S
C222 C224 1.381 1_556 S
C222 C228 1.383 . S
C223 C219 1.495 . S
C223 H229 0.959 . S
C223 H230 0.961 . S
C223 H231 0.960 1_556 S
C224 C222 1.381 1_554 S
C224 C225 1.394 . S
C224 H232 0.930 . S
C225 C224 1.394 . S
C225 C226 1.383 1_554 S
C225 H233 0.929 . S
C226 C225 1.383 1_556 S
C226 C227 1.377 . S
C227 H211 0.930 . S
C227 C226 1.377 . S
C227 C228 1.379 . S
C228 H212 0.931 . S
C228 C222 1.383 . S
C228 C227 1.379 . S
H229 C223 0.959 . S
H230 C223 0.961 . S
H231 C223 0.960 1_554 S
H232 C224 0.930 . S
H233 C225 0.929 . S
H234 C242 0.929 . S
H235 C244 0.930 . S
H236 C246 0.930 . S
H237 C249 0.929 . S
H238 C252 0.930 1_554 S
H239 C254 0.960 . S
H240 C254 0.960 . S
H241 C254 0.960 . S
C242 H234 0.929 . S
C242 C243 1.377 . S
C242 C244 1.384 . S
C243 C242 1.377 . S
C243 C249 1.390 1_556 S
C244 H235 0.930 . S
C244 C242 1.384 . S
C244 C245 1.372 . S
C245 C244 1.372 . S
C245 C246 1.400 1_556 S
C245 C250 1.490 . S
C246 H236 0.930 . S
C246 C245 1.400 1_554 S
C246 C249 1.386 . S
H247 C263 0.930 . S
H248 C264 0.931 . S
C249 H237 0.929 . S
C249 C243 1.390 1_554 S
C249 C246 1.386 . S
C250 C245 1.490 . S
C250 C252 1.395 . S
C250 C253 1.403 . S
H251 C257 0.930 . S
C252 H238 0.930 1_556 S
C252 C250 1.395 . S
C252 C255 1.403 . S
C253 C250 1.403 . S
C253 C254 1.524 . S
C253 C257 1.400 . S
C254 H239 0.960 . S
C254 H240 0.960 . S
C254 H241 0.960 . S
C254 C253 1.524 . S
C255 C252 1.403 . S
C255 C256 1.392 . S
C255 C259 1.495 1_556 S
C256 C255 1.392 . S
C256 C257 1.385 . S
C256 C258 1.478 . S
C257 H251 0.930 . S
C257 C253 1.400 . S
C257 C256 1.385 . S
C258 C256 1.478 . S
C258 C260 1.381 . S
C258 C264 1.383 1_556 S
C259 C255 1.495 1_554 S
C259 H265 0.959 . S
C259 H266 0.961 . S
C259 H267 0.960 1_554 S
C260 C258 1.381 . S
C260 C261 1.394 . S
C260 H268 0.930 . S
C261 C260 1.394 . S
C261 C262 1.383 . S
C261 H269 0.929 . S
C262 C261 1.383 . S
C262 C263 1.377 1_556 S
C263 H247 0.930 . S
C263 C262 1.377 1_554 S
C263 C264 1.379 . S
C264 H248 0.931 . S
C264 C258 1.383 1_554 S
C264 C263 1.379 . S
H265 C259 0.959 . S
H266 C259 0.961 . S
H267 C259 0.960 1_556 S
H268 C260 0.930 . S
H269 C261 0.929 . S
H270 C278 0.929 . S
H271 C280 0.930 . S
H272 C282 0.930 . S
H273 C285 0.929 . S
H274 C288 0.930 . S
H275 C290 0.960 . S
H276 C290 0.960 . S
H277 C290 0.960 1_556 S
C278 H270 0.929 . S
C278 C279 1.377 1_554 S
C278 C280 1.384 . S
C279 C278 1.377 1_556 S
C279 C285 1.390 . S
C280 H271 0.930 . S
C280 C278 1.384 . S
C280 C281 1.372 1_554 S
C281 C280 1.372 1_556 S
C281 C282 1.400 . S
C281 C286 1.490 . S
C282 H272 0.930 . S
C282 C281 1.400 . S
C282 C285 1.386 . S
H283 C299 0.930 . S
H284 C300 0.931 . S
C285 H273 0.929 . S
C285 C279 1.390 . S
C285 C282 1.386 . S
C286 C281 1.490 . S
C286 C288 1.395 . S
C286 C289 1.400 1_556 S
H287 C293 0.930 1_554 S
C288 H274 0.930 . S
C288 C286 1.395 . S
C288 C291 1.403 1_455 S
C289 C286 1.400 1_554 S
C289 C290 1.527 . S
C289 C293 1.399 1_454 S
C290 H275 0.960 . S
C290 H276 0.960 . S
C290 H277 0.960 1_554 S
C290 C289 1.527 . S
C291 C288 1.403 1_655 S
C291 C292 1.392 . S
C291 C295 1.495 . S
C292 C291 1.392 . S
C292 C293 1.385 . S
C292 C294 1.478 . S
C293 H287 0.930 1_556 S
C293 C289 1.399 1_656 S
C293 C292 1.385 . S
C294 C292 1.478 . S
C294 C296 1.381 1_556 S
C294 C300 1.383 . S
C295 C291 1.495 . S
C295 H301 0.959 . S
C295 H302 0.961 . S
C295 H303 0.960 . S
C296 C294 1.381 1_554 S
C296 C297 1.394 . S
C296 H304 0.930 . S
C297 C296 1.394 . S
C297 C298 1.383 1_554 S
C297 H305 0.929 . S
C298 C297 1.383 1_556 S
C298 C299 1.377 . S
C299 H283 0.930 . S
C299 C298 1.377 . S
C299 C300 1.379 . S
C300 H284 0.931 . S
C300 C294 1.383 . S
C300 C299 1.379 . S
H301 C295 0.959 . S
H302 C295 0.961 . S
H303 C295 0.960 . S
H304 C296 0.930 . S
H305 C297 0.929 . S
H306 C314 0.929 . S
H307 C316 0.930 . S
H308 C318 0.930 . S
H309 C321 0.929 . S
H310 C324 0.930 . S
H311 C326 0.960 . S
H312 C326 0.960 . S
H313 C326 0.960 . S
C314 H306 0.929 . S
C314 C315 1.377 . S
C314 C316 1.384 . S
C315 C314 1.377 . S
C315 C321 1.390 1_556 S
C316 H307 0.930 . S
C316 C314 1.384 . S
C316 C317 1.372 . S
C317 C316 1.372 . S
C317 C318 1.400 1_556 S
C317 C322 1.490 . S
C318 H308 0.930 . S
C318 C317 1.400 1_554 S
C318 C321 1.386 . S
H319 C335 0.930 1_554 S
H320 C336 0.931 1_554 S
C321 H309 0.929 . S
C321 C315 1.390 1_554 S
C321 C318 1.386 . S
C322 C317 1.490 . S
C322 C324 1.395 . S
C322 C325 1.403 1_556 S
H323 C329 0.930 . S
C324 H310 0.930 . S
C324 C322 1.395 . S
C324 C327 1.403 1_565 S
C325 C322 1.403 1_554 S
C325 C326 1.524 . S
C325 C329 1.400 1_565 S
C326 H311 0.960 . S
C326 H312 0.960 . S
C326 H313 0.960 . S
C326 C325 1.524 . S
C327 C324 1.403 1_545 S
C327 C328 1.392 . S
C327 C331 1.495 . S
C328 C327 1.392 . S
C328 C329 1.385 1_556 S
C328 C330 1.478 . S
C329 H323 0.930 . S
C329 C325 1.400 1_545 S
C329 C328 1.385 1_554 S
C330 C328 1.478 . S
C330 C332 1.381 . S
C330 C336 1.383 . S
C331 C327 1.495 . S
C331 H337 0.959 . S
C331 H338 0.961 . S
C331 H339 0.960 . S
C332 C330 1.381 . S
C332 C333 1.394 . S
C332 H340 0.930 . S
C333 C332 1.394 . S
C333 C334 1.383 . S
C333 H341 0.929 . S
C334 C333 1.383 . S
C334 C335 1.377 . S
C335 H319 0.930 1_556 S
C335 C334 1.377 . S
C335 C336 1.379 . S
C336 H320 0.931 1_556 S
C336 C330 1.383 . S
C336 C335 1.379 . S
H337 C331 0.959 . S
H338 C331 0.961 . S
H339 C331 0.960 . S
H340 C332 0.930 . S
H341 C333 0.929 . S
H342 C350 0.929 . S
H343 C352 0.930 . S
H344 C354 0.930 . S
H345 C357 0.929 . S
H346 C360 0.930 . S
H347 C362 0.960 1_556 S
H348 C362 0.960 . S
H349 C362 0.960 1_556 S
C350 H342 0.929 . S
C350 C351 1.377 . S
C350 C352 1.384 . S
C351 C350 1.377 . S
C351 C357 1.390 1_554 S
C352 H343 0.930 . S
C352 C350 1.384 . S
C352 C353 1.372 . S
C353 C352 1.372 . S
C353 C354 1.400 1_554 S
C353 C358 1.490 . S
C354 H344 0.930 . S
C354 C353 1.400 1_556 S
C354 C357 1.386 . S
H355 C371 0.930 . S
H356 C372 0.931 . S
C357 H345 0.929 . S
C357 C351 1.390 1_556 S
C357 C354 1.386 . S
C358 C353 1.490 . S
C358 C360 1.395 . S
C358 C361 1.403 . S
H359 C365 0.930 1_556 S
C360 H346 0.930 . S
C360 C358 1.395 . S
C360 C363 1.403 . S
C361 C358 1.403 . S
C361 C362 1.524 . S
C361 C365 1.400 . S
C362 H347 0.960 1_554 S
C362 H348 0.960 . S
C362 H349 0.960 1_554 S
C362 C361 1.524 . S
C363 C360 1.403 . S
C363 C364 1.392 . S
C363 C367 1.495 . S
C364 C363 1.392 . S
C364 C365 1.385 . S
C364 C366 1.478 . S
C365 H359 0.930 1_554 S
C365 C361 1.400 . S
C365 C364 1.385 . S
C366 C364 1.478 . S
C366 C368 1.381 . S
C366 C372 1.383 1_554 S
C367 C363 1.495 . S
C367 H373 0.959 . S
C367 H374 0.961 1_554 S
C367 H375 0.960 . S
C368 C366 1.381 . S
C368 C369 1.394 . S
C368 H376 0.930 . S
C369 C368 1.394 . S
C369 C370 1.383 . S
C369 H377 0.929 . S
C370 C369 1.383 . S
C370 C371 1.377 1_554 S
C371 H355 0.930 . S
C371 C370 1.377 1_556 S
C371 C372 1.379 . S
C372 H356 0.931 . S
C372 C366 1.383 1_556 S
C372 C371 1.379 . S
H373 C367 0.959 . S
H374 C367 0.961 1_556 S
H375 C367 0.960 . S
H376 C368 0.930 . S
H377 C369 0.929 . S
H378 C386 0.929 . S
H379 C388 0.930 . S
H380 C390 0.930 . S
H381 C393 0.929 . S
H382 C396 0.930 . S
H383 C398 0.960 . S
H384 C398 0.960 . S
H385 C398 0.960 . S
C386 H378 0.929 . S
C386 C387 1.377 1_556 S
C386 C388 1.384 . S
C387 C386 1.377 1_554 S
C387 C393 1.390 . S
C388 H379 0.930 . S
C388 C386 1.384 . S
C388 C389 1.372 1_556 S
C389 C388 1.372 1_554 S
C389 C390 1.400 . S
C389 C394 1.490 . S
C390 H380 0.930 . S
C390 C389 1.400 . S
C390 C393 1.386 . S
H391 C407 0.930 . S
H392 C408 0.931 . S
C393 H381 0.929 . S
C393 C387 1.390 . S
C393 C390 1.386 . S
C394 C389 1.490 . S
C394 C396 1.395 1_554 S
C394 C397 1.403 . S
H395 C401 0.930 . S
C396 H382 0.930 . S
C396 C394 1.395 1_556 S
C396 C399 1.403 . S
C397 C394 1.403 . S
C397 C398 1.524 . S
C397 C401 1.400 . S
C398 H383 0.960 . S
C398 H384 0.960 . S
C398 H385 0.960 . S
C398 C397 1.524 . S
C399 C396 1.403 . S
C399 C400 1.392 . S
C399 C403 1.495 . S
C400 C399 1.392 . S
C400 C401 1.385 1_556 S
C400 C402 1.478 . S
C401 H395 0.930 . S
C401 C397 1.400 . S
C401 C400 1.385 1_554 S
C402 C400 1.478 . S
C402 C404 1.381 . S
C402 C408 1.383 1_556 S
C403 C399 1.495 . S
C403 H409 0.959 . S
C403 H410 0.961 . S
C403 H411 0.960 . S
C404 C402 1.381 . S
C404 C405 1.394 . S
C404 H412 0.930 . S
C405 C404 1.394 . S
C405 C406 1.383 . S
C405 H413 0.929 . S
C406 C405 1.383 . S
C406 C407 1.377 1_556 S
C407 H391 0.930 . S
C407 C406 1.377 1_554 S
C407 C408 1.379 . S
C408 H392 0.931 . S
C408 C402 1.383 1_554 S
C408 C407 1.379 . S
H409 C403 0.959 . S
H410 C403 0.961 . S
H411 C403 0.960 . S
H412 C404 0.930 . S
H413 C405 0.929 . S
H414 C422 0.929 . S
H415 C424 0.930 . S
H416 C426 0.930 . S
H417 C429 0.929 . S
H418 C432 0.930 . S
H419 C434 0.960 . S
H420 C434 0.960 . S
H421 C434 0.960 1_554 S
C422 H414 0.929 . S
C422 C423 1.377 1_556 S
C422 C424 1.384 . S
C423 C422 1.377 1_554 S
C423 C429 1.390 . S
C424 H415 0.930 . S
C424 C422 1.384 . S
C424 C425 1.372 1_556 S
C425 C424 1.372 1_554 S
C425 C426 1.400 . S
C425 C430 1.490 . S
C426 H416 0.930 . S
C426 C425 1.400 . S
C426 C429 1.386 . S
H427 C443 0.930 . S
H428 C444 0.931 . S
C429 H417 0.929 . S
C429 C423 1.390 . S
C429 C426 1.386 . S
C430 C425 1.490 . S
C430 C432 1.395 . S
C430 C433 1.401 1_554 S
H431 C437 0.929 1_556 S
C432 H418 0.930 . S
C432 C430 1.395 . S
C432 C435 1.403 . S
C433 C430 1.401 1_556 S
C433 C434 1.527 . S
C433 C437 1.399 1_556 S
C434 H419 0.960 . S
C434 H420 0.960 . S
C434 H421 0.960 1_556 S
C434 C433 1.527 . S
C435 C432 1.403 . S
C435 C436 1.392 . S
C435 C439 1.495 . S
C436 C435 1.392 . S
C436 C437 1.385 . S
C436 C438 1.478 . S
C437 H431 0.929 1_554 S
C437 C433 1.399 1_554 S
C437 C436 1.385 . S
C438 C436 1.478 . S
C438 C440 1.381 1_554 S
C438 C444 1.383 . S
C439 C435 1.495 . S
C439 H445 0.959 . S
C439 H446 0.961 . S
C439 H447 0.955 1_554 S
C440 C438 1.381 1_556 S
C440 C441 1.394 . S
C440 H448 0.930 . S
C441 C440 1.394 . S
C441 C442 1.383 1_556 S
C441 H449 0.929 . S
C442 C441 1.383 1_554 S
C442 C443 1.377 . S
C443 H427 0.930 . S
C443 C442 1.377 . S
C443 C444 1.379 . S
C444 H428 0.931 . S
C444 C438 1.383 . S
C444 C443 1.379 . S
H445 C439 0.959 . S
H446 C439 0.961 . S
H447 C439 0.955 1_556 S
H448 C440 0.930 . S
H449 C441 0.929 . S
H450 C458 0.929 . S
H451 C460 0.930 . S
H452 C462 0.930 . S
H453 C465 0.929 . S
H454 C468 0.930 . S
H455 C470 0.960 . S
H456 C470 0.960 . S
H457 C470 0.960 . S
C458 H450 0.929 . S
C458 C459 1.377 1_556 S
C458 C460 1.384 . S
C459 C458 1.377 1_554 S
C459 C465 1.390 . S
C460 H451 0.930 . S
C460 C458 1.384 . S
C460 C461 1.372 1_556 S
C461 C460 1.372 1_554 S
C461 C462 1.400 . S
C461 C466 1.490 . S
C462 H452 0.930 . S
C462 C461 1.400 . S
C462 C465 1.386 . S
H463 C479 0.930 . S
H464 C480 0.931 . S
C465 H453 0.929 . S
C465 C459 1.390 . S
C465 C462 1.386 . S
C466 C461 1.490 . S
C466 C468 1.395 . S
C466 C469 1.403 1_554 S
H467 C473 0.930 . S
C468 H454 0.930 . S
C468 C466 1.395 . S
C468 C471 1.403 . S
C469 C466 1.403 1_556 S
C469 C470 1.524 . S
C469 C473 1.400 . S
C470 H455 0.960 . S
C470 H456 0.960 . S
C470 H457 0.960 . S
C470 C469 1.524 . S
C471 C468 1.403 . S
C471 C472 1.392 . S
C471 C475 1.495 . S
C472 C471 1.392 . S
C472 C473 1.385 1_554 S
C472 C474 1.478 . S
C473 H467 0.930 . S
C473 C469 1.400 . S
C473 C472 1.385 1_556 S
C474 C472 1.478 . S
C474 C476 1.381 1_554 S
C474 C480 1.383 . S
C475 C471 1.495 . S
C475 H481 0.959 . S
C475 H482 0.961 . S
C475 H483 0.960 . S
C476 C474 1.381 1_556 S
C476 C477 1.394 . S
C476 H484 0.930 . S
C477 C476 1.394 . S
C477 C478 1.383 1_556 S
C477 H485 0.929 . S
C478 C477 1.383 1_554 S
C478 C479 1.377 . S
C479 H463 0.930 . S
C479 C478 1.377 . S
C479 C480 1.379 . S
C480 H464 0.931 . S
C480 C474 1.383 . S
C480 C479 1.379 . S
H481 C475 0.959 . S
H482 C475 0.961 . S
H483 C475 0.960 . S
H484 C476 0.930 . S
H485 C477 0.929 . S
H486 C494 0.929 . S
H487 C496 0.930 . S
H488 C498 0.930 . S
H489 C501 0.929 . S
H490 C504 0.930 . S
H491 C506 0.960 . S
H492 C506 0.960 . S
H493 C506 0.960 . S
C494 H486 0.929 . S
C494 C495 1.377 . S
C494 C496 1.384 . S
C495 C494 1.377 . S
C495 C501 1.390 . S
C496 H487 0.930 . S
C496 C494 1.384 . S
C496 C497 1.372 . S
C497 C496 1.372 . S
C497 C498 1.400 . S
C497 C502 1.490 . S
C498 H488 0.930 . S
C498 C497 1.400 . S
C498 C501 1.386 . S
H499 C515 0.930 . S
H500 C516 0.931 . S
C501 H489 0.929 . S
C501 C495 1.390 . S
C501 C498 1.386 . S
C502 C497 1.490 . S
C502 C504 1.395 . S
C502 C505 1.403 1_554 S
H503 C509 0.930 . S
C504 H490 0.930 . S
C504 C502 1.395 . S
C504 C507 1.403 . S
C505 C502 1.403 1_556 S
C505 C506 1.524 . S
C505 C509 1.400 . S
C506 H491 0.960 . S
C506 H492 0.960 . S
C506 H493 0.960 . S
C506 C505 1.524 . S
C507 C504 1.403 . S
C507 C508 1.392 . S
C507 C511 1.495 . S
C508 C507 1.392 . S
C508 C509 1.385 1_554 S
C508 C510 1.478 . S
C509 H503 0.930 . S
C509 C505 1.400 . S
C509 C508 1.385 1_556 S
C510 C508 1.478 . S
C510 C512 1.381 . S
C510 C516 1.383 . S
C511 C507 1.495 . S
C511 H517 0.959 . S
C511 H518 0.961 . S
C511 H519 0.960 . S
C512 C510 1.381 . S
C512 C513 1.394 . S
C512 H520 0.930 . S
C513 C512 1.394 . S
C513 C514 1.383 . S
C513 H521 0.929 . S
C514 C513 1.383 . S
C514 C515 1.377 . S
C515 H499 0.930 . S
C515 C514 1.377 . S
C515 C516 1.379 . S
C516 H500 0.931 . S
C516 C510 1.383 . S
C516 C515 1.379 . S
H517 C511 0.959 . S
H518 C511 0.961 . S
H519 C511 0.960 . S
H520 C512 0.930 . S
H521 C513 0.929 . S
H522 C530 0.929 . S
H523 C532 0.930 . S
H524 C534 0.930 . S
H525 C537 0.929 . S
H526 C540 0.930 . S
H527 C542 0.960 . S
H528 C542 0.960 . S
H529 C542 0.960 . S
C530 H522 0.929 . S
C530 C531 1.377 . S
C530 C532 1.384 . S
C531 C530 1.377 . S
C531 C537 1.390 1_554 S
C532 H523 0.930 . S
C532 C530 1.384 . S
C532 C533 1.372 . S
C533 C532 1.372 . S
C533 C534 1.400 1_554 S
C533 C538 1.490 . S
C534 H524 0.930 . S
C534 C533 1.400 1_556 S
C534 C537 1.386 . S
H535 C551 0.930 . S
H536 C552 0.931 1_556 S
C537 H525 0.929 . S
C537 C531 1.390 1_556 S
C537 C534 1.386 . S
C538 C533 1.490 . S
C538 C540 1.395 . S
C538 C541 1.403 1_554 S
H539 C545 0.930 . S
C540 H526 0.930 . S
C540 C538 1.395 . S
C540 C543 1.403 . S
C541 C538 1.403 1_556 S
C541 C542 1.524 . S
C541 C545 1.400 . S
C542 H527 0.960 . S
C542 H528 0.960 . S
C542 H529 0.960 . S
C542 C541 1.524 . S
C543 C540 1.403 . S
C543 C544 1.392 . S
C543 C547 1.495 . S
C544 C543 1.392 . S
C544 C545 1.385 1_554 S
C544 C546 1.478 . S
C545 H539 0.930 . S
C545 C541 1.400 . S
C545 C544 1.385 1_556 S
C546 C544 1.478 . S
C546 C548 1.381 . S
C546 C552 1.383 . S
C547 C543 1.495 . S
C547 H553 0.959 . S
C547 H554 0.961 . S
C547 H555 0.960 . S
C548 C546 1.381 . S
C548 C549 1.394 . S
C548 H556 0.930 . S
C549 C548 1.394 . S
C549 C550 1.383 . S
C549 H557 0.929 . S
C550 C549 1.383 . S
C550 C551 1.377 1_554 S
C551 H535 0.930 . S
C551 C550 1.377 1_556 S
C551 C552 1.379 1_556 S
C552 H536 0.931 1_554 S
C552 C546 1.383 . S
C552 C551 1.379 1_554 S
H553 C547 0.959 . S
H554 C547 0.961 . S
H555 C547 0.960 . S
H556 C548 0.930 . S
H557 C549 0.929 . S
H558 C566 0.929 . S
H559 C568 0.930 . S
H560 C570 0.930 . S
H561 C573 0.929 . S
H562 C576 0.930 . S
H563 C578 0.960 . S
H564 C578 0.960 . S
H565 C578 0.960 . S
C566 H558 0.929 . S
C566 C567 1.377 . S
C566 C568 1.384 . S
C567 C566 1.377 . S
C567 C573 1.390 . S
C568 H559 0.930 . S
C568 C566 1.384 . S
C568 C569 1.372 . S
C569 C568 1.372 . S
C569 C570 1.400 . S
C569 C574 1.490 . S
C570 H560 0.930 . S
C570 C569 1.400 . S
C570 C573 1.386 . S
H571 C587 0.930 . S
H572 C588 0.931 . S
C573 H561 0.929 . S
C573 C567 1.390 . S
C573 C570 1.386 . S
C574 C569 1.490 . S
C574 C576 1.395 . S
C574 C577 1.403 . S
H575 C581 0.930 . S
C576 H562 0.930 . S
C576 C574 1.395 . S
C576 C579 1.403 . S
C577 C574 1.403 . S
C577 C578 1.524 . S
C577 C581 1.400 . S
C578 H563 0.960 . S
C578 H564 0.960 . S
C578 H565 0.960 . S
C578 C577 1.524 . S
C579 C576 1.403 . S
C579 C580 1.392 . S
C579 C583 1.495 . S
C580 C579 1.392 . S
C580 C581 1.385 . S
C580 C582 1.478 . S
C581 H575 0.930 . S
C581 C577 1.400 . S
C581 C580 1.385 . S
C582 C580 1.478 . S
C582 C584 1.381 . S
C582 C588 1.383 . S
C583 C579 1.495 . S
C583 H589 0.959 . S
C583 H590 0.961 . S
C583 H591 0.960 . S
C584 C582 1.381 . S
C584 C585 1.394 . S
C584 H592 0.930 . S
C585 C584 1.394 . S
C585 C586 1.383 . S
C585 H593 0.929 . S
C586 C585 1.383 . S
C586 C587 1.377 . S
C587 H571 0.930 . S
C587 C586 1.377 . S
C587 C588 1.379 . S
C588 H572 0.931 . S
C588 C582 1.383 . S
C588 C587 1.379 . S
H589 C583 0.959 . S
H590 C583 0.961 . S
H591 C583 0.960 . S
H592 C584 0.930 . S
H593 C585 0.929 . S
H594 C602 0.929 . S
H595 C604 0.930 . S
H596 C606 0.930 . S
H597 C609 0.929 . S
H598 C612 0.930 . S
H599 C614 0.960 . S
H600 C614 0.960 . S
H601 C614 0.960 . S
C602 H594 0.929 . S
C602 C603 1.377 . S
C602 C604 1.384 . S
C603 C602 1.377 . S
C603 C609 1.390 . S
C604 H595 0.930 . S
C604 C602 1.384 . S
C604 C605 1.372 . S
C605 C604 1.372 . S
C605 C606 1.400 . S
C605 C610 1.490 . S
C606 H596 0.930 . S
C606 C605 1.400 . S
C606 C609 1.386 . S
H607 C623 0.930 . S
H608 C624 0.931 . S
C609 H597 0.929 . S
C609 C603 1.390 . S
C609 C606 1.386 . S
C610 C605 1.490 . S
C610 C612 1.395 . S
C610 C613 1.403 . S
H611 C617 0.930 . S
C612 H598 0.930 . S
C612 C610 1.395 . S
C612 C615 1.403 . S
C613 C610 1.403 . S
C613 C614 1.524 . S
C613 C617 1.400 . S
C614 H599 0.960 . S
C614 H600 0.960 . S
C614 H601 0.960 . S
C614 C613 1.524 . S
C615 C612 1.403 . S
C615 C616 1.392 . S
C615 C619 1.495 . S
C616 C615 1.392 . S
C616 C617 1.385 . S
C616 C618 1.478 . S
C617 H611 0.930 . S
C617 C613 1.400 . S
C617 C616 1.385 . S
C618 C616 1.478 . S
C618 C620 1.381 . S
C618 C624 1.383 . S
C619 C615 1.495 . S
C619 H625 0.959 . S
C619 H626 0.961 . S
C619 H627 0.960 . S
C620 C618 1.381 . S
C620 C621 1.394 . S
C620 H628 0.930 . S
C621 C620 1.394 . S
C621 C622 1.383 . S
C621 H629 0.929 . S
C622 C621 1.383 . S
C622 C623 1.377 . S
C623 H607 0.930 . S
C623 C622 1.377 . S
C623 C624 1.379 . S
C624 H608 0.931 . S
C624 C618 1.383 . S
C624 C623 1.379 . S
H625 C619 0.959 . S
H626 C619 0.961 . S
H627 C619 0.960 . S
H628 C620 0.930 . S
H629 C621 0.929 . S
H630 C638 0.929 . S
H631 C640 0.930 . S
H632 C642 0.930 . S
H633 C645 0.929 . S
H634 C648 0.930 . S
H635 C650 0.960 . S
H636 C650 0.960 . S
H637 C650 0.960 . S
C638 H630 0.929 . S
C638 C639 1.377 . S
C638 C640 1.384 . S
C639 C638 1.377 . S
C639 C645 1.390 . S
C640 H631 0.930 . S
C640 C638 1.384 . S
C640 C641 1.372 . S
C641 C640 1.372 . S
C641 C642 1.400 . S
C641 C646 1.490 . S
C642 H632 0.930 . S
C642 C641 1.400 . S
C642 C645 1.386 . S
H643 C659 0.930 . S
H644 C660 0.931 . S
C645 H633 0.929 . S
C645 C639 1.390 . S
C645 C642 1.386 . S
C646 C641 1.490 . S
C646 C648 1.395 . S
C646 C649 1.403 . S
H647 C653 0.930 . S
C648 H634 0.930 . S
C648 C646 1.395 . S
C648 C651 1.403 . S
C649 C646 1.403 . S
C649 C650 1.524 . S
C649 C653 1.400 . S
C650 H635 0.960 . S
C650 H636 0.960 . S
C650 H637 0.960 . S
C650 C649 1.524 . S
C651 C648 1.403 . S
C651 C652 1.392 . S
C651 C655 1.495 . S
C652 C651 1.392 . S
C652 C653 1.385 . S
C652 C654 1.478 . S
C653 H647 0.930 . S
C653 C649 1.400 . S
C653 C652 1.385 . S
C654 C652 1.478 . S
C654 C656 1.381 . S
C654 C660 1.383 . S
C655 C651 1.495 . S
C655 H661 0.959 . S
C655 H662 0.961 . S
C655 H663 0.960 . S
C656 C654 1.381 . S
C656 C657 1.394 . S
C656 H664 0.930 . S
C657 C656 1.394 . S
C657 C658 1.383 . S
C657 H665 0.929 . S
C658 C657 1.383 . S
C658 C659 1.377 . S
C659 H643 0.930 . S
C659 C658 1.377 . S
C659 C660 1.379 . S
C660 H644 0.931 . S
C660 C654 1.383 . S
C660 C659 1.379 . S
H661 C655 0.959 . S
H662 C655 0.961 . S
H663 C655 0.960 . S
H664 C656 0.930 . S
H665 C657 0.929 . S
H666 C674 0.929 . S
H667 C676 0.930 . S
H668 C678 0.930 . S
H669 C681 0.929 . S
H670 C684 0.930 . S
H671 C686 0.960 . S
H672 C686 0.960 . S
H673 C686 0.960 . S
C674 H666 0.929 . S
C674 C675 1.377 . S
C674 C676 1.384 . S
C675 C674 1.377 . S
C675 C681 1.390 . S
C676 H667 0.930 . S
C676 C674 1.384 . S
C676 C677 1.372 . S
C677 C676 1.372 . S
C677 C678 1.400 . S
C677 C682 1.490 . S
C678 H668 0.930 . S
C678 C677 1.400 . S
C678 C681 1.386 . S
H679 C695 0.930 . S
H680 C696 0.931 . S
C681 H669 0.929 . S
C681 C675 1.390 . S
C681 C678 1.386 . S
C682 C677 1.490 . S
C682 C684 1.395 . S
C682 C685 1.403 . S
H683 C689 0.930 . S
C684 H670 0.930 . S
C684 C682 1.395 . S
C684 C687 1.403 . S
C685 C682 1.403 . S
C685 C686 1.524 . S
C685 C689 1.400 . S
C686 H671 0.960 . S
C686 H672 0.960 . S
C686 H673 0.960 . S
C686 C685 1.524 . S
C687 C684 1.403 . S
C687 C688 1.392 . S
C687 C691 1.495 . S
C688 C687 1.392 . S
C688 C689 1.385 . S
C688 C690 1.478 . S
C689 H683 0.930 . S
C689 C685 1.400 . S
C689 C688 1.385 . S
C690 C688 1.478 . S
C690 C692 1.381 . S
C690 C696 1.383 . S
C691 C687 1.495 . S
C691 H697 0.959 . S
C691 H698 0.961 . S
C691 H699 0.960 . S
C692 C690 1.381 . S
C692 C693 1.394 . S
C692 H700 0.930 . S
C693 C692 1.394 . S
C693 C694 1.383 . S
C693 H701 0.929 . S
C694 C693 1.383 . S
C694 C695 1.377 . S
C695 H679 0.930 . S
C695 C694 1.377 . S
C695 C696 1.379 . S
C696 H680 0.931 . S
C696 C690 1.383 . S
C696 C695 1.379 . S
H697 C691 0.959 . S
H698 C691 0.961 . S
H699 C691 0.960 . S
H700 C692 0.930 . S
H701 C693 0.929 . S
H702 C710 0.929 . S
H703 C712 0.930 . S
H704 C714 0.930 . S
H705 C717 0.929 . S
H706 C720 0.930 . S
H707 C722 0.960 . S
H708 C722 0.960 . S
H709 C722 0.960 . S
C710 H702 0.929 . S
C710 C711 1.377 . S
C710 C712 1.384 . S
C711 C710 1.377 . S
C711 C717 1.390 . S
C712 H703 0.930 . S
C712 C710 1.384 . S
C712 C713 1.372 . S
C713 C712 1.372 . S
C713 C714 1.400 . S
C713 C718 1.490 . S
C714 H704 0.930 . S
C714 C713 1.400 . S
C714 C717 1.386 . S
H715 C731 0.930 . S
H716 C732 0.931 . S
C717 H705 0.929 . S
C717 C711 1.390 . S
C717 C714 1.386 . S
C718 C713 1.490 . S
C718 C720 1.395 . S
C718 C721 1.403 . S
H719 C725 0.930 . S
C720 H706 0.930 . S
C720 C718 1.395 . S
C720 C723 1.403 . S
C721 C718 1.403 . S
C721 C722 1.524 . S
C721 C725 1.400 . S
C722 H707 0.960 . S
C722 H708 0.960 . S
C722 H709 0.960 . S
C722 C721 1.524 . S
C723 C720 1.403 . S
C723 C724 1.392 . S
C723 C727 1.495 . S
C724 C723 1.392 . S
C724 C725 1.385 . S
C724 C726 1.478 . S
C725 H719 0.930 . S
C725 C721 1.400 . S
C725 C724 1.385 . S
C726 C724 1.478 . S
C726 C728 1.381 . S
C726 C732 1.383 . S
C727 C723 1.495 . S
C727 H733 0.959 . S
C727 H734 0.961 . S
C727 H735 0.960 . S
C728 C726 1.381 . S
C728 C729 1.394 . S
C728 H736 0.930 . S
C729 C728 1.394 . S
C729 C730 1.383 . S
C729 H737 0.929 . S
C730 C729 1.383 . S
C730 C731 1.377 . S
C731 H715 0.930 . S
C731 C730 1.377 . S
C731 C732 1.379 . S
C732 H716 0.931 . S
C732 C726 1.383 . S
C732 C731 1.379 . S
H733 C727 0.959 . S
H734 C727 0.961 . S
H735 C727 0.960 . S
H736 C728 0.930 . S
H737 C729 0.929 . S
H738 C746 0.929 . S
H739 C748 0.930 . S
H740 C750 0.930 . S
H741 C753 0.929 . S
H742 C756 0.930 . S
H743 C758 0.960 . S
H744 C758 0.960 . S
H745 C758 0.960 . S
C746 H738 0.929 . S
C746 C747 1.377 . S
C746 C748 1.384 . S
C747 C746 1.377 . S
C747 C753 1.390 . S
C748 H739 0.930 . S
C748 C746 1.384 . S
C748 C749 1.372 . S
C749 C748 1.372 . S
C749 C750 1.400 . S
C749 C754 1.490 . S
C750 H740 0.930 . S
C750 C749 1.400 . S
C750 C753 1.386 . S
H751 C767 0.930 . S
H752 C768 0.931 . S
C753 H741 0.929 . S
C753 C747 1.390 . S
C753 C750 1.386 . S
C754 C749 1.490 . S
C754 C756 1.395 . S
C754 C757 1.403 . S
H755 C761 0.930 . S
C756 H742 0.930 . S
C756 C754 1.395 . S
C756 C759 1.403 . S
C757 C754 1.403 . S
C757 C758 1.524 . S
C757 C761 1.400 . S
C758 H743 0.960 . S
C758 H744 0.960 . S
C758 H745 0.960 . S
C758 C757 1.524 . S
C759 C756 1.403 . S
C759 C760 1.392 . S
C759 C763 1.495 . S
C760 C759 1.392 . S
C760 C761 1.385 . S
C760 C762 1.478 . S
C761 H755 0.930 . S
C761 C757 1.400 . S
C761 C760 1.385 . S
C762 C760 1.478 . S
C762 C764 1.381 . S
C762 C768 1.383 . S
C763 C759 1.495 . S
C763 H769 0.959 . S
C763 H770 0.961 . S
C763 H771 0.960 . S
C764 C762 1.381 . S
C764 C765 1.394 . S
C764 H772 0.930 . S
C765 C764 1.394 . S
C765 C766 1.383 . S
C765 H773 0.929 . S
C766 C765 1.383 . S
C766 C767 1.377 . S
C767 H751 0.930 . S
C767 C766 1.377 . S
C767 C768 1.379 . S
C768 H752 0.931 . S
C768 C762 1.383 . S
C768 C767 1.379 . S
H769 C763 0.959 . S
H770 C763 0.961 . S
H771 C763 0.960 . S
H772 C764 0.930 . S
H773 C765 0.929 . S
C135 C121 1.228 . S
C154 C15 1.088 1_556 S
C171 C16 1.226 . S
C190 C36 1.103 1_556 S
C207 C37 1.240 . S
C226 C57 0.990 1_556 S
C243 C78 1.052 1_556 S
C262 C58 1.200 . S
C279 C99 1.031 1_556 S
C298 C79 1.264 . S
C315 C100 1.228 . S
C334 C120 1.090 1_556 S
C351 C98 1.533 . S
C370 C18 1.360 1_554 S
C387 C119 1.528 . S
C406 C39 1.364 . S
C423 C60 1.383 1_554 S
C442 C14 1.512 . S
C459 C81 1.381 1_554 S
C478 C35 1.514 . S
C495 C102 1.379 1_554 S
C514 C56 1.521 . S
C531 C77 1.535 . S
C550 C123 1.421 1_554 S
C567 C17 1.463 . S
C586 C13 1.460 . S
C603 C38 1.461 . S
C622 C34 1.481 . S
C639 C59 1.459 . S
C658 C55 1.465 . S
C675 C80 1.469 . S
C694 C76 1.509 . S
C711 C97 1.491 . S
C730 C101 1.493 . S
C747 C122 1.472 . S
C766 C118 1.505 . S
