# Generated by pormake.
# Topology uoy, (4)-cn, num edge types: 1
# Building blocks:
#     Node 0, Type 0, BuildingBlock: ICAMEG_clean_sbu_1, # of connection points: 4
#     Node 1, Type 0, BuildingBlock: ICAMEG_clean_sbu_1, # of connection points: 4
#     Node 2, Type 0, BuildingBlock: ICAMEG_clean_sbu_1, # of connection points: 4
#     Node 3, Type 0, BuildingBlock: ICAMEG_clean_sbu_1, # of connection points: 4
#     Node 4, Type 0, BuildingBlock: ICAMEG_clean_sbu_1, # of connection points: 4
#     Node 5, Type 0, BuildingBlock: ICAMEG_clean_sbu_1, # of connection points: 4
#     Node 6, Type 0, BuildingBlock: ICAMEG_clean_sbu_1, # of connection points: 4
#     Node 7, Type 0, BuildingBlock: ICAMEG_clean_sbu_1, # of connection points: 4
#     Node 8, Type 0, BuildingBlock: ICAMEG_clean_sbu_1, # of connection points: 4
#     Node 9, Type 0, BuildingBlock: ICAMEG_clean_sbu_1, # of connection points: 4
#     Node 10, Type 0, BuildingBlock: ICAMEG_clean_sbu_1, # of connection points: 4
#     Node 11, Type 0, BuildingBlock: ICAMEG_clean_sbu_1, # of connection points: 4
#     Node 12, Type 0, BuildingBlock: ICAMEG_clean_sbu_1, # of connection points: 4
#     Node 13, Type 0, BuildingBlock: ICAMEG_clean_sbu_1, # of connection points: 4
#     Node 14, Type 0, BuildingBlock: ICAMEG_clean_sbu_1, # of connection points: 4
#     Node 15, Type 0, BuildingBlock: ICAMEG_clean_sbu_1, # of connection points: 4
#     Edge 16, Type (0, 0), BuildingBlock: XIVTED_clean_linker_0, # of connection points: 2
#     Edge 17, Type (0, 0), BuildingBlock: XIVTED_clean_linker_0, # of connection points: 2
#     Edge 18, Type (0, 0), BuildingBlock: XIVTED_clean_linker_0, # of connection points: 2
#     Edge 19, Type (0, 0), BuildingBlock: XIVTED_clean_linker_0, # of connection points: 2
#     Edge 20, Type (0, 0), BuildingBlock: XIVTED_clean_linker_0, # of connection points: 2
#     Edge 21, Type (0, 0), BuildingBlock: XIVTED_clean_linker_0, # of connection points: 2
#     Edge 22, Type (0, 0), BuildingBlock: XIVTED_clean_linker_0, # of connection points: 2
#     Edge 23, Type (0, 0), BuildingBlock: XIVTED_clean_linker_0, # of connection points: 2
#     Edge 24, Type (0, 0), BuildingBlock: XIVTED_clean_linker_0, # of connection points: 2
#     Edge 25, Type (0, 0), BuildingBlock: XIVTED_clean_linker_0, # of connection points: 2
#     Edge 26, Type (0, 0), BuildingBlock: XIVTED_clean_linker_0, # of connection points: 2
#     Edge 27, Type (0, 0), BuildingBlock: XIVTED_clean_linker_0, # of connection points: 2
#     Edge 28, Type (0, 0), BuildingBlock: XIVTED_clean_linker_0, # of connection points: 2
#     Edge 29, Type (0, 0), BuildingBlock: XIVTED_clean_linker_0, # of connection points: 2
#     Edge 30, Type (0, 0), BuildingBlock: XIVTED_clean_linker_0, # of connection points: 2
#     Edge 31, Type (0, 0), BuildingBlock: XIVTED_clean_linker_0, # of connection points: 2
#     Edge 32, Type (0, 0), BuildingBlock: XIVTED_clean_linker_0, # of connection points: 2
#     Edge 33, Type (0, 0), BuildingBlock: XIVTED_clean_linker_0, # of connection points: 2
#     Edge 34, Type (0, 0), BuildingBlock: XIVTED_clean_linker_0, # of connection points: 2
#     Edge 35, Type (0, 0), BuildingBlock: XIVTED_clean_linker_0, # of connection points: 2
#     Edge 36, Type (0, 0), BuildingBlock: XIVTED_clean_linker_0, # of connection points: 2
#     Edge 37, Type (0, 0), BuildingBlock: XIVTED_clean_linker_0, # of connection points: 2
#     Edge 38, Type (0, 0), BuildingBlock: XIVTED_clean_linker_0, # of connection points: 2
#     Edge 39, Type (0, 0), BuildingBlock: XIVTED_clean_linker_0, # of connection points: 2
#     Edge 40, Type (0, 0), BuildingBlock: XIVTED_clean_linker_0, # of connection points: 2
#     Edge 41, Type (0, 0), BuildingBlock: XIVTED_clean_linker_0, # of connection points: 2
#     Edge 42, Type (0, 0), BuildingBlock: XIVTED_clean_linker_0, # of connection points: 2
#     Edge 43, Type (0, 0), BuildingBlock: XIVTED_clean_linker_0, # of connection points: 2
#     Edge 44, Type (0, 0), BuildingBlock: XIVTED_clean_linker_0, # of connection points: 2
#     Edge 45, Type (0, 0), BuildingBlock: XIVTED_clean_linker_0, # of connection points: 2
#     Edge 46, Type (0, 0), BuildingBlock: XIVTED_clean_linker_0, # of connection points: 2
#     Edge 47, Type (0, 0), BuildingBlock: XIVTED_clean_linker_0, # of connection points: 2
# Relax obj value: 0.022
# Max RMSD: 0.075
# Mean RMSD: 0.075
data_MOF--net-uoy--node1-ICAMEG_clean_sbu_1--edge1-XIVTED_clean_linker_0
_symmetry_space_group_name_H-M    P1
_symmetry_Int_Tables_number       1
_symmetry_cell_setting            triclinic
loop_
_symmetry_equiv_pos_as_xyz
'x, y, z'
_cell_length_a     29.198936
_cell_length_b     29.214165
_cell_length_c     117.95398
_cell_angle_alpha  90.026812
_cell_angle_beta   89.996018
_cell_angle_gamma 89.981581
loop_
_atom_site_label
_atom_site_type_symbol
_atom_site_fract_x
_atom_site_fract_y
_atom_site_fract_z
_atom_type_partial_charge
Co0 Co 0.30618 0.16607 0.18825 0.0
Co1 Co 0.25516 0.06513 0.19514 0.0
O2 O 0.25545 0.1227 0.18664 0.0
C3 C 0.29601 0.16285 0.16301 0.0
O4 O 0.29826 0.11795 0.16324 0.0
C5 C 0.16093 0.06304 0.20441 0.0
O6 O 0.17923 0.06345 0.21458 0.0
O7 O 0.25991 0.10034 0.20961 0.0
O8 O 0.31506 0.1494 0.20456 0.0
H9 H 0.30805 0.95758 0.2257 0.0
H10 H 0.21647 0.19737 0.17947 0.0
O11 O 0.29837 0.18577 0.17215 0.0
H12 H 0.24665 0.29352 0.21302 0.0
H13 H 0.38765 0.31587 0.18185 0.0
H14 H 0.39807 0.16217 0.19892 0.0
H15 H 0.30244 0.23508 0.20697 0.0
H16 H 0.32319 0.26173 0.18034 0.0
O17 O 0.18635 0.06739 0.19568 0.0
H18 H 0.30842 0.02897 0.21456 0.0
H19 H 0.19964 0.97906 0.19409 0.0
H20 H 0.46319 0.2154 0.20071 0.0
H21 H 0.1599 0.25579 0.18516 0.0
H22 H 0.45822 0.29289 0.19213 0.0
H23 H 0.17482 0.3043 0.20206 0.0
O24 O 0.35046 0.11731 0.18364 0.0
H25 H 0.1936 0.03362 0.15613 0.0
H26 H 0.30508 0.98524 0.18516 0.0
H27 H 0.30189 0.94423 0.16691 0.0
H28 H 0.24573 0.96826 0.15225 0.0
H29 H 0.19828 0.07404 0.17446 0.0
H30 H 0.198 0.9072 0.20504 0.0
H31 H 0.25253 0.89607 0.22096 0.0
O32 O 0.32351 0.06058 0.19453 0.0
C33 C 0.29072 0.12967 0.21208 0.0
C34 C 0.28414 0.962 0.21877 0.0
C35 C 0.22238 0.93373 0.20718 0.0
N36 N 0.25416 0.00821 0.20367 0.0
C37 C 0.2842 0.00236 0.21243 0.0
C38 C 0.22346 0.97452 0.20102 0.0
C39 C 0.25298 0.92751 0.21611 0.0
C40 C 0.22329 0.21851 0.18681 0.0
N41 N 0.26277 0.21286 0.19286 0.0
C42 C 0.1911 0.25146 0.19 0.0
C43 C 0.19948 0.27864 0.19949 0.0
C44 C 0.23975 0.2726 0.20565 0.0
C45 C 0.27116 0.23932 0.2022 0.0
C46 C 0.39022 0.28221 0.18563 0.0
C47 C 0.39556 0.19588 0.1952 0.0
C48 C 0.35387 0.25134 0.18477 0.0
N49 N 0.35675 0.20886 0.18958 0.0
C50 C 0.43259 0.22585 0.19622 0.0
C51 C 0.42979 0.26931 0.1914 0.0
C52 C 0.35493 0.0784 0.18845 0.0
C53 C 0.2181 0.02272 0.16247 0.0
C54 C 0.28066 0.99607 0.17881 0.0
C55 C 0.27894 0.97261 0.1685 0.0
C56 C 0.24741 0.9861 0.16029 0.0
N57 N 0.25167 0.03186 0.18091 0.0
C58 C 0.22079 0.04536 0.17288 0.0
Co59 Co 0.84603 0.79178 0.43941 0.0
Co60 Co 0.95152 0.75384 0.44783 0.0
O61 O 0.89472 0.74517 0.43906 0.0
C62 C 0.84436 0.75502 0.41519 0.0
O63 O 0.87746 0.72561 0.41706 0.0
C64 C 0.93136 0.65577 0.45379 0.0
O65 O 0.88917 0.66593 0.45673 0.0
O66 O 0.915 0.75932 0.46206 0.0
O67 O 0.85909 0.8053 0.45577 0.0
H68 H 0.04971 0.82855 0.47753 0.0
H69 H 0.82611 0.69525 0.43256 0.0
O70 O 0.82995 0.78135 0.42303 0.0
H71 H 0.71939 0.7287 0.46382 0.0
H72 H 0.69093 0.85829 0.43044 0.0
H73 H 0.8399 0.88546 0.44895 0.0
H74 H 0.77367 0.78738 0.4572 0.0
H75 H 0.7507 0.79864 0.43032 0.0
O76 O 0.95802 0.68646 0.44998 0.0
H77 H 0.98 0.81771 0.46606 0.0
H78 H 0.04268 0.7072 0.44853 0.0
H79 H 0.78091 0.94587 0.44937 0.0
H80 H 0.77214 0.63588 0.43881 0.0
H81 H 0.70578 0.93246 0.44006 0.0
H82 H 0.71817 0.65233 0.45456 0.0
O83 O 0.89071 0.83918 0.43445 0.0
H84 H 0.99372 0.68201 0.41056 0.0
H85 H 0.0278 0.80738 0.43721 0.0
H86 H 0.07086 0.80202 0.4193 0.0
H87 H 0.05399 0.73887 0.40583 0.0
H88 H 0.95109 0.68909 0.42853 0.0
H89 H 0.11291 0.71657 0.45989 0.0
H90 H 0.11682 0.77774 0.47449 0.0
O91 O 0.94913 0.82153 0.44585 0.0
C92 C 0.88167 0.78676 0.46381 0.0
C93 C 0.04844 0.80179 0.47119 0.0
C94 C 0.08388 0.73891 0.4613 0.0
N95 N 0.00718 0.76184 0.45662 0.0
C96 C 0.00905 0.7955 0.46466 0.0
C97 C 0.04392 0.73362 0.45493 0.0
C98 C 0.08607 0.77325 0.46949 0.0
C99 C 0.80237 0.70318 0.43926 0.0
N100 N 0.80252 0.74531 0.44428 0.0
C101 C 0.77202 0.66917 0.44284 0.0
C102 C 0.74183 0.67838 0.45169 0.0
C103 C 0.7425 0.7212 0.45688 0.0
C104 C 0.77335 0.75433 0.45308 0.0
C105 C 0.72349 0.86451 0.43455 0.0
C106 C 0.8072 0.87925 0.44494 0.0
C107 C 0.75753 0.83091 0.43448 0.0
N108 N 0.79866 0.83842 0.4397 0.0
C109 C 0.77397 0.91364 0.44518 0.0
C110 C 0.73184 0.90611 0.43995 0.0
C111 C 0.92912 0.84856 0.43901 0.0
C112 C 1.00132 0.70976 0.41634 0.0
C113 C 0.01979 0.78023 0.43134 0.0
C114 C 0.04452 0.77715 0.42124 0.0
C115 C 0.0351 0.74168 0.41369 0.0
N116 N 0.98653 0.74893 0.43387 0.0
C117 C 0.9773 0.71393 0.42653 0.0
Co118 Co 0.21796 0.33262 0.68691 0.0
Co119 Co 0.24172 0.44658 0.69255 0.0
O120 O 0.25741 0.38702 0.68582 0.0
C121 C 0.23045 0.33837 0.66189 0.0
O122 O 0.21944 0.38192 0.66236 0.0
C123 C 0.33692 0.43024 0.70115 0.0
O124 O 0.32751 0.38683 0.70285 0.0
O125 O 0.22797 0.41732 0.70756 0.0
O126 O 0.20161 0.34778 0.70282 0.0
H127 H 0.1438 0.55407 0.71532 0.0
H128 H 0.3137 0.32224 0.67903 0.0
O129 O 0.2331 0.31487 0.67094 0.0
H130 H 0.30256 0.22766 0.71353 0.0
H131 H 0.17807 0.1669 0.68045 0.0
H132 H 0.12613 0.31371 0.69659 0.0
H133 H 0.23529 0.26988 0.70643 0.0
H134 H 0.2271 0.23546 0.67937 0.0
O135 O 0.30659 0.45712 0.69725 0.0
H136 H 0.1645 0.4803 0.70652 0.0
H137 H 0.28584 0.53904 0.69301 0.0
H138 H 0.07613 0.24593 0.69793 0.0
H139 H 0.38176 0.28022 0.68577 0.0
H140 H 0.10203 0.17183 0.68981 0.0
H141 H 0.37644 0.2326 0.70316 0.0
O142 O 0.16346 0.36781 0.68149 0.0
H143 H 0.33393 0.47101 0.6571 0.0
H144 H 0.19611 0.51771 0.67829 0.0
H145 H 0.21169 0.55211 0.65959 0.0
H146 H 0.28113 0.52881 0.64887 0.0
H147 H 0.31662 0.43712 0.67577 0.0
H148 H 0.2667 0.61327 0.70176 0.0
H149 H 0.19512 0.6212 0.71297 0.0
O150 O 0.17686 0.43938 0.68772 0.0
C151 C 0.20883 0.37929 0.71005 0.0
C152 C 0.17504 0.55108 0.71043 0.0
C153 C 0.24406 0.58428 0.70284 0.0
N154 N 0.22623 0.50537 0.69922 0.0
C155 C 0.18688 0.50942 0.70541 0.0
C156 C 0.25481 0.54208 0.69794 0.0
C157 C 0.20387 0.58871 0.70912 0.0
C158 C 0.31105 0.30126 0.68654 0.0
N159 N 0.27055 0.29839 0.6923 0.0
C160 C 0.34972 0.27769 0.69035 0.0
C161 C 0.34673 0.25104 0.70012 0.0
C162 C 0.3053 0.24828 0.70594 0.0
C163 C 0.26736 0.27238 0.7019 0.0
C164 C 0.16639 0.19899 0.68401 0.0
C165 C 0.13768 0.28159 0.69306 0.0
C166 C 0.19394 0.23798 0.68339 0.0
N167 N 0.17951 0.27859 0.68792 0.0
C168 C 0.1092 0.24333 0.69383 0.0
C169 C 0.12374 0.20177 0.68927 0.0
C170 C 0.15147 0.40936 0.68306 0.0
C171 C 0.30349 0.48136 0.66168 0.0
C172 C 0.22598 0.50697 0.6736 0.0
C173 C 0.23484 0.52679 0.66306 0.0
C174 C 0.27384 0.51376 0.65706 0.0
N175 N 0.25507 0.47505 0.67805 0.0
C176 C 0.29353 0.46231 0.67225 0.0
Co177 Co 0.66876 0.7103 0.93665 0.0
Co178 Co 0.56299 0.75383 0.94389 0.0
O179 O 0.62216 0.75896 0.936 0.0
C180 C 0.66415 0.72637 0.91164 0.0
O181 O 0.61942 0.72188 0.91202 0.0
C182 C 0.58949 0.85415 0.94611 0.0
O183 O 0.62917 0.84747 0.94117 0.0
O184 O 0.59518 0.74084 0.95849 0.0
O185 O 0.65254 0.69561 0.95267 0.0
H186 H 0.45088 0.67807 0.97018 0.0
H187 H 0.69752 0.80243 0.9289 0.0
O188 O 0.68773 0.72353 0.92068 0.0
H189 H 0.79047 0.77112 0.96293 0.0
H190 H 0.82369 0.64081 0.92904 0.0
H191 H 0.67084 0.61556 0.94568 0.0
H192 H 0.73512 0.71407 0.95593 0.0
H193 H 0.7654 0.70186 0.9286 0.0
O194 O 0.56216 0.8209 0.94783 0.0
H195 H 0.52384 0.68602 0.95984 0.0
H196 H 0.47768 0.81047 0.94513 0.0
H197 H 0.72823 0.5537 0.94637 0.0
H198 H 0.75296 0.86024 0.93553 0.0
H199 H 0.80532 0.56614 0.93801 0.0
H200 H 0.79979 0.8448 0.95268 0.0
O201 O 0.62345 0.66411 0.93126 0.0
H202 H 0.53981 0.83474 0.9066 0.0
H203 H 0.48174 0.71438 0.93205 0.0
H204 H 0.44305 0.72814 0.91383 0.0
H205 H 0.47191 0.78891 0.90096 0.0
H206 H 0.5778 0.81934 0.92479 0.0
H207 H 0.40445 0.8041 0.95541 0.0
H208 H 0.39057 0.7374 0.968 0.0
O209 O 0.55981 0.68695 0.9403 0.0
C210 C 0.62772 0.71275 0.96047 0.0
C211 C 0.45646 0.70722 0.96469 0.0
C212 C 0.43044 0.77798 0.95642 0.0
N213 N 0.50494 0.74847 0.95182 0.0
C214 C 0.49766 0.71183 0.95879 0.0
C215 C 0.47206 0.78148 0.95065 0.0
C216 C 0.42266 0.74054 0.96348 0.0
C217 C 0.71794 0.79536 0.93634 0.0
N218 N 0.71286 0.75501 0.94205 0.0
C219 C 0.7492 0.82827 0.94007 0.0
C220 C 0.77543 0.81961 0.9497 0.0
C221 C 0.77017 0.77831 0.95546 0.0
C222 C 0.73856 0.74623 0.95149 0.0
C223 C 0.79024 0.63499 0.93272 0.0
C224 C 0.70435 0.62132 0.94206 0.0
C225 C 0.75703 0.6694 0.93247 0.0
N226 N 0.71478 0.66237 0.93715 0.0
C227 C 0.73669 0.58612 0.94246 0.0
C228 C 0.77992 0.59311 0.93776 0.0
C229 C 0.58241 0.6575 0.9346 0.0
C230 C 0.5267 0.80836 0.91216 0.0
C231 C 0.49467 0.74073 0.92651 0.0
C232 C 0.47251 0.74847 0.9162 0.0
C233 C 0.48869 0.78257 0.90899 0.0
N234 N 0.53177 0.76637 0.92963 0.0
C235 C 0.54795 0.79966 0.92255 0.0
Co236 Co 0.30759 0.33296 0.06421 0.0
Co237 Co 0.25813 0.43467 0.05723 0.0
O238 O 0.25712 0.37679 0.06559 0.0
C239 C 0.29608 0.33596 0.0894 0.0
O240 O 0.29933 0.3808 0.0892 0.0
C241 C 0.16458 0.43883 0.04752 0.0
O242 O 0.1836 0.43891 0.03743 0.0
O243 O 0.26409 0.4 0.04269 0.0
O244 O 0.31807 0.34992 0.04798 0.0
H245 H 0.31479 0.54288 0.02723 0.0
H246 H 0.21697 0.30221 0.07251 0.0
O247 O 0.29822 0.31308 0.08025 0.0
H248 H 0.24894 0.20684 0.03892 0.0
H249 H 0.38698 0.1822 0.07088 0.0
H250 H 0.4004 0.33604 0.05401 0.0
H251 H 0.3047 0.26466 0.04533 0.0
H252 H 0.32296 0.23702 0.07211 0.0
O253 O 0.18932 0.43321 0.05633 0.0
H254 H 0.31341 0.47104 0.03817 0.0
H255 H 0.20356 0.52141 0.05823 0.0
H256 H 0.4651 0.28213 0.0525 0.0
H257 H 0.1604 0.24443 0.06646 0.0
H258 H 0.45863 0.20457 0.06097 0.0
H259 H 0.17623 0.19631 0.04954 0.0
O260 O 0.352 0.38115 0.06911 0.0
H261 H 0.19344 0.46531 0.09597 0.0
H262 H 0.30804 0.51352 0.06769 0.0
H263 H 0.30366 0.55382 0.08602 0.0
H264 H 0.24593 0.52988 0.1003 0.0
H265 H 0.19932 0.42557 0.07758 0.0
H266 H 0.20366 0.59374 0.04747 0.0
H267 H 0.25961 0.60487 0.03185 0.0
O268 O 0.32637 0.43843 0.05819 0.0
C269 C 0.29518 0.37068 0.04034 0.0
C270 C 0.29025 0.53846 0.03402 0.0
C271 C 0.22789 0.567 0.04538 0.0
N272 N 0.25848 0.49196 0.04884 0.0
C273 C 0.28932 0.49784 0.04025 0.0
C274 C 0.22798 0.52594 0.05143 0.0
C275 C 0.25928 0.57322 0.03662 0.0
C276 C 0.22419 0.28123 0.06517 0.0
N277 N 0.26415 0.28673 0.05931 0.0
C278 C 0.19199 0.24864 0.06177 0.0
C279 C 0.20087 0.22168 0.05227 0.0
C280 C 0.24165 0.22759 0.04631 0.0
C281 C 0.27304 0.2605 0.04996 0.0
C282 C 0.3902 0.21588 0.06714 0.0
C283 C 0.39723 0.3023 0.05769 0.0
C284 C 0.35411 0.24714 0.06784 0.0
N285 N 0.35783 0.28966 0.06309 0.0
C286 C 0.43402 0.27194 0.05682 0.0
C287 C 0.43038 0.22845 0.06158 0.0
C288 C 0.35719 0.42001 0.06434 0.0
C289 C 0.21862 0.47617 0.0898 0.0
C290 C 0.28292 0.50274 0.07387 0.0
C291 C 0.28054 0.52579 0.08423 0.0
C292 C 0.24813 0.51235 0.09223 0.0
N293 N 0.25371 0.4674 0.07152 0.0
C294 C 0.22199 0.45392 0.07935 0.0
Co295 Co 0.66886 0.79363 0.318 0.0
Co296 Co 0.56692 0.75068 0.30857 0.0
O297 O 0.62109 0.74607 0.31845 0.0
C298 C 0.66621 0.76063 0.34247 0.0
O299 O 0.63248 0.73222 0.34039 0.0
C300 C 0.58521 0.64882 0.31108 0.0
O301 O 0.62114 0.6558 0.31752 0.0
O302 O 0.60769 0.75223 0.29514 0.0
O303 O 0.65846 0.80387 0.3013 0.0
H304 H 0.47715 0.81585 0.27598 0.0
H305 H 0.69251 0.70021 0.32666 0.0
O306 O 0.6824 0.78615 0.33467 0.0
H307 H 0.80069 0.72959 0.29548 0.0
H308 H 0.82062 0.86563 0.32779 0.0
H309 H 0.67451 0.88549 0.30742 0.0
H310 H 0.74328 0.78748 0.30079 0.0
H311 H 0.76223 0.80468 0.32803 0.0
O312 O 0.56237 0.68222 0.30705 0.0
H313 H 0.54297 0.80973 0.28898 0.0
H314 H 0.47808 0.70055 0.30651 0.0
H315 H 0.73214 0.94712 0.30688 0.0
H316 H 0.74961 0.64173 0.32174 0.0
H317 H 0.80583 0.93739 0.31711 0.0
H318 H 0.80432 0.6561 0.30602 0.0
O319 O 0.62191 0.84053 0.32186 0.0
H320 H 0.51104 0.69367 0.34651 0.0
H321 H 0.48709 0.8065 0.31604 0.0
H322 H 0.43658 0.80745 0.33274 0.0
H323 H 0.44821 0.7506 0.34812 0.0
H324 H 0.56101 0.69431 0.32977 0.0
H325 H 0.41171 0.70529 0.29364 0.0
H326 H 0.41087 0.76338 0.27827 0.0
O327 O 0.56812 0.81916 0.30944 0.0
C328 C 0.63928 0.78139 0.29331 0.0
C329 C 0.47704 0.79049 0.28267 0.0
C330 C 0.44035 0.7284 0.29257 0.0
N331 N 0.5143 0.75506 0.29855 0.0
C332 C 0.51419 0.78693 0.29008 0.0
C333 C 0.4781 0.72581 0.29981 0.0
C334 C 0.43989 0.76101 0.28395 0.0
C335 C 0.71629 0.70718 0.31992 0.0
N336 N 0.71458 0.74764 0.31414 0.0
C337 C 0.74854 0.6737 0.31712 0.0
C338 C 0.77917 0.68175 0.30829 0.0
C339 C 0.77713 0.72294 0.30237 0.0
C340 C 0.74441 0.75559 0.30541 0.0
C341 C 0.78867 0.87025 0.32328 0.0
C342 C 0.70657 0.88089 0.31185 0.0
C343 C 0.75541 0.83591 0.32341 0.0
N344 N 0.71507 0.84139 0.31768 0.0
C345 C 0.73904 0.91596 0.31153 0.0
C346 C 0.78036 0.9105 0.31729 0.0
C347 C 0.58561 0.84835 0.3162 0.0
C348 C 0.50545 0.71847 0.33984 0.0
C349 C 0.49259 0.78165 0.32268 0.0
C350 C 0.46375 0.78235 0.33213 0.0
C351 C 0.47027 0.75046 0.34075 0.0
N352 N 0.52694 0.74997 0.32179 0.0
C353 C 0.53362 0.71881 0.33027 0.0
Co354 Co 0.20317 0.16941 0.56337 0.0
Co355 Co 0.24505 0.06215 0.55676 0.0
O356 O 0.25133 0.12233 0.5641 0.0
C357 C 0.22178 0.16625 0.58823 0.0
O358 O 0.21791 0.12148 0.58792 0.0
C359 C 0.34511 0.08807 0.55357 0.0
O360 O 0.3387 0.12872 0.55801 0.0
O361 O 0.23018 0.09219 0.54198 0.0
O362 O 0.18711 0.15167 0.54753 0.0
H363 H 0.16571 0.94667 0.53205 0.0
H364 H 0.29603 0.19811 0.57066 0.0
O365 O 0.21763 0.18959 0.57919 0.0
H366 H 0.26398 0.28722 0.53606 0.0
H367 H 0.13647 0.32597 0.57033 0.0
H368 H 0.10781 0.17206 0.5547 0.0
H369 H 0.20673 0.23324 0.5436 0.0
H370 H 0.19668 0.26682 0.57088 0.0
O371 O 0.31174 0.06041 0.55236 0.0
H372 H 0.17512 0.021 0.54169 0.0
H373 H 0.30126 0.97652 0.55587 0.0
H374 H 0.04676 0.23029 0.5539 0.0
H375 H 0.35401 0.25223 0.5635 0.0
H376 H 0.06091 0.30791 0.56175 0.0
H377 H 0.33821 0.29712 0.54605 0.0
O378 O 0.15666 0.1254 0.56921 0.0
H379 H 0.33083 0.04388 0.59356 0.0
H380 H 0.2067 0.98303 0.56963 0.0
H381 H 0.22267 0.94694 0.58806 0.0
H382 H 0.28534 0.97722 0.60017 0.0
H383 H 0.3132 0.07929 0.57518 0.0
H384 H 0.29342 0.90193 0.54628 0.0
H385 H 0.22515 0.88653 0.53431 0.0
O386 O 0.17859 0.05987 0.56087 0.0
C387 C 0.20236 0.12488 0.5399 0.0
C388 C 0.19554 0.95292 0.53727 0.0
C389 C 0.26726 0.92784 0.54524 0.0
N390 N 0.23851 0.00303 0.5494 0.0
C391 C 0.20099 0.9949 0.54277 0.0
C392 C 0.27157 0.97022 0.55062 0.0
C393 C 0.22893 0.91921 0.53853 0.0
C394 C 0.28877 0.21773 0.5631 0.0
N395 N 0.24811 0.21232 0.55753 0.0
C396 C 0.3218 0.24823 0.55907 0.0
C397 C 0.31293 0.27336 0.54927 0.0
C398 C 0.27132 0.26777 0.54365 0.0
C399 C 0.23913 0.23693 0.54793 0.0
C400 C 0.1299 0.29229 0.56687 0.0
C401 C 0.11431 0.20579 0.5581 0.0
C402 C 0.16382 0.2586 0.56719 0.0
N403 N 0.15585 0.21604 0.56279 0.0
C404 C 0.07957 0.23861 0.55764 0.0
C405 C 0.08752 0.28214 0.56205 0.0
C406 C 0.14957 0.08385 0.56636 0.0
C407 C 0.30362 0.03017 0.58833 0.0
C408 C 0.23386 0.99658 0.57483 0.0
C409 C 0.24286 0.97588 0.58527 0.0
C410 C 0.27803 0.99285 0.59205 0.0
N411 N 0.25929 0.03299 0.57118 0.0
C412 C 0.29365 0.04994 0.57784 0.0
Co413 Co 0.83218 0.71174 0.81305 0.0
Co414 Co 0.9374 0.75545 0.80541 0.0
O415 O 0.87843 0.76074 0.81339 0.0
C416 C 0.83732 0.72865 0.83803 0.0
O417 O 0.882 0.72366 0.83763 0.0
C418 C 0.9105 0.85566 0.803 0.0
O419 O 0.8712 0.84914 0.80814 0.0
O420 O 0.90493 0.74086 0.79091 0.0
O421 O 0.84799 0.6959 0.79708 0.0
H422 H 0.04933 0.67842 0.77925 0.0
H423 H 0.80307 0.80425 0.82045 0.0
O424 O 0.81363 0.72602 0.82901 0.0
H425 H 0.7091 0.76978 0.78679 0.0
H426 H 0.67805 0.64181 0.82132 0.0
H427 H 0.83048 0.61629 0.80446 0.0
H428 H 0.76513 0.71362 0.79391 0.0
H429 H 0.73587 0.70329 0.82134 0.0
O430 O 0.93762 0.82229 0.80117 0.0
H431 H 0.97667 0.6866 0.78972 0.0
H432 H 0.02218 0.81267 0.80371 0.0
H433 H 0.77355 0.554 0.80418 0.0
H434 H 0.74699 0.8612 0.8137 0.0
H435 H 0.69668 0.56655 0.81266 0.0
H436 H 0.69963 0.84416 0.79672 0.0
O437 O 0.87801 0.66624 0.81854 0.0
H438 H 0.96083 0.8387 0.84241 0.0
H439 H 0.01964 0.71782 0.81718 0.0
H440 H 0.05885 0.73309 0.83525 0.0
H441 H 0.02963 0.79414 0.84801 0.0
H442 H 0.92234 0.82181 0.82437 0.0
H443 H 0.09508 0.80607 0.79329 0.0
H444 H 0.10914 0.73845 0.781 0.0
O445 O 0.94124 0.68893 0.8093 0.0
C446 C 0.87266 0.71222 0.78915 0.0
C447 C 0.04366 0.70798 0.78461 0.0
C448 C 0.06931 0.77965 0.79247 0.0
N449 N 0.99525 0.74989 0.79738 0.0
C450 C 0.00263 0.71274 0.79058 0.0
C451 C 0.02787 0.78328 0.79832 0.0
C452 C 0.07718 0.74169 0.78558 0.0
C453 C 0.78243 0.7965 0.81309 0.0
N454 N 0.78759 0.75575 0.80756 0.0
C455 C 0.7508 0.82892 0.80929 0.0
C456 C 0.72428 0.81936 0.79976 0.0
C457 C 0.72962 0.77766 0.79417 0.0
C458 C 0.76161 0.74609 0.79821 0.0
C459 C 0.71141 0.63593 0.81759 0.0
C460 C 0.79706 0.62211 0.80813 0.0
C461 C 0.74435 0.67058 0.8176 0.0
N462 N 0.78649 0.66348 0.81286 0.0
C463 C 0.76498 0.58666 0.80796 0.0
C464 C 0.72188 0.59372 0.81273 0.0
C465 C 0.91904 0.65973 0.81517 0.0
C466 C 0.97411 0.81223 0.83689 0.0
C467 C 0.00655 0.74432 0.82266 0.0
C468 C 0.02902 0.75291 0.83289 0.0
C469 C 0.01263 0.78716 0.84004 0.0
N470 N 0.96898 0.7693 0.81955 0.0
C471 C 0.95258 0.80269 0.82658 0.0
Co472 Co 0.79229 0.64206 0.68612 0.0
Co473 Co 0.75229 0.53791 0.69485 0.0
O474 O 0.74457 0.59444 0.68593 0.0
C475 C 0.75438 0.64478 0.66199 0.0
O476 O 0.72416 0.61246 0.6639 0.0
C477 C 0.65431 0.56075 0.70051 0.0
O478 O 0.66495 0.60351 0.70272 0.0
O479 O 0.75861 0.57503 0.70897 0.0
O480 O 0.80617 0.62908 0.70245 0.0
H481 H 0.82565 0.4399 0.72478 0.0
H482 H 0.69582 0.66403 0.67953 0.0
O483 O 0.78155 0.65817 0.66976 0.0
H484 H 0.73313 0.77071 0.71051 0.0
H485 H 0.86189 0.7954 0.67684 0.0
H486 H 0.88652 0.64623 0.69542 0.0
H487 H 0.79027 0.71491 0.70382 0.0
H488 H 0.80093 0.73702 0.67691 0.0
O489 O 0.68474 0.53276 0.69716 0.0
H490 H 0.81595 0.50916 0.7131 0.0
H491 H 0.70399 0.44774 0.69587 0.0
H492 H 0.94824 0.70383 0.69564 0.0
H493 H 0.63799 0.71956 0.68584 0.0
H494 H 0.93611 0.77905 0.6863 0.0
H495 H 0.65638 0.77352 0.70146 0.0
O496 O 0.83854 0.59618 0.68112 0.0
H497 H 0.6792 0.49561 0.65775 0.0
H498 H 0.80429 0.46019 0.68439 0.0
H499 H 0.79785 0.41649 0.6666 0.0
H500 H 0.73484 0.43403 0.65313 0.0
H501 H 0.68731 0.53882 0.67561 0.0
H502 H 0.71223 0.37797 0.70743 0.0
H503 H 0.77353 0.37367 0.72199 0.0
O504 O 0.82012 0.53883 0.69277 0.0
C505 C 0.78695 0.60768 0.71058 0.0
C506 C 0.79882 0.44135 0.71846 0.0
C507 C 0.73513 0.40662 0.70874 0.0
N508 N 0.75943 0.48257 0.7038 0.0
C509 C 0.79317 0.48048 0.71181 0.0
C510 C 0.73051 0.44631 0.70224 0.0
C511 C 0.76955 0.40421 0.7169 0.0
C512 C 0.70462 0.68776 0.68615 0.0
N513 N 0.74698 0.68673 0.69106 0.0
C514 C 0.67147 0.719 0.68978 0.0
C515 C 0.68175 0.74918 0.69856 0.0
C516 C 0.72479 0.74762 0.70363 0.0
C517 C 0.75705 0.7159 0.69979 0.0
C518 C 0.86756 0.76279 0.68096 0.0
C519 C 0.88088 0.67898 0.69139 0.0
C520 C 0.83321 0.72953 0.681 0.0
N521 N 0.84002 0.68834 0.68625 0.0
C522 C 0.916 0.71142 0.69152 0.0
C523 C 0.90919 0.7536 0.68627 0.0
C524 C 0.84739 0.55791 0.68581 0.0
C525 C 0.70685 0.48769 0.66354 0.0
C526 C 0.77716 0.46843 0.67853 0.0
C527 C 0.77349 0.44336 0.66849 0.0
C528 C 0.7381 0.45317 0.66095 0.0
N529 N 0.74649 0.50237 0.681 0.0
C530 C 0.7116 0.51202 0.67367 0.0
Co531 Co 0.33743 0.3029 0.93627 0.0
Co532 Co 0.44246 0.2565 0.94228 0.0
O533 O 0.38257 0.25362 0.93484 0.0
C534 C 0.33877 0.2896 0.91116 0.0
O535 O 0.38355 0.29384 0.91122 0.0
C536 C 0.44853 0.16577 0.95352 0.0
O537 O 0.45127 0.18733 0.96326 0.0
O538 O 0.41179 0.26665 0.95727 0.0
O539 O 0.35588 0.31515 0.95226 0.0
H540 H 0.55851 0.32105 0.96937 0.0
H541 H 0.30832 0.21095 0.92851 0.0
O542 O 0.31629 0.29178 0.92038 0.0
H543 H 0.21644 0.24211 0.96273 0.0
H544 H 0.18347 0.37687 0.93024 0.0
H545 H 0.3386 0.39648 0.94603 0.0
H546 H 0.27176 0.29911 0.95568 0.0
H547 H 0.24021 0.31456 0.92894 0.0
O548 O 0.44082 0.18819 0.94443 0.0
H549 H 0.484 0.31713 0.95957 0.0
H550 H 0.52846 0.20069 0.94101 0.0
H551 H 0.28281 0.45955 0.94758 0.0
H552 H 0.25301 0.15313 0.9352 0.0
H553 H 0.20459 0.44995 0.93965 0.0
H554 H 0.20666 0.16855 0.95245 0.0
O555 O 0.38333 0.34856 0.9309 0.0
H556 H 0.46096 0.18059 0.90432 0.0
H557 H 0.5201 0.30054 0.9298 0.0
H558 H 0.55514 0.29018 0.91097 0.0
H559 H 0.52566 0.22968 0.89809 0.0
H560 H 0.42655 0.19261 0.92318 0.0
H561 H 0.60335 0.20322 0.95064 0.0
H562 H 0.6188 0.26378 0.96492 0.0
O563 O 0.44646 0.32428 0.93994 0.0
C564 C 0.38042 0.29551 0.95974 0.0
C565 C 0.5522 0.2945 0.96316 0.0
C566 C 0.57736 0.22837 0.95265 0.0
N567 N 0.50182 0.25873 0.94973 0.0
C568 C 0.51007 0.29212 0.95758 0.0
C569 C 0.53485 0.22708 0.94724 0.0
C570 C 0.58601 0.26236 0.96066 0.0
C571 C 0.28808 0.21799 0.93598 0.0
N572 N 0.29316 0.25842 0.94167 0.0
C573 C 0.2569 0.18509 0.93975 0.0
C574 C 0.23093 0.19375 0.94943 0.0
C575 C 0.23642 0.235 0.95521 0.0
C576 C 0.26792 0.26709 0.95119 0.0
C577 C 0.21743 0.38145 0.93374 0.0
C578 C 0.30458 0.39195 0.9426 0.0
C579 C 0.24976 0.34633 0.933 0.0
N580 N 0.29264 0.35177 0.93746 0.0
C581 C 0.27316 0.42783 0.94348 0.0
C582 C 0.22929 0.42244 0.93902 0.0
C583 C 0.42433 0.35452 0.93437 0.0
C584 C 0.47415 0.20703 0.90986 0.0
C585 C 0.50678 0.27451 0.92422 0.0
C586 C 0.52692 0.2686 0.91358 0.0
C587 C 0.51041 0.23462 0.90636 0.0
N588 N 0.47127 0.24728 0.9276 0.0
C589 C 0.45489 0.21392 0.92057 0.0
Co590 Co 0.71165 0.82843 0.18897 0.0
Co591 Co 0.74863 0.93522 0.19647 0.0
O592 O 0.75667 0.87824 0.18778 0.0
C593 C 0.7229 0.83398 0.16379 0.0
O594 O 0.71601 0.87838 0.16424 0.0
C595 C 0.85127 0.91834 0.19609 0.0
O596 O 0.84615 0.87801 0.19137 0.0
O597 O 0.74629 0.89936 0.2108 0.0
O598 O 0.69891 0.84345 0.20529 0.0
H599 H 0.67503 0.03367 0.22631 0.0
H600 H 0.8041 0.8061 0.18023 0.0
O601 O 0.72311 0.81035 0.17284 0.0
H602 H 0.78464 0.70999 0.21424 0.0
H603 H 0.65049 0.66963 0.18199 0.0
H604 H 0.6189 0.82057 0.19901 0.0
H605 H 0.7229 0.76166 0.20799 0.0
H606 H 0.70778 0.73147 0.18094 0.0
O607 O 0.81663 0.94302 0.19848 0.0
H608 H 0.68557 0.96376 0.21489 0.0
H609 H 0.79517 0.02631 0.19698 0.0
H610 H 0.56083 0.75956 0.20035 0.0
H611 H 0.86657 0.75444 0.18611 0.0
H612 H 0.57646 0.68343 0.19179 0.0
H613 H 0.8571 0.70603 0.20325 0.0
O614 O 0.66217 0.87108 0.18407 0.0
H615 H 0.80987 0.97586 0.15787 0.0
H616 H 0.69204 0.01024 0.18658 0.0
H617 H 0.6925 0.05308 0.16859 0.0
H618 H 0.75186 0.03614 0.1541 0.0
H619 H 0.80781 0.93348 0.17589 0.0
H620 H 0.78601 0.09676 0.20827 0.0
H621 H 0.72548 0.10081 0.22304 0.0
O622 O 0.68041 0.93115 0.195 0.0
C623 C 0.71914 0.86637 0.21302 0.0
C624 C 0.70145 0.03236 0.21988 0.0
C625 C 0.76377 0.06775 0.20977 0.0
N626 N 0.74074 0.991 0.20522 0.0
C627 C 0.70751 0.9929 0.21336 0.0
C628 C 0.76886 0.02771 0.20342 0.0
C629 C 0.72979 0.07001 0.21805 0.0
C630 C 0.79967 0.78503 0.18768 0.0
N631 N 0.76002 0.7872 0.1938 0.0
C632 C 0.83519 0.75589 0.19097 0.0
C633 C 0.82987 0.72878 0.2006 0.0
C634 C 0.78925 0.73103 0.20678 0.0
C635 C 0.75449 0.76058 0.20323 0.0
C636 C 0.6433 0.70264 0.18576 0.0
C637 C 0.62606 0.78749 0.19531 0.0
C638 C 0.67555 0.73785 0.18516 0.0
N639 N 0.66679 0.77957 0.18995 0.0
C640 C 0.593 0.75309 0.19607 0.0
C641 C 0.60177 0.7104 0.19126 0.0
C642 C 0.65266 0.90941 0.18864 0.0
C643 C 0.78405 0.98381 0.16416 0.0
C644 C 0.71807 0.00266 0.18034 0.0
C645 C 0.71814 0.02707 0.17016 0.0
C646 C 0.75144 0.01755 0.16204 0.0
N647 N 0.75042 0.96984 0.18241 0.0
C648 C 0.78292 0.9601 0.17444 0.0
Co649 Co 0.15453 0.21629 0.43712 0.0
Co650 Co 0.04194 0.2459 0.44348 0.0
O651 O 0.10182 0.25865 0.43634 0.0
C652 C 0.15434 0.2492 0.4126 0.0
O653 O 0.11783 0.27476 0.41396 0.0
C654 C 0.06376 0.34 0.4522 0.0
O655 O 0.10744 0.32987 0.45302 0.0
O656 O 0.07192 0.22988 0.45826 0.0
O657 O 0.14095 0.20307 0.45326 0.0
H658 H 0.93185 0.15243 0.4666 0.0
H659 H 0.1676 0.31265 0.42926 0.0
O660 O 0.17111 0.2264 0.4208 0.0
H661 H 0.27041 0.29464 0.46206 0.0
H662 H 0.31649 0.16506 0.42951 0.0
H663 H 0.16922 0.12472 0.44735 0.0
H664 H 0.22259 0.23026 0.4556 0.0
H665 H 0.25097 0.21821 0.42863 0.0
O666 O 0.03525 0.31062 0.44859 0.0
H667 H 0.00575 0.16985 0.45744 0.0
H668 H 0.95186 0.29467 0.44466 0.0
H669 H 0.23397 0.07071 0.44851 0.0
H670 H 0.2152 0.37759 0.43533 0.0
H671 H 0.30828 0.09077 0.43954 0.0
H672 H 0.2671 0.36894 0.45187 0.0
O673 O 0.11577 0.16355 0.4323 0.0
H674 H 0.01494 0.3443 0.40921 0.0
H675 H 0.96817 0.2041 0.42931 0.0
H676 H 0.93157 0.22353 0.4111 0.0
H677 H 0.95485 0.29424 0.40093 0.0
H678 H 0.05122 0.32294 0.42733 0.0
H679 H 0.87758 0.27882 0.45378 0.0
H680 H 0.86714 0.20716 0.46481 0.0
O681 O 0.04502 0.18119 0.4384 0.0
C682 C 0.11008 0.21076 0.46061 0.0
C683 C 0.93595 0.18373 0.4618 0.0
C684 C 0.90551 0.2547 0.45462 0.0
N685 N 0.98311 0.23314 0.45048 0.0
C686 C 0.97768 0.19373 0.45657 0.0
C687 C 0.94773 0.26357 0.44951 0.0
C688 C 0.89967 0.21447 0.4608 0.0
C689 C 0.19057 0.30815 0.43631 0.0
N690 N 0.19281 0.26725 0.4419 0.0
C691 C 0.21725 0.34528 0.43978 0.0
C692 C 0.24627 0.34044 0.44908 0.0
C693 C 0.24812 0.29878 0.4548 0.0
C694 C 0.2209 0.26244 0.4511 0.0
C695 C 0.2843 0.15594 0.43346 0.0
C696 C 0.20148 0.13377 0.44347 0.0
C697 C 0.24702 0.18585 0.43297 0.0
N698 N 0.20631 0.17468 0.43798 0.0
C699 C 0.23801 0.10302 0.44413 0.0
C700 C 0.27968 0.11428 0.43909 0.0
C701 C 0.07362 0.15401 0.43382 0.0
C702 C 0.00464 0.31329 0.41353 0.0
C703 C 0.97914 0.23431 0.42482 0.0
C704 C 0.95797 0.24544 0.41457 0.0
C705 C 0.97096 0.28517 0.40888 0.0
N706 N 0.01242 0.26183 0.42927 0.0
C707 C 0.02502 0.30105 0.4238 0.0
Co708 Co 0.79524 0.84054 0.56716 0.0
Co709 Co 0.74781 0.94324 0.55922 0.0
O710 O 0.74491 0.88517 0.56761 0.0
C711 C 0.75746 0.83522 0.5912 0.0
O712 O 0.72714 0.86739 0.58927 0.0
C713 C 0.65719 0.94629 0.54775 0.0
O714 O 0.67886 0.9469 0.53799 0.0
O715 O 0.75862 0.90874 0.54481 0.0
O716 O 0.80776 0.85522 0.5509 0.0
H717 H 0.81281 0.05194 0.53041 0.0
H718 H 0.70037 0.81262 0.57387 0.0
O719 O 0.78554 0.82286 0.58351 0.0
H720 H 0.74315 0.70977 0.54251 0.0
H721 H 0.87403 0.69111 0.5759 0.0
H722 H 0.88913 0.84204 0.55758 0.0
H723 H 0.79691 0.76874 0.54923 0.0
H724 H 0.80976 0.74588 0.57611 0.0
O725 O 0.67953 0.94066 0.55694 0.0
H726 H 0.80879 0.98022 0.54138 0.0
H727 H 0.69175 0.02922 0.559 0.0
H728 H 0.95409 0.78814 0.55709 0.0
H729 H 0.64593 0.75381 0.56753 0.0
H730 H 0.94677 0.71204 0.56629 0.0
H731 H 0.6671 0.70176 0.55173 0.0
O732 O 0.83913 0.8887 0.57208 0.0
H733 H 0.66767 0.97511 0.59611 0.0
H734 H 0.79253 0.02306 0.57065 0.0
H735 H 0.7808 0.06398 0.58868 0.0
H736 H 0.71782 0.04017 0.60155 0.0
H737 H 0.68114 0.93469 0.57807 0.0
H738 H 0.69443 0.10138 0.5482 0.0
H739 H 0.75533 0.11313 0.53378 0.0
O740 O 0.81564 0.94825 0.5616 0.0
C741 C 0.78824 0.87743 0.54295 0.0
C742 C 0.78612 0.04723 0.53666 0.0
C743 C 0.71968 0.07498 0.54665 0.0
N744 N 0.75007 1.00045 0.55082 0.0
C745 C 0.78366 0.00668 0.5429 0.0
C746 C 0.71831 0.03401 0.55273 0.0
C747 C 0.75385 0.08155 0.53856 0.0
C748 C 0.71038 0.78978 0.56715 0.0
N749 N 0.75244 0.7936 0.56216 0.0
C750 C 0.67915 0.75666 0.56352 0.0
C751 C 0.69099 0.72753 0.55464 0.0
C752 C 0.73363 0.73201 0.54947 0.0
C753 C 0.76397 0.76551 0.55333 0.0
C754 C 0.87761 0.72414 0.57184 0.0
C755 C 0.88557 0.8089 0.56155 0.0
C756 C 0.84138 0.75536 0.57196 0.0
N757 N 0.84556 0.79706 0.5668 0.0
C758 C 0.92252 0.77856 0.56127 0.0
C759 C 0.91841 0.73589 0.56645 0.0
C760 C 0.84538 0.92832 0.56781 0.0
C761 C 0.69529 0.98577 0.59059 0.0
C762 C 0.76558 0.01198 0.57627 0.0
C763 C 0.75884 0.03554 0.58644 0.0
C764 C 0.72346 0.02223 0.59364 0.0
N765 N 0.73792 0.97613 0.57334 0.0
C766 C 0.70306 0.96303 0.58035 0.0
Co767 Co 0.16142 0.306 0.81311 0.0
Co768 Co 0.05722 0.25753 0.80732 0.0
O769 O 0.11772 0.25543 0.81446 0.0
C770 C 0.16211 0.29021 0.8381 0.0
O771 O 0.11721 0.29289 0.83815 0.0
C772 C 0.05169 0.1673 0.79578 0.0
O773 O 0.04772 0.18935 0.78612 0.0
O774 O 0.08662 0.26935 0.79223 0.0
O775 O 0.14119 0.31929 0.7973 0.0
H776 H 0.93772 0.32151 0.78109 0.0
H777 H 0.19387 0.2143 0.82022 0.0
O778 O 0.18411 0.29401 0.82884 0.0
H779 H 0.28141 0.25078 0.78562 0.0
H780 H 0.31394 0.38318 0.81883 0.0
H781 H 0.15707 0.40046 0.80395 0.0
H782 H 0.2251 0.30557 0.79328 0.0
H783 H 0.2589 0.31937 0.82001 0.0
O784 O 0.06005 0.18936 0.80489 0.0
H785 H 0.01313 0.31834 0.79047 0.0
H786 H 0.9724 0.20007 0.8088 0.0
H787 H 0.21112 0.46501 0.80251 0.0
H788 H 0.25023 0.15867 0.8129 0.0
H789 H 0.29021 0.4566 0.80998 0.0
H790 H 0.2944 0.17678 0.79548 0.0
O791 O 0.11485 0.34996 0.81898 0.0
H792 H 0.04319 0.17882 0.84502 0.0
H793 H 0.9798 0.29935 0.82037 0.0
H794 H 0.94653 0.28714 0.83933 0.0
H795 H 0.97816 0.22635 0.85179 0.0
H796 H 0.07582 0.19267 0.82605 0.0
H797 H 0.89666 0.20183 0.79958 0.0
H798 H 0.87888 0.26293 0.78562 0.0
O799 O 0.05195 0.32507 0.80995 0.0
C800 C 0.11667 0.29963 0.7898 0.0
C801 C 0.94506 0.29471 0.78715 0.0
C802 C 0.92201 0.22754 0.79753 0.0
N803 N 0.99724 0.25904 0.80016 0.0
C804 C 0.9877 0.29274 0.79249 0.0
C805 C 0.965 0.22668 0.80271 0.0
C806 C 0.91206 0.26183 0.7897 0.0
C807 C 0.21317 0.22251 0.81266 0.0
N808 N 0.20635 0.2632 0.80722 0.0
C809 C 0.24494 0.19084 0.80855 0.0
C810 C 0.26969 0.20101 0.79876 0.0
C811 C 0.2624 0.24251 0.79323 0.0
C812 C 0.23036 0.27335 0.79759 0.0
C813 C 0.27959 0.38725 0.81553 0.0
C814 C 0.19148 0.39643 0.80717 0.0
C815 C 0.24822 0.35127 0.8162 0.0
N816 N 0.20485 0.35608 0.812 0.0
C817 C 0.22191 0.43316 0.80636 0.0
C818 C 0.26626 0.42843 0.81056 0.0
C819 C 0.0736 0.35532 0.81563 0.0
C820 C 0.02906 0.20537 0.83967 0.0
C821 C 0.99404 0.27318 0.82577 0.0
C822 C 0.9749 0.26623 0.83648 0.0
C823 C 0.99262 0.23209 0.84347 0.0
N824 N 0.02974 0.24681 0.82209 0.0
C825 C 0.0473 0.21329 0.8289 0.0
Co826 Co 0.71205 0.669 0.06476 0.0
Co827 Co 0.7531 0.56487 0.05634 0.0
O828 O 0.75962 0.62134 0.06529 0.0
C829 C 0.72569 0.66248 0.08988 0.0
O830 O 0.7193 0.61802 0.08939 0.0
C831 C 0.85539 0.58503 0.05635 0.0
O832 O 0.84973 0.62398 0.06171 0.0
O833 O 0.74693 0.60185 0.04224 0.0
O834 O 0.69758 0.65472 0.04852 0.0
H835 H 0.68009 0.46575 0.02655 0.0
H836 H 0.80472 0.69465 0.07275 0.0
O837 O 0.72505 0.68636 0.08087 0.0
H838 H 0.77573 0.79262 0.03949 0.0
H839 H 0.64477 0.82427 0.0731 0.0
H840 H 0.61758 0.6734 0.05559 0.0
H841 H 0.71733 0.7378 0.04603 0.0
H842 H 0.7049 0.76502 0.07333 0.0
O843 O 0.82111 0.56022 0.05374 0.0
H844 H 0.68903 0.53509 0.03826 0.0
H845 H 0.80363 0.47603 0.05495 0.0
H846 H 0.55666 0.73182 0.05508 0.0
H847 H 0.86395 0.74941 0.06656 0.0
H848 H 0.57007 0.8079 0.06388 0.0
H849 H 0.84966 0.79879 0.04979 0.0
O850 O 0.66522 0.62363 0.06983 0.0
H851 H 0.82037 0.52392 0.09433 0.0
H852 H 0.70162 0.48618 0.06614 0.0
H853 H 0.70627 0.44161 0.08382 0.0
H854 H 0.76613 0.46022 0.09806 0.0
H855 H 0.81417 0.5679 0.07663 0.0
H856 H 0.79614 0.40621 0.04335 0.0
H857 H 0.7339 0.40066 0.02906 0.0
O858 O 0.68513 0.56575 0.05838 0.0
C859 C 0.71742 0.63328 0.04047 0.0
C860 C 0.70727 0.4677 0.03277 0.0
C861 C 0.77244 0.43431 0.04219 0.0
N862 N 0.74661 0.50956 0.04734 0.0
C863 C 0.71244 0.50685 0.03945 0.0
C864 C 0.77657 0.474 0.04871 0.0
C865 C 0.7375 0.43121 0.03418 0.0
C866 C 0.79821 0.71613 0.06547 0.0
N867 N 0.75772 0.71279 0.05973 0.0
C868 C 0.83189 0.74702 0.06199 0.0
C869 C 0.82387 0.77469 0.05258 0.0
C870 C 0.78243 0.7712 0.04679 0.0
C871 C 0.74956 0.7399 0.0505 0.0
C872 C 0.63852 0.79126 0.06923 0.0
C873 C 0.62377 0.70647 0.0594 0.0
C874 C 0.6724 0.7575 0.06936 0.0
N875 N 0.66485 0.7158 0.06444 0.0
C876 C 0.5891 0.73939 0.0591 0.0
C877 C 0.59663 0.78206 0.06405 0.0
C878 C 0.65677 0.58563 0.06495 0.0
C879 C 0.79441 0.5152 0.08815 0.0
C880 C 0.7279 0.49446 0.07226 0.0
C881 C 0.73033 0.46908 0.08227 0.0
C882 C 0.7639 0.47954 0.09025 0.0
N883 N 0.75828 0.5291 0.07018 0.0
C884 C 0.79096 0.53982 0.07804 0.0
Co885 Co 0.33952 0.20311 0.31703 0.0
Co886 Co 0.44034 0.24827 0.30757 0.0
O887 O 0.38615 0.25173 0.31746 0.0
C888 C 0.34081 0.23711 0.34139 0.0
O889 O 0.37326 0.26692 0.33927 0.0
C890 C 0.42001 0.34962 0.31025 0.0
O891 O 0.38369 0.34155 0.31648 0.0
O892 O 0.39942 0.24605 0.29417 0.0
O893 O 0.35017 0.19297 0.30034 0.0
H894 H 0.53107 0.18525 0.27487 0.0
H895 H 0.31356 0.29638 0.32553 0.0
O896 O 0.32587 0.21053 0.33366 0.0
H897 H 0.20587 0.26309 0.2945 0.0
H898 H 0.18967 0.12748 0.32693 0.0
H899 H 0.33603 0.11106 0.30646 0.0
H900 H 0.26479 0.20691 0.29987 0.0
H901 H 0.24654 0.18985 0.32711 0.0
O902 O 0.44366 0.31686 0.30618 0.0
H903 H 0.46526 0.18994 0.28791 0.0
H904 H 0.5282 0.30011 0.30552 0.0
H905 H 0.27992 0.04802 0.30597 0.0
H906 H 0.25494 0.35314 0.32055 0.0
H907 H 0.20612 0.05601 0.31626 0.0
H908 H 0.20045 0.33682 0.3049 0.0
O909 O 0.3876 0.15741 0.32091 0.0
H910 H 0.49512 0.30569 0.34558 0.0
H911 H 0.5214 0.19401 0.31493 0.0
H912 H 0.57198 0.19383 0.33162 0.0
H913 H 0.55918 0.2501 0.34709 0.0
H914 H 0.44512 0.3043 0.32885 0.0
H915 H 0.59454 0.29681 0.29261 0.0
H916 H 0.59635 0.23895 0.27718 0.0
O917 O 0.44048 0.17975 0.30837 0.0
C918 C 0.36852 0.21611 0.29236 0.0
C919 C 0.53075 0.21052 0.28159 0.0
C920 C 0.56634 0.27318 0.29153 0.0
N921 N 0.49296 0.24503 0.29752 0.0
C922 C 0.49361 0.21327 0.28902 0.0
C923 C 0.52861 0.27495 0.2988 0.0
C924 C 0.56734 0.24069 0.28288 0.0
C925 C 0.28993 0.28852 0.31883 0.0
N926 N 0.29264 0.24791 0.31312 0.0
C927 C 0.25679 0.32105 0.31599 0.0
C928 C 0.22628 0.31192 0.3072 0.0
C929 C 0.22932 0.27059 0.30136 0.0
C930 C 0.26292 0.23891 0.30443 0.0
C931 C 0.22168 0.12361 0.3224 0.0
C932 C 0.3039 0.11491 0.31091 0.0
C933 C 0.25409 0.15876 0.32249 0.0
N934 N 0.29449 0.15423 0.31674 0.0
C935 C 0.2723 0.07905 0.31062 0.0
C936 C 0.23092 0.08353 0.31641 0.0
C937 C 0.42393 0.15031 0.3152 0.0
C938 C 0.50122 0.28115 0.33887 0.0
C939 C 0.5154 0.2186 0.32162 0.0
C940 C 0.54428 0.21834 0.33105 0.0
C941 C 0.5371 0.24991 0.33972 0.0
N942 N 0.48037 0.24956 0.32078 0.0
C943 C 0.47304 0.28038 0.3293 0.0
H944 H 0.28759 0.24357 0.09235 0.0
H945 H 0.28935 0.25536 0.16005 0.0
H946 H 0.29515 0.37006 0.11121 0.0
H947 H 0.29389 0.12867 0.1412 0.0
H948 H 0.28631 0.29761 0.1423 0.0
H949 H 0.28465 0.20128 0.1101 0.0
C950 C 0.28853 0.26259 0.10023 0.0
C951 C 0.29194 0.31062 0.10025 0.0
C952 C 0.28789 0.26059 0.14202 0.0
C953 C 0.28851 0.26194 0.12072 0.0
C954 C 0.28964 0.23628 0.15217 0.0
C955 C 0.2922 0.1882 0.15215 0.0
C956 C 0.28861 0.23686 0.13169 0.0
C957 C 0.29212 0.16563 0.14165 0.0
C958 C 0.28686 0.23826 0.11038 0.0
C959 C 0.29269 0.33313 0.11076 0.0
N960 N 0.29049 0.19017 0.13184 0.0
N961 N 0.29113 0.30859 0.12057 0.0
H962 H 0.80279 0.82819 0.40533 0.0
H963 H 0.67342 0.68899 0.3574 0.0
H964 H 0.83047 0.68469 0.40007 0.0
H965 H 0.7144 0.82949 0.35254 0.0
H966 H 0.71878 0.68679 0.37497 0.0
H967 H 0.75875 0.82947 0.38768 0.0
C968 C 0.79976 0.79698 0.40042 0.0
C969 C 0.82054 0.75631 0.40412 0.0
C970 C 0.71761 0.71805 0.37004 0.0
C971 C 0.76922 0.75736 0.38409 0.0
C972 C 0.69145 0.7195 0.3601 0.0
C973 C 0.69003 0.75956 0.35354 0.0
C974 C 0.74154 0.75725 0.37355 0.0
C975 C 0.71455 0.79793 0.35736 0.0
C976 C 0.77467 0.79778 0.39036 0.0
C977 C 0.81538 0.71684 0.39745 0.0
N978 N 0.73898 0.79595 0.36715 0.0
N979 N 0.78973 0.71818 0.3878 0.0
H980 H 0.23226 0.1301 0.60964 0.0
H981 H 0.22438 0.37475 0.64041 0.0
H982 H 0.22633 0.25873 0.59168 0.0
H983 H 0.24747 0.24748 0.65812 0.0
H984 H 0.22649 0.33297 0.62242 0.0
H985 H 0.23907 0.17245 0.6275 0.0
C986 C 0.23259 0.16717 0.60944 0.0
C987 C 0.22845 0.19078 0.59913 0.0
C988 C 0.23138 0.31425 0.63025 0.0
C989 C 0.23604 0.23954 0.61954 0.0
C990 C 0.23023 0.33814 0.64053 0.0
C991 C 0.23549 0.31466 0.65082 0.0
C992 C 0.23757 0.26648 0.63025 0.0
C993 C 0.24302 0.26712 0.65042 0.0
C994 C 0.23651 0.19136 0.61964 0.0
C995 C 0.22922 0.23892 0.5994 0.0
N996 N 0.24351 0.24463 0.64033 0.0
N997 N 0.23264 0.26162 0.60942 0.0
H998 H 0.87364 0.73093 0.85959 0.0
H999 H 0.62789 0.7306 0.89009 0.0
H1000 H 0.74521 0.73832 0.84154 0.0
H1001 H 0.75639 0.73489 0.90818 0.0
H1002 H 0.67021 0.73546 0.87219 0.0
H1003 H 0.83137 0.73451 0.87752 0.0
C1004 C 0.83665 0.73359 0.85938 0.0
C1005 C 0.81305 0.73403 0.84902 0.0
C1006 C 0.6891 0.73555 0.88009 0.0
C1007 C 0.76433 0.73788 0.86951 0.0
C1008 C 0.66491 0.73279 0.89032 0.0
C1009 C 0.68851 0.73205 0.90068 0.0
C1010 C 0.73727 0.73742 0.88021 0.0
C1011 C 0.7366 0.73508 0.90042 0.0
C1012 C 0.81248 0.73558 0.86962 0.0
C1013 C 0.76499 0.73758 0.8493 0.0
N1014 N 0.75931 0.73738 0.89038 0.0
N1015 N 0.7423 0.7391 0.85935 0.0
H1016 H 0.68514 0.82265 0.60577 0.0
H1017 H 0.82736 0.68652 0.65211 0.0
H1018 H 0.8272 0.78698 0.6009 0.0
H1019 H 0.68321 0.66092 0.64723 0.0
H1020 H 0.82782 0.73318 0.6349 0.0
H1021 H 0.68351 0.77386 0.62276 0.0
C1022 C 0.71607 0.80501 0.60834 0.0
C1023 C 0.75642 0.80898 0.60194 0.0
C1024 C 0.79616 0.71711 0.63755 0.0
C1025 C 0.75474 0.75348 0.62129 0.0
C1026 C 0.79584 0.69049 0.64736 0.0
C1027 C 0.75522 0.66958 0.65106 0.0
C1028 C 0.75535 0.72391 0.63151 0.0
C1029 C 0.71534 0.67604 0.6446 0.0
C1030 C 0.71497 0.7769 0.61795 0.0
C1031 C 0.79537 0.7849 0.60558 0.0
N1032 N 0.71625 0.70312 0.63519 0.0
N1033 N 0.79365 0.75848 0.61505 0.0
H1034 H 0.24642 0.27895 0.90843 0.0
H1035 H 0.25503 0.28431 0.84067 0.0
H1036 H 0.37204 0.28903 0.88928 0.0
H1037 H 0.12931 0.28477 0.85995 0.0
H1038 H 0.29835 0.28033 0.8583 0.0
H1039 H 0.20348 0.2753 0.89077 0.0
C1040 C 0.26511 0.28025 0.90051 0.0
C1041 C 0.31307 0.28464 0.90037 0.0
C1042 C 0.26131 0.28115 0.85869 0.0
C1043 C 0.26367 0.28044 0.88001 0.0
C1044 C 0.23641 0.2834 0.84861 0.0
C1045 C 0.18829 0.28518 0.84881 0.0
C1046 C 0.2381 0.2806 0.8691 0.0
C1047 C 0.16629 0.28364 0.85938 0.0
C1048 C 0.24043 0.27817 0.8904 0.0
C1049 C 0.33518 0.28582 0.88981 0.0
N1050 N 0.19137 0.2816 0.8691 0.0
N1051 N 0.31028 0.28392 0.88006 0.0
H1052 H 0.72578 0.62574 0.11141 0.0
H1053 H 0.72399 0.87058 0.14226 0.0
H1054 H 0.73588 0.75437 0.09356 0.0
H1055 H 0.73295 0.74203 0.16017 0.0
H1056 H 0.72836 0.82864 0.12429 0.0
H1057 H 0.72858 0.66764 0.1294 0.0
C1058 C 0.72884 0.66268 0.11126 0.0
C1059 C 0.73035 0.68645 0.10093 0.0
C1060 C 0.72957 0.80967 0.13216 0.0
C1061 C 0.73325 0.73474 0.1215 0.0
C1062 C 0.72707 0.83364 0.14243 0.0
C1063 C 0.72788 0.8099 0.15277 0.0
C1064 C 0.73266 0.76158 0.13223 0.0
C1065 C 0.732 0.76192 0.15244 0.0
C1066 C 0.73041 0.68663 0.12153 0.0
C1067 C 0.73436 0.73445 0.10128 0.0
N1068 N 0.73397 0.73942 0.14236 0.0
N1069 N 0.73539 0.75692 0.11137 0.0
H1070 H 0.1623 0.31731 0.39663 0.0
H1071 H 0.298 0.1663 0.35197 0.0
H1072 H 0.20333 0.17852 0.4039 0.0
H1073 H 0.32568 0.31071 0.35533 0.0
H1074 H 0.25116 0.16964 0.36918 0.0
H1075 H 0.20961 0.31519 0.37932 0.0
C1076 C 0.18075 0.28631 0.3945 0.0
C1077 C 0.17895 0.24802 0.40166 0.0
C1078 C 0.26773 0.20051 0.36618 0.0
C1079 C 0.23243 0.24531 0.38201 0.0
C1080 C 0.29448 0.19863 0.3564 0.0
C1081 C 0.3161 0.23819 0.35232 0.0
C1082 C 0.2615 0.24249 0.37175 0.0
C1083 C 0.3101 0.27931 0.35831 0.0
C1084 C 0.20797 0.28527 0.38472 0.0
C1085 C 0.20389 0.20881 0.39861 0.0
N1086 N 0.28288 0.28055 0.36768 0.0
N1087 N 0.22932 0.20834 0.38898 0.0
H1088 H 0.24916 0.09665 0.23151 0.0
H1089 H 0.40363 0.25183 0.27266 0.0
H1090 H 0.35489 0.18934 0.22014 0.0
H1091 H 0.30408 0.15444 0.28498 0.0
H1092 H 0.38358 0.23076 0.25328 0.0
H1093 H 0.26659 0.1183 0.25116 0.0
C1094 C 0.27591 0.12149 0.23311 0.0
C1095 C 0.30039 0.14123 0.22411 0.0
C1096 C 0.36601 0.21404 0.26022 0.0
C1097 C 0.32043 0.16619 0.24653 0.0
C1098 C 0.3774 0.22619 0.27132 0.0
C1099 C 0.35555 0.20498 0.28051 0.0
C1100 C 0.33247 0.18042 0.25826 0.0
C1101 C 0.32188 0.17181 0.27818 0.0
C1102 C 0.28585 0.13385 0.24433 0.0
C1103 C 0.33483 0.1732 0.22673 0.0
N1104 N 0.31142 0.16053 0.2673 0.0
N1105 N 0.3437 0.18462 0.23766 0.0
H1106 H 0.91925 0.75689 0.48397 0.0
H1107 H 0.75468 0.91227 0.52281 0.0
H1108 H 0.81483 0.84663 0.47058 0.0
H1109 H 0.85316 0.81579 0.53609 0.0
H1110 H 0.77776 0.89051 0.50356 0.0
H1111 H 0.89687 0.77973 0.50317 0.0
C1112 C 0.89164 0.78128 0.48504 0.0
C1113 C 0.86891 0.79965 0.4756 0.0
C1114 C 0.79426 0.87414 0.51071 0.0
C1115 C 0.84316 0.82615 0.49758 0.0
C1116 C 0.78109 0.8866 0.52171 0.0
C1117 C 0.80176 0.86581 0.53114 0.0
C1118 C 0.82845 0.84075 0.50911 0.0
C1119 C 0.83597 0.83277 0.52913 0.0
C1120 C 0.87886 0.79436 0.49601 0.0
C1121 C 0.8334 0.83133 0.47756 0.0
N1122 N 0.84814 0.82134 0.51839 0.0
N1123 N 0.8217 0.84351 0.48829 0.0
H1124 H 0.22081 0.43248 0.72922 0.0
H1125 H 0.08701 0.25757 0.77013 0.0
H1126 H 0.16074 0.30533 0.71786 0.0
H1127 H 0.16576 0.37293 0.78215 0.0
H1128 H 0.10695 0.27885 0.75061 0.0
H1129 H 0.19472 0.4151 0.74851 0.0
C1130 C 0.20218 0.40102 0.73075 0.0
C1131 C 0.19332 0.37032 0.72186 0.0
C1132 C 0.11967 0.29954 0.75755 0.0
C1133 C 0.16302 0.35033 0.74391 0.0
C1134 C 0.10813 0.28748 0.76868 0.0
C1135 C 0.12495 0.31317 0.77783 0.0
C1136 C 0.14795 0.33775 0.75554 0.0
C1137 C 0.15224 0.3517 0.77541 0.0
C1138 C 0.18725 0.3911 0.74177 0.0
C1139 C 0.16873 0.33009 0.72439 0.0
N1140 N 0.16293 0.36267 0.76455 0.0
N1141 N 0.15454 0.32134 0.73514 0.0
H1142 H 0.65415 0.69675 0.03361 0.0
H1143 H 0.68959 0.64846 0.96751 0.0
H1144 H 0.74803 0.59557 0.02041 0.0
H1145 H 0.59129 0.74582 0.9805 0.0
H1146 H 0.71052 0.62847 0.9868 0.0
H1147 H 0.63061 0.71492 0.01434 0.0
C1148 C 0.66998 0.6783 0.02667 0.0
C1149 C 0.70342 0.64457 0.02869 0.0
C1150 C 0.6843 0.65413 0.98547 0.0
C1151 C 0.67617 0.66542 0.00648 0.0
C1152 C 0.6722 0.66569 0.97441 0.0
C1153 C 0.63863 0.6992 0.97231 0.0
C1154 C 0.66287 0.67615 0.9946 0.0
C1155 C 0.61736 0.71991 0.98168 0.0
C1156 C 0.65634 0.68875 0.01564 0.0
C1157 C 0.72233 0.6219 0.0193 0.0
N1158 N 0.62998 0.70817 0.99241 0.0
N1159 N 0.70848 0.63279 0.00862 0.0
H1160 H 0.25923 0.40847 0.02081 0.0
H1161 H 0.41897 0.25973 0.97924 0.0
H1162 H 0.35972 0.31064 0.03247 0.0
H1163 H 0.31922 0.35861 0.96773 0.0
H1164 H 0.39874 0.27871 0.99886 0.0
H1165 H 0.28137 0.3911 0.00124 0.0
C1166 C 0.2858 0.38333 0.01929 0.0
C1167 C 0.30739 0.36094 0.02835 0.0
C1168 C 0.38138 0.29624 0.99202 0.0
C1169 C 0.33308 0.34094 0.00596 0.0
C1170 C 0.393 0.28543 0.98081 0.0
C1171 C 0.3707 0.3073 0.97176 0.0
C1172 C 0.34726 0.32917 0.9942 0.0
C1173 C 0.3373 0.3405 0.97436 0.0
C1174 C 0.29852 0.37345 0.00811 0.0
C1175 C 0.34185 0.32877 0.02581 0.0
N1176 N 0.32659 0.35025 0.9853 0.0
N1177 N 0.35352 0.31977 0.01489 0.0
H1178 H 0.60468 0.74473 0.27364 0.0
H1179 H 0.75416 0.90475 0.23257 0.0
H1180 H 0.70315 0.84344 0.28585 0.0
H1181 H 0.66027 0.80074 0.22084 0.0
H1182 H 0.73591 0.88351 0.25215 0.0
H1183 H 0.62486 0.76527 0.25421 0.0
C1184 C 0.63068 0.77056 0.27226 0.0
C1185 C 0.65222 0.79227 0.28144 0.0
C1186 C 0.71942 0.86534 0.24527 0.0
C1187 C 0.6754 0.81623 0.25914 0.0
C1188 C 0.72981 0.87748 0.23408 0.0
C1189 C 0.70888 0.8545 0.22499 0.0
C1190 C 0.68778 0.83007 0.2474 0.0
C1191 C 0.67746 0.81946 0.22752 0.0
C1192 C 0.64217 0.78236 0.26114 0.0
C1193 C 0.68559 0.82568 0.27907 0.0
N1194 N 0.66792 0.80841 0.23845 0.0
N1195 N 0.69606 0.83666 0.26817 0.0
H1196 H 0.06176 0.22906 0.48027 0.0
H1197 H 0.23468 0.08732 0.51997 0.0
H1198 H 0.18173 0.15827 0.46791 0.0
H1199 H 0.13366 0.18194 0.5329 0.0
H1200 H 0.20961 0.10565 0.50066 0.0
H1201 H 0.08181 0.20504 0.49959 0.0
C1202 C 0.09212 0.20842 0.48158 0.0
C1203 C 0.12014 0.19601 0.47241 0.0
C1204 C 0.1929 0.12226 0.50775 0.0
C1205 C 0.1431 0.16814 0.49446 0.0
C1206 C 0.20715 0.1117 0.51878 0.0
C1207 C 0.1866 0.1333 0.52811 0.0
C1208 C 0.15759 0.15435 0.50604 0.0
C1209 C 0.1509 0.16462 0.52601 0.0
C1210 C 0.1036 0.19475 0.49261 0.0
C1211 C 0.15909 0.16904 0.47466 0.0
N1212 N 0.13763 0.17419 0.51523 0.0
N1213 N 0.16933 0.15608 0.48542 0.0
H1214 H 0.75436 0.57414 0.73092 0.0
H1215 H 0.91167 0.73991 0.76893 0.0
H1216 H 0.84952 0.67243 0.71702 0.0
H1217 H 0.80988 0.64793 0.78261 0.0
H1218 H 0.89171 0.71347 0.74982 0.0
H1219 H 0.77652 0.59868 0.75001 0.0
C1220 C 0.77986 0.60079 0.73186 0.0
C1221 C 0.79987 0.62125 0.7223 0.0
C1222 C 0.87381 0.69911 0.75703 0.0
C1223 C 0.82553 0.64951 0.74415 0.0
C1224 C 0.88525 0.7142 0.76794 0.0
C1225 C 0.86239 0.69641 0.77743 0.0
C1226 C 0.83937 0.66588 0.75559 0.0
C1227 C 0.82844 0.66296 0.77559 0.0
C1228 C 0.79252 0.61483 0.74276 0.0
C1229 C 0.8329 0.65565 0.72409 0.0
N1230 N 0.81801 0.64891 0.76493 0.0
N1231 N 0.84461 0.66864 0.73476 0.0
H1232 H 0.09124 0.06481 0.21998 0.0
H1233 H 0.93099 0.89534 0.18515 0.0
H1234 H 0.1224 0.02301 0.18574 0.0
H1235 H 0.87652 0.98725 0.21044 0.0
H1236 H 0.00566 0.93322 0.18695 0.0
H1237 H 0.01539 0.0294 0.21812 0.0
C1238 C 0.08196 0.04865 0.21204 0.0
C1239 C 0.11312 0.0471 0.20299 0.0
C1240 C 0.9773 0.94495 0.19211 0.0
C1241 C 0.02712 0.00549 0.20093 0.0
C1242 C 0.93485 0.92312 0.19116 0.0
C1243 C 0.89751 0.93816 0.19765 0.0
C1244 C 0.98264 0.98146 0.19976 0.0
C1245 C 0.90438 0.97463 0.20524 0.0
C1246 C 0.03878 0.02839 0.211 0.0
C1247 C 0.09936 0.02544 0.1929 0.0
N1248 N 0.94615 0.99487 0.20613 0.0
N1249 N 0.05762 0.00501 0.1922 0.0
H1250 H 0.11207 0.42079 0.45348 0.0
H1251 H 0.88567 0.5758 0.4592 0.0
H1252 H 0.97554 0.36536 0.4563 0.0
H1253 H 0.01999 0.62845 0.45118 0.0
H1254 H 0.91886 0.49868 0.46052 0.0
H1255 H 0.07988 0.49803 0.45527 0.0
C1256 C 0.07548 0.42482 0.45462 0.0
C1257 C 0.04645 0.38663 0.45461 0.0
C1258 C 0.94098 0.52729 0.45852 0.0
C1259 C 0.00931 0.47467 0.45658 0.0
C1260 C 0.92203 0.57127 0.45777 0.0
C1261 C 0.9499 0.60873 0.455 0.0
C1262 C 0.98814 0.5209 0.45656 0.0
C1263 C 0.99692 0.60076 0.45325 0.0
C1264 C 0.05704 0.46888 0.45557 0.0
C1265 C 0.99918 0.39386 0.45608 0.0
N1266 N 0.01444 0.55789 0.45404 0.0
N1267 N 0.98209 0.43694 0.45695 0.0
H1268 H 0.41758 0.38286 0.70407 0.0
H1269 H 0.57417 0.60925 0.70399 0.0
H1270 H 0.36281 0.51992 0.70224 0.0
H1271 H 0.62645 0.47174 0.70045 0.0
H1272 H 0.49646 0.57754 0.70562 0.0
H1273 H 0.49488 0.41526 0.7052 0.0
C1274 C 0.42173 0.41971 0.70403 0.0
C1275 C 0.38367 0.44863 0.70296 0.0
C1276 C 0.5251 0.55441 0.70453 0.0
C1277 C 0.47194 0.48603 0.70419 0.0
C1278 C 0.56942 0.57252 0.70361 0.0
C1279 C 0.60695 0.54325 0.70198 0.0
C1280 C 0.51843 0.50673 0.7039 0.0
C1281 C 0.5987 0.49582 0.70157 0.0
C1282 C 0.46586 0.43824 0.70461 0.0
C1283 C 0.39116 0.49622 0.70292 0.0
N1284 N 0.55551 0.47915 0.7025 0.0
N1285 N 0.43434 0.51339 0.70347 0.0
H1286 H 0.45234 0.10049 0.97024 0.0
H1287 H 0.61437 0.93324 0.93526 0.0
H1288 H 0.48427 0.12269 0.93494 0.0
H1289 H 0.52437 0.88169 0.9613 0.0
H1290 H 0.57834 0.00876 0.93717 0.0
H1291 H 0.4882 0.02448 0.96899 0.0
C1292 C 0.46645 0.08924 0.96222 0.0
C1293 C 0.465 0.11788 0.95267 0.0
C1294 C 0.56678 0.98091 0.94251 0.0
C1295 C 0.50726 0.03193 0.9513 0.0
C1296 C 0.58761 0.93799 0.94151 0.0
C1297 C 0.57236 0.90117 0.94813 0.0
C1298 C 0.53112 0.98727 0.95035 0.0
C1299 C 0.5371 0.90917 0.95601 0.0
C1300 C 0.48698 0.04601 0.96152 0.0
C1301 C 0.48415 0.10165 0.94249 0.0
N1302 N 0.51778 0.95139 0.95694 0.0
N1303 N 0.50495 0.06004 0.94212 0.0
H1304 H 0.09597 0.4407 0.03163 0.0
H1305 H 0.93488 0.60624 0.06762 0.0
H1306 H 0.12541 0.47738 0.06632 0.0
H1307 H 0.88149 0.51968 0.04108 0.0
H1308 H 0.00959 0.56858 0.06557 0.0
H1309 H 0.02059 0.47723 0.03347 0.0
C1310 C 0.08642 0.45598 0.03966 0.0
C1311 C 0.11696 0.45569 0.04885 0.0
C1312 C 0.98149 0.55803 0.06018 0.0
C1313 C 0.03149 0.49862 0.0509 0.0
C1314 C 0.93901 0.57977 0.06127 0.0
C1315 C 0.90191 0.5661 0.05451 0.0
C1316 C 0.98712 0.52297 0.05213 0.0
C1317 C 0.90914 0.53124 0.04649 0.0
C1318 C 0.04351 0.4769 0.04069 0.0
C1319 C 0.10286 0.47633 0.05904 0.0
N1320 N 0.95092 0.51102 0.04548 0.0
N1321 N 0.0614 0.49738 0.05975 0.0
H1322 H 0.5425 0.61116 0.29279 0.0
H1323 H 0.42006 0.4146 0.32688 0.0
H1324 H 0.57971 0.58324 0.32748 0.0
H1325 H 0.4669 0.38885 0.29279 0.0
H1326 H 0.46291 0.48704 0.32687 0.0
H1327 H 0.50057 0.5382 0.29217 0.0
C1328 C 0.54227 0.58934 0.30022 0.0
C1329 C 0.56503 0.60272 0.31016 0.0
C1330 C 0.46333 0.4656 0.31938 0.0
C1331 C 0.51578 0.52084 0.30964 0.0
C1332 C 0.43853 0.4247 0.31932 0.0
C1333 C 0.43978 0.39603 0.30978 0.0
C1334 C 0.48847 0.4783 0.30974 0.0
C1335 C 0.46499 0.41021 0.30028 0.0
C1336 C 0.51831 0.548 0.29986 0.0
C1337 C 0.56323 0.57367 0.31961 0.0
N1338 N 0.48812 0.45061 0.30045 0.0
N1339 N 0.53839 0.53431 0.31918 0.0
H1340 H 0.59176 0.94631 0.53099 0.0
H1341 H 0.4247 0.11582 0.56375 0.0
H1342 H 0.61404 0.98608 0.5658 0.0
H1343 H 0.37217 0.01921 0.53932 0.0
H1344 H 0.50026 0.07961 0.56219 0.0
H1345 H 0.51555 0.98215 0.53178 0.0
C1346 C 0.5805 0.96214 0.53881 0.0
C1347 C 0.60922 0.96287 0.54836 0.0
C1348 C 0.47219 0.06663 0.55712 0.0
C1349 C 0.52307 0.00511 0.54918 0.0
C1350 C 0.42923 0.08754 0.55792 0.0
C1351 C 0.39211 0.07053 0.55165 0.0
C1352 C 0.47833 0.02906 0.54984 0.0
C1353 C 0.39988 0.03335 0.54432 0.0
C1354 C 0.53716 0.98265 0.53924 0.0
C1355 C 0.59297 0.98421 0.55826 0.0
N1356 N 0.44217 0.01395 0.54357 0.0
N1357 N 0.55128 0.00493 0.55837 0.0
H1358 H 0.04638 0.10279 0.77886 0.0
H1359 H 0.88684 0.93453 0.81412 0.0
H1360 H 0.01815 0.12306 0.81443 0.0
H1361 H 0.97478 0.88337 0.78759 0.0
H1362 H 0.92321 0.00987 0.81226 0.0
H1363 H 0.01066 0.0267 0.78007 0.0
C1364 C 0.03313 0.0911 0.78694 0.0
C1365 C 0.03555 0.11925 0.79657 0.0
C1366 C 0.93424 0.98216 0.8068 0.0
C1367 C 0.99341 0.03321 0.7979 0.0
C1368 C 0.9132 0.93934 0.80777 0.0
C1369 C 0.92775 0.90266 0.80099 0.0
C1370 C 0.9694 0.9886 0.79883 0.0
C1371 C 0.96255 0.91074 0.79299 0.0
C1372 C 0.01268 0.04782 0.7876 0.0
C1373 C 0.01749 0.10244 0.80681 0.0
N1374 N 0.98208 0.95289 0.79209 0.0
N1375 N 0.9967 0.06083 0.80716 0.0
H1376 H 0.59277 0.92042 0.20572 0.0
H1377 H 0.42441 0.08711 0.17263 0.0
H1378 H 0.60895 0.94318 0.16987 0.0
H1379 H 0.38527 0.01137 0.20253 0.0
H1380 H 0.49591 0.04222 0.17182 0.0
H1381 H 0.51949 0.96086 0.20514 0.0
C1382 C 0.58025 0.93336 0.19769 0.0
C1383 C 0.60608 0.92791 0.1878 0.0
C1384 C 0.47137 0.03551 0.1785 0.0
C1385 C 0.52326 0.9755 0.18709 0.0
C1386 C 0.43084 0.06127 0.17902 0.0
C1387 C 0.3988 0.05307 0.18766 0.0
C1388 C 0.48005 0.00213 0.18681 0.0
C1389 C 0.40875 0.01892 0.19568 0.0
C1390 C 0.53864 0.95656 0.19735 0.0
C1391 C 0.58922 0.94606 0.17761 0.0
N1392 N 0.44848 0.99507 0.1951 0.0
N1393 N 0.54887 0.96959 0.17752 0.0
H1394 H 0.0121 0.87754 0.44687 0.0
H1395 H 0.98982 0.13087 0.42544 0.0
H1396 H 0.8993 0.92025 0.42563 0.0
H1397 H 0.11836 0.07214 0.436 0.0
H1398 H 0.95632 0.05455 0.42474 0.0
H1399 H 0.05108 0.94871 0.44277 0.0
C1400 C 0.99551 0.90167 0.44125 0.0
C1401 C 0.95223 0.89254 0.43653 0.0
C1402 C 0.99205 0.05822 0.42703 0.0
C1403 C 0.997 0.97505 0.43194 0.0
C1404 C 0.01117 0.10183 0.42748 0.0
C1405 C 0.05667 0.1079 0.431 0.0
C1406 C 0.01843 0.02046 0.43033 0.0
C1407 C 0.08308 0.06899 0.43331 0.0
C1408 C 0.01807 0.9424 0.43888 0.0
C1409 C 0.93255 0.92576 0.42945 0.0
N1410 N 0.06329 0.02688 0.43315 0.0
N1411 N 0.95492 0.96584 0.42746 0.0
H1412 H 0.07055 0.36412 0.68648 0.0
H1413 H 0.91931 0.58605 0.6723 0.0
H1414 H 0.12656 0.48888 0.67281 0.0
H1415 H 0.87568 0.47517 0.69401 0.0
H1416 H 0.99146 0.54507 0.66895 0.0
H1417 H 0.99368 0.39766 0.68519 0.0
C1418 C 0.06657 0.39814 0.68298 0.0
C1419 C 0.10491 0.4242 0.67996 0.0
C1420 C 0.96574 0.52969 0.67436 0.0
C1421 C 0.01766 0.46288 0.67858 0.0
C1422 C 0.92466 0.5531 0.6763 0.0
C1423 C 0.89125 0.53417 0.68345 0.0
C1424 C 0.97321 0.48696 0.67953 0.0
C1425 C 0.90014 0.49124 0.68839 0.0
C1426 C 0.02283 0.41745 0.68234 0.0
C1427 C 0.09795 0.46818 0.6755 0.0
N1428 N 0.94016 0.46921 0.68634 0.0
N1429 N 0.05523 0.48635 0.67504 0.0
H1430 H 0.38614 0.43613 0.92746 0.0
H1431 H 0.62206 0.5755 0.92848 0.0
H1432 H 0.51527 0.37497 0.93695 0.0
H1433 H 0.49105 0.63738 0.93583 0.0
H1434 H 0.58364 0.50107 0.92666 0.0
H1435 H 0.42503 0.51024 0.92565 0.0
C1436 C 0.42266 0.43802 0.929 0.0
C1437 C 0.44737 0.39907 0.93236 0.0
C1438 C 0.56343 0.53123 0.92853 0.0
C1439 C 0.49198 0.48348 0.93015 0.0
C1440 C 0.58526 0.57369 0.92953 0.0
C1441 C 0.55984 0.61292 0.93233 0.0
C1442 C 0.51582 0.5282 0.93012 0.0
C1443 C 0.51217 0.60833 0.93365 0.0
C1444 C 0.44476 0.48031 0.92799 0.0
C1445 C 0.4947 0.40379 0.93429 0.0
N1446 N 0.49175 0.56684 0.93253 0.0
N1447 N 0.51543 0.44513 0.93315 0.0
H1448 H 0.60277 0.57261 0.08388 0.0
H1449 H 0.39445 0.47439 0.04829 0.0
H1450 H 0.60737 0.55086 0.04774 0.0
H1451 H 0.42043 0.42129 0.08182 0.0
H1452 H 0.46578 0.51709 0.04919 0.0
H1453 H 0.5289 0.53104 0.08451 0.0
C1454 C 0.58792 0.55963 0.0761 0.0
C1455 C 0.61085 0.5651 0.06574 0.0
C1456 C 0.45597 0.49611 0.05636 0.0
C1457 C 0.52745 0.51836 0.06639 0.0
C1458 C 0.41521 0.47176 0.05587 0.0
C1459 C 0.4016 0.44408 0.06498 0.0
C1460 C 0.48331 0.49358 0.0661 0.0
C1461 C 0.43003 0.44193 0.07458 0.0
C1462 C 0.54629 0.53564 0.07648 0.0
C1463 C 0.59076 0.54724 0.0559 0.0
N1464 N 0.46965 0.46671 0.07493 0.0
N1465 N 0.55015 0.52499 0.05646 0.0
H1466 H 0.46941 0.10777 0.29819 0.0
H1467 H 0.57954 0.90774 0.33429 0.0
H1468 H 0.43106 0.09099 0.33327 0.0
H1469 H 0.54169 0.89206 0.29914 0.0
H1470 H 0.53864 0.98177 0.33464 0.0
H1471 H 0.51004 0.03494 0.29893 0.0
C1472 C 0.46956 0.08869 0.30606 0.0
C1473 C 0.44668 0.10526 0.31568 0.0
C1474 C 0.53947 0.96187 0.32689 0.0
C1475 C 0.49384 0.02222 0.31661 0.0
C1476 C 0.563 0.92005 0.32666 0.0
C1477 C 0.5639 0.89391 0.31668 0.0
C1478 C 0.51796 0.97779 0.317 0.0
C1479 C 0.54164 0.91104 0.30703 0.0
C1480 C 0.49268 0.04713 0.30646 0.0
C1481 C 0.44795 0.07907 0.32566 0.0
N1482 N 0.51994 0.95201 0.30741 0.0
N1483 N 0.47158 0.03881 0.32591 0.0
H1484 H 0.92577 0.89255 0.57618 0.0
H1485 H 0.06752 0.12589 0.57133 0.0
H1486 H 0.86694 0.01779 0.56325 0.0
H1487 H 0.12891 0.99258 0.56695 0.0
H1488 H 0.99249 0.0888 0.57336 0.0
H1489 H 0.99992 0.93147 0.57772 0.0
C1490 C 0.92815 0.92829 0.57382 0.0
C1491 C 0.88986 0.95185 0.56959 0.0
C1492 C 0.02266 0.06784 0.57209 0.0
C1493 C 0.97436 0.99655 0.57149 0.0
C1494 C 0.06546 0.08891 0.57098 0.0
C1495 C 0.10471 0.06238 0.56892 0.0
C1496 C 0.01931 0.01995 0.57138 0.0
C1497 C 0.09981 0.01452 0.56852 0.0
C1498 C 0.97048 0.95039 0.57468 0.0
C1499 C 0.89525 0.99818 0.56661 0.0
N1500 N 0.05798 0.99487 0.56974 0.0
N1501 N 0.93664 0.019 0.56764 0.0
H1502 H 0.01057 0.64052 0.81395 0.0
H1503 H 0.98221 0.37428 0.81333 0.0
H1504 H 0.88037 0.5776 0.82157 0.0
H1505 H 0.11066 0.43742 0.82256 0.0
H1506 H 0.94418 0.44791 0.8155 0.0
H1507 H 0.04789 0.56675 0.81627 0.0
C1508 C 0.98977 0.6114 0.81627 0.0
C1509 C 0.94209 0.61555 0.81759 0.0
C1510 C 0.98055 0.4455 0.81721 0.0
C1511 C 0.98491 0.53033 0.81998 0.0
C1512 C 0.00245 0.4034 0.81597 0.0
C1513 C 0.04988 0.39938 0.81781 0.0
C1514 C 0.0063 0.48432 0.82001 0.0
C1515 C 0.0741 0.43876 0.82108 0.0
C1516 C 0.01127 0.56919 0.8176 0.0
C1517 C 0.91716 0.57614 0.82049 0.0
N1518 N 0.05215 0.47974 0.82191 0.0
N1519 N 0.93878 0.53499 0.82141 0.0
loop_
_geom_bond_atom_site_label_1
_geom_bond_atom_site_label_2
_geom_bond_distance
_geom_bond_site_symmetry_2
_ccdc_geom_bond_type
Co0 O2 2.143 . S
Co0 O8 2.074 . S
Co0 O11 2.093 . S
Co0 O24 2.097 . S
Co0 N41 2.151 . S
Co0 N49 2.214 . S
Co1 O2 2.160 . S
Co1 O7 2.058 . S
Co1 O17 2.057 . S
Co1 O32 2.037 . S
Co1 N36 2.145 1_545 S
Co1 N57 2.257 . S
O2 Co0 2.143 . S
O2 Co1 2.160 . S
C3 O4 1.278 . S
C3 O11 1.224 . S
O4 C3 1.278 . S
C5 O6 1.245 . S
C5 O17 1.232 . S
O6 C5 1.245 . S
O7 Co1 2.058 . S
O7 C33 1.269 . S
O8 Co0 2.074 . S
O8 C33 1.257 . S
H9 C34 0.930 . S
H10 C40 0.930 . S
O11 Co0 2.093 . S
O11 C3 1.224 . S
H12 C44 0.929 . S
H13 C46 0.930 . S
H14 C47 0.930 . S
H15 C45 0.929 . S
H16 C48 0.928 . S
O17 Co1 2.057 . S
O17 C5 1.232 . S
H18 C37 0.929 1_545 S
H19 C38 0.929 . S
H20 C50 0.931 . S
H21 C42 0.929 . S
H22 C51 0.930 . S
H23 C43 0.931 . S
O24 Co0 2.097 . S
O24 C52 1.214 . S
H25 C53 0.929 . S
H26 C54 0.929 . S
H27 C55 0.930 . S
H28 C56 0.929 . S
H29 C58 0.930 . S
H30 C35 0.930 . S
H31 C39 0.930 . S
O32 Co1 2.037 . S
O32 C52 1.234 . S
C33 O7 1.269 . S
C33 O8 1.257 . S
C34 H9 0.930 . S
C34 C37 1.388 . S
C34 C39 1.418 . S
C35 H30 0.930 . S
C35 C38 1.404 . S
C35 C39 1.353 . S
N36 Co1 2.145 1_565 S
N36 C37 1.397 . S
N36 C38 1.334 . S
C37 H18 0.929 1_565 S
C37 C34 1.388 . S
C37 N36 1.397 . S
C38 H19 0.929 . S
C38 C35 1.404 . S
C38 N36 1.334 . S
C39 H31 0.930 . S
C39 C34 1.418 . S
C39 C35 1.353 . S
C40 H10 0.930 . S
C40 N41 1.330 . S
C40 C42 1.446 . S
N41 Co0 2.151 . S
N41 C40 1.330 . S
N41 C45 1.418 . S
C42 H21 0.929 . S
C42 C40 1.446 . S
C42 C43 1.332 . S
C43 H23 0.931 . S
C43 C42 1.332 . S
C43 C44 1.267 . S
C44 H12 0.929 . S
C44 C43 1.267 . S
C44 C45 1.251 . S
C45 H15 0.929 . S
C45 N41 1.418 . S
C45 C44 1.251 . S
C46 H13 0.930 . S
C46 C48 1.406 . S
C46 C51 1.261 . S
C47 H14 0.930 . S
C47 N49 1.325 . S
C47 C50 1.357 . S
C48 H16 0.928 . S
C48 C46 1.406 . S
C48 N49 1.261 . S
N49 Co0 2.214 . S
N49 C47 1.325 . S
N49 C48 1.261 . S
C50 H20 0.931 . S
C50 C47 1.357 . S
C50 C51 1.312 . S
C51 H22 0.930 . S
C51 C46 1.261 . S
C51 C50 1.312 . S
C52 O24 1.214 . S
C52 O32 1.234 . S
C53 H25 0.929 . S
C53 C56 1.391 1_545 S
C53 C58 1.391 . S
C54 H26 0.929 . S
C54 C55 1.390 . S
C54 N57 1.391 1_565 S
C55 H27 0.930 . S
C55 C54 1.390 . S
C55 C56 1.392 . S
C56 H28 0.929 . S
C56 C53 1.391 1_565 S
C56 C55 1.392 . S
N57 Co1 2.257 . S
N57 C54 1.391 1_545 S
N57 C58 1.388 . S
C58 H29 0.930 . S
C58 C53 1.391 . S
C58 N57 1.388 . S
Co59 O61 2.143 . S
Co59 O67 2.074 . S
Co59 O70 2.093 . S
Co59 O83 2.097 . S
Co59 N100 2.151 . S
Co59 N108 2.214 . S
Co60 O61 2.160 . S
Co60 O66 2.058 . S
Co60 O76 2.057 . S
Co60 O91 2.037 . S
Co60 N95 2.145 1_655 S
Co60 N116 2.257 . S
O61 Co59 2.143 . S
O61 Co60 2.160 . S
C62 O63 1.278 . S
C62 O70 1.224 . S
O63 C62 1.278 . S
C64 O65 1.245 . S
C64 O76 1.232 . S
O65 C64 1.245 . S
O66 Co60 2.058 . S
O66 C92 1.269 . S
O67 Co59 2.074 . S
O67 C92 1.257 . S
H68 C93 0.930 . S
H69 C99 0.930 . S
O70 Co59 2.093 . S
O70 C62 1.224 . S
H71 C103 0.929 . S
H72 C105 0.930 . S
H73 C106 0.930 . S
H74 C104 0.929 . S
H75 C107 0.928 . S
O76 Co60 2.057 . S
O76 C64 1.232 . S
H77 C96 0.929 1_655 S
H78 C97 0.929 . S
H79 C109 0.931 . S
H80 C101 0.929 . S
H81 C110 0.930 . S
H82 C102 0.931 . S
O83 Co59 2.097 . S
O83 C111 1.214 . S
H84 C112 0.929 . S
H85 C113 0.929 . S
H86 C114 0.930 . S
H87 C115 0.929 . S
H88 C117 0.930 . S
H89 C94 0.930 . S
H90 C98 0.930 . S
O91 Co60 2.037 . S
O91 C111 1.234 . S
C92 O66 1.269 . S
C92 O67 1.257 . S
C93 H68 0.930 . S
C93 C96 1.388 . S
C93 C98 1.418 . S
C94 H89 0.930 . S
C94 C97 1.404 . S
C94 C98 1.353 . S
N95 Co60 2.145 1_455 S
N95 C96 1.397 . S
N95 C97 1.334 . S
C96 H77 0.929 1_455 S
C96 C93 1.388 . S
C96 N95 1.397 . S
C97 H78 0.929 . S
C97 C94 1.404 . S
C97 N95 1.334 . S
C98 H90 0.930 . S
C98 C93 1.418 . S
C98 C94 1.353 . S
C99 H69 0.930 . S
C99 N100 1.330 . S
C99 C101 1.446 . S
N100 Co59 2.151 . S
N100 C99 1.330 . S
N100 C104 1.418 . S
C101 H80 0.929 . S
C101 C99 1.446 . S
C101 C102 1.332 . S
C102 H82 0.931 . S
C102 C101 1.332 . S
C102 C103 1.267 . S
C103 H71 0.929 . S
C103 C102 1.267 . S
C103 C104 1.251 . S
C104 H74 0.929 . S
C104 N100 1.418 . S
C104 C103 1.251 . S
C105 H72 0.930 . S
C105 C107 1.406 . S
C105 C110 1.261 . S
C106 H73 0.930 . S
C106 N108 1.325 . S
C106 C109 1.357 . S
C107 H75 0.928 . S
C107 C105 1.406 . S
C107 N108 1.261 . S
N108 Co59 2.214 . S
N108 C106 1.325 . S
N108 C107 1.261 . S
C109 H79 0.931 . S
C109 C106 1.357 . S
C109 C110 1.312 . S
C110 H81 0.930 . S
C110 C105 1.261 . S
C110 C109 1.312 . S
C111 O83 1.214 . S
C111 O91 1.234 . S
C112 H84 0.929 . S
C112 C115 1.391 1_655 S
C112 C117 1.391 . S
C113 H85 0.929 . S
C113 C114 1.390 . S
C113 N116 1.391 1_455 S
C114 H86 0.930 . S
C114 C113 1.390 . S
C114 C115 1.392 . S
C115 H87 0.929 . S
C115 C112 1.391 1_455 S
C115 C114 1.392 . S
N116 Co60 2.257 . S
N116 C113 1.391 1_655 S
N116 C117 1.388 . S
C117 H88 0.930 . S
C117 C112 1.391 . S
C117 N116 1.388 . S
Co118 O120 2.143 . S
Co118 O126 2.074 . S
Co118 O129 2.093 . S
Co118 O142 2.097 . S
Co118 N159 2.151 . S
Co118 N167 2.214 . S
Co119 O120 2.160 . S
Co119 O125 2.058 . S
Co119 O135 2.057 . S
Co119 O150 2.037 . S
Co119 N154 2.145 . S
Co119 N175 2.257 . S
O120 Co118 2.143 . S
O120 Co119 2.160 . S
C121 O122 1.278 . S
C121 O129 1.224 . S
O122 C121 1.278 . S
C123 O124 1.245 . S
C123 O135 1.232 . S
O124 C123 1.245 . S
O125 Co119 2.058 . S
O125 C151 1.269 . S
O126 Co118 2.074 . S
O126 C151 1.257 . S
H127 C152 0.930 . S
H128 C158 0.930 . S
O129 Co118 2.093 . S
O129 C121 1.224 . S
H130 C162 0.929 . S
H131 C164 0.930 . S
H132 C165 0.930 . S
H133 C163 0.929 . S
H134 C166 0.928 . S
O135 Co119 2.057 . S
O135 C123 1.232 . S
H136 C155 0.929 . S
H137 C156 0.929 . S
H138 C168 0.931 . S
H139 C160 0.929 . S
H140 C169 0.930 . S
H141 C161 0.931 . S
O142 Co118 2.097 . S
O142 C170 1.214 . S
H143 C171 0.929 . S
H144 C172 0.929 . S
H145 C173 0.930 . S
H146 C174 0.929 . S
H147 C176 0.930 . S
H148 C153 0.930 . S
H149 C157 0.930 . S
O150 Co119 2.037 . S
O150 C170 1.234 . S
C151 O125 1.269 . S
C151 O126 1.257 . S
C152 H127 0.930 . S
C152 C155 1.388 . S
C152 C157 1.418 . S
C153 H148 0.930 . S
C153 C156 1.404 . S
C153 C157 1.353 . S
N154 Co119 2.145 . S
N154 C155 1.397 . S
N154 C156 1.334 . S
C155 H136 0.929 . S
C155 C152 1.388 . S
C155 N154 1.397 . S
C156 H137 0.929 . S
C156 C153 1.404 . S
C156 N154 1.334 . S
C157 H149 0.930 . S
C157 C152 1.418 . S
C157 C153 1.353 . S
C158 H128 0.930 . S
C158 N159 1.330 . S
C158 C160 1.446 . S
N159 Co118 2.151 . S
N159 C158 1.330 . S
N159 C163 1.418 . S
C160 H139 0.929 . S
C160 C158 1.446 . S
C160 C161 1.332 . S
C161 H141 0.931 . S
C161 C160 1.332 . S
C161 C162 1.267 . S
C162 H130 0.929 . S
C162 C161 1.267 . S
C162 C163 1.251 . S
C163 H133 0.929 . S
C163 N159 1.418 . S
C163 C162 1.251 . S
C164 H131 0.930 . S
C164 C166 1.406 . S
C164 C169 1.261 . S
C165 H132 0.930 . S
C165 N167 1.325 . S
C165 C168 1.357 . S
C166 H134 0.928 . S
C166 C164 1.406 . S
C166 N167 1.261 . S
N167 Co118 2.214 . S
N167 C165 1.325 . S
N167 C166 1.261 . S
C168 H138 0.931 . S
C168 C165 1.357 . S
C168 C169 1.312 . S
C169 H140 0.930 . S
C169 C164 1.261 . S
C169 C168 1.312 . S
C170 O142 1.214 . S
C170 O150 1.234 . S
C171 H143 0.929 . S
C171 C174 1.391 . S
C171 C176 1.391 . S
C172 H144 0.929 . S
C172 C173 1.390 . S
C172 N175 1.391 . S
C173 H145 0.930 . S
C173 C172 1.390 . S
C173 C174 1.392 . S
C174 H146 0.929 . S
C174 C171 1.391 . S
C174 C173 1.392 . S
N175 Co119 2.257 . S
N175 C172 1.391 . S
N175 C176 1.388 . S
C176 H147 0.930 . S
C176 C171 1.391 . S
C176 N175 1.388 . S
Co177 O179 2.143 . S
Co177 O185 2.074 . S
Co177 O188 2.093 . S
Co177 O201 2.097 . S
Co177 N218 2.151 . S
Co177 N226 2.214 . S
Co178 O179 2.160 . S
Co178 O184 2.058 . S
Co178 O194 2.057 . S
Co178 O209 2.037 . S
Co178 N213 2.145 . S
Co178 N234 2.257 . S
O179 Co177 2.143 . S
O179 Co178 2.160 . S
C180 O181 1.278 . S
C180 O188 1.224 . S
O181 C180 1.278 . S
C182 O183 1.245 . S
C182 O194 1.232 . S
O183 C182 1.245 . S
O184 Co178 2.058 . S
O184 C210 1.269 . S
O185 Co177 2.074 . S
O185 C210 1.257 . S
H186 C211 0.930 . S
H187 C217 0.930 . S
O188 Co177 2.093 . S
O188 C180 1.224 . S
H189 C221 0.929 . S
H190 C223 0.930 . S
H191 C224 0.930 . S
H192 C222 0.929 . S
H193 C225 0.928 . S
O194 Co178 2.057 . S
O194 C182 1.232 . S
H195 C214 0.929 . S
H196 C215 0.929 . S
H197 C227 0.931 . S
H198 C219 0.929 . S
H199 C228 0.930 . S
H200 C220 0.931 . S
O201 Co177 2.097 . S
O201 C229 1.214 . S
H202 C230 0.929 . S
H203 C231 0.929 . S
H204 C232 0.930 . S
H205 C233 0.929 . S
H206 C235 0.930 . S
H207 C212 0.930 . S
H208 C216 0.930 . S
O209 Co178 2.037 . S
O209 C229 1.234 . S
C210 O184 1.269 . S
C210 O185 1.257 . S
C211 H186 0.930 . S
C211 C214 1.388 . S
C211 C216 1.418 . S
C212 H207 0.930 . S
C212 C215 1.404 . S
C212 C216 1.353 . S
N213 Co178 2.145 . S
N213 C214 1.397 . S
N213 C215 1.334 . S
C214 H195 0.929 . S
C214 C211 1.388 . S
C214 N213 1.397 . S
C215 H196 0.929 . S
C215 C212 1.404 . S
C215 N213 1.334 . S
C216 H208 0.930 . S
C216 C211 1.418 . S
C216 C212 1.353 . S
C217 H187 0.930 . S
C217 N218 1.330 . S
C217 C219 1.446 . S
N218 Co177 2.151 . S
N218 C217 1.330 . S
N218 C222 1.418 . S
C219 H198 0.929 . S
C219 C217 1.446 . S
C219 C220 1.332 . S
C220 H200 0.931 . S
C220 C219 1.332 . S
C220 C221 1.267 . S
C221 H189 0.929 . S
C221 C220 1.267 . S
C221 C222 1.251 . S
C222 H192 0.929 . S
C222 N218 1.418 . S
C222 C221 1.251 . S
C223 H190 0.930 . S
C223 C225 1.406 . S
C223 C228 1.261 . S
C224 H191 0.930 . S
C224 N226 1.325 . S
C224 C227 1.357 . S
C225 H193 0.928 . S
C225 C223 1.406 . S
C225 N226 1.261 . S
N226 Co177 2.214 . S
N226 C224 1.325 . S
N226 C225 1.261 . S
C227 H197 0.931 . S
C227 C224 1.357 . S
C227 C228 1.312 . S
C228 H199 0.930 . S
C228 C223 1.261 . S
C228 C227 1.312 . S
C229 O201 1.214 . S
C229 O209 1.234 . S
C230 H202 0.929 . S
C230 C233 1.391 . S
C230 C235 1.391 . S
C231 H203 0.929 . S
C231 C232 1.390 . S
C231 N234 1.391 . S
C232 H204 0.930 . S
C232 C231 1.390 . S
C232 C233 1.392 . S
C233 H205 0.929 . S
C233 C230 1.391 . S
C233 C232 1.392 . S
N234 Co178 2.257 . S
N234 C231 1.391 . S
N234 C235 1.388 . S
C235 H206 0.930 . S
C235 C230 1.391 . S
C235 N234 1.388 . S
Co236 O238 2.143 . S
Co236 O244 2.074 . S
Co236 O247 2.093 . S
Co236 O260 2.097 . S
Co236 N277 2.151 . S
Co236 N285 2.214 . S
Co237 O238 2.160 . S
Co237 O243 2.058 . S
Co237 O253 2.057 . S
Co237 O268 2.037 . S
Co237 N272 2.145 . S
Co237 N293 2.257 . S
O238 Co236 2.143 . S
O238 Co237 2.160 . S
C239 O240 1.278 . S
C239 O247 1.224 . S
O240 C239 1.278 . S
C241 O242 1.245 . S
C241 O253 1.232 . S
O242 C241 1.245 . S
O243 Co237 2.058 . S
O243 C269 1.269 . S
O244 Co236 2.074 . S
O244 C269 1.257 . S
H245 C270 0.930 . S
H246 C276 0.930 . S
O247 Co236 2.093 . S
O247 C239 1.224 . S
H248 C280 0.929 . S
H249 C282 0.930 . S
H250 C283 0.930 . S
H251 C281 0.929 . S
H252 C284 0.928 . S
O253 Co237 2.057 . S
O253 C241 1.232 . S
H254 C273 0.929 . S
H255 C274 0.929 . S
H256 C286 0.931 . S
H257 C278 0.929 . S
H258 C287 0.930 . S
H259 C279 0.931 . S
O260 Co236 2.097 . S
O260 C288 1.214 . S
H261 C289 0.929 . S
H262 C290 0.929 . S
H263 C291 0.930 . S
H264 C292 0.929 . S
H265 C294 0.930 . S
H266 C271 0.930 . S
H267 C275 0.930 . S
O268 Co237 2.037 . S
O268 C288 1.234 . S
C269 O243 1.269 . S
C269 O244 1.257 . S
C270 H245 0.930 . S
C270 C273 1.388 . S
C270 C275 1.418 . S
C271 H266 0.930 . S
C271 C274 1.404 . S
C271 C275 1.353 . S
N272 Co237 2.145 . S
N272 C273 1.397 . S
N272 C274 1.334 . S
C273 H254 0.929 . S
C273 C270 1.388 . S
C273 N272 1.397 . S
C274 H255 0.929 . S
C274 C271 1.404 . S
C274 N272 1.334 . S
C275 H267 0.930 . S
C275 C270 1.418 . S
C275 C271 1.353 . S
C276 H246 0.930 . S
C276 N277 1.330 . S
C276 C278 1.446 . S
N277 Co236 2.151 . S
N277 C276 1.330 . S
N277 C281 1.418 . S
C278 H257 0.929 . S
C278 C276 1.446 . S
C278 C279 1.332 . S
C279 H259 0.931 . S
C279 C278 1.332 . S
C279 C280 1.267 . S
C280 H248 0.929 . S
C280 C279 1.267 . S
C280 C281 1.251 . S
C281 H251 0.929 . S
C281 N277 1.418 . S
C281 C280 1.251 . S
C282 H249 0.930 . S
C282 C284 1.406 . S
C282 C287 1.261 . S
C283 H250 0.930 . S
C283 N285 1.325 . S
C283 C286 1.357 . S
C284 H252 0.928 . S
C284 C282 1.406 . S
C284 N285 1.261 . S
N285 Co236 2.214 . S
N285 C283 1.325 . S
N285 C284 1.261 . S
C286 H256 0.931 . S
C286 C283 1.357 . S
C286 C287 1.312 . S
C287 H258 0.930 . S
C287 C282 1.261 . S
C287 C286 1.312 . S
C288 O260 1.214 . S
C288 O268 1.234 . S
C289 H261 0.929 . S
C289 C292 1.391 . S
C289 C294 1.391 . S
C290 H262 0.929 . S
C290 C291 1.390 . S
C290 N293 1.391 . S
C291 H263 0.930 . S
C291 C290 1.390 . S
C291 C292 1.392 . S
C292 H264 0.929 . S
C292 C289 1.391 . S
C292 C291 1.392 . S
N293 Co237 2.257 . S
N293 C290 1.391 . S
N293 C294 1.388 . S
C294 H265 0.930 . S
C294 C289 1.391 . S
C294 N293 1.388 . S
Co295 O297 2.143 . S
Co295 O303 2.074 . S
Co295 O306 2.093 . S
Co295 O319 2.097 . S
Co295 N336 2.151 . S
Co295 N344 2.214 . S
Co296 O297 2.160 . S
Co296 O302 2.058 . S
Co296 O312 2.057 . S
Co296 O327 2.037 . S
Co296 N331 2.145 . S
Co296 N352 2.257 . S
O297 Co295 2.143 . S
O297 Co296 2.160 . S
C298 O299 1.278 . S
C298 O306 1.224 . S
O299 C298 1.278 . S
C300 O301 1.245 . S
C300 O312 1.232 . S
O301 C300 1.245 . S
O302 Co296 2.058 . S
O302 C328 1.269 . S
O303 Co295 2.074 . S
O303 C328 1.257 . S
H304 C329 0.930 . S
H305 C335 0.930 . S
O306 Co295 2.093 . S
O306 C298 1.224 . S
H307 C339 0.929 . S
H308 C341 0.930 . S
H309 C342 0.930 . S
H310 C340 0.929 . S
H311 C343 0.928 . S
O312 Co296 2.057 . S
O312 C300 1.232 . S
H313 C332 0.929 . S
H314 C333 0.929 . S
H315 C345 0.931 . S
H316 C337 0.929 . S
H317 C346 0.930 . S
H318 C338 0.931 . S
O319 Co295 2.097 . S
O319 C347 1.214 . S
H320 C348 0.929 . S
H321 C349 0.929 . S
H322 C350 0.930 . S
H323 C351 0.929 . S
H324 C353 0.930 . S
H325 C330 0.930 . S
H326 C334 0.930 . S
O327 Co296 2.037 . S
O327 C347 1.234 . S
C328 O302 1.269 . S
C328 O303 1.257 . S
C329 H304 0.930 . S
C329 C332 1.388 . S
C329 C334 1.418 . S
C330 H325 0.930 . S
C330 C333 1.404 . S
C330 C334 1.353 . S
N331 Co296 2.145 . S
N331 C332 1.397 . S
N331 C333 1.334 . S
C332 H313 0.929 . S
C332 C329 1.388 . S
C332 N331 1.397 . S
C333 H314 0.929 . S
C333 C330 1.404 . S
C333 N331 1.334 . S
C334 H326 0.930 . S
C334 C329 1.418 . S
C334 C330 1.353 . S
C335 H305 0.930 . S
C335 N336 1.330 . S
C335 C337 1.446 . S
N336 Co295 2.151 . S
N336 C335 1.330 . S
N336 C340 1.418 . S
C337 H316 0.929 . S
C337 C335 1.446 . S
C337 C338 1.332 . S
C338 H318 0.931 . S
C338 C337 1.332 . S
C338 C339 1.267 . S
C339 H307 0.929 . S
C339 C338 1.267 . S
C339 C340 1.251 . S
C340 H310 0.929 . S
C340 N336 1.418 . S
C340 C339 1.251 . S
C341 H308 0.930 . S
C341 C343 1.406 . S
C341 C346 1.261 . S
C342 H309 0.930 . S
C342 N344 1.325 . S
C342 C345 1.357 . S
C343 H311 0.928 . S
C343 C341 1.406 . S
C343 N344 1.261 . S
N344 Co295 2.214 . S
N344 C342 1.325 . S
N344 C343 1.261 . S
C345 H315 0.931 . S
C345 C342 1.357 . S
C345 C346 1.312 . S
C346 H317 0.930 . S
C346 C341 1.261 . S
C346 C345 1.312 . S
C347 O319 1.214 . S
C347 O327 1.234 . S
C348 H320 0.929 . S
C348 C351 1.391 . S
C348 C353 1.391 . S
C349 H321 0.929 . S
C349 C350 1.390 . S
C349 N352 1.391 . S
C350 H322 0.930 . S
C350 C349 1.390 . S
C350 C351 1.392 . S
C351 H323 0.929 . S
C351 C348 1.391 . S
C351 C350 1.392 . S
N352 Co296 2.257 . S
N352 C349 1.391 . S
N352 C353 1.388 . S
C353 H324 0.930 . S
C353 C348 1.391 . S
C353 N352 1.388 . S
Co354 O356 2.143 . S
Co354 O362 2.074 . S
Co354 O365 2.093 . S
Co354 O378 2.097 . S
Co354 N395 2.151 . S
Co354 N403 2.214 . S
Co355 O356 2.160 . S
Co355 O361 2.058 . S
Co355 O371 2.057 . S
Co355 O386 2.037 . S
Co355 N390 2.145 1_545 S
Co355 N411 2.257 . S
O356 Co354 2.143 . S
O356 Co355 2.160 . S
C357 O358 1.278 . S
C357 O365 1.224 . S
O358 C357 1.278 . S
C359 O360 1.245 . S
C359 O371 1.232 . S
O360 C359 1.245 . S
O361 Co355 2.058 . S
O361 C387 1.269 . S
O362 Co354 2.074 . S
O362 C387 1.257 . S
H363 C388 0.930 . S
H364 C394 0.930 . S
O365 Co354 2.093 . S
O365 C357 1.224 . S
H366 C398 0.929 . S
H367 C400 0.930 . S
H368 C401 0.930 . S
H369 C399 0.929 . S
H370 C402 0.928 . S
O371 Co355 2.057 . S
O371 C359 1.232 . S
H372 C391 0.929 1_545 S
H373 C392 0.929 . S
H374 C404 0.931 . S
H375 C396 0.929 . S
H376 C405 0.930 . S
H377 C397 0.931 . S
O378 Co354 2.097 . S
O378 C406 1.214 . S
H379 C407 0.929 . S
H380 C408 0.929 . S
H381 C409 0.930 . S
H382 C410 0.929 . S
H383 C412 0.930 . S
H384 C389 0.930 . S
H385 C393 0.930 . S
O386 Co355 2.037 . S
O386 C406 1.234 . S
C387 O361 1.269 . S
C387 O362 1.257 . S
C388 H363 0.930 . S
C388 C391 1.388 . S
C388 C393 1.418 . S
C389 H384 0.930 . S
C389 C392 1.404 . S
C389 C393 1.353 . S
N390 Co355 2.145 1_565 S
N390 C391 1.397 . S
N390 C392 1.334 . S
C391 H372 0.929 1_565 S
C391 C388 1.388 . S
C391 N390 1.397 . S
C392 H373 0.929 . S
C392 C389 1.404 . S
C392 N390 1.334 . S
C393 H385 0.930 . S
C393 C388 1.418 . S
C393 C389 1.353 . S
C394 H364 0.930 . S
C394 N395 1.330 . S
C394 C396 1.446 . S
N395 Co354 2.151 . S
N395 C394 1.330 . S
N395 C399 1.418 . S
C396 H375 0.929 . S
C396 C394 1.446 . S
C396 C397 1.332 . S
C397 H377 0.931 . S
C397 C396 1.332 . S
C397 C398 1.267 . S
C398 H366 0.929 . S
C398 C397 1.267 . S
C398 C399 1.251 . S
C399 H369 0.929 . S
C399 N395 1.418 . S
C399 C398 1.251 . S
C400 H367 0.930 . S
C400 C402 1.406 . S
C400 C405 1.261 . S
C401 H368 0.930 . S
C401 N403 1.325 . S
C401 C404 1.357 . S
C402 H370 0.928 . S
C402 C400 1.406 . S
C402 N403 1.261 . S
N403 Co354 2.214 . S
N403 C401 1.325 . S
N403 C402 1.261 . S
C404 H374 0.931 . S
C404 C401 1.357 . S
C404 C405 1.312 . S
C405 H376 0.930 . S
C405 C400 1.261 . S
C405 C404 1.312 . S
C406 O378 1.214 . S
C406 O386 1.234 . S
C407 H379 0.929 . S
C407 C410 1.391 1_545 S
C407 C412 1.391 . S
C408 H380 0.929 . S
C408 C409 1.390 . S
C408 N411 1.391 1_565 S
C409 H381 0.930 . S
C409 C408 1.390 . S
C409 C410 1.392 . S
C410 H382 0.929 . S
C410 C407 1.391 1_565 S
C410 C409 1.392 . S
N411 Co355 2.257 . S
N411 C408 1.391 1_545 S
N411 C412 1.388 . S
C412 H383 0.930 . S
C412 C407 1.391 . S
C412 N411 1.388 . S
Co413 O415 2.143 . S
Co413 O421 2.074 . S
Co413 O424 2.093 . S
Co413 O437 2.097 . S
Co413 N454 2.151 . S
Co413 N462 2.214 . S
Co414 O415 2.160 . S
Co414 O420 2.058 . S
Co414 O430 2.057 . S
Co414 O445 2.037 . S
Co414 N449 2.145 1_655 S
Co414 N470 2.257 . S
O415 Co413 2.143 . S
O415 Co414 2.160 . S
C416 O417 1.278 . S
C416 O424 1.224 . S
O417 C416 1.278 . S
C418 O419 1.245 . S
C418 O430 1.232 . S
O419 C418 1.245 . S
O420 Co414 2.058 . S
O420 C446 1.269 . S
O421 Co413 2.074 . S
O421 C446 1.257 . S
H422 C447 0.930 . S
H423 C453 0.930 . S
O424 Co413 2.093 . S
O424 C416 1.224 . S
H425 C457 0.929 . S
H426 C459 0.930 . S
H427 C460 0.930 . S
H428 C458 0.929 . S
H429 C461 0.928 . S
O430 Co414 2.057 . S
O430 C418 1.232 . S
H431 C450 0.929 1_655 S
H432 C451 0.929 . S
H433 C463 0.931 . S
H434 C455 0.929 . S
H435 C464 0.930 . S
H436 C456 0.931 . S
O437 Co413 2.097 . S
O437 C465 1.214 . S
H438 C466 0.929 . S
H439 C467 0.929 . S
H440 C468 0.930 . S
H441 C469 0.929 . S
H442 C471 0.930 . S
H443 C448 0.930 . S
H444 C452 0.930 . S
O445 Co414 2.037 . S
O445 C465 1.234 . S
C446 O420 1.269 . S
C446 O421 1.257 . S
C447 H422 0.930 . S
C447 C450 1.388 . S
C447 C452 1.418 . S
C448 H443 0.930 . S
C448 C451 1.404 . S
C448 C452 1.353 . S
N449 Co414 2.145 1_455 S
N449 C450 1.397 . S
N449 C451 1.334 . S
C450 H431 0.929 1_455 S
C450 C447 1.388 . S
C450 N449 1.397 . S
C451 H432 0.929 . S
C451 C448 1.404 . S
C451 N449 1.334 . S
C452 H444 0.930 . S
C452 C447 1.418 . S
C452 C448 1.353 . S
C453 H423 0.930 . S
C453 N454 1.330 . S
C453 C455 1.446 . S
N454 Co413 2.151 . S
N454 C453 1.330 . S
N454 C458 1.418 . S
C455 H434 0.929 . S
C455 C453 1.446 . S
C455 C456 1.332 . S
C456 H436 0.931 . S
C456 C455 1.332 . S
C456 C457 1.267 . S
C457 H425 0.929 . S
C457 C456 1.267 . S
C457 C458 1.251 . S
C458 H428 0.929 . S
C458 N454 1.418 . S
C458 C457 1.251 . S
C459 H426 0.930 . S
C459 C461 1.406 . S
C459 C464 1.261 . S
C460 H427 0.930 . S
C460 N462 1.325 . S
C460 C463 1.357 . S
C461 H429 0.928 . S
C461 C459 1.406 . S
C461 N462 1.261 . S
N462 Co413 2.214 . S
N462 C460 1.325 . S
N462 C461 1.261 . S
C463 H433 0.931 . S
C463 C460 1.357 . S
C463 C464 1.312 . S
C464 H435 0.930 . S
C464 C459 1.261 . S
C464 C463 1.312 . S
C465 O437 1.214 . S
C465 O445 1.234 . S
C466 H438 0.929 . S
C466 C469 1.391 1_655 S
C466 C471 1.391 . S
C467 H439 0.929 . S
C467 C468 1.390 . S
C467 N470 1.391 1_455 S
C468 H440 0.930 . S
C468 C467 1.390 . S
C468 C469 1.392 . S
C469 H441 0.929 . S
C469 C466 1.391 1_455 S
C469 C468 1.392 . S
N470 Co414 2.257 . S
N470 C467 1.391 1_655 S
N470 C471 1.388 . S
C471 H442 0.930 . S
C471 C466 1.391 . S
C471 N470 1.388 . S
Co472 O474 2.143 . S
Co472 O480 2.074 . S
Co472 O483 2.093 . S
Co472 O496 2.097 . S
Co472 N513 2.151 . S
Co472 N521 2.214 . S
Co473 O474 2.160 . S
Co473 O479 2.058 . S
Co473 O489 2.057 . S
Co473 O504 2.037 . S
Co473 N508 2.145 . S
Co473 N529 2.257 . S
O474 Co472 2.143 . S
O474 Co473 2.160 . S
C475 O476 1.278 . S
C475 O483 1.224 . S
O476 C475 1.278 . S
C477 O478 1.245 . S
C477 O489 1.232 . S
O478 C477 1.245 . S
O479 Co473 2.058 . S
O479 C505 1.269 . S
O480 Co472 2.074 . S
O480 C505 1.257 . S
H481 C506 0.930 . S
H482 C512 0.930 . S
O483 Co472 2.093 . S
O483 C475 1.224 . S
H484 C516 0.929 . S
H485 C518 0.930 . S
H486 C519 0.930 . S
H487 C517 0.929 . S
H488 C520 0.928 . S
O489 Co473 2.057 . S
O489 C477 1.232 . S
H490 C509 0.929 . S
H491 C510 0.929 . S
H492 C522 0.931 . S
H493 C514 0.929 . S
H494 C523 0.930 . S
H495 C515 0.931 . S
O496 Co472 2.097 . S
O496 C524 1.214 . S
H497 C525 0.929 . S
H498 C526 0.929 . S
H499 C527 0.930 . S
H500 C528 0.929 . S
H501 C530 0.930 . S
H502 C507 0.930 . S
H503 C511 0.930 . S
O504 Co473 2.037 . S
O504 C524 1.234 . S
C505 O479 1.269 . S
C505 O480 1.257 . S
C506 H481 0.930 . S
C506 C509 1.388 . S
C506 C511 1.418 . S
C507 H502 0.930 . S
C507 C510 1.404 . S
C507 C511 1.353 . S
N508 Co473 2.145 . S
N508 C509 1.397 . S
N508 C510 1.334 . S
C509 H490 0.929 . S
C509 C506 1.388 . S
C509 N508 1.397 . S
C510 H491 0.929 . S
C510 C507 1.404 . S
C510 N508 1.334 . S
C511 H503 0.930 . S
C511 C506 1.418 . S
C511 C507 1.353 . S
C512 H482 0.930 . S
C512 N513 1.330 . S
C512 C514 1.446 . S
N513 Co472 2.151 . S
N513 C512 1.330 . S
N513 C517 1.418 . S
C514 H493 0.929 . S
C514 C512 1.446 . S
C514 C515 1.332 . S
C515 H495 0.931 . S
C515 C514 1.332 . S
C515 C516 1.267 . S
C516 H484 0.929 . S
C516 C515 1.267 . S
C516 C517 1.251 . S
C517 H487 0.929 . S
C517 N513 1.418 . S
C517 C516 1.251 . S
C518 H485 0.930 . S
C518 C520 1.406 . S
C518 C523 1.261 . S
C519 H486 0.930 . S
C519 N521 1.325 . S
C519 C522 1.357 . S
C520 H488 0.928 . S
C520 C518 1.406 . S
C520 N521 1.261 . S
N521 Co472 2.214 . S
N521 C519 1.325 . S
N521 C520 1.261 . S
C522 H492 0.931 . S
C522 C519 1.357 . S
C522 C523 1.312 . S
C523 H494 0.930 . S
C523 C518 1.261 . S
C523 C522 1.312 . S
C524 O496 1.214 . S
C524 O504 1.234 . S
C525 H497 0.929 . S
C525 C528 1.391 . S
C525 C530 1.391 . S
C526 H498 0.929 . S
C526 C527 1.390 . S
C526 N529 1.391 . S
C527 H499 0.930 . S
C527 C526 1.390 . S
C527 C528 1.392 . S
C528 H500 0.929 . S
C528 C525 1.391 . S
C528 C527 1.392 . S
N529 Co473 2.257 . S
N529 C526 1.391 . S
N529 C530 1.388 . S
C530 H501 0.930 . S
C530 C525 1.391 . S
C530 N529 1.388 . S
Co531 O533 2.143 . S
Co531 O539 2.074 . S
Co531 O542 2.093 . S
Co531 O555 2.097 . S
Co531 N572 2.151 . S
Co531 N580 2.214 . S
Co532 O533 2.160 . S
Co532 O538 2.058 . S
Co532 O548 2.057 . S
Co532 O563 2.037 . S
Co532 N567 2.145 . S
Co532 N588 2.257 . S
O533 Co531 2.143 . S
O533 Co532 2.160 . S
C534 O535 1.278 . S
C534 O542 1.224 . S
O535 C534 1.278 . S
C536 O537 1.245 . S
C536 O548 1.232 . S
O537 C536 1.245 . S
O538 Co532 2.058 . S
O538 C564 1.269 . S
O539 Co531 2.074 . S
O539 C564 1.257 . S
H540 C565 0.930 . S
H541 C571 0.930 . S
O542 Co531 2.093 . S
O542 C534 1.224 . S
H543 C575 0.929 . S
H544 C577 0.930 . S
H545 C578 0.930 . S
H546 C576 0.929 . S
H547 C579 0.928 . S
O548 Co532 2.057 . S
O548 C536 1.232 . S
H549 C568 0.929 . S
H550 C569 0.929 . S
H551 C581 0.931 . S
H552 C573 0.929 . S
H553 C582 0.930 . S
H554 C574 0.931 . S
O555 Co531 2.097 . S
O555 C583 1.214 . S
H556 C584 0.929 . S
H557 C585 0.929 . S
H558 C586 0.930 . S
H559 C587 0.929 . S
H560 C589 0.930 . S
H561 C566 0.930 . S
H562 C570 0.930 . S
O563 Co532 2.037 . S
O563 C583 1.234 . S
C564 O538 1.269 . S
C564 O539 1.257 . S
C565 H540 0.930 . S
C565 C568 1.388 . S
C565 C570 1.418 . S
C566 H561 0.930 . S
C566 C569 1.404 . S
C566 C570 1.353 . S
N567 Co532 2.145 . S
N567 C568 1.397 . S
N567 C569 1.334 . S
C568 H549 0.929 . S
C568 C565 1.388 . S
C568 N567 1.397 . S
C569 H550 0.929 . S
C569 C566 1.404 . S
C569 N567 1.334 . S
C570 H562 0.930 . S
C570 C565 1.418 . S
C570 C566 1.353 . S
C571 H541 0.930 . S
C571 N572 1.330 . S
C571 C573 1.446 . S
N572 Co531 2.151 . S
N572 C571 1.330 . S
N572 C576 1.418 . S
C573 H552 0.929 . S
C573 C571 1.446 . S
C573 C574 1.332 . S
C574 H554 0.931 . S
C574 C573 1.332 . S
C574 C575 1.267 . S
C575 H543 0.929 . S
C575 C574 1.267 . S
C575 C576 1.251 . S
C576 H546 0.929 . S
C576 N572 1.418 . S
C576 C575 1.251 . S
C577 H544 0.930 . S
C577 C579 1.406 . S
C577 C582 1.261 . S
C578 H545 0.930 . S
C578 N580 1.325 . S
C578 C581 1.357 . S
C579 H547 0.928 . S
C579 C577 1.406 . S
C579 N580 1.261 . S
N580 Co531 2.214 . S
N580 C578 1.325 . S
N580 C579 1.261 . S
C581 H551 0.931 . S
C581 C578 1.357 . S
C581 C582 1.312 . S
C582 H553 0.930 . S
C582 C577 1.261 . S
C582 C581 1.312 . S
C583 O555 1.214 . S
C583 O563 1.234 . S
C584 H556 0.929 . S
C584 C587 1.391 . S
C584 C589 1.391 . S
C585 H557 0.929 . S
C585 C586 1.390 . S
C585 N588 1.391 . S
C586 H558 0.930 . S
C586 C585 1.390 . S
C586 C587 1.392 . S
C587 H559 0.929 . S
C587 C584 1.391 . S
C587 C586 1.392 . S
N588 Co532 2.257 . S
N588 C585 1.391 . S
N588 C589 1.388 . S
C589 H560 0.930 . S
C589 C584 1.391 . S
C589 N588 1.388 . S
Co590 O592 2.143 . S
Co590 O598 2.074 . S
Co590 O601 2.093 . S
Co590 O614 2.097 . S
Co590 N631 2.151 . S
Co590 N639 2.214 . S
Co591 O592 2.160 . S
Co591 O597 2.058 . S
Co591 O607 2.057 . S
Co591 O622 2.037 . S
Co591 N626 2.145 1_565 S
Co591 N647 2.257 . S
O592 Co590 2.143 . S
O592 Co591 2.160 . S
C593 O594 1.278 . S
C593 O601 1.224 . S
O594 C593 1.278 . S
C595 O596 1.245 . S
C595 O607 1.232 . S
O596 C595 1.245 . S
O597 Co591 2.058 . S
O597 C623 1.269 . S
O598 Co590 2.074 . S
O598 C623 1.257 . S
H599 C624 0.930 . S
H600 C630 0.930 . S
O601 Co590 2.093 . S
O601 C593 1.224 . S
H602 C634 0.929 . S
H603 C636 0.930 . S
H604 C637 0.930 . S
H605 C635 0.929 . S
H606 C638 0.928 . S
O607 Co591 2.057 . S
O607 C595 1.232 . S
H608 C627 0.929 1_565 S
H609 C628 0.929 . S
H610 C640 0.931 . S
H611 C632 0.929 . S
H612 C641 0.930 . S
H613 C633 0.931 . S
O614 Co590 2.097 . S
O614 C642 1.214 . S
H615 C643 0.929 . S
H616 C644 0.929 . S
H617 C645 0.930 . S
H618 C646 0.929 . S
H619 C648 0.930 . S
H620 C625 0.930 . S
H621 C629 0.930 . S
O622 Co591 2.037 . S
O622 C642 1.234 . S
C623 O597 1.269 . S
C623 O598 1.257 . S
C624 H599 0.930 . S
C624 C627 1.388 . S
C624 C629 1.418 . S
C625 H620 0.930 . S
C625 C628 1.404 . S
C625 C629 1.353 . S
N626 Co591 2.145 1_545 S
N626 C627 1.397 . S
N626 C628 1.334 . S
C627 H608 0.929 1_545 S
C627 C624 1.388 . S
C627 N626 1.397 . S
C628 H609 0.929 . S
C628 C625 1.404 . S
C628 N626 1.334 . S
C629 H621 0.930 . S
C629 C624 1.418 . S
C629 C625 1.353 . S
C630 H600 0.930 . S
C630 N631 1.330 . S
C630 C632 1.446 . S
N631 Co590 2.151 . S
N631 C630 1.330 . S
N631 C635 1.418 . S
C632 H611 0.929 . S
C632 C630 1.446 . S
C632 C633 1.332 . S
C633 H613 0.931 . S
C633 C632 1.332 . S
C633 C634 1.267 . S
C634 H602 0.929 . S
C634 C633 1.267 . S
C634 C635 1.251 . S
C635 H605 0.929 . S
C635 N631 1.418 . S
C635 C634 1.251 . S
C636 H603 0.930 . S
C636 C638 1.406 . S
C636 C641 1.261 . S
C637 H604 0.930 . S
C637 N639 1.325 . S
C637 C640 1.357 . S
C638 H606 0.928 . S
C638 C636 1.406 . S
C638 N639 1.261 . S
N639 Co590 2.214 . S
N639 C637 1.325 . S
N639 C638 1.261 . S
C640 H610 0.931 . S
C640 C637 1.357 . S
C640 C641 1.312 . S
C641 H612 0.930 . S
C641 C636 1.261 . S
C641 C640 1.312 . S
C642 O614 1.214 . S
C642 O622 1.234 . S
C643 H615 0.929 . S
C643 C646 1.391 1_565 S
C643 C648 1.391 . S
C644 H616 0.929 . S
C644 C645 1.390 . S
C644 N647 1.391 1_545 S
C645 H617 0.930 . S
C645 C644 1.390 . S
C645 C646 1.392 . S
C646 H618 0.929 . S
C646 C643 1.391 1_545 S
C646 C645 1.392 . S
N647 Co591 2.257 . S
N647 C644 1.391 1_565 S
N647 C648 1.388 . S
C648 H619 0.930 . S
C648 C643 1.391 . S
C648 N647 1.388 . S
Co649 O651 2.143 . S
Co649 O657 2.074 . S
Co649 O660 2.093 . S
Co649 O673 2.097 . S
Co649 N690 2.151 . S
Co649 N698 2.214 . S
Co650 O651 2.160 . S
Co650 O656 2.058 . S
Co650 O666 2.057 . S
Co650 O681 2.037 . S
Co650 N685 2.145 1_455 S
Co650 N706 2.257 . S
O651 Co649 2.143 . S
O651 Co650 2.160 . S
C652 O653 1.278 . S
C652 O660 1.224 . S
O653 C652 1.278 . S
C654 O655 1.245 . S
C654 O666 1.232 . S
O655 C654 1.245 . S
O656 Co650 2.058 . S
O656 C682 1.269 . S
O657 Co649 2.074 . S
O657 C682 1.257 . S
H658 C683 0.930 . S
H659 C689 0.930 . S
O660 Co649 2.093 . S
O660 C652 1.224 . S
H661 C693 0.929 . S
H662 C695 0.930 . S
H663 C696 0.930 . S
H664 C694 0.929 . S
H665 C697 0.928 . S
O666 Co650 2.057 . S
O666 C654 1.232 . S
H667 C686 0.929 1_455 S
H668 C687 0.929 . S
H669 C699 0.931 . S
H670 C691 0.929 . S
H671 C700 0.930 . S
H672 C692 0.931 . S
O673 Co649 2.097 . S
O673 C701 1.214 . S
H674 C702 0.929 . S
H675 C703 0.929 . S
H676 C704 0.930 . S
H677 C705 0.929 . S
H678 C707 0.930 . S
H679 C684 0.930 . S
H680 C688 0.930 . S
O681 Co650 2.037 . S
O681 C701 1.234 . S
C682 O656 1.269 . S
C682 O657 1.257 . S
C683 H658 0.930 . S
C683 C686 1.388 . S
C683 C688 1.418 . S
C684 H679 0.930 . S
C684 C687 1.404 . S
C684 C688 1.353 . S
N685 Co650 2.145 1_655 S
N685 C686 1.397 . S
N685 C687 1.334 . S
C686 H667 0.929 1_655 S
C686 C683 1.388 . S
C686 N685 1.397 . S
C687 H668 0.929 . S
C687 C684 1.404 . S
C687 N685 1.334 . S
C688 H680 0.930 . S
C688 C683 1.418 . S
C688 C684 1.353 . S
C689 H659 0.930 . S
C689 N690 1.330 . S
C689 C691 1.446 . S
N690 Co649 2.151 . S
N690 C689 1.330 . S
N690 C694 1.418 . S
C691 H670 0.929 . S
C691 C689 1.446 . S
C691 C692 1.332 . S
C692 H672 0.931 . S
C692 C691 1.332 . S
C692 C693 1.267 . S
C693 H661 0.929 . S
C693 C692 1.267 . S
C693 C694 1.251 . S
C694 H664 0.929 . S
C694 N690 1.418 . S
C694 C693 1.251 . S
C695 H662 0.930 . S
C695 C697 1.406 . S
C695 C700 1.261 . S
C696 H663 0.930 . S
C696 N698 1.325 . S
C696 C699 1.357 . S
C697 H665 0.928 . S
C697 C695 1.406 . S
C697 N698 1.261 . S
N698 Co649 2.214 . S
N698 C696 1.325 . S
N698 C697 1.261 . S
C699 H669 0.931 . S
C699 C696 1.357 . S
C699 C700 1.312 . S
C700 H671 0.930 . S
C700 C695 1.261 . S
C700 C699 1.312 . S
C701 O673 1.214 . S
C701 O681 1.234 . S
C702 H674 0.929 . S
C702 C705 1.391 1_455 S
C702 C707 1.391 . S
C703 H675 0.929 . S
C703 C704 1.390 . S
C703 N706 1.391 1_655 S
C704 H676 0.930 . S
C704 C703 1.390 . S
C704 C705 1.392 . S
C705 H677 0.929 . S
C705 C702 1.391 1_655 S
C705 C704 1.392 . S
N706 Co650 2.257 . S
N706 C703 1.391 1_455 S
N706 C707 1.388 . S
C707 H678 0.930 . S
C707 C702 1.391 . S
C707 N706 1.388 . S
Co708 O710 2.143 . S
Co708 O716 2.074 . S
Co708 O719 2.093 . S
Co708 O732 2.097 . S
Co708 N749 2.151 . S
Co708 N757 2.214 . S
Co709 O710 2.160 . S
Co709 O715 2.058 . S
Co709 O725 2.057 . S
Co709 O740 2.037 . S
Co709 N744 2.145 1_565 S
Co709 N765 2.257 . S
O710 Co708 2.143 . S
O710 Co709 2.160 . S
C711 O712 1.278 . S
C711 O719 1.224 . S
O712 C711 1.278 . S
C713 O714 1.245 . S
C713 O725 1.232 . S
O714 C713 1.245 . S
O715 Co709 2.058 . S
O715 C741 1.269 . S
O716 Co708 2.074 . S
O716 C741 1.257 . S
H717 C742 0.930 . S
H718 C748 0.930 . S
O719 Co708 2.093 . S
O719 C711 1.224 . S
H720 C752 0.929 . S
H721 C754 0.930 . S
H722 C755 0.930 . S
H723 C753 0.929 . S
H724 C756 0.928 . S
O725 Co709 2.057 . S
O725 C713 1.232 . S
H726 C745 0.929 1_565 S
H727 C746 0.929 . S
H728 C758 0.931 . S
H729 C750 0.929 . S
H730 C759 0.930 . S
H731 C751 0.931 . S
O732 Co708 2.097 . S
O732 C760 1.214 . S
H733 C761 0.929 . S
H734 C762 0.929 . S
H735 C763 0.930 . S
H736 C764 0.929 . S
H737 C766 0.930 . S
H738 C743 0.930 . S
H739 C747 0.930 . S
O740 Co709 2.037 . S
O740 C760 1.234 . S
C741 O715 1.269 . S
C741 O716 1.257 . S
C742 H717 0.930 . S
C742 C745 1.388 . S
C742 C747 1.418 . S
C743 H738 0.930 . S
C743 C746 1.404 . S
C743 C747 1.353 . S
N744 Co709 2.145 1_545 S
N744 C745 1.397 . S
N744 C746 1.334 . S
C745 H726 0.929 1_545 S
C745 C742 1.388 . S
C745 N744 1.397 . S
C746 H727 0.929 . S
C746 C743 1.404 . S
C746 N744 1.334 . S
C747 H739 0.930 . S
C747 C742 1.418 . S
C747 C743 1.353 . S
C748 H718 0.930 . S
C748 N749 1.330 . S
C748 C750 1.446 . S
N749 Co708 2.151 . S
N749 C748 1.330 . S
N749 C753 1.418 . S
C750 H729 0.929 . S
C750 C748 1.446 . S
C750 C751 1.332 . S
C751 H731 0.931 . S
C751 C750 1.332 . S
C751 C752 1.267 . S
C752 H720 0.929 . S
C752 C751 1.267 . S
C752 C753 1.251 . S
C753 H723 0.929 . S
C753 N749 1.418 . S
C753 C752 1.251 . S
C754 H721 0.930 . S
C754 C756 1.406 . S
C754 C759 1.261 . S
C755 H722 0.930 . S
C755 N757 1.325 . S
C755 C758 1.357 . S
C756 H724 0.928 . S
C756 C754 1.406 . S
C756 N757 1.261 . S
N757 Co708 2.214 . S
N757 C755 1.325 . S
N757 C756 1.261 . S
C758 H728 0.931 . S
C758 C755 1.357 . S
C758 C759 1.312 . S
C759 H730 0.930 . S
C759 C754 1.261 . S
C759 C758 1.312 . S
C760 O732 1.214 . S
C760 O740 1.234 . S
C761 H733 0.929 . S
C761 C764 1.391 1_565 S
C761 C766 1.391 . S
C762 H734 0.929 . S
C762 C763 1.390 . S
C762 N765 1.391 1_545 S
C763 H735 0.930 . S
C763 C762 1.390 . S
C763 C764 1.392 . S
C764 H736 0.929 . S
C764 C761 1.391 1_545 S
C764 C763 1.392 . S
N765 Co709 2.257 . S
N765 C762 1.391 1_565 S
N765 C766 1.388 . S
C766 H737 0.930 . S
C766 C761 1.391 . S
C766 N765 1.388 . S
Co767 O769 2.143 . S
Co767 O775 2.074 . S
Co767 O778 2.093 . S
Co767 O791 2.097 . S
Co767 N808 2.151 . S
Co767 N816 2.214 . S
Co768 O769 2.160 . S
Co768 O774 2.058 . S
Co768 O784 2.057 . S
Co768 O799 2.037 . S
Co768 N803 2.145 1_455 S
Co768 N824 2.257 . S
O769 Co767 2.143 . S
O769 Co768 2.160 . S
C770 O771 1.278 . S
C770 O778 1.224 . S
O771 C770 1.278 . S
C772 O773 1.245 . S
C772 O784 1.232 . S
O773 C772 1.245 . S
O774 Co768 2.058 . S
O774 C800 1.269 . S
O775 Co767 2.074 . S
O775 C800 1.257 . S
H776 C801 0.930 . S
H777 C807 0.930 . S
O778 Co767 2.093 . S
O778 C770 1.224 . S
H779 C811 0.929 . S
H780 C813 0.930 . S
H781 C814 0.930 . S
H782 C812 0.929 . S
H783 C815 0.928 . S
O784 Co768 2.057 . S
O784 C772 1.232 . S
H785 C804 0.929 1_455 S
H786 C805 0.929 . S
H787 C817 0.931 . S
H788 C809 0.929 . S
H789 C818 0.930 . S
H790 C810 0.931 . S
O791 Co767 2.097 . S
O791 C819 1.214 . S
H792 C820 0.929 . S
H793 C821 0.929 . S
H794 C822 0.930 . S
H795 C823 0.929 . S
H796 C825 0.930 . S
H797 C802 0.930 . S
H798 C806 0.930 . S
O799 Co768 2.037 . S
O799 C819 1.234 . S
C800 O774 1.269 . S
C800 O775 1.257 . S
C801 H776 0.930 . S
C801 C804 1.388 . S
C801 C806 1.418 . S
C802 H797 0.930 . S
C802 C805 1.404 . S
C802 C806 1.353 . S
N803 Co768 2.145 1_655 S
N803 C804 1.397 . S
N803 C805 1.334 . S
C804 H785 0.929 1_655 S
C804 C801 1.388 . S
C804 N803 1.397 . S
C805 H786 0.929 . S
C805 C802 1.404 . S
C805 N803 1.334 . S
C806 H798 0.930 . S
C806 C801 1.418 . S
C806 C802 1.353 . S
C807 H777 0.930 . S
C807 N808 1.330 . S
C807 C809 1.446 . S
N808 Co767 2.151 . S
N808 C807 1.330 . S
N808 C812 1.418 . S
C809 H788 0.929 . S
C809 C807 1.446 . S
C809 C810 1.332 . S
C810 H790 0.931 . S
C810 C809 1.332 . S
C810 C811 1.267 . S
C811 H779 0.929 . S
C811 C810 1.267 . S
C811 C812 1.251 . S
C812 H782 0.929 . S
C812 N808 1.418 . S
C812 C811 1.251 . S
C813 H780 0.930 . S
C813 C815 1.406 . S
C813 C818 1.261 . S
C814 H781 0.930 . S
C814 N816 1.325 . S
C814 C817 1.357 . S
C815 H783 0.928 . S
C815 C813 1.406 . S
C815 N816 1.261 . S
N816 Co767 2.214 . S
N816 C814 1.325 . S
N816 C815 1.261 . S
C817 H787 0.931 . S
C817 C814 1.357 . S
C817 C818 1.312 . S
C818 H789 0.930 . S
C818 C813 1.261 . S
C818 C817 1.312 . S
C819 O791 1.214 . S
C819 O799 1.234 . S
C820 H792 0.929 . S
C820 C823 1.391 1_455 S
C820 C825 1.391 . S
C821 H793 0.929 . S
C821 C822 1.390 . S
C821 N824 1.391 1_655 S
C822 H794 0.930 . S
C822 C821 1.390 . S
C822 C823 1.392 . S
C823 H795 0.929 . S
C823 C820 1.391 1_655 S
C823 C822 1.392 . S
N824 Co768 2.257 . S
N824 C821 1.391 1_455 S
N824 C825 1.388 . S
C825 H796 0.930 . S
C825 C820 1.391 . S
C825 N824 1.388 . S
Co826 O828 2.143 . S
Co826 O834 2.074 . S
Co826 O837 2.093 . S
Co826 O850 2.097 . S
Co826 N867 2.151 . S
Co826 N875 2.214 . S
Co827 O828 2.160 . S
Co827 O833 2.058 . S
Co827 O843 2.057 . S
Co827 O858 2.037 . S
Co827 N862 2.145 . S
Co827 N883 2.257 . S
O828 Co826 2.143 . S
O828 Co827 2.160 . S
C829 O830 1.278 . S
C829 O837 1.224 . S
O830 C829 1.278 . S
C831 O832 1.245 . S
C831 O843 1.232 . S
O832 C831 1.245 . S
O833 Co827 2.058 . S
O833 C859 1.269 . S
O834 Co826 2.074 . S
O834 C859 1.257 . S
H835 C860 0.930 . S
H836 C866 0.930 . S
O837 Co826 2.093 . S
O837 C829 1.224 . S
H838 C870 0.929 . S
H839 C872 0.930 . S
H840 C873 0.930 . S
H841 C871 0.929 . S
H842 C874 0.928 . S
O843 Co827 2.057 . S
O843 C831 1.232 . S
H844 C863 0.929 . S
H845 C864 0.929 . S
H846 C876 0.931 . S
H847 C868 0.929 . S
H848 C877 0.930 . S
H849 C869 0.931 . S
O850 Co826 2.097 . S
O850 C878 1.214 . S
H851 C879 0.929 . S
H852 C880 0.929 . S
H853 C881 0.930 . S
H854 C882 0.929 . S
H855 C884 0.930 . S
H856 C861 0.930 . S
H857 C865 0.930 . S
O858 Co827 2.037 . S
O858 C878 1.234 . S
C859 O833 1.269 . S
C859 O834 1.257 . S
C860 H835 0.930 . S
C860 C863 1.388 . S
C860 C865 1.418 . S
C861 H856 0.930 . S
C861 C864 1.404 . S
C861 C865 1.353 . S
N862 Co827 2.145 . S
N862 C863 1.397 . S
N862 C864 1.334 . S
C863 H844 0.929 . S
C863 C860 1.388 . S
C863 N862 1.397 . S
C864 H845 0.929 . S
C864 C861 1.404 . S
C864 N862 1.334 . S
C865 H857 0.930 . S
C865 C860 1.418 . S
C865 C861 1.353 . S
C866 H836 0.930 . S
C866 N867 1.330 . S
C866 C868 1.446 . S
N867 Co826 2.151 . S
N867 C866 1.330 . S
N867 C871 1.418 . S
C868 H847 0.929 . S
C868 C866 1.446 . S
C868 C869 1.332 . S
C869 H849 0.931 . S
C869 C868 1.332 . S
C869 C870 1.267 . S
C870 H838 0.929 . S
C870 C869 1.267 . S
C870 C871 1.251 . S
C871 H841 0.929 . S
C871 N867 1.418 . S
C871 C870 1.251 . S
C872 H839 0.930 . S
C872 C874 1.406 . S
C872 C877 1.261 . S
C873 H840 0.930 . S
C873 N875 1.325 . S
C873 C876 1.357 . S
C874 H842 0.928 . S
C874 C872 1.406 . S
C874 N875 1.261 . S
N875 Co826 2.214 . S
N875 C873 1.325 . S
N875 C874 1.261 . S
C876 H846 0.931 . S
C876 C873 1.357 . S
C876 C877 1.312 . S
C877 H848 0.930 . S
C877 C872 1.261 . S
C877 C876 1.312 . S
C878 O850 1.214 . S
C878 O858 1.234 . S
C879 H851 0.929 . S
C879 C882 1.391 . S
C879 C884 1.391 . S
C880 H852 0.929 . S
C880 C881 1.390 . S
C880 N883 1.391 . S
C881 H853 0.930 . S
C881 C880 1.390 . S
C881 C882 1.392 . S
C882 H854 0.929 . S
C882 C879 1.391 . S
C882 C881 1.392 . S
N883 Co827 2.257 . S
N883 C880 1.391 . S
N883 C884 1.388 . S
C884 H855 0.930 . S
C884 C879 1.391 . S
C884 N883 1.388 . S
Co885 O887 2.143 . S
Co885 O893 2.074 . S
Co885 O896 2.093 . S
Co885 O909 2.097 . S
Co885 N926 2.151 . S
Co885 N934 2.214 . S
Co886 O887 2.160 . S
Co886 O892 2.058 . S
Co886 O902 2.057 . S
Co886 O917 2.037 . S
Co886 N921 2.145 . S
Co886 N942 2.257 . S
O887 Co885 2.143 . S
O887 Co886 2.160 . S
C888 O889 1.278 . S
C888 O896 1.224 . S
O889 C888 1.278 . S
C890 O891 1.245 . S
C890 O902 1.232 . S
O891 C890 1.245 . S
O892 Co886 2.058 . S
O892 C918 1.269 . S
O893 Co885 2.074 . S
O893 C918 1.257 . S
H894 C919 0.930 . S
H895 C925 0.930 . S
O896 Co885 2.093 . S
O896 C888 1.224 . S
H897 C929 0.929 . S
H898 C931 0.930 . S
H899 C932 0.930 . S
H900 C930 0.929 . S
H901 C933 0.928 . S
O902 Co886 2.057 . S
O902 C890 1.232 . S
H903 C922 0.929 . S
H904 C923 0.929 . S
H905 C935 0.931 . S
H906 C927 0.929 . S
H907 C936 0.930 . S
H908 C928 0.931 . S
O909 Co885 2.097 . S
O909 C937 1.214 . S
H910 C938 0.929 . S
H911 C939 0.929 . S
H912 C940 0.930 . S
H913 C941 0.929 . S
H914 C943 0.930 . S
H915 C920 0.930 . S
H916 C924 0.930 . S
O917 Co886 2.037 . S
O917 C937 1.234 . S
C918 O892 1.269 . S
C918 O893 1.257 . S
C919 H894 0.930 . S
C919 C922 1.388 . S
C919 C924 1.418 . S
C920 H915 0.930 . S
C920 C923 1.404 . S
C920 C924 1.353 . S
N921 Co886 2.145 . S
N921 C922 1.397 . S
N921 C923 1.334 . S
C922 H903 0.929 . S
C922 C919 1.388 . S
C922 N921 1.397 . S
C923 H904 0.929 . S
C923 C920 1.404 . S
C923 N921 1.334 . S
C924 H916 0.930 . S
C924 C919 1.418 . S
C924 C920 1.353 . S
C925 H895 0.930 . S
C925 N926 1.330 . S
C925 C927 1.446 . S
N926 Co885 2.151 . S
N926 C925 1.330 . S
N926 C930 1.418 . S
C927 H906 0.929 . S
C927 C925 1.446 . S
C927 C928 1.332 . S
C928 H908 0.931 . S
C928 C927 1.332 . S
C928 C929 1.267 . S
C929 H897 0.929 . S
C929 C928 1.267 . S
C929 C930 1.251 . S
C930 H900 0.929 . S
C930 N926 1.418 . S
C930 C929 1.251 . S
C931 H898 0.930 . S
C931 C933 1.406 . S
C931 C936 1.261 . S
C932 H899 0.930 . S
C932 N934 1.325 . S
C932 C935 1.357 . S
C933 H901 0.928 . S
C933 C931 1.406 . S
C933 N934 1.261 . S
N934 Co885 2.214 . S
N934 C932 1.325 . S
N934 C933 1.261 . S
C935 H905 0.931 . S
C935 C932 1.357 . S
C935 C936 1.312 . S
C936 H907 0.930 . S
C936 C931 1.261 . S
C936 C935 1.312 . S
C937 O909 1.214 . S
C937 O917 1.234 . S
C938 H910 0.929 . S
C938 C941 1.391 . S
C938 C943 1.391 . S
C939 H911 0.929 . S
C939 C940 1.390 . S
C939 N942 1.391 . S
C940 H912 0.930 . S
C940 C939 1.390 . S
C940 C941 1.392 . S
C941 H913 0.929 . S
C941 C938 1.391 . S
C941 C940 1.392 . S
N942 Co886 2.257 . S
N942 C939 1.391 . S
N942 C943 1.388 . S
C943 H914 0.930 . S
C943 C938 1.391 . S
C943 N942 1.388 . S
H944 C950 0.930 . S
H945 C954 0.930 . S
H946 C959 0.929 . S
H947 C957 0.929 . S
H948 C952 0.929 . S
H949 C958 0.929 . S
C950 H944 0.930 . S
C950 C951 1.367 . S
C950 C958 1.378 . S
C951 C950 1.367 . S
C951 C959 1.433 . S
C952 H948 0.929 . S
C952 C954 1.378 . S
C952 C956 1.350 . S
C953 C956 1.463 . S
C953 C958 1.350 . S
C953 N961 1.427 . S
C954 H945 0.930 . S
C954 C952 1.378 . S
C954 C955 1.367 . S
C955 C954 1.367 . S
C955 C957 1.433 . S
C956 C952 1.350 . S
C956 C953 1.463 . S
C956 N960 1.427 . S
C957 H947 0.929 . S
C957 C955 1.433 . S
C957 N960 1.384 . S
C958 H949 0.929 . S
C958 C950 1.378 . S
C958 C953 1.350 . S
C959 H946 0.929 . S
C959 C951 1.433 . S
C959 N961 1.384 . S
N960 C956 1.427 . S
N960 C957 1.384 . S
N961 C953 1.427 . S
N961 C959 1.384 . S
H962 C968 0.930 . S
H963 C972 0.930 . S
H964 C977 0.929 . S
H965 C975 0.929 . S
H966 C970 0.929 . S
H967 C976 0.929 . S
C968 H962 0.930 . S
C968 C969 1.367 . S
C968 C976 1.378 . S
C969 C968 1.367 . S
C969 C977 1.433 . S
C970 H966 0.929 . S
C970 C972 1.378 . S
C970 C974 1.350 . S
C971 C974 1.463 . S
C971 C976 1.350 . S
C971 N979 1.427 . S
C972 H963 0.930 . S
C972 C970 1.378 . S
C972 C973 1.367 . S
C973 C972 1.367 . S
C973 C975 1.433 . S
C974 C970 1.350 . S
C974 C971 1.463 . S
C974 N978 1.427 . S
C975 H965 0.929 . S
C975 C973 1.433 . S
C975 N978 1.384 . S
C976 H967 0.929 . S
C976 C968 1.378 . S
C976 C971 1.350 . S
C977 H964 0.929 . S
C977 C969 1.433 . S
C977 N979 1.384 . S
N978 C974 1.427 . S
N978 C975 1.384 . S
N979 C971 1.427 . S
N979 C977 1.384 . S
H980 C986 0.930 . S
H981 C990 0.930 . S
H982 C995 0.929 . S
H983 C993 0.929 . S
H984 C988 0.929 . S
H985 C994 0.929 . S
C986 H980 0.930 . S
C986 C987 1.367 . S
C986 C994 1.378 . S
C987 C986 1.367 . S
C987 C995 1.433 . S
C988 H984 0.929 . S
C988 C990 1.378 . S
C988 C992 1.350 . S
C989 C992 1.463 . S
C989 C994 1.350 . S
C989 N997 1.427 . S
C990 H981 0.930 . S
C990 C988 1.378 . S
C990 C991 1.367 . S
C991 C990 1.367 . S
C991 C993 1.433 . S
C992 C988 1.350 . S
C992 C989 1.463 . S
C992 N996 1.427 . S
C993 H983 0.929 . S
C993 C991 1.433 . S
C993 N996 1.384 . S
C994 H985 0.929 . S
C994 C986 1.378 . S
C994 C989 1.350 . S
C995 H982 0.929 . S
C995 C987 1.433 . S
C995 N997 1.384 . S
N996 C992 1.427 . S
N996 C993 1.384 . S
N997 C989 1.427 . S
N997 C995 1.384 . S
H998 C1004 0.930 . S
H999 C1008 0.930 . S
H1000 C1013 0.929 . S
H1001 C1011 0.929 . S
H1002 C1006 0.929 . S
H1003 C1012 0.929 . S
C1004 H998 0.930 . S
C1004 C1005 1.367 . S
C1004 C1012 1.378 . S
C1005 C1004 1.367 . S
C1005 C1013 1.433 . S
C1006 H1002 0.929 . S
C1006 C1008 1.378 . S
C1006 C1010 1.350 . S
C1007 C1010 1.463 . S
C1007 C1012 1.350 . S
C1007 N1015 1.427 . S
C1008 H999 0.930 . S
C1008 C1006 1.378 . S
C1008 C1009 1.367 . S
C1009 C1008 1.367 . S
C1009 C1011 1.433 . S
C1010 C1006 1.350 . S
C1010 C1007 1.463 . S
C1010 N1014 1.427 . S
C1011 H1001 0.929 . S
C1011 C1009 1.433 . S
C1011 N1014 1.384 . S
C1012 H1003 0.929 . S
C1012 C1004 1.378 . S
C1012 C1007 1.350 . S
C1013 H1000 0.929 . S
C1013 C1005 1.433 . S
C1013 N1015 1.384 . S
N1014 C1010 1.427 . S
N1014 C1011 1.384 . S
N1015 C1007 1.427 . S
N1015 C1013 1.384 . S
H1016 C1022 0.930 . S
H1017 C1026 0.930 . S
H1018 C1031 0.929 . S
H1019 C1029 0.929 . S
H1020 C1024 0.929 . S
H1021 C1030 0.929 . S
C1022 H1016 0.930 . S
C1022 C1023 1.367 . S
C1022 C1030 1.378 . S
C1023 C1022 1.367 . S
C1023 C1031 1.433 . S
C1024 H1020 0.929 . S
C1024 C1026 1.378 . S
C1024 C1028 1.350 . S
C1025 C1028 1.463 . S
C1025 C1030 1.350 . S
C1025 N1033 1.427 . S
C1026 H1017 0.930 . S
C1026 C1024 1.378 . S
C1026 C1027 1.367 . S
C1027 C1026 1.367 . S
C1027 C1029 1.433 . S
C1028 C1024 1.350 . S
C1028 C1025 1.463 . S
C1028 N1032 1.427 . S
C1029 H1019 0.929 . S
C1029 C1027 1.433 . S
C1029 N1032 1.384 . S
C1030 H1021 0.929 . S
C1030 C1022 1.378 . S
C1030 C1025 1.350 . S
C1031 H1018 0.929 . S
C1031 C1023 1.433 . S
C1031 N1033 1.384 . S
N1032 C1028 1.427 . S
N1032 C1029 1.384 . S
N1033 C1025 1.427 . S
N1033 C1031 1.384 . S
H1034 C1040 0.930 . S
H1035 C1044 0.930 . S
H1036 C1049 0.929 . S
H1037 C1047 0.929 . S
H1038 C1042 0.929 . S
H1039 C1048 0.929 . S
C1040 H1034 0.930 . S
C1040 C1041 1.367 . S
C1040 C1048 1.378 . S
C1041 C1040 1.367 . S
C1041 C1049 1.433 . S
C1042 H1038 0.929 . S
C1042 C1044 1.378 . S
C1042 C1046 1.350 . S
C1043 C1046 1.463 . S
C1043 C1048 1.350 . S
C1043 N1051 1.427 . S
C1044 H1035 0.930 . S
C1044 C1042 1.378 . S
C1044 C1045 1.367 . S
C1045 C1044 1.367 . S
C1045 C1047 1.433 . S
C1046 C1042 1.350 . S
C1046 C1043 1.463 . S
C1046 N1050 1.427 . S
C1047 H1037 0.929 . S
C1047 C1045 1.433 . S
C1047 N1050 1.384 . S
C1048 H1039 0.929 . S
C1048 C1040 1.378 . S
C1048 C1043 1.350 . S
C1049 H1036 0.929 . S
C1049 C1041 1.433 . S
C1049 N1051 1.384 . S
N1050 C1046 1.427 . S
N1050 C1047 1.384 . S
N1051 C1043 1.427 . S
N1051 C1049 1.384 . S
H1052 C1058 0.930 . S
H1053 C1062 0.930 . S
H1054 C1067 0.929 . S
H1055 C1065 0.929 . S
H1056 C1060 0.929 . S
H1057 C1066 0.929 . S
C1058 H1052 0.930 . S
C1058 C1059 1.367 . S
C1058 C1066 1.378 . S
C1059 C1058 1.367 . S
C1059 C1067 1.433 . S
C1060 H1056 0.929 . S
C1060 C1062 1.378 . S
C1060 C1064 1.350 . S
C1061 C1064 1.463 . S
C1061 C1066 1.350 . S
C1061 N1069 1.427 . S
C1062 H1053 0.930 . S
C1062 C1060 1.378 . S
C1062 C1063 1.367 . S
C1063 C1062 1.367 . S
C1063 C1065 1.433 . S
C1064 C1060 1.350 . S
C1064 C1061 1.463 . S
C1064 N1068 1.427 . S
C1065 H1055 0.929 . S
C1065 C1063 1.433 . S
C1065 N1068 1.384 . S
C1066 H1057 0.929 . S
C1066 C1058 1.378 . S
C1066 C1061 1.350 . S
C1067 H1054 0.929 . S
C1067 C1059 1.433 . S
C1067 N1069 1.384 . S
N1068 C1064 1.427 . S
N1068 C1065 1.384 . S
N1069 C1061 1.427 . S
N1069 C1067 1.384 . S
H1070 C1076 0.930 . S
H1071 C1080 0.930 . S
H1072 C1085 0.929 . S
H1073 C1083 0.929 . S
H1074 C1078 0.929 . S
H1075 C1084 0.929 . S
C1076 H1070 0.930 . S
C1076 C1077 1.367 . S
C1076 C1084 1.378 . S
C1077 C1076 1.367 . S
C1077 C1085 1.433 . S
C1078 H1074 0.929 . S
C1078 C1080 1.378 . S
C1078 C1082 1.350 . S
C1079 C1082 1.463 . S
C1079 C1084 1.350 . S
C1079 N1087 1.427 . S
C1080 H1071 0.930 . S
C1080 C1078 1.378 . S
C1080 C1081 1.367 . S
C1081 C1080 1.367 . S
C1081 C1083 1.433 . S
C1082 C1078 1.350 . S
C1082 C1079 1.463 . S
C1082 N1086 1.427 . S
C1083 H1073 0.929 . S
C1083 C1081 1.433 . S
C1083 N1086 1.384 . S
C1084 H1075 0.929 . S
C1084 C1076 1.378 . S
C1084 C1079 1.350 . S
C1085 H1072 0.929 . S
C1085 C1077 1.433 . S
C1085 N1087 1.384 . S
N1086 C1082 1.427 . S
N1086 C1083 1.384 . S
N1087 C1079 1.427 . S
N1087 C1085 1.384 . S
H1088 C1094 0.930 . S
H1089 C1098 0.930 . S
H1090 C1103 0.929 . S
H1091 C1101 0.929 . S
H1092 C1096 0.929 . S
H1093 C1102 0.929 . S
C1094 H1088 0.930 . S
C1094 C1095 1.367 . S
C1094 C1102 1.378 . S
C1095 C1094 1.367 . S
C1095 C1103 1.433 . S
C1096 H1092 0.929 . S
C1096 C1098 1.378 . S
C1096 C1100 1.350 . S
C1097 C1100 1.463 . S
C1097 C1102 1.350 . S
C1097 N1105 1.427 . S
C1098 H1089 0.930 . S
C1098 C1096 1.378 . S
C1098 C1099 1.367 . S
C1099 C1098 1.367 . S
C1099 C1101 1.433 . S
C1100 C1096 1.350 . S
C1100 C1097 1.463 . S
C1100 N1104 1.427 . S
C1101 H1091 0.929 . S
C1101 C1099 1.433 . S
C1101 N1104 1.384 . S
C1102 H1093 0.929 . S
C1102 C1094 1.378 . S
C1102 C1097 1.350 . S
C1103 H1090 0.929 . S
C1103 C1095 1.433 . S
C1103 N1105 1.384 . S
N1104 C1100 1.427 . S
N1104 C1101 1.384 . S
N1105 C1097 1.427 . S
N1105 C1103 1.384 . S
H1106 C1112 0.930 . S
H1107 C1116 0.930 . S
H1108 C1121 0.929 . S
H1109 C1119 0.929 . S
H1110 C1114 0.929 . S
H1111 C1120 0.929 . S
C1112 H1106 0.930 . S
C1112 C1113 1.367 . S
C1112 C1120 1.378 . S
C1113 C1112 1.367 . S
C1113 C1121 1.433 . S
C1114 H1110 0.929 . S
C1114 C1116 1.378 . S
C1114 C1118 1.350 . S
C1115 C1118 1.463 . S
C1115 C1120 1.350 . S
C1115 N1123 1.427 . S
C1116 H1107 0.930 . S
C1116 C1114 1.378 . S
C1116 C1117 1.367 . S
C1117 C1116 1.367 . S
C1117 C1119 1.433 . S
C1118 C1114 1.350 . S
C1118 C1115 1.463 . S
C1118 N1122 1.427 . S
C1119 H1109 0.929 . S
C1119 C1117 1.433 . S
C1119 N1122 1.384 . S
C1120 H1111 0.929 . S
C1120 C1112 1.378 . S
C1120 C1115 1.350 . S
C1121 H1108 0.929 . S
C1121 C1113 1.433 . S
C1121 N1123 1.384 . S
N1122 C1118 1.427 . S
N1122 C1119 1.384 . S
N1123 C1115 1.427 . S
N1123 C1121 1.384 . S
H1124 C1130 0.930 . S
H1125 C1134 0.930 . S
H1126 C1139 0.929 . S
H1127 C1137 0.929 . S
H1128 C1132 0.929 . S
H1129 C1138 0.929 . S
C1130 H1124 0.930 . S
C1130 C1131 1.367 . S
C1130 C1138 1.378 . S
C1131 C1130 1.367 . S
C1131 C1139 1.433 . S
C1132 H1128 0.929 . S
C1132 C1134 1.378 . S
C1132 C1136 1.350 . S
C1133 C1136 1.463 . S
C1133 C1138 1.350 . S
C1133 N1141 1.427 . S
C1134 H1125 0.930 . S
C1134 C1132 1.378 . S
C1134 C1135 1.367 . S
C1135 C1134 1.367 . S
C1135 C1137 1.433 . S
C1136 C1132 1.350 . S
C1136 C1133 1.463 . S
C1136 N1140 1.427 . S
C1137 H1127 0.929 . S
C1137 C1135 1.433 . S
C1137 N1140 1.384 . S
C1138 H1129 0.929 . S
C1138 C1130 1.378 . S
C1138 C1133 1.350 . S
C1139 H1126 0.929 . S
C1139 C1131 1.433 . S
C1139 N1141 1.384 . S
N1140 C1136 1.427 . S
N1140 C1137 1.384 . S
N1141 C1133 1.427 . S
N1141 C1139 1.384 . S
H1142 C1148 0.930 . S
H1143 C1152 0.930 . S
H1144 C1157 0.929 . S
H1145 C1155 0.929 . S
H1146 C1150 0.929 . S
H1147 C1156 0.929 . S
C1148 H1142 0.930 . S
C1148 C1149 1.367 . S
C1148 C1156 1.378 . S
C1149 C1148 1.367 . S
C1149 C1157 1.433 . S
C1150 H1146 0.929 . S
C1150 C1152 1.378 . S
C1150 C1154 1.350 . S
C1151 C1154 1.463 1_554 S
C1151 C1156 1.350 . S
C1151 N1159 1.427 . S
C1152 H1143 0.930 . S
C1152 C1150 1.378 . S
C1152 C1153 1.367 . S
C1153 C1152 1.367 . S
C1153 C1155 1.433 . S
C1154 C1150 1.350 . S
C1154 C1151 1.463 1_556 S
C1154 N1158 1.427 . S
C1155 H1145 0.929 . S
C1155 C1153 1.433 . S
C1155 N1158 1.384 . S
C1156 H1147 0.929 . S
C1156 C1148 1.378 . S
C1156 C1151 1.350 . S
C1157 H1144 0.929 . S
C1157 C1149 1.433 . S
C1157 N1159 1.384 . S
N1158 C1154 1.427 . S
N1158 C1155 1.384 . S
N1159 C1151 1.427 . S
N1159 C1157 1.384 . S
H1160 C1166 0.930 . S
H1161 C1170 0.930 . S
H1162 C1175 0.929 . S
H1163 C1173 0.929 . S
H1164 C1168 0.929 . S
H1165 C1174 0.929 . S
C1166 H1160 0.930 . S
C1166 C1167 1.367 . S
C1166 C1174 1.378 . S
C1167 C1166 1.367 . S
C1167 C1175 1.433 . S
C1168 H1164 0.929 . S
C1168 C1170 1.378 . S
C1168 C1172 1.350 . S
C1169 C1172 1.463 1_554 S
C1169 C1174 1.350 . S
C1169 N1177 1.427 . S
C1170 H1161 0.930 . S
C1170 C1168 1.378 . S
C1170 C1171 1.367 . S
C1171 C1170 1.367 . S
C1171 C1173 1.433 . S
C1172 C1168 1.350 . S
C1172 C1169 1.463 1_556 S
C1172 N1176 1.427 . S
C1173 H1163 0.929 . S
C1173 C1171 1.433 . S
C1173 N1176 1.384 . S
C1174 H1165 0.929 . S
C1174 C1166 1.378 . S
C1174 C1169 1.350 . S
C1175 H1162 0.929 . S
C1175 C1167 1.433 . S
C1175 N1177 1.384 . S
N1176 C1172 1.427 . S
N1176 C1173 1.384 . S
N1177 C1169 1.427 . S
N1177 C1175 1.384 . S
H1178 C1184 0.930 . S
H1179 C1188 0.930 . S
H1180 C1193 0.929 . S
H1181 C1191 0.929 . S
H1182 C1186 0.929 . S
H1183 C1192 0.929 . S
C1184 H1178 0.930 . S
C1184 C1185 1.367 . S
C1184 C1192 1.378 . S
C1185 C1184 1.367 . S
C1185 C1193 1.433 . S
C1186 H1182 0.929 . S
C1186 C1188 1.378 . S
C1186 C1190 1.350 . S
C1187 C1190 1.463 . S
C1187 C1192 1.350 . S
C1187 N1195 1.427 . S
C1188 H1179 0.930 . S
C1188 C1186 1.378 . S
C1188 C1189 1.367 . S
C1189 C1188 1.367 . S
C1189 C1191 1.433 . S
C1190 C1186 1.350 . S
C1190 C1187 1.463 . S
C1190 N1194 1.427 . S
C1191 H1181 0.929 . S
C1191 C1189 1.433 . S
C1191 N1194 1.384 . S
C1192 H1183 0.929 . S
C1192 C1184 1.378 . S
C1192 C1187 1.350 . S
C1193 H1180 0.929 . S
C1193 C1185 1.433 . S
C1193 N1195 1.384 . S
N1194 C1190 1.427 . S
N1194 C1191 1.384 . S
N1195 C1187 1.427 . S
N1195 C1193 1.384 . S
H1196 C1202 0.930 . S
H1197 C1206 0.930 . S
H1198 C1211 0.929 . S
H1199 C1209 0.929 . S
H1200 C1204 0.929 . S
H1201 C1210 0.929 . S
C1202 H1196 0.930 . S
C1202 C1203 1.367 . S
C1202 C1210 1.378 . S
C1203 C1202 1.367 . S
C1203 C1211 1.433 . S
C1204 H1200 0.929 . S
C1204 C1206 1.378 . S
C1204 C1208 1.350 . S
C1205 C1208 1.463 . S
C1205 C1210 1.350 . S
C1205 N1213 1.427 . S
C1206 H1197 0.930 . S
C1206 C1204 1.378 . S
C1206 C1207 1.367 . S
C1207 C1206 1.367 . S
C1207 C1209 1.433 . S
C1208 C1204 1.350 . S
C1208 C1205 1.463 . S
C1208 N1212 1.427 . S
C1209 H1199 0.929 . S
C1209 C1207 1.433 . S
C1209 N1212 1.384 . S
C1210 H1201 0.929 . S
C1210 C1202 1.378 . S
C1210 C1205 1.350 . S
C1211 H1198 0.929 . S
C1211 C1203 1.433 . S
C1211 N1213 1.384 . S
N1212 C1208 1.427 . S
N1212 C1209 1.384 . S
N1213 C1205 1.427 . S
N1213 C1211 1.384 . S
H1214 C1220 0.930 . S
H1215 C1224 0.930 . S
H1216 C1229 0.929 . S
H1217 C1227 0.929 . S
H1218 C1222 0.929 . S
H1219 C1228 0.929 . S
C1220 H1214 0.930 . S
C1220 C1221 1.367 . S
C1220 C1228 1.378 . S
C1221 C1220 1.367 . S
C1221 C1229 1.433 . S
C1222 H1218 0.929 . S
C1222 C1224 1.378 . S
C1222 C1226 1.350 . S
C1223 C1226 1.463 . S
C1223 C1228 1.350 . S
C1223 N1231 1.427 . S
C1224 H1215 0.930 . S
C1224 C1222 1.378 . S
C1224 C1225 1.367 . S
C1225 C1224 1.367 . S
C1225 C1227 1.433 . S
C1226 C1222 1.350 . S
C1226 C1223 1.463 . S
C1226 N1230 1.427 . S
C1227 H1217 0.929 . S
C1227 C1225 1.433 . S
C1227 N1230 1.384 . S
C1228 H1219 0.929 . S
C1228 C1220 1.378 . S
C1228 C1223 1.350 . S
C1229 H1216 0.929 . S
C1229 C1221 1.433 . S
C1229 N1231 1.384 . S
N1230 C1226 1.427 . S
N1230 C1227 1.384 . S
N1231 C1223 1.427 . S
N1231 C1229 1.384 . S
H1232 C1238 0.930 . S
H1233 C1242 0.930 . S
H1234 C1247 0.929 . S
H1235 C1245 0.929 . S
H1236 C1240 0.929 . S
H1237 C1246 0.929 . S
C1238 H1232 0.930 . S
C1238 C1239 1.367 . S
C1238 C1246 1.378 . S
C1239 C1238 1.367 . S
C1239 C1247 1.433 . S
C1240 H1236 0.929 . S
C1240 C1242 1.378 . S
C1240 C1244 1.350 . S
C1241 C1244 1.463 1_445 S
C1241 C1246 1.350 . S
C1241 N1249 1.427 . S
C1242 H1233 0.930 . S
C1242 C1240 1.378 . S
C1242 C1243 1.367 . S
C1243 C1242 1.367 . S
C1243 C1245 1.433 . S
C1244 C1240 1.350 . S
C1244 C1241 1.463 1_665 S
C1244 N1248 1.427 . S
C1245 H1235 0.929 . S
C1245 C1243 1.433 . S
C1245 N1248 1.384 . S
C1246 H1237 0.929 . S
C1246 C1238 1.378 . S
C1246 C1241 1.350 . S
C1247 H1234 0.929 . S
C1247 C1239 1.433 . S
C1247 N1249 1.384 . S
N1248 C1244 1.427 . S
N1248 C1245 1.384 . S
N1249 C1241 1.427 . S
N1249 C1247 1.384 . S
H1250 C1256 0.930 . S
H1251 C1260 0.930 . S
H1252 C1265 0.929 1_655 S
H1253 C1263 0.929 1_455 S
H1254 C1258 0.929 . S
H1255 C1264 0.929 . S
C1256 H1250 0.930 . S
C1256 C1257 1.367 . S
C1256 C1264 1.378 . S
C1257 C1256 1.367 . S
C1257 C1265 1.433 . S
C1258 H1254 0.929 . S
C1258 C1260 1.378 . S
C1258 C1262 1.350 . S
C1259 C1262 1.463 1_455 S
C1259 C1264 1.350 . S
C1259 N1267 1.427 1_455 S
C1260 H1251 0.930 . S
C1260 C1258 1.378 . S
C1260 C1261 1.367 . S
C1261 C1260 1.367 . S
C1261 C1263 1.433 . S
C1262 C1258 1.350 . S
C1262 C1259 1.463 1_655 S
C1262 N1266 1.427 1_655 S
C1263 H1253 0.929 1_655 S
C1263 C1261 1.433 . S
C1263 N1266 1.384 1_655 S
C1264 H1255 0.929 . S
C1264 C1256 1.378 . S
C1264 C1259 1.350 . S
C1265 H1252 0.929 1_455 S
C1265 C1257 1.433 . S
C1265 N1267 1.384 1_455 S
N1266 C1262 1.427 1_455 S
N1266 C1263 1.384 1_455 S
N1267 C1259 1.427 1_655 S
N1267 C1265 1.384 1_655 S
H1268 C1274 0.930 . S
H1269 C1278 0.930 . S
H1270 C1283 0.929 . S
H1271 C1281 0.929 . S
H1272 C1276 0.929 . S
H1273 C1282 0.929 . S
C1274 H1268 0.930 . S
C1274 C1275 1.367 . S
C1274 C1282 1.378 . S
C1275 C1274 1.367 . S
C1275 C1283 1.433 . S
C1276 H1272 0.929 . S
C1276 C1278 1.378 . S
C1276 C1280 1.350 . S
C1277 C1280 1.463 . S
C1277 C1282 1.350 . S
C1277 N1285 1.427 . S
C1278 H1269 0.930 . S
C1278 C1276 1.378 . S
C1278 C1279 1.367 . S
C1279 C1278 1.367 . S
C1279 C1281 1.433 . S
C1280 C1276 1.350 . S
C1280 C1277 1.463 . S
C1280 N1284 1.427 . S
C1281 H1271 0.929 . S
C1281 C1279 1.433 . S
C1281 N1284 1.384 . S
C1282 H1273 0.929 . S
C1282 C1274 1.378 . S
C1282 C1277 1.350 . S
C1283 H1270 0.929 . S
C1283 C1275 1.433 . S
C1283 N1285 1.384 . S
N1284 C1280 1.427 . S
N1284 C1281 1.384 . S
N1285 C1277 1.427 . S
N1285 C1283 1.384 . S
H1286 C1292 0.930 . S
H1287 C1296 0.930 . S
H1288 C1301 0.929 . S
H1289 C1299 0.929 . S
H1290 C1294 0.929 . S
H1291 C1300 0.929 . S
C1292 H1286 0.930 . S
C1292 C1293 1.367 . S
C1292 C1300 1.378 . S
C1293 C1292 1.367 . S
C1293 C1301 1.433 . S
C1294 H1290 0.929 . S
C1294 C1296 1.378 . S
C1294 C1298 1.350 . S
C1295 C1298 1.463 1_545 S
C1295 C1300 1.350 . S
C1295 N1303 1.427 . S
C1296 H1287 0.930 . S
C1296 C1294 1.378 . S
C1296 C1297 1.367 . S
C1297 C1296 1.367 . S
C1297 C1299 1.433 . S
C1298 C1294 1.350 . S
C1298 C1295 1.463 1_565 S
C1298 N1302 1.427 . S
C1299 H1289 0.929 . S
C1299 C1297 1.433 . S
C1299 N1302 1.384 . S
C1300 H1291 0.929 . S
C1300 C1292 1.378 . S
C1300 C1295 1.350 . S
C1301 H1288 0.929 . S
C1301 C1293 1.433 . S
C1301 N1303 1.384 . S
N1302 C1298 1.427 . S
N1302 C1299 1.384 . S
N1303 C1295 1.427 . S
N1303 C1301 1.384 . S
H1304 C1310 0.930 . S
H1305 C1314 0.930 . S
H1306 C1319 0.929 . S
H1307 C1317 0.929 . S
H1308 C1312 0.929 . S
H1309 C1318 0.929 . S
C1310 H1304 0.930 . S
C1310 C1311 1.367 . S
C1310 C1318 1.378 . S
C1311 C1310 1.367 . S
C1311 C1319 1.433 . S
C1312 H1308 0.929 . S
C1312 C1314 1.378 . S
C1312 C1316 1.350 . S
C1313 C1316 1.463 1_455 S
C1313 C1318 1.350 . S
C1313 N1321 1.427 . S
C1314 H1305 0.930 . S
C1314 C1312 1.378 . S
C1314 C1315 1.367 . S
C1315 C1314 1.367 . S
C1315 C1317 1.433 . S
C1316 C1312 1.350 . S
C1316 C1313 1.463 1_655 S
C1316 N1320 1.427 . S
C1317 H1307 0.929 . S
C1317 C1315 1.433 . S
C1317 N1320 1.384 . S
C1318 H1309 0.929 . S
C1318 C1310 1.378 . S
C1318 C1313 1.350 . S
C1319 H1306 0.929 . S
C1319 C1311 1.433 . S
C1319 N1321 1.384 . S
N1320 C1316 1.427 . S
N1320 C1317 1.384 . S
N1321 C1313 1.427 . S
N1321 C1319 1.384 . S
H1322 C1328 0.930 . S
H1323 C1332 0.930 . S
H1324 C1337 0.929 . S
H1325 C1335 0.929 . S
H1326 C1330 0.929 . S
H1327 C1336 0.929 . S
C1328 H1322 0.930 . S
C1328 C1329 1.367 . S
C1328 C1336 1.378 . S
C1329 C1328 1.367 . S
C1329 C1337 1.433 . S
C1330 H1326 0.929 . S
C1330 C1332 1.378 . S
C1330 C1334 1.350 . S
C1331 C1334 1.463 . S
C1331 C1336 1.350 . S
C1331 N1339 1.427 . S
C1332 H1323 0.930 . S
C1332 C1330 1.378 . S
C1332 C1333 1.367 . S
C1333 C1332 1.367 . S
C1333 C1335 1.433 . S
C1334 C1330 1.350 . S
C1334 C1331 1.463 . S
C1334 N1338 1.427 . S
C1335 H1325 0.929 . S
C1335 C1333 1.433 . S
C1335 N1338 1.384 . S
C1336 H1327 0.929 . S
C1336 C1328 1.378 . S
C1336 C1331 1.350 . S
C1337 H1324 0.929 . S
C1337 C1329 1.433 . S
C1337 N1339 1.384 . S
N1338 C1334 1.427 . S
N1338 C1335 1.384 . S
N1339 C1331 1.427 . S
N1339 C1337 1.384 . S
H1340 C1346 0.930 . S
H1341 C1350 0.930 . S
H1342 C1355 0.931 . S
H1343 C1353 0.931 . S
H1344 C1348 0.929 . S
H1345 C1354 0.929 . S
C1346 H1340 0.930 . S
C1346 C1347 1.367 . S
C1346 C1354 1.378 . S
C1347 C1346 1.367 . S
C1347 C1355 1.433 . S
C1348 H1344 0.929 . S
C1348 C1350 1.378 . S
C1348 C1352 1.350 . S
C1349 C1352 1.463 1_565 S
C1349 C1354 1.350 . S
C1349 N1357 1.427 1_565 S
C1350 H1341 0.930 . S
C1350 C1348 1.378 . S
C1350 C1351 1.367 . S
C1351 C1350 1.367 . S
C1351 C1353 1.433 . S
C1352 C1348 1.350 . S
C1352 C1349 1.463 1_545 S
C1352 N1356 1.427 1_545 S
C1353 H1343 0.931 . S
C1353 C1351 1.433 . S
C1353 N1356 1.384 1_545 S
C1354 H1345 0.929 . S
C1354 C1346 1.378 . S
C1354 C1349 1.350 . S
C1355 H1342 0.931 . S
C1355 C1347 1.433 . S
C1355 N1357 1.384 1_565 S
N1356 C1352 1.427 1_565 S
N1356 C1353 1.384 1_565 S
N1357 C1349 1.427 1_545 S
N1357 C1355 1.384 1_545 S
H1358 C1364 0.930 . S
H1359 C1368 0.930 . S
H1360 C1373 0.929 . S
H1361 C1371 0.929 . S
H1362 C1366 0.929 . S
H1363 C1372 0.929 . S
C1364 H1358 0.930 . S
C1364 C1365 1.367 . S
C1364 C1372 1.378 . S
C1365 C1364 1.367 . S
C1365 C1373 1.433 . S
C1366 H1362 0.929 . S
C1366 C1368 1.378 . S
C1366 C1370 1.350 . S
C1367 C1370 1.463 1_445 S
C1367 C1372 1.350 . S
C1367 N1375 1.427 . S
C1368 H1359 0.930 . S
C1368 C1366 1.378 . S
C1368 C1369 1.367 . S
C1369 C1368 1.367 . S
C1369 C1371 1.433 . S
C1370 C1366 1.350 . S
C1370 C1367 1.463 1_665 S
C1370 N1374 1.427 . S
C1371 H1361 0.929 . S
C1371 C1369 1.433 . S
C1371 N1374 1.384 . S
C1372 H1363 0.929 . S
C1372 C1364 1.378 . S
C1372 C1367 1.350 . S
C1373 H1360 0.929 . S
C1373 C1365 1.433 . S
C1373 N1375 1.384 . S
N1374 C1370 1.427 . S
N1374 C1371 1.384 . S
N1375 C1367 1.427 . S
N1375 C1373 1.384 . S
H1376 C1382 0.930 . S
H1377 C1386 0.930 . S
H1378 C1391 0.929 . S
H1379 C1389 0.929 . S
H1380 C1384 0.929 . S
H1381 C1390 0.929 . S
C1382 H1376 0.930 . S
C1382 C1383 1.367 . S
C1382 C1390 1.378 . S
C1383 C1382 1.367 . S
C1383 C1391 1.433 . S
C1384 H1380 0.929 . S
C1384 C1386 1.378 . S
C1384 C1388 1.350 . S
C1385 C1388 1.463 1_565 S
C1385 C1390 1.350 . S
C1385 N1393 1.427 . S
C1386 H1377 0.930 . S
C1386 C1384 1.378 . S
C1386 C1387 1.367 . S
C1387 C1386 1.367 . S
C1387 C1389 1.433 . S
C1388 C1384 1.350 . S
C1388 C1385 1.463 1_545 S
C1388 N1392 1.427 . S
C1389 H1379 0.929 . S
C1389 C1387 1.433 . S
C1389 N1392 1.384 . S
C1390 H1381 0.929 . S
C1390 C1382 1.378 . S
C1390 C1385 1.350 . S
C1391 H1378 0.929 . S
C1391 C1383 1.433 . S
C1391 N1393 1.384 . S
N1392 C1388 1.427 . S
N1392 C1389 1.384 . S
N1393 C1385 1.427 . S
N1393 C1391 1.384 . S
H1394 C1400 0.930 . S
H1395 C1404 0.930 . S
H1396 C1409 0.929 . S
H1397 C1407 0.929 . S
H1398 C1402 0.929 . S
H1399 C1408 0.929 . S
C1400 H1394 0.930 . S
C1400 C1401 1.367 . S
C1400 C1408 1.378 1_655 S
C1401 C1400 1.367 . S
C1401 C1409 1.433 . S
C1402 H1398 0.929 . S
C1402 C1404 1.378 1_655 S
C1402 C1406 1.350 1_655 S
C1403 C1406 1.463 1_665 S
C1403 C1408 1.350 1_655 S
C1403 N1411 1.427 . S
C1404 H1395 0.930 . S
C1404 C1402 1.378 1_455 S
C1404 C1405 1.367 . S
C1405 C1404 1.367 . S
C1405 C1407 1.433 . S
C1406 C1402 1.350 1_455 S
C1406 C1403 1.463 1_445 S
C1406 N1410 1.427 . S
C1407 H1397 0.929 . S
C1407 C1405 1.433 . S
C1407 N1410 1.384 . S
C1408 H1399 0.929 . S
C1408 C1400 1.378 1_455 S
C1408 C1403 1.350 1_455 S
C1409 H1396 0.929 . S
C1409 C1401 1.433 . S
C1409 N1411 1.384 . S
N1410 C1406 1.427 . S
N1410 C1407 1.384 . S
N1411 C1403 1.427 . S
N1411 C1409 1.384 . S
H1412 C1418 0.930 . S
H1413 C1422 0.930 . S
H1414 C1427 0.929 . S
H1415 C1425 0.929 . S
H1416 C1420 0.929 . S
H1417 C1426 0.929 . S
C1418 H1412 0.930 . S
C1418 C1419 1.367 . S
C1418 C1426 1.378 . S
C1419 C1418 1.367 . S
C1419 C1427 1.433 . S
C1420 H1416 0.929 . S
C1420 C1422 1.378 . S
C1420 C1424 1.350 . S
C1421 C1424 1.463 1_455 S
C1421 C1426 1.350 . S
C1421 N1429 1.427 . S
C1422 H1413 0.930 . S
C1422 C1420 1.378 . S
C1422 C1423 1.367 . S
C1423 C1422 1.367 . S
C1423 C1425 1.433 . S
C1424 C1420 1.350 . S
C1424 C1421 1.463 1_655 S
C1424 N1428 1.427 . S
C1425 H1415 0.929 . S
C1425 C1423 1.433 . S
C1425 N1428 1.384 . S
C1426 H1417 0.929 . S
C1426 C1418 1.378 . S
C1426 C1421 1.350 . S
C1427 H1414 0.929 . S
C1427 C1419 1.433 . S
C1427 N1429 1.384 . S
N1428 C1424 1.427 . S
N1428 C1425 1.384 . S
N1429 C1421 1.427 . S
N1429 C1427 1.384 . S
H1430 C1436 0.930 . S
H1431 C1440 0.930 . S
H1432 C1445 0.929 . S
H1433 C1443 0.929 . S
H1434 C1438 0.929 . S
H1435 C1444 0.929 . S
C1436 H1430 0.930 . S
C1436 C1437 1.367 . S
C1436 C1444 1.378 . S
C1437 C1436 1.367 . S
C1437 C1445 1.433 . S
C1438 H1434 0.929 . S
C1438 C1440 1.378 . S
C1438 C1442 1.350 . S
C1439 C1442 1.463 . S
C1439 C1444 1.350 . S
C1439 N1447 1.427 . S
C1440 H1431 0.930 . S
C1440 C1438 1.378 . S
C1440 C1441 1.367 . S
C1441 C1440 1.367 . S
C1441 C1443 1.433 . S
C1442 C1438 1.350 . S
C1442 C1439 1.463 . S
C1442 N1446 1.427 . S
C1443 H1433 0.929 . S
C1443 C1441 1.433 . S
C1443 N1446 1.384 . S
C1444 H1435 0.929 . S
C1444 C1436 1.378 . S
C1444 C1439 1.350 . S
C1445 H1432 0.929 . S
C1445 C1437 1.433 . S
C1445 N1447 1.384 . S
N1446 C1442 1.427 . S
N1446 C1443 1.384 . S
N1447 C1439 1.427 . S
N1447 C1445 1.384 . S
H1448 C1454 0.930 . S
H1449 C1458 0.930 . S
H1450 C1463 0.929 . S
H1451 C1461 0.929 . S
H1452 C1456 0.929 . S
H1453 C1462 0.929 . S
C1454 H1448 0.930 . S
C1454 C1455 1.367 . S
C1454 C1462 1.378 . S
C1455 C1454 1.367 . S
C1455 C1463 1.433 . S
C1456 H1452 0.929 . S
C1456 C1458 1.378 . S
C1456 C1460 1.350 . S
C1457 C1460 1.463 . S
C1457 C1462 1.350 . S
C1457 N1465 1.427 . S
C1458 H1449 0.930 . S
C1458 C1456 1.378 . S
C1458 C1459 1.367 . S
C1459 C1458 1.367 . S
C1459 C1461 1.433 . S
C1460 C1456 1.350 . S
C1460 C1457 1.463 . S
C1460 N1464 1.427 . S
C1461 H1451 0.929 . S
C1461 C1459 1.433 . S
C1461 N1464 1.384 . S
C1462 H1453 0.929 . S
C1462 C1454 1.378 . S
C1462 C1457 1.350 . S
C1463 H1450 0.929 . S
C1463 C1455 1.433 . S
C1463 N1465 1.384 . S
N1464 C1460 1.427 . S
N1464 C1461 1.384 . S
N1465 C1457 1.427 . S
N1465 C1463 1.384 . S
H1466 C1472 0.930 . S
H1467 C1476 0.930 . S
H1468 C1481 0.929 . S
H1469 C1479 0.929 . S
H1470 C1474 0.929 . S
H1471 C1480 0.929 . S
C1472 H1466 0.930 . S
C1472 C1473 1.367 . S
C1472 C1480 1.378 . S
C1473 C1472 1.367 . S
C1473 C1481 1.433 . S
C1474 H1470 0.929 . S
C1474 C1476 1.378 . S
C1474 C1478 1.350 . S
C1475 C1478 1.463 1_545 S
C1475 C1480 1.350 . S
C1475 N1483 1.427 . S
C1476 H1467 0.930 . S
C1476 C1474 1.378 . S
C1476 C1477 1.367 . S
C1477 C1476 1.367 . S
C1477 C1479 1.433 . S
C1478 C1474 1.350 . S
C1478 C1475 1.463 1_565 S
C1478 N1482 1.427 . S
C1479 H1469 0.929 . S
C1479 C1477 1.433 . S
C1479 N1482 1.384 . S
C1480 H1471 0.929 . S
C1480 C1472 1.378 . S
C1480 C1475 1.350 . S
C1481 H1468 0.929 . S
C1481 C1473 1.433 . S
C1481 N1483 1.384 . S
N1482 C1478 1.427 . S
N1482 C1479 1.384 . S
N1483 C1475 1.427 . S
N1483 C1481 1.384 . S
H1484 C1490 0.930 . S
H1485 C1494 0.930 . S
H1486 C1499 0.929 . S
H1487 C1497 0.929 . S
H1488 C1492 0.929 . S
H1489 C1498 0.929 . S
C1490 H1484 0.930 . S
C1490 C1491 1.367 . S
C1490 C1498 1.378 . S
C1491 C1490 1.367 . S
C1491 C1499 1.433 . S
C1492 H1488 0.929 . S
C1492 C1494 1.378 . S
C1492 C1496 1.350 . S
C1493 C1496 1.463 1_665 S
C1493 C1498 1.350 . S
C1493 N1501 1.427 1_565 S
C1494 H1485 0.930 . S
C1494 C1492 1.378 . S
C1494 C1495 1.367 . S
C1495 C1494 1.367 . S
C1495 C1497 1.433 . S
C1496 C1492 1.350 . S
C1496 C1493 1.463 1_445 S
C1496 N1500 1.427 1_545 S
C1497 H1487 0.929 . S
C1497 C1495 1.433 . S
C1497 N1500 1.384 1_545 S
C1498 H1489 0.929 . S
C1498 C1490 1.378 . S
C1498 C1493 1.350 . S
C1499 H1486 0.929 . S
C1499 C1491 1.433 . S
C1499 N1501 1.384 1_565 S
N1500 C1496 1.427 1_565 S
N1500 C1497 1.384 1_565 S
N1501 C1493 1.427 1_545 S
N1501 C1499 1.384 1_545 S
H1502 C1508 0.930 . S
H1503 C1512 0.930 . S
H1504 C1517 0.929 . S
H1505 C1515 0.929 . S
H1506 C1510 0.929 1_655 S
H1507 C1516 0.929 1_455 S
C1508 H1502 0.930 . S
C1508 C1509 1.367 . S
C1508 C1516 1.378 . S
C1509 C1508 1.367 . S
C1509 C1517 1.433 . S
C1510 H1506 0.929 1_455 S
C1510 C1512 1.378 . S
C1510 C1514 1.350 . S
C1511 C1514 1.463 1_655 S
C1511 C1516 1.350 . S
C1511 N1519 1.427 . S
C1512 H1503 0.930 . S
C1512 C1510 1.378 . S
C1512 C1513 1.367 . S
C1513 C1512 1.367 . S
C1513 C1515 1.433 . S
C1514 C1510 1.350 . S
C1514 C1511 1.463 1_455 S
C1514 N1518 1.427 . S
C1515 H1505 0.929 . S
C1515 C1513 1.433 . S
C1515 N1518 1.384 . S
C1516 H1507 0.929 1_655 S
C1516 C1508 1.378 . S
C1516 C1511 1.350 . S
C1517 H1504 0.929 . S
C1517 C1509 1.433 . S
C1517 N1519 1.384 . S
N1518 C1514 1.427 . S
N1518 C1515 1.384 . S
N1519 C1511 1.427 . S
N1519 C1517 1.384 . S
C951 C239 1.542 . S
C955 C3 1.544 . S
C969 C62 1.540 . S
C973 C298 1.546 . S
C987 C357 1.544 . S
C991 C121 1.541 . S
C1005 C416 1.541 . S
C1009 C180 1.545 . S
C1023 C711 1.546 . S
C1027 C475 1.540 . S
C1041 C534 1.545 . S
C1045 C770 1.541 . S
C1059 C829 1.545 . S
C1063 C593 1.540 . S
C1077 C652 1.546 . S
C1081 C888 1.540 . S
C1095 C33 1.568 . S
C1099 C918 1.568 . S
C1113 C92 1.567 . S
C1117 C741 1.568 . S
C1131 C151 1.568 . S
C1135 C800 1.568 . S
C1149 C859 1.565 . S
C1153 C210 1.567 . S
C1167 C269 1.568 . S
C1171 C564 1.566 . S
C1185 C328 1.566 . S
C1189 C623 1.568 . S
C1203 C682 1.567 . S
C1207 C387 1.569 . S
C1221 C505 1.565 . S
C1225 C446 1.568 . S
C1239 C5 1.645 . S
C1243 C595 1.645 . S
C1257 C654 1.646 . S
C1261 C64 1.646 . S
C1275 C123 1.646 . S
C1279 C477 1.646 . S
C1293 C536 1.645 . S
C1297 C182 1.645 . S
C1311 C241 1.645 . S
C1315 C831 1.645 . S
C1329 C300 1.644 . S
C1333 C890 1.644 . S
C1347 C713 1.645 . S
C1351 C359 1.645 . S
C1365 C772 1.645 . S
C1369 C418 1.645 . S
C1383 C642 1.462 . S
C1387 C52 1.461 . S
C1401 C111 1.460 . S
C1405 C701 1.459 . S
C1419 C170 1.462 . S
C1423 C524 1.461 . S
C1437 C583 1.463 . S
C1441 C229 1.463 . S
C1455 C878 1.460 . S
C1459 C288 1.462 . S
C1473 C937 1.462 . S
C1477 C347 1.461 . S
C1491 C760 1.462 . S
C1495 C406 1.463 . S
C1509 C465 1.460 . S
C1513 C819 1.459 . S
