# Generated by pormake.
# Topology sxc, (6)-cn, num edge types: 1
# Building blocks:
#     Node 0, Type 0, BuildingBlock: FUNLAD_clean_sbu_0, # of connection points: 6
#     Node 1, Type 0, BuildingBlock: FUNLAD_clean_sbu_0, # of connection points: 6
#     Node 2, Type 0, BuildingBlock: FUNLAD_clean_sbu_0, # of connection points: 6
#     Edge 3, Type (0, 0), BuildingBlock: MIFKUJ_clean_linker_0, # of connection points: 2
#     Edge 4, Type (0, 0), BuildingBlock: MIFKUJ_clean_linker_0, # of connection points: 2
#     Edge 5, Type (0, 0), BuildingBlock: MIFKUJ_clean_linker_0, # of connection points: 2
#     Edge 6, Type (0, 0), BuildingBlock: MIFKUJ_clean_linker_0, # of connection points: 2
#     Edge 7, Type (0, 0), BuildingBlock: MIFKUJ_clean_linker_0, # of connection points: 2
#     Edge 8, Type (0, 0), BuildingBlock: MIFKUJ_clean_linker_0, # of connection points: 2
#     Edge 9, Type (0, 0), BuildingBlock: MIFKUJ_clean_linker_0, # of connection points: 2
#     Edge 10, Type (0, 0), BuildingBlock: MIFKUJ_clean_linker_0, # of connection points: 2
#     Edge 11, Type (0, 0), BuildingBlock: MIFKUJ_clean_linker_0, # of connection points: 2
# Relax obj value: 0.140
# Max RMSD: 0.177
# Mean RMSD: 0.176
data_MOF--net-sxc--node1-FUNLAD_clean_sbu_0--edge1-MIFKUJ_clean_linker_0
_symmetry_space_group_name_H-M    P1
_symmetry_Int_Tables_number       1
_symmetry_cell_setting            triclinic
loop_
_symmetry_equiv_pos_as_xyz
'x, y, z'
_cell_length_a     19.190268
_cell_length_b     18.908509
_cell_length_c     78.669855
_cell_angle_alpha  88.788499
_cell_angle_beta   93.045075
_cell_angle_gamma 120.13741
loop_
_atom_site_label
_atom_site_type_symbol
_atom_site_fract_x
_atom_site_fract_y
_atom_site_fract_z
_atom_type_partial_charge
C0 C 0.84824 0.89116 0.02745 0.0
N1 N -0.0077 0.00975 0.0708 0.0
C2 C 0.92309 -0.00342 0.07761 0.0
C3 C 0.91605 -0.00816 0.09524 0.0
C4 C -0.0186 0.0022 0.10604 0.0
C5 C 0.05265 0.01747 0.0986 0.0
C6 C 0.05648 0.02008 0.08093 0.0
Zn7 Zn 0.00041 0.01125 0.04494 0.0
C8 C 0.05483 0.9002 0.03388 0.0
N9 N 0.01803 0.01235 0.99094 0.0
C10 C 0.95338 0.00155 0.9809 0.0
C11 C 0.08605 0.02247 0.98405 0.0
C12 C 0.09075 0.02204 0.96638 0.0
C13 C 0.02424 0.00943 0.95582 0.0
C14 C 0.95493 -0.00095 0.96324 0.0
Zn15 Zn 0.0105 0.01184 0.01679 0.0
O16 O 0.88041 0.91841 0.04212 0.0
C17 C 0.95612 0.12294 0.02786 0.0
O18 O 0.89012 0.91838 0.01445 0.0
H19 H 0.13661 0.03054 0.99224 0.0
H20 H 0.87274 -0.0113 0.06937 0.0
H21 H 0.90025 -0.00538 0.98659 0.0
O22 O 0.96315 0.09674 0.04247 0.0
O23 O -0.02644 0.09812 0.01475 0.0
H24 H 0.11085 0.02999 0.07531 0.0
O25 O 0.13053 0.10453 0.01959 0.0
O26 O 0.12077 0.10488 0.04727 0.0
O27 O 0.04757 0.92626 0.01928 0.0
O28 O 0.03754 0.9251 0.04699 0.0
C29 C 0.16265 0.132 0.03426 0.0
H30 H 0.85938 0.97869 0.10027 0.0
H31 H 0.10539 0.02769 0.10629 0.0
H32 H 0.1451 0.02998 0.96104 0.0
H33 H 0.90286 -0.00991 0.95542 0.0
C34 C 0.13109 0.0284 0.36354 0.0
N35 N 0.96236 0.98056 0.32374 0.0
C36 C 0.0275 0.03375 0.31495 0.0
C37 C 0.02541 0.02899 0.29727 0.0
C38 C 0.95516 0.96986 0.2885 0.0
C39 C 0.8884 0.91615 0.29779 0.0
C40 C 0.89357 0.92213 0.31555 0.0
Zn41 Zn 0.97067 -0.00847 0.34968 0.0
C42 C 0.92611 0.83714 0.36708 0.0
N43 N -0.00291 0.01982 0.40381 0.0
C44 C 0.06464 0.08106 0.41178 0.0
C45 C 0.93392 0.9646 0.4128 0.0
C46 C 0.93712 0.96955 0.4305 0.0
C47 C 0.0064 0.03142 0.43914 0.0
C48 C 0.07069 0.0879 0.42952 0.0
Zn49 Zn -0.01172 0.00837 0.3779 0.0
O50 O 0.08726 0.01374 0.35 0.0
C51 C 0.03225 0.16256 0.36042 0.0
O52 O 0.10459 0.03164 0.37773 0.0
H53 H 0.88072 0.91639 0.40624 0.0
H54 H 0.08128 0.08039 0.32165 0.0
H55 H 0.11416 0.12438 0.40438 0.0
O56 O 0.01132 0.11648 0.34741 0.0
O57 O 0.02874 0.13285 0.37518 0.0
H58 H 0.84259 0.88024 0.32277 0.0
O59 O 0.87085 0.98402 0.3777 0.0
O60 O 0.85415 0.9675 0.3499 0.0
O61 O 0.94806 0.88311 0.38013 0.0
O62 O 0.92934 0.86711 0.35235 0.0
C63 C 0.82647 0.96711 0.36417 0.0
H64 H 0.07773 0.0721 0.29048 0.0
H65 H 0.8333 0.86957 0.2914 0.0
H66 H 0.88542 0.92556 0.43731 0.0
H67 H 0.12564 0.13607 0.43563 0.0
C68 C 0.88764 0.05888 0.69634 0.0
N69 N 0.00692 0.01572 0.7376 0.0
C70 C 0.0094 0.07846 0.7463 0.0
C71 C 0.01135 0.07819 0.76406 0.0
C72 C 0.01004 0.0124 0.77295 0.0
C73 C 0.00671 0.94812 0.76366 0.0
C74 C 0.00554 0.95119 0.74591 0.0
Zn75 Zn 0.007 0.01907 0.71164 0.0
C76 C 0.89368 0.85761 0.69614 0.0
N77 N 0.00619 0.02382 0.65734 0.0
C78 C 0.003 0.08618 0.64909 0.0
C79 C 0.01103 0.96518 0.64862 0.0
C80 C 0.01317 0.96811 0.6309 0.0
C81 C 0.01005 0.03186 0.62203 0.0
C82 C 0.00471 0.09131 0.63138 0.0
Zn83 Zn 0.00528 0.01967 0.68329 0.0
O84 O 0.91632 0.0497 0.71059 0.0
C85 C 0.1186 0.18109 0.69872 0.0
O86 O 0.91372 0.04876 0.68265 0.0
H87 H 0.01369 0.91623 0.65543 0.0
H88 H 0.01009 0.12899 0.73945 0.0
H89 H -0.00083 0.13218 0.65625 0.0
O90 O 0.09391 0.14262 0.71252 0.0
O91 O 0.09136 0.14364 0.68459 0.0
H92 H 0.00405 0.90218 0.73876 0.0
O93 O 0.09668 -0.00998 0.6844 0.0
O94 O 0.09767 -0.01122 0.71232 0.0
O95 O 0.91922 0.89587 0.68235 0.0
O96 O 0.92005 0.89526 0.71028 0.0
C97 C 0.12442 0.97956 0.69864 0.0
H98 H 0.01303 0.12851 0.77077 0.0
H99 H 0.00644 0.89669 0.77005 0.0
H100 H 0.01834 0.92152 0.62424 0.0
H101 H 0.00095 0.14085 0.62508 0.0
H102 H 0.96855 0.21529 0.99993 0.0
H103 H -0.0222 0.34871 1.00019 0.0
H104 H 0.91348 0.31435 0.05268 0.0
H105 H 0.90384 0.18083 0.05259 0.0
H106 H 0.86051 0.40843 0.03349 0.0
H107 H 0.09839 0.38419 0.04527 0.0
H108 H 0.19462 0.3404 0.03815 0.0
H109 H 0.26072 0.49546 0.99427 0.0
H110 H 0.16278 0.53812 1.00079 0.0
H111 H 0.04207 0.80751 0.06176 0.0
H112 H 0.03276 0.67406 0.06143 0.0
H113 H 0.09786 0.70925 1.00899 0.0
H114 H 0.10757 0.8428 1.00916 0.0
H115 H 0.15035 0.61477 0.02808 0.0
H116 H 0.9128 0.6392 0.01626 0.0
H117 H 0.81652 0.68304 0.0233 0.0
H118 H 0.74972 0.52775 0.06715 0.0
H119 H 0.84768 0.48502 0.0607 0.0
C120 C 0.95367 0.23488 1.01135 0.0
C121 C 0.93828 0.18947 0.02643 0.0
C122 C 0.95885 0.31085 1.01144 0.0
C123 C 0.9485 0.34129 0.02659 0.0
C124 C 0.92247 0.2915 0.04096 0.0
C125 C 0.91758 0.2157 0.04091 0.0
C126 C -0.02169 0.4287 0.02844 0.0
C127 C 0.9238 0.45368 0.03241 0.0
C128 C 0.06112 0.48681 0.02694 0.0
C129 C 0.12187 0.46299 0.02332 0.0
C130 C 0.13262 0.40816 0.03398 0.0
C131 C 0.18744 0.38346 0.03004 0.0
C132 C 0.23298 0.41433 0.01565 0.0
C133 C 0.22471 0.4709 1.00531 0.0
C134 C 0.1694 0.4952 1.0091 0.0
C135 C 0.05712 0.78809 0.05034 0.0
C136 C 0.07273 0.83373 0.03529 0.0
C137 C 0.05189 0.71211 0.05021 0.0
C138 C 0.06242 0.68189 0.03505 0.0
C139 C 0.08871 0.73192 0.02072 0.0
C140 C 0.09365 0.80773 0.02081 0.0
C141 C 0.03256 0.5945 0.03314 0.0
C142 C 0.08706 0.56953 0.02915 0.0
C143 C 0.94973 0.5364 0.03462 0.0
C144 C 0.88896 0.56026 0.03819 0.0
C145 C 0.8784 0.61518 0.02753 0.0
C146 C 0.82355 0.63991 0.03142 0.0
C147 C 0.7778 0.60899 0.04579 0.0
C148 C 0.78589 0.55234 0.05614 0.0
C149 C 0.84121 0.528 0.05239 0.0
H150 H 0.73565 0.6285 0.04883 0.0
H151 H 0.27513 0.39486 0.01257 0.0
H152 H 0.18124 0.97756 0.33738 0.0
H153 H 0.29062 0.94705 0.33879 0.0
H154 H 0.3597 0.04664 0.38973 0.0
H155 H 0.24763 0.07392 0.38887 0.0
H156 H 0.47845 0.10287 0.3591 0.0
H157 H 0.28708 0.88112 0.39319 0.0
H158 H 0.15968 0.7585 0.40031 0.0
H159 H 0.1811 0.62726 0.35895 0.0
H160 H 0.30671 0.75015 0.35108 0.0
H161 H 0.76518 0.00656 0.39007 0.0
H162 H 0.63527 0.00056 0.38954 0.0
H163 H 0.57296 0.88387 0.34013 0.0
H164 H 0.70431 0.89171 0.34025 0.0
H165 H 0.44554 0.8276 0.36896 0.0
H166 H 0.62954 0.04696 0.33361 0.0
H167 H 0.75681 0.16789 0.32573 0.0
H168 H 0.7467 0.30157 0.36806 0.0
H169 H 0.62083 0.18026 0.37658 0.0
C170 C 0.21982 -0.0068 0.34888 0.0
C171 C 0.20577 0.02684 0.36314 0.0
C172 C 0.28122 0.97488 0.34969 0.0
C173 C 0.32998 -0.00773 0.36457 0.0
C174 C 0.32011 0.03108 0.37839 0.0
C175 C 0.25728 0.04746 0.37778 0.0
C176 C 0.39644 0.97684 0.36499 0.0
C177 C 0.47181 0.04303 0.36145 0.0
C178 C 0.38508 0.89763 0.36743 0.0
C179 C 0.30591 0.82566 0.37135 0.0
C180 C 0.26361 0.82699 0.38529 0.0
C181 C 0.19184 0.75712 0.38954 0.0
C182 C 0.16237 0.68504 0.38012 0.0
C183 C 0.20389 0.68306 0.36625 0.0
C184 C 0.27514 0.75298 0.36183 0.0
C185 C 0.72336 0.9785 0.37921 0.0
C186 C 0.74471 0.9514 0.365 0.0
C187 C 0.64954 0.97483 0.37899 0.0
C188 C 0.59658 0.94273 0.36472 0.0
C189 C 0.61441 0.90901 0.35115 0.0
C190 C 0.68908 0.91414 0.3512 0.0
C191 C 0.52736 0.95385 0.36327 0.0
C192 C 0.45174 0.88717 0.36653 0.0
C193 C 0.53791 0.03241 0.36037 0.0
C194 C 0.61636 0.10389 0.35591 0.0
C195 C 0.65538 0.1014 0.34149 0.0
C196 C 0.72707 0.17022 0.33684 0.0
C197 C 0.75969 0.24241 0.34636 0.0
C198 C 0.72122 0.24562 0.36067 0.0
C199 C 0.64998 0.1767 0.36547 0.0
H200 H 0.81492 0.29582 0.34269 0.0
H201 H 0.10738 0.63078 0.38356 0.0
H202 H 0.80772 0.76674 0.66822 0.0
H203 H 0.67527 0.64323 0.66828 0.0
H204 H 0.695 0.63542 0.7231 0.0
H205 H 0.82765 0.75823 0.72321 0.0
H206 H 0.60772 0.48102 0.70777 0.0
H207 H 0.62546 0.74611 0.70585 0.0
H208 H 0.66915 0.88195 0.6934 0.0
H209 H 0.53219 0.76927 0.64704 0.0
H210 H 0.48951 0.6327 0.65904 0.0
H211 H 0.20529 0.27192 0.72659 0.0
H212 H 0.33801 0.39501 0.72641 0.0
H213 H 0.3171 0.40265 0.6716 0.0
H214 H 0.18416 0.28029 0.6716 0.0
H215 H 0.40499 0.55681 0.68684 0.0
H216 H 0.38689 0.29172 0.68875 0.0
H217 H 0.34274 0.1558 0.70121 0.0
H218 H 0.47999 0.2683 0.74756 0.0
H219 H 0.52319 0.40495 0.73553 0.0
C220 C 0.78501 0.73727 0.68025 0.0
C221 C 0.82644 0.77323 0.69576 0.0
C222 C 0.70956 0.66687 0.68024 0.0
C223 C 0.67531 0.6324 0.69572 0.0
C224 C 0.7207 0.66222 0.71107 0.0
C225 C 0.7961 0.73255 0.7111 0.0
C226 C 0.58867 0.57458 0.69621 0.0
C227 C 0.56327 0.49749 0.7033 0.0
C228 C 0.53144 0.59695 0.69028 0.0
C229 C 0.55542 0.67916 0.68324 0.0
C230 C 0.60535 0.75028 0.69294 0.0
C231 C 0.63005 0.82742 0.68595 0.0
C232 C 0.60406 0.8342 0.66938 0.0
C233 C 0.55278 0.76389 0.65982 0.0
C234 C 0.52843 0.68661 0.6667 0.0
C235 C 0.22782 0.30127 0.71454 0.0
C236 C 0.18595 0.26538 0.69906 0.0
C237 C 0.30342 0.37142 0.71448 0.0
C238 C 0.3374 0.40567 0.69897 0.0
C239 C 0.29162 0.37598 0.68366 0.0
C240 C 0.21604 0.30592 0.68369 0.0
C241 C 0.42404 0.46328 0.6984 0.0
C242 C 0.44944 0.54033 0.6913 0.0
C243 C 0.48125 0.44085 0.70431 0.0
C244 C 0.45718 0.3586 0.71134 0.0
C245 C 0.407 0.2875 0.70166 0.0
C246 C 0.38203 0.21032 0.70866 0.0
C247 C 0.40794 0.20347 0.72523 0.0
C248 C 0.45946 0.27374 0.73477 0.0
C249 C 0.48412 0.35106 0.72788 0.0
H250 H 0.3886 0.14374 0.73064 0.0
H251 H 0.62314 0.8939 0.66397 0.0
H252 H 0.79606 0.05485 0.66836 0.0
H253 H 0.667 0.05085 0.66817 0.0
H254 H 0.69562 0.09113 0.72248 0.0
H255 H 0.82485 0.09496 0.72288 0.0
H256 H 0.55029 0.92346 0.68836 0.0
H257 H 0.57336 0.18896 0.72939 0.0
H258 H 0.6635 0.33659 0.73447 0.0
H259 H 0.76959 0.35896 0.68653 0.0
H260 H 0.67863 0.21196 0.68092 0.0
H261 H 0.21501 0.98211 0.72667 0.0
H262 H 0.3433 0.98447 0.72693 0.0
H263 H 0.31524 0.94499 0.6726 0.0
H264 H 0.18681 0.94288 0.67212 0.0
H265 H 0.46019 0.11186 0.70677 0.0
H266 H 0.4374 0.84633 0.66575 0.0
H267 H 0.3471 0.69877 0.66063 0.0
H268 H 0.24015 0.67644 0.70846 0.0
H269 H 0.33127 0.82336 0.71413 0.0
C270 C 0.77606 0.06513 0.6802 0.0
C271 C 0.81943 0.07349 0.6957 0.0
C272 C 0.7026 0.06305 0.68004 0.0
C273 C 0.67241 0.07035 0.69531 0.0
C274 C 0.71874 0.08593 0.71058 0.0
C275 C 0.79203 0.08742 0.71079 0.0
C276 C 0.58733 0.04674 0.69578 0.0
C277 C 0.53013 0.96485 0.69205 0.0
C278 C 0.56256 0.10064 0.70137 0.0
C279 C 0.61999 0.18875 0.70488 0.0
C280 C 0.61605 0.22523 0.71994 0.0
C281 C 0.66713 0.30895 0.72289 0.0
C282 C 0.7226 0.35704 0.71088 0.0
C283 C 0.72697 0.32151 0.69588 0.0
C284 C 0.67574 0.23786 0.69282 0.0
C285 C 0.23494 0.97164 0.71484 0.0
C286 C 0.19206 0.96409 0.69931 0.0
C287 C 0.30793 0.9727 0.71504 0.0
C288 C 0.33809 0.96518 0.69979 0.0
C289 C 0.29211 0.9503 0.68449 0.0
C290 C 0.21933 0.94986 0.68423 0.0
C291 C 0.42313 -0.01142 0.69935 0.0
C292 C 0.48032 0.07045 0.70309 0.0
C293 C 0.44787 0.93466 0.69376 0.0
C294 C 0.39038 0.84657 0.69022 0.0
C295 C 0.3945 0.81009 0.67518 0.0
C296 C 0.34333 0.72641 0.6722 0.0
C297 C 0.28756 0.67835 0.68416 0.0
C298 C 0.28299 0.71387 0.69914 0.0
C299 C 0.33432 0.79748 0.70223 0.0
H300 H 0.24811 0.61353 0.68185 0.0
H301 H 0.76197 0.42189 0.71317 0.0
H302 H 0.77146 0.79614 0.99947 0.0
H303 H 0.64255 0.6681 0.99874 0.0
H304 H 0.60718 0.70932 0.05051 0.0
H305 H 0.73606 0.83684 0.05145 0.0
H306 H 0.64363 0.55791 0.02221 0.0
H307 H 0.39312 0.59079 0.05557 0.0
H308 H 0.32799 0.67478 0.0535 0.0
H309 H 0.41529 0.75198 1.00348 0.0
H310 H 0.47942 0.6671 1.00505 0.0
H311 H 0.23915 0.22772 0.06217 0.0
H312 H 0.36768 0.35616 0.06282 0.0
H313 H 0.40336 0.31425 1.01112 0.0
H314 H 0.27487 0.18632 1.01027 0.0
H315 H 0.36665 0.46609 0.03934 0.0
H316 H 0.61717 0.43311 1.00599 0.0
H317 H 0.68266 0.34947 1.00812 0.0
H318 H 0.59562 0.27272 0.05817 0.0
H319 H 0.53113 0.35726 0.05654 0.0
C320 C 0.73504 0.77914 1.01051 0.0
C321 C 0.76438 0.82477 0.02569 0.0
C322 C 0.66133 0.70652 1.01001 0.0
C323 C 0.61608 0.67986 0.02457 0.0
C324 C 0.64123 0.7297 0.03911 0.0
C325 C 0.71528 0.8018 0.0397 0.0
C326 C 0.55527 0.59346 0.0262 0.0
C327 C 0.58233 0.53711 0.02562 0.0
C328 C 0.47676 0.56822 0.03119 0.0
C329 C 0.44241 0.62342 0.03056 0.0
C330 C 0.39878 0.6259 0.04414 0.0
C331 C 0.36174 0.67348 0.04304 0.0
C332 C 0.36781 0.71899 0.02841 0.0
C333 C 0.41107 0.7171 0.01486 0.0
C334 C 0.44804 0.66944 0.01588 0.0
C335 C 0.27557 0.24466 0.05113 0.0
C336 C 0.24642 0.19866 0.036 0.0
C337 C 0.34905 0.31754 0.05159 0.0
C338 C 0.39427 0.3441 0.03702 0.0
C339 C 0.36933 0.29397 0.02253 0.0
C340 C 0.29551 0.22161 0.02198 0.0
C341 C 0.455 0.43051 0.03534 0.0
C342 C 0.42793 0.48687 0.03592 0.0
C343 C 0.53351 0.45577 0.03035 0.0
C344 C 0.56797 0.40067 0.03101 0.0
C345 C 0.61162 0.39816 0.01744 0.0
C346 C 0.64888 0.35078 0.01858 0.0
C347 C 0.64298 0.3055 0.03324 0.0
C348 C 0.5997 0.30741 0.04677 0.0
C349 C 0.56251 0.35487 0.04572 0.0
H350 H 0.67219 0.26916 0.03413 0.0
H351 H 0.33878 0.75549 0.02754 0.0
H352 H 0.10802 0.28731 0.38346 0.0
H353 H 0.0949 0.40939 0.38386 0.0
H354 H 0.97135 0.34462 0.33428 0.0
H355 H -0.01276 0.22498 0.33347 0.0
H356 H 0.05189 0.50567 0.3388 0.0
H357 H 0.87977 0.26679 0.37081 0.0
H358 H 0.84426 0.16128 0.39271 0.0
H359 H 0.93735 0.34563 0.43183 0.0
H360 H -0.02595 0.45279 0.41008 0.0
H361 H 0.84344 0.71295 0.34421 0.0
H362 H 0.84854 0.58645 0.34345 0.0
H363 H -0.02132 0.64718 0.39234 0.0
H364 H 0.97124 0.77181 0.39348 0.0
H365 H 0.88851 0.48372 0.38762 0.0
H366 H 0.07196 0.72258 0.35594 0.0
H367 H 0.10789 0.82914 0.33424 0.0
H368 H -0.00379 0.64571 0.29505 0.0
H369 H 0.95859 0.53738 0.3166 0.0
C370 C 0.0808 0.30095 0.3724 0.0
C371 C 0.04672 0.24601 0.35863 0.0
C372 C 0.07322 0.37037 0.37266 0.0
C373 C 0.02952 0.38373 0.35938 0.0
C374 C 0.00436 0.33447 0.34474 0.0
C375 C 0.01339 0.26606 0.34431 0.0
C376 C -0.00063 0.44039 0.36169 0.0
C377 C 0.01561 0.50054 0.34939 0.0
C378 C 0.95219 0.43312 0.37561 0.0
C379 C 0.92975 0.36819 0.38872 0.0
C380 C 0.89258 0.28514 0.38405 0.0
C381 C 0.87234 0.22487 0.39646 0.0
C382 C 0.88848 0.24666 0.41367 0.0
C383 C 0.92482 0.32881 0.41849 0.0
C384 C 0.94527 0.38936 0.40611 0.0
C385 C 0.87052 0.69767 0.35506 0.0
C386 C 0.90872 0.75265 0.36871 0.0
C387 C 0.87333 0.62561 0.35461 0.0
C388 C 0.91617 0.60935 0.36759 0.0
C389 C 0.94593 0.65932 0.38215 0.0
C390 C 0.94185 0.7306 0.38275 0.0
C391 C 0.94206 0.54953 0.36487 0.0
C392 C 0.9246 0.4885 0.37703 0.0
C393 C -0.0115 0.55612 0.35088 0.0
C394 C 0.01198 0.62161 0.33793 0.0
C395 C 0.05493 0.70468 0.34272 0.0
C396 C 0.07558 0.76555 0.33044 0.0
C397 C 0.05437 0.74435 0.31328 0.0
C398 C 0.01257 0.66209 0.30836 0.0
C399 C -0.00843 0.60089 0.32061 0.0
H400 H 0.07035 0.79165 0.30379 0.0
H401 H 0.87288 0.19989 0.42327 0.0
H402 H 0.06272 0.96235 0.26854 0.0
H403 H 0.06229 0.96403 0.23745 0.0
H404 H 0.84163 0.97316 0.23507 0.0
H405 H 0.84047 0.96826 0.26623 0.0
H406 H 0.83387 0.87822 0.21106 0.0
H407 H 0.03087 0.14687 0.22965 0.0
H408 H 0.14971 0.25262 0.24604 0.0
H409 H 0.30091 0.17937 0.22264 0.0
H410 H 0.18273 0.07232 0.20629 0.0
H411 H 0.89741 0.04883 0.12601 0.0
H412 H 0.88698 0.03744 0.15688 0.0
H413 H 0.04425 0.93605 0.15995 0.0
H414 H 0.05118 0.94186 0.12906 0.0
H415 H 0.08181 0.0813 0.18308 0.0
H416 H 0.87452 0.80806 0.16491 0.0
H417 H 0.75254 0.71065 0.14803 0.0
H418 H 0.61731 0.80655 0.17032 0.0
H419 H 0.73897 0.90548 0.18714 0.0
C420 C 0.01401 0.96432 0.26134 0.0
C421 C 0.9519 0.96571 0.26971 0.0
C422 C 0.01396 0.96571 0.24359 0.0
C423 C 0.95293 0.97068 0.2339 0.0
C424 C 0.88953 0.96966 0.24227 0.0
C425 C 0.88883 0.96682 0.26003 0.0
C426 C 0.95597 0.97793 0.21508 0.0
C427 C 0.88783 0.9234 0.20499 0.0
C428 C 0.02643 0.0366 0.20707 0.0
C429 C 0.09777 0.10103 0.21686 0.0
C430 C 0.08936 0.15289 0.2281 0.0
C431 C 0.15662 0.21313 0.23737 0.0
C432 C 0.23278 0.22257 0.23542 0.0
C433 C 0.24186 0.1719 0.22416 0.0
C434 C 0.17476 0.11147 0.21487 0.0
C435 C 0.9287 0.02264 0.13314 0.0
C436 C -0.02472 -0.00362 0.1249 0.0
C437 C 0.92313 0.0169 0.15081 0.0
C438 C 0.96498 -0.01392 0.16059 0.0
C439 C 0.01196 0.96046 0.15255 0.0
C440 C 0.01629 0.96457 0.13487 0.0
C441 C 0.9604 0.98117 0.17928 0.0
C442 C 0.0281 0.03639 0.18927 0.0
C443 C 0.88919 0.92443 0.18717 0.0
C444 C 0.81604 0.86481 0.17712 0.0
C445 C 0.819 0.80897 0.16607 0.0
C446 C 0.74987 0.75334 0.15655 0.0
C447 C 0.67728 0.75259 0.15806 0.0
C448 C 0.67362 0.80731 0.16914 0.0
C449 C 0.74262 0.86313 0.17868 0.0
H450 H 0.62382 0.70945 0.15068 0.0
H451 H 0.28479 0.26927 0.2426 0.0
H452 H 0.074 0.16884 0.45945 0.0
H453 H 0.07924 0.17527 0.49057 0.0
H454 H 0.95332 0.91191 0.49272 0.0
H455 H 0.95 0.9047 0.46174 0.0
H456 H 0.88798 0.98291 0.51272 0.0
H457 H 0.14759 0.01337 0.50231 0.0
H458 H 0.28039 0.07774 0.4896 0.0
H459 H 0.34674 0.30577 0.51389 0.0
H460 H 0.21378 0.243 0.52655 0.0
H461 H 0.935 0.90545 0.59908 0.0
H462 H 0.93844 0.91259 0.56812 0.0
H463 H 0.09 0.17494 0.57118 0.0
H464 H 0.08983 0.16799 0.60225 0.0
H465 H 0.14304 0.11414 0.54837 0.0
H466 H 0.88935 0.08698 0.55969 0.0
H467 H 0.75662 0.02733 0.57229 0.0
H468 H 0.67815 0.80066 0.54612 0.0
H469 H 0.81089 0.85858 0.53355 0.0
C470 C 0.04845 0.11228 0.46653 0.0
C471 C 0.01129 0.03621 0.45805 0.0
C472 C 0.05117 0.11612 0.48431 0.0
C473 C 0.01666 0.04404 0.49389 0.0
C474 C -0.02019 0.96819 0.48551 0.0
C475 C -0.02237 0.96427 0.46779 0.0
C476 C 0.01766 0.04712 0.51269 0.0
C477 C 0.94366 0.01082 0.52055 0.0
C478 C 0.09043 0.08601 0.5228 0.0
C479 C 0.1704 0.12374 0.51522 0.0
C480 C 0.19021 0.07744 0.50481 0.0
C481 C 0.26557 0.11359 0.49765 0.0
C482 C 0.32188 0.19586 0.50089 0.0
C483 C 0.30301 0.24209 0.51136 0.0
C484 C 0.22768 0.20625 0.51854 0.0
C485 C 0.96985 0.96463 0.5932 0.0
C486 C 0.01196 0.03618 0.60317 0.0
C487 C 0.971 0.96871 0.57548 0.0
C488 C 0.01345 0.04444 0.56732 0.0
C489 C 0.05646 0.1159 0.57721 0.0
C490 C 0.05566 0.11186 0.59496 0.0
C491 C 0.01318 0.04871 0.54847 0.0
C492 C 0.08725 0.08658 0.54058 0.0
C493 C 0.9404 0.01202 0.53829 0.0
C494 C 0.86037 0.97693 0.5458 0.0
C495 C 0.84402 0.0242 0.55673 0.0
C496 C 0.76874 -0.00926 0.56384 0.0
C497 C 0.70905 0.9102 0.56004 0.0
C498 C 0.72448 0.86301 0.54907 0.0
C499 C 0.79971 0.89616 0.54193 0.0
H500 H 0.6508 0.8844 0.56556 0.0
H501 H 0.3802 0.22373 0.49534 0.0
H502 H 0.10811 0.13729 0.79488 0.0
H503 H 0.11233 0.13471 0.82604 0.0
H504 H 0.92264 0.88203 0.82473 0.0
H505 H 0.9176 0.88439 0.79355 0.0
H506 H 0.89803 0.97879 0.84732 0.0
H507 H 0.1092 0.92468 0.83389 0.0
H508 H 0.23309 0.9528 0.82016 0.0
H509 H 0.36588 0.18274 0.84666 0.0
H510 H 0.24245 0.1565 0.86037 0.0
H511 H 0.91732 0.8894 0.93416 0.0
H512 H 0.9178 0.88738 0.90308 0.0
H513 H 0.13501 0.124 0.90432 0.0
H514 H 0.13651 0.12402 0.93551 0.0
H515 H 0.14594 0.03552 0.88142 0.0
H516 H 0.93997 0.09578 0.8944 0.0
H517 H 0.81774 0.07467 0.90783 0.0
H518 H 0.67716 0.84392 0.88193 0.0
H519 H 0.7988 0.86315 0.86852 0.0
C520 C 0.06703 0.08135 0.80124 0.0
C521 C 0.01258 0.01099 0.7918 0.0
C522 C 0.06991 0.0798 0.81902 0.0
C523 C 0.01822 0.00798 0.82765 0.0
C524 C 0.96317 0.93794 0.81827 0.0
C525 C 0.96071 0.93924 0.8005 0.0
C526 C 0.021 0.00617 0.84648 0.0
C527 C 0.95181 -0.00991 0.85481 0.0
C528 C 0.09203 0.02339 0.85617 0.0
C529 C 0.16641 0.03895 0.84803 0.0
C530 C 0.16467 0.98153 0.83669 0.0
C531 C 0.23484 -0.00292 0.82893 0.0
C532 C 0.30727 0.0696 0.8325 0.0
C533 C 0.30972 0.12663 0.84389 0.0
C534 C 0.23969 0.11141 0.85167 0.0
C535 C 0.96522 0.94071 0.92774 0.0
C536 C 0.0266 0.0071 0.93712 0.0
C537 C 0.96528 0.93981 0.91001 0.0
C538 C 0.02539 0.00645 0.9013 0.0
C539 C 0.08784 0.07202 0.91073 0.0
C540 C 0.08869 0.07211 0.92851 0.0
C541 C 0.02275 0.00806 0.88239 0.0
C542 C 0.092 0.02419 0.874 0.0
C543 C 0.95202 -0.00796 0.87263 0.0
C544 C 0.87865 0.98059 0.88058 0.0
C545 C 0.88309 0.0403 0.89166 0.0
C546 C 0.8139 0.0287 0.89925 0.0
C547 C 0.73977 0.95791 0.89577 0.0
C548 C 0.73464 0.89868 0.88464 0.0
C549 C 0.80366 0.90993 0.87702 0.0
H550 H 0.68628 0.94903 0.90167 0.0
H551 H 0.36153 0.08154 0.82648 0.0
loop_
_geom_bond_atom_site_label_1
_geom_bond_atom_site_label_2
_geom_bond_distance
_geom_bond_site_symmetry_2
_ccdc_geom_bond_type
C0 O16 1.251 . S
C0 O18 1.254 . S
N1 C2 1.333 1_455 S
N1 C6 1.307 . S
N1 Zn7 2.020 . S
C2 N1 1.333 1_655 S
C2 C3 1.379 . S
C2 H20 0.952 . S
C3 C2 1.379 . S
C3 C4 1.390 1_655 S
C3 H30 0.947 . S
C4 C3 1.390 1_455 S
C4 C5 1.357 . S
C5 C4 1.357 . S
C5 C6 1.370 . S
C5 H31 0.950 . S
C6 N1 1.307 . S
C6 C5 1.370 . S
C6 H24 0.948 . S
Zn7 N1 2.020 . S
Zn7 O16 2.039 1_445 S
Zn7 O22 2.034 . S
Zn7 O26 2.025 . S
Zn7 O28 2.024 1_545 S
C8 O27 1.246 . S
C8 O28 1.249 . S
N9 C10 1.307 1_455 S
N9 C11 1.333 . S
N9 Zn15 1.965 1_556 S
C10 N9 1.307 1_655 S
C10 C14 1.370 . S
C10 H21 0.948 . S
C11 N9 1.333 . S
C11 C12 1.379 . S
C11 H19 0.952 . S
C12 C11 1.379 . S
C12 C13 1.390 . S
C12 H32 0.949 . S
C13 C12 1.390 . S
C13 C14 1.357 1_455 S
C14 C10 1.370 . S
C14 C13 1.357 1_655 S
C14 H33 0.950 . S
Zn15 N9 1.965 1_554 S
Zn15 O18 2.038 1_445 S
Zn15 O23 2.038 . S
Zn15 O25 2.047 . S
Zn15 O27 2.044 1_545 S
O16 C0 1.251 . S
O16 Zn7 2.039 1_665 S
C17 O22 1.242 1_655 S
C17 O23 1.245 1_655 S
O18 C0 1.254 . S
O18 Zn15 2.038 1_665 S
H19 C11 0.952 . S
H20 C2 0.952 . S
H21 C10 0.948 . S
O22 Zn7 2.034 . S
O22 C17 1.242 1_455 S
O23 Zn15 2.038 . S
O23 C17 1.245 1_455 S
H24 C6 0.948 . S
O25 Zn15 2.047 . S
O25 C29 1.251 . S
O26 Zn7 2.025 . S
O26 C29 1.254 . S
O27 C8 1.246 . S
O27 Zn15 2.044 1_565 S
O28 Zn7 2.024 1_565 S
O28 C8 1.249 . S
C29 O25 1.251 . S
C29 O26 1.254 . S
H30 C3 0.947 . S
H31 C5 0.950 . S
H32 C12 0.949 . S
H33 C14 0.950 . S
C34 O50 1.251 . S
C34 O52 1.254 . S
N35 C36 1.333 1_665 S
N35 C40 1.307 . S
N35 Zn41 2.020 . S
C36 N35 1.333 1_445 S
C36 C37 1.379 . S
C36 H54 0.952 . S
C37 C36 1.379 . S
C37 C38 1.390 1_455 S
C37 H64 0.949 . S
C38 C37 1.390 1_655 S
C38 C39 1.357 1_545 S
C39 C38 1.357 1_565 S
C39 C40 1.370 . S
C39 H65 0.950 . S
C40 N35 1.307 . S
C40 C39 1.370 . S
C40 H58 0.948 . S
Zn41 N35 2.020 . S
Zn41 O50 2.039 1_665 S
Zn41 O56 2.034 1_665 S
Zn41 O60 2.025 . S
Zn41 O62 2.024 . S
C42 O61 1.246 . S
C42 O62 1.249 . S
N43 C44 1.307 . S
N43 C45 1.333 1_445 S
N43 Zn49 2.020 . S
C44 N43 1.307 . S
C44 C48 1.370 . S
C44 H55 0.948 . S
C45 N43 1.333 1_665 S
C45 C46 1.379 . S
C45 H53 0.952 . S
C46 C45 1.379 . S
C46 C47 1.390 1_655 S
C46 H66 0.949 . S
C47 C46 1.390 1_455 S
C47 C48 1.357 1_565 S
C48 C44 1.370 . S
C48 C47 1.357 1_545 S
C48 H67 0.950 . S
Zn49 N43 2.020 . S
Zn49 O52 2.025 . S
Zn49 O57 2.024 . S
Zn49 O59 2.039 1_445 S
Zn49 O61 2.034 1_445 S
O50 C34 1.251 . S
O50 Zn41 2.039 1_445 S
C51 O56 1.246 . S
C51 O57 1.249 . S
O52 C34 1.254 . S
O52 Zn49 2.025 . S
H53 C45 0.952 . S
H54 C36 0.952 . S
H55 C44 0.948 . S
O56 Zn41 2.034 1_445 S
O56 C51 1.246 . S
O57 Zn49 2.024 . S
O57 C51 1.249 . S
H58 C40 0.948 . S
O59 Zn49 2.039 1_665 S
O59 C63 1.251 . S
O60 Zn41 2.025 . S
O60 C63 1.254 . S
O61 C42 1.246 . S
O61 Zn49 2.034 1_665 S
O62 Zn41 2.024 . S
O62 C42 1.249 . S
C63 O59 1.251 . S
C63 O60 1.254 . S
H64 C37 0.949 . S
H65 C39 0.950 . S
H66 C46 0.949 . S
H67 C48 0.950 . S
C68 O84 1.251 . S
C68 O86 1.254 . S
N69 C70 1.333 . S
N69 C74 1.307 1_545 S
N69 Zn75 2.020 . S
C70 N69 1.333 . S
C70 C71 1.379 . S
C70 H88 0.952 1_455 S
C71 C70 1.379 . S
C71 C72 1.390 . S
C71 H98 0.949 1_455 S
C72 C71 1.390 . S
C72 C73 1.357 1_545 S
C73 C72 1.357 1_565 S
C73 C74 1.370 . S
C73 H99 0.950 . S
C74 N69 1.307 1_565 S
C74 C73 1.370 . S
C74 H92 0.948 . S
Zn75 N69 2.020 . S
Zn75 O84 2.039 1_455 S
Zn75 O90 2.034 . S
Zn75 O94 2.025 1_545 S
Zn75 O96 2.024 1_445 S
C76 O95 1.246 . S
C76 O96 1.249 . S
N77 C78 1.307 1_455 S
N77 C79 1.333 1_545 S
N77 Zn83 2.020 . S
C78 N77 1.307 1_655 S
C78 C82 1.370 . S
C78 H89 0.948 . S
C79 N77 1.333 1_565 S
C79 C80 1.379 . S
C79 H87 0.952 . S
C80 C79 1.379 . S
C80 C81 1.390 1_565 S
C80 H100 0.949 . S
C81 C80 1.390 1_545 S
C81 C82 1.357 1_455 S
C82 C78 1.370 . S
C82 C81 1.357 1_655 S
C82 H101 0.950 . S
Zn83 N77 2.020 . S
Zn83 O86 2.025 1_455 S
Zn83 O91 2.024 . S
Zn83 O93 2.039 1_545 S
Zn83 O95 2.034 1_445 S
O84 C68 1.251 . S
O84 Zn75 2.039 1_655 S
C85 O90 1.246 . S
C85 O91 1.249 . S
O86 C68 1.254 . S
O86 Zn83 2.025 1_655 S
H87 C79 0.952 . S
H88 C70 0.952 1_655 S
H89 C78 0.948 . S
O90 Zn75 2.034 . S
O90 C85 1.246 . S
O91 Zn83 2.024 . S
O91 C85 1.249 . S
H92 C74 0.948 . S
O93 Zn83 2.039 1_565 S
O93 C97 1.251 . S
O94 Zn75 2.025 1_565 S
O94 C97 1.254 . S
O95 C76 1.246 . S
O95 Zn83 2.034 1_665 S
O96 Zn75 2.024 1_665 S
O96 C76 1.249 . S
C97 O93 1.251 . S
C97 O94 1.254 . S
H98 C71 0.949 1_655 S
H99 C73 0.950 . S
H100 C80 0.949 . S
H101 C82 0.950 . S
H102 C120 0.951 1_556 S
H103 C122 0.901 1_556 S
H104 C124 0.950 . S
H105 C125 0.950 . S
H106 C127 0.950 . S
H107 C130 0.950 . S
H108 C131 0.950 . S
H109 C133 0.906 1_556 S
H110 C134 0.950 1_556 S
H111 C135 0.951 . S
H112 C137 0.951 1_655 S
H113 C139 0.950 1_556 S
H114 C140 0.950 1_556 S
H115 C142 0.950 . S
H116 C145 0.950 1_556 S
H117 C146 0.950 1_556 S
H118 C148 0.950 . S
H119 C149 0.950 . S
C120 H102 0.951 1_554 S
C120 C121 1.366 1_455 S
C120 C122 1.388 . S
C121 C120 1.366 1_655 S
C121 C125 1.385 . S
C122 H103 0.901 1_554 S
C122 C120 1.388 . S
C122 C123 1.366 . S
C123 C122 1.366 . S
C123 C124 1.414 1_455 S
C123 C126 1.499 . S
C124 H104 0.950 . S
C124 C123 1.414 1_655 S
C124 C125 1.374 . S
C125 H105 0.950 . S
C125 C121 1.385 . S
C125 C124 1.374 . S
C126 C123 1.499 . S
C126 C127 1.373 1_455 S
C126 C128 1.389 . S
C127 H106 0.950 . S
C127 C126 1.373 1_655 S
C127 C143 1.377 . S
C128 C126 1.389 . S
C128 C129 1.524 . S
C128 C142 1.377 . S
C129 C128 1.524 . S
C129 C130 1.397 . S
C129 C134 1.363 . S
C130 H107 0.950 . S
C130 C129 1.397 . S
C130 C131 1.334 . S
C131 H108 0.950 . S
C131 C130 1.334 . S
C131 C132 1.287 . S
C132 C131 1.287 . S
C132 C133 1.524 . S
C132 H151 0.913 . S
C133 H109 0.906 1_554 S
C133 C132 1.524 . S
C133 C134 1.415 . S
C134 H110 0.950 1_554 S
C134 C129 1.363 . S
C134 C133 1.415 . S
C135 H111 0.951 . S
C135 C136 1.366 . S
C135 C137 1.388 . S
C136 C135 1.366 . S
C136 C140 1.385 . S
C137 H112 0.951 1_455 S
C137 C135 1.388 . S
C137 C138 1.366 . S
C138 C137 1.366 . S
C138 C139 1.414 . S
C138 C141 1.499 . S
C139 H113 0.950 1_554 S
C139 C138 1.414 . S
C139 C140 1.374 . S
C140 H114 0.950 1_554 S
C140 C136 1.385 . S
C140 C139 1.374 . S
C141 C138 1.499 . S
C141 C142 1.373 . S
C141 C143 1.389 1_455 S
C142 H115 0.950 . S
C142 C128 1.377 . S
C142 C141 1.373 . S
C143 C127 1.377 . S
C143 C141 1.389 1_655 S
C143 C144 1.524 . S
C144 C143 1.524 . S
C144 C145 1.397 . S
C144 C149 1.363 . S
C145 H116 0.950 1_554 S
C145 C144 1.397 . S
C145 C146 1.334 . S
C146 H117 0.950 1_554 S
C146 C145 1.334 . S
C146 C147 1.287 . S
C147 C146 1.287 . S
C147 C148 1.524 . S
C147 H150 0.999 . S
C148 H118 0.950 . S
C148 C147 1.524 . S
C148 C149 1.415 . S
C149 H119 0.950 . S
C149 C144 1.363 . S
C149 C148 1.415 . S
H150 C147 0.999 . S
H151 C132 0.913 . S
H152 C170 0.951 . S
H153 C172 0.951 . S
H154 C174 0.950 . S
H155 C175 0.950 . S
H156 C177 0.950 . S
H157 C180 0.950 . S
H158 C181 0.950 . S
H159 C183 0.950 . S
H160 C184 0.950 . S
H161 C185 0.951 . S
H162 C187 0.951 . S
H163 C189 0.950 . S
H164 C190 0.950 . S
H165 C192 0.950 . S
H166 C195 0.950 . S
H167 C196 0.950 . S
H168 C198 0.950 . S
H169 C199 0.950 . S
C170 H152 0.951 . S
C170 C171 1.366 1_565 S
C170 C172 1.388 . S
C171 C170 1.366 1_545 S
C171 C175 1.385 . S
C172 H153 0.951 . S
C172 C170 1.388 . S
C172 C173 1.366 1_565 S
C173 C172 1.366 1_545 S
C173 C174 1.414 . S
C173 C176 1.499 . S
C174 H154 0.950 . S
C174 C173 1.414 . S
C174 C175 1.374 . S
C175 H155 0.950 . S
C175 C171 1.385 . S
C175 C174 1.374 . S
C176 C173 1.499 . S
C176 C177 1.373 . S
C176 C178 1.389 1_545 S
C177 H156 0.950 . S
C177 C176 1.373 . S
C177 C193 1.377 . S
C178 C176 1.389 1_565 S
C178 C179 1.524 . S
C178 C192 1.377 . S
C179 C178 1.524 . S
C179 C180 1.397 . S
C179 C184 1.363 . S
C180 H157 0.950 . S
C180 C179 1.397 . S
C180 C181 1.334 . S
C181 H158 0.950 . S
C181 C180 1.334 . S
C181 C182 1.287 . S
C182 C181 1.287 . S
C182 C183 1.524 . S
C182 H201 0.913 . S
C183 H159 0.950 . S
C183 C182 1.524 . S
C183 C184 1.415 . S
C184 H160 0.950 . S
C184 C179 1.363 . S
C184 C183 1.415 . S
C185 H161 0.951 . S
C185 C186 1.366 1_545 S
C185 C187 1.388 . S
C186 C185 1.366 1_565 S
C186 C190 1.385 . S
C187 H162 0.951 . S
C187 C185 1.388 . S
C187 C188 1.366 1_545 S
C188 C187 1.366 1_565 S
C188 C189 1.414 . S
C188 C191 1.499 . S
C189 H163 0.950 . S
C189 C188 1.414 . S
C189 C190 1.374 . S
C190 H164 0.950 . S
C190 C186 1.385 . S
C190 C189 1.374 . S
C191 C188 1.499 . S
C191 C192 1.373 . S
C191 C193 1.389 1_565 S
C192 H165 0.950 . S
C192 C178 1.377 . S
C192 C191 1.373 . S
C193 C177 1.377 . S
C193 C191 1.389 1_545 S
C193 C194 1.524 . S
C194 C193 1.524 . S
C194 C195 1.397 . S
C194 C199 1.363 . S
C195 H166 0.950 . S
C195 C194 1.397 . S
C195 C196 1.334 . S
C196 H167 0.950 . S
C196 C195 1.334 . S
C196 C197 1.287 . S
C197 C196 1.287 . S
C197 C198 1.524 . S
C197 H200 0.999 . S
C198 H168 0.950 . S
C198 C197 1.524 . S
C198 C199 1.415 . S
C199 H169 0.950 . S
C199 C194 1.363 . S
C199 C198 1.415 . S
H200 C197 0.999 . S
H201 C182 0.913 . S
H202 C220 0.951 . S
H203 C222 0.951 . S
H204 C224 0.950 . S
H205 C225 0.950 . S
H206 C227 0.950 . S
H207 C230 0.950 . S
H208 C231 0.950 . S
H209 C233 0.950 . S
H210 C234 0.950 . S
H211 C235 0.951 . S
H212 C237 0.951 . S
H213 C239 0.950 . S
H214 C240 0.950 . S
H215 C242 0.950 . S
H216 C245 0.950 . S
H217 C246 0.950 . S
H218 C248 0.950 . S
H219 C249 0.950 . S
C220 H202 0.951 . S
C220 C221 1.366 . S
C220 C222 1.388 . S
C221 C220 1.366 . S
C221 C225 1.385 . S
C222 H203 0.951 . S
C222 C220 1.388 . S
C222 C223 1.366 . S
C223 C222 1.366 . S
C223 C224 1.414 . S
C223 C226 1.499 . S
C224 H204 0.950 . S
C224 C223 1.414 . S
C224 C225 1.374 . S
C225 H205 0.950 . S
C225 C221 1.385 . S
C225 C224 1.374 . S
C226 C223 1.499 . S
C226 C227 1.373 . S
C226 C228 1.389 . S
C227 H206 0.950 . S
C227 C226 1.373 . S
C227 C243 1.377 . S
C228 C226 1.389 . S
C228 C229 1.524 . S
C228 C242 1.377 . S
C229 C228 1.524 . S
C229 C230 1.397 . S
C229 C234 1.363 . S
C230 H207 0.950 . S
C230 C229 1.397 . S
C230 C231 1.334 . S
C231 H208 0.950 . S
C231 C230 1.334 . S
C231 C232 1.287 . S
C232 C231 1.287 . S
C232 C233 1.524 . S
C232 H251 0.913 . S
C233 H209 0.950 . S
C233 C232 1.524 . S
C233 C234 1.415 . S
C234 H210 0.950 . S
C234 C229 1.363 . S
C234 C233 1.415 . S
C235 H211 0.951 . S
C235 C236 1.366 . S
C235 C237 1.388 . S
C236 C235 1.366 . S
C236 C240 1.385 . S
C237 H212 0.951 . S
C237 C235 1.388 . S
C237 C238 1.366 . S
C238 C237 1.366 . S
C238 C239 1.414 . S
C238 C241 1.499 . S
C239 H213 0.950 . S
C239 C238 1.414 . S
C239 C240 1.374 . S
C240 H214 0.950 . S
C240 C236 1.385 . S
C240 C239 1.374 . S
C241 C238 1.499 . S
C241 C242 1.373 . S
C241 C243 1.389 . S
C242 H215 0.950 . S
C242 C228 1.377 . S
C242 C241 1.373 . S
C243 C227 1.377 . S
C243 C241 1.389 . S
C243 C244 1.524 . S
C244 C243 1.524 . S
C244 C245 1.397 . S
C244 C249 1.363 . S
C245 H216 0.950 . S
C245 C244 1.397 . S
C245 C246 1.334 . S
C246 H217 0.950 . S
C246 C245 1.334 . S
C246 C247 1.287 . S
C247 C246 1.287 . S
C247 C248 1.524 . S
C247 H250 0.999 . S
C248 H218 0.950 . S
C248 C247 1.524 . S
C248 C249 1.415 . S
C249 H219 0.950 . S
C249 C244 1.363 . S
C249 C248 1.415 . S
H250 C247 0.999 . S
H251 C232 0.913 . S
H252 C270 0.951 . S
H253 C272 0.951 . S
H254 C274 0.950 . S
H255 C275 0.950 . S
H256 C277 0.950 . S
H257 C280 0.950 . S
H258 C281 0.950 . S
H259 C283 0.950 . S
H260 C284 0.950 . S
H261 C285 0.951 . S
H262 C287 0.951 . S
H263 C289 0.950 . S
H264 C290 0.950 . S
H265 C292 0.950 . S
H266 C295 0.950 . S
H267 C296 0.950 . S
H268 C298 0.950 . S
H269 C299 0.950 . S
C270 H252 0.951 . S
C270 C271 1.366 . S
C270 C272 1.388 . S
C271 C270 1.366 . S
C271 C275 1.385 1_545 S
C272 H253 0.951 . S
C272 C270 1.388 . S
C272 C273 1.366 . S
C273 C272 1.366 . S
C273 C274 1.414 1_545 S
C273 C276 1.499 . S
C274 H254 0.950 . S
C274 C273 1.414 1_565 S
C274 C275 1.374 . S
C275 H255 0.950 . S
C275 C271 1.385 1_565 S
C275 C274 1.374 . S
C276 C273 1.499 . S
C276 C277 1.373 1_545 S
C276 C278 1.389 . S
C277 H256 0.950 . S
C277 C276 1.373 1_565 S
C277 C293 1.377 . S
C278 C276 1.389 . S
C278 C279 1.524 . S
C278 C292 1.377 . S
C279 C278 1.524 . S
C279 C280 1.397 . S
C279 C284 1.363 . S
C280 H257 0.950 . S
C280 C279 1.397 . S
C280 C281 1.334 . S
C281 H258 0.950 . S
C281 C280 1.334 . S
C281 C282 1.287 . S
C282 C281 1.287 . S
C282 C283 1.524 . S
C282 H301 0.913 . S
C283 H259 0.950 . S
C283 C282 1.524 . S
C283 C284 1.415 . S
C284 H260 0.950 . S
C284 C279 1.363 . S
C284 C283 1.415 . S
C285 H261 0.951 . S
C285 C286 1.366 . S
C285 C287 1.388 . S
C286 C285 1.366 . S
C286 C290 1.385 1_565 S
C287 H262 0.951 . S
C287 C285 1.388 . S
C287 C288 1.366 . S
C288 C287 1.366 . S
C288 C289 1.414 1_565 S
C288 C291 1.499 1_565 S
C289 H263 0.950 . S
C289 C288 1.414 1_545 S
C289 C290 1.374 . S
C290 H264 0.950 . S
C290 C286 1.385 1_545 S
C290 C289 1.374 . S
C291 C288 1.499 1_545 S
C291 C292 1.373 . S
C291 C293 1.389 1_545 S
C292 H265 0.950 . S
C292 C278 1.377 . S
C292 C291 1.373 . S
C293 C277 1.377 . S
C293 C291 1.389 1_565 S
C293 C294 1.524 . S
C294 C293 1.524 . S
C294 C295 1.397 . S
C294 C299 1.363 . S
C295 H266 0.950 . S
C295 C294 1.397 . S
C295 C296 1.334 . S
C296 H267 0.950 . S
C296 C295 1.334 . S
C296 C297 1.287 . S
C297 C296 1.287 . S
C297 C298 1.524 . S
C297 H300 0.999 . S
C298 H268 0.950 . S
C298 C297 1.524 . S
C298 C299 1.415 . S
C299 H269 0.950 . S
C299 C294 1.363 . S
C299 C298 1.415 . S
H300 C297 0.999 . S
H301 C282 0.913 . S
H302 C320 0.951 . S
H303 C322 0.951 . S
H304 C324 0.950 . S
H305 C325 0.950 . S
H306 C327 0.950 . S
H307 C330 0.950 . S
H308 C331 0.950 . S
H309 C333 0.950 . S
H310 C334 0.950 . S
H311 C335 0.951 . S
H312 C337 0.951 . S
H313 C339 0.950 . S
H314 C340 0.950 . S
H315 C342 0.950 . S
H316 C345 0.950 . S
H317 C346 0.950 . S
H318 C348 0.945 1_554 S
H319 C349 0.950 . S
C320 H302 0.951 . S
C320 C321 1.366 . S
C320 C322 1.388 . S
C321 C320 1.366 . S
C321 C325 1.385 . S
C322 H303 0.951 . S
C322 C320 1.388 . S
C322 C323 1.366 . S
C323 C322 1.366 . S
C323 C324 1.414 . S
C323 C326 1.499 . S
C324 H304 0.950 . S
C324 C323 1.414 . S
C324 C325 1.374 . S
C325 H305 0.950 . S
C325 C321 1.385 . S
C325 C324 1.374 . S
C326 C323 1.499 . S
C326 C327 1.373 . S
C326 C328 1.389 . S
C327 H306 0.950 . S
C327 C326 1.373 . S
C327 C343 1.377 . S
C328 C326 1.389 . S
C328 C329 1.524 . S
C328 C342 1.377 . S
C329 C328 1.524 . S
C329 C330 1.397 . S
C329 C334 1.363 . S
C330 H307 0.950 . S
C330 C329 1.397 . S
C330 C331 1.334 . S
C331 H308 0.950 . S
C331 C330 1.334 . S
C331 C332 1.287 . S
C332 C331 1.287 . S
C332 C333 1.524 . S
C332 H351 0.913 . S
C333 H309 0.950 . S
C333 C332 1.524 . S
C333 C334 1.415 . S
C334 H310 0.950 . S
C334 C329 1.363 . S
C334 C333 1.415 . S
C335 H311 0.951 . S
C335 C336 1.366 . S
C335 C337 1.388 . S
C336 C335 1.366 . S
C336 C340 1.385 . S
C337 H312 0.951 . S
C337 C335 1.388 . S
C337 C338 1.366 . S
C338 C337 1.366 . S
C338 C339 1.414 . S
C338 C341 1.499 . S
C339 H313 0.950 . S
C339 C338 1.414 . S
C339 C340 1.374 . S
C340 H314 0.950 . S
C340 C336 1.385 . S
C340 C339 1.374 . S
C341 C338 1.499 . S
C341 C342 1.373 . S
C341 C343 1.389 . S
C342 H315 0.950 . S
C342 C328 1.377 . S
C342 C341 1.373 . S
C343 C327 1.377 . S
C343 C341 1.389 . S
C343 C344 1.524 . S
C344 C343 1.524 . S
C344 C345 1.397 1_554 S
C344 C349 1.363 . S
C345 H316 0.950 . S
C345 C344 1.397 1_556 S
C345 C346 1.334 . S
C346 H317 0.950 . S
C346 C345 1.334 . S
C346 C347 1.287 . S
C347 C346 1.287 . S
C347 C348 1.542 . S
C347 H350 0.999 . S
C348 H318 0.945 1_556 S
C348 C347 1.542 . S
C348 C349 1.402 1_556 S
C349 H319 0.950 . S
C349 C344 1.363 . S
C349 C348 1.402 1_554 S
H350 C347 0.999 . S
H351 C332 0.913 . S
H352 C370 0.951 . S
H353 C372 0.951 . S
H354 C374 0.950 . S
H355 C375 0.950 . S
H356 C377 0.950 . S
H357 C380 0.950 . S
H358 C381 0.950 1_655 S
H359 C383 0.950 . S
H360 C384 0.950 . S
H361 C385 0.951 . S
H362 C387 0.951 . S
H363 C389 0.950 . S
H364 C390 0.950 . S
H365 C392 0.950 . S
H366 C395 0.950 . S
H367 C396 0.950 1_455 S
H368 C398 0.950 . S
H369 C399 0.950 . S
C370 H352 0.951 . S
C370 C371 1.366 . S
C370 C372 1.388 . S
C371 C370 1.366 . S
C371 C375 1.385 1_455 S
C372 H353 0.951 . S
C372 C370 1.388 . S
C372 C373 1.366 . S
C373 C372 1.366 . S
C373 C374 1.414 1_455 S
C373 C376 1.499 . S
C374 H354 0.950 . S
C374 C373 1.414 1_655 S
C374 C375 1.374 . S
C375 H355 0.950 . S
C375 C371 1.385 1_655 S
C375 C374 1.374 . S
C376 C373 1.499 . S
C376 C377 1.373 1_455 S
C376 C378 1.389 . S
C377 H356 0.950 . S
C377 C376 1.373 1_655 S
C377 C393 1.377 . S
C378 C376 1.389 . S
C378 C379 1.524 . S
C378 C392 1.377 . S
C379 C378 1.524 . S
C379 C380 1.397 1_455 S
C379 C384 1.363 . S
C380 H357 0.950 . S
C380 C379 1.397 1_655 S
C380 C381 1.334 1_655 S
C381 H358 0.950 1_455 S
C381 C380 1.334 1_455 S
C381 C382 1.287 . S
C382 C381 1.287 . S
C382 C383 1.524 . S
C382 H401 0.913 . S
C383 H359 0.950 . S
C383 C382 1.524 . S
C383 C384 1.415 . S
C384 H360 0.950 . S
C384 C379 1.363 . S
C384 C383 1.415 . S
C385 H361 0.951 . S
C385 C386 1.366 . S
C385 C387 1.388 . S
C386 C385 1.366 . S
C386 C390 1.385 1_655 S
C387 H362 0.951 . S
C387 C385 1.388 . S
C387 C388 1.366 . S
C388 C387 1.366 . S
C388 C389 1.414 1_655 S
C388 C391 1.499 . S
C389 H363 0.950 . S
C389 C388 1.414 1_455 S
C389 C390 1.374 . S
C390 H364 0.950 . S
C390 C386 1.385 1_455 S
C390 C389 1.374 . S
C391 C388 1.499 . S
C391 C392 1.373 1_655 S
C391 C393 1.389 . S
C392 H365 0.950 . S
C392 C378 1.377 . S
C392 C391 1.373 1_455 S
C393 C377 1.377 . S
C393 C391 1.389 . S
C393 C394 1.524 . S
C394 C393 1.524 . S
C394 C395 1.397 1_655 S
C394 C399 1.363 . S
C395 H366 0.950 . S
C395 C394 1.397 1_455 S
C395 C396 1.334 1_455 S
C396 H367 0.950 1_655 S
C396 C395 1.334 1_655 S
C396 C397 1.287 . S
C397 C396 1.287 . S
C397 C398 1.524 . S
C397 H400 0.999 . S
C398 H368 0.950 . S
C398 C397 1.524 . S
C398 C399 1.415 . S
C399 H369 0.950 . S
C399 C394 1.363 . S
C399 C398 1.415 . S
H400 C397 0.999 . S
H401 C382 0.913 . S
H402 C420 0.951 . S
H403 C422 0.951 . S
H404 C424 0.950 1_565 S
H405 C425 0.950 . S
H406 C427 0.950 . S
H407 C430 0.950 . S
H408 C431 0.950 . S
H409 C433 0.950 . S
H410 C434 0.950 . S
H411 C435 0.951 . S
H412 C437 0.951 . S
H413 C439 0.950 . S
H414 C440 0.950 . S
H415 C442 0.950 . S
H416 C445 0.950 . S
H417 C446 0.950 . S
H418 C448 0.950 . S
H419 C449 0.950 . S
C420 H402 0.951 . S
C420 C421 1.366 . S
C420 C422 1.388 . S
C421 C420 1.366 . S
C421 C425 1.385 1_445 S
C422 H403 0.951 . S
C422 C420 1.388 . S
C422 C423 1.366 . S
C423 C422 1.366 . S
C423 C424 1.414 1_455 S
C423 C426 1.499 . S
C424 H404 0.950 1_545 S
C424 C423 1.414 1_655 S
C424 C425 1.374 1_545 S
C425 H405 0.950 . S
C425 C421 1.385 1_665 S
C425 C424 1.374 1_565 S
C426 C423 1.499 . S
C426 C427 1.373 1_445 S
C426 C428 1.389 . S
C427 H406 0.950 . S
C427 C426 1.373 1_665 S
C427 C443 1.377 . S
C428 C426 1.389 . S
C428 C429 1.524 . S
C428 C442 1.377 . S
C429 C428 1.524 . S
C429 C430 1.397 . S
C429 C434 1.363 . S
C430 H407 0.950 . S
C430 C429 1.397 . S
C430 C431 1.334 . S
C431 H408 0.950 . S
C431 C430 1.334 . S
C431 C432 1.287 . S
C432 C431 1.287 . S
C432 C433 1.524 . S
C432 H451 0.913 . S
C433 H409 0.950 . S
C433 C432 1.524 . S
C433 C434 1.415 . S
C434 H410 0.950 . S
C434 C429 1.363 . S
C434 C433 1.415 . S
C435 H411 0.951 . S
C435 C436 1.366 1_655 S
C435 C437 1.388 . S
C436 C435 1.366 1_455 S
C436 C440 1.385 . S
C437 H412 0.951 . S
C437 C435 1.388 . S
C437 C438 1.366 1_655 S
C438 C437 1.366 1_455 S
C438 C439 1.414 . S
C438 C441 1.499 . S
C439 H413 0.950 . S
C439 C438 1.414 . S
C439 C440 1.374 . S
C440 H414 0.950 . S
C440 C436 1.385 . S
C440 C439 1.374 . S
C441 C438 1.499 . S
C441 C442 1.373 . S
C441 C443 1.389 1_445 S
C442 H415 0.950 . S
C442 C428 1.377 . S
C442 C441 1.373 . S
C443 C427 1.377 . S
C443 C441 1.389 1_665 S
C443 C444 1.524 . S
C444 C443 1.524 . S
C444 C445 1.397 . S
C444 C449 1.363 . S
C445 H416 0.950 . S
C445 C444 1.397 . S
C445 C446 1.334 . S
C446 H417 0.950 . S
C446 C445 1.334 . S
C446 C447 1.287 . S
C447 C446 1.287 . S
C447 C448 1.524 . S
C447 H450 0.999 . S
C448 H418 0.950 . S
C448 C447 1.524 . S
C448 C449 1.415 . S
C449 H419 0.950 . S
C449 C444 1.363 . S
C449 C448 1.415 . S
H450 C447 0.999 . S
H451 C432 0.913 . S
H452 C470 0.951 . S
H453 C472 0.951 . S
H454 C474 0.950 . S
H455 C475 0.950 . S
H456 C477 0.950 . S
H457 C480 0.950 . S
H458 C481 0.950 . S
H459 C483 0.950 . S
H460 C484 0.950 . S
H461 C485 0.951 . S
H462 C487 0.951 . S
H463 C489 0.950 . S
H464 C490 0.950 . S
H465 C492 0.950 . S
H466 C495 0.950 . S
H467 C496 0.950 . S
H468 C498 0.950 . S
H469 C499 0.950 . S
C470 H452 0.951 . S
C470 C471 1.366 1_445 S
C470 C472 1.388 . S
C471 C470 1.366 1_665 S
C471 C475 1.385 . S
C472 H453 0.951 . S
C472 C470 1.388 . S
C472 C473 1.366 1_545 S
C473 C472 1.366 1_565 S
C473 C474 1.414 1_455 S
C473 C476 1.499 . S
C474 H454 0.950 . S
C474 C473 1.414 1_655 S
C474 C475 1.374 . S
C475 H455 0.950 . S
C475 C471 1.385 . S
C475 C474 1.374 . S
C476 C473 1.499 . S
C476 C477 1.373 1_455 S
C476 C478 1.389 1_565 S
C477 H456 0.950 . S
C477 C476 1.373 1_655 S
C477 C493 1.377 . S
C478 C476 1.389 1_545 S
C478 C479 1.524 . S
C478 C492 1.377 . S
C479 C478 1.524 . S
C479 C480 1.397 1_545 S
C479 C484 1.363 . S
C480 H457 0.950 . S
C480 C479 1.397 1_565 S
C480 C481 1.334 . S
C481 H458 0.950 . S
C481 C480 1.334 . S
C481 C482 1.287 1_565 S
C482 C481 1.287 1_545 S
C482 C483 1.524 . S
C482 H501 0.913 . S
C483 H459 0.950 . S
C483 C482 1.524 . S
C483 C484 1.415 . S
C484 H460 0.950 . S
C484 C479 1.363 . S
C484 C483 1.415 . S
C485 H461 0.951 . S
C485 C486 1.366 1_665 S
C485 C487 1.388 . S
C486 C485 1.366 1_445 S
C486 C490 1.385 . S
C487 H462 0.951 . S
C487 C485 1.388 . S
C487 C488 1.366 1_665 S
C488 C487 1.366 1_445 S
C488 C489 1.414 . S
C488 C491 1.499 . S
C489 H463 0.950 . S
C489 C488 1.414 . S
C489 C490 1.374 . S
C490 H464 0.950 . S
C490 C486 1.385 . S
C490 C489 1.374 . S
C491 C488 1.499 . S
C491 C492 1.373 . S
C491 C493 1.389 1_445 S
C492 H465 0.950 . S
C492 C478 1.377 . S
C492 C491 1.373 . S
C493 C477 1.377 . S
C493 C491 1.389 1_665 S
C493 C494 1.524 . S
C494 C493 1.524 . S
C494 C495 1.397 1_565 S
C494 C499 1.363 . S
C495 H466 0.950 . S
C495 C494 1.397 1_545 S
C495 C496 1.334 . S
C496 H467 0.950 . S
C496 C495 1.334 . S
C496 C497 1.287 1_545 S
C497 C496 1.287 1_565 S
C497 C498 1.524 . S
C497 H500 0.999 . S
C498 H468 0.950 . S
C498 C497 1.524 . S
C498 C499 1.415 . S
C499 H469 0.950 . S
C499 C494 1.363 . S
C499 C498 1.415 . S
H500 C497 0.999 . S
H501 C482 0.913 . S
H502 C520 0.951 . S
H503 C522 0.951 . S
H504 C524 0.950 1_655 S
H505 C525 0.950 1_655 S
H506 C527 0.950 . S
H507 C530 0.950 . S
H508 C531 0.950 . S
H509 C533 0.950 . S
H510 C534 0.950 . S
H511 C535 0.951 1_655 S
H512 C537 0.951 1_655 S
H513 C539 0.950 . S
H514 C540 0.950 . S
H515 C542 0.950 . S
H516 C545 0.950 1_545 S
H517 C546 0.950 . S
H518 C548 0.950 . S
H519 C549 0.950 . S
C520 H502 0.951 . S
C520 C521 1.366 . S
C520 C522 1.388 . S
C521 C520 1.366 . S
C521 C525 1.385 1_545 S
C522 H503 0.951 . S
C522 C520 1.388 . S
C522 C523 1.366 . S
C523 C522 1.366 . S
C523 C524 1.414 1_545 S
C523 C526 1.499 . S
C524 H504 0.950 1_455 S
C524 C523 1.414 1_565 S
C524 C525 1.374 . S
C525 H505 0.950 1_455 S
C525 C521 1.385 1_565 S
C525 C524 1.374 . S
C526 C523 1.499 . S
C526 C527 1.373 1_445 S
C526 C528 1.389 . S
C527 H506 0.950 . S
C527 C526 1.373 1_665 S
C527 C543 1.377 . S
C528 C526 1.389 . S
C528 C529 1.524 . S
C528 C542 1.377 . S
C529 C528 1.524 . S
C529 C530 1.397 . S
C529 C534 1.363 . S
C530 H507 0.950 . S
C530 C529 1.397 . S
C530 C531 1.334 . S
C531 H508 0.950 . S
C531 C530 1.334 . S
C531 C532 1.287 . S
C532 C531 1.287 . S
C532 C533 1.524 . S
C532 H551 0.913 . S
C533 H509 0.950 . S
C533 C532 1.524 . S
C533 C534 1.415 . S
C534 H510 0.950 . S
C534 C529 1.363 . S
C534 C533 1.415 . S
C535 H511 0.951 1_455 S
C535 C536 1.366 1_565 S
C535 C537 1.388 . S
C536 C535 1.366 1_545 S
C536 C540 1.385 . S
C537 H512 0.951 1_455 S
C537 C535 1.388 . S
C537 C538 1.366 1_565 S
C538 C537 1.366 1_545 S
C538 C539 1.414 . S
C538 C541 1.499 . S
C539 H513 0.950 . S
C539 C538 1.414 . S
C539 C540 1.374 . S
C540 H514 0.950 . S
C540 C536 1.385 . S
C540 C539 1.374 . S
C541 C538 1.499 . S
C541 C542 1.373 . S
C541 C543 1.389 1_445 S
C542 H515 0.950 . S
C542 C528 1.377 . S
C542 C541 1.373 . S
C543 C527 1.377 . S
C543 C541 1.389 1_665 S
C543 C544 1.524 . S
C544 C543 1.524 . S
C544 C545 1.397 . S
C544 C549 1.363 . S
C545 H516 0.950 1_565 S
C545 C544 1.397 . S
C545 C546 1.334 . S
C546 H517 0.950 . S
C546 C545 1.334 . S
C546 C547 1.287 . S
C547 C546 1.287 . S
C547 C548 1.524 . S
C547 H550 0.999 . S
C548 H518 0.950 . S
C548 C547 1.524 . S
C548 C549 1.415 . S
C549 H519 0.950 . S
C549 C544 1.363 . S
C549 C548 1.415 . S
H550 C547 0.999 . S
H551 C532 0.913 . S
C121 C17 1.037 . S
C136 C8 1.031 . S
C171 C34 1.021 . S
C186 C63 1.021 . S
C221 C76 1.040 . S
C236 C85 1.040 . S
C271 C68 1.021 . S
C286 C97 1.021 . S
C321 C0 1.015 . S
C336 C29 1.015 . S
C371 C51 1.032 . S
C386 C42 1.032 . S
C421 C38 1.503 1_455 S
C436 C4 1.503 . S
C471 C47 1.501 1_655 S
C486 C81 1.501 . S
C521 C72 1.501 . S
C536 C13 1.500 . S
