# Generated by pormake.
# Topology kag, (6)-cn, num edge types: 1
# Building blocks:
#     Node 0, Type 0, BuildingBlock: BETGAK_clean_sbu_0, # of connection points: 6
#     Node 1, Type 0, BuildingBlock: BETGAK_clean_sbu_0, # of connection points: 6
#     Node 2, Type 0, BuildingBlock: BETGAK_clean_sbu_0, # of connection points: 6
#     Edge 3, Type (0, 0), BuildingBlock: ZUJKAS_clean_linker_0, # of connection points: 2
#     Edge 4, Type (0, 0), BuildingBlock: ZUJKAS_clean_linker_0, # of connection points: 2
#     Edge 5, Type (0, 0), BuildingBlock: ZUJKAS_clean_linker_0, # of connection points: 2
#     Edge 6, Type (0, 0), BuildingBlock: ZUJKAS_clean_linker_0, # of connection points: 2
#     Edge 7, Type (0, 0), BuildingBlock: ZUJKAS_clean_linker_0, # of connection points: 2
#     Edge 8, Type (0, 0), BuildingBlock: ZUJKAS_clean_linker_0, # of connection points: 2
#     Edge 9, Type (0, 0), BuildingBlock: ZUJKAS_clean_linker_0, # of connection points: 2
#     Edge 10, Type (0, 0), BuildingBlock: ZUJKAS_clean_linker_0, # of connection points: 2
#     Edge 11, Type (0, 0), BuildingBlock: ZUJKAS_clean_linker_0, # of connection points: 2
# Relax obj value: 0.054
# Max RMSD: 0.165
# Mean RMSD: 0.088
data_MOF--net-kag--node1-BETGAK_clean_sbu_0--edge1-ZUJKAS_clean_linker_0
_symmetry_space_group_name_H-M    P1
_symmetry_Int_Tables_number       1
_symmetry_cell_setting            triclinic
loop_
_symmetry_equiv_pos_as_xyz
'x, y, z'
_cell_length_a     41.083016
_cell_length_b     51.446476
_cell_length_c     19.235953
_cell_angle_alpha  94.856358
_cell_angle_beta   90.738083
_cell_angle_gamma 101.7211
loop_
_atom_site_label
_atom_site_type_symbol
_atom_site_fract_x
_atom_site_fract_y
_atom_site_fract_z
_atom_type_partial_charge
La0 La 1.0351 0.48424 0.01062 0.0
La1 La 0.04866 0.54098 1.00288 0.0
C2 C 1.01423 0.43734 0.04402 0.0
C3 C 0.98405 0.41578 0.03735 0.0
C4 C 0.97144 0.40321 0.97195 0.0
C5 C 0.94523 0.38091 0.96748 0.0
C6 C 0.93099 0.37065 0.02824 0.0
C7 C 0.94294 0.38388 0.09347 0.0
C8 C 0.96922 0.40609 0.09791 0.0
C9 C 0.04348 0.49805 0.88077 0.0
C10 C 0.97273 0.51372 0.99866 0.0
C11 C 0.06973 0.58809 0.97107 0.0
C12 C 0.10004 0.60961 0.97937 0.0
C13 C 0.10661 0.62672 0.04118 0.0
C14 C 0.1332 0.64871 0.04595 0.0
C15 C 0.15382 0.65425 0.98896 0.0
C16 C 0.14772 0.63674 0.92775 0.0
C17 C 0.1211 0.61475 0.92296 0.0
C18 C 1.04024 0.52696 0.13267 0.0
C19 C 0.11106 0.51154 0.01396 0.0
O20 O 1.03029 0.44305 0.98728 0.0
O21 O 1.01289 0.45877 0.08474 0.0
O22 O 0.0533 0.47823 0.90541 0.0
O23 O 1.02779 0.50872 0.92759 0.0
O24 O 0.98359 0.49232 0.01548 0.0
O25 O 0.99455 0.53487 0.98202 0.0
O26 O 0.05325 0.58212 0.02714 0.0
O27 O 0.07111 0.56679 0.92982 0.0
O28 O 1.0302 0.54669 0.10807 0.0
O29 O 0.0561 0.51652 0.08579 0.0
O30 O 0.10012 0.53292 0.99734 0.0
O31 O 0.08932 0.49036 0.03071 0.0
H32 H 0.98237 0.4101 0.92418 0.0
H33 H 0.93698 0.37114 0.91637 0.0
H34 H 0.93225 0.3769 0.14134 0.0
H35 H 0.9785 0.41534 0.14897 0.0
H36 H 0.09068 0.62362 0.08542 0.0
H37 H 0.1368 0.66193 0.09354 0.0
H38 H 0.16332 0.64017 0.88313 0.0
H39 H 0.11656 0.60211 0.8744 0.0
La40 La 0.57783 0.01906 0.99633 0.0
La41 La 0.50656 1.00594 0.01142 0.0
C42 C 0.63539 0.03995 0.95963 0.0
C43 C 0.65598 0.06722 0.96577 0.0
C44 C 0.65693 0.08432 0.02711 0.0
C45 C 0.67704 0.10992 0.03219 0.0
C46 C 0.69625 0.11906 0.97578 0.0
C47 C 0.69469 0.10208 0.914 0.0
C48 C 0.67484 0.07639 0.9092 0.0
C49 C 0.56018 1.01149 0.12676 0.0
C50 C 0.53721 0.06645 0.01979 0.0
C51 C 0.44827 0.98562 0.0455 0.0
C52 C 0.42732 0.95848 0.04285 0.0
C53 C 0.39582 0.95339 0.00948 0.0
C54 C 0.37569 0.92784 1.00491 0.0
C55 C 0.38659 0.90672 0.03372 0.0
C56 C 0.41811 0.91191 0.06768 0.0
C57 C 0.43824 0.93752 0.07226 0.0
C58 C 0.52469 0.01381 0.88126 0.0
C59 C 0.54728 0.95864 0.98913 0.0
O60 O 0.62934 0.02848 0.01751 0.0
O61 O 0.60888 0.036 0.91868 0.0
O62 O 0.58555 1.00438 0.09735 0.0
O63 O 0.54633 0.02364 0.08415 0.0
O64 O 0.56443 0.05865 0.99781 0.0
O65 O 0.5113 0.04876 0.0377 0.0
O66 O 0.45543 0.995 0.98534 0.0
O67 O 0.474 0.99122 0.08898 0.0
O68 O 0.49969 0.02142 0.91093 0.0
O69 O 0.53807 1.00131 0.92372 0.0
O70 O 0.52034 0.96652 0.01261 0.0
O71 O 0.57281 0.97626 0.96935 0.0
H72 H 0.64223 0.07789 0.07122 0.0
H73 H 0.67737 0.12266 0.08012 0.0
H74 H 0.70937 0.10845 0.86983 0.0
H75 H 0.67434 0.06359 0.8613 0.0
H76 H 0.38675 0.96924 0.98677 0.0
H77 H 0.35138 0.92471 0.97943 0.0
H78 H 0.42744 0.89609 0.08988 0.0
H79 H 0.46239 0.94084 0.09853 0.0
La80 La 0.54897 0.54189 0.00893 0.0
La81 La 0.53476 0.48309 1.00256 0.0
C82 C 0.55108 0.59085 0.99643 0.0
C83 C 0.55181 0.61992 0.99187 0.0
C84 C 0.54162 0.63531 0.04834 0.0
C85 C 0.54187 0.66253 0.04484 0.0
C86 C 0.55241 0.6754 0.98478 0.0
C87 C 0.56281 0.65999 0.92831 0.0
C88 C 0.56241 0.63265 0.93173 0.0
C89 C 0.55526 0.52284 0.13171 0.0
C90 C 0.47211 0.50941 0.00788 0.0
C91 C 0.53273 0.43412 0.01462 0.0
C92 C 0.53208 0.40505 0.01895 0.0
C93 C 0.54292 0.38986 0.96289 0.0
C94 C 0.5428 0.36266 0.96623 0.0
C95 C 0.53173 0.3496 0.02571 0.0
C96 C 0.52066 0.3648 0.08175 0.0
C97 C 0.52095 0.39214 0.0785 0.0
C98 C 0.52846 0.50231 0.87987 0.0
C99 C 0.6116 0.51552 1.00409 0.0
O100 O 0.54383 0.5795 0.05403 0.0
O101 O 0.55738 0.57443 0.94484 0.0
O102 O 0.57435 0.54365 0.11012 0.0
O103 O 0.53289 0.51353 0.08506 0.0
O104 O 0.49355 0.53143 0.99433 0.0
O105 O 0.48321 0.48766 0.02036 0.0
O106 O 0.54015 0.44558 0.95723 0.0
O107 O 0.52617 0.45042 0.06621 0.0
O108 O 0.50931 0.48151 0.9014 0.0
O109 O 0.55087 0.51142 0.92652 0.0
O110 O 0.5901 0.49353 0.01763 0.0
O111 O 0.60056 0.53728 0.99145 0.0
H112 H 0.53335 0.62632 0.09564 0.0
H113 H 0.53415 0.67358 0.08993 0.0
H114 H 0.57079 0.66895 0.88082 0.0
H115 H 0.57037 0.62147 0.88717 0.0
H116 H 0.55163 0.39902 0.91605 0.0
H117 H 0.55104 0.35177 0.92149 0.0
H118 H 0.51224 0.35569 0.12879 0.0
H119 H 0.51247 0.40316 0.12273 0.0
H120 H 1.01457 0.53308 0.81108 0.0
H121 H 1.01359 0.53765 0.68453 0.0
H122 H 0.07203 0.47719 0.65212 0.0
H123 H 0.07268 0.47236 0.77731 0.0
H124 H 0.06381 0.55138 0.59147 0.0
H125 H 0.99597 0.4484 0.5133 0.0
H126 H 0.99896 0.46268 0.6027 0.0
H127 H 1.03292 0.44964 0.56526 0.0
C128 C 1.02713 0.52074 0.77686 0.0
C129 C 0.04341 0.50215 0.80455 0.0
C130 C 1.02658 0.52336 0.70437 0.0
C131 C 0.04209 0.50733 0.65779 0.0
C132 C 0.05902 0.48929 0.68596 0.0
H133 H 0.06944 0.49205 0.20218 0.0
H134 H 0.0705 0.48743 0.32872 0.0
C135 C 0.05957 0.48668 0.75802 0.0
C136 C 0.04121 0.50964 0.58017 0.0
H137 H 1.02015 0.47355 0.42189 0.0
C138 C 0.05402 0.53437 0.55456 0.0
C139 C 1.02869 0.4875 0.53116 0.0
C140 C 1.01306 0.46061 0.55438 0.0
C141 C 0.05527 0.53743 0.4822 0.0
C142 C 0.04274 0.51529 0.4332 0.0
C143 C 1.02994 0.49056 0.4588 0.0
C144 C 0.04182 0.51761 0.35559 0.0
C145 C 0.07086 0.56432 0.45897 0.0
C146 C 1.02476 0.53559 0.32752 0.0
C147 C 1.02415 0.53822 0.25547 0.0
C148 C 0.0404 0.52283 0.20887 0.0
C149 C 0.05682 0.50431 0.23646 0.0
C150 C 0.05741 0.50167 0.30894 0.0
H151 H 0.08792 0.57656 0.50005 0.0
H152 H 0.08498 0.56226 0.41067 0.0
H153 H 0.05098 0.57527 0.44802 0.0
H154 H 1.0117 0.54763 0.36141 0.0
H155 H 1.01094 0.55249 0.23624 0.0
H156 H 0.59287 0.98891 0.2217 0.0
H157 H 0.58626 0.98927 0.34786 0.0
H158 H 0.50926 0.03454 0.33381 0.0
H159 H 0.51551 0.03385 0.2066 0.0
H160 H 0.59569 0.02993 0.44877 0.0
H161 H 0.46423 0.97652 0.44968 0.0
H162 H 0.48812 0.97781 0.37154 0.0
H163 H 0.47034 1.00568 0.4025 0.0
C164 C 0.57431 0.99882 0.24523 0.0
C165 C 0.55466 1.01129 0.20362 0.0
C166 C 0.57061 0.99906 0.31777 0.0
C167 C 0.54698 1.01164 0.35126 0.0
C168 C 0.52722 0.02416 0.30974 0.0
H169 H 0.49234 0.0367 0.78641 0.0
H170 H 0.49892 0.03627 0.66022 0.0
C171 C 0.53092 0.02389 0.23681 0.0
C172 C 0.54391 1.01211 0.42946 0.0
H173 H 0.48916 0.99528 0.55929 0.0
C174 C 0.57236 0.02224 0.47275 0.0
C175 C 0.5136 1.00208 0.46167 0.0
C176 C 0.48239 0.98967 0.41906 0.0
C177 C 0.57125 0.0231 0.54637 0.0
C178 C 0.54093 0.0131 0.57856 0.0
C179 C 0.51248 1.00297 0.53529 0.0
C180 C 0.53787 0.01358 0.65675 0.0
C181 C 0.60247 0.03547 0.58901 0.0
C182 C 0.55746 1.00091 0.69823 0.0
C183 C 0.55376 1.00118 0.77115 0.0
C184 C 0.53021 0.01398 0.8044 0.0
C185 C 0.51074 0.02663 0.76284 0.0
C186 C 0.51443 0.02636 0.69029 0.0
H187 H 0.62071 0.04853 0.55836 0.0
H188 H 0.59675 0.04741 0.6364 0.0
H189 H 0.61439 0.01943 0.60583 0.0
H190 H 0.57528 0.99039 0.67411 0.0
H191 H 0.56902 0.9911 0.80133 0.0
H192 H 0.57773 0.53507 0.81237 0.0
H193 H 0.58203 0.53901 0.68587 0.0
H194 H 0.48895 0.48276 0.64959 0.0
H195 H 0.48434 0.47913 0.77495 0.0
H196 H 0.58567 0.50045 0.57915 0.0
H197 H 0.47306 0.54093 0.53368 0.0
H198 H 0.49026 0.54011 0.62007 0.0
H199 H 0.46441 0.51068 0.5762 0.0
C200 C 0.55797 0.52387 0.77742 0.0
C201 C 0.53061 0.50688 0.80408 0.0
C202 C 0.5605 0.52603 0.70494 0.0
C203 C 0.53558 0.51148 0.65749 0.0
C204 C 0.50818 0.49472 0.68447 0.0
H205 H 0.50612 0.49 0.19931 0.0
H206 H 0.50187 0.48609 0.32582 0.0
C207 C 0.50567 0.49255 0.75653 0.0
C208 C 0.53868 0.51281 0.57986 0.0
H209 H 0.4982 0.52476 0.43247 0.0
C210 C 0.56662 0.50598 0.54729 0.0
C211 C 0.51381 0.51978 0.53743 0.0
C212 C 0.48385 0.52854 0.56862 0.0
C213 C 0.57006 0.50543 0.47419 0.0
C214 C 0.54518 0.51239 0.43176 0.0
C215 C 0.51724 0.51923 0.46433 0.0
C216 C 0.54827 0.5137 0.35412 0.0
C217 C 0.60002 0.49669 0.44298 0.0
C218 C 0.57561 0.5305 0.32709 0.0
C219 C 0.57809 0.53267 0.25502 0.0
C220 C 0.55317 0.51828 0.20751 0.0
C221 C 0.52586 0.50124 0.23423 0.0
C222 C 0.52337 0.4991 0.30671 0.0
H223 H 0.61086 0.48434 0.47796 0.0
H224 H 0.5936 0.48508 0.39158 0.0
H225 H 0.61943 0.51457 0.43529 0.0
H226 H 0.59483 0.5425 0.36195 0.0
H227 H 0.59938 0.54611 0.23656 0.0
H228 H 0.14367 0.47121 0.04381 0.0
H229 H 0.20341 0.47116 0.04367 0.0
H230 H 0.22355 0.55146 0.98343 0.0
H231 H 0.16398 0.55174 0.98454 0.0
H232 H 0.24955 0.47517 0.94587 0.0
H233 H 0.29084 0.56153 0.14004 0.0
H234 H 0.24753 0.54623 0.12463 0.0
H235 H 0.26843 0.56961 0.06702 0.0
C236 C 0.16071 0.48902 0.03099 0.0
C237 C 0.14829 0.51157 0.01478 0.0
C238 C 0.19524 0.48894 0.03073 0.0
C239 C 0.21902 0.51147 0.01487 0.0
C240 C 0.20657 0.53391 0.99792 0.0
H241 H 0.4392 0.54992 0.98202 0.0
H242 H 0.37947 0.54976 0.98277 0.0
C243 C 0.17205 0.53399 0.99807 0.0
C244 C 0.25634 0.5112 0.01454 0.0
H245 H 0.33342 0.5453 0.07838 0.0
C246 C 0.26772 0.49051 0.97537 0.0
C247 C 0.28094 0.53105 0.05243 0.0
C248 C 0.27138 0.55321 0.09895 0.0
C249 C 0.30206 0.48944 0.97171 0.0
C250 C 0.32667 0.50927 0.00967 0.0
C251 C 0.31527 0.52996 0.04888 0.0
C252 C 0.36403 0.5091 0.00911 0.0
C253 C 0.31159 0.46735 0.92482 0.0
C254 C 0.37664 0.48654 0.02453 0.0
C255 C 0.41119 0.48656 0.02388 0.0
C256 C 0.43484 0.50924 0.0084 0.0
C257 C 0.42227 0.53192 0.99395 0.0
C258 C 0.38772 0.53187 0.99454 0.0
H259 H 0.29215 0.45921 0.88355 0.0
H260 H 0.33548 0.47435 0.89933 0.0
H261 H 0.31438 0.45082 0.95641 0.0
H262 H 0.35975 0.4688 0.03814 0.0
H263 H 0.41937 0.4687 0.03602 0.0
H264 H 0.73863 0.14249 0.08445 0.0
H265 H 0.7765 0.18618 0.09275 0.0
H266 H 0.7423 0.20002 0.88901 0.0
H267 H 0.70424 0.15636 0.88037 0.0
H268 H 0.82801 0.20337 0.98889 0.0
H269 H 0.73527 0.26833 0.02248 0.0
H270 H 0.72644 0.23396 0.04256 0.0
H271 H 0.72694 0.24177 0.95341 0.0
C272 C 0.73888 0.15497 0.04177 0.0
C273 C 0.7184 0.14598 0.98178 0.0
C274 C 0.76062 0.17985 0.04646 0.0
C275 C 0.76198 0.1964 0.99177 0.0
C276 C 0.74138 0.18765 0.93209 0.0
H277 H 0.87896 0.35425 0.93233 0.0
H278 H 0.83839 0.31195 0.92206 0.0
C279 C 0.71984 0.16264 0.92704 0.0
C280 C 0.78595 0.22234 0.99607 0.0
H281 H 0.79131 0.28975 0.01175 0.0
C282 C 0.82004 0.22228 0.99405 0.0
C283 C 0.77541 0.24692 1.00213 0.0
C284 C 0.73905 0.24798 0.00575 0.0
C285 C 0.84396 0.24617 0.99736 0.0
C286 C 0.83352 0.27085 1.00486 0.0
C287 C 0.79933 0.27087 0.00625 0.0
C288 C 0.85775 0.29679 0.01201 0.0
C289 C 0.88014 0.24471 0.99119 0.0
C290 C 0.88176 0.3026 0.06673 0.0
C291 C 0.9052 0.3266 0.07231 0.0
C292 C 0.90497 0.34558 0.02375 0.0
C293 C 0.88028 0.33998 0.97001 0.0
C294 C 0.85689 0.31587 0.96433 0.0
H295 H 0.88311 0.22522 0.96526 0.0
H296 H 0.89368 0.26085 0.96122 0.0
H297 H 0.89191 0.24694 0.04418 0.0
H298 H 0.88251 0.28846 0.10507 0.0
H299 H 0.92396 0.33 0.11397 0.0
H300 H 0.59649 0.93343 0.93753 0.0
H301 H 0.5977 0.8858 0.93199 0.0
H302 H 0.5024 0.87022 0.0284 0.0
H303 H 0.50066 0.91741 0.03237 0.0
H304 H 0.598 0.85207 0.03105 0.0
H305 H 0.48401 0.81484 0.86644 0.0
H306 H 0.50305 0.84977 0.87936 0.0
H307 H 0.47624 0.83422 0.94401 0.0
C308 C 0.57564 0.91986 0.95708 0.0
C309 C 0.54834 0.92951 0.98493 0.0
C310 C 0.57639 0.89251 0.95401 0.0
C311 C 0.54984 0.87398 0.97842 0.0
C312 C 0.52283 0.88369 0.00718 0.0
H313 H 0.50649 0.70389 0.0364 0.0
H314 H 0.50724 0.75148 0.03411 0.0
C315 C 0.52199 0.91093 0.00994 0.0
C316 C 0.55071 0.84474 0.9757 0.0
H317 H 0.50598 0.78218 0.92243 0.0
C318 C 0.57798 0.83685 0.00667 0.0
C319 C 0.52468 0.82456 0.94402 0.0
C320 C 0.49552 0.83125 0.90597 0.0
C321 C 0.57948 0.8097 0.0086 0.0
C322 C 0.55322 0.78956 0.97783 0.0
C323 C 0.52611 0.79743 0.94634 0.0
C324 C 0.5531 0.76029 0.97873 0.0
C325 C 0.60878 0.80282 0.04561 0.0
C326 C 0.57834 0.7489 0.94751 0.0
C327 C 0.57803 0.72152 0.94887 0.0
C328 C 0.55245 0.70465 0.98152 0.0
C329 C 0.52696 0.71611 0.01181 0.0
C330 C 0.52722 0.74343 0.01014 0.0
H331 H 0.62225 0.81982 0.08129 0.0
H332 H 0.60074 0.78541 0.07626 0.0
H333 H 0.62648 0.79759 0.00634 0.0
H334 H 0.5983 0.76118 0.92166 0.0
H335 H 0.59822 0.71367 0.92522 0.0
H336 H 0.9193 0.47343 0.02564 0.0
H337 H 0.85967 0.47397 0.02503 0.0
H338 H 0.88131 0.55517 0.97152 0.0
H339 H 0.94074 0.55451 0.97058 0.0
H340 H 0.82141 0.50072 0.09936 0.0
H341 H 0.80921 0.52705 0.82915 0.0
H342 H 0.84629 0.51783 0.86147 0.0
H343 H 0.83972 0.55127 0.88014 0.0
C344 C 0.9115 0.49141 0.0131 0.0
C345 C 0.93554 0.51384 0.9975 0.0
C346 C 0.87702 0.49173 0.01295 0.0
C347 C 0.86492 0.51443 0.99679 0.0
C348 C 0.88902 0.53696 0.98212 0.0
H349 H 0.66484 0.55633 0.97838 0.0
H350 H 0.72456 0.55597 0.97801 0.0
C351 C 0.92347 0.53663 0.98213 0.0
C352 C 0.82759 0.51469 0.99712 0.0
H353 H 0.763 0.52905 0.90109 0.0
C354 C 0.8088 0.50679 0.05553 0.0
C355 C 0.81015 0.52261 0.94065 0.0
C356 C 0.82726 0.52991 0.87404 0.0
C357 C 0.77428 0.50712 0.05971 0.0
C358 C 0.75686 0.51506 1.00327 0.0
C359 C 0.77563 0.52299 0.94488 0.0
C360 C 0.71951 0.5152 1.00361 0.0
C361 C 0.75709 0.4997 0.12614 0.0
C362 C 0.69553 0.49243 0.01699 0.0
C363 C 0.66107 0.49261 0.01732 0.0
C364 C 0.64883 0.51554 1.00379 0.0
C365 C 0.67276 0.53823 0.98945 0.0
C366 C 0.70728 0.53802 0.98907 0.0
H367 H 0.77509 0.50237 0.17107 0.0
H368 H 0.73814 0.51184 0.13889 0.0
H369 H 0.74448 0.47838 0.11963 0.0
H370 H 0.70338 0.47416 0.02644 0.0
H371 H 0.64391 0.47455 0.02799 0.0
H372 H 0.1966 0.6766 0.09902 0.0
H373 H 0.2375 0.71871 0.10636 0.0
H374 H 0.21292 0.72948 0.89359 0.0
H375 H 0.17129 0.68796 0.88645 0.0
H376 H 0.29358 0.73562 0.02625 0.0
H377 H 0.20031 0.79883 1.00029 0.0
H378 H 0.18897 0.76441 0.01893 0.0
H379 H 0.19788 0.77268 0.93126 0.0
C380 C 0.19973 0.688 0.05389 0.0
C381 C 0.18042 0.6789 0.99228 0.0
C382 C 0.22328 0.71198 0.05805 0.0
C383 C 0.22788 0.72747 1.00093 0.0
C384 C 0.20938 0.7181 0.93876 0.0
H385 H 0.34816 0.88057 0.92157 0.0
H386 H 0.31112 0.83668 0.9144 0.0
C387 C 0.18584 0.69415 0.93452 0.0
C388 C 0.25176 0.75354 0.00647 0.0
H389 H 0.25698 0.82022 0.99597 0.0
C390 C 0.2856 0.75415 0.01996 0.0
C391 C 0.24129 0.77771 0.99836 0.0
C392 C 0.2051 0.77853 0.98705 0.0
C393 C 0.30935 0.77819 0.02391 0.0
C394 C 0.29887 0.80233 0.01533 0.0
C395 C 0.26501 0.80171 1.00226 0.0
C396 C 0.32252 0.82851 0.01945 0.0
C397 C 0.34553 0.77747 0.03549 0.0
C398 C 0.34119 0.83862 0.08105 0.0
C399 C 0.36233 0.8638 0.08544 0.0
C400 C 0.36503 0.8795 0.02847 0.0
C401 C 0.34639 0.86921 0.96676 0.0
C402 C 0.32531 0.84405 0.96242 0.0
H403 H 0.35037 0.75714 0.02293 0.0
H404 H 0.36164 0.79145 1.00324 0.0
H405 H 0.35273 0.78359 0.09118 0.0
H406 H 0.33889 0.82728 0.12629 0.0
H407 H 0.37591 0.87125 0.13409 0.0
H408 H 0.57849 0.32154 0.9764 0.0
H409 H 0.57798 0.27397 0.97839 0.0
H410 H 0.48549 0.26347 0.08582 0.0
H411 H 0.48537 0.31097 0.0826 0.0
H412 H 0.57789 0.2429 0.09027 0.0
H413 H 0.46391 0.20536 0.92402 0.0
H414 H 0.48534 0.23982 0.9305 0.0
H415 H 0.45859 0.22737 0.99867 0.0
C416 C 0.55777 0.30915 0.99983 0.0
C417 C 0.53182 0.32038 0.02882 0.0
C418 C 0.55765 0.28185 1.00134 0.0
C419 C 0.53145 0.26478 0.03124 0.0
C420 C 0.50573 0.27593 0.06116 0.0
H421 H 0.48738 0.09152 0.06832 0.0
H422 H 0.4863 0.13917 0.07411 0.0
C423 C 0.50591 0.3033 0.06 0.0
C424 C 0.53143 0.23552 0.03187 0.0
H425 H 0.48757 0.17305 0.97542 0.0
C426 C 0.55814 0.22766 0.06499 0.0
C427 C 0.50567 0.2154 0.9993 0.0
C428 C 0.47687 0.2223 0.96054 0.0
C429 C 0.5596 0.20053 0.06724 0.0
C430 C 0.53406 0.18037 0.03382 0.0
C431 C 0.50722 0.18826 1.00114 0.0
C432 C 0.53496 0.15114 0.03118 0.0
C433 C 0.58822 0.19382 0.10712 0.0
C434 C 0.56241 0.14152 1.00436 0.0
C435 C 0.56319 0.11426 1.00147 0.0
C436 C 0.53631 0.0956 0.02442 0.0
C437 C 0.50862 0.10516 0.05041 0.0
C438 C 0.50795 0.13252 0.05361 0.0
H439 H 0.59914 0.21016 0.14738 0.0
H440 H 0.58031 0.1752 0.13314 0.0
H441 H 0.60808 0.19101 0.07038 0.0
H442 H 0.58324 0.15507 0.9847 0.0
H443 H 0.58487 0.1078 0.98048 0.0
loop_
_geom_bond_atom_site_label_1
_geom_bond_atom_site_label_2
_geom_bond_distance
_geom_bond_site_symmetry_2
_ccdc_geom_bond_type
La0 C2 2.928 . S
La0 O20 2.521 . S
La0 O21 2.628 1_556 S
La0 O22 2.554 . S
La0 O23 2.757 1_655 S
La0 O24 2.470 . S
La0 O29 2.482 1_556 S
La0 O31 2.503 1_655 S
La1 C11 2.928 . S
La1 O23 2.482 1_554 S
La1 O25 2.503 1_455 S
La1 O26 2.521 . S
La1 O27 2.628 1_554 S
La1 O28 2.554 . S
La1 O29 2.757 1_455 S
La1 O30 2.470 . S
C2 La0 2.928 . S
C2 C3 1.503 . S
C2 O20 1.261 . S
C2 O21 1.243 1_556 S
C3 C2 1.503 . S
C3 C4 1.394 . S
C3 C8 1.373 1_556 S
C4 C3 1.394 . S
C4 C5 1.380 . S
C4 H32 0.930 . S
C5 C4 1.380 . S
C5 C6 1.376 . S
C5 H33 0.930 . S
C6 C5 1.376 . S
C6 C7 1.370 1_556 S
C7 C6 1.370 1_554 S
C7 C8 1.396 . S
C7 H34 0.929 . S
C8 C3 1.373 1_554 S
C8 C7 1.396 . S
C8 H35 0.929 . S
C9 O22 1.237 1_455 S
C9 O23 1.293 . S
C10 O24 1.258 . S
C10 O25 1.256 1_556 S
C11 La1 2.928 . S
C11 C12 1.503 . S
C11 O26 1.261 . S
C11 O27 1.243 1_554 S
C12 C11 1.503 . S
C12 C13 1.394 . S
C12 C17 1.373 1_554 S
C13 C12 1.394 . S
C13 C14 1.380 . S
C13 H36 0.930 . S
C14 C13 1.380 . S
C14 C15 1.376 . S
C14 H37 0.930 . S
C15 C14 1.376 . S
C15 C16 1.370 1_554 S
C16 C15 1.370 1_556 S
C16 C17 1.396 . S
C16 H38 0.929 . S
C17 C12 1.373 1_556 S
C17 C16 1.396 . S
C17 H39 0.929 . S
C18 O28 1.240 . S
C18 O29 1.289 1_455 S
C19 O30 1.258 . S
C19 O31 1.256 1_554 S
O20 La0 2.521 . S
O20 C2 1.261 . S
O21 La0 2.628 1_554 S
O21 C2 1.243 1_554 S
O22 La0 2.554 . S
O22 C9 1.237 1_655 S
O23 La0 2.757 1_455 S
O23 La1 2.482 1_556 S
O23 C9 1.293 . S
O24 La0 2.470 . S
O24 C10 1.258 . S
O25 La1 2.503 1_655 S
O25 C10 1.256 1_554 S
O26 La1 2.521 . S
O26 C11 1.261 . S
O27 La1 2.628 1_556 S
O27 C11 1.243 1_556 S
O28 La1 2.554 . S
O28 C18 1.240 . S
O29 La0 2.482 1_554 S
O29 La1 2.757 1_655 S
O29 C18 1.289 1_655 S
O30 La1 2.470 . S
O30 C19 1.258 . S
O31 La0 2.503 1_455 S
O31 C19 1.256 1_556 S
H32 C4 0.930 . S
H33 C5 0.930 . S
H34 C7 0.929 . S
H35 C8 0.929 . S
H36 C13 0.930 . S
H37 C14 0.930 . S
H38 C16 0.929 . S
H39 C17 0.929 . S
La40 C42 2.927 1_554 S
La40 O60 2.521 . S
La40 O61 2.628 1_554 S
La40 O62 2.554 . S
La40 O63 2.757 1_545 S
La40 O64 2.470 . S
La40 O69 2.482 1_554 S
La40 O71 2.503 1_544 S
La41 C51 2.927 1_556 S
La41 O63 2.482 1_556 S
La41 O65 2.503 1_566 S
La41 O66 2.521 . S
La41 O67 2.628 1_556 S
La41 O68 2.554 . S
La41 O69 2.757 1_565 S
La41 O70 2.470 . S
C42 La40 2.927 1_556 S
C42 C43 1.503 . S
C42 O60 1.256 1_556 S
C42 O61 1.247 . S
C43 C42 1.503 . S
C43 C44 1.394 1_556 S
C43 C48 1.373 . S
C44 C43 1.394 1_554 S
C44 C45 1.380 . S
C44 H72 0.930 . S
C45 C44 1.380 . S
C45 C46 1.376 1_554 S
C45 H73 0.930 . S
C46 C45 1.376 1_556 S
C46 C47 1.370 . S
C47 C46 1.370 . S
C47 C48 1.396 . S
C47 H74 0.929 . S
C48 C43 1.373 . S
C48 C47 1.396 . S
C48 H75 0.929 . S
C49 O62 1.240 . S
C49 O63 1.289 1_545 S
C50 O64 1.258 . S
C50 O65 1.256 . S
C51 La41 2.927 1_554 S
C51 C52 1.504 . S
C51 O66 1.253 1_554 S
C51 O67 1.250 . S
C52 C51 1.504 . S
C52 C53 1.394 1_554 S
C52 C57 1.373 . S
C53 C52 1.394 1_556 S
C53 C54 1.380 . S
C53 H76 0.930 . S
C54 C53 1.380 . S
C54 C55 1.376 1_556 S
C54 H77 0.930 . S
C55 C54 1.376 1_554 S
C55 C56 1.370 . S
C56 C55 1.370 . S
C56 C57 1.396 . S
C56 H78 0.929 . S
C57 C52 1.373 . S
C57 C56 1.396 . S
C57 H79 0.929 . S
C58 O68 1.240 . S
C58 O69 1.289 1_565 S
C59 O70 1.258 . S
C59 O71 1.256 . S
O60 La40 2.521 . S
O60 C42 1.256 1_554 S
O61 La40 2.628 1_556 S
O61 C42 1.247 . S
O62 La40 2.554 . S
O62 C49 1.240 . S
O63 La40 2.757 1_565 S
O63 La41 2.482 1_554 S
O63 C49 1.289 1_565 S
O64 La40 2.470 . S
O64 C50 1.258 . S
O65 La41 2.503 1_544 S
O65 C50 1.256 . S
O66 La41 2.521 . S
O66 C51 1.253 1_556 S
O67 La41 2.628 1_554 S
O67 C51 1.250 . S
O68 La41 2.554 . S
O68 C58 1.240 . S
O69 La40 2.482 1_556 S
O69 La41 2.757 1_545 S
O69 C58 1.289 1_545 S
O70 La41 2.470 . S
O70 C59 1.258 . S
O71 La40 2.503 1_566 S
O71 C59 1.256 . S
H72 C44 0.930 . S
H73 C45 0.930 . S
H74 C47 0.929 . S
H75 C48 0.929 . S
H76 C53 0.930 . S
H77 C54 0.930 . S
H78 C56 0.929 . S
H79 C57 0.929 . S
La80 C82 2.928 . S
La80 O100 2.521 . S
La80 O101 2.628 1_554 S
La80 O102 2.554 . S
La80 O103 2.757 . S
La80 O104 2.470 . S
La80 O109 2.482 1_554 S
La80 O111 2.503 . S
La81 C91 2.928 . S
La81 O103 2.482 1_556 S
La81 O105 2.503 . S
La81 O106 2.521 . S
La81 O107 2.628 1_556 S
La81 O108 2.554 . S
La81 O109 2.757 . S
La81 O110 2.470 . S
C82 La80 2.928 . S
C82 C83 1.503 . S
C82 O100 1.261 . S
C82 O101 1.243 1_554 S
C83 C82 1.503 . S
C83 C84 1.394 . S
C83 C88 1.373 1_554 S
C84 C83 1.394 . S
C84 C85 1.380 . S
C84 H112 0.930 . S
C85 C84 1.380 . S
C85 C86 1.383 . S
C85 H113 0.930 . S
C86 C85 1.383 . S
C86 C87 1.364 1_554 S
C87 C86 1.364 1_556 S
C87 C88 1.396 . S
C87 H114 0.929 . S
C88 C83 1.373 1_556 S
C88 C87 1.396 . S
C88 H115 0.929 . S
C89 O102 1.240 . S
C89 O103 1.289 . S
C90 O104 1.258 . S
C90 O105 1.256 1_554 S
C91 La81 2.928 . S
C91 C92 1.503 . S
C91 O106 1.261 . S
C91 O107 1.243 1_556 S
C92 C91 1.503 . S
C92 C93 1.394 . S
C92 C97 1.373 1_556 S
C93 C92 1.394 . S
C93 C94 1.380 . S
C93 H116 0.930 . S
C94 C93 1.380 . S
C94 C95 1.379 . S
C94 H117 0.930 . S
C95 C94 1.379 . S
C95 C96 1.367 1_556 S
C96 C95 1.367 1_554 S
C96 C97 1.396 . S
C96 H118 0.929 . S
C97 C92 1.373 1_554 S
C97 C96 1.396 . S
C97 H119 0.929 . S
C98 O108 1.240 . S
C98 O109 1.289 . S
C99 O110 1.258 . S
C99 O111 1.256 1_556 S
O100 La80 2.521 . S
O100 C82 1.261 . S
O101 La80 2.628 1_556 S
O101 C82 1.243 1_556 S
O102 La80 2.554 . S
O102 C89 1.240 . S
O103 La80 2.757 . S
O103 La81 2.482 1_554 S
O103 C89 1.289 . S
O104 La80 2.470 . S
O104 C90 1.258 . S
O105 La81 2.503 . S
O105 C90 1.256 1_556 S
O106 La81 2.521 . S
O106 C91 1.261 . S
O107 La81 2.628 1_554 S
O107 C91 1.243 1_554 S
O108 La81 2.554 . S
O108 C98 1.240 . S
O109 La80 2.482 1_556 S
O109 La81 2.757 . S
O109 C98 1.289 . S
O110 La81 2.470 . S
O110 C99 1.258 . S
O111 La80 2.503 . S
O111 C99 1.256 1_554 S
H112 C84 0.930 . S
H113 C85 0.930 . S
H114 C87 0.929 . S
H115 C88 0.929 . S
H116 C93 0.930 . S
H117 C94 0.930 . S
H118 C96 0.929 . S
H119 C97 0.929 . S
H120 C128 0.929 . S
H121 C130 0.930 . S
H122 C132 0.930 . S
H123 C135 0.929 . S
H124 C138 0.930 . S
H125 C140 0.960 . S
H126 C140 0.960 . S
H127 C140 0.960 1_455 S
C128 H120 0.929 . S
C128 C129 1.377 1_655 S
C128 C130 1.384 . S
C129 C128 1.377 1_455 S
C129 C135 1.390 . S
C130 H121 0.930 . S
C130 C128 1.384 . S
C130 C131 1.372 1_655 S
C131 C130 1.372 1_455 S
C131 C132 1.400 . S
C131 C136 1.490 1_455 S
C132 H122 0.930 . S
C132 C131 1.400 . S
C132 C135 1.386 . S
H133 C149 0.930 . S
H134 C150 0.931 . S
C135 H123 0.929 . S
C135 C129 1.390 . S
C135 C132 1.386 . S
C136 C131 1.490 1_655 S
C136 C138 1.395 1_655 S
C136 C139 1.402 . S
H137 C143 0.930 . S
C138 H124 0.930 . S
C138 C136 1.395 1_455 S
C138 C141 1.403 . S
C139 C136 1.402 . S
C139 C140 1.524 . S
C139 C143 1.400 . S
C140 H125 0.960 . S
C140 H126 0.960 . S
C140 H127 0.960 1_655 S
C140 C139 1.524 . S
C141 C138 1.403 . S
C141 C142 1.391 . S
C141 C145 1.495 . S
C142 C141 1.391 . S
C142 C143 1.386 1_455 S
C142 C144 1.477 . S
C143 H137 0.930 . S
C143 C139 1.400 . S
C143 C142 1.386 1_655 S
C144 C142 1.477 . S
C144 C146 1.357 1_455 S
C144 C150 1.407 . S
C145 C141 1.495 . S
C145 H151 0.959 . S
C145 H152 0.961 . S
C145 H153 0.960 1_455 S
C146 C144 1.357 1_655 S
C146 C147 1.394 . S
C146 H154 0.930 . S
C147 C146 1.394 . S
C147 C148 1.381 . S
C147 H155 0.929 . S
C148 C147 1.381 . S
C148 C149 1.379 1_655 S
C149 H133 0.930 . S
C149 C148 1.379 1_455 S
C149 C150 1.379 . S
C150 H134 0.931 . S
C150 C144 1.407 . S
C150 C149 1.379 . S
H151 C145 0.959 . S
H152 C145 0.961 . S
H153 C145 0.960 1_655 S
H154 C146 0.930 . S
H155 C147 0.929 . S
H156 C164 0.929 . S
H157 C166 0.930 . S
H158 C168 0.930 . S
H159 C171 0.929 . S
H160 C174 0.930 . S
H161 C176 0.960 . S
H162 C176 0.960 . S
H163 C176 0.960 . S
C164 H156 0.929 . S
C164 C165 1.384 . S
C164 C166 1.384 . S
C165 C164 1.384 . S
C165 C171 1.382 1_545 S
C166 H157 0.930 . S
C166 C164 1.384 . S
C166 C167 1.372 . S
C167 C166 1.372 . S
C167 C168 1.400 1_545 S
C167 C172 1.490 . S
C168 H158 0.930 . S
C168 C167 1.400 1_565 S
C168 C171 1.386 . S
H169 C185 0.930 . S
H170 C186 0.931 . S
C171 H159 0.929 . S
C171 C165 1.382 1_565 S
C171 C168 1.386 . S
C172 C167 1.490 . S
C172 C174 1.395 . S
C172 C175 1.403 1_545 S
H173 C179 0.930 . S
C174 H160 0.930 . S
C174 C172 1.395 . S
C174 C177 1.403 . S
C175 C172 1.403 1_565 S
C175 C176 1.524 . S
C175 C179 1.400 . S
C176 H161 0.960 . S
C176 H162 0.960 . S
C176 H163 0.960 . S
C176 C175 1.524 . S
C177 C174 1.403 . S
C177 C178 1.392 . S
C177 C181 1.495 . S
C178 C177 1.392 . S
C178 C179 1.385 1_545 S
C178 C180 1.478 . S
C179 H173 0.930 . S
C179 C175 1.400 . S
C179 C178 1.385 1_565 S
C180 C178 1.478 . S
C180 C182 1.381 . S
C180 C186 1.383 1_545 S
C181 C177 1.495 . S
C181 H187 0.959 . S
C181 H188 0.961 . S
C181 H189 0.960 . S
C182 C180 1.381 . S
C182 C183 1.394 . S
C182 H190 0.930 . S
C183 C182 1.394 . S
C183 C184 1.383 . S
C183 H191 0.929 . S
C184 C183 1.383 . S
C184 C185 1.377 1_545 S
C185 H169 0.930 . S
C185 C184 1.377 1_565 S
C185 C186 1.379 . S
C186 H170 0.931 . S
C186 C180 1.383 1_565 S
C186 C185 1.379 . S
H187 C181 0.959 . S
H188 C181 0.961 . S
H189 C181 0.960 . S
H190 C182 0.930 . S
H191 C183 0.929 . S
H192 C200 0.929 . S
H193 C202 0.930 . S
H194 C204 0.930 . S
H195 C207 0.929 . S
H196 C210 0.930 . S
H197 C212 0.960 . S
H198 C212 0.960 . S
H199 C212 0.960 . S
C200 H192 0.929 . S
C200 C201 1.377 . S
C200 C202 1.384 . S
C201 C200 1.377 . S
C201 C207 1.390 . S
C202 H193 0.930 . S
C202 C200 1.384 . S
C202 C203 1.372 . S
C203 C202 1.372 . S
C203 C204 1.400 . S
C203 C208 1.490 . S
C204 H194 0.930 . S
C204 C203 1.400 . S
C204 C207 1.386 . S
H205 C221 0.930 . S
H206 C222 0.931 . S
C207 H195 0.929 . S
C207 C201 1.390 . S
C207 C204 1.386 . S
C208 C203 1.490 . S
C208 C210 1.395 . S
C208 C211 1.403 . S
H209 C215 0.930 . S
C210 H196 0.930 . S
C210 C208 1.395 . S
C210 C213 1.403 . S
C211 C208 1.403 . S
C211 C212 1.524 . S
C211 C215 1.400 . S
C212 H197 0.960 . S
C212 H198 0.960 . S
C212 H199 0.960 . S
C212 C211 1.524 . S
C213 C210 1.403 . S
C213 C214 1.392 . S
C213 C217 1.495 . S
C214 C213 1.392 . S
C214 C215 1.385 . S
C214 C216 1.478 . S
C215 H209 0.930 . S
C215 C211 1.400 . S
C215 C214 1.385 . S
C216 C214 1.478 . S
C216 C218 1.381 . S
C216 C222 1.383 . S
C217 C213 1.495 . S
C217 H223 0.959 . S
C217 H224 0.961 . S
C217 H225 0.960 . S
C218 C216 1.381 . S
C218 C219 1.394 . S
C218 H226 0.930 . S
C219 C218 1.394 . S
C219 C220 1.383 . S
C219 H227 0.929 . S
C220 C219 1.383 . S
C220 C221 1.377 . S
C221 H205 0.930 . S
C221 C220 1.377 . S
C221 C222 1.379 . S
C222 H206 0.931 . S
C222 C216 1.383 . S
C222 C221 1.379 . S
H223 C217 0.959 . S
H224 C217 0.961 . S
H225 C217 0.960 . S
H226 C218 0.930 . S
H227 C219 0.929 . S
H228 C236 0.929 . S
H229 C238 0.930 . S
H230 C240 0.930 . S
H231 C243 0.929 . S
H232 C246 0.930 . S
H233 C248 0.960 . S
H234 C248 0.960 . S
H235 C248 0.960 . S
C236 H228 0.929 . S
C236 C237 1.377 . S
C236 C238 1.384 . S
C237 C236 1.377 . S
C237 C243 1.390 1_556 S
C238 H229 0.930 . S
C238 C236 1.384 . S
C238 C239 1.372 . S
C239 C238 1.372 . S
C239 C240 1.400 1_556 S
C239 C244 1.490 . S
C240 H230 0.930 . S
C240 C239 1.400 1_554 S
C240 C243 1.386 . S
H241 C257 0.930 . S
H242 C258 0.931 1_554 S
C243 H231 0.929 . S
C243 C237 1.390 1_554 S
C243 C240 1.386 . S
C244 C239 1.490 . S
C244 C246 1.395 . S
C244 C247 1.403 1_556 S
H245 C251 0.930 . S
C246 H232 0.930 . S
C246 C244 1.395 . S
C246 C249 1.403 . S
C247 C244 1.403 1_554 S
C247 C248 1.524 . S
C247 C251 1.400 . S
C248 H233 0.960 . S
C248 H234 0.960 . S
C248 H235 0.960 . S
C248 C247 1.524 . S
C249 C246 1.403 . S
C249 C250 1.392 . S
C249 C253 1.495 . S
C250 C249 1.392 . S
C250 C251 1.385 1_556 S
C250 C252 1.478 . S
C251 H245 0.930 . S
C251 C247 1.400 . S
C251 C250 1.385 1_554 S
C252 C250 1.478 . S
C252 C254 1.381 . S
C252 C258 1.383 . S
C253 C249 1.495 . S
C253 H259 0.959 . S
C253 H260 0.961 . S
C253 H261 0.960 . S
C254 C252 1.381 . S
C254 C255 1.394 . S
C254 H262 0.930 . S
C255 C254 1.394 . S
C255 C256 1.383 . S
C255 H263 0.929 . S
C256 C255 1.383 . S
C256 C257 1.377 1_556 S
C257 H241 0.930 . S
C257 C256 1.377 1_554 S
C257 C258 1.379 1_554 S
C258 H242 0.931 1_556 S
C258 C252 1.383 . S
C258 C257 1.379 1_556 S
H259 C253 0.959 . S
H260 C253 0.961 . S
H261 C253 0.960 . S
H262 C254 0.930 . S
H263 C255 0.929 . S
H264 C272 0.929 . S
H265 C274 0.930 . S
H266 C276 0.930 . S
H267 C279 0.929 . S
H268 C282 0.930 . S
H269 C284 0.960 . S
H270 C284 0.960 . S
H271 C284 0.960 . S
C272 H264 0.929 . S
C272 C273 1.377 1_554 S
C272 C274 1.384 . S
C273 C272 1.377 1_556 S
C273 C279 1.390 . S
C274 H265 0.930 . S
C274 C272 1.384 . S
C274 C275 1.364 1_554 S
C275 C274 1.364 1_556 S
C275 C276 1.406 . S
C275 C280 1.491 . S
C276 H266 0.930 . S
C276 C275 1.406 . S
C276 C279 1.386 . S
H277 C293 0.930 . S
H278 C294 0.931 . S
C279 H267 0.929 . S
C279 C273 1.390 . S
C279 C276 1.386 . S
C280 C275 1.491 . S
C280 C282 1.395 . S
C280 C283 1.403 1_556 S
H281 C287 0.930 . S
C282 H268 0.930 . S
C282 C280 1.395 . S
C282 C285 1.403 . S
C283 C280 1.403 1_554 S
C283 C284 1.524 . S
C283 C287 1.400 . S
C284 H269 0.960 . S
C284 H270 0.960 . S
C284 H271 0.960 . S
C284 C283 1.524 . S
C285 C282 1.403 . S
C285 C286 1.392 . S
C285 C289 1.495 . S
C286 C285 1.392 . S
C286 C287 1.385 1_556 S
C286 C288 1.478 . S
C287 H281 0.930 . S
C287 C283 1.400 . S
C287 C286 1.385 1_554 S
C288 C286 1.478 . S
C288 C290 1.381 1_556 S
C288 C294 1.383 . S
C289 C285 1.495 . S
C289 H295 0.959 . S
C289 H296 0.961 . S
C289 H297 0.960 . S
C290 C288 1.381 1_554 S
C290 C291 1.394 . S
C290 H298 0.930 . S
C291 C290 1.394 . S
C291 C292 1.383 1_554 S
C291 H299 0.929 . S
C292 C291 1.383 1_556 S
C292 C293 1.377 . S
C293 H277 0.930 . S
C293 C292 1.377 . S
C293 C294 1.379 . S
C294 H278 0.931 . S
C294 C288 1.383 . S
C294 C293 1.379 . S
H295 C289 0.959 . S
H296 C289 0.961 . S
H297 C289 0.960 . S
H298 C290 0.930 . S
H299 C291 0.929 . S
H300 C308 0.929 . S
H301 C310 0.930 . S
H302 C312 0.930 . S
H303 C315 0.929 . S
H304 C318 0.930 . S
H305 C320 0.960 . S
H306 C320 0.960 . S
H307 C320 0.960 . S
C308 H300 0.929 . S
C308 C309 1.377 . S
C308 C310 1.384 . S
C309 C308 1.377 . S
C309 C315 1.390 1_556 S
C310 H301 0.930 . S
C310 C308 1.384 . S
C310 C311 1.372 . S
C311 C310 1.372 . S
C311 C312 1.400 1_556 S
C311 C316 1.490 . S
C312 H302 0.930 . S
C312 C311 1.400 1_554 S
C312 C315 1.386 . S
H313 C329 0.930 . S
H314 C330 0.931 . S
C315 H303 0.929 . S
C315 C309 1.390 1_554 S
C315 C312 1.386 . S
C316 C311 1.490 . S
C316 C318 1.395 1_556 S
C316 C319 1.403 . S
H317 C323 0.930 . S
C318 H304 0.930 . S
C318 C316 1.395 1_554 S
C318 C321 1.403 . S
C319 C316 1.403 . S
C319 C320 1.524 . S
C319 C323 1.400 . S
C320 H305 0.960 . S
C320 H306 0.960 . S
C320 H307 0.960 . S
C320 C319 1.524 . S
C321 C318 1.403 . S
C321 C322 1.394 . S
C321 C325 1.495 . S
C322 C321 1.394 . S
C322 C323 1.382 1_554 S
C322 C324 1.479 . S
C323 H317 0.930 . S
C323 C319 1.400 . S
C323 C322 1.382 1_556 S
C324 C322 1.479 . S
C324 C326 1.381 1_554 S
C324 C330 1.383 . S
C325 C321 1.495 . S
C325 H331 0.959 . S
C325 H332 0.961 . S
C325 H333 0.953 1_554 S
C326 C324 1.381 1_556 S
C326 C327 1.394 . S
C326 H334 0.930 . S
C327 C326 1.394 . S
C327 C328 1.383 1_556 S
C327 H335 0.929 . S
C328 C327 1.383 1_554 S
C328 C329 1.377 . S
C329 H313 0.930 . S
C329 C328 1.377 . S
C329 C330 1.379 . S
C330 H314 0.931 . S
C330 C324 1.383 . S
C330 C329 1.379 . S
H331 C325 0.959 . S
H332 C325 0.961 . S
H333 C325 0.953 1_556 S
H334 C326 0.930 . S
H335 C327 0.929 . S
H336 C344 0.929 . S
H337 C346 0.930 . S
H338 C348 0.930 . S
H339 C351 0.929 . S
H340 C354 0.930 . S
H341 C356 0.960 . S
H342 C356 0.960 . S
H343 C356 0.960 1_554 S
C344 H336 0.929 . S
C344 C345 1.377 1_556 S
C344 C346 1.384 . S
C345 C344 1.377 1_554 S
C345 C351 1.390 . S
C346 H337 0.930 . S
C346 C344 1.384 . S
C346 C347 1.372 1_556 S
C347 C346 1.372 1_554 S
C347 C348 1.400 . S
C347 C352 1.490 . S
C348 H338 0.930 . S
C348 C347 1.400 . S
C348 C351 1.386 . S
H349 C365 0.930 . S
H350 C366 0.931 . S
C351 H339 0.929 . S
C351 C345 1.390 . S
C351 C348 1.386 . S
C352 C347 1.490 . S
C352 C354 1.395 . S
C352 C355 1.403 1_554 S
H353 C359 0.930 . S
C354 H340 0.930 . S
C354 C352 1.395 . S
C354 C357 1.403 . S
C355 C352 1.403 1_556 S
C355 C356 1.524 . S
C355 C359 1.400 . S
C356 H341 0.960 . S
C356 H342 0.960 . S
C356 H343 0.960 1_556 S
C356 C355 1.524 . S
C357 C354 1.403 . S
C357 C358 1.392 . S
C357 C361 1.495 . S
C358 C357 1.392 . S
C358 C359 1.385 1_554 S
C358 C360 1.478 . S
C359 H353 0.930 . S
C359 C355 1.400 . S
C359 C358 1.385 1_556 S
C360 C358 1.478 . S
C360 C362 1.381 1_554 S
C360 C366 1.383 . S
C361 C357 1.495 . S
C361 H367 0.959 . S
C361 H368 0.961 . S
C361 H369 0.960 1_554 S
C362 C360 1.381 1_556 S
C362 C363 1.394 . S
C362 H370 0.930 . S
C363 C362 1.394 . S
C363 C364 1.383 1_556 S
C363 H371 0.929 . S
C364 C363 1.383 1_554 S
C364 C365 1.377 . S
C365 H349 0.930 . S
C365 C364 1.377 . S
C365 C366 1.379 . S
C366 H350 0.931 . S
C366 C360 1.383 . S
C366 C365 1.379 . S
H367 C361 0.959 . S
H368 C361 0.961 . S
H369 C361 0.960 1_556 S
H370 C362 0.930 . S
H371 C363 0.929 . S
H372 C380 0.929 . S
H373 C382 0.930 . S
H374 C384 0.930 . S
H375 C387 0.929 . S
H376 C390 0.930 . S
H377 C392 0.959 1_556 S
H378 C392 0.968 . S
H379 C392 0.953 1_556 S
C380 H372 0.929 . S
C380 C381 1.377 . S
C380 C382 1.384 . S
C381 C380 1.377 . S
C381 C387 1.390 1_554 S
C382 H373 0.930 . S
C382 C380 1.384 . S
C382 C383 1.372 . S
C383 C382 1.372 . S
C383 C384 1.400 1_554 S
C383 C388 1.490 . S
C384 H374 0.930 . S
C384 C383 1.400 1_556 S
C384 C387 1.386 . S
H385 C401 0.930 . S
H386 C402 0.931 . S
C387 H375 0.929 . S
C387 C381 1.390 1_556 S
C387 C384 1.386 . S
C388 C383 1.490 . S
C388 C390 1.395 . S
C388 C391 1.403 . S
H389 C395 0.930 1_556 S
C390 H376 0.930 . S
C390 C388 1.395 . S
C390 C393 1.403 . S
C391 C388 1.403 . S
C391 C392 1.524 . S
C391 C395 1.400 . S
C392 H377 0.959 1_554 S
C392 H378 0.968 . S
C392 H379 0.953 1_554 S
C392 C391 1.524 . S
C393 C390 1.403 . S
C393 C394 1.392 . S
C393 C397 1.495 . S
C394 C393 1.392 . S
C394 C395 1.385 . S
C394 C396 1.478 . S
C395 H389 0.930 1_554 S
C395 C391 1.400 . S
C395 C394 1.385 . S
C396 C394 1.478 . S
C396 C398 1.381 . S
C396 C402 1.383 1_554 S
C397 C393 1.495 . S
C397 H403 0.959 . S
C397 H404 0.961 1_554 S
C397 H405 0.960 . S
C398 C396 1.381 . S
C398 C399 1.394 . S
C398 H406 0.930 . S
C399 C398 1.394 . S
C399 C400 1.383 . S
C399 H407 0.929 . S
C400 C399 1.383 . S
C400 C401 1.377 1_554 S
C401 H385 0.930 . S
C401 C400 1.377 1_556 S
C401 C402 1.379 . S
C402 H386 0.931 . S
C402 C396 1.383 1_556 S
C402 C401 1.379 . S
H403 C397 0.959 . S
H404 C397 0.961 1_556 S
H405 C397 0.960 . S
H406 C398 0.930 . S
H407 C399 0.929 . S
H408 C416 0.929 . S
H409 C418 0.930 . S
H410 C420 0.930 . S
H411 C423 0.929 . S
H412 C426 0.930 . S
H413 C428 0.960 . S
H414 C428 0.960 . S
H415 C428 0.960 . S
C416 H408 0.929 . S
C416 C417 1.380 . S
C416 C418 1.384 . S
C417 C416 1.380 . S
C417 C423 1.386 1_556 S
C418 H409 0.930 . S
C418 C416 1.384 . S
C418 C419 1.372 . S
C419 C418 1.372 . S
C419 C420 1.400 1_556 S
C419 C424 1.490 1_556 S
C420 H410 0.930 . S
C420 C419 1.400 1_554 S
C420 C423 1.386 . S
H421 C437 0.930 . S
H422 C438 0.931 . S
C423 H411 0.929 . S
C423 C417 1.386 1_554 S
C423 C420 1.386 . S
C424 C419 1.490 1_554 S
C424 C426 1.394 . S
C424 C427 1.403 1_554 S
H425 C431 0.930 . S
C426 H412 0.930 . S
C426 C424 1.394 . S
C426 C429 1.403 . S
C427 C424 1.403 1_556 S
C427 C428 1.524 . S
C427 C431 1.400 . S
C428 H413 0.960 . S
C428 H414 0.960 . S
C428 H415 0.960 . S
C428 C427 1.524 . S
C429 C426 1.403 . S
C429 C430 1.392 . S
C429 C433 1.495 . S
C430 C429 1.392 . S
C430 C431 1.385 1_554 S
C430 C432 1.478 . S
C431 H425 0.930 . S
C431 C427 1.400 . S
C431 C430 1.385 1_556 S
C432 C430 1.478 . S
C432 C434 1.381 1_554 S
C432 C438 1.383 . S
C433 C429 1.495 . S
C433 H439 0.959 . S
C433 H440 0.961 . S
C433 H441 0.960 . S
C434 C432 1.381 1_556 S
C434 C435 1.394 . S
C434 H442 0.930 . S
C435 C434 1.394 . S
C435 C436 1.383 1_556 S
C435 H443 0.929 . S
C436 C435 1.383 1_554 S
C436 C437 1.377 . S
C437 H421 0.930 . S
C437 C436 1.377 . S
C437 C438 1.379 . S
C438 H422 0.931 . S
C438 C432 1.383 . S
C438 C437 1.379 . S
H439 C433 0.959 . S
H440 C433 0.961 . S
H441 C433 0.960 . S
H442 C434 0.930 . S
H443 C435 0.929 . S
C129 C9 1.449 . S
C148 C18 1.423 1_655 S
C165 C49 1.446 . S
C184 C58 1.446 1_545 S
C201 C98 1.452 . S
C220 C89 1.425 . S
C237 C19 2.599 1_556 S
C256 C90 2.569 1_556 S
C273 C46 0.846 . S
C292 C6 0.831 . S
C309 C59 1.908 . S
C328 C86 1.869 . S
C345 C10 2.599 1_554 S
C364 C99 2.573 1_554 S
C381 C15 0.844 . S
C400 C55 0.835 . S
C417 C95 1.889 . S
C436 C50 1.897 . S
