# Generated by pormake.
# Topology upa, (4)-cn, num edge types: 1
# Building blocks:
#     Node 0, Type 0, BuildingBlock: CEKHIL_clean_sbu_0, # of connection points: 4
#     Node 1, Type 0, BuildingBlock: CEKHIL_clean_sbu_0, # of connection points: 4
#     Node 2, Type 0, BuildingBlock: CEKHIL_clean_sbu_0, # of connection points: 4
#     Node 3, Type 0, BuildingBlock: CEKHIL_clean_sbu_0, # of connection points: 4
#     Node 4, Type 0, BuildingBlock: CEKHIL_clean_sbu_0, # of connection points: 4
#     Node 5, Type 0, BuildingBlock: CEKHIL_clean_sbu_0, # of connection points: 4
#     Node 6, Type 0, BuildingBlock: CEKHIL_clean_sbu_0, # of connection points: 4
#     Node 7, Type 0, BuildingBlock: CEKHIL_clean_sbu_0, # of connection points: 4
#     Edge 8, Type (0, 0), BuildingBlock: XUDNAN_clean_linker_2, # of connection points: 2
#     Edge 9, Type (0, 0), BuildingBlock: XUDNAN_clean_linker_2, # of connection points: 2
#     Edge 10, Type (0, 0), BuildingBlock: XUDNAN_clean_linker_2, # of connection points: 2
#     Edge 11, Type (0, 0), BuildingBlock: XUDNAN_clean_linker_2, # of connection points: 2
#     Edge 12, Type (0, 0), BuildingBlock: XUDNAN_clean_linker_2, # of connection points: 2
#     Edge 13, Type (0, 0), BuildingBlock: XUDNAN_clean_linker_2, # of connection points: 2
#     Edge 14, Type (0, 0), BuildingBlock: XUDNAN_clean_linker_2, # of connection points: 2
#     Edge 15, Type (0, 0), BuildingBlock: XUDNAN_clean_linker_2, # of connection points: 2
#     Edge 16, Type (0, 0), BuildingBlock: XUDNAN_clean_linker_2, # of connection points: 2
#     Edge 17, Type (0, 0), BuildingBlock: XUDNAN_clean_linker_2, # of connection points: 2
#     Edge 18, Type (0, 0), BuildingBlock: XUDNAN_clean_linker_2, # of connection points: 2
#     Edge 19, Type (0, 0), BuildingBlock: XUDNAN_clean_linker_2, # of connection points: 2
#     Edge 20, Type (0, 0), BuildingBlock: XUDNAN_clean_linker_2, # of connection points: 2
#     Edge 21, Type (0, 0), BuildingBlock: XUDNAN_clean_linker_2, # of connection points: 2
#     Edge 22, Type (0, 0), BuildingBlock: XUDNAN_clean_linker_2, # of connection points: 2
#     Edge 23, Type (0, 0), BuildingBlock: XUDNAN_clean_linker_2, # of connection points: 2
# Relax obj value: 0.236
# Max RMSD: 0.138
# Mean RMSD: 0.138
data_MOF--net-upa--node1-CEKHIL_clean_sbu_0--edge1-XUDNAN_clean_linker_2
_symmetry_space_group_name_H-M    P1
_symmetry_Int_Tables_number       1
_symmetry_cell_setting            triclinic
loop_
_symmetry_equiv_pos_as_xyz
'x, y, z'
_cell_length_a     25.634636
_cell_length_b     25.623345
_cell_length_c     42.715815
_cell_angle_alpha  89.884381
_cell_angle_beta   90.145469
_cell_angle_gamma 89.94704
loop_
_atom_site_label
_atom_site_type_symbol
_atom_site_fract_x
_atom_site_fract_y
_atom_site_fract_z
_atom_type_partial_charge
Co0 Co 0.20025 0.22111 0.33674 0.0
O1 O 0.26275 0.25838 0.32353 0.0
O2 O 0.26026 0.175 0.33627 0.0
C3 C 0.14358 0.24692 0.29839 0.0
O4 O 0.14379 0.16855 0.34882 0.0
Co5 Co 0.10319 0.28293 0.35948 0.0
O6 O 0.06921 0.21484 0.3515 0.0
C7 C 0.19056 0.26823 0.4033 0.0
C8 C 0.28739 0.2142 0.32588 0.0
C9 C 0.0936 0.17154 0.34976 0.0
O10 O 0.21345 0.23884 0.38292 0.0
O11 O 0.14829 0.293 0.39736 0.0
O12 O 0.179 0.21182 0.29324 0.0
O13 O 0.14992 0.27202 0.3245 0.0
Co14 Co 0.26527 0.69741 0.83315 0.0
O15 O 0.228 0.75947 0.81953 0.0
O16 O 0.31274 0.7567 0.82856 0.0
C17 C 0.23068 0.63925 0.79844 0.0
O18 O 0.31694 0.64026 0.84574 0.0
Co19 Co 0.20218 0.60403 0.86083 0.0
O20 O 0.26945 0.56757 0.85386 0.0
C21 C 0.22266 0.69522 0.90087 0.0
C22 C 0.27231 0.78381 0.81976 0.0
C23 C 0.31316 0.59058 0.85018 0.0
O24 O 0.2523 0.71525 0.87944 0.0
O25 O 0.19568 0.65384 0.89655 0.0
O26 O 0.26848 0.66995 0.79005 0.0
O27 O 0.21075 0.64981 0.82539 0.0
Co28 Co 0.81547 0.768 0.33276 0.0
O29 O 0.75453 0.72794 0.31844 0.0
O30 O 0.75747 0.81341 0.32365 0.0
C31 C 0.87868 0.73071 0.30276 0.0
O32 O 0.86657 0.82525 0.34352 0.0
Co33 Co 0.91281 0.72591 0.3672 0.0
O34 O 0.94538 0.79417 0.35638 0.0
C35 C 0.81619 0.74447 0.40352 0.0
C36 C 0.73086 0.77274 0.31538 0.0
C37 C 0.91542 0.83182 0.34884 0.0
O38 O 0.79325 0.76181 0.37854 0.0
O39 O 0.86265 0.72602 0.4033 0.0
O40 O 0.84699 0.76522 0.291 0.0
O41 O 0.86779 0.71552 0.33093 0.0
Co42 Co 0.72332 0.32193 0.83673 0.0
O43 O 0.76469 0.2632 0.82065 0.0
O44 O 0.68016 0.26144 0.82975 0.0
C45 C 0.75413 0.38639 0.80484 0.0
O46 O 0.66531 0.3704 0.85028 0.0
Co47 Co 0.7659 0.42227 0.86804 0.0
O48 O 0.69434 0.4508 0.8611 0.0
C49 C 0.7615 0.32399 0.90479 0.0
C50 C 0.72109 0.23714 0.81953 0.0
C51 C 0.6572 0.41888 0.85607 0.0
O52 O 0.73694 0.30067 0.88228 0.0
O53 O 0.77978 0.37033 0.90234 0.0
O54 O 0.71928 0.35365 0.79471 0.0
O55 O 0.77277 0.37617 0.8323 0.0
Co56 Co 0.69903 0.26659 0.19623 0.0
O57 O 0.75393 0.21707 0.20638 0.0
O58 O 0.76432 0.30252 0.20568 0.0
C59 C 0.63504 0.23252 0.22692 0.0
O60 O 0.65287 0.33009 0.18861 0.0
Co61 Co 0.59625 0.23392 0.16309 0.0
O62 O 0.57177 0.30417 0.17609 0.0
C63 C 0.69164 0.24722 0.12501 0.0
C64 C 0.7847 0.25675 0.21057 0.0
C65 C 0.60418 0.33964 0.18369 0.0
O66 O 0.71699 0.26262 0.14959 0.0
O67 O 0.64439 0.23117 0.12616 0.0
O68 O 0.67062 0.2626 0.23886 0.0
O69 O 0.64232 0.21946 0.19806 0.0
Co70 Co 0.22716 0.19783 0.69458 0.0
O71 O 0.26313 0.26094 0.70846 0.0
O72 O 0.17899 0.2559 0.69827 0.0
C73 C 0.25965 0.13951 0.73012 0.0
O74 O 0.17544 0.14074 0.68201 0.0
Co75 Co 0.2892 0.10559 0.66606 0.0
O76 O 0.22265 0.06836 0.67286 0.0
C77 C 0.2634 0.19437 0.62519 0.0
C78 C 0.21802 0.28414 0.70777 0.0
C79 C 0.17907 0.09126 0.67695 0.0
O80 O 0.23994 0.21599 0.64859 0.0
O81 O 0.28791 0.15101 0.62766 0.0
O82 O 0.22318 0.17233 0.73757 0.0
O83 O 0.28118 0.14856 0.70315 0.0
Co84 Co 0.31533 0.72373 0.19132 0.0
O85 O 0.25263 0.75895 0.20627 0.0
O86 O 0.25928 0.67417 0.19874 0.0
C87 C 0.37549 0.76159 0.22329 0.0
O88 O 0.3732 0.67295 0.1786 0.0
Co89 Co 0.40417 0.78543 0.15869 0.0
O90 O 0.44443 0.72187 0.16961 0.0
C91 C 0.31192 0.7568 0.12136 0.0
C92 C 0.23078 0.7133 0.20787 0.0
C93 C 0.4229 0.67792 0.17491 0.0
O94 O 0.29249 0.73324 0.14554 0.0
O95 O 0.35489 0.78211 0.12236 0.0
O96 O 0.34624 0.72387 0.23346 0.0
O97 O 0.36211 0.78009 0.19619 0.0
Co98 Co 0.77053 0.82229 0.68994 0.0
O99 O 0.72935 0.76346 0.706 0.0
O100 O 0.81397 0.76191 0.69708 0.0
C101 C 0.73951 0.88662 0.72172 0.0
O102 O 0.82813 0.87107 0.67629 0.0
Co103 Co 0.72695 0.92228 0.65834 0.0
O104 O 0.79831 0.95121 0.66508 0.0
C105 C 0.73351 0.82434 0.6216 0.0
C106 C 0.77305 0.73749 0.70721 0.0
C107 C 0.83574 0.91955 0.67018 0.0
O108 O 0.75746 0.80105 0.64442 0.0
O109 O 0.71481 0.87056 0.62381 0.0
O110 O 0.77442 0.85386 0.73189 0.0
O111 O 0.72074 0.87638 0.69432 0.0
H112 H 0.12003 0.06865 0.36312 0.0
H113 H 0.99473 0.16706 0.32773 0.0
H114 H 0.93856 0.09038 0.32209 0.0
H115 H 0.09156 0.95583 0.31264 0.0
H116 H 0.10619 0.90845 0.34263 0.0
H117 H 0.13888 0.97071 0.34261 0.0
H118 H 0.1077 0.98722 0.39941 0.0
H119 H 0.07489 0.9251 0.39956 0.0
H120 H 0.03902 0.98385 0.4082 0.0
H121 H 0.89442 0.00646 0.32195 0.0
H122 H 0.86297 0.91683 0.32722 0.0
H123 H 0.01478 0.86869 0.36282 0.0
C124 C 0.0809 0.0738 0.35403 0.0
C125 C 0.06161 0.12397 0.34625 0.0
C126 C 0.01015 0.12924 0.33442 0.0
C127 C 0.97794 0.08585 0.33087 0.0
C128 C 0.9976 0.03724 0.33919 0.0
C129 C 0.04774 0.03057 0.35046 0.0
C130 C 0.05778 0.97361 0.35852 0.0
C131 C 0.10119 0.95081 0.33786 0.0
C132 C 0.0706 0.96708 0.3935 0.0
C133 C 0.00513 0.94992 0.35048 0.0
C134 C 0.97144 0.98761 0.33916 0.0
C135 C 0.92037 0.9764 0.33067 0.0
C136 C 0.90287 0.92519 0.33391 0.0
C137 C 0.93624 0.88546 0.34564 0.0
C138 C 0.9883 0.89807 0.35382 0.0
H139 H 0.41718 0.62133 0.851 0.0
H140 H 0.3169 0.48446 0.85057 0.0
H141 H 0.39373 0.42782 0.85266 0.0
H142 H 0.5194 0.56518 0.80244 0.0
H143 H 0.5719 0.59556 0.82378 0.0
H144 H 0.50891 0.62669 0.82188 0.0
H145 H 0.50559 0.62945 0.8825 0.0
H146 H 0.56845 0.59806 0.88454 0.0
H147 H 0.51336 0.56976 0.90445 0.0
H148 H 0.47891 0.38529 0.85557 0.0
H149 H 0.57048 0.35794 0.85735 0.0
H150 H 0.61922 0.52046 0.85574 0.0
C151 C 0.41147 0.57947 0.8513 0.0
C152 C 0.36072 0.55758 0.8509 0.0
C153 C 0.35507 0.5025 0.85123 0.0
C154 C 0.39856 0.46977 0.85234 0.0
C155 C 0.44774 0.49244 0.85312 0.0
C156 C 0.45478 0.54586 0.85247 0.0
C157 C 0.51252 0.55936 0.85351 0.0
C158 C 0.52915 0.58842 0.82362 0.0
C159 C 0.52574 0.59103 0.88301 0.0
C160 C 0.53638 0.5051 0.85496 0.0
C161 C 0.49798 0.46734 0.8547 0.0
C162 C 0.50948 0.41439 0.85572 0.0
C163 C 0.56179 0.39931 0.85673 0.0
C164 C 0.60229 0.43698 0.8567 0.0
C165 C 0.58924 0.49072 0.85601 0.0
H166 H 0.50302 0.37565 0.17956 0.0
H167 H 0.66305 0.4276 0.19222 0.0
H168 H 0.63298 0.51888 0.19286 0.0
H169 H 0.4636 0.47712 0.12807 0.0
H170 H 0.39897 0.48364 0.14413 0.0
H171 H 0.43232 0.42185 0.14623 0.0
H172 H 0.42056 0.42023 0.20644 0.0
H173 H 0.3869 0.48194 0.20456 0.0
H174 H 0.44334 0.47456 0.22945 0.0
H175 H 0.58734 0.60387 0.18887 0.0
H176 H 0.52818 0.67865 0.18311 0.0
H177 H 0.39645 0.57303 0.17408 0.0
C178 C 0.53177 0.40615 0.18265 0.0
C179 C 0.58554 0.3943 0.1857 0.0
C180 C 0.62173 0.4355 0.18982 0.0
C181 C 0.60504 0.48755 0.19021 0.0
C182 C 0.55201 0.49781 0.18668 0.0
C183 C 0.51578 0.45841 0.18323 0.0
C184 C 0.46115 0.48041 0.17936 0.0
C185 C 0.43765 0.46482 0.14756 0.0
C186 C 0.42591 0.46327 0.20658 0.0
C187 C 0.47255 0.53843 0.18065 0.0
C188 C 0.52527 0.54736 0.18488 0.0
C189 C 0.54594 0.59744 0.18573 0.0
C190 C 0.51189 0.6397 0.18224 0.0
C191 C 0.45754 0.63185 0.17804 0.0
C192 C 0.43769 0.58037 0.17741 0.0
H193 H 0.07497 0.12205 0.67758 0.0
H194 H 0.17554 0.98533 0.67368 0.0
H195 H 0.09884 0.92892 0.67035 0.0
H196 H 0.97393 0.0621 0.72522 0.0
H197 H 0.92103 0.09422 0.70505 0.0
H198 H 0.98406 0.12503 0.70728 0.0
H199 H 0.98572 0.13242 0.64673 0.0
H200 H 0.92293 0.10107 0.64446 0.0
H201 H 0.97762 0.07444 0.62338 0.0
H202 H 0.01395 0.88655 0.66718 0.0
H203 H 0.92245 0.85906 0.66603 0.0
H204 H 0.87312 0.02115 0.67223 0.0
C205 C 0.08076 0.08027 0.67607 0.0
C206 C 0.13154 0.0584 0.67565 0.0
C207 C 0.13733 1.0034 0.67374 0.0
C208 C 0.09392 0.97079 0.67187 0.0
C209 C 0.04471 0.99346 0.67199 0.0
C210 C 0.03753 0.04675 0.67419 0.0
C211 C 0.97974 0.0602 0.67401 0.0
C212 C 0.96377 0.08696 0.70472 0.0
C213 C 0.96569 0.09404 0.64544 0.0
C214 C 0.95603 0.00605 0.67141 0.0
C215 C 0.99456 0.96841 0.67023 0.0
C216 C 0.98327 0.91553 0.66811 0.0
C217 C 0.93102 0.90037 0.66752 0.0
C218 C 0.89043 0.93789 0.66905 0.0
C219 C 0.90322 0.99158 0.67076 0.0
H220 H 0.24321 0.19258 0.43755 0.0
H221 H 0.18006 0.34927 0.44406 0.0
H222 H 0.19902 0.35024 0.50066 0.0
H223 H 0.18914 0.14688 0.50736 0.0
H224 H 0.24362 0.10653 0.51877 0.0
H225 H 0.23198 0.12027 0.47802 0.0
H226 H 0.32559 0.157 0.4726 0.0
H227 H 0.33767 0.14301 0.51336 0.0
H228 H 0.3471 0.20819 0.49848 0.0
H229 H 0.2155 0.33105 0.55764 0.0
H230 H 0.2306 0.29369 0.61026 0.0
H231 H 0.28347 0.14937 0.5677 0.0
C232 C 0.235 0.2277 0.45071 0.0
C233 C 0.21065 0.27114 0.43612 0.0
C234 C 0.19897 0.31565 0.45452 0.0
C235 C 0.20962 0.3166 0.48678 0.0
C236 C 0.23205 0.27269 0.50064 0.0
C237 C 0.24502 0.22915 0.48319 0.0
C238 C 0.26518 0.18575 0.50436 0.0
C239 C 0.2304 0.137 0.50198 0.0
C240 C 0.32228 0.17273 0.49674 0.0
C241 C 0.26047 0.21133 0.53636 0.0
C242 C 0.24158 0.26161 0.53364 0.0
C243 C 0.23105 0.29196 0.56 0.0
C244 C 0.23967 0.27033 0.58989 0.0
C245 C 0.25877 0.21871 0.59341 0.0
C246 C 0.26978 0.18927 0.56604 0.0
H247 H 0.30314 0.74226 0.93388 0.0
H248 H 0.14207 0.69265 0.94217 0.0
H249 H 0.14508 0.70885 0.99898 0.0
H250 H 0.34746 0.68191 1.00164 0.0
H251 H 0.39233 0.73239 1.01334 0.0
H252 H 0.37594 0.72438 0.97266 0.0
H253 H 0.34604 0.82081 0.96947 0.0
H254 H 0.36301 0.82935 1.01012 0.0
H255 H 0.29804 0.84467 0.99671 0.0
H256 H 0.16891 0.71859 0.05613 0.0
H257 H 0.21016 0.72852 0.1083 0.0
H258 H 0.35492 0.77376 0.06332 0.0
C259 C 0.26796 0.73678 0.94746 0.0
C260 C 0.22218 0.71666 0.93334 0.0
C261 C 0.17752 0.70834 0.95229 0.0
C262 C 0.17884 0.71733 0.98469 0.0
C263 C 0.22509 0.73499 0.99813 0.0
C264 C 0.26865 0.74546 0.98008 0.0
C265 C 0.31442 0.76092 1.00073 0.0
C266 C 0.36022 0.72261 0.99685 0.0
C267 C 0.33136 0.8173 0.99385 0.0
C268 C 0.29011 0.75628 0.03306 0.0
C269 C 0.23852 0.74135 0.03109 0.0
C270 C 0.20906 0.73125 0.05793 0.0
C271 C 0.23286 0.73677 0.08752 0.0
C272 C 0.28561 0.75257 0.09017 0.0
C273 C 0.31421 0.76264 0.06235 0.0
H274 H 0.80957 0.76904 0.59028 0.0
H275 H 0.65227 0.82909 0.58064 0.0
H276 H 0.65273 0.8067 0.52446 0.0
H277 H 0.85571 0.82128 0.52116 0.0
H278 H 0.89785 0.76769 0.51085 0.0
H279 H 0.88234 0.77954 0.55125 0.0
H280 H 0.84767 0.68512 0.55695 0.0
H281 H 0.86363 0.67273 0.51656 0.0
H282 H 0.79815 0.66185 0.53039 0.0
H283 H 0.67439 0.78887 0.46781 0.0
H284 H 0.71477 0.77444 0.416 0.0
H285 H 0.85834 0.72657 0.462 0.0
C286 C 0.7745 0.77536 0.5766 0.0
C287 C 0.73046 0.79988 0.59005 0.0
C288 C 0.68614 0.80967 0.57098 0.0
C289 C 0.68608 0.79716 0.53898 0.0
C290 C 0.73074 0.7749 0.5261 0.0
C291 C 0.77402 0.76359 0.54437 0.0
C292 C 0.81871 0.74426 0.52416 0.0
C293 C 0.86644 0.78036 0.52703 0.0
C294 C 0.83286 0.68761 0.53252 0.0
C295 C 0.79427 0.74777 0.49176 0.0
C296 C 0.74335 0.76508 0.49338 0.0
C297 C 0.71399 0.77446 0.46632 0.0
C298 C 0.73733 0.76626 0.43691 0.0
C299 C 0.78969 0.74891 0.4346 0.0
C300 C 0.818 0.73906 0.46265 0.0
H301 H 0.68642 0.27064 0.93812 0.0
H302 H 0.84557 0.32666 0.94361 0.0
H303 H 0.84844 0.30459 0.99988 0.0
H304 H 0.64632 0.32457 1.00797 0.0
H305 H 0.60361 0.27221 0.01961 0.0
H306 H 0.61667 0.2833 0.97879 0.0
H307 H 0.64862 0.18793 0.97282 0.0
H308 H 0.63507 0.17632 1.01364 0.0
H309 H 0.69927 0.16357 0.99832 0.0
H310 H 0.83021 0.28761 0.05718 0.0
H311 H 0.79295 0.27453 0.11002 0.0
H312 H 0.64533 0.23038 0.06764 0.0
C313 C 0.72254 0.27608 0.95091 0.0
C314 C 0.76618 0.29937 0.93627 0.0
C315 C 0.81197 0.30812 0.9542 0.0
C316 C 0.81392 0.29581 0.98624 0.0
C317 C 0.76966 0.2748 1.00031 0.0
C318 C 0.72492 0.26451 0.98317 0.0
C319 C 0.68119 0.24656 1.00454 0.0
C320 C 0.6342 0.28389 1.0026 0.0
C321 C 0.6651 0.19024 0.99687 0.0
C322 C 0.70785 0.24969 0.0363 0.0
C323 C 0.75903 0.26558 0.03339 0.0
C324 C 0.79038 0.27432 0.05969 0.0
C325 C 0.76883 0.26689 0.08969 0.0
C326 C 0.71624 0.25102 0.09332 0.0
C327 C 0.68587 0.24182 0.066 0.0
H328 H 0.56561 0.30017 0.25453 0.0
H329 H 0.59264 0.13647 0.23525 0.0
H330 H 0.50946 0.11402 0.26143 0.0
H331 H 0.50034 0.28624 0.32982 0.0
H332 H 0.45302 0.33667 0.3219 0.0
H333 H 0.5166 0.33964 0.30409 0.0
H334 H 0.47395 0.34498 0.24917 0.0
H335 H 0.41026 0.34224 0.26679 0.0
H336 H 0.42827 0.29532 0.23735 0.0
H337 H 0.4241 0.10923 0.29031 0.0
H338 H 0.33754 0.12242 0.31409 0.0
H339 H 0.36036 0.29015 0.31057 0.0
C340 C 0.55423 0.25958 0.25635 0.0
C341 C 0.58598 0.21974 0.24357 0.0
C342 C 0.56913 0.16731 0.2453 0.0
C343 C 0.52202 0.15428 0.26016 0.0
C344 C 0.49146 0.19431 0.27254 0.0
C345 C 0.50638 0.24602 0.27033 0.0
C346 C 0.4642 0.28171 0.28333 0.0
C347 C 0.48478 0.3129 0.31146 0.0
C348 C 0.44291 0.31821 0.25763 0.0
C349 C 0.42344 0.24195 0.29343 0.0
C350 C 0.44047 0.19177 0.28739 0.0
C351 C 0.41029 0.14836 0.29501 0.0
C352 C 0.36114 0.15628 0.30868 0.0
C353 C 0.34186 0.20728 0.31427 0.0
C354 C 0.37384 0.25065 0.30664 0.0
H355 H 0.30842 0.83313 0.76615 0.0
H356 H 0.23912 0.86217 0.85686 0.0
H357 H 0.2355 0.95665 0.84497 0.0
H358 H 0.38604 0.95438 0.76106 0.0
H359 H 0.37346 0.96363 0.71988 0.0
H360 H 0.37484 0.8987 0.73621 0.0
H361 H 0.28203 0.8816 0.71442 0.0
H362 H 0.28045 0.94642 0.69805 0.0
H363 H 0.22977 0.92563 0.72442 0.0
H364 H 0.2345 0.04653 0.82266 0.0
H365 H 0.23318 0.12664 0.79089 0.0
H366 H 0.30269 0.04272 0.71329 0.0
C367 C 0.29355 0.85973 0.78366 0.0
C368 C 0.27497 0.84062 0.81278 0.0
C369 C 0.25424 0.87619 0.83472 0.0
C370 C 0.25203 0.92989 0.82812 0.0
C371 C 0.27029 0.94766 0.79925 0.0
C372 C 0.29052 0.9138 0.77724 0.0
C373 C 0.30438 0.94328 0.7473 0.0
C374 C 0.36318 0.93978 0.74073 0.0
C375 C 0.27224 0.92301 0.71941 0.0
C376 C 0.28849 0.99878 0.75589 0.0
C377 C 0.26917 1.00011 0.78608 0.0
C378 C 0.24991 0.04598 0.7991 0.0
C379 C 0.24937 0.09146 0.78077 0.0
C380 C 0.26798 0.09147 0.74953 0.0
C381 C 0.28874 0.04442 0.73716 0.0
H382 H 0.65029 0.69964 0.30856 0.0
H383 H 0.69102 0.86118 0.29003 0.0
H384 H 0.60523 0.87559 0.26571 0.0
H385 H 0.57669 0.67794 0.23807 0.0
H386 H 0.52612 0.63929 0.25603 0.0
H387 H 0.59085 0.63983 0.27254 0.0
H388 H 0.55466 0.66915 0.32601 0.0
H389 H 0.48944 0.66784 0.31019 0.0
H390 H 0.51401 0.72647 0.3282 0.0
H391 H 0.51697 0.87265 0.24092 0.0
H392 H 0.42892 0.85322 0.22021 0.0
H393 H 0.44006 0.69592 0.25728 0.0
C394 C 0.64104 0.73796 0.29937 0.0
C395 C 0.67781 0.77924 0.30125 0.0
C396 C 0.66381 0.8289 0.28909 0.0
C397 C 0.61503 0.83756 0.2751 0.0
C398 C 0.57973 0.79643 0.27365 0.0
C399 C 0.59165 0.7477 0.28571 0.0
C400 C 0.54558 0.71081 0.2815 0.0
C401 C 0.56069 0.6642 0.2608 0.0
C402 C 0.52469 0.69249 0.31337 0.0
C403 C 0.50647 0.74636 0.26498 0.0
C404 C 0.52733 0.79546 0.26051 0.0
C405 C 0.49991 0.83453 0.24465 0.0
C406 C 0.44988 0.82323 0.23299 0.0
C407 C 0.4271 0.77358 0.23767 0.0
C408 C 0.45587 0.73473 0.25405 0.0
H409 H 0.79802 0.16166 0.80766 0.0
H410 H 0.632 0.19226 0.79873 0.0
H411 H 0.61965 0.10679 0.77391 0.0
H412 H 0.8135 0.09091 0.73463 0.0
H413 H 0.85819 0.04321 0.75032 0.0
H414 H 0.8554 0.10764 0.76705 0.0
H415 H 0.83758 0.06752 0.82166 0.0
H416 H 0.84032 1.00296 0.80506 0.0
H417 H 0.7835 0.02335 0.82662 0.0
H418 H 0.62448 0.0207 0.74742 0.0
H419 H 0.64579 0.93501 0.72434 0.0
H420 H 0.80697 0.9532 0.75328 0.0
C421 C 0.75915 0.15024 0.80048 0.0
C422 C 0.71596 0.18411 0.80524 0.0
C423 C 0.66572 0.16732 0.79561 0.0
C424 C 0.65823 0.11871 0.78133 0.0
C425 C 0.7012 0.08631 0.77702 0.0
C426 C 0.75068 0.10088 0.78652 0.0
C427 C 0.7896 0.05729 0.77963 0.0
C428 C 0.83165 0.07589 0.75654 0.0
C429 C 0.8142 0.03656 0.81006 0.0
C430 C 0.75416 0.01649 0.76467 0.0
C431 C 0.70345 0.03461 0.76314 0.0
C432 C 0.66389 0.00572 0.74892 0.0
C433 C 0.67631 0.95704 0.73588 0.0
C434 C 0.72761 0.93687 0.73762 0.0
C435 C 0.76706 0.967 0.75238 0.0
H436 H 0.05651 0.31343 0.30135 0.0
H437 H 0.11571 0.17472 0.25512 0.0
H438 H 0.03181 0.16334 0.22839 0.0
H439 H 0.92542 0.2674 0.31244 0.0
H440 H 0.89429 0.32896 0.30394 0.0
H441 H 0.95949 0.32767 0.3198 0.0
H442 H 0.99248 0.38279 0.27306 0.0
H443 H 0.92734 0.38457 0.25711 0.0
H444 H 0.98055 0.36054 0.23367 0.0
H445 H 0.94025 0.16198 0.20921 0.0
H446 H 0.84822 0.17651 0.19439 0.0
H447 H 0.84674 0.31978 0.24829 0.0
C448 C 0.05195 0.28113 0.28528 0.0
C449 C 0.0933 0.2451 0.28044 0.0
C450 C 0.08527 0.20318 0.2593 0.0
C451 C 0.03742 0.1961 0.24398 0.0
C452 C 0.99749 0.23168 0.24942 0.0
C453 C 0.00421 0.27389 0.26913 0.0
C454 C 0.95441 0.30646 0.27022 0.0
C455 C 0.93208 0.30768 0.30358 0.0
C456 C 0.9643 0.36188 0.25777 0.0
C457 C 0.919 0.27576 0.24817 0.0
C458 C 0.94472 0.23235 0.23688 0.0
C459 C 0.9199 0.19625 0.21753 0.0
C460 C 0.86751 0.20474 0.20929 0.0
C461 C 0.8404 0.24951 0.21978 0.0
C462 C 0.86673 0.28565 0.23942 0.0
H463 H 0.29283 0.35941 0.72157 0.0
H464 H 0.12565 0.3329 0.71992 0.0
H465 H 0.11108 0.42108 0.74117 0.0
H466 H 0.29714 0.43367 0.79295 0.0
H467 H 0.34617 0.47867 0.7794 0.0
H468 H 0.34384 0.4134 0.76391 0.0
H469 H 0.33742 0.45105 0.70766 0.0
H470 H 0.33951 0.51639 0.72315 0.0
H471 H 0.28619 0.49676 0.69824 0.0
H472 H 0.11434 0.50959 0.76652 0.0
H473 H 0.13527 0.59527 0.79009 0.0
H474 H 0.29942 0.56927 0.77181 0.0
C475 C 0.25316 0.37232 0.7255 0.0
C476 C 0.21035 0.33886 0.71902 0.0
C477 C 0.15911 0.35753 0.72451 0.0
C478 C 0.15039 0.40767 0.73669 0.0
C479 C 0.19324 0.43946 0.74301 0.0
C480 C 0.24365 0.42286 0.7373 0.0
C481 C 0.28263 0.46534 0.74596 0.0
C482 C 0.31962 0.44663 0.7721 0.0
C483 C 0.31324 0.48345 0.71703 0.0
C484 C 0.24626 0.50804 0.75764 0.0
C485 C 0.19488 0.49194 0.75603 0.0
C486 C 0.15434 0.52298 0.76734 0.0
C487 C 0.16653 0.57161 0.78067 0.0
C488 C 0.21866 0.58953 0.78201 0.0
C489 C 0.259 0.55731 0.77015 0.0
H490 H 0.15419 0.78762 0.21921 0.0
H491 H 0.18608 0.62174 0.22676 0.0
H492 H 0.09983 0.60826 0.25106 0.0
H493 H 0.08399 0.80124 0.29178 0.0
H494 H 0.03667 0.84665 0.27644 0.0
H495 H 0.1011 0.84384 0.25978 0.0
H496 H 0.0612 0.8275 0.2049 0.0
H497 H 0.99664 0.83041 0.22139 0.0
H498 H 0.01662 0.77389 0.19939 0.0
H499 H 0.01226 0.61342 0.27814 0.0
H500 H 0.92644 0.63578 0.3011 0.0
H501 H 0.94671 0.79664 0.27217 0.0
C502 C 0.14292 0.74843 0.22586 0.0
C503 C 0.17728 0.7057 0.22105 0.0
C504 C 0.1607 0.65508 0.23003 0.0
C505 C 0.11171 0.64704 0.24399 0.0
C506 C 0.07899 0.68988 0.24857 0.0
C507 C 0.09357 0.73955 0.23943 0.0
C508 C 0.05039 0.77863 0.24651 0.0
C509 C 0.06917 0.82003 0.27002 0.0
C510 C 0.03001 0.8041 0.21624 0.0
C511 C 0.00943 0.7432 0.26107 0.0
C512 C 0.02712 0.69227 0.26246 0.0
C513 C 0.9977 0.653 0.27666 0.0
C514 C 0.949 0.666 0.28966 0.0
C515 C 0.92938 0.71753 0.28777 0.0
C516 C 0.96008 0.75656 0.27316 0.0
H517 H 0.68768 0.45187 0.77137 0.0
H518 H 0.8472 0.43592 0.80401 0.0
H519 H 0.86859 0.52194 0.78133 0.0
H520 H 0.71547 0.52246 0.69849 0.0
H521 H 0.66007 0.56542 0.7019 0.0
H522 H 0.65762 0.50079 0.71858 0.0
H523 H 0.63482 0.54015 0.77263 0.0
H524 H 0.63731 0.60487 0.75615 0.0
H525 H 0.6772 0.58859 0.78959 0.0
H526 H 0.87371 0.60834 0.75511 0.0
H527 H 0.86149 0.69393 0.7301 0.0
H528 H 0.69676 0.66078 0.71718 0.0
C529 C 0.72729 0.46622 0.77314 0.0
C530 C 0.76622 0.43664 0.78889 0.0
C531 C 0.81708 0.45751 0.79172 0.0
C532 C 0.82956 0.50639 0.77891 0.0
C533 C 0.79049 0.53476 0.76376 0.0
C534 C 0.74021 0.5159 0.76103 0.0
C535 C 0.70515 0.55627 0.74516 0.0
C536 C 0.68328 0.53496 0.71419 0.0
C537 C 0.66102 0.57349 0.7672 0.0
C538 C 0.74373 0.60053 0.73934 0.0
C539 C 0.79279 0.58662 0.74999 0.0
C540 C 0.83545 0.61974 0.74677 0.0
C541 C 0.82806 0.66839 0.73238 0.0
C542 C 0.7782 0.68447 0.7216 0.0
C543 C 0.73532 0.6499 0.72529 0.0
loop_
_geom_bond_atom_site_label_1
_geom_bond_atom_site_label_2
_geom_bond_distance
_geom_bond_site_symmetry_2
_ccdc_geom_bond_type
Co0 O1 2.216 . S
Co0 O2 2.091 . S
Co0 O4 2.004 . S
Co0 O10 2.021 . S
Co0 O12 2.137 . S
Co0 O13 2.244 . S
O1 Co0 2.216 . S
O1 C8 1.247 . S
O2 Co0 2.091 . S
O2 C8 1.261 . S
C3 O12 1.247 . S
C3 O13 1.272 . S
O4 Co0 2.004 . S
O4 C9 1.259 . S
Co5 O6 2.061 . S
Co5 O11 2.052 . S
Co5 O13 2.135 . S
O6 Co5 2.061 . S
O6 C9 1.235 . S
C7 O10 1.238 . S
C7 O11 1.241 . S
C8 O1 1.247 . S
C8 O2 1.261 . S
C9 O4 1.259 . S
C9 O6 1.235 . S
O10 Co0 2.021 . S
O10 C7 1.238 . S
O11 Co5 2.052 . S
O11 C7 1.241 . S
O12 Co0 2.137 . S
O12 C3 1.247 . S
O13 Co0 2.244 . S
O13 C3 1.272 . S
O13 Co5 2.135 . S
Co14 O15 2.216 . S
Co14 O16 2.091 . S
Co14 O18 2.004 . S
Co14 O24 2.021 . S
Co14 O26 2.137 . S
Co14 O27 2.244 . S
O15 Co14 2.216 . S
O15 C22 1.247 . S
O16 Co14 2.091 . S
O16 C22 1.261 . S
C17 O26 1.247 . S
C17 O27 1.272 . S
O18 Co14 2.004 . S
O18 C23 1.259 . S
Co19 O20 2.061 . S
Co19 O25 2.052 . S
Co19 O27 2.135 . S
O20 Co19 2.061 . S
O20 C23 1.235 . S
C21 O24 1.238 . S
C21 O25 1.241 . S
C22 O15 1.247 . S
C22 O16 1.261 . S
C23 O18 1.259 . S
C23 O20 1.235 . S
O24 Co14 2.021 . S
O24 C21 1.238 . S
O25 Co19 2.052 . S
O25 C21 1.241 . S
O26 Co14 2.137 . S
O26 C17 1.247 . S
O27 Co14 2.244 . S
O27 C17 1.272 . S
O27 Co19 2.135 . S
Co28 O29 2.216 . S
Co28 O30 2.091 . S
Co28 O32 2.004 . S
Co28 O38 2.021 . S
Co28 O40 2.137 . S
Co28 O41 2.244 . S
O29 Co28 2.216 . S
O29 C36 1.247 . S
O30 Co28 2.091 . S
O30 C36 1.261 . S
C31 O40 1.247 . S
C31 O41 1.272 . S
O32 Co28 2.004 . S
O32 C37 1.259 . S
Co33 O34 2.061 . S
Co33 O39 2.052 . S
Co33 O41 2.135 . S
O34 Co33 2.061 . S
O34 C37 1.235 . S
C35 O38 1.238 . S
C35 O39 1.241 . S
C36 O29 1.247 . S
C36 O30 1.261 . S
C37 O32 1.259 . S
C37 O34 1.235 . S
O38 Co28 2.021 . S
O38 C35 1.238 . S
O39 Co33 2.052 . S
O39 C35 1.241 . S
O40 Co28 2.137 . S
O40 C31 1.247 . S
O41 Co28 2.244 . S
O41 C31 1.272 . S
O41 Co33 2.135 . S
Co42 O43 2.216 . S
Co42 O44 2.091 . S
Co42 O46 2.004 . S
Co42 O52 2.021 . S
Co42 O54 2.137 . S
Co42 O55 2.244 . S
O43 Co42 2.216 . S
O43 C50 1.247 . S
O44 Co42 2.091 . S
O44 C50 1.261 . S
C45 O54 1.247 . S
C45 O55 1.272 . S
O46 Co42 2.004 . S
O46 C51 1.259 . S
Co47 O48 2.061 . S
Co47 O53 2.052 . S
Co47 O55 2.135 . S
O48 Co47 2.061 . S
O48 C51 1.235 . S
C49 O52 1.238 . S
C49 O53 1.241 . S
C50 O43 1.247 . S
C50 O44 1.261 . S
C51 O46 1.259 . S
C51 O48 1.235 . S
O52 Co42 2.021 . S
O52 C49 1.238 . S
O53 Co47 2.052 . S
O53 C49 1.241 . S
O54 Co42 2.137 . S
O54 C45 1.247 . S
O55 Co42 2.244 . S
O55 C45 1.272 . S
O55 Co47 2.135 . S
Co56 O57 2.216 . S
Co56 O58 2.091 . S
Co56 O60 2.004 . S
Co56 O66 2.021 . S
Co56 O68 2.137 . S
Co56 O69 2.244 . S
O57 Co56 2.216 . S
O57 C64 1.247 . S
O58 Co56 2.091 . S
O58 C64 1.261 . S
C59 O68 1.247 . S
C59 O69 1.272 . S
O60 Co56 2.004 . S
O60 C65 1.259 . S
Co61 O62 2.061 . S
Co61 O67 2.052 . S
Co61 O69 2.135 . S
O62 Co61 2.061 . S
O62 C65 1.235 . S
C63 O66 1.238 . S
C63 O67 1.241 . S
C64 O57 1.247 . S
C64 O58 1.261 . S
C65 O60 1.259 . S
C65 O62 1.235 . S
O66 Co56 2.021 . S
O66 C63 1.238 . S
O67 Co61 2.052 . S
O67 C63 1.241 . S
O68 Co56 2.137 . S
O68 C59 1.247 . S
O69 Co56 2.244 . S
O69 C59 1.272 . S
O69 Co61 2.135 . S
Co70 O71 2.216 . S
Co70 O72 2.091 . S
Co70 O74 2.004 . S
Co70 O80 2.021 . S
Co70 O82 2.137 . S
Co70 O83 2.244 . S
O71 Co70 2.216 . S
O71 C78 1.247 . S
O72 Co70 2.091 . S
O72 C78 1.261 . S
C73 O82 1.247 . S
C73 O83 1.272 . S
O74 Co70 2.004 . S
O74 C79 1.259 . S
Co75 O76 2.061 . S
Co75 O81 2.052 . S
Co75 O83 2.135 . S
O76 Co75 2.061 . S
O76 C79 1.235 . S
C77 O80 1.238 . S
C77 O81 1.241 . S
C78 O71 1.247 . S
C78 O72 1.261 . S
C79 O74 1.259 . S
C79 O76 1.235 . S
O80 Co70 2.021 . S
O80 C77 1.238 . S
O81 Co75 2.052 . S
O81 C77 1.241 . S
O82 Co70 2.137 . S
O82 C73 1.247 . S
O83 Co70 2.244 . S
O83 C73 1.272 . S
O83 Co75 2.135 . S
Co84 O85 2.216 . S
Co84 O86 2.091 . S
Co84 O88 2.004 . S
Co84 O94 2.021 . S
Co84 O96 2.137 . S
Co84 O97 2.244 . S
O85 Co84 2.216 . S
O85 C92 1.247 . S
O86 Co84 2.091 . S
O86 C92 1.261 . S
C87 O96 1.247 . S
C87 O97 1.272 . S
O88 Co84 2.004 . S
O88 C93 1.259 . S
Co89 O90 2.061 . S
Co89 O95 2.052 . S
Co89 O97 2.135 . S
O90 Co89 2.061 . S
O90 C93 1.235 . S
C91 O94 1.238 . S
C91 O95 1.241 . S
C92 O85 1.247 . S
C92 O86 1.261 . S
C93 O88 1.259 . S
C93 O90 1.235 . S
O94 Co84 2.021 . S
O94 C91 1.238 . S
O95 Co89 2.052 . S
O95 C91 1.241 . S
O96 Co84 2.137 . S
O96 C87 1.247 . S
O97 Co84 2.244 . S
O97 C87 1.272 . S
O97 Co89 2.135 . S
Co98 O99 2.216 . S
Co98 O100 2.091 . S
Co98 O102 2.004 . S
Co98 O108 2.021 . S
Co98 O110 2.137 . S
Co98 O111 2.244 . S
O99 Co98 2.216 . S
O99 C106 1.247 . S
O100 Co98 2.091 . S
O100 C106 1.261 . S
C101 O110 1.247 . S
C101 O111 1.272 . S
O102 Co98 2.004 . S
O102 C107 1.259 . S
Co103 O104 2.061 . S
Co103 O109 2.052 . S
Co103 O111 2.135 . S
O104 Co103 2.061 . S
O104 C107 1.235 . S
C105 O108 1.238 . S
C105 O109 1.241 . S
C106 O99 1.247 . S
C106 O100 1.261 . S
C107 O102 1.259 . S
C107 O104 1.235 . S
O108 Co98 2.021 . S
O108 C105 1.238 . S
O109 Co103 2.052 . S
O109 C105 1.241 . S
O110 Co98 2.137 . S
O110 C101 1.247 . S
O111 Co98 2.244 . S
O111 C101 1.272 . S
O111 Co103 2.135 . S
H112 C124 0.930 . S
H113 C126 0.930 . S
H114 C127 0.930 . S
H115 C131 0.959 . S
H116 C131 0.959 . S
H117 C131 0.961 . S
H118 C132 0.960 . S
H119 C132 0.961 . S
H120 C132 0.959 . S
H121 C135 0.929 . S
H122 C136 0.931 . S
H123 C138 0.930 . S
C124 H112 0.930 . S
C124 C125 1.399 . S
C124 C129 1.399 . S
C125 C124 1.399 . S
C125 C126 1.376 . S
C126 H113 0.930 . S
C126 C125 1.376 . S
C126 C127 1.388 . S
C127 H114 0.930 . S
C127 C126 1.388 . S
C127 C128 1.390 . S
C128 C127 1.390 . S
C128 C129 1.394 . S
C128 C134 1.465 1_445 S
C129 C124 1.399 . S
C129 C128 1.394 . S
C129 C130 1.516 1_545 S
C130 C129 1.516 1_565 S
C130 C131 1.502 . S
C130 C132 1.561 1_465 S
C130 C133 1.526 1_455 S
C131 H115 0.959 . S
C131 H116 0.959 . S
C131 H117 0.961 . S
C131 C130 1.502 . S
C132 H118 0.960 . S
C132 H119 0.961 . S
C132 H120 0.959 . S
C132 C130 1.561 1_645 S
C133 C130 1.526 1_655 S
C133 C134 1.396 . S
C133 C138 1.390 . S
C134 C128 1.465 1_665 S
C134 C133 1.396 . S
C134 C135 1.399 . S
C135 H121 0.929 . S
C135 C134 1.399 . S
C135 C136 1.385 . S
C136 H122 0.931 . S
C136 C135 1.385 . S
C136 C137 1.389 . S
C137 C136 1.389 . S
C137 C138 1.387 . S
C138 H123 0.930 . S
C138 C133 1.390 . S
C138 C137 1.387 . S
H139 C151 0.930 . S
H140 C153 0.930 . S
H141 C154 0.930 . S
H142 C158 0.959 . S
H143 C158 0.959 . S
H144 C158 0.961 . S
H145 C159 0.960 . S
H146 C159 0.961 . S
H147 C159 0.959 . S
H148 C162 0.929 . S
H149 C163 0.931 . S
H150 C165 0.930 . S
C151 H139 0.930 . S
C151 C152 1.399 . S
C151 C156 1.399 . S
C152 C151 1.399 . S
C152 C153 1.376 . S
C153 H140 0.930 . S
C153 C152 1.376 . S
C153 C154 1.388 . S
C154 H141 0.930 . S
C154 C153 1.388 . S
C154 C155 1.390 . S
C155 C154 1.390 . S
C155 C156 1.394 . S
C155 C161 1.465 . S
C156 C151 1.399 . S
C156 C155 1.394 . S
C156 C157 1.516 . S
C157 C156 1.516 . S
C157 C158 1.502 . S
C157 C159 1.561 . S
C157 C160 1.526 . S
C158 H142 0.959 . S
C158 H143 0.959 . S
C158 H144 0.961 . S
C158 C157 1.502 . S
C159 H145 0.960 . S
C159 H146 0.961 . S
C159 H147 0.959 . S
C159 C157 1.561 . S
C160 C157 1.526 . S
C160 C161 1.396 . S
C160 C165 1.390 . S
C161 C155 1.465 . S
C161 C160 1.396 . S
C161 C162 1.399 . S
C162 H148 0.929 . S
C162 C161 1.399 . S
C162 C163 1.385 . S
C163 H149 0.931 . S
C163 C162 1.385 . S
C163 C164 1.389 . S
C164 C163 1.389 . S
C164 C165 1.387 . S
C165 H150 0.930 . S
C165 C160 1.390 . S
C165 C164 1.387 . S
H166 C178 0.930 . S
H167 C180 0.930 . S
H168 C181 0.930 . S
H169 C185 0.959 . S
H170 C185 0.959 . S
H171 C185 0.961 . S
H172 C186 0.960 . S
H173 C186 0.961 . S
H174 C186 0.959 . S
H175 C189 0.929 . S
H176 C190 0.931 . S
H177 C192 0.930 . S
C178 H166 0.930 . S
C178 C179 1.399 . S
C178 C183 1.399 . S
C179 C178 1.399 . S
C179 C180 1.376 . S
C180 H167 0.930 . S
C180 C179 1.376 . S
C180 C181 1.388 . S
C181 H168 0.930 . S
C181 C180 1.388 . S
C181 C182 1.390 . S
C182 C181 1.390 . S
C182 C183 1.394 . S
C182 C188 1.465 . S
C183 C178 1.399 . S
C183 C182 1.394 . S
C183 C184 1.516 . S
C184 C183 1.516 . S
C184 C185 1.502 . S
C184 C186 1.561 . S
C184 C187 1.526 . S
C185 H169 0.959 . S
C185 H170 0.959 . S
C185 H171 0.961 . S
C185 C184 1.502 . S
C186 H172 0.960 . S
C186 H173 0.961 . S
C186 H174 0.959 . S
C186 C184 1.561 . S
C187 C184 1.526 . S
C187 C188 1.396 . S
C187 C192 1.390 . S
C188 C182 1.465 . S
C188 C187 1.396 . S
C188 C189 1.399 . S
C189 H175 0.929 . S
C189 C188 1.399 . S
C189 C190 1.385 . S
C190 H176 0.931 . S
C190 C189 1.385 . S
C190 C191 1.389 . S
C191 C190 1.389 . S
C191 C192 1.387 . S
C192 H177 0.930 . S
C192 C187 1.390 . S
C192 C191 1.387 . S
H193 C205 0.930 . S
H194 C207 0.930 . S
H195 C208 0.930 1_565 S
H196 C212 0.959 . S
H197 C212 0.959 . S
H198 C212 0.961 . S
H199 C213 0.960 1_545 S
H200 C213 0.961 1_655 S
H201 C213 0.959 . S
H202 C216 0.929 . S
H203 C217 0.931 . S
H204 C219 0.930 . S
C205 H193 0.930 . S
C205 C206 1.399 . S
C205 C210 1.399 . S
C206 C205 1.399 . S
C206 C207 1.376 . S
C207 H194 0.930 . S
C207 C206 1.376 . S
C207 C208 1.388 . S
C208 H195 0.930 1_545 S
C208 C207 1.388 . S
C208 C209 1.390 . S
C209 C208 1.390 . S
C209 C210 1.394 . S
C209 C215 1.465 1_445 S
C210 C205 1.399 . S
C210 C209 1.394 . S
C210 C211 1.516 1_455 S
C211 C210 1.516 1_655 S
C211 C212 1.502 . S
C211 C213 1.561 1_645 S
C211 C214 1.526 1_545 S
C212 H196 0.959 . S
C212 H197 0.959 . S
C212 H198 0.961 . S
C212 C211 1.502 . S
C213 H199 0.960 1_565 S
C213 H200 0.961 1_455 S
C213 H201 0.959 . S
C213 C211 1.561 1_465 S
C214 C211 1.526 1_565 S
C214 C215 1.396 . S
C214 C219 1.390 . S
C215 C209 1.465 1_665 S
C215 C214 1.396 . S
C215 C216 1.399 . S
C216 H202 0.929 . S
C216 C215 1.399 . S
C216 C217 1.385 . S
C217 H203 0.931 . S
C217 C216 1.385 . S
C217 C218 1.389 . S
C218 C217 1.389 . S
C218 C219 1.387 . S
C219 H204 0.930 . S
C219 C214 1.390 . S
C219 C218 1.387 . S
H220 C232 0.930 . S
H221 C234 0.930 . S
H222 C235 0.930 . S
H223 C239 0.959 . S
H224 C239 0.959 . S
H225 C239 0.961 . S
H226 C240 0.960 . S
H227 C240 0.961 . S
H228 C240 0.959 . S
H229 C243 0.929 . S
H230 C244 0.931 . S
H231 C246 0.930 . S
C232 H220 0.930 . S
C232 C233 1.399 . S
C232 C237 1.399 . S
C233 C232 1.399 . S
C233 C234 1.376 . S
C234 H221 0.930 . S
C234 C233 1.376 . S
C234 C235 1.388 . S
C235 H222 0.930 . S
C235 C234 1.388 . S
C235 C236 1.390 . S
C236 C235 1.390 . S
C236 C237 1.394 . S
C236 C242 1.465 . S
C237 C232 1.399 . S
C237 C236 1.394 . S
C237 C238 1.516 . S
C238 C237 1.516 . S
C238 C239 1.502 . S
C238 C240 1.561 . S
C238 C241 1.526 . S
C239 H223 0.959 . S
C239 H224 0.959 . S
C239 H225 0.961 . S
C239 C238 1.502 . S
C240 H226 0.960 . S
C240 H227 0.961 . S
C240 H228 0.959 . S
C240 C238 1.561 . S
C241 C238 1.526 . S
C241 C242 1.396 . S
C241 C246 1.390 . S
C242 C236 1.465 . S
C242 C241 1.396 . S
C242 C243 1.399 . S
C243 H229 0.929 . S
C243 C242 1.399 . S
C243 C244 1.385 . S
C244 H230 0.931 . S
C244 C243 1.385 . S
C244 C245 1.389 . S
C245 C244 1.389 . S
C245 C246 1.387 . S
C246 H231 0.930 . S
C246 C241 1.390 . S
C246 C245 1.387 . S
H247 C259 0.930 . S
H248 C261 0.930 . S
H249 C262 0.930 . S
H250 C266 0.959 . S
H251 C266 0.959 . S
H252 C266 0.961 . S
H253 C267 0.960 . S
H254 C267 0.947 1_554 S
H255 C267 0.959 . S
H256 C270 0.929 . S
H257 C271 0.931 . S
H258 C273 0.930 . S
C259 H247 0.930 . S
C259 C260 1.399 . S
C259 C264 1.399 . S
C260 C259 1.399 . S
C260 C261 1.376 . S
C261 H248 0.930 . S
C261 C260 1.376 . S
C261 C262 1.388 . S
C262 H249 0.930 . S
C262 C261 1.388 . S
C262 C263 1.390 . S
C263 C262 1.390 . S
C263 C264 1.394 . S
C263 C269 1.465 1_556 S
C264 C259 1.399 . S
C264 C263 1.394 . S
C264 C265 1.516 . S
C265 C264 1.516 . S
C265 C266 1.502 . S
C265 C267 1.561 . S
C265 C268 1.526 1_556 S
C266 H250 0.959 . S
C266 H251 0.959 . S
C266 H252 0.961 . S
C266 C265 1.502 . S
C267 H253 0.960 . S
C267 H254 0.947 1_556 S
C267 H255 0.959 . S
C267 C265 1.561 . S
C268 C265 1.526 1_554 S
C268 C269 1.396 . S
C268 C273 1.390 . S
C269 C263 1.465 1_554 S
C269 C268 1.396 . S
C269 C270 1.399 . S
C270 H256 0.929 . S
C270 C269 1.399 . S
C270 C271 1.385 . S
C271 H257 0.931 . S
C271 C270 1.385 . S
C271 C272 1.389 . S
C272 C271 1.389 . S
C272 C273 1.387 . S
C273 H258 0.930 . S
C273 C268 1.390 . S
C273 C272 1.387 . S
H274 C286 0.930 . S
H275 C288 0.930 . S
H276 C289 0.930 . S
H277 C293 0.959 . S
H278 C293 0.959 . S
H279 C293 0.961 . S
H280 C294 0.960 . S
H281 C294 0.961 . S
H282 C294 0.959 . S
H283 C297 0.929 . S
H284 C298 0.931 . S
H285 C300 0.930 . S
C286 H274 0.930 . S
C286 C287 1.399 . S
C286 C291 1.399 . S
C287 C286 1.399 . S
C287 C288 1.376 . S
C288 H275 0.930 . S
C288 C287 1.376 . S
C288 C289 1.388 . S
C289 H276 0.930 . S
C289 C288 1.388 . S
C289 C290 1.390 . S
C290 C289 1.390 . S
C290 C291 1.394 . S
C290 C296 1.465 . S
C291 C286 1.399 . S
C291 C290 1.394 . S
C291 C292 1.516 . S
C292 C291 1.516 . S
C292 C293 1.502 . S
C292 C294 1.561 . S
C292 C295 1.526 . S
C293 H277 0.959 . S
C293 H278 0.959 . S
C293 H279 0.961 . S
C293 C292 1.502 . S
C294 H280 0.960 . S
C294 H281 0.961 . S
C294 H282 0.959 . S
C294 C292 1.561 . S
C295 C292 1.526 . S
C295 C296 1.396 . S
C295 C300 1.390 . S
C296 C290 1.465 . S
C296 C295 1.396 . S
C296 C297 1.399 . S
C297 H283 0.929 . S
C297 C296 1.399 . S
C297 C298 1.385 . S
C298 H284 0.931 . S
C298 C297 1.385 . S
C298 C299 1.389 . S
C299 C298 1.389 . S
C299 C300 1.387 . S
C300 H285 0.930 . S
C300 C295 1.390 . S
C300 C299 1.387 . S
H301 C313 0.930 . S
H302 C315 0.930 . S
H303 C316 0.930 . S
H304 C320 0.959 . S
H305 C320 0.959 . S
H306 C320 0.961 . S
H307 C321 0.960 . S
H308 C321 0.961 1_554 S
H309 C321 0.959 1_554 S
H310 C324 0.929 . S
H311 C325 0.931 . S
H312 C327 0.930 . S
C313 H301 0.930 . S
C313 C314 1.399 . S
C313 C318 1.399 . S
C314 C313 1.399 . S
C314 C315 1.376 . S
C315 H302 0.930 . S
C315 C314 1.376 . S
C315 C316 1.388 . S
C316 H303 0.930 . S
C316 C315 1.388 . S
C316 C317 1.390 . S
C317 C316 1.390 . S
C317 C318 1.394 . S
C317 C323 1.465 1_556 S
C318 C313 1.399 . S
C318 C317 1.394 . S
C318 C319 1.516 . S
C319 C318 1.516 . S
C319 C320 1.502 . S
C319 C321 1.561 . S
C319 C322 1.526 1_556 S
C320 H304 0.959 . S
C320 H305 0.959 . S
C320 H306 0.961 . S
C320 C319 1.502 . S
C321 H307 0.960 . S
C321 H308 0.961 1_556 S
C321 H309 0.959 1_556 S
C321 C319 1.561 . S
C322 C319 1.526 1_554 S
C322 C323 1.396 . S
C322 C327 1.390 . S
C323 C317 1.465 1_554 S
C323 C322 1.396 . S
C323 C324 1.399 . S
C324 H310 0.929 . S
C324 C323 1.399 . S
C324 C325 1.385 . S
C325 H311 0.931 . S
C325 C324 1.385 . S
C325 C326 1.389 . S
C326 C325 1.389 . S
C326 C327 1.387 . S
C327 H312 0.930 . S
C327 C322 1.390 . S
C327 C326 1.387 . S
H328 C340 0.930 . S
H329 C342 0.930 . S
H330 C343 0.930 . S
H331 C347 0.959 . S
H332 C347 0.959 . S
H333 C347 0.961 . S
H334 C348 0.960 . S
H335 C348 0.961 . S
H336 C348 0.959 . S
H337 C351 0.929 . S
H338 C352 0.931 . S
H339 C354 0.930 . S
C340 H328 0.930 . S
C340 C341 1.399 . S
C340 C345 1.399 . S
C341 C340 1.399 . S
C341 C342 1.376 . S
C342 H329 0.930 . S
C342 C341 1.376 . S
C342 C343 1.388 . S
C343 H330 0.930 . S
C343 C342 1.388 . S
C343 C344 1.390 . S
C344 C343 1.390 . S
C344 C345 1.394 . S
C344 C350 1.465 . S
C345 C340 1.399 . S
C345 C344 1.394 . S
C345 C346 1.516 . S
C346 C345 1.516 . S
C346 C347 1.502 . S
C346 C348 1.561 . S
C346 C349 1.526 . S
C347 H331 0.959 . S
C347 H332 0.959 . S
C347 H333 0.961 . S
C347 C346 1.502 . S
C348 H334 0.960 . S
C348 H335 0.961 . S
C348 H336 0.959 . S
C348 C346 1.561 . S
C349 C346 1.526 . S
C349 C350 1.396 . S
C349 C354 1.390 . S
C350 C344 1.465 . S
C350 C349 1.396 . S
C350 C351 1.399 . S
C351 H337 0.929 . S
C351 C350 1.399 . S
C351 C352 1.385 . S
C352 H338 0.931 . S
C352 C351 1.385 . S
C352 C353 1.389 . S
C353 C352 1.389 . S
C353 C354 1.387 . S
C354 H339 0.930 . S
C354 C349 1.390 . S
C354 C353 1.387 . S
H355 C367 0.930 . S
H356 C369 0.930 . S
H357 C370 0.930 . S
H358 C374 0.959 . S
H359 C374 0.959 . S
H360 C374 0.961 . S
H361 C375 0.960 . S
H362 C375 0.961 . S
H363 C375 0.959 . S
H364 C378 0.929 . S
H365 C379 0.931 . S
H366 C381 0.930 . S
C367 H355 0.930 . S
C367 C368 1.399 . S
C367 C372 1.399 . S
C368 C367 1.399 . S
C368 C369 1.376 . S
C369 H356 0.930 . S
C369 C368 1.376 . S
C369 C370 1.388 . S
C370 H357 0.930 . S
C370 C369 1.388 . S
C370 C371 1.390 . S
C371 C370 1.390 . S
C371 C372 1.394 . S
C371 C377 1.465 . S
C372 C367 1.399 . S
C372 C371 1.394 . S
C372 C373 1.516 . S
C373 C372 1.516 . S
C373 C374 1.502 . S
C373 C375 1.561 . S
C373 C376 1.526 . S
C374 H358 0.959 . S
C374 H359 0.959 . S
C374 H360 0.961 . S
C374 C373 1.502 . S
C375 H361 0.960 . S
C375 H362 0.961 . S
C375 H363 0.959 . S
C375 C373 1.561 . S
C376 C373 1.526 . S
C376 C377 1.396 . S
C376 C381 1.390 . S
C377 C371 1.465 . S
C377 C376 1.396 . S
C377 C378 1.399 . S
C378 H364 0.929 . S
C378 C377 1.399 . S
C378 C379 1.385 1_565 S
C379 H365 0.931 . S
C379 C378 1.385 1_545 S
C379 C380 1.389 . S
C380 C379 1.389 . S
C380 C381 1.387 1_545 S
C381 H366 0.930 . S
C381 C376 1.390 . S
C381 C380 1.387 1_565 S
H382 C394 0.930 . S
H383 C396 0.930 . S
H384 C397 0.930 . S
H385 C401 0.959 . S
H386 C401 0.959 . S
H387 C401 0.961 . S
H388 C402 0.960 . S
H389 C402 0.961 . S
H390 C402 0.959 . S
H391 C405 0.929 . S
H392 C406 0.931 . S
H393 C408 0.930 . S
C394 H382 0.930 . S
C394 C395 1.399 . S
C394 C399 1.399 . S
C395 C394 1.399 . S
C395 C396 1.376 . S
C396 H383 0.930 . S
C396 C395 1.376 . S
C396 C397 1.388 . S
C397 H384 0.930 . S
C397 C396 1.388 . S
C397 C398 1.390 . S
C398 C397 1.390 . S
C398 C399 1.394 . S
C398 C404 1.465 . S
C399 C394 1.399 . S
C399 C398 1.394 . S
C399 C400 1.516 . S
C400 C399 1.516 . S
C400 C401 1.502 . S
C400 C402 1.561 . S
C400 C403 1.526 . S
C401 H385 0.959 . S
C401 H386 0.959 . S
C401 H387 0.961 . S
C401 C400 1.502 . S
C402 H388 0.960 . S
C402 H389 0.961 . S
C402 H390 0.959 . S
C402 C400 1.561 . S
C403 C400 1.526 . S
C403 C404 1.396 . S
C403 C408 1.390 . S
C404 C398 1.465 . S
C404 C403 1.396 . S
C404 C405 1.399 . S
C405 H391 0.929 . S
C405 C404 1.399 . S
C405 C406 1.385 . S
C406 H392 0.931 . S
C406 C405 1.385 . S
C406 C407 1.389 . S
C407 C406 1.389 . S
C407 C408 1.387 . S
C408 H393 0.930 . S
C408 C403 1.390 . S
C408 C407 1.387 . S
H409 C421 0.930 . S
H410 C423 0.930 . S
H411 C424 0.930 . S
H412 C428 0.959 . S
H413 C428 0.959 . S
H414 C428 0.961 . S
H415 C429 0.960 . S
H416 C429 0.961 . S
H417 C429 0.959 . S
H418 C432 0.929 . S
H419 C433 0.931 . S
H420 C435 0.930 . S
C421 H409 0.930 . S
C421 C422 1.399 . S
C421 C426 1.399 . S
C422 C421 1.399 . S
C422 C423 1.376 . S
C423 H410 0.930 . S
C423 C422 1.376 . S
C423 C424 1.388 . S
C424 H411 0.930 . S
C424 C423 1.388 . S
C424 C425 1.390 . S
C425 C424 1.390 . S
C425 C426 1.394 . S
C425 C431 1.465 . S
C426 C421 1.399 . S
C426 C425 1.394 . S
C426 C427 1.516 . S
C427 C426 1.516 . S
C427 C428 1.502 . S
C427 C429 1.561 . S
C427 C430 1.526 . S
C428 H412 0.959 . S
C428 H413 0.959 . S
C428 H414 0.961 . S
C428 C427 1.502 . S
C429 H415 0.960 . S
C429 H416 0.961 . S
C429 H417 0.959 . S
C429 C427 1.561 . S
C430 C427 1.526 . S
C430 C431 1.396 . S
C430 C435 1.390 1_545 S
C431 C425 1.465 . S
C431 C430 1.396 . S
C431 C432 1.399 . S
C432 H418 0.929 . S
C432 C431 1.399 . S
C432 C433 1.385 . S
C433 H419 0.931 . S
C433 C432 1.385 . S
C433 C434 1.389 1_545 S
C434 C433 1.389 1_565 S
C434 C435 1.387 . S
C435 H420 0.930 . S
C435 C430 1.390 1_565 S
C435 C434 1.387 . S
H436 C448 0.930 . S
H437 C450 0.930 . S
H438 C451 0.930 . S
H439 C455 0.959 . S
H440 C455 0.959 . S
H441 C455 0.961 . S
H442 C456 0.960 . S
H443 C456 0.961 . S
H444 C456 0.959 . S
H445 C459 0.929 . S
H446 C460 0.931 . S
H447 C462 0.930 . S
C448 H436 0.930 . S
C448 C449 1.399 1_655 S
C448 C453 1.399 . S
C449 C448 1.399 1_455 S
C449 C450 1.376 . S
C450 H437 0.930 . S
C450 C449 1.376 . S
C450 C451 1.388 1_455 S
C451 H438 0.930 . S
C451 C450 1.388 1_655 S
C451 C452 1.390 . S
C452 C451 1.390 . S
C452 C453 1.394 . S
C452 C458 1.465 . S
C453 C448 1.399 . S
C453 C452 1.394 . S
C453 C454 1.516 . S
C454 C453 1.516 . S
C454 C455 1.502 . S
C454 C456 1.561 . S
C454 C457 1.526 . S
C455 H439 0.959 . S
C455 H440 0.959 . S
C455 H441 0.961 . S
C455 C454 1.502 . S
C456 H442 0.960 . S
C456 H443 0.961 . S
C456 H444 0.959 . S
C456 C454 1.561 . S
C457 C454 1.526 . S
C457 C458 1.396 . S
C457 C462 1.390 . S
C458 C452 1.465 . S
C458 C457 1.396 . S
C458 C459 1.399 . S
C459 H445 0.929 . S
C459 C458 1.399 . S
C459 C460 1.385 . S
C460 H446 0.931 . S
C460 C459 1.385 . S
C460 C461 1.389 . S
C461 C460 1.389 . S
C461 C462 1.387 . S
C462 H447 0.930 . S
C462 C457 1.390 . S
C462 C461 1.387 . S
H463 C475 0.930 . S
H464 C477 0.930 . S
H465 C478 0.930 . S
H466 C482 0.959 . S
H467 C482 0.959 . S
H468 C482 0.961 . S
H469 C483 0.960 . S
H470 C483 0.961 . S
H471 C483 0.959 . S
H472 C486 0.929 . S
H473 C487 0.931 . S
H474 C489 0.930 . S
C475 H463 0.930 . S
C475 C476 1.399 . S
C475 C480 1.399 . S
C476 C475 1.399 . S
C476 C477 1.376 . S
C477 H464 0.930 . S
C477 C476 1.376 . S
C477 C478 1.388 . S
C478 H465 0.930 . S
C478 C477 1.388 . S
C478 C479 1.390 . S
C479 C478 1.390 . S
C479 C480 1.394 . S
C479 C485 1.465 . S
C480 C475 1.399 . S
C480 C479 1.394 . S
C480 C481 1.516 . S
C481 C480 1.516 . S
C481 C482 1.502 . S
C481 C483 1.561 . S
C481 C484 1.526 . S
C482 H466 0.959 . S
C482 H467 0.959 . S
C482 H468 0.961 . S
C482 C481 1.502 . S
C483 H469 0.960 . S
C483 H470 0.961 . S
C483 H471 0.959 . S
C483 C481 1.561 . S
C484 C481 1.526 . S
C484 C485 1.396 . S
C484 C489 1.390 . S
C485 C479 1.465 . S
C485 C484 1.396 . S
C485 C486 1.399 . S
C486 H472 0.929 . S
C486 C485 1.399 . S
C486 C487 1.385 . S
C487 H473 0.931 . S
C487 C486 1.385 . S
C487 C488 1.389 . S
C488 C487 1.389 . S
C488 C489 1.387 . S
C489 H474 0.930 . S
C489 C484 1.390 . S
C489 C488 1.387 . S
H490 C502 0.930 . S
H491 C504 0.930 . S
H492 C505 0.930 . S
H493 C509 0.959 . S
H494 C509 0.959 . S
H495 C509 0.961 . S
H496 C510 0.960 . S
H497 C510 0.961 . S
H498 C510 0.959 . S
H499 C513 0.929 . S
H500 C514 0.931 . S
H501 C516 0.930 . S
C502 H490 0.930 . S
C502 C503 1.399 . S
C502 C507 1.399 . S
C503 C502 1.399 . S
C503 C504 1.376 . S
C504 H491 0.930 . S
C504 C503 1.376 . S
C504 C505 1.388 . S
C505 H492 0.930 . S
C505 C504 1.388 . S
C505 C506 1.390 . S
C506 C505 1.390 . S
C506 C507 1.394 . S
C506 C512 1.465 . S
C507 C502 1.399 . S
C507 C506 1.394 . S
C507 C508 1.516 . S
C508 C507 1.516 . S
C508 C509 1.502 . S
C508 C510 1.561 . S
C508 C511 1.526 . S
C509 H493 0.959 . S
C509 H494 0.959 . S
C509 H495 0.961 . S
C509 C508 1.502 . S
C510 H496 0.960 . S
C510 H497 0.961 . S
C510 H498 0.959 . S
C510 C508 1.561 . S
C511 C508 1.526 . S
C511 C512 1.396 . S
C511 C516 1.390 . S
C512 C506 1.465 . S
C512 C511 1.396 . S
C512 C513 1.399 . S
C513 H499 0.929 . S
C513 C512 1.399 . S
C513 C514 1.385 1_455 S
C514 H500 0.931 . S
C514 C513 1.385 1_655 S
C514 C515 1.389 . S
C515 C514 1.389 . S
C515 C516 1.387 1_655 S
C516 H501 0.930 . S
C516 C511 1.390 . S
C516 C515 1.387 1_455 S
H517 C529 0.930 . S
H518 C531 0.930 . S
H519 C532 0.930 . S
H520 C536 0.959 . S
H521 C536 0.959 . S
H522 C536 0.961 . S
H523 C537 0.960 . S
H524 C537 0.961 . S
H525 C537 0.959 . S
H526 C540 0.929 . S
H527 C541 0.931 . S
H528 C543 0.930 . S
C529 H517 0.930 . S
C529 C530 1.399 . S
C529 C534 1.399 . S
C530 C529 1.399 . S
C530 C531 1.376 . S
C531 H518 0.930 . S
C531 C530 1.376 . S
C531 C532 1.388 . S
C532 H519 0.930 . S
C532 C531 1.388 . S
C532 C533 1.390 . S
C533 C532 1.390 . S
C533 C534 1.394 . S
C533 C539 1.465 . S
C534 C529 1.399 . S
C534 C533 1.394 . S
C534 C535 1.516 . S
C535 C534 1.516 . S
C535 C536 1.502 . S
C535 C537 1.561 . S
C535 C538 1.526 . S
C536 H520 0.959 . S
C536 H521 0.959 . S
C536 H522 0.961 . S
C536 C535 1.502 . S
C537 H523 0.960 . S
C537 H524 0.961 . S
C537 H525 0.959 . S
C537 C535 1.561 . S
C538 C535 1.526 . S
C538 C539 1.396 . S
C538 C543 1.390 . S
C539 C533 1.465 . S
C539 C538 1.396 . S
C539 C540 1.399 . S
C540 H526 0.929 . S
C540 C539 1.399 . S
C540 C541 1.385 . S
C541 H527 0.931 . S
C541 C540 1.385 . S
C541 C542 1.389 . S
C542 C541 1.389 . S
C542 C543 1.387 . S
C543 H528 0.930 . S
C543 C538 1.390 . S
C543 C542 1.387 . S
C125 C9 0.486 . S
C137 C37 0.565 . S
C152 C23 0.462 . S
C164 C51 0.586 . S
C179 C65 0.487 . S
C191 C93 0.564 . S
C206 C79 0.462 . S
C218 C107 0.585 . S
C233 C7 1.384 . S
C245 C77 1.383 . S
C260 C21 1.343 . S
C272 C91 1.344 . S
C287 C105 1.332 . S
C299 C35 1.332 . S
C314 C49 1.325 . S
C326 C63 1.326 . S
C341 C59 1.745 . S
C353 C8 1.725 . S
C368 C22 1.780 . S
C380 C73 1.684 . S
C395 C36 1.727 . S
C407 C87 1.749 . S
C422 C50 1.729 . S
C434 C101 1.726 . S
C449 C3 1.683 . S
C461 C64 1.779 . S
C476 C78 1.725 . S
C488 C17 1.737 . S
C503 C92 1.745 . S
C515 C31 1.739 . S
C530 C45 1.681 . S
C542 C106 1.762 . S
