# Generated by pormake.
# Topology neb, (4)-cn, num edge types: 1
# Building blocks:
#     Node 0, Type 0, BuildingBlock: TATPOV_clean_sbu_0, # of connection points: 4
#     Node 1, Type 0, BuildingBlock: TATPOV_clean_sbu_0, # of connection points: 4
#     Node 2, Type 0, BuildingBlock: TATPOV_clean_sbu_0, # of connection points: 4
#     Node 3, Type 0, BuildingBlock: TATPOV_clean_sbu_0, # of connection points: 4
#     Node 4, Type 0, BuildingBlock: TATPOV_clean_sbu_0, # of connection points: 4
#     Node 5, Type 0, BuildingBlock: TATPOV_clean_sbu_0, # of connection points: 4
#     Node 6, Type 0, BuildingBlock: TATPOV_clean_sbu_0, # of connection points: 4
#     Node 7, Type 0, BuildingBlock: TATPOV_clean_sbu_0, # of connection points: 4
#     Node 8, Type 0, BuildingBlock: TATPOV_clean_sbu_0, # of connection points: 4
#     Node 9, Type 0, BuildingBlock: TATPOV_clean_sbu_0, # of connection points: 4
#     Node 10, Type 0, BuildingBlock: TATPOV_clean_sbu_0, # of connection points: 4
#     Node 11, Type 0, BuildingBlock: TATPOV_clean_sbu_0, # of connection points: 4
#     Node 12, Type 0, BuildingBlock: TATPOV_clean_sbu_0, # of connection points: 4
#     Node 13, Type 0, BuildingBlock: TATPOV_clean_sbu_0, # of connection points: 4
#     Node 14, Type 0, BuildingBlock: TATPOV_clean_sbu_0, # of connection points: 4
#     Node 15, Type 0, BuildingBlock: TATPOV_clean_sbu_0, # of connection points: 4
#     Edge 16, Type (0, 0), BuildingBlock: XUDNAN_clean_linker_2, # of connection points: 2
#     Edge 17, Type (0, 0), BuildingBlock: XUDNAN_clean_linker_2, # of connection points: 2
#     Edge 18, Type (0, 0), BuildingBlock: XUDNAN_clean_linker_2, # of connection points: 2
#     Edge 19, Type (0, 0), BuildingBlock: XUDNAN_clean_linker_2, # of connection points: 2
#     Edge 20, Type (0, 0), BuildingBlock: XUDNAN_clean_linker_2, # of connection points: 2
#     Edge 21, Type (0, 0), BuildingBlock: XUDNAN_clean_linker_2, # of connection points: 2
#     Edge 22, Type (0, 0), BuildingBlock: XUDNAN_clean_linker_2, # of connection points: 2
#     Edge 23, Type (0, 0), BuildingBlock: XUDNAN_clean_linker_2, # of connection points: 2
#     Edge 24, Type (0, 0), BuildingBlock: XUDNAN_clean_linker_2, # of connection points: 2
#     Edge 25, Type (0, 0), BuildingBlock: XUDNAN_clean_linker_2, # of connection points: 2
#     Edge 26, Type (0, 0), BuildingBlock: XUDNAN_clean_linker_2, # of connection points: 2
#     Edge 27, Type (0, 0), BuildingBlock: XUDNAN_clean_linker_2, # of connection points: 2
#     Edge 28, Type (0, 0), BuildingBlock: XUDNAN_clean_linker_2, # of connection points: 2
#     Edge 29, Type (0, 0), BuildingBlock: XUDNAN_clean_linker_2, # of connection points: 2
#     Edge 30, Type (0, 0), BuildingBlock: XUDNAN_clean_linker_2, # of connection points: 2
#     Edge 31, Type (0, 0), BuildingBlock: XUDNAN_clean_linker_2, # of connection points: 2
#     Edge 32, Type (0, 0), BuildingBlock: XUDNAN_clean_linker_2, # of connection points: 2
#     Edge 33, Type (0, 0), BuildingBlock: XUDNAN_clean_linker_2, # of connection points: 2
#     Edge 34, Type (0, 0), BuildingBlock: XUDNAN_clean_linker_2, # of connection points: 2
#     Edge 35, Type (0, 0), BuildingBlock: XUDNAN_clean_linker_2, # of connection points: 2
#     Edge 36, Type (0, 0), BuildingBlock: XUDNAN_clean_linker_2, # of connection points: 2
#     Edge 37, Type (0, 0), BuildingBlock: XUDNAN_clean_linker_2, # of connection points: 2
#     Edge 38, Type (0, 0), BuildingBlock: XUDNAN_clean_linker_2, # of connection points: 2
#     Edge 39, Type (0, 0), BuildingBlock: XUDNAN_clean_linker_2, # of connection points: 2
#     Edge 40, Type (0, 0), BuildingBlock: XUDNAN_clean_linker_2, # of connection points: 2
#     Edge 41, Type (0, 0), BuildingBlock: XUDNAN_clean_linker_2, # of connection points: 2
#     Edge 42, Type (0, 0), BuildingBlock: XUDNAN_clean_linker_2, # of connection points: 2
#     Edge 43, Type (0, 0), BuildingBlock: XUDNAN_clean_linker_2, # of connection points: 2
#     Edge 44, Type (0, 0), BuildingBlock: XUDNAN_clean_linker_2, # of connection points: 2
#     Edge 45, Type (0, 0), BuildingBlock: XUDNAN_clean_linker_2, # of connection points: 2
#     Edge 46, Type (0, 0), BuildingBlock: XUDNAN_clean_linker_2, # of connection points: 2
#     Edge 47, Type (0, 0), BuildingBlock: XUDNAN_clean_linker_2, # of connection points: 2
# Relax obj value: 0.060
# Max RMSD: 0.117
# Mean RMSD: 0.117
data_MOF--net-neb--node1-TATPOV_clean_sbu_0--edge1-XUDNAN_clean_linker_2
_symmetry_space_group_name_H-M    P1
_symmetry_Int_Tables_number       1
_symmetry_cell_setting            triclinic
loop_
_symmetry_equiv_pos_as_xyz
'x, y, z'
_cell_length_a     45.298154
_cell_length_b     21.919436
_cell_length_c     69.996383
_cell_angle_alpha  90.052537
_cell_angle_beta   93.577791
_cell_angle_gamma 89.854077
loop_
_atom_site_label
_atom_site_type_symbol
_atom_site_fract_x
_atom_site_fract_y
_atom_site_fract_z
_atom_type_partial_charge
Zn0 Zn 0.21695 0.04257 0.43893 0.0
Zn1 Zn 0.17236 0.03021 0.46046 0.0
O2 O 0.20553 0.07486 0.47795 0.0
O3 O 0.24293 0.07909 0.45931 0.0
O4 O 0.13913 0.01044 0.47824 0.0
O5 O 0.22138 0.95524 0.43298 0.0
O6 O 0.18142 0.94421 0.44895 0.0
C7 C 0.23225 0.08977 0.4752 0.0
C8 C 0.16504 0.10707 0.42427 0.0
O9 O 0.15376 0.08593 0.43915 0.0
O10 O 0.1917 0.09535 0.42116 0.0
C11 C 0.11446 0.03813 0.47934 0.0
O12 O 0.10877 0.08641 0.46862 0.0
C13 C 0.20119 0.92159 0.43873 0.0
Zn14 Zn 0.08147 0.0644 0.83123 0.0
Zn15 Zn 0.12984 0.05049 0.81009 0.0
O16 O 0.09764 0.09019 0.7918 0.0
O17 O 0.05822 0.10061 0.80849 0.0
O18 O 0.16359 0.0279 0.79334 0.0
O19 O 0.08083 0.97453 0.83747 0.0
O20 O 0.12097 0.9669 0.8215 0.0
C21 C 0.0709 0.10772 0.79303 0.0
C22 C 0.13429 0.13187 0.8453 0.0
O23 O 0.14656 0.10925 0.83095 0.0
O24 O 0.10757 0.11957 0.84812 0.0
C25 C 0.18391 0.06086 0.78696 0.0
O26 O 0.18467 0.11941 0.79098 0.0
C27 C 0.10188 0.94267 0.83173 0.0
Zn28 Zn 0.8276 0.95303 0.5769 0.0
Zn29 Zn 0.88086 0.9649 0.56281 0.0
O30 O 0.85621 0.90817 0.54381 0.0
O31 O 0.81183 0.90298 0.55489 0.0
O32 O 0.92041 0.97622 0.55026 0.0
O33 O 0.82127 0.04291 0.57745 0.0
O34 O 0.86611 0.05345 0.56747 0.0
C35 C 0.82967 0.88807 0.5425 0.0
C36 C 0.87522 0.90404 0.60175 0.0
O37 O 0.89145 0.92233 0.58864 0.0
O38 O 0.84743 0.91133 0.59997 0.0
C39 C 0.94007 0.93448 0.55132 0.0
O40 O 0.93457 0.88409 0.5606 0.0
C41 C 0.84239 0.07697 0.57325 0.0
Zn42 Zn 0.95067 0.95092 0.18283 0.0
Zn43 Zn 0.89926 0.95269 0.2011 0.0
O44 O 0.92822 0.89664 0.21697 0.0
O45 O 0.97129 0.90168 0.20404 0.0
O46 O 0.86286 0.95888 0.21685 0.0
O47 O 0.95177 0.04267 0.1822 0.0
O48 O 0.91016 0.04256 0.19685 0.0
C49 C 0.95539 0.88101 0.21678 0.0
C50 C 0.89956 0.89638 0.1615 0.0
O51 O 0.88517 0.91222 0.17579 0.0
O52 O 0.92712 0.90656 0.16143 0.0
C53 C 0.86482 0.99072 0.23211 0.0
O54 O 0.89022 0.01685 0.23712 0.0
C55 C 0.93066 0.07152 0.1891 0.0
Zn56 Zn 0.21759 0.59958 0.92307 0.0
Zn57 Zn 0.15003 0.5512 0.95458 0.0
O58 O 0.17635 0.60097 0.97446 0.0
O59 O 0.19813 0.6039 0.94828 0.0
O60 O 0.11857 0.5062 0.96862 0.0
O61 O 0.21405 0.50732 0.92005 0.0
O62 O 0.1749 0.48866 0.93789 0.0
C63 C 0.19817 0.61959 0.96566 0.0
C64 C 0.14883 0.62758 0.92485 0.0
O65 O 0.12876 0.61114 0.93553 0.0
O66 O 0.17472 0.60947 0.92984 0.0
C67 C 0.10005 0.53668 0.97778 0.0
O68 O 0.10198 0.59649 0.97798 0.0
C69 C 0.19519 0.47081 0.92686 0.0
Zn70 Zn 0.07933 0.54418 0.33518 0.0
Zn71 Zn 0.12464 0.52788 0.31432 0.0
O72 O 0.09219 0.56956 0.29553 0.0
O73 O 0.05435 0.57744 0.31374 0.0
O74 O 0.1589 0.50431 0.2978 0.0
O75 O 0.07479 0.45774 0.34222 0.0
O76 O 0.11466 0.44354 0.32635 0.0
C77 C 0.06534 0.58496 0.29778 0.0
C78 C 0.13069 0.60951 0.34975 0.0
O79 O 0.1425 0.58594 0.33536 0.0
O80 O 0.10383 0.59912 0.35254 0.0
C81 C 0.18074 0.53667 0.29322 0.0
O82 O 0.18249 0.59376 0.2989 0.0
C83 C 0.09472 0.4227 0.33671 0.0
Zn84 Zn 0.82291 0.45141 0.08224 0.0
Zn85 Zn 0.87684 0.45263 0.06834 0.0
O86 O 0.85067 0.39827 0.04999 0.0
O87 O 0.80643 0.39617 0.06131 0.0
O88 O 0.91564 0.45925 0.05518 0.0
O89 O 0.81888 0.54228 0.08046 0.0
O90 O 0.86516 0.54269 0.07263 0.0
C91 C 0.82401 0.37917 0.049 0.0
C92 C 0.87038 0.40068 0.10786 0.0
O93 O 0.88684 0.4101 0.09403 0.0
O94 O 0.84322 0.41529 0.10633 0.0
C95 C 0.92854 0.41256 0.04875 0.0
O96 O 0.91687 0.35849 0.05113 0.0
C97 C 0.84203 0.57148 0.07706 0.0
Zn98 Zn 0.94143 0.4645 0.67589 0.0
Zn99 Zn 0.89759 0.45689 0.69713 0.0
O100 O 0.93037 0.40093 0.71145 0.0
O101 O 0.96585 0.40721 0.69147 0.0
O102 O 0.86191 0.45865 0.714 0.0
O103 O 0.94779 0.55315 0.67879 0.0
O104 O 0.9061 0.55006 0.69324 0.0
C105 C 0.95604 0.38506 0.70645 0.0
C106 C 0.89233 0.41136 0.65546 0.0
O107 O 0.88127 0.4169 0.67171 0.0
O108 O 0.91808 0.43101 0.65312 0.0
C109 C 0.84217 0.41726 0.7129 0.0
O110 O 0.84567 0.37074 0.7014 0.0
C111 C 0.92692 0.58064 0.6863 0.0
Zn112 Zn 0.70865 0.03063 0.92638 0.0
Zn113 Zn 0.66523 0.01931 0.94916 0.0
O114 O 0.69897 0.06513 0.96565 0.0
O115 O 0.73493 0.07081 0.94594 0.0
O116 O 0.63308 0.00128 0.96784 0.0
O117 O 0.71328 0.94231 0.92174 0.0
O118 O 0.67426 0.93227 0.93867 0.0
C119 C 0.72521 0.08142 0.96213 0.0
C120 C 0.65569 0.09216 0.91214 0.0
O121 O 0.64545 0.07272 0.92759 0.0
O122 O 0.6821 0.08026 0.90846 0.0
C123 C 0.60829 0.02836 0.96907 0.0
O124 O 0.60161 0.07481 0.95776 0.0
C125 C 0.69375 0.90887 0.92841 0.0
Zn126 Zn 0.5703 0.01176 0.33084 0.0
Zn127 Zn 0.6264 0.02794 0.31918 0.0
O128 O 0.59908 0.0792 0.30085 0.0
O129 O 0.55338 0.06248 0.30853 0.0
O130 O 0.66748 0.03657 0.30905 0.0
O131 O 0.57574 0.92039 0.32991 0.0
O132 O 0.62082 0.9353 0.32077 0.0
C133 C 0.57135 0.08914 0.2982 0.0
C134 C 0.61079 0.07347 0.35855 0.0
O135 O 0.62968 0.06607 0.34596 0.0
O136 O 0.5844 0.05519 0.35537 0.0
C137 C 0.67489 0.00869 0.29408 0.0
O138 O 0.65529 0.97409 0.28467 0.0
C139 C 0.60047 0.89932 0.3255 0.0
Zn140 Zn 0.33261 0.95638 0.07876 0.0
Zn141 Zn 0.38246 0.96406 0.06122 0.0
O142 O 0.35316 0.9154 0.04235 0.0
O143 O 0.31223 0.91014 0.05764 0.0
O144 O 0.42037 0.9729 0.04667 0.0
O145 O 0.32822 0.04637 0.08066 0.0
O146 O 0.37185 0.05328 0.06864 0.0
C147 C 0.32645 0.89719 0.04321 0.0
C148 C 0.38085 0.89846 0.09994 0.0
O149 O 0.39517 0.9154 0.08573 0.0
O150 O 0.35357 0.91055 0.10038 0.0
C151 C 0.44008 0.93122 0.04741 0.0
O152 O 0.43558 0.88192 0.05747 0.0
C153 C 0.34977 0.07849 0.07604 0.0
Zn154 Zn 0.46208 0.98635 0.68163 0.0
Zn155 Zn 0.40737 0.98382 0.69516 0.0
O156 O 0.43298 0.92495 0.71227 0.0
O157 O 0.4782 0.92962 0.7025 0.0
O158 O 0.36834 0.98977 0.70818 0.0
O159 O 0.46468 0.07756 0.68351 0.0
O160 O 0.41932 0.07419 0.69304 0.0
C161 C 0.45995 0.90761 0.7136 0.0
C162 C 0.41525 0.93692 0.65509 0.0
O163 O 0.39806 0.94599 0.66859 0.0
O164 O 0.44245 0.95054 0.65733 0.0
C165 C 0.35327 0.94324 0.71232 0.0
O166 O 0.36276 0.88887 0.70763 0.0
C167 C 0.44164 0.10481 0.68833 0.0
Zn168 Zn 0.71331 0.50051 0.42986 0.0
Zn169 Zn 0.66599 0.5318 0.4483 0.0
O170 O 0.70127 0.5732 0.46413 0.0
O171 O 0.74003 0.54465 0.44881 0.0
O172 O 0.62891 0.55041 0.46255 0.0
O173 O 0.70559 0.41155 0.43227 0.0
O174 O 0.66482 0.43751 0.44571 0.0
C175 C 0.72918 0.57413 0.46225 0.0
C176 C 0.67188 0.57308 0.40681 0.0
O177 O 0.65764 0.57311 0.42199 0.0
O178 O 0.69629 0.54493 0.40651 0.0
C179 C 0.61955 0.51639 0.47565 0.0
O180 O 0.63507 0.46807 0.48112 0.0
C181 C 0.68154 0.39652 0.43919 0.0
Zn182 Zn 0.56784 0.53214 0.82802 0.0
Zn183 Zn 0.61282 0.51773 0.80655 0.0
O184 O 0.58088 0.56593 0.78914 0.0
O185 O 0.5431 0.57164 0.80745 0.0
O186 O 0.64613 0.49617 0.78901 0.0
O187 O 0.56235 0.44454 0.83333 0.0
O188 O 0.60203 0.43189 0.81717 0.0
C189 C 0.55433 0.58264 0.79175 0.0
C190 C 0.62071 0.59193 0.84331 0.0
O191 O 0.63187 0.57061 0.82838 0.0
O192 O 0.59381 0.5822 0.84619 0.0
C193 C 0.67099 0.52282 0.78793 0.0
O194 O 0.67687 0.57137 0.79849 0.0
C195 C 0.58197 0.40989 0.82722 0.0
Zn196 Zn 0.33842 0.48758 0.582 0.0
Zn197 Zn 0.39193 0.48051 0.56711 0.0
O198 O 0.36436 0.42255 0.55087 0.0
O199 O 0.32002 0.43134 0.56186 0.0
O200 O 0.43011 0.48404 0.55285 0.0
O201 O 0.33617 0.57859 0.57995 0.0
O202 O 0.38111 0.57179 0.5699 0.0
C203 C 0.33711 0.40733 0.55034 0.0
C204 C 0.38615 0.43591 0.60753 0.0
O205 O 0.40255 0.44272 0.59351 0.0
O206 O 0.35914 0.45171 0.60594 0.0
C207 C 0.43031 0.52035 0.53865 0.0
O208 O 0.40613 0.55133 0.53381 0.0
C209 C 0.35943 0.60412 0.57487 0.0
Zn210 Zn 0.45591 0.45899 0.18431 0.0
Zn211 Zn 0.4088 0.46257 0.20398 0.0
O212 O 0.44087 0.41615 0.22192 0.0
O213 O 0.4801 0.4185 0.20483 0.0
O214 O 0.37206 0.47021 0.21971 0.0
O215 O 0.45864 0.54837 0.18158 0.0
O216 O 0.41719 0.55305 0.19636 0.0
C217 C 0.46812 0.40347 0.21992 0.0
C218 C 0.40773 0.39554 0.16534 0.0
O219 O 0.39447 0.41233 0.18004 0.0
O220 O 0.43457 0.40947 0.1638 0.0
C221 C 0.35565 0.42437 0.22251 0.0
O222 O 0.36306 0.3712 0.21553 0.0
C223 C 0.43776 0.57942 0.18778 0.0
H224 H 0.27931 0.37465 0.54101 0.0
H225 H 0.37015 0.32324 0.53225 0.0
H226 H 0.35246 0.23073 0.51511 0.0
H227 H 0.25104 0.22384 0.54828 0.0
H228 H 0.21615 0.2374 0.53513 0.0
H229 H 0.23555 0.29969 0.54708 0.0
H230 H 0.23509 0.35988 0.51522 0.0
H231 H 0.21514 0.29836 0.50329 0.0
H232 H 0.24947 0.32442 0.49447 0.0
H233 H 0.32567 0.14384 0.49961 0.0
H234 H 0.29102 0.07468 0.48197 0.0
H235 H 0.21687 0.1818 0.49974 0.0
C236 C 0.29547 0.3441 0.53538 0.0
C237 C 0.32617 0.35615 0.53803 0.0
C238 C 0.34657 0.31524 0.53033 0.0
C239 C 0.33674 0.26223 0.52075 0.0
C240 C 0.30644 0.25096 0.51883 0.0
C241 C 0.28603 0.29119 0.52557 0.0
C242 C 0.25464 0.2695 0.52066 0.0
C243 C 0.23839 0.25686 0.53888 0.0
C244 C 0.23758 0.31578 0.50763 0.0
C245 C 0.26065 0.21082 0.51005 0.0
C246 C 0.29075 0.20083 0.50946 0.0
C247 C 0.30208 0.15107 0.49998 0.0
C248 C 0.2822 0.11191 0.49008 0.0
C249 C 0.25131 0.12267 0.48963 0.0
C250 C 0.24032 0.17174 0.50023 0.0
H251 H 0.95796 0.02747 0.52775 0.0
H252 H 0.98761 0.85749 0.55446 0.0
H253 H 0.03529 0.86692 0.53966 0.0
H254 H 0.99163 0.00269 0.48316 0.0
H255 H 1.00182 0.08139 0.48016 0.0
H256 H 0.97011 0.06255 0.49327 0.0
H257 H 0.99223 0.12325 0.5225 0.0
H258 H 0.02402 0.14224 0.50948 0.0
H259 H 0.02888 0.10492 0.5324 0.0
H260 H 0.07985 0.89371 0.52182 0.0
H261 H 0.11772 0.9351 0.50158 0.0
H262 H 0.05965 0.08726 0.48582 0.0
C263 C 0.97452 0.99238 0.53055 0.0
C264 C 0.96889 0.94173 0.54236 0.0
C265 C 0.99121 0.89672 0.54551 0.0
C266 C 0.01848 0.90167 0.53717 0.0
C267 C 0.0233 0.95189 0.5256 0.0
C268 C 1.00196 -0.00355 0.52223 0.0
C269 C 1.01274 0.04516 0.50889 0.0
C270 C 0.99289 0.04809 0.49026 0.0
C271 C 1.01458 0.10759 0.51892 0.0
C272 C 0.04334 0.0208 0.50526 0.0
C273 C 0.049 0.96709 0.51513 0.0
C274 C 0.07568 0.93579 0.51404 0.0
C275 C 0.09711 0.95976 0.50249 0.0
C276 C 0.09183 0.01452 0.49205 0.0
C277 C 0.0645 0.04536 0.49359 0.0
H278 H 0.32915 0.04837 0.72677 0.0
H279 H 0.31521 0.85293 0.72173 0.0
H280 H 0.27027 0.86237 0.73967 0.0
H281 H 0.306 0.0631 0.77462 0.0
H282 H 0.28805 0.1358 0.7705 0.0
H283 H 0.31874 0.11429 0.75676 0.0
H284 H 0.28651 0.13149 0.72534 0.0
H285 H 0.25571 0.15313 0.73898 0.0
H286 H 0.25169 0.09219 0.72172 0.0
H287 H 0.22722 0.89228 0.75855 0.0
H288 H 0.18914 0.94047 0.77724 0.0
H289 H 0.23071 0.11681 0.77044 0.0
C290 C 0.31657 0.00757 0.72934 0.0
C291 C 0.32579 0.94984 0.72276 0.0
C292 C 0.3087 0.89765 0.72656 0.0
C293 C 0.28308 0.90253 0.73675 0.0
C294 C 0.27471 0.95994 0.7431 0.0
C295 C 0.2909 0.01159 0.73956 0.0
C296 C 0.27723 0.06767 0.74826 0.0
C297 C 0.29879 0.09692 0.76343 0.0
C298 C 0.26719 0.11384 0.73264 0.0
C299 C 0.25094 0.03938 0.75734 0.0
C300 C 0.24989 0.9772 0.75411 0.0
C301 C 0.22779 0.94096 0.76114 0.0
C302 C 0.20622 0.96886 0.77176 0.0
C303 C 0.2068 0.03255 0.77537 0.0
C304 C 0.22954 0.06809 0.76797 0.0
H305 H 0.01867 0.17216 0.79327 0.0
H306 H 0.08801 0.11864 0.75642 0.0
H307 H 0.06414 0.17976 0.73022 0.0
H308 H 0.95763 0.17447 0.75595 0.0
H309 H 0.94044 0.24062 0.76585 0.0
H310 H 0.96146 0.18869 0.78136 0.0
H311 H 0.99414 0.27827 0.79425 0.0
H312 H 0.97338 0.33041 0.77872 0.0
H313 H 1.01295 0.32495 0.77767 0.0
H314 H 0.03552 0.25031 0.70903 0.0
H315 H 1.00313 0.3263 0.69304 0.0
H316 H 0.95118 0.33707 0.74314 0.0
C317 C 0.02857 0.1724 0.77958 0.0
C318 C 0.05519 0.14025 0.77686 0.0
C319 C 0.06765 0.14266 0.75884 0.0
C320 C 0.05422 0.1772 0.74387 0.0
C321 C 0.02836 0.20908 0.74714 0.0
C322 C 1.01551 0.20697 0.76448 0.0
C323 C 0.98842 0.24816 0.76438 0.0
C324 C 0.96032 0.21074 0.76704 0.0
C325 C 0.99248 0.29842 0.77966 0.0
C326 C 0.98836 0.27447 0.74432 0.0
C327 C 1.0116 0.25077 0.73472 0.0
C328 C 1.01714 0.26892 0.71632 0.0
C329 C 0.99856 0.31258 0.70742 0.0
C330 C 0.97451 0.33816 0.71683 0.0
C331 C 0.96922 0.31831 0.73554 0.0
H332 H 0.77315 0.84998 0.53304 0.0
H333 H 0.8643 0.82162 0.51919 0.0
H334 H 0.84837 0.73618 0.49789 0.0
H335 H 0.7527 0.69478 0.53487 0.0
H336 H 0.71593 0.70596 0.52405 0.0
H337 H 0.73407 0.76682 0.53746 0.0
H338 H 0.7268 0.83893 0.50822 0.0
H339 H 0.70817 0.77862 0.49482 0.0
H340 H 0.73976 0.81549 0.48551 0.0
H341 H 0.82294 0.65048 0.47977 0.0
H342 H 0.78944 0.57706 0.46309 0.0
H343 H 0.71441 0.66202 0.48842 0.0
C344 C 0.78978 0.82636 0.52536 0.0
C345 C 0.82003 0.84249 0.52779 0.0
C346 C 0.84102 0.81038 0.51746 0.0
C347 C 0.83219 0.76155 0.50544 0.0
C348 C 0.8023 0.74582 0.50383 0.0
C349 C 0.78135 0.77785 0.51327 0.0
C350 C 0.75064 0.75178 0.50907 0.0
C351 C 0.73758 0.72846 0.52746 0.0
C352 C 0.73014 0.79901 0.49879 0.0
C353 C 0.7576 0.69956 0.4959 0.0
C354 C 0.78756 0.69684 0.49317 0.0
C355 C 0.79944 0.65246 0.48169 0.0
C356 C 0.78015 0.61078 0.47232 0.0
C357 C 0.74918 0.61373 0.47438 0.0
C358 C 0.73791 0.65825 0.48661 0.0
H359 H 0.69763 0.95574 0.26241 0.0
H360 H 0.72139 0.0734 0.31087 0.0
H361 H 0.77223 0.08098 0.30028 0.0
H362 H 0.76644 0.87341 0.26278 0.0
H363 H 0.76671 0.86892 0.23708 0.0
H364 H 0.73207 0.87295 0.24833 0.0
H365 H 0.71703 0.96793 0.22795 0.0
H366 H 0.7516 0.96412 0.21661 0.0
H367 H 0.74115 0.03329 0.22842 0.0
H368 H 0.8206 0.07525 0.28464 0.0
H369 H 0.86297 0.05806 0.26487 0.0
H370 H 0.80814 0.94427 0.2263 0.0
C371 C 0.71348 0.98321 0.2708 0.0
C372 C 0.7054 0.014 0.28751 0.0
C373 C 0.72693 0.04942 0.29803 0.0
C374 C 0.75591 0.05397 0.29213 0.0
C375 C 0.76312 0.02293 0.27565 0.0
C376 C 0.74254 0.98833 0.2651 0.0
C377 C 0.75605 0.95959 0.24791 0.0
C378 C 0.75527 0.88956 0.24911 0.0
C379 C 0.74053 0.98263 0.22911 0.0
C380 C 0.78749 0.98335 0.25047 0.0
C381 C 0.79104 0.01976 0.26658 0.0
C382 C 0.81805 0.04688 0.27199 0.0
C383 C 0.84204 0.03674 0.26063 0.0
C384 C 0.83902 -0.00022 0.24398 0.0
C385 C 0.81126 0.97273 0.23892 0.0
H386 H 1.01384 0.85386 0.22654 0.0
H387 H 0.92404 0.79775 0.23605 0.0
H388 H 0.94343 0.70925 0.25457 0.0
H389 H 0.04555 0.70376 0.22206 0.0
H390 H 0.0799 0.72222 0.23515 0.0
H391 H 0.0594 0.78079 0.22199 0.0
H392 H 0.05802 0.84657 0.2527 0.0
H393 H 0.07903 0.7888 0.26582 0.0
H394 H 0.044 0.81385 0.27394 0.0
H395 H 0.97163 0.62695 0.27136 0.0
H396 H 1.00728 0.56386 0.29056 0.0
H397 H 0.07962 0.67331 0.2717 0.0
C398 C 0.99829 0.82305 0.23261 0.0
C399 C 0.96738 0.83259 0.22979 0.0
C400 C 0.94776 0.79162 0.23809 0.0
C401 C 0.95856 0.74082 0.24846 0.0
C402 C 0.98904 0.73194 0.25057 0.0
C403 C 1.00871 0.77246 0.24328 0.0
C404 C 0.04047 0.754 0.24877 0.0
C405 C 0.05732 0.73932 0.23092 0.0
C406 C 0.05631 0.80375 0.26104 0.0
C407 C 0.0355 0.69688 0.26037 0.0
C408 C 1.0056 0.6847 0.26086 0.0
C409 C 0.99509 0.63592 0.27109 0.0
C410 C 1.01552 0.60022 0.28188 0.0
C411 C 0.04615 0.61354 0.28249 0.0
C412 C 0.0564 0.66134 0.27112 0.0
H413 H 0.27253 0.84292 0.04405 0.0
H414 H 0.34756 0.86043 0.00875 0.0
H415 H 0.3231 0.78994 0.98498 0.0
H416 H 0.26038 0.68457 0.03604 0.0
H417 H 0.22068 0.69078 0.03593 0.0
H418 H 0.2437 0.7439 0.04963 0.0
H419 H 0.21739 0.83442 0.03181 0.0
H420 H 0.19413 0.78163 0.01815 0.0
H421 H 0.2158 0.83661 1.00602 0.0
H422 H 0.28971 0.71713 0.96517 0.0
H423 H 0.25087 0.64886 0.95104 0.0
H424 H 0.19905 0.6779 1.00035 0.0
C425 C 0.2839 0.83252 0.03128 0.0
C426 C 0.31198 0.85757 0.02822 0.0
C427 C 0.32602 0.84204 0.01136 0.0
C428 C 0.3123 0.80199 0.99782 0.0
C429 C 0.2847 0.77777 1.00146 0.0
C430 C 0.27073 0.79257 0.01781 0.0
C431 C 0.24143 0.76 0.01867 0.0
C432 C 0.24158 0.71728 0.0361 0.0
C433 C 0.21567 0.80591 0.01865 0.0
C434 C 0.2409 0.72435 1.00018 0.0
C435 C 0.26598 0.73527 0.9904 0.0
C436 C 0.27008 0.70819 0.97275 0.0
C437 C 0.24789 0.66946 0.96486 0.0
C438 C 0.22201 0.65785 0.97466 0.0
C439 C 0.21869 0.68541 0.99261 0.0
H440 H 0.05705 0.58981 0.99833 0.0
H441 H 0.0893 0.41363 0.98021 0.0
H442 H 0.04957 0.36277 0.99685 0.0
H443 H 0.0369 0.54269 0.04521 0.0
H444 H 1.00436 0.59028 0.04475 0.0
H445 H 0.03556 0.61264 0.03165 0.0
H446 H 1.00169 0.61966 1.0005 0.0
H447 H 0.97039 0.59735 0.0135 0.0
H448 H 0.97987 0.55448 0.99276 0.0
H449 H 1.00572 0.33122 0.01517 0.0
H450 H 0.96122 0.32129 0.03354 0.0
H451 H 0.95759 0.51824 0.03973 0.0
C452 C 0.05587 0.54049 0.99788 0.0
C453 C 0.07641 0.50574 0.98794 0.0
C454 C 0.07392 0.4413 0.98771 0.0
C455 C 0.05141 0.41198 0.99714 0.0
C456 C 0.03153 0.44766 1.00676 0.0
C457 C 0.03356 0.51052 0.0072 0.0
C458 C 1.00925 0.53838 0.01838 0.0
C459 C 0.0223 0.57303 0.03604 0.0
C460 C 0.98911 0.57991 1.00551 0.0
C461 C 0.9931 0.4814 0.0241 0.0
C462 C 1.00634 0.42954 0.01729 0.0
C463 C 0.99523 0.37154 0.0206 0.0
C464 C 0.9699 0.36639 0.03107 0.0
C465 C 0.95583 0.41892 0.03815 0.0
C466 C 0.96779 0.47712 0.03461 0.0
H467 H 0.33189 0.5281 0.23851 0.0
H468 H 0.3168 0.33398 0.23035 0.0
H469 H 0.27076 0.3421 0.24713 0.0
H470 H 0.30456 0.53726 0.28591 0.0
H471 H 0.28741 0.61088 0.28203 0.0
H472 H 0.31934 0.59023 0.26931 0.0
H473 H 0.29009 0.61229 0.23708 0.0
H474 H 0.25804 0.63286 0.24969 0.0
H475 H 0.25534 0.57425 0.23159 0.0
H476 H 0.22596 0.37068 0.26451 0.0
H477 H 0.18609 0.41753 0.28202 0.0
H478 H 0.22968 0.59331 0.27944 0.0
C479 C 0.31894 0.48728 0.24028 0.0
C480 C 0.32814 0.43032 0.23304 0.0
C481 C 0.3104 0.37814 0.2357 0.0
C482 C 0.28411 0.38226 0.24523 0.0
C483 C 0.27564 0.43891 0.2521 0.0
C484 C 0.29251 0.49053 0.24981 0.0
C485 C 0.27827 0.5458 0.25866 0.0
C486 C 0.29861 0.5726 0.27495 0.0
C487 C 0.26994 0.59415 0.24334 0.0
C488 C 0.25086 0.51706 0.2663 0.0
C489 C 0.24977 0.45538 0.26227 0.0
C490 C 0.22659 0.41895 0.26776 0.0
C491 C 0.20397 0.44609 0.2777 0.0
C492 C 0.20459 0.5092 0.28218 0.0
C493 C 0.22845 0.54497 0.2763 0.0
H494 H 0.70959 0.15622 0.99182 0.0
H495 H 0.785 0.08485 0.96351 0.0
H496 H 0.81816 0.15263 0.98276 0.0
H497 H 0.73301 0.30905 0.99358 0.0
H498 H 0.72042 0.32563 0.01695 0.0
H499 H 0.70228 0.26759 1.00231 0.0
H500 H 0.71185 0.18817 0.02939 0.0
H501 H 0.72959 0.24625 0.04425 0.0
H502 H 0.749 0.17648 0.03954 0.0
H503 H 0.84277 0.23359 1.00258 0.0
H504 H 0.85825 0.31683 0.02468 0.0
H505 H 0.76761 0.33619 0.04082 0.0
C506 C 0.73315 0.15384 0.99008 0.0
C507 C 0.74469 0.11526 0.97616 0.0
C508 C 0.77563 0.11421 0.97403 0.0
C509 C 0.7947 0.15257 0.98489 0.0
C510 C 0.7826 0.19171 0.99793 0.0
C511 C 0.75266 0.19218 1.00084 0.0
C512 C 0.74554 0.24043 0.01541 0.0
C513 C 0.72404 0.28851 1.00652 0.0
C514 C 0.73327 0.21107 0.03321 0.0
C515 C 0.77604 0.26724 0.01994 0.0
C516 C 0.79703 0.23848 0.00964 0.0
C517 C 0.82662 0.25616 0.01091 0.0
C518 C 0.83517 0.30378 0.02341 0.0
C519 C 0.81421 0.33302 0.03453 0.0
C520 C 0.78421 0.31466 0.03258 0.0
H521 H 0.72573 0.57062 0.78092 0.0
H522 H 0.66765 0.41776 0.76663 0.0
H523 H 0.70531 0.3742 0.74655 0.0
H524 H 0.7551 0.58479 0.73426 0.0
H525 H 0.79188 0.60399 0.74361 0.0
H526 H 0.76045 0.62326 0.75698 0.0
H527 H 0.78367 0.56434 0.78628 0.0
H528 H 0.81512 0.54469 0.77297 0.0
H529 H 0.79405 0.48547 0.78362 0.0
H530 H 0.74931 0.34628 0.72827 0.0
H531 H 0.79586 0.33751 0.71207 0.0
H532 H 0.82587 0.50883 0.73764 0.0
C533 C 0.72087 0.52802 0.77355 0.0
C534 C 0.69358 0.49768 0.77542 0.0
C535 C 0.68825 0.44205 0.76547 0.0
C536 C 0.70957 0.41681 0.75403 0.0
C537 C 0.73621 0.44768 0.75258 0.0
C538 C 0.74192 0.50221 0.76198 0.0
C539 C 0.77231 0.52628 0.75781 0.0
C540 C 0.76977 0.58825 0.74755 0.0
C541 C 0.79248 0.53042 0.77627 0.0
C542 C 0.78278 0.47674 0.7446 0.0
C543 C 0.76159 0.43178 0.74186 0.0
C544 C 0.76603 0.38126 0.73029 0.0
C545 C 0.79266 0.37669 0.72115 0.0
C546 C 0.8147 0.4224 0.72351 0.0
C547 C 0.80959 0.47299 0.73552 0.0
H548 H 0.55345 0.07644 0.97601 0.0
H549 H 0.61392 0.92934 0.99293 0.0
H550 H 0.57779 0.89003 0.01478 0.0
H551 H 0.52541 0.10109 0.02292 0.0
H552 H 0.48814 0.11652 0.01362 0.0
H553 H 0.51887 0.1339 0.99942 0.0
H554 H 0.49579 0.06736 0.97181 0.0
H555 H 0.46503 0.04969 0.98593 0.0
H556 H 0.48663 0.98895 0.9764 0.0
H557 H 0.53478 0.86467 0.03415 0.0
H558 H 0.48833 0.85623 0.05043 0.0
H559 H 0.4553 0.02042 0.02165 0.0
C560 C 0.55918 0.0361 0.98436 0.0
C561 C 0.58667 0.00606 0.98268 0.0
C562 C 0.59314 0.95334 0.99391 0.0
C563 C 0.57271 0.93056 1.00638 0.0
C564 C 0.54583 0.961 0.0076 0.0
C565 C 0.53902 0.01277 0.99697 0.0
C566 C 0.50844 0.03655 1.00096 0.0
C567 C 0.51034 0.10083 0.00976 0.0
C568 C 0.48775 0.03556 0.98269 0.0
C569 C 0.49908 0.98985 0.01541 0.0
C570 C 0.52102 0.94668 0.01898 0.0
C571 C 0.5175 0.89835 0.03153 0.0
C572 C 0.49092 0.89393 0.0407 0.0
C573 C 0.46803 0.93765 0.03741 0.0
C574 C 0.47234 0.98637 0.02457 0.0
H575 H 0.45187 0.30877 0.24328 0.0
H576 H 0.52649 0.41867 0.22819 0.0
H577 H 0.56056 0.34958 0.24636 0.0
H578 H 0.48308 0.26746 0.29237 0.0
H579 H 0.46824 0.19127 0.29078 0.0
H580 H 0.44922 0.25294 0.27819 0.0
H581 H 0.451 0.192 0.24656 0.0
H582 H 0.47063 0.1308 0.25896 0.0
H583 H 0.4862 0.16676 0.23875 0.0
H584 H 0.58707 0.26386 0.26247 0.0
H585 H 0.60463 0.17316 0.28053 0.0
H586 H 0.5136 0.11793 0.28653 0.0
C587 C 0.47527 0.31924 0.2444 0.0
C588 C 0.48657 0.36915 0.23439 0.0
C589 C 0.5174 0.38066 0.23576 0.0
C590 C 0.53697 0.34158 0.24598 0.0
C591 C 0.52541 0.29118 0.2549 0.0
C592 C 0.49531 0.28036 0.25464 0.0
C593 C 0.48916 0.22143 0.26506 0.0
C594 C 0.47138 0.23404 0.28265 0.0
C595 C 0.47331 0.17502 0.25152 0.0
C596 C 0.52049 0.20079 0.27088 0.0
C597 C 0.54097 0.24164 0.26471 0.0
C598 C 0.57129 0.23184 0.26765 0.0
C599 C 0.58104 0.17981 0.27779 0.0
C600 C 0.56055 0.13839 0.28503 0.0
C601 C 0.52984 0.14876 0.28124 0.0
H602 H 0.51658 0.86741 0.72346 0.0
H603 H 0.42423 0.83095 0.73242 0.0
H604 H 0.43886 0.73857 0.75071 0.0
H605 H 0.53983 0.71187 0.71796 0.0
H606 H 0.57508 0.72171 0.731 0.0
H607 H 0.55777 0.78523 0.71835 0.0
H608 H 0.56022 0.8493 0.74953 0.0
H609 H 0.57805 0.78643 0.76218 0.0
H610 H 0.54467 0.81895 0.77062 0.0
H611 H 0.46273 0.65015 0.76734 0.0
H612 H 0.495 0.57749 0.78551 0.0
H613 H 0.57252 0.67041 0.76669 0.0
C614 C 0.49944 0.84021 0.72938 0.0
C615 C 0.4692 0.85643 0.72645 0.0
C616 C 0.4475 0.81974 0.73452 0.0
C617 C 0.45558 0.76683 0.74479 0.0
C618 C 0.48544 0.75139 0.74699 0.0
C619 C 0.50713 0.78742 0.73984 0.0
C620 C 0.53773 0.76157 0.74504 0.0
C621 C 0.55352 0.74406 0.72701 0.0
C622 C 0.55625 0.80674 0.75759 0.0
C623 C 0.5298 0.70541 0.75628 0.0
C624 C 0.49945 0.70028 0.75696 0.0
C625 C 0.48651 0.65361 0.76691 0.0
C626 C 0.50504 0.61245 0.77713 0.0
C627 C 0.53623 0.61815 0.77741 0.0
C628 C 0.54878 0.66425 0.7664 0.0
H629 H 0.48273 0.45404 0.54072 0.0
H630 H 0.43888 0.60799 0.51198 0.0
H631 H 0.48275 0.62524 0.49369 0.0
H632 H 0.5566 0.51869 0.54412 0.0
H633 H 0.57471 0.44744 0.53938 0.0
H634 H 0.5401 0.44763 0.55074 0.0
H635 H 0.51733 0.37628 0.52426 0.0
H636 H 0.55187 0.37578 0.51284 0.0
H637 H 0.51832 0.3985 0.49952 0.0
H638 H 0.5311 0.62614 0.47821 0.0
H639 H 0.58018 0.60803 0.46581 0.0
H640 H 0.59303 0.45261 0.5039 0.0
C641 C 0.48242 0.49151 0.53064 0.0
C642 C 0.45724 0.52969 0.52786 0.0
C643 C 0.45775 0.57795 0.5144 0.0
C644 C 0.48266 0.58831 0.50393 0.0
C645 C 0.50702 0.54994 0.50696 0.0
C646 C 0.50714 0.50233 0.51991 0.0
C647 C 0.53604 0.467 0.51999 0.0
C648 C 0.55285 0.47042 0.53973 0.0
C649 C 0.53055 0.40045 0.51378 0.0
C650 C 0.55201 0.50215 0.50505 0.0
C651 C 0.5349 0.55001 0.49781 0.0
C652 C 0.54473 0.58881 0.48378 0.0
C653 C 0.57271 0.57818 0.47684 0.0
C654 C 0.5906 0.52895 0.48384 0.0
C655 C 0.58001 0.49075 0.49824 0.0
H656 H 0.10923 0.67919 0.37802 0.0
H657 H 0.19104 0.62662 0.35323 0.0
H658 H 0.21913 0.68944 0.37751 0.0
H659 H 0.12801 0.83158 0.38619 0.0
H660 H 0.10947 0.8376 0.40817 0.0
H661 H 0.09676 0.78353 0.3902 0.0
H662 H 0.10252 0.69671 0.41532 0.0
H663 H 0.11577 0.75063 0.43331 0.0
H664 H 0.13778 0.68468 0.42818 0.0
H665 H 0.23758 0.76356 0.40289 0.0
H666 H 0.24465 0.85152 0.42466 0.0
H667 H 0.15051 0.85497 0.43276 0.0
C668 C 0.13311 0.68013 0.37779 0.0
C669 C 0.148 0.64769 0.36379 0.0
C670 C 0.1792 0.6511 0.36382 0.0
C671 C 0.19531 0.68616 0.37766 0.0
C672 C 0.17986 0.71721 0.39133 0.0
C673 C 0.14942 0.71486 0.39138 0.0
C674 C 0.13775 0.75661 0.40642 0.0
C675 C 0.11678 0.8052 0.39719 0.0
C676 C 0.12256 0.71994 0.42172 0.0
C677 C 0.16635 0.78446 0.41453 0.0
C678 C 0.19045 0.76024 0.4059 0.0
C679 C 0.21895 0.78225 0.40991 0.0
C680 C 0.22274 0.83213 0.42234 0.0
C681 C 0.19813 0.85974 0.43049 0.0
C682 C 0.1698 0.83389 0.42713 0.0
H683 H 0.18555 0.17166 0.39464 0.0
H684 H 0.105 0.1287 0.4223 0.0
H685 H 0.0765 0.1931 0.39864 0.0
H686 H 0.16982 0.32474 0.38696 0.0
H687 H 0.18652 0.32883 0.36429 0.0
H688 H 0.19941 0.27333 0.38177 0.0
H689 H 0.18945 0.18726 0.35675 0.0
H690 H 0.17613 0.24269 0.33924 0.0
H691 H 0.15306 0.17933 0.34507 0.0
H692 H 0.05786 0.26891 0.37391 0.0
H693 H 0.05113 0.3577 0.3525 0.0
H694 H 0.14415 0.35095 0.34118 0.0
C695 C 0.16183 0.17486 0.39559 0.0
C696 C 0.14744 0.14484 0.41026 0.0
C697 C 0.11646 0.15123 0.41117 0.0
C698 C 0.10009 0.18723 0.39769 0.0
C699 C 0.11506 0.21619 0.38342 0.0
C700 C 0.14528 0.21061 0.38238 0.0
C701 C 0.15664 0.25107 0.36696 0.0
C702 C 0.17942 0.29722 0.37551 0.0
C703 C 0.16958 0.21278 0.35106 0.0
C704 C 0.12821 0.28209 0.35986 0.0
C705 C 0.10438 0.26039 0.36925 0.0
C706 C 0.07625 0.28563 0.36628 0.0
C707 C 0.07266 0.33603 0.35407 0.0
C708 C 0.09712 0.361 0.34511 0.0
C709 C 0.12494 0.33205 0.34747 0.0
H710 H 0.11193 0.19866 0.87402 0.0
H711 H 0.19365 0.15951 0.84707 0.0
H712 H 0.22011 0.2316 0.86928 0.0
H713 H 0.12272 0.35424 0.87842 0.0
H714 H 0.10613 0.36141 0.90106 0.0
H715 H 0.0949 0.30077 0.88494 0.0
H716 H 0.10783 0.22164 0.91171 0.0
H717 H 0.1194 0.28227 0.92789 0.0
H718 H 0.14446 0.22068 0.92336 0.0
H719 H 0.23633 0.31491 0.89208 0.0
H720 H 0.24041 0.40835 0.91167 0.0
H721 H 0.14787 0.39312 0.92359 0.0
C722 C 0.13552 0.20425 0.87297 0.0
C723 C 0.15078 0.17314 0.85886 0.0
C724 C 0.18152 0.18273 0.85779 0.0
C725 C 0.19675 0.22322 0.87043 0.0
C726 C 0.18092 0.25343 0.88409 0.0
C727 C 0.15095 0.24451 0.88538 0.0
C728 C 0.1384 0.28687 0.89995 0.0
C729 C 0.11413 0.32827 0.89052 0.0
C730 C 0.12685 0.25069 0.91672 0.0
C731 C 0.16581 0.32273 0.9062 0.0
C732 C 0.19022 0.30191 0.89717 0.0
C733 C 0.21749 0.33102 0.89944 0.0
C734 C 0.21957 0.3841 0.9106 0.0
C735 C 0.19447 0.40786 0.91924 0.0
C736 C 0.16758 0.37537 0.91755 0.0
H737 H 0.10147 0.70196 0.91545 0.0
H738 H 0.18247 0.63068 0.89401 0.0
H739 H 0.17393 0.69183 0.86463 0.0
H740 H 0.05874 0.71722 0.86811 0.0
H741 H 0.04212 0.7881 0.87498 0.0
H742 H 0.05167 0.7309 0.89282 0.0
H743 H 0.08342 0.80993 0.91247 0.0
H744 H 0.0738 0.86722 0.8948 0.0
H745 H 0.11216 0.85046 0.90111 0.0
H746 H 0.15999 0.76819 0.83954 0.0
H747 H 0.14415 0.86101 0.82189 0.0
H748 H 0.07262 0.88524 0.85973 0.0
C749 C 0.11696 0.69822 0.90433 0.0
C750 C 0.1425 0.66144 0.90689 0.0
C751 C 0.16276 0.65869 0.89231 0.0
C752 C 0.15795 0.69279 0.87549 0.0
C753 C 0.1328 0.72944 0.8735 0.0
C754 C 0.11268 0.73266 0.88754 0.0
C755 C 0.0895 0.78124 0.88292 0.0
C756 C 0.05868 0.75264 0.8795 0.0
C757 C 0.08977 0.83009 0.89876 0.0
C758 C 0.10047 0.80649 0.86451 0.0
C759 C 0.12502 0.77491 0.85908 0.0
C760 C 0.14051 0.79275 0.84345 0.0
C761 C 0.13133 0.84561 0.83351 0.0
C762 C 0.1071 0.88041 0.83939 0.0
C763 C 0.09092 0.85918 0.85468 0.0
H764 H 0.91713 0.35543 0.62576 0.0
H765 H 0.83287 0.38643 0.65038 0.0
H766 H 0.8086 0.31874 0.62583 0.0
H767 H 0.88889 0.33404 0.57439 0.0
H768 H 0.91524 0.27375 0.5711 0.0
H769 H 0.92453 0.3356 0.58737 0.0
H770 H 0.93624 0.25797 0.61475 0.0
H771 H 0.92719 0.19626 0.5986 0.0
H772 H 0.90847 0.2033 0.62048 0.0
H773 H 0.79512 0.23752 0.60193 0.0
H774 H 0.79427 0.14101 0.58396 0.0
H775 H 0.88812 0.15887 0.57609 0.0
C776 C 0.89337 0.34978 0.62558 0.0
C777 C 0.87674 0.37692 0.63976 0.0
C778 C 0.84592 0.36652 0.63951 0.0
C779 C 0.83197 0.32857 0.62553 0.0
C780 C 0.8492 0.30132 0.612 0.0
C781 C 0.8793 0.31125 0.61201 0.0
C782 C 0.89374 0.26904 0.59819 0.0
C783 C 0.90634 0.30529 0.58179 0.0
C784 C 0.91779 0.2293 0.60864 0.0
C785 C 0.86732 0.2315 0.59108 0.0
C786 C 0.84167 0.25224 0.59871 0.0
C787 C 0.81495 0.22148 0.59565 0.0
C788 C 0.81473 0.16655 0.58541 0.0
C789 C 0.8412 0.14221 0.57865 0.0
C790 C 0.86746 0.17672 0.58078 0.0
H791 H 0.87625 0.64626 0.67953 0.0
H792 H 0.97172 0.66191 0.68362 0.0
H793 H 0.96804 0.7604 0.66673 0.0
H794 H 0.86654 0.68608 0.63474 0.0
H795 H 0.83293 0.72986 0.63572 0.0
H796 H 0.84156 0.67212 0.65333 0.0
H797 H 0.838 0.75086 0.68068 0.0
H798 H 0.82847 0.80903 0.66314 0.0
H799 H 0.85927 0.82021 0.68035 0.0
H800 H 0.95527 0.83904 0.64212 0.0
H801 H 0.93365 0.8994 0.61487 0.0
H802 H 0.84633 0.83431 0.62684 0.0
C803 C 0.8962 0.67238 0.67793 0.0
C804 C 0.92422 0.64694 0.68302 0.0
C805 C 0.95002 0.68104 0.67998 0.0
C806 C 0.94814 0.73702 0.67036 0.0
C807 C 0.92027 0.75862 0.66407 0.0
C808 C 0.89464 0.72819 0.66817 0.0
C809 C 0.86786 0.75581 0.65733 0.0
C810 C 0.85129 0.70813 0.64453 0.0
C811 C 0.84718 0.78578 0.6712 0.0
C812 C 0.88267 0.8033 0.64552 0.0
C813 C 0.91283 0.80504 0.64983 0.0
C814 C 0.93157 0.83967 0.63905 0.0
C815 C 0.91915 0.87336 0.62349 0.0
C816 C 0.8883 0.87203 0.61886 0.0
C817 C 0.86992 0.83734 0.63028 0.0
H818 H 0.89181 0.64104 0.08257 0.0
H819 H 0.79636 0.64797 0.08466 0.0
H820 H 0.80055 0.74473 0.1025 0.0
H821 H 0.90768 0.67947 0.12754 0.0
H822 H 0.93972 0.72604 0.1243 0.0
H823 H 0.92949 0.66775 0.10716 0.0
H824 H 0.92685 0.74716 0.07974 0.0
H825 H 0.93778 0.80594 0.09676 0.0
H826 H 0.90432 0.81454 0.08167 0.0
H827 H 0.81543 0.82424 0.12661 0.0
H828 H 0.83991 0.8868 0.15235 0.0
H829 H 0.92559 0.82965 0.13423 0.0
C830 C 0.8717 0.66445 0.08591 0.0
C831 C 0.84378 0.63692 0.0822 0.0
C832 C 0.81801 0.66826 0.08729 0.0
C833 C 0.82016 0.72336 0.09744 0.0
C834 C 0.84819 0.74705 0.10212 0.0
C835 C 0.87351 0.71937 0.09612 0.0
C836 C 0.90109 0.74921 0.10516 0.0
C837 C 0.9206 0.70285 0.11672 0.0
C838 C 0.91853 0.78113 0.08992 0.0
C839 C 0.88733 0.79514 0.11811 0.0
C840 C 0.8568 0.79396 0.11594 0.0
C841 C 0.83931 0.82703 0.12802 0.0
C842 C 0.85339 0.86201 0.14271 0.0
C843 C 0.88463 0.86351 0.14518 0.0
C844 C 0.90167 0.83048 0.13245 0.0
H845 H 0.95764 0.13741 0.16221 0.0
H846 H 0.89313 0.1521 0.20525 0.0
H847 H 0.87747 0.25235 0.19219 0.0
H848 H 0.97287 0.30884 0.157 0.0
H849 H 0.97514 0.29984 0.13153 0.0
H850 H 0.98731 0.23911 0.14754 0.0
H851 H 0.95203 0.16463 0.1287 0.0
H852 H 0.93939 0.22492 0.11289 0.0
H853 H 0.9131 0.18241 0.12585 0.0
H854 H 0.86111 0.33644 0.17055 0.0
H855 H 0.84604 0.39954 0.14252 0.0
H856 H 0.92037 0.3301 0.1128 0.0
C857 C 0.94125 0.16307 0.16949 0.0
C858 C 0.92678 0.13722 0.18486 0.0
C859 C 0.90469 0.17127 0.19357 0.0
C860 C 0.89571 0.22837 0.18627 0.0
C861 C 0.90916 0.25087 0.17034 0.0
C862 C 0.93178 0.21966 0.16219 0.0
C863 C 0.93923 0.24839 0.14339 0.0
C864 C 0.9705 0.27568 0.14497 0.0
C865 C 0.9357 0.20235 0.12674 0.0
C866 C 0.91594 0.29802 0.14159 0.0
C867 C 0.89934 0.29966 0.15752 0.0
C868 C 0.87443 0.33673 0.15824 0.0
C869 C 0.86592 0.37207 0.14217 0.0
C870 C 0.88213 0.36986 0.12552 0.0
C871 C 0.90793 0.33364 0.12548 0.0
H872 H 0.60074 0.65827 0.87283 0.0
H873 H 0.68107 0.60827 0.84584 0.0
H874 H 0.71019 0.67113 0.86956 0.0
H875 H 0.61837 0.80971 0.87984 0.0
H876 H 0.60146 0.81678 0.90238 0.0
H877 H 0.58808 0.76075 0.88525 0.0
H878 H 0.5967 0.67615 0.91089 0.0
H879 H 0.61053 0.73213 0.92806 0.0
H880 H 0.63287 0.66677 0.92281 0.0
H881 H 0.7295 0.74738 0.8938 0.0
H882 H 0.73697 0.8387 0.91408 0.0
H883 H 0.64381 0.83903 0.9251 0.0
C884 C 0.62454 0.65946 0.87209 0.0
C885 C 0.63869 0.62803 0.85756 0.0
C886 C 0.66979 0.63189 0.85687 0.0
C887 C 0.6865 0.66699 0.87039 0.0
C888 C 0.67176 0.69759 0.88449 0.0
C889 C 0.64143 0.69437 0.88534 0.0
C890 C 0.63042 0.73687 0.90041 0.0
C891 C 0.6083 0.7838 0.89143 0.0
C892 C 0.61683 0.7008 0.9165 0.0
C893 C 0.65918 0.76655 0.90744 0.0
C894 C 0.68286 0.7422 0.8984 0.0
C895 C 0.71124 0.7661 0.90119 0.0
C896 C 0.71525 0.81795 0.91276 0.0
C897 C 0.69097 0.84567 0.92124 0.0
C898 C 0.66289 0.81796 0.9192 0.0
H899 H 0.67434 0.15458 0.88152 0.0
H900 H 0.59569 0.11385 0.9115 0.0
H901 H 0.566 0.17797 0.88836 0.0
H902 H 0.65915 0.30705 0.87428 0.0
H903 H 0.67427 0.31111 0.8511 0.0
H904 H 0.6879 0.2549 0.86811 0.0
H905 H 0.67562 0.16962 0.84318 0.0
H906 H 0.66157 0.22583 0.82613 0.0
H907 H 0.63851 0.16304 0.83249 0.0
H908 H 0.54623 0.2543 0.86415 0.0
H909 H 0.53884 0.34458 0.84345 0.0
H910 H 0.63077 0.33584 0.82958 0.0
C911 C 0.65075 0.15804 0.88305 0.0
C912 C 0.63727 0.12885 0.89825 0.0
C913 C 0.60646 0.13568 0.89994 0.0
C914 C 0.58941 0.17153 0.88676 0.0
C915 C 0.60352 0.19988 0.87199 0.0
C916 C 0.63355 0.19372 0.87015 0.0
C917 C 0.64411 0.23419 0.85447 0.0
C918 C 0.66773 0.27949 0.86248 0.0
C919 C 0.65563 0.19586 0.8381 0.0
C920 C 0.61552 0.26618 0.84822 0.0
C921 C 0.59222 0.24466 0.85817 0.0
C922 C 0.56419 0.27087 0.85609 0.0
C923 C 0.56022 0.32214 0.84427 0.0
C924 C 0.58424 0.34712 0.83486 0.0
C925 C 0.61186 0.31705 0.83624 0.0
H926 H 0.66511 0.11936 0.37036 0.0
H927 H 0.57481 0.10399 0.38715 0.0
H928 H 0.58688 0.17038 0.41494 0.0
H929 H 0.70118 0.13174 0.42072 0.0
H930 H 0.72763 0.18617 0.41289 0.0
H931 H 0.71372 0.12709 0.39682 0.0
H932 H 0.69688 0.20898 0.37171 0.0
H933 H 0.71081 0.2679 0.38759 0.0
H934 H 0.6727 0.26967 0.3785 0.0
H935 H 0.60564 0.25364 0.43671 0.0
H936 H 0.62927 0.34726 0.4499 0.0
H937 H 0.70796 0.30528 0.42003 0.0
C938 C 0.64811 0.12844 0.3802 0.0
C939 C 0.61904 0.10647 0.37655 0.0
C940 C 0.5973 0.12013 0.38964 0.0
C941 C 0.60398 0.15754 0.40557 0.0
C942 C 0.63264 0.1801 0.40843 0.0
C943 C 0.65446 0.16545 0.39621 0.0
C944 C 0.6824 0.2014 0.40099 0.0
C945 C 0.70773 0.15906 0.40829 0.0
C946 C 0.69117 0.23923 0.38368 0.0
C947 C 0.67221 0.24156 0.41692 0.0
C948 C 0.64369 0.22768 0.42134 0.0
C949 C 0.62827 0.26392 0.43378 0.0
C950 C 0.64187 0.31708 0.44122 0.0
C951 C 0.67051 0.33358 0.43606 0.0
C952 C 0.68626 0.29353 0.42453 0.0
H953 H 0.62067 0.64059 0.40183 0.0
H954 H 0.69847 0.58469 0.373 0.0
H955 H 0.68293 0.64957 0.34552 0.0
H956 H 0.56993 0.65528 0.35724 0.0
H957 H 0.55193 0.72132 0.36661 0.0
H958 H 0.56638 0.6626 0.38265 0.0
H959 H 0.59772 0.74316 0.40194 0.0
H960 H 0.58323 0.80186 0.3861 0.0
H961 H 0.62265 0.79109 0.38962 0.0
H962 H 0.66425 0.73323 0.32406 0.0
H963 H 0.64356 0.8294 0.31049 0.0
H964 H 0.57631 0.82733 0.35194 0.0
C965 C 0.63404 0.64082 0.38954 0.0
C966 C 0.66078 0.6075 0.38962 0.0
C967 C 0.67785 0.60968 0.37332 0.0
C968 C 0.66912 0.64616 0.35754 0.0
C969 C 0.64301 0.67952 0.35809 0.0
C970 C 0.62554 0.67673 0.37358 0.0
C971 C 0.60012 0.72167 0.37142 0.0
C972 C 0.57033 0.6882 0.36936 0.0
C973 C 0.60102 0.76712 0.38826 0.0
C974 C 0.60702 0.75248 0.35286 0.0
C975 C 0.63158 0.72684 0.34522 0.0
C976 C 0.64447 0.75262 0.32954 0.0
C977 C 0.63259 0.8072 0.32191 0.0
C978 C 0.60802 0.83511 0.32993 0.0
C979 C 0.59446 0.80594 0.34508 0.0
H980 H 0.43309 0.32929 0.13776 0.0
H981 H 0.34785 0.37895 0.15831 0.0
H982 H 0.323 0.31648 0.1326 0.0
H983 H 0.41025 0.32058 0.08602 0.0
H984 H 0.43341 0.255 0.08258 0.0
H985 H 0.44418 0.3109 0.10058 0.0
H986 H 0.44781 0.22635 0.12653 0.0
H987 H 0.43753 0.17039 0.1086 0.0
H988 H 0.4164 0.17765 0.12947 0.0
H989 H 0.30797 0.24142 0.10686 0.0
H990 H 0.30402 0.15022 0.08628 0.0
H991 H 0.39933 0.14818 0.08298 0.0
C992 C 0.40914 0.32813 0.13664 0.0
C993 C 0.39235 0.35944 0.14991 0.0
C994 C 0.36112 0.35545 0.14825 0.0
C995 C 0.34684 0.3206 0.13359 0.0
C996 C 0.36414 0.29017 0.12075 0.0
C997 C 0.39464 0.29323 0.12227 0.0
C998 C 0.40836 0.25055 0.10827 0.0
C999 C 0.42503 0.28642 0.09349 0.0
C1000 C 0.4287 0.20345 0.11885 0.0
C1001 C 0.38083 0.22108 0.09909 0.0
C1002 C 0.35552 0.24573 0.10613 0.0
C1003 C 0.32758 0.22237 0.10106 0.0
C1004 C 0.32557 0.17057 0.08931 0.0
C1005 C 0.35138 0.1422 0.08297 0.0
C1006 C 0.37918 0.16959 0.08723 0.0
H1007 H 0.3873 0.64625 0.18051 0.0
H1008 H 0.48284 0.65542 0.1801 0.0
H1009 H 0.47869 0.74925 0.16079 0.0
H1010 H 0.37308 0.67908 0.13466 0.0
H1011 H 0.34054 0.72551 0.13673 0.0
H1012 H 0.35038 0.66943 0.1547 0.0
H1013 H 0.35123 0.75202 0.1812 0.0
H1014 H 0.3406 0.80852 0.16334 0.0
H1015 H 0.37337 0.81954 0.17891 0.0
H1016 H 0.46434 0.82534 0.13553 0.0
H1017 H 0.44043 0.88687 0.10925 0.0
H1018 H 0.35429 0.83007 0.12644 0.0
C1019 C 0.40732 0.66996 0.17725 0.0
C1020 C 0.43536 0.64394 0.18189 0.0
C1021 C 0.46112 0.67491 0.17677 0.0
C1022 C 0.459 0.72824 0.16578 0.0
C1023 C 0.43096 0.75046 0.16023 0.0
C1024 C 0.40554 0.72323 0.16618 0.0
C1025 C 0.37814 0.75152 0.1563 0.0
C1026 C 0.35947 0.70352 0.14493 0.0
C1027 C 0.35975 0.7849 0.1708 0.0
C1028 C 0.39219 0.79613 0.14311 0.0
C1029 C 0.42265 0.79542 0.14573 0.0
C1030 C 0.44046 0.82777 0.13372 0.0
C1031 C 0.42674 0.8621 0.11873 0.0
C1032 C 0.39554 0.86373 0.11594 0.0
C1033 C 0.37819 0.83075 0.12845 0.0
H1034 H 0.36437 0.87048 0.64832 0.0
H1035 H 0.44273 0.93242 0.62154 0.0
H1036 H 0.42987 0.86755 0.59358 0.0
H1037 H 0.37118 0.72306 0.63738 0.0
H1038 H 0.33247 0.70621 0.6327 0.0
H1039 H 0.34344 0.76833 0.64823 0.0
H1040 H 0.31094 0.84248 0.6271 0.0
H1041 H 0.29984 0.78021 0.61141 0.0
H1042 H 0.31619 0.84759 0.60183 0.0
H1043 H 0.41549 0.78087 0.57248 0.0
H1044 H 0.40027 0.67963 0.55999 0.0
H1045 H 0.32999 0.67528 0.59928 0.0
C1046 C 0.37813 0.8722 0.63623 0.0
C1047 C 0.40449 0.90657 0.63711 0.0
C1048 C 0.42241 0.90642 0.62122 0.0
C1049 C 0.41517 0.87002 0.60517 0.0
C1050 C 0.38973 0.83451 0.60507 0.0
C1051 C 0.37123 0.83587 0.62008 0.0
C1052 C 0.34763 0.78717 0.61769 0.0
C1053 C 0.34879 0.74364 0.63502 0.0
C1054 C 0.31682 0.81611 0.6143 0.0
C1055 C 0.35706 0.75556 0.59979 0.0
C1056 C 0.38097 0.78446 0.59246 0.0
C1057 C 0.39619 0.75885 0.57767 0.0
C1058 C 0.38745 0.70127 0.57067 0.0
C1059 C 0.36371 0.67002 0.57848 0.0
C1060 C 0.34763 0.69887 0.59262 0.0
H1061 H 0.43633 0.36615 0.61344 0.0
H1062 H 0.36075 0.43581 0.64184 0.0
H1063 H 0.37439 0.37214 0.66993 0.0
H1064 H 0.42822 0.22016 0.62555 0.0
H1065 H 0.46685 0.20086 0.62938 0.0
H1066 H 0.45582 0.26257 0.61369 0.0
H1067 H 0.49049 0.33585 0.63357 0.0
H1068 H 0.50165 0.27399 0.64942 0.0
H1069 H 0.48686 0.34324 0.65897 0.0
H1070 H 0.38865 0.2859 0.69117 0.0
H1071 H 0.40298 0.18429 0.70384 0.0
H1072 H 0.4708 0.17209 0.66295 0.0
C1073 C 0.42338 0.36976 0.62589 0.0
C1074 C 0.39754 0.40597 0.62545 0.0
C1075 C 0.38066 0.40834 0.64182 0.0
C1076 C 0.38836 0.37266 0.65794 0.0
C1077 C 0.41323 0.33533 0.65763 0.0
C1078 C 0.43076 0.33419 0.64213 0.0
C1079 C 0.45375 0.28398 0.64426 0.0
C1080 C 0.45095 0.23927 0.62723 0.0
C1081 C 0.48505 0.31089 0.6467 0.0
C1082 C 0.445 0.25443 0.66263 0.0
C1083 C 0.42201 0.28561 0.67037 0.0
C1084 C 0.40729 0.26213 0.68567 0.0
C1085 C 0.41552 0.20434 0.69277 0.0
C1086 C 0.43829 0.17083 0.68459 0.0
C1087 C 0.45398 0.19753 0.66991 0.0
loop_
_geom_bond_atom_site_label_1
_geom_bond_atom_site_label_2
_geom_bond_distance
_geom_bond_site_symmetry_2
_ccdc_geom_bond_type
Zn0 O3 2.031 . S
Zn0 O5 2.049 . S
Zn0 O10 2.067 . S
Zn1 O2 1.962 . S
Zn1 O4 1.986 . S
Zn1 O6 1.996 . S
Zn1 O9 1.943 . S
O2 Zn1 1.962 . S
O2 C7 1.254 . S
O3 Zn0 2.031 . S
O3 C7 1.269 . S
O4 Zn1 1.986 . S
O4 C11 1.262 . S
O5 Zn0 2.049 . S
O5 C13 1.260 . S
O6 Zn1 1.996 . S
O6 C13 1.257 . S
C7 O2 1.254 . S
C7 O3 1.269 . S
C8 O9 1.249 . S
C8 O10 1.270 . S
O9 Zn1 1.943 . S
O9 C8 1.249 . S
O10 Zn0 2.067 . S
O10 C8 1.270 . S
C11 O4 1.262 . S
C11 O12 1.232 . S
O12 C11 1.232 . S
C13 O5 1.260 . S
C13 O6 1.257 . S
Zn14 O17 2.031 . S
Zn14 O19 2.049 . S
Zn14 O24 2.067 . S
Zn15 O16 1.962 . S
Zn15 O18 1.986 . S
Zn15 O20 1.996 . S
Zn15 O23 1.943 . S
O16 Zn15 1.962 . S
O16 C21 1.254 . S
O17 Zn14 2.031 . S
O17 C21 1.269 . S
O18 Zn15 1.986 . S
O18 C25 1.262 . S
O19 Zn14 2.049 . S
O19 C27 1.260 . S
O20 Zn15 1.996 . S
O20 C27 1.257 . S
C21 O16 1.254 . S
C21 O17 1.269 . S
C22 O23 1.249 . S
C22 O24 1.270 . S
O23 Zn15 1.943 . S
O23 C22 1.249 . S
O24 Zn14 2.067 . S
O24 C22 1.270 . S
C25 O18 1.262 . S
C25 O26 1.232 . S
O26 C25 1.232 . S
C27 O19 1.260 . S
C27 O20 1.257 . S
Zn28 O31 2.031 . S
Zn28 O33 2.049 . S
Zn28 O38 2.067 . S
Zn29 O30 1.962 . S
Zn29 O32 1.986 . S
Zn29 O34 1.996 . S
Zn29 O37 1.943 . S
O30 Zn29 1.962 . S
O30 C35 1.254 . S
O31 Zn28 2.031 . S
O31 C35 1.269 . S
O32 Zn29 1.986 . S
O32 C39 1.262 . S
O33 Zn28 2.049 . S
O33 C41 1.260 . S
O34 Zn29 1.996 . S
O34 C41 1.257 . S
C35 O30 1.254 . S
C35 O31 1.269 . S
C36 O37 1.249 . S
C36 O38 1.270 . S
O37 Zn29 1.943 . S
O37 C36 1.249 . S
O38 Zn28 2.067 . S
O38 C36 1.270 . S
C39 O32 1.262 . S
C39 O40 1.232 . S
O40 C39 1.232 . S
C41 O33 1.260 . S
C41 O34 1.257 . S
Zn42 O45 2.031 . S
Zn42 O47 2.049 . S
Zn42 O52 2.067 . S
Zn43 O44 1.962 . S
Zn43 O46 1.986 . S
Zn43 O48 1.996 . S
Zn43 O51 1.943 . S
O44 Zn43 1.962 . S
O44 C49 1.254 . S
O45 Zn42 2.031 . S
O45 C49 1.269 . S
O46 Zn43 1.986 . S
O46 C53 1.262 . S
O47 Zn42 2.049 . S
O47 C55 1.260 . S
O48 Zn43 1.996 . S
O48 C55 1.257 . S
C49 O44 1.254 . S
C49 O45 1.269 . S
C50 O51 1.249 . S
C50 O52 1.270 . S
O51 Zn43 1.943 . S
O51 C50 1.249 . S
O52 Zn42 2.067 . S
O52 C50 1.270 . S
C53 O46 1.262 . S
C53 O54 1.232 . S
O54 C53 1.232 . S
C55 O47 1.260 . S
C55 O48 1.257 . S
Zn56 O59 2.031 . S
Zn56 O61 2.049 . S
Zn56 O66 2.067 . S
Zn57 O58 1.962 . S
Zn57 O60 1.986 . S
Zn57 O62 1.996 . S
Zn57 O65 1.943 . S
O58 Zn57 1.962 . S
O58 C63 1.254 . S
O59 Zn56 2.031 . S
O59 C63 1.269 . S
O60 Zn57 1.986 . S
O60 C67 1.262 . S
O61 Zn56 2.049 . S
O61 C69 1.260 . S
O62 Zn57 1.996 . S
O62 C69 1.257 . S
C63 O58 1.254 . S
C63 O59 1.269 . S
C64 O65 1.249 . S
C64 O66 1.270 . S
O65 Zn57 1.943 . S
O65 C64 1.249 . S
O66 Zn56 2.067 . S
O66 C64 1.270 . S
C67 O60 1.262 . S
C67 O68 1.232 . S
O68 C67 1.232 . S
C69 O61 1.260 . S
C69 O62 1.257 . S
Zn70 O73 2.031 . S
Zn70 O75 2.049 . S
Zn70 O80 2.067 . S
Zn71 O72 1.962 . S
Zn71 O74 1.986 . S
Zn71 O76 1.996 . S
Zn71 O79 1.943 . S
O72 Zn71 1.962 . S
O72 C77 1.254 . S
O73 Zn70 2.031 . S
O73 C77 1.269 . S
O74 Zn71 1.986 . S
O74 C81 1.262 . S
O75 Zn70 2.049 . S
O75 C83 1.260 . S
O76 Zn71 1.996 . S
O76 C83 1.257 . S
C77 O72 1.254 . S
C77 O73 1.269 . S
C78 O79 1.249 . S
C78 O80 1.270 . S
O79 Zn71 1.943 . S
O79 C78 1.249 . S
O80 Zn70 2.067 . S
O80 C78 1.270 . S
C81 O74 1.262 . S
C81 O82 1.232 . S
O82 C81 1.232 . S
C83 O75 1.260 . S
C83 O76 1.257 . S
Zn84 O87 2.031 . S
Zn84 O89 2.049 . S
Zn84 O94 2.067 . S
Zn85 O86 1.962 . S
Zn85 O88 1.986 . S
Zn85 O90 1.996 . S
Zn85 O93 1.943 . S
O86 Zn85 1.962 . S
O86 C91 1.254 . S
O87 Zn84 2.031 . S
O87 C91 1.269 . S
O88 Zn85 1.986 . S
O88 C95 1.262 . S
O89 Zn84 2.049 . S
O89 C97 1.260 . S
O90 Zn85 1.996 . S
O90 C97 1.257 . S
C91 O86 1.254 . S
C91 O87 1.269 . S
C92 O93 1.249 . S
C92 O94 1.270 . S
O93 Zn85 1.943 . S
O93 C92 1.249 . S
O94 Zn84 2.067 . S
O94 C92 1.270 . S
C95 O88 1.262 . S
C95 O96 1.232 . S
O96 C95 1.232 . S
C97 O89 1.260 . S
C97 O90 1.257 . S
Zn98 O101 2.031 . S
Zn98 O103 2.049 . S
Zn98 O108 2.067 . S
Zn99 O100 1.962 . S
Zn99 O102 1.986 . S
Zn99 O104 1.996 . S
Zn99 O107 1.943 . S
O100 Zn99 1.962 . S
O100 C105 1.254 . S
O101 Zn98 2.031 . S
O101 C105 1.269 . S
O102 Zn99 1.986 . S
O102 C109 1.262 . S
O103 Zn98 2.049 . S
O103 C111 1.260 . S
O104 Zn99 1.996 . S
O104 C111 1.257 . S
C105 O100 1.254 . S
C105 O101 1.269 . S
C106 O107 1.249 . S
C106 O108 1.270 . S
O107 Zn99 1.943 . S
O107 C106 1.249 . S
O108 Zn98 2.067 . S
O108 C106 1.270 . S
C109 O102 1.262 . S
C109 O110 1.232 . S
O110 C109 1.232 . S
C111 O103 1.260 . S
C111 O104 1.257 . S
Zn112 O115 2.031 . S
Zn112 O117 2.049 . S
Zn112 O122 2.067 . S
Zn113 O114 1.962 . S
Zn113 O116 1.986 . S
Zn113 O118 1.996 . S
Zn113 O121 1.943 . S
O114 Zn113 1.962 . S
O114 C119 1.254 . S
O115 Zn112 2.031 . S
O115 C119 1.269 . S
O116 Zn113 1.986 . S
O116 C123 1.262 . S
O117 Zn112 2.049 . S
O117 C125 1.260 . S
O118 Zn113 1.996 . S
O118 C125 1.257 . S
C119 O114 1.254 . S
C119 O115 1.269 . S
C120 O121 1.249 . S
C120 O122 1.270 . S
O121 Zn113 1.943 . S
O121 C120 1.249 . S
O122 Zn112 2.067 . S
O122 C120 1.270 . S
C123 O116 1.262 . S
C123 O124 1.232 . S
O124 C123 1.232 . S
C125 O117 1.260 . S
C125 O118 1.257 . S
Zn126 O129 2.031 . S
Zn126 O131 2.049 . S
Zn126 O136 2.067 . S
Zn127 O128 1.962 . S
Zn127 O130 1.986 . S
Zn127 O132 1.996 . S
Zn127 O135 1.943 . S
O128 Zn127 1.962 . S
O128 C133 1.254 . S
O129 Zn126 2.031 . S
O129 C133 1.269 . S
O130 Zn127 1.986 . S
O130 C137 1.262 . S
O131 Zn126 2.049 . S
O131 C139 1.260 . S
O132 Zn127 1.996 . S
O132 C139 1.257 . S
C133 O128 1.254 . S
C133 O129 1.269 . S
C134 O135 1.249 . S
C134 O136 1.270 . S
O135 Zn127 1.943 . S
O135 C134 1.249 . S
O136 Zn126 2.067 . S
O136 C134 1.270 . S
C137 O130 1.262 . S
C137 O138 1.232 . S
O138 C137 1.232 . S
C139 O131 1.260 . S
C139 O132 1.257 . S
Zn140 O143 2.031 . S
Zn140 O145 2.049 . S
Zn140 O150 2.067 . S
Zn141 O142 1.962 . S
Zn141 O144 1.986 . S
Zn141 O146 1.996 . S
Zn141 O149 1.943 . S
O142 Zn141 1.962 . S
O142 C147 1.254 . S
O143 Zn140 2.031 . S
O143 C147 1.269 . S
O144 Zn141 1.986 . S
O144 C151 1.262 . S
O145 Zn140 2.049 . S
O145 C153 1.260 . S
O146 Zn141 1.996 . S
O146 C153 1.257 . S
C147 O142 1.254 . S
C147 O143 1.269 . S
C148 O149 1.249 . S
C148 O150 1.270 . S
O149 Zn141 1.943 . S
O149 C148 1.249 . S
O150 Zn140 2.067 . S
O150 C148 1.270 . S
C151 O144 1.262 . S
C151 O152 1.232 . S
O152 C151 1.232 . S
C153 O145 1.260 . S
C153 O146 1.257 . S
Zn154 O157 2.031 . S
Zn154 O159 2.049 . S
Zn154 O164 2.067 . S
Zn155 O156 1.962 . S
Zn155 O158 1.986 . S
Zn155 O160 1.996 . S
Zn155 O163 1.943 . S
O156 Zn155 1.962 . S
O156 C161 1.254 . S
O157 Zn154 2.031 . S
O157 C161 1.269 . S
O158 Zn155 1.986 . S
O158 C165 1.262 . S
O159 Zn154 2.049 . S
O159 C167 1.260 . S
O160 Zn155 1.996 . S
O160 C167 1.257 . S
C161 O156 1.254 . S
C161 O157 1.269 . S
C162 O163 1.249 . S
C162 O164 1.270 . S
O163 Zn155 1.943 . S
O163 C162 1.249 . S
O164 Zn154 2.067 . S
O164 C162 1.270 . S
C165 O158 1.262 . S
C165 O166 1.232 . S
O166 C165 1.232 . S
C167 O159 1.260 . S
C167 O160 1.257 . S
Zn168 O171 2.031 . S
Zn168 O173 2.049 . S
Zn168 O178 2.067 . S
Zn169 O170 1.962 . S
Zn169 O172 1.986 . S
Zn169 O174 1.996 . S
Zn169 O177 1.943 . S
O170 Zn169 1.962 . S
O170 C175 1.254 . S
O171 Zn168 2.031 . S
O171 C175 1.269 . S
O172 Zn169 1.986 . S
O172 C179 1.262 . S
O173 Zn168 2.049 . S
O173 C181 1.260 . S
O174 Zn169 1.996 . S
O174 C181 1.257 . S
C175 O170 1.254 . S
C175 O171 1.269 . S
C176 O177 1.249 . S
C176 O178 1.270 . S
O177 Zn169 1.943 . S
O177 C176 1.249 . S
O178 Zn168 2.067 . S
O178 C176 1.270 . S
C179 O172 1.262 . S
C179 O180 1.232 . S
O180 C179 1.232 . S
C181 O173 1.260 . S
C181 O174 1.257 . S
Zn182 O185 2.031 . S
Zn182 O187 2.049 . S
Zn182 O192 2.067 . S
Zn183 O184 1.962 . S
Zn183 O186 1.986 . S
Zn183 O188 1.996 . S
Zn183 O191 1.943 . S
O184 Zn183 1.962 . S
O184 C189 1.254 . S
O185 Zn182 2.031 . S
O185 C189 1.269 . S
O186 Zn183 1.986 . S
O186 C193 1.262 . S
O187 Zn182 2.049 . S
O187 C195 1.260 . S
O188 Zn183 1.996 . S
O188 C195 1.257 . S
C189 O184 1.254 . S
C189 O185 1.269 . S
C190 O191 1.249 . S
C190 O192 1.270 . S
O191 Zn183 1.943 . S
O191 C190 1.249 . S
O192 Zn182 2.067 . S
O192 C190 1.270 . S
C193 O186 1.262 . S
C193 O194 1.232 . S
O194 C193 1.232 . S
C195 O187 1.260 . S
C195 O188 1.257 . S
Zn196 O199 2.031 . S
Zn196 O201 2.049 . S
Zn196 O206 2.067 . S
Zn197 O198 1.962 . S
Zn197 O200 1.986 . S
Zn197 O202 1.996 . S
Zn197 O205 1.943 . S
O198 Zn197 1.962 . S
O198 C203 1.254 . S
O199 Zn196 2.031 . S
O199 C203 1.269 . S
O200 Zn197 1.986 . S
O200 C207 1.262 . S
O201 Zn196 2.049 . S
O201 C209 1.260 . S
O202 Zn197 1.996 . S
O202 C209 1.257 . S
C203 O198 1.254 . S
C203 O199 1.269 . S
C204 O205 1.249 . S
C204 O206 1.270 . S
O205 Zn197 1.943 . S
O205 C204 1.249 . S
O206 Zn196 2.067 . S
O206 C204 1.270 . S
C207 O200 1.262 . S
C207 O208 1.232 . S
O208 C207 1.232 . S
C209 O201 1.260 . S
C209 O202 1.257 . S
Zn210 O213 2.031 . S
Zn210 O215 2.049 . S
Zn210 O220 2.067 . S
Zn211 O212 1.962 . S
Zn211 O214 1.986 . S
Zn211 O216 1.996 . S
Zn211 O219 1.943 . S
O212 Zn211 1.962 . S
O212 C217 1.254 . S
O213 Zn210 2.031 . S
O213 C217 1.269 . S
O214 Zn211 1.986 . S
O214 C221 1.262 . S
O215 Zn210 2.049 . S
O215 C223 1.260 . S
O216 Zn211 1.996 . S
O216 C223 1.257 . S
C217 O212 1.254 . S
C217 O213 1.269 . S
C218 O219 1.249 . S
C218 O220 1.270 . S
O219 Zn211 1.943 . S
O219 C218 1.249 . S
O220 Zn210 2.067 . S
O220 C218 1.270 . S
C221 O214 1.262 . S
C221 O222 1.232 . S
O222 C221 1.232 . S
C223 O215 1.260 . S
C223 O216 1.257 . S
H224 C236 0.930 . S
H225 C238 0.930 . S
H226 C239 0.930 . S
H227 C243 0.959 . S
H228 C243 0.959 . S
H229 C243 0.961 . S
H230 C244 0.960 . S
H231 C244 0.961 . S
H232 C244 0.959 . S
H233 C247 0.929 . S
H234 C248 0.931 . S
H235 C250 0.930 . S
C236 H224 0.930 . S
C236 C237 1.399 . S
C236 C241 1.399 . S
C237 C236 1.399 . S
C237 C238 1.376 . S
C238 H225 0.930 . S
C238 C237 1.376 . S
C238 C239 1.388 . S
C239 H226 0.930 . S
C239 C238 1.388 . S
C239 C240 1.390 . S
C240 C239 1.390 . S
C240 C241 1.394 . S
C240 C246 1.465 . S
C241 C236 1.399 . S
C241 C240 1.394 . S
C241 C242 1.516 . S
C242 C241 1.516 . S
C242 C243 1.502 . S
C242 C244 1.561 . S
C242 C245 1.526 . S
C243 H227 0.959 . S
C243 H228 0.959 . S
C243 H229 0.961 . S
C243 C242 1.502 . S
C244 H230 0.960 . S
C244 H231 0.961 . S
C244 H232 0.959 . S
C244 C242 1.561 . S
C245 C242 1.526 . S
C245 C246 1.396 . S
C245 C250 1.390 . S
C246 C240 1.465 . S
C246 C245 1.396 . S
C246 C247 1.399 . S
C247 H233 0.929 . S
C247 C246 1.399 . S
C247 C248 1.385 . S
C248 H234 0.931 . S
C248 C247 1.385 . S
C248 C249 1.389 . S
C249 C248 1.389 . S
C249 C250 1.387 . S
C250 H235 0.930 . S
C250 C245 1.390 . S
C250 C249 1.387 . S
H251 C263 0.930 1_545 S
H252 C265 0.930 . S
H253 C266 0.930 . S
H254 C270 0.959 . S
H255 C270 0.959 . S
H256 C270 0.961 . S
H257 C271 0.960 1_655 S
H258 C271 0.961 . S
H259 C271 0.959 . S
H260 C274 0.929 . S
H261 C275 0.931 . S
H262 C277 0.930 . S
C263 H251 0.930 1_565 S
C263 C264 1.399 . S
C263 C268 1.399 1_565 S
C264 C263 1.399 . S
C264 C265 1.376 . S
C265 H252 0.930 . S
C265 C264 1.376 . S
C265 C266 1.388 . S
C266 H253 0.930 . S
C266 C265 1.388 . S
C266 C267 1.390 . S
C267 C266 1.390 . S
C267 C268 1.394 1_565 S
C267 C273 1.465 1_655 S
C268 C263 1.399 1_545 S
C268 C267 1.394 1_545 S
C268 C269 1.516 . S
C269 C268 1.516 . S
C269 C270 1.502 . S
C269 C271 1.561 1_655 S
C269 C272 1.526 1_655 S
C270 H254 0.959 . S
C270 H255 0.959 . S
C270 H256 0.961 . S
C270 C269 1.502 . S
C271 H257 0.960 1_455 S
C271 H258 0.961 . S
C271 H259 0.959 . S
C271 C269 1.561 1_455 S
C272 C269 1.526 1_455 S
C272 C273 1.396 1_545 S
C272 C277 1.390 . S
C273 C267 1.465 1_455 S
C273 C272 1.396 1_565 S
C273 C274 1.399 . S
C274 H260 0.929 . S
C274 C273 1.399 . S
C274 C275 1.385 . S
C275 H261 0.931 . S
C275 C274 1.385 . S
C275 C276 1.389 1_565 S
C276 C275 1.389 1_545 S
C276 C277 1.387 . S
C277 H262 0.930 . S
C277 C272 1.390 . S
C277 C276 1.387 . S
H278 C290 0.930 1_545 S
H279 C292 0.930 . S
H280 C293 0.930 . S
H281 C297 0.959 . S
H282 C297 0.959 . S
H283 C297 0.961 . S
H284 C298 0.960 . S
H285 C298 0.961 . S
H286 C298 0.959 . S
H287 C301 0.929 . S
H288 C302 0.931 . S
H289 C304 0.930 . S
C290 H278 0.930 1_565 S
C290 C291 1.399 . S
C290 C295 1.399 1_565 S
C291 C290 1.399 . S
C291 C292 1.376 . S
C292 H279 0.930 . S
C292 C291 1.376 . S
C292 C293 1.388 . S
C293 H280 0.930 . S
C293 C292 1.388 . S
C293 C294 1.390 . S
C294 C293 1.390 . S
C294 C295 1.394 1_565 S
C294 C300 1.465 . S
C295 C290 1.399 1_545 S
C295 C294 1.394 1_545 S
C295 C296 1.516 . S
C296 C295 1.516 . S
C296 C297 1.502 . S
C296 C298 1.561 . S
C296 C299 1.526 . S
C297 H281 0.959 . S
C297 H282 0.959 . S
C297 H283 0.961 . S
C297 C296 1.502 . S
C298 H284 0.960 . S
C298 H285 0.961 . S
C298 H286 0.959 . S
C298 C296 1.561 . S
C299 C296 1.526 . S
C299 C300 1.396 1_545 S
C299 C304 1.390 . S
C300 C294 1.465 . S
C300 C299 1.396 1_565 S
C300 C301 1.399 . S
C301 H287 0.929 . S
C301 C300 1.399 . S
C301 C302 1.385 . S
C302 H288 0.931 . S
C302 C301 1.385 . S
C302 C303 1.389 1_565 S
C303 C302 1.389 1_545 S
C303 C304 1.387 . S
C304 H289 0.930 . S
C304 C299 1.390 . S
C304 C303 1.387 . S
H305 C317 0.930 . S
H306 C319 0.930 . S
H307 C320 0.930 . S
H308 C324 0.959 . S
H309 C324 0.959 . S
H310 C324 0.961 . S
H311 C325 0.960 . S
H312 C325 0.961 . S
H313 C325 0.959 . S
H314 C328 0.929 . S
H315 C329 0.931 . S
H316 C331 0.930 . S
C317 H305 0.930 . S
C317 C318 1.399 . S
C317 C322 1.399 . S
C318 C317 1.399 . S
C318 C319 1.376 . S
C319 H306 0.930 . S
C319 C318 1.376 . S
C319 C320 1.388 . S
C320 H307 0.930 . S
C320 C319 1.388 . S
C320 C321 1.390 . S
C321 C320 1.390 . S
C321 C322 1.394 . S
C321 C327 1.465 1_455 S
C322 C317 1.399 . S
C322 C321 1.394 . S
C322 C323 1.516 . S
C323 C322 1.516 . S
C323 C324 1.502 1_455 S
C323 C325 1.561 . S
C323 C326 1.526 1_455 S
C324 H308 0.959 . S
C324 H309 0.959 . S
C324 H310 0.961 . S
C324 C323 1.502 1_655 S
C325 H311 0.960 . S
C325 H312 0.961 . S
C325 H313 0.959 . S
C325 C323 1.561 . S
C326 C323 1.526 1_655 S
C326 C327 1.396 . S
C326 C331 1.390 . S
C327 C321 1.465 1_655 S
C327 C326 1.396 . S
C327 C328 1.399 . S
C328 H314 0.929 . S
C328 C327 1.399 . S
C328 C329 1.385 . S
C329 H315 0.931 . S
C329 C328 1.385 . S
C329 C330 1.389 . S
C330 C329 1.389 . S
C330 C331 1.387 . S
C331 H316 0.930 . S
C331 C326 1.390 . S
C331 C330 1.387 . S
H332 C344 0.930 . S
H333 C346 0.930 . S
H334 C347 0.930 . S
H335 C351 0.959 . S
H336 C351 0.959 . S
H337 C351 0.961 . S
H338 C352 0.960 . S
H339 C352 0.961 . S
H340 C352 0.959 . S
H341 C355 0.929 . S
H342 C356 0.931 . S
H343 C358 0.930 . S
C344 H332 0.930 . S
C344 C345 1.399 . S
C344 C349 1.399 . S
C345 C344 1.399 . S
C345 C346 1.376 . S
C346 H333 0.930 . S
C346 C345 1.376 . S
C346 C347 1.388 . S
C347 H334 0.930 . S
C347 C346 1.388 . S
C347 C348 1.390 . S
C348 C347 1.390 . S
C348 C349 1.394 . S
C348 C354 1.465 . S
C349 C344 1.399 . S
C349 C348 1.394 . S
C349 C350 1.516 . S
C350 C349 1.516 . S
C350 C351 1.502 . S
C350 C352 1.561 . S
C350 C353 1.526 . S
C351 H335 0.959 . S
C351 H336 0.959 . S
C351 H337 0.961 . S
C351 C350 1.502 . S
C352 H338 0.960 . S
C352 H339 0.961 . S
C352 H340 0.959 . S
C352 C350 1.561 . S
C353 C350 1.526 . S
C353 C354 1.396 . S
C353 C358 1.390 . S
C354 C348 1.465 . S
C354 C353 1.396 . S
C354 C355 1.399 . S
C355 H341 0.929 . S
C355 C354 1.399 . S
C355 C356 1.385 . S
C356 H342 0.931 . S
C356 C355 1.385 . S
C356 C357 1.389 . S
C357 C356 1.389 . S
C357 C358 1.387 . S
C358 H343 0.930 . S
C358 C353 1.390 . S
C358 C357 1.387 . S
H359 C371 0.930 . S
H360 C373 0.930 . S
H361 C374 0.930 1_565 S
H362 C378 0.959 1_565 S
H363 C378 0.959 . S
H364 C378 0.961 . S
H365 C379 0.960 . S
H366 C379 0.961 . S
H367 C379 0.959 . S
H368 C382 0.929 . S
H369 C383 0.931 . S
H370 C385 0.930 . S
C371 H359 0.930 . S
C371 C372 1.399 . S
C371 C376 1.399 . S
C372 C371 1.399 . S
C372 C373 1.376 . S
C373 H360 0.930 . S
C373 C372 1.376 . S
C373 C374 1.388 . S
C374 H361 0.930 1_545 S
C374 C373 1.388 . S
C374 C375 1.390 . S
C375 C374 1.390 . S
C375 C376 1.394 . S
C375 C381 1.465 1_545 S
C376 C371 1.399 . S
C376 C375 1.394 . S
C376 C377 1.516 . S
C377 C376 1.516 . S
C377 C378 1.502 . S
C377 C379 1.561 . S
C377 C380 1.526 1_545 S
C378 H362 0.959 1_545 S
C378 H363 0.959 . S
C378 H364 0.961 . S
C378 C377 1.502 . S
C379 H365 0.960 . S
C379 H366 0.961 . S
C379 H367 0.959 . S
C379 C377 1.561 . S
C380 C377 1.526 1_565 S
C380 C381 1.396 . S
C380 C385 1.390 . S
C381 C375 1.465 1_565 S
C381 C380 1.396 . S
C381 C382 1.399 . S
C382 H368 0.929 . S
C382 C381 1.399 . S
C382 C383 1.385 . S
C383 H369 0.931 . S
C383 C382 1.385 . S
C383 C384 1.389 . S
C384 C383 1.389 . S
C384 C385 1.387 . S
C385 H370 0.930 . S
C385 C380 1.390 . S
C385 C384 1.387 . S
H386 C398 0.930 . S
H387 C400 0.930 . S
H388 C401 0.930 . S
H389 C405 0.959 . S
H390 C405 0.959 . S
H391 C405 0.961 . S
H392 C406 0.962 . S
H393 C406 0.958 1_455 S
H394 C406 0.961 . S
H395 C409 0.929 1_655 S
H396 C410 0.931 . S
H397 C412 0.930 . S
C398 H386 0.930 . S
C398 C399 1.399 . S
C398 C403 1.399 . S
C399 C398 1.399 . S
C399 C400 1.376 . S
C400 H387 0.930 . S
C400 C399 1.376 . S
C400 C401 1.388 . S
C401 H388 0.930 . S
C401 C400 1.388 . S
C401 C402 1.390 . S
C402 C401 1.390 . S
C402 C403 1.394 . S
C402 C408 1.465 1_655 S
C403 C398 1.399 . S
C403 C402 1.394 . S
C403 C404 1.516 1_655 S
C404 C403 1.516 1_455 S
C404 C405 1.502 . S
C404 C406 1.560 1_455 S
C404 C407 1.526 . S
C405 H389 0.959 . S
C405 H390 0.959 . S
C405 H391 0.961 . S
C405 C404 1.502 . S
C406 H392 0.962 . S
C406 H393 0.958 1_655 S
C406 H394 0.961 . S
C406 C404 1.560 1_655 S
C407 C404 1.526 . S
C407 C408 1.396 . S
C407 C412 1.390 . S
C408 C402 1.465 1_455 S
C408 C407 1.396 . S
C408 C409 1.399 . S
C409 H395 0.929 1_455 S
C409 C408 1.399 . S
C409 C410 1.385 . S
C410 H396 0.931 . S
C410 C409 1.385 . S
C410 C411 1.389 . S
C411 C410 1.389 . S
C411 C412 1.387 . S
C412 H397 0.930 . S
C412 C407 1.390 . S
C412 C411 1.387 . S
H413 C425 0.930 . S
H414 C427 0.930 . S
H415 C428 0.930 . S
H416 C432 0.959 . S
H417 C432 0.959 . S
H418 C432 0.961 . S
H419 C433 0.960 . S
H420 C433 0.961 . S
H421 C433 0.959 . S
H422 C436 0.929 . S
H423 C437 0.931 . S
H424 C439 0.973 . S
C425 H413 0.930 . S
C425 C426 1.399 . S
C425 C430 1.399 . S
C426 C425 1.399 . S
C426 C427 1.376 . S
C427 H414 0.930 . S
C427 C426 1.376 . S
C427 C428 1.388 1_554 S
C428 H415 0.930 . S
C428 C427 1.388 1_556 S
C428 C429 1.390 . S
C429 C428 1.390 . S
C429 C430 1.394 1_556 S
C429 C435 1.465 . S
C430 C425 1.399 . S
C430 C429 1.394 1_554 S
C430 C431 1.516 . S
C431 C430 1.516 . S
C431 C432 1.502 . S
C431 C433 1.561 . S
C431 C434 1.526 1_554 S
C432 H416 0.959 . S
C432 H417 0.959 . S
C432 H418 0.961 . S
C432 C431 1.502 . S
C433 H419 0.960 . S
C433 H420 0.961 . S
C433 H421 0.959 . S
C433 C431 1.561 . S
C434 C431 1.526 1_556 S
C434 C435 1.396 . S
C434 C439 1.390 . S
C435 C429 1.465 . S
C435 C434 1.396 . S
C435 C436 1.399 . S
C436 H422 0.929 . S
C436 C435 1.399 . S
C436 C437 1.385 . S
C437 H423 0.931 . S
C437 C436 1.385 . S
C437 C438 1.389 . S
C438 C437 1.389 . S
C438 C439 1.387 . S
C439 H424 0.973 . S
C439 C434 1.390 . S
C439 C438 1.387 . S
H440 C452 0.930 . S
H441 C454 0.930 . S
H442 C455 0.930 . S
H443 C459 0.959 . S
H444 C459 0.959 . S
H445 C459 0.961 . S
H446 C460 0.962 . S
H447 C460 0.961 . S
H448 C460 0.959 1_556 S
H449 C463 0.929 . S
H450 C464 0.931 . S
H451 C466 0.930 . S
C452 H440 0.930 . S
C452 C453 1.399 . S
C452 C457 1.399 . S
C453 C452 1.399 . S
C453 C454 1.376 . S
C454 H441 0.930 . S
C454 C453 1.376 . S
C454 C455 1.388 . S
C455 H442 0.930 . S
C455 C454 1.388 . S
C455 C456 1.390 . S
C456 C455 1.390 . S
C456 C457 1.394 . S
C456 C462 1.465 1_455 S
C457 C452 1.399 . S
C457 C456 1.394 . S
C457 C458 1.516 1_456 S
C458 C457 1.516 1_654 S
C458 C459 1.502 1_655 S
C458 C460 1.561 . S
C458 C461 1.526 . S
C459 H443 0.959 . S
C459 H444 0.959 . S
C459 H445 0.961 . S
C459 C458 1.502 1_455 S
C460 H446 0.962 . S
C460 H447 0.961 . S
C460 H448 0.959 1_554 S
C460 C458 1.561 . S
C461 C458 1.526 . S
C461 C462 1.396 1_554 S
C461 C466 1.390 . S
C462 C456 1.465 1_655 S
C462 C461 1.396 1_556 S
C462 C463 1.399 . S
C463 H449 0.929 . S
C463 C462 1.399 . S
C463 C464 1.385 1_556 S
C464 H450 0.931 . S
C464 C463 1.385 1_554 S
C464 C465 1.389 . S
C465 C464 1.389 . S
C465 C466 1.387 . S
C466 H451 0.930 . S
C466 C461 1.390 . S
C466 C465 1.387 . S
H467 C479 0.930 . S
H468 C481 0.930 . S
H469 C482 0.930 . S
H470 C486 0.959 . S
H471 C486 0.959 . S
H472 C486 0.961 . S
H473 C487 0.960 . S
H474 C487 0.961 . S
H475 C487 0.959 . S
H476 C490 0.929 . S
H477 C491 0.931 . S
H478 C493 0.930 . S
C479 H467 0.930 . S
C479 C480 1.399 . S
C479 C484 1.399 . S
C480 C479 1.399 . S
C480 C481 1.376 . S
C481 H468 0.930 . S
C481 C480 1.376 . S
C481 C482 1.388 . S
C482 H469 0.930 . S
C482 C481 1.388 . S
C482 C483 1.390 . S
C483 C482 1.390 . S
C483 C484 1.394 . S
C483 C489 1.465 . S
C484 C479 1.399 . S
C484 C483 1.394 . S
C484 C485 1.516 . S
C485 C484 1.516 . S
C485 C486 1.502 . S
C485 C487 1.561 . S
C485 C488 1.526 . S
C486 H470 0.959 . S
C486 H471 0.959 . S
C486 H472 0.961 . S
C486 C485 1.502 . S
C487 H473 0.960 . S
C487 H474 0.961 . S
C487 H475 0.959 . S
C487 C485 1.561 . S
C488 C485 1.526 . S
C488 C489 1.396 . S
C488 C493 1.390 . S
C489 C483 1.465 . S
C489 C488 1.396 . S
C489 C490 1.399 . S
C490 H476 0.929 . S
C490 C489 1.399 . S
C490 C491 1.385 . S
C491 H477 0.931 . S
C491 C490 1.385 . S
C491 C492 1.389 . S
C492 C491 1.389 . S
C492 C493 1.387 . S
C493 H478 0.930 . S
C493 C488 1.390 . S
C493 C492 1.387 . S
H494 C506 0.930 . S
H495 C508 0.930 . S
H496 C509 0.930 . S
H497 C513 0.959 . S
H498 C513 0.959 . S
H499 C513 0.961 . S
H500 C514 0.960 . S
H501 C514 0.961 1_554 S
H502 C514 0.959 . S
H503 C517 0.929 1_556 S
H504 C518 0.931 . S
H505 C520 0.930 . S
C506 H494 0.930 . S
C506 C507 1.399 . S
C506 C511 1.399 . S
C507 C506 1.399 . S
C507 C508 1.376 . S
C508 H495 0.930 . S
C508 C507 1.376 . S
C508 C509 1.388 . S
C509 H496 0.930 . S
C509 C508 1.388 . S
C509 C510 1.390 . S
C510 C509 1.390 . S
C510 C511 1.394 . S
C510 C516 1.445 1_556 S
C511 C506 1.399 . S
C511 C510 1.394 . S
C511 C512 1.516 1_556 S
C512 C511 1.516 1_554 S
C512 C513 1.502 . S
C512 C514 1.561 1_554 S
C512 C515 1.526 . S
C513 H497 0.959 . S
C513 H498 0.959 . S
C513 H499 0.961 . S
C513 C512 1.502 . S
C514 H500 0.960 . S
C514 H501 0.961 1_556 S
C514 H502 0.959 . S
C514 C512 1.561 1_556 S
C515 C512 1.526 . S
C515 C516 1.417 . S
C515 C520 1.390 . S
C516 C510 1.445 1_554 S
C516 C515 1.417 . S
C516 C517 1.402 . S
C517 H503 0.929 1_554 S
C517 C516 1.402 . S
C517 C518 1.385 . S
C518 H504 0.931 . S
C518 C517 1.385 . S
C518 C519 1.389 . S
C519 C518 1.389 . S
C519 C520 1.387 . S
C520 H505 0.930 . S
C520 C515 1.390 . S
C520 C519 1.387 . S
H521 C533 0.930 . S
H522 C535 0.930 . S
H523 C536 0.930 . S
H524 C540 0.959 . S
H525 C540 0.959 . S
H526 C540 0.961 . S
H527 C541 0.960 . S
H528 C541 0.961 . S
H529 C541 0.959 . S
H530 C544 0.929 . S
H531 C545 0.931 . S
H532 C547 0.930 . S
C533 H521 0.930 . S
C533 C534 1.399 . S
C533 C538 1.399 . S
C534 C533 1.399 . S
C534 C535 1.376 . S
C535 H522 0.930 . S
C535 C534 1.376 . S
C535 C536 1.388 . S
C536 H523 0.930 . S
C536 C535 1.388 . S
C536 C537 1.390 . S
C537 C536 1.390 . S
C537 C538 1.394 . S
C537 C543 1.465 . S
C538 C533 1.399 . S
C538 C537 1.394 . S
C538 C539 1.516 . S
C539 C538 1.516 . S
C539 C540 1.502 . S
C539 C541 1.561 . S
C539 C542 1.526 . S
C540 H524 0.959 . S
C540 H525 0.959 . S
C540 H526 0.961 . S
C540 C539 1.502 . S
C541 H527 0.960 . S
C541 H528 0.961 . S
C541 H529 0.959 . S
C541 C539 1.561 . S
C542 C539 1.526 . S
C542 C543 1.396 . S
C542 C547 1.390 . S
C543 C537 1.465 . S
C543 C542 1.396 . S
C543 C544 1.399 . S
C544 H530 0.929 . S
C544 C543 1.399 . S
C544 C545 1.385 . S
C545 H531 0.931 . S
C545 C544 1.385 . S
C545 C546 1.389 . S
C546 C545 1.389 . S
C546 C547 1.387 . S
C547 H532 0.930 . S
C547 C542 1.390 . S
C547 C546 1.387 . S
H548 C560 0.930 . S
H549 C562 0.929 1_565 S
H550 C563 0.930 . S
H551 C567 0.959 . S
H552 C567 0.959 . S
H553 C567 0.961 . S
H554 C568 0.960 . S
H555 C568 0.961 . S
H556 C568 0.959 1_556 S
H557 C571 0.929 . S
H558 C572 0.931 . S
H559 C574 0.930 1_545 S
C560 H548 0.930 . S
C560 C561 1.399 . S
C560 C565 1.399 . S
C561 C560 1.399 . S
C561 C562 1.380 . S
C562 H549 0.929 1_545 S
C562 C561 1.380 . S
C562 C563 1.386 1_545 S
C563 H550 0.930 . S
C563 C562 1.386 1_565 S
C563 C564 1.390 . S
C564 C563 1.390 . S
C564 C565 1.394 1_565 S
C564 C570 1.465 . S
C565 C560 1.399 . S
C565 C564 1.394 1_545 S
C565 C566 1.516 1_556 S
C566 C565 1.516 1_554 S
C566 C567 1.502 . S
C566 C568 1.561 . S
C566 C569 1.526 . S
C567 H551 0.959 . S
C567 H552 0.959 . S
C567 H553 0.961 . S
C567 C566 1.502 . S
C568 H554 0.960 . S
C568 H555 0.961 . S
C568 H556 0.959 1_554 S
C568 C566 1.561 . S
C569 C566 1.526 . S
C569 C570 1.396 1_544 S
C569 C574 1.390 1_545 S
C570 C564 1.465 . S
C570 C569 1.396 1_566 S
C570 C571 1.399 . S
C571 H557 0.929 . S
C571 C570 1.399 . S
C571 C572 1.385 1_556 S
C572 H558 0.931 . S
C572 C571 1.385 1_554 S
C572 C573 1.389 . S
C573 C572 1.389 . S
C573 C574 1.387 . S
C574 H559 0.930 1_565 S
C574 C569 1.390 1_565 S
C574 C573 1.387 . S
H575 C587 0.930 . S
H576 C589 0.930 . S
H577 C590 0.930 . S
H578 C594 0.959 . S
H579 C594 0.959 . S
H580 C594 0.961 . S
H581 C595 0.960 . S
H582 C595 0.961 . S
H583 C595 0.959 . S
H584 C598 0.929 . S
H585 C599 0.931 . S
H586 C601 0.930 . S
C587 H575 0.930 . S
C587 C588 1.399 . S
C587 C592 1.399 . S
C588 C587 1.399 . S
C588 C589 1.376 . S
C589 H576 0.930 . S
C589 C588 1.376 . S
C589 C590 1.388 . S
C590 H577 0.930 . S
C590 C589 1.388 . S
C590 C591 1.390 . S
C591 C590 1.390 . S
C591 C592 1.394 . S
C591 C597 1.465 . S
C592 C587 1.399 . S
C592 C591 1.394 . S
C592 C593 1.516 . S
C593 C592 1.516 . S
C593 C594 1.502 . S
C593 C595 1.561 . S
C593 C596 1.526 . S
C594 H578 0.959 . S
C594 H579 0.959 . S
C594 H580 0.961 . S
C594 C593 1.502 . S
C595 H581 0.960 . S
C595 H582 0.961 . S
C595 H583 0.959 . S
C595 C593 1.561 . S
C596 C593 1.526 . S
C596 C597 1.396 . S
C596 C601 1.390 . S
C597 C591 1.465 . S
C597 C596 1.396 . S
C597 C598 1.399 . S
C598 H584 0.929 . S
C598 C597 1.399 . S
C598 C599 1.385 . S
C599 H585 0.931 . S
C599 C598 1.385 . S
C599 C600 1.389 . S
C600 C599 1.389 . S
C600 C601 1.387 . S
C601 H586 0.930 . S
C601 C596 1.390 . S
C601 C600 1.387 . S
H602 C614 0.930 . S
H603 C616 0.930 . S
H604 C617 0.930 . S
H605 C621 0.959 . S
H606 C621 0.959 . S
H607 C621 0.961 . S
H608 C622 0.960 . S
H609 C622 0.961 . S
H610 C622 0.959 . S
H611 C625 0.929 . S
H612 C626 0.931 . S
H613 C628 0.930 . S
C614 H602 0.930 . S
C614 C615 1.399 . S
C614 C619 1.399 . S
C615 C614 1.399 . S
C615 C616 1.376 . S
C616 H603 0.930 . S
C616 C615 1.376 . S
C616 C617 1.388 . S
C617 H604 0.930 . S
C617 C616 1.388 . S
C617 C618 1.390 . S
C618 C617 1.390 . S
C618 C619 1.394 . S
C618 C624 1.465 . S
C619 C614 1.399 . S
C619 C618 1.394 . S
C619 C620 1.516 . S
C620 C619 1.516 . S
C620 C621 1.502 . S
C620 C622 1.561 . S
C620 C623 1.526 . S
C621 H605 0.959 . S
C621 H606 0.959 . S
C621 H607 0.961 . S
C621 C620 1.502 . S
C622 H608 0.960 . S
C622 H609 0.961 . S
C622 H610 0.959 . S
C622 C620 1.561 . S
C623 C620 1.526 . S
C623 C624 1.396 . S
C623 C628 1.390 . S
C624 C618 1.465 . S
C624 C623 1.396 . S
C624 C625 1.399 . S
C625 H611 0.929 . S
C625 C624 1.399 . S
C625 C626 1.385 . S
C626 H612 0.931 . S
C626 C625 1.385 . S
C626 C627 1.389 . S
C627 C626 1.389 . S
C627 C628 1.387 . S
C628 H613 0.930 . S
C628 C623 1.390 . S
C628 C627 1.387 . S
H629 C641 0.930 . S
H630 C643 0.930 . S
H631 C644 0.930 . S
H632 C648 0.959 . S
H633 C648 0.959 . S
H634 C648 0.961 . S
H635 C649 0.960 . S
H636 C649 0.961 . S
H637 C649 0.959 . S
H638 C652 0.929 . S
H639 C653 0.931 . S
H640 C655 0.930 . S
C641 H629 0.930 . S
C641 C642 1.399 . S
C641 C646 1.399 . S
C642 C641 1.399 . S
C642 C643 1.376 . S
C643 H630 0.930 . S
C643 C642 1.376 . S
C643 C644 1.388 . S
C644 H631 0.930 . S
C644 C643 1.388 . S
C644 C645 1.390 . S
C645 C644 1.390 . S
C645 C646 1.394 . S
C645 C651 1.465 . S
C646 C641 1.399 . S
C646 C645 1.394 . S
C646 C647 1.516 . S
C647 C646 1.516 . S
C647 C648 1.502 . S
C647 C649 1.561 . S
C647 C650 1.526 . S
C648 H632 0.959 . S
C648 H633 0.959 . S
C648 H634 0.961 . S
C648 C647 1.502 . S
C649 H635 0.960 . S
C649 H636 0.961 . S
C649 H637 0.959 . S
C649 C647 1.561 . S
C650 C647 1.526 . S
C650 C651 1.396 . S
C650 C655 1.390 . S
C651 C645 1.465 . S
C651 C650 1.396 . S
C651 C652 1.399 . S
C652 H638 0.929 . S
C652 C651 1.399 . S
C652 C653 1.385 . S
C653 H639 0.931 . S
C653 C652 1.385 . S
C653 C654 1.389 . S
C654 C653 1.389 . S
C654 C655 1.387 . S
C655 H640 0.930 . S
C655 C650 1.390 . S
C655 C654 1.387 . S
H656 C668 0.930 . S
H657 C670 0.930 . S
H658 C671 0.930 . S
H659 C675 0.959 . S
H660 C675 0.959 . S
H661 C675 0.961 . S
H662 C676 0.960 . S
H663 C676 0.961 . S
H664 C676 0.959 . S
H665 C679 0.929 . S
H666 C680 0.931 . S
H667 C682 0.930 . S
C668 H656 0.930 . S
C668 C669 1.399 . S
C668 C673 1.399 . S
C669 C668 1.399 . S
C669 C670 1.376 . S
C670 H657 0.930 . S
C670 C669 1.376 . S
C670 C671 1.388 . S
C671 H658 0.930 . S
C671 C670 1.388 . S
C671 C672 1.390 . S
C672 C671 1.390 . S
C672 C673 1.394 . S
C672 C678 1.465 . S
C673 C668 1.399 . S
C673 C672 1.394 . S
C673 C674 1.516 . S
C674 C673 1.516 . S
C674 C675 1.502 . S
C674 C676 1.561 . S
C674 C677 1.526 . S
C675 H659 0.959 . S
C675 H660 0.959 . S
C675 H661 0.961 . S
C675 C674 1.502 . S
C676 H662 0.960 . S
C676 H663 0.961 . S
C676 H664 0.959 . S
C676 C674 1.561 . S
C677 C674 1.526 . S
C677 C678 1.396 . S
C677 C682 1.390 . S
C678 C672 1.465 . S
C678 C677 1.396 . S
C678 C679 1.399 . S
C679 H665 0.929 . S
C679 C678 1.399 . S
C679 C680 1.385 . S
C680 H666 0.931 . S
C680 C679 1.385 . S
C680 C681 1.389 . S
C681 C680 1.389 . S
C681 C682 1.387 . S
C682 H667 0.930 . S
C682 C677 1.390 . S
C682 C681 1.387 . S
H683 C695 0.930 . S
H684 C697 0.930 . S
H685 C698 0.930 . S
H686 C702 0.959 . S
H687 C702 0.959 . S
H688 C702 0.961 . S
H689 C703 0.960 . S
H690 C703 0.961 . S
H691 C703 0.959 . S
H692 C706 0.929 . S
H693 C707 0.931 . S
H694 C709 0.930 . S
C695 H683 0.930 . S
C695 C696 1.399 . S
C695 C700 1.399 . S
C696 C695 1.399 . S
C696 C697 1.376 . S
C697 H684 0.930 . S
C697 C696 1.376 . S
C697 C698 1.388 . S
C698 H685 0.930 . S
C698 C697 1.388 . S
C698 C699 1.390 . S
C699 C698 1.390 . S
C699 C700 1.394 . S
C699 C705 1.465 . S
C700 C695 1.399 . S
C700 C699 1.394 . S
C700 C701 1.516 . S
C701 C700 1.516 . S
C701 C702 1.502 . S
C701 C703 1.561 . S
C701 C704 1.526 . S
C702 H686 0.959 . S
C702 H687 0.959 . S
C702 H688 0.961 . S
C702 C701 1.502 . S
C703 H689 0.960 . S
C703 H690 0.961 . S
C703 H691 0.959 . S
C703 C701 1.561 . S
C704 C701 1.526 . S
C704 C705 1.396 . S
C704 C709 1.390 . S
C705 C699 1.465 . S
C705 C704 1.396 . S
C705 C706 1.399 . S
C706 H692 0.929 . S
C706 C705 1.399 . S
C706 C707 1.385 . S
C707 H693 0.931 . S
C707 C706 1.385 . S
C707 C708 1.389 . S
C708 C707 1.389 . S
C708 C709 1.387 . S
C709 H694 0.930 . S
C709 C704 1.390 . S
C709 C708 1.387 . S
H710 C722 0.930 . S
H711 C724 0.930 . S
H712 C725 0.930 . S
H713 C729 0.959 . S
H714 C729 0.959 . S
H715 C729 0.961 . S
H716 C730 0.960 . S
H717 C730 0.961 . S
H718 C730 0.959 . S
H719 C733 0.929 . S
H720 C734 0.931 . S
H721 C736 0.930 . S
C722 H710 0.930 . S
C722 C723 1.399 . S
C722 C727 1.399 . S
C723 C722 1.399 . S
C723 C724 1.376 . S
C724 H711 0.930 . S
C724 C723 1.376 . S
C724 C725 1.388 . S
C725 H712 0.930 . S
C725 C724 1.388 . S
C725 C726 1.390 . S
C726 C725 1.390 . S
C726 C727 1.394 . S
C726 C732 1.465 . S
C727 C722 1.399 . S
C727 C726 1.394 . S
C727 C728 1.516 . S
C728 C727 1.516 . S
C728 C729 1.502 . S
C728 C730 1.561 . S
C728 C731 1.526 . S
C729 H713 0.959 . S
C729 H714 0.959 . S
C729 H715 0.961 . S
C729 C728 1.502 . S
C730 H716 0.960 . S
C730 H717 0.961 . S
C730 H718 0.959 . S
C730 C728 1.561 . S
C731 C728 1.526 . S
C731 C732 1.396 . S
C731 C736 1.390 . S
C732 C726 1.465 . S
C732 C731 1.396 . S
C732 C733 1.399 . S
C733 H719 0.929 . S
C733 C732 1.399 . S
C733 C734 1.385 . S
C734 H720 0.931 . S
C734 C733 1.385 . S
C734 C735 1.389 . S
C735 C734 1.389 . S
C735 C736 1.387 . S
C736 H721 0.930 . S
C736 C731 1.390 . S
C736 C735 1.387 . S
H737 C749 0.930 . S
H738 C751 0.930 . S
H739 C752 0.930 . S
H740 C756 0.959 . S
H741 C756 0.959 . S
H742 C756 0.961 . S
H743 C757 0.960 . S
H744 C757 0.961 . S
H745 C757 0.959 . S
H746 C760 0.929 . S
H747 C761 0.931 . S
H748 C763 0.930 . S
C749 H737 0.930 . S
C749 C750 1.399 . S
C749 C754 1.399 . S
C750 C749 1.399 . S
C750 C751 1.376 . S
C751 H738 0.930 . S
C751 C750 1.376 . S
C751 C752 1.388 . S
C752 H739 0.930 . S
C752 C751 1.388 . S
C752 C753 1.390 . S
C753 C752 1.390 . S
C753 C754 1.394 . S
C753 C759 1.465 . S
C754 C749 1.399 . S
C754 C753 1.394 . S
C754 C755 1.516 . S
C755 C754 1.516 . S
C755 C756 1.502 . S
C755 C757 1.561 . S
C755 C758 1.526 . S
C756 H740 0.959 . S
C756 H741 0.959 . S
C756 H742 0.961 . S
C756 C755 1.502 . S
C757 H743 0.960 . S
C757 H744 0.961 . S
C757 H745 0.959 . S
C757 C755 1.561 . S
C758 C755 1.526 . S
C758 C759 1.396 . S
C758 C763 1.390 . S
C759 C753 1.465 . S
C759 C758 1.396 . S
C759 C760 1.399 . S
C760 H746 0.929 . S
C760 C759 1.399 . S
C760 C761 1.385 . S
C761 H747 0.931 . S
C761 C760 1.385 . S
C761 C762 1.389 . S
C762 C761 1.389 . S
C762 C763 1.387 . S
C763 H748 0.930 . S
C763 C758 1.390 . S
C763 C762 1.387 . S
H764 C776 0.930 . S
H765 C778 0.930 . S
H766 C779 0.930 . S
H767 C783 0.959 . S
H768 C783 0.959 . S
H769 C783 0.961 . S
H770 C784 0.960 . S
H771 C784 0.961 . S
H772 C784 0.959 . S
H773 C787 0.929 . S
H774 C788 0.931 1_565 S
H775 C790 0.930 . S
C776 H764 0.930 . S
C776 C777 1.399 . S
C776 C781 1.399 . S
C777 C776 1.399 . S
C777 C778 1.376 . S
C778 H765 0.930 . S
C778 C777 1.376 . S
C778 C779 1.388 . S
C779 H766 0.930 . S
C779 C778 1.388 . S
C779 C780 1.390 . S
C780 C779 1.390 . S
C780 C781 1.394 . S
C780 C786 1.465 . S
C781 C776 1.399 . S
C781 C780 1.394 . S
C781 C782 1.516 . S
C782 C781 1.516 . S
C782 C783 1.502 . S
C782 C784 1.561 . S
C782 C785 1.526 . S
C783 H767 0.959 . S
C783 H768 0.959 . S
C783 H769 0.961 . S
C783 C782 1.502 . S
C784 H770 0.960 . S
C784 H771 0.961 . S
C784 H772 0.959 . S
C784 C782 1.561 . S
C785 C782 1.526 . S
C785 C786 1.396 . S
C785 C790 1.390 . S
C786 C780 1.465 . S
C786 C785 1.396 . S
C786 C787 1.399 . S
C787 H773 0.929 . S
C787 C786 1.399 . S
C787 C788 1.385 . S
C788 H774 0.931 1_545 S
C788 C787 1.385 . S
C788 C789 1.389 . S
C789 C788 1.389 . S
C789 C790 1.387 . S
C790 H775 0.930 . S
C790 C785 1.390 . S
C790 C789 1.387 . S
H791 C803 0.930 . S
H792 C805 0.930 . S
H793 C806 0.930 . S
H794 C810 0.959 . S
H795 C810 0.959 . S
H796 C810 0.961 . S
H797 C811 0.960 . S
H798 C811 0.961 . S
H799 C811 0.959 . S
H800 C814 0.929 . S
H801 C815 0.931 . S
H802 C817 0.930 . S
C803 H791 0.930 . S
C803 C804 1.399 . S
C803 C808 1.399 . S
C804 C803 1.399 . S
C804 C805 1.376 . S
C805 H792 0.930 . S
C805 C804 1.376 . S
C805 C806 1.388 . S
C806 H793 0.930 . S
C806 C805 1.388 . S
C806 C807 1.390 . S
C807 C806 1.390 . S
C807 C808 1.394 . S
C807 C813 1.465 . S
C808 C803 1.399 . S
C808 C807 1.394 . S
C808 C809 1.516 . S
C809 C808 1.516 . S
C809 C810 1.502 . S
C809 C811 1.561 . S
C809 C812 1.526 . S
C810 H794 0.959 . S
C810 H795 0.959 . S
C810 H796 0.961 . S
C810 C809 1.502 . S
C811 H797 0.960 . S
C811 H798 0.961 . S
C811 H799 0.959 . S
C811 C809 1.561 . S
C812 C809 1.526 . S
C812 C813 1.396 . S
C812 C817 1.390 . S
C813 C807 1.465 . S
C813 C812 1.396 . S
C813 C814 1.399 . S
C814 H800 0.929 . S
C814 C813 1.399 . S
C814 C815 1.385 . S
C815 H801 0.931 . S
C815 C814 1.385 . S
C815 C816 1.389 . S
C816 C815 1.389 . S
C816 C817 1.387 . S
C817 H802 0.930 . S
C817 C812 1.390 . S
C817 C816 1.387 . S
H818 C830 0.930 . S
H819 C832 0.930 . S
H820 C833 0.930 . S
H821 C837 0.959 . S
H822 C837 0.959 . S
H823 C837 0.961 . S
H824 C838 0.960 . S
H825 C838 0.961 . S
H826 C838 0.959 . S
H827 C841 0.929 . S
H828 C842 0.931 . S
H829 C844 0.930 . S
C830 H818 0.930 . S
C830 C831 1.399 . S
C830 C835 1.399 . S
C831 C830 1.399 . S
C831 C832 1.376 . S
C832 H819 0.930 . S
C832 C831 1.376 . S
C832 C833 1.388 . S
C833 H820 0.930 . S
C833 C832 1.388 . S
C833 C834 1.390 . S
C834 C833 1.390 . S
C834 C835 1.394 . S
C834 C840 1.465 . S
C835 C830 1.399 . S
C835 C834 1.394 . S
C835 C836 1.516 . S
C836 C835 1.516 . S
C836 C837 1.502 . S
C836 C838 1.561 . S
C836 C839 1.526 . S
C837 H821 0.959 . S
C837 H822 0.959 . S
C837 H823 0.961 . S
C837 C836 1.502 . S
C838 H824 0.960 . S
C838 H825 0.961 . S
C838 H826 0.959 . S
C838 C836 1.561 . S
C839 C836 1.526 . S
C839 C840 1.396 . S
C839 C844 1.390 . S
C840 C834 1.465 . S
C840 C839 1.396 . S
C840 C841 1.399 . S
C841 H827 0.929 . S
C841 C840 1.399 . S
C841 C842 1.385 . S
C842 H828 0.931 . S
C842 C841 1.385 . S
C842 C843 1.389 . S
C843 C842 1.389 . S
C843 C844 1.387 . S
C844 H829 0.930 . S
C844 C839 1.390 . S
C844 C843 1.387 . S
H845 C857 0.930 . S
H846 C859 0.930 . S
H847 C860 0.930 . S
H848 C864 0.959 . S
H849 C864 0.959 . S
H850 C864 0.961 . S
H851 C865 0.960 . S
H852 C865 0.961 . S
H853 C865 0.959 . S
H854 C868 0.929 . S
H855 C869 0.931 . S
H856 C871 0.930 . S
C857 H845 0.930 . S
C857 C858 1.399 . S
C857 C862 1.399 . S
C858 C857 1.399 . S
C858 C859 1.376 . S
C859 H846 0.930 . S
C859 C858 1.376 . S
C859 C860 1.388 . S
C860 H847 0.930 . S
C860 C859 1.388 . S
C860 C861 1.390 . S
C861 C860 1.390 . S
C861 C862 1.394 . S
C861 C867 1.465 . S
C862 C857 1.399 . S
C862 C861 1.394 . S
C862 C863 1.516 . S
C863 C862 1.516 . S
C863 C864 1.502 . S
C863 C865 1.561 . S
C863 C866 1.526 . S
C864 H848 0.959 . S
C864 H849 0.959 . S
C864 H850 0.961 . S
C864 C863 1.502 . S
C865 H851 0.960 . S
C865 H852 0.961 . S
C865 H853 0.959 . S
C865 C863 1.561 . S
C866 C863 1.526 . S
C866 C867 1.396 . S
C866 C871 1.390 . S
C867 C861 1.465 . S
C867 C866 1.396 . S
C867 C868 1.399 . S
C868 H854 0.929 . S
C868 C867 1.399 . S
C868 C869 1.385 . S
C869 H855 0.931 . S
C869 C868 1.385 . S
C869 C870 1.389 . S
C870 C869 1.389 . S
C870 C871 1.387 . S
C871 H856 0.930 . S
C871 C866 1.390 . S
C871 C870 1.387 . S
H872 C884 0.930 . S
H873 C886 0.930 . S
H874 C887 0.930 . S
H875 C891 0.959 . S
H876 C891 0.959 . S
H877 C891 0.961 . S
H878 C892 0.960 . S
H879 C892 0.961 . S
H880 C892 0.959 . S
H881 C895 0.929 . S
H882 C896 0.931 1_545 S
H883 C898 0.930 . S
C884 H872 0.930 . S
C884 C885 1.399 . S
C884 C889 1.399 . S
C885 C884 1.399 . S
C885 C886 1.376 . S
C886 H873 0.930 . S
C886 C885 1.376 . S
C886 C887 1.388 . S
C887 H874 0.930 . S
C887 C886 1.388 . S
C887 C888 1.390 . S
C888 C887 1.390 . S
C888 C889 1.394 . S
C888 C894 1.465 . S
C889 C884 1.399 . S
C889 C888 1.394 . S
C889 C890 1.516 . S
C890 C889 1.516 . S
C890 C891 1.502 . S
C890 C892 1.561 . S
C890 C893 1.526 . S
C891 H875 0.959 . S
C891 H876 0.959 . S
C891 H877 0.961 . S
C891 C890 1.502 . S
C892 H878 0.960 . S
C892 H879 0.961 . S
C892 H880 0.959 . S
C892 C890 1.561 . S
C893 C890 1.526 . S
C893 C894 1.396 . S
C893 C898 1.390 . S
C894 C888 1.465 . S
C894 C893 1.396 . S
C894 C895 1.399 . S
C895 H881 0.929 . S
C895 C894 1.399 . S
C895 C896 1.385 . S
C896 H882 0.931 1_565 S
C896 C895 1.385 . S
C896 C897 1.389 . S
C897 C896 1.389 . S
C897 C898 1.387 . S
C898 H883 0.930 . S
C898 C893 1.390 . S
C898 C897 1.387 . S
H899 C911 0.930 . S
H900 C913 0.930 . S
H901 C914 0.930 . S
H902 C918 0.959 . S
H903 C918 0.959 . S
H904 C918 0.961 . S
H905 C919 0.960 . S
H906 C919 0.961 . S
H907 C919 0.959 . S
H908 C922 0.929 . S
H909 C923 0.931 . S
H910 C925 0.930 . S
C911 H899 0.930 . S
C911 C912 1.399 . S
C911 C916 1.399 . S
C912 C911 1.399 . S
C912 C913 1.376 . S
C913 H900 0.930 . S
C913 C912 1.376 . S
C913 C914 1.388 . S
C914 H901 0.930 . S
C914 C913 1.388 . S
C914 C915 1.390 . S
C915 C914 1.390 . S
C915 C916 1.394 . S
C915 C921 1.465 . S
C916 C911 1.399 . S
C916 C915 1.394 . S
C916 C917 1.516 . S
C917 C916 1.516 . S
C917 C918 1.502 . S
C917 C919 1.561 . S
C917 C920 1.526 . S
C918 H902 0.959 . S
C918 H903 0.959 . S
C918 H904 0.961 . S
C918 C917 1.502 . S
C919 H905 0.960 . S
C919 H906 0.961 . S
C919 H907 0.959 . S
C919 C917 1.561 . S
C920 C917 1.526 . S
C920 C921 1.396 . S
C920 C925 1.390 . S
C921 C915 1.465 . S
C921 C920 1.396 . S
C921 C922 1.399 . S
C922 H908 0.929 . S
C922 C921 1.399 . S
C922 C923 1.385 . S
C923 H909 0.931 . S
C923 C922 1.385 . S
C923 C924 1.389 . S
C924 C923 1.389 . S
C924 C925 1.387 . S
C925 H910 0.930 . S
C925 C920 1.390 . S
C925 C924 1.387 . S
H926 C938 0.930 . S
H927 C940 0.930 . S
H928 C941 0.930 . S
H929 C945 0.959 . S
H930 C945 0.959 . S
H931 C945 0.961 . S
H932 C946 0.960 . S
H933 C946 0.961 . S
H934 C946 0.959 . S
H935 C949 0.929 . S
H936 C950 0.931 . S
H937 C952 0.930 . S
C938 H926 0.930 . S
C938 C939 1.399 . S
C938 C943 1.399 . S
C939 C938 1.399 . S
C939 C940 1.376 . S
C940 H927 0.930 . S
C940 C939 1.376 . S
C940 C941 1.388 . S
C941 H928 0.930 . S
C941 C940 1.388 . S
C941 C942 1.390 . S
C942 C941 1.390 . S
C942 C943 1.394 . S
C942 C948 1.465 . S
C943 C938 1.399 . S
C943 C942 1.394 . S
C943 C944 1.516 . S
C944 C943 1.516 . S
C944 C945 1.502 . S
C944 C946 1.561 . S
C944 C947 1.526 . S
C945 H929 0.959 . S
C945 H930 0.959 . S
C945 H931 0.961 . S
C945 C944 1.502 . S
C946 H932 0.960 . S
C946 H933 0.961 . S
C946 H934 0.959 . S
C946 C944 1.561 . S
C947 C944 1.526 . S
C947 C948 1.396 . S
C947 C952 1.390 . S
C948 C942 1.465 . S
C948 C947 1.396 . S
C948 C949 1.399 . S
C949 H935 0.929 . S
C949 C948 1.399 . S
C949 C950 1.385 . S
C950 H936 0.931 . S
C950 C949 1.385 . S
C950 C951 1.389 . S
C951 C950 1.389 . S
C951 C952 1.387 . S
C952 H937 0.930 . S
C952 C947 1.390 . S
C952 C951 1.387 . S
H953 C965 0.930 . S
H954 C967 0.930 . S
H955 C968 0.930 . S
H956 C972 0.959 . S
H957 C972 0.959 . S
H958 C972 0.961 . S
H959 C973 0.960 . S
H960 C973 0.961 . S
H961 C973 0.959 . S
H962 C976 0.929 . S
H963 C977 0.931 . S
H964 C979 0.930 . S
C965 H953 0.930 . S
C965 C966 1.399 . S
C965 C970 1.399 . S
C966 C965 1.399 . S
C966 C967 1.376 . S
C967 H954 0.930 . S
C967 C966 1.376 . S
C967 C968 1.388 . S
C968 H955 0.930 . S
C968 C967 1.388 . S
C968 C969 1.390 . S
C969 C968 1.390 . S
C969 C970 1.394 . S
C969 C975 1.465 . S
C970 C965 1.399 . S
C970 C969 1.394 . S
C970 C971 1.516 . S
C971 C970 1.516 . S
C971 C972 1.502 . S
C971 C973 1.561 . S
C971 C974 1.526 . S
C972 H956 0.959 . S
C972 H957 0.959 . S
C972 H958 0.961 . S
C972 C971 1.502 . S
C973 H959 0.960 . S
C973 H960 0.961 . S
C973 H961 0.959 . S
C973 C971 1.561 . S
C974 C971 1.526 . S
C974 C975 1.396 . S
C974 C979 1.390 . S
C975 C969 1.465 . S
C975 C974 1.396 . S
C975 C976 1.399 . S
C976 H962 0.929 . S
C976 C975 1.399 . S
C976 C977 1.385 . S
C977 H963 0.931 . S
C977 C976 1.385 . S
C977 C978 1.389 . S
C978 C977 1.389 . S
C978 C979 1.387 . S
C979 H964 0.930 . S
C979 C974 1.390 . S
C979 C978 1.387 . S
H980 C992 0.930 . S
H981 C994 0.930 . S
H982 C995 0.930 . S
H983 C999 0.959 . S
H984 C999 0.959 . S
H985 C999 0.961 . S
H986 C1000 0.960 . S
H987 C1000 0.961 . S
H988 C1000 0.959 . S
H989 C1003 0.929 . S
H990 C1004 0.931 . S
H991 C1006 0.930 . S
C992 H980 0.930 . S
C992 C993 1.399 . S
C992 C997 1.399 . S
C993 C992 1.399 . S
C993 C994 1.376 . S
C994 H981 0.930 . S
C994 C993 1.376 . S
C994 C995 1.388 . S
C995 H982 0.930 . S
C995 C994 1.388 . S
C995 C996 1.390 . S
C996 C995 1.390 . S
C996 C997 1.394 . S
C996 C1002 1.465 . S
C997 C992 1.399 . S
C997 C996 1.394 . S
C997 C998 1.516 . S
C998 C997 1.516 . S
C998 C999 1.502 . S
C998 C1000 1.561 . S
C998 C1001 1.526 . S
C999 H983 0.959 . S
C999 H984 0.959 . S
C999 H985 0.961 . S
C999 C998 1.502 . S
C1000 H986 0.960 . S
C1000 H987 0.961 . S
C1000 H988 0.959 . S
C1000 C998 1.561 . S
C1001 C998 1.526 . S
C1001 C1002 1.396 . S
C1001 C1006 1.390 . S
C1002 C996 1.465 . S
C1002 C1001 1.396 . S
C1002 C1003 1.399 . S
C1003 H989 0.929 . S
C1003 C1002 1.399 . S
C1003 C1004 1.385 . S
C1004 H990 0.931 . S
C1004 C1003 1.385 . S
C1004 C1005 1.389 . S
C1005 C1004 1.389 . S
C1005 C1006 1.387 . S
C1006 H991 0.930 . S
C1006 C1001 1.390 . S
C1006 C1005 1.387 . S
H1007 C1019 0.930 . S
H1008 C1021 0.930 . S
H1009 C1022 0.930 . S
H1010 C1026 0.959 . S
H1011 C1026 0.959 . S
H1012 C1026 0.961 . S
H1013 C1027 0.960 . S
H1014 C1027 0.961 . S
H1015 C1027 0.959 . S
H1016 C1030 0.929 . S
H1017 C1031 0.931 . S
H1018 C1033 0.930 . S
C1019 H1007 0.930 . S
C1019 C1020 1.399 . S
C1019 C1024 1.399 . S
C1020 C1019 1.399 . S
C1020 C1021 1.376 . S
C1021 H1008 0.930 . S
C1021 C1020 1.376 . S
C1021 C1022 1.388 . S
C1022 H1009 0.930 . S
C1022 C1021 1.388 . S
C1022 C1023 1.390 . S
C1023 C1022 1.390 . S
C1023 C1024 1.394 . S
C1023 C1029 1.465 . S
C1024 C1019 1.399 . S
C1024 C1023 1.394 . S
C1024 C1025 1.516 . S
C1025 C1024 1.516 . S
C1025 C1026 1.502 . S
C1025 C1027 1.561 . S
C1025 C1028 1.526 . S
C1026 H1010 0.959 . S
C1026 H1011 0.959 . S
C1026 H1012 0.961 . S
C1026 C1025 1.502 . S
C1027 H1013 0.960 . S
C1027 H1014 0.961 . S
C1027 H1015 0.959 . S
C1027 C1025 1.561 . S
C1028 C1025 1.526 . S
C1028 C1029 1.396 . S
C1028 C1033 1.390 . S
C1029 C1023 1.465 . S
C1029 C1028 1.396 . S
C1029 C1030 1.399 . S
C1030 H1016 0.929 . S
C1030 C1029 1.399 . S
C1030 C1031 1.385 . S
C1031 H1017 0.931 . S
C1031 C1030 1.385 . S
C1031 C1032 1.389 . S
C1032 C1031 1.389 . S
C1032 C1033 1.387 . S
C1033 H1018 0.930 . S
C1033 C1028 1.390 . S
C1033 C1032 1.387 . S
H1034 C1046 0.930 . S
H1035 C1048 0.930 . S
H1036 C1049 0.930 . S
H1037 C1053 0.959 . S
H1038 C1053 0.959 . S
H1039 C1053 0.961 . S
H1040 C1054 0.960 . S
H1041 C1054 0.961 . S
H1042 C1054 0.959 . S
H1043 C1057 0.929 . S
H1044 C1058 0.931 . S
H1045 C1060 0.930 . S
C1046 H1034 0.930 . S
C1046 C1047 1.399 . S
C1046 C1051 1.399 . S
C1047 C1046 1.399 . S
C1047 C1048 1.376 . S
C1048 H1035 0.930 . S
C1048 C1047 1.376 . S
C1048 C1049 1.388 . S
C1049 H1036 0.930 . S
C1049 C1048 1.388 . S
C1049 C1050 1.390 . S
C1050 C1049 1.390 . S
C1050 C1051 1.394 . S
C1050 C1056 1.465 . S
C1051 C1046 1.399 . S
C1051 C1050 1.394 . S
C1051 C1052 1.516 . S
C1052 C1051 1.516 . S
C1052 C1053 1.502 . S
C1052 C1054 1.561 . S
C1052 C1055 1.526 . S
C1053 H1037 0.959 . S
C1053 H1038 0.959 . S
C1053 H1039 0.961 . S
C1053 C1052 1.502 . S
C1054 H1040 0.960 . S
C1054 H1041 0.961 . S
C1054 H1042 0.959 . S
C1054 C1052 1.561 . S
C1055 C1052 1.526 . S
C1055 C1056 1.396 . S
C1055 C1060 1.390 . S
C1056 C1050 1.465 . S
C1056 C1055 1.396 . S
C1056 C1057 1.399 . S
C1057 H1043 0.929 . S
C1057 C1056 1.399 . S
C1057 C1058 1.385 . S
C1058 H1044 0.931 . S
C1058 C1057 1.385 . S
C1058 C1059 1.389 . S
C1059 C1058 1.389 . S
C1059 C1060 1.387 . S
C1060 H1045 0.930 . S
C1060 C1055 1.390 . S
C1060 C1059 1.387 . S
H1061 C1073 0.930 . S
H1062 C1075 0.930 . S
H1063 C1076 0.930 . S
H1064 C1080 0.959 . S
H1065 C1080 0.959 . S
H1066 C1080 0.961 . S
H1067 C1081 0.960 . S
H1068 C1081 0.961 . S
H1069 C1081 0.959 . S
H1070 C1084 0.929 . S
H1071 C1085 0.931 1_565 S
H1072 C1087 0.930 . S
C1073 H1061 0.930 . S
C1073 C1074 1.399 . S
C1073 C1078 1.399 . S
C1074 C1073 1.399 . S
C1074 C1075 1.376 . S
C1075 H1062 0.930 . S
C1075 C1074 1.376 . S
C1075 C1076 1.388 . S
C1076 H1063 0.930 . S
C1076 C1075 1.388 . S
C1076 C1077 1.390 . S
C1077 C1076 1.390 . S
C1077 C1078 1.394 . S
C1077 C1083 1.465 . S
C1078 C1073 1.399 . S
C1078 C1077 1.394 . S
C1078 C1079 1.516 . S
C1079 C1078 1.516 . S
C1079 C1080 1.502 . S
C1079 C1081 1.561 . S
C1079 C1082 1.526 . S
C1080 H1064 0.959 . S
C1080 H1065 0.959 . S
C1080 H1066 0.961 . S
C1080 C1079 1.502 . S
C1081 H1067 0.960 . S
C1081 H1068 0.961 . S
C1081 H1069 0.959 . S
C1081 C1079 1.561 . S
C1082 C1079 1.526 . S
C1082 C1083 1.396 . S
C1082 C1087 1.390 . S
C1083 C1077 1.465 . S
C1083 C1082 1.396 . S
C1083 C1084 1.399 . S
C1084 H1070 0.929 . S
C1084 C1083 1.399 . S
C1084 C1085 1.385 . S
C1085 H1071 0.931 1_545 S
C1085 C1084 1.385 . S
C1085 C1086 1.389 . S
C1086 C1085 1.389 . S
C1086 C1087 1.387 . S
C1087 H1072 0.930 . S
C1087 C1082 1.390 . S
C1087 C1086 1.387 . S
C237 C203 1.499 . S
C249 C7 1.515 . S
C264 C39 1.513 . S
C276 C11 1.489 . S
C291 C165 1.512 . S
C303 C25 1.489 . S
C318 C21 1.521 . S
C330 C105 1.489 . S
C345 C35 1.506 . S
C357 C175 1.509 . S
C372 C137 1.513 . S
C384 C53 1.488 . S
C399 C49 1.500 . S
C411 C77 1.515 . S
C426 C147 1.522 . S
C438 C63 1.490 . S
C453 C67 1.504 . S
C465 C95 1.499 . S
C480 C221 1.503 . S
C492 C81 1.500 . S
C507 C119 1.489 . S
C519 C91 1.518 . S
C534 C193 1.482 . S
C546 C109 1.514 . S
C561 C123 1.505 . S
C573 C151 1.498 . S
C588 C217 1.508 . S
C600 C133 1.498 . S
C615 C161 1.498 . S
C627 C189 1.516 . S
C642 C207 1.494 . S
C654 C179 1.508 . S
C669 C78 1.125 . S
C681 C13 1.174 1_565 S
C696 C8 1.219 . S
C708 C83 1.098 . S
C723 C22 1.220 . S
C735 C69 1.100 . S
C750 C64 1.123 . S
C762 C27 1.210 1_565 S
C777 C106 1.168 . S
C789 C41 1.157 1_545 S
C804 C111 1.092 . S
C816 C36 1.220 . S
C831 C97 1.092 . S
C843 C50 1.219 . S
C858 C55 1.173 1_545 S
C870 C92 1.154 . S
C885 C190 1.221 . S
C897 C125 1.108 1_565 S
C912 C120 1.194 . S
C924 C195 1.163 . S
C939 C134 1.147 . S
C951 C181 1.204 . S
C966 C176 1.119 . S
C978 C139 1.207 1_565 S
C993 C218 1.218 . S
C1005 C153 1.095 1_545 S
C1020 C223 1.092 . S
C1032 C148 1.219 . S
C1047 C162 1.181 . S
C1059 C209 1.143 . S
C1074 C204 1.150 . S
C1086 C167 1.177 1_545 S
