# Generated by pormake.
# Topology rhr, (4)-cn, num edge types: 1
# Building blocks:
#     Node 0, Type 0, BuildingBlock: NAWXER_clean_sbu_0, # of connection points: 4
#     Node 1, Type 0, BuildingBlock: NAWXER_clean_sbu_0, # of connection points: 4
#     Node 2, Type 0, BuildingBlock: NAWXER_clean_sbu_0, # of connection points: 4
#     Node 3, Type 0, BuildingBlock: NAWXER_clean_sbu_0, # of connection points: 4
#     Node 4, Type 0, BuildingBlock: NAWXER_clean_sbu_0, # of connection points: 4
#     Node 5, Type 0, BuildingBlock: NAWXER_clean_sbu_0, # of connection points: 4
#     Node 6, Type 0, BuildingBlock: NAWXER_clean_sbu_0, # of connection points: 4
#     Node 7, Type 0, BuildingBlock: NAWXER_clean_sbu_0, # of connection points: 4
#     Node 8, Type 0, BuildingBlock: NAWXER_clean_sbu_0, # of connection points: 4
#     Node 9, Type 0, BuildingBlock: NAWXER_clean_sbu_0, # of connection points: 4
#     Node 10, Type 0, BuildingBlock: NAWXER_clean_sbu_0, # of connection points: 4
#     Node 11, Type 0, BuildingBlock: NAWXER_clean_sbu_0, # of connection points: 4
#     Node 12, Type 0, BuildingBlock: NAWXER_clean_sbu_0, # of connection points: 4
#     Node 13, Type 0, BuildingBlock: NAWXER_clean_sbu_0, # of connection points: 4
#     Node 14, Type 0, BuildingBlock: NAWXER_clean_sbu_0, # of connection points: 4
#     Node 15, Type 0, BuildingBlock: NAWXER_clean_sbu_0, # of connection points: 4
#     Node 16, Type 0, BuildingBlock: NAWXER_clean_sbu_0, # of connection points: 4
#     Node 17, Type 0, BuildingBlock: NAWXER_clean_sbu_0, # of connection points: 4
#     Node 18, Type 0, BuildingBlock: NAWXER_clean_sbu_0, # of connection points: 4
#     Node 19, Type 0, BuildingBlock: NAWXER_clean_sbu_0, # of connection points: 4
#     Node 20, Type 0, BuildingBlock: NAWXER_clean_sbu_0, # of connection points: 4
#     Node 21, Type 0, BuildingBlock: NAWXER_clean_sbu_0, # of connection points: 4
#     Node 22, Type 0, BuildingBlock: NAWXER_clean_sbu_0, # of connection points: 4
#     Node 23, Type 0, BuildingBlock: NAWXER_clean_sbu_0, # of connection points: 4
#     Edge 24, Type (0, 0), BuildingBlock: AJUNOK_clean_linker_0, # of connection points: 2
#     Edge 25, Type (0, 0), BuildingBlock: AJUNOK_clean_linker_0, # of connection points: 2
#     Edge 26, Type (0, 0), BuildingBlock: AJUNOK_clean_linker_0, # of connection points: 2
#     Edge 27, Type (0, 0), BuildingBlock: AJUNOK_clean_linker_0, # of connection points: 2
#     Edge 28, Type (0, 0), BuildingBlock: AJUNOK_clean_linker_0, # of connection points: 2
#     Edge 29, Type (0, 0), BuildingBlock: AJUNOK_clean_linker_0, # of connection points: 2
#     Edge 30, Type (0, 0), BuildingBlock: AJUNOK_clean_linker_0, # of connection points: 2
#     Edge 31, Type (0, 0), BuildingBlock: AJUNOK_clean_linker_0, # of connection points: 2
#     Edge 32, Type (0, 0), BuildingBlock: AJUNOK_clean_linker_0, # of connection points: 2
#     Edge 33, Type (0, 0), BuildingBlock: AJUNOK_clean_linker_0, # of connection points: 2
#     Edge 34, Type (0, 0), BuildingBlock: AJUNOK_clean_linker_0, # of connection points: 2
#     Edge 35, Type (0, 0), BuildingBlock: AJUNOK_clean_linker_0, # of connection points: 2
#     Edge 36, Type (0, 0), BuildingBlock: AJUNOK_clean_linker_0, # of connection points: 2
#     Edge 37, Type (0, 0), BuildingBlock: AJUNOK_clean_linker_0, # of connection points: 2
#     Edge 38, Type (0, 0), BuildingBlock: AJUNOK_clean_linker_0, # of connection points: 2
#     Edge 39, Type (0, 0), BuildingBlock: AJUNOK_clean_linker_0, # of connection points: 2
#     Edge 40, Type (0, 0), BuildingBlock: AJUNOK_clean_linker_0, # of connection points: 2
#     Edge 41, Type (0, 0), BuildingBlock: AJUNOK_clean_linker_0, # of connection points: 2
#     Edge 42, Type (0, 0), BuildingBlock: AJUNOK_clean_linker_0, # of connection points: 2
#     Edge 43, Type (0, 0), BuildingBlock: AJUNOK_clean_linker_0, # of connection points: 2
#     Edge 44, Type (0, 0), BuildingBlock: AJUNOK_clean_linker_0, # of connection points: 2
#     Edge 45, Type (0, 0), BuildingBlock: AJUNOK_clean_linker_0, # of connection points: 2
#     Edge 46, Type (0, 0), BuildingBlock: AJUNOK_clean_linker_0, # of connection points: 2
#     Edge 47, Type (0, 0), BuildingBlock: AJUNOK_clean_linker_0, # of connection points: 2
#     Edge 48, Type (0, 0), BuildingBlock: AJUNOK_clean_linker_0, # of connection points: 2
#     Edge 49, Type (0, 0), BuildingBlock: AJUNOK_clean_linker_0, # of connection points: 2
#     Edge 50, Type (0, 0), BuildingBlock: AJUNOK_clean_linker_0, # of connection points: 2
#     Edge 51, Type (0, 0), BuildingBlock: AJUNOK_clean_linker_0, # of connection points: 2
#     Edge 52, Type (0, 0), BuildingBlock: AJUNOK_clean_linker_0, # of connection points: 2
#     Edge 53, Type (0, 0), BuildingBlock: AJUNOK_clean_linker_0, # of connection points: 2
#     Edge 54, Type (0, 0), BuildingBlock: AJUNOK_clean_linker_0, # of connection points: 2
#     Edge 55, Type (0, 0), BuildingBlock: AJUNOK_clean_linker_0, # of connection points: 2
#     Edge 56, Type (0, 0), BuildingBlock: AJUNOK_clean_linker_0, # of connection points: 2
#     Edge 57, Type (0, 0), BuildingBlock: AJUNOK_clean_linker_0, # of connection points: 2
#     Edge 58, Type (0, 0), BuildingBlock: AJUNOK_clean_linker_0, # of connection points: 2
#     Edge 59, Type (0, 0), BuildingBlock: AJUNOK_clean_linker_0, # of connection points: 2
#     Edge 60, Type (0, 0), BuildingBlock: AJUNOK_clean_linker_0, # of connection points: 2
#     Edge 61, Type (0, 0), BuildingBlock: AJUNOK_clean_linker_0, # of connection points: 2
#     Edge 62, Type (0, 0), BuildingBlock: AJUNOK_clean_linker_0, # of connection points: 2
#     Edge 63, Type (0, 0), BuildingBlock: AJUNOK_clean_linker_0, # of connection points: 2
#     Edge 64, Type (0, 0), BuildingBlock: AJUNOK_clean_linker_0, # of connection points: 2
#     Edge 65, Type (0, 0), BuildingBlock: AJUNOK_clean_linker_0, # of connection points: 2
#     Edge 66, Type (0, 0), BuildingBlock: AJUNOK_clean_linker_0, # of connection points: 2
#     Edge 67, Type (0, 0), BuildingBlock: AJUNOK_clean_linker_0, # of connection points: 2
#     Edge 68, Type (0, 0), BuildingBlock: AJUNOK_clean_linker_0, # of connection points: 2
#     Edge 69, Type (0, 0), BuildingBlock: AJUNOK_clean_linker_0, # of connection points: 2
#     Edge 70, Type (0, 0), BuildingBlock: AJUNOK_clean_linker_0, # of connection points: 2
#     Edge 71, Type (0, 0), BuildingBlock: AJUNOK_clean_linker_0, # of connection points: 2
# Relax obj value: 0.003
# Max RMSD: 0.009
# Mean RMSD: 0.009
data_MOF--net-rhr--node1-NAWXER_clean_sbu_0--edge1-AJUNOK_clean_linker_0
_symmetry_space_group_name_H-M    P1
_symmetry_Int_Tables_number       1
_symmetry_cell_setting            triclinic
loop_
_symmetry_equiv_pos_as_xyz
'x, y, z'
_cell_length_a     36.349073
_cell_length_b     36.469493
_cell_length_c     36.330843
_cell_angle_alpha  89.720837
_cell_angle_beta   90.129866
_cell_angle_gamma 89.663615
loop_
_atom_site_label
_atom_site_type_symbol
_atom_site_fract_x
_atom_site_fract_y
_atom_site_fract_z
_atom_type_partial_charge
C0 C 0.28644 0.05983 0.35844 0.0
C1 C 0.37372 0.99311 0.28046 0.0
O2 O 0.28336 0.05461 0.32398 0.0
Zn3 Zn 0.32985 0.02836 0.31773 0.0
O4 O 0.31606 0.05034 0.37523 0.0
Zn5 Zn 0.36726 0.02376 0.36308 0.0
O6 O 0.40467 0.06091 0.36988 0.0
O7 O 0.37019 0.07044 0.32082 0.0
O8 O 0.38473 0.9977 0.31364 0.0
O9 O 0.34261 1.00598 0.27055 0.0
O10 O 0.32164 0.98218 0.35414 0.0
O11 O 0.3649 0.98312 0.39694 0.0
C12 C 0.39733 0.07973 0.34126 0.0
C13 C 0.33631 0.96841 0.38331 0.0
C14 C 0.05821 0.41303 0.35027 0.0
C15 C 0.94213 0.35585 0.39556 0.0
O16 O 0.04655 0.38556 0.33194 0.0
Zn17 Zn 1.00206 0.34784 0.33049 0.0
O18 O 0.03841 0.42581 0.37626 0.0
Zn19 Zn 0.99884 0.38847 0.3742 0.0
O20 O 0.03105 0.34125 0.38636 0.0
O21 O 0.02994 0.30221 0.34001 0.0
O22 O 0.95779 0.38363 0.40978 0.0
O23 O 0.95645 0.34129 0.36687 0.0
O24 O 0.97796 0.36013 0.28314 0.0
O25 O 0.9701 0.40277 0.32533 0.0
C26 C 0.04147 0.31101 0.37194 0.0
C27 C 0.96382 0.39059 0.29294 0.0
C28 C 0.65335 0.94317 0.32929 0.0
C29 C 0.72209 0.04579 0.38124 0.0
O30 O 0.64376 0.96268 0.35664 0.0
Zn31 Zn 0.68648 0.99404 0.35744 0.0
O32 O 0.68427 0.94884 0.31347 0.0
Zn33 Zn 0.7294 0.98606 0.31706 0.0
O34 O 0.7717 0.95441 0.33096 0.0
O35 O 0.72963 0.95828 0.3745 0.0
O36 O 0.73796 0.03039 0.35391 0.0
O37 O 0.69114 0.03384 0.39226 0.0
O38 O 0.67776 0.02265 0.30738 0.0
O39 O 0.72346 1.0116 0.26901 0.0
C40 C 0.76045 0.94568 0.36302 0.0
C41 C 0.69272 0.0271 0.27594 0.0
C42 C 0.05649 0.65358 0.33085 0.0
C43 C 0.95601 0.6952 0.40988 0.0
O44 O 0.04571 0.63955 0.36103 0.0
Zn45 Zn 1.009 0.67561 0.37398 0.0
O46 O 0.04274 0.68417 0.31988 0.0
Zn47 Zn 1.0022 0.72268 0.33905 0.0
O48 O 0.0299 0.76728 0.35318 0.0
O49 O 0.04058 0.72148 0.39128 0.0
O50 O 0.96334 0.71716 0.38323 0.0
O51 O 0.97672 0.66751 0.41585 0.0
O52 O 0.96967 0.67018 0.33032 0.0
O53 O 0.96771 0.72129 0.29727 0.0
C54 C 0.04633 0.75476 0.3816 0.0
C55 C 0.95622 0.68886 0.30352 0.0
C56 C 0.34793 0.09181 0.6214 0.0
C57 C 0.38742 0.98252 0.69142 0.0
O58 O 0.37282 0.06913 0.61165 0.0
Zn59 Zn 0.37151 0.0393 0.65625 0.0
O60 O 0.33225 0.0882 0.65272 0.0
Zn61 Zn 0.33273 0.05163 0.69893 0.0
O62 O 0.34904 0.08335 0.73908 0.0
O63 O 0.39223 0.07648 0.69721 0.0
O64 O 0.36267 1.00173 0.70755 0.0
O65 O 0.40108 0.99439 0.66146 0.0
O66 O 0.31772 1.01715 0.6486 0.0
O67 O 0.28199 0.03312 0.69506 0.0
C68 C 0.38106 0.09101 0.72732 0.0
C69 C 0.28631 1.01692 0.66434 0.0
C70 C 0.06047 0.37242 0.71994 0.0
C71 C 0.97338 0.31198 0.6383 0.0
O72 O 0.05393 0.38196 0.68678 0.0
Zn73 Zn 1.01921 0.3431 0.67567 0.0
O74 O 0.04654 0.34305 0.7331 0.0
Zn75 Zn 1.00979 0.30103 0.71766 0.0
O76 O 0.03997 0.25559 0.71299 0.0
O77 O 0.05291 0.29656 0.67022 0.0
O78 O 0.97762 0.29664 0.6697 0.0
O79 O 0.99198 0.34019 0.62954 0.0
O80 O 0.97697 0.35534 0.71417 0.0
O81 O 0.97161 0.31059 0.75499 0.0
C82 C 0.05825 0.26496 0.68458 0.0
C83 C 0.96162 0.34208 0.74292 0.0
C84 C 0.6851 0.06489 0.75656 0.0
C85 C 0.73834 0.969 0.67852 0.0
O86 O 0.6663 0.05797 0.7276 0.0
Zn87 Zn 0.66798 0.02257 0.68085 0.0
O88 O 0.71527 0.04802 0.76278 0.0
Zn89 Zn 0.71337 1.01842 0.71823 0.0
O90 O 0.71965 0.05952 0.67578 0.0
O91 O 0.67017 0.05886 0.64076 0.0
O92 O 0.75197 0.98276 0.70756 0.0
O93 O 0.70761 0.98145 0.6662 0.0
O94 O 0.6239 0.99334 0.69007 0.0
O95 O 0.66674 0.98531 0.73245 0.0
C96 C 0.70137 0.07261 0.64838 0.0
C97 C 0.63441 0.9786 0.72021 0.0
C98 C 0.02645 0.66249 0.76156 0.0
C99 C 0.11271 0.74057 0.69421 0.0
O100 O 0.03269 0.65268 0.7284 0.0
Zn101 Zn 0.06329 0.669 0.68206 0.0
O102 O 0.04084 0.69182 0.77363 0.0
Zn103 Zn 0.06856 0.70511 0.72904 0.0
O104 O 0.02881 0.72298 0.68919 0.0
O105 O 0.02597 0.68166 0.64509 0.0
O106 O 0.10138 0.74719 0.72672 0.0
O107 O 0.10039 0.71318 0.67625 0.0
O108 O 0.09733 0.62745 0.6771 0.0
O109 O 0.10781 0.66132 0.72621 0.0
C110 C 1.01552 0.7122 0.65844 0.0
C111 C 0.11634 0.63398 0.70585 0.0
C112 C 0.31444 0.37058 0.08845 0.0
C113 C 0.40103 0.30796 1.00598 0.0
O114 O 0.34733 0.3801 0.08141 0.0
Zn115 Zn 0.36038 0.34102 0.04762 0.0
O116 O 0.30182 0.34089 0.07475 0.0
Zn117 Zn 0.31962 0.29858 0.03843 0.0
O118 O 0.32467 0.25324 0.06864 0.0
O119 O 0.36687 0.2944 0.08188 0.0
O120 O 0.36988 0.29238 1.00986 0.0
O121 O 0.40748 0.33836 0.02193 0.0
O122 O 0.32473 0.35116 1.00256 0.0
O123 O 0.28481 0.30612 0.99709 0.0
C124 C 0.35314 0.2626 0.08686 0.0
C125 C 0.29746 0.33676 0.98586 0.0
C126 C 0.68693 0.4167 0.08499 0.0
C127 C 0.6526 0.35437 0.9698 0.0
O128 O 0.70688 0.38882 0.07697 0.0
Zn129 Zn 0.71245 0.34831 0.03503 0.0
O130 O 0.66143 0.42684 0.06298 0.0
Zn131 Zn 0.6686 0.3876 0.02709 0.0
O132 O 0.65492 0.34075 0.05992 0.0
O133 O 0.70315 0.30363 0.06289 0.0
O134 O 0.63721 0.38267 0.98336 0.0
O135 O 0.68013 0.33996 0.98671 0.0
O136 O 0.76144 0.3595 1.01588 0.0
O137 O 0.7203 0.40271 1.00427 0.0
C138 C 0.67004 0.31106 0.07162 0.0
C139 C 0.75336 0.39059 1.00189 0.0
C140 C 0.66157 0.75668 1.01533 0.0
C141 C 0.74179 0.68782 0.92912 0.0
O142 O 0.69032 0.76891 0.99961 0.0
Zn143 Zn 0.70398 0.72464 0.97159 0.0
O144 O 0.65143 0.72372 1.00878 0.0
Zn145 Zn 0.6677 0.67788 0.97591 0.0
O146 O 0.67997 0.63954 1.01167 0.0
O147 O 0.71879 0.68592 1.01309 0.0
O148 O 0.7132 0.67099 0.94037 0.0
O149 O 0.74829 0.72022 0.94046 0.0
O150 O 0.66166 0.72209 0.93109 0.0
O151 O 0.62737 0.67329 0.94052 0.0
C152 C 0.70853 0.65458 0.0251 0.0
C153 C 0.6347 0.70176 0.92151 0.0
C154 C 0.2817 0.65674 0.99358 0.0
C155 C 0.34796 0.73791 0.07884 0.0
O156 O 0.31476 0.64733 1.00132 0.0
Zn157 Zn 0.36007 0.66409 0.03276 0.0
O158 O 0.26834 0.68587 1.00759 0.0
Zn159 Zn 0.31232 0.70096 0.03601 0.0
O160 O 0.35164 0.7166 0.99545 0.0
O161 O 0.39689 0.67599 0.99458 0.0
O162 O 0.31541 0.74472 0.06728 0.0
O163 O 0.3656 0.70983 0.06744 0.0
O164 O 0.36411 0.62463 0.07052 0.0
O165 O 0.31547 0.66019 0.07808 0.0
C166 C 0.38239 0.70558 0.98232 0.0
C167 C 0.33569 0.63347 0.08917 0.0
C168 C 0.93729 0.5592 0.84505 0.0
C169 C 0.85481 0.48194 0.91897 0.0
O170 O 0.94405 0.54702 0.87729 0.0
Zn171 Zn 0.89826 0.51922 0.88333 0.0
O172 O 0.9075 0.54986 0.82885 0.0
Zn173 Zn 0.85922 0.51913 0.83883 0.0
O174 O 0.822 0.55746 0.83558 0.0
O175 O 0.8589 0.5637 0.8834 0.0
O176 O 0.84263 0.49046 0.88694 0.0
O177 O 0.88648 0.49287 0.92901 0.0
O178 O 0.90388 0.47388 0.84594 0.0
O179 O 0.86181 0.48019 0.80252 0.0
C180 C 0.83192 0.57554 0.86378 0.0
C181 C 0.88816 0.46186 0.81678 0.0
C182 C 0.45138 0.80232 0.87345 0.0
C183 C 0.53867 0.88018 0.80335 0.0
O184 O 0.45715 0.79159 0.84041 0.0
Zn185 Zn 0.48819 0.80826 0.79301 0.0
O186 O 0.4649 0.83279 0.88368 0.0
Zn187 Zn 0.49347 0.84463 0.83931 0.0
O188 O 0.45495 0.8627 0.79897 0.0
O189 O 0.45305 0.82208 0.75423 0.0
O190 O 0.52832 0.88556 0.83644 0.0
O191 O 0.52614 0.85257 0.78574 0.0
O192 O 0.52069 0.7652 0.78933 0.0
O193 O 0.53043 0.7995 0.83847 0.0
C194 C 0.44295 0.85283 0.76741 0.0
C195 C 0.5381 0.77129 0.81914 0.0
C196 C 0.20597 0.53805 0.78998 0.0
C197 C 0.23938 0.44162 0.87951 0.0
O198 O 0.23585 0.51962 0.78952 0.0
Zn199 Zn 0.22588 0.49207 0.83488 0.0
O200 O 0.18307 0.53395 0.81635 0.0
Zn201 Zn 0.17584 0.50157 0.86498 0.0
O202 O 0.17574 0.53896 0.90366 0.0
O203 O 0.22933 0.53353 0.87605 0.0
O204 O 0.20873 0.45757 0.88669 0.0
O205 O 0.25857 0.45319 0.85265 0.0
O206 O 0.1793 0.46259 0.81588 0.0
O207 O 0.13121 0.47617 0.85031 0.0
C208 C 0.20895 0.54922 0.90014 0.0
C209 C 0.14503 0.45921 0.82297 0.0
C210 C 0.48513 0.18544 0.80486 0.0
C211 C 0.57955 0.26551 0.86141 0.0
O212 O 0.49769 0.2152 0.79156 0.0
Zn213 Zn 0.53393 0.227 0.83021 0.0
O214 O 0.49845 0.1731 0.83517 0.0
Zn215 Zn 0.53944 0.18769 0.87447 0.0
O216 O 0.51115 0.1945 0.9192 0.0
O217 O 0.50164 0.23802 0.87766 0.0
O218 O 0.57338 0.23518 0.87812 0.0
O219 O 0.56273 0.27279 0.83134 0.0
O220 O 0.57588 0.1865 0.82287 0.0
O221 O 0.57619 0.14889 0.87052 0.0
C222 C 0.49619 0.22483 0.90987 0.0
C223 C 0.58965 0.15866 0.83971 0.0
C224 C 0.76389 0.50498 0.18545 0.0
C225 C 0.85111 0.59806 0.227 0.0
O226 O 0.7599 0.52517 0.21364 0.0
Zn227 Zn 0.80714 0.55005 0.20856 0.0
O228 O 0.79337 0.50661 0.16636 0.0
Zn229 Zn 0.84344 0.53672 0.16404 0.0
O230 O 0.88079 0.4982 0.17162 0.0
O231 O 0.84646 0.50763 0.22046 0.0
O232 O 0.86215 0.58104 0.19818 0.0
O233 O 0.82097 0.58871 0.24197 0.0
O234 O 0.79643 0.57886 0.15846 0.0
O235 O 0.83536 0.55961 0.11596 0.0
C236 C 0.87278 0.49017 0.20477 0.0
C237 C 0.80803 0.5795 0.12526 0.0
C238 C 0.56249 0.86418 0.22732 0.0
C239 C 0.46348 0.81071 0.15527 0.0
O240 O 0.55434 0.88301 0.19851 0.0
Zn241 Zn 0.52005 0.8781 0.15047 0.0
O242 O 0.54927 0.83225 0.23158 0.0
Zn243 Zn 0.51753 0.83315 0.18843 0.0
O244 O 0.55351 0.82289 0.14337 0.0
O245 O 0.55433 0.87234 0.10867 0.0
O246 O 0.47971 0.79669 0.18307 0.0
O247 O 0.47657 0.83979 0.14041 0.0
O248 O 0.48929 0.92217 0.15726 0.0
O249 O 0.48349 0.87979 0.20057 0.0
C250 C 0.56558 0.8398 0.11491 0.0
C251 C 0.47481 0.9113 0.18735 0.0
C252 C 0.2674 0.55766 0.20998 0.0
C253 C 0.18678 0.47803 0.28565 0.0
O254 O 0.27581 0.54556 0.24193 0.0
Zn255 Zn 0.23048 0.51703 0.25041 0.0
O256 O 0.23617 0.54993 0.19584 0.0
Zn257 Zn 0.18857 0.51846 0.20707 0.0
O258 O 0.14944 0.55608 0.21081 0.0
O259 O 0.18928 0.55762 0.25654 0.0
O260 O 0.17418 0.48701 0.254 0.0
O261 O 0.21905 0.48789 0.29511 0.0
O262 O 0.23767 0.4775 0.2088 0.0
O263 O 0.19304 0.48147 0.16779 0.0
C264 C 0.15961 0.56943 0.2416 0.0
C265 C 0.2231 0.46674 0.1787 0.0
C266 C 0.579 0.2214 0.16716 0.0
C267 C 0.50081 0.16232 0.25817 0.0
O268 O 0.56583 0.19107 0.15537 0.0
Zn269 Zn 0.52959 0.14896 0.17535 0.0
O270 O 0.57016 0.2328 0.19893 0.0
Zn271 Zn 0.54002 0.19204 0.21347 0.0
O272 O 0.57867 0.1473 0.21606 0.0
O273 O 0.56194 0.10548 0.176 0.0
O274 O 0.51934 0.1914 0.26268 0.0
O275 O 0.5025 0.14482 0.2277 0.0
O276 O 0.48639 0.15292 0.14238 0.0
O277 O 0.49124 0.19937 0.18041 0.0
C278 C 0.5842 0.11611 0.20082 0.0
C279 C 0.47338 0.18284 0.15499 0.0
C280 C 0.91278 0.80754 0.57874 0.0
C281 C 0.83892 0.86912 0.4812 0.0
O282 O 0.87947 0.79654 0.57622 0.0
Zn283 Zn 0.83047 0.80854 0.54577 0.0
O284 O 0.92282 0.83534 0.55994 0.0
Zn285 Zn 0.87646 0.84361 0.53294 0.0
O286 O 0.84026 0.86578 0.57342 0.0
O287 O 0.79518 0.82652 0.58194 0.0
O288 O 0.8714 0.87799 0.49088 0.0
O289 O 0.82209 0.84451 0.49985 0.0
O290 O 0.82517 0.76075 0.5219 0.0
O291 O 0.87398 0.7927 0.50463 0.0
C292 C 0.8103 0.85691 0.58963 0.0
C293 C 0.85431 0.76381 0.50269 0.0
C294 C 0.20051 0.92733 0.5674 0.0
C295 C 0.13882 0.84448 0.47871 0.0
O296 O 0.21776 0.89723 0.56134 0.0
Zn297 Zn 0.21287 0.84914 0.52771 0.0
O298 O 0.17114 0.93447 0.54948 0.0
Zn299 Zn 0.16951 0.88799 0.522 0.0
O300 O 0.1642 0.84925 0.56711 0.0
O301 O 0.21256 0.81239 0.56517 0.0
O302 O 0.12816 0.87611 0.48896 0.0
O303 O 0.16949 0.83197 0.49122 0.0
O304 O 0.25604 0.85198 0.49728 0.0
O305 O 0.21486 0.89504 0.48487 0.0
C306 C 0.18291 0.82241 0.5807 0.0
C307 C 0.24614 0.87985 0.47863 0.0
C308 C 0.13699 0.18804 0.57054 0.0
C309 C 0.18712 0.13003 0.45881 0.0
O310 O 0.16065 0.20767 0.55346 0.0
Zn311 Zn 0.19372 0.205 0.50501 0.0
O312 O 0.12808 0.15726 0.55698 0.0
Zn313 Zn 0.16002 0.15815 0.51323 0.0
O314 O 0.2148 0.15446 0.53559 0.0
O315 O 0.2434 0.20681 0.525 0.0
O316 O 0.16302 0.11636 0.48023 0.0
O317 O 0.19974 0.16214 0.46501 0.0
O318 O 0.17576 0.24484 0.47493 0.0
O319 O 0.13615 0.19944 0.47748 0.0
C320 C 0.24367 0.17433 0.5379 0.0
C321 C 0.14525 0.23112 0.46505 0.0
C322 C 0.87512 0.22501 0.55087 0.0
C323 C 0.80287 0.15816 0.46014 0.0
O324 O 0.88591 0.19671 0.53344 0.0
Zn325 Zn 0.84135 0.19061 0.50465 0.0
O326 O 0.84275 0.2379 0.54547 0.0
Zn327 Zn 0.79631 0.22913 0.51145 0.0
O328 O 0.75745 0.21668 0.5474 0.0
O329 O 0.80157 0.17493 0.54494 0.0
O330 O 0.78651 0.1865 0.47302 0.0
O331 O 0.83604 0.15138 0.46933 0.0
O332 O 0.84575 0.2382 0.47157 0.0
O333 O 0.79904 0.27541 0.48238 0.0
C334 C 0.77088 0.18605 0.55823 0.0
C335 C 0.82939 0.26882 0.46606 0.0
C336 C 0.21469 0.1251 0.39623 0.0
C337 C 0.20496 0.10813 0.42974 0.0
C338 C 0.2392 0.10819 0.37163 0.0
C339 C 0.2556 0.07433 0.38043 0.0
H340 H 0.20452 0.15237 0.38976 0.0
H341 H 0.24716 0.12272 0.34685 0.0
S342 S 0.23763 1.01751 0.46339 0.0
N343 N 0.21169 0.0544 0.46902 0.0
N344 N 0.2587 0.02323 0.42356 0.0
C345 C 0.24482 0.05635 0.41298 0.0
C346 C 0.21919 0.07308 0.43747 0.0
C347 C 0.89316 0.30757 0.3944 0.0
C348 C 0.90853 0.33844 0.4119 0.0
C349 C 0.86486 0.28714 0.41067 0.0
C350 C 0.84984 0.29697 0.44482 0.0
H351 H 0.90419 0.29784 0.36854 0.0
H352 H 0.85595 0.26224 0.39725 0.0
S353 S 0.87771 0.37651 0.50139 0.0
N354 N 0.90463 0.37886 0.46486 0.0
N355 N 0.85109 0.3405 0.49509 0.0
C356 C 0.86317 0.3289 0.46175 0.0
C357 C 0.89251 0.34962 0.44539 0.0
C358 C 0.83799 0.91207 0.42586 0.0
C359 C 0.81993 0.88647 0.44875 0.0
C360 C 0.81953 0.92955 0.39625 0.0
C361 C 0.78229 0.92225 0.38865 0.0
H362 H 0.86635 0.91925 0.43127 0.0
H363 H 0.83396 0.95015 0.38038 0.0
S364 S 0.723 0.85569 0.43763 0.0
N365 N 0.76281 0.85325 0.45944 0.0
N366 N 0.72873 0.88633 0.40464 0.0
C367 C 0.76441 0.89589 0.41032 0.0
C368 C 0.78302 0.87795 0.44009 0.0
C369 C 0.08791 0.83752 0.43127 0.0
C370 C 0.11609 0.82166 0.45304 0.0
C371 C 0.06624 0.81616 0.40724 0.0
C372 C 0.07139 0.77792 0.40447 0.0
H373 H 0.08251 0.86671 0.43274 0.0
H374 H 0.04467 0.82958 0.39147 0.0
S375 S 0.14191 0.72283 0.45462 0.0
N376 N 0.14825 0.7651 0.46923 0.0
N377 N 0.1076 0.72537 0.42489 0.0
C378 C 0.09969 0.76185 0.42578 0.0
C379 C 0.12197 0.78354 0.44978 0.0
C380 C 0.23331 0.93723 0.62687 0.0
C381 C 0.21549 0.95244 0.59578 0.0
C382 C 0.25329 0.95912 0.65141 0.0
C383 C 0.25631 0.99706 0.6458 0.0
H384 H 0.23311 0.90785 0.63146 0.0
H385 H 0.26845 0.94592 0.67357 0.0
S386 S 0.21429 0.05081 0.56952 0.0
N387 N 0.20099 1.00825 0.56178 0.0
N388 N 0.23935 0.04925 0.60753 0.0
C389 C 0.23744 1.01294 0.6158 0.0
C390 C 0.21668 0.99069 0.59095 0.0
C391 C 0.11514 0.25337 0.64888 0.0
C392 C 0.08251 0.23943 0.66404 0.0
C393 C 0.13342 0.23536 0.62019 0.0
C394 C 0.11969 0.20272 0.60485 0.0
H395 H 0.1255 0.27967 0.65785 0.0
H396 H 0.15769 0.24824 0.60883 0.0
S397 S 0.03652 0.15325 0.63681 0.0
N398 N 0.03839 0.18976 0.66348 0.0
N399 N 0.07263 0.15568 0.60937 0.0
C400 C 0.08828 0.18717 0.62138 0.0
C401 C 0.06975 0.20556 0.65099 0.0
C402 C 0.77176 0.13861 0.60803 0.0
C403 C 0.75111 0.16106 0.58396 0.0
C404 C 0.75523 0.11078 0.62895 0.0
C405 C 0.7173 0.10341 0.62626 0.0
H406 H 0.80125 0.14217 0.61029 0.0
H407 H 0.77271 0.09425 0.64672 0.0
S408 S 0.65061 0.15472 0.56757 0.0
N409 N 0.69043 0.17468 0.55919 0.0
N410 N 0.65929 0.12194 0.59799 0.0
C411 C 0.69611 0.12606 0.60266 0.0
C412 C 0.71298 0.15497 0.58175 0.0
C413 C 0.9564 0.72367 0.62461 0.0
C414 C 0.99003 0.73677 0.63794 0.0
C415 C 0.93141 0.7472 0.60658 0.0
C416 C 0.93953 0.78453 0.59998 0.0
H417 H 0.94902 0.69521 0.62878 0.0
H418 H 0.90563 0.73575 0.59725 0.0
S419 S 0.02501 0.83175 0.62846 0.0
N420 N 0.03054 0.78923 0.64346 0.0
N421 N 0.98436 0.83303 0.60801 0.0
C422 C 0.97347 0.79776 0.61273 0.0
C423 C 0.99847 0.774 0.63208 0.0
C424 C 0.39108 0.20517 0.09218 0.0
C425 C 0.37546 0.2363 0.10898 0.0
C426 C 0.42179 0.18691 0.10783 0.0
C427 C 0.43811 0.19924 0.1408 0.0
H428 H 0.38132 0.19653 0.06541 0.0
H429 H 0.43391 0.16419 0.093 0.0
S430 S 0.4039 0.27668 0.19789 0.0
N431 N 0.37624 0.27651 0.1618 0.0
N432 N 0.43292 0.24229 0.1917 0.0
C433 C 0.42085 0.22883 0.15903 0.0
C434 C 0.38987 0.24731 0.143 0.0
C435 C 0.71052 0.49852 0.1439 0.0
C436 C 0.73388 0.4827 0.1706 0.0
C437 C 0.69207 0.47666 0.11807 0.0
C438 C 0.69693 0.43837 0.11795 0.0
H439 H 0.70923 0.52807 0.14077 0.0
H440 H 0.67674 0.49009 0.09618 0.0
S441 S 0.75044 0.38372 0.18628 0.0
N442 N 0.75739 0.42676 0.19827 0.0
N443 N 0.72244 0.38539 0.15043 0.0
C444 C 0.71735 0.4222 0.14689 0.0
C445 C 0.73603 0.44447 0.17302 0.0
C446 C 0.61662 0.76184 0.0672 0.0
C447 C 0.63913 0.77948 0.04114 0.0
C448 C 0.59357 0.7817 0.09089 0.0
C449 C 0.59131 0.82026 0.0894 0.0
H450 H 0.61673 0.73221 0.06944 0.0
H451 H 0.57687 0.76642 0.1102 0.0
S452 S 0.64473 0.8801 0.02639 0.0
N453 N 0.65815 0.83813 1.01567 0.0
N454 N 0.61427 0.87549 0.05977 0.0
C455 C 0.61377 0.83844 0.06358 0.0
C456 C 0.63782 0.8181 0.03969 0.0
C457 C 0.28582 0.6154 0.1792 0.0
C458 C 0.29338 0.57837 0.18668 0.0
C459 C 0.30155 0.63322 0.14883 0.0
C460 C 0.32505 0.61463 0.12413 0.0
H461 H 0.26585 0.63012 0.19568 0.0
H462 H 0.29378 0.66154 0.14378 0.0
S463 S 0.3547 0.51749 0.13271 0.0
N464 N 0.32708 0.52389 0.1682 0.0
N465 N 0.35669 0.55731 0.11088 0.0
C466 C 0.33446 0.57805 0.13251 0.0
C467 C 0.31846 0.55992 0.16372 0.0
C468 C 0.40533 0.7668 0.96126 0.0
C469 C 0.40106 0.72904 0.95455 0.0
C470 C 0.42125 0.79033 0.93496 0.0
C471 C 0.43262 0.7773 0.90032 0.0
H472 H 0.39655 0.77824 0.98731 0.0
H473 H 0.42453 0.81899 0.94183 0.0
S474 S 0.42454 0.6808 0.86829 0.0
N475 N 0.40817 0.67982 0.91064 0.0
N476 N 0.4368 0.72369 0.86056 0.0
C477 C 0.42761 0.73953 0.89308 0.0
C478 C 0.41223 0.71551 0.92031 0.0
C479 C 0.30442 0.37696 0.93071 0.0
C480 C 0.28101 0.3577 0.95477 0.0
C481 C 0.29058 0.40271 0.9053 0.0
C482 C 0.25277 0.41098 0.90349 0.0
H483 H 0.33394 0.37291 0.93234 0.0
H484 H 0.30992 0.41744 0.88817 0.0
S485 S 0.17958 0.36662 0.95916 0.0
N486 N 0.21807 0.34714 0.97388 0.0
N487 N 0.19181 0.39594 0.92668 0.0
C488 C 0.22887 0.39086 0.92649 0.0
C489 C 0.24302 0.3641 0.95194 0.0
C490 C 0.63267 0.27831 0.90197 0.0
C491 C 0.60335 0.29218 0.88069 0.0
C492 C 0.64955 0.29949 0.92912 0.0
C493 C 0.63757 0.33547 0.9367 0.0
H494 H 0.64134 0.24999 0.89905 0.0
H495 H 0.67088 0.28658 0.94563 0.0
S496 S 0.56582 0.38682 0.88453 0.0
N497 N 0.56599 0.34565 0.86569 0.0
N498 N 0.59753 0.38568 0.91719 0.0
C499 C 0.6101 0.35073 0.91371 0.0
C500 C 0.59312 0.32909 0.88554 0.0
C501 C 0.75313 0.64224 0.87984 0.0
C502 C 0.76766 0.6667 0.90595 0.0
C503 C 0.77471 0.61419 0.86458 0.0
C504 C 0.81153 0.60902 0.87539 0.0
H505 H 0.7242 0.64355 0.87265 0.0
H506 H 0.76174 0.59512 0.8459 0.0
S507 S 0.86385 0.66835 0.93962 0.0
N508 N 0.82195 0.68614 0.93932 0.0
N509 N 0.86271 0.63331 0.911 0.0
C510 C 0.82709 0.63485 0.89964 0.0
C511 C 0.80513 0.66376 0.91478 0.0
C512 C 0.10268 0.46593 0.3451 0.0
C513 C 0.09495 0.42845 0.34059 0.0
C514 C 0.13493 0.48141 0.33028 0.0
C515 C 0.16097 0.45989 0.31125 0.0
H516 H 0.08266 0.48382 0.35796 0.0
H517 H 0.1383 0.51085 0.33161 0.0
S518 S 0.1564 0.35979 0.29622 0.0
N519 N 0.11825 0.36962 0.31881 0.0
N520 N 0.17832 0.39903 0.29129 0.0
C521 C 0.15481 0.42216 0.30882 0.0
C522 C 0.12202 0.40637 0.32351 0.0
C523 C 0.19609 0.59984 0.76364 0.0
C524 C 0.19432 0.56175 0.75921 0.0
C525 C 0.17288 0.6233 0.74345 0.0
C526 C 0.14664 0.60947 0.7185 0.0
H527 H 0.21327 0.61136 0.78503 0.0
H528 H 0.17376 0.65237 0.7494 0.0
S529 S 0.13393 0.51163 0.69465 0.0
N530 N 0.16691 0.51121 0.72602 0.0
N531 N 0.12301 0.55522 0.68806 0.0
C532 C 0.14686 0.57158 0.71158 0.0
C533 C 0.17069 0.54772 0.73211 0.0
C534 C 0.43187 0.13766 0.72831 0.0
C535 C 0.40563 0.11671 0.74762 0.0
C536 C 0.45639 0.16112 0.74675 0.0
C537 C 0.45633 0.16388 0.78537 0.0
H538 H 0.43357 0.13589 0.69861 0.0
H539 H 0.4764 0.1762 0.73072 0.0
S540 S 0.39262 0.11583 0.84889 0.0
N541 N 0.38036 0.10152 0.8076 0.0
N542 N 0.42701 0.14447 0.84223 0.0
C543 C 0.42994 0.14347 0.80496 0.0
C544 C 0.40445 0.12025 0.78614 0.0
C545 C 0.89897 0.42307 0.76105 0.0
C546 C 0.90179 0.42756 0.79934 0.0
C547 C 0.91608 0.39342 0.74336 0.0
C548 C 0.93611 0.36663 0.76325 0.0
H549 H 0.88519 0.44366 0.74433 0.0
H550 H 0.91503 0.39241 0.71357 0.0
S551 S 0.94665 0.36254 0.8647 0.0
N552 N 0.92266 0.40045 0.85713 0.0
N553 N 0.9543 0.34446 0.82379 0.0
C554 C 0.93663 0.36916 0.80181 0.0
C555 C 0.91971 0.39975 0.81985 0.0
C556 C 0.58333 0.93267 0.72444 0.0
C557 C 0.60956 0.95464 0.74206 0.0
C558 C 0.5608 0.90877 0.74464 0.0
C559 C 0.56295 0.90637 0.78342 0.0
H560 H 0.58068 0.93337 0.69474 0.0
H561 H 0.54127 0.89217 0.72963 0.0
S562 S 0.62538 0.96008 0.843 0.0
N563 N 0.63547 0.97358 0.80078 0.0
N564 N 0.59252 0.9293 0.83863 0.0
C565 C 0.58832 0.92898 0.80147 0.0
C566 C 0.61178 0.95286 0.78084 0.0
C567 C 0.89761 0.65453 0.30091 0.0
C568 C 0.92632 0.67202 0.28191 0.0
C569 C 0.87217 0.63239 0.28253 0.0
C570 C 0.87498 0.62607 0.24447 0.0
H571 H 0.89552 0.65703 0.33055 0.0
H572 H 0.85134 0.61862 0.29867 0.0
S573 S 0.94387 0.66765 0.18171 0.0
N574 N 0.95483 0.68364 0.22275 0.0
N575 N 0.90756 0.64131 0.18796 0.0
C576 C 0.90273 0.64468 0.22486 0.0
C577 C 0.92825 0.66787 0.24362 0.0
C578 C 0.42392 0.94809 0.26986 0.0
C579 C 0.39806 0.97279 0.25485 0.0
C580 C 0.44867 0.92914 0.24757 0.0
C581 C 0.44926 0.93432 0.20918 0.0
H582 H 0.42497 0.94301 0.29925 0.0
H583 H 0.46765 0.91017 0.26077 0.0
S584 S 0.38783 0.99638 0.15585 0.0
N585 N 0.37458 1.00175 0.199 0.0
N586 N 0.42192 0.96619 0.15688 0.0
C587 C 0.42395 0.95925 0.19358 0.0
C588 C 0.39808 0.97833 0.21644 0.0
C589 C 0.67106 0.08754 0.25264 0.0
C590 C 0.67216 0.04931 0.24856 0.0
C591 C 0.64366 0.10889 0.23543 0.0
C592 C 0.61579 0.09288 0.21377 0.0
H593 H 0.69028 0.10083 0.27104 0.0
H594 H 0.64348 0.13814 0.24052 0.0
S595 S 0.60716 0.99348 0.19397 0.0
N596 N 0.64384 0.99613 0.22075 0.0
N597 N 0.59234 0.03605 0.18812 0.0
C598 C 0.61763 0.05469 0.20814 0.0
C599 C 0.64569 0.03297 0.22574 0.0
C600 C 0.73683 0.91374 0.63772 0.0
C601 C 0.75744 0.93894 0.6585 0.0
C602 C 0.75405 0.8862 0.61688 0.0
C603 C 0.79261 0.88331 0.61524 0.0
H604 H 0.70706 0.91543 0.63737 0.0
H605 H 0.73702 0.86792 0.60084 0.0
S606 S 0.85923 0.94158 0.66544 0.0
N607 N 0.81856 0.95814 0.67722 0.0
N608 N 0.85092 0.90719 0.63726 0.0
C609 C 0.81354 0.9079 0.63636 0.0
C610 C 0.79599 0.93545 0.65821 0.0
C611 C 0.14171 0.8196 0.63575 0.0
C612 C 0.16983 0.80356 0.61437 0.0
C613 C 0.12594 0.80063 0.6654 0.0
C614 C 0.13765 0.765 0.67435 0.0
H615 H 0.13069 0.84639 0.62867 0.0
H616 H 0.10252 0.81268 0.67934 0.0
S617 S 0.21285 0.71225 0.63035 0.0
N618 N 0.21107 0.7512 0.60703 0.0
N619 N 0.18078 0.71556 0.66228 0.0
C620 C 0.16735 0.74973 0.65505 0.0
C621 C 0.18362 0.769 0.62512 0.0
C622 C 0.2892 0.1235 0.54256 0.0
C623 C 0.27702 0.15812 0.55456 0.0
C624 C 0.31612 0.10377 0.56218 0.0
C625 C 0.33094 0.11764 0.59499 0.0
H626 H 0.27647 0.1108 0.51885 0.0
H627 H 0.32282 0.07616 0.55344 0.0
S628 S 0.31013 0.20803 0.63653 0.0
N629 N 0.2839 0.20674 0.59934 0.0
N630 N 0.33337 0.16894 0.63729 0.0
C631 C 0.32048 0.15308 0.60609 0.0
C632 C 0.29376 0.17356 0.58558 0.0
C633 C 0.9377 0.24988 0.56422 0.0
C634 C 0.90041 0.24649 0.57393 0.0
C635 C 0.96098 0.27375 0.58343 0.0
C636 C 0.9476 0.29471 0.61289 0.0
H637 H 0.94882 0.23442 0.54138 0.0
H638 H 0.98985 0.27478 0.57614 0.0
S639 S 0.8528 0.29516 0.64981 0.0
N640 N 0.85146 0.26607 0.61514 0.0
N641 N 0.89553 0.31016 0.65151 0.0
C642 C 0.91058 0.29153 0.62286 0.0
C643 C 0.88686 0.26763 0.60327 0.0
C644 C 0.77937 0.08092 0.39477 0.0
C645 C 0.74132 0.0759 0.40053 0.0
C646 C 0.79907 0.10789 0.41368 0.0
C647 C 0.7814 0.1314 0.43855 0.0
H648 H 0.79437 0.06334 0.37608 0.0
H649 H 0.82839 0.11024 0.40886 0.0
S650 S 0.68229 0.12993 0.46363 0.0
N651 N 0.68683 0.09688 0.43307 0.0
N652 N 0.72362 0.14787 0.46827 0.0
C653 C 0.74326 0.12711 0.44422 0.0
C654 C 0.72332 0.09929 0.42533 0.0
C655 C 0.89517 0.72551 0.4184 0.0
C656 C 0.92356 0.70335 0.43309 0.0
C657 C 0.86817 0.74091 0.44105 0.0
C658 C 0.8684 0.73447 0.47911 0.0
H659 H 0.8952 0.73312 0.38953 0.0
H660 H 0.84927 0.76087 0.42925 0.0
S661 S 0.93297 0.67418 0.53053 0.0
N662 N 0.94736 0.67207 0.48748 0.0
N663 N 0.89639 0.70128 0.53004 0.0
C664 C 0.89416 0.7094 0.49358 0.0
C665 C 0.92184 0.69369 0.47054 0.0
C666 C 0.27804 0.93575 0.39729 0.0
C667 C 0.31596 0.94 0.40409 0.0
C668 C 0.25598 0.91488 0.42076 0.0
C669 C 0.27105 0.89663 0.45143 0.0
H670 H 0.26468 0.95042 0.37493 0.0
H671 H 0.22665 0.91395 0.41547 0.0
S672 S 0.3693 0.8952 0.47918 0.0
N673 N 0.36809 0.92178 0.44225 0.0
N674 N 0.32657 0.88158 0.4859 0.0
C675 C 0.30926 0.89844 0.45721 0.0
C676 C 0.33172 0.92037 0.43366 0.0
C677 C 0.09054 0.23308 0.42224 0.0
C678 C 0.12033 0.25123 0.43921 0.0
C679 C 0.0659 0.25185 0.39872 0.0
C680 C 0.06991 0.28952 0.39185 0.0
H681 H 0.08596 0.2042 0.42744 0.0
H682 H 0.04284 0.23719 0.38707 0.0
S683 S 0.14418 0.34945 0.42697 0.0
N684 N 0.15321 0.30887 0.44528 0.0
N685 N 0.10671 0.34393 0.40195 0.0
C686 C 0.10002 0.3077 0.40769 0.0
C687 C 0.12528 0.28864 0.43113 0.0
C688 C 0.62387 0.74347 0.86788 0.0
C689 C 0.61219 0.71322 0.88912 0.0
C690 C 0.60095 0.75962 0.84135 0.0
C691 C 0.56572 0.74584 0.8344 0.0
H692 H 0.65013 0.75632 0.87317 0.0
H693 H 0.60979 0.78478 0.82814 0.0
S694 S 0.52371 0.66428 0.87808 0.0
N695 N 0.56434 0.66769 0.89819 0.0
N696 N 0.52133 0.69826 0.84789 0.0
C697 C 0.55483 0.71379 0.85287 0.0
C698 C 0.57809 0.69737 0.8803 0.0
C699 C 0.28051 0.61135 0.94291 0.0
C700 C 0.26065 0.63277 0.9682 0.0
C701 C 0.26327 0.58515 0.92102 0.0
C702 C 0.22519 0.57868 0.9234 0.0
H703 H 0.31002 0.61446 0.94024 0.0
H704 H 0.28036 0.56935 0.90248 0.0
S705 S 0.16003 0.6286 0.98415 0.0
N706 N 0.20045 0.6469 0.99354 0.0
N707 N 0.16769 0.59724 0.95233 0.0
C708 C 0.20462 0.60056 0.94793 0.0
C709 C 0.22236 0.62772 0.97022 0.0
C710 C 0.43081 0.24978 0.98681 0.0
C711 C 0.42903 0.28836 0.98437 0.0
C712 C 0.45351 0.22931 0.96346 0.0
C713 C 0.47457 0.2467 0.93631 0.0
H714 H 0.41394 0.23521 1.00656 0.0
H715 H 0.45353 0.19968 0.96581 0.0
S716 S 0.48149 0.34722 0.92045 0.0
N717 N 0.45174 0.34323 0.95449 0.0
N718 N 0.4942 0.30501 0.90993 0.0
C719 C 0.47401 0.28541 0.93446 0.0
C720 C 0.45133 0.30621 0.95873 0.0
C721 C 0.7682 0.44141 0.95865 0.0
C722 C 0.78093 0.4134 0.98231 0.0
C723 C 0.79253 0.46384 0.93938 0.0
C724 C 0.83082 0.45975 0.94315 0.0
H725 H 0.739 0.44583 0.95436 0.0
H726 H 0.78111 0.48453 0.92106 0.0
S727 S 0.87885 0.39155 1.00237 0.0
N728 N 0.83469 0.38328 1.00906 0.0
N729 N 0.88066 0.42609 0.97282 0.0
C730 C 0.84422 0.43251 0.96728 0.0
C731 C 0.81925 0.40911 0.98674 0.0
C732 C 0.62429 0.30325 0.12184 0.0
C733 C 0.64887 0.28712 0.09668 0.0
C734 C 0.6025 0.28176 0.14515 0.0
C735 C 0.60374 0.2433 0.14351 0.0
H736 H 0.62191 0.33282 0.12362 0.0
H737 H 0.58387 0.29541 0.16394 0.0
S738 S 0.664 0.18756 0.083 0.0
N739 N 0.67404 0.23043 0.07228 0.0
N740 N 0.63217 0.18984 0.11532 0.0
C741 C 0.62837 0.22676 0.11866 0.0
C742 C 0.65124 0.24872 0.09549 0.0
C743 C 0.76961 0.58123 0.06826 0.0
C744 C 0.78587 0.59989 0.09788 0.0
C745 C 0.74315 0.59855 0.0457 0.0
C746 C 0.73263 0.63522 0.05173 0.0
H747 H 0.77647 0.55274 0.06326 0.0
H748 H 0.73144 0.5834 0.02297 0.0
S749 S 0.76725 0.6958 0.12564 0.0
N750 N 0.78916 0.65653 0.13245 0.0
N751 N 0.74078 0.68959 0.08921 0.0
C752 C 0.74909 0.65418 0.08099 0.0
C753 C 0.77532 0.63635 0.10433 0.0
C754 C 0.38096 0.7954 0.09265 0.0
C755 C 0.36769 0.76144 0.10475 0.0
C756 C 0.41116 0.81174 0.11009 0.0
C757 C 0.42925 0.79452 0.14007 0.0
H758 H 0.36994 0.80791 0.06782 0.0
H759 H 0.42139 0.83725 0.0988 0.0
S760 S 0.40147 0.70706 0.18447 0.0
N761 N 0.37215 0.71261 0.1501 0.0
N762 N 0.42865 0.74317 0.18321 0.0
C763 C 0.41429 0.76177 0.15396 0.0
C764 C 0.38357 0.74529 0.1362 0.0
C765 C 0.30516 0.41462 0.14013 0.0
C766 C 0.29017 0.3941 0.11128 0.0
C767 C 0.28285 0.43705 0.16205 0.0
C768 C 0.24465 0.44075 0.15556 0.0
H769 H 0.33435 0.4131 0.14608 0.0
H770 H 0.29603 0.45219 0.18394 0.0
S771 S 0.19212 0.39381 0.08215 0.0
N772 N 0.23482 0.37903 0.07682 0.0
N773 N 0.19306 0.42219 0.11745 0.0
C774 C 0.22933 0.42067 0.12646 0.0
C775 C 0.25202 0.39711 0.10453 0.0
C776 C 0.959 0.58813 0.7871 0.0
C777 C 0.96199 0.58514 0.82561 0.0
C778 C 0.97931 0.61382 0.76723 0.0
C779 C 1.0035 0.6381 0.78484 0.0
H780 H 0.94071 0.57035 0.77189 0.0
H781 H 0.97593 0.61455 0.7376 0.0
S782 S 0.02157 0.64201 0.8853 0.0
N783 N 0.99107 0.60888 0.88087 0.0
N784 N 0.02951 0.65753 0.84326 0.0
C785 C 1.00681 0.63573 0.82341 0.0
C786 C 0.98616 0.60909 0.84381 0.0
C787 C 0.92488 0.44385 0.21069 0.0
C788 C 0.89407 0.46188 0.22608 0.0
C789 C 0.94661 0.41916 0.23164 0.0
C790 C 0.93848 0.41196 0.26881 0.0
H791 H 0.93285 0.44947 0.18252 0.0
H792 H 0.97072 0.40689 0.21916 0.0
S793 S 0.85892 0.44828 0.32131 0.0
N794 N 0.85513 0.46768 0.28036 0.0
N795 N 0.89605 0.42218 0.31923 0.0
C796 C 0.90702 0.4285 0.284 0.0
C797 C 0.88481 0.45319 0.26281 0.0
C798 C 0.63619 0.8845 0.29854 0.0
C799 C 0.62648 0.92011 0.30996 0.0
C800 C 0.61435 0.86538 0.27308 0.0
C801 C 0.58316 0.88205 0.25719 0.0
H802 H 0.66143 0.87191 0.30844 0.0
H803 H 0.62298 0.83831 0.26435 0.0
S804 S 0.54593 0.97452 0.27825 0.0
N805 N 0.58292 0.97058 0.30448 0.0
N806 N 0.54293 0.93551 0.25559 0.0
C807 C 0.57282 0.91726 0.26905 0.0
C808 C 0.59425 0.93611 0.29572 0.0
C809 C 0.10493 0.61222 0.24776 0.0
C810 C 0.13526 0.59392 0.26375 0.0
C811 C 0.08011 0.63255 0.26948 0.0
C812 C 0.08416 0.63438 0.30802 0.0
H813 H 0.10007 0.61049 0.2184 0.0
H814 H 0.0569 0.64589 0.25616 0.0
S815 S 0.1593 0.5931 0.36361 0.0
N816 N 0.16858 0.58095 0.32094 0.0
N817 N 0.12115 0.61771 0.36109 0.0
C818 C 0.11446 0.61681 0.32426 0.0
C819 C 0.14021 0.597 0.3023 0.0
C820 C 0.43695 0.14999 0.27652 0.0
C821 C 0.47437 0.14975 0.28586 0.0
C822 C 0.4115 0.13002 0.29713 0.0
C823 C 0.42268 0.10842 0.32746 0.0
H824 H 0.42761 0.16401 0.25179 0.0
H825 H 0.38324 0.12958 0.28759 0.0
S826 S 0.51755 0.10234 0.36531 0.0
N827 N 0.52128 0.12963 0.32909 0.0
N828 N 0.47358 0.09137 0.36799 0.0
C829 C 0.45975 0.11042 0.33881 0.0
C830 C 0.48565 0.13116 0.31781 0.0
C831 C 0.1158 0.40909 0.73634 0.0
C832 C 0.08067 0.39642 0.74525 0.0
C833 C 0.13636 0.42902 0.76197 0.0
C834 C 0.12215 0.43777 0.79708 0.0
H835 H 0.12789 0.40263 0.7099 0.0
H836 H 0.16367 0.43767 0.75403 0.0
S837 S 0.02978 0.41312 0.83204 0.0
N838 N 0.03154 0.395 0.79051 0.0
N839 N 0.06974 0.43351 0.83829 0.0
C840 C 0.08643 0.42619 0.80569 0.0
C841 C 0.06581 0.40525 0.77986 0.0
C842 C 0.63013 0.10252 0.83556 0.0
C843 C 0.61985 0.13744 0.82205 0.0
C844 C 0.65466 0.07997 0.81594 0.0
C845 C 0.66973 0.09174 0.78236 0.0
H846 H 0.61768 0.09169 0.86035 0.0
H847 H 0.65978 0.05229 0.82574 0.0
S848 S 0.65624 0.1821 0.73744 0.0
N849 N 0.63055 0.18398 0.77481 0.0
N850 N 0.6757 0.1411 0.73803 0.0
C851 C 0.66176 0.12726 0.76987 0.0
C852 C 0.6371 0.15029 0.78973 0.0
C853 C 0.40008 0.90615 0.76231 0.0
C854 C 0.42351 0.88092 0.7448 0.0
C855 C 0.38798 0.93818 0.74439 0.0
C856 C 0.39935 0.94692 0.70832 0.0
H857 H 0.39208 0.90175 0.7907 0.0
H858 H 0.37051 0.95686 0.75962 0.0
S859 S 0.45982 0.8892 0.64978 0.0
N860 N 0.45671 0.86603 0.68882 0.0
N861 N 0.43434 0.92644 0.65513 0.0
C862 C 0.42188 0.92129 0.68999 0.0
C863 C 0.4338 0.88826 0.70818 0.0
loop_
_geom_bond_atom_site_label_1
_geom_bond_atom_site_label_2
_geom_bond_distance
_geom_bond_site_symmetry_2
_ccdc_geom_bond_type
C0 O2 1.247 . S
C0 O4 1.258 . S
C1 O8 1.247 . S
C1 O9 1.258 . S
O2 C0 1.247 . S
O2 Zn3 2.028 . S
Zn3 O2 2.028 . S
Zn3 O7 2.035 . S
Zn3 O9 2.035 1_545 S
Zn3 O10 2.028 1_545 S
O4 C0 1.258 . S
O4 Zn5 2.035 . S
Zn5 O4 2.035 . S
Zn5 O6 2.028 . S
Zn5 O8 2.028 1_545 S
Zn5 O11 2.035 1_545 S
O6 Zn5 2.028 . S
O6 C12 1.247 . S
O7 Zn3 2.035 . S
O7 C12 1.258 . S
O8 C1 1.247 . S
O8 Zn5 2.028 1_565 S
O9 C1 1.258 . S
O9 Zn3 2.035 1_565 S
O10 Zn3 2.028 1_565 S
O10 C13 1.247 . S
O11 Zn5 2.035 1_565 S
O11 C13 1.258 . S
C12 O6 1.247 . S
C12 O7 1.258 . S
C13 O10 1.247 . S
C13 O11 1.258 . S
C14 O16 1.247 . S
C14 O18 1.258 . S
C15 O22 1.247 . S
C15 O23 1.258 . S
O16 C14 1.247 . S
O16 Zn17 2.028 . S
Zn17 O16 2.028 . S
Zn17 O21 2.035 . S
Zn17 O23 2.035 1_455 S
Zn17 O24 2.028 1_455 S
O18 C14 1.258 . S
O18 Zn19 2.035 . S
Zn19 O18 2.035 . S
Zn19 O20 2.028 . S
Zn19 O22 2.028 1_455 S
Zn19 O25 2.035 1_455 S
O20 Zn19 2.028 . S
O20 C26 1.247 . S
O21 Zn17 2.035 . S
O21 C26 1.258 . S
O22 C15 1.247 . S
O22 Zn19 2.028 1_655 S
O23 C15 1.258 . S
O23 Zn17 2.035 1_655 S
O24 Zn17 2.028 1_655 S
O24 C27 1.247 . S
O25 Zn19 2.035 1_655 S
O25 C27 1.258 . S
C26 O20 1.247 . S
C26 O21 1.258 . S
C27 O24 1.247 . S
C27 O25 1.258 . S
C28 O30 1.247 . S
C28 O32 1.258 . S
C29 O36 1.247 . S
C29 O37 1.258 . S
O30 C28 1.247 . S
O30 Zn31 2.028 1_565 S
Zn31 O30 2.028 1_545 S
Zn31 O35 2.035 1_545 S
Zn31 O37 2.035 . S
Zn31 O38 2.028 . S
O32 C28 1.258 . S
O32 Zn33 2.035 1_565 S
Zn33 O32 2.035 1_545 S
Zn33 O34 2.028 1_545 S
Zn33 O36 2.028 . S
Zn33 O39 2.035 . S
O34 Zn33 2.028 1_565 S
O34 C40 1.247 . S
O35 Zn31 2.035 1_565 S
O35 C40 1.258 . S
O36 C29 1.247 . S
O36 Zn33 2.028 . S
O37 C29 1.258 . S
O37 Zn31 2.035 . S
O38 Zn31 2.028 . S
O38 C41 1.247 . S
O39 Zn33 2.035 . S
O39 C41 1.258 . S
C40 O34 1.247 . S
C40 O35 1.258 . S
C41 O38 1.247 . S
C41 O39 1.258 . S
C42 O44 1.247 . S
C42 O46 1.258 . S
C43 O50 1.247 . S
C43 O51 1.258 . S
O44 C42 1.247 . S
O44 Zn45 2.028 . S
Zn45 O44 2.028 . S
Zn45 O49 2.035 . S
Zn45 O51 2.035 1_455 S
Zn45 O52 2.028 1_455 S
O46 C42 1.258 . S
O46 Zn47 2.035 . S
Zn47 O46 2.035 . S
Zn47 O48 2.028 . S
Zn47 O50 2.028 1_455 S
Zn47 O53 2.035 1_455 S
O48 Zn47 2.028 . S
O48 C54 1.247 . S
O49 Zn45 2.035 . S
O49 C54 1.258 . S
O50 C43 1.247 . S
O50 Zn47 2.028 1_655 S
O51 C43 1.258 . S
O51 Zn45 2.035 1_655 S
O52 Zn45 2.028 1_655 S
O52 C55 1.247 . S
O53 Zn47 2.035 1_655 S
O53 C55 1.258 . S
C54 O48 1.247 . S
C54 O49 1.258 . S
C55 O52 1.247 . S
C55 O53 1.258 . S
C56 O58 1.247 . S
C56 O60 1.258 . S
C57 O64 1.247 . S
C57 O65 1.258 . S
O58 C56 1.247 . S
O58 Zn59 2.028 . S
Zn59 O58 2.028 . S
Zn59 O63 2.035 . S
Zn59 O65 2.035 1_545 S
Zn59 O66 2.028 1_545 S
O60 C56 1.258 . S
O60 Zn61 2.035 . S
Zn61 O60 2.035 . S
Zn61 O62 2.028 . S
Zn61 O64 2.028 1_545 S
Zn61 O67 2.035 1_545 S
O62 Zn61 2.028 . S
O62 C68 1.247 . S
O63 Zn59 2.035 . S
O63 C68 1.258 . S
O64 C57 1.247 . S
O64 Zn61 2.028 1_565 S
O65 C57 1.258 . S
O65 Zn59 2.035 1_565 S
O66 Zn59 2.028 1_565 S
O66 C69 1.247 . S
O67 Zn61 2.035 1_565 S
O67 C69 1.258 . S
C68 O62 1.247 . S
C68 O63 1.258 . S
C69 O66 1.247 . S
C69 O67 1.258 . S
C70 O72 1.247 . S
C70 O74 1.258 . S
C71 O78 1.247 . S
C71 O79 1.258 . S
O72 C70 1.247 . S
O72 Zn73 2.028 . S
Zn73 O72 2.028 . S
Zn73 O77 2.035 . S
Zn73 O79 2.035 1_455 S
Zn73 O80 2.028 1_455 S
O74 C70 1.258 . S
O74 Zn75 2.035 . S
Zn75 O74 2.035 . S
Zn75 O76 2.028 . S
Zn75 O78 2.028 1_455 S
Zn75 O81 2.035 1_455 S
O76 Zn75 2.028 . S
O76 C82 1.247 . S
O77 Zn73 2.035 . S
O77 C82 1.258 . S
O78 C71 1.247 . S
O78 Zn75 2.028 1_655 S
O79 C71 1.258 . S
O79 Zn73 2.035 1_655 S
O80 Zn73 2.028 1_655 S
O80 C83 1.247 . S
O81 Zn75 2.035 1_655 S
O81 C83 1.258 . S
C82 O76 1.247 . S
C82 O77 1.258 . S
C83 O80 1.247 . S
C83 O81 1.258 . S
C84 O86 1.247 . S
C84 O88 1.258 . S
C85 O92 1.247 . S
C85 O93 1.258 . S
O86 C84 1.247 . S
O86 Zn87 2.028 . S
Zn87 O86 2.028 . S
Zn87 O91 2.035 . S
Zn87 O93 2.035 1_545 S
Zn87 O94 2.028 1_545 S
O88 C84 1.258 . S
O88 Zn89 2.035 . S
Zn89 O88 2.035 . S
Zn89 O90 2.028 . S
Zn89 O92 2.028 1_545 S
Zn89 O95 2.035 1_545 S
O90 Zn89 2.028 . S
O90 C96 1.247 . S
O91 Zn87 2.035 . S
O91 C96 1.258 . S
O92 C85 1.247 . S
O92 Zn89 2.028 1_565 S
O93 C85 1.258 . S
O93 Zn87 2.035 1_565 S
O94 Zn87 2.028 1_565 S
O94 C97 1.247 . S
O95 Zn89 2.035 1_565 S
O95 C97 1.258 . S
C96 O90 1.247 . S
C96 O91 1.258 . S
C97 O94 1.247 . S
C97 O95 1.258 . S
C98 O100 1.247 . S
C98 O102 1.258 . S
C99 O106 1.247 . S
C99 O107 1.258 . S
O100 C98 1.247 . S
O100 Zn101 2.028 1_655 S
Zn101 O100 2.028 1_455 S
Zn101 O105 2.035 1_455 S
Zn101 O107 2.035 . S
Zn101 O108 2.028 . S
O102 C98 1.258 . S
O102 Zn103 2.035 1_655 S
Zn103 O102 2.035 1_455 S
Zn103 O104 2.028 1_455 S
Zn103 O106 2.028 . S
Zn103 O109 2.035 . S
O104 Zn103 2.028 1_655 S
O104 C110 1.247 . S
O105 Zn101 2.035 1_655 S
O105 C110 1.258 . S
O106 C99 1.247 . S
O106 Zn103 2.028 . S
O107 C99 1.258 . S
O107 Zn101 2.035 . S
O108 Zn101 2.028 . S
O108 C111 1.247 . S
O109 Zn103 2.035 . S
O109 C111 1.258 . S
C110 O104 1.247 . S
C110 O105 1.258 . S
C111 O108 1.247 . S
C111 O109 1.258 . S
C112 O114 1.247 . S
C112 O116 1.258 . S
C113 O120 1.247 . S
C113 O121 1.258 . S
O114 C112 1.247 . S
O114 Zn115 2.028 . S
Zn115 O114 2.028 . S
Zn115 O119 2.035 . S
Zn115 O121 2.035 1_554 S
Zn115 O122 2.028 1_554 S
O116 C112 1.258 . S
O116 Zn117 2.035 . S
Zn117 O116 2.035 . S
Zn117 O118 2.028 . S
Zn117 O120 2.028 1_554 S
Zn117 O123 2.035 1_554 S
O118 Zn117 2.028 . S
O118 C124 1.247 . S
O119 Zn115 2.035 . S
O119 C124 1.258 . S
O120 C113 1.247 . S
O120 Zn117 2.028 1_556 S
O121 C113 1.258 . S
O121 Zn115 2.035 1_556 S
O122 Zn115 2.028 1_556 S
O122 C125 1.247 . S
O123 Zn117 2.035 1_556 S
O123 C125 1.258 . S
C124 O118 1.247 . S
C124 O119 1.258 . S
C125 O122 1.247 . S
C125 O123 1.258 . S
C126 O128 1.247 . S
C126 O130 1.258 . S
C127 O134 1.247 . S
C127 O135 1.258 . S
O128 C126 1.247 . S
O128 Zn129 2.028 . S
Zn129 O128 2.028 . S
Zn129 O133 2.035 . S
Zn129 O135 2.035 1_554 S
Zn129 O136 2.028 1_554 S
O130 C126 1.258 . S
O130 Zn131 2.035 . S
Zn131 O130 2.035 . S
Zn131 O132 2.028 . S
Zn131 O134 2.028 1_554 S
Zn131 O137 2.035 1_554 S
O132 Zn131 2.028 . S
O132 C138 1.247 . S
O133 Zn129 2.035 . S
O133 C138 1.258 . S
O134 C127 1.247 . S
O134 Zn131 2.028 1_556 S
O135 C127 1.258 . S
O135 Zn129 2.035 1_556 S
O136 Zn129 2.028 1_556 S
O136 C139 1.247 . S
O137 Zn131 2.035 1_556 S
O137 C139 1.258 . S
C138 O132 1.247 . S
C138 O133 1.258 . S
C139 O136 1.247 . S
C139 O137 1.258 . S
C140 O142 1.247 . S
C140 O144 1.258 . S
C141 O148 1.247 . S
C141 O149 1.258 . S
O142 C140 1.247 . S
O142 Zn143 2.028 . S
Zn143 O142 2.028 . S
Zn143 O147 2.035 . S
Zn143 O149 2.035 1_554 S
Zn143 O150 2.028 1_554 S
O144 C140 1.258 . S
O144 Zn145 2.035 . S
Zn145 O144 2.035 . S
Zn145 O146 2.028 . S
Zn145 O148 2.028 1_554 S
Zn145 O151 2.035 1_554 S
O146 Zn145 2.028 . S
O146 C152 1.247 . S
O147 Zn143 2.035 . S
O147 C152 1.258 . S
O148 C141 1.247 . S
O148 Zn145 2.028 1_556 S
O149 C141 1.258 . S
O149 Zn143 2.035 1_556 S
O150 Zn143 2.028 1_556 S
O150 C153 1.247 . S
O151 Zn145 2.035 1_556 S
O151 C153 1.258 . S
C152 O146 1.247 . S
C152 O147 1.258 . S
C153 O150 1.247 . S
C153 O151 1.258 . S
C154 O156 1.247 . S
C154 O158 1.258 . S
C155 O162 1.247 . S
C155 O163 1.258 . S
O156 C154 1.247 . S
O156 Zn157 2.028 1_556 S
Zn157 O156 2.028 1_554 S
Zn157 O161 2.035 1_554 S
Zn157 O163 2.035 . S
Zn157 O164 2.028 . S
O158 C154 1.258 . S
O158 Zn159 2.035 1_556 S
Zn159 O158 2.035 1_554 S
Zn159 O160 2.028 1_554 S
Zn159 O162 2.028 . S
Zn159 O165 2.035 . S
O160 Zn159 2.028 1_556 S
O160 C166 1.247 . S
O161 Zn157 2.035 1_556 S
O161 C166 1.258 . S
O162 C155 1.247 . S
O162 Zn159 2.028 . S
O163 C155 1.258 . S
O163 Zn157 2.035 . S
O164 Zn157 2.028 . S
O164 C167 1.247 . S
O165 Zn159 2.035 . S
O165 C167 1.258 . S
C166 O160 1.247 . S
C166 O161 1.258 . S
C167 O164 1.247 . S
C167 O165 1.258 . S
C168 O170 1.247 . S
C168 O172 1.258 . S
C169 O176 1.247 . S
C169 O177 1.258 . S
O170 C168 1.247 . S
O170 Zn171 2.028 . S
Zn171 O170 2.028 . S
Zn171 O175 2.035 . S
Zn171 O177 2.035 . S
Zn171 O178 2.028 . S
O172 C168 1.258 . S
O172 Zn173 2.035 . S
Zn173 O172 2.035 . S
Zn173 O174 2.028 . S
Zn173 O176 2.028 . S
Zn173 O179 2.035 . S
O174 Zn173 2.028 . S
O174 C180 1.247 . S
O175 Zn171 2.035 . S
O175 C180 1.258 . S
O176 C169 1.247 . S
O176 Zn173 2.028 . S
O177 C169 1.258 . S
O177 Zn171 2.035 . S
O178 Zn171 2.028 . S
O178 C181 1.247 . S
O179 Zn173 2.035 . S
O179 C181 1.258 . S
C180 O174 1.247 . S
C180 O175 1.258 . S
C181 O178 1.247 . S
C181 O179 1.258 . S
C182 O184 1.247 . S
C182 O186 1.258 . S
C183 O190 1.247 . S
C183 O191 1.258 . S
O184 C182 1.247 . S
O184 Zn185 2.028 . S
Zn185 O184 2.028 . S
Zn185 O189 2.035 . S
Zn185 O191 2.035 . S
Zn185 O192 2.028 . S
O186 C182 1.258 . S
O186 Zn187 2.035 . S
Zn187 O186 2.035 . S
Zn187 O188 2.028 . S
Zn187 O190 2.028 . S
Zn187 O193 2.035 . S
O188 Zn187 2.028 . S
O188 C194 1.247 . S
O189 Zn185 2.035 . S
O189 C194 1.258 . S
O190 C183 1.247 . S
O190 Zn187 2.028 . S
O191 C183 1.258 . S
O191 Zn185 2.035 . S
O192 Zn185 2.028 . S
O192 C195 1.247 . S
O193 Zn187 2.035 . S
O193 C195 1.258 . S
C194 O188 1.247 . S
C194 O189 1.258 . S
C195 O192 1.247 . S
C195 O193 1.258 . S
C196 O198 1.247 . S
C196 O200 1.258 . S
C197 O204 1.247 . S
C197 O205 1.258 . S
O198 C196 1.247 . S
O198 Zn199 2.028 . S
Zn199 O198 2.028 . S
Zn199 O203 2.035 . S
Zn199 O205 2.035 . S
Zn199 O206 2.028 . S
O200 C196 1.258 . S
O200 Zn201 2.035 . S
Zn201 O200 2.035 . S
Zn201 O202 2.028 . S
Zn201 O204 2.028 . S
Zn201 O207 2.035 . S
O202 Zn201 2.028 . S
O202 C208 1.247 . S
O203 Zn199 2.035 . S
O203 C208 1.258 . S
O204 C197 1.247 . S
O204 Zn201 2.028 . S
O205 C197 1.258 . S
O205 Zn199 2.035 . S
O206 Zn199 2.028 . S
O206 C209 1.247 . S
O207 Zn201 2.035 . S
O207 C209 1.258 . S
C208 O202 1.247 . S
C208 O203 1.258 . S
C209 O206 1.247 . S
C209 O207 1.258 . S
C210 O212 1.247 . S
C210 O214 1.258 . S
C211 O218 1.247 . S
C211 O219 1.258 . S
O212 C210 1.247 . S
O212 Zn213 2.028 . S
Zn213 O212 2.028 . S
Zn213 O217 2.035 . S
Zn213 O219 2.035 . S
Zn213 O220 2.028 . S
O214 C210 1.258 . S
O214 Zn215 2.035 . S
Zn215 O214 2.035 . S
Zn215 O216 2.028 . S
Zn215 O218 2.028 . S
Zn215 O221 2.035 . S
O216 Zn215 2.028 . S
O216 C222 1.247 . S
O217 Zn213 2.035 . S
O217 C222 1.258 . S
O218 C211 1.247 . S
O218 Zn215 2.028 . S
O219 C211 1.258 . S
O219 Zn213 2.035 . S
O220 Zn213 2.028 . S
O220 C223 1.247 . S
O221 Zn215 2.035 . S
O221 C223 1.258 . S
C222 O216 1.247 . S
C222 O217 1.258 . S
C223 O220 1.247 . S
C223 O221 1.258 . S
C224 O226 1.247 . S
C224 O228 1.258 . S
C225 O232 1.247 . S
C225 O233 1.258 . S
O226 C224 1.247 . S
O226 Zn227 2.028 . S
Zn227 O226 2.028 . S
Zn227 O231 2.035 . S
Zn227 O233 2.035 . S
Zn227 O234 2.028 . S
O228 C224 1.258 . S
O228 Zn229 2.035 . S
Zn229 O228 2.035 . S
Zn229 O230 2.028 . S
Zn229 O232 2.028 . S
Zn229 O235 2.035 . S
O230 Zn229 2.028 . S
O230 C236 1.247 . S
O231 Zn227 2.035 . S
O231 C236 1.258 . S
O232 C225 1.247 . S
O232 Zn229 2.028 . S
O233 C225 1.258 . S
O233 Zn227 2.035 . S
O234 Zn227 2.028 . S
O234 C237 1.247 . S
O235 Zn229 2.035 . S
O235 C237 1.258 . S
C236 O230 1.247 . S
C236 O231 1.258 . S
C237 O234 1.247 . S
C237 O235 1.258 . S
C238 O240 1.247 . S
C238 O242 1.258 . S
C239 O246 1.247 . S
C239 O247 1.258 . S
O240 C238 1.247 . S
O240 Zn241 2.028 . S
Zn241 O240 2.028 . S
Zn241 O245 2.035 . S
Zn241 O247 2.035 . S
Zn241 O248 2.028 . S
O242 C238 1.258 . S
O242 Zn243 2.035 . S
Zn243 O242 2.035 . S
Zn243 O244 2.028 . S
Zn243 O246 2.028 . S
Zn243 O249 2.035 . S
O244 Zn243 2.028 . S
O244 C250 1.247 . S
O245 Zn241 2.035 . S
O245 C250 1.258 . S
O246 C239 1.247 . S
O246 Zn243 2.028 . S
O247 C239 1.258 . S
O247 Zn241 2.035 . S
O248 Zn241 2.028 . S
O248 C251 1.247 . S
O249 Zn243 2.035 . S
O249 C251 1.258 . S
C250 O244 1.247 . S
C250 O245 1.258 . S
C251 O248 1.247 . S
C251 O249 1.258 . S
C252 O254 1.247 . S
C252 O256 1.258 . S
C253 O260 1.247 . S
C253 O261 1.258 . S
O254 C252 1.247 . S
O254 Zn255 2.028 . S
Zn255 O254 2.028 . S
Zn255 O259 2.035 . S
Zn255 O261 2.035 . S
Zn255 O262 2.028 . S
O256 C252 1.258 . S
O256 Zn257 2.035 . S
Zn257 O256 2.035 . S
Zn257 O258 2.028 . S
Zn257 O260 2.028 . S
Zn257 O263 2.035 . S
O258 Zn257 2.028 . S
O258 C264 1.247 . S
O259 Zn255 2.035 . S
O259 C264 1.258 . S
O260 C253 1.247 . S
O260 Zn257 2.028 . S
O261 C253 1.258 . S
O261 Zn255 2.035 . S
O262 Zn255 2.028 . S
O262 C265 1.247 . S
O263 Zn257 2.035 . S
O263 C265 1.258 . S
C264 O258 1.247 . S
C264 O259 1.258 . S
C265 O262 1.247 . S
C265 O263 1.258 . S
C266 O268 1.247 . S
C266 O270 1.258 . S
C267 O274 1.247 . S
C267 O275 1.258 . S
O268 C266 1.247 . S
O268 Zn269 2.028 . S
Zn269 O268 2.028 . S
Zn269 O273 2.035 . S
Zn269 O275 2.035 . S
Zn269 O276 2.028 . S
O270 C266 1.258 . S
O270 Zn271 2.035 . S
Zn271 O270 2.035 . S
Zn271 O272 2.028 . S
Zn271 O274 2.028 . S
Zn271 O277 2.035 . S
O272 Zn271 2.028 . S
O272 C278 1.247 . S
O273 Zn269 2.035 . S
O273 C278 1.258 . S
O274 C267 1.247 . S
O274 Zn271 2.028 . S
O275 C267 1.258 . S
O275 Zn269 2.035 . S
O276 Zn269 2.028 . S
O276 C279 1.247 . S
O277 Zn271 2.035 . S
O277 C279 1.258 . S
C278 O272 1.247 . S
C278 O273 1.258 . S
C279 O276 1.247 . S
C279 O277 1.258 . S
C280 O282 1.247 . S
C280 O284 1.258 . S
C281 O288 1.247 . S
C281 O289 1.258 . S
O282 C280 1.247 . S
O282 Zn283 2.028 . S
Zn283 O282 2.028 . S
Zn283 O287 2.035 . S
Zn283 O289 2.035 . S
Zn283 O290 2.028 . S
O284 C280 1.258 . S
O284 Zn285 2.035 . S
Zn285 O284 2.035 . S
Zn285 O286 2.028 . S
Zn285 O288 2.028 . S
Zn285 O291 2.035 . S
O286 Zn285 2.028 . S
O286 C292 1.247 . S
O287 Zn283 2.035 . S
O287 C292 1.258 . S
O288 C281 1.247 . S
O288 Zn285 2.028 . S
O289 C281 1.258 . S
O289 Zn283 2.035 . S
O290 Zn283 2.028 . S
O290 C293 1.247 . S
O291 Zn285 2.035 . S
O291 C293 1.258 . S
C292 O286 1.247 . S
C292 O287 1.258 . S
C293 O290 1.247 . S
C293 O291 1.258 . S
C294 O296 1.247 . S
C294 O298 1.258 . S
C295 O302 1.247 . S
C295 O303 1.258 . S
O296 C294 1.247 . S
O296 Zn297 2.028 . S
Zn297 O296 2.028 . S
Zn297 O301 2.035 . S
Zn297 O303 2.035 . S
Zn297 O304 2.028 . S
O298 C294 1.258 . S
O298 Zn299 2.035 . S
Zn299 O298 2.035 . S
Zn299 O300 2.028 . S
Zn299 O302 2.028 . S
Zn299 O305 2.035 . S
O300 Zn299 2.028 . S
O300 C306 1.247 . S
O301 Zn297 2.035 . S
O301 C306 1.258 . S
O302 C295 1.247 . S
O302 Zn299 2.028 . S
O303 C295 1.258 . S
O303 Zn297 2.035 . S
O304 Zn297 2.028 . S
O304 C307 1.247 . S
O305 Zn299 2.035 . S
O305 C307 1.258 . S
C306 O300 1.247 . S
C306 O301 1.258 . S
C307 O304 1.247 . S
C307 O305 1.258 . S
C308 O310 1.247 . S
C308 O312 1.258 . S
C309 O316 1.247 . S
C309 O317 1.258 . S
O310 C308 1.247 . S
O310 Zn311 2.028 . S
Zn311 O310 2.028 . S
Zn311 O315 2.035 . S
Zn311 O317 2.035 . S
Zn311 O318 2.028 . S
O312 C308 1.258 . S
O312 Zn313 2.035 . S
Zn313 O312 2.035 . S
Zn313 O314 2.028 . S
Zn313 O316 2.028 . S
Zn313 O319 2.035 . S
O314 Zn313 2.028 . S
O314 C320 1.247 . S
O315 Zn311 2.035 . S
O315 C320 1.258 . S
O316 C309 1.247 . S
O316 Zn313 2.028 . S
O317 C309 1.258 . S
O317 Zn311 2.035 . S
O318 Zn311 2.028 . S
O318 C321 1.247 . S
O319 Zn313 2.035 . S
O319 C321 1.258 . S
C320 O314 1.247 . S
C320 O315 1.258 . S
C321 O318 1.247 . S
C321 O319 1.258 . S
C322 O324 1.247 . S
C322 O326 1.258 . S
C323 O330 1.247 . S
C323 O331 1.258 . S
O324 C322 1.247 . S
O324 Zn325 2.028 . S
Zn325 O324 2.028 . S
Zn325 O329 2.035 . S
Zn325 O331 2.035 . S
Zn325 O332 2.028 . S
O326 C322 1.258 . S
O326 Zn327 2.035 . S
Zn327 O326 2.035 . S
Zn327 O328 2.028 . S
Zn327 O330 2.028 . S
Zn327 O333 2.035 . S
O328 Zn327 2.028 . S
O328 C334 1.247 . S
O329 Zn325 2.035 . S
O329 C334 1.258 . S
O330 C323 1.247 . S
O330 Zn327 2.028 . S
O331 C323 1.258 . S
O331 Zn325 2.035 . S
O332 Zn325 2.028 . S
O332 C335 1.247 . S
O333 Zn327 2.035 . S
O333 C335 1.258 . S
C334 O328 1.247 . S
C334 O329 1.258 . S
C335 O332 1.247 . S
C335 O333 1.258 . S
C336 C337 1.369 . S
C336 C338 1.419 . S
C336 H340 0.930 . S
C337 C336 1.369 . S
C337 C346 1.429 . S
C338 C336 1.419 . S
C338 C339 1.363 . S
C338 H341 0.929 . S
C339 C338 1.363 . S
C339 C345 1.428 . S
H340 C336 0.930 . S
H341 C338 0.929 . S
S342 N343 1.613 . S
S342 N344 1.610 . S
N343 S342 1.613 . S
N343 C346 1.350 . S
N344 S342 1.610 . S
N344 C345 1.351 . S
C345 C339 1.428 . S
C345 N344 1.351 . S
C345 C346 1.434 . S
C346 C337 1.429 . S
C346 N343 1.350 . S
C346 C345 1.434 . S
C347 C348 1.369 . S
C347 C349 1.419 . S
C347 H351 0.930 . S
C348 C347 1.369 . S
C348 C357 1.429 . S
C349 C347 1.419 . S
C349 C350 1.363 . S
C349 H352 0.929 . S
C350 C349 1.363 . S
C350 C356 1.428 . S
H351 C347 0.930 . S
H352 C349 0.929 . S
S353 N354 1.613 . S
S353 N355 1.610 . S
N354 S353 1.613 . S
N354 C357 1.350 . S
N355 S353 1.610 . S
N355 C356 1.351 . S
C356 C350 1.428 . S
C356 N355 1.351 . S
C356 C357 1.434 . S
C357 C348 1.429 . S
C357 N354 1.350 . S
C357 C356 1.434 . S
C358 C359 1.369 . S
C358 C360 1.419 . S
C358 H362 0.930 . S
C359 C358 1.369 . S
C359 C368 1.429 . S
C360 C358 1.419 . S
C360 C361 1.363 . S
C360 H363 0.929 . S
C361 C360 1.363 . S
C361 C367 1.428 . S
H362 C358 0.930 . S
H363 C360 0.929 . S
S364 N365 1.613 . S
S364 N366 1.610 . S
N365 S364 1.613 . S
N365 C368 1.350 . S
N366 S364 1.610 . S
N366 C367 1.351 . S
C367 C361 1.428 . S
C367 N366 1.351 . S
C367 C368 1.434 . S
C368 C359 1.429 . S
C368 N365 1.350 . S
C368 C367 1.434 . S
C369 C370 1.369 . S
C369 C371 1.419 . S
C369 H373 0.930 . S
C370 C369 1.369 . S
C370 C379 1.429 . S
C371 C369 1.419 . S
C371 C372 1.363 . S
C371 H374 0.929 . S
C372 C371 1.363 . S
C372 C378 1.428 . S
H373 C369 0.930 . S
H374 C371 0.929 . S
S375 N376 1.613 . S
S375 N377 1.610 . S
N376 S375 1.613 . S
N376 C379 1.350 . S
N377 S375 1.610 . S
N377 C378 1.351 . S
C378 C372 1.428 . S
C378 N377 1.351 . S
C378 C379 1.434 . S
C379 C370 1.429 . S
C379 N376 1.350 . S
C379 C378 1.434 . S
C380 C381 1.369 . S
C380 C382 1.419 . S
C380 H384 0.930 . S
C381 C380 1.369 . S
C381 C390 1.429 . S
C382 C380 1.419 . S
C382 C383 1.363 . S
C382 H385 0.929 . S
C383 C382 1.363 . S
C383 C389 1.428 . S
H384 C380 0.930 . S
H385 C382 0.929 . S
S386 N387 1.613 . S
S386 N388 1.610 . S
N387 S386 1.613 . S
N387 C390 1.350 . S
N388 S386 1.610 . S
N388 C389 1.351 . S
C389 C383 1.428 . S
C389 N388 1.351 . S
C389 C390 1.434 . S
C390 C381 1.429 . S
C390 N387 1.350 . S
C390 C389 1.434 . S
C391 C392 1.369 . S
C391 C393 1.419 . S
C391 H395 0.930 . S
C392 C391 1.369 . S
C392 C401 1.429 . S
C393 C391 1.419 . S
C393 C394 1.363 . S
C393 H396 0.929 . S
C394 C393 1.363 . S
C394 C400 1.428 . S
H395 C391 0.930 . S
H396 C393 0.929 . S
S397 N398 1.613 . S
S397 N399 1.610 . S
N398 S397 1.613 . S
N398 C401 1.350 . S
N399 S397 1.610 . S
N399 C400 1.351 . S
C400 C394 1.428 . S
C400 N399 1.351 . S
C400 C401 1.434 . S
C401 C392 1.429 . S
C401 N398 1.350 . S
C401 C400 1.434 . S
C402 C403 1.369 . S
C402 C404 1.419 . S
C402 H406 0.930 . S
C403 C402 1.369 . S
C403 C412 1.429 . S
C404 C402 1.419 . S
C404 C405 1.363 . S
C404 H407 0.929 . S
C405 C404 1.363 . S
C405 C411 1.428 . S
H406 C402 0.930 . S
H407 C404 0.929 . S
S408 N409 1.613 . S
S408 N410 1.610 . S
N409 S408 1.613 . S
N409 C412 1.350 . S
N410 S408 1.610 . S
N410 C411 1.351 . S
C411 C405 1.428 . S
C411 N410 1.351 . S
C411 C412 1.434 . S
C412 C403 1.429 . S
C412 N409 1.350 . S
C412 C411 1.434 . S
C413 C414 1.369 . S
C413 C415 1.419 . S
C413 H417 0.930 . S
C414 C413 1.369 . S
C414 C423 1.429 . S
C415 C413 1.419 . S
C415 C416 1.363 . S
C415 H418 0.929 . S
C416 C415 1.363 . S
C416 C422 1.428 . S
H417 C413 0.930 . S
H418 C415 0.929 . S
S419 N420 1.613 . S
S419 N421 1.610 . S
N420 S419 1.613 . S
N420 C423 1.350 . S
N421 S419 1.610 . S
N421 C422 1.351 . S
C422 C416 1.428 . S
C422 N421 1.351 . S
C422 C423 1.434 . S
C423 C414 1.429 . S
C423 N420 1.350 . S
C423 C422 1.434 . S
C424 C425 1.369 . S
C424 C426 1.419 . S
C424 H428 0.930 . S
C425 C424 1.369 . S
C425 C434 1.429 . S
C426 C424 1.419 . S
C426 C427 1.363 . S
C426 H429 0.929 . S
C427 C426 1.363 . S
C427 C433 1.428 . S
H428 C424 0.930 . S
H429 C426 0.929 . S
S430 N431 1.613 . S
S430 N432 1.610 . S
N431 S430 1.613 . S
N431 C434 1.350 . S
N432 S430 1.610 . S
N432 C433 1.351 . S
C433 C427 1.428 . S
C433 N432 1.351 . S
C433 C434 1.434 . S
C434 C425 1.429 . S
C434 N431 1.350 . S
C434 C433 1.434 . S
C435 C436 1.369 . S
C435 C437 1.419 . S
C435 H439 0.930 . S
C436 C435 1.369 . S
C436 C445 1.429 . S
C437 C435 1.419 . S
C437 C438 1.363 . S
C437 H440 0.929 . S
C438 C437 1.363 . S
C438 C444 1.428 . S
H439 C435 0.930 . S
H440 C437 0.929 . S
S441 N442 1.613 . S
S441 N443 1.610 . S
N442 S441 1.613 . S
N442 C445 1.350 . S
N443 S441 1.610 . S
N443 C444 1.351 . S
C444 C438 1.428 . S
C444 N443 1.351 . S
C444 C445 1.434 . S
C445 C436 1.429 . S
C445 N442 1.350 . S
C445 C444 1.434 . S
C446 C447 1.369 . S
C446 C448 1.419 . S
C446 H450 0.930 . S
C447 C446 1.369 . S
C447 C456 1.429 . S
C448 C446 1.419 . S
C448 C449 1.363 . S
C448 H451 0.929 . S
C449 C448 1.363 . S
C449 C455 1.428 . S
H450 C446 0.930 . S
H451 C448 0.929 . S
S452 N453 1.613 . S
S452 N454 1.610 . S
N453 S452 1.613 . S
N453 C456 1.350 . S
N454 S452 1.610 . S
N454 C455 1.351 . S
C455 C449 1.428 . S
C455 N454 1.351 . S
C455 C456 1.434 . S
C456 C447 1.429 . S
C456 N453 1.350 . S
C456 C455 1.434 . S
C457 C458 1.369 . S
C457 C459 1.419 . S
C457 H461 0.930 . S
C458 C457 1.369 . S
C458 C467 1.429 . S
C459 C457 1.419 . S
C459 C460 1.363 . S
C459 H462 0.929 . S
C460 C459 1.363 . S
C460 C466 1.428 . S
H461 C457 0.930 . S
H462 C459 0.929 . S
S463 N464 1.613 . S
S463 N465 1.610 . S
N464 S463 1.613 . S
N464 C467 1.350 . S
N465 S463 1.610 . S
N465 C466 1.351 . S
C466 C460 1.428 . S
C466 N465 1.351 . S
C466 C467 1.434 . S
C467 C458 1.429 . S
C467 N464 1.350 . S
C467 C466 1.434 . S
C468 C469 1.369 . S
C468 C470 1.419 . S
C468 H472 0.930 . S
C469 C468 1.369 . S
C469 C478 1.429 . S
C470 C468 1.419 . S
C470 C471 1.363 . S
C470 H473 0.929 . S
C471 C470 1.363 . S
C471 C477 1.428 . S
H472 C468 0.930 . S
H473 C470 0.929 . S
S474 N475 1.613 . S
S474 N476 1.610 . S
N475 S474 1.613 . S
N475 C478 1.350 . S
N476 S474 1.610 . S
N476 C477 1.351 . S
C477 C471 1.428 . S
C477 N476 1.351 . S
C477 C478 1.434 . S
C478 C469 1.429 . S
C478 N475 1.350 . S
C478 C477 1.434 . S
C479 C480 1.369 . S
C479 C481 1.419 . S
C479 H483 0.930 . S
C480 C479 1.369 . S
C480 C489 1.429 . S
C481 C479 1.419 . S
C481 C482 1.363 . S
C481 H484 0.929 . S
C482 C481 1.363 . S
C482 C488 1.428 . S
H483 C479 0.930 . S
H484 C481 0.929 . S
S485 N486 1.613 . S
S485 N487 1.610 . S
N486 S485 1.613 . S
N486 C489 1.350 . S
N487 S485 1.610 . S
N487 C488 1.351 . S
C488 C482 1.428 . S
C488 N487 1.351 . S
C488 C489 1.434 . S
C489 C480 1.429 . S
C489 N486 1.350 . S
C489 C488 1.434 . S
C490 C491 1.369 . S
C490 C492 1.419 . S
C490 H494 0.930 . S
C491 C490 1.369 . S
C491 C500 1.429 . S
C492 C490 1.419 . S
C492 C493 1.363 . S
C492 H495 0.929 . S
C493 C492 1.363 . S
C493 C499 1.428 . S
H494 C490 0.930 . S
H495 C492 0.929 . S
S496 N497 1.613 . S
S496 N498 1.610 . S
N497 S496 1.613 . S
N497 C500 1.350 . S
N498 S496 1.610 . S
N498 C499 1.351 . S
C499 C493 1.428 . S
C499 N498 1.351 . S
C499 C500 1.434 . S
C500 C491 1.429 . S
C500 N497 1.350 . S
C500 C499 1.434 . S
C501 C502 1.369 . S
C501 C503 1.419 . S
C501 H505 0.930 . S
C502 C501 1.369 . S
C502 C511 1.429 . S
C503 C501 1.419 . S
C503 C504 1.363 . S
C503 H506 0.929 . S
C504 C503 1.363 . S
C504 C510 1.428 . S
H505 C501 0.930 . S
H506 C503 0.929 . S
S507 N508 1.613 . S
S507 N509 1.610 . S
N508 S507 1.613 . S
N508 C511 1.350 . S
N509 S507 1.610 . S
N509 C510 1.351 . S
C510 C504 1.428 . S
C510 N509 1.351 . S
C510 C511 1.434 . S
C511 C502 1.429 . S
C511 N508 1.350 . S
C511 C510 1.434 . S
C512 C513 1.369 . S
C512 C514 1.419 . S
C512 H516 0.930 . S
C513 C512 1.369 . S
C513 C522 1.429 . S
C514 C512 1.419 . S
C514 C515 1.363 . S
C514 H517 0.929 . S
C515 C514 1.363 . S
C515 C521 1.428 . S
H516 C512 0.930 . S
H517 C514 0.929 . S
S518 N519 1.613 . S
S518 N520 1.610 . S
N519 S518 1.613 . S
N519 C522 1.350 . S
N520 S518 1.610 . S
N520 C521 1.351 . S
C521 C515 1.428 . S
C521 N520 1.351 . S
C521 C522 1.434 . S
C522 C513 1.429 . S
C522 N519 1.350 . S
C522 C521 1.434 . S
C523 C524 1.369 . S
C523 C525 1.419 . S
C523 H527 0.930 . S
C524 C523 1.369 . S
C524 C533 1.429 . S
C525 C523 1.419 . S
C525 C526 1.363 . S
C525 H528 0.929 . S
C526 C525 1.363 . S
C526 C532 1.428 . S
H527 C523 0.930 . S
H528 C525 0.929 . S
S529 N530 1.613 . S
S529 N531 1.610 . S
N530 S529 1.613 . S
N530 C533 1.350 . S
N531 S529 1.610 . S
N531 C532 1.351 . S
C532 C526 1.428 . S
C532 N531 1.351 . S
C532 C533 1.434 . S
C533 C524 1.429 . S
C533 N530 1.350 . S
C533 C532 1.434 . S
C534 C535 1.369 . S
C534 C536 1.419 . S
C534 H538 0.930 . S
C535 C534 1.369 . S
C535 C544 1.429 . S
C536 C534 1.419 . S
C536 C537 1.363 . S
C536 H539 0.929 . S
C537 C536 1.363 . S
C537 C543 1.428 . S
H538 C534 0.930 . S
H539 C536 0.929 . S
S540 N541 1.613 . S
S540 N542 1.610 . S
N541 S540 1.613 . S
N541 C544 1.350 . S
N542 S540 1.610 . S
N542 C543 1.351 . S
C543 C537 1.428 . S
C543 N542 1.351 . S
C543 C544 1.434 . S
C544 C535 1.429 . S
C544 N541 1.350 . S
C544 C543 1.434 . S
C545 C546 1.369 . S
C545 C547 1.419 . S
C545 H549 0.930 . S
C546 C545 1.369 . S
C546 C555 1.429 . S
C547 C545 1.419 . S
C547 C548 1.363 . S
C547 H550 0.929 . S
C548 C547 1.363 . S
C548 C554 1.428 . S
H549 C545 0.930 . S
H550 C547 0.929 . S
S551 N552 1.613 . S
S551 N553 1.610 . S
N552 S551 1.613 . S
N552 C555 1.350 . S
N553 S551 1.610 . S
N553 C554 1.351 . S
C554 C548 1.428 . S
C554 N553 1.351 . S
C554 C555 1.434 . S
C555 C546 1.429 . S
C555 N552 1.350 . S
C555 C554 1.434 . S
C556 C557 1.369 . S
C556 C558 1.419 . S
C556 H560 0.930 . S
C557 C556 1.369 . S
C557 C566 1.429 . S
C558 C556 1.419 . S
C558 C559 1.363 . S
C558 H561 0.929 . S
C559 C558 1.363 . S
C559 C565 1.428 . S
H560 C556 0.930 . S
H561 C558 0.929 . S
S562 N563 1.613 . S
S562 N564 1.610 . S
N563 S562 1.613 . S
N563 C566 1.350 . S
N564 S562 1.610 . S
N564 C565 1.351 . S
C565 C559 1.428 . S
C565 N564 1.351 . S
C565 C566 1.434 . S
C566 C557 1.429 . S
C566 N563 1.350 . S
C566 C565 1.434 . S
C567 C568 1.369 . S
C567 C569 1.419 . S
C567 H571 0.930 . S
C568 C567 1.369 . S
C568 C577 1.429 . S
C569 C567 1.419 . S
C569 C570 1.363 . S
C569 H572 0.929 . S
C570 C569 1.363 . S
C570 C576 1.428 . S
H571 C567 0.930 . S
H572 C569 0.929 . S
S573 N574 1.613 . S
S573 N575 1.610 . S
N574 S573 1.613 . S
N574 C577 1.350 . S
N575 S573 1.610 . S
N575 C576 1.351 . S
C576 C570 1.428 . S
C576 N575 1.351 . S
C576 C577 1.434 . S
C577 C568 1.429 . S
C577 N574 1.350 . S
C577 C576 1.434 . S
C578 C579 1.369 . S
C578 C580 1.419 . S
C578 H582 0.930 . S
C579 C578 1.369 . S
C579 C588 1.429 . S
C580 C578 1.419 . S
C580 C581 1.363 . S
C580 H583 0.929 . S
C581 C580 1.363 . S
C581 C587 1.428 . S
H582 C578 0.930 . S
H583 C580 0.929 . S
S584 N585 1.613 . S
S584 N586 1.610 . S
N585 S584 1.613 . S
N585 C588 1.350 . S
N586 S584 1.610 . S
N586 C587 1.351 . S
C587 C581 1.428 . S
C587 N586 1.351 . S
C587 C588 1.434 . S
C588 C579 1.429 . S
C588 N585 1.350 . S
C588 C587 1.434 . S
C589 C590 1.369 . S
C589 C591 1.419 . S
C589 H593 0.930 . S
C590 C589 1.369 . S
C590 C599 1.429 . S
C591 C589 1.419 . S
C591 C592 1.363 . S
C591 H594 0.929 . S
C592 C591 1.363 . S
C592 C598 1.428 . S
H593 C589 0.930 . S
H594 C591 0.929 . S
S595 N596 1.613 . S
S595 N597 1.610 . S
N596 S595 1.613 . S
N596 C599 1.350 . S
N597 S595 1.610 . S
N597 C598 1.351 . S
C598 C592 1.428 . S
C598 N597 1.351 . S
C598 C599 1.434 . S
C599 C590 1.429 . S
C599 N596 1.350 . S
C599 C598 1.434 . S
C600 C601 1.369 . S
C600 C602 1.419 . S
C600 H604 0.930 . S
C601 C600 1.369 . S
C601 C610 1.429 . S
C602 C600 1.419 . S
C602 C603 1.363 . S
C602 H605 0.929 . S
C603 C602 1.363 . S
C603 C609 1.428 . S
H604 C600 0.930 . S
H605 C602 0.929 . S
S606 N607 1.613 . S
S606 N608 1.610 . S
N607 S606 1.613 . S
N607 C610 1.350 . S
N608 S606 1.610 . S
N608 C609 1.351 . S
C609 C603 1.428 . S
C609 N608 1.351 . S
C609 C610 1.434 . S
C610 C601 1.429 . S
C610 N607 1.350 . S
C610 C609 1.434 . S
C611 C612 1.369 . S
C611 C613 1.419 . S
C611 H615 0.930 . S
C612 C611 1.369 . S
C612 C621 1.429 . S
C613 C611 1.419 . S
C613 C614 1.363 . S
C613 H616 0.929 . S
C614 C613 1.363 . S
C614 C620 1.428 . S
H615 C611 0.930 . S
H616 C613 0.929 . S
S617 N618 1.613 . S
S617 N619 1.610 . S
N618 S617 1.613 . S
N618 C621 1.350 . S
N619 S617 1.610 . S
N619 C620 1.351 . S
C620 C614 1.428 . S
C620 N619 1.351 . S
C620 C621 1.434 . S
C621 C612 1.429 . S
C621 N618 1.350 . S
C621 C620 1.434 . S
C622 C623 1.369 . S
C622 C624 1.419 . S
C622 H626 0.930 . S
C623 C622 1.369 . S
C623 C632 1.429 . S
C624 C622 1.419 . S
C624 C625 1.363 . S
C624 H627 0.929 . S
C625 C624 1.363 . S
C625 C631 1.428 . S
H626 C622 0.930 . S
H627 C624 0.929 . S
S628 N629 1.613 . S
S628 N630 1.610 . S
N629 S628 1.613 . S
N629 C632 1.350 . S
N630 S628 1.610 . S
N630 C631 1.351 . S
C631 C625 1.428 . S
C631 N630 1.351 . S
C631 C632 1.434 . S
C632 C623 1.429 . S
C632 N629 1.350 . S
C632 C631 1.434 . S
C633 C634 1.369 . S
C633 C635 1.419 . S
C633 H637 0.930 . S
C634 C633 1.369 . S
C634 C643 1.429 . S
C635 C633 1.419 . S
C635 C636 1.363 . S
C635 H638 0.929 . S
C636 C635 1.363 . S
C636 C642 1.428 . S
H637 C633 0.930 . S
H638 C635 0.929 . S
S639 N640 1.613 . S
S639 N641 1.610 . S
N640 S639 1.613 . S
N640 C643 1.350 . S
N641 S639 1.610 . S
N641 C642 1.351 . S
C642 C636 1.428 . S
C642 N641 1.351 . S
C642 C643 1.434 . S
C643 C634 1.429 . S
C643 N640 1.350 . S
C643 C642 1.434 . S
C644 C645 1.369 . S
C644 C646 1.419 . S
C644 H648 0.930 . S
C645 C644 1.369 . S
C645 C654 1.429 . S
C646 C644 1.419 . S
C646 C647 1.363 . S
C646 H649 0.929 . S
C647 C646 1.363 . S
C647 C653 1.428 . S
H648 C644 0.930 . S
H649 C646 0.929 . S
S650 N651 1.613 . S
S650 N652 1.610 . S
N651 S650 1.613 . S
N651 C654 1.350 . S
N652 S650 1.610 . S
N652 C653 1.351 . S
C653 C647 1.428 . S
C653 N652 1.351 . S
C653 C654 1.434 . S
C654 C645 1.429 . S
C654 N651 1.350 . S
C654 C653 1.434 . S
C655 C656 1.369 . S
C655 C657 1.419 . S
C655 H659 0.930 . S
C656 C655 1.369 . S
C656 C665 1.429 . S
C657 C655 1.419 . S
C657 C658 1.363 . S
C657 H660 0.929 . S
C658 C657 1.363 . S
C658 C664 1.428 . S
H659 C655 0.930 . S
H660 C657 0.929 . S
S661 N662 1.613 . S
S661 N663 1.610 . S
N662 S661 1.613 . S
N662 C665 1.350 . S
N663 S661 1.610 . S
N663 C664 1.351 . S
C664 C658 1.428 . S
C664 N663 1.351 . S
C664 C665 1.434 . S
C665 C656 1.429 . S
C665 N662 1.350 . S
C665 C664 1.434 . S
C666 C667 1.369 . S
C666 C668 1.419 . S
C666 H670 0.930 . S
C667 C666 1.369 . S
C667 C676 1.429 . S
C668 C666 1.419 . S
C668 C669 1.363 . S
C668 H671 0.929 . S
C669 C668 1.363 . S
C669 C675 1.428 . S
H670 C666 0.930 . S
H671 C668 0.929 . S
S672 N673 1.613 . S
S672 N674 1.610 . S
N673 S672 1.613 . S
N673 C676 1.350 . S
N674 S672 1.610 . S
N674 C675 1.351 . S
C675 C669 1.428 . S
C675 N674 1.351 . S
C675 C676 1.434 . S
C676 C667 1.429 . S
C676 N673 1.350 . S
C676 C675 1.434 . S
C677 C678 1.369 . S
C677 C679 1.419 . S
C677 H681 0.930 . S
C678 C677 1.369 . S
C678 C687 1.429 . S
C679 C677 1.419 . S
C679 C680 1.363 . S
C679 H682 0.929 . S
C680 C679 1.363 . S
C680 C686 1.428 . S
H681 C677 0.930 . S
H682 C679 0.929 . S
S683 N684 1.613 . S
S683 N685 1.610 . S
N684 S683 1.613 . S
N684 C687 1.350 . S
N685 S683 1.610 . S
N685 C686 1.351 . S
C686 C680 1.428 . S
C686 N685 1.351 . S
C686 C687 1.434 . S
C687 C678 1.429 . S
C687 N684 1.350 . S
C687 C686 1.434 . S
C688 C689 1.369 . S
C688 C690 1.419 . S
C688 H692 0.930 . S
C689 C688 1.369 . S
C689 C698 1.429 . S
C690 C688 1.419 . S
C690 C691 1.363 . S
C690 H693 0.929 . S
C691 C690 1.363 . S
C691 C697 1.428 . S
H692 C688 0.930 . S
H693 C690 0.929 . S
S694 N695 1.613 . S
S694 N696 1.610 . S
N695 S694 1.613 . S
N695 C698 1.350 . S
N696 S694 1.610 . S
N696 C697 1.351 . S
C697 C691 1.428 . S
C697 N696 1.351 . S
C697 C698 1.434 . S
C698 C689 1.429 . S
C698 N695 1.350 . S
C698 C697 1.434 . S
C699 C700 1.369 . S
C699 C701 1.419 . S
C699 H703 0.930 . S
C700 C699 1.369 . S
C700 C709 1.429 . S
C701 C699 1.419 . S
C701 C702 1.363 . S
C701 H704 0.929 . S
C702 C701 1.363 . S
C702 C708 1.428 . S
H703 C699 0.930 . S
H704 C701 0.929 . S
S705 N706 1.613 . S
S705 N707 1.610 . S
N706 S705 1.613 . S
N706 C709 1.350 . S
N707 S705 1.610 . S
N707 C708 1.351 . S
C708 C702 1.428 . S
C708 N707 1.351 . S
C708 C709 1.434 . S
C709 C700 1.429 . S
C709 N706 1.350 . S
C709 C708 1.434 . S
C710 C711 1.369 . S
C710 C712 1.419 . S
C710 H714 0.930 . S
C711 C710 1.369 . S
C711 C720 1.429 . S
C712 C710 1.419 . S
C712 C713 1.363 . S
C712 H715 0.929 . S
C713 C712 1.363 . S
C713 C719 1.428 . S
H714 C710 0.930 . S
H715 C712 0.929 . S
S716 N717 1.613 . S
S716 N718 1.610 . S
N717 S716 1.613 . S
N717 C720 1.350 . S
N718 S716 1.610 . S
N718 C719 1.351 . S
C719 C713 1.428 . S
C719 N718 1.351 . S
C719 C720 1.434 . S
C720 C711 1.429 . S
C720 N717 1.350 . S
C720 C719 1.434 . S
C721 C722 1.369 . S
C721 C723 1.419 . S
C721 H725 0.930 . S
C722 C721 1.369 . S
C722 C731 1.429 . S
C723 C721 1.419 . S
C723 C724 1.363 . S
C723 H726 0.929 . S
C724 C723 1.363 . S
C724 C730 1.428 . S
H725 C721 0.930 . S
H726 C723 0.929 . S
S727 N728 1.613 . S
S727 N729 1.610 . S
N728 S727 1.613 . S
N728 C731 1.350 . S
N729 S727 1.610 . S
N729 C730 1.351 . S
C730 C724 1.428 . S
C730 N729 1.351 . S
C730 C731 1.434 . S
C731 C722 1.429 . S
C731 N728 1.350 . S
C731 C730 1.434 . S
C732 C733 1.369 . S
C732 C734 1.419 . S
C732 H736 0.930 . S
C733 C732 1.369 . S
C733 C742 1.429 . S
C734 C732 1.419 . S
C734 C735 1.363 . S
C734 H737 0.929 . S
C735 C734 1.363 . S
C735 C741 1.428 . S
H736 C732 0.930 . S
H737 C734 0.929 . S
S738 N739 1.613 . S
S738 N740 1.610 . S
N739 S738 1.613 . S
N739 C742 1.350 . S
N740 S738 1.610 . S
N740 C741 1.351 . S
C741 C735 1.428 . S
C741 N740 1.351 . S
C741 C742 1.434 . S
C742 C733 1.429 . S
C742 N739 1.350 . S
C742 C741 1.434 . S
C743 C744 1.369 . S
C743 C745 1.419 . S
C743 H747 0.930 . S
C744 C743 1.369 . S
C744 C753 1.429 . S
C745 C743 1.419 . S
C745 C746 1.363 . S
C745 H748 0.929 . S
C746 C745 1.363 . S
C746 C752 1.428 . S
H747 C743 0.930 . S
H748 C745 0.929 . S
S749 N750 1.613 . S
S749 N751 1.610 . S
N750 S749 1.613 . S
N750 C753 1.350 . S
N751 S749 1.610 . S
N751 C752 1.351 . S
C752 C746 1.428 . S
C752 N751 1.351 . S
C752 C753 1.434 . S
C753 C744 1.429 . S
C753 N750 1.350 . S
C753 C752 1.434 . S
C754 C755 1.369 . S
C754 C756 1.419 . S
C754 H758 0.930 . S
C755 C754 1.369 . S
C755 C764 1.429 . S
C756 C754 1.419 . S
C756 C757 1.363 . S
C756 H759 0.929 . S
C757 C756 1.363 . S
C757 C763 1.428 . S
H758 C754 0.930 . S
H759 C756 0.929 . S
S760 N761 1.613 . S
S760 N762 1.610 . S
N761 S760 1.613 . S
N761 C764 1.350 . S
N762 S760 1.610 . S
N762 C763 1.351 . S
C763 C757 1.428 . S
C763 N762 1.351 . S
C763 C764 1.434 . S
C764 C755 1.429 . S
C764 N761 1.350 . S
C764 C763 1.434 . S
C765 C766 1.369 . S
C765 C767 1.419 . S
C765 H769 0.930 . S
C766 C765 1.369 . S
C766 C775 1.429 . S
C767 C765 1.419 . S
C767 C768 1.363 . S
C767 H770 0.929 . S
C768 C767 1.363 . S
C768 C774 1.428 . S
H769 C765 0.930 . S
H770 C767 0.929 . S
S771 N772 1.613 . S
S771 N773 1.610 . S
N772 S771 1.613 . S
N772 C775 1.350 . S
N773 S771 1.610 . S
N773 C774 1.351 . S
C774 C768 1.428 . S
C774 N773 1.351 . S
C774 C775 1.434 . S
C775 C766 1.429 . S
C775 N772 1.350 . S
C775 C774 1.434 . S
C776 C777 1.369 . S
C776 C778 1.419 . S
C776 H780 0.930 . S
C777 C776 1.369 . S
C777 C786 1.429 . S
C778 C776 1.419 . S
C778 C779 1.363 . S
C778 H781 0.929 . S
C779 C778 1.363 . S
C779 C785 1.428 . S
H780 C776 0.930 . S
H781 C778 0.929 . S
S782 N783 1.613 . S
S782 N784 1.610 . S
N783 S782 1.613 . S
N783 C786 1.350 . S
N784 S782 1.610 . S
N784 C785 1.351 . S
C785 C779 1.428 . S
C785 N784 1.351 . S
C785 C786 1.434 . S
C786 C777 1.429 . S
C786 N783 1.350 . S
C786 C785 1.434 . S
C787 C788 1.369 . S
C787 C789 1.419 . S
C787 H791 0.930 . S
C788 C787 1.369 . S
C788 C797 1.429 . S
C789 C787 1.419 . S
C789 C790 1.363 . S
C789 H792 0.929 . S
C790 C789 1.363 . S
C790 C796 1.428 . S
H791 C787 0.930 . S
H792 C789 0.929 . S
S793 N794 1.613 . S
S793 N795 1.610 . S
N794 S793 1.613 . S
N794 C797 1.350 . S
N795 S793 1.610 . S
N795 C796 1.351 . S
C796 C790 1.428 . S
C796 N795 1.351 . S
C796 C797 1.434 . S
C797 C788 1.429 . S
C797 N794 1.350 . S
C797 C796 1.434 . S
C798 C799 1.369 . S
C798 C800 1.419 . S
C798 H802 0.930 . S
C799 C798 1.369 . S
C799 C808 1.429 . S
C800 C798 1.419 . S
C800 C801 1.363 . S
C800 H803 0.929 . S
C801 C800 1.363 . S
C801 C807 1.428 . S
H802 C798 0.930 . S
H803 C800 0.929 . S
S804 N805 1.613 . S
S804 N806 1.610 . S
N805 S804 1.613 . S
N805 C808 1.350 . S
N806 S804 1.610 . S
N806 C807 1.351 . S
C807 C801 1.428 . S
C807 N806 1.351 . S
C807 C808 1.434 . S
C808 C799 1.429 . S
C808 N805 1.350 . S
C808 C807 1.434 . S
C809 C810 1.369 . S
C809 C811 1.419 . S
C809 H813 0.930 . S
C810 C809 1.369 . S
C810 C819 1.429 . S
C811 C809 1.419 . S
C811 C812 1.363 . S
C811 H814 0.929 . S
C812 C811 1.363 . S
C812 C818 1.428 . S
H813 C809 0.930 . S
H814 C811 0.929 . S
S815 N816 1.613 . S
S815 N817 1.610 . S
N816 S815 1.613 . S
N816 C819 1.350 . S
N817 S815 1.610 . S
N817 C818 1.351 . S
C818 C812 1.428 . S
C818 N817 1.351 . S
C818 C819 1.434 . S
C819 C810 1.429 . S
C819 N816 1.350 . S
C819 C818 1.434 . S
C820 C821 1.369 . S
C820 C822 1.419 . S
C820 H824 0.930 . S
C821 C820 1.369 . S
C821 C830 1.429 . S
C822 C820 1.419 . S
C822 C823 1.363 . S
C822 H825 0.929 . S
C823 C822 1.363 . S
C823 C829 1.428 . S
H824 C820 0.930 . S
H825 C822 0.929 . S
S826 N827 1.613 . S
S826 N828 1.610 . S
N827 S826 1.613 . S
N827 C830 1.350 . S
N828 S826 1.610 . S
N828 C829 1.351 . S
C829 C823 1.428 . S
C829 N828 1.351 . S
C829 C830 1.434 . S
C830 C821 1.429 . S
C830 N827 1.350 . S
C830 C829 1.434 . S
C831 C832 1.369 . S
C831 C833 1.419 . S
C831 H835 0.930 . S
C832 C831 1.369 . S
C832 C841 1.429 . S
C833 C831 1.419 . S
C833 C834 1.363 . S
C833 H836 0.929 . S
C834 C833 1.363 . S
C834 C840 1.428 . S
H835 C831 0.930 . S
H836 C833 0.929 . S
S837 N838 1.613 . S
S837 N839 1.610 . S
N838 S837 1.613 . S
N838 C841 1.350 . S
N839 S837 1.610 . S
N839 C840 1.351 . S
C840 C834 1.428 . S
C840 N839 1.351 . S
C840 C841 1.434 . S
C841 C832 1.429 . S
C841 N838 1.350 . S
C841 C840 1.434 . S
C842 C843 1.369 . S
C842 C844 1.419 . S
C842 H846 0.930 . S
C843 C842 1.369 . S
C843 C852 1.429 . S
C844 C842 1.419 . S
C844 C845 1.363 . S
C844 H847 0.929 . S
C845 C844 1.363 . S
C845 C851 1.428 . S
H846 C842 0.930 . S
H847 C844 0.929 . S
S848 N849 1.613 . S
S848 N850 1.610 . S
N849 S848 1.613 . S
N849 C852 1.350 . S
N850 S848 1.610 . S
N850 C851 1.351 . S
C851 C845 1.428 . S
C851 N850 1.351 . S
C851 C852 1.434 . S
C852 C843 1.429 . S
C852 N849 1.350 . S
C852 C851 1.434 . S
C853 C854 1.369 . S
C853 C855 1.419 . S
C853 H857 0.930 . S
C854 C853 1.369 . S
C854 C863 1.429 . S
C855 C853 1.419 . S
C855 C856 1.363 . S
C855 H858 0.929 . S
C856 C855 1.363 . S
C856 C862 1.428 . S
H857 C853 0.930 . S
H858 C855 0.929 . S
S859 N860 1.613 . S
S859 N861 1.610 . S
N860 S859 1.613 . S
N860 C863 1.350 . S
N861 S859 1.610 . S
N861 C862 1.351 . S
C862 C856 1.428 . S
C862 N861 1.351 . S
C862 C863 1.434 . S
C863 C854 1.429 . S
C863 N860 1.350 . S
C863 C862 1.434 . S
C337 C309 1.597 . S
C339 C0 1.596 . S
C348 C15 1.594 . S
C350 C335 1.601 . S
C359 C281 1.597 . S
C361 C40 1.600 . S
C370 C295 1.597 . S
C372 C54 1.595 . S
C381 C294 1.596 . S
C383 C69 1.601 . S
C392 C82 1.601 . S
C394 C308 1.594 . S
C403 C334 1.600 . S
C405 C96 1.595 . S
C414 C110 1.601 . S
C416 C280 1.599 . S
C425 C124 1.596 . S
C427 C279 1.596 . S
C436 C224 1.598 . S
C438 C126 1.596 . S
C447 C140 1.601 . S
C449 C250 1.594 . S
C458 C252 1.600 . S
C460 C167 1.593 . S
C469 C166 1.597 . S
C471 C182 1.602 . S
C480 C125 1.599 . S
C482 C197 1.597 . S
C491 C211 1.599 . S
C493 C127 1.597 . S
C502 C141 1.598 . S
C504 C180 1.599 . S
C513 C14 1.597 . S
C515 C253 1.595 . S
C524 C196 1.601 . S
C526 C111 1.592 . S
C535 C68 1.601 . S
C537 C210 1.594 . S
C546 C181 1.594 . S
C548 C83 1.601 . S
C557 C97 1.598 . S
C559 C183 1.598 . S
C568 C55 1.596 . S
C570 C225 1.599 . S
C579 C1 1.597 . S
C581 C251 1.599 . S
C590 C41 1.598 . S
C592 C278 1.595 . S
C601 C85 1.600 . S
C603 C292 1.598 . S
C612 C306 1.597 . S
C614 C99 1.596 . S
C623 C320 1.598 . S
C625 C56 1.593 . S
C634 C322 1.598 . S
C636 C71 1.600 . S
C645 C29 1.596 . S
C647 C323 1.598 . S
C656 C43 1.596 . S
C658 C293 1.602 . S
C667 C13 1.597 . S
C669 C307 1.601 . S
C678 C321 1.601 . S
C680 C26 1.592 . S
C689 C153 1.596 . S
C691 C195 1.603 . S
C700 C154 1.599 . S
C702 C208 1.597 . S
C711 C113 1.595 . S
C713 C222 1.601 . S
C722 C139 1.601 . S
C724 C169 1.599 . S
C733 C138 1.600 . S
C735 C266 1.592 . S
C744 C237 1.599 . S
C746 C152 1.594 . S
C755 C155 1.600 . S
C757 C239 1.595 . S
C766 C112 1.599 . S
C768 C265 1.594 . S
C777 C168 1.594 . S
C779 C98 1.601 . S
C788 C236 1.597 . S
C790 C27 1.600 . S
C799 C28 1.597 . S
C801 C238 1.598 . S
C810 C264 1.600 . S
C812 C42 1.592 . S
C821 C267 1.601 . S
C823 C12 1.592 . S
C832 C70 1.599 . S
C834 C209 1.594 . S
C843 C223 1.600 . S
C845 C84 1.592 . S
C854 C194 1.599 . S
C856 C57 1.599 . S
