# Generated by pormake.
# Topology zga, (5)-cn, num edge types: 1
# Building blocks:
#     Node 0, Type 0, BuildingBlock: XOMCOT_clean_sbu_0, # of connection points: 5
#     Node 1, Type 0, BuildingBlock: XOMCOT_clean_sbu_0, # of connection points: 5
#     Node 2, Type 0, BuildingBlock: XOMCOT_clean_sbu_0, # of connection points: 5
#     Node 3, Type 0, BuildingBlock: XOMCOT_clean_sbu_0, # of connection points: 5
#     Node 4, Type 0, BuildingBlock: XOMCOT_clean_sbu_0, # of connection points: 5
#     Node 5, Type 0, BuildingBlock: XOMCOT_clean_sbu_0, # of connection points: 5
#     Node 6, Type 0, BuildingBlock: XOMCOT_clean_sbu_0, # of connection points: 5
#     Node 7, Type 0, BuildingBlock: XOMCOT_clean_sbu_0, # of connection points: 5
#     Node 8, Type 0, BuildingBlock: XOMCOT_clean_sbu_0, # of connection points: 5
#     Node 9, Type 0, BuildingBlock: XOMCOT_clean_sbu_0, # of connection points: 5
#     Node 10, Type 0, BuildingBlock: XOMCOT_clean_sbu_0, # of connection points: 5
#     Node 11, Type 0, BuildingBlock: XOMCOT_clean_sbu_0, # of connection points: 5
#     Node 12, Type 0, BuildingBlock: XOMCOT_clean_sbu_0, # of connection points: 5
#     Node 13, Type 0, BuildingBlock: XOMCOT_clean_sbu_0, # of connection points: 5
#     Node 14, Type 0, BuildingBlock: XOMCOT_clean_sbu_0, # of connection points: 5
#     Node 15, Type 0, BuildingBlock: XOMCOT_clean_sbu_0, # of connection points: 5
#     Edge 16, Type (0, 0), BuildingBlock: EZIPEK_clean_linker_0, # of connection points: 2
#     Edge 17, Type (0, 0), BuildingBlock: EZIPEK_clean_linker_0, # of connection points: 2
#     Edge 18, Type (0, 0), BuildingBlock: EZIPEK_clean_linker_0, # of connection points: 2
#     Edge 19, Type (0, 0), BuildingBlock: EZIPEK_clean_linker_0, # of connection points: 2
#     Edge 20, Type (0, 0), BuildingBlock: EZIPEK_clean_linker_0, # of connection points: 2
#     Edge 21, Type (0, 0), BuildingBlock: EZIPEK_clean_linker_0, # of connection points: 2
#     Edge 22, Type (0, 0), BuildingBlock: EZIPEK_clean_linker_0, # of connection points: 2
#     Edge 23, Type (0, 0), BuildingBlock: EZIPEK_clean_linker_0, # of connection points: 2
#     Edge 24, Type (0, 0), BuildingBlock: EZIPEK_clean_linker_0, # of connection points: 2
#     Edge 25, Type (0, 0), BuildingBlock: EZIPEK_clean_linker_0, # of connection points: 2
#     Edge 26, Type (0, 0), BuildingBlock: EZIPEK_clean_linker_0, # of connection points: 2
#     Edge 27, Type (0, 0), BuildingBlock: EZIPEK_clean_linker_0, # of connection points: 2
#     Edge 28, Type (0, 0), BuildingBlock: EZIPEK_clean_linker_0, # of connection points: 2
#     Edge 29, Type (0, 0), BuildingBlock: EZIPEK_clean_linker_0, # of connection points: 2
#     Edge 30, Type (0, 0), BuildingBlock: EZIPEK_clean_linker_0, # of connection points: 2
#     Edge 31, Type (0, 0), BuildingBlock: EZIPEK_clean_linker_0, # of connection points: 2
#     Edge 32, Type (0, 0), BuildingBlock: EZIPEK_clean_linker_0, # of connection points: 2
#     Edge 33, Type (0, 0), BuildingBlock: EZIPEK_clean_linker_0, # of connection points: 2
#     Edge 34, Type (0, 0), BuildingBlock: EZIPEK_clean_linker_0, # of connection points: 2
#     Edge 35, Type (0, 0), BuildingBlock: EZIPEK_clean_linker_0, # of connection points: 2
#     Edge 36, Type (0, 0), BuildingBlock: EZIPEK_clean_linker_0, # of connection points: 2
#     Edge 37, Type (0, 0), BuildingBlock: EZIPEK_clean_linker_0, # of connection points: 2
#     Edge 38, Type (0, 0), BuildingBlock: EZIPEK_clean_linker_0, # of connection points: 2
#     Edge 39, Type (0, 0), BuildingBlock: EZIPEK_clean_linker_0, # of connection points: 2
#     Edge 40, Type (0, 0), BuildingBlock: EZIPEK_clean_linker_0, # of connection points: 2
#     Edge 41, Type (0, 0), BuildingBlock: EZIPEK_clean_linker_0, # of connection points: 2
#     Edge 42, Type (0, 0), BuildingBlock: EZIPEK_clean_linker_0, # of connection points: 2
#     Edge 43, Type (0, 0), BuildingBlock: EZIPEK_clean_linker_0, # of connection points: 2
#     Edge 44, Type (0, 0), BuildingBlock: EZIPEK_clean_linker_0, # of connection points: 2
#     Edge 45, Type (0, 0), BuildingBlock: EZIPEK_clean_linker_0, # of connection points: 2
#     Edge 46, Type (0, 0), BuildingBlock: EZIPEK_clean_linker_0, # of connection points: 2
#     Edge 47, Type (0, 0), BuildingBlock: EZIPEK_clean_linker_0, # of connection points: 2
#     Edge 48, Type (0, 0), BuildingBlock: EZIPEK_clean_linker_0, # of connection points: 2
#     Edge 49, Type (0, 0), BuildingBlock: EZIPEK_clean_linker_0, # of connection points: 2
#     Edge 50, Type (0, 0), BuildingBlock: EZIPEK_clean_linker_0, # of connection points: 2
#     Edge 51, Type (0, 0), BuildingBlock: EZIPEK_clean_linker_0, # of connection points: 2
#     Edge 52, Type (0, 0), BuildingBlock: EZIPEK_clean_linker_0, # of connection points: 2
#     Edge 53, Type (0, 0), BuildingBlock: EZIPEK_clean_linker_0, # of connection points: 2
#     Edge 54, Type (0, 0), BuildingBlock: EZIPEK_clean_linker_0, # of connection points: 2
#     Edge 55, Type (0, 0), BuildingBlock: EZIPEK_clean_linker_0, # of connection points: 2
# Relax obj value: 0.031
# Max RMSD: 0.077
# Mean RMSD: 0.077
data_MOF--net-zga--node1-XOMCOT_clean_sbu_0--edge1-EZIPEK_clean_linker_0
_symmetry_space_group_name_H-M    P1
_symmetry_Int_Tables_number       1
_symmetry_cell_setting            triclinic
loop_
_symmetry_equiv_pos_as_xyz
'x, y, z'
_cell_length_a     37.0477
_cell_length_b     80.317115
_cell_length_c     13.660978
_cell_angle_alpha  91.567636
_cell_angle_beta   89.93217
_cell_angle_gamma 90.037785
loop_
_atom_site_label
_atom_site_type_symbol
_atom_site_fract_x
_atom_site_fract_y
_atom_site_fract_z
_atom_type_partial_charge
Co0 Co 0.12876 0.54271 0.11245 0.0
C1 C 0.1281 0.54443 0.89531 0.0
C2 C 0.16682 0.52664 0.94476 0.0
C3 C 0.16657 0.52611 0.84376 0.0
N4 N 0.14286 0.53819 0.9772 0.0
N5 N 0.14217 0.53723 0.81319 0.0
H6 H 0.10692 0.5537 0.89553 0.0
H7 H 0.18258 0.5187 0.99089 0.0
C8 C 0.19886 0.53528 0.23002 0.0
O9 O 0.1935 0.54732 0.29526 0.0
N10 N 0.11358 0.54738 0.24751 0.0
C11 C 0.09331 0.56053 0.27764 0.0
C12 C 0.09045 0.5607 0.37808 0.0
C13 C 0.12135 0.53928 0.33065 0.0
N14 N 0.10845 0.54746 0.41118 0.0
C15 C 0.11869 0.57728 0.07161 0.0
C16 C 0.18585 0.58925 0.12451 0.0
C17 C 0.15862 0.60076 0.10229 0.0
C18 C 0.12505 0.59445 0.0732 0.0
C19 C 0.17824 0.572 0.12238 0.0
N20 N 0.14435 0.56617 0.10066 0.0
H21 H 0.09217 0.57311 0.05023 0.0
H22 H 0.19976 0.56354 0.13805 0.0
H23 H 0.08175 0.56965 0.23043 0.0
H24 H 0.13737 0.52808 0.33333 0.0
O25 O 0.07883 0.54493 0.06982 0.0
O26 O 0.10356 0.52134 0.11298 0.0
O27 O 0.17807 0.53363 0.15525 0.0
C28 C 0.07551 0.52896 0.07872 0.0
H29 H 0.18238 0.51794 0.79628 0.0
H30 H 0.07744 0.57015 0.42376 0.0
H31 H 0.21259 0.59359 0.14452 0.0
H32 H 0.10347 0.6028 0.05343 0.0
Co33 Co 0.12891 0.73166 0.14934 0.0
C34 C 0.13571 0.7281 0.36723 0.0
C35 C 0.16102 0.75019 0.31586 0.0
C36 C 0.16173 0.75074 0.41666 0.0
N37 N 0.14527 0.73587 0.28401 0.0
N38 N 0.14548 0.73694 0.44882 0.0
H39 H 0.11969 0.7169 0.36918 0.0
H40 H 0.1694 0.76012 0.26913 0.0
C41 C 0.20926 0.74021 0.12626 0.0
O42 O 0.21687 0.73259 0.20757 0.0
N43 N 0.11229 0.72781 0.01553 0.0
C44 C 0.08601 0.71716 0.98628 0.0
C45 C 0.08458 0.71666 0.88523 0.0
C46 C 0.12658 0.73362 0.93167 0.0
N47 N 0.11016 0.72695 0.85142 0.0
C48 C 0.12348 0.69718 0.19838 0.0
C49 C 0.17982 0.68501 0.08497 0.0
C50 C 0.15789 0.67359 0.13384 0.0
C51 C 0.12959 0.67998 0.19149 0.0
C52 C 0.17239 0.70222 0.09253 0.0
N53 N 0.1448 0.70823 0.15028 0.0
H54 H 0.10033 0.70147 0.23961 0.0
H55 H 0.18794 0.7105 0.04823 0.0
H56 H 0.0697 0.70987 0.03492 0.0
H57 H 0.14894 0.74225 0.92863 0.0
O58 O 0.07964 0.72894 0.19785 0.0
O59 O 0.1032 0.75292 0.1574 0.0
O60 O 0.17676 0.74019 0.09408 0.0
C61 C 0.07563 0.74495 0.19252 0.0
H62 H 0.17117 0.761 0.46295 0.0
H63 H 0.0668 0.70904 0.8399 0.0
H64 H 0.20167 0.68061 0.03836 0.0
H65 H 0.11165 0.67165 0.22929 0.0
Co66 Co 0.88981 0.4838 0.892 0.0
C67 C 0.88419 0.48028 0.10873 0.0
C68 C 0.85626 0.50185 0.05926 0.0
C69 C 0.85607 0.50224 0.16028 0.0
N70 N 0.87353 0.488 0.02644 0.0
N71 N 0.87366 0.4887 0.19111 0.0
H72 H 0.90141 0.46944 0.10908 0.0
H73 H 0.84689 0.51167 1.01312 0.0
C74 C 0.80931 0.49267 0.86362 0.0
O75 O 0.79928 0.48362 0.93761 0.0
N76 N 0.90637 0.47964 0.75824 0.0
C77 C 0.92965 0.46762 0.72837 0.0
C78 C 0.93099 0.4671 0.62735 0.0
C79 C 0.89395 0.48632 0.67467 0.0
N80 N 0.90845 0.4788 0.59397 0.0
C81 C 0.89781 0.44939 0.93775 0.0
C82 C 0.83633 0.43679 0.8496 0.0
C83 C 0.86091 0.42552 0.89001 0.0
C84 C 0.89205 0.43219 0.93389 0.0
C85 C 0.8441 0.454 0.85053 0.0
N86 N 0.87425 0.46027 0.8963 0.0
H87 H 0.92233 0.45379 0.97183 0.0
H88 H 0.82621 0.462 0.81177 0.0
H89 H 0.9438 0.45941 0.77657 0.0
H90 H 0.87405 0.49614 0.67233 0.0
O91 O 0.9389 0.48136 0.94131 0.0
O92 O 0.91539 0.50514 0.89716 0.0
O93 O 0.84247 0.49276 0.83664 0.0
C94 C 0.94276 0.49733 0.93391 0.0
H95 H 0.84565 0.51215 0.20754 0.0
H96 H 0.9464 0.45847 0.58172 0.0
H97 H 0.81194 0.43226 0.81427 0.0
H98 H 0.91211 0.42408 0.96506 0.0
Co99 Co 0.88349 0.29423 0.85298 0.0
C100 C 0.88567 0.29154 0.63318 0.0
C101 C 0.83142 0.29107 0.68674 0.0
C102 C 0.83041 0.29065 0.58602 0.0
N103 N 0.86609 0.29142 0.71747 0.0
N104 N 0.86451 0.29099 0.55268 0.0
H105 H 0.91469 0.29273 0.62971 0.0
H106 H 0.80798 0.29187 0.73271 0.0
C107 C 0.80409 0.28735 0.92168 0.0
O108 O 0.79091 0.30187 0.89818 0.0
N109 N 0.90081 0.29729 0.98659 0.0
C110 C 0.92516 0.30881 0.0169 0.0
C111 C 0.92687 0.30899 0.11765 0.0
C112 C 0.88777 0.29069 0.0697 0.0
N113 N 0.90326 0.29767 0.15048 0.0
C114 C 0.88052 0.3275 0.78631 0.0
C115 C 0.84195 0.34178 0.93997 0.0
C116 C 0.85695 0.35232 0.86993 0.0
C117 C 0.8764 0.34482 0.79237 0.0
C118 C 0.84839 0.32449 0.93394 0.0
N119 N 0.8668 0.31745 0.85643 0.0
H120 H 0.8966 0.32222 0.72732 0.0
H121 H 0.83968 0.3169 0.99353 0.0
H122 H 0.93915 0.31721 0.96931 0.0
H123 H 0.86621 0.28162 0.07197 0.0
O124 O 0.93229 0.29791 0.80402 0.0
O125 O 0.90999 0.27339 0.84084 0.0
O126 O 0.83733 0.28376 0.90634 0.0
C127 C 0.93719 0.28188 0.80845 0.0
H128 H 0.8065 0.29089 0.54062 0.0
H129 H 0.94265 0.31742 0.16363 0.0
H130 H 0.82693 0.34695 1.00168 0.0
H131 H 0.889 0.35237 0.73734 0.0
Co132 Co 0.12252 0.0432 0.6335 0.0
C133 C 0.1198 0.04132 0.41393 0.0
C134 C 0.17384 0.03822 0.46486 0.0
C135 C 0.1744 0.038 0.3642 0.0
N136 N 0.13955 0.04022 0.49737 0.0
N137 N 0.14045 0.03995 0.33258 0.0
H138 H 0.09107 0.04364 0.41181 0.0
H139 H 0.19756 0.0374 0.50907 0.0
C140 C 0.20302 0.03761 0.6957 0.0
O141 O 0.21544 0.0517 0.66244 0.0
N142 N 0.10538 0.04647 0.76704 0.0
C143 C 0.08036 0.05772 0.79654 0.0
C144 C 0.07848 0.05803 0.89726 0.0
C145 C 0.11869 0.04017 0.8505 0.0
N146 N 0.1027 0.04708 0.93077 0.0
C147 C 0.12304 0.07651 0.56464 0.0
C148 C 0.16326 0.09119 0.71375 0.0
C149 C 0.14774 0.10152 0.64358 0.0
C150 C 0.1275 0.09384 0.56828 0.0
C151 C 0.157 0.07389 0.7094 0.0
N152 N 0.1377 0.06665 0.6342 0.0
H153 H 0.10621 0.07108 0.50781 0.0
H154 H 0.16672 0.06641 0.76836 0.0
H155 H 0.06576 0.06577 0.74827 0.0
H156 H 0.1406 0.0313 0.85329 0.0
O157 O 0.07298 0.04566 0.58613 0.0
O158 O 0.09799 0.02182 0.62492 0.0
O159 O 0.16957 0.03383 0.68749 0.0
C160 C 0.06972 0.02957 0.5933 0.0
H161 H 0.19801 0.037 0.31765 0.0
H162 H 0.06198 0.06625 0.94274 0.0
H163 H 0.1788 0.09656 0.77387 0.0
H164 H 0.11456 0.10125 0.51334 0.0
Co165 Co 0.12143 0.23325 0.6423 0.0
C166 C 0.12681 0.22948 0.85827 0.0
C167 C 0.15253 0.25184 0.81181 0.0
C168 C 0.15254 0.2519 0.91262 0.0
N169 N 0.13682 0.2377 0.77713 0.0
N170 N 0.13633 0.23788 0.94154 0.0
H171 H 0.11082 0.21822 0.85699 0.0
H172 H 0.16136 0.26197 0.76713 0.0
C173 C 0.20157 0.24298 0.6229 0.0
O174 O 0.20983 0.23716 0.70894 0.0
N175 N 0.10548 0.22875 0.50857 0.0
C176 C 0.08046 0.21744 0.47966 0.0
C177 C 0.07911 0.21675 0.37875 0.0
C178 C 0.11902 0.23482 0.42453 0.0
N179 N 0.1034 0.22763 0.34451 0.0
C180 C 0.10843 0.19894 0.684 0.0
C181 C 0.17349 0.18565 0.62217 0.0
C182 C 0.1463 0.1747 0.6529 0.0
C183 C 0.11349 0.18169 0.68393 0.0
C184 C 0.16683 0.20295 0.61996 0.0
N185 N 0.13461 0.20951 0.65157 0.0
H186 H 0.08267 0.20369 0.70833 0.0
H187 H 0.18749 0.2108 0.59068 0.0
H188 H 0.06461 0.20999 0.52843 0.0
H189 H 0.1403 0.24403 0.42137 0.0
O190 O 0.07158 0.23234 0.68907 0.0
O191 O 0.0985 0.25519 0.6416 0.0
O192 O 0.17005 0.24056 0.58663 0.0
C193 C 0.06973 0.2483 0.67711 0.0
H194 H 0.1619 0.26187 0.96113 0.0
H195 H 0.06211 0.20869 0.33376 0.0
H196 H 0.19931 0.18082 0.59741 0.0
H197 H 0.09165 0.1738 0.70793 0.0
Co198 Co 0.8856 0.98282 0.40295 0.0
C199 C 0.88446 0.97901 0.62096 0.0
C200 C 0.83345 0.98735 0.56701 0.0
C201 C 0.83129 0.98657 0.66734 0.0
N202 N 0.86676 0.98254 0.5371 0.0
N203 N 0.86344 0.9815 0.70101 0.0
H204 H 0.91251 0.97538 0.62459 0.0
H205 H 0.81207 0.99155 0.5202 0.0
C206 C 0.81016 0.98949 0.31041 0.0
O207 O 0.80503 0.97405 0.27968 0.0
N208 N 0.90405 0.98351 0.26791 0.0
C209 C 0.93559 0.99009 0.2368 0.0
C210 C 0.93693 0.98931 0.13625 0.0
C211 C 0.88665 0.97892 0.18405 0.0
N212 N 0.90603 0.98247 0.10327 0.0
C213 C 0.89642 0.9488 0.34454 0.0
C214 C 0.83314 0.93558 0.41636 0.0
C215 C 0.85974 0.92461 0.37968 0.0
C216 C 0.89146 0.93148 0.34239 0.0
C217 C 0.83925 0.95293 0.41765 0.0
N218 N 0.87064 0.95943 0.38167 0.0
H219 H 0.92195 0.95368 0.31986 0.0
H220 H 0.81895 0.96102 0.4496 0.0
H221 H 0.9559 0.99597 0.28215 0.0
H222 H 0.86006 0.97352 0.18121 0.0
O223 O 0.93399 0.97858 0.45279 0.0
O224 O 0.91075 1.00355 0.43497 0.0
O225 O 0.83885 0.99368 0.35725 0.0
C226 C 0.93814 0.99465 0.46239 0.0
H227 H 0.80852 0.99025 0.71269 0.0
H228 H 0.95796 0.99434 0.09053 0.0
H229 H 0.8083 0.93076 0.44637 0.0
H230 H 0.91277 0.92346 0.31412 0.0
Co231 Co 0.89084 0.79376 0.36462 0.0
C232 C 0.88361 0.79701 0.14642 0.0
C233 C 0.86003 0.77457 0.19831 0.0
C234 C 0.85935 0.77394 0.09746 0.0
N235 N 0.87462 0.78917 0.22995 0.0
N236 N 0.87454 0.78797 0.06496 0.0
H237 H 0.89882 0.80844 0.14402 0.0
H238 H 0.85244 0.76454 0.2452 0.0
C239 C 0.81115 0.78315 0.39019 0.0
O240 O 0.80175 0.78959 0.30665 0.0
N241 N 0.9073 0.79797 0.49833 0.0
C242 C 0.93238 0.80921 0.52778 0.0
C243 C 0.93375 0.80972 0.6289 0.0
C244 C 0.89373 0.79179 0.58213 0.0
N245 N 0.90935 0.79882 0.66256 0.0
C246 C 0.8954 0.82806 0.31201 0.0
C247 C 0.83915 0.84045 0.42476 0.0
C248 C 0.86073 0.85172 0.37351 0.0
C249 C 0.88887 0.84522 0.31606 0.0
C250 C 0.84654 0.82319 0.41839 0.0
N251 N 0.87429 0.8171 0.36153 0.0
H252 H 0.9187 0.82375 0.27153 0.0
H253 H 0.83081 0.81492 0.4625 0.0
H254 H 0.94784 0.81689 0.47923 0.0
H255 H 0.87239 0.78262 0.58501 0.0
O256 O 0.94 0.79673 0.31583 0.0
O257 O 0.91725 0.77268 0.35808 0.0
O258 O 0.84355 0.78489 0.42174 0.0
C259 C 0.94452 0.78077 0.32218 0.0
H260 H 0.85069 0.76351 0.0514 0.0
H261 H 0.95062 0.81775 0.67437 0.0
H262 H 0.81741 0.845 0.47131 0.0
H263 H 0.90652 0.85347 0.27664 0.0
Co264 Co 0.62585 0.54448 0.62932 0.0
C265 C 0.63286 0.54743 0.41116 0.0
C266 C 0.65498 0.52473 0.46397 0.0
C267 C 0.65596 0.52403 0.36312 0.0
N268 N 0.64108 0.53949 0.49473 0.0
N269 N 0.64173 0.53823 0.33006 0.0
H270 H 0.61847 0.55909 0.40878 0.0
H271 H 0.66154 0.51465 0.51167 0.0
C272 C 0.70601 0.53461 0.65342 0.0
O273 O 0.71574 0.54243 0.57436 0.0
N274 N 0.61058 0.54913 0.76352 0.0
C275 C 0.58674 0.56085 0.79404 0.0
C276 C 0.58572 0.56129 0.89518 0.0
C277 C 0.62369 0.54255 0.84658 0.0
N278 N 0.60904 0.54983 0.92767 0.0
C279 C 0.61903 0.57866 0.57677 0.0
C280 C 0.68037 0.59134 0.66545 0.0
C281 C 0.65637 0.60249 0.62168 0.0
C282 C 0.62554 0.59581 0.57661 0.0
C283 C 0.67241 0.57414 0.66577 0.0
N284 N 0.6421 0.56786 0.6209 0.0
H285 H 0.59452 0.57423 0.54277 0.0
H286 H 0.69028 0.56613 0.70439 0.0
H287 H 0.57178 0.56883 0.7462 0.0
H288 H 0.6439 0.53286 0.84834 0.0
O289 O 0.57632 0.54721 0.58391 0.0
O290 O 0.59956 0.52336 0.62736 0.0
O291 O 0.67329 0.53545 0.68357 0.0
C292 C 0.572 0.53128 0.59231 0.0
H293 H 0.66418 0.51348 0.31741 0.0
H294 H 0.56972 0.56959 0.94145 0.0
H295 H 0.70451 0.59596 0.70165 0.0
H296 H 0.60614 0.60389 0.54236 0.0
Co297 Co 0.62389 0.73317 0.6317 0.0
C298 C 0.63068 0.72949 0.84913 0.0
C299 C 0.65558 0.75179 0.7995 0.0
C300 C 0.65603 0.75218 0.90033 0.0
N301 N 0.64018 0.73746 0.76648 0.0
N302 N 0.64015 0.73822 0.93138 0.0
H303 H 0.6149 0.71821 0.85019 0.0
H304 H 0.66375 0.76186 0.75393 0.0
C305 C 0.7037 0.74371 0.60386 0.0
O306 O 0.71396 0.73637 0.68392 0.0
N307 N 0.6073 0.72907 0.49801 0.0
C308 C 0.58177 0.71801 0.46912 0.0
C309 C 0.58027 0.7174 0.36807 0.0
C310 C 0.62103 0.73504 0.41386 0.0
N311 N 0.60503 0.72806 0.33384 0.0
C312 C 0.61888 0.69881 0.68069 0.0
C313 C 0.67825 0.68678 0.57932 0.0
C314 C 0.65583 0.67537 0.62703 0.0
C315 C 0.62592 0.68171 0.67809 0.0
C316 C 0.66974 0.70395 0.58204 0.0
N317 N 0.64064 0.70987 0.6341 0.0
H318 H 0.59489 0.70297 0.7185 0.0
H319 H 0.68589 0.71225 0.5395 0.0
H320 H 0.56608 0.71049 0.518 0.0
H321 H 0.64277 0.744 0.41041 0.0
O322 O 0.57481 0.72998 0.68023 0.0
O323 O 0.59721 0.75415 0.63994 0.0
O324 O 0.67088 0.74247 0.57482 0.0
C325 C 0.57004 0.74593 0.67527 0.0
H326 H 0.6651 0.76241 0.94738 0.0
H327 H 0.56305 0.70946 0.32304 0.0
H328 H 0.70146 0.6824 0.53785 0.0
H329 H 0.60761 0.67342 0.71493 0.0
Co330 Co 0.3887 0.48197 0.41666 0.0
C331 C 0.38347 0.47646 0.63119 0.0
C332 C 0.34849 0.49601 0.58476 0.0
C333 C 0.34784 0.49575 0.68547 0.0
N334 N 0.37095 0.48399 0.5505 0.0
N335 N 0.37006 0.48359 0.71449 0.0
H336 H 0.40357 0.4667 0.62941 0.0
H337 H 0.3355 0.50519 0.54037 0.0
C338 C 0.31348 0.48721 0.31878 0.0
O339 O 0.31204 0.47206 0.28001 0.0
N340 N 0.40706 0.48021 0.28083 0.0
C341 C 0.44143 0.47659 0.25342 0.0
C342 C 0.44387 0.47584 0.15278 0.0
C343 C 0.38935 0.48176 0.19449 0.0
N344 N 0.41108 0.47908 0.11621 0.0
C345 C 0.39944 0.44707 0.38276 0.0
C346 C 0.33291 0.43576 0.44357 0.0
C347 C 0.3593 0.42401 0.41468 0.0
C348 C 0.3928 0.42994 0.38402 0.0
C349 C 0.34076 0.45298 0.44143 0.0
N350 N 0.37358 0.45848 0.4093 0.0
H351 H 0.42617 0.45112 0.36353 0.0
H352 H 0.32074 0.46185 0.46734 0.0
H353 H 0.46361 0.47441 0.30267 0.0
H354 H 0.36143 0.48489 0.18668 0.0
O355 O 0.43765 0.47891 0.46718 0.0
O356 O 0.41337 0.50322 0.43596 0.0
O357 O 0.3407 0.49174 0.37076 0.0
C358 C 0.44109 0.49506 0.468 0.0
H359 H 0.33422 0.50459 0.73403 0.0
H360 H 0.46781 0.47318 0.10964 0.0
H361 H 0.30682 0.43166 0.46935 0.0
H362 H 0.41409 0.42131 0.36293 0.0
Co363 Co 0.38894 0.29335 0.39482 0.0
C364 C 0.38449 0.29628 0.17689 0.0
C365 C 0.354 0.27552 0.22651 0.0
C366 C 0.3537 0.27512 0.12558 0.0
N367 N 0.3727 0.28898 0.25969 0.0
N368 N 0.37293 0.28816 0.09471 0.0
H369 H 0.4031 0.30659 0.17553 0.0
H370 H 0.34302 0.26598 0.27175 0.0
C371 C 0.30919 0.28385 0.42342 0.0
O372 O 0.29912 0.29193 0.34572 0.0
N373 N 0.40562 0.29764 0.52804 0.0
C374 C 0.42778 0.31011 0.55781 0.0
C375 C 0.42892 0.31068 0.65883 0.0
C376 C 0.39372 0.29072 0.61151 0.0
N377 N 0.40747 0.29853 0.69218 0.0
C378 C 0.39322 0.32769 0.34079 0.0
C379 C 0.33802 0.34003 0.45776 0.0
C380 C 0.35895 0.35131 0.40493 0.0
C381 C 0.38659 0.34486 0.34537 0.0
C382 C 0.3455 0.3228 0.45082 0.0
N383 N 0.37259 0.31671 0.39159 0.0
H384 H 0.41641 0.32341 0.29986 0.0
H385 H 0.33056 0.31456 0.49694 0.0
H386 H 0.44099 0.31865 0.50951 0.0
H387 H 0.37431 0.28067 0.61384 0.0
O388 O 0.43793 0.29586 0.3446 0.0
O389 O 0.41435 0.27214 0.39096 0.0
O390 O 0.34199 0.28455 0.45232 0.0
C391 C 0.4418 0.27988 0.35404 0.0
H392 H 0.34191 0.26554 0.07838 0.0
H393 H 0.4434 0.31966 0.70449 0.0
H394 H 0.31685 0.34454 0.50628 0.0
H395 H 0.40387 0.35314 0.30511 0.0
Co396 Co 0.62263 0.0446 0.13648 0.0
C397 C 0.62756 0.05022 0.92206 0.0
C398 C 0.66306 0.03083 0.96805 0.0
C399 C 0.66387 0.03122 0.86743 0.0
N400 N 0.6402 0.04267 1.00252 0.0
N401 N 0.64136 0.04329 0.83871 0.0
H402 H 0.60716 0.05985 0.92398 0.0
H403 H 0.67631 0.02169 1.01217 0.0
C404 C 0.69847 0.03927 0.23081 0.0
O405 O 0.70113 0.05445 0.26846 0.0
N406 N 0.60449 0.04627 0.27238 0.0
C407 C 0.56982 0.04907 0.30015 0.0
C408 C 0.56758 0.04991 0.40073 0.0
C409 C 0.62266 0.04542 0.35839 0.0
N410 N 0.60081 0.0476 0.4369 0.0
C411 C 0.61177 0.07938 0.17335 0.0
C412 C 0.67724 0.09094 0.1061 0.0
C413 C 0.65098 0.10259 0.13744 0.0
C414 C 0.61806 0.09653 0.17164 0.0
C415 C 0.66983 0.07371 0.10934 0.0
N416 N 0.63749 0.06809 0.1441 0.0
H417 H 0.58537 0.07522 0.19495 0.0
H418 H 0.68972 0.06491 0.08176 0.0
H419 H 0.54725 0.05059 0.25126 0.0
H420 H 0.65104 0.04319 0.36565 0.0
O421 O 0.57358 0.04752 0.08687 0.0
O422 O 0.5985 0.02329 0.11754 0.0
O423 O 0.67059 0.03489 0.18133 0.0
C424 C 0.57051 0.03134 0.08636 0.0
H425 H 0.67783 0.02254 0.81865 0.0
H426 H 0.54343 0.05193 0.44414 0.0
H427 H 0.70284 0.09515 0.07752 0.0
H428 H 0.59686 0.10506 0.19464 0.0
Co429 Co 0.62657 0.23349 0.1674 0.0
C430 C 0.62503 0.23503 0.38739 0.0
C431 C 0.6789 0.23786 0.33406 0.0
C432 C 0.67992 0.2381 0.43482 0.0
N433 N 0.64441 0.23602 0.30306 0.0
N434 N 0.64606 0.23635 0.4679 0.0
H435 H 0.59624 0.23291 0.39079 0.0
H436 H 0.70237 0.23862 0.28857 0.0
C437 C 0.7061 0.23956 0.10055 0.0
O438 O 0.7185 0.22523 0.13013 0.0
N439 N 0.60868 0.23078 0.03395 0.0
C440 C 0.58341 0.21967 1.00396 0.0
C441 C 0.58176 0.21939 0.90318 0.0
C442 C 0.62235 0.23702 0.95051 0.0
N443 N 0.60643 0.2302 0.86991 0.0
C444 C 0.63132 0.19998 0.23407 0.0
C445 C 0.66554 0.18595 0.07194 0.0
C446 C 0.65339 0.17539 0.14547 0.0
C447 C 0.63654 0.18269 0.22781 0.0
C448 C 0.65964 0.20325 0.08091 0.0
N449 N 0.64282 0.21015 0.16162 0.0
H450 H 0.61638 0.20509 0.29565 0.0
H451 H 0.66752 0.211 0.02117 0.0
H452 H 0.56861 0.21161 0.05188 0.0
H453 H 0.64469 0.24567 0.94785 0.0
O454 O 0.57753 0.23025 0.21688 0.0
O455 O 0.60119 0.2546 0.1817 0.0
O456 O 0.67288 0.24346 0.11263 0.0
C457 C 0.57361 0.24637 0.21393 0.0
H458 H 0.70375 0.23908 0.48041 0.0
H459 H 0.56527 0.21122 0.85751 0.0
H460 H 0.67835 0.18079 1.00659 0.0
H461 H 0.62635 0.175 0.28562 0.0
Co462 Co 0.38433 0.98383 0.92492 0.0
C463 C 0.38478 0.98819 0.14477 0.0
C464 C 0.33206 0.98254 0.08959 0.0
C465 C 0.33044 0.98316 0.19025 0.0
N466 N 0.36615 0.9857 0.06004 0.0
N467 N 0.36367 0.98659 0.22468 0.0
H468 H 0.41333 0.99049 0.14931 0.0
H469 H 0.31 0.97901 0.0425 0.0
C470 C 0.3054 0.9901 0.85691 0.0
O471 O 0.29451 0.97479 0.87048 0.0
N472 N 0.4021 0.98206 0.79054 0.0
C473 C 0.43067 0.97291 0.75943 0.0
C474 C 0.43244 0.97319 0.65875 0.0
C475 C 0.38687 0.98778 0.70778 0.0
N476 N 0.40481 0.98244 0.62664 0.0
C477 C 0.37808 0.95047 0.98909 0.0
C478 C 0.34764 0.93622 0.82234 0.0
C479 C 0.35853 0.92576 0.89769 0.0
C480 C 0.37355 0.93318 0.98215 0.0
C481 C 0.35314 0.95354 0.83168 0.0
N482 N 0.3678 0.96057 0.91504 0.0
H483 H 0.39157 0.9557 0.05287 0.0
H484 H 0.34631 0.96121 0.77074 0.0
H485 H 0.4481 0.96583 0.80613 0.0
H486 H 0.36225 0.99497 0.70579 0.0
O487 O 0.433 0.97951 0.97161 0.0
O488 O 0.41117 1.00447 0.94429 0.0
O489 O 0.33793 0.99453 0.87577 0.0
C490 C 0.43856 0.9955 0.97108 0.0
H491 H 0.3072 0.98032 0.23494 0.0
H492 H 0.45135 0.9664 0.61224 0.0
H493 H 0.33622 0.93098 0.75538 0.0
H494 H 0.38278 0.92558 0.04144 0.0
Co495 Co 0.38702 0.79479 0.86653 0.0
C496 C 0.38668 0.79552 0.6469 0.0
C497 C 0.33316 0.79346 0.70394 0.0
C498 C 0.33112 0.79367 0.60324 0.0
N499 N 0.36808 0.79465 0.7322 0.0
N500 N 0.36483 0.79492 0.56794 0.0
H501 H 0.41549 0.79649 0.64126 0.0
H502 H 0.31037 0.79243 0.75222 0.0
C503 C 0.32644 0.77192 0.90786 0.0
O504 O 0.34301 0.76169 0.84614 0.0
N505 N 0.40523 0.79499 1.00099 0.0
C506 C 0.43987 0.79616 0.03183 0.0
C507 C 0.44058 0.79636 0.13278 0.0
C508 C 0.38542 0.79476 0.08447 0.0
N509 N 0.40638 0.79548 0.16521 0.0
C510 C 0.40202 0.82918 0.90214 0.0
C511 C 0.33359 0.8417 0.87204 0.0
C512 C 0.36222 0.85294 0.88825 0.0
C513 C 0.3966 0.84641 0.90514 0.0
C514 C 0.34011 0.8244 0.87095 0.0
N515 N 0.37423 0.81835 0.88377 0.0
H516 H 0.42903 0.82452 0.91266 0.0
H517 H 0.31787 0.81598 0.85772 0.0
H518 H 0.46328 0.79696 0.98501 0.0
H519 H 0.35628 0.7943 0.08713 0.0
O520 O 0.43601 0.79766 0.81678 0.0
O521 O 0.41093 0.77335 0.83884 0.0
O522 O 0.33853 0.78682 0.91986 0.0
C523 C 0.43933 0.78159 0.81103 0.0
H524 H 0.30689 0.79279 0.55919 0.0
H525 H 0.46427 0.79719 0.17894 0.0
H526 H 0.30656 0.84626 0.85902 0.0
H527 H 0.41938 0.85463 0.91829 0.0
C528 C 0.24734 0.49513 0.3026 0.0
C529 C 0.28434 0.49968 0.29539 0.0
C530 C 0.26523 0.52796 0.24893 0.0
C531 C 0.22851 0.52282 0.24672 0.0
N532 N 0.18551 0.50022 0.25436 0.0
N533 N 0.32816 0.51989 0.24144 0.0
C534 C 0.21991 0.50599 0.26758 0.0
C535 C 0.29321 0.51599 0.26352 0.0
N536 N 0.23801 0.48085 0.34871 0.0
N537 N 0.27362 0.54434 0.2366 0.0
H538 H 0.34961 0.51168 0.24844 0.0
H539 H 0.33558 0.53077 0.2069 0.0
H540 H 0.25454 0.55327 0.21837 0.0
H541 H 0.29916 0.54929 0.25055 0.0
H542 H 0.21147 0.47776 0.36577 0.0
H543 H 0.25687 0.47298 0.38005 0.0
H544 H 0.17871 0.48766 0.25741 0.0
H545 H 0.16425 0.50764 0.23174 0.0
C546 C 0.0257 0.75087 0.31878 0.0
C547 C 0.04153 0.7538 0.22538 0.0
C548 C 0.99461 0.77501 0.19602 0.0
C549 C 0.9788 0.77206 0.28946 0.0
N550 N 0.98533 0.76035 0.44887 0.0
N551 N 0.03539 0.76571 0.06635 0.0
C552 C 0.99575 0.76069 0.35273 0.0
C553 C 0.02471 0.76525 0.16225 0.0
N554 N 0.03868 0.73846 0.37543 0.0
N555 N 0.9814 0.78734 0.13917 0.0
H556 H 0.05576 0.75817 0.03674 0.0
H557 H 0.02167 0.77217 1.01279 0.0
H558 H 0.95752 0.79367 0.15369 0.0
H559 H 0.99513 0.79197 0.07924 0.0
H560 H 0.02489 0.7339 0.43544 0.0
H561 H 0.06235 0.732 0.36049 0.0
H562 H 0.99924 0.75396 0.50237 0.0
H563 H 0.96512 0.76796 0.47862 0.0
C564 C 0.26213 0.77271 0.97865 0.0
C565 C 0.29672 0.76509 0.97101 0.0
C566 C 0.2727 0.74069 0.05557 0.0
C567 C 0.23897 0.74879 0.07091 0.0
N568 N 0.2049 0.77443 0.06477 0.0
N569 N 0.33695 0.74408 0.03109 0.0
C570 C 0.23457 0.76534 0.03723 0.0
C571 C 0.30255 0.74975 0.01817 0.0
N572 N 0.25497 0.78672 0.92782 0.0
N573 N 0.27606 0.72405 0.07184 0.0
H574 H 0.35969 0.75077 1.00998 0.0
H575 H 0.34294 0.73382 0.07324 0.0
H576 H 0.25456 0.71662 0.09349 0.0
H577 H 0.2991 0.71726 0.05276 0.0
H578 H 0.2291 0.79159 0.92028 0.0
H579 H 0.27441 0.79283 0.88723 0.0
H580 H 0.20218 0.78708 0.05154 0.0
H581 H 0.18458 0.76988 0.10943 0.0
C582 C 0.01063 0.50033 0.93278 0.0
C583 C 0.9766 0.50597 0.96875 0.0
C584 C 0.0078 0.52564 0.08243 0.0
C585 C 0.04177 0.52008 0.04592 0.0
N586 N 0.07582 0.50015 0.94749 0.0
N587 N 0.94259 0.52578 0.06815 0.0
C588 C 0.04325 0.50681 0.9747 0.0
C589 C 0.97515 0.51917 0.04057 0.0
N590 N 0.01177 0.48979 0.85243 0.0
N591 N 0.00681 0.5362 0.16276 0.0
H592 H 0.91796 0.52082 0.04584 0.0
H593 H 0.93977 0.53683 0.10901 0.0
H594 H 0.03 0.54063 0.19797 0.0
H595 H 0.98337 0.53928 0.20114 0.0
H596 H 0.0353 0.4867 0.81447 0.0
H597 H 0.98868 0.4854 0.81674 0.0
H598 H 0.07855 0.48892 0.9083 0.0
H599 H 0.10055 0.50531 0.96757 0.0
C600 C 0.76103 0.51533 0.86204 0.0
C601 C 0.78198 0.50306 0.81019 0.0
C602 C 0.7518 0.51094 0.65638 0.0
C603 C 0.7329 0.52402 0.70704 0.0
N604 N 0.72387 0.54018 0.85645 0.0
N605 N 0.79857 0.48983 0.65588 0.0
C606 C 0.73848 0.5265 0.80959 0.0
C607 C 0.77784 0.50117 0.70675 0.0
N608 N 0.76265 0.51647 0.962 0.0
N609 N 0.74332 0.50707 0.561 0.0
H610 H 0.81426 0.4809 0.68949 0.0
H611 H 0.80154 0.48972 0.58008 0.0
H612 H 0.72502 0.51382 0.52031 0.0
H613 H 0.75221 0.49638 0.52361 0.0
H614 H 0.74428 0.52326 1.00482 0.0
H615 H 0.78095 0.5099 1.0037 0.0
H616 H 0.73029 0.54398 0.92776 0.0
H617 H 0.70755 0.54871 0.82167 0.0
C618 C 1.00281 0.25349 0.66243 0.0
C619 C 0.03646 0.25805 0.70482 0.0
C620 C 1.00547 0.27925 0.80906 0.0
C621 C 0.9714 0.27361 0.77307 0.0
N622 N 0.93755 0.25433 0.66917 0.0
N623 N 0.06998 0.27487 0.82201 0.0
C624 C 0.97008 0.26038 0.70122 0.0
C625 C 0.03785 0.27099 0.77807 0.0
N626 N 1.00232 0.2433 0.58058 0.0
N627 N 0.00703 0.29246 0.87418 0.0
H628 H 0.09443 0.27001 0.79805 0.0
H629 H 0.07247 0.28218 0.8857 0.0
H630 H 0.98442 0.29747 0.90906 0.0
H631 H 0.03062 0.29894 0.89141 0.0
H632 H 0.97935 0.24093 0.53865 0.0
H633 H 0.02574 0.23857 0.54809 0.0
H634 H 0.93473 0.24323 0.62876 0.0
H635 H 0.91289 0.25984 0.68647 0.0
C636 C 0.74885 0.24753 0.96457 0.0
C637 C 0.73134 0.25178 0.05465 0.0
C638 C 0.76466 0.27844 0.06166 0.0
C639 C 0.77989 0.27481 0.96814 0.0
N640 N 0.78416 0.25655 0.82561 0.0
N641 N 0.71878 0.27248 0.18213 0.0
C642 C 0.77157 0.25946 0.91862 0.0
C643 C 0.73805 0.26761 0.10092 0.0
N644 N 0.74354 0.2321 0.92224 0.0
N645 N 0.77706 0.29186 0.11564 0.0
H646 H 0.70026 0.26487 0.21656 0.0
H647 H 0.71911 0.28458 0.21142 0.0
H648 H 0.79682 0.29993 0.09032 0.0
H649 H 0.77046 0.2941 0.18892 0.0
H650 H 0.75888 0.2273 0.86417 0.0
H651 H 0.72477 0.22359 0.94801 0.0
H652 H 0.77557 0.24674 0.78008 0.0
H653 H 0.80174 0.26458 0.79084 0.0
C654 C 0.26354 0.9992 0.7231 0.0
C655 C 0.27958 1.00246 0.81592 0.0
C656 C 0.2471 0.0293 0.8275 0.0
C657 C 0.2287 0.02531 0.7385 0.0
N658 N 0.21459 1.00468 0.61168 0.0
N659 N 0.28263 0.01947 0.96381 0.0
C660 C 0.23538 1.00971 0.68957 0.0
C661 C 0.27044 0.01727 0.86993 0.0
N662 N 0.27646 0.98648 0.6643 0.0
N663 N 0.24203 0.04455 0.87224 0.0
H664 H 0.2995 1.01099 0.99752 0.0
H665 H 0.27377 0.02897 1.01132 0.0
H666 H 0.22321 0.05317 0.8482 0.0
H667 H 0.25783 0.04907 0.93009 0.0
H668 H 0.26891 0.9847 0.59133 0.0
H669 H 0.2975 0.97872 0.68493 0.0
H670 H 0.21555 0.99269 0.58075 0.0
H671 H 0.19396 1.01184 0.58325 0.0
C672 C 0.22127 0.27015 0.54763 0.0
C673 C 0.22884 0.25322 0.56907 0.0
C674 C 0.28906 0.25616 0.49329 0.0
C675 C 0.28225 0.27338 0.47722 0.0
N676 N 0.2448 0.29742 0.5089 0.0
N677 N 0.27124 0.23047 0.56998 0.0
C678 C 0.24903 0.2805 0.5092 0.0
C679 C 0.2632 0.2464 0.54455 0.0
N680 N 0.18754 0.27652 0.56444 0.0
N681 N 0.31949 0.24881 0.45541 0.0
H682 H 0.25219 0.22229 0.59768 0.0
H683 H 0.29723 0.22555 0.5682 0.0
H684 H 0.34 0.2553 0.4213 0.0
H685 H 0.32359 0.23599 0.45184 0.0
H686 H 0.17894 0.28786 0.53768 0.0
H687 H 0.1671 0.27012 0.5997 0.0
H688 H 0.22314 0.30366 0.54171 0.0
H689 H 0.26477 0.30549 0.48475 0.0
C690 C 0.00701 0.99749 0.46536 0.0
C691 C 0.9724 1.00271 0.50041 0.0
C692 C 1.00183 0.02496 0.60109 0.0
C693 C 0.03613 0.02024 0.56253 0.0
N694 N 0.07066 1.0036 0.44627 0.0
N695 N 0.93813 0.01872 0.61991 0.0
C696 C 0.03856 1.00677 0.49278 0.0
C697 C 0.97017 0.01585 0.57246 0.0
N698 N 0.01029 0.98347 0.40679 0.0
N699 N 0.9994 0.03826 0.66536 0.0
H700 H 0.91483 1.01187 0.60526 0.0
H701 H 0.93503 0.02673 0.68041 0.0
H702 H 0.02182 0.04398 0.69726 0.0
H703 H 0.97531 0.04416 0.68443 0.0
H704 H 0.03474 0.97745 0.39345 0.0
H705 H 0.98875 0.977 0.37561 0.0
H706 H 0.07335 0.99569 0.3851 0.0
H707 H 0.09451 1.00991 0.46254 0.0
C708 C 0.71825 1.01153 0.30015 0.0
C709 C 0.72716 0.02651 0.25146 0.0
C710 C 0.79028 0.01672 0.23654 0.0
C711 C 0.78181 1.00241 0.29134 0.0
N712 N 0.73932 0.98796 0.39197 0.0
N713 N 0.77261 0.04394 0.17973 0.0
C714 C 0.74618 1.00027 0.32722 0.0
C715 C 0.76355 0.02931 0.22238 0.0
N716 N 0.68305 1.00786 0.32059 0.0
N717 N 0.82343 0.01787 0.19327 0.0
H718 H 0.75366 0.05272 0.15867 0.0
H719 H 0.79913 0.04782 0.16936 0.0
H720 H 0.84352 1.00895 0.20127 0.0
H721 H 0.83022 0.02688 0.14317 0.0
H722 H 0.67455 0.99621 0.34307 0.0
H723 H 0.66168 0.01593 0.30899 0.0
H724 H 0.71519 0.98695 0.43051 0.0
H725 H 0.75896 0.97963 0.41486 0.0
C726 C 0.76346 0.74632 0.51347 0.0
C727 C 0.73067 0.75378 0.54664 0.0
C728 C 0.75015 0.78039 0.47471 0.0
C729 C 0.78392 0.77318 0.44713 0.0
N730 N 0.82416 0.74949 0.44989 0.0
N731 N 0.69439 0.77858 0.56756 0.0
C732 C 0.79102 0.75626 0.47 0.0
C733 C 0.72432 0.77095 0.52865 0.0
N734 N 0.76743 0.72942 0.51787 0.0
N735 N 0.74273 0.79642 0.45008 0.0
H736 H 0.67418 0.77227 0.60414 0.0
H737 H 0.69038 0.7914 0.56946 0.0
H738 H 0.76203 0.80444 0.42201 0.0
H739 H 0.71706 0.80166 0.45366 0.0
H740 H 0.78843 0.72281 0.48436 0.0
H741 H 0.7479 0.72166 0.54722 0.0
H742 H 0.83288 0.73825 0.47768 0.0
H743 H 0.84407 0.75544 0.41003 0.0
C744 C 0.49389 0.7781 0.6953 0.0
C745 C 0.47409 0.77303 0.77936 0.0
C746 C 0.51818 0.75009 0.79894 0.0
C747 C 0.53587 0.75451 0.7102 0.0
N748 N 0.53195 0.76934 0.55959 0.0
N749 N 0.47363 0.75671 0.92496 0.0
C750 C 0.52133 0.76757 0.6547 0.0
C751 C 0.48759 0.75948 0.83394 0.0
N752 N 0.48846 0.79335 0.65596 0.0
N753 N 0.53024 0.73682 0.85022 0.0
H754 H 0.45304 0.76381 0.95666 0.0
H755 H 0.48455 0.74852 0.97458 0.0
H756 H 0.55514 0.73121 0.83889 0.0
H757 H 0.51514 0.73092 0.90336 0.0
H758 H 0.50491 0.79804 0.60123 0.0
H759 H 0.47146 0.80241 0.68542 0.0
H760 H 0.51924 0.7774 0.51207 0.0
H761 H 0.55005 0.76127 0.52409 0.0
C762 C 0.52162 0.52535 0.46839 0.0
C763 C 0.53785 0.52241 0.5611 0.0
C764 C 0.49171 0.50094 0.59177 0.0
C765 C 0.47529 0.50392 0.49942 0.0
N766 N 0.4797 0.51639 0.34124 0.0
N767 N 0.53214 0.51068 0.72076 0.0
C768 C 0.49135 0.51561 0.43611 0.0
C769 C 0.52142 0.51096 0.62494 0.0
N770 N 0.53454 0.53768 0.4109 0.0
N771 N 0.47954 0.48829 0.64791 0.0
H772 H 0.55229 0.51841 0.74985 0.0
H773 H 0.5185 0.50424 0.77458 0.0
H774 H 0.45676 0.4813 0.63115 0.0
H775 H 0.49345 0.48392 0.70818 0.0
H776 H 0.5203 0.54248 0.35239 0.0
H777 H 0.55889 0.54378 0.42294 0.0
H778 H 0.49309 0.52285 0.28706 0.0
H779 H 0.45852 0.50926 0.31279 0.0
C780 C 0.47348 0.25712 0.25313 0.0
C781 C 0.47551 0.2709 0.32107 0.0
C782 C 0.54196 0.26801 0.32309 0.0
C783 C 0.53994 0.25506 0.24984 0.0
N784 N 0.50408 0.23998 0.13027 0.0
N785 N 0.51202 0.29003 0.41764 0.0
C786 C 0.50575 0.25025 0.21157 0.0
C787 C 0.5099 0.27656 0.35446 0.0
N788 N 0.44075 0.25055 0.22691 0.0
N789 N 0.57432 0.27165 0.36668 0.0
H790 H 0.48966 0.29526 0.45294 0.0
H791 H 0.53583 0.29649 0.43268 0.0
H792 H 0.59853 0.26605 0.3459 0.0
H793 H 0.57712 0.27941 0.4284 0.0
H794 H 0.43788 0.23912 0.18984 0.0
H795 H 0.41617 0.25594 0.246 0.0
H796 H 0.48045 0.23761 0.09107 0.0
H797 H 0.52694 0.23522 0.09531 0.0
C798 C 0.48866 0.01573 0.93469 0.0
C799 C 0.47433 1.00341 0.99677 0.0
C800 C 0.52241 1.00975 0.11693 0.0
C801 C 0.53653 0.02228 0.05594 0.0
N802 N 0.53027 0.03851 0.91037 0.0
N803 N 0.48559 0.98516 0.13217 0.0
C804 C 0.51881 0.02565 0.96595 0.0
C805 C 0.49353 0.99933 0.08327 0.0
N806 N 0.47555 0.01685 0.8414 0.0
N807 N 0.53467 1.00855 0.21094 0.0
H808 H 0.46541 0.9768 0.11196 0.0
H809 H 0.50183 0.98058 0.18751 0.0
H810 H 0.55471 0.01619 0.24103 0.0
H811 H 0.52218 1.00129 0.26318 0.0
H812 H 0.48716 0.02408 0.78771 0.0
H813 H 0.45536 1.00907 0.81312 0.0
H814 H 0.51546 0.04332 0.85298 0.0
H815 H 0.55382 0.04512 0.92418 0.0
C816 C 0.09738 0.5328 0.56521 0.0
C817 C 0.11728 0.54461 0.51227 0.0
C818 C 0.15109 0.55263 0.66109 0.0
C819 C 0.13258 0.54019 0.71272 0.0
N820 N 0.09013 0.51766 0.71588 0.0
N821 N 0.16488 0.56487 0.5045 0.0
C822 C 0.1062 0.53005 0.66512 0.0
C823 C 0.14462 0.55433 0.559 0.0
N824 N 0.06946 0.52459 0.51989 0.0
N825 N 0.17448 0.56293 0.71089 0.0
H826 H 0.16027 0.56654 0.4302 0.0
H827 H 0.1875 0.57124 0.53068 0.0
H828 H 0.18011 0.56162 0.78508 0.0
H829 H 0.18667 0.5733 0.6811 0.0
H830 H 0.05151 0.51681 0.55536 0.0
H831 H 0.06303 0.52631 0.44653 0.0
H832 H 0.07291 0.50875 0.68484 0.0
H833 H 0.09552 0.51587 0.78959 0.0
C834 C 0.14452 0.71882 0.70181 0.0
C835 C 0.1192 0.72946 0.74986 0.0
C836 C 0.10856 0.74388 0.59614 0.0
C837 C 0.13551 0.7339 0.54935 0.0
N838 N 0.18164 0.71305 0.55753 0.0
N839 N 0.0791 0.75284 0.74815 0.0
C840 C 0.15404 0.7216 0.60219 0.0
C841 C 0.10175 0.7422 0.69827 0.0
N842 N 0.159 0.70593 0.75181 0.0
N843 N 0.0889 0.75462 0.54168 0.0
H844 H 0.07319 0.75157 0.82226 0.0
H845 H 0.06782 0.76344 0.71848 0.0
H846 H 0.09336 0.75608 0.46709 0.0
H847 H 0.0666 0.76123 0.56797 0.0
H848 H 0.17502 0.69664 0.71974 0.0
H849 H 0.15329 0.70402 0.82546 0.0
H850 H 0.19873 0.70495 0.59336 0.0
H851 H 0.18888 0.71486 0.48478 0.0
C852 C 0.92287 0.49086 0.43362 0.0
C853 C 0.89944 0.4814 0.49246 0.0
C854 C 0.85907 0.47666 0.35147 0.0
C855 C 0.88332 0.48547 0.29152 0.0
N856 N 0.94004 0.49936 0.27027 0.0
N857 N 0.84829 0.46327 0.50652 0.0
C858 C 0.91582 0.4921 0.33129 0.0
C859 C 0.86828 0.47375 0.45104 0.0
N860 N 0.95141 0.49892 0.47687 0.0
N861 N 0.82694 0.47136 0.31295 0.0
H862 H 0.85444 0.46102 0.57946 0.0
H863 H 0.82712 0.456 0.47916 0.0
H864 H 0.8203 0.47286 0.23951 0.0
H865 H 0.80616 0.46637 0.35429 0.0
H866 H 0.9681 0.50724 0.4412 0.0
H867 H 0.95703 0.49806 0.55138 0.0
H868 H 0.96568 0.50332 0.29151 0.0
H869 H 0.93523 0.50042 0.19562 0.0
C870 C 0.90297 0.28116 0.3012 0.0
C871 C 0.89272 0.29564 0.25127 0.0
C872 C 0.86791 0.30774 0.40384 0.0
C873 C 0.8754 0.29272 0.45191 0.0
N874 N 0.89545 0.2643 0.44503 0.0
N875 N 0.8598 0.32141 0.24923 0.0
C876 C 0.89178 0.27918 0.40017 0.0
C877 C 0.87357 0.30858 0.30111 0.0
N878 N 0.92422 0.26956 0.2544 0.0
N879 N 0.85653 0.32135 0.45744 0.0
H880 H 0.86289 0.32214 0.17358 0.0
H881 H 0.84261 0.33043 0.27937 0.0
H882 H 0.85302 0.32116 0.53318 0.0
H883 H 0.85383 0.33315 0.42861 0.0
H884 H 0.9357 0.25947 0.28906 0.0
H885 H 0.93247 0.27074 0.18186 0.0
H886 H 0.90424 0.25343 0.40929 0.0
H887 H 0.88695 0.26257 0.51684 0.0
C888 C 0.11503 0.02811 0.17841 0.0
C889 C 0.12961 0.04185 0.23216 0.0
C890 C 0.13032 0.05828 0.08357 0.0
C891 C 0.11274 0.04506 0.03181 0.0
N892 N 0.08406 0.01824 0.03116 0.0
N893 N 0.14669 0.07068 0.24155 0.0
C894 C 0.10393 0.03017 0.07965 0.0
C895 C 0.13593 0.05716 0.1862 0.0
N896 N 0.11302 1.01299 0.22128 0.0
N897 N 0.14289 0.07158 0.03345 0.0
H898 H 0.15099 0.07012 0.31685 0.0
H899 H 0.1485 0.08266 0.2147 0.0
H900 H 0.14008 0.07246 0.95781 0.0
H901 H 0.15887 0.08095 0.06493 0.0
H902 H 0.10573 1.00203 0.18393 0.0
H903 H 0.12147 1.01124 0.29305 0.0
H904 H 0.07367 1.00775 0.06442 0.0
H905 H 0.07569 0.0195 0.95885 0.0
C906 C 0.14317 0.22279 0.20044 0.0
C907 C 0.11187 0.23019 0.24269 0.0
C908 C 0.09424 0.24053 0.08194 0.0
C909 C 0.12686 0.23421 0.04133 0.0
N910 N 0.18385 0.22059 0.06058 0.0
N911 N 0.05936 0.24741 0.22867 0.0
C912 C 0.15173 0.22565 0.1004 0.0
C913 C 0.08778 0.23938 0.18451 0.0
N914 N 0.16394 0.21261 0.25565 0.0
N915 N 0.06938 0.24744 0.02152 0.0
H916 H 0.05433 0.24677 0.30363 0.0
H917 H 0.04231 0.25557 0.19319 0.0
H918 H 0.07371 0.24842 0.94652 0.0
H919 H 0.04363 0.2511 0.04368 0.0
H920 H 0.18531 0.20553 0.22778 0.0
H921 H 0.1582 0.21037 0.32889 0.0
H922 H 0.20502 0.21576 0.10101 0.0
H923 H 0.19001 0.22206 0.98676 0.0
C924 C 0.88625 0.99717 0.95614 0.0
C925 C 0.89399 0.98203 1.0027 0.0
C926 C 0.87982 0.96638 0.85036 0.0
C927 C 0.87449 0.9816 0.80238 0.0
N928 N 0.87688 1.01153 0.80442 0.0
N929 N 0.90197 0.95238 0.99437 0.0
C930 C 0.8788 0.99702 0.85407 0.0
C931 C 0.89169 0.96663 0.94983 0.0
N932 N 0.88501 1.01168 1.01065 0.0
N933 N 0.87253 0.95174 0.80106 0.0
H934 H 0.91051 0.95233 0.06711 0.0
H935 H 0.90425 0.94086 0.95822 0.0
H936 H 0.86403 0.95134 0.72823 0.0
H937 H 0.87259 0.94017 0.83341 0.0
H938 H 0.87562 0.0229 0.98421 0.0
H939 H 0.89073 1.01225 0.08527 0.0
H940 H 0.88385 0.02312 0.83462 0.0
H941 H 0.87087 1.01187 0.73008 0.0
C942 C 0.91181 0.78161 0.9173 0.0
C943 C 0.8842 0.79116 0.96431 0.0
C944 C 0.87432 0.80629 0.81227 0.0
C945 C 0.90044 0.79609 0.76405 0.0
N946 N 0.94202 0.77326 0.76523 0.0
N947 N 0.83667 0.81134 0.9564 0.0
C948 C 0.91863 0.78351 0.8153 0.0
C949 C 0.8649 0.80325 0.91171 0.0
N950 N 0.93211 0.77107 0.97145 0.0
N951 N 0.85893 0.81898 0.76256 0.0
H952 H 0.82945 0.80932 0.02894 0.0
H953 H 0.81908 0.81924 0.92076 0.0
H954 H 0.86451 0.82103 0.68899 0.0
H955 H 0.84222 0.82799 0.79476 0.0
H956 H 0.95485 0.76481 0.94507 0.0
H957 H 0.92768 0.76945 0.0459 0.0
H958 H 0.9539 0.76277 0.7945 0.0
H959 H 0.948 0.77473 0.69132 0.0
C960 C 0.64548 0.55603 0.07636 0.0
C961 C 0.61772 0.54674 0.02877 0.0
C962 C 0.60417 0.53269 0.18223 0.0
C963 C 0.6329 0.54151 0.22909 0.0
N964 N 0.68329 0.56016 0.22088 0.0
N965 N 0.57268 0.52534 0.03053 0.0
C966 C 0.65413 0.55287 0.17608 0.0
C967 C 0.59762 0.5348 0.08033 0.0
N968 N 0.66311 0.56802 0.02576 0.0
N969 N 0.58272 0.5226 0.23641 0.0
H970 H 0.56707 0.52696 0.95658 0.0
H971 H 0.55899 0.51533 0.05999 0.0
H972 H 0.58721 0.5207 0.31052 0.0
H973 H 0.55929 0.51689 0.21037 0.0
H974 H 0.68144 0.5764 0.05711 0.0
H975 H 0.65799 0.57012 0.95205 0.0
H976 H 0.7021 0.56748 0.1853 0.0
H977 H 0.68988 0.55807 0.29372 0.0
C978 C 0.60121 0.74397 0.07621 0.0
C979 C 0.63012 0.73498 0.03156 0.0
C980 C 0.64134 0.72083 0.18615 0.0
C981 C 0.61391 0.73056 0.23214 0.0
N982 N 0.56953 0.7522 0.22623 0.0
N983 N 0.67976 0.716 0.04326 0.0
C984 C 0.59427 0.74235 0.17833 0.0
C985 C 0.65065 0.72364 0.08639 0.0
N986 N 0.58004 0.75378 0.01978 0.0
N987 N 0.65794 0.70873 0.23812 0.0
H988 H 0.68664 0.71774 0.97018 0.0
H989 H 0.69818 0.70873 0.08041 0.0
H990 H 0.65214 0.70678 0.31166 0.0
H991 H 0.67589 0.70007 0.20777 0.0
H992 H 0.55642 0.75953 0.04428 0.0
H993 H 0.58487 0.75529 0.94537 0.0
H994 H 0.55629 0.76214 0.19475 0.0
H995 H 0.56375 0.75101 0.30048 0.0
C996 C 0.38063 0.46695 0.96915 0.0
C997 C 0.40148 0.47987 0.0139 0.0
C998 C 0.40625 0.49364 0.85618 0.0
C999 C 0.38269 0.48156 0.81351 0.0
N1000 N 0.345 0.4575 0.82854 0.0
N1001 N 0.43052 0.50652 1.00506 0.0
C1002 C 0.36933 0.46836 0.86981 0.0
C1003 C 0.41349 0.49346 0.9585 0.0
N1004 N 0.37255 0.45318 0.02139 0.0
N1005 N 0.42213 0.5051 0.7979 0.0
H1006 H 0.43567 0.50678 0.08013 0.0
H1007 H 0.43696 0.5176 0.97138 0.0
H1008 H 0.41717 0.50553 0.72291 0.0
H1009 H 0.44242 0.51322 0.82173 0.0
H1010 H 0.36018 0.44258 0.99141 0.0
H1011 H 0.38061 0.4519 0.09393 0.0
H1012 H 0.33126 0.4485 0.8674 0.0
H1013 H 0.337 0.45817 0.75554 0.0
C1014 C 0.35901 0.30091 0.93629 0.0
C1015 C 0.38253 0.29137 0.99422 0.0
C1016 C 0.42272 0.28671 0.85244 0.0
C1017 C 0.39854 0.29575 0.7936 0.0
N1018 N 0.34359 0.31115 0.77516 0.0
N1019 N 0.4356 0.2746 1.01032 0.0
C1020 C 0.36657 0.30276 0.83452 0.0
C1021 C 0.41421 0.28415 0.95296 0.0
N1022 N 0.32982 0.30837 0.98013 0.0
N1023 N 0.45396 0.28075 0.81137 0.0
H1024 H 0.43036 0.27308 0.08446 0.0
H1025 H 0.45775 0.26778 0.98513 0.0
H1026 H 0.45989 0.28196 0.73723 0.0
H1027 H 0.47453 0.27511 0.85007 0.0
H1028 H 0.31225 0.31639 0.94553 0.0
H1029 H 0.32395 0.30704 0.05422 0.0
H1030 H 0.31845 0.31568 0.79669 0.0
H1031 H 0.3493 0.31318 0.70169 0.0
C1032 C 0.63094 0.05988 0.58406 0.0
C1033 C 0.61052 0.04684 0.53909 0.0
C1034 C 0.60553 0.03315 0.6969 0.0
C1035 C 0.62879 0.04532 0.73974 0.0
N1036 N 0.66622 0.06947 0.72496 0.0
N1037 N 0.58268 0.01989 0.54766 0.0
C1038 C 0.64211 0.05854 0.68351 0.0
C1039 C 0.59881 0.03318 0.5944 0.0
N1040 N 0.63866 0.07373 0.53207 0.0
N1041 N 0.58942 0.02175 0.75513 0.0
H1042 H 0.57823 0.01943 0.47228 0.0
H1043 H 0.57658 1.0088 0.58171 0.0
H1044 H 0.59397 0.02145 0.83038 0.0
H1045 H 0.56929 0.01359 0.73081 0.0
H1046 H 0.65067 0.08439 0.56238 0.0
H1047 H 0.63057 0.07499 0.45954 0.0
H1048 H 0.67994 0.07848 0.68606 0.0
H1049 H 0.67407 0.06885 0.79811 0.0
C1050 C 0.63407 0.21847 0.71797 0.0
C1051 C 0.61722 0.23198 0.76904 0.0
C1052 C 0.62189 0.24881 0.6222 0.0
C1053 C 0.63539 0.23478 0.56888 0.0
N1054 N 0.65025 0.2057 0.56069 0.0
N1055 N 0.59086 0.25928 0.76815 0.0
C1056 C 0.64028 0.21942 0.61541 0.0
C1057 C 0.61002 0.247 0.72064 0.0
N1058 N 0.64544 0.20502 0.76868 0.0
N1059 N 0.62159 0.26395 0.57925 0.0
H1060 H 0.58187 0.2582 0.8401 0.0
H1061 H 0.58158 0.26992 0.73428 0.0
H1062 H 0.63071 0.26552 0.50784 0.0
H1063 H 0.61516 0.27505 0.61638 0.0
H1064 H 0.66088 0.19541 0.73778 0.0
H1065 H 0.64227 0.20424 0.84426 0.0
H1066 H 0.6509 0.19372 0.58783 0.0
H1067 H 0.65515 0.20615 0.48557 0.0
C1068 C 0.39773 0.99902 0.47732 0.0
C1069 C 0.39354 0.98378 0.52596 0.0
C1070 C 0.37407 0.97011 0.37222 0.0
C1071 C 0.37515 0.98563 0.32544 0.0
N1072 N 0.38391 0.01525 0.33426 0.0
N1073 N 0.37158 0.95561 0.52548 0.0
C1074 C 0.38596 1.00023 0.37828 0.0
C1075 C 0.37994 0.96953 0.47488 0.0
N1076 N 0.41393 1.01214 0.52535 0.0
N1077 N 0.36882 0.95583 0.31746 0.0
H1078 H 0.37495 0.95496 0.60104 0.0
H1079 H 0.35825 0.94535 0.49436 0.0
H1080 H 0.36566 0.95583 0.24162 0.0
H1081 H 0.37114 0.94395 0.34552 0.0
H1082 H 0.42108 0.02315 0.49179 0.0
H1083 H 0.42253 1.01151 0.59787 0.0
H1084 H 0.3881 0.02661 0.37097 0.0
H1085 H 0.37546 0.01637 0.26193 0.0
C1086 C 0.38885 0.77994 0.31153 0.0
C1087 C 0.39485 0.79534 0.26612 0.0
C1088 C 0.38239 0.81043 0.42139 0.0
C1089 C 0.37535 0.79505 0.46617 0.0
N1090 N 0.36965 0.7653 0.45657 0.0
N1091 N 0.39442 0.8252 0.2713 0.0
C1092 C 0.3779 0.77981 0.4117 0.0
C1093 C 0.39086 0.8106 0.31951 0.0
N1094 N 0.39456 0.76549 0.25861 0.0
N1095 N 0.38122 0.82478 0.47732 0.0
H1096 H 0.40079 0.82552 0.19695 0.0
H1097 H 0.38925 0.83691 0.30254 0.0
H1098 H 0.37385 0.82495 0.55107 0.0
H1099 H 0.38896 0.8364 0.45282 0.0
H1100 H 0.39344 0.75366 0.28749 0.0
H1101 H 0.40202 0.76537 0.18492 0.0
H1102 H 0.36788 0.75374 0.42065 0.0
H1103 H 0.36319 0.76489 0.5308 0.0
C1104 C 0.16765 0.62774 0.20179 0.0
C1105 C 0.16419 0.61937 0.10915 0.0
C1106 C 0.15735 0.64655 0.03126 0.0
C1107 C 0.16307 0.65497 0.123 0.0
N1108 N 0.18219 0.65342 0.29109 0.0
N1109 N 0.16444 0.62105 0.93344 0.0
C1110 C 0.17092 0.64548 0.20682 0.0
C1111 C 0.16187 0.62889 0.0232 0.0
N1112 N 0.1659 0.61888 0.28564 0.0
N1113 N 0.14549 0.65522 0.95282 0.0
H1114 H 0.16816 0.60822 0.92498 0.0
H1115 H 0.16652 0.62742 0.86826 0.0
H1116 H 0.14084 0.66802 0.95566 0.0
H1117 H 0.13704 0.64949 0.88744 0.0
H1118 H 0.16396 0.62446 0.3552 0.0
H1119 H 0.16331 0.60595 0.28568 0.0
H1120 H 0.19166 0.64715 0.35161 0.0
H1121 H 0.18551 0.66632 0.29693 0.0
C1122 C 0.84907 0.39797 0.79604 0.0
C1123 C 0.85528 0.40684 0.88614 0.0
C1124 C 0.86431 0.37999 0.96567 0.0
C1125 C 0.854 0.37112 0.87843 0.0
N1126 N 0.82583 0.37263 0.71946 0.0
N1127 N 0.85735 0.40546 0.06251 0.0
C1128 C 0.84294 0.38042 0.79643 0.0
C1129 C 0.85917 0.39757 0.97283 0.0
N1130 N 0.8512 0.40592 0.70914 0.0
N1131 N 0.88122 0.37199 0.0397 0.0
H1132 H 0.85181 0.41815 0.07103 0.0
H1133 H 0.85715 0.39903 0.12778 0.0
H1134 H 0.88837 0.35945 0.03519 0.0
H1135 H 0.89197 0.37831 0.10065 0.0
H1136 H 0.85013 0.39958 0.64157 0.0
H1137 H 0.85813 0.41844 0.70405 0.0
H1138 H 0.81467 0.37911 0.66175 0.0
H1139 H 0.81917 0.36 0.71908 0.0
C1140 C 0.13945 0.12952 0.73436 0.0
C1141 C 0.15113 0.12029 0.64968 0.0
C1142 C 0.15937 0.14678 0.56491 0.0
C1143 C 0.15116 0.15599 0.65264 0.0
N1144 N 0.14364 0.15549 0.82806 0.0
N1145 N 0.18176 0.12081 0.49371 0.0
C1146 C 0.1445 0.14714 0.73965 0.0
C1147 C 0.16411 0.12915 0.5679 0.0
N1148 N 0.12149 0.12175 0.80763 0.0
N1149 N 0.16061 0.15458 0.47738 0.0
H1150 H 0.18699 0.10805 0.49493 0.0
H1151 H 0.19458 0.12685 0.43675 0.0
H1152 H 0.15559 0.16726 0.47044 0.0
H1153 H 0.16287 0.14813 0.41041 0.0
H1154 H 0.10941 0.12823 0.86612 0.0
H1155 H 0.11511 0.10911 0.80484 0.0
H1156 H 0.14206 0.14944 0.89448 0.0
H1157 H 0.1486 0.16825 0.83543 0.0
C1158 C 0.84282 0.89676 0.29956 0.0
C1159 C 0.85553 0.90595 0.38306 0.0
C1160 C 0.86922 0.87954 0.46406 0.0
C1161 C 0.85559 0.87035 0.38159 0.0
N1162 N 0.82349 0.87008 0.2286 0.0
N1163 N 0.87513 0.90625 0.55112 0.0
C1164 C 0.84057 0.87897 0.30171 0.0
C1165 C 0.86681 0.89735 0.46741 0.0
N1166 N 0.83385 0.90505 0.21697 0.0
N1167 N 0.88617 0.87129 0.5372 0.0
H1168 H 0.87479 0.91924 0.55543 0.0
H1169 H 0.87969 0.90084 0.61834 0.0
H1170 H 0.88796 0.85834 0.53839 0.0
H1171 H 0.9006 0.87722 0.59343 0.0
H1172 H 0.82862 0.89916 0.14967 0.0
H1173 H 0.83368 0.91802 0.21407 0.0
H1174 H 0.80883 0.87551 0.17294 0.0
H1175 H 0.8214 0.85712 0.2281 0.0
C1176 C 0.65989 0.64738 0.53388 0.0
C1177 C 0.66221 0.65677 0.62352 0.0
C1178 C 0.66216 0.63052 0.71341 0.0
C1179 C 0.66223 0.62112 0.62356 0.0
N1180 N 0.67098 0.62097 0.44865 0.0
N1181 N 0.67538 0.65692 0.79629 0.0
C1182 C 0.6643 0.62971 0.53395 0.0
C1183 C 0.66658 0.64819 0.71248 0.0
N1184 N 0.65128 0.65512 0.44917 0.0
N1185 N 0.65566 0.6228 0.79958 0.0
H1186 H 0.67961 0.66977 0.79784 0.0
H1187 H 0.6822 0.65122 0.86132 0.0
H1188 H 0.65112 0.61004 0.80393 0.0
H1189 H 0.65136 0.62929 0.86564 0.0
H1190 H 0.64531 0.64863 0.38409 0.0
H1191 H 0.64677 0.66789 0.44566 0.0
H1192 H 0.67613 0.62667 0.38248 0.0
H1193 H 0.67515 0.60812 0.44625 0.0
C1194 C 0.36521 0.39673 0.50188 0.0
C1195 C 0.35328 0.40549 0.41886 0.0
C1196 C 0.33777 0.37867 0.33661 0.0
C1197 C 0.3538 0.36991 0.4145 0.0
N1198 N 0.38578 0.3706 0.5681 0.0
N1199 N 0.33026 0.40491 0.25413 0.0
C1200 C 0.36798 0.37895 0.49686 0.0
C1201 C 0.33983 0.39646 0.33565 0.0
N1202 N 0.37374 0.40548 0.58595 0.0
N1203 N 0.32004 0.36991 0.26416 0.0
H1204 H 0.33011 0.41789 0.25211 0.0
H1205 H 0.32449 0.39913 0.18682 0.0
H1206 H 0.31813 0.35694 0.26275 0.0
H1207 H 0.30471 0.37544 0.21022 0.0
H1208 H 0.37906 0.39992 0.65233 0.0
H1209 H 0.37252 0.41845 0.59154 0.0
H1210 H 0.40053 0.37648 0.6239 0.0
H1211 H 0.388 0.35766 0.56792 0.0
C1212 C 0.6794 0.14783 0.19872 0.0
C1213 C 0.65634 0.1567 0.13526 0.0
C1214 C 0.63705 0.12997 0.05875 0.0
C1215 C 0.65629 0.12112 0.13072 0.0
N1216 N 0.69326 0.12166 0.27568 0.0
N1217 N 0.60947 0.156 1.01267 0.0
C1218 C 0.67704 0.13007 0.20206 0.0
C1219 C 0.63438 0.1477 0.0667 0.0
N1220 N 0.70415 0.15641 0.25449 0.0
N1221 N 0.62167 0.12138 0.98176 0.0
H1222 H 0.60629 0.16889 0.01662 0.0
H1223 H 0.58985 0.15001 0.97001 0.0
H1224 H 0.6232 0.10844 0.97357 0.0
H1225 H 0.61045 0.12712 0.92152 0.0
H1226 H 0.72419 0.15067 0.2949 0.0
H1227 H 0.70673 0.16934 0.25339 0.0
H1228 H 0.7051 0.12754 0.33648 0.0
H1229 H 0.69271 0.10871 0.27955 0.0
C1230 C 0.33782 0.88039 0.95861 0.0
C1231 C 0.35729 0.87151 0.88423 0.0
C1232 C 0.37747 0.89817 0.8175 0.0
C1233 C 0.35609 0.90707 0.88789 0.0
N1234 N 0.30953 0.9064 1.0111 0.0
N1235 N 0.38819 0.87204 0.72895 0.0
C1236 C 0.33427 0.89807 0.954 0.0
C1237 C 0.37474 0.88046 0.80927 0.0
N1238 N 0.32414 0.87208 0.03633 0.0
N1239 N 0.40196 0.90647 0.76199 0.0
H1240 H 0.38617 0.85914 0.71958 0.0
H1241 H 0.39796 0.87797 0.66743 0.0
H1242 H 0.40565 0.91933 0.76703 0.0
H1243 H 0.42102 0.90044 0.71753 0.0
H1244 H 0.31333 0.87808 0.09822 0.0
H1245 H 0.3263 0.85922 0.04287 0.0
H1246 H 0.29041 0.90042 0.05368 0.0
H1247 H 0.30578 0.91926 1.00848 0.0
loop_
_geom_bond_atom_site_label_1
_geom_bond_atom_site_label_2
_geom_bond_distance
_geom_bond_site_symmetry_2
_ccdc_geom_bond_type
Co0 N4 2.148 1_554 S
Co0 N10 2.128 . S
Co0 N20 2.194 . S
Co0 O25 2.351 . S
Co0 O26 2.155 . S
Co0 O27 2.096 . S
C1 N4 1.301 . S
C1 N5 1.328 . S
C1 H6 0.930 . S
C2 C3 1.333 . S
C2 N4 1.317 . S
C2 H7 0.930 . S
C3 C2 1.333 . S
C3 N5 1.350 . S
C3 H29 0.931 . S
N4 Co0 2.148 1_556 S
N4 C1 1.301 . S
N4 C2 1.317 . S
N5 C1 1.328 . S
N5 C3 1.350 . S
H6 C1 0.930 . S
H7 C2 0.930 . S
C8 O9 1.224 . S
C8 O27 1.247 . S
O9 C8 1.224 . S
N10 Co0 2.128 . S
N10 C11 1.355 . S
N10 C13 1.311 . S
C11 N10 1.355 . S
C11 C12 1.363 . S
C11 H23 0.929 . S
C12 C11 1.363 . S
C12 N14 1.375 . S
C12 H30 0.931 . S
C13 N10 1.311 . S
C13 N14 1.347 . S
C13 H24 0.929 . S
N14 C12 1.375 . S
N14 C13 1.347 . S
C15 C18 1.365 . S
C15 N20 1.328 . S
C15 H21 0.929 . S
C16 C17 1.362 . S
C16 C19 1.378 . S
C16 H31 0.929 . S
C17 C16 1.362 . S
C17 C18 1.366 . S
C18 C15 1.365 . S
C18 C17 1.366 . S
C18 H32 0.930 . S
C19 C16 1.378 . S
C19 N20 1.315 . S
C19 H22 0.930 . S
N20 Co0 2.194 . S
N20 C15 1.328 . S
N20 C19 1.315 . S
H21 C15 0.929 . S
H22 C19 0.930 . S
H23 C11 0.929 . S
H24 C13 0.929 . S
O25 Co0 2.351 . S
O25 C28 1.244 . S
O26 Co0 2.155 . S
O26 C28 1.240 . S
O27 Co0 2.096 . S
O27 C8 1.247 . S
C28 O25 1.244 . S
C28 O26 1.240 . S
H29 C3 0.931 . S
H30 C12 0.931 . S
H31 C16 0.929 . S
H32 C18 0.930 . S
Co33 N37 2.148 . S
Co33 N43 2.128 1_554 S
Co33 N53 2.194 . S
Co33 O58 2.351 . S
Co33 O59 2.155 . S
Co33 O60 2.096 . S
C34 N37 1.301 . S
C34 N38 1.328 . S
C34 H39 0.930 . S
C35 C36 1.333 . S
C35 N37 1.317 . S
C35 H40 0.930 . S
C36 C35 1.333 . S
C36 N38 1.350 . S
C36 H62 0.931 . S
N37 Co33 2.148 . S
N37 C34 1.301 . S
N37 C35 1.317 . S
N38 C34 1.328 . S
N38 C36 1.350 . S
H39 C34 0.930 . S
H40 C35 0.930 . S
C41 O42 1.224 . S
C41 O60 1.247 . S
O42 C41 1.224 . S
N43 Co33 2.128 1_556 S
N43 C44 1.355 . S
N43 C46 1.311 . S
C44 N43 1.355 . S
C44 C45 1.363 . S
C44 H56 0.929 . S
C45 C44 1.363 . S
C45 N47 1.375 . S
C45 H63 0.931 . S
C46 N43 1.311 . S
C46 N47 1.347 . S
C46 H57 0.929 . S
N47 C45 1.375 . S
N47 C46 1.347 . S
C48 C51 1.365 . S
C48 N53 1.328 . S
C48 H54 0.929 . S
C49 C50 1.362 . S
C49 C52 1.378 . S
C49 H64 0.929 . S
C50 C49 1.362 . S
C50 C51 1.366 . S
C51 C48 1.365 . S
C51 C50 1.366 . S
C51 H65 0.930 . S
C52 C49 1.378 . S
C52 N53 1.315 . S
C52 H55 0.930 . S
N53 Co33 2.194 . S
N53 C48 1.328 . S
N53 C52 1.315 . S
H54 C48 0.929 . S
H55 C52 0.930 . S
H56 C44 0.929 . S
H57 C46 0.929 . S
O58 Co33 2.351 . S
O58 C61 1.244 . S
O59 Co33 2.155 . S
O59 C61 1.240 . S
O60 Co33 2.096 . S
O60 C41 1.247 . S
C61 O58 1.244 . S
C61 O59 1.240 . S
H62 C36 0.931 . S
H63 C45 0.931 . S
H64 C49 0.929 . S
H65 C51 0.930 . S
Co66 N70 2.148 1_556 S
Co66 N76 2.128 . S
Co66 N86 2.194 . S
Co66 O91 2.351 . S
Co66 O92 2.155 . S
Co66 O93 2.096 . S
C67 N70 1.301 . S
C67 N71 1.328 . S
C67 H72 0.930 . S
C68 C69 1.333 . S
C68 N70 1.317 . S
C68 H73 0.930 . S
C69 C68 1.333 . S
C69 N71 1.350 . S
C69 H95 0.931 . S
N70 Co66 2.148 1_554 S
N70 C67 1.301 . S
N70 C68 1.317 . S
N71 C67 1.328 . S
N71 C69 1.350 . S
H72 C67 0.930 . S
H73 C68 0.930 . S
C74 O75 1.224 . S
C74 O93 1.247 . S
O75 C74 1.224 . S
N76 Co66 2.128 . S
N76 C77 1.355 . S
N76 C79 1.311 . S
C77 N76 1.355 . S
C77 C78 1.363 . S
C77 H89 0.929 . S
C78 C77 1.363 . S
C78 N80 1.375 . S
C78 H96 0.931 . S
C79 N76 1.311 . S
C79 N80 1.347 . S
C79 H90 0.929 . S
N80 C78 1.375 . S
N80 C79 1.347 . S
C81 C84 1.365 . S
C81 N86 1.328 . S
C81 H87 0.929 . S
C82 C83 1.362 . S
C82 C85 1.378 . S
C82 H97 0.929 . S
C83 C82 1.362 . S
C83 C84 1.366 . S
C84 C81 1.365 . S
C84 C83 1.366 . S
C84 H98 0.930 . S
C85 C82 1.378 . S
C85 N86 1.315 . S
C85 H88 0.930 . S
N86 Co66 2.194 . S
N86 C81 1.328 . S
N86 C85 1.315 . S
H87 C81 0.929 . S
H88 C85 0.930 . S
H89 C77 0.929 . S
H90 C79 0.929 . S
O91 Co66 2.351 . S
O91 C94 1.244 . S
O92 Co66 2.155 . S
O92 C94 1.240 . S
O93 Co66 2.096 . S
O93 C74 1.247 . S
C94 O91 1.244 . S
C94 O92 1.240 . S
H95 C69 0.931 . S
H96 C78 0.931 . S
H97 C82 0.929 . S
H98 C84 0.930 . S
Co99 N103 2.148 . S
Co99 N109 2.128 1_556 S
Co99 N119 2.194 . S
Co99 O124 2.351 . S
Co99 O125 2.155 . S
Co99 O126 2.096 . S
C100 N103 1.301 . S
C100 N104 1.328 . S
C100 H105 0.930 . S
C101 C102 1.333 . S
C101 N103 1.317 . S
C101 H106 0.930 . S
C102 C101 1.333 . S
C102 N104 1.350 . S
C102 H128 0.931 . S
N103 Co99 2.148 . S
N103 C100 1.301 . S
N103 C101 1.317 . S
N104 C100 1.328 . S
N104 C102 1.350 . S
H105 C100 0.930 . S
H106 C101 0.930 . S
C107 O108 1.224 . S
C107 O126 1.247 . S
O108 C107 1.224 . S
N109 Co99 2.128 1_554 S
N109 C110 1.355 . S
N109 C112 1.311 . S
C110 N109 1.355 . S
C110 C111 1.363 . S
C110 H122 0.929 . S
C111 C110 1.363 . S
C111 N113 1.375 . S
C111 H129 0.931 . S
C112 N109 1.311 . S
C112 N113 1.347 . S
C112 H123 0.929 . S
N113 C111 1.375 . S
N113 C112 1.347 . S
C114 C117 1.365 . S
C114 N119 1.328 . S
C114 H120 0.929 . S
C115 C116 1.362 . S
C115 C118 1.378 . S
C115 H130 0.929 . S
C116 C115 1.362 . S
C116 C117 1.366 . S
C117 C114 1.365 . S
C117 C116 1.366 . S
C117 H131 0.930 . S
C118 C115 1.378 . S
C118 N119 1.315 . S
C118 H121 0.930 . S
N119 Co99 2.194 . S
N119 C114 1.328 . S
N119 C118 1.315 . S
H120 C114 0.929 . S
H121 C118 0.930 . S
H122 C110 0.929 . S
H123 C112 0.929 . S
O124 Co99 2.351 . S
O124 C127 1.244 . S
O125 Co99 2.155 . S
O125 C127 1.240 . S
O126 Co99 2.096 . S
O126 C107 1.247 . S
C127 O124 1.244 . S
C127 O125 1.240 . S
H128 C102 0.931 . S
H129 C111 0.931 . S
H130 C115 0.929 . S
H131 C117 0.930 . S
Co132 N136 2.148 . S
Co132 N142 2.128 . S
Co132 N152 2.194 . S
Co132 O157 2.351 . S
Co132 O158 2.155 . S
Co132 O159 2.096 . S
C133 N136 1.301 . S
C133 N137 1.328 . S
C133 H138 0.930 . S
C134 C135 1.333 . S
C134 N136 1.317 . S
C134 H139 0.930 . S
C135 C134 1.333 . S
C135 N137 1.350 . S
C135 H161 0.931 . S
N136 Co132 2.148 . S
N136 C133 1.301 . S
N136 C134 1.317 . S
N137 C133 1.328 . S
N137 C135 1.350 . S
H138 C133 0.930 . S
H139 C134 0.930 . S
C140 O141 1.224 . S
C140 O159 1.247 . S
O141 C140 1.224 . S
N142 Co132 2.128 . S
N142 C143 1.355 . S
N142 C145 1.311 . S
C143 N142 1.355 . S
C143 C144 1.363 . S
C143 H155 0.929 . S
C144 C143 1.363 . S
C144 N146 1.375 . S
C144 H162 0.931 . S
C145 N142 1.311 . S
C145 N146 1.347 . S
C145 H156 0.929 . S
N146 C144 1.375 . S
N146 C145 1.347 . S
C147 C150 1.365 . S
C147 N152 1.328 . S
C147 H153 0.929 . S
C148 C149 1.362 . S
C148 C151 1.378 . S
C148 H163 0.929 . S
C149 C148 1.362 . S
C149 C150 1.366 . S
C150 C147 1.365 . S
C150 C149 1.366 . S
C150 H164 0.930 . S
C151 C148 1.378 . S
C151 N152 1.315 . S
C151 H154 0.930 . S
N152 Co132 2.194 . S
N152 C147 1.328 . S
N152 C151 1.315 . S
H153 C147 0.929 . S
H154 C151 0.930 . S
H155 C143 0.929 . S
H156 C145 0.929 . S
O157 Co132 2.351 . S
O157 C160 1.244 . S
O158 Co132 2.155 . S
O158 C160 1.240 . S
O159 Co132 2.096 . S
O159 C140 1.247 . S
C160 O157 1.244 . S
C160 O158 1.240 . S
H161 C135 0.931 . S
H162 C144 0.931 . S
H163 C148 0.929 . S
H164 C150 0.930 . S
Co165 N169 2.148 . S
Co165 N175 2.128 . S
Co165 N185 2.194 . S
Co165 O190 2.351 . S
Co165 O191 2.155 . S
Co165 O192 2.096 . S
C166 N169 1.301 . S
C166 N170 1.328 . S
C166 H171 0.930 . S
C167 C168 1.333 . S
C167 N169 1.317 . S
C167 H172 0.930 . S
C168 C167 1.333 . S
C168 N170 1.350 . S
C168 H194 0.931 . S
N169 Co165 2.148 . S
N169 C166 1.301 . S
N169 C167 1.317 . S
N170 C166 1.328 . S
N170 C168 1.350 . S
H171 C166 0.930 . S
H172 C167 0.930 . S
C173 O174 1.224 . S
C173 O192 1.247 . S
O174 C173 1.224 . S
N175 Co165 2.128 . S
N175 C176 1.355 . S
N175 C178 1.311 . S
C176 N175 1.355 . S
C176 C177 1.363 . S
C176 H188 0.929 . S
C177 C176 1.363 . S
C177 N179 1.375 . S
C177 H195 0.931 . S
C178 N175 1.311 . S
C178 N179 1.347 . S
C178 H189 0.929 . S
N179 C177 1.375 . S
N179 C178 1.347 . S
C180 C183 1.365 . S
C180 N185 1.328 . S
C180 H186 0.929 . S
C181 C182 1.362 . S
C181 C184 1.378 . S
C181 H196 0.929 . S
C182 C181 1.362 . S
C182 C183 1.366 . S
C183 C180 1.365 . S
C183 C182 1.366 . S
C183 H197 0.930 . S
C184 C181 1.378 . S
C184 N185 1.315 . S
C184 H187 0.930 . S
N185 Co165 2.194 . S
N185 C180 1.328 . S
N185 C184 1.315 . S
H186 C180 0.929 . S
H187 C184 0.930 . S
H188 C176 0.929 . S
H189 C178 0.929 . S
O190 Co165 2.351 . S
O190 C193 1.244 . S
O191 Co165 2.155 . S
O191 C193 1.240 . S
O192 Co165 2.096 . S
O192 C173 1.247 . S
C193 O190 1.244 . S
C193 O191 1.240 . S
H194 C168 0.931 . S
H195 C177 0.931 . S
H196 C181 0.929 . S
H197 C183 0.930 . S
Co198 N202 2.148 . S
Co198 N208 2.128 . S
Co198 N218 2.194 . S
Co198 O223 2.351 . S
Co198 O224 2.155 . S
Co198 O225 2.096 . S
C199 N202 1.301 . S
C199 N203 1.328 . S
C199 H204 0.930 . S
C200 C201 1.333 . S
C200 N202 1.317 . S
C200 H205 0.930 . S
C201 C200 1.333 . S
C201 N203 1.350 . S
C201 H227 0.931 . S
N202 Co198 2.148 . S
N202 C199 1.301 . S
N202 C200 1.317 . S
N203 C199 1.328 . S
N203 C201 1.350 . S
H204 C199 0.930 . S
H205 C200 0.930 . S
C206 O207 1.224 . S
C206 O225 1.247 . S
O207 C206 1.224 . S
N208 Co198 2.128 . S
N208 C209 1.355 . S
N208 C211 1.311 . S
C209 N208 1.355 . S
C209 C210 1.363 . S
C209 H221 0.929 . S
C210 C209 1.363 . S
C210 N212 1.375 . S
C210 H228 0.931 . S
C211 N208 1.311 . S
C211 N212 1.347 . S
C211 H222 0.929 . S
N212 C210 1.375 . S
N212 C211 1.347 . S
C213 C216 1.365 . S
C213 N218 1.328 . S
C213 H219 0.929 . S
C214 C215 1.362 . S
C214 C217 1.378 . S
C214 H229 0.929 . S
C215 C214 1.362 . S
C215 C216 1.366 . S
C216 C213 1.365 . S
C216 C215 1.366 . S
C216 H230 0.930 . S
C217 C214 1.378 . S
C217 N218 1.315 . S
C217 H220 0.930 . S
N218 Co198 2.194 . S
N218 C213 1.328 . S
N218 C217 1.315 . S
H219 C213 0.929 . S
H220 C217 0.930 . S
H221 C209 0.929 . S
H222 C211 0.929 . S
O223 Co198 2.351 . S
O223 C226 1.244 . S
O224 Co198 2.155 . S
O224 C226 1.240 . S
O225 Co198 2.096 . S
O225 C206 1.247 . S
C226 O223 1.244 . S
C226 O224 1.240 . S
H227 C201 0.931 . S
H228 C210 0.931 . S
H229 C214 0.929 . S
H230 C216 0.930 . S
Co231 N235 2.148 . S
Co231 N241 2.128 . S
Co231 N251 2.194 . S
Co231 O256 2.351 . S
Co231 O257 2.155 . S
Co231 O258 2.096 . S
C232 N235 1.301 . S
C232 N236 1.328 . S
C232 H237 0.930 . S
C233 C234 1.333 . S
C233 N235 1.317 . S
C233 H238 0.930 . S
C234 C233 1.333 . S
C234 N236 1.350 . S
C234 H260 0.931 . S
N235 Co231 2.148 . S
N235 C232 1.301 . S
N235 C233 1.317 . S
N236 C232 1.328 . S
N236 C234 1.350 . S
H237 C232 0.930 . S
H238 C233 0.930 . S
C239 O240 1.224 . S
C239 O258 1.247 . S
O240 C239 1.224 . S
N241 Co231 2.128 . S
N241 C242 1.355 . S
N241 C244 1.311 . S
C242 N241 1.355 . S
C242 C243 1.363 . S
C242 H254 0.929 . S
C243 C242 1.363 . S
C243 N245 1.375 . S
C243 H261 0.931 . S
C244 N241 1.311 . S
C244 N245 1.347 . S
C244 H255 0.929 . S
N245 C243 1.375 . S
N245 C244 1.347 . S
C246 C249 1.365 . S
C246 N251 1.328 . S
C246 H252 0.929 . S
C247 C248 1.362 . S
C247 C250 1.378 . S
C247 H262 0.929 . S
C248 C247 1.362 . S
C248 C249 1.366 . S
C249 C246 1.365 . S
C249 C248 1.366 . S
C249 H263 0.930 . S
C250 C247 1.378 . S
C250 N251 1.315 . S
C250 H253 0.930 . S
N251 Co231 2.194 . S
N251 C246 1.328 . S
N251 C250 1.315 . S
H252 C246 0.929 . S
H253 C250 0.930 . S
H254 C242 0.929 . S
H255 C244 0.929 . S
O256 Co231 2.351 . S
O256 C259 1.244 . S
O257 Co231 2.155 . S
O257 C259 1.240 . S
O258 Co231 2.096 . S
O258 C239 1.247 . S
C259 O256 1.244 . S
C259 O257 1.240 . S
H260 C234 0.931 . S
H261 C243 0.931 . S
H262 C247 0.929 . S
H263 C249 0.930 . S
Co264 N268 2.148 . S
Co264 N274 2.128 . S
Co264 N284 2.194 . S
Co264 O289 2.351 . S
Co264 O290 2.155 . S
Co264 O291 2.096 . S
C265 N268 1.301 . S
C265 N269 1.328 . S
C265 H270 0.930 . S
C266 C267 1.333 . S
C266 N268 1.317 . S
C266 H271 0.930 . S
C267 C266 1.333 . S
C267 N269 1.350 . S
C267 H293 0.931 . S
N268 Co264 2.148 . S
N268 C265 1.301 . S
N268 C266 1.317 . S
N269 C265 1.328 . S
N269 C267 1.350 . S
H270 C265 0.930 . S
H271 C266 0.930 . S
C272 O273 1.224 . S
C272 O291 1.247 . S
O273 C272 1.224 . S
N274 Co264 2.128 . S
N274 C275 1.355 . S
N274 C277 1.311 . S
C275 N274 1.355 . S
C275 C276 1.363 . S
C275 H287 0.929 . S
C276 C275 1.363 . S
C276 N278 1.375 . S
C276 H294 0.931 . S
C277 N274 1.311 . S
C277 N278 1.347 . S
C277 H288 0.929 . S
N278 C276 1.375 . S
N278 C277 1.347 . S
C279 C282 1.365 . S
C279 N284 1.328 . S
C279 H285 0.929 . S
C280 C281 1.362 . S
C280 C283 1.378 . S
C280 H295 0.929 . S
C281 C280 1.362 . S
C281 C282 1.366 . S
C282 C279 1.365 . S
C282 C281 1.366 . S
C282 H296 0.930 . S
C283 C280 1.378 . S
C283 N284 1.315 . S
C283 H286 0.930 . S
N284 Co264 2.194 . S
N284 C279 1.328 . S
N284 C283 1.315 . S
H285 C279 0.929 . S
H286 C283 0.930 . S
H287 C275 0.929 . S
H288 C277 0.929 . S
O289 Co264 2.351 . S
O289 C292 1.244 . S
O290 Co264 2.155 . S
O290 C292 1.240 . S
O291 Co264 2.096 . S
O291 C272 1.247 . S
C292 O289 1.244 . S
C292 O290 1.240 . S
H293 C267 0.931 . S
H294 C276 0.931 . S
H295 C280 0.929 . S
H296 C282 0.930 . S
Co297 N301 2.148 . S
Co297 N307 2.128 . S
Co297 N317 2.194 . S
Co297 O322 2.351 . S
Co297 O323 2.155 . S
Co297 O324 2.096 . S
C298 N301 1.301 . S
C298 N302 1.328 . S
C298 H303 0.930 . S
C299 C300 1.333 . S
C299 N301 1.317 . S
C299 H304 0.930 . S
C300 C299 1.333 . S
C300 N302 1.350 . S
C300 H326 0.931 . S
N301 Co297 2.148 . S
N301 C298 1.301 . S
N301 C299 1.317 . S
N302 C298 1.328 . S
N302 C300 1.350 . S
H303 C298 0.930 . S
H304 C299 0.930 . S
C305 O306 1.224 . S
C305 O324 1.247 . S
O306 C305 1.224 . S
N307 Co297 2.128 . S
N307 C308 1.355 . S
N307 C310 1.311 . S
C308 N307 1.355 . S
C308 C309 1.363 . S
C308 H320 0.929 . S
C309 C308 1.363 . S
C309 N311 1.375 . S
C309 H327 0.931 . S
C310 N307 1.311 . S
C310 N311 1.347 . S
C310 H321 0.929 . S
N311 C309 1.375 . S
N311 C310 1.347 . S
C312 C315 1.365 . S
C312 N317 1.328 . S
C312 H318 0.929 . S
C313 C314 1.362 . S
C313 C316 1.378 . S
C313 H328 0.929 . S
C314 C313 1.362 . S
C314 C315 1.366 . S
C315 C312 1.365 . S
C315 C314 1.366 . S
C315 H329 0.930 . S
C316 C313 1.378 . S
C316 N317 1.315 . S
C316 H319 0.930 . S
N317 Co297 2.194 . S
N317 C312 1.328 . S
N317 C316 1.315 . S
H318 C312 0.929 . S
H319 C316 0.930 . S
H320 C308 0.929 . S
H321 C310 0.929 . S
O322 Co297 2.351 . S
O322 C325 1.244 . S
O323 Co297 2.155 . S
O323 C325 1.240 . S
O324 Co297 2.096 . S
O324 C305 1.247 . S
C325 O322 1.244 . S
C325 O323 1.240 . S
H326 C300 0.931 . S
H327 C309 0.931 . S
H328 C313 0.929 . S
H329 C315 0.930 . S
Co330 N334 2.148 . S
Co330 N340 2.128 . S
Co330 N350 2.194 . S
Co330 O355 2.351 . S
Co330 O356 2.155 . S
Co330 O357 2.096 . S
C331 N334 1.301 . S
C331 N335 1.328 . S
C331 H336 0.930 . S
C332 C333 1.333 . S
C332 N334 1.317 . S
C332 H337 0.930 . S
C333 C332 1.333 . S
C333 N335 1.350 . S
C333 H359 0.931 . S
N334 Co330 2.148 . S
N334 C331 1.301 . S
N334 C332 1.317 . S
N335 C331 1.328 . S
N335 C333 1.350 . S
H336 C331 0.930 . S
H337 C332 0.930 . S
C338 O339 1.224 . S
C338 O357 1.247 . S
O339 C338 1.224 . S
N340 Co330 2.128 . S
N340 C341 1.355 . S
N340 C343 1.311 . S
C341 N340 1.355 . S
C341 C342 1.363 . S
C341 H353 0.929 . S
C342 C341 1.363 . S
C342 N344 1.375 . S
C342 H360 0.931 . S
C343 N340 1.311 . S
C343 N344 1.347 . S
C343 H354 0.929 . S
N344 C342 1.375 . S
N344 C343 1.347 . S
C345 C348 1.365 . S
C345 N350 1.328 . S
C345 H351 0.929 . S
C346 C347 1.362 . S
C346 C349 1.378 . S
C346 H361 0.929 . S
C347 C346 1.362 . S
C347 C348 1.366 . S
C348 C345 1.365 . S
C348 C347 1.366 . S
C348 H362 0.930 . S
C349 C346 1.378 . S
C349 N350 1.315 . S
C349 H352 0.930 . S
N350 Co330 2.194 . S
N350 C345 1.328 . S
N350 C349 1.315 . S
H351 C345 0.929 . S
H352 C349 0.930 . S
H353 C341 0.929 . S
H354 C343 0.929 . S
O355 Co330 2.351 . S
O355 C358 1.244 . S
O356 Co330 2.155 . S
O356 C358 1.240 . S
O357 Co330 2.096 . S
O357 C338 1.247 . S
C358 O355 1.244 . S
C358 O356 1.240 . S
H359 C333 0.931 . S
H360 C342 0.931 . S
H361 C346 0.929 . S
H362 C348 0.930 . S
Co363 N367 2.148 . S
Co363 N373 2.128 . S
Co363 N383 2.194 . S
Co363 O388 2.351 . S
Co363 O389 2.155 . S
Co363 O390 2.096 . S
C364 N367 1.301 . S
C364 N368 1.328 . S
C364 H369 0.930 . S
C365 C366 1.333 . S
C365 N367 1.317 . S
C365 H370 0.930 . S
C366 C365 1.333 . S
C366 N368 1.350 . S
C366 H392 0.931 . S
N367 Co363 2.148 . S
N367 C364 1.301 . S
N367 C365 1.317 . S
N368 C364 1.328 . S
N368 C366 1.350 . S
H369 C364 0.930 . S
H370 C365 0.930 . S
C371 O372 1.224 . S
C371 O390 1.247 . S
O372 C371 1.224 . S
N373 Co363 2.128 . S
N373 C374 1.355 . S
N373 C376 1.311 . S
C374 N373 1.355 . S
C374 C375 1.363 . S
C374 H386 0.929 . S
C375 C374 1.363 . S
C375 N377 1.375 . S
C375 H393 0.931 . S
C376 N373 1.311 . S
C376 N377 1.347 . S
C376 H387 0.929 . S
N377 C375 1.375 . S
N377 C376 1.347 . S
C378 C381 1.365 . S
C378 N383 1.328 . S
C378 H384 0.929 . S
C379 C380 1.362 . S
C379 C382 1.378 . S
C379 H394 0.929 . S
C380 C379 1.362 . S
C380 C381 1.366 . S
C381 C378 1.365 . S
C381 C380 1.366 . S
C381 H395 0.930 . S
C382 C379 1.378 . S
C382 N383 1.315 . S
C382 H385 0.930 . S
N383 Co363 2.194 . S
N383 C378 1.328 . S
N383 C382 1.315 . S
H384 C378 0.929 . S
H385 C382 0.930 . S
H386 C374 0.929 . S
H387 C376 0.929 . S
O388 Co363 2.351 . S
O388 C391 1.244 . S
O389 Co363 2.155 . S
O389 C391 1.240 . S
O390 Co363 2.096 . S
O390 C371 1.247 . S
C391 O388 1.244 . S
C391 O389 1.240 . S
H392 C366 0.931 . S
H393 C375 0.931 . S
H394 C379 0.929 . S
H395 C381 0.930 . S
Co396 N400 2.148 1_554 S
Co396 N406 2.128 . S
Co396 N416 2.194 . S
Co396 O421 2.351 . S
Co396 O422 2.155 . S
Co396 O423 2.096 . S
C397 N400 1.301 . S
C397 N401 1.328 . S
C397 H402 0.930 . S
C398 C399 1.333 . S
C398 N400 1.317 . S
C398 H403 0.930 . S
C399 C398 1.333 . S
C399 N401 1.350 . S
C399 H425 0.931 . S
N400 Co396 2.148 1_556 S
N400 C397 1.301 . S
N400 C398 1.317 . S
N401 C397 1.328 . S
N401 C399 1.350 . S
H402 C397 0.930 . S
H403 C398 0.930 . S
C404 O405 1.224 . S
C404 O423 1.247 . S
O405 C404 1.224 . S
N406 Co396 2.128 . S
N406 C407 1.355 . S
N406 C409 1.311 . S
C407 N406 1.355 . S
C407 C408 1.363 . S
C407 H419 0.929 . S
C408 C407 1.363 . S
C408 N410 1.375 . S
C408 H426 0.931 . S
C409 N406 1.311 . S
C409 N410 1.347 . S
C409 H420 0.929 . S
N410 C408 1.375 . S
N410 C409 1.347 . S
C411 C414 1.365 . S
C411 N416 1.328 . S
C411 H417 0.929 . S
C412 C413 1.362 . S
C412 C415 1.378 . S
C412 H427 0.929 . S
C413 C412 1.362 . S
C413 C414 1.366 . S
C414 C411 1.365 . S
C414 C413 1.366 . S
C414 H428 0.930 . S
C415 C412 1.378 . S
C415 N416 1.315 . S
C415 H418 0.930 . S
N416 Co396 2.194 . S
N416 C411 1.328 . S
N416 C415 1.315 . S
H417 C411 0.929 . S
H418 C415 0.930 . S
H419 C407 0.929 . S
H420 C409 0.929 . S
O421 Co396 2.351 . S
O421 C424 1.244 . S
O422 Co396 2.155 . S
O422 C424 1.240 . S
O423 Co396 2.096 . S
O423 C404 1.247 . S
C424 O421 1.244 . S
C424 O422 1.240 . S
H425 C399 0.931 . S
H426 C408 0.931 . S
H427 C412 0.929 . S
H428 C414 0.930 . S
Co429 N433 2.148 . S
Co429 N439 2.128 1_554 S
Co429 N449 2.194 . S
Co429 O454 2.351 . S
Co429 O455 2.155 . S
Co429 O456 2.096 . S
C430 N433 1.301 . S
C430 N434 1.328 . S
C430 H435 0.930 . S
C431 C432 1.333 . S
C431 N433 1.317 . S
C431 H436 0.930 . S
C432 C431 1.333 . S
C432 N434 1.350 . S
C432 H458 0.931 . S
N433 Co429 2.148 . S
N433 C430 1.301 . S
N433 C431 1.317 . S
N434 C430 1.328 . S
N434 C432 1.350 . S
H435 C430 0.930 . S
H436 C431 0.930 . S
C437 O438 1.224 . S
C437 O456 1.247 . S
O438 C437 1.224 . S
N439 Co429 2.128 1_556 S
N439 C440 1.355 . S
N439 C442 1.311 . S
C440 N439 1.355 . S
C440 C441 1.363 . S
C440 H452 0.929 . S
C441 C440 1.363 . S
C441 N443 1.375 . S
C441 H459 0.931 . S
C442 N439 1.311 . S
C442 N443 1.347 . S
C442 H453 0.929 . S
N443 C441 1.375 . S
N443 C442 1.347 . S
C444 C447 1.365 . S
C444 N449 1.328 . S
C444 H450 0.929 . S
C445 C446 1.362 . S
C445 C448 1.378 . S
C445 H460 0.929 . S
C446 C445 1.362 . S
C446 C447 1.366 . S
C447 C444 1.365 . S
C447 C446 1.366 . S
C447 H461 0.930 . S
C448 C445 1.378 . S
C448 N449 1.315 . S
C448 H451 0.930 . S
N449 Co429 2.194 . S
N449 C444 1.328 . S
N449 C448 1.315 . S
H450 C444 0.929 . S
H451 C448 0.930 . S
H452 C440 0.929 . S
H453 C442 0.929 . S
O454 Co429 2.351 . S
O454 C457 1.244 . S
O455 Co429 2.155 . S
O455 C457 1.240 . S
O456 Co429 2.096 . S
O456 C437 1.247 . S
C457 O454 1.244 . S
C457 O455 1.240 . S
H458 C432 0.931 . S
H459 C441 0.931 . S
H460 C445 0.929 . S
H461 C447 0.930 . S
Co462 N466 2.148 1_556 S
Co462 N472 2.128 . S
Co462 N482 2.194 . S
Co462 O487 2.351 . S
Co462 O488 2.155 . S
Co462 O489 2.096 . S
C463 N466 1.301 . S
C463 N467 1.328 . S
C463 H468 0.930 . S
C464 C465 1.333 . S
C464 N466 1.317 . S
C464 H469 0.930 . S
C465 C464 1.333 . S
C465 N467 1.350 . S
C465 H491 0.931 . S
N466 Co462 2.148 1_554 S
N466 C463 1.301 . S
N466 C464 1.317 . S
N467 C463 1.328 . S
N467 C465 1.350 . S
H468 C463 0.930 . S
H469 C464 0.930 . S
C470 O471 1.224 . S
C470 O489 1.247 . S
O471 C470 1.224 . S
N472 Co462 2.128 . S
N472 C473 1.355 . S
N472 C475 1.311 . S
C473 N472 1.355 . S
C473 C474 1.363 . S
C473 H485 0.929 . S
C474 C473 1.363 . S
C474 N476 1.375 . S
C474 H492 0.931 . S
C475 N472 1.311 . S
C475 N476 1.347 . S
C475 H486 0.929 . S
N476 C474 1.375 . S
N476 C475 1.347 . S
C477 C480 1.365 . S
C477 N482 1.328 . S
C477 H483 0.929 . S
C478 C479 1.362 . S
C478 C481 1.378 . S
C478 H493 0.929 . S
C479 C478 1.362 . S
C479 C480 1.366 . S
C480 C477 1.365 . S
C480 C479 1.366 . S
C480 H494 0.930 . S
C481 C478 1.378 . S
C481 N482 1.315 . S
C481 H484 0.930 . S
N482 Co462 2.194 . S
N482 C477 1.328 . S
N482 C481 1.315 . S
H483 C477 0.929 . S
H484 C481 0.930 . S
H485 C473 0.929 . S
H486 C475 0.929 . S
O487 Co462 2.351 . S
O487 C490 1.244 . S
O488 Co462 2.155 . S
O488 C490 1.240 . S
O489 Co462 2.096 . S
O489 C470 1.247 . S
C490 O487 1.244 . S
C490 O488 1.240 . S
H491 C465 0.931 . S
H492 C474 0.931 . S
H493 C478 0.929 . S
H494 C480 0.930 . S
Co495 N499 2.148 . S
Co495 N505 2.128 1_556 S
Co495 N515 2.194 . S
Co495 O520 2.351 . S
Co495 O521 2.155 . S
Co495 O522 2.096 . S
C496 N499 1.301 . S
C496 N500 1.328 . S
C496 H501 0.930 . S
C497 C498 1.333 . S
C497 N499 1.317 . S
C497 H502 0.930 . S
C498 C497 1.333 . S
C498 N500 1.350 . S
C498 H524 0.931 . S
N499 Co495 2.148 . S
N499 C496 1.301 . S
N499 C497 1.317 . S
N500 C496 1.328 . S
N500 C498 1.350 . S
H501 C496 0.930 . S
H502 C497 0.930 . S
C503 O504 1.224 . S
C503 O522 1.247 . S
O504 C503 1.224 . S
N505 Co495 2.128 1_554 S
N505 C506 1.355 . S
N505 C508 1.311 . S
C506 N505 1.355 . S
C506 C507 1.363 . S
C506 H518 0.929 . S
C507 C506 1.363 . S
C507 N509 1.375 . S
C507 H525 0.931 . S
C508 N505 1.311 . S
C508 N509 1.347 . S
C508 H519 0.929 . S
N509 C507 1.375 . S
N509 C508 1.347 . S
C510 C513 1.365 . S
C510 N515 1.328 . S
C510 H516 0.929 . S
C511 C512 1.362 . S
C511 C514 1.378 . S
C511 H526 0.929 . S
C512 C511 1.362 . S
C512 C513 1.366 . S
C513 C510 1.365 . S
C513 C512 1.366 . S
C513 H527 0.930 . S
C514 C511 1.378 . S
C514 N515 1.315 . S
C514 H517 0.930 . S
N515 Co495 2.194 . S
N515 C510 1.328 . S
N515 C514 1.315 . S
H516 C510 0.929 . S
H517 C514 0.930 . S
H518 C506 0.929 . S
H519 C508 0.929 . S
O520 Co495 2.351 . S
O520 C523 1.244 . S
O521 Co495 2.155 . S
O521 C523 1.240 . S
O522 Co495 2.096 . S
O522 C503 1.247 . S
C523 O520 1.244 . S
C523 O521 1.240 . S
H524 C498 0.931 . S
H525 C507 0.931 . S
H526 C511 0.929 . S
H527 C513 0.930 . S
C528 C529 1.363 . S
C528 C534 1.379 . S
C528 N536 1.356 . S
C529 C528 1.363 . S
C529 C535 1.363 . S
C530 C531 1.363 . S
C530 C535 1.379 . S
C530 N537 1.356 . S
C531 C530 1.363 . S
C531 C534 1.363 . S
N532 C534 1.356 . S
N532 H544 0.984 . S
N532 H545 0.985 . S
N533 C535 1.356 . S
N533 H538 0.984 . S
N533 H539 0.985 . S
C534 C528 1.379 . S
C534 C531 1.363 . S
C534 N532 1.356 . S
C535 C529 1.363 . S
C535 C530 1.379 . S
C535 N533 1.356 . S
N536 C528 1.356 . S
N536 H542 0.984 . S
N536 H543 0.984 . S
N537 C530 1.356 . S
N537 H540 0.984 . S
N537 H541 0.985 . S
H538 N533 0.984 . S
H539 N533 0.985 . S
H540 N537 0.984 . S
H541 N537 0.985 . S
H542 N536 0.984 . S
H543 N536 0.984 . S
H544 N532 0.984 . S
H545 N532 0.985 . S
C546 C547 1.363 . S
C546 C552 1.379 1_455 S
C546 N554 1.356 . S
C547 C546 1.363 . S
C547 C553 1.363 . S
C548 C549 1.363 . S
C548 C553 1.379 1_655 S
C548 N555 1.356 . S
C549 C548 1.363 . S
C549 C552 1.363 . S
N550 C552 1.356 . S
N550 H562 0.984 . S
N550 H563 0.985 . S
N551 C553 1.356 . S
N551 H556 0.984 . S
N551 H557 0.985 . S
C552 C546 1.379 1_655 S
C552 C549 1.363 . S
C552 N550 1.356 . S
C553 C547 1.363 . S
C553 C548 1.379 1_455 S
C553 N551 1.356 . S
N554 C546 1.356 . S
N554 H560 0.984 . S
N554 H561 0.984 . S
N555 C548 1.356 . S
N555 H558 0.984 . S
N555 H559 0.985 . S
H556 N551 0.984 . S
H557 N551 0.985 . S
H558 N555 0.984 . S
H559 N555 0.985 . S
H560 N554 0.984 . S
H561 N554 0.984 . S
H562 N550 0.984 . S
H563 N550 0.985 . S
C564 C565 1.363 1_554 S
C564 C570 1.379 . S
C564 N572 1.356 . S
C565 C564 1.363 1_556 S
C565 C571 1.363 . S
C566 C567 1.363 1_556 S
C566 C571 1.379 . S
C566 N573 1.356 . S
C567 C566 1.363 1_554 S
C567 C570 1.363 . S
N568 C570 1.356 . S
N568 H580 0.984 . S
N568 H581 0.985 . S
N569 C571 1.356 . S
N569 H574 0.984 . S
N569 H575 0.985 . S
C570 C564 1.379 . S
C570 C567 1.363 . S
C570 N568 1.356 . S
C571 C565 1.363 . S
C571 C566 1.379 . S
C571 N569 1.356 . S
N572 C564 1.356 . S
N572 H578 0.984 . S
N572 H579 0.984 . S
N573 C566 1.356 . S
N573 H576 0.984 . S
N573 H577 0.985 . S
H574 N569 0.984 . S
H575 N569 0.985 . S
H576 N573 0.984 . S
H577 N573 0.985 . S
H578 N572 0.984 . S
H579 N572 0.984 . S
H580 N568 0.984 . S
H581 N568 0.985 . S
C582 C583 1.359 1_455 S
C582 C588 1.382 . S
C582 N590 1.355 1_455 S
C583 C582 1.359 1_655 S
C583 C589 1.363 1_556 S
C584 C585 1.359 1_655 S
C584 C589 1.382 . S
C584 N591 1.355 1_655 S
C585 C584 1.359 1_455 S
C585 C588 1.363 1_554 S
N586 C588 1.356 . S
N586 H598 0.984 . S
N586 H599 0.985 . S
N587 C589 1.356 . S
N587 H592 0.984 . S
N587 H593 0.985 . S
C588 C582 1.382 . S
C588 C585 1.363 1_556 S
C588 N586 1.356 . S
C589 C583 1.363 1_554 S
C589 C584 1.382 . S
C589 N587 1.356 . S
N590 C582 1.355 1_655 S
N590 H596 0.984 1_655 S
N590 H597 0.984 . S
N591 C584 1.355 1_455 S
N591 H594 0.984 . S
N591 H595 0.985 1_455 S
H592 N587 0.984 . S
H593 N587 0.985 . S
H594 N591 0.984 . S
H595 N591 0.985 1_655 S
H596 N590 0.984 1_455 S
H597 N590 0.984 . S
H598 N586 0.984 . S
H599 N586 0.985 . S
C600 C601 1.363 . S
C600 C606 1.379 . S
C600 N608 1.356 . S
C601 C600 1.363 . S
C601 C607 1.363 . S
C602 C603 1.363 . S
C602 C607 1.379 . S
C602 N609 1.356 . S
C603 C602 1.363 . S
C603 C606 1.363 . S
N604 C606 1.356 . S
N604 H616 0.984 . S
N604 H617 0.985 . S
N605 C607 1.356 . S
N605 H610 0.984 . S
N605 H611 0.985 . S
C606 C600 1.379 . S
C606 C603 1.363 . S
C606 N604 1.356 . S
C607 C601 1.363 . S
C607 C602 1.379 . S
C607 N605 1.356 . S
N608 C600 1.356 . S
N608 H614 0.984 . S
N608 H615 0.984 . S
N609 C602 1.356 . S
N609 H612 0.984 . S
N609 H613 0.985 . S
H610 N605 0.984 . S
H611 N605 0.985 . S
H612 N609 0.984 . S
H613 N609 0.985 . S
H614 N608 0.984 . S
H615 N608 0.984 . S
H616 N604 0.984 . S
H617 N604 0.985 . S
C618 C619 1.363 1_655 S
C618 C624 1.379 . S
C618 N626 1.351 1_655 S
C619 C618 1.363 1_455 S
C619 C625 1.363 . S
C620 C621 1.363 1_455 S
C620 C625 1.379 . S
C620 N627 1.351 1_455 S
C621 C620 1.363 1_655 S
C621 C624 1.363 . S
N622 C624 1.356 . S
N622 H634 0.984 . S
N622 H635 0.985 . S
N623 C625 1.356 . S
N623 H628 0.984 . S
N623 H629 0.985 . S
C624 C618 1.379 . S
C624 C621 1.363 . S
C624 N622 1.356 . S
C625 C619 1.363 . S
C625 C620 1.379 . S
C625 N623 1.356 . S
N626 C618 1.351 1_455 S
N626 H632 0.959 1_455 S
N626 H633 1.016 . S
N627 C620 1.351 1_655 S
N627 H630 1.015 . S
N627 H631 0.960 1_655 S
H628 N623 0.984 . S
H629 N623 0.985 . S
H630 N627 1.015 . S
H631 N627 0.960 1_455 S
H632 N626 0.959 1_655 S
H633 N626 1.016 . S
H634 N622 0.984 . S
H635 N622 0.985 . S
C636 C637 1.363 1_556 S
C636 C642 1.379 . S
C636 N644 1.356 . S
C637 C636 1.363 1_554 S
C637 C643 1.363 . S
C638 C639 1.363 1_554 S
C638 C643 1.379 . S
C638 N645 1.356 . S
C639 C638 1.363 1_556 S
C639 C642 1.363 . S
N640 C642 1.356 . S
N640 H652 0.984 . S
N640 H653 0.985 . S
N641 C643 1.356 . S
N641 H646 0.984 . S
N641 H647 0.985 . S
C642 C636 1.379 . S
C642 C639 1.363 . S
C642 N640 1.356 . S
C643 C637 1.363 . S
C643 C638 1.379 . S
C643 N641 1.356 . S
N644 C636 1.356 . S
N644 H650 0.984 . S
N644 H651 0.979 1_556 S
N645 C638 1.356 . S
N645 H648 0.980 1_554 S
N645 H649 0.985 . S
H646 N641 0.984 . S
H647 N641 0.985 . S
H648 N645 0.980 1_556 S
H649 N645 0.985 . S
H650 N644 0.984 . S
H651 N644 0.979 1_554 S
H652 N640 0.984 . S
H653 N640 0.985 . S
C654 C655 1.363 . S
C654 C660 1.379 1_565 S
C654 N662 1.356 . S
C655 C654 1.363 . S
C655 C661 1.363 . S
C656 C657 1.363 . S
C656 C661 1.379 1_545 S
C656 N663 1.356 . S
C657 C656 1.363 . S
C657 C660 1.363 . S
N658 C660 1.356 . S
N658 H670 0.984 . S
N658 H671 0.985 . S
N659 C661 1.356 . S
N659 H664 0.984 . S
N659 H665 0.985 . S
C660 C654 1.379 1_545 S
C660 C657 1.363 . S
C660 N658 1.356 . S
C661 C655 1.363 . S
C661 C656 1.379 1_565 S
C661 N659 1.356 . S
N662 C654 1.356 . S
N662 H668 0.984 . S
N662 H669 0.984 . S
N663 C656 1.356 . S
N663 H666 0.984 . S
N663 H667 0.985 . S
H664 N659 0.984 . S
H665 N659 0.985 . S
H666 N663 0.984 . S
H667 N663 0.985 . S
H668 N662 0.984 . S
H669 N662 0.984 . S
H670 N658 0.984 . S
H671 N658 0.985 . S
C672 C673 1.363 . S
C672 C678 1.379 . S
C672 N680 1.356 . S
C673 C672 1.363 . S
C673 C679 1.363 . S
C674 C675 1.363 . S
C674 C679 1.379 . S
C674 N681 1.356 . S
C675 C674 1.363 . S
C675 C678 1.363 . S
N676 C678 1.356 . S
N676 H688 0.984 . S
N676 H689 0.985 . S
N677 C679 1.356 . S
N677 H682 0.984 . S
N677 H683 0.985 . S
C678 C672 1.379 . S
C678 C675 1.363 . S
C678 N676 1.356 . S
C679 C673 1.363 . S
C679 C674 1.379 . S
C679 N677 1.356 . S
N680 C672 1.356 . S
N680 H686 0.984 . S
N680 H687 0.984 . S
N681 C674 1.356 . S
N681 H684 0.984 . S
N681 H685 0.985 . S
H682 N677 0.984 . S
H683 N677 0.985 . S
H684 N681 0.984 . S
H685 N681 0.985 . S
H686 N680 0.984 . S
H687 N680 0.984 . S
H688 N676 0.984 . S
H689 N676 0.985 . S
C690 C691 1.363 1_455 S
C690 C696 1.379 . S
C690 N698 1.353 1_455 S
C691 C690 1.363 1_655 S
C691 C697 1.363 1_565 S
C692 C693 1.363 1_655 S
C692 C697 1.379 . S
C692 N699 1.353 1_655 S
C693 C692 1.363 1_455 S
C693 C696 1.363 1_545 S
N694 C696 1.356 . S
N694 H706 0.984 . S
N694 H707 0.940 1_565 S
N695 C697 1.356 . S
N695 H700 0.940 1_545 S
N695 H701 0.985 . S
C696 C690 1.379 . S
C696 C693 1.363 1_565 S
C696 N694 1.356 . S
C697 C691 1.363 1_545 S
C697 C692 1.379 . S
C697 N695 1.356 . S
N698 C690 1.353 1_655 S
N698 H704 0.965 1_655 S
N698 H705 1.008 . S
N699 C692 1.353 1_455 S
N699 H702 1.008 . S
N699 H703 0.965 1_455 S
H700 N695 0.940 1_565 S
H701 N695 0.985 . S
H702 N699 1.008 . S
H703 N699 0.965 1_655 S
H704 N698 0.965 1_455 S
H705 N698 1.008 . S
H706 N694 0.984 . S
H707 N694 0.940 1_545 S
C708 C709 1.363 1_565 S
C708 C714 1.379 . S
C708 N716 1.356 . S
C709 C708 1.363 1_545 S
C709 C715 1.363 . S
C710 C711 1.363 1_545 S
C710 C715 1.379 . S
C710 N717 1.356 . S
C711 C710 1.363 1_565 S
C711 C714 1.363 . S
N712 C714 1.356 . S
N712 H724 0.984 . S
N712 H725 0.985 . S
N713 C715 1.356 . S
N713 H718 0.984 . S
N713 H719 0.985 . S
C714 C708 1.379 . S
C714 C711 1.363 . S
C714 N712 1.356 . S
C715 C709 1.363 . S
C715 C710 1.379 . S
C715 N713 1.356 . S
N716 C708 1.356 . S
N716 H722 0.984 . S
N716 H723 0.984 1_565 S
N717 C710 1.356 . S
N717 H720 0.984 1_545 S
N717 H721 0.985 . S
H718 N713 0.984 . S
H719 N713 0.985 . S
H720 N717 0.984 1_565 S
H721 N717 0.985 . S
H722 N716 0.984 . S
H723 N716 0.984 1_545 S
H724 N712 0.984 . S
H725 N712 0.985 . S
C726 C727 1.363 . S
C726 C732 1.379 . S
C726 N734 1.356 . S
C727 C726 1.363 . S
C727 C733 1.363 . S
C728 C729 1.363 . S
C728 C733 1.379 . S
C728 N735 1.356 . S
C729 C728 1.363 . S
C729 C732 1.363 . S
N730 C732 1.356 . S
N730 H742 0.984 . S
N730 H743 0.985 . S
N731 C733 1.356 . S
N731 H736 0.984 . S
N731 H737 0.985 . S
C732 C726 1.379 . S
C732 C729 1.363 . S
C732 N730 1.356 . S
C733 C727 1.363 . S
C733 C728 1.379 . S
C733 N731 1.356 . S
N734 C726 1.356 . S
N734 H740 0.984 . S
N734 H741 0.984 . S
N735 C728 1.356 . S
N735 H738 0.984 . S
N735 H739 0.985 . S
H736 N731 0.984 . S
H737 N731 0.985 . S
H738 N735 0.984 . S
H739 N735 0.985 . S
H740 N734 0.984 . S
H741 N734 0.984 . S
H742 N730 0.984 . S
H743 N730 0.985 . S
C744 C745 1.363 . S
C744 C750 1.379 . S
C744 N752 1.356 . S
C745 C744 1.363 . S
C745 C751 1.363 . S
C746 C747 1.363 . S
C746 C751 1.379 . S
C746 N753 1.356 . S
C747 C746 1.363 . S
C747 C750 1.363 . S
N748 C750 1.356 . S
N748 H760 0.984 . S
N748 H761 0.985 . S
N749 C751 1.356 . S
N749 H754 0.984 . S
N749 H755 0.985 . S
C750 C744 1.379 . S
C750 C747 1.363 . S
C750 N748 1.356 . S
C751 C745 1.363 . S
C751 C746 1.379 . S
C751 N749 1.356 . S
N752 C744 1.356 . S
N752 H758 0.984 . S
N752 H759 0.984 . S
N753 C746 1.356 . S
N753 H756 0.984 . S
N753 H757 0.985 . S
H754 N749 0.984 . S
H755 N749 0.985 . S
H756 N753 0.984 . S
H757 N753 0.985 . S
H758 N752 0.984 . S
H759 N752 0.984 . S
H760 N748 0.984 . S
H761 N748 0.985 . S
C762 C763 1.363 . S
C762 C768 1.379 . S
C762 N770 1.356 . S
C763 C762 1.363 . S
C763 C769 1.363 . S
C764 C765 1.363 . S
C764 C769 1.379 . S
C764 N771 1.356 . S
C765 C764 1.363 . S
C765 C768 1.363 . S
N766 C768 1.356 . S
N766 H778 0.984 . S
N766 H779 0.985 . S
N767 C769 1.356 . S
N767 H772 0.984 . S
N767 H773 0.985 . S
C768 C762 1.379 . S
C768 C765 1.363 . S
C768 N766 1.356 . S
C769 C763 1.363 . S
C769 C764 1.379 . S
C769 N767 1.356 . S
N770 C762 1.356 . S
N770 H776 0.984 . S
N770 H777 0.984 . S
N771 C764 1.356 . S
N771 H774 0.984 . S
N771 H775 0.985 . S
H772 N767 0.984 . S
H773 N767 0.985 . S
H774 N771 0.984 . S
H775 N771 0.985 . S
H776 N770 0.984 . S
H777 N770 0.984 . S
H778 N766 0.984 . S
H779 N766 0.985 . S
C780 C781 1.363 . S
C780 C786 1.379 . S
C780 N788 1.356 . S
C781 C780 1.363 . S
C781 C787 1.363 . S
C782 C783 1.363 . S
C782 C787 1.379 . S
C782 N789 1.356 . S
C783 C782 1.363 . S
C783 C786 1.363 . S
N784 C786 1.356 . S
N784 H796 0.984 . S
N784 H797 0.985 . S
N785 C787 1.356 . S
N785 H790 0.984 . S
N785 H791 0.985 . S
C786 C780 1.379 . S
C786 C783 1.363 . S
C786 N784 1.356 . S
C787 C781 1.363 . S
C787 C782 1.379 . S
C787 N785 1.356 . S
N788 C780 1.356 . S
N788 H794 0.984 . S
N788 H795 0.984 . S
N789 C782 1.356 . S
N789 H792 0.984 . S
N789 H793 0.985 . S
H790 N785 0.984 . S
H791 N785 0.985 . S
H792 N789 0.984 . S
H793 N789 0.985 . S
H794 N788 0.984 . S
H795 N788 0.984 . S
H796 N784 0.984 . S
H797 N784 0.985 . S
C798 C799 1.363 1_545 S
C798 C804 1.379 . S
C798 N806 1.356 . S
C799 C798 1.363 1_565 S
C799 C805 1.363 1_556 S
C800 C801 1.363 1_565 S
C800 C805 1.379 . S
C800 N807 1.356 . S
C801 C800 1.363 1_545 S
C801 C804 1.363 1_554 S
N802 C804 1.356 . S
N802 H814 0.984 . S
N802 H815 0.985 . S
N803 C805 1.356 . S
N803 H808 0.984 . S
N803 H809 0.985 . S
C804 C798 1.379 . S
C804 C801 1.363 1_556 S
C804 N802 1.356 . S
C805 C799 1.363 1_554 S
C805 C800 1.379 . S
C805 N803 1.356 . S
N806 C798 1.356 . S
N806 H812 0.984 . S
N806 H813 0.984 1_545 S
N807 C800 1.356 . S
N807 H810 0.984 1_565 S
N807 H811 0.985 . S
H808 N803 0.984 . S
H809 N803 0.985 . S
H810 N807 0.984 1_545 S
H811 N807 0.985 . S
H812 N806 0.984 . S
H813 N806 0.984 1_565 S
H814 N802 0.984 . S
H815 N802 0.985 . S
C816 C817 1.363 . S
C816 C822 1.379 . S
C816 N824 1.356 . S
C817 C816 1.363 . S
C817 C823 1.363 . S
C818 C819 1.363 . S
C818 C823 1.379 . S
C818 N825 1.356 . S
C819 C818 1.363 . S
C819 C822 1.363 . S
N820 C822 1.356 . S
N820 H832 0.984 . S
N820 H833 0.985 . S
N821 C823 1.356 . S
N821 H826 0.984 . S
N821 H827 0.985 . S
C822 C816 1.379 . S
C822 C819 1.363 . S
C822 N820 1.356 . S
C823 C817 1.363 . S
C823 C818 1.379 . S
C823 N821 1.356 . S
N824 C816 1.356 . S
N824 H830 0.984 . S
N824 H831 0.984 . S
N825 C818 1.356 . S
N825 H828 0.984 . S
N825 H829 0.985 . S
H826 N821 0.984 . S
H827 N821 0.985 . S
H828 N825 0.984 . S
H829 N825 0.985 . S
H830 N824 0.984 . S
H831 N824 0.984 . S
H832 N820 0.984 . S
H833 N820 0.985 . S
C834 C835 1.363 . S
C834 C840 1.379 . S
C834 N842 1.356 . S
C835 C834 1.363 . S
C835 C841 1.363 . S
C836 C837 1.363 . S
C836 C841 1.379 . S
C836 N843 1.356 . S
C837 C836 1.363 . S
C837 C840 1.363 . S
N838 C840 1.356 . S
N838 H850 0.984 . S
N838 H851 0.985 . S
N839 C841 1.356 . S
N839 H844 0.984 . S
N839 H845 0.985 . S
C840 C834 1.379 . S
C840 C837 1.363 . S
C840 N838 1.356 . S
C841 C835 1.363 . S
C841 C836 1.379 . S
C841 N839 1.356 . S
N842 C834 1.356 . S
N842 H848 0.984 . S
N842 H849 0.984 . S
N843 C836 1.356 . S
N843 H846 0.984 . S
N843 H847 0.985 . S
H844 N839 0.984 . S
H845 N839 0.985 . S
H846 N843 0.984 . S
H847 N843 0.985 . S
H848 N842 0.984 . S
H849 N842 0.984 . S
H850 N838 0.984 . S
H851 N838 0.985 . S
C852 C853 1.363 . S
C852 C858 1.379 . S
C852 N860 1.356 . S
C853 C852 1.363 . S
C853 C859 1.363 . S
C854 C855 1.363 . S
C854 C859 1.379 . S
C854 N861 1.356 . S
C855 C854 1.363 . S
C855 C858 1.363 . S
N856 C858 1.356 . S
N856 H868 0.984 . S
N856 H869 0.985 . S
N857 C859 1.356 . S
N857 H862 0.984 . S
N857 H863 0.985 . S
C858 C852 1.379 . S
C858 C855 1.363 . S
C858 N856 1.356 . S
C859 C853 1.363 . S
C859 C854 1.379 . S
C859 N857 1.356 . S
N860 C852 1.356 . S
N860 H866 0.984 . S
N860 H867 0.984 . S
N861 C854 1.356 . S
N861 H864 0.984 . S
N861 H865 0.985 . S
H862 N857 0.984 . S
H863 N857 0.985 . S
H864 N861 0.984 . S
H865 N861 0.985 . S
H866 N860 0.984 . S
H867 N860 0.984 . S
H868 N856 0.984 . S
H869 N856 0.985 . S
C870 C871 1.363 . S
C870 C876 1.379 . S
C870 N878 1.356 . S
C871 C870 1.363 . S
C871 C877 1.363 . S
C872 C873 1.363 . S
C872 C877 1.379 . S
C872 N879 1.356 . S
C873 C872 1.363 . S
C873 C876 1.363 . S
N874 C876 1.356 . S
N874 H886 0.984 . S
N874 H887 0.985 . S
N875 C877 1.356 . S
N875 H880 0.984 . S
N875 H881 0.985 . S
C876 C870 1.379 . S
C876 C873 1.363 . S
C876 N874 1.356 . S
C877 C871 1.363 . S
C877 C872 1.379 . S
C877 N875 1.356 . S
N878 C870 1.356 . S
N878 H884 0.984 . S
N878 H885 0.984 . S
N879 C872 1.356 . S
N879 H882 0.984 . S
N879 H883 0.985 . S
H880 N875 0.984 . S
H881 N875 0.985 . S
H882 N879 0.984 . S
H883 N879 0.985 . S
H884 N878 0.984 . S
H885 N878 0.984 . S
H886 N874 0.984 . S
H887 N874 0.985 . S
C888 C889 1.363 . S
C888 C894 1.379 . S
C888 N896 1.356 . S
C889 C888 1.363 . S
C889 C895 1.363 . S
C890 C891 1.363 . S
C890 C895 1.379 . S
C890 N897 1.356 . S
C891 C890 1.363 . S
C891 C894 1.363 . S
N892 C894 1.356 1_556 S
N892 H904 1.000 . S
N892 H905 0.985 . S
N893 C895 1.356 . S
N893 H898 0.984 . S
N893 H899 0.985 . S
C894 C888 1.379 . S
C894 C891 1.363 . S
C894 N892 1.356 1_554 S
C895 C889 1.363 . S
C895 C890 1.379 . S
C895 N893 1.356 . S
N896 C888 1.356 . S
N896 H902 1.011 . S
N896 H903 0.984 . S
N897 C890 1.356 . S
N897 H900 0.984 1_554 S
N897 H901 0.985 . S
H898 N893 0.984 . S
H899 N893 0.985 . S
H900 N897 0.984 1_556 S
H901 N897 0.985 . S
H902 N896 1.011 . S
H903 N896 0.984 . S
H904 N892 1.000 . S
H905 N892 0.985 . S
C906 C907 1.363 . S
C906 C912 1.379 . S
C906 N914 1.356 . S
C907 C906 1.363 . S
C907 C913 1.363 . S
C908 C909 1.363 . S
C908 C913 1.379 . S
C908 N915 1.356 . S
C909 C908 1.363 . S
C909 C912 1.363 . S
N910 C912 1.356 . S
N910 H922 0.984 . S
N910 H923 0.985 1_554 S
N911 C913 1.356 . S
N911 H916 0.984 . S
N911 H917 0.985 . S
C912 C906 1.379 . S
C912 C909 1.363 . S
C912 N910 1.356 . S
C913 C907 1.363 . S
C913 C908 1.379 . S
C913 N911 1.356 . S
N914 C906 1.356 . S
N914 H920 0.984 . S
N914 H921 0.984 . S
N915 C908 1.356 . S
N915 H918 0.984 1_554 S
N915 H919 0.985 . S
H916 N911 0.984 . S
H917 N911 0.985 . S
H918 N915 0.984 1_556 S
H919 N915 0.985 . S
H920 N914 0.984 . S
H921 N914 0.984 . S
H922 N910 0.984 . S
H923 N910 0.985 1_556 S
C924 C925 1.363 . S
C924 C930 1.379 . S
C924 N932 1.356 1_556 S
C925 C924 1.363 . S
C925 C931 1.363 . S
C926 C927 1.363 . S
C926 C931 1.379 . S
C926 N933 1.356 . S
C927 C926 1.363 . S
C927 C930 1.363 . S
N928 C930 1.356 . S
N928 H940 1.032 . S
N928 H941 0.985 . S
N929 C931 1.356 . S
N929 H934 0.984 1_556 S
N929 H935 0.985 . S
C930 C924 1.379 . S
C930 C927 1.363 . S
C930 N928 1.356 . S
C931 C925 1.363 . S
C931 C926 1.379 . S
C931 N929 1.356 . S
N932 C924 1.356 1_554 S
N932 H938 1.021 . S
N932 H939 0.984 . S
N933 C926 1.356 . S
N933 H936 0.984 . S
N933 H937 0.985 . S
H934 N929 0.984 1_554 S
H935 N929 0.985 . S
H936 N933 0.984 . S
H937 N933 0.985 . S
H938 N932 1.021 . S
H939 N932 0.984 . S
H940 N928 1.032 . S
H941 N928 0.985 . S
C942 C943 1.363 . S
C942 C948 1.379 . S
C942 N950 1.356 . S
C943 C942 1.363 . S
C943 C949 1.363 . S
C944 C945 1.363 . S
C944 C949 1.379 . S
C944 N951 1.356 . S
C945 C944 1.363 . S
C945 C948 1.363 . S
N946 C948 1.356 . S
N946 H958 0.984 . S
N946 H959 0.985 . S
N947 C949 1.356 . S
N947 H952 0.984 1_556 S
N947 H953 0.985 . S
C948 C942 1.379 . S
C948 C945 1.363 . S
C948 N946 1.356 . S
C949 C943 1.363 . S
C949 C944 1.379 . S
C949 N947 1.356 . S
N950 C942 1.356 . S
N950 H956 0.984 . S
N950 H957 0.984 1_556 S
N951 C944 1.356 . S
N951 H954 0.984 . S
N951 H955 0.985 . S
H952 N947 0.984 1_554 S
H953 N947 0.985 . S
H954 N951 0.984 . S
H955 N951 0.985 . S
H956 N950 0.984 . S
H957 N950 0.984 1_554 S
H958 N946 0.984 . S
H959 N946 0.985 . S
C960 C961 1.363 . S
C960 C966 1.379 . S
C960 N968 1.356 1_554 S
C961 C960 1.363 . S
C961 C967 1.363 . S
C962 C963 1.363 . S
C962 C967 1.379 . S
C962 N969 1.356 . S
C963 C962 1.363 . S
C963 C966 1.363 . S
N964 C966 1.356 . S
N964 H976 0.984 . S
N964 H977 0.985 . S
N965 C967 1.356 . S
N965 H970 0.984 1_554 S
N965 H971 0.985 . S
C966 C960 1.379 . S
C966 C963 1.363 . S
C966 N964 1.356 . S
C967 C961 1.363 . S
C967 C962 1.379 . S
C967 N965 1.356 . S
N968 C960 1.356 1_556 S
N968 H974 0.984 1_556 S
N968 H975 0.984 . S
N969 C962 1.356 . S
N969 H972 0.984 . S
N969 H973 0.985 . S
H970 N965 0.984 1_556 S
H971 N965 0.985 . S
H972 N969 0.984 . S
H973 N969 0.985 . S
H974 N968 0.984 1_554 S
H975 N968 0.984 . S
H976 N964 0.984 . S
H977 N964 0.985 . S
C978 C979 1.363 . S
C978 C984 1.379 . S
C978 N986 1.356 . S
C979 C978 1.363 . S
C979 C985 1.363 . S
C980 C981 1.363 . S
C980 C985 1.379 . S
C980 N987 1.356 . S
C981 C980 1.363 . S
C981 C984 1.363 . S
N982 C984 1.356 . S
N982 H994 0.984 . S
N982 H995 0.985 . S
N983 C985 1.356 1_556 S
N983 H988 0.984 . S
N983 H989 0.985 1_556 S
C984 C978 1.379 . S
C984 C981 1.363 . S
C984 N982 1.356 . S
C985 C979 1.363 . S
C985 C980 1.379 . S
C985 N983 1.356 1_554 S
N986 C978 1.356 . S
N986 H992 0.984 . S
N986 H993 0.984 1_554 S
N987 C980 1.356 . S
N987 H990 0.984 . S
N987 H991 0.985 . S
H988 N983 0.984 . S
H989 N983 0.985 1_554 S
H990 N987 0.984 . S
H991 N987 0.985 . S
H992 N986 0.984 . S
H993 N986 0.984 1_556 S
H994 N982 0.984 . S
H995 N982 0.985 . S
C996 C997 1.363 . S
C996 C1002 1.379 . S
C996 N1004 1.356 . S
C997 C996 1.363 . S
C997 C1003 1.363 . S
C998 C999 1.363 . S
C998 C1003 1.379 . S
C998 N1005 1.356 . S
C999 C998 1.363 . S
C999 C1002 1.363 . S
N1000 C1002 1.356 . S
N1000 H1012 0.984 . S
N1000 H1013 0.985 . S
N1001 C1003 1.356 1_554 S
N1001 H1006 0.984 . S
N1001 H1007 0.985 . S
C1002 C996 1.379 . S
C1002 C999 1.363 . S
C1002 N1000 1.356 . S
C1003 C997 1.363 . S
C1003 C998 1.379 . S
C1003 N1001 1.356 1_556 S
N1004 C996 1.356 . S
N1004 H1010 0.984 . S
N1004 H1011 0.984 1_556 S
N1005 C998 1.356 . S
N1005 H1008 0.984 . S
N1005 H1009 0.985 . S
H1006 N1001 0.984 . S
H1007 N1001 0.985 . S
H1008 N1005 0.984 . S
H1009 N1005 0.985 . S
H1010 N1004 0.984 . S
H1011 N1004 0.984 1_554 S
H1012 N1000 0.984 . S
H1013 N1000 0.985 . S
C1014 C1015 1.363 . S
C1014 C1020 1.379 . S
C1014 N1022 1.356 . S
C1015 C1014 1.363 . S
C1015 C1021 1.363 . S
C1016 C1017 1.363 . S
C1016 C1021 1.379 . S
C1016 N1023 1.356 . S
C1017 C1016 1.363 . S
C1017 C1020 1.363 . S
N1018 C1020 1.356 . S
N1018 H1030 0.984 . S
N1018 H1031 0.985 . S
N1019 C1021 1.355 1_554 S
N1019 H1024 0.986 . S
N1019 H1025 0.984 1_554 S
C1020 C1014 1.379 . S
C1020 C1017 1.363 . S
C1020 N1018 1.356 . S
C1021 C1015 1.363 . S
C1021 C1016 1.379 . S
C1021 N1019 1.355 1_556 S
N1022 C1014 1.356 . S
N1022 H1028 0.984 . S
N1022 H1029 0.984 1_556 S
N1023 C1016 1.356 . S
N1023 H1026 0.984 . S
N1023 H1027 0.985 . S
H1024 N1019 0.986 . S
H1025 N1019 0.984 1_556 S
H1026 N1023 0.984 . S
H1027 N1023 0.985 . S
H1028 N1022 0.984 . S
H1029 N1022 0.984 1_554 S
H1030 N1018 0.984 . S
H1031 N1018 0.985 . S
C1032 C1033 1.363 . S
C1032 C1038 1.379 . S
C1032 N1040 1.356 . S
C1033 C1032 1.363 . S
C1033 C1039 1.363 . S
C1034 C1035 1.363 . S
C1034 C1039 1.379 . S
C1034 N1041 1.356 . S
C1035 C1034 1.363 . S
C1035 C1038 1.363 . S
N1036 C1038 1.356 . S
N1036 H1048 0.984 . S
N1036 H1049 0.985 . S
N1037 C1039 1.356 . S
N1037 H1042 0.984 . S
N1037 H1043 0.985 . S
C1038 C1032 1.379 . S
C1038 C1035 1.363 . S
C1038 N1036 1.356 . S
C1039 C1033 1.363 . S
C1039 C1034 1.379 . S
C1039 N1037 1.356 . S
N1040 C1032 1.356 . S
N1040 H1046 0.984 . S
N1040 H1047 0.984 . S
N1041 C1034 1.356 . S
N1041 H1044 0.984 . S
N1041 H1045 0.985 . S
H1042 N1037 0.984 . S
H1043 N1037 0.985 . S
H1044 N1041 0.984 . S
H1045 N1041 0.985 . S
H1046 N1040 0.984 . S
H1047 N1040 0.984 . S
H1048 N1036 0.984 . S
H1049 N1036 0.985 . S
C1050 C1051 1.363 . S
C1050 C1056 1.379 . S
C1050 N1058 1.356 . S
C1051 C1050 1.363 . S
C1051 C1057 1.363 . S
C1052 C1053 1.363 . S
C1052 C1057 1.379 . S
C1052 N1059 1.356 . S
C1053 C1052 1.363 . S
C1053 C1056 1.363 . S
N1054 C1056 1.356 . S
N1054 H1066 0.984 . S
N1054 H1067 0.985 . S
N1055 C1057 1.356 . S
N1055 H1060 0.984 . S
N1055 H1061 0.985 . S
C1056 C1050 1.379 . S
C1056 C1053 1.363 . S
C1056 N1054 1.356 . S
C1057 C1051 1.363 . S
C1057 C1052 1.379 . S
C1057 N1055 1.356 . S
N1058 C1050 1.356 . S
N1058 H1064 0.984 . S
N1058 H1065 0.984 . S
N1059 C1052 1.356 . S
N1059 H1062 0.984 . S
N1059 H1063 0.985 . S
H1060 N1055 0.984 . S
H1061 N1055 0.985 . S
H1062 N1059 0.984 . S
H1063 N1059 0.985 . S
H1064 N1058 0.984 . S
H1065 N1058 0.984 . S
H1066 N1054 0.984 . S
H1067 N1054 0.985 . S
C1068 C1069 1.363 . S
C1068 C1074 1.379 . S
C1068 N1076 1.356 . S
C1069 C1068 1.363 . S
C1069 C1075 1.363 . S
C1070 C1071 1.363 . S
C1070 C1075 1.379 . S
C1070 N1077 1.356 . S
C1071 C1070 1.363 . S
C1071 C1074 1.363 . S
N1072 C1074 1.356 . S
N1072 H1084 0.984 . S
N1072 H1085 0.985 . S
N1073 C1075 1.356 . S
N1073 H1078 0.984 . S
N1073 H1079 0.985 . S
C1074 C1068 1.379 . S
C1074 C1071 1.363 . S
C1074 N1072 1.356 . S
C1075 C1069 1.363 . S
C1075 C1070 1.379 . S
C1075 N1073 1.356 . S
N1076 C1068 1.356 . S
N1076 H1082 1.039 . S
N1076 H1083 0.984 . S
N1077 C1070 1.356 . S
N1077 H1080 0.984 . S
N1077 H1081 0.985 . S
H1078 N1073 0.984 . S
H1079 N1073 0.985 . S
H1080 N1077 0.984 . S
H1081 N1077 0.985 . S
H1082 N1076 1.039 . S
H1083 N1076 0.984 . S
H1084 N1072 0.984 . S
H1085 N1072 0.985 . S
C1086 C1087 1.363 . S
C1086 C1092 1.379 . S
C1086 N1094 1.356 . S
C1087 C1086 1.363 . S
C1087 C1093 1.363 . S
C1088 C1089 1.363 . S
C1088 C1093 1.379 . S
C1088 N1095 1.356 . S
C1089 C1088 1.363 . S
C1089 C1092 1.363 . S
N1090 C1092 1.356 . S
N1090 H1102 0.984 . S
N1090 H1103 0.985 . S
N1091 C1093 1.356 . S
N1091 H1096 0.984 . S
N1091 H1097 0.985 . S
C1092 C1086 1.379 . S
C1092 C1089 1.363 . S
C1092 N1090 1.356 . S
C1093 C1087 1.363 . S
C1093 C1088 1.379 . S
C1093 N1091 1.356 . S
N1094 C1086 1.356 . S
N1094 H1100 0.984 . S
N1094 H1101 0.984 . S
N1095 C1088 1.356 . S
N1095 H1098 0.984 . S
N1095 H1099 0.985 . S
H1096 N1091 0.984 . S
H1097 N1091 0.985 . S
H1098 N1095 0.984 . S
H1099 N1095 0.985 . S
H1100 N1094 0.984 . S
H1101 N1094 0.984 . S
H1102 N1090 0.984 . S
H1103 N1090 0.985 . S
C1104 C1105 1.363 . S
C1104 C1110 1.379 . S
C1104 N1112 1.356 . S
C1105 C1104 1.363 . S
C1105 C1111 1.363 . S
C1106 C1107 1.363 . S
C1106 C1111 1.379 . S
C1106 N1113 1.356 . S
C1107 C1106 1.363 . S
C1107 C1110 1.363 . S
N1108 C1110 1.356 . S
N1108 H1120 0.984 . S
N1108 H1121 0.985 . S
N1109 C1111 1.356 . S
N1109 H1114 0.984 . S
N1109 H1115 0.985 1_554 S
C1110 C1104 1.379 . S
C1110 C1107 1.363 . S
C1110 N1108 1.356 . S
C1111 C1105 1.363 . S
C1111 C1106 1.379 . S
C1111 N1109 1.356 . S
N1112 C1104 1.356 . S
N1112 H1118 0.984 . S
N1112 H1119 0.984 . S
N1113 C1106 1.356 . S
N1113 H1116 0.984 . S
N1113 H1117 0.985 1_554 S
H1114 N1109 0.984 . S
H1115 N1109 0.985 1_556 S
H1116 N1113 0.984 . S
H1117 N1113 0.985 1_556 S
H1118 N1112 0.984 . S
H1119 N1112 0.984 . S
H1120 N1108 0.984 . S
H1121 N1108 0.985 . S
C1122 C1123 1.363 . S
C1122 C1128 1.379 . S
C1122 N1130 1.356 . S
C1123 C1122 1.363 . S
C1123 C1129 1.363 . S
C1124 C1125 1.363 . S
C1124 C1129 1.379 . S
C1124 N1131 1.356 . S
C1125 C1124 1.363 . S
C1125 C1128 1.363 . S
N1126 C1128 1.356 . S
N1126 H1138 0.984 . S
N1126 H1139 0.985 . S
N1127 C1129 1.356 . S
N1127 H1132 0.984 . S
N1127 H1133 0.985 1_556 S
C1128 C1122 1.379 . S
C1128 C1125 1.363 . S
C1128 N1126 1.356 . S
C1129 C1123 1.363 . S
C1129 C1124 1.379 . S
C1129 N1127 1.356 . S
N1130 C1122 1.356 . S
N1130 H1136 0.984 . S
N1130 H1137 0.984 . S
N1131 C1124 1.356 . S
N1131 H1134 0.984 . S
N1131 H1135 0.985 1_556 S
H1132 N1127 0.984 . S
H1133 N1127 0.985 1_554 S
H1134 N1131 0.984 . S
H1135 N1131 0.985 1_554 S
H1136 N1130 0.984 . S
H1137 N1130 0.984 . S
H1138 N1126 0.984 . S
H1139 N1126 0.985 . S
C1140 C1141 1.363 . S
C1140 C1146 1.379 . S
C1140 N1148 1.356 . S
C1141 C1140 1.363 . S
C1141 C1147 1.363 . S
C1142 C1143 1.363 . S
C1142 C1147 1.379 . S
C1142 N1149 1.356 . S
C1143 C1142 1.363 . S
C1143 C1146 1.363 . S
N1144 C1146 1.356 . S
N1144 H1156 0.984 . S
N1144 H1157 0.985 . S
N1145 C1147 1.356 . S
N1145 H1150 0.984 . S
N1145 H1151 0.985 . S
C1146 C1140 1.379 . S
C1146 C1143 1.363 . S
C1146 N1144 1.356 . S
C1147 C1141 1.363 . S
C1147 C1142 1.379 . S
C1147 N1145 1.356 . S
N1148 C1140 1.356 . S
N1148 H1154 0.984 . S
N1148 H1155 0.984 . S
N1149 C1142 1.356 . S
N1149 H1152 0.984 . S
N1149 H1153 0.985 . S
H1150 N1145 0.984 . S
H1151 N1145 0.985 . S
H1152 N1149 0.984 . S
H1153 N1149 0.985 . S
H1154 N1148 0.984 . S
H1155 N1148 0.984 . S
H1156 N1144 0.984 . S
H1157 N1144 0.985 . S
C1158 C1159 1.363 . S
C1158 C1164 1.379 . S
C1158 N1166 1.356 . S
C1159 C1158 1.363 . S
C1159 C1165 1.363 . S
C1160 C1161 1.363 . S
C1160 C1165 1.379 . S
C1160 N1167 1.356 . S
C1161 C1160 1.363 . S
C1161 C1164 1.363 . S
N1162 C1164 1.356 . S
N1162 H1174 0.984 . S
N1162 H1175 0.985 . S
N1163 C1165 1.356 . S
N1163 H1168 0.984 . S
N1163 H1169 0.985 . S
C1164 C1158 1.379 . S
C1164 C1161 1.363 . S
C1164 N1162 1.356 . S
C1165 C1159 1.363 . S
C1165 C1160 1.379 . S
C1165 N1163 1.356 . S
N1166 C1158 1.356 . S
N1166 H1172 0.984 . S
N1166 H1173 0.984 . S
N1167 C1160 1.356 . S
N1167 H1170 0.984 . S
N1167 H1171 0.985 . S
H1168 N1163 0.984 . S
H1169 N1163 0.985 . S
H1170 N1167 0.984 . S
H1171 N1167 0.985 . S
H1172 N1166 0.984 . S
H1173 N1166 0.984 . S
H1174 N1162 0.984 . S
H1175 N1162 0.985 . S
C1176 C1177 1.363 . S
C1176 C1182 1.379 . S
C1176 N1184 1.356 . S
C1177 C1176 1.363 . S
C1177 C1183 1.363 . S
C1178 C1179 1.363 . S
C1178 C1183 1.379 . S
C1178 N1185 1.356 . S
C1179 C1178 1.363 . S
C1179 C1182 1.363 . S
N1180 C1182 1.356 . S
N1180 H1192 0.984 . S
N1180 H1193 0.985 . S
N1181 C1183 1.356 . S
N1181 H1186 0.984 . S
N1181 H1187 0.985 . S
C1182 C1176 1.379 . S
C1182 C1179 1.363 . S
C1182 N1180 1.356 . S
C1183 C1177 1.363 . S
C1183 C1178 1.379 . S
C1183 N1181 1.356 . S
N1184 C1176 1.356 . S
N1184 H1190 0.984 . S
N1184 H1191 0.984 . S
N1185 C1178 1.356 . S
N1185 H1188 0.984 . S
N1185 H1189 0.985 . S
H1186 N1181 0.984 . S
H1187 N1181 0.985 . S
H1188 N1185 0.984 . S
H1189 N1185 0.985 . S
H1190 N1184 0.984 . S
H1191 N1184 0.984 . S
H1192 N1180 0.984 . S
H1193 N1180 0.985 . S
C1194 C1195 1.363 . S
C1194 C1200 1.379 . S
C1194 N1202 1.356 . S
C1195 C1194 1.363 . S
C1195 C1201 1.363 . S
C1196 C1197 1.363 . S
C1196 C1201 1.379 . S
C1196 N1203 1.356 . S
C1197 C1196 1.363 . S
C1197 C1200 1.363 . S
N1198 C1200 1.356 . S
N1198 H1210 0.984 . S
N1198 H1211 0.985 . S
N1199 C1201 1.356 . S
N1199 H1204 0.984 . S
N1199 H1205 0.985 . S
C1200 C1194 1.379 . S
C1200 C1197 1.363 . S
C1200 N1198 1.356 . S
C1201 C1195 1.363 . S
C1201 C1196 1.379 . S
C1201 N1199 1.356 . S
N1202 C1194 1.356 . S
N1202 H1208 0.984 . S
N1202 H1209 0.984 . S
N1203 C1196 1.356 . S
N1203 H1206 0.984 . S
N1203 H1207 0.985 . S
H1204 N1199 0.984 . S
H1205 N1199 0.985 . S
H1206 N1203 0.984 . S
H1207 N1203 0.985 . S
H1208 N1202 0.984 . S
H1209 N1202 0.984 . S
H1210 N1198 0.984 . S
H1211 N1198 0.985 . S
C1212 C1213 1.363 . S
C1212 C1218 1.379 . S
C1212 N1220 1.356 . S
C1213 C1212 1.363 . S
C1213 C1219 1.363 . S
C1214 C1215 1.363 . S
C1214 C1219 1.379 . S
C1214 N1221 1.356 . S
C1215 C1214 1.363 . S
C1215 C1218 1.363 . S
N1216 C1218 1.356 . S
N1216 H1228 0.984 . S
N1216 H1229 0.985 . S
N1217 C1219 1.356 . S
N1217 H1222 0.984 . S
N1217 H1223 0.985 1_554 S
C1218 C1212 1.379 . S
C1218 C1215 1.363 . S
C1218 N1216 1.356 . S
C1219 C1213 1.363 . S
C1219 C1214 1.379 . S
C1219 N1217 1.356 . S
N1220 C1212 1.356 . S
N1220 H1226 0.984 . S
N1220 H1227 0.984 . S
N1221 C1214 1.356 . S
N1221 H1224 0.984 . S
N1221 H1225 0.985 1_554 S
H1222 N1217 0.984 . S
H1223 N1217 0.985 1_556 S
H1224 N1221 0.984 . S
H1225 N1221 0.985 1_556 S
H1226 N1220 0.984 . S
H1227 N1220 0.984 . S
H1228 N1216 0.984 . S
H1229 N1216 0.985 . S
C1230 C1231 1.363 . S
C1230 C1236 1.379 . S
C1230 N1238 1.356 . S
C1231 C1230 1.363 . S
C1231 C1237 1.363 . S
C1232 C1233 1.363 . S
C1232 C1237 1.379 . S
C1232 N1239 1.356 . S
C1233 C1232 1.363 . S
C1233 C1236 1.363 . S
N1234 C1236 1.356 1_554 S
N1234 H1246 0.984 . S
N1234 H1247 0.985 1_554 S
N1235 C1237 1.356 . S
N1235 H1240 0.984 . S
N1235 H1241 0.985 . S
C1236 C1230 1.379 . S
C1236 C1233 1.363 . S
C1236 N1234 1.356 1_556 S
C1237 C1231 1.363 . S
C1237 C1232 1.379 . S
C1237 N1235 1.356 . S
N1238 C1230 1.356 . S
N1238 H1244 0.984 1_556 S
N1238 H1245 0.984 . S
N1239 C1232 1.356 . S
N1239 H1242 0.984 . S
N1239 H1243 0.985 . S
H1240 N1235 0.984 . S
H1241 N1235 0.985 . S
H1242 N1239 0.984 . S
H1243 N1239 0.985 . S
H1244 N1238 0.984 1_554 S
H1245 N1238 0.984 . S
H1246 N1234 0.984 . S
H1247 N1234 0.985 1_556 S
C529 C338 1.516 . S
C531 C8 1.516 . S
C547 C61 1.516 . S
C549 C259 1.516 . S
C565 C503 1.516 . S
C567 C41 1.516 . S
C583 C94 1.516 . S
C585 C28 1.516 . S
C601 C74 1.516 . S
C603 C272 1.516 . S
C619 C193 1.516 . S
C621 C127 1.516 . S
C637 C437 1.515 . S
C639 C107 1.515 . S
C655 C470 1.516 . S
C657 C140 1.516 . S
C673 C173 1.516 . S
C675 C371 1.516 . S
C691 C226 1.516 . S
C693 C160 1.516 . S
C709 C404 1.516 . S
C711 C206 1.516 . S
C727 C305 1.516 . S
C729 C239 1.516 . S
C745 C523 1.516 . S
C747 C325 1.516 . S
C763 C292 1.516 . S
C765 C358 1.516 . S
C781 C391 1.516 . S
C783 C457 1.516 . S
C799 C490 1.516 . S
C801 C424 1.516 . S
C817 N14 1.411 . S
C819 N5 1.415 . S
C835 N47 1.411 . S
C837 N38 1.415 . S
C853 N80 1.411 . S
C855 N71 1.415 . S
C871 N113 1.411 . S
C873 N104 1.415 . S
C889 N137 1.415 . S
C891 N146 1.411 1_554 S
C907 N179 1.411 . S
C909 N170 1.415 1_554 S
C925 N212 1.411 1_556 S
C927 N203 1.415 . S
C943 N236 1.415 1_556 S
C945 N245 1.411 . S
C961 N278 1.411 1_554 S
C963 N269 1.415 . S
C979 N302 1.415 1_554 S
C981 N311 1.411 . S
C997 N344 1.411 1_556 S
C999 N335 1.415 . S
C1015 N368 1.415 1_556 S
C1017 N377 1.411 . S
C1033 N410 1.411 . S
C1035 N401 1.415 . S
C1051 N443 1.411 . S
C1053 N434 1.415 . S
C1069 N476 1.411 . S
C1071 N467 1.415 . S
C1087 N509 1.411 . S
C1089 N500 1.415 . S
C1105 C17 1.499 . S
C1107 C50 1.499 . S
C1123 C83 1.499 . S
C1125 C116 1.499 . S
C1141 C149 1.499 . S
C1143 C182 1.499 . S
C1159 C215 1.499 . S
C1161 C248 1.499 . S
C1177 C314 1.499 . S
C1179 C281 1.499 . S
C1195 C347 1.499 . S
C1197 C380 1.499 . S
C1213 C446 1.499 . S
C1215 C413 1.499 . S
C1231 C512 1.499 . S
C1233 C479 1.499 . S
