# Generated by pormake.
# Topology wiv, (6)-cn, num edge types: 1
# Building blocks:
#     Node 0, Type 0, BuildingBlock: KUMJIN_clean_sbu_1, # of connection points: 6
#     Node 1, Type 0, BuildingBlock: KUMJIN_clean_sbu_1, # of connection points: 6
#     Node 2, Type 0, BuildingBlock: KUMJIN_clean_sbu_1, # of connection points: 6
#     Node 3, Type 0, BuildingBlock: KUMJIN_clean_sbu_1, # of connection points: 6
#     Node 4, Type 0, BuildingBlock: KUMJIN_clean_sbu_1, # of connection points: 6
#     Node 5, Type 0, BuildingBlock: KUMJIN_clean_sbu_1, # of connection points: 6
#     Node 6, Type 0, BuildingBlock: KUMJIN_clean_sbu_1, # of connection points: 6
#     Node 7, Type 0, BuildingBlock: KUMJIN_clean_sbu_1, # of connection points: 6
#     Node 8, Type 0, BuildingBlock: KUMJIN_clean_sbu_1, # of connection points: 6
#     Node 9, Type 0, BuildingBlock: KUMJIN_clean_sbu_1, # of connection points: 6
#     Node 10, Type 0, BuildingBlock: KUMJIN_clean_sbu_1, # of connection points: 6
#     Node 11, Type 0, BuildingBlock: KUMJIN_clean_sbu_1, # of connection points: 6
#     Node 12, Type 0, BuildingBlock: KUMJIN_clean_sbu_1, # of connection points: 6
#     Node 13, Type 0, BuildingBlock: KUMJIN_clean_sbu_1, # of connection points: 6
#     Node 14, Type 0, BuildingBlock: KUMJIN_clean_sbu_1, # of connection points: 6
#     Node 15, Type 0, BuildingBlock: KUMJIN_clean_sbu_1, # of connection points: 6
#     Edge 16, Type (0, 0), BuildingBlock: OJICUG_clean_linker_0, # of connection points: 2
#     Edge 17, Type (0, 0), BuildingBlock: OJICUG_clean_linker_0, # of connection points: 2
#     Edge 18, Type (0, 0), BuildingBlock: OJICUG_clean_linker_0, # of connection points: 2
#     Edge 19, Type (0, 0), BuildingBlock: OJICUG_clean_linker_0, # of connection points: 2
#     Edge 20, Type (0, 0), BuildingBlock: OJICUG_clean_linker_0, # of connection points: 2
#     Edge 21, Type (0, 0), BuildingBlock: OJICUG_clean_linker_0, # of connection points: 2
#     Edge 22, Type (0, 0), BuildingBlock: OJICUG_clean_linker_0, # of connection points: 2
#     Edge 23, Type (0, 0), BuildingBlock: OJICUG_clean_linker_0, # of connection points: 2
#     Edge 24, Type (0, 0), BuildingBlock: OJICUG_clean_linker_0, # of connection points: 2
#     Edge 25, Type (0, 0), BuildingBlock: OJICUG_clean_linker_0, # of connection points: 2
#     Edge 26, Type (0, 0), BuildingBlock: OJICUG_clean_linker_0, # of connection points: 2
#     Edge 27, Type (0, 0), BuildingBlock: OJICUG_clean_linker_0, # of connection points: 2
#     Edge 28, Type (0, 0), BuildingBlock: OJICUG_clean_linker_0, # of connection points: 2
#     Edge 29, Type (0, 0), BuildingBlock: OJICUG_clean_linker_0, # of connection points: 2
#     Edge 30, Type (0, 0), BuildingBlock: OJICUG_clean_linker_0, # of connection points: 2
#     Edge 31, Type (0, 0), BuildingBlock: OJICUG_clean_linker_0, # of connection points: 2
#     Edge 32, Type (0, 0), BuildingBlock: OJICUG_clean_linker_0, # of connection points: 2
#     Edge 33, Type (0, 0), BuildingBlock: OJICUG_clean_linker_0, # of connection points: 2
#     Edge 34, Type (0, 0), BuildingBlock: OJICUG_clean_linker_0, # of connection points: 2
#     Edge 35, Type (0, 0), BuildingBlock: OJICUG_clean_linker_0, # of connection points: 2
#     Edge 36, Type (0, 0), BuildingBlock: OJICUG_clean_linker_0, # of connection points: 2
#     Edge 37, Type (0, 0), BuildingBlock: OJICUG_clean_linker_0, # of connection points: 2
#     Edge 38, Type (0, 0), BuildingBlock: OJICUG_clean_linker_0, # of connection points: 2
#     Edge 39, Type (0, 0), BuildingBlock: OJICUG_clean_linker_0, # of connection points: 2
#     Edge 40, Type (0, 0), BuildingBlock: OJICUG_clean_linker_0, # of connection points: 2
#     Edge 41, Type (0, 0), BuildingBlock: OJICUG_clean_linker_0, # of connection points: 2
#     Edge 42, Type (0, 0), BuildingBlock: OJICUG_clean_linker_0, # of connection points: 2
#     Edge 43, Type (0, 0), BuildingBlock: OJICUG_clean_linker_0, # of connection points: 2
#     Edge 44, Type (0, 0), BuildingBlock: OJICUG_clean_linker_0, # of connection points: 2
#     Edge 45, Type (0, 0), BuildingBlock: OJICUG_clean_linker_0, # of connection points: 2
#     Edge 46, Type (0, 0), BuildingBlock: OJICUG_clean_linker_0, # of connection points: 2
#     Edge 47, Type (0, 0), BuildingBlock: OJICUG_clean_linker_0, # of connection points: 2
#     Edge 48, Type (0, 0), BuildingBlock: OJICUG_clean_linker_0, # of connection points: 2
#     Edge 49, Type (0, 0), BuildingBlock: OJICUG_clean_linker_0, # of connection points: 2
#     Edge 50, Type (0, 0), BuildingBlock: OJICUG_clean_linker_0, # of connection points: 2
#     Edge 51, Type (0, 0), BuildingBlock: OJICUG_clean_linker_0, # of connection points: 2
#     Edge 52, Type (0, 0), BuildingBlock: OJICUG_clean_linker_0, # of connection points: 2
#     Edge 53, Type (0, 0), BuildingBlock: OJICUG_clean_linker_0, # of connection points: 2
#     Edge 54, Type (0, 0), BuildingBlock: OJICUG_clean_linker_0, # of connection points: 2
#     Edge 55, Type (0, 0), BuildingBlock: OJICUG_clean_linker_0, # of connection points: 2
#     Edge 56, Type (0, 0), BuildingBlock: OJICUG_clean_linker_0, # of connection points: 2
#     Edge 57, Type (0, 0), BuildingBlock: OJICUG_clean_linker_0, # of connection points: 2
#     Edge 58, Type (0, 0), BuildingBlock: OJICUG_clean_linker_0, # of connection points: 2
#     Edge 59, Type (0, 0), BuildingBlock: OJICUG_clean_linker_0, # of connection points: 2
#     Edge 60, Type (0, 0), BuildingBlock: OJICUG_clean_linker_0, # of connection points: 2
#     Edge 61, Type (0, 0), BuildingBlock: OJICUG_clean_linker_0, # of connection points: 2
#     Edge 62, Type (0, 0), BuildingBlock: OJICUG_clean_linker_0, # of connection points: 2
#     Edge 63, Type (0, 0), BuildingBlock: OJICUG_clean_linker_0, # of connection points: 2
# Relax obj value: 0.188
# Max RMSD: 0.237
# Mean RMSD: 0.237
data_MOF--net-wiv--node1-KUMJIN_clean_sbu_1--edge1-OJICUG_clean_linker_0
_symmetry_space_group_name_H-M    P1
_symmetry_Int_Tables_number       1
_symmetry_cell_setting            triclinic
loop_
_symmetry_equiv_pos_as_xyz
'x, y, z'
_cell_length_a     36.064699
_cell_length_b     36.03773
_cell_length_c     20.097605
_cell_angle_alpha  90.025114
_cell_angle_beta   89.962751
_cell_angle_gamma 90.050898
loop_
_atom_site_label
_atom_site_type_symbol
_atom_site_fract_x
_atom_site_fract_y
_atom_site_fract_z
_atom_type_partial_charge
Eu0 Eu 0.37014 0.09661 0.07332 0.0
C1 C 0.22952 0.16638 0.25234 0.0
N2 N 0.26445 0.1694 0.23281 0.0
C3 C 0.25624 0.2365 0.25415 0.0
C4 C 0.19795 0.20415 0.25002 0.0
C5 C 0.27867 0.20398 0.24707 0.0
C6 C 0.21727 0.23719 0.24762 0.0
C7 C 0.14516 0.11735 0.31208 0.0
C8 C 0.21818 0.12388 0.27792 0.0
C9 C 0.12271 0.16193 0.30054 0.0
C10 C 0.14824 0.20264 0.27065 0.0
Eu11 Eu 0.29475 0.10756 0.20354 0.0
N12 N 0.23264 0.08896 0.2379 0.0
C13 C 0.12951 0.0726 0.28429 0.0
C14 C 0.20932 0.05092 0.21991 0.0
C15 C 0.16058 0.04128 0.24024 0.0
H16 H 0.30818 0.20784 0.25346 0.0
H17 H 0.14919 0.01512 0.22351 0.0
H18 H 0.41485 0.01697 0.07803 0.0
H19 H 0.43336 0.23433 0.03066 0.0
H20 H 0.22376 0.02962 0.19225 0.0
H21 H 0.10039 0.06571 0.28775 0.0
H22 H 0.38611 0.18582 0.01105 0.0
H23 H 0.27008 0.26252 0.26446 0.0
H24 H 0.09292 0.16368 0.30529 0.0
H25 H 0.13299 0.22837 0.26711 0.0
H26 H 0.45942 0.99706 0.159 0.0
H27 H 0.20251 0.26323 0.25138 0.0
H28 H 0.48774 0.22057 0.10169 0.0
N29 N 0.42927 0.07331 0.08832 0.0
C30 C 0.45545 0.09819 0.10513 0.0
C31 C 0.46163 0.02496 0.14088 0.0
C32 C 0.48676 0.08714 0.14119 0.0
C33 C 0.43471 0.03656 0.09698 0.0
C34 C 0.48764 0.05063 0.16465 0.0
N35 N 0.41526 0.14456 0.06626 0.0
C36 C 0.41066 0.17904 0.03925 0.0
C37 C 0.47438 0.16206 0.11021 0.0
C38 C 0.44837 0.13509 0.09285 0.0
C39 C 0.46833 0.19865 0.08953 0.0
C40 C 0.43751 0.20659 0.04985 0.0
H41 H 0.50677 0.04288 0.20356 0.0
H42 H 0.53621 0.10652 0.19116 0.0
H43 H 0.52155 0.17209 0.17122 0.0
O44 O 0.38379 0.11029 0.97231 0.0
O45 O 0.39281 0.09848 0.17982 0.0
O46 O 0.3524 0.13601 0.23459 0.0
O47 O 0.37433 0.05208 1.00057 0.0
O48 O 0.33904 0.15264 0.07272 0.0
O49 O 0.32561 0.16009 0.18231 0.0
O50 O 0.33303 0.08291 0.2756 0.0
O51 O 0.27172 0.11074 0.08796 0.0
O52 O 0.31442 0.07499 0.03685 0.0
O53 O 0.27485 0.0841 0.29696 0.0
O54 O 0.30397 0.0467 0.16644 0.0
O55 O 0.36555 0.04658 0.14489 0.0
C56 C 0.38739 0.12519 0.22327 0.0
C57 C 0.40818 0.06499 0.90194 0.0
C58 C 0.4132 0.0656 0.78372 0.0
C59 C 0.44055 0.0381 0.78588 0.0
C60 C 0.43521 0.03719 0.90633 0.0
C61 C 0.45225 0.02455 0.84783 0.0
C62 C 0.39933 0.08056 0.84165 0.0
C63 C 0.33426 0.17426 0.1248 0.0
C64 C 0.38317 0.07561 0.95409 0.0
C65 C 0.51238 0.11399 0.16129 0.0
C66 C 0.505 0.15141 0.14828 0.0
C67 C 0.28447 0.0951 0.03071 0.0
C68 C 0.31376 0.10102 0.38227 0.0
C69 C 0.33635 0.11458 0.55311 0.0
C70 C 0.33411 0.15648 0.54118 0.0
C71 C 0.31206 0.14172 0.37399 0.0
C72 C 0.32213 0.08196 0.44831 0.0
C73 C 0.31877 0.16951 0.42812 0.0
C74 C 0.3363 0.02892 0.16779 0.0
C75 C 0.30753 0.08001 0.3214 0.0
H76 H 0.45144 0.02625 0.74046 0.0
H77 H 0.44224 0.02476 0.95364 0.0
H78 H 0.47289 1.00293 0.85039 0.0
H79 H 0.37817 0.10211 0.83905 0.0
H80 H 0.33981 0.17419 0.5846 0.0
H81 H 0.3064 0.15237 0.32537 0.0
H82 H 0.32066 0.05256 0.43737 0.0
H83 H 0.3151 0.19613 0.40193 0.0
Eu84 Eu 0.11101 0.71389 0.81687 0.0
C85 C 0.10701 0.55346 0.90954 0.0
N86 N 0.08117 0.57819 0.92865 0.0
C87 C 0.03326 0.54144 0.88418 0.0
C88 C 0.09695 0.52202 0.87282 0.0
C89 C 0.04453 0.57082 0.92339 0.0
C90 C 0.05978 0.51801 0.85538 0.0
C91 C 0.17147 0.53752 0.90091 0.0
C92 C 0.14374 0.56201 0.92076 0.0
C93 C 0.16196 0.50807 0.85927 0.0
C94 C 0.12476 0.49894 0.84757 0.0
Eu95 Eu 0.10259 0.63765 0.9455 0.0
N96 N 0.15228 0.59478 0.94976 0.0
C97 C 0.20774 0.54386 0.92268 0.0
C98 C 0.18656 0.5998 0.97725 0.0
C99 C 0.2148 0.57399 0.96472 0.0
H100 H 0.02421 0.59055 0.94115 0.0
H101 H 0.24231 0.57842 0.98455 0.0
H102 H 0.2098 0.6965 0.76103 0.0
H103 H 0.0258 0.86437 0.80327 0.0
H104 H 0.19258 0.6239 1.00734 0.0
H105 H 0.22997 0.525 0.90959 0.0
H106 H 0.03688 0.78893 0.83263 0.0
H107 H 0.00456 0.54014 0.87212 0.0
H108 H 0.18366 0.49353 0.83451 0.0
H109 H 0.11792 0.47544 0.81622 0.0
H110 H 0.26592 0.73211 0.74773 0.0
H111 H 0.05211 0.49846 0.81702 0.0
H112 H 0.07778 0.91101 0.73745 0.0
N113 N 0.17386 0.74176 0.78529 0.0
C114 C 0.1723 0.77709 0.76726 0.0
C115 C 0.24082 0.7471 0.75986 0.0
C116 C 0.21157 0.80684 0.76834 0.0
C117 C 0.20744 0.72611 0.7684 0.0
C118 C 0.2436 0.78593 0.76798 0.0
N119 N 0.09513 0.77745 0.78468 0.0
C120 C 0.05855 0.80249 0.8044 0.0
C121 C 0.12686 0.86393 0.71043 0.0
C122 C 0.13022 0.79053 0.74352 0.0
C123 C 0.08329 0.88156 0.74019 0.0
C124 C 0.05106 0.85178 0.78506 0.0
H125 H 0.27024 0.79947 0.76309 0.0
H126 H 0.23876 0.87066 0.75082 0.0
H127 H 0.1757 0.91395 0.71557 0.0
O128 O 0.08374 0.67692 0.74551 0.0
O129 O 0.11411 0.73683 0.93276 0.0
O130 O 0.08123 0.6924 0.9865 0.0
O131 O 0.08898 0.73487 0.72319 0.0
O132 O 0.05012 0.7026 0.85483 0.0
O133 O 0.05425 0.64068 0.87157 0.0
O134 O 0.11285 0.61457 0.04279 0.0
O135 O 0.09936 0.61656 0.83808 0.0
O136 O 0.13824 0.6559 0.78454 0.0
O137 O 0.05806 0.63837 0.01796 0.0
O138 O 0.15771 0.67002 0.94601 0.0
O139 O 0.16279 0.68148 0.83566 0.0
C140 C 0.09982 0.72343 0.99082 0.0
C141 C 0.10225 0.69403 0.63833 0.0
C142 C 0.11116 0.66978 0.46729 0.0
C143 C 0.15326 0.66911 0.47669 0.0
C144 C 0.14315 0.69301 0.64441 0.0
C145 C 0.16949 0.68407 0.58882 0.0
C146 C 0.08145 0.68665 0.57362 0.0
C147 C 0.03405 0.66924 0.85336 0.0
C148 C 0.08255 0.70231 0.69952 0.0
C149 C 0.21226 0.85668 0.74836 0.0
C150 C 0.17255 0.88424 0.72039 0.0
C151 C 0.12584 0.62127 0.79409 0.0
C152 C 0.06322 0.60151 0.11511 0.0
C153 C 0.05837 0.59932 0.23319 0.0
C154 C 0.03097 0.57189 0.22901 0.0
C155 C 0.03544 0.5746 0.10858 0.0
C156 C 0.07539 0.61255 0.17663 0.0
C157 C 0.01975 0.55927 0.16618 0.0
C158 C 0.17829 0.6746 0.89267 0.0
C159 C 0.07923 0.62235 0.06191 0.0
H160 H 0.1697 0.66209 0.43229 0.0
H161 H 0.15501 0.69881 0.69209 0.0
H162 H 0.19679 0.6862 0.61319 0.0
H163 H 0.05228 0.69137 0.58535 0.0
H164 H 0.0178 0.56128 0.27348 0.0
H165 H 0.0257 0.56596 0.06014 0.0
H166 H 0.09718 0.63343 0.18068 0.0
H167 H 0.99813 0.53865 0.16204 0.0
Eu168 Eu 0.63912 0.91329 0.07314 0.0
C169 C 0.77511 0.84021 0.25616 0.0
N170 N 0.74028 0.83906 0.23543 0.0
C171 C 0.74408 0.77179 0.25968 0.0
C172 C 0.80421 0.80045 0.25523 0.0
C173 C 0.72383 0.80547 0.25021 0.0
C174 C 0.78296 0.76862 0.25418 0.0
C175 C 0.8633 0.88514 0.30761 0.0
C176 C 0.78953 0.88262 0.27789 0.0
C177 C 0.8827 0.83897 0.29863 0.0
C178 C 0.85421 0.79928 0.27336 0.0
Eu179 Eu 0.71361 0.90242 0.20399 0.0
N180 N 0.7768 0.91742 0.23565 0.0
C181 C 0.88136 0.92783 0.27511 0.0
C182 C 0.80227 0.95323 0.21326 0.0
C183 C 0.85176 0.95995 0.23025 0.0
H184 H 0.6941 0.80347 0.25593 0.0
H185 H 0.8646 0.98478 0.21064 0.0
H186 H 0.59676 0.99462 0.06918 0.0
H187 H 0.57437 0.77521 0.05003 0.0
H188 H 0.78887 0.97466 0.18434 0.0
H189 H 0.91093 0.93276 0.27628 0.0
H190 H 0.62203 0.82197 0.02266 0.0
H191 H 0.7285 0.74679 0.27013 0.0
H192 H 0.91239 0.83544 0.30226 0.0
H193 H 0.86778 0.77258 0.27086 0.0
H194 H 0.55091 0.01833 0.14612 0.0
H195 H 0.79607 0.74177 0.25887 0.0
H196 H 0.51953 0.79332 0.11634 0.0
N197 N 0.58086 0.93895 0.08455 0.0
C198 C 0.55389 0.91519 0.10271 0.0
C199 C 0.54921 0.98968 0.1316 0.0
C200 C 0.52297 0.92812 0.13764 0.0
C201 C 0.57622 0.97611 0.08946 0.0
C202 C 0.52358 0.96493 0.15912 0.0
N203 N 0.59319 0.86623 0.07054 0.0
C204 C 0.59751 0.83048 0.04939 0.0
C205 C 0.53317 0.85201 0.11446 0.0
C206 C 0.55999 0.87764 0.09442 0.0
C207 C 0.53912 0.81436 0.10071 0.0
C208 C 0.57034 0.80392 0.0641 0.0
H209 H 0.50646 0.97334 0.20034 0.0
H210 H 0.47239 0.91209 0.18743 0.0
H211 H 0.48397 0.84597 0.17241 0.0
O212 O 0.62254 0.89803 0.97391 0.0
O213 O 0.61574 0.91177 0.17969 0.0
O214 O 0.656 0.87453 0.2356 0.0
O215 O 0.63768 0.95586 0.99681 0.0
O216 O 0.67115 0.85782 0.07176 0.0
O217 O 0.68124 0.8513 0.18216 0.0
O218 O 0.67644 0.92869 0.27635 0.0
O219 O 0.73663 0.89943 0.08844 0.0
O220 O 0.69461 0.93619 0.03814 0.0
O221 O 0.73484 0.9266 0.29594 0.0
O222 O 0.70427 0.96323 0.16695 0.0
O223 O 0.64277 0.9633 0.14459 0.0
C224 C 0.62116 0.8857 0.22449 0.0
C225 C 0.60107 0.944 0.90123 0.0
C226 C 0.59615 0.94479 0.78309 0.0
C227 C 0.57013 0.97354 0.78593 0.0
C228 C 0.5755 0.97318 0.9063 0.0
C229 C 0.55913 0.98716 0.84821 0.0
C230 C 0.60913 0.9285 0.84052 0.0
C231 C 0.67563 0.83655 0.12423 0.0
C232 C 0.62585 0.93208 0.95288 0.0
C233 C 0.49617 0.90289 0.15897 0.0
C234 C 0.50208 0.86499 0.14903 0.0
C235 C 0.72462 0.91623 0.03183 0.0
C236 C 0.69627 0.91063 0.3825 0.0
C237 C 0.67399 0.89666 0.55332 0.0
C238 C 0.67671 0.85482 0.54126 0.0
C239 C 0.69822 0.86998 0.37423 0.0
C240 C 0.68774 0.92951 0.44859 0.0
C241 C 0.69211 0.84203 0.42823 0.0
C242 C 0.67192 0.98098 0.16764 0.0
C243 C 0.70237 0.93151 0.32133 0.0
H244 H 0.55991 0.98633 0.74082 0.0
H245 H 0.56918 0.98577 0.95372 0.0
H246 H 0.53979 0.00997 0.8513 0.0
H247 H 0.62938 0.90612 0.83719 0.0
H248 H 0.67125 0.83702 0.58466 0.0
H249 H 0.70292 0.8596 0.32552 0.0
H250 H 0.6893 0.95889 0.43802 0.0
H251 H 0.69604 0.81547 0.4019 0.0
Eu252 Eu 0.89933 0.29536 0.81918 0.0
C253 C 0.91229 0.45794 0.91021 0.0
N254 N 0.9365 0.43144 0.928 0.0
C255 C 0.98579 0.46414 0.8781 0.0
C256 C 0.9235 0.48779 0.87059 0.0
C257 C 0.97343 0.43609 0.91953 0.0
C258 C 0.96029 0.48869 0.84951 0.0
C259 C 0.84929 0.47922 0.90945 0.0
C260 C 0.87575 0.453 0.9272 0.0
C261 C 0.85964 0.50729 0.86528 0.0
C262 C 0.8968 0.51278 0.8477 0.0
Eu263 Eu 0.91002 0.3738 0.94518 0.0
N264 N 0.86612 0.42183 0.95998 0.0
C265 C 0.81347 0.47574 0.93573 0.0
C266 C 0.83306 0.42016 0.99303 0.0
C267 C 0.80619 0.44758 0.98183 0.0
H268 H 0.99276 0.41516 0.93624 0.0
H269 H 0.77918 0.44551 1.00503 0.0
H270 H 0.80502 0.32218 0.76307 0.0
H271 H 0.97631 0.14118 0.80534 0.0
H272 H 0.82642 0.39656 0.02411 0.0
H273 H 0.79178 0.49521 0.92292 0.0
H274 H 0.96914 0.21671 0.8353 0.0
H275 H 0.01423 0.46342 0.86373 0.0
H276 H 0.83874 0.52326 0.84218 0.0
H277 H 0.90411 0.53496 0.8139 0.0
H278 H 0.74708 0.29086 0.73474 0.0
H279 H 0.96884 0.50764 0.81065 0.0
H280 H 0.89288 0.13205 0.71796 0.0
N281 N 0.8369 0.27334 0.77794 0.0
C282 C 0.83645 0.23806 0.75915 0.0
C283 C 0.7708 0.27378 0.74687 0.0
C284 C 0.79518 0.21149 0.75749 0.0
C285 C 0.80503 0.29217 0.76188 0.0
C286 C 0.76498 0.23501 0.75299 0.0
N287 N 0.9131 0.23204 0.78313 0.0
C288 C 0.94729 0.20463 0.80546 0.0
C289 C 0.87692 0.14747 0.70729 0.0
C290 C 0.87812 0.22138 0.73926 0.0
C291 C 0.91891 0.12675 0.74023 0.0
C292 C 0.95174 0.15498 0.787 0.0
H293 H 0.73759 0.22355 0.74518 0.0
H294 H 0.76339 0.15005 0.73919 0.0
H295 H 0.82321 0.10152 0.70963 0.0
O296 O 0.92216 0.33488 0.74778 0.0
O297 O 0.90006 0.27142 0.93322 0.0
O298 O 0.92549 0.31893 0.99271 0.0
O299 O 0.92355 0.27613 0.72566 0.0
O300 O 0.96032 0.30567 0.8567 0.0
O301 O 0.95623 0.3679 0.86797 0.0
O302 O 0.90146 0.38985 0.04714 0.0
O303 O 0.91039 0.393 0.83816 0.0
O304 O 0.86895 0.35313 0.79342 0.0
O305 O 0.95692 0.37209 0.01286 0.0
O306 O 0.84947 0.35501 0.93189 0.0
O307 O 0.84522 0.29971 0.87372 0.0
C308 C 0.91021 0.28615 0.99278 0.0
C309 C 0.90912 0.31627 0.63872 0.0
C310 C 0.90425 0.33983 0.46676 0.0
C311 C 0.86213 0.34229 0.47387 0.0
C312 C 0.86835 0.31925 0.64228 0.0
C313 C 0.84334 0.32868 0.58514 0.0
C314 C 0.93135 0.32224 0.57489 0.0
C315 C 0.97644 0.33891 0.85236 0.0
C316 C 0.92733 0.30951 0.70227 0.0
C317 C 0.79098 0.16181 0.73859 0.0
C318 C 0.82874 0.13091 0.71413 0.0
C319 C 0.88142 0.38802 0.80004 0.0
C320 C 0.95218 0.40581 0.11393 0.0
C321 C 0.95828 0.40935 0.23196 0.0
C322 C 0.98352 0.4387 0.22596 0.0
C323 C 0.97791 0.4346 0.10574 0.0
C324 C 0.94164 0.39445 0.17628 0.0
C325 C 0.99312 0.45151 0.16239 0.0
C326 C 0.83004 0.32744 0.9062 0.0
C327 C 0.93621 0.38396 0.06168 0.0
H328 H 0.84678 0.34978 0.42851 0.0
H329 H 0.85584 0.3163 0.68975 0.0
H330 H 0.81559 0.328 0.60813 0.0
H331 H 0.95988 0.31573 0.58785 0.0
H332 H 0.99636 0.45066 0.26961 0.0
H333 H 0.98636 0.44361 0.05675 0.0
H334 H 0.92115 0.37239 0.18163 0.0
H335 H 0.01324 0.47353 0.15699 0.0
Eu336 Eu 0.37008 0.41701 0.19137 0.0
C337 C 0.22878 0.34252 0.0149 0.0
N338 N 0.26401 0.34055 0.03262 0.0
C339 C 0.25849 0.27369 1.00942 0.0
C340 C 0.19865 0.3037 0.01763 0.0
C341 C 0.27985 0.30683 0.01891 0.0
C342 C 0.21946 0.27144 0.01687 0.0
C343 C 0.14259 0.38864 0.9569 0.0
C344 C 0.21589 0.3847 0.98989 0.0
C345 C 0.12168 0.34329 0.96879 0.0
C346 C 0.14875 0.30347 0.99813 0.0
Eu347 Eu 0.29128 0.40222 0.06586 0.0
N348 N 0.22933 0.42021 0.02973 0.0
C349 C 0.1256 0.43284 0.98478 0.0
C350 C 0.20489 0.45744 0.0477 0.0
C351 C 0.1558 0.4653 0.02803 0.0
H352 H 0.30976 0.30461 0.01741 0.0
H353 H 0.14363 0.49109 0.04475 0.0
H354 H 0.41576 0.49532 0.15768 0.0
H355 H 0.43515 0.2867 0.27557 0.0
H356 H 0.21866 0.47922 0.0753 0.0
H357 H 0.09626 0.43874 0.98173 0.0
H358 H 0.38896 0.33762 0.2848 0.0
H359 H 0.27327 0.24831 0.99844 0.0
H360 H 0.09194 0.34047 0.96417 0.0
H361 H 0.13446 0.27716 1.00147 0.0
H362 H 0.46201 0.50864 0.0789 0.0
H363 H 0.20569 0.2449 0.01206 0.0
H364 H 0.48551 0.29123 0.1917 0.0
N365 N 0.42902 0.43828 0.16425 0.0
C366 C 0.45416 0.41159 0.1519 0.0
C367 C 0.46302 0.48164 0.10108 0.0
C368 C 0.48479 0.41849 0.11067 0.0
C369 C 0.43491 0.47374 0.14484 0.0
C370 C 0.48829 0.45389 0.08274 0.0
N371 N 0.41602 0.37139 0.21266 0.0
C372 C 0.41277 0.34083 0.25256 0.0
C373 C 0.47188 0.34784 0.16485 0.0
C374 C 0.4473 0.37682 0.17706 0.0
C375 C 0.46693 0.31445 0.19936 0.0
C376 C 0.43854 0.31183 0.24675 0.0
H377 H 0.50927 0.4595 0.04552 0.0
H378 H 0.53024 0.39263 0.05778 0.0
H379 H 0.514 0.32957 0.09875 0.0
O380 O 0.36455 0.41157 0.29743 0.0
O381 O 0.38801 0.41435 0.08357 0.0
O382 O 0.34888 0.37173 0.04072 0.0
O383 O 0.38968 0.46139 0.25483 0.0
O384 O 0.35483 0.35526 0.17612 0.0
O385 O 0.2979 0.34928 0.12414 0.0
O386 O 0.33175 0.42277 0.99317 0.0
O387 O 0.26928 0.4007 0.18106 0.0
O388 O 0.31339 0.43567 0.22916 0.0
O389 O 0.27367 0.42354 0.9692 0.0
O390 O 0.29775 0.46362 0.10124 0.0
O391 O 0.35961 0.46642 0.12286 0.0
C392 C 0.38368 0.38407 0.04842 0.0
C393 C 0.40743 0.44439 0.36283 0.0
C394 C 0.41053 0.43628 0.48047 0.0
C395 C 0.43894 0.46252 0.48467 0.0
C396 C 0.43681 0.46997 0.36539 0.0
C397 C 0.45302 0.47839 0.42662 0.0
C398 C 0.39653 0.42577 0.41953 0.0
C399 C 0.32696 0.33488 0.154 0.0
C400 C 0.38142 0.44315 0.30838 0.0
C401 C 0.50779 0.3888 0.09296 0.0
C402 C 0.49989 0.35325 0.1178 0.0
C403 C 0.28399 0.41488 0.23755 0.0
C404 C 0.31355 0.40486 0.88522 0.0
C405 C 0.33576 0.38992 0.71441 0.0
C406 C 0.33387 0.34828 0.72741 0.0
C407 C 0.31232 0.36423 0.89434 0.0
C408 C 0.32148 0.42347 0.81825 0.0
C409 C 0.3188 0.33594 0.84081 0.0
C410 C 0.32945 0.4826 0.10124 0.0
C411 C 0.30706 0.42618 0.94609 0.0
H412 H 0.44845 0.47214 0.53241 0.0
H413 H 0.44561 0.48496 0.32144 0.0
H414 H 0.47453 0.49907 0.4296 0.0
H415 H 0.37376 0.40598 0.4176 0.0
H416 H 0.33953 0.33027 0.68433 0.0
H417 H 0.30811 0.35423 0.94341 0.0
H418 H 0.31801 0.45296 0.82684 0.0
H419 H 0.31527 0.30947 0.86756 0.0
Eu420 Eu 0.4059 0.71374 0.95361 0.0
C421 C 0.41429 0.55065 0.87981 0.0
N422 N 0.44001 0.57807 0.87969 0.0
C423 C 0.48254 0.53805 0.93554 0.0
C424 C 0.41985 0.51814 0.91682 0.0
C425 C 0.4747 0.57133 0.90369 0.0
C426 C 0.45479 0.51159 0.94356 0.0
C427 C 0.35389 0.52862 0.846 0.0
C428 C 0.38262 0.55454 0.84127 0.0
C429 C 0.35677 0.50054 0.89354 0.0
C430 C 0.39015 0.49384 0.92635 0.0
Eu431 Eu 0.41877 0.63401 0.83228 0.0
N432 N 0.37853 0.58545 0.80376 0.0
C433 C 0.32222 0.53346 0.80661 0.0
C434 C 0.34958 0.58897 0.7606 0.0
C435 C 0.32086 0.56285 0.76134 0.0
H436 H 0.4968 0.59072 0.89633 0.0
H437 H 0.2969 0.56641 0.72959 0.0
H438 H 0.3081 0.69237 1.00212 0.0
H439 H 0.49066 0.86343 0.97266 0.0
H440 H 0.34744 0.61318 0.72905 0.0
H441 H 0.29894 0.51457 0.81008 0.0
H442 H 0.48047 0.78818 0.94198 0.0
H443 H 0.51032 0.53254 0.95194 0.0
H444 H 0.33263 0.48569 0.90819 0.0
H445 H 0.39192 0.47114 0.96121 0.0
H446 H 0.25151 0.72741 0.02508 0.0
H447 H 0.46112 0.48545 0.96689 0.0
H448 H 0.43795 0.90922 0.03795 0.0
N449 N 0.34316 0.73911 0.98725 0.0
C450 C 0.34467 0.77408 1.00709 0.0
C451 C 0.27646 0.7429 0.01385 0.0
C452 C 0.30517 0.80339 1.00604 0.0
C453 C 0.3098 0.72238 1.00194 0.0
C454 C 0.27335 0.78192 1.00751 0.0
N455 N 0.42248 0.77566 0.99002 0.0
C456 C 0.45872 0.80125 0.97067 0.0
C457 C 0.38944 0.86153 0.06421 0.0
C458 C 0.387 0.78796 0.03102 0.0
C459 C 0.4328 0.8797 0.035 0.0
C460 C 0.46547 0.85047 0.9904 0.0
H461 H 0.24663 0.79511 0.01352 0.0
H462 H 0.27746 0.86696 0.02349 0.0
H463 H 0.34009 0.91095 0.05878 0.0
O464 O 0.42351 0.67241 0.02654 0.0
O465 O 0.40577 0.73534 0.83833 0.0
O466 O 0.43565 0.68887 0.78307 0.0
O467 O 0.43054 0.73115 0.04799 0.0
O468 O 0.46559 0.70791 0.9131 0.0
O469 O 0.46284 0.64571 0.912 0.0
O470 O 0.42355 0.6434 0.72701 0.0
O471 O 0.37096 0.61939 0.90079 0.0
O472 O 0.38632 0.65418 0.99148 0.0
O473 O 0.45789 0.60124 0.7744 0.0
O474 O 0.35823 0.65535 0.82888 0.0
O475 O 0.35184 0.70526 0.90114 0.0
C476 C 0.41837 0.72088 0.78025 0.0
C477 C 0.40876 0.69351 0.13444 0.0
C478 C 0.39194 0.67311 0.30571 0.0
C479 C 0.35041 0.67666 0.29169 0.0
C480 C 0.36839 0.69604 0.12486 0.0
C481 C 0.33958 0.69115 0.17776 0.0
C482 C 0.42658 0.68505 0.20188 0.0
C483 C 0.48297 0.67577 0.91892 0.0
C484 C 0.43014 0.69764 0.07244 0.0
C485 C 0.30409 0.85327 0.02585 0.0
C486 C 0.34354 0.88127 0.05395 0.0
C487 C 0.37067 0.62393 0.96516 0.0
C488 C 0.44771 0.59595 0.65858 0.0
C489 C 0.4358 0.59706 0.54095 0.0
C490 C 0.45913 0.56649 0.53176 0.0
C491 C 0.4711 0.56518 0.64999 0.0
C492 C 0.42924 0.61086 0.60419 0.0
C493 C 0.47659 0.5505 0.58646 0.0
C494 C 0.33803 0.6812 0.85885 0.0
C495 C 0.44881 0.61777 0.71928 0.0
H496 H 0.33189 0.67208 0.33444 0.0
H497 H 0.35897 0.69893 0.07551 0.0
H498 H 0.31352 0.69523 0.15009 0.0
H499 H 0.45602 0.68488 0.1921 0.0
H500 H 0.46524 0.55639 0.48228 0.0
H501 H 0.48662 0.55386 0.69139 0.0
H502 H 0.41162 0.63506 0.60997 0.0
H503 H 0.49612 0.52834 0.57891 0.0
Eu504 Eu 0.64017 0.59891 0.19631 0.0
C505 C 0.77486 0.66999 0.01034 0.0
N506 N 0.73949 0.67072 0.02787 0.0
C507 C 0.74187 0.73715 0.99779 0.0
C508 C 0.80293 0.71041 0.01078 0.0
C509 C 0.72215 0.70338 0.01003 0.0
C510 C 0.78061 0.74153 1.00635 0.0
C511 C 0.86384 0.62757 0.95605 0.0
C512 C 0.79018 0.62788 0.98786 0.0
C513 C 0.8821 0.67414 0.9654 0.0
C514 C 0.85279 0.7129 0.99192 0.0
Eu515 Eu 0.71604 0.60758 0.06516 0.0
N516 N 0.77865 0.59229 0.0295 0.0
C517 C 0.88319 0.58504 0.98677 0.0
C518 C 0.80517 0.55695 0.04996 0.0
C519 C 0.85472 0.5517 0.03148 0.0
H520 H 0.69214 0.70442 1.00844 0.0
H521 H 0.8683 0.52703 0.04996 0.0
H522 H 0.60666 0.51054 0.17698 0.0
H523 H 0.55952 0.72147 0.25311 0.0
H524 H 0.79257 0.53495 0.07879 0.0
H525 H 0.91285 0.58082 0.98447 0.0
H526 H 0.61092 0.67746 0.27265 0.0
H527 H 0.72586 0.76151 0.98502 0.0
H528 H 0.91166 0.67852 0.96092 0.0
H529 H 0.86562 0.74001 0.99358 0.0
H530 H 0.55629 0.48447 0.11028 0.0
H531 H 0.79312 0.76856 0.99965 0.0
H532 H 0.51011 0.70492 0.17456 0.0
N533 N 0.58675 0.56598 0.16776 0.0
C534 C 0.55733 0.58771 0.15419 0.0
C535 C 0.55596 0.51361 0.12264 0.0
C536 C 0.52849 0.57455 0.11471 0.0
C537 C 0.58442 0.52843 0.1606 0.0
C538 C 0.53039 0.53777 0.09411 0.0
N539 N 0.58683 0.63499 0.21329 0.0
C540 C 0.58713 0.66871 0.24395 0.0
C541 C 0.52774 0.64741 0.16425 0.0
C542 C 0.55683 0.62322 0.17915 0.0
C543 C 0.52954 0.68375 0.18952 0.0
C544 C 0.55827 0.69373 0.23255 0.0
H545 H 0.51301 0.52796 0.05577 0.0
H546 H 0.47779 0.58952 0.06352 0.0
H547 H 0.47852 0.65328 0.10483 0.0
O548 O 0.63642 0.60995 0.30174 0.0
O549 O 0.62143 0.6418 0.12066 0.0
O550 O 0.65565 0.62487 0.02933 0.0
O551 O 0.63252 0.55302 0.26379 0.0
O552 O 0.66613 0.65711 0.20285 0.0
O553 O 0.70136 0.66294 0.10724 0.0
O554 O 0.676 0.58859 0.99133 0.0
O555 O 0.73926 0.6112 0.17966 0.0
O556 O 0.69595 0.57622 0.22862 0.0
O557 O 0.73502 0.58271 0.97194 0.0
O558 O 0.70519 0.54771 0.1041 0.0
O559 O 0.64443 0.55918 0.10716 0.0
C560 C 0.62531 0.64017 0.056 0.0
C561 C 0.60216 0.5668 0.36387 0.0
C562 C 0.59587 0.56361 0.48148 0.0
C563 C 0.56772 0.53708 0.47593 0.0
C564 C 0.57429 0.53988 0.35602 0.0
C565 C 0.55636 0.5258 0.41249 0.0
C566 C 0.61044 0.58049 0.42576 0.0
C567 C 0.68447 0.67726 0.1588 0.0
C568 C 0.62994 0.57504 0.31467 0.0
C569 C 0.4999 0.59867 0.09615 0.0
C570 C 0.49978 0.63503 0.12088 0.0
C571 C 0.72559 0.59641 0.23644 0.0
C572 C 0.69707 0.6013 0.88364 0.0
C573 C 0.67348 0.61028 0.71208 0.0
C574 C 0.67234 0.65232 0.72183 0.0
C575 C 0.69532 0.64207 0.88961 0.0
C576 C 0.69036 0.58052 0.81842 0.0
C577 C 0.68667 0.6685 0.83412 0.0
C578 C 0.67099 0.5348 0.09769 0.0
C579 C 0.70177 0.58183 0.94686 0.0
H580 H 0.55623 0.52397 0.5198 0.0
H581 H 0.56779 0.52858 0.30752 0.0
H582 H 0.53585 0.50421 0.40714 0.0
H583 H 0.63233 0.60114 0.43126 0.0
H584 H 0.66521 0.6688 0.67755 0.0
H585 H 0.69779 0.65339 0.93806 0.0
H586 H 0.69627 0.55155 0.82939 0.0
H587 H 0.68813 0.69576 0.85887 0.0
Eu588 Eu 0.60414 0.29854 0.95367 0.0
C589 C 0.60134 0.45936 0.8461 0.0
N590 N 0.57449 0.43435 0.8332 0.0
C591 C 0.52851 0.48193 0.83809 0.0
C592 C 0.59245 0.49604 0.86301 0.0
C593 C 0.53825 0.44472 0.82978 0.0
C594 C 0.55583 0.50775 0.85572 0.0
C595 C 0.6663 0.47306 0.85766 0.0
C596 C 0.63798 0.44838 0.84106 0.0
C597 C 0.65691 0.50581 0.89029 0.0
C598 C 0.62036 0.51897 0.88855 0.0
Eu599 Eu 0.59478 0.37318 0.82217 0.0
N600 N 0.64584 0.41433 0.81671 0.0
C601 C 0.70269 0.46455 0.83908 0.0
C602 C 0.68003 0.40775 0.78965 0.0
C603 C 0.70909 0.43292 0.80049 0.0
H604 H 0.517 0.42445 0.81895 0.0
H605 H 0.73658 0.42712 0.78157 0.0
H606 H 0.7038 0.3157 1.00563 0.0
H607 H 0.51796 0.14903 0.97281 0.0
H608 H 0.68539 0.38293 0.76109 0.0
H609 H 0.72532 0.48338 0.84997 0.0
H610 H 0.52939 0.22418 0.94198 0.0
H611 H 0.50002 0.49043 0.83152 0.0
H612 H 0.67805 0.52092 0.91556 0.0
H613 H 0.61391 0.54607 0.90879 0.0
H614 H 0.75985 0.27981 0.01708 0.0
H615 H 0.54873 0.53663 0.86283 0.0
H616 H 0.57042 0.10217 0.03656 0.0
N617 N 0.66732 0.27058 0.98294 0.0
C618 C 0.6657 0.23539 1.00161 0.0
C619 C 0.73451 0.26493 1.00606 0.0
C620 C 0.70471 0.20535 0.99904 0.0
C621 C 0.70119 0.28609 0.99847 0.0
C622 C 0.73691 0.22606 0.99805 0.0
N623 N 0.58826 0.23544 0.98754 0.0
C624 C 0.55126 0.21057 0.96949 0.0
C625 C 0.62022 0.14895 0.06094 0.0
C626 C 0.62376 0.22229 0.02732 0.0
C627 C 0.57615 0.13157 0.03326 0.0
C628 C 0.54361 0.16145 0.98959 0.0
H629 H 0.76349 0.21236 1.00198 0.0
H630 H 0.73155 0.14136 0.0158 0.0
H631 H 0.66857 0.09859 0.054 0.0
O632 O 0.57854 0.33558 0.02695 0.0
O633 O 0.60754 0.27443 0.83882 0.0
O634 O 0.57275 0.31742 0.78632 0.0
O635 O 0.58067 0.2771 0.04597 0.0
O636 O 0.54383 0.30979 0.91507 0.0
O637 O 0.54603 0.37167 0.89452 0.0
O638 O 0.60755 0.38893 0.72192 0.0
O639 O 0.59306 0.39684 0.92747 0.0
O640 O 0.63083 0.35721 0.98386 0.0
O641 O 0.55025 0.37413 0.74955 0.0
O642 O 0.64893 0.3392 0.82305 0.0
O643 O 0.65541 0.33104 0.93383 0.0
C644 C 0.59243 0.2871 0.7811 0.0
C645 C 0.59682 0.31554 0.13258 0.0
C646 C 0.60973 0.33911 0.30302 0.0
C647 C 0.65162 0.33849 0.29086 0.0
C648 C 0.63753 0.31541 0.12401 0.0
C649 C 0.66514 0.3233 0.1779 0.0
C650 C 0.57749 0.32321 0.19869 0.0
C651 C 0.52734 0.34288 0.91653 0.0
C652 C 0.57608 0.3095 0.07162 0.0
C653 C 0.70521 0.15553 0.01927 0.0
C654 C 0.66561 0.12831 0.04911 0.0
C655 C 0.61901 0.39192 0.97243 0.0
C656 C 0.56057 0.40914 0.65166 0.0
C657 C 0.56016 0.41478 0.53378 0.0
C658 C 0.53117 0.44044 0.53693 0.0
C659 C 0.53077 0.43376 0.65687 0.0
C660 C 0.57648 0.40172 0.59105 0.0
C661 C 0.51696 0.45037 0.59935 0.0
C662 C 0.67021 0.33563 0.87562 0.0
C663 C 0.57316 0.38504 0.70334 0.0
H664 H 0.66913 0.34501 0.33415 0.0
H665 H 0.64821 0.31059 0.07521 0.0
H666 H 0.69184 0.32059 0.15162 0.0
H667 H 0.54803 0.31955 0.18871 0.0
H668 H 0.51873 0.45105 0.4919 0.0
H669 H 0.51735 0.43912 0.70375 0.0
H670 H 0.59928 0.38196 0.58761 0.0
H671 H 0.49381 0.46888 0.6038 0.0
Eu672 Eu 0.87435 0.60099 0.57523 0.0
C673 C 0.73273 0.67015 0.74996 0.0
N674 N 0.76793 0.67205 0.73162 0.0
C675 C 0.76169 0.73908 0.75631 0.0
C676 C 0.70241 0.70894 0.74737 0.0
C677 C 0.78311 0.70591 0.74845 0.0
C678 C 0.72289 0.74129 0.74744 0.0
C679 C 0.64648 0.6237 0.8073 0.0
C680 C 0.7199 0.62806 0.77499 0.0
C681 C 0.62549 0.66897 0.79564 0.0
C682 C 0.6525 0.70894 0.76673 0.0
Eu683 Eu 0.79656 0.60911 0.70223 0.0
N684 N 0.73359 0.59279 0.73505 0.0
C685 C 0.62972 0.57958 0.77878 0.0
C686 C 0.70924 0.55558 0.71615 0.0
C687 C 0.66015 0.54738 0.73546 0.0
H688 H 0.81264 0.70863 0.75623 0.0
H689 H 0.64808 0.52162 0.71828 0.0
H690 H 0.92134 0.52302 0.58768 0.0
H691 H 0.93312 0.74073 0.53309 0.0
H692 H 0.72322 0.53389 0.6887 0.0
H693 H 0.60033 0.57372 0.781 0.0
H694 H 0.88785 0.69058 0.51227 0.0
H695 H 0.77629 0.76444 0.76847 0.0
H696 H 0.59573 0.67164 0.7999 0.0
H697 H 0.63812 0.73518 0.76335 0.0
H698 H 0.97168 0.50514 0.65956 0.0
H699 H 0.709 0.76778 0.75169 0.0
H700 H 0.98686 0.72942 0.60741 0.0
N701 N 0.93323 0.58027 0.59819 0.0
C702 C 0.95795 0.60654 0.61533 0.0
C703 C 0.97029 0.5333 0.64451 0.0
C704 C 0.99017 0.59704 0.65032 0.0
C705 C 0.94075 0.54374 0.60514 0.0
C706 C 0.99492 0.56008 0.66873 0.0
N707 N 0.91661 0.65122 0.57243 0.0
C708 C 0.91171 0.68507 0.54315 0.0
C709 C 0.97417 0.6711 0.61938 0.0
C710 C 0.94934 0.64311 0.60204 0.0
C711 C 0.96779 0.70705 0.59604 0.0
C712 C 0.93749 0.71354 0.55433 0.0
H713 H 0.01659 0.55247 0.70335 0.0
H714 H 0.03765 0.61889 0.70304 0.0
H715 H 0.0191 0.68433 0.68271 0.0
O716 O 0.90476 0.60812 0.48295 0.0
O717 O 0.89312 0.59779 0.68379 0.0
O718 O 0.85406 0.63754 0.73484 0.0
O719 O 0.87503 0.55535 0.50491 0.0
O720 O 0.84171 0.65593 0.57209 0.0
O721 O 0.82812 0.66127 0.68191 0.0
O722 O 0.83337 0.58249 0.77455 0.0
O723 O 0.77314 0.60899 0.58676 0.0
O724 O 0.82106 0.58742 0.52076 0.0
O725 O 0.77521 0.58599 0.79499 0.0
O726 O 0.80698 0.54863 0.66324 0.0
O727 O 0.86885 0.55224 0.64857 0.0
C728 C 0.8887 0.62513 0.72609 0.0
C729 C 0.91036 0.55873 0.40482 0.0
C730 C 0.90749 0.55995 0.28618 0.0
C731 C 0.93671 0.53437 0.28252 0.0
C732 C 0.9393 0.53297 0.40278 0.0
C733 C 0.95257 0.52088 0.34118 0.0
C734 C 0.89482 0.57236 0.34728 0.0
C735 C 0.83486 0.67659 0.62462 0.0
C736 C 0.89739 0.57394 0.4661 0.0
C737 C 0.01365 0.62523 0.67271 0.0
C738 C 1.00425 0.66222 0.65982 0.0
C739 C 0.78681 0.59903 0.52569 0.0
C740 C 0.81466 0.60098 0.88084 0.0
C741 C 0.83747 0.61398 0.05177 0.0
C742 C 0.83608 0.65595 0.03983 0.0
C743 C 0.81384 0.6417 0.87265 0.0
C744 C 0.8227 0.58162 0.94683 0.0
C745 C 0.82112 0.66931 0.92672 0.0
C746 C 0.83999 0.53233 0.66634 0.0
C747 C 0.80761 0.58046 0.81986 0.0
H748 H 0.94665 0.52452 0.23488 0.0
H749 H 0.95177 0.52279 0.44827 0.0
H750 H 0.97489 0.50098 0.33897 0.0
H751 H 0.87288 0.59299 0.35008 0.0
H752 H 0.842 0.67354 0.08332 0.0
H753 H 0.80815 0.65247 0.82422 0.0
H754 H 0.81979 0.55215 0.93636 0.0
H755 H 0.81797 0.69599 0.90053 0.0
Eu756 Eu 0.60514 0.21694 0.31727 0.0
C757 C 0.59094 0.05655 0.40497 0.0
N758 N 0.56767 0.08469 0.4189 0.0
C759 C 0.51767 0.05143 0.37089 0.0
C760 C 0.57981 0.02752 0.36353 0.0
C761 C 0.53049 0.08007 0.41123 0.0
C762 C 0.54344 0.02771 0.34074 0.0
C763 C 0.65196 0.03024 0.41543 0.0
C764 C 0.62615 0.05782 0.43079 0.0
C765 C 0.64163 1.00238 0.37024 0.0
C766 C 0.60563 1.00064 0.34454 0.0
Eu767 Eu 0.59737 0.14026 0.44759 0.0
N768 N 0.63618 0.08853 0.46494 0.0
C769 C 0.68786 0.03353 0.4418 0.0
C770 C 0.66974 0.09046 0.49594 0.0
C771 C 0.69606 0.06259 0.4854 0.0
H772 H 0.51124 0.10096 0.42853 0.0
H773 H 0.72348 0.065 0.50684 0.0
H774 H 0.7028 0.19552 0.25895 0.0
H775 H 0.52218 0.36813 0.30165 0.0
H776 H 0.67729 0.11472 0.52453 0.0
H777 H 0.70981 0.01464 0.42804 0.0
H778 H 0.53178 0.29263 0.33135 0.0
H779 H 0.48869 0.05096 0.35787 0.0
H780 H 0.66159 0.98335 0.35205 0.0
H781 H 0.59823 0.97874 0.31003 0.0
H782 H 0.75935 0.23032 0.23832 0.0
H783 H 0.53549 0.00967 0.30042 0.0
H784 H 0.57487 0.41355 0.23502 0.0
N785 N 0.66812 0.24206 0.2803 0.0
C786 C 0.66677 0.27737 0.26214 0.0
C787 C 0.73465 0.24586 0.25085 0.0
C788 C 0.70662 0.30631 0.26211 0.0
C789 C 0.70115 0.22549 0.26206 0.0
C790 C 0.73822 0.28469 0.25908 0.0
N791 N 0.58927 0.27966 0.28177 0.0
C792 C 0.55346 0.30558 0.30228 0.0
C793 C 0.62261 0.36537 0.20694 0.0
C794 C 0.62446 0.29177 0.2396 0.0
C795 C 0.57971 0.38398 0.23769 0.0
C796 C 0.54709 0.35499 0.28315 0.0
H797 H 0.76502 0.29774 0.25284 0.0
H798 H 0.73494 0.36956 0.2441 0.0
H799 H 0.67257 0.41424 0.21105 0.0
O800 O 0.58488 0.17772 0.2432 0.0
O801 O 0.60809 0.24044 0.43203 0.0
O802 O 0.57486 0.19594 0.48262 0.0
O803 O 0.57935 0.23694 0.22577 0.0
O804 O 0.54547 0.20654 0.35759 0.0
O805 O 0.5547 0.14509 0.36212 0.0
O806 O 0.60833 0.13548 0.55292 0.0
O807 O 0.63903 0.12175 0.36927 0.0
O808 O 0.62051 0.15588 0.27917 0.0
O809 O 0.55145 0.13206 0.51473 0.0
O810 O 0.65436 0.16898 0.45478 0.0
O811 O 0.6605 0.19817 0.35335 0.0
C812 C 0.5941 0.22641 0.4894 0.0
C813 C 0.59756 0.19981 0.13648 0.0
C814 C 0.60625 0.17528 0.96545 0.0
C815 C 0.64831 0.17462 0.97472 0.0
C816 C 0.63836 0.19856 0.14213 0.0
C817 C 0.66468 0.18978 0.08651 0.0
C818 C 0.57665 0.19249 0.07172 0.0
C819 C 0.53147 0.17271 0.35127 0.0
C820 C 0.57821 0.20398 0.1997 0.0
C821 C 0.70812 0.35616 0.24251 0.0
C822 C 0.66879 0.3846 0.21582 0.0
C823 C 0.63602 0.12525 0.3048 0.0
C824 C 0.56456 0.1025 0.61594 0.0
C825 C 0.56092 0.09743 0.73382 0.0
C826 C 0.53363 0.07 0.72874 0.0
C827 C 0.53695 0.0753 0.60874 0.0
C828 C 0.57817 0.11124 0.67781 0.0
C829 C 0.52212 0.05848 0.66557 0.0
C830 C 0.67484 0.18405 0.40737 0.0
C831 C 0.57336 0.12953 0.56579 0.0
H832 H 0.66471 0.1674 0.93036 0.0
H833 H 0.64982 0.20145 0.19047 0.0
H834 H 0.69198 0.19165 0.11091 0.0
H835 H 0.54754 0.19717 0.08362 0.0
H836 H 0.52014 0.05924 0.77279 0.0
H837 H 0.52559 0.06865 0.56036 0.0
H838 H 0.59914 0.13284 0.6829 0.0
H839 H 0.49981 0.03877 0.66058 0.0
Eu840 Eu 0.13691 0.40804 0.57317 0.0
C841 C 0.27243 0.33549 0.75728 0.0
N842 N 0.23737 0.33565 0.73765 0.0
C843 C 0.23854 0.26869 0.76524 0.0
C844 C 0.29991 0.29461 0.75738 0.0
C845 C 0.2196 0.30304 0.75453 0.0
C846 C 0.27723 0.26375 0.75856 0.0
C847 C 0.36207 0.37699 0.81034 0.0
C848 C 0.28832 0.37723 0.77892 0.0
C849 C 0.37967 0.33007 0.80202 0.0
C850 C 0.34975 0.29148 0.77643 0.0
Eu851 Eu 0.21326 0.39961 0.70295 0.0
N852 N 0.27716 0.4124 0.73609 0.0
C853 C 0.3819 0.41904 0.77823 0.0
C854 C 0.30414 0.44719 0.71421 0.0
C855 C 0.35378 0.45218 0.73244 0.0
H856 H 0.18977 0.30232 0.75975 0.0
H857 H 0.36765 0.4765 0.71303 0.0
H858 H 0.08932 0.48617 0.58161 0.0
H859 H 0.07831 0.26808 0.53077 0.0
H860 H 0.29176 0.46908 0.68491 0.0
H861 H 0.4116 0.42299 0.78028 0.0
H862 H 0.1236 0.31837 0.50947 0.0
H863 H 0.22196 0.24448 0.77677 0.0
H864 H 0.40918 0.32536 0.80633 0.0
H865 H 0.36222 0.26423 0.7747 0.0
H866 H 0.03766 0.50455 0.65019 0.0
H867 H 0.28922 0.23643 0.76429 0.0
H868 H 0.02485 0.27946 0.60588 0.0
N869 N 0.07737 0.42892 0.59191 0.0
C870 C 0.05269 0.40265 0.6096 0.0
C871 C 0.03961 0.47608 0.63661 0.0
C872 C 0.02046 0.41215 0.64455 0.0
C873 C 0.06967 0.46548 0.59836 0.0
C874 C 0.01546 0.44914 0.66208 0.0
N875 N 0.09438 0.35797 0.56841 0.0
C876 C 0.0995 0.32398 0.53975 0.0
C877 C 0.03711 0.33796 0.61646 0.0
C878 C 0.06156 0.36605 0.59767 0.0
C879 C 0.04366 0.30191 0.59367 0.0
C880 C 0.0738 0.29543 0.5514 0.0
H881 H 0.99427 0.45626 0.6979 0.0
H882 H 0.97317 0.39047 0.69831 0.0
H883 H 0.99228 0.32503 0.6813 0.0
O884 O 0.11221 0.39941 0.47647 0.0
O885 O 0.11644 0.41036 0.6811 0.0
O886 O 0.15573 0.37121 0.73375 0.0
O887 O 0.1379 0.45336 0.50246 0.0
O888 O 0.17005 0.35349 0.56938 0.0
O889 O 0.18106 0.3486 0.67965 0.0
O890 O 0.17643 0.42782 0.77328 0.0
O891 O 0.23679 0.39785 0.5876 0.0
O892 O 0.19165 0.42843 0.53022 0.0
O893 O 0.23448 0.42292 0.79559 0.0
O894 O 0.2021 0.46025 0.66385 0.0
O895 O 0.14021 0.45602 0.64771 0.0
C896 C 0.12114 0.38347 0.72435 0.0
C897 C 0.10109 0.45011 0.40498 0.0
C898 C 0.09956 0.45609 0.28696 0.0
C899 C 0.0722 0.48351 0.29164 0.0
C900 C 0.07444 0.47805 0.41198 0.0
C901 C 0.05949 0.49434 0.35467 0.0
C902 C 0.1125 0.43856 0.34324 0.0
C903 C 0.17744 0.33312 0.62185 0.0
C904 C 0.12083 0.43304 0.45836 0.0
C905 C 0.99729 0.384 0.66827 0.0
C906 C 0.00718 0.34695 0.65738 0.0
C907 C 0.22362 0.41135 0.52873 0.0
C908 C 0.19355 0.41094 0.88103 0.0
C909 C 0.16921 0.40253 0.05219 0.0
C910 C 0.16825 0.36032 0.04281 0.0
C911 C 0.19206 0.3701 0.87523 0.0
C912 C 0.18637 0.432 0.94571 0.0
C913 C 0.18294 0.34395 0.93071 0.0
C914 C 0.1688 0.47633 0.66526 0.0
C915 C 0.2019 0.42989 0.81908 0.0
H916 H 0.06164 0.49689 0.24736 0.0
H917 H 0.06563 0.48735 0.46064 0.0
H918 H 0.03906 0.51609 0.35924 0.0
H919 H 0.13318 0.41665 0.33887 0.0
H920 H 0.16113 0.34394 0.08721 0.0
H921 H 0.19743 0.35813 0.8277 0.0
H922 H 0.19155 0.46108 0.93393 0.0
H923 H 0.18472 0.31663 0.90622 0.0
Eu924 Eu 0.40468 0.79371 0.31929 0.0
C925 C 0.4175 0.95449 0.39768 0.0
N926 N 0.44081 0.92653 0.41225 0.0
C927 C 0.49054 0.95899 0.36178 0.0
C928 C 0.42855 0.98338 0.35573 0.0
C929 C 0.47791 0.931 0.40354 0.0
C930 C 0.46493 0.9833 0.33272 0.0
C931 C 0.3568 0.98123 0.40971 0.0
C932 C 0.38261 0.95371 0.42493 0.0
C933 C 0.36691 0.00877 0.36396 0.0
C934 C 0.40272 0.01033 0.33729 0.0
Eu935 Eu 0.41153 0.87175 0.44666 0.0
N936 N 0.37306 0.92388 0.46181 0.0
C937 C 0.3211 0.97838 0.43717 0.0
C938 C 0.33995 0.92274 0.49454 0.0
C939 C 0.31333 0.95014 0.48264 0.0
H940 H 0.49726 0.91044 0.42161 0.0
H941 H 0.28614 0.94816 0.50518 0.0
H942 H 0.30968 0.82265 0.2629 0.0
H943 H 0.47696 0.63756 0.30933 0.0
H944 H 0.33288 0.89927 0.52551 0.0
H945 H 0.29911 0.99717 0.42315 0.0
H946 H 0.47271 0.71378 0.33567 0.0
H947 H 0.51938 0.95876 0.348 0.0
H948 H 0.34685 0.02771 0.34652 0.0
H949 H 0.40991 0.03209 0.30243 0.0
H950 H 0.25133 0.79218 0.2346 0.0
H951 H 0.47331 1.0025 0.29434 0.0
H952 H 0.42198 0.59531 0.24243 0.0
N953 N 0.34075 0.77329 0.28009 0.0
C954 C 0.34 0.73824 0.25999 0.0
C955 C 0.27473 0.77476 0.24717 0.0
C956 C 0.29821 0.71223 0.25919 0.0
C957 C 0.30914 0.7926 0.26244 0.0
C958 C 0.26834 0.73613 0.25387 0.0
N959 N 0.41719 0.73045 0.28292 0.0
C960 C 0.45062 0.70218 0.30579 0.0
C961 C 0.37846 0.64647 0.21025 0.0
C962 C 0.38169 0.72052 0.23976 0.0
C963 C 0.41935 0.62519 0.24361 0.0
C964 C 0.4534 0.65227 0.28912 0.0
H965 H 0.24082 0.72501 0.24603 0.0
H966 H 0.2657 0.65094 0.24254 0.0
H967 H 0.32506 0.60144 0.21426 0.0
O968 O 0.42602 0.83264 0.24598 0.0
O969 O 0.40405 0.7705 0.43372 0.0
O970 O 0.43286 0.81707 0.48893 0.0
O971 O 0.43109 0.77315 0.22853 0.0
O972 O 0.46404 0.80341 0.361 0.0
O973 O 0.45411 0.86459 0.36185 0.0
O974 O 0.40091 0.87562 0.55238 0.0
O975 O 0.36741 0.88728 0.37071 0.0
O976 O 0.38858 0.85459 0.28127 0.0
O977 O 0.45678 0.88497 0.51257 0.0
O978 O 0.35353 0.84568 0.45241 0.0
O979 O 0.34915 0.80418 0.36478 0.0
C980 C 0.41609 0.78496 0.49214 0.0
C981 C 0.41372 0.81095 0.13916 0.0
C982 C 0.40286 0.83525 0.96842 0.0
C983 C 0.36086 0.83503 0.97927 0.0
C984 C 0.37312 0.81185 0.14589 0.0
C985 C 0.34608 0.81989 0.09147 0.0
C986 C 0.4339 0.81882 0.07377 0.0
C987 C 0.47794 0.8372 0.35411 0.0
C988 C 0.43298 0.80626 0.20253 0.0
C989 C 0.29342 0.66236 0.24161 0.0
C990 C 0.33091 0.6308 0.21791 0.0
C991 C 0.37121 0.88432 0.3063 0.0
C992 C 0.44269 0.91071 0.61689 0.0
C993 C 0.44596 0.91322 0.73522 0.0
C994 C 0.47182 0.94211 0.7322 0.0
C995 C 0.46876 0.93954 0.61191 0.0
C996 C 0.42985 0.89949 0.67808 0.0
C997 C 0.48279 0.95566 0.67007 0.0
C998 C 0.33423 0.8237 0.41278 0.0
C999 C 0.43533 0.88461 0.56442 0.0
H1000 H 0.34383 0.84183 0.93552 0.0
H1001 H 0.36251 0.81028 0.1944 0.0
H1002 H 0.31913 0.81776 0.1171 0.0
H1003 H 0.46317 0.81489 0.08483 0.0
H1004 H 0.4847 0.9526 0.777 0.0
H1005 H 0.47964 0.94805 0.56405 0.0
H1006 H 0.41007 0.8767 0.68146 0.0
H1007 H 0.50404 0.97662 0.66696 0.0
Eu1008 Eu 0.87551 0.91627 0.68487 0.0
C1009 C 0.73835 0.84276 0.51199 0.0
N1010 N 0.7732 0.84326 0.533 0.0
C1011 C 0.77382 0.77704 0.50188 0.0
C1012 C 0.71159 0.80148 0.51218 0.0
C1013 C 0.79211 0.81134 0.51699 0.0
C1014 C 0.73509 0.77119 0.50831 0.0
C1015 C 0.64801 0.88233 0.45768 0.0
C1016 C 0.72178 0.88434 0.48937 0.0
C1017 C 0.63128 0.83517 0.46692 0.0
C1018 C 0.66184 0.79737 0.49325 0.0
Eu1019 Eu 0.7955 0.90695 0.56728 0.0
N1020 N 0.73221 0.92018 0.53108 0.0
C1021 C 0.62738 0.92428 0.4885 0.0
C1022 C 0.70457 0.95462 0.55177 0.0
C1023 C 0.65485 0.95842 0.53338 0.0
H1024 H 0.82213 0.81162 0.51747 0.0
H1025 H 0.64052 0.98263 0.55208 0.0
H1026 H 0.91767 0.99557 0.62689 0.0
H1027 H 0.94482 0.79517 0.78195 0.0
H1028 H 0.71646 0.97695 0.58073 0.0
H1029 H 0.59761 0.92761 0.48626 0.0
H1030 H 0.89851 0.846 0.78736 0.0
H1031 H 0.79092 0.75339 0.48932 0.0
H1032 H 0.60187 0.82984 0.46253 0.0
H1033 H 0.64988 0.76986 0.49493 0.0
H1034 H 0.969 0.0081 0.54807 0.0
H1035 H 0.72365 0.74375 0.50077 0.0
H1036 H 0.9948 0.79787 0.69842 0.0
N1037 N 0.93022 0.93854 0.63515 0.0
C1038 C 0.95803 0.91362 0.63309 0.0
C1039 C 0.96547 0.98064 0.56875 0.0
C1040 C 0.98875 0.91931 0.59131 0.0
C1041 C 0.93584 0.97342 0.61162 0.0
C1042 C 0.99176 0.95301 0.55727 0.0
N1043 N 0.92546 0.87802 0.71303 0.0
C1044 C 0.92246 0.84861 0.75524 0.0
C1045 C 0.98146 0.8539 0.66662 0.0
C1046 C 0.95563 0.88239 0.67332 0.0
C1047 C 0.97674 0.82156 0.70459 0.0
C1048 C 0.9482 0.8197 0.75151 0.0
H1049 H 0.01509 0.9586 0.52516 0.0
H1050 H 0.03666 0.89291 0.54752 0.0
H1051 H 0.0245 0.83381 0.60452 0.0
O1052 O 0.85941 0.93976 0.78122 0.0
O1053 O 0.89075 0.86956 0.61551 0.0
O1054 O 0.85588 0.88869 0.52762 0.0
O1055 O 0.91323 0.95142 0.73933 0.0
O1056 O 0.85712 0.85531 0.68332 0.0
O1057 O 0.80156 0.8526 0.62436 0.0
O1058 O 0.83541 0.9252 0.49207 0.0
O1059 O 0.77542 0.92029 0.68232 0.0
O1060 O 0.82464 0.90185 0.74833 0.0
O1061 O 0.77648 0.93111 0.47318 0.0
O1062 O 0.80148 0.96726 0.60603 0.0
O1063 O 0.86202 0.95785 0.60216 0.0
C1064 C 0.88598 0.87131 0.55147 0.0
C1065 C 0.90964 0.95403 0.85406 0.0
C1066 C 0.90808 0.93968 0.97103 0.0
C1067 C 0.94108 0.95969 0.98036 0.0
C1068 C 0.94303 0.97344 0.86334 0.0
C1069 C 0.95852 0.97629 0.92644 0.0
C1070 C 0.89272 0.93636 0.90764 0.0
C1071 C 0.82855 0.83671 0.65866 0.0
C1072 C 0.89144 0.95588 0.7896 0.0
C1073 C 0.01429 0.89064 0.58324 0.0
C1074 C 0.00915 0.85754 0.61839 0.0
C1075 C 0.78944 0.91126 0.74362 0.0
C1076 C 0.81412 0.91102 0.38413 0.0
C1077 C 0.83591 0.89719 0.21221 0.0
C1078 C 0.83573 0.85548 0.22507 0.0
C1079 C 0.81465 0.87034 0.39248 0.0
C1080 C 0.8211 0.93011 0.31688 0.0
C1081 C 0.8219 0.84233 0.3387 0.0
C1082 C 0.83474 0.98184 0.59943 0.0
C1083 C 0.80965 0.93164 0.4473 0.0
H1084 H 0.95259 0.96364 0.02956 0.0
H1085 H 0.95637 0.9876 0.82222 0.0
H1086 H 0.98309 0.99275 0.93417 0.0
H1087 H 0.86711 0.92105 0.90055 0.0
H1088 H 0.84175 0.83776 0.18174 0.0
H1089 H 0.8122 0.86027 0.44149 0.0
H1090 H 0.81694 0.95958 0.32614 0.0
H1091 H 0.81965 0.81569 0.36533 0.0
Eu1092 Eu 0.90123 0.21712 0.45591 0.0
C1093 C 0.91633 0.05709 0.3462 0.0
N1094 N 0.93936 0.08525 0.33099 0.0
C1095 C 0.99126 0.05242 0.37143 0.0
C1096 C 0.93015 0.02522 0.37692 0.0
C1097 C 0.97667 0.08116 0.33438 0.0
C1098 C 0.9671 0.02574 0.39698 0.0
C1099 C 0.85394 0.03358 0.35368 0.0
C1100 C 0.87869 0.06214 0.33773 0.0
C1101 C 0.86779 1.00168 0.3848 0.0
C1102 C 0.90579 0.99692 0.39512 0.0
Eu1103 Eu 0.91196 0.14296 0.32168 0.0
N1104 N 0.86633 0.09561 0.31668 0.0
C1105 C 0.81626 0.0386 0.33943 0.0
C1106 C 0.8305 0.09949 0.29593 0.0
C1107 C 0.80487 0.07093 0.307 0.0
H1108 H 0.99464 0.10249 0.31546 0.0
H1109 H 0.77613 0.07446 0.29285 0.0
H1110 H 0.8004 0.20374 0.50306 0.0
H1111 H 0.99341 0.3625 0.47823 0.0
H1112 H 0.82126 0.12457 0.27186 0.0
H1113 H 0.79592 0.01758 0.35159 0.0
H1114 H 0.97938 0.28766 0.44824 0.0
H1115 H 0.02034 0.05307 0.38355 0.0
H1116 H 0.84947 0.98184 0.40566 0.0
H1117 H 0.91571 0.97247 0.42091 0.0
H1118 H 0.74564 0.24201 0.511 0.0
H1119 H 0.97611 0.0076 0.43582 0.0
H1120 H 0.94186 0.41196 0.53799 0.0
N1121 N 0.83906 0.24734 0.48294 0.0
C1122 C 0.84179 0.2825 0.50126 0.0
C1123 C 0.77175 0.25573 0.50107 0.0
C1124 C 0.80413 0.31405 0.49598 0.0
C1125 C 0.80431 0.2332 0.49593 0.0
C1126 C 0.77115 0.29466 0.49307 0.0
N1127 N 0.91936 0.2792 0.49101 0.0
C1128 C 0.95767 0.30234 0.47443 0.0
C1129 C 0.88983 0.36745 0.56094 0.0
C1130 C 0.88381 0.29405 0.52873 0.0
C1131 C 0.93499 0.38279 0.5351 0.0
C1132 C 0.96699 0.35127 0.4939 0.0
H1133 H 0.74509 0.30945 0.49537 0.0
H1134 H 0.77967 0.3792 0.50998 0.0
H1135 H 0.84369 0.41967 0.55054 0.0
O1136 O 0.92663 0.17838 0.52716 0.0
O1137 O 0.89724 0.24053 0.34087 0.0
O1138 O 0.93473 0.19906 0.29191 0.0
O1139 O 0.92337 0.23624 0.55084 0.0
O1140 O 0.9618 0.20759 0.41836 0.0
O1141 O 0.96157 0.14617 0.39367 0.0
O1142 O 0.8961 0.13068 0.22097 0.0
O1143 O 0.90891 0.11894 0.42689 0.0
O1144 O 0.87275 0.15957 0.48497 0.0
O1145 O 0.95452 0.14143 0.24507 0.0
O1146 O 0.85585 0.17385 0.32285 0.0
O1147 O 0.84893 0.18625 0.43322 0.0
C1148 C 0.91364 0.2281 0.28428 0.0
C1149 C 0.90638 0.19599 0.63371 0.0
C1150 C 0.88957 0.17366 0.80384 0.0
C1151 C 0.84784 0.17621 0.7893 0.0
C1152 C 0.86584 0.19795 0.62321 0.0
C1153 C 0.83706 0.19152 0.67575 0.0
C1154 C 0.92409 0.18765 0.70091 0.0
C1155 C 0.97923 0.17504 0.41796 0.0
C1156 C 0.92849 0.20329 0.57421 0.0
C1157 C 0.80534 0.364 0.51512 0.0
C1158 C 0.84553 0.38982 0.54638 0.0
C1159 C 0.88312 0.12469 0.47205 0.0
C1160 C 0.94053 0.10433 0.15083 0.0
C1161 C 0.93776 0.0958 0.03345 0.0
C1162 C 0.96762 0.07102 0.03545 0.0
C1163 C 0.97091 0.08005 0.1549 0.0
C1164 C 0.92231 0.10918 0.09145 0.0
C1165 C 0.98344 0.06217 0.09708 0.0
C1166 C 0.83457 0.17852 0.37542 0.0
C1167 C 0.93039 0.13147 0.20038 0.0
H1168 H 0.82935 0.17063 0.83168 0.0
H1169 H 0.85605 0.20417 0.57423 0.0
H1170 H 0.81099 0.19548 0.64804 0.0
H1171 H 0.95348 0.18993 0.69218 0.0
H1172 H 0.97974 0.0604 0.98996 0.0
H1173 H 0.98569 0.07605 0.20098 0.0
H1174 H 0.89906 0.12841 0.08863 0.0
H1175 H 0.00703 0.0437 0.09936 0.0
Eu1176 Eu 0.13833 0.09692 0.69856 0.0
C1177 C 0.27259 0.16927 0.51202 0.0
N1178 N 0.23715 0.16928 0.52956 0.0
C1179 C 0.23857 0.23579 0.49859 0.0
C1180 C 0.29993 0.21026 0.51228 0.0
C1181 C 0.21947 0.20163 0.51044 0.0
C1182 C 0.27712 0.24095 0.50777 0.0
C1183 C 0.36239 0.12867 0.45734 0.0
C1184 C 0.28869 0.12754 0.48939 0.0
C1185 C 0.37972 0.17557 0.46661 0.0
C1186 C 0.3497 0.21372 0.49321 0.0
Eu1187 Eu 0.21416 0.10528 0.56652 0.0
N1188 N 0.2778 0.09181 0.53112 0.0
C1189 C 0.38257 0.08647 0.48799 0.0
C1190 C 0.30506 0.05699 0.55144 0.0
C1191 C 0.35473 0.05262 0.53288 0.0
H1192 H 0.1895 0.20223 0.5068 0.0
H1193 H 0.36877 0.02821 0.55139 0.0
H1194 H 0.10563 0.00837 0.69405 0.0
H1195 H 0.0606 0.22378 0.73533 0.0
H1196 H 0.2929 0.03472 0.5802 0.0
H1197 H 0.4123 0.08281 0.48563 0.0
H1198 H 0.1124 0.18072 0.75821 0.0
H1199 H 0.22214 0.25981 0.48545 0.0
H1200 H 0.40918 0.18053 0.46207 0.0
H1201 H 0.362 0.24107 0.49482 0.0
H1202 H 0.04468 0.9774 0.68391 0.0
H1203 H 0.28915 0.26821 0.50116 0.0
H1204 H 0.00781 0.20232 0.66933 0.0
N1205 N 0.08354 0.06263 0.68082 0.0
C1206 C 0.05255 0.08338 0.67335 0.0
C1207 C 0.04684 0.0072 0.67839 0.0
C1208 C 0.01823 0.06688 0.66001 0.0
C1209 C 0.0812 0.02484 0.68421 0.0
C1210 C 0.01521 0.02854 0.66709 0.0
N1211 N 0.08619 0.1351 0.71044 0.0
C1212 C 0.08762 0.17048 0.73423 0.0
C1213 C 0.02407 0.14408 0.67186 0.0
C1214 C 0.05432 0.12098 0.68577 0.0
C1215 C 0.0277 0.18212 0.68592 0.0
C1216 C 0.0584 0.19482 0.7215 0.0
H1217 H 0.98836 0.01574 0.66844 0.0
H1218 H 0.9619 0.07726 0.62747 0.0
H1219 H 0.96957 0.14482 0.62601 0.0
O1220 O 0.1279 0.11141 0.80137 0.0
O1221 O 0.11712 0.13591 0.61867 0.0
O1222 O 0.15363 0.12206 0.52817 0.0
O1223 O 0.13862 0.05362 0.77262 0.0
O1224 O 0.16906 0.15292 0.70512 0.0
O1225 O 0.19204 0.1597 0.59931 0.0
O1226 O 0.1761 0.08256 0.49319 0.0
O1227 O 0.23822 0.10875 0.68091 0.0
O1228 O 0.19453 0.07435 0.73065 0.0
O1229 O 0.2355 0.08025 0.47528 0.0
O1230 O 0.20132 0.04552 0.60598 0.0
O1231 O 0.13961 0.05426 0.61365 0.0
C1232 C 0.12199 0.13522 0.55424 0.0
C1233 C 0.10256 0.06437 0.86779 0.0
C1234 C 0.09614 0.05812 0.98476 0.0
C1235 C 0.07071 0.0292 0.97719 0.0
C1236 C 0.0777 0.03485 0.85811 0.0
C1237 C 0.061 0.01796 0.91304 0.0
C1238 C 0.10928 0.07756 0.93056 0.0
C1239 C 0.18116 0.17377 0.65566 0.0
C1240 C 0.12921 0.07672 0.8194 0.0
C1241 C 0.98807 0.08941 0.64262 0.0
C1242 C 0.99204 0.12811 0.64398 0.0
C1243 C 0.22456 0.09421 0.73811 0.0
C1244 C 0.19715 0.09664 0.38686 0.0
C1245 C 0.17185 0.1045 0.21635 0.0
C1246 C 0.16952 0.14652 0.22577 0.0
C1247 C 0.19422 0.13739 0.39282 0.0
C1248 C 0.19039 0.07549 0.32229 0.0
C1249 C 0.18417 0.16344 0.3375 0.0
C1250 C 0.16724 0.0316 0.60041 0.0
C1251 C 0.20261 0.07738 0.44955 0.0
H1252 H 0.06034 0.01436 0.02009 0.0
H1253 H 0.07264 0.02349 0.80968 0.0
H1254 H 0.04311 0.99433 0.90569 0.0
H1255 H 0.12922 0.09995 0.93782 0.0
H1256 H 0.16158 0.16266 0.18152 0.0
H1257 H 0.19708 0.14891 0.44103 0.0
H1258 H 0.19579 0.04639 0.33437 0.0
H1259 H 0.185 0.19081 0.36199 0.0
Eu1260 Eu 0.10923 0.793 0.45676 0.0
C1261 C 0.10025 0.95276 0.35842 0.0
N1262 N 0.07561 0.92667 0.34021 0.0
C1263 C 0.02588 0.96104 0.38361 0.0
C1264 C 0.0885 0.9847 0.39208 0.0
C1265 C 0.03876 0.93248 0.34466 0.0
C1266 C 0.051 0.98715 0.40934 0.0
C1267 C 0.16397 0.9715 0.36705 0.0
C1268 C 0.13734 0.94535 0.34887 0.0
C1269 C 0.15273 1.00241 0.40383 0.0
C1270 C 0.11511 0.01001 0.41459 0.0
Eu1271 Eu 0.09856 0.86765 0.32544 0.0
N1272 N 0.14723 0.9121 0.32307 0.0
C1273 C 0.20089 0.96535 0.34855 0.0
C1274 C 0.18217 0.90735 0.29816 0.0
C1275 C 0.20958 0.9341 0.31039 0.0
H1276 H 0.01965 0.91237 0.32496 0.0
H1277 H 0.2376 0.92985 0.29274 0.0
H1278 H 0.2085 0.81039 0.50817 0.0
H1279 H 0.02287 0.64342 0.47429 0.0
H1280 H 0.18934 0.88288 0.26995 0.0
H1281 H 0.22244 0.98511 0.36108 0.0
H1282 H 0.0342 0.71878 0.44437 0.0
H1283 H 0.99706 0.95984 0.3965 0.0
H1284 H 0.17318 0.01906 0.42706 0.0
H1285 H 0.10714 0.03415 0.4434 0.0
H1286 H 0.2646 0.77457 0.51988 0.0
H1287 H 0.0419 0.00776 0.44481 0.0
H1288 H 0.07546 0.59643 0.53749 0.0
N1289 N 0.17212 0.76516 0.48609 0.0
C1290 C 0.17052 0.72987 0.50423 0.0
C1291 C 0.23928 0.75966 0.5088 0.0
C1292 C 0.20957 0.69996 0.50155 0.0
C1293 C 0.20595 0.78077 0.50124 0.0
C1294 C 0.24172 0.72078 0.50084 0.0
N1295 N 0.09311 0.72987 0.48994 0.0
C1296 C 0.05609 0.70508 0.47168 0.0
C1297 C 0.12514 0.64326 0.56267 0.0
C1298 C 0.12861 0.71661 0.5296 0.0
C1299 C 0.08112 0.62585 0.53456 0.0
C1300 C 0.04852 0.65581 0.49116 0.0
H1301 H 0.26833 0.70714 0.50485 0.0
H1302 H 0.23654 0.63602 0.51796 0.0
H1303 H 0.1736 0.59301 0.55562 0.0
O1304 O 0.0884 0.77235 0.55159 0.0
O1305 O 0.11322 0.76982 0.34106 0.0
O1306 O 0.07727 0.81199 0.28892 0.0
O1307 O 0.08253 0.83009 0.52872 0.0
O1308 O 0.04831 0.8016 0.41939 0.0
O1309 O 0.0478 0.86307 0.39467 0.0
O1310 O 0.11258 0.88541 0.22647 0.0
O1311 O 0.09596 0.88996 0.4321 0.0
O1312 O 0.13556 0.85177 0.48653 0.0
O1313 O 0.05512 0.86965 0.25064 0.0
O1314 O 0.15387 0.83544 0.32549 0.0
O1315 O 0.16015 0.82609 0.43624 0.0
C1316 C 0.09764 0.78222 0.28346 0.0
C1317 C 0.10271 0.8133 0.63569 0.0
C1318 C 0.11386 0.83752 0.8064 0.0
C1319 C 0.15579 0.83795 0.79531 0.0
C1320 C 0.14353 0.81414 0.628 0.0
C1321 C 0.1706 0.82286 0.68262 0.0
C1322 C 0.08282 0.82073 0.70136 0.0
C1323 C 0.03025 0.83384 0.41788 0.0
C1324 C 0.08212 0.80488 0.5752 0.0
C1325 C 0.21015 0.65011 0.52139 0.0
C1326 C 0.17058 0.62273 0.55089 0.0
C1327 C 0.12261 0.88606 0.47593 0.0
C1328 C 0.06608 0.90707 0.15571 0.0
C1329 C 0.06403 0.91262 0.03789 0.0
C1330 C 0.03698 0.94027 0.0424 0.0
C1331 C 0.03853 0.93424 0.1626 0.0
C1332 C 0.08026 0.89847 0.09435 0.0
C1333 C 0.02486 0.95181 0.1054 0.0
C1334 C 0.17501 0.8313 0.3782 0.0
C1335 C 0.07842 0.88208 0.20647 0.0
H1336 H 0.17278 0.84496 0.83902 0.0
H1337 H 0.15476 0.8086 0.57968 0.0
H1338 H 0.19759 0.82061 0.65718 0.0
H1339 H 0.05368 0.81603 0.69097 0.0
H1340 H 0.02467 0.95171 0.99797 0.0
H1341 H 0.0272 0.94122 0.21072 0.0
H1342 H 0.10183 0.87741 0.08988 0.0
H1343 H 1.00369 0.97289 0.10973 0.0
C1344 C 0.38082 0.93213 0.21132 0.0
C1345 C 0.35881 0.91788 0.26342 0.0
H1346 H 0.39125 0.97567 0.14154 0.0
C1347 C 0.32694 0.93935 0.27956 0.0
H1348 H 0.40552 0.91725 0.1964 0.0
C1349 C 0.31834 0.97376 0.24705 0.0
C1350 C 0.34165 0.98916 0.19738 0.0
H1351 H 0.30893 0.93 0.31929 0.0
H1352 H 0.29431 0.98923 0.26358 0.0
C1353 C 0.37264 0.96669 0.17988 0.0
C1354 C 0.93225 0.67647 0.77773 0.0
C1355 C 0.92266 0.63859 0.76674 0.0
H1356 H 0.97363 0.71658 0.81123 0.0
C1357 C 0.9493 0.61258 0.78777 0.0
H1358 H 0.91319 0.69789 0.76213 0.0
C1359 C 0.9837 0.62327 0.81597 0.0
C1360 C 0.99448 0.66074 0.82551 0.0
H1361 H 0.94432 0.58333 0.77961 0.0
H1362 H 1.00313 0.60146 0.8261 0.0
C1363 C 0.96743 0.68733 0.806 0.0
C1364 C 0.6365 0.04379 0.17677 0.0
C1365 C 0.66649 0.0207 0.19684 0.0
H1366 H 0.60404 0.09372 0.19121 0.0
C1367 C 0.68869 0.03541 0.24862 0.0
H1368 H 0.61898 0.03532 0.13649 0.0
C1369 C 0.67991 0.06985 0.28064 0.0
C1370 C 0.6489 0.0919 0.26211 0.0
H1371 H 0.71193 0.01942 0.267 0.0
H1372 H 0.69709 0.07878 0.32179 0.0
C1373 C 0.62804 0.07834 0.20799 0.0
C1374 C 0.04371 0.32077 0.80704 0.0
C1375 C 0.01576 0.34709 0.82329 0.0
H1376 H 0.09854 0.3107 0.76473 0.0
C1377 C 0.02537 0.38442 0.80966 0.0
H1378 H 0.03838 0.29157 0.81512 0.0
C1379 C 0.05985 0.39552 0.78276 0.0
C1380 C 0.0873 0.36981 0.76469 0.0
H1381 H 0.00464 0.40547 0.81419 0.0
H1382 H 0.06417 0.42474 0.77268 0.0
C1383 C 0.07874 0.33193 0.77833 0.0
C1384 C 0.36149 0.54674 0.09955 0.0
C1385 C 0.33394 0.52244 0.07368 0.0
H1386 H 0.39437 0.59667 0.08813 0.0
C1387 C 0.31523 0.53531 0.01647 0.0
H1388 H 0.37549 0.53968 0.14519 0.0
C1389 C 0.32585 0.56893 0.98386 0.0
C1390 C 0.35514 0.59181 1.00741 0.0
H1391 H 0.29382 0.51827 0.99424 0.0
H1392 H 0.31174 0.5764 0.93828 0.0
C1393 C 0.37191 0.5804 0.06736 0.0
C1394 C 0.5687 0.68244 0.03666 0.0
C1395 C 0.5925 0.65384 0.01364 0.0
H1396 H 0.51664 0.71192 0.02676 0.0
C1397 C 0.58169 0.63622 0.954 0.0
H1398 H 0.57609 0.69758 0.08121 0.0
C1399 C 0.54773 0.6452 0.92156 0.0
C1400 C 0.52251 0.67184 0.94735 0.0
H1401 H 0.59885 0.6144 0.93345 0.0
H1402 H 0.54116 0.63089 0.87579 0.0
C1403 C 0.5345 0.69116 1.00462 0.0
C1404 C 0.68284 0.46438 0.0658 0.0
C1405 C 0.66064 0.49697 0.06569 0.0
H1406 H 0.688 0.40607 0.03806 0.0
C1407 C 0.6254 0.49302 0.03594 0.0
H1408 H 0.71027 0.46538 0.08752 0.0
C1409 C 0.61201 0.45895 0.01061 0.0
C1410 C 0.63377 0.42649 0.0095 0.0
H1411 H 0.60789 0.51712 0.03026 0.0
H1412 H 0.58433 0.4585 0.98978 0.0
C1413 C 0.66972 0.42988 0.03805 0.0
C1414 C 0.42979 0.33317 1.00526 0.0
C1415 C 0.41688 0.37041 1.00664 0.0
H1416 H 0.47384 0.29475 0.97773 0.0
C1417 C 0.43995 0.39665 0.97521 0.0
H1418 H 0.41385 0.31186 0.03025 0.0
C1419 C 0.47402 0.387 0.945 0.0
C1420 C 0.488 0.35026 0.94485 0.0
H1421 H 0.43241 0.42554 0.97633 0.0
H1422 H 0.49034 0.40936 0.92438 0.0
C1423 C 0.46467 0.3233 0.97519 0.0
C1424 C 0.89473 0.44713 0.73489 0.0
C1425 C 0.86818 0.42147 0.75794 0.0
H1426 H 0.90712 0.50002 0.69372 0.0
C1427 C 0.83053 0.43194 0.74793 0.0
H1428 H 0.92395 0.44134 0.74188 0.0
C1429 C 0.82047 0.46696 0.71793 0.0
C1430 C 0.84764 0.49302 0.69628 0.0
H1431 H 0.80875 0.41377 0.7657 0.0
H1432 H 0.79139 0.47382 0.71302 0.0
C1433 C 0.88482 0.48144 0.70558 0.0
C1434 C 0.48511 0.12688 0.30119 0.0
C1435 C 0.49262 0.16363 0.32096 0.0
H1436 H 0.44742 0.08585 0.26347 0.0
C1437 C 0.46284 0.18888 0.31034 0.0
H1438 H 0.50747 0.10743 0.29971 0.0
C1439 C 0.428 0.1771 0.28157 0.0
C1440 C 0.42122 0.13946 0.26331 0.0
H1441 H 0.46654 0.21782 0.32314 0.0
H1442 H 0.40681 0.19768 0.2721 0.0
C1443 C 0.4505 0.11484 0.27623 0.0
C1444 C 0.11256 0.56104 0.73187 0.0
C1445 C 0.13881 0.58746 0.75285 0.0
H1446 H 0.10105 0.50731 0.69316 0.0
C1447 C 0.17655 0.57794 0.74104 0.0
H1448 H 0.08336 0.56627 0.7402 0.0
C1449 C 0.18716 0.54282 0.71237 0.0
C1450 C 0.16041 0.51584 0.69325 0.0
H1451 H 0.19808 0.59701 0.75626 0.0
H1452 H 0.21634 0.5366 0.70657 0.0
C1453 C 0.12299 0.52666 0.70324 0.0
C1454 C 0.55693 0.89502 0.27333 0.0
C1455 C 0.58731 0.87129 0.26426 0.0
H1456 H 0.49944 0.90084 0.29431 0.0
C1457 C 0.58197 0.83416 0.28694 0.0
H1458 H 0.5591 0.92369 0.258 0.0
C1459 C 0.54736 0.82199 0.31615 0.0
C1460 C 0.51646 0.84628 0.32267 0.0
H1461 H 0.6042 0.81428 0.28099 0.0
H1462 H 0.54482 0.79355 0.33283 0.0
C1463 C 0.52257 0.8824 0.29837 0.0
C1464 C 0.8204 0.05243 0.56892 0.0
C1465 C 0.84294 0.02005 0.56692 0.0
H1466 H 0.8142 0.1107 0.54075 0.0
C1467 C 0.87721 0.02456 0.53456 0.0
H1468 H 0.7934 0.05111 0.59235 0.0
C1469 C 0.89049 0.05883 0.51144 0.0
C1470 C 0.86844 0.09076 0.51049 0.0
H1471 H 0.89412 1.00072 0.52499 0.0
H1472 H 0.91839 0.05991 0.49203 0.0
C1473 C 0.83272 0.08707 0.54018 0.0
C1474 C 0.06607 0.17871 0.53532 0.0
C1475 C 0.08924 0.14957 0.51204 0.0
H1476 H 0.0148 0.20974 0.52614 0.0
C1477 C 0.0771 0.13158 0.45374 0.0
H1478 H 0.07432 0.19405 0.57909 0.0
C1479 C 0.04288 0.14108 0.42252 0.0
C1480 C 0.01862 0.16899 0.44742 0.0
H1481 H 0.09335 0.10899 0.4334 0.0
H1482 H 0.03571 0.12616 0.37826 0.0
C1483 C 0.03173 0.18817 0.50412 0.0
C1484 C 0.17327 0.92914 0.52944 0.0
C1485 C 0.1356 0.92054 0.51523 0.0
H1486 H 0.21336 0.96969 0.56551 0.0
C1487 C 0.10973 0.94822 0.53207 0.0
H1488 H 0.19454 0.90913 0.51724 0.0
C1489 C 0.12048 0.98297 0.55881 0.0
C1490 C 0.15789 0.99247 0.57224 0.0
H1491 H 0.08067 0.94364 0.52179 0.0
H1492 H 0.09892 1.0034 0.56503 0.0
C1493 C 0.18421 0.96436 0.55706 0.0
C1494 C 0.96782 0.8699 0.42493 0.0
C1495 C 0.99014 0.83931 0.44504 0.0
H1496 H 0.91842 0.90324 0.43879 0.0
C1497 C 0.97448 0.81688 0.49557 0.0
H1498 H 0.97721 0.88784 0.38581 0.0
C1499 C 0.94011 0.82624 0.52712 0.0
C1500 C 0.91871 0.85767 0.50832 0.0
H1501 H 0.98992 0.79326 0.51398 0.0
H1502 H 0.93087 0.80934 0.56847 0.0
C1503 C 0.9331 0.87868 0.45511 0.0
C1504 C 0.36661 0.23602 0.14044 0.0
C1505 C 0.33491 0.21559 0.12178 0.0
H1506 H 0.39015 0.29009 0.15658 0.0
C1507 C 0.30108 0.23434 0.12096 0.0
H1508 H 0.39261 0.22206 0.14902 0.0
C1509 C 0.29863 0.2716 0.14101 0.0
C1510 C 0.33036 0.29324 0.15177 0.0
H1511 H 0.27571 0.21916 0.11107 0.0
H1512 H 0.2714 0.2841 0.1448 0.0
C1513 C 0.36476 0.27478 0.15042 0.0
C1514 C 0.27746 0.64466 0.85428 0.0
C1515 C 0.29647 0.67872 0.85844 0.0
H1516 H 0.22461 0.61706 0.85794 0.0
C1517 C 0.27567 0.71013 0.87579 0.0
H1518 H 0.2921 0.61959 0.84119 0.0
C1519 C 0.23858 0.70731 0.89645 0.0
C1520 C 0.21956 0.67365 0.89276 0.0
H1521 H 0.28867 0.73725 0.8759 0.0
H1522 H 0.22376 0.73242 0.9097 0.0
C1523 C 0.23909 0.64267 0.86794 0.0
C1524 C 0.70903 0.77666 0.11681 0.0
C1525 C 0.67522 0.79531 0.12262 0.0
H1526 H 0.7396 0.72657 0.13512 0.0
C1527 C 0.64497 0.77551 0.14962 0.0
H1528 H 0.73372 0.79177 0.10222 0.0
C1529 C 0.64771 0.73732 0.16393 0.0
C1530 C 0.68176 0.7187 0.15794 0.0
H1531 H 0.61948 0.78975 0.16161 0.0
H1532 H 0.62316 0.72255 0.17886 0.0
C1533 C 0.7125 0.73949 0.137 0.0
C1534 C 0.76976 0.36423 0.90749 0.0
C1535 C 0.78848 0.33012 0.90338 0.0
H1536 H 0.71713 0.39197 0.90976 0.0
C1537 C 0.7673 0.29884 0.88645 0.0
H1538 H 0.78462 0.3893 0.91723 0.0
C1539 C 0.72997 0.30202 0.86717 0.0
C1540 C 0.71128 0.33579 0.87316 0.0
H1541 H 0.78002 0.27162 0.88564 0.0
H1542 H 0.7148 0.27714 0.85373 0.0
C1543 C 0.73128 0.36642 0.89753 0.0
C1544 C 0.80182 0.73685 0.62077 0.0
C1545 C 0.83555 0.7179 0.62402 0.0
H1546 H 0.77194 0.78712 0.64098 0.0
C1547 C 0.86655 0.73759 0.64806 0.0
H1548 H 0.77672 0.72195 0.60773 0.0
C1549 C 0.86458 0.77599 0.66111 0.0
C1550 C 0.83053 0.79503 0.65714 0.0
H1551 H 0.89214 0.72321 0.65831 0.0
H1552 H 0.8897 0.79061 0.67409 0.0
C1553 C 0.79902 0.77411 0.64104 0.0
C1554 C 0.77394 0.21065 0.36867 0.0
C1555 C 0.79332 0.1772 0.37329 0.0
H1556 H 0.72328 0.24002 0.38814 0.0
C1557 C 0.77379 0.1459 0.39672 0.0
H1558 H 0.78855 0.23585 0.35521 0.0
C1559 C 0.73536 0.14768 0.40977 0.0
C1560 C 0.71631 0.18168 0.4072 0.0
H1561 H 0.78827 0.12021 0.40628 0.0
H1562 H 0.72071 0.12247 0.42057 0.0
C1563 C 0.73669 0.21313 0.3888 0.0
C1564 C 0.21021 0.27257 0.62085 0.0
C1565 C 0.17661 0.29195 0.62172 0.0
H1566 H 0.23857 0.22128 0.64061 0.0
C1567 C 0.14494 0.27286 0.64398 0.0
H1568 H 0.23576 0.2871 0.60948 0.0
C1569 C 0.14605 0.23455 0.65678 0.0
C1570 C 0.17977 0.21516 0.65681 0.0
H1571 H 0.11943 0.28763 0.65303 0.0
H1572 H 0.12039 0.22032 0.6646 0.0
C1573 C 0.21191 0.23513 0.64049 0.0
C1574 C 0.27225 0.79488 0.39002 0.0
C1575 C 0.29276 0.82579 0.41122 0.0
H1576 H 0.2201 0.77339 0.35515 0.0
C1577 C 0.27385 0.85972 0.41716 0.0
H1578 H 0.28547 0.76794 0.38701 0.0
C1579 C 0.23573 0.86223 0.40295 0.0
C1580 C 0.21614 0.8318 0.37647 0.0
H1581 H 0.28839 0.88442 0.43167 0.0
H1582 H 0.22142 0.88779 0.41416 0.0
C1583 C 0.23501 0.79813 0.3702 0.0
C1584 C 0.2459 0.06337 0.85196 0.0
C1585 C 0.24272 0.0958 0.81135 0.0
H1586 H 0.26079 0.03724 0.94588 0.0
C1587 C 0.25133 0.12902 0.84763 0.0
H1588 H 0.23924 0.03679 0.82986 0.0
C1589 C 0.26235 0.12942 0.91776 0.0
C1590 C 0.26585 0.09664 0.95788 0.0
H1591 H 0.24882 0.15535 0.82211 0.0
H1592 H 0.26901 0.15591 0.94023 0.0
C1593 C 0.25788 0.06369 0.92091 0.0
C1594 C 0.13373 0.74931 0.10162 0.0
C1595 C 0.10086 0.74225 0.0634 0.0
H1596 H 0.15962 0.76539 0.19604 0.0
C1597 C 0.06793 0.74611 0.10246 0.0
H1598 H 0.16035 0.7459 0.07746 0.0
C1599 C 0.06751 0.75742 0.1717 0.0
C1600 C 0.10006 0.76399 0.21051 0.0
H1601 H 0.04156 0.74031 0.07896 0.0
H1602 H 0.04079 0.7609 0.19546 0.0
C1603 C 0.13334 0.75978 0.17203 0.0
C1604 C 0.75415 0.88128 0.92567 0.0
C1605 C 0.74306 0.91451 0.95895 0.0
H1606 H 0.77521 0.85382 0.83655 0.0
C1607 C 0.74457 0.9463 0.91598 0.0
H1608 H 0.75286 0.85538 0.95284 0.0
C1609 C 0.75706 0.94533 0.84711 0.0
C1610 C 0.76811 0.91214 0.81376 0.0
H1611 H 0.73624 0.97287 0.93619 0.0
H1612 H 0.75889 0.9713 0.82029 0.0
C1613 C 0.76645 0.88029 0.85661 0.0
C1614 C 0.94291 0.26168 0.10183 0.0
C1615 C 0.90976 0.26629 0.06396 0.0
H1616 H 0.97036 0.24669 0.19428 0.0
C1617 C 0.87701 0.26074 0.10329 0.0
H1618 H 0.9692 0.26688 0.07753 0.0
C1619 C 0.87765 0.25055 0.17363 0.0
C1620 C 0.91113 0.24534 0.21085 0.0
H1621 H 0.85033 0.26524 0.08001 0.0
H1622 H 0.85142 0.24612 0.19865 0.0
C1623 C 0.94356 0.25069 0.17113 0.0
C1624 C 0.26313 0.44496 0.35238 0.0
C1625 C 0.26648 0.41283 0.31108 0.0
H1626 H 0.24786 0.47023 0.44692 0.0
C1627 C 0.25839 0.37926 0.34653 0.0
H1628 H 0.26933 0.47176 0.33076 0.0
C1629 C 0.24747 0.37824 0.41656 0.0
C1630 C 0.2437 0.41067 0.45742 0.0
H1631 H 0.2611 0.35315 0.32029 0.0
H1632 H 0.24093 0.35154 0.43832 0.0
C1633 C 0.25129 0.44401 0.42137 0.0
C1634 C 0.44936 0.74572 0.66895 0.0
C1635 C 0.41687 0.74041 0.70858 0.0
H1636 H 0.47515 0.76316 0.57606 0.0
C1637 C 0.38348 0.7474 0.67206 0.0
H1638 H 0.47606 0.74013 0.69138 0.0
C1639 C 0.3829 0.75922 0.6026 0.0
C1640 C 0.41565 0.76503 0.56348 0.0
H1641 H 0.3572 0.74296 0.69691 0.0
H1642 H 0.35626 0.76465 0.57983 0.0
C1643 C 0.44881 0.75847 0.60051 0.0
C1644 C 0.74828 0.56582 0.34922 0.0
C1645 C 0.74332 0.59833 0.30955 0.0
H1646 H 0.76488 0.54003 0.44246 0.0
C1647 C 0.74963 0.63176 0.34646 0.0
H1648 H 0.74356 0.53906 0.32622 0.0
C1649 C 0.76049 0.63232 0.41642 0.0
C1650 C 0.76558 0.59956 0.45584 0.0
H1651 H 0.74564 0.65805 0.32143 0.0
H1652 H 0.76592 0.65897 0.43933 0.0
C1653 C 0.75989 0.56638 0.41824 0.0
C1654 C 0.56217 0.24951 0.60109 0.0
C1655 C 0.59507 0.24499 0.56223 0.0
H1656 H 0.53518 0.2656 0.6936 0.0
C1657 C 0.628 0.2522 0.60019 0.0
H1658 H 0.53575 0.24382 0.57767 0.0
C1659 C 0.62772 0.26334 0.67023 0.0
C1660 C 0.59447 0.2683 0.70854 0.0
H1661 H 0.65458 0.24847 0.57606 0.0
H1662 H 0.65405 0.26893 0.69406 0.0
C1663 C 0.56186 0.2616 0.66997 0.0
C1664 C 0.33545 0.08894 0.67034 0.0
C1665 C 0.35452 0.10648 0.61879 0.0
H1666 H 0.34042 0.05836 0.76035 0.0
C1667 C 0.39282 0.11336 0.62467 0.0
H1668 H 0.30565 0.08594 0.66958 0.0
C1669 C 0.4128 0.09767 0.67621 0.0
C1670 C 0.39422 0.07653 0.72353 0.0
H1671 H 0.40761 0.12925 0.58741 0.0
H1672 H 0.44237 0.10263 0.67995 0.0
C1673 C 0.35536 0.0729 0.72142 0.0
C1674 C 0.10484 0.61437 0.39475 0.0
C1675 C 0.1007 0.65294 0.40189 0.0
H1676 H 0.09209 0.56659 0.33632 0.0
C1677 C 0.08492 0.67391 0.35091 0.0
H1678 H 0.1195 0.59808 0.43156 0.0
C1679 C 0.06814 0.65581 0.29841 0.0
C1680 C 0.0693 0.61685 0.29461 0.0
H1681 H 0.08421 0.70386 0.3528 0.0
H1682 H 0.0552 0.67217 0.25958 0.0
C1683 C 0.08862 0.59626 0.3417 0.0
C1684 C 0.61743 0.89713 0.62461 0.0
C1685 C 0.65565 0.90445 0.61895 0.0
H1686 H 0.56759 0.90751 0.67939 0.0
C1687 C 0.67442 0.92221 0.67058 0.0
H1688 H 0.60291 0.88097 0.58737 0.0
C1689 C 0.65418 0.93818 0.72141 0.0
C1690 C 0.61534 0.93427 0.72301 0.0
H1691 H 0.70421 0.92533 0.67006 0.0
H1692 H 0.66882 0.95281 0.76058 0.0
C1693 C 0.59712 0.91277 0.6758 0.0
C1694 C 0.94984 0.35335 0.29942 0.0
C1695 C 0.94843 0.3923 0.29459 0.0
H1696 H 0.93307 0.30549 0.35367 0.0
C1697 C 0.92942 0.41315 0.3418 0.0
H1698 H 0.96282 0.33676 0.26089 0.0
C1699 C 0.91296 0.39527 0.39492 0.0
C1700 C 0.91649 0.35662 0.40218 0.0
H1701 H 0.92607 0.44285 0.33617 0.0
H1702 H 0.89821 0.41179 0.43134 0.0
C1703 C 0.93272 0.33547 0.35184 0.0
C1704 C 0.35235 0.42639 0.54151 0.0
C1705 C 0.39118 0.42305 0.53859 0.0
H1706 H 0.30359 0.41567 0.59769 0.0
C1707 C 0.41059 0.40414 0.58771 0.0
H1708 H 0.33689 0.44001 0.50225 0.0
C1709 C 0.39142 0.39034 0.64171 0.0
C1710 C 0.35323 0.39726 0.64825 0.0
H1711 H 0.44028 0.4 0.58411 0.0
H1712 H 0.4068 0.37598 0.68011 0.0
C1713 C 0.3333 0.41258 0.59562 0.0
C1714 C 0.38935 0.618 0.38023 0.0
C1715 C 0.39822 0.65575 0.37271 0.0
H1716 H 0.39653 0.56911 0.43877 0.0
C1717 C 0.41412 0.67529 0.42551 0.0
H1718 H 0.37469 0.60293 0.34175 0.0
C1719 C 0.42618 0.6561 0.48103 0.0
C1720 C 0.42115 0.61747 0.48467 0.0
H1721 H 0.41911 0.70469 0.4225 0.0
H1722 H 0.44052 0.6712 0.51996 0.0
C1723 C 0.40172 0.59867 0.43519 0.0
C1724 C 0.61646 0.60646 0.64344 0.0
C1725 C 0.6549 0.60012 0.64803 0.0
H1726 H 0.5668 0.59678 0.58831 0.0
C1727 C 0.67381 0.58271 0.59619 0.0
H1728 H 0.60174 0.622 0.68123 0.0
C1729 C 0.65363 0.56729 0.54479 0.0
C1730 C 0.61481 0.57154 0.54288 0.0
H1731 H 0.70369 0.58022 0.59595 0.0
H1732 H 0.66837 0.55349 0.50478 0.0
C1733 C 0.59634 0.59156 0.59165 0.0
C1734 C 0.59095 0.41525 0.4255 0.0
C1735 C 0.57091 0.39606 0.47347 0.0
H1736 H 0.62195 0.41086 0.33602 0.0
C1737 C 0.56841 0.35708 0.47177 0.0
H1738 H 0.595 0.44499 0.42897 0.0
C1739 C 0.58466 0.33754 0.42045 0.0
C1740 C 0.60116 0.35711 0.36843 0.0
H1741 H 0.55472 0.3418 0.51127 0.0
H1742 H 0.58273 0.30762 0.41999 0.0
C1743 C 0.60682 0.39565 0.37375 0.0
C1744 C 0.89244 0.60986 0.12658 0.0
C1745 C 0.85401 0.60526 0.11857 0.0
H1746 H 0.94013 0.59628 0.18476 0.0
C1747 C 0.8329 0.58987 0.16991 0.0
H1748 H 0.90892 0.62417 0.08953 0.0
C1749 C 0.85062 0.57384 0.22361 0.0
C1750 C 0.88948 0.57465 0.22753 0.0
H1751 H 0.80313 0.58824 0.1668 0.0
H1752 H 0.83409 0.56051 0.26182 0.0
C1753 C 0.91031 0.59369 0.18009 0.0
C1754 C 0.56481 0.15541 0.79681 0.0
C1755 C 0.56897 0.11657 0.795 0.0
H1756 H 0.57683 0.20542 0.8491 0.0
C1757 C 0.58828 0.09801 0.84451 0.0
H1758 H 0.55152 0.17019 0.75634 0.0
C1759 C 0.6025 0.11808 0.89701 0.0
C1760 C 0.59612 0.15653 0.90155 0.0
H1761 H 0.59346 0.06845 0.84128 0.0
H1762 H 0.61767 0.10332 0.9352 0.0
C1763 C 0.57936 0.17552 0.84915 0.0
C1764 C 0.09602 0.42637 0.17787 0.0
C1765 C 0.11689 0.44527 0.2252 0.0
H1766 H 0.09732 0.39542 0.08795 0.0
C1767 C 0.15583 0.44591 0.22128 0.0
H1768 H 0.06632 0.42333 0.18324 0.0
C1769 C 0.17364 0.42891 0.16863 0.0
C1770 C 0.15247 0.41334 0.11763 0.0
H1771 H 0.17239 0.45856 0.26019 0.0
H1772 H 0.20358 0.42923 0.16669 0.0
C1773 C 0.11385 0.40985 0.12475 0.0
C1774 C 0.40521 0.89226 0.89933 0.0
C1775 C 0.41199 0.85389 0.90395 0.0
H1776 H 0.41358 0.94185 0.84323 0.0
C1777 C 0.42812 0.83485 0.85089 0.0
H1778 H 0.39041 0.90702 0.93802 0.0
C1779 C 0.44175 0.85487 0.79761 0.0
C1780 C 0.43751 0.8937 0.7959 0.0
H1781 H 0.43098 0.80499 0.85116 0.0
H1782 H 0.45477 0.84008 0.75684 0.0
C1783 C 0.41873 0.91227 0.84617 0.0
C1784 C 0.8317 0.91898 0.09195 0.0
C1785 C 0.85244 0.90507 0.14514 0.0
H1786 H 0.83369 0.94271 0.995 0.0
C1787 C 0.8902 0.89699 0.1365 0.0
H1788 H 0.80217 0.92304 0.09579 0.0
C1789 C 0.90812 0.90719 0.07874 0.0
C1790 C 0.88824 0.92476 0.02821 0.0
H1791 H 0.90623 0.88389 0.1755 0.0
H1792 H 0.93762 0.90205 0.07416 0.0
C1793 C 0.84969 0.92956 0.03401 0.0
C1794 C 0.90575 0.09652 0.92582 0.0
C1795 C 0.92652 0.11499 0.97371 0.0
H1796 H 0.87451 0.10206 0.83672 0.0
C1797 C 0.92969 0.15394 0.97263 0.0
H1798 H 0.90127 0.06682 0.92869 0.0
C1799 C 0.91351 0.17407 0.92204 0.0
C1800 C 0.89647 0.15522 0.86976 0.0
H1801 H 0.94402 0.16876 0.01196 0.0
H1802 H 0.91632 0.20387 0.92188 0.0
C1803 C 0.88995 0.11677 0.87466 0.0
C1804 C 0.15355 0.06237 0.04811 0.0
C1805 C 0.11465 0.06549 0.0464 0.0
H1806 H 0.20312 0.07625 0.09999 0.0
C1807 C 0.09545 0.08417 0.09587 0.0
H1808 H 0.16871 0.04972 1.00737 0.0
C1809 C 0.11499 0.09887 0.1484 0.0
C1810 C 0.15358 0.09374 0.15267 0.0
H1811 H 0.06581 0.08866 0.09243 0.0
H1812 H 0.09976 0.11354 0.18668 0.0
C1813 C 0.17316 0.07764 0.10027 0.0
C1814 C 0.10973 0.89408 0.87683 0.0
C1815 C 0.1044 0.8555 0.87146 0.0
H1816 H 0.09821 0.94319 0.93274 0.0
C1817 C 0.08772 0.83581 0.92316 0.0
H1818 H 0.12488 0.90941 0.83927 0.0
C1819 C 0.07119 0.85525 0.97433 0.0
C1820 C 0.07388 0.89422 0.97667 0.0
H1821 H 0.08613 0.80585 0.92286 0.0
H1822 H 0.0575 0.83984 0.01367 0.0
C1823 C 0.0939 0.91352 0.9288 0.0
loop_
_geom_bond_atom_site_label_1
_geom_bond_atom_site_label_2
_geom_bond_distance
_geom_bond_site_symmetry_2
_ccdc_geom_bond_type
Eu0 N29 2.600 . S
Eu0 N35 2.562 . S
Eu0 O44 2.462 1_554 S
Eu0 O45 2.373 . S
Eu0 O47 2.432 1_554 S
Eu0 O48 2.291 . S
Eu0 O52 2.335 . S
Eu0 O55 2.372 . S
Eu0 C64 2.787 1_554 S
C1 N2 1.365 . S
C1 C4 1.405 . S
C1 C8 1.448 . S
N2 C1 1.365 . S
N2 C5 1.319 . S
N2 Eu11 2.600 . S
C3 C5 1.397 . S
C3 C6 1.367 . S
C3 H23 0.931 . S
C4 C1 1.405 . S
C4 C6 1.403 . S
C4 C10 1.439 . S
C5 N2 1.319 . S
C5 C3 1.397 . S
C5 H16 0.930 . S
C6 C3 1.367 . S
C6 C4 1.403 . S
C6 H27 0.929 . S
C7 C8 1.430 . S
C7 C9 1.387 . S
C7 C13 1.404 . S
C8 C1 1.448 . S
C8 C7 1.430 . S
C8 N12 1.351 . S
C9 C7 1.387 . S
C9 C10 1.374 . S
C9 H24 0.931 . S
C10 C4 1.439 . S
C10 C9 1.374 . S
C10 H25 0.931 . S
Eu11 N2 2.600 . S
Eu11 N12 2.562 . S
Eu11 O46 2.335 . S
Eu11 O49 2.372 . S
Eu11 O50 2.462 . S
Eu11 O51 2.373 . S
Eu11 O53 2.432 . S
Eu11 O54 2.291 . S
Eu11 C75 2.787 . S
N12 C8 1.351 . S
N12 Eu11 2.562 . S
N12 C14 1.325 . S
C13 C7 1.404 . S
C13 C15 1.366 . S
C13 H21 0.930 . S
C14 N12 1.325 . S
C14 C15 1.416 . S
C14 H20 0.929 . S
C15 C13 1.366 . S
C15 C14 1.416 . S
C15 H17 0.930 . S
H16 C5 0.930 . S
H17 C15 0.930 . S
H18 C33 0.930 . S
H19 C40 0.930 . S
H20 C14 0.929 . S
H21 C13 0.930 . S
H22 C36 0.929 . S
H23 C3 0.931 . S
H24 C9 0.931 . S
H25 C10 0.931 . S
H26 C31 0.931 . S
H27 C6 0.929 . S
H28 C39 0.930 . S
N29 Eu0 2.600 . S
N29 C30 1.365 . S
N29 C33 1.319 . S
C30 N29 1.365 . S
C30 C32 1.405 . S
C30 C38 1.448 . S
C31 H26 0.931 . S
C31 C33 1.397 1_565 S
C31 C34 1.367 1_565 S
C32 C30 1.405 . S
C32 C34 1.403 . S
C32 C65 1.439 . S
C33 H18 0.930 . S
C33 N29 1.319 . S
C33 C31 1.397 1_545 S
C34 C31 1.367 1_545 S
C34 C32 1.403 . S
C34 H41 0.929 1_545 S
N35 Eu0 2.562 . S
N35 C36 1.325 . S
N35 C38 1.351 . S
C36 H22 0.929 . S
C36 N35 1.325 . S
C36 C40 1.416 . S
C37 C38 1.430 . S
C37 C39 1.404 . S
C37 C66 1.387 . S
C38 C30 1.448 . S
C38 N35 1.351 . S
C38 C37 1.430 . S
C39 H28 0.930 . S
C39 C37 1.404 . S
C39 C40 1.366 . S
C40 H19 0.930 . S
C40 C36 1.416 . S
C40 C39 1.366 . S
H41 C34 0.929 1_565 S
H42 C65 0.931 . S
H43 C66 0.931 . S
O44 Eu0 2.462 1_556 S
O44 C64 1.252 . S
O45 Eu0 2.373 . S
O45 C56 1.249 . S
O46 Eu11 2.335 . S
O46 C56 1.264 . S
O47 Eu0 2.432 1_556 S
O47 C64 1.268 . S
O48 Eu0 2.291 . S
O48 C63 1.255 . S
O49 Eu11 2.372 . S
O49 C63 1.257 . S
O50 Eu11 2.462 . S
O50 C75 1.252 . S
O51 Eu11 2.373 . S
O51 C67 1.249 . S
O52 Eu0 2.335 . S
O52 C67 1.264 . S
O53 Eu11 2.432 . S
O53 C75 1.268 . S
O54 Eu11 2.291 . S
O54 C74 1.255 . S
O55 Eu0 2.372 . S
O55 C74 1.257 . S
C56 O45 1.249 . S
C56 O46 1.264 . S
C57 C60 1.382 . S
C57 C62 1.390 . S
C57 C64 1.506 . S
C58 C59 1.398 . S
C58 C62 1.392 . S
C59 C58 1.398 . S
C59 C61 1.372 . S
C59 H76 0.931 . S
C60 C57 1.382 . S
C60 C61 1.390 . S
C60 H77 0.931 . S
C61 C59 1.372 . S
C61 C60 1.390 . S
C61 H78 0.929 . S
C62 C57 1.390 . S
C62 C58 1.392 . S
C62 H79 0.930 . S
C63 O48 1.255 . S
C63 O49 1.257 . S
C64 Eu0 2.787 1_556 S
C64 O44 1.252 . S
C64 O47 1.268 . S
C64 C57 1.506 . S
C65 C32 1.439 . S
C65 H42 0.931 . S
C65 C66 1.374 . S
C66 C37 1.387 . S
C66 H43 0.931 . S
C66 C65 1.374 . S
C67 O51 1.249 . S
C67 O52 1.264 . S
C68 C71 1.382 . S
C68 C72 1.390 . S
C68 C75 1.506 . S
C69 C70 1.398 . S
C69 C72 1.392 . S
C70 C69 1.398 . S
C70 C73 1.372 . S
C70 H80 0.931 . S
C71 C68 1.382 . S
C71 C73 1.390 . S
C71 H81 0.931 . S
C72 C68 1.390 . S
C72 C69 1.392 . S
C72 H82 0.930 . S
C73 C70 1.372 . S
C73 C71 1.390 . S
C73 H83 0.929 . S
C74 O54 1.255 . S
C74 O55 1.257 . S
C75 Eu11 2.787 . S
C75 O50 1.252 . S
C75 O53 1.268 . S
C75 C68 1.506 . S
H76 C59 0.931 . S
H77 C60 0.931 . S
H78 C61 0.929 . S
H79 C62 0.930 . S
H80 C70 0.931 . S
H81 C71 0.931 . S
H82 C72 0.930 . S
H83 C73 0.929 . S
Eu84 N113 2.600 . S
Eu84 N119 2.562 . S
Eu84 O128 2.462 . S
Eu84 O129 2.373 . S
Eu84 O131 2.432 . S
Eu84 O132 2.291 . S
Eu84 O136 2.335 . S
Eu84 O139 2.372 . S
Eu84 C148 2.787 . S
C85 N86 1.365 . S
C85 C88 1.405 . S
C85 C92 1.448 . S
N86 C85 1.365 . S
N86 C89 1.319 . S
N86 Eu95 2.600 . S
C87 C89 1.397 1_655 S
C87 C90 1.367 1_655 S
C87 H107 0.931 . S
C88 C85 1.405 . S
C88 C90 1.403 . S
C88 C94 1.439 . S
C89 N86 1.319 . S
C89 C87 1.397 1_455 S
C89 H100 0.930 . S
C90 C87 1.367 1_455 S
C90 C88 1.403 . S
C90 H111 0.929 1_455 S
C91 C92 1.430 . S
C91 C93 1.387 . S
C91 C97 1.404 . S
C92 C85 1.448 . S
C92 C91 1.430 . S
C92 N96 1.351 . S
C93 C91 1.387 . S
C93 C94 1.374 . S
C93 H108 0.931 . S
C94 C88 1.439 . S
C94 C93 1.374 . S
C94 H109 0.931 . S
Eu95 N86 2.600 . S
Eu95 N96 2.562 . S
Eu95 O130 2.335 . S
Eu95 O133 2.372 . S
Eu95 O134 2.462 1_556 S
Eu95 O135 2.373 . S
Eu95 O137 2.432 1_556 S
Eu95 O138 2.291 . S
Eu95 C159 2.787 1_556 S
N96 C92 1.351 . S
N96 Eu95 2.562 . S
N96 C98 1.325 . S
C97 C91 1.404 . S
C97 C99 1.366 . S
C97 H105 0.930 . S
C98 N96 1.325 . S
C98 C99 1.416 . S
C98 H104 0.929 . S
C99 C97 1.366 . S
C99 C98 1.416 . S
C99 H101 0.930 . S
H100 C89 0.930 . S
H101 C99 0.930 . S
H102 C117 0.930 . S
H103 C124 0.930 . S
H104 C98 0.929 . S
H105 C97 0.930 . S
H106 C120 0.929 . S
H107 C87 0.931 . S
H108 C93 0.931 . S
H109 C94 0.931 . S
H110 C115 0.931 . S
H111 C90 0.929 1_655 S
H112 C123 0.930 . S
N113 Eu84 2.600 . S
N113 C114 1.365 . S
N113 C117 1.319 . S
C114 N113 1.365 . S
C114 C116 1.405 . S
C114 C122 1.448 . S
C115 H110 0.931 . S
C115 C117 1.397 . S
C115 C118 1.367 . S
C116 C114 1.405 . S
C116 C118 1.403 . S
C116 C149 1.439 . S
C117 H102 0.930 . S
C117 N113 1.319 . S
C117 C115 1.397 . S
C118 C115 1.367 . S
C118 C116 1.403 . S
C118 H125 0.929 . S
N119 Eu84 2.562 . S
N119 C120 1.325 . S
N119 C122 1.351 . S
C120 H106 0.929 . S
C120 N119 1.325 . S
C120 C124 1.416 . S
C121 C122 1.430 . S
C121 C123 1.404 . S
C121 C150 1.387 . S
C122 C114 1.448 . S
C122 N119 1.351 . S
C122 C121 1.430 . S
C123 H112 0.930 . S
C123 C121 1.404 . S
C123 C124 1.366 . S
C124 H103 0.930 . S
C124 C120 1.416 . S
C124 C123 1.366 . S
H125 C118 0.929 . S
H126 C149 0.931 . S
H127 C150 0.931 . S
O128 Eu84 2.462 . S
O128 C148 1.252 . S
O129 Eu84 2.373 . S
O129 C140 1.249 . S
O130 Eu95 2.335 . S
O130 C140 1.264 . S
O131 Eu84 2.432 . S
O131 C148 1.268 . S
O132 Eu84 2.291 . S
O132 C147 1.255 . S
O133 Eu95 2.372 . S
O133 C147 1.257 . S
O134 Eu95 2.462 1_554 S
O134 C159 1.252 . S
O135 Eu95 2.373 . S
O135 C151 1.249 . S
O136 Eu84 2.335 . S
O136 C151 1.264 . S
O137 Eu95 2.432 1_554 S
O137 C159 1.268 . S
O138 Eu95 2.291 . S
O138 C158 1.255 . S
O139 Eu84 2.372 . S
O139 C158 1.257 . S
C140 O129 1.249 . S
C140 O130 1.264 . S
C141 C144 1.382 . S
C141 C146 1.390 . S
C141 C148 1.506 . S
C142 C143 1.398 . S
C142 C146 1.392 . S
C143 C142 1.398 . S
C143 C145 1.372 . S
C143 H160 0.931 . S
C144 C141 1.382 . S
C144 C145 1.390 . S
C144 H161 0.931 . S
C145 C143 1.372 . S
C145 C144 1.390 . S
C145 H162 0.929 . S
C146 C141 1.390 . S
C146 C142 1.392 . S
C146 H163 0.930 . S
C147 O132 1.255 . S
C147 O133 1.257 . S
C148 Eu84 2.787 . S
C148 O128 1.252 . S
C148 O131 1.268 . S
C148 C141 1.506 . S
C149 C116 1.439 . S
C149 H126 0.931 . S
C149 C150 1.374 . S
C150 C121 1.387 . S
C150 H127 0.931 . S
C150 C149 1.374 . S
C151 O135 1.249 . S
C151 O136 1.264 . S
C152 C155 1.382 . S
C152 C156 1.390 . S
C152 C159 1.506 . S
C153 C154 1.398 . S
C153 C156 1.392 . S
C154 C153 1.398 . S
C154 C157 1.372 . S
C154 H164 0.931 . S
C155 C152 1.382 . S
C155 C157 1.390 . S
C155 H165 0.931 . S
C156 C152 1.390 . S
C156 C153 1.392 . S
C156 H166 0.930 . S
C157 C154 1.372 . S
C157 C155 1.390 . S
C157 H167 0.929 . S
C158 O138 1.255 . S
C158 O139 1.257 . S
C159 Eu95 2.787 1_554 S
C159 O134 1.252 . S
C159 O137 1.268 . S
C159 C152 1.506 . S
H160 C143 0.931 . S
H161 C144 0.931 . S
H162 C145 0.929 . S
H163 C146 0.930 . S
H164 C154 0.931 . S
H165 C155 0.931 . S
H166 C156 0.930 . S
H167 C157 0.929 . S
Eu168 N197 2.600 . S
Eu168 N203 2.562 . S
Eu168 O212 2.462 1_554 S
Eu168 O213 2.373 . S
Eu168 O215 2.432 1_554 S
Eu168 O216 2.291 . S
Eu168 O220 2.335 . S
Eu168 O223 2.372 . S
Eu168 C232 2.787 1_554 S
C169 N170 1.365 . S
C169 C172 1.405 . S
C169 C176 1.448 . S
N170 C169 1.365 . S
N170 C173 1.319 . S
N170 Eu179 2.600 . S
C171 C173 1.397 . S
C171 C174 1.367 . S
C171 H191 0.931 . S
C172 C169 1.405 . S
C172 C174 1.403 . S
C172 C178 1.439 . S
C173 N170 1.319 . S
C173 C171 1.397 . S
C173 H184 0.930 . S
C174 C171 1.367 . S
C174 C172 1.403 . S
C174 H195 0.929 . S
C175 C176 1.430 . S
C175 C177 1.387 . S
C175 C181 1.404 . S
C176 C169 1.448 . S
C176 C175 1.430 . S
C176 N180 1.351 . S
C177 C175 1.387 . S
C177 C178 1.374 . S
C177 H192 0.931 . S
C178 C172 1.439 . S
C178 C177 1.374 . S
C178 H193 0.931 . S
Eu179 N170 2.600 . S
Eu179 N180 2.562 . S
Eu179 O214 2.335 . S
Eu179 O217 2.372 . S
Eu179 O218 2.462 . S
Eu179 O219 2.373 . S
Eu179 O221 2.432 . S
Eu179 O222 2.291 . S
Eu179 C243 2.787 . S
N180 C176 1.351 . S
N180 Eu179 2.562 . S
N180 C182 1.325 . S
C181 C175 1.404 . S
C181 C183 1.366 . S
C181 H189 0.930 . S
C182 N180 1.325 . S
C182 C183 1.416 . S
C182 H188 0.929 . S
C183 C181 1.366 . S
C183 C182 1.416 . S
C183 H185 0.930 . S
H184 C173 0.930 . S
H185 C183 0.930 . S
H186 C201 0.930 . S
H187 C208 0.930 . S
H188 C182 0.929 . S
H189 C181 0.930 . S
H190 C204 0.929 . S
H191 C171 0.931 . S
H192 C177 0.931 . S
H193 C178 0.931 . S
H194 C199 0.931 . S
H195 C174 0.929 . S
H196 C207 0.930 . S
N197 Eu168 2.600 . S
N197 C198 1.365 . S
N197 C201 1.319 . S
C198 N197 1.365 . S
C198 C200 1.405 . S
C198 C206 1.448 . S
C199 H194 0.931 . S
C199 C201 1.397 1_545 S
C199 C202 1.367 1_545 S
C200 C198 1.405 . S
C200 C202 1.403 . S
C200 C233 1.439 . S
C201 H186 0.930 . S
C201 N197 1.319 . S
C201 C199 1.397 1_565 S
C202 C199 1.367 1_565 S
C202 C200 1.403 . S
C202 H209 0.929 1_565 S
N203 Eu168 2.562 . S
N203 C204 1.325 . S
N203 C206 1.351 . S
C204 H190 0.929 . S
C204 N203 1.325 . S
C204 C208 1.416 . S
C205 C206 1.430 . S
C205 C207 1.404 . S
C205 C234 1.387 . S
C206 C198 1.448 . S
C206 N203 1.351 . S
C206 C205 1.430 . S
C207 H196 0.930 . S
C207 C205 1.404 . S
C207 C208 1.366 . S
C208 H187 0.930 . S
C208 C204 1.416 . S
C208 C207 1.366 . S
H209 C202 0.929 1_545 S
H210 C233 0.931 . S
H211 C234 0.931 . S
O212 Eu168 2.462 1_556 S
O212 C232 1.252 . S
O213 Eu168 2.373 . S
O213 C224 1.249 . S
O214 Eu179 2.335 . S
O214 C224 1.264 . S
O215 Eu168 2.432 1_556 S
O215 C232 1.268 . S
O216 Eu168 2.291 . S
O216 C231 1.255 . S
O217 Eu179 2.372 . S
O217 C231 1.257 . S
O218 Eu179 2.462 . S
O218 C243 1.252 . S
O219 Eu179 2.373 . S
O219 C235 1.249 . S
O220 Eu168 2.335 . S
O220 C235 1.264 . S
O221 Eu179 2.432 . S
O221 C243 1.268 . S
O222 Eu179 2.291 . S
O222 C242 1.255 . S
O223 Eu168 2.372 . S
O223 C242 1.257 . S
C224 O213 1.249 . S
C224 O214 1.264 . S
C225 C228 1.382 . S
C225 C230 1.390 . S
C225 C232 1.506 . S
C226 C227 1.398 . S
C226 C230 1.392 . S
C227 C226 1.398 . S
C227 C229 1.372 . S
C227 H244 0.931 . S
C228 C225 1.382 . S
C228 C229 1.390 . S
C228 H245 0.931 . S
C229 C227 1.372 . S
C229 C228 1.390 . S
C229 H246 0.929 . S
C230 C225 1.390 . S
C230 C226 1.392 . S
C230 H247 0.930 . S
C231 O216 1.255 . S
C231 O217 1.257 . S
C232 Eu168 2.787 1_556 S
C232 O212 1.252 . S
C232 O215 1.268 . S
C232 C225 1.506 . S
C233 C200 1.439 . S
C233 H210 0.931 . S
C233 C234 1.374 . S
C234 C205 1.387 . S
C234 H211 0.931 . S
C234 C233 1.374 . S
C235 O219 1.249 . S
C235 O220 1.264 . S
C236 C239 1.382 . S
C236 C240 1.390 . S
C236 C243 1.506 . S
C237 C238 1.398 . S
C237 C240 1.392 . S
C238 C237 1.398 . S
C238 C241 1.372 . S
C238 H248 0.931 . S
C239 C236 1.382 . S
C239 C241 1.390 . S
C239 H249 0.931 . S
C240 C236 1.390 . S
C240 C237 1.392 . S
C240 H250 0.930 . S
C241 C238 1.372 . S
C241 C239 1.390 . S
C241 H251 0.929 . S
C242 O222 1.255 . S
C242 O223 1.257 . S
C243 Eu179 2.787 . S
C243 O218 1.252 . S
C243 O221 1.268 . S
C243 C236 1.506 . S
H244 C227 0.931 . S
H245 C228 0.931 . S
H246 C229 0.929 . S
H247 C230 0.930 . S
H248 C238 0.931 . S
H249 C239 0.931 . S
H250 C240 0.930 . S
H251 C241 0.929 . S
Eu252 N281 2.600 . S
Eu252 N287 2.562 . S
Eu252 O296 2.462 . S
Eu252 O297 2.373 . S
Eu252 O299 2.432 . S
Eu252 O300 2.291 . S
Eu252 O304 2.335 . S
Eu252 O307 2.372 . S
Eu252 C316 2.787 . S
C253 N254 1.365 . S
C253 C256 1.405 . S
C253 C260 1.448 . S
N254 C253 1.365 . S
N254 C257 1.319 . S
N254 Eu263 2.600 . S
C255 C257 1.397 1_455 S
C255 C258 1.367 1_455 S
C255 H275 0.931 . S
C256 C253 1.405 . S
C256 C258 1.403 . S
C256 C262 1.439 . S
C257 N254 1.319 . S
C257 C255 1.397 1_655 S
C257 H268 0.930 . S
C258 C255 1.367 1_655 S
C258 C256 1.403 . S
C258 H279 0.929 1_655 S
C259 C260 1.430 . S
C259 C261 1.387 . S
C259 C265 1.404 . S
C260 C253 1.448 . S
C260 C259 1.430 . S
C260 N264 1.351 . S
C261 C259 1.387 . S
C261 C262 1.374 . S
C261 H276 0.931 . S
C262 C256 1.439 . S
C262 C261 1.374 . S
C262 H277 0.931 . S
Eu263 N254 2.600 . S
Eu263 N264 2.562 . S
Eu263 O298 2.335 . S
Eu263 O301 2.372 . S
Eu263 O302 2.462 1_556 S
Eu263 O303 2.373 . S
Eu263 O305 2.432 1_556 S
Eu263 O306 2.291 . S
Eu263 C327 2.787 1_556 S
N264 C260 1.351 . S
N264 Eu263 2.562 . S
N264 C266 1.325 . S
C265 C259 1.404 . S
C265 C267 1.366 . S
C265 H273 0.930 . S
C266 N264 1.325 . S
C266 C267 1.416 . S
C266 H272 0.929 . S
C267 C265 1.366 . S
C267 C266 1.416 . S
C267 H269 0.930 . S
H268 C257 0.930 . S
H269 C267 0.930 . S
H270 C285 0.930 . S
H271 C292 0.930 . S
H272 C266 0.929 . S
H273 C265 0.930 . S
H274 C288 0.929 . S
H275 C255 0.931 . S
H276 C261 0.931 . S
H277 C262 0.931 . S
H278 C283 0.931 . S
H279 C258 0.929 1_455 S
H280 C291 0.930 . S
N281 Eu252 2.600 . S
N281 C282 1.365 . S
N281 C285 1.319 . S
C282 N281 1.365 . S
C282 C284 1.405 . S
C282 C290 1.448 . S
C283 H278 0.931 . S
C283 C285 1.397 . S
C283 C286 1.367 . S
C284 C282 1.405 . S
C284 C286 1.403 . S
C284 C317 1.439 . S
C285 H270 0.930 . S
C285 N281 1.319 . S
C285 C283 1.397 . S
C286 C283 1.367 . S
C286 C284 1.403 . S
C286 H293 0.929 . S
N287 Eu252 2.562 . S
N287 C288 1.325 . S
N287 C290 1.351 . S
C288 H274 0.929 . S
C288 N287 1.325 . S
C288 C292 1.416 . S
C289 C290 1.430 . S
C289 C291 1.404 . S
C289 C318 1.387 . S
C290 C282 1.448 . S
C290 N287 1.351 . S
C290 C289 1.430 . S
C291 H280 0.930 . S
C291 C289 1.404 . S
C291 C292 1.366 . S
C292 H271 0.930 . S
C292 C288 1.416 . S
C292 C291 1.366 . S
H293 C286 0.929 . S
H294 C317 0.931 . S
H295 C318 0.931 . S
O296 Eu252 2.462 . S
O296 C316 1.252 . S
O297 Eu252 2.373 . S
O297 C308 1.249 . S
O298 Eu263 2.335 . S
O298 C308 1.264 . S
O299 Eu252 2.432 . S
O299 C316 1.268 . S
O300 Eu252 2.291 . S
O300 C315 1.255 . S
O301 Eu263 2.372 . S
O301 C315 1.257 . S
O302 Eu263 2.462 1_554 S
O302 C327 1.252 . S
O303 Eu263 2.373 . S
O303 C319 1.249 . S
O304 Eu252 2.335 . S
O304 C319 1.264 . S
O305 Eu263 2.432 1_554 S
O305 C327 1.268 . S
O306 Eu263 2.291 . S
O306 C326 1.255 . S
O307 Eu252 2.372 . S
O307 C326 1.257 . S
C308 O297 1.249 . S
C308 O298 1.264 . S
C309 C312 1.382 . S
C309 C314 1.390 . S
C309 C316 1.506 . S
C310 C311 1.398 . S
C310 C314 1.392 . S
C311 C310 1.398 . S
C311 C313 1.372 . S
C311 H328 0.931 . S
C312 C309 1.382 . S
C312 C313 1.390 . S
C312 H329 0.931 . S
C313 C311 1.372 . S
C313 C312 1.390 . S
C313 H330 0.929 . S
C314 C309 1.390 . S
C314 C310 1.392 . S
C314 H331 0.930 . S
C315 O300 1.255 . S
C315 O301 1.257 . S
C316 Eu252 2.787 . S
C316 O296 1.252 . S
C316 O299 1.268 . S
C316 C309 1.506 . S
C317 C284 1.439 . S
C317 H294 0.931 . S
C317 C318 1.374 . S
C318 C289 1.387 . S
C318 H295 0.931 . S
C318 C317 1.374 . S
C319 O303 1.249 . S
C319 O304 1.264 . S
C320 C323 1.382 . S
C320 C324 1.390 . S
C320 C327 1.506 . S
C321 C322 1.398 . S
C321 C324 1.392 . S
C322 C321 1.398 . S
C322 C325 1.372 . S
C322 H332 0.931 . S
C323 C320 1.382 . S
C323 C325 1.390 . S
C323 H333 0.931 . S
C324 C320 1.390 . S
C324 C321 1.392 . S
C324 H334 0.930 . S
C325 C322 1.372 . S
C325 C323 1.390 . S
C325 H335 0.929 . S
C326 O306 1.255 . S
C326 O307 1.257 . S
C327 Eu263 2.787 1_554 S
C327 O302 1.252 . S
C327 O305 1.268 . S
C327 C320 1.506 . S
H328 C311 0.931 . S
H329 C312 0.931 . S
H330 C313 0.929 . S
H331 C314 0.930 . S
H332 C322 0.931 . S
H333 C323 0.931 . S
H334 C324 0.930 . S
H335 C325 0.929 . S
Eu336 N365 2.600 . S
Eu336 N371 2.562 . S
Eu336 O380 2.462 . S
Eu336 O381 2.373 . S
Eu336 O383 2.432 . S
Eu336 O384 2.291 . S
Eu336 O388 2.335 . S
Eu336 O391 2.372 . S
Eu336 C400 2.787 . S
C337 N338 1.365 . S
C337 C340 1.405 . S
C337 C344 1.448 . S
N338 C337 1.365 . S
N338 C341 1.319 . S
N338 Eu347 2.600 . S
C339 C341 1.397 . S
C339 C342 1.367 . S
C339 H359 0.931 . S
C340 C337 1.405 . S
C340 C342 1.403 . S
C340 C346 1.439 . S
C341 N338 1.319 . S
C341 C339 1.397 . S
C341 H352 0.930 . S
C342 C339 1.367 . S
C342 C340 1.403 . S
C342 H363 0.929 . S
C343 C344 1.430 . S
C343 C345 1.387 . S
C343 C349 1.404 . S
C344 C337 1.448 . S
C344 C343 1.430 . S
C344 N348 1.351 . S
C345 C343 1.387 . S
C345 C346 1.374 . S
C345 H360 0.931 . S
C346 C340 1.439 . S
C346 C345 1.374 . S
C346 H361 0.931 . S
Eu347 N338 2.600 . S
Eu347 N348 2.562 . S
Eu347 O382 2.335 . S
Eu347 O385 2.372 . S
Eu347 O386 2.462 1_554 S
Eu347 O387 2.373 . S
Eu347 O389 2.432 1_554 S
Eu347 O390 2.291 . S
Eu347 C411 2.787 1_554 S
N348 C344 1.351 . S
N348 Eu347 2.562 . S
N348 C350 1.325 . S
C349 C343 1.404 . S
C349 C351 1.366 . S
C349 H357 0.930 . S
C350 N348 1.325 . S
C350 C351 1.416 . S
C350 H356 0.929 . S
C351 C349 1.366 . S
C351 C350 1.416 . S
C351 H353 0.930 . S
H352 C341 0.930 . S
H353 C351 0.930 . S
H354 C369 0.930 . S
H355 C376 0.930 . S
H356 C350 0.929 . S
H357 C349 0.930 . S
H358 C372 0.929 . S
H359 C339 0.931 . S
H360 C345 0.931 . S
H361 C346 0.931 . S
H362 C367 0.931 . S
H363 C342 0.929 . S
H364 C375 0.930 . S
N365 Eu336 2.600 . S
N365 C366 1.365 . S
N365 C369 1.319 . S
C366 N365 1.365 . S
C366 C368 1.405 . S
C366 C374 1.448 . S
C367 H362 0.931 . S
C367 C369 1.397 . S
C367 C370 1.367 . S
C368 C366 1.405 . S
C368 C370 1.403 . S
C368 C401 1.439 . S
C369 H354 0.930 . S
C369 N365 1.319 . S
C369 C367 1.397 . S
C370 C367 1.367 . S
C370 C368 1.403 . S
C370 H377 0.929 . S
N371 Eu336 2.562 . S
N371 C372 1.325 . S
N371 C374 1.351 . S
C372 H358 0.929 . S
C372 N371 1.325 . S
C372 C376 1.416 . S
C373 C374 1.430 . S
C373 C375 1.404 . S
C373 C402 1.387 . S
C374 C366 1.448 . S
C374 N371 1.351 . S
C374 C373 1.430 . S
C375 H364 0.930 . S
C375 C373 1.404 . S
C375 C376 1.366 . S
C376 H355 0.930 . S
C376 C372 1.416 . S
C376 C375 1.366 . S
H377 C370 0.929 . S
H378 C401 0.931 . S
H379 C402 0.931 . S
O380 Eu336 2.462 . S
O380 C400 1.252 . S
O381 Eu336 2.373 . S
O381 C392 1.249 . S
O382 Eu347 2.335 . S
O382 C392 1.264 . S
O383 Eu336 2.432 . S
O383 C400 1.268 . S
O384 Eu336 2.291 . S
O384 C399 1.255 . S
O385 Eu347 2.372 . S
O385 C399 1.257 . S
O386 Eu347 2.462 1_556 S
O386 C411 1.252 . S
O387 Eu347 2.373 . S
O387 C403 1.249 . S
O388 Eu336 2.335 . S
O388 C403 1.264 . S
O389 Eu347 2.432 1_556 S
O389 C411 1.268 . S
O390 Eu347 2.291 . S
O390 C410 1.255 . S
O391 Eu336 2.372 . S
O391 C410 1.257 . S
C392 O381 1.249 . S
C392 O382 1.264 . S
C393 C396 1.382 . S
C393 C398 1.390 . S
C393 C400 1.506 . S
C394 C395 1.398 . S
C394 C398 1.392 . S
C395 C394 1.398 . S
C395 C397 1.372 . S
C395 H412 0.931 . S
C396 C393 1.382 . S
C396 C397 1.390 . S
C396 H413 0.931 . S
C397 C395 1.372 . S
C397 C396 1.390 . S
C397 H414 0.929 . S
C398 C393 1.390 . S
C398 C394 1.392 . S
C398 H415 0.930 . S
C399 O384 1.255 . S
C399 O385 1.257 . S
C400 Eu336 2.787 . S
C400 O380 1.252 . S
C400 O383 1.268 . S
C400 C393 1.506 . S
C401 C368 1.439 . S
C401 H378 0.931 . S
C401 C402 1.374 . S
C402 C373 1.387 . S
C402 H379 0.931 . S
C402 C401 1.374 . S
C403 O387 1.249 . S
C403 O388 1.264 . S
C404 C407 1.382 . S
C404 C408 1.390 . S
C404 C411 1.506 . S
C405 C406 1.398 . S
C405 C408 1.392 . S
C406 C405 1.398 . S
C406 C409 1.372 . S
C406 H416 0.931 . S
C407 C404 1.382 . S
C407 C409 1.390 . S
C407 H417 0.931 . S
C408 C404 1.390 . S
C408 C405 1.392 . S
C408 H418 0.930 . S
C409 C406 1.372 . S
C409 C407 1.390 . S
C409 H419 0.929 . S
C410 O390 1.255 . S
C410 O391 1.257 . S
C411 Eu347 2.787 1_556 S
C411 O386 1.252 . S
C411 O389 1.268 . S
C411 C404 1.506 . S
H412 C395 0.931 . S
H413 C396 0.931 . S
H414 C397 0.929 . S
H415 C398 0.930 . S
H416 C406 0.931 . S
H417 C407 0.931 . S
H418 C408 0.930 . S
H419 C409 0.929 . S
Eu420 N449 2.600 . S
Eu420 N455 2.562 . S
Eu420 O464 2.462 1_556 S
Eu420 O465 2.373 . S
Eu420 O467 2.432 1_556 S
Eu420 O468 2.291 . S
Eu420 O472 2.335 . S
Eu420 O475 2.372 . S
Eu420 C484 2.787 1_556 S
C421 N422 1.365 . S
C421 C424 1.405 . S
C421 C428 1.448 . S
N422 C421 1.365 . S
N422 C425 1.319 . S
N422 Eu431 2.600 . S
C423 C425 1.397 . S
C423 C426 1.367 . S
C423 H443 0.931 . S
C424 C421 1.405 . S
C424 C426 1.403 . S
C424 C430 1.439 . S
C425 N422 1.319 . S
C425 C423 1.397 . S
C425 H436 0.930 . S
C426 C423 1.367 . S
C426 C424 1.403 . S
C426 H447 0.929 . S
C427 C428 1.430 . S
C427 C429 1.387 . S
C427 C433 1.404 . S
C428 C421 1.448 . S
C428 C427 1.430 . S
C428 N432 1.351 . S
C429 C427 1.387 . S
C429 C430 1.374 . S
C429 H444 0.931 . S
C430 C424 1.439 . S
C430 C429 1.374 . S
C430 H445 0.931 . S
Eu431 N422 2.600 . S
Eu431 N432 2.562 . S
Eu431 O466 2.335 . S
Eu431 O469 2.372 . S
Eu431 O470 2.462 . S
Eu431 O471 2.373 . S
Eu431 O473 2.432 . S
Eu431 O474 2.291 . S
Eu431 C495 2.787 . S
N432 C428 1.351 . S
N432 Eu431 2.562 . S
N432 C434 1.325 . S
C433 C427 1.404 . S
C433 C435 1.366 . S
C433 H441 0.930 . S
C434 N432 1.325 . S
C434 C435 1.416 . S
C434 H440 0.929 . S
C435 C433 1.366 . S
C435 C434 1.416 . S
C435 H437 0.930 . S
H436 C425 0.930 . S
H437 C435 0.930 . S
H438 C453 0.930 . S
H439 C460 0.930 . S
H440 C434 0.929 . S
H441 C433 0.930 . S
H442 C456 0.929 . S
H443 C423 0.931 . S
H444 C429 0.931 . S
H445 C430 0.931 . S
H446 C451 0.931 . S
H447 C426 0.929 . S
H448 C459 0.930 . S
N449 Eu420 2.600 . S
N449 C450 1.365 . S
N449 C453 1.319 . S
C450 N449 1.365 . S
C450 C452 1.405 . S
C450 C458 1.448 . S
C451 H446 0.931 . S
C451 C453 1.397 . S
C451 C454 1.367 . S
C452 C450 1.405 . S
C452 C454 1.403 . S
C452 C485 1.439 . S
C453 H438 0.930 . S
C453 N449 1.319 . S
C453 C451 1.397 . S
C454 C451 1.367 . S
C454 C452 1.403 . S
C454 H461 0.929 . S
N455 Eu420 2.562 . S
N455 C456 1.325 . S
N455 C458 1.351 . S
C456 H442 0.929 . S
C456 N455 1.325 . S
C456 C460 1.416 . S
C457 C458 1.430 . S
C457 C459 1.404 . S
C457 C486 1.387 . S
C458 C450 1.448 . S
C458 N455 1.351 . S
C458 C457 1.430 . S
C459 H448 0.930 . S
C459 C457 1.404 . S
C459 C460 1.366 . S
C460 H439 0.930 . S
C460 C456 1.416 . S
C460 C459 1.366 . S
H461 C454 0.929 . S
H462 C485 0.931 . S
H463 C486 0.931 . S
O464 Eu420 2.462 1_554 S
O464 C484 1.252 . S
O465 Eu420 2.373 . S
O465 C476 1.249 . S
O466 Eu431 2.335 . S
O466 C476 1.264 . S
O467 Eu420 2.432 1_554 S
O467 C484 1.268 . S
O468 Eu420 2.291 . S
O468 C483 1.255 . S
O469 Eu431 2.372 . S
O469 C483 1.257 . S
O470 Eu431 2.462 . S
O470 C495 1.252 . S
O471 Eu431 2.373 . S
O471 C487 1.249 . S
O472 Eu420 2.335 . S
O472 C487 1.264 . S
O473 Eu431 2.432 . S
O473 C495 1.268 . S
O474 Eu431 2.291 . S
O474 C494 1.255 . S
O475 Eu420 2.372 . S
O475 C494 1.257 . S
C476 O465 1.249 . S
C476 O466 1.264 . S
C477 C480 1.382 . S
C477 C482 1.390 . S
C477 C484 1.506 . S
C478 C479 1.398 . S
C478 C482 1.392 . S
C479 C478 1.398 . S
C479 C481 1.372 . S
C479 H496 0.931 . S
C480 C477 1.382 . S
C480 C481 1.390 . S
C480 H497 0.931 . S
C481 C479 1.372 . S
C481 C480 1.390 . S
C481 H498 0.929 . S
C482 C477 1.390 . S
C482 C478 1.392 . S
C482 H499 0.930 . S
C483 O468 1.255 . S
C483 O469 1.257 . S
C484 Eu420 2.787 1_554 S
C484 O464 1.252 . S
C484 O467 1.268 . S
C484 C477 1.506 . S
C485 C452 1.439 . S
C485 H462 0.931 . S
C485 C486 1.374 . S
C486 C457 1.387 . S
C486 H463 0.931 . S
C486 C485 1.374 . S
C487 O471 1.249 . S
C487 O472 1.264 . S
C488 C491 1.382 . S
C488 C492 1.390 . S
C488 C495 1.506 . S
C489 C490 1.398 . S
C489 C492 1.392 . S
C490 C489 1.398 . S
C490 C493 1.372 . S
C490 H500 0.931 . S
C491 C488 1.382 . S
C491 C493 1.390 . S
C491 H501 0.931 . S
C492 C488 1.390 . S
C492 C489 1.392 . S
C492 H502 0.930 . S
C493 C490 1.372 . S
C493 C491 1.390 . S
C493 H503 0.929 . S
C494 O474 1.255 . S
C494 O475 1.257 . S
C495 Eu431 2.787 . S
C495 O470 1.252 . S
C495 O473 1.268 . S
C495 C488 1.506 . S
H496 C479 0.931 . S
H497 C480 0.931 . S
H498 C481 0.929 . S
H499 C482 0.930 . S
H500 C490 0.931 . S
H501 C491 0.931 . S
H502 C492 0.930 . S
H503 C493 0.929 . S
Eu504 N533 2.600 . S
Eu504 N539 2.562 . S
Eu504 O548 2.462 . S
Eu504 O549 2.373 . S
Eu504 O551 2.432 . S
Eu504 O552 2.291 . S
Eu504 O556 2.335 . S
Eu504 O559 2.372 . S
Eu504 C568 2.787 . S
C505 N506 1.365 . S
C505 C508 1.405 . S
C505 C512 1.448 . S
N506 C505 1.365 . S
N506 C509 1.319 . S
N506 Eu515 2.600 . S
C507 C509 1.397 . S
C507 C510 1.367 . S
C507 H527 0.931 . S
C508 C505 1.405 . S
C508 C510 1.403 . S
C508 C514 1.439 . S
C509 N506 1.319 . S
C509 C507 1.397 . S
C509 H520 0.930 . S
C510 C507 1.367 . S
C510 C508 1.403 . S
C510 H531 0.929 . S
C511 C512 1.430 . S
C511 C513 1.387 . S
C511 C517 1.404 . S
C512 C505 1.448 . S
C512 C511 1.430 . S
C512 N516 1.351 . S
C513 C511 1.387 . S
C513 C514 1.374 . S
C513 H528 0.931 . S
C514 C508 1.439 . S
C514 C513 1.374 . S
C514 H529 0.931 . S
Eu515 N506 2.600 . S
Eu515 N516 2.562 . S
Eu515 O550 2.335 . S
Eu515 O553 2.372 . S
Eu515 O554 2.462 1_554 S
Eu515 O555 2.373 . S
Eu515 O557 2.432 1_554 S
Eu515 O558 2.291 . S
Eu515 C579 2.787 1_554 S
N516 C512 1.351 . S
N516 Eu515 2.562 . S
N516 C518 1.325 . S
C517 C511 1.404 . S
C517 C519 1.366 . S
C517 H525 0.930 . S
C518 N516 1.325 . S
C518 C519 1.416 . S
C518 H524 0.929 . S
C519 C517 1.366 . S
C519 C518 1.416 . S
C519 H521 0.930 . S
H520 C509 0.930 . S
H521 C519 0.930 . S
H522 C537 0.930 . S
H523 C544 0.930 . S
H524 C518 0.929 . S
H525 C517 0.930 . S
H526 C540 0.929 . S
H527 C507 0.931 . S
H528 C513 0.931 . S
H529 C514 0.931 . S
H530 C535 0.931 . S
H531 C510 0.929 . S
H532 C543 0.930 . S
N533 Eu504 2.600 . S
N533 C534 1.365 . S
N533 C537 1.319 . S
C534 N533 1.365 . S
C534 C536 1.405 . S
C534 C542 1.448 . S
C535 H530 0.931 . S
C535 C537 1.397 . S
C535 C538 1.367 . S
C536 C534 1.405 . S
C536 C538 1.403 . S
C536 C569 1.439 . S
C537 H522 0.930 . S
C537 N533 1.319 . S
C537 C535 1.397 . S
C538 C535 1.367 . S
C538 C536 1.403 . S
C538 H545 0.929 . S
N539 Eu504 2.562 . S
N539 C540 1.325 . S
N539 C542 1.351 . S
C540 H526 0.929 . S
C540 N539 1.325 . S
C540 C544 1.416 . S
C541 C542 1.430 . S
C541 C543 1.404 . S
C541 C570 1.387 . S
C542 C534 1.448 . S
C542 N539 1.351 . S
C542 C541 1.430 . S
C543 H532 0.930 . S
C543 C541 1.404 . S
C543 C544 1.366 . S
C544 H523 0.930 . S
C544 C540 1.416 . S
C544 C543 1.366 . S
H545 C538 0.929 . S
H546 C569 0.931 . S
H547 C570 0.931 . S
O548 Eu504 2.462 . S
O548 C568 1.252 . S
O549 Eu504 2.373 . S
O549 C560 1.249 . S
O550 Eu515 2.335 . S
O550 C560 1.264 . S
O551 Eu504 2.432 . S
O551 C568 1.268 . S
O552 Eu504 2.291 . S
O552 C567 1.255 . S
O553 Eu515 2.372 . S
O553 C567 1.257 . S
O554 Eu515 2.462 1_556 S
O554 C579 1.252 . S
O555 Eu515 2.373 . S
O555 C571 1.249 . S
O556 Eu504 2.335 . S
O556 C571 1.264 . S
O557 Eu515 2.432 1_556 S
O557 C579 1.268 . S
O558 Eu515 2.291 . S
O558 C578 1.255 . S
O559 Eu504 2.372 . S
O559 C578 1.257 . S
C560 O549 1.249 . S
C560 O550 1.264 . S
C561 C564 1.382 . S
C561 C566 1.390 . S
C561 C568 1.506 . S
C562 C563 1.398 . S
C562 C566 1.392 . S
C563 C562 1.398 . S
C563 C565 1.372 . S
C563 H580 0.931 . S
C564 C561 1.382 . S
C564 C565 1.390 . S
C564 H581 0.931 . S
C565 C563 1.372 . S
C565 C564 1.390 . S
C565 H582 0.929 . S
C566 C561 1.390 . S
C566 C562 1.392 . S
C566 H583 0.930 . S
C567 O552 1.255 . S
C567 O553 1.257 . S
C568 Eu504 2.787 . S
C568 O548 1.252 . S
C568 O551 1.268 . S
C568 C561 1.506 . S
C569 C536 1.439 . S
C569 H546 0.931 . S
C569 C570 1.374 . S
C570 C541 1.387 . S
C570 H547 0.931 . S
C570 C569 1.374 . S
C571 O555 1.249 . S
C571 O556 1.264 . S
C572 C575 1.382 . S
C572 C576 1.390 . S
C572 C579 1.506 . S
C573 C574 1.398 . S
C573 C576 1.392 . S
C574 C573 1.398 . S
C574 C577 1.372 . S
C574 H584 0.931 . S
C575 C572 1.382 . S
C575 C577 1.390 . S
C575 H585 0.931 . S
C576 C572 1.390 . S
C576 C573 1.392 . S
C576 H586 0.930 . S
C577 C574 1.372 . S
C577 C575 1.390 . S
C577 H587 0.929 . S
C578 O558 1.255 . S
C578 O559 1.257 . S
C579 Eu515 2.787 1_556 S
C579 O554 1.252 . S
C579 O557 1.268 . S
C579 C572 1.506 . S
H580 C563 0.931 . S
H581 C564 0.931 . S
H582 C565 0.929 . S
H583 C566 0.930 . S
H584 C574 0.931 . S
H585 C575 0.931 . S
H586 C576 0.930 . S
H587 C577 0.929 . S
Eu588 N617 2.600 . S
Eu588 N623 2.562 . S
Eu588 O632 2.462 1_556 S
Eu588 O633 2.373 . S
Eu588 O635 2.432 1_556 S
Eu588 O636 2.291 . S
Eu588 O640 2.335 . S
Eu588 O643 2.372 . S
Eu588 C652 2.787 1_556 S
C589 N590 1.365 . S
C589 C592 1.405 . S
C589 C596 1.448 . S
N590 C589 1.365 . S
N590 C593 1.319 . S
N590 Eu599 2.600 . S
C591 C593 1.397 . S
C591 C594 1.367 . S
C591 H611 0.931 . S
C592 C589 1.405 . S
C592 C594 1.403 . S
C592 C598 1.439 . S
C593 N590 1.319 . S
C593 C591 1.397 . S
C593 H604 0.930 . S
C594 C591 1.367 . S
C594 C592 1.403 . S
C594 H615 0.929 . S
C595 C596 1.430 . S
C595 C597 1.387 . S
C595 C601 1.404 . S
C596 C589 1.448 . S
C596 C595 1.430 . S
C596 N600 1.351 . S
C597 C595 1.387 . S
C597 C598 1.374 . S
C597 H612 0.931 . S
C598 C592 1.439 . S
C598 C597 1.374 . S
C598 H613 0.931 . S
Eu599 N590 2.600 . S
Eu599 N600 2.562 . S
Eu599 O634 2.335 . S
Eu599 O637 2.372 . S
Eu599 O638 2.462 . S
Eu599 O639 2.373 . S
Eu599 O641 2.432 . S
Eu599 O642 2.291 . S
Eu599 C663 2.787 . S
N600 C596 1.351 . S
N600 Eu599 2.562 . S
N600 C602 1.325 . S
C601 C595 1.404 . S
C601 C603 1.366 . S
C601 H609 0.930 . S
C602 N600 1.325 . S
C602 C603 1.416 . S
C602 H608 0.929 . S
C603 C601 1.366 . S
C603 C602 1.416 . S
C603 H605 0.930 . S
H604 C593 0.930 . S
H605 C603 0.930 . S
H606 C621 0.930 . S
H607 C628 0.930 . S
H608 C602 0.929 . S
H609 C601 0.930 . S
H610 C624 0.929 . S
H611 C591 0.931 . S
H612 C597 0.931 . S
H613 C598 0.931 . S
H614 C619 0.931 . S
H615 C594 0.929 . S
H616 C627 0.930 . S
N617 Eu588 2.600 . S
N617 C618 1.365 . S
N617 C621 1.319 . S
C618 N617 1.365 . S
C618 C620 1.405 . S
C618 C626 1.448 . S
C619 H614 0.931 . S
C619 C621 1.397 . S
C619 C622 1.367 . S
C620 C618 1.405 . S
C620 C622 1.403 . S
C620 C653 1.439 . S
C621 H606 0.930 . S
C621 N617 1.319 . S
C621 C619 1.397 . S
C622 C619 1.367 . S
C622 C620 1.403 . S
C622 H629 0.929 . S
N623 Eu588 2.562 . S
N623 C624 1.325 . S
N623 C626 1.351 . S
C624 H610 0.929 . S
C624 N623 1.325 . S
C624 C628 1.416 . S
C625 C626 1.430 . S
C625 C627 1.404 . S
C625 C654 1.387 . S
C626 C618 1.448 . S
C626 N623 1.351 . S
C626 C625 1.430 . S
C627 H616 0.930 . S
C627 C625 1.404 . S
C627 C628 1.366 . S
C628 H607 0.930 . S
C628 C624 1.416 . S
C628 C627 1.366 . S
H629 C622 0.929 . S
H630 C653 0.931 . S
H631 C654 0.931 . S
O632 Eu588 2.462 1_554 S
O632 C652 1.252 . S
O633 Eu588 2.373 . S
O633 C644 1.249 . S
O634 Eu599 2.335 . S
O634 C644 1.264 . S
O635 Eu588 2.432 1_554 S
O635 C652 1.268 . S
O636 Eu588 2.291 . S
O636 C651 1.255 . S
O637 Eu599 2.372 . S
O637 C651 1.257 . S
O638 Eu599 2.462 . S
O638 C663 1.252 . S
O639 Eu599 2.373 . S
O639 C655 1.249 . S
O640 Eu588 2.335 . S
O640 C655 1.264 . S
O641 Eu599 2.432 . S
O641 C663 1.268 . S
O642 Eu599 2.291 . S
O642 C662 1.255 . S
O643 Eu588 2.372 . S
O643 C662 1.257 . S
C644 O633 1.249 . S
C644 O634 1.264 . S
C645 C648 1.382 . S
C645 C650 1.390 . S
C645 C652 1.506 . S
C646 C647 1.398 . S
C646 C650 1.392 . S
C647 C646 1.398 . S
C647 C649 1.372 . S
C647 H664 0.931 . S
C648 C645 1.382 . S
C648 C649 1.390 . S
C648 H665 0.931 . S
C649 C647 1.372 . S
C649 C648 1.390 . S
C649 H666 0.929 . S
C650 C645 1.390 . S
C650 C646 1.392 . S
C650 H667 0.930 . S
C651 O636 1.255 . S
C651 O637 1.257 . S
C652 Eu588 2.787 1_554 S
C652 O632 1.252 . S
C652 O635 1.268 . S
C652 C645 1.506 . S
C653 C620 1.439 . S
C653 H630 0.931 . S
C653 C654 1.374 . S
C654 C625 1.387 . S
C654 H631 0.931 . S
C654 C653 1.374 . S
C655 O639 1.249 . S
C655 O640 1.264 . S
C656 C659 1.382 . S
C656 C660 1.390 . S
C656 C663 1.506 . S
C657 C658 1.398 . S
C657 C660 1.392 . S
C658 C657 1.398 . S
C658 C661 1.372 . S
C658 H668 0.931 . S
C659 C656 1.382 . S
C659 C661 1.390 . S
C659 H669 0.931 . S
C660 C656 1.390 . S
C660 C657 1.392 . S
C660 H670 0.930 . S
C661 C658 1.372 . S
C661 C659 1.390 . S
C661 H671 0.929 . S
C662 O642 1.255 . S
C662 O643 1.257 . S
C663 Eu599 2.787 . S
C663 O638 1.252 . S
C663 O641 1.268 . S
C663 C656 1.506 . S
H664 C647 0.931 . S
H665 C648 0.931 . S
H666 C649 0.929 . S
H667 C650 0.930 . S
H668 C658 0.931 . S
H669 C659 0.931 . S
H670 C660 0.930 . S
H671 C661 0.929 . S
Eu672 N701 2.600 . S
Eu672 N707 2.562 . S
Eu672 O716 2.462 . S
Eu672 O717 2.373 . S
Eu672 O719 2.432 . S
Eu672 O720 2.291 . S
Eu672 O724 2.335 . S
Eu672 O727 2.372 . S
Eu672 C736 2.787 . S
C673 N674 1.365 . S
C673 C676 1.405 . S
C673 C680 1.448 . S
N674 C673 1.365 . S
N674 C677 1.319 . S
N674 Eu683 2.600 . S
C675 C677 1.397 . S
C675 C678 1.367 . S
C675 H695 0.931 . S
C676 C673 1.405 . S
C676 C678 1.403 . S
C676 C682 1.439 . S
C677 N674 1.319 . S
C677 C675 1.397 . S
C677 H688 0.930 . S
C678 C675 1.367 . S
C678 C676 1.403 . S
C678 H699 0.929 . S
C679 C680 1.430 . S
C679 C681 1.387 . S
C679 C685 1.404 . S
C680 C673 1.448 . S
C680 C679 1.430 . S
C680 N684 1.351 . S
C681 C679 1.387 . S
C681 C682 1.374 . S
C681 H696 0.931 . S
C682 C676 1.439 . S
C682 C681 1.374 . S
C682 H697 0.931 . S
Eu683 N674 2.600 . S
Eu683 N684 2.562 . S
Eu683 O718 2.335 . S
Eu683 O721 2.372 . S
Eu683 O722 2.462 . S
Eu683 O723 2.373 . S
Eu683 O725 2.432 . S
Eu683 O726 2.291 . S
Eu683 C747 2.787 . S
N684 C680 1.351 . S
N684 Eu683 2.562 . S
N684 C686 1.325 . S
C685 C679 1.404 . S
C685 C687 1.366 . S
C685 H693 0.930 . S
C686 N684 1.325 . S
C686 C687 1.416 . S
C686 H692 0.929 . S
C687 C685 1.366 . S
C687 C686 1.416 . S
C687 H689 0.930 . S
H688 C677 0.930 . S
H689 C687 0.930 . S
H690 C705 0.930 . S
H691 C712 0.930 . S
H692 C686 0.929 . S
H693 C685 0.930 . S
H694 C708 0.929 . S
H695 C675 0.931 . S
H696 C681 0.931 . S
H697 C682 0.931 . S
H698 C703 0.931 . S
H699 C678 0.929 . S
H700 C711 0.930 . S
N701 Eu672 2.600 . S
N701 C702 1.365 . S
N701 C705 1.319 . S
C702 N701 1.365 . S
C702 C704 1.405 . S
C702 C710 1.448 . S
C703 H698 0.931 . S
C703 C705 1.397 . S
C703 C706 1.367 . S
C704 C702 1.405 . S
C704 C706 1.403 . S
C704 C737 1.439 1_655 S
C705 H690 0.930 . S
C705 N701 1.319 . S
C705 C703 1.397 . S
C706 C703 1.367 . S
C706 C704 1.403 . S
C706 H713 0.929 1_655 S
N707 Eu672 2.562 . S
N707 C708 1.325 . S
N707 C710 1.351 . S
C708 H694 0.929 . S
C708 N707 1.325 . S
C708 C712 1.416 . S
C709 C710 1.433 1_455 S
C709 C711 1.404 . S
C709 C738 1.384 . S
C710 C702 1.448 . S
C710 N707 1.351 . S
C710 C709 1.433 1_655 S
C711 H700 0.930 . S
C711 C709 1.404 . S
C711 C712 1.366 1_455 S
C712 H691 0.930 . S
C712 C708 1.416 . S
C712 C711 1.366 1_655 S
H713 C706 0.929 1_455 S
H714 C737 0.931 . S
H715 C738 0.931 . S
O716 Eu672 2.462 . S
O716 C736 1.252 . S
O717 Eu672 2.373 . S
O717 C728 1.249 . S
O718 Eu683 2.335 . S
O718 C728 1.264 . S
O719 Eu672 2.432 . S
O719 C736 1.268 . S
O720 Eu672 2.291 . S
O720 C735 1.255 . S
O721 Eu683 2.372 . S
O721 C735 1.257 . S
O722 Eu683 2.462 . S
O722 C747 1.252 . S
O723 Eu683 2.373 . S
O723 C739 1.249 . S
O724 Eu672 2.335 . S
O724 C739 1.264 . S
O725 Eu683 2.432 . S
O725 C747 1.268 . S
O726 Eu683 2.291 . S
O726 C746 1.255 . S
O727 Eu672 2.372 . S
O727 C746 1.257 . S
C728 O717 1.249 . S
C728 O718 1.264 . S
C729 C732 1.382 . S
C729 C734 1.390 . S
C729 C736 1.506 . S
C730 C731 1.398 . S
C730 C734 1.392 . S
C731 C730 1.398 . S
C731 C733 1.372 . S
C731 H748 0.931 . S
C732 C729 1.382 . S
C732 C733 1.390 . S
C732 H749 0.931 . S
C733 C731 1.372 . S
C733 C732 1.390 . S
C733 H750 0.929 . S
C734 C729 1.390 . S
C734 C730 1.392 . S
C734 H751 0.930 . S
C735 O720 1.255 . S
C735 O721 1.257 . S
C736 Eu672 2.787 . S
C736 O716 1.252 . S
C736 O719 1.268 . S
C736 C729 1.506 . S
C737 C704 1.439 1_455 S
C737 H714 0.931 . S
C737 C738 1.374 . S
C738 C709 1.384 . S
C738 H715 0.931 . S
C738 C737 1.374 . S
C739 O723 1.249 . S
C739 O724 1.264 . S
C740 C743 1.382 . S
C740 C744 1.390 . S
C740 C747 1.506 . S
C741 C742 1.398 . S
C741 C744 1.392 1_554 S
C742 C741 1.398 . S
C742 C745 1.372 . S
C742 H752 0.931 . S
C743 C740 1.382 . S
C743 C745 1.390 1_556 S
C743 H753 0.931 . S
C744 C740 1.390 . S
C744 C741 1.392 1_556 S
C744 H754 0.930 . S
C745 C742 1.372 . S
C745 C743 1.390 1_554 S
C745 H755 0.929 . S
C746 O726 1.255 . S
C746 O727 1.257 . S
C747 Eu683 2.787 . S
C747 O722 1.252 . S
C747 O725 1.268 . S
C747 C740 1.506 . S
H748 C731 0.931 . S
H749 C732 0.931 . S
H750 C733 0.929 . S
H751 C734 0.930 . S
H752 C742 0.931 . S
H753 C743 0.931 . S
H754 C744 0.930 . S
H755 C745 0.929 . S
Eu756 N785 2.600 . S
Eu756 N791 2.562 . S
Eu756 O800 2.462 . S
Eu756 O801 2.373 . S
Eu756 O803 2.432 . S
Eu756 O804 2.291 . S
Eu756 O808 2.335 . S
Eu756 O811 2.372 . S
Eu756 C820 2.787 . S
C757 N758 1.365 . S
C757 C760 1.405 . S
C757 C764 1.448 . S
N758 C757 1.365 . S
N758 C761 1.319 . S
N758 Eu767 2.600 . S
C759 C761 1.397 . S
C759 C762 1.367 . S
C759 H779 0.931 . S
C760 C757 1.405 . S
C760 C762 1.403 . S
C760 C766 1.439 1_545 S
C761 N758 1.319 . S
C761 C759 1.397 . S
C761 H772 0.930 . S
C762 C759 1.367 . S
C762 C760 1.403 . S
C762 H783 0.929 1_545 S
C763 C764 1.433 1_565 S
C763 C765 1.384 . S
C763 C769 1.404 . S
C764 C757 1.448 . S
C764 C763 1.433 1_545 S
C764 N768 1.351 . S
C765 C763 1.384 . S
C765 C766 1.374 . S
C765 H780 0.931 . S
C766 C760 1.439 1_565 S
C766 C765 1.374 . S
C766 H781 0.931 . S
Eu767 N758 2.600 . S
Eu767 N768 2.562 . S
Eu767 O802 2.335 . S
Eu767 O805 2.372 . S
Eu767 O806 2.462 . S
Eu767 O807 2.373 . S
Eu767 O809 2.432 . S
Eu767 O810 2.291 . S
Eu767 C831 2.787 . S
N768 C764 1.351 . S
N768 Eu767 2.562 . S
N768 C770 1.325 . S
C769 C763 1.404 . S
C769 C771 1.366 1_565 S
C769 H777 0.930 . S
C770 N768 1.325 . S
C770 C771 1.416 . S
C770 H776 0.929 . S
C771 C769 1.366 1_545 S
C771 C770 1.416 . S
C771 H773 0.930 . S
H772 C761 0.930 . S
H773 C771 0.930 . S
H774 C789 0.930 . S
H775 C796 0.930 . S
H776 C770 0.929 . S
H777 C769 0.930 . S
H778 C792 0.929 . S
H779 C759 0.931 . S
H780 C765 0.931 . S
H781 C766 0.931 . S
H782 C787 0.931 . S
H783 C762 0.929 1_565 S
H784 C795 0.930 . S
N785 Eu756 2.600 . S
N785 C786 1.365 . S
N785 C789 1.319 . S
C786 N785 1.365 . S
C786 C788 1.405 . S
C786 C794 1.448 . S
C787 H782 0.931 . S
C787 C789 1.397 . S
C787 C790 1.367 . S
C788 C786 1.405 . S
C788 C790 1.403 . S
C788 C821 1.439 . S
C789 H774 0.930 . S
C789 N785 1.319 . S
C789 C787 1.397 . S
C790 C787 1.367 . S
C790 C788 1.403 . S
C790 H797 0.929 . S
N791 Eu756 2.562 . S
N791 C792 1.325 . S
N791 C794 1.351 . S
C792 H778 0.929 . S
C792 N791 1.325 . S
C792 C796 1.416 . S
C793 C794 1.430 . S
C793 C795 1.404 . S
C793 C822 1.387 . S
C794 C786 1.448 . S
C794 N791 1.351 . S
C794 C793 1.430 . S
C795 H784 0.930 . S
C795 C793 1.404 . S
C795 C796 1.366 . S
C796 H775 0.930 . S
C796 C792 1.416 . S
C796 C795 1.366 . S
H797 C790 0.929 . S
H798 C821 0.931 . S
H799 C822 0.931 . S
O800 Eu756 2.462 . S
O800 C820 1.252 . S
O801 Eu756 2.373 . S
O801 C812 1.249 . S
O802 Eu767 2.335 . S
O802 C812 1.264 . S
O803 Eu756 2.432 . S
O803 C820 1.268 . S
O804 Eu756 2.291 . S
O804 C819 1.255 . S
O805 Eu767 2.372 . S
O805 C819 1.257 . S
O806 Eu767 2.462 . S
O806 C831 1.252 . S
O807 Eu767 2.373 . S
O807 C823 1.249 . S
O808 Eu756 2.335 . S
O808 C823 1.264 . S
O809 Eu767 2.432 . S
O809 C831 1.268 . S
O810 Eu767 2.291 . S
O810 C830 1.255 . S
O811 Eu756 2.372 . S
O811 C830 1.257 . S
C812 O801 1.249 . S
C812 O802 1.264 . S
C813 C816 1.382 . S
C813 C818 1.390 . S
C813 C820 1.506 . S
C814 C815 1.398 . S
C814 C818 1.392 1_556 S
C815 C814 1.398 . S
C815 C817 1.372 . S
C815 H832 0.931 . S
C816 C813 1.382 . S
C816 C817 1.390 1_554 S
C816 H833 0.931 . S
C817 C815 1.372 . S
C817 C816 1.390 1_556 S
C817 H834 0.929 . S
C818 C813 1.390 . S
C818 C814 1.392 1_554 S
C818 H835 0.930 . S
C819 O804 1.255 . S
C819 O805 1.257 . S
C820 Eu756 2.787 . S
C820 O800 1.252 . S
C820 O803 1.268 . S
C820 C813 1.506 . S
C821 C788 1.439 . S
C821 H798 0.931 . S
C821 C822 1.374 . S
C822 C793 1.387 . S
C822 H799 0.931 . S
C822 C821 1.374 . S
C823 O807 1.249 . S
C823 O808 1.264 . S
C824 C827 1.382 . S
C824 C828 1.390 . S
C824 C831 1.506 . S
C825 C826 1.398 . S
C825 C828 1.392 . S
C826 C825 1.398 . S
C826 C829 1.372 . S
C826 H836 0.931 . S
C827 C824 1.382 . S
C827 C829 1.390 . S
C827 H837 0.931 . S
C828 C824 1.390 . S
C828 C825 1.392 . S
C828 H838 0.930 . S
C829 C826 1.372 . S
C829 C827 1.390 . S
C829 H839 0.929 . S
C830 O810 1.255 . S
C830 O811 1.257 . S
C831 Eu767 2.787 . S
C831 O806 1.252 . S
C831 O809 1.268 . S
C831 C824 1.506 . S
H832 C815 0.931 . S
H833 C816 0.931 . S
H834 C817 0.929 . S
H835 C818 0.930 . S
H836 C826 0.931 . S
H837 C827 0.931 . S
H838 C828 0.930 . S
H839 C829 0.929 . S
Eu840 N869 2.600 . S
Eu840 N875 2.562 . S
Eu840 O884 2.462 . S
Eu840 O885 2.373 . S
Eu840 O887 2.432 . S
Eu840 O888 2.291 . S
Eu840 O892 2.335 . S
Eu840 O895 2.372 . S
Eu840 C904 2.787 . S
C841 N842 1.365 . S
C841 C844 1.405 . S
C841 C848 1.448 . S
N842 C841 1.365 . S
N842 C845 1.319 . S
N842 Eu851 2.600 . S
C843 C845 1.397 . S
C843 C846 1.367 . S
C843 H863 0.931 . S
C844 C841 1.405 . S
C844 C846 1.403 . S
C844 C850 1.439 . S
C845 N842 1.319 . S
C845 C843 1.397 . S
C845 H856 0.930 . S
C846 C843 1.367 . S
C846 C844 1.403 . S
C846 H867 0.929 . S
C847 C848 1.430 . S
C847 C849 1.387 . S
C847 C853 1.404 . S
C848 C841 1.448 . S
C848 C847 1.430 . S
C848 N852 1.351 . S
C849 C847 1.387 . S
C849 C850 1.374 . S
C849 H864 0.931 . S
C850 C844 1.439 . S
C850 C849 1.374 . S
C850 H865 0.931 . S
Eu851 N842 2.600 . S
Eu851 N852 2.562 . S
Eu851 O886 2.335 . S
Eu851 O889 2.372 . S
Eu851 O890 2.462 . S
Eu851 O891 2.373 . S
Eu851 O893 2.432 . S
Eu851 O894 2.291 . S
Eu851 C915 2.787 . S
N852 C848 1.351 . S
N852 Eu851 2.562 . S
N852 C854 1.325 . S
C853 C847 1.404 . S
C853 C855 1.366 . S
C853 H861 0.930 . S
C854 N852 1.325 . S
C854 C855 1.416 . S
C854 H860 0.929 . S
C855 C853 1.366 . S
C855 C854 1.416 . S
C855 H857 0.930 . S
H856 C845 0.930 . S
H857 C855 0.930 . S
H858 C873 0.930 . S
H859 C880 0.930 . S
H860 C854 0.929 . S
H861 C853 0.930 . S
H862 C876 0.929 . S
H863 C843 0.931 . S
H864 C849 0.931 . S
H865 C850 0.931 . S
H866 C871 0.931 . S
H867 C846 0.929 . S
H868 C879 0.930 . S
N869 Eu840 2.600 . S
N869 C870 1.365 . S
N869 C873 1.319 . S
C870 N869 1.365 . S
C870 C872 1.405 . S
C870 C878 1.448 . S
C871 H866 0.931 . S
C871 C873 1.397 . S
C871 C874 1.367 . S
C872 C870 1.405 . S
C872 C874 1.403 . S
C872 C905 1.439 1_455 S
C873 H858 0.930 . S
C873 N869 1.319 . S
C873 C871 1.397 . S
C874 C871 1.367 . S
C874 C872 1.403 . S
C874 H881 0.929 1_455 S
N875 Eu840 2.562 . S
N875 C876 1.325 . S
N875 C878 1.351 . S
C876 H862 0.929 . S
C876 N875 1.325 . S
C876 C880 1.416 . S
C877 C878 1.433 1_655 S
C877 C879 1.404 . S
C877 C906 1.384 . S
C878 C870 1.448 . S
C878 N875 1.351 . S
C878 C877 1.433 1_455 S
C879 H868 0.930 . S
C879 C877 1.404 . S
C879 C880 1.366 1_655 S
C880 H859 0.930 . S
C880 C876 1.416 . S
C880 C879 1.366 1_455 S
H881 C874 0.929 1_655 S
H882 C905 0.931 . S
H883 C906 0.931 . S
O884 Eu840 2.462 . S
O884 C904 1.252 . S
O885 Eu840 2.373 . S
O885 C896 1.249 . S
O886 Eu851 2.335 . S
O886 C896 1.264 . S
O887 Eu840 2.432 . S
O887 C904 1.268 . S
O888 Eu840 2.291 . S
O888 C903 1.255 . S
O889 Eu851 2.372 . S
O889 C903 1.257 . S
O890 Eu851 2.462 . S
O890 C915 1.252 . S
O891 Eu851 2.373 . S
O891 C907 1.249 . S
O892 Eu840 2.335 . S
O892 C907 1.264 . S
O893 Eu851 2.432 . S
O893 C915 1.268 . S
O894 Eu851 2.291 . S
O894 C914 1.255 . S
O895 Eu840 2.372 . S
O895 C914 1.257 . S
C896 O885 1.249 . S
C896 O886 1.264 . S
C897 C900 1.382 . S
C897 C902 1.390 . S
C897 C904 1.506 . S
C898 C899 1.398 . S
C898 C902 1.392 . S
C899 C898 1.398 . S
C899 C901 1.372 . S
C899 H916 0.931 . S
C900 C897 1.382 . S
C900 C901 1.390 . S
C900 H917 0.931 . S
C901 C899 1.372 . S
C901 C900 1.390 . S
C901 H918 0.929 . S
C902 C897 1.390 . S
C902 C898 1.392 . S
C902 H919 0.930 . S
C903 O888 1.255 . S
C903 O889 1.257 . S
C904 Eu840 2.787 . S
C904 O884 1.252 . S
C904 O887 1.268 . S
C904 C897 1.506 . S
C905 C872 1.439 1_655 S
C905 H882 0.931 . S
C905 C906 1.374 . S
C906 C877 1.384 . S
C906 H883 0.931 . S
C906 C905 1.374 . S
C907 O891 1.249 . S
C907 O892 1.264 . S
C908 C911 1.382 . S
C908 C912 1.390 . S
C908 C915 1.506 . S
C909 C910 1.398 . S
C909 C912 1.392 1_554 S
C910 C909 1.398 . S
C910 C913 1.372 . S
C910 H920 0.931 . S
C911 C908 1.382 . S
C911 C913 1.390 1_556 S
C911 H921 0.931 . S
C912 C908 1.390 . S
C912 C909 1.392 1_556 S
C912 H922 0.930 . S
C913 C910 1.372 . S
C913 C911 1.390 1_554 S
C913 H923 0.929 . S
C914 O894 1.255 . S
C914 O895 1.257 . S
C915 Eu851 2.787 . S
C915 O890 1.252 . S
C915 O893 1.268 . S
C915 C908 1.506 . S
H916 C899 0.931 . S
H917 C900 0.931 . S
H918 C901 0.929 . S
H919 C902 0.930 . S
H920 C910 0.931 . S
H921 C911 0.931 . S
H922 C912 0.930 . S
H923 C913 0.929 . S
Eu924 N953 2.600 . S
Eu924 N959 2.562 . S
Eu924 O968 2.462 . S
Eu924 O969 2.373 . S
Eu924 O971 2.432 . S
Eu924 O972 2.291 . S
Eu924 O976 2.335 . S
Eu924 O979 2.372 . S
Eu924 C988 2.787 . S
C925 N926 1.365 . S
C925 C928 1.405 . S
C925 C932 1.448 . S
N926 C925 1.365 . S
N926 C929 1.319 . S
N926 Eu935 2.600 . S
C927 C929 1.397 . S
C927 C930 1.367 . S
C927 H947 0.931 . S
C928 C925 1.405 . S
C928 C930 1.403 . S
C928 C934 1.439 1_565 S
C929 N926 1.319 . S
C929 C927 1.397 . S
C929 H940 0.930 . S
C930 C927 1.367 . S
C930 C928 1.403 . S
C930 H951 0.929 1_565 S
C931 C932 1.433 1_545 S
C931 C933 1.384 . S
C931 C937 1.404 . S
C932 C925 1.448 . S
C932 C931 1.433 1_565 S
C932 N936 1.351 . S
C933 C931 1.384 . S
C933 C934 1.374 . S
C933 H948 0.931 . S
C934 C928 1.439 1_545 S
C934 C933 1.374 . S
C934 H949 0.931 . S
Eu935 N926 2.600 . S
Eu935 N936 2.562 . S
Eu935 O970 2.335 . S
Eu935 O973 2.372 . S
Eu935 O974 2.462 . S
Eu935 O975 2.373 . S
Eu935 O977 2.432 . S
Eu935 O978 2.291 . S
Eu935 C999 2.787 . S
N936 C932 1.351 . S
N936 Eu935 2.562 . S
N936 C938 1.325 . S
C937 C931 1.404 . S
C937 C939 1.366 1_545 S
C937 H945 0.930 . S
C938 N936 1.325 . S
C938 C939 1.416 . S
C938 H944 0.929 . S
C939 C937 1.366 1_565 S
C939 C938 1.416 . S
C939 H941 0.930 . S
H940 C929 0.930 . S
H941 C939 0.930 . S
H942 C957 0.930 . S
H943 C964 0.930 . S
H944 C938 0.929 . S
H945 C937 0.930 . S
H946 C960 0.929 . S
H947 C927 0.931 . S
H948 C933 0.931 . S
H949 C934 0.931 . S
H950 C955 0.931 . S
H951 C930 0.929 1_545 S
H952 C963 0.930 . S
N953 Eu924 2.600 . S
N953 C954 1.365 . S
N953 C957 1.319 . S
C954 N953 1.365 . S
C954 C956 1.405 . S
C954 C962 1.448 . S
C955 H950 0.931 . S
C955 C957 1.397 . S
C955 C958 1.367 . S
C956 C954 1.405 . S
C956 C958 1.403 . S
C956 C989 1.439 . S
C957 H942 0.930 . S
C957 N953 1.319 . S
C957 C955 1.397 . S
C958 C955 1.367 . S
C958 C956 1.403 . S
C958 H965 0.929 . S
N959 Eu924 2.562 . S
N959 C960 1.325 . S
N959 C962 1.351 . S
C960 H946 0.929 . S
C960 N959 1.325 . S
C960 C964 1.416 . S
C961 C962 1.430 . S
C961 C963 1.404 . S
C961 C990 1.387 . S
C962 C954 1.448 . S
C962 N959 1.351 . S
C962 C961 1.430 . S
C963 H952 0.930 . S
C963 C961 1.404 . S
C963 C964 1.366 . S
C964 H943 0.930 . S
C964 C960 1.416 . S
C964 C963 1.366 . S
H965 C958 0.929 . S
H966 C989 0.931 . S
H967 C990 0.931 . S
O968 Eu924 2.462 . S
O968 C988 1.252 . S
O969 Eu924 2.373 . S
O969 C980 1.249 . S
O970 Eu935 2.335 . S
O970 C980 1.264 . S
O971 Eu924 2.432 . S
O971 C988 1.268 . S
O972 Eu924 2.291 . S
O972 C987 1.255 . S
O973 Eu935 2.372 . S
O973 C987 1.257 . S
O974 Eu935 2.462 . S
O974 C999 1.252 . S
O975 Eu935 2.373 . S
O975 C991 1.249 . S
O976 Eu924 2.335 . S
O976 C991 1.264 . S
O977 Eu935 2.432 . S
O977 C999 1.268 . S
O978 Eu935 2.291 . S
O978 C998 1.255 . S
O979 Eu924 2.372 . S
O979 C998 1.257 . S
C980 O969 1.249 . S
C980 O970 1.264 . S
C981 C984 1.382 . S
C981 C986 1.390 . S
C981 C988 1.506 . S
C982 C983 1.398 . S
C982 C986 1.392 1_556 S
C983 C982 1.398 . S
C983 C985 1.372 . S
C983 H1000 0.931 . S
C984 C981 1.382 . S
C984 C985 1.390 1_554 S
C984 H1001 0.931 . S
C985 C983 1.372 . S
C985 C984 1.390 1_556 S
C985 H1002 0.929 . S
C986 C981 1.390 . S
C986 C982 1.392 1_554 S
C986 H1003 0.930 . S
C987 O972 1.255 . S
C987 O973 1.257 . S
C988 Eu924 2.787 . S
C988 O968 1.252 . S
C988 O971 1.268 . S
C988 C981 1.506 . S
C989 C956 1.439 . S
C989 H966 0.931 . S
C989 C990 1.374 . S
C990 C961 1.387 . S
C990 H967 0.931 . S
C990 C989 1.374 . S
C991 O975 1.249 . S
C991 O976 1.264 . S
C992 C995 1.382 . S
C992 C996 1.390 . S
C992 C999 1.506 . S
C993 C994 1.398 . S
C993 C996 1.392 . S
C994 C993 1.398 . S
C994 C997 1.372 . S
C994 H1004 0.931 . S
C995 C992 1.382 . S
C995 C997 1.390 . S
C995 H1005 0.931 . S
C996 C992 1.390 . S
C996 C993 1.392 . S
C996 H1006 0.930 . S
C997 C994 1.372 . S
C997 C995 1.390 . S
C997 H1007 0.929 . S
C998 O978 1.255 . S
C998 O979 1.257 . S
C999 Eu935 2.787 . S
C999 O974 1.252 . S
C999 O977 1.268 . S
C999 C992 1.506 . S
H1000 C983 0.931 . S
H1001 C984 0.931 . S
H1002 C985 0.929 . S
H1003 C986 0.930 . S
H1004 C994 0.931 . S
H1005 C995 0.931 . S
H1006 C996 0.930 . S
H1007 C997 0.929 . S
Eu1008 N1037 2.600 . S
Eu1008 N1043 2.562 . S
Eu1008 O1052 2.462 . S
Eu1008 O1053 2.373 . S
Eu1008 O1055 2.432 . S
Eu1008 O1056 2.291 . S
Eu1008 O1060 2.335 . S
Eu1008 O1063 2.372 . S
Eu1008 C1072 2.787 . S
C1009 N1010 1.365 . S
C1009 C1012 1.405 . S
C1009 C1016 1.448 . S
N1010 C1009 1.365 . S
N1010 C1013 1.319 . S
N1010 Eu1019 2.600 . S
C1011 C1013 1.397 . S
C1011 C1014 1.367 . S
C1011 H1031 0.931 . S
C1012 C1009 1.405 . S
C1012 C1014 1.403 . S
C1012 C1018 1.439 . S
C1013 N1010 1.319 . S
C1013 C1011 1.397 . S
C1013 H1024 0.930 . S
C1014 C1011 1.367 . S
C1014 C1012 1.403 . S
C1014 H1035 0.929 . S
C1015 C1016 1.430 . S
C1015 C1017 1.387 . S
C1015 C1021 1.404 . S
C1016 C1009 1.448 . S
C1016 C1015 1.430 . S
C1016 N1020 1.351 . S
C1017 C1015 1.387 . S
C1017 C1018 1.374 . S
C1017 H1032 0.931 . S
C1018 C1012 1.439 . S
C1018 C1017 1.374 . S
C1018 H1033 0.931 . S
Eu1019 N1010 2.600 . S
Eu1019 N1020 2.562 . S
Eu1019 O1054 2.335 . S
Eu1019 O1057 2.372 . S
Eu1019 O1058 2.462 . S
Eu1019 O1059 2.373 . S
Eu1019 O1061 2.432 . S
Eu1019 O1062 2.291 . S
Eu1019 C1083 2.787 . S
N1020 C1016 1.351 . S
N1020 Eu1019 2.562 . S
N1020 C1022 1.325 . S
C1021 C1015 1.404 . S
C1021 C1023 1.366 . S
C1021 H1029 0.930 . S
C1022 N1020 1.325 . S
C1022 C1023 1.416 . S
C1022 H1028 0.929 . S
C1023 C1021 1.366 . S
C1023 C1022 1.416 . S
C1023 H1025 0.930 . S
H1024 C1013 0.930 . S
H1025 C1023 0.930 . S
H1026 C1041 0.930 . S
H1027 C1048 0.930 . S
H1028 C1022 0.929 . S
H1029 C1021 0.930 . S
H1030 C1044 0.929 . S
H1031 C1011 0.931 . S
H1032 C1017 0.931 . S
H1033 C1018 0.931 . S
H1034 C1039 0.931 . S
H1035 C1014 0.929 . S
H1036 C1047 0.930 . S
N1037 Eu1008 2.600 . S
N1037 C1038 1.365 . S
N1037 C1041 1.319 . S
C1038 N1037 1.365 . S
C1038 C1040 1.405 . S
C1038 C1046 1.448 . S
C1039 H1034 0.931 . S
C1039 C1041 1.397 1_545 S
C1039 C1042 1.367 1_545 S
C1040 C1038 1.405 . S
C1040 C1042 1.403 . S
C1040 C1073 1.439 1_655 S
C1041 H1026 0.930 . S
C1041 N1037 1.319 . S
C1041 C1039 1.397 1_565 S
C1042 C1039 1.367 1_565 S
C1042 C1040 1.403 . S
C1042 H1049 0.929 1_665 S
N1043 Eu1008 2.562 . S
N1043 C1044 1.325 . S
N1043 C1046 1.351 . S
C1044 H1030 0.929 . S
C1044 N1043 1.325 . S
C1044 C1048 1.416 . S
C1045 C1046 1.433 1_455 S
C1045 C1047 1.404 . S
C1045 C1074 1.384 . S
C1046 C1038 1.448 . S
C1046 N1043 1.351 . S
C1046 C1045 1.433 1_655 S
C1047 H1036 0.930 . S
C1047 C1045 1.404 . S
C1047 C1048 1.366 1_455 S
C1048 H1027 0.930 . S
C1048 C1044 1.416 . S
C1048 C1047 1.366 1_655 S
H1049 C1042 0.929 1_445 S
H1050 C1073 0.931 . S
H1051 C1074 0.931 . S
O1052 Eu1008 2.462 . S
O1052 C1072 1.252 . S
O1053 Eu1008 2.373 . S
O1053 C1064 1.249 . S
O1054 Eu1019 2.335 . S
O1054 C1064 1.264 . S
O1055 Eu1008 2.432 . S
O1055 C1072 1.268 . S
O1056 Eu1008 2.291 . S
O1056 C1071 1.255 . S
O1057 Eu1019 2.372 . S
O1057 C1071 1.257 . S
O1058 Eu1019 2.462 . S
O1058 C1083 1.252 . S
O1059 Eu1019 2.373 . S
O1059 C1075 1.249 . S
O1060 Eu1008 2.335 . S
O1060 C1075 1.264 . S
O1061 Eu1019 2.432 . S
O1061 C1083 1.268 . S
O1062 Eu1019 2.291 . S
O1062 C1082 1.255 . S
O1063 Eu1008 2.372 . S
O1063 C1082 1.257 . S
C1064 O1053 1.249 . S
C1064 O1054 1.264 . S
C1065 C1068 1.382 . S
C1065 C1070 1.390 . S
C1065 C1072 1.506 . S
C1066 C1067 1.398 . S
C1066 C1070 1.392 1_554 S
C1067 C1066 1.398 . S
C1067 C1069 1.372 . S
C1067 H1084 0.931 . S
C1068 C1065 1.382 . S
C1068 C1069 1.390 1_556 S
C1068 H1085 0.931 . S
C1069 C1067 1.372 . S
C1069 C1068 1.390 1_554 S
C1069 H1086 0.929 . S
C1070 C1065 1.390 . S
C1070 C1066 1.392 1_556 S
C1070 H1087 0.930 . S
C1071 O1056 1.255 . S
C1071 O1057 1.257 . S
C1072 Eu1008 2.787 . S
C1072 O1052 1.252 . S
C1072 O1055 1.268 . S
C1072 C1065 1.506 . S
C1073 C1040 1.439 1_455 S
C1073 H1050 0.931 . S
C1073 C1074 1.374 . S
C1074 C1045 1.384 . S
C1074 H1051 0.931 . S
C1074 C1073 1.374 . S
C1075 O1059 1.249 . S
C1075 O1060 1.264 . S
C1076 C1079 1.382 . S
C1076 C1080 1.390 . S
C1076 C1083 1.506 . S
C1077 C1078 1.398 . S
C1077 C1080 1.392 . S
C1078 C1077 1.398 . S
C1078 C1081 1.372 . S
C1078 H1088 0.931 . S
C1079 C1076 1.382 . S
C1079 C1081 1.390 . S
C1079 H1089 0.931 . S
C1080 C1076 1.390 . S
C1080 C1077 1.392 . S
C1080 H1090 0.930 . S
C1081 C1078 1.372 . S
C1081 C1079 1.390 . S
C1081 H1091 0.929 . S
C1082 O1062 1.255 . S
C1082 O1063 1.257 . S
C1083 Eu1019 2.787 . S
C1083 O1058 1.252 . S
C1083 O1061 1.268 . S
C1083 C1076 1.506 . S
H1084 C1067 0.931 . S
H1085 C1068 0.931 . S
H1086 C1069 0.929 . S
H1087 C1070 0.930 . S
H1088 C1078 0.931 . S
H1089 C1079 0.931 . S
H1090 C1080 0.930 . S
H1091 C1081 0.929 . S
Eu1092 N1121 2.600 . S
Eu1092 N1127 2.562 . S
Eu1092 O1136 2.462 . S
Eu1092 O1137 2.373 . S
Eu1092 O1139 2.432 . S
Eu1092 O1140 2.291 . S
Eu1092 O1144 2.335 . S
Eu1092 O1147 2.372 . S
Eu1092 C1156 2.787 . S
C1093 N1094 1.365 . S
C1093 C1096 1.405 . S
C1093 C1100 1.448 . S
N1094 C1093 1.365 . S
N1094 C1097 1.319 . S
N1094 Eu1103 2.600 . S
C1095 C1097 1.397 1_455 S
C1095 C1098 1.367 1_455 S
C1095 H1115 0.931 . S
C1096 C1093 1.405 . S
C1096 C1098 1.403 . S
C1096 C1102 1.439 1_545 S
C1097 N1094 1.319 . S
C1097 C1095 1.397 1_655 S
C1097 H1108 0.930 . S
C1098 C1095 1.367 1_655 S
C1098 C1096 1.403 . S
C1098 H1119 0.929 1_645 S
C1099 C1100 1.433 1_565 S
C1099 C1101 1.384 . S
C1099 C1105 1.404 . S
C1100 C1093 1.448 . S
C1100 C1099 1.433 1_545 S
C1100 N1104 1.351 . S
C1101 C1099 1.384 . S
C1101 C1102 1.374 . S
C1101 H1116 0.931 . S
C1102 C1096 1.439 1_565 S
C1102 C1101 1.374 . S
C1102 H1117 0.931 . S
Eu1103 N1094 2.600 . S
Eu1103 N1104 2.562 . S
Eu1103 O1138 2.335 . S
Eu1103 O1141 2.372 . S
Eu1103 O1142 2.462 . S
Eu1103 O1143 2.373 . S
Eu1103 O1145 2.432 . S
Eu1103 O1146 2.291 . S
Eu1103 C1167 2.787 . S
N1104 C1100 1.351 . S
N1104 Eu1103 2.562 . S
N1104 C1106 1.325 . S
C1105 C1099 1.404 . S
C1105 C1107 1.366 1_565 S
C1105 H1113 0.930 . S
C1106 N1104 1.325 . S
C1106 C1107 1.416 . S
C1106 H1112 0.929 . S
C1107 C1105 1.366 1_545 S
C1107 C1106 1.416 . S
C1107 H1109 0.930 . S
H1108 C1097 0.930 . S
H1109 C1107 0.930 . S
H1110 C1125 0.930 . S
H1111 C1132 0.930 . S
H1112 C1106 0.929 . S
H1113 C1105 0.930 . S
H1114 C1128 0.929 . S
H1115 C1095 0.931 . S
H1116 C1101 0.931 . S
H1117 C1102 0.931 . S
H1118 C1123 0.931 . S
H1119 C1098 0.929 1_465 S
H1120 C1131 0.930 . S
N1121 Eu1092 2.600 . S
N1121 C1122 1.365 . S
N1121 C1125 1.319 . S
C1122 N1121 1.365 . S
C1122 C1124 1.405 . S
C1122 C1130 1.448 . S
C1123 H1118 0.931 . S
C1123 C1125 1.397 . S
C1123 C1126 1.367 . S
C1124 C1122 1.405 . S
C1124 C1126 1.403 . S
C1124 C1157 1.439 . S
C1125 H1110 0.930 . S
C1125 N1121 1.319 . S
C1125 C1123 1.397 . S
C1126 C1123 1.367 . S
C1126 C1124 1.403 . S
C1126 H1133 0.929 . S
N1127 Eu1092 2.562 . S
N1127 C1128 1.325 . S
N1127 C1130 1.351 . S
C1128 H1114 0.929 . S
C1128 N1127 1.325 . S
C1128 C1132 1.416 . S
C1129 C1130 1.430 . S
C1129 C1131 1.404 . S
C1129 C1158 1.387 . S
C1130 C1122 1.448 . S
C1130 N1127 1.351 . S
C1130 C1129 1.430 . S
C1131 H1120 0.930 . S
C1131 C1129 1.404 . S
C1131 C1132 1.366 . S
C1132 H1111 0.930 . S
C1132 C1128 1.416 . S
C1132 C1131 1.366 . S
H1133 C1126 0.929 . S
H1134 C1157 0.931 . S
H1135 C1158 0.931 . S
O1136 Eu1092 2.462 . S
O1136 C1156 1.252 . S
O1137 Eu1092 2.373 . S
O1137 C1148 1.249 . S
O1138 Eu1103 2.335 . S
O1138 C1148 1.264 . S
O1139 Eu1092 2.432 . S
O1139 C1156 1.268 . S
O1140 Eu1092 2.291 . S
O1140 C1155 1.255 . S
O1141 Eu1103 2.372 . S
O1141 C1155 1.257 . S
O1142 Eu1103 2.462 . S
O1142 C1167 1.252 . S
O1143 Eu1103 2.373 . S
O1143 C1159 1.249 . S
O1144 Eu1092 2.335 . S
O1144 C1159 1.264 . S
O1145 Eu1103 2.432 . S
O1145 C1167 1.268 . S
O1146 Eu1103 2.291 . S
O1146 C1166 1.255 . S
O1147 Eu1092 2.372 . S
O1147 C1166 1.257 . S
C1148 O1137 1.249 . S
C1148 O1138 1.264 . S
C1149 C1152 1.382 . S
C1149 C1154 1.390 . S
C1149 C1156 1.506 . S
C1150 C1151 1.398 . S
C1150 C1154 1.392 . S
C1151 C1150 1.398 . S
C1151 C1153 1.372 . S
C1151 H1168 0.931 . S
C1152 C1149 1.382 . S
C1152 C1153 1.390 . S
C1152 H1169 0.931 . S
C1153 C1151 1.372 . S
C1153 C1152 1.390 . S
C1153 H1170 0.929 . S
C1154 C1149 1.390 . S
C1154 C1150 1.392 . S
C1154 H1171 0.930 . S
C1155 O1140 1.255 . S
C1155 O1141 1.257 . S
C1156 Eu1092 2.787 . S
C1156 O1136 1.252 . S
C1156 O1139 1.268 . S
C1156 C1149 1.506 . S
C1157 C1124 1.439 . S
C1157 H1134 0.931 . S
C1157 C1158 1.374 . S
C1158 C1129 1.387 . S
C1158 H1135 0.931 . S
C1158 C1157 1.374 . S
C1159 O1143 1.249 . S
C1159 O1144 1.264 . S
C1160 C1163 1.382 . S
C1160 C1164 1.390 . S
C1160 C1167 1.506 . S
C1161 C1162 1.398 . S
C1161 C1164 1.392 1_556 S
C1162 C1161 1.398 . S
C1162 C1165 1.372 . S
C1162 H1172 0.931 . S
C1163 C1160 1.382 . S
C1163 C1165 1.390 1_554 S
C1163 H1173 0.931 . S
C1164 C1160 1.390 . S
C1164 C1161 1.392 1_554 S
C1164 H1174 0.930 . S
C1165 C1162 1.372 . S
C1165 C1163 1.390 1_556 S
C1165 H1175 0.929 . S
C1166 O1146 1.255 . S
C1166 O1147 1.257 . S
C1167 Eu1103 2.787 . S
C1167 O1142 1.252 . S
C1167 O1145 1.268 . S
C1167 C1160 1.506 . S
H1168 C1151 0.931 . S
H1169 C1152 0.931 . S
H1170 C1153 0.929 . S
H1171 C1154 0.930 . S
H1172 C1162 0.931 . S
H1173 C1163 0.931 . S
H1174 C1164 0.930 . S
H1175 C1165 0.929 . S
Eu1176 N1205 2.600 . S
Eu1176 N1211 2.562 . S
Eu1176 O1220 2.462 . S
Eu1176 O1221 2.373 . S
Eu1176 O1223 2.432 . S
Eu1176 O1224 2.291 . S
Eu1176 O1228 2.335 . S
Eu1176 O1231 2.372 . S
Eu1176 C1240 2.787 . S
C1177 N1178 1.365 . S
C1177 C1180 1.405 . S
C1177 C1184 1.448 . S
N1178 C1177 1.365 . S
N1178 C1181 1.319 . S
N1178 Eu1187 2.600 . S
C1179 C1181 1.397 . S
C1179 C1182 1.367 . S
C1179 H1199 0.931 . S
C1180 C1177 1.405 . S
C1180 C1182 1.403 . S
C1180 C1186 1.439 . S
C1181 N1178 1.319 . S
C1181 C1179 1.397 . S
C1181 H1192 0.930 . S
C1182 C1179 1.367 . S
C1182 C1180 1.403 . S
C1182 H1203 0.929 . S
C1183 C1184 1.430 . S
C1183 C1185 1.387 . S
C1183 C1189 1.404 . S
C1184 C1177 1.448 . S
C1184 C1183 1.430 . S
C1184 N1188 1.351 . S
C1185 C1183 1.387 . S
C1185 C1186 1.374 . S
C1185 H1200 0.931 . S
C1186 C1180 1.439 . S
C1186 C1185 1.374 . S
C1186 H1201 0.931 . S
Eu1187 N1178 2.600 . S
Eu1187 N1188 2.562 . S
Eu1187 O1222 2.335 . S
Eu1187 O1225 2.372 . S
Eu1187 O1226 2.462 . S
Eu1187 O1227 2.373 . S
Eu1187 O1229 2.432 . S
Eu1187 O1230 2.291 . S
Eu1187 C1251 2.787 . S
N1188 C1184 1.351 . S
N1188 Eu1187 2.562 . S
N1188 C1190 1.325 . S
C1189 C1183 1.404 . S
C1189 C1191 1.366 . S
C1189 H1197 0.930 . S
C1190 N1188 1.325 . S
C1190 C1191 1.416 . S
C1190 H1196 0.929 . S
C1191 C1189 1.366 . S
C1191 C1190 1.416 . S
C1191 H1193 0.930 . S
H1192 C1181 0.930 . S
H1193 C1191 0.930 . S
H1194 C1209 0.930 . S
H1195 C1216 0.930 . S
H1196 C1190 0.929 . S
H1197 C1189 0.930 . S
H1198 C1212 0.929 . S
H1199 C1179 0.931 . S
H1200 C1185 0.931 . S
H1201 C1186 0.931 . S
H1202 C1207 0.931 . S
H1203 C1182 0.929 . S
H1204 C1215 0.930 . S
N1205 Eu1176 2.600 . S
N1205 C1206 1.365 . S
N1205 C1209 1.319 . S
C1206 N1205 1.365 . S
C1206 C1208 1.405 . S
C1206 C1214 1.448 . S
C1207 H1202 0.931 . S
C1207 C1209 1.397 1_565 S
C1207 C1210 1.367 1_565 S
C1208 C1206 1.405 . S
C1208 C1210 1.403 . S
C1208 C1241 1.439 1_455 S
C1209 H1194 0.930 . S
C1209 N1205 1.319 . S
C1209 C1207 1.397 1_545 S
C1210 C1207 1.367 1_545 S
C1210 C1208 1.403 . S
C1210 H1217 0.929 1_445 S
N1211 Eu1176 2.562 . S
N1211 C1212 1.325 . S
N1211 C1214 1.351 . S
C1212 H1198 0.929 . S
C1212 N1211 1.325 . S
C1212 C1216 1.416 . S
C1213 C1214 1.433 1_655 S
C1213 C1215 1.404 . S
C1213 C1242 1.384 . S
C1214 C1206 1.448 . S
C1214 N1211 1.351 . S
C1214 C1213 1.433 1_455 S
C1215 H1204 0.930 . S
C1215 C1213 1.404 . S
C1215 C1216 1.366 1_655 S
C1216 H1195 0.930 . S
C1216 C1212 1.416 . S
C1216 C1215 1.366 1_455 S
H1217 C1210 0.929 1_665 S
H1218 C1241 0.931 . S
H1219 C1242 0.931 . S
O1220 Eu1176 2.462 . S
O1220 C1240 1.252 . S
O1221 Eu1176 2.373 . S
O1221 C1232 1.249 . S
O1222 Eu1187 2.335 . S
O1222 C1232 1.264 . S
O1223 Eu1176 2.432 . S
O1223 C1240 1.268 . S
O1224 Eu1176 2.291 . S
O1224 C1239 1.255 . S
O1225 Eu1187 2.372 . S
O1225 C1239 1.257 . S
O1226 Eu1187 2.462 . S
O1226 C1251 1.252 . S
O1227 Eu1187 2.373 . S
O1227 C1243 1.249 . S
O1228 Eu1176 2.335 . S
O1228 C1243 1.264 . S
O1229 Eu1187 2.432 . S
O1229 C1251 1.268 . S
O1230 Eu1187 2.291 . S
O1230 C1250 1.255 . S
O1231 Eu1176 2.372 . S
O1231 C1250 1.257 . S
C1232 O1221 1.249 . S
C1232 O1222 1.264 . S
C1233 C1236 1.382 . S
C1233 C1238 1.390 . S
C1233 C1240 1.506 . S
C1234 C1235 1.398 . S
C1234 C1238 1.392 1_554 S
C1235 C1234 1.398 . S
C1235 C1237 1.372 . S
C1235 H1252 0.931 . S
C1236 C1233 1.382 . S
C1236 C1237 1.390 1_556 S
C1236 H1253 0.931 . S
C1237 C1235 1.372 . S
C1237 C1236 1.390 1_554 S
C1237 H1254 0.929 . S
C1238 C1233 1.390 . S
C1238 C1234 1.392 1_556 S
C1238 H1255 0.930 . S
C1239 O1224 1.255 . S
C1239 O1225 1.257 . S
C1240 Eu1176 2.787 . S
C1240 O1220 1.252 . S
C1240 O1223 1.268 . S
C1240 C1233 1.506 . S
C1241 C1208 1.439 1_655 S
C1241 H1218 0.931 . S
C1241 C1242 1.374 . S
C1242 C1213 1.384 . S
C1242 H1219 0.931 . S
C1242 C1241 1.374 . S
C1243 O1227 1.249 . S
C1243 O1228 1.264 . S
C1244 C1247 1.382 . S
C1244 C1248 1.390 . S
C1244 C1251 1.506 . S
C1245 C1246 1.398 . S
C1245 C1248 1.392 . S
C1246 C1245 1.398 . S
C1246 C1249 1.372 . S
C1246 H1256 0.931 . S
C1247 C1244 1.382 . S
C1247 C1249 1.390 . S
C1247 H1257 0.931 . S
C1248 C1244 1.390 . S
C1248 C1245 1.392 . S
C1248 H1258 0.930 . S
C1249 C1246 1.372 . S
C1249 C1247 1.390 . S
C1249 H1259 0.929 . S
C1250 O1230 1.255 . S
C1250 O1231 1.257 . S
C1251 Eu1187 2.787 . S
C1251 O1226 1.252 . S
C1251 O1229 1.268 . S
C1251 C1244 1.506 . S
H1252 C1235 0.931 . S
H1253 C1236 0.931 . S
H1254 C1237 0.929 . S
H1255 C1238 0.930 . S
H1256 C1246 0.931 . S
H1257 C1247 0.931 . S
H1258 C1248 0.930 . S
H1259 C1249 0.929 . S
Eu1260 N1289 2.600 . S
Eu1260 N1295 2.562 . S
Eu1260 O1304 2.462 . S
Eu1260 O1305 2.373 . S
Eu1260 O1307 2.432 . S
Eu1260 O1308 2.291 . S
Eu1260 O1312 2.335 . S
Eu1260 O1315 2.372 . S
Eu1260 C1324 2.787 . S
C1261 N1262 1.365 . S
C1261 C1264 1.405 . S
C1261 C1268 1.448 . S
N1262 C1261 1.365 . S
N1262 C1265 1.319 . S
N1262 Eu1271 2.600 . S
C1263 C1265 1.397 1_655 S
C1263 C1266 1.367 1_655 S
C1263 H1283 0.931 . S
C1264 C1261 1.405 . S
C1264 C1266 1.403 . S
C1264 C1270 1.439 1_565 S
C1265 N1262 1.319 . S
C1265 C1263 1.397 1_455 S
C1265 H1276 0.930 . S
C1266 C1263 1.367 1_455 S
C1266 C1264 1.403 . S
C1266 H1287 0.929 1_465 S
C1267 C1268 1.433 1_545 S
C1267 C1269 1.384 . S
C1267 C1273 1.404 . S
C1268 C1261 1.448 . S
C1268 C1267 1.433 1_565 S
C1268 N1272 1.351 . S
C1269 C1267 1.384 . S
C1269 C1270 1.374 . S
C1269 H1284 0.931 . S
C1270 C1264 1.439 1_545 S
C1270 C1269 1.374 . S
C1270 H1285 0.931 . S
Eu1271 N1262 2.600 . S
Eu1271 N1272 2.562 . S
Eu1271 O1306 2.335 . S
Eu1271 O1309 2.372 . S
Eu1271 O1310 2.462 . S
Eu1271 O1311 2.373 . S
Eu1271 O1313 2.432 . S
Eu1271 O1314 2.291 . S
Eu1271 C1335 2.787 . S
N1272 C1268 1.351 . S
N1272 Eu1271 2.562 . S
N1272 C1274 1.325 . S
C1273 C1267 1.404 . S
C1273 C1275 1.366 1_545 S
C1273 H1281 0.930 . S
C1274 N1272 1.325 . S
C1274 C1275 1.416 . S
C1274 H1280 0.929 . S
C1275 C1273 1.366 1_565 S
C1275 C1274 1.416 . S
C1275 H1277 0.930 . S
H1276 C1265 0.930 . S
H1277 C1275 0.930 . S
H1278 C1293 0.930 . S
H1279 C1300 0.930 . S
H1280 C1274 0.929 . S
H1281 C1273 0.930 . S
H1282 C1296 0.929 . S
H1283 C1263 0.931 . S
H1284 C1269 0.931 . S
H1285 C1270 0.931 . S
H1286 C1291 0.931 . S
H1287 C1266 0.929 1_645 S
H1288 C1299 0.930 . S
N1289 Eu1260 2.600 . S
N1289 C1290 1.365 . S
N1289 C1293 1.319 . S
C1290 N1289 1.365 . S
C1290 C1292 1.405 . S
C1290 C1298 1.448 . S
C1291 H1286 0.931 . S
C1291 C1293 1.397 . S
C1291 C1294 1.367 . S
C1292 C1290 1.405 . S
C1292 C1294 1.403 . S
C1292 C1325 1.439 . S
C1293 H1278 0.930 . S
C1293 N1289 1.319 . S
C1293 C1291 1.397 . S
C1294 C1291 1.367 . S
C1294 C1292 1.403 . S
C1294 H1301 0.929 . S
N1295 Eu1260 2.562 . S
N1295 C1296 1.325 . S
N1295 C1298 1.351 . S
C1296 H1282 0.929 . S
C1296 N1295 1.325 . S
C1296 C1300 1.416 . S
C1297 C1298 1.430 . S
C1297 C1299 1.404 . S
C1297 C1326 1.387 . S
C1298 C1290 1.448 . S
C1298 N1295 1.351 . S
C1298 C1297 1.430 . S
C1299 H1288 0.930 . S
C1299 C1297 1.404 . S
C1299 C1300 1.366 . S
C1300 H1279 0.930 . S
C1300 C1296 1.416 . S
C1300 C1299 1.366 . S
H1301 C1294 0.929 . S
H1302 C1325 0.931 . S
H1303 C1326 0.931 . S
O1304 Eu1260 2.462 . S
O1304 C1324 1.252 . S
O1305 Eu1260 2.373 . S
O1305 C1316 1.249 . S
O1306 Eu1271 2.335 . S
O1306 C1316 1.264 . S
O1307 Eu1260 2.432 . S
O1307 C1324 1.268 . S
O1308 Eu1260 2.291 . S
O1308 C1323 1.255 . S
O1309 Eu1271 2.372 . S
O1309 C1323 1.257 . S
O1310 Eu1271 2.462 . S
O1310 C1335 1.252 . S
O1311 Eu1271 2.373 . S
O1311 C1327 1.249 . S
O1312 Eu1260 2.335 . S
O1312 C1327 1.264 . S
O1313 Eu1271 2.432 . S
O1313 C1335 1.268 . S
O1314 Eu1271 2.291 . S
O1314 C1334 1.255 . S
O1315 Eu1260 2.372 . S
O1315 C1334 1.257 . S
C1316 O1305 1.249 . S
C1316 O1306 1.264 . S
C1317 C1320 1.382 . S
C1317 C1322 1.390 . S
C1317 C1324 1.506 . S
C1318 C1319 1.398 . S
C1318 C1322 1.392 . S
C1319 C1318 1.398 . S
C1319 C1321 1.372 . S
C1319 H1336 0.931 . S
C1320 C1317 1.382 . S
C1320 C1321 1.390 . S
C1320 H1337 0.931 . S
C1321 C1319 1.372 . S
C1321 C1320 1.390 . S
C1321 H1338 0.929 . S
C1322 C1317 1.390 . S
C1322 C1318 1.392 . S
C1322 H1339 0.930 . S
C1323 O1308 1.255 . S
C1323 O1309 1.257 . S
C1324 Eu1260 2.787 . S
C1324 O1304 1.252 . S
C1324 O1307 1.268 . S
C1324 C1317 1.506 . S
C1325 C1292 1.439 . S
C1325 H1302 0.931 . S
C1325 C1326 1.374 . S
C1326 C1297 1.387 . S
C1326 H1303 0.931 . S
C1326 C1325 1.374 . S
C1327 O1311 1.249 . S
C1327 O1312 1.264 . S
C1328 C1331 1.382 . S
C1328 C1332 1.390 . S
C1328 C1335 1.506 . S
C1329 C1330 1.398 . S
C1329 C1332 1.392 1_556 S
C1330 C1329 1.398 . S
C1330 C1333 1.372 . S
C1330 H1340 0.931 . S
C1331 C1328 1.382 . S
C1331 C1333 1.390 1_554 S
C1331 H1341 0.931 . S
C1332 C1328 1.390 . S
C1332 C1329 1.392 1_554 S
C1332 H1342 0.930 . S
C1333 C1330 1.372 . S
C1333 C1331 1.390 1_556 S
C1333 H1343 0.929 . S
C1334 O1314 1.255 . S
C1334 O1315 1.257 . S
C1335 Eu1271 2.787 . S
C1335 O1310 1.252 . S
C1335 O1313 1.268 . S
C1335 C1328 1.506 . S
H1336 C1319 0.931 . S
H1337 C1320 0.931 . S
H1338 C1321 0.929 . S
H1339 C1322 0.930 . S
H1340 C1330 0.931 . S
H1341 C1331 0.931 . S
H1342 C1332 0.930 . S
H1343 C1333 0.929 . S
C1344 C1345 1.387 . S
C1344 H1348 0.950 . S
C1344 C1353 1.390 . S
C1345 C1344 1.387 . S
C1345 C1347 1.387 . S
H1346 C1353 0.950 . S
C1347 C1345 1.387 . S
C1347 C1349 1.390 . S
C1347 H1351 0.950 . S
H1348 C1344 0.950 . S
C1349 C1347 1.390 . S
C1349 C1350 1.387 . S
C1349 H1352 0.950 1_565 S
C1350 C1349 1.387 . S
C1350 C1353 1.387 . S
H1351 C1347 0.950 . S
H1352 C1349 0.950 1_545 S
C1353 C1344 1.390 . S
C1353 H1346 0.950 . S
C1353 C1350 1.387 . S
C1354 C1355 1.387 . S
C1354 H1358 0.950 . S
C1354 C1363 1.390 . S
C1355 C1354 1.387 . S
C1355 C1357 1.387 . S
H1356 C1363 0.950 . S
C1357 C1355 1.387 . S
C1357 C1359 1.390 . S
C1357 H1361 0.950 . S
H1358 C1354 0.950 . S
C1359 C1357 1.390 . S
C1359 C1360 1.387 . S
C1359 H1362 0.963 . S
C1360 C1359 1.387 . S
C1360 C1363 1.387 . S
H1361 C1357 0.950 . S
H1362 C1359 0.963 . S
C1363 C1354 1.390 . S
C1363 H1356 0.950 . S
C1363 C1360 1.387 . S
C1364 C1365 1.387 . S
C1364 H1368 0.950 . S
C1364 C1373 1.390 . S
C1365 C1364 1.387 . S
C1365 C1367 1.387 . S
H1366 C1373 0.950 . S
C1367 C1365 1.387 . S
C1367 C1369 1.390 . S
C1367 H1371 0.950 1_545 S
H1368 C1364 0.950 . S
C1369 C1367 1.390 . S
C1369 C1370 1.387 . S
C1369 H1372 0.950 . S
C1370 C1369 1.387 . S
C1370 C1373 1.387 . S
H1371 C1367 0.950 1_565 S
H1372 C1369 0.950 . S
C1373 C1364 1.390 . S
C1373 H1366 0.950 . S
C1373 C1370 1.387 . S
C1374 C1375 1.387 . S
C1374 H1378 0.950 . S
C1374 C1383 1.390 . S
C1375 C1374 1.387 . S
C1375 C1377 1.387 . S
H1376 C1383 0.950 . S
C1377 C1375 1.387 . S
C1377 C1379 1.390 . S
C1377 H1381 0.950 1_455 S
H1378 C1374 0.950 . S
C1379 C1377 1.390 . S
C1379 C1380 1.387 . S
C1379 H1382 0.950 . S
C1380 C1379 1.387 . S
C1380 C1383 1.387 . S
H1381 C1377 0.950 1_655 S
H1382 C1379 0.950 . S
C1383 C1374 1.390 . S
C1383 H1376 0.950 . S
C1383 C1380 1.387 . S
C1384 C1385 1.387 . S
C1384 H1388 0.950 . S
C1384 C1393 1.390 . S
C1385 C1384 1.387 . S
C1385 C1387 1.387 1_554 S
H1386 C1393 0.950 . S
C1387 C1385 1.387 1_556 S
C1387 C1389 1.390 . S
C1387 H1391 0.950 . S
H1388 C1384 0.950 . S
C1389 C1387 1.390 . S
C1389 C1390 1.387 . S
C1389 H1392 0.950 . S
C1390 C1389 1.387 . S
C1390 C1393 1.387 1_556 S
H1391 C1387 0.950 . S
H1392 C1389 0.950 . S
C1393 C1384 1.390 . S
C1393 H1386 0.950 . S
C1393 C1390 1.387 1_554 S
C1394 C1395 1.387 . S
C1394 H1398 0.950 . S
C1394 C1403 1.390 . S
C1395 C1394 1.387 . S
C1395 C1397 1.387 1_554 S
H1396 C1403 0.950 . S
C1397 C1395 1.387 1_556 S
C1397 C1399 1.390 . S
C1397 H1401 0.950 . S
H1398 C1394 0.950 . S
C1399 C1397 1.390 . S
C1399 C1400 1.387 . S
C1399 H1402 0.950 . S
C1400 C1399 1.387 . S
C1400 C1403 1.387 1_556 S
H1401 C1397 0.950 . S
H1402 C1399 0.950 . S
C1403 C1394 1.390 . S
C1403 H1396 0.950 . S
C1403 C1400 1.387 1_554 S
C1404 C1405 1.387 . S
C1404 H1408 0.950 . S
C1404 C1413 1.390 . S
C1405 C1404 1.387 . S
C1405 C1407 1.387 . S
H1406 C1413 0.950 . S
C1407 C1405 1.387 . S
C1407 C1409 1.390 1_554 S
C1407 H1411 0.950 1_554 S
H1408 C1404 0.950 . S
C1409 C1407 1.390 1_556 S
C1409 C1410 1.387 . S
C1409 H1412 0.950 . S
C1410 C1409 1.387 . S
C1410 C1413 1.387 1_556 S
H1411 C1407 0.950 1_556 S
H1412 C1409 0.950 . S
C1413 C1404 1.390 . S
C1413 H1406 0.950 . S
C1413 C1410 1.387 1_554 S
C1414 C1415 1.387 . S
C1414 H1418 0.950 . S
C1414 C1423 1.390 1_554 S
C1415 C1414 1.387 . S
C1415 C1417 1.387 1_554 S
H1416 C1423 0.950 1_554 S
C1417 C1415 1.387 1_556 S
C1417 C1419 1.390 . S
C1417 H1421 0.950 . S
H1418 C1414 0.950 . S
C1419 C1417 1.390 . S
C1419 C1420 1.387 . S
C1419 H1422 0.950 . S
C1420 C1419 1.387 . S
C1420 C1423 1.387 . S
H1421 C1417 0.950 . S
H1422 C1419 0.950 . S
C1423 C1414 1.390 1_556 S
C1423 H1416 0.950 1_556 S
C1423 C1420 1.387 . S
C1424 C1425 1.387 . S
C1424 H1428 0.950 . S
C1424 C1433 1.390 . S
C1425 C1424 1.387 . S
C1425 C1427 1.387 . S
H1426 C1433 0.950 . S
C1427 C1425 1.387 . S
C1427 C1429 1.390 . S
C1427 H1431 0.950 . S
H1428 C1424 0.950 . S
C1429 C1427 1.390 . S
C1429 C1430 1.387 . S
C1429 H1432 0.950 . S
C1430 C1429 1.387 . S
C1430 C1433 1.387 . S
H1431 C1427 0.950 . S
H1432 C1429 0.950 . S
C1433 C1424 1.390 . S
C1433 H1426 0.950 . S
C1433 C1430 1.387 . S
C1434 C1435 1.387 . S
C1434 H1438 0.950 . S
C1434 C1443 1.390 . S
C1435 C1434 1.387 . S
C1435 C1437 1.387 . S
H1436 C1443 0.950 . S
C1437 C1435 1.387 . S
C1437 C1439 1.390 . S
C1437 H1441 0.950 . S
H1438 C1434 0.950 . S
C1439 C1437 1.390 . S
C1439 C1440 1.387 . S
C1439 H1442 0.950 . S
C1440 C1439 1.387 . S
C1440 C1443 1.387 . S
H1441 C1437 0.950 . S
H1442 C1439 0.950 . S
C1443 C1434 1.390 . S
C1443 H1436 0.950 . S
C1443 C1440 1.387 . S
C1444 C1445 1.387 . S
C1444 H1448 0.950 . S
C1444 C1453 1.390 . S
C1445 C1444 1.387 . S
C1445 C1447 1.387 . S
H1446 C1453 0.950 . S
C1447 C1445 1.387 . S
C1447 C1449 1.390 . S
C1447 H1451 0.950 . S
H1448 C1444 0.950 . S
C1449 C1447 1.390 . S
C1449 C1450 1.387 . S
C1449 H1452 0.950 . S
C1450 C1449 1.387 . S
C1450 C1453 1.387 . S
H1451 C1447 0.950 . S
H1452 C1449 0.950 . S
C1453 C1444 1.390 . S
C1453 H1446 0.950 . S
C1453 C1450 1.387 . S
C1454 C1455 1.387 . S
C1454 H1458 0.950 . S
C1454 C1463 1.390 . S
C1455 C1454 1.387 . S
C1455 C1457 1.387 . S
H1456 C1463 0.950 . S
C1457 C1455 1.387 . S
C1457 C1459 1.390 . S
C1457 H1461 0.950 . S
H1458 C1454 0.950 . S
C1459 C1457 1.390 . S
C1459 C1460 1.387 . S
C1459 H1462 0.950 . S
C1460 C1459 1.387 . S
C1460 C1463 1.387 . S
H1461 C1457 0.950 . S
H1462 C1459 0.950 . S
C1463 C1454 1.390 . S
C1463 H1456 0.950 . S
C1463 C1460 1.387 . S
C1464 C1465 1.387 . S
C1464 H1468 0.950 . S
C1464 C1473 1.390 . S
C1465 C1464 1.387 . S
C1465 C1467 1.387 . S
H1466 C1473 0.950 . S
C1467 C1465 1.387 . S
C1467 C1469 1.390 . S
C1467 H1471 0.950 1_545 S
H1468 C1464 0.950 . S
C1469 C1467 1.390 . S
C1469 C1470 1.387 . S
C1469 H1472 0.950 . S
C1470 C1469 1.387 . S
C1470 C1473 1.387 . S
H1471 C1467 0.950 1_565 S
H1472 C1469 0.950 . S
C1473 C1464 1.390 . S
C1473 H1466 0.950 . S
C1473 C1470 1.387 . S
C1474 C1475 1.387 . S
C1474 H1478 0.950 . S
C1474 C1483 1.390 . S
C1475 C1474 1.387 . S
C1475 C1477 1.387 . S
H1476 C1483 0.950 1_655 S
C1477 C1475 1.387 . S
C1477 C1479 1.390 . S
C1477 H1481 0.950 . S
H1478 C1474 0.950 . S
C1479 C1477 1.390 . S
C1479 C1480 1.387 . S
C1479 H1482 0.950 . S
C1480 C1479 1.387 . S
C1480 C1483 1.387 . S
H1481 C1477 0.950 . S
H1482 C1479 0.950 . S
C1483 C1474 1.390 . S
C1483 H1476 0.950 1_455 S
C1483 C1480 1.387 . S
C1484 C1485 1.387 . S
C1484 H1488 0.950 . S
C1484 C1493 1.390 . S
C1485 C1484 1.387 . S
C1485 C1487 1.387 . S
H1486 C1493 0.950 . S
C1487 C1485 1.387 . S
C1487 C1489 1.390 . S
C1487 H1491 0.950 . S
H1488 C1484 0.950 . S
C1489 C1487 1.390 . S
C1489 C1490 1.387 . S
C1489 H1492 0.950 1_565 S
C1490 C1489 1.387 . S
C1490 C1493 1.387 . S
H1491 C1487 0.950 . S
H1492 C1489 0.950 1_545 S
C1493 C1484 1.390 . S
C1493 H1486 0.950 . S
C1493 C1490 1.387 . S
C1494 C1495 1.387 . S
C1494 H1498 0.950 . S
C1494 C1503 1.390 . S
C1495 C1494 1.387 . S
C1495 C1497 1.387 . S
H1496 C1503 0.950 . S
C1497 C1495 1.387 . S
C1497 C1499 1.390 . S
C1497 H1501 0.950 1_655 S
H1498 C1494 0.950 . S
C1499 C1497 1.390 . S
C1499 C1500 1.387 . S
C1499 H1502 0.950 . S
C1500 C1499 1.387 . S
C1500 C1503 1.387 . S
H1501 C1497 0.950 1_455 S
H1502 C1499 0.950 . S
C1503 C1494 1.390 . S
C1503 H1496 0.950 . S
C1503 C1500 1.387 . S
C1504 C1505 1.387 . S
C1504 H1508 0.950 . S
C1504 C1513 1.390 . S
C1505 C1504 1.387 . S
C1505 C1507 1.387 . S
H1506 C1513 0.950 . S
C1507 C1505 1.387 . S
C1507 C1509 1.390 . S
C1507 H1511 0.950 . S
H1508 C1504 0.950 . S
C1509 C1507 1.390 . S
C1509 C1510 1.387 . S
C1509 H1512 0.950 . S
C1510 C1509 1.387 . S
C1510 C1513 1.387 . S
H1511 C1507 0.950 . S
H1512 C1509 0.950 . S
C1513 C1504 1.390 . S
C1513 H1506 0.950 . S
C1513 C1510 1.387 . S
C1514 C1515 1.387 . S
C1514 H1518 0.950 . S
C1514 C1523 1.390 . S
C1515 C1514 1.387 . S
C1515 C1517 1.387 . S
H1516 C1523 0.950 . S
C1517 C1515 1.387 . S
C1517 C1519 1.390 . S
C1517 H1521 0.950 . S
H1518 C1514 0.950 . S
C1519 C1517 1.390 . S
C1519 C1520 1.387 . S
C1519 H1522 0.950 . S
C1520 C1519 1.387 . S
C1520 C1523 1.387 . S
H1521 C1517 0.950 . S
H1522 C1519 0.950 . S
C1523 C1514 1.390 . S
C1523 H1516 0.950 . S
C1523 C1520 1.387 . S
C1524 C1525 1.387 . S
C1524 H1528 0.950 . S
C1524 C1533 1.390 . S
C1525 C1524 1.387 . S
C1525 C1527 1.387 . S
H1526 C1533 0.950 . S
C1527 C1525 1.387 . S
C1527 C1529 1.390 . S
C1527 H1531 0.950 . S
H1528 C1524 0.950 . S
C1529 C1527 1.390 . S
C1529 C1530 1.387 . S
C1529 H1532 0.950 . S
C1530 C1529 1.387 . S
C1530 C1533 1.387 . S
H1531 C1527 0.950 . S
H1532 C1529 0.950 . S
C1533 C1524 1.390 . S
C1533 H1526 0.950 . S
C1533 C1530 1.387 . S
C1534 C1535 1.387 . S
C1534 H1538 0.950 . S
C1534 C1543 1.390 . S
C1535 C1534 1.387 . S
C1535 C1537 1.387 . S
H1536 C1543 0.950 . S
C1537 C1535 1.387 . S
C1537 C1539 1.390 . S
C1537 H1541 0.950 . S
H1538 C1534 0.950 . S
C1539 C1537 1.390 . S
C1539 C1540 1.387 . S
C1539 H1542 0.950 . S
C1540 C1539 1.387 . S
C1540 C1543 1.387 . S
H1541 C1537 0.950 . S
H1542 C1539 0.950 . S
C1543 C1534 1.390 . S
C1543 H1536 0.950 . S
C1543 C1540 1.387 . S
C1544 C1545 1.387 . S
C1544 H1548 0.950 . S
C1544 C1553 1.390 . S
C1545 C1544 1.387 . S
C1545 C1547 1.387 . S
H1546 C1553 0.950 . S
C1547 C1545 1.387 . S
C1547 C1549 1.390 . S
C1547 H1551 0.950 . S
H1548 C1544 0.950 . S
C1549 C1547 1.390 . S
C1549 C1550 1.387 . S
C1549 H1552 0.950 . S
C1550 C1549 1.387 . S
C1550 C1553 1.387 . S
H1551 C1547 0.950 . S
H1552 C1549 0.950 . S
C1553 C1544 1.390 . S
C1553 H1546 0.950 . S
C1553 C1550 1.387 . S
C1554 C1555 1.387 . S
C1554 H1558 0.950 . S
C1554 C1563 1.390 . S
C1555 C1554 1.387 . S
C1555 C1557 1.387 . S
H1556 C1563 0.950 . S
C1557 C1555 1.387 . S
C1557 C1559 1.390 . S
C1557 H1561 0.950 . S
H1558 C1554 0.950 . S
C1559 C1557 1.390 . S
C1559 C1560 1.387 . S
C1559 H1562 0.950 . S
C1560 C1559 1.387 . S
C1560 C1563 1.387 . S
H1561 C1557 0.950 . S
H1562 C1559 0.950 . S
C1563 C1554 1.390 . S
C1563 H1556 0.950 . S
C1563 C1560 1.387 . S
C1564 C1565 1.387 . S
C1564 H1568 0.950 . S
C1564 C1573 1.390 . S
C1565 C1564 1.387 . S
C1565 C1567 1.387 . S
H1566 C1573 0.950 . S
C1567 C1565 1.387 . S
C1567 C1569 1.390 . S
C1567 H1571 0.950 . S
H1568 C1564 0.950 . S
C1569 C1567 1.390 . S
C1569 C1570 1.387 . S
C1569 H1572 0.950 . S
C1570 C1569 1.387 . S
C1570 C1573 1.387 . S
H1571 C1567 0.950 . S
H1572 C1569 0.950 . S
C1573 C1564 1.390 . S
C1573 H1566 0.950 . S
C1573 C1570 1.387 . S
C1574 C1575 1.387 . S
C1574 H1578 0.950 . S
C1574 C1583 1.390 . S
C1575 C1574 1.387 . S
C1575 C1577 1.387 . S
H1576 C1583 0.950 . S
C1577 C1575 1.387 . S
C1577 C1579 1.390 . S
C1577 H1581 0.950 . S
H1578 C1574 0.950 . S
C1579 C1577 1.390 . S
C1579 C1580 1.387 . S
C1579 H1582 0.950 . S
C1580 C1579 1.387 . S
C1580 C1583 1.387 . S
H1581 C1577 0.950 . S
H1582 C1579 0.950 . S
C1583 C1574 1.390 . S
C1583 H1576 0.950 . S
C1583 C1580 1.387 . S
C1584 C1585 1.387 . S
C1584 H1588 0.950 . S
C1584 C1593 1.390 . S
C1585 C1584 1.387 . S
C1585 C1587 1.387 . S
H1586 C1593 0.950 . S
C1587 C1585 1.387 . S
C1587 C1589 1.390 . S
C1587 H1591 0.950 . S
H1588 C1584 0.950 . S
C1589 C1587 1.390 . S
C1589 C1590 1.387 . S
C1589 H1592 0.950 . S
C1590 C1589 1.387 . S
C1590 C1593 1.387 . S
H1591 C1587 0.950 . S
H1592 C1589 0.950 . S
C1593 C1584 1.390 . S
C1593 H1586 0.950 . S
C1593 C1590 1.387 . S
C1594 C1595 1.387 . S
C1594 H1598 0.950 . S
C1594 C1603 1.390 . S
C1595 C1594 1.387 . S
C1595 C1597 1.387 . S
H1596 C1603 0.950 . S
C1597 C1595 1.387 . S
C1597 C1599 1.390 . S
C1597 H1601 0.950 . S
H1598 C1594 0.950 . S
C1599 C1597 1.390 . S
C1599 C1600 1.387 . S
C1599 H1602 0.950 . S
C1600 C1599 1.387 . S
C1600 C1603 1.387 . S
H1601 C1597 0.950 . S
H1602 C1599 0.950 . S
C1603 C1594 1.390 . S
C1603 H1596 0.950 . S
C1603 C1600 1.387 . S
C1604 C1605 1.387 . S
C1604 H1608 0.950 . S
C1604 C1613 1.390 . S
C1605 C1604 1.387 . S
C1605 C1607 1.387 . S
H1606 C1613 0.950 . S
C1607 C1605 1.387 . S
C1607 C1609 1.390 . S
C1607 H1611 0.950 . S
H1608 C1604 0.950 . S
C1609 C1607 1.390 . S
C1609 C1610 1.387 . S
C1609 H1612 0.950 . S
C1610 C1609 1.387 . S
C1610 C1613 1.387 . S
H1611 C1607 0.950 . S
H1612 C1609 0.950 . S
C1613 C1604 1.390 . S
C1613 H1606 0.950 . S
C1613 C1610 1.387 . S
C1614 C1615 1.387 . S
C1614 H1618 0.950 . S
C1614 C1623 1.390 . S
C1615 C1614 1.387 . S
C1615 C1617 1.387 . S
H1616 C1623 0.950 . S
C1617 C1615 1.387 . S
C1617 C1619 1.390 . S
C1617 H1621 0.950 . S
H1618 C1614 0.950 . S
C1619 C1617 1.390 . S
C1619 C1620 1.387 . S
C1619 H1622 0.950 . S
C1620 C1619 1.387 . S
C1620 C1623 1.387 . S
H1621 C1617 0.950 . S
H1622 C1619 0.950 . S
C1623 C1614 1.390 . S
C1623 H1616 0.950 . S
C1623 C1620 1.387 . S
C1624 C1625 1.387 . S
C1624 H1628 0.950 . S
C1624 C1633 1.390 . S
C1625 C1624 1.387 . S
C1625 C1627 1.387 . S
H1626 C1633 0.950 . S
C1627 C1625 1.387 . S
C1627 C1629 1.390 . S
C1627 H1631 0.950 . S
H1628 C1624 0.950 . S
C1629 C1627 1.390 . S
C1629 C1630 1.387 . S
C1629 H1632 0.950 . S
C1630 C1629 1.387 . S
C1630 C1633 1.387 . S
H1631 C1627 0.950 . S
H1632 C1629 0.950 . S
C1633 C1624 1.390 . S
C1633 H1626 0.950 . S
C1633 C1630 1.387 . S
C1634 C1635 1.387 . S
C1634 H1638 0.950 . S
C1634 C1643 1.390 . S
C1635 C1634 1.387 . S
C1635 C1637 1.387 . S
H1636 C1643 0.950 . S
C1637 C1635 1.387 . S
C1637 C1639 1.390 . S
C1637 H1641 0.950 . S
H1638 C1634 0.950 . S
C1639 C1637 1.390 . S
C1639 C1640 1.387 . S
C1639 H1642 0.950 . S
C1640 C1639 1.387 . S
C1640 C1643 1.387 . S
H1641 C1637 0.950 . S
H1642 C1639 0.950 . S
C1643 C1634 1.390 . S
C1643 H1636 0.950 . S
C1643 C1640 1.387 . S
C1644 C1645 1.387 . S
C1644 H1648 0.950 . S
C1644 C1653 1.390 . S
C1645 C1644 1.387 . S
C1645 C1647 1.387 . S
H1646 C1653 0.950 . S
C1647 C1645 1.387 . S
C1647 C1649 1.390 . S
C1647 H1651 0.950 . S
H1648 C1644 0.950 . S
C1649 C1647 1.390 . S
C1649 C1650 1.387 . S
C1649 H1652 0.950 . S
C1650 C1649 1.387 . S
C1650 C1653 1.387 . S
H1651 C1647 0.950 . S
H1652 C1649 0.950 . S
C1653 C1644 1.390 . S
C1653 H1646 0.950 . S
C1653 C1650 1.387 . S
C1654 C1655 1.387 . S
C1654 H1658 0.950 . S
C1654 C1663 1.390 . S
C1655 C1654 1.387 . S
C1655 C1657 1.387 . S
H1656 C1663 0.950 . S
C1657 C1655 1.387 . S
C1657 C1659 1.390 . S
C1657 H1661 0.950 . S
H1658 C1654 0.950 . S
C1659 C1657 1.390 . S
C1659 C1660 1.387 . S
C1659 H1662 0.950 . S
C1660 C1659 1.387 . S
C1660 C1663 1.387 . S
H1661 C1657 0.950 . S
H1662 C1659 0.950 . S
C1663 C1654 1.390 . S
C1663 H1656 0.950 . S
C1663 C1660 1.387 . S
C1664 C1665 1.387 . S
C1664 H1668 0.950 . S
C1664 C1673 1.390 . S
C1665 C1664 1.387 . S
C1665 C1667 1.387 . S
H1666 C1673 0.950 . S
C1667 C1665 1.387 . S
C1667 C1669 1.390 . S
C1667 H1671 0.950 . S
H1668 C1664 0.950 . S
C1669 C1667 1.390 . S
C1669 C1670 1.387 . S
C1669 H1672 0.950 . S
C1670 C1669 1.387 . S
C1670 C1673 1.387 . S
H1671 C1667 0.950 . S
H1672 C1669 0.950 . S
C1673 C1664 1.390 . S
C1673 H1666 0.950 . S
C1673 C1670 1.387 . S
C1674 C1675 1.387 . S
C1674 H1678 0.950 . S
C1674 C1683 1.390 . S
C1675 C1674 1.387 . S
C1675 C1677 1.387 . S
H1676 C1683 0.950 . S
C1677 C1675 1.387 . S
C1677 C1679 1.390 . S
C1677 H1681 0.950 . S
H1678 C1674 0.950 . S
C1679 C1677 1.390 . S
C1679 C1680 1.387 . S
C1679 H1682 0.950 . S
C1680 C1679 1.387 . S
C1680 C1683 1.387 . S
H1681 C1677 0.950 . S
H1682 C1679 0.950 . S
C1683 C1674 1.390 . S
C1683 H1676 0.950 . S
C1683 C1680 1.387 . S
C1684 C1685 1.387 . S
C1684 H1688 0.950 . S
C1684 C1693 1.390 . S
C1685 C1684 1.387 . S
C1685 C1687 1.387 . S
H1686 C1693 0.950 . S
C1687 C1685 1.387 . S
C1687 C1689 1.390 . S
C1687 H1691 0.950 . S
H1688 C1684 0.950 . S
C1689 C1687 1.390 . S
C1689 C1690 1.387 . S
C1689 H1692 0.950 . S
C1690 C1689 1.387 . S
C1690 C1693 1.387 . S
H1691 C1687 0.950 . S
H1692 C1689 0.950 . S
C1693 C1684 1.390 . S
C1693 H1686 0.950 . S
C1693 C1690 1.387 . S
C1694 C1695 1.387 . S
C1694 H1698 0.950 . S
C1694 C1703 1.390 . S
C1695 C1694 1.387 . S
C1695 C1697 1.387 . S
H1696 C1703 0.950 . S
C1697 C1695 1.387 . S
C1697 C1699 1.390 . S
C1697 H1701 0.950 . S
H1698 C1694 0.950 . S
C1699 C1697 1.390 . S
C1699 C1700 1.387 . S
C1699 H1702 0.950 . S
C1700 C1699 1.387 . S
C1700 C1703 1.387 . S
H1701 C1697 0.950 . S
H1702 C1699 0.950 . S
C1703 C1694 1.390 . S
C1703 H1696 0.950 . S
C1703 C1700 1.387 . S
C1704 C1705 1.387 . S
C1704 H1708 0.950 . S
C1704 C1713 1.390 . S
C1705 C1704 1.387 . S
C1705 C1707 1.387 . S
H1706 C1713 0.950 . S
C1707 C1705 1.387 . S
C1707 C1709 1.390 . S
C1707 H1711 0.950 . S
H1708 C1704 0.950 . S
C1709 C1707 1.390 . S
C1709 C1710 1.387 . S
C1709 H1712 0.950 . S
C1710 C1709 1.387 . S
C1710 C1713 1.387 . S
H1711 C1707 0.950 . S
H1712 C1709 0.950 . S
C1713 C1704 1.390 . S
C1713 H1706 0.950 . S
C1713 C1710 1.387 . S
C1714 C1715 1.387 . S
C1714 H1718 0.950 . S
C1714 C1723 1.390 . S
C1715 C1714 1.387 . S
C1715 C1717 1.387 . S
H1716 C1723 0.950 . S
C1717 C1715 1.387 . S
C1717 C1719 1.390 . S
C1717 H1721 0.950 . S
H1718 C1714 0.950 . S
C1719 C1717 1.390 . S
C1719 C1720 1.387 . S
C1719 H1722 0.950 . S
C1720 C1719 1.387 . S
C1720 C1723 1.387 . S
H1721 C1717 0.950 . S
H1722 C1719 0.950 . S
C1723 C1714 1.390 . S
C1723 H1716 0.950 . S
C1723 C1720 1.387 . S
C1724 C1725 1.387 . S
C1724 H1728 0.950 . S
C1724 C1733 1.390 . S
C1725 C1724 1.387 . S
C1725 C1727 1.387 . S
H1726 C1733 0.950 . S
C1727 C1725 1.387 . S
C1727 C1729 1.390 . S
C1727 H1731 0.950 . S
H1728 C1724 0.950 . S
C1729 C1727 1.390 . S
C1729 C1730 1.387 . S
C1729 H1732 0.950 . S
C1730 C1729 1.387 . S
C1730 C1733 1.387 . S
H1731 C1727 0.950 . S
H1732 C1729 0.950 . S
C1733 C1724 1.390 . S
C1733 H1726 0.950 . S
C1733 C1730 1.387 . S
C1734 C1735 1.387 . S
C1734 H1738 0.950 . S
C1734 C1743 1.390 . S
C1735 C1734 1.387 . S
C1735 C1737 1.387 . S
H1736 C1743 0.950 . S
C1737 C1735 1.387 . S
C1737 C1739 1.390 . S
C1737 H1741 0.950 . S
H1738 C1734 0.950 . S
C1739 C1737 1.390 . S
C1739 C1740 1.387 . S
C1739 H1742 0.950 . S
C1740 C1739 1.387 . S
C1740 C1743 1.387 . S
H1741 C1737 0.950 . S
H1742 C1739 0.950 . S
C1743 C1734 1.390 . S
C1743 H1736 0.950 . S
C1743 C1740 1.387 . S
C1744 C1745 1.387 . S
C1744 H1748 0.950 . S
C1744 C1753 1.390 . S
C1745 C1744 1.387 . S
C1745 C1747 1.387 . S
H1746 C1753 0.950 . S
C1747 C1745 1.387 . S
C1747 C1749 1.390 . S
C1747 H1751 0.950 . S
H1748 C1744 0.950 . S
C1749 C1747 1.390 . S
C1749 C1750 1.387 . S
C1749 H1752 0.950 . S
C1750 C1749 1.387 . S
C1750 C1753 1.387 . S
H1751 C1747 0.950 . S
H1752 C1749 0.950 . S
C1753 C1744 1.390 . S
C1753 H1746 0.950 . S
C1753 C1750 1.387 . S
C1754 C1755 1.387 . S
C1754 H1758 0.950 . S
C1754 C1763 1.390 . S
C1755 C1754 1.387 . S
C1755 C1757 1.387 . S
H1756 C1763 0.950 . S
C1757 C1755 1.387 . S
C1757 C1759 1.390 . S
C1757 H1761 0.950 . S
H1758 C1754 0.950 . S
C1759 C1757 1.390 . S
C1759 C1760 1.387 . S
C1759 H1762 0.950 . S
C1760 C1759 1.387 . S
C1760 C1763 1.387 . S
H1761 C1757 0.950 . S
H1762 C1759 0.950 . S
C1763 C1754 1.390 . S
C1763 H1756 0.950 . S
C1763 C1760 1.387 . S
C1764 C1765 1.387 . S
C1764 H1768 0.950 . S
C1764 C1773 1.390 . S
C1765 C1764 1.387 . S
C1765 C1767 1.387 . S
H1766 C1773 0.950 . S
C1767 C1765 1.387 . S
C1767 C1769 1.390 . S
C1767 H1771 0.950 . S
H1768 C1764 0.950 . S
C1769 C1767 1.390 . S
C1769 C1770 1.387 . S
C1769 H1772 0.950 . S
C1770 C1769 1.387 . S
C1770 C1773 1.387 . S
H1771 C1767 0.950 . S
H1772 C1769 0.950 . S
C1773 C1764 1.390 . S
C1773 H1766 0.950 . S
C1773 C1770 1.387 . S
C1774 C1775 1.387 . S
C1774 H1778 0.950 . S
C1774 C1783 1.390 . S
C1775 C1774 1.387 . S
C1775 C1777 1.387 . S
H1776 C1783 0.950 . S
C1777 C1775 1.387 . S
C1777 C1779 1.390 . S
C1777 H1781 0.950 . S
H1778 C1774 0.950 . S
C1779 C1777 1.390 . S
C1779 C1780 1.387 . S
C1779 H1782 0.950 . S
C1780 C1779 1.387 . S
C1780 C1783 1.387 . S
H1781 C1777 0.950 . S
H1782 C1779 0.950 . S
C1783 C1774 1.390 . S
C1783 H1776 0.950 . S
C1783 C1780 1.387 . S
C1784 C1785 1.387 . S
C1784 H1788 0.950 . S
C1784 C1793 1.390 . S
C1785 C1784 1.387 . S
C1785 C1787 1.387 . S
H1786 C1793 0.950 . S
C1787 C1785 1.387 . S
C1787 C1789 1.390 . S
C1787 H1791 0.950 . S
H1788 C1784 0.950 . S
C1789 C1787 1.390 . S
C1789 C1790 1.387 . S
C1789 H1792 0.950 . S
C1790 C1789 1.387 . S
C1790 C1793 1.387 . S
H1791 C1787 0.950 . S
H1792 C1789 0.950 . S
C1793 C1784 1.390 . S
C1793 H1786 0.950 . S
C1793 C1790 1.387 . S
C1794 C1795 1.387 . S
C1794 H1798 0.950 . S
C1794 C1803 1.390 . S
C1795 C1794 1.387 . S
C1795 C1797 1.387 . S
H1796 C1803 0.950 . S
C1797 C1795 1.387 . S
C1797 C1799 1.390 . S
C1797 H1801 0.950 . S
H1798 C1794 0.950 . S
C1799 C1797 1.390 . S
C1799 C1800 1.387 . S
C1799 H1802 0.950 . S
C1800 C1799 1.387 . S
C1800 C1803 1.387 . S
H1801 C1797 0.950 . S
H1802 C1799 0.950 . S
C1803 C1794 1.390 . S
C1803 H1796 0.950 . S
C1803 C1800 1.387 . S
C1804 C1805 1.387 . S
C1804 H1808 0.950 . S
C1804 C1813 1.390 . S
C1805 C1804 1.387 . S
C1805 C1807 1.387 . S
H1806 C1813 0.950 . S
C1807 C1805 1.387 . S
C1807 C1809 1.390 . S
C1807 H1811 0.950 . S
H1808 C1804 0.950 . S
C1809 C1807 1.390 . S
C1809 C1810 1.387 . S
C1809 H1812 0.950 . S
C1810 C1809 1.387 . S
C1810 C1813 1.387 . S
H1811 C1807 0.950 . S
H1812 C1809 0.950 . S
C1813 C1804 1.390 . S
C1813 H1806 0.950 . S
C1813 C1810 1.387 . S
C1814 C1815 1.387 . S
C1814 H1818 0.950 . S
C1814 C1823 1.390 . S
C1815 C1814 1.387 . S
C1815 C1817 1.387 . S
H1816 C1823 0.950 . S
C1817 C1815 1.387 . S
C1817 C1819 1.390 . S
C1817 H1821 0.950 . S
H1818 C1814 0.950 . S
C1819 C1817 1.390 . S
C1819 C1820 1.387 . S
C1819 H1822 0.950 . S
C1820 C1819 1.387 . S
C1820 C1823 1.387 . S
H1821 C1817 0.950 . S
H1822 C1819 0.950 . S
C1823 C1814 1.390 . S
C1823 H1816 0.950 . S
C1823 C1820 1.387 . S
C1345 C991 1.693 . S
C1350 C74 1.686 1_565 S
C1355 C728 1.693 . S
C1360 C147 1.685 1_655 S
C1365 C242 1.686 1_545 S
C1370 C823 1.694 . S
C1375 C315 1.685 1_455 S
C1380 C896 1.693 . S
C1385 C410 1.686 . S
C1390 C487 1.694 . S
C1395 C560 1.693 . S
C1400 C483 1.686 . S
C1405 C578 1.686 . S
C1410 C655 1.694 . S
C1415 C392 1.693 . S
C1420 C651 1.686 . S
C1425 C319 1.694 . S
C1430 C746 1.685 . S
C1435 C819 1.686 . S
C1440 C56 1.694 . S
C1445 C151 1.693 . S
C1450 C914 1.685 . S
C1455 C224 1.694 . S
C1460 C987 1.686 . S
C1465 C1082 1.686 1_545 S
C1470 C1159 1.694 . S
C1475 C1232 1.693 . S
C1480 C1155 1.686 1_455 S
C1485 C1327 1.694 . S
C1490 C1250 1.686 1_565 S
C1495 C1323 1.685 1_655 S
C1500 C1064 1.694 . S
C1505 C63 1.388 . S
C1510 C399 1.388 . S
C1515 C494 1.393 . S
C1520 C158 1.393 . S
C1525 C231 1.393 . S
C1530 C567 1.393 . S
C1535 C326 1.393 . S
C1540 C662 1.393 . S
C1545 C735 1.393 . S
C1550 C1071 1.393 . S
C1555 C1166 1.388 . S
C1560 C830 1.388 . S
C1565 C903 1.393 . S
C1570 C1239 1.393 . S
C1575 C998 1.388 . S
C1580 C1334 1.388 . S
C1585 C1243 2.416 . S
C1590 C67 2.416 1_556 S
C1595 C140 2.416 1_554 S
C1600 C1316 2.416 . S
C1605 C235 2.419 1_556 S
C1610 C1075 2.419 . S
C1615 C308 2.419 1_554 S
C1620 C1148 2.419 . S
C1625 C403 2.416 . S
C1630 C907 2.416 . S
C1635 C476 2.419 . S
C1640 C980 2.419 . S
C1645 C571 2.416 . S
C1650 C739 2.416 . S
C1655 C812 2.419 . S
C1660 C644 2.419 . S
C1665 C69 1.223 . S
C1670 C58 1.223 . S
C1675 C142 1.226 . S
C1680 C153 1.226 . S
C1685 C237 1.228 . S
C1690 C226 1.228 . S
C1695 C321 1.228 . S
C1700 C310 1.228 . S
C1705 C394 1.224 . S
C1710 C405 1.224 . S
C1715 C478 1.222 . S
C1720 C489 1.222 . S
C1725 C573 1.228 . S
C1730 C562 1.228 . S
C1735 C657 1.221 . S
C1740 C646 1.221 . S
C1745 C741 1.224 . S
C1750 C730 1.224 . S
C1755 C825 1.228 . S
C1760 C814 1.228 . S
C1765 C898 1.228 . S
C1770 C909 1.228 . S
C1775 C982 1.221 . S
C1780 C993 1.221 . S
C1785 C1077 1.224 . S
C1790 C1066 1.224 . S
C1795 C1161 1.222 . S
C1800 C1150 1.222 . S
C1805 C1234 1.221 . S
C1810 C1245 1.221 . S
C1815 C1318 1.221 . S
C1820 C1329 1.221 . S
