# Generated by pormake.
# Topology nfb, (4)-cn, num edge types: 1
# Building blocks:
#     Node 0, Type 0, BuildingBlock: NAHDIM_clean_sbu_0, # of connection points: 4
#     Node 1, Type 0, BuildingBlock: NAHDIM_clean_sbu_0, # of connection points: 4
#     Node 2, Type 0, BuildingBlock: NAHDIM_clean_sbu_0, # of connection points: 4
#     Node 3, Type 0, BuildingBlock: NAHDIM_clean_sbu_0, # of connection points: 4
#     Node 4, Type 0, BuildingBlock: NAHDIM_clean_sbu_0, # of connection points: 4
#     Node 5, Type 0, BuildingBlock: NAHDIM_clean_sbu_0, # of connection points: 4
#     Node 6, Type 0, BuildingBlock: NAHDIM_clean_sbu_0, # of connection points: 4
#     Node 7, Type 0, BuildingBlock: NAHDIM_clean_sbu_0, # of connection points: 4
#     Node 8, Type 0, BuildingBlock: NAHDIM_clean_sbu_0, # of connection points: 4
#     Node 9, Type 0, BuildingBlock: NAHDIM_clean_sbu_0, # of connection points: 4
#     Node 10, Type 0, BuildingBlock: NAHDIM_clean_sbu_0, # of connection points: 4
#     Node 11, Type 0, BuildingBlock: NAHDIM_clean_sbu_0, # of connection points: 4
#     Node 12, Type 0, BuildingBlock: NAHDIM_clean_sbu_0, # of connection points: 4
#     Node 13, Type 0, BuildingBlock: NAHDIM_clean_sbu_0, # of connection points: 4
#     Node 14, Type 0, BuildingBlock: NAHDIM_clean_sbu_0, # of connection points: 4
#     Node 15, Type 0, BuildingBlock: NAHDIM_clean_sbu_0, # of connection points: 4
#     Node 16, Type 0, BuildingBlock: NAHDIM_clean_sbu_0, # of connection points: 4
#     Node 17, Type 0, BuildingBlock: NAHDIM_clean_sbu_0, # of connection points: 4
#     Node 18, Type 0, BuildingBlock: NAHDIM_clean_sbu_0, # of connection points: 4
#     Node 19, Type 0, BuildingBlock: NAHDIM_clean_sbu_0, # of connection points: 4
#     Node 20, Type 0, BuildingBlock: NAHDIM_clean_sbu_0, # of connection points: 4
#     Node 21, Type 0, BuildingBlock: NAHDIM_clean_sbu_0, # of connection points: 4
#     Node 22, Type 0, BuildingBlock: NAHDIM_clean_sbu_0, # of connection points: 4
#     Node 23, Type 0, BuildingBlock: NAHDIM_clean_sbu_0, # of connection points: 4
#     Node 24, Type 0, BuildingBlock: NAHDIM_clean_sbu_0, # of connection points: 4
#     Node 25, Type 0, BuildingBlock: NAHDIM_clean_sbu_0, # of connection points: 4
#     Node 26, Type 0, BuildingBlock: NAHDIM_clean_sbu_0, # of connection points: 4
#     Node 27, Type 0, BuildingBlock: NAHDIM_clean_sbu_0, # of connection points: 4
#     Node 28, Type 0, BuildingBlock: NAHDIM_clean_sbu_0, # of connection points: 4
#     Node 29, Type 0, BuildingBlock: NAHDIM_clean_sbu_0, # of connection points: 4
#     Node 30, Type 0, BuildingBlock: NAHDIM_clean_sbu_0, # of connection points: 4
#     Node 31, Type 0, BuildingBlock: NAHDIM_clean_sbu_0, # of connection points: 4
#     Node 32, Type 0, BuildingBlock: NAHDIM_clean_sbu_0, # of connection points: 4
#     Node 33, Type 0, BuildingBlock: NAHDIM_clean_sbu_0, # of connection points: 4
#     Node 34, Type 0, BuildingBlock: NAHDIM_clean_sbu_0, # of connection points: 4
#     Node 35, Type 0, BuildingBlock: NAHDIM_clean_sbu_0, # of connection points: 4
#     Node 36, Type 0, BuildingBlock: NAHDIM_clean_sbu_0, # of connection points: 4
#     Node 37, Type 0, BuildingBlock: NAHDIM_clean_sbu_0, # of connection points: 4
#     Node 38, Type 0, BuildingBlock: NAHDIM_clean_sbu_0, # of connection points: 4
#     Node 39, Type 0, BuildingBlock: NAHDIM_clean_sbu_0, # of connection points: 4
#     Node 40, Type 0, BuildingBlock: NAHDIM_clean_sbu_0, # of connection points: 4
#     Node 41, Type 0, BuildingBlock: NAHDIM_clean_sbu_0, # of connection points: 4
#     Node 42, Type 0, BuildingBlock: NAHDIM_clean_sbu_0, # of connection points: 4
#     Node 43, Type 0, BuildingBlock: NAHDIM_clean_sbu_0, # of connection points: 4
#     Node 44, Type 0, BuildingBlock: NAHDIM_clean_sbu_0, # of connection points: 4
#     Node 45, Type 0, BuildingBlock: NAHDIM_clean_sbu_0, # of connection points: 4
#     Node 46, Type 0, BuildingBlock: NAHDIM_clean_sbu_0, # of connection points: 4
#     Node 47, Type 0, BuildingBlock: NAHDIM_clean_sbu_0, # of connection points: 4
#     Edge 48, Type (0, 0), BuildingBlock: CIFDUS_clean_linker_0, # of connection points: 2
#     Edge 49, Type (0, 0), BuildingBlock: CIFDUS_clean_linker_0, # of connection points: 2
#     Edge 50, Type (0, 0), BuildingBlock: CIFDUS_clean_linker_0, # of connection points: 2
#     Edge 51, Type (0, 0), BuildingBlock: CIFDUS_clean_linker_0, # of connection points: 2
#     Edge 52, Type (0, 0), BuildingBlock: CIFDUS_clean_linker_0, # of connection points: 2
#     Edge 53, Type (0, 0), BuildingBlock: CIFDUS_clean_linker_0, # of connection points: 2
#     Edge 54, Type (0, 0), BuildingBlock: CIFDUS_clean_linker_0, # of connection points: 2
#     Edge 55, Type (0, 0), BuildingBlock: CIFDUS_clean_linker_0, # of connection points: 2
#     Edge 56, Type (0, 0), BuildingBlock: CIFDUS_clean_linker_0, # of connection points: 2
#     Edge 57, Type (0, 0), BuildingBlock: CIFDUS_clean_linker_0, # of connection points: 2
#     Edge 58, Type (0, 0), BuildingBlock: CIFDUS_clean_linker_0, # of connection points: 2
#     Edge 59, Type (0, 0), BuildingBlock: CIFDUS_clean_linker_0, # of connection points: 2
#     Edge 60, Type (0, 0), BuildingBlock: CIFDUS_clean_linker_0, # of connection points: 2
#     Edge 61, Type (0, 0), BuildingBlock: CIFDUS_clean_linker_0, # of connection points: 2
#     Edge 62, Type (0, 0), BuildingBlock: CIFDUS_clean_linker_0, # of connection points: 2
#     Edge 63, Type (0, 0), BuildingBlock: CIFDUS_clean_linker_0, # of connection points: 2
#     Edge 64, Type (0, 0), BuildingBlock: CIFDUS_clean_linker_0, # of connection points: 2
#     Edge 65, Type (0, 0), BuildingBlock: CIFDUS_clean_linker_0, # of connection points: 2
#     Edge 66, Type (0, 0), BuildingBlock: CIFDUS_clean_linker_0, # of connection points: 2
#     Edge 67, Type (0, 0), BuildingBlock: CIFDUS_clean_linker_0, # of connection points: 2
#     Edge 68, Type (0, 0), BuildingBlock: CIFDUS_clean_linker_0, # of connection points: 2
#     Edge 69, Type (0, 0), BuildingBlock: CIFDUS_clean_linker_0, # of connection points: 2
#     Edge 70, Type (0, 0), BuildingBlock: CIFDUS_clean_linker_0, # of connection points: 2
#     Edge 71, Type (0, 0), BuildingBlock: CIFDUS_clean_linker_0, # of connection points: 2
#     Edge 72, Type (0, 0), BuildingBlock: CIFDUS_clean_linker_0, # of connection points: 2
#     Edge 73, Type (0, 0), BuildingBlock: CIFDUS_clean_linker_0, # of connection points: 2
#     Edge 74, Type (0, 0), BuildingBlock: CIFDUS_clean_linker_0, # of connection points: 2
#     Edge 75, Type (0, 0), BuildingBlock: CIFDUS_clean_linker_0, # of connection points: 2
#     Edge 76, Type (0, 0), BuildingBlock: CIFDUS_clean_linker_0, # of connection points: 2
#     Edge 77, Type (0, 0), BuildingBlock: CIFDUS_clean_linker_0, # of connection points: 2
#     Edge 78, Type (0, 0), BuildingBlock: CIFDUS_clean_linker_0, # of connection points: 2
#     Edge 79, Type (0, 0), BuildingBlock: CIFDUS_clean_linker_0, # of connection points: 2
#     Edge 80, Type (0, 0), BuildingBlock: CIFDUS_clean_linker_0, # of connection points: 2
#     Edge 81, Type (0, 0), BuildingBlock: CIFDUS_clean_linker_0, # of connection points: 2
#     Edge 82, Type (0, 0), BuildingBlock: CIFDUS_clean_linker_0, # of connection points: 2
#     Edge 83, Type (0, 0), BuildingBlock: CIFDUS_clean_linker_0, # of connection points: 2
#     Edge 84, Type (0, 0), BuildingBlock: CIFDUS_clean_linker_0, # of connection points: 2
#     Edge 85, Type (0, 0), BuildingBlock: CIFDUS_clean_linker_0, # of connection points: 2
#     Edge 86, Type (0, 0), BuildingBlock: CIFDUS_clean_linker_0, # of connection points: 2
#     Edge 87, Type (0, 0), BuildingBlock: CIFDUS_clean_linker_0, # of connection points: 2
#     Edge 88, Type (0, 0), BuildingBlock: CIFDUS_clean_linker_0, # of connection points: 2
#     Edge 89, Type (0, 0), BuildingBlock: CIFDUS_clean_linker_0, # of connection points: 2
#     Edge 90, Type (0, 0), BuildingBlock: CIFDUS_clean_linker_0, # of connection points: 2
#     Edge 91, Type (0, 0), BuildingBlock: CIFDUS_clean_linker_0, # of connection points: 2
#     Edge 92, Type (0, 0), BuildingBlock: CIFDUS_clean_linker_0, # of connection points: 2
#     Edge 93, Type (0, 0), BuildingBlock: CIFDUS_clean_linker_0, # of connection points: 2
#     Edge 94, Type (0, 0), BuildingBlock: CIFDUS_clean_linker_0, # of connection points: 2
#     Edge 95, Type (0, 0), BuildingBlock: CIFDUS_clean_linker_0, # of connection points: 2
#     Edge 96, Type (0, 0), BuildingBlock: CIFDUS_clean_linker_0, # of connection points: 2
#     Edge 97, Type (0, 0), BuildingBlock: CIFDUS_clean_linker_0, # of connection points: 2
#     Edge 98, Type (0, 0), BuildingBlock: CIFDUS_clean_linker_0, # of connection points: 2
#     Edge 99, Type (0, 0), BuildingBlock: CIFDUS_clean_linker_0, # of connection points: 2
#     Edge 100, Type (0, 0), BuildingBlock: CIFDUS_clean_linker_0, # of connection points: 2
#     Edge 101, Type (0, 0), BuildingBlock: CIFDUS_clean_linker_0, # of connection points: 2
#     Edge 102, Type (0, 0), BuildingBlock: CIFDUS_clean_linker_0, # of connection points: 2
#     Edge 103, Type (0, 0), BuildingBlock: CIFDUS_clean_linker_0, # of connection points: 2
#     Edge 104, Type (0, 0), BuildingBlock: CIFDUS_clean_linker_0, # of connection points: 2
#     Edge 105, Type (0, 0), BuildingBlock: CIFDUS_clean_linker_0, # of connection points: 2
#     Edge 106, Type (0, 0), BuildingBlock: CIFDUS_clean_linker_0, # of connection points: 2
#     Edge 107, Type (0, 0), BuildingBlock: CIFDUS_clean_linker_0, # of connection points: 2
#     Edge 108, Type (0, 0), BuildingBlock: CIFDUS_clean_linker_0, # of connection points: 2
#     Edge 109, Type (0, 0), BuildingBlock: CIFDUS_clean_linker_0, # of connection points: 2
#     Edge 110, Type (0, 0), BuildingBlock: CIFDUS_clean_linker_0, # of connection points: 2
#     Edge 111, Type (0, 0), BuildingBlock: CIFDUS_clean_linker_0, # of connection points: 2
#     Edge 112, Type (0, 0), BuildingBlock: CIFDUS_clean_linker_0, # of connection points: 2
#     Edge 113, Type (0, 0), BuildingBlock: CIFDUS_clean_linker_0, # of connection points: 2
#     Edge 114, Type (0, 0), BuildingBlock: CIFDUS_clean_linker_0, # of connection points: 2
#     Edge 115, Type (0, 0), BuildingBlock: CIFDUS_clean_linker_0, # of connection points: 2
#     Edge 116, Type (0, 0), BuildingBlock: CIFDUS_clean_linker_0, # of connection points: 2
#     Edge 117, Type (0, 0), BuildingBlock: CIFDUS_clean_linker_0, # of connection points: 2
#     Edge 118, Type (0, 0), BuildingBlock: CIFDUS_clean_linker_0, # of connection points: 2
#     Edge 119, Type (0, 0), BuildingBlock: CIFDUS_clean_linker_0, # of connection points: 2
#     Edge 120, Type (0, 0), BuildingBlock: CIFDUS_clean_linker_0, # of connection points: 2
#     Edge 121, Type (0, 0), BuildingBlock: CIFDUS_clean_linker_0, # of connection points: 2
#     Edge 122, Type (0, 0), BuildingBlock: CIFDUS_clean_linker_0, # of connection points: 2
#     Edge 123, Type (0, 0), BuildingBlock: CIFDUS_clean_linker_0, # of connection points: 2
#     Edge 124, Type (0, 0), BuildingBlock: CIFDUS_clean_linker_0, # of connection points: 2
#     Edge 125, Type (0, 0), BuildingBlock: CIFDUS_clean_linker_0, # of connection points: 2
#     Edge 126, Type (0, 0), BuildingBlock: CIFDUS_clean_linker_0, # of connection points: 2
#     Edge 127, Type (0, 0), BuildingBlock: CIFDUS_clean_linker_0, # of connection points: 2
#     Edge 128, Type (0, 0), BuildingBlock: CIFDUS_clean_linker_0, # of connection points: 2
#     Edge 129, Type (0, 0), BuildingBlock: CIFDUS_clean_linker_0, # of connection points: 2
#     Edge 130, Type (0, 0), BuildingBlock: CIFDUS_clean_linker_0, # of connection points: 2
#     Edge 131, Type (0, 0), BuildingBlock: CIFDUS_clean_linker_0, # of connection points: 2
#     Edge 132, Type (0, 0), BuildingBlock: CIFDUS_clean_linker_0, # of connection points: 2
#     Edge 133, Type (0, 0), BuildingBlock: CIFDUS_clean_linker_0, # of connection points: 2
#     Edge 134, Type (0, 0), BuildingBlock: CIFDUS_clean_linker_0, # of connection points: 2
#     Edge 135, Type (0, 0), BuildingBlock: CIFDUS_clean_linker_0, # of connection points: 2
#     Edge 136, Type (0, 0), BuildingBlock: CIFDUS_clean_linker_0, # of connection points: 2
#     Edge 137, Type (0, 0), BuildingBlock: CIFDUS_clean_linker_0, # of connection points: 2
#     Edge 138, Type (0, 0), BuildingBlock: CIFDUS_clean_linker_0, # of connection points: 2
#     Edge 139, Type (0, 0), BuildingBlock: CIFDUS_clean_linker_0, # of connection points: 2
#     Edge 140, Type (0, 0), BuildingBlock: CIFDUS_clean_linker_0, # of connection points: 2
#     Edge 141, Type (0, 0), BuildingBlock: CIFDUS_clean_linker_0, # of connection points: 2
#     Edge 142, Type (0, 0), BuildingBlock: CIFDUS_clean_linker_0, # of connection points: 2
#     Edge 143, Type (0, 0), BuildingBlock: CIFDUS_clean_linker_0, # of connection points: 2
# Relax obj value: 0.309
# Max RMSD: 0.204
# Mean RMSD: 0.171
data_MOF--net-nfb--node1-NAHDIM_clean_sbu_0--edge1-CIFDUS_clean_linker_0
_symmetry_space_group_name_H-M    P1
_symmetry_Int_Tables_number       1
_symmetry_cell_setting            triclinic
loop_
_symmetry_equiv_pos_as_xyz
'x, y, z'
_cell_length_a     51.997242
_cell_length_b     52.139757
_cell_length_c     52.132651
_cell_angle_alpha  90.308518
_cell_angle_beta   90.155303
_cell_angle_gamma 90.360655
loop_
_atom_site_label
_atom_site_type_symbol
_atom_site_fract_x
_atom_site_fract_y
_atom_site_fract_z
_atom_type_partial_charge
C0 C 0.15958 0.12114 0.38344 0.0
O1 O 0.14919 0.11175 0.40433 0.0
O2 O 0.10202 0.13421 0.41415 0.0
Zn3 Zn 0.10829 0.14253 0.377 0.0
O4 O 0.10815 0.1809 0.37481 0.0
C5 C 0.06118 0.11419 0.3644 0.0
O6 O 0.06673 0.10179 0.38556 0.0
O7 O 0.14512 0.13233 0.3672 0.0
C8 C 0.08885 0.19395 0.38186 0.0
O9 O 0.06803 0.18196 0.38972 0.0
C10 C 0.11252 0.14851 0.43105 0.0
O11 O 0.12713 0.16773 0.42365 0.0
O12 O 0.07753 0.13021 0.35562 0.0
C13 C 0.39513 0.55311 0.84324 0.0
O14 O 0.41111 0.55802 0.86223 0.0
O15 O 0.33083 0.59836 0.86695 0.0
Zn16 Zn 0.36935 0.59855 0.86268 0.0
O17 O 0.38466 0.59152 0.89738 0.0
C18 C 0.36822 0.65192 0.86669 0.0
O19 O 0.35544 0.64399 0.88687 0.0
O20 O 0.37754 0.56924 0.83826 0.0
C21 C 0.40207 0.6051 0.90798 0.0
O22 O 0.4127 0.624 0.89516 0.0
C23 C 0.31971 0.59669 0.88859 0.0
O24 O 0.33359 0.59341 0.90939 0.0
O25 O 0.37799 0.63516 0.85173 0.0
C26 C 0.85859 0.86682 0.34689 0.0
O27 O 0.86701 0.84424 0.35393 0.0
O28 O 0.91052 0.88729 0.39561 0.0
Zn29 Zn 0.91133 0.87845 0.35784 0.0
O30 O 0.91874 0.84075 0.35314 0.0
C31 C 0.95857 0.88846 0.32937 0.0
O32 O 0.95456 0.865 0.32089 0.0
O33 O 0.87472 0.88529 0.34478 0.0
C34 C 0.92962 0.8267 0.36971 0.0
O35 O 0.93809 0.83687 0.39125 0.0
C36 C 0.89784 0.87389 0.41152 0.0
O37 O 0.88534 0.85344 0.40341 0.0
O38 O 0.9413 0.89909 0.34303 0.0
C39 C 0.61122 0.39845 0.84795 0.0
O40 O 0.63122 0.39384 0.83333 0.0
O41 O 0.6642 0.36112 0.86231 0.0
Zn42 Zn 0.62852 0.3525 0.87479 0.0
O43 O 0.6305 0.35611 0.91315 0.0
C44 C 0.6383 0.29885 0.86844 0.0
O45 O 0.6617 0.30847 0.86844 0.0
O46 O 0.60423 0.38141 0.86404 0.0
C47 C 0.65024 0.34932 0.92577 0.0
O48 O 0.66955 0.33859 0.91368 0.0
C49 C 0.67465 0.38085 0.8724 0.0
O50 O 0.66114 0.3952 0.8881 0.0
O51 O 0.61935 0.31435 0.86865 0.0
C52 C 0.08829 0.88736 0.64229 0.0
O53 O 0.09201 0.86355 0.64946 0.0
O54 O 0.13183 0.84082 0.62007 0.0
Zn55 Zn 0.1353 0.87861 0.61382 0.0
O56 O 0.12769 0.88076 0.57644 0.0
C57 C 0.18813 0.87588 0.63223 0.0
O58 O 0.17841 0.85746 0.64638 0.0
O59 O 0.10608 0.89887 0.63005 0.0
C60 C 0.13276 0.89949 0.56185 0.0
O61 O 0.14472 0.91978 0.57115 0.0
C62 C 0.14681 0.82684 0.60687 0.0
O63 O 0.16396 0.83781 0.59198 0.0
O64 O 0.1729 0.88964 0.61901 0.0
C65 C 0.62692 0.67628 0.11977 0.0
O66 O 0.6435 0.66579 0.10396 0.0
O67 O 0.61256 0.61658 0.09003 0.0
Zn68 Zn 0.62083 0.62395 0.12689 0.0
O69 O 0.65899 0.62024 0.1309 0.0
C70 C 0.58909 0.57974 0.14066 0.0
O71 O 0.57827 0.5838 0.11826 0.0
O72 O 0.61301 0.66157 0.13356 0.0
C73 C 0.66916 0.6132 0.15188 0.0
O74 O 0.65436 0.6081 0.17161 0.0
C75 C 0.62247 0.59737 0.0788 0.0
O76 O 0.63747 0.58202 0.09189 0.0
O77 O 0.60489 0.59637 0.14948 0.0
C78 C 0.92501 0.10592 0.6423 0.0
O79 O 0.92186 0.10135 0.61769 0.0
O80 O 0.87955 0.1647 0.63317 0.0
Zn81 Zn 0.87404 0.12683 0.63587 0.0
O82 O 0.87242 0.11336 0.59952 0.0
C83 C 0.82454 0.14055 0.65906 0.0
O84 O 0.83614 0.16241 0.66426 0.0
O85 O 0.90595 0.11432 0.65516 0.0
C86 C 0.85265 0.10133 0.59137 0.0
O87 O 0.83423 0.09534 0.60746 0.0
C88 C 0.86668 0.17881 0.61813 0.0
O89 O 0.84948 0.16823 0.60282 0.0
O90 O 0.83796 0.12169 0.65116 0.0
C91 C 0.37985 0.35253 0.10528 0.0
O92 O 0.36495 0.35956 0.08621 0.0
O93 O 0.39259 0.41241 0.07166 0.0
Zn94 Zn 0.38074 0.40625 0.1078 0.0
O95 O 0.34216 0.40569 0.1054 0.0
C96 C 0.4071 0.45362 0.12307 0.0
O97 O 0.42095 0.44869 0.10261 0.0
O98 O 0.39077 0.36997 0.11884 0.0
C99 C 0.32849 0.39353 0.12149 0.0
O100 O 0.33969 0.38261 0.1412 0.0
C101 C 0.4089 0.39861 0.05999 0.0
O102 O 0.42038 0.37994 0.07224 0.0
O103 O 0.39061 0.437 0.13038 0.0
C104 C 0.38389 0.19909 0.11242 0.0
O105 O 0.40245 0.19171 0.12781 0.0
O106 O 0.4197 0.14363 0.09704 0.0
Zn107 Zn 0.38297 0.14562 0.10786 0.0
O108 O 0.3847 0.14067 0.14593 0.0
C109 C 0.353 0.09812 0.10338 0.0
O110 O 0.34738 0.10299 0.12745 0.0
O111 O 0.37087 0.18194 0.10047 0.0
C112 C 0.36769 0.1472 0.16205 0.0
O113 O 0.3461 0.15736 0.15394 0.0
C114 C 0.43125 0.1228 0.1018 0.0
O115 O 0.41827 0.10378 0.11211 0.0
O116 O 0.36515 0.11504 0.09056 0.0
C117 C 0.43224 0.8608 0.6084 0.0
O118 O 0.42264 0.85027 0.62915 0.0
O119 O 0.39183 0.89088 0.65079 0.0
Zn120 Zn 0.38631 0.89187 0.61255 0.0
O121 O 0.38463 0.929 0.60239 0.0
C122 C 0.3408 0.85943 0.61925 0.0
O123 O 0.35537 0.84766 0.63606 0.0
O124 O 0.41863 0.87695 0.5962 0.0
C125 C 0.36336 0.94081 0.60362 0.0
O126 O 0.3427 0.92843 0.61118 0.0
C127 C 0.37457 0.8963 0.66712 0.0
O128 O 0.35177 0.90354 0.65915 0.0
O129 O 0.35099 0.87621 0.60477 0.0
C130 C 0.63102 0.82928 0.10692 0.0
O131 O 0.61106 0.83919 0.11867 0.0
O132 O 0.60142 0.88612 0.08725 0.0
Zn133 Zn 0.63641 0.88153 0.10262 0.0
O134 O 0.63275 0.88393 0.14078 0.0
C135 C 0.65366 0.9291 0.07836 0.0
O136 O 0.63347 0.92552 0.06353 0.0
O137 O 0.64708 0.8445 0.09629 0.0
C138 C 0.65333 0.88469 0.15393 0.0
O139 O 0.67555 0.8849 0.14198 0.0
C140 C 0.587 0.90397 0.0953 0.0
O141 O 0.59601 0.92021 0.11252 0.0
O142 O 0.66034 0.91121 0.0935 0.0
C143 C 0.5784 0.16682 0.61771 0.0
O144 O 0.58197 0.17671 0.64068 0.0
O145 O 0.61663 0.14343 0.66695 0.0
Zn146 Zn 0.62485 0.13834 0.62983 0.0
O147 O 0.622 0.10034 0.62417 0.0
C148 C 0.67363 0.16447 0.63942 0.0
O149 O 0.65947 0.17874 0.6546 0.0
O150 O 0.59624 0.15332 0.60784 0.0
C151 C 0.63834 0.08713 0.61187 0.0
O152 O 0.65837 0.09858 0.60162 0.0
C153 C 0.62931 0.1296 0.68238 0.0
O154 O 0.64682 0.11402 0.67315 0.0
O155 O 0.66261 0.14811 0.6248 0.0
C156 C 0.33732 0.90359 0.88403 0.0
O157 O 0.32758 0.90007 0.861 0.0
O158 O 0.36035 0.86705 0.83332 0.0
Zn159 Zn 0.36716 0.85863 0.87056 0.0
O160 O 0.40517 0.8609 0.87661 0.0
C161 C 0.36783 0.80541 0.86284 0.0
O162 O 0.38388 0.8139 0.84536 0.0
O163 O 0.35211 0.88654 0.89321 0.0
C164 C 0.41728 0.84767 0.89301 0.0
O165 O 0.4046 0.83141 0.9075 0.0
C166 C 0.37875 0.87041 0.81765 0.0
O167 O 0.40255 0.86805 0.82575 0.0
O168 O 0.35649 0.82168 0.87719 0.0
C169 C 0.70458 0.86872 0.35099 0.0
O170 O 0.69598 0.88946 0.3397 0.0
O171 O 0.64962 0.9012 0.36749 0.0
Zn172 Zn 0.65162 0.86522 0.35406 0.0
O173 O 0.64852 0.86823 0.31588 0.0
C174 C 0.60581 0.85089 0.38369 0.0
O175 O 0.61295 0.86988 0.39881 0.0
O176 O 0.68823 0.85298 0.36038 0.0
C177 C 0.62759 0.86647 0.30336 0.0
O178 O 0.60601 0.86183 0.31558 0.0
C179 C 0.63037 0.91542 0.3632 0.0
O180 O 0.61 0.90565 0.35174 0.0
O181 O 0.62093 0.84376 0.36586 0.0
C182 C 0.63007 0.04929 0.91126 0.0
O183 O 0.60656 0.05239 0.91982 0.0
O184 O 0.62537 0.09665 0.84785 0.0
Zn185 Zn 0.61983 0.09793 0.88563 0.0
O186 O 0.58218 0.09111 0.89044 0.0
C187 C 0.64743 0.14618 0.8851 0.0
O188 O 0.66371 0.13217 0.87195 0.0
O189 O 0.64081 0.06771 0.89923 0.0
C190 C 0.56803 0.10236 0.90676 0.0
O191 O 0.57829 0.11943 0.92241 0.0
C192 C 0.6142 0.1126 0.83336 0.0
O193 O 0.59851 0.1295 0.84351 0.0
O194 O 0.62825 0.13517 0.89558 0.0
C195 C 0.31321 0.12151 0.39727 0.0
O196 O 0.32604 0.10275 0.40798 0.0
O197 O 0.36759 0.09015 0.37574 0.0
Zn198 Zn 0.36036 0.12722 0.36799 0.0
O199 O 0.35552 0.13006 0.32991 0.0
C200 C 0.40917 0.14191 0.39338 0.0
O201 O 0.40385 0.12279 0.40885 0.0
O202 O 0.32494 0.1365 0.38198 0.0
C203 C 0.37383 0.13361 0.31425 0.0
O204 O 0.39755 0.13519 0.32288 0.0
C205 C 0.3885 0.07954 0.36912 0.0
O206 O 0.406 0.09308 0.35703 0.0
O207 O 0.39217 0.14889 0.37721 0.0
C208 C 0.12788 0.38729 0.19189 0.0
O209 O 0.15058 0.39656 0.18579 0.0
O210 O 0.13403 0.41867 0.13011 0.0
Zn211 Zn 0.12912 0.38108 0.13833 0.0
O212 O 0.16429 0.36546 0.13874 0.0
C213 C 0.09078 0.37917 0.09866 0.0
O214 O 0.08262 0.39941 0.11129 0.0
O215 O 0.11354 0.37833 0.17404 0.0
C216 C 0.17767 0.36734 0.11849 0.0
O217 O 0.16684 0.37645 0.09766 0.0
C218 C 0.15538 0.43049 0.13262 0.0
O219 O 0.17524 0.41854 0.14239 0.0
O220 O 0.10902 0.36615 0.10824 0.0
C221 C 0.1186 0.62447 0.80363 0.0
O222 O 0.13302 0.60568 0.81206 0.0
O223 O 0.10466 0.59585 0.86579 0.0
Zn224 Zn 0.11815 0.63097 0.85692 0.0
O225 O 0.15661 0.62744 0.85652 0.0
C226 C 0.09208 0.65168 0.90233 0.0
O227 O 0.07507 0.63356 0.89746 0.0
O228 O 0.10821 0.63946 0.82002 0.0
C229 C 0.17111 0.63097 0.87587 0.0
O230 O 0.16113 0.63851 0.89774 0.0
C231 C 0.11024 0.58653 0.88758 0.0
O232 O 0.12323 0.60067 0.90408 0.0
O233 O 0.10962 0.65611 0.88586 0.0
C234 C 0.86187 0.59981 0.42678 0.0
O235 O 0.8823 0.58595 0.42186 0.0
O236 O 0.88639 0.66514 0.38641 0.0
Zn237 Zn 0.87886 0.62754 0.38123 0.0
O238 O 0.91359 0.61127 0.38567 0.0
C239 C 0.85874 0.6402 0.33005 0.0
O240 O 0.85299 0.66215 0.34104 0.0
O241 O 0.85519 0.61692 0.41072 0.0
C242 C 0.92754 0.60633 0.36632 0.0
O243 O 0.91793 0.60919 0.3432 0.0
C244 C 0.90167 0.67686 0.37143 0.0
O245 O 0.91163 0.66452 0.35185 0.0
O246 O 0.8669 0.62191 0.34398 0.0
C247 C 0.89273 0.35234 0.96588 0.0
O248 O 0.90941 0.37073 0.96114 0.0
O249 O 0.83495 0.37762 0.91558 0.0
Zn250 Zn 0.87223 0.36792 0.9163 0.0
O251 O 0.89135 0.40117 0.92087 0.0
C252 C 0.86353 0.33779 0.86972 0.0
O253 O 0.84525 0.32718 0.88349 0.0
O254 O 0.87681 0.34581 0.94832 0.0
C255 C 0.89986 0.41382 0.90192 0.0
O256 O 0.89767 0.40409 0.87873 0.0
C257 C 0.82495 0.38708 0.89549 0.0
O258 O 0.83928 0.39116 0.8752 0.0
O259 O 0.87937 0.35308 0.88064 0.0
C260 C 0.10673 0.39635 0.34374 0.0
O261 O 0.08532 0.38451 0.35011 0.0
O262 O 0.07227 0.40838 0.40102 0.0
Zn263 Zn 0.10805 0.39483 0.39685 0.0
O264 O 0.10475 0.35646 0.39575 0.0
C265 C 0.12346 0.42021 0.44486 0.0
O266 O 0.10434 0.43566 0.43952 0.0
O267 O 0.12143 0.40466 0.36162 0.0
C268 C 0.12359 0.34316 0.38799 0.0
O269 O 0.1451 0.35484 0.38164 0.0
C270 C 0.05844 0.39872 0.41858 0.0
O271 O 0.06867 0.38175 0.43404 0.0
O272 O 0.12987 0.40332 0.42836 0.0
C273 C 0.90137 0.64085 0.0822 0.0
O274 O 0.91366 0.61958 0.08751 0.0
O275 O 0.83604 0.62712 0.12624 0.0
Zn276 Zn 0.87436 0.62876 0.12957 0.0
O277 O 0.88637 0.59237 0.12533 0.0
C278 C 0.86722 0.65717 0.17741 0.0
O279 O 0.85032 0.66975 0.16366 0.0
O280 O 0.88611 0.65011 0.09893 0.0
C281 C 0.89135 0.57835 0.14453 0.0
O282 O 0.88991 0.58822 0.16771 0.0
C283 C 0.8222 0.61618 0.14303 0.0
O284 O 0.83327 0.60558 0.16298 0.0
O285 O 0.88168 0.64094 0.16629 0.0
C286 C 0.82886 0.38043 0.62205 0.0
O287 O 0.8244 0.35595 0.62603 0.0
O288 O 0.86443 0.33732 0.65606 0.0
Zn289 Zn 0.86279 0.37454 0.6658 0.0
O290 O 0.89834 0.38807 0.65986 0.0
C291 C 0.84993 0.35862 0.71802 0.0
O292 O 0.84487 0.33669 0.70652 0.0
O293 O 0.84126 0.39317 0.63904 0.0
C294 C 0.9105 0.40342 0.67456 0.0
O295 O 0.89965 0.41156 0.6958 0.0
C296 C 0.88377 0.32407 0.66255 0.0
O297 O 0.90207 0.33479 0.67643 0.0
O298 O 0.85535 0.37815 0.70435 0.0
C299 C 0.13877 0.60156 0.54847 0.0
O300 O 0.11681 0.58938 0.55146 0.0
O301 O 0.12554 0.66529 0.59715 0.0
Zn302 Zn 0.12366 0.62674 0.5963 0.0
O303 O 0.08723 0.61702 0.5877 0.0
C304 C 0.11767 0.62624 0.64981 0.0
O305 O 0.09915 0.64119 0.64175 0.0
O306 O 0.14695 0.61605 0.56657 0.0
C307 C 0.07457 0.59949 0.59893 0.0
O308 O 0.08576 0.58582 0.61682 0.0
C309 C 0.10598 0.67977 0.59812 0.0
O310 O 0.08281 0.66958 0.59771 0.0
O311 O 0.1322 0.61567 0.63312 0.0
C312 C 0.8345 0.87539 0.61167 0.0
O313 O 0.84001 0.8633 0.59026 0.0
O314 O 0.88978 0.83047 0.6276 0.0
Zn315 Zn 0.88871 0.8678 0.61798 0.0
O316 O 0.89351 0.86773 0.57975 0.0
C317 C 0.93766 0.89625 0.62558 0.0
O318 O 0.93407 0.90415 0.60198 0.0
O319 O 0.85279 0.8812 0.6271 0.0
C320 C 0.89092 0.88586 0.56382 0.0
O321 O 0.88562 0.90909 0.57205 0.0
C322 C 0.88056 0.8133 0.61276 0.0
O323 O 0.86921 0.82009 0.59136 0.0
O324 O 0.91998 0.88325 0.63645 0.0
C325 C 0.60459 0.4302 0.15377 0.0
O326 O 0.6265 0.42644 0.16573 0.0
O327 O 0.61828 0.38504 0.08728 0.0
Zn328 Zn 0.61937 0.38398 0.12588 0.0
O329 O 0.65601 0.39022 0.13671 0.0
C330 C 0.62514 0.33106 0.12447 0.0
O331 O 0.64437 0.33999 0.11083 0.0
O332 O 0.59646 0.41313 0.1381 0.0
C333 C 0.66664 0.37918 0.15558 0.0
O334 O 0.65276 0.36432 0.17046 0.0
C335 C 0.63854 0.38583 0.07371 0.0
O336 O 0.66111 0.38733 0.085 0.0
O337 O 0.60984 0.34706 0.13492 0.0
C338 C 0.17654 0.1537 0.63969 0.0
O339 O 0.16724 0.17629 0.6338 0.0
O340 O 0.119 0.18103 0.65435 0.0
Zn341 Zn 0.1236 0.14655 0.63753 0.0
O342 O 0.12234 0.15311 0.59972 0.0
C343 C 0.07492 0.12909 0.66024 0.0
O344 O 0.07761 0.14986 0.67437 0.0
O345 O 0.16078 0.13524 0.64367 0.0
C346 C 0.11333 0.13721 0.58346 0.0
O347 O 0.10399 0.11517 0.59138 0.0
C348 C 0.10461 0.19729 0.64345 0.0
O349 O 0.09069 0.18998 0.62362 0.0
O350 O 0.09327 0.12253 0.64543 0.0
C351 C 0.39985 0.60456 0.13764 0.0
O352 O 0.37619 0.60941 0.14486 0.0
O353 O 0.40117 0.64693 0.06983 0.0
Zn354 Zn 0.3924 0.65049 0.10713 0.0
O355 O 0.35441 0.64463 0.11217 0.0
C356 C 0.38835 0.70292 0.10044 0.0
O357 O 0.37585 0.69238 0.08113 0.0
O358 O 0.41193 0.62143 0.12465 0.0
C359 C 0.33766 0.64452 0.09438 0.0
O360 O 0.34493 0.64781 0.07051 0.0
C361 C 0.40173 0.62536 0.05846 0.0
O362 O 0.39592 0.60448 0.07126 0.0
O363 O 0.39927 0.68816 0.11659 0.0
C364 C 0.90907 0.11616 0.35643 0.0
O365 O 0.90308 0.14026 0.35247 0.0
O366 O 0.86569 0.10423 0.42287 0.0
Zn367 Zn 0.8618 0.11639 0.3867 0.0
O368 O 0.86592 0.15448 0.39014 0.0
C369 C 0.80863 0.09649 0.38672 0.0
O370 O 0.81729 0.08147 0.40491 0.0
O371 O 0.89275 0.10165 0.36756 0.0
C372 C 0.85298 0.1703 0.37702 0.0
O373 O 0.83736 0.16169 0.35905 0.0
C374 C 0.85077 0.11277 0.4401 0.0
O375 O 0.83207 0.12834 0.43372 0.0
O376 O 0.82465 0.11011 0.37415 0.0
C377 C 0.37485 0.30426 0.86427 0.0
O378 O 0.35942 0.3132 0.88208 0.0
O379 O 0.34086 0.35985 0.85997 0.0
Zn380 Zn 0.37944 0.35662 0.86189 0.0
O381 O 0.39063 0.35891 0.89876 0.0
C382 C 0.38398 0.40275 0.83104 0.0
O383 O 0.35975 0.39774 0.82576 0.0
O384 O 0.3875 0.32025 0.85072 0.0
C385 C 0.39687 0.3799 0.90968 0.0
O386 O 0.39558 0.40142 0.89676 0.0
C387 C 0.32758 0.37303 0.87556 0.0
O388 O 0.33927 0.38657 0.89347 0.0
O389 O 0.39693 0.38627 0.84347 0.0
C390 C 0.10897 0.90806 0.3417 0.0
O391 O 0.11292 0.92328 0.36149 0.0
O392 O 0.14708 0.89899 0.39566 0.0
Zn393 Zn 0.15409 0.88207 0.36179 0.0
O394 O 0.15037 0.84397 0.3666 0.0
C395 C 0.20572 0.88155 0.37349 0.0
O396 O 0.19379 0.87339 0.39411 0.0
O397 O 0.12603 0.8915 0.33608 0.0
C398 C 0.1627 0.82903 0.35182 0.0
O399 O 0.17739 0.8389 0.33389 0.0
C400 C 0.12973 0.89019 0.4103 0.0
O401 O 0.11526 0.87103 0.40221 0.0
O402 O 0.19221 0.88805 0.35411 0.0
C403 C 0.63473 0.64638 0.85316 0.0
O404 O 0.65226 0.63341 0.84056 0.0
O405 O 0.66846 0.59766 0.87888 0.0
Zn406 Zn 0.62986 0.59807 0.87992 0.0
O407 O 0.62014 0.59414 0.9169 0.0
C408 C 0.60394 0.54915 0.86931 0.0
O409 O 0.59463 0.55305 0.89239 0.0
O410 O 0.62042 0.63451 0.86902 0.0
C411 C 0.60329 0.60772 0.92805 0.0
O412 O 0.59029 0.6246 0.91472 0.0
C413 C 0.68261 0.58865 0.89652 0.0
O414 O 0.6719 0.57775 0.91652 0.0
O415 O 0.61743 0.56683 0.859 0.0
C416 C 0.63893 0.79939 0.87055 0.0
O417 O 0.648 0.81006 0.84965 0.0
O418 O 0.62323 0.85822 0.84175 0.0
Zn419 Zn 0.61832 0.85084 0.87933 0.0
O420 O 0.58036 0.85192 0.88487 0.0
C421 C 0.64459 0.89941 0.89065 0.0
O422 O 0.65287 0.89672 0.86702 0.0
O423 O 0.62836 0.81364 0.88743 0.0
C424 C 0.56778 0.87125 0.87726 0.0
O425 O 0.58011 0.89026 0.86618 0.0
C426 C 0.6097 0.8461 0.82529 0.0
O427 O 0.5936 0.82828 0.8331 0.0
O428 O 0.63226 0.88089 0.90091 0.0
C429 C 0.56069 0.14636 0.37401 0.0
O430 O 0.56451 0.15145 0.34966 0.0
O431 O 0.60489 0.08238 0.36998 0.0
Zn432 Zn 0.61007 0.12049 0.36839 0.0
O433 O 0.60994 0.12851 0.33051 0.0
C434 C 0.65598 0.11434 0.40041 0.0
O435 O 0.64077 0.09904 0.41347 0.0
O436 O 0.5786 0.13553 0.38667 0.0
C437 C 0.63092 0.13005 0.3181 0.0
O438 O 0.65283 0.12825 0.33052 0.0
C439 C 0.6231 0.06745 0.36389 0.0
O440 O 0.64519 0.07715 0.3564 0.0
O441 O 0.64626 0.1279 0.38265 0.0
C442 C 0.37485 0.15093 0.86795 0.0
O443 O 0.39384 0.14195 0.85403 0.0
O444 O 0.37286 0.09526 0.83457 0.0
Zn445 Zn 0.37105 0.09823 0.87295 0.0
O446 O 0.40697 0.09382 0.88642 0.0
C447 C 0.35488 0.05256 0.9007 0.0
O448 O 0.37694 0.05591 0.91262 0.0
O449 O 0.36042 0.13503 0.87974 0.0
C450 C 0.41524 0.10593 0.90603 0.0
O451 O 0.39947 0.12077 0.91889 0.0
C452 C 0.36506 0.07628 0.82123 0.0
O453 O 0.35542 0.05604 0.83272 0.0
O454 O 0.34727 0.06971 0.88517 0.0
C455 C 0.45373 0.85164 0.37579 0.0
O456 O 0.44748 0.84542 0.35212 0.0
O457 O 0.40749 0.91861 0.38159 0.0
Zn458 Zn 0.40643 0.88121 0.37283 0.0
O459 O 0.40847 0.88019 0.33451 0.0
C460 C 0.35733 0.87832 0.39888 0.0
O461 O 0.36856 0.89409 0.41521 0.0
O462 O 0.43792 0.86467 0.3891 0.0
C463 C 0.39113 0.89316 0.32337 0.0
O464 O 0.37411 0.90531 0.33743 0.0
C465 C 0.42635 0.93211 0.37394 0.0
O466 O 0.44558 0.92076 0.36228 0.0
O467 O 0.3706 0.86814 0.38115 0.0
C468 C 0.65993 0.0776 0.10809 0.0
O469 O 0.66448 0.07947 0.13282 0.0
O470 O 0.59364 0.12118 0.10917 0.0
Zn471 Zn 0.6311 0.1248 0.11684 0.0
O472 O 0.63474 0.12084 0.15496 0.0
C473 C 0.62636 0.17751 0.12114 0.0
O474 O 0.60869 0.16823 0.13656 0.0
O475 O 0.64842 0.09593 0.09687 0.0
C476 C 0.65438 0.12915 0.16699 0.0
O477 O 0.67381 0.13872 0.15403 0.0
C478 C 0.5817 0.10035 0.11347 0.0
O479 O 0.59435 0.08074 0.1228 0.0
O480 O 0.64041 0.16178 0.1087 0.0
C481 C 0.33001 0.16345 0.63432 0.0
O482 O 0.34401 0.17434 0.65238 0.0
O483 O 0.3809 0.12991 0.6617 0.0
Zn484 Zn 0.37688 0.13484 0.6238 0.0
O485 O 0.37669 0.09951 0.60836 0.0
C486 C 0.42911 0.14359 0.61166 0.0
O487 O 0.4287 0.11901 0.61702 0.0
O488 O 0.34062 0.14822 0.61848 0.0
C489 C 0.38606 0.09007 0.58794 0.0
O490 O 0.3994 0.10453 0.57222 0.0
C491 C 0.36962 0.11127 0.67264 0.0
O492 O 0.35541 0.09546 0.65883 0.0
O493 O 0.40808 0.15606 0.61236 0.0
C494 C 0.36653 0.94778 0.09415 0.0
O495 O 0.38679 0.94342 0.07982 0.0
O496 O 0.42157 0.91488 0.11224 0.0
Zn497 Zn 0.38594 0.90393 0.12205 0.0
O498 O 0.38648 0.90354 0.16032 0.0
C499 C 0.37296 0.85556 0.09175 0.0
O500 O 0.36669 0.86954 0.07182 0.0
O501 O 0.3606 0.93154 0.11137 0.0
C502 C 0.40326 0.8895 0.17098 0.0
O503 O 0.41921 0.8764 0.15653 0.0
C504 C 0.43507 0.9045 0.09485 0.0
O505 O 0.42521 0.88573 0.08101 0.0
O506 O 0.37996 0.86655 0.11242 0.0
C507 C 0.6817 0.88698 0.62724 0.0
O508 O 0.67633 0.90501 0.64403 0.0
O509 O 0.62548 0.88189 0.66664 0.0
Zn510 Zn 0.62778 0.88735 0.62834 0.0
O511 O 0.62669 0.92504 0.62138 0.0
C512 C 0.58404 0.853 0.62329 0.0
O513 O 0.59553 0.84197 0.64277 0.0
O514 O 0.66308 0.87499 0.61641 0.0
C515 C 0.60675 0.93823 0.62591 0.0
O516 O 0.58615 0.9268 0.63505 0.0
C517 C 0.62976 0.89917 0.68346 0.0
O518 O 0.6361 0.92243 0.67617 0.0
O519 O 0.59552 0.87143 0.61208 0.0
C520 C 0.87327 0.61481 0.83176 0.0
O521 O 0.85891 0.59594 0.84041 0.0
O522 O 0.84469 0.61145 0.89104 0.0
Zn523 Zn 0.88255 0.61371 0.88398 0.0
O524 O 0.8951 0.57759 0.8813 0.0
C525 C 0.88889 0.64428 0.93087 0.0
O526 O 0.86528 0.65146 0.92568 0.0
O527 O 0.88661 0.62788 0.84785 0.0
C528 C 0.90509 0.56484 0.89941 0.0
O529 O 0.90814 0.57559 0.92208 0.0
C530 C 0.83529 0.59857 0.90943 0.0
O531 O 0.85083 0.58724 0.92566 0.0
O532 O 0.90088 0.63071 0.91442 0.0
C533 C 0.86347 0.37511 0.21813 0.0
O534 O 0.84859 0.39386 0.21045 0.0
O535 O 0.8303 0.37592 0.1608 0.0
Zn536 Zn 0.86867 0.37627 0.16543 0.0
O537 O 0.87958 0.41322 0.16724 0.0
C538 C 0.87349 0.34795 0.11689 0.0
O539 O 0.84938 0.34185 0.12137 0.0
O540 O 0.87574 0.36231 0.2012 0.0
C541 C 0.88815 0.42627 0.14859 0.0
O542 O 0.89069 0.41539 0.12596 0.0
C543 C 0.81918 0.39039 0.14475 0.0
O544 O 0.83315 0.40501 0.12973 0.0
O545 O 0.88614 0.36013 0.13411 0.0
C546 C 0.13409 0.4092 0.59597 0.0
O547 O 0.1405 0.3854 0.60094 0.0
O548 O 0.06955 0.41505 0.64569 0.0
Zn549 Zn 0.10622 0.40409 0.64396 0.0
O550 O 0.1042 0.36606 0.63738 0.0
C551 C 0.10769 0.39915 0.69694 0.0
O552 O 0.08726 0.38595 0.68979 0.0
O553 O 0.12194 0.42191 0.61296 0.0
C554 C 0.11757 0.34949 0.6491 0.0
O555 O 0.13512 0.3571 0.66568 0.0
C556 C 0.0548 0.41035 0.62679 0.0
O557 O 0.06455 0.40018 0.60587 0.0
O558 O 0.12106 0.41027 0.6797 0.0
C559 C 0.11727 0.65869 0.05197 0.0
O560 O 0.14039 0.66841 0.05542 0.0
O561 O 0.12878 0.59101 0.09423 0.0
Zn562 Zn 0.13118 0.62952 0.09735 0.0
O563 O 0.16794 0.6396 0.09041 0.0
C564 C 0.11532 0.62063 0.14988 0.0
O565 O 0.10682 0.59919 0.13951 0.0
O566 O 0.10808 0.6438 0.06903 0.0
C567 C 0.18501 0.63692 0.10765 0.0
O568 O 0.17818 0.62834 0.1303 0.0
C569 C 0.14759 0.57632 0.0895 0.0
O570 O 0.1702 0.58626 0.0842 0.0
O571 O 0.12378 0.63827 0.13519 0.0
C572 C 0.87277 0.61225 0.67822 0.0
O573 O 0.89242 0.62581 0.67008 0.0
O574 O 0.86937 0.64521 0.61882 0.0
Zn575 Zn 0.87189 0.60722 0.62516 0.0
O576 O 0.909 0.59724 0.62509 0.0
C577 C 0.8432 0.6013 0.57752 0.0
O578 O 0.83525 0.62443 0.58347 0.0
O579 O 0.85884 0.6005 0.66162 0.0
C580 C 0.92229 0.59865 0.60476 0.0
O581 O 0.91144 0.60685 0.58356 0.0
C582 C 0.8877 0.66123 0.62154 0.0
O583 O 0.91049 0.6533 0.62882 0.0
O584 O 0.85597 0.58877 0.59416 0.0
C585 C 0.09164 0.37675 0.94712 0.0
O586 O 0.07735 0.39578 0.93904 0.0
O587 O 0.11146 0.42651 0.90681 0.0
Zn588 Zn 0.1227 0.39016 0.90271 0.0
O589 O 0.16135 0.39091 0.90447 0.0
C590 C 0.12246 0.39422 0.84969 0.0
O591 O 0.13758 0.41298 0.85757 0.0
O592 O 0.11019 0.36922 0.93313 0.0
C593 C 0.17501 0.37541 0.89159 0.0
O594 O 0.16366 0.35786 0.87727 0.0
C595 C 0.11852 0.44029 0.92573 0.0
O596 O 0.1324 0.42999 0.94403 0.0
O597 O 0.1123 0.37959 0.86645 0.0
C598 C 0.15718 0.61964 0.3989 0.0
O599 O 0.16591 0.64311 0.39585 0.0
O600 O 0.09379 0.62731 0.34926 0.0
Zn601 Zn 0.13227 0.62976 0.34966 0.0
O602 O 0.14138 0.66705 0.35382 0.0
C603 C 0.12884 0.60202 0.30185 0.0
O604 O 0.11267 0.58812 0.31532 0.0
O605 O 0.14485 0.60898 0.38049 0.0
C606 C 0.161 0.67636 0.34266 0.0
O607 O 0.17585 0.66108 0.32923 0.0
C608 C 0.08 0.61677 0.36634 0.0
O609 O 0.09085 0.60779 0.38719 0.0
O610 O 0.1422 0.61913 0.31331 0.0
C611 C 0.86273 0.36788 0.37168 0.0
O612 O 0.87994 0.3513 0.37954 0.0
O613 O 0.85377 0.32771 0.42075 0.0
Zn614 Zn 0.85647 0.36586 0.4245 0.0
O615 O 0.89329 0.37366 0.43347 0.0
C616 C 0.84079 0.39188 0.47169 0.0
O617 O 0.86154 0.40572 0.46749 0.0
O618 O 0.84879 0.37904 0.38847 0.0
C619 C 0.90613 0.39225 0.42428 0.0
O620 O 0.89488 0.40825 0.4085 0.0
C621 C 0.86756 0.31215 0.43332 0.0
O622 O 0.88336 0.32102 0.45101 0.0
O623 O 0.83351 0.37581 0.4546 0.0
H624 H 0.08114 0.31381 0.39695 0.0
H625 H 0.16042 0.30926 0.37294 0.0
H626 H 0.15634 0.26284 0.36821 0.0
H627 H 0.13055 0.22359 0.37133 0.0
H628 H 0.05134 0.22787 0.39555 0.0
H629 H 0.05512 0.27445 0.39959 0.0
C630 C 0.09755 0.30267 0.39071 0.0
C631 C 0.12108 0.315 0.38538 0.0
C632 C 0.09508 0.27598 0.38797 0.0
C633 C 0.1421 0.30028 0.37722 0.0
C634 C 0.13979 0.27372 0.37447 0.0
C635 C 0.11404 0.23468 0.37737 0.0
C636 C 0.09069 0.22224 0.38312 0.0
C637 C 0.11639 0.26139 0.37982 0.0
C638 C 0.06954 0.23695 0.39099 0.0
C639 C 0.0717 0.26358 0.39336 0.0
H640 H 0.28585 0.60358 0.84957 0.0
H641 H 0.29099 0.6009 0.9322 0.0
H642 H 0.24557 0.61196 0.93556 0.0
H643 H 0.2046 0.62312 0.91505 0.0
H644 H 0.19942 0.62489 0.83242 0.0
H645 H 0.24478 0.61365 0.82909 0.0
C646 C 0.27703 0.60528 0.86833 0.0
C647 C 0.29182 0.60147 0.89058 0.0
C648 C 0.25096 0.61169 0.87014 0.0
C649 C 0.28005 0.60368 0.91473 0.0
C650 C 0.2541 0.61011 0.9167 0.0
C651 C 0.21344 0.62119 0.89633 0.0
C652 C 0.19874 0.62499 0.87403 0.0
C653 C 0.23943 0.61436 0.89453 0.0
C654 C 0.21036 0.62209 0.84989 0.0
C655 C 0.23627 0.61563 0.84795 0.0
H656 H 0.92089 0.79135 0.40631 0.0
H657 H 0.93514 0.79978 0.32536 0.0
H658 H 0.9292 0.75355 0.31895 0.0
H659 H 0.91757 0.71126 0.33608 0.0
H660 H 0.8993 0.70363 0.41636 0.0
H661 H 0.90906 0.74907 0.4234 0.0
C662 C 0.92311 0.78293 0.38737 0.0
C663 C 0.92873 0.7987 0.36636 0.0
C664 C 0.91863 0.7566 0.38371 0.0
C665 C 0.93095 0.78783 0.34179 0.0
C666 C 0.92747 0.76148 0.33813 0.0
C667 C 0.9159 0.71954 0.35513 0.0
C668 C 0.90778 0.7042 0.37568 0.0
C669 C 0.92091 0.74576 0.35889 0.0
C670 C 0.90538 0.71516 0.40022 0.0
C671 C 0.91104 0.74108 0.40427 0.0
H672 H 0.79421 0.3792 0.85436 0.0
H673 H 0.79334 0.40243 0.93386 0.0
H674 H 0.7464 0.40542 0.93263 0.0
H675 H 0.70574 0.39836 0.90989 0.0
H676 H 0.70611 0.37026 0.83197 0.0
H677 H 0.75324 0.37237 0.83141 0.0
C678 C 0.78368 0.38527 0.87125 0.0
C679 C 0.79701 0.39076 0.89413 0.0
C680 C 0.75672 0.38595 0.87065 0.0
C681 C 0.78332 0.39812 0.91609 0.0
C682 C 0.75657 0.39982 0.91537 0.0
C683 C 0.71616 0.39315 0.89264 0.0
C684 C 0.70266 0.38444 0.87089 0.0
C685 C 0.74308 0.39338 0.89289 0.0
C686 C 0.71626 0.37711 0.84886 0.0
C687 C 0.74312 0.37827 0.84858 0.0
H688 H 0.14996 0.7072 0.59216 0.0
H689 H 0.06969 0.71502 0.61144 0.0
H690 H 0.0757 0.76114 0.61772 0.0
H691 H 0.10361 0.79936 0.61681 0.0
H692 H 0.18325 0.79164 0.59528 0.0
H693 H 0.17773 0.74523 0.59113 0.0
C694 C 0.13378 0.71897 0.59777 0.0
C695 C 0.10943 0.70772 0.6013 0.0
C696 C 0.1373 0.74544 0.60109 0.0
C697 C 0.08862 0.72325 0.60844 0.0
C698 C 0.09205 0.7496 0.61215 0.0
C699 C 0.11979 0.78744 0.61151 0.0
C700 C 0.14381 0.79877 0.60646 0.0
C701 C 0.1163 0.7609 0.60847 0.0
C702 C 0.16457 0.78325 0.59922 0.0
C703 C 0.16142 0.75677 0.5968 0.0
H704 H 0.70459 0.62636 0.11616 0.0
H705 H 0.69719 0.59581 0.19262 0.0
H706 H 0.74395 0.5934 0.19639 0.0
H707 H 0.78692 0.6007 0.17821 0.0
H708 H 0.79396 0.63202 0.10201 0.0
H709 H 0.74729 0.63332 0.09794 0.0
C710 C 0.71317 0.6191 0.13365 0.0
C711 C 0.69742 0.6113 0.15408 0.0
C712 C 0.74 0.61792 0.13575 0.0
C713 C 0.70887 0.60199 0.17661 0.0
C714 C 0.73561 0.60059 0.17879 0.0
C715 C 0.77825 0.6077 0.16068 0.0
C716 C 0.79391 0.61625 0.14047 0.0
C717 C 0.75136 0.6086 0.15851 0.0
C718 C 0.78236 0.62538 0.1179 0.0
C719 C 0.75566 0.62613 0.11553 0.0
H720 H 0.90135 0.20582 0.6464 0.0
H721 H 0.83575 0.21502 0.59639 0.0
H722 H 0.8358 0.2611 0.60515 0.0
H723 H 0.85285 0.29822 0.62906 0.0
H724 H 0.91833 0.2887 0.67919 0.0
H725 H 0.91986 0.24317 0.66831 0.0
C726 C 0.88716 0.21791 0.63723 0.0
C727 C 0.86845 0.20697 0.62093 0.0
C728 C 0.88713 0.24426 0.64254 0.0
C729 C 0.85036 0.22294 0.60904 0.0
C730 C 0.85029 0.24928 0.61414 0.0
C731 C 0.86749 0.2862 0.63757 0.0
C732 C 0.88529 0.29677 0.65511 0.0
C733 C 0.8683 0.26004 0.63122 0.0
C734 C 0.90433 0.28102 0.66573 0.0
C735 C 0.90523 0.25498 0.65952 0.0
H736 H 0.29448 0.36606 0.15008 0.0
H737 H 0.29999 0.41265 0.08204 0.0
H738 H 0.25425 0.40624 0.07369 0.0
H739 H 0.21244 0.38903 0.08659 0.0
H740 H 0.20627 0.34387 0.15546 0.0
H741 H 0.25269 0.34766 0.16229 0.0
C742 C 0.28569 0.37484 0.13344 0.0
C743 C 0.30063 0.38996 0.11683 0.0
C744 C 0.25933 0.37112 0.12874 0.0
C745 C 0.28894 0.40105 0.09525 0.0
C746 C 0.26278 0.39732 0.09038 0.0
C747 C 0.22129 0.3796 0.10285 0.0
C748 C 0.20597 0.36611 0.12045 0.0
C749 C 0.24779 0.38251 0.10706 0.0
C750 C 0.2177 0.35432 0.14161 0.0
C751 C 0.24419 0.35662 0.14561 0.0
H752 H 0.33325 0.14934 0.20124 0.0
H753 H 0.41365 0.13736 0.18489 0.0
H754 H 0.42264 0.13229 0.23046 0.0
H755 H 0.40786 0.13149 0.27499 0.0
H756 H 0.3273 0.14193 0.29151 0.0
H757 H 0.31822 0.14732 0.24588 0.0
C758 C 0.35272 0.14565 0.20767 0.0
C759 C 0.37273 0.14381 0.18971 0.0
C760 C 0.35776 0.14246 0.23394 0.0
C761 C 0.39785 0.1388 0.19831 0.0
C762 C 0.40306 0.13594 0.22438 0.0
C763 C 0.38832 0.13497 0.26861 0.0
C764 C 0.36833 0.13641 0.2866 0.0
C765 C 0.38318 0.13778 0.24236 0.0
C766 C 0.34306 0.1407 0.27802 0.0
C767 C 0.33784 0.14383 0.25194 0.0
H768 H 0.33978 0.89603 0.70597 0.0
H769 H 0.42083 0.88797 0.69021 0.0
H770 H 0.4292 0.87984 0.73548 0.0
H771 H 0.4135 0.87391 0.77919 0.0
H772 H 0.33238 0.88078 0.79511 0.0
H773 H 0.32407 0.89048 0.75004 0.0
C774 C 0.35929 0.89267 0.71247 0.0
C775 C 0.37964 0.89263 0.69474 0.0
C776 C 0.36396 0.88767 0.73849 0.0
C777 C 0.4048 0.88806 0.70344 0.0
C778 C 0.40962 0.8834 0.72932 0.0
C779 C 0.39399 0.87759 0.77286 0.0
C780 C 0.3736 0.87657 0.79049 0.0
C781 C 0.38933 0.88296 0.74696 0.0
C782 C 0.34843 0.88135 0.78192 0.0
C783 C 0.34366 0.88693 0.75616 0.0
H784 H 0.61131 0.87687 0.18391 0.0
H785 H 0.69338 0.88971 0.18739 0.0
H786 H 0.69246 0.88555 0.23394 0.0
H787 H 0.66871 0.87717 0.27338 0.0
H788 H 0.58673 0.86372 0.27022 0.0
H789 H 0.58731 0.86921 0.2237 0.0
C790 C 0.62897 0.87892 0.19486 0.0
C791 C 0.65238 0.88355 0.18219 0.0
C792 C 0.62836 0.87626 0.22162 0.0
C793 C 0.67511 0.88608 0.19665 0.0
C794 C 0.67462 0.88367 0.22328 0.0
C795 C 0.65093 0.87544 0.26256 0.0
C796 C 0.62773 0.86995 0.27525 0.0
C797 C 0.6514 0.87855 0.23591 0.0
C798 C 0.60487 0.86787 0.26092 0.0
C799 C 0.60518 0.87102 0.23432 0.0
H800 H 0.59389 0.14396 0.79713 0.0
H801 H 0.64679 0.08124 0.80725 0.0
H802 H 0.65638 0.08142 0.76156 0.0
H803 H 0.64977 0.09913 0.71884 0.0
H804 H 0.59663 0.16149 0.70817 0.0
H805 H 0.5872 0.16173 0.75407 0.0
C806 C 0.60749 0.13031 0.78934 0.0
C807 C 0.61957 0.11261 0.80558 0.0
C808 C 0.61294 0.13047 0.763 0.0
C809 C 0.63717 0.09506 0.79518 0.0
C810 C 0.64271 0.09515 0.76905 0.0
C811 C 0.63618 0.11285 0.72653 0.0
C812 C 0.62395 0.13027 0.71014 0.0
C813 C 0.63073 0.11276 0.75281 0.0
C814 C 0.60631 0.14785 0.72041 0.0
C815 C 0.60089 0.14799 0.74663 0.0
H816 H 0.85444 0.77315 0.59217 0.0
H817 H 0.91496 0.79207 0.64599 0.0
H818 H 0.92293 0.74649 0.65301 0.0
H819 H 0.91328 0.70129 0.6431 0.0
H820 H 0.85134 0.68253 0.5909 0.0
H821 H 0.84341 0.72811 0.58387 0.0
C822 C 0.86933 0.76729 0.60549 0.0
C823 C 0.88418 0.78589 0.61843 0.0
C824 C 0.87364 0.74113 0.6096 0.0
C825 C 0.90321 0.77807 0.63585 0.0
C826 C 0.90787 0.75204 0.63978 0.0
C827 C 0.89813 0.70723 0.63012 0.0
C828 C 0.88306 0.6887 0.61735 0.0
C829 C 0.89334 0.73342 0.62659 0.0
C830 C 0.86319 0.69654 0.60092 0.0
C831 C 0.85866 0.72255 0.59689 0.0
H832 H 0.78531 0.36745 0.17707 0.0
H833 H 0.78933 0.41577 0.11016 0.0
H834 H 0.74246 0.41764 0.10853 0.0
H835 H 0.70051 0.40482 0.12545 0.0
H836 H 0.69632 0.35625 0.19217 0.0
H837 H 0.74323 0.35551 0.19468 0.0
C838 C 0.77595 0.37836 0.16209 0.0
C839 C 0.7908 0.39133 0.14367 0.0
C840 C 0.74901 0.37944 0.16132 0.0
C841 C 0.77836 0.40555 0.12453 0.0
C842 C 0.75156 0.40666 0.1236 0.0
C843 C 0.7098 0.39421 0.14068 0.0
C844 C 0.6949 0.38056 0.15857 0.0
C845 C 0.73672 0.39362 0.14184 0.0
C846 C 0.70731 0.36693 0.17816 0.0
C847 C 0.73414 0.36641 0.17955 0.0
H848 H 0.08313 0.23736 0.61851 0.0
H849 H 0.13219 0.21907 0.68273 0.0
H850 H 0.14057 0.26465 0.69013 0.0
H851 H 0.13556 0.30955 0.6771 0.0
H852 H 0.08682 0.32756 0.61254 0.0
H853 H 0.07695 0.28216 0.60644 0.0
C854 C 0.09543 0.24331 0.63433 0.0
C855 C 0.10705 0.22482 0.64999 0.0
C856 C 0.10051 0.26948 0.63821 0.0
C857 C 0.12298 0.23291 0.67036 0.0
C858 C 0.1279 0.25896 0.67454 0.0
C859 C 0.12285 0.30354 0.66165 0.0
C860 C 0.11211 0.3219 0.6452 0.0
C861 C 0.11711 0.27739 0.65831 0.0
C862 C 0.09544 0.31381 0.62544 0.0
C863 C 0.08972 0.28785 0.62195 0.0
H864 H 0.22604 0.63016 0.13916 0.0
H865 H 0.2057 0.65193 0.06195 0.0
H866 H 0.25115 0.6558 0.05094 0.0
H867 H 0.29665 0.6524 0.06303 0.0
H868 H 0.31685 0.63093 0.14035 0.0
H869 H 0.27143 0.62741 0.15142 0.0
C870 C 0.23151 0.63587 0.11995 0.0
C871 C 0.21249 0.64072 0.10143 0.0
C872 C 0.25766 0.63796 0.1137 0.0
C873 C 0.21995 0.6481 0.07661 0.0
C874 C 0.24594 0.65025 0.07026 0.0
C875 C 0.29112 0.64686 0.08228 0.0
C876 C 0.31012 0.64187 0.1008 0.0
C877 C 0.26495 0.64506 0.0886 0.0
C878 C 0.30262 0.6349 0.12572 0.0
C879 C 0.27664 0.6329 0.13209 0.0
H880 H 0.87896 0.19298 0.41638 0.0
H881 H 0.82892 0.20961 0.35241 0.0
H882 H 0.82872 0.2549 0.36457 0.0
H883 H 0.84229 0.28952 0.39354 0.0
H884 H 0.8923 0.27298 0.45754 0.0
H885 H 0.89279 0.22771 0.44521 0.0
C886 C 0.86811 0.2065 0.40498 0.0
C887 C 0.85398 0.19791 0.38349 0.0
C888 C 0.86791 0.23245 0.41218 0.0
C889 C 0.83996 0.2157 0.36903 0.0
C890 C 0.83979 0.24159 0.376 0.0
C891 C 0.85321 0.27603 0.4049 0.0
C892 C 0.86716 0.28461 0.42651 0.0
C893 C 0.85356 0.25012 0.39762 0.0
C894 C 0.88135 0.26687 0.44087 0.0
C895 C 0.88169 0.241 0.4338 0.0
H896 H 0.20904 0.35138 0.86037 0.0
H897 H 0.20459 0.4053 0.92332 0.0
H898 H 0.25135 0.40981 0.92351 0.0
H899 H 0.29352 0.39813 0.90608 0.0
H900 H 0.29779 0.34455 0.8428 0.0
H901 H 0.25107 0.34041 0.84239 0.0
C902 C 0.21829 0.36406 0.8742 0.0
C903 C 0.20335 0.37787 0.89188 0.0
C904 C 0.24515 0.36673 0.87408 0.0
C905 C 0.21564 0.39441 0.90951 0.0
C906 C 0.24238 0.39702 0.90963 0.0
C907 C 0.28424 0.38562 0.89213 0.0
C908 C 0.29917 0.37165 0.87455 0.0
C909 C 0.25733 0.38326 0.89201 0.0
C910 C 0.2868 0.35556 0.85657 0.0
C911 C 0.26006 0.35311 0.85634 0.0
H912 H 0.19087 0.79261 0.32767 0.0
H913 H 0.12889 0.80231 0.38174 0.0
H914 H 0.12358 0.75582 0.38445 0.0
H915 H 0.13549 0.71255 0.37023 0.0
H916 H 0.19767 0.70299 0.31634 0.0
H917 H 0.20403 0.74935 0.31497 0.0
C918 C 0.17622 0.78458 0.34009 0.0
C919 C 0.16017 0.8009 0.35432 0.0
C920 C 0.1733 0.75787 0.3416 0.0
C921 C 0.14146 0.79016 0.37052 0.0
C922 C 0.13839 0.76358 0.37207 0.0
C923 C 0.15052 0.72058 0.35827 0.0
C924 C 0.16596 0.70431 0.34328 0.0
C925 C 0.15405 0.74727 0.35751 0.0
C926 C 0.18547 0.71505 0.32804 0.0
C927 C 0.18909 0.74158 0.32718 0.0
H928 H 0.79923 0.6136 0.87518 0.0
H929 H 0.80814 0.57552 0.94796 0.0
H930 H 0.76163 0.56873 0.95027 0.0
H931 H 0.71848 0.57351 0.93144 0.0
H932 H 0.71018 0.61131 0.85837 0.0
H933 H 0.7565 0.61814 0.85636 0.0
C934 C 0.79103 0.60392 0.89164 0.0
C935 C 0.80713 0.59516 0.91141 0.0
C936 C 0.7644 0.59989 0.89273 0.0
C937 C 0.79617 0.58248 0.93249 0.0
C938 C 0.76959 0.57856 0.93381 0.0
C939 C 0.7268 0.58317 0.91504 0.0
C940 C 0.71085 0.59185 0.89509 0.0
C941 C 0.75352 0.58712 0.91399 0.0
C942 C 0.72198 0.60437 0.87399 0.0
C943 C 0.74848 0.60836 0.87282 0.0
H944 H 0.63153 0.8883 0.80393 0.0
H945 H 0.59248 0.81741 0.78483 0.0
H946 H 0.59551 0.82745 0.73924 0.0
H947 H 0.60898 0.85645 0.70485 0.0
H948 H 0.64668 0.92807 0.72399 0.0
H949 H 0.64437 0.91766 0.76954 0.0
C950 C 0.62379 0.875 0.78978 0.0
C951 C 0.61189 0.8521 0.79773 0.0
C952 C 0.62527 0.88105 0.76362 0.0
C953 C 0.6017 0.83518 0.7792 0.0
C954 C 0.60344 0.84089 0.75313 0.0
C955 C 0.61674 0.86976 0.71897 0.0
C956 C 0.62805 0.89296 0.71103 0.0
C957 C 0.61514 0.86379 0.74513 0.0
C958 C 0.63782 0.9101 0.72959 0.0
C959 C 0.63656 0.90415 0.75564 0.0
H960 H 0.61322 0.1251 0.1985 0.0
H961 H 0.69566 0.13523 0.19897 0.0
H962 H 0.69554 0.13722 0.24584 0.0
H963 H 0.67206 0.1356 0.28657 0.0
H964 H 0.58944 0.12659 0.28593 0.0
H965 H 0.58959 0.12496 0.23913 0.0
C966 C 0.63119 0.1276 0.20886 0.0
C967 C 0.65445 0.12977 0.19531 0.0
C968 C 0.63092 0.12913 0.23572 0.0
C969 C 0.67752 0.13342 0.20897 0.0
C970 C 0.67745 0.13459 0.23576 0.0
C971 C 0.65405 0.13341 0.27621 0.0
C972 C 0.63078 0.13113 0.28976 0.0
C973 C 0.65427 0.13246 0.24931 0.0
C974 C 0.60762 0.12843 0.276 0.0
C975 C 0.6077 0.12738 0.24923 0.0
H976 H 0.35209 0.07119 0.70096 0.0
H977 H 0.39271 0.14347 0.70722 0.0
H978 H 0.39564 0.13844 0.75361 0.0
H979 H 0.3856 0.11431 0.79239 0.0
H980 H 0.34511 0.04195 0.78648 0.0
H981 H 0.34339 0.04619 0.73985 0.0
C982 C 0.36162 0.08583 0.71246 0.0
C983 C 0.37203 0.10774 0.70064 0.0
C984 C 0.36329 0.08281 0.73915 0.0
C985 C 0.38449 0.12643 0.71581 0.0
C986 C 0.38617 0.12359 0.74235 0.0
C987 C 0.37648 0.09938 0.78093 0.0
C988 C 0.36538 0.07791 0.79293 0.0
C989 C 0.37548 0.10197 0.75422 0.0
C990 C 0.35378 0.0587 0.77775 0.0
C991 C 0.35273 0.06113 0.75108 0.0
H992 H 0.37187 0.91219 0.20573 0.0
H993 H 0.43774 0.86252 0.19961 0.0
H994 H 0.43983 0.85923 0.24626 0.0
H995 H 0.42291 0.87042 0.28878 0.0
H996 H 0.35686 0.91992 0.29459 0.0
H997 H 0.35494 0.92325 0.24803 0.0
C998 C 0.38672 0.90066 0.21457 0.0
C999 C 0.40462 0.88765 0.19921 0.0
C1000 C 0.38778 0.89878 0.24135 0.0
C1001 C 0.4237 0.87275 0.21099 0.0
C1002 C 0.42492 0.87084 0.23767 0.0
C1003 C 0.4081 0.88193 0.27986 0.0
C1004 C 0.39008 0.89489 0.29514 0.0
C1005 C 0.40705 0.88377 0.25303 0.0
C1006 C 0.37099 0.90972 0.28329 0.0
C1007 C 0.36986 0.91166 0.25665 0.0
H1008 H 0.09414 0.10884 0.54369 0.0
H1009 H 0.13448 0.1795 0.5612 0.0
H1010 H 0.13728 0.18931 0.51568 0.0
H1011 H 0.12922 0.17753 0.47098 0.0
H1012 H 0.08872 0.10715 0.45299 0.0
H1013 H 0.08498 0.0976 0.49868 0.0
C1014 C 0.1035 0.1264 0.53755 0.0
C1015 C 0.11418 0.14332 0.55583 0.0
C1016 C 0.10505 0.13198 0.51128 0.0
C1017 C 0.12612 0.16608 0.54755 0.0
C1018 C 0.12777 0.17173 0.52151 0.0
C1019 C 0.11954 0.1601 0.47701 0.0
C1020 C 0.10939 0.14303 0.45862 0.0
C1021 C 0.11745 0.15475 0.50323 0.0
C1022 C 0.09674 0.12062 0.46678 0.0
C1023 C 0.09462 0.11512 0.4929 0.0
H1024 H 0.4204 0.64157 0.94052 0.0
H1025 H 0.392 0.56366 0.93802 0.0
H1026 H 0.39165 0.56224 0.98485 0.0
H1027 H 0.3951 0.58466 0.02625 0.0
H1028 H 0.42081 0.66355 0.02838 0.0
H1029 H 0.42658 0.66302 0.98198 0.0
C1030 C 0.41465 0.6241 0.95022 0.0
C1031 C 0.40617 0.60279 0.93587 0.0
C1032 C 0.41365 0.62373 0.97709 0.0
C1033 C 0.39852 0.58036 0.9487 0.0
C1034 C 0.39821 0.57957 0.97546 0.0
C1035 C 0.40224 0.60164 0.0166 0.0
C1036 C 0.40728 0.62416 0.03071 0.0
C1037 C 0.40502 0.60139 0.98983 0.0
C1038 C 0.41654 0.64602 0.01793 0.0
C1039 C 0.41988 0.64574 0.99139 0.0
H1040 H 0.88883 0.84205 0.45112 0.0
H1041 H 0.9072 0.92077 0.43349 0.0
H1042 H 0.90632 0.93178 0.47921 0.0
H1043 H 0.89996 0.91883 0.52432 0.0
H1044 H 0.88399 0.83935 0.54126 0.0
H1045 H 0.88432 0.82886 0.49574 0.0
C1046 C 0.89256 0.86164 0.45728 0.0
C1047 C 0.89786 0.88061 0.43903 0.0
C1048 C 0.89249 0.86768 0.48349 0.0
C1049 C 0.90308 0.90582 0.44726 0.0
C1050 C 0.90253 0.91213 0.47337 0.0
C1051 C 0.89655 0.89926 0.51798 0.0
C1052 C 0.89188 0.87995 0.53612 0.0
C1053 C 0.8972 0.8932 0.49167 0.0
C1054 C 0.88775 0.85458 0.5277 0.0
C1055 C 0.88785 0.84854 0.50165 0.0
H1056 H 0.61253 0.36682 0.95709 0.0
H1057 H 0.6926 0.34531 0.95639 0.0
H1058 H 0.69631 0.35614 0.00184 0.0
H1059 H 0.67673 0.37105 0.04183 0.0
H1060 H 0.59634 0.39116 0.04302 0.0
H1061 H 0.59292 0.38178 0.99715 0.0
C1062 C 0.63079 0.36449 0.96688 0.0
C1063 C 0.65222 0.35521 0.95341 0.0
C1064 C 0.63278 0.37062 0.99302 0.0
C1065 C 0.67575 0.35225 0.96636 0.0
C1066 C 0.67793 0.35854 0.99233 0.0
C1067 C 0.65852 0.37362 0.03201 0.0
C1068 C 0.63684 0.38187 0.04573 0.0
C1069 C 0.65657 0.36771 0.00583 0.0
C1070 C 0.6133 0.38482 0.03283 0.0
C1071 C 0.61132 0.37941 0.00664 0.0
H1072 H 0.15014 0.9294 0.52279 0.0
H1073 H 0.10067 0.86475 0.53922 0.0
H1074 H 0.09291 0.85814 0.49359 0.0
H1075 H 0.10332 0.86804 0.4491 0.0
H1076 H 0.15446 0.93123 0.43222 0.0
H1077 H 0.15806 0.94131 0.47789 0.0
C1078 C 0.13742 0.91408 0.51638 0.0
C1079 C 0.12627 0.89743 0.53434 0.0
C1080 C 0.13339 0.91005 0.49002 0.0
C1081 C 0.10978 0.87767 0.52576 0.0
C1082 C 0.10528 0.87387 0.49966 0.0
C1083 C 0.11493 0.88427 0.45535 0.0
C1084 C 0.12878 0.89869 0.43733 0.0
C1085 C 0.11746 0.88955 0.48162 0.0
C1086 C 0.14374 0.91968 0.44576 0.0
C1087 C 0.14588 0.92543 0.47187 0.0
H1088 H 0.62671 0.57452 0.96033 0.0
H1089 H 0.57431 0.63844 0.95914 0.0
H1090 H 0.57426 0.63966 0.00598 0.0
H1091 H 0.59179 0.62482 0.04699 0.0
H1092 H 0.64474 0.56135 0.048 0.0
H1093 H 0.64174 0.55767 0.00141 0.0
C1094 C 0.61507 0.58858 0.97028 0.0
C1095 C 0.60076 0.60654 0.95625 0.0
C1096 C 0.61536 0.58938 0.99716 0.0
C1097 C 0.5856 0.62446 0.96947 0.0
C1098 C 0.58563 0.62524 0.99626 0.0
C1099 C 0.60252 0.61004 0.03705 0.0
C1100 C 0.61869 0.59358 0.05093 0.0
C1101 C 0.60087 0.60815 0.01026 0.0
C1102 C 0.63227 0.57438 0.03778 0.0
C1103 C 0.6306 0.57228 0.01113 0.0
H1104 H 0.81508 0.10689 0.47709 0.0
H1105 H 0.89678 0.10486 0.46347 0.0
H1106 H 0.9048 0.0994 0.50939 0.0
H1107 H 0.88852 0.09879 0.55371 0.0
H1108 H 0.8066 0.09836 0.56683 0.0
H1109 H 0.79867 0.10079 0.52078 0.0
C1110 C 0.83459 0.10502 0.48424 0.0
C1111 C 0.85533 0.10661 0.46718 0.0
C1112 C 0.839 0.10146 0.5105 0.0
C1113 C 0.88054 0.10372 0.4764 0.0
C1114 C 0.88513 0.1007 0.50261 0.0
C1115 C 0.86896 0.09888 0.54641 0.0
C1116 C 0.8482 0.09869 0.56357 0.0
C1117 C 0.86452 0.10006 0.51989 0.0
C1118 C 0.82292 0.09847 0.55396 0.0
C1119 C 0.81835 0.10003 0.52765 0.0
H1120 H 0.39695 0.42064 0.9423 0.0
H1121 H 0.41235 0.33946 0.93859 0.0
H1122 H 0.42082 0.3389 0.98466 0.0
H1123 H 0.42017 0.36064 0.02644 0.0
H1124 H 0.40128 0.44098 0.03072 0.0
H1125 H 0.39826 0.44285 0.98394 0.0
C1126 C 0.40246 0.4029 0.95154 0.0
C1127 C 0.40389 0.38011 0.93712 0.0
C1128 C 0.40666 0.40258 0.97813 0.0
C1129 C 0.41091 0.35722 0.94934 0.0
C1130 C 0.4158 0.35689 0.97567 0.0
C1131 C 0.41592 0.37866 0.01708 0.0
C1132 C 0.41099 0.40065 0.0319 0.0
C1133 C 0.41324 0.37934 0.99032 0.0
C1134 C 0.4051 0.4238 0.01961 0.0
C1135 C 0.40328 0.42485 0.99292 0.0
H1136 H 0.551 0.13689 0.09323 0.0
H1137 H 0.54919 0.06077 0.12542 0.0
H1138 H 0.50229 0.06024 0.12268 0.0
H1139 H 0.46186 0.08264 0.11405 0.0
H1140 H 0.46389 0.15915 0.08272 0.0
H1141 H 0.51077 0.15812 0.082 0.0
C1142 C 0.54039 0.12009 0.0995 0.0
C1143 C 0.55356 0.09901 0.10977 0.0
C1144 C 0.51349 0.12 0.09808 0.0
C1145 C 0.53952 0.07731 0.11757 0.0
C1146 C 0.5127 0.077 0.11604 0.0
C1147 C 0.47253 0.099 0.10682 0.0
C1148 C 0.4594 0.12103 0.09868 0.0
C1149 C 0.49948 0.09843 0.10677 0.0
C1150 C 0.47352 0.142 0.08924 0.0
C1151 C 0.50033 0.14147 0.08887 0.0
H1152 H 0.39862 0.9706 0.57892 0.0
H1153 H 0.32541 0.97345 0.61774 0.0
H1154 H 0.32505 0.01999 0.61407 0.0
H1155 H 0.34712 0.05991 0.60332 0.0
H1156 H 0.41982 0.05794 0.5638 0.0
H1157 H 0.41863 0.0109 0.56384 0.0
C1158 C 0.38252 0.98143 0.58638 0.0
C1159 C 0.36226 0.96865 0.59891 0.0
C1160 C 0.38235 0.00826 0.58408 0.0
C1161 C 0.3413 0.98283 0.60813 0.0
C1162 C 0.34109 0.00946 0.60609 0.0
C1163 C 0.36255 0.04915 0.59442 0.0
C1164 C 0.38367 0.06221 0.58385 0.0
C1165 C 0.36174 0.02235 0.59462 0.0
C1166 C 0.40336 0.0482 0.57203 0.0
C1167 C 0.40276 0.02136 0.57223 0.0
H1168 H 0.47183 0.88002 0.06712 0.0
H1169 H 0.46025 0.94406 0.11858 0.0
H1170 H 0.50653 0.95137 0.1209 0.0
H1171 H 0.55025 0.93661 0.11227 0.0
H1172 H 0.56199 0.87162 0.06206 0.0
H1173 H 0.51571 0.86791 0.05507 0.0
C1174 C 0.4794 0.89582 0.07851 0.0
C1175 C 0.46263 0.91121 0.09293 0.0
C1176 C 0.50609 0.89964 0.08017 0.0
C1177 C 0.47275 0.93171 0.10751 0.0
C1178 C 0.49923 0.93591 0.1089 0.0
C1179 C 0.54274 0.92185 0.09951 0.0
C1180 C 0.55952 0.90421 0.08803 0.0
C1181 C 0.51609 0.91951 0.09594 0.0
C1182 C 0.54947 0.88533 0.07136 0.0
C1183 C 0.52299 0.88314 0.06738 0.0
H1184 H 0.59748 0.0586 0.62746 0.0
H1185 H 0.67274 0.05234 0.59324 0.0
H1186 H 0.66903 0.00563 0.59356 0.0
H1187 H 0.64534 0.96671 0.60538 0.0
H1188 H 0.57009 0.97298 0.63964 0.0
H1189 H 0.57288 0.01967 0.63732 0.0
C1190 C 0.61305 0.04705 0.61996 0.0
C1191 C 0.63544 0.05895 0.61051 0.0
C1192 C 0.61083 0.02024 0.62025 0.0
C1193 C 0.65532 0.04368 0.60067 0.0
C1194 C 0.65324 0.01697 0.60089 0.0
C1195 C 0.62947 0.97826 0.61223 0.0
C1196 C 0.60761 0.96637 0.62284 0.0
C1197 C 0.63122 0.00507 0.61092 0.0
C1198 C 0.58716 0.98163 0.63144 0.0
C1199 C 0.58876 0.00834 0.63017 0.0
H1200 H 0.44764 0.88355 0.87075 0.0
H1201 H 0.45042 0.8164 0.91875 0.0
H1202 H 0.49739 0.81834 0.91883 0.0
H1203 H 0.53754 0.838 0.90365 0.0
H1204 H 0.53453 0.90538 0.85595 0.0
H1205 H 0.48763 0.90448 0.85748 0.0
C1206 C 0.45849 0.86938 0.88133 0.0
C1207 C 0.44557 0.84974 0.89456 0.0
C1208 C 0.48541 0.87061 0.88128 0.0
C1209 C 0.45991 0.83169 0.90838 0.0
C1210 C 0.48676 0.83275 0.90838 0.0
C1211 C 0.52663 0.85255 0.89367 0.0
C1212 C 0.5395 0.8716 0.87954 0.0
C1213 C 0.49969 0.85194 0.89464 0.0
C1214 C 0.52511 0.89047 0.86692 0.0
C1215 C 0.49829 0.88995 0.86774 0.0
H1216 H 0.59202 0.95056 0.36181 0.0
H1217 H 0.67377 0.94291 0.37414 0.0
H1218 H 0.67856 0.98939 0.37594 0.0
H1219 H 0.66006 0.03218 0.37125 0.0
H1220 H 0.57825 0.04027 0.36047 0.0
H1221 H 0.57292 0.99361 0.36082 0.0
C1222 C 0.61083 0.95908 0.36513 0.0
C1223 C 0.63251 0.94332 0.36757 0.0
C1224 C 0.61348 0.98586 0.36619 0.0
C1225 C 0.65674 0.9546 0.37217 0.0
C1226 C 0.65955 0.98119 0.37307 0.0
C1227 C 0.64108 0.02369 0.36901 0.0
C1228 C 0.61964 0.03948 0.36547 0.0
C1229 C 0.63814 0.99698 0.3696 0.0
C1230 C 0.59505 0.02838 0.36312 0.0
C1231 C 0.59201 0.00175 0.36329 0.0
H1232 H 0.45191 0.07627 0.88427 0.0
H1233 H 0.44095 0.13504 0.94177 0.0
H1234 H 0.48741 0.13791 0.94845 0.0
H1235 H 0.53128 0.12609 0.93543 0.0
H1236 H 0.54169 0.06776 0.87729 0.0
H1237 H 0.49531 0.06235 0.87353 0.0
C1238 C 0.45963 0.08956 0.89844 0.0
C1239 C 0.44299 0.10559 0.9123 0.0
C1240 C 0.48631 0.09133 0.90196 0.0
C1241 C 0.45333 0.12253 0.93076 0.0
C1242 C 0.47991 0.12426 0.93453 0.0
C1243 C 0.52341 0.11203 0.92212 0.0
C1244 C 0.53997 0.09758 0.90649 0.0
C1245 C 0.49661 0.10912 0.91985 0.0
C1246 C 0.52943 0.07932 0.88943 0.0
C1247 C 0.50287 0.07619 0.88723 0.0
H1248 H 0.38682 0.96101 0.39156 0.0
H1249 H 0.46243 0.96676 0.35794 0.0
H1250 H 0.45786 0.0132 0.35469 0.0
H1251 H 0.43123 0.05168 0.35865 0.0
H1252 H 0.35528 0.04567 0.39149 0.0
H1253 H 0.36123 0.99976 0.39781 0.0
C1254 C 0.40244 0.97242 0.38378 0.0
C1255 C 0.42486 0.96039 0.37483 0.0
C1256 C 0.39954 0.99903 0.38161 0.0
C1257 C 0.44492 0.97551 0.36487 0.0
C1258 C 0.44229 0.00206 0.36293 0.0
C1259 C 0.41601 0.04037 0.36731 0.0
C1260 C 0.39276 0.05206 0.37435 0.0
C1261 C 0.41949 0.01395 0.37076 0.0
C1262 C 0.37333 0.03714 0.38575 0.0
C1263 C 0.3767 0.01088 0.38938 0.0
H1264 H 0.11745 0.46282 0.11759 0.0
H1265 H 0.19978 0.45794 0.12734 0.0
H1266 H 0.20473 0.50201 0.11265 0.0
H1267 H 0.18565 0.5424 0.09872 0.0
H1268 H 0.10323 0.54816 0.09097 0.0
H1269 H 0.09839 0.50312 0.10286 0.0
C1270 C 0.13648 0.47138 0.11644 0.0
C1271 C 0.15818 0.45717 0.12369 0.0
C1272 C 0.13919 0.49682 0.10822 0.0
C1273 C 0.18271 0.46853 0.1221 0.0
C1274 C 0.18559 0.4937 0.1136 0.0
C1275 C 0.16665 0.53371 0.09928 0.0
C1276 C 0.14484 0.54853 0.09391 0.0
C1277 C 0.16396 0.50807 0.1068 0.0
C1278 C 0.12032 0.53711 0.09504 0.0
C1279 C 0.11753 0.5114 0.10191 0.0
H1280 H 0.12323 0.56052 0.93057 0.0
H1281 H 0.08559 0.55128 0.85712 0.0
H1282 H 0.08223 0.50512 0.86401 0.0
H1283 H 0.09408 0.46721 0.88868 0.0
H1284 H 0.13342 0.47621 0.96127 0.0
H1285 H 0.13171 0.52279 0.95702 0.0
C1286 C 0.114 0.54848 0.91619 0.0
C1287 C 0.10499 0.55928 0.89321 0.0
C1288 C 0.11258 0.52192 0.92004 0.0
C1289 C 0.09288 0.54342 0.87488 0.0
C1290 C 0.091 0.51702 0.87878 0.0
C1291 C 0.102 0.47933 0.90377 0.0
C1292 C 0.11418 0.46825 0.9251 0.0
C1293 C 0.10143 0.50602 0.90095 0.0
C1294 C 0.12413 0.48424 0.94455 0.0
C1295 C 0.12322 0.51088 0.9421 0.0
H1296 H 0.04355 0.60222 0.40087 0.0
H1297 H 0.0538 0.62442 0.32183 0.0
H1298 H 0.00773 0.62031 0.31432 0.0
H1299 H 0.96445 0.61282 0.33056 0.0
H1300 H 0.9533 0.59298 0.41003 0.0
H1301 H 0.99988 0.59329 0.41688 0.0
C1302 C 0.03569 0.60605 0.382 0.0
C1303 C 0.05206 0.61381 0.36203 0.0
C1304 C 0.00906 0.60395 0.37783 0.0
C1305 C 0.04161 0.61869 0.33764 0.0
C1306 C 0.01526 0.61624 0.33327 0.0
C1307 C 0.97218 0.60815 0.3493 0.0
C1308 C 0.95548 0.60287 0.36975 0.0
C1309 C 0.99881 0.60916 0.35327 0.0
C1310 C 0.96581 0.59712 0.39398 0.0
C1311 C 0.99241 0.59741 0.39793 0.0
H1312 H 0.91291 0.5287 0.93597 0.0
H1313 H 0.90816 0.53908 0.85399 0.0
H1314 H 0.90985 0.49281 0.84742 0.0
H1315 H 0.90728 0.44956 0.86507 0.0
H1316 H 0.90942 0.43894 0.94712 0.0
H1317 H 0.9146 0.48511 0.9535 0.0
C1318 C 0.9127 0.52085 0.91666 0.0
C1319 C 0.91007 0.53726 0.89554 0.0
C1320 C 0.91303 0.49416 0.91302 0.0
C1321 C 0.90986 0.52682 0.87061 0.0
C1322 C 0.91082 0.50036 0.86682 0.0
C1323 C 0.90935 0.45726 0.88434 0.0
C1324 C 0.90762 0.44089 0.90558 0.0
C1325 C 0.91157 0.48385 0.88791 0.0
C1326 C 0.91042 0.45119 0.93043 0.0
C1327 C 0.91331 0.4776 0.93411 0.0
H1328 H 0.02313 0.37693 0.44996 0.0
H1329 H 0.03108 0.4322 0.38908 0.0
H1330 H 0.98441 0.43689 0.38712 0.0
H1331 H 0.94132 0.42235 0.40002 0.0
H1332 H 0.9337 0.36575 0.45974 0.0
H1333 H 0.98029 0.3647 0.4649 0.0
C1334 C 0.01471 0.39025 0.43646 0.0
C1335 C 0.03056 0.404 0.41953 0.0
C1336 C 0.98789 0.39249 0.43509 0.0
C1337 C 0.01931 0.42124 0.40223 0.0
C1338 C 0.99261 0.42391 0.40105 0.0
C1339 C 0.94983 0.41005 0.4144 0.0
C1340 C 0.93406 0.39399 0.42929 0.0
C1341 C 0.9767 0.40917 0.41697 0.0
C1342 C 0.94541 0.37815 0.44785 0.0
C1343 C 0.97206 0.37751 0.45082 0.0
H1344 H 0.8955 0.46213 0.11152 0.0
H1345 H 0.89094 0.4528 0.19364 0.0
H1346 H 0.89405 0.4991 0.19964 0.0
H1347 H 0.89442 0.54222 0.18158 0.0
H1348 H 0.8971 0.55197 0.09944 0.0
H1349 H 0.89866 0.50551 0.09349 0.0
C1350 C 0.89551 0.47021 0.13073 0.0
C1351 C 0.89277 0.45405 0.15207 0.0
C1352 C 0.89683 0.49692 0.13406 0.0
C1353 C 0.8928 0.46482 0.17685 0.0
C1354 C 0.89458 0.49131 0.18033 0.0
C1355 C 0.89566 0.53424 0.16237 0.0
C1356 C 0.89541 0.55053 0.141 0.0
C1357 C 0.89603 0.50755 0.15906 0.0
C1358 C 0.89708 0.53983 0.11624 0.0
C1359 C 0.89793 0.51326 0.1128 0.0
H1360 H 0.93495 0.39626 0.62935 0.0
H1361 H 0.94617 0.42647 0.70586 0.0
H1362 H 0.99172 0.4338 0.69678 0.0
H1363 H 0.02886 0.42787 0.66848 0.0
H1364 H 0.0175 0.39695 0.59222 0.0
H1365 H 0.97131 0.39399 0.59979 0.0
C1366 C 0.94731 0.40462 0.64401 0.0
C1367 C 0.9373 0.41046 0.66837 0.0
C1368 C 0.97341 0.40861 0.63872 0.0
C1369 C 0.95345 0.42167 0.687 0.0
C1370 C 0.9795 0.42581 0.68184 0.0
C1371 C 0.01626 0.4208 0.65337 0.0
C1372 C 0.02666 0.41232 0.62994 0.0
C1373 C 0.98977 0.4188 0.65796 0.0
C1374 C 0.01003 0.40343 0.6105 0.0
C1375 C 0.98362 0.40164 0.61483 0.0
H1376 H 0.03872 0.57806 0.62996 0.0
H1377 H 0.04798 0.6161 0.55723 0.0
H1378 H 1.00138 0.61711 0.55152 0.0
H1379 H 0.95811 0.61057 0.56892 0.0
H1380 H 0.9489 0.57489 0.64289 0.0
H1381 H 0.99536 0.56944 0.64631 0.0
C1382 C 0.03054 0.58619 0.61268 0.0
C1383 C 0.04671 0.59707 0.5941 0.0
C1384 C 0.00374 0.58735 0.60986 0.0
C1385 C 0.03587 0.60773 0.57189 0.0
C1386 C 0.00924 0.60836 0.56862 0.0
C1387 C 0.96624 0.60134 0.58565 0.0
C1388 C 0.95011 0.59332 0.60568 0.0
C1389 C 0.99299 0.59876 0.58776 0.0
C1390 C 0.96094 0.58143 0.62727 0.0
C1391 C 0.9875 0.57829 0.62926 0.0
H1392 H 0.94799 0.14106 0.33165 0.0
H1393 H 0.93195 0.07341 0.37634 0.0
H1394 H 0.97795 0.06515 0.3803 0.0
H1395 H 0.02272 0.08032 0.37596 0.0
H1396 H 0.03871 0.14796 0.33125 0.0
H1397 H 0.99292 0.15276 0.32219 0.0
C1398 C 0.9545 0.12421 0.34184 0.0
C1399 C 0.93641 0.10811 0.35397 0.0
C1400 C 0.98109 0.11969 0.34429 0.0
C1401 C 0.94531 0.08622 0.36686 0.0
C1402 C 0.9717 0.08156 0.36929 0.0
C1403 C 0.01626 0.09584 0.36383 0.0
C1404 C 0.03423 0.11393 0.35461 0.0
C1405 C 0.98977 0.09865 0.35884 0.0
C1406 C 0.02544 0.13377 0.3387 0.0
C1407 C 0.99916 0.13663 0.33362 0.0
H1408 H 0.36082 0.44302 0.80741 0.0
H1409 H 0.42915 0.42279 0.84975 0.0
H1410 H 0.44056 0.46805 0.85423 0.0
H1411 H 0.42782 0.5133 0.85165 0.0
H1412 H 0.35894 0.53347 0.81017 0.0
H1413 H 0.35138 0.48843 0.79955 0.0
C1414 C 0.37849 0.44844 0.81717 0.0
C1415 C 0.39384 0.42945 0.82858 0.0
C1416 C 0.38474 0.47459 0.8201 0.0
C1417 C 0.41683 0.43692 0.84091 0.0
C1418 C 0.42332 0.46287 0.84362 0.0
C1419 C 0.41141 0.50794 0.83986 0.0
C1420 C 0.39375 0.5268 0.83214 0.0
C1421 C 0.4069 0.48189 0.83416 0.0
C1422 C 0.37277 0.51944 0.8166 0.0
C1423 C 0.36834 0.49361 0.8106 0.0
H1424 H 0.06704 0.93729 0.35271 0.0
H1425 H 0.0912 0.87296 0.3064 0.0
H1426 H 0.04644 0.86324 0.29575 0.0
H1427 H 1.0004 0.86933 0.30442 0.0
H1428 H 0.97626 0.93288 0.3518 0.0
H1429 H 0.02095 0.94668 0.35684 0.0
C1430 C 0.06261 0.92143 0.33986 0.0
C1431 C 0.08258 0.90568 0.3307 0.0
C1432 C 0.03672 0.91559 0.33421 0.0
C1433 C 0.07634 0.88536 0.3139 0.0
C1434 C 0.05066 0.87967 0.30789 0.0
C1435 C 0.00482 0.88649 0.31547 0.0
C1436 C 0.9849 0.89979 0.32802 0.0
C1437 C 0.03067 0.89409 0.31869 0.0
C1438 C 0.9911 0.92212 0.34205 0.0
C1439 C 0.01673 0.92998 0.34505 0.0
H1440 H 0.62628 0.44057 0.82072 0.0
H1441 H 0.57523 0.41706 0.88152 0.0
H1442 H 0.56629 0.4619 0.89158 0.0
H1443 H 0.57705 0.50763 0.88666 0.0
H1444 H 0.62895 0.53115 0.82662 0.0
H1445 H 0.63318 0.48658 0.81264 0.0
C1446 C 0.6128 0.44517 0.83587 0.0
C1447 C 0.6017 0.42528 0.8505 0.0
C1448 C 0.6081 0.47111 0.84192 0.0
C1449 C 0.58418 0.43181 0.86996 0.0
C1450 C 0.57915 0.45753 0.87585 0.0
C1451 C 0.58899 0.50312 0.87025 0.0
C1452 C 0.6029 0.52284 0.85794 0.0
C1453 C 0.59164 0.47733 0.86251 0.0
C1454 C 0.61808 0.51649 0.83656 0.0
C1455 C 0.62061 0.49092 0.82861 0.0
H1456 H 0.97857 0.9254 0.61026 0.0
H1457 H 0.95618 0.86876 0.66613 0.0
H1458 H 1.00104 0.86342 0.67872 0.0
H1459 H 0.04699 0.87033 0.66959 0.0
H1460 H 0.06943 0.92714 0.61392 0.0
H1461 H 0.02434 0.93718 0.60596 0.0
C1462 C 0.98343 0.91225 0.62554 0.0
C1463 C 0.96397 0.89722 0.6369 0.0
C1464 C 0.00939 0.90911 0.63262 0.0
C1465 C 0.97067 0.88051 0.65691 0.0
C1466 C 0.9964 0.87732 0.66405 0.0
C1467 C 0.04206 0.88531 0.65611 0.0
C1468 C 0.06166 0.89766 0.64212 0.0
C1469 C 0.016 0.89083 0.6514 0.0
C1470 C 0.05485 0.91722 0.62494 0.0
C1471 C 0.02899 0.92286 0.62021 0.0
H1472 H 0.61856 0.47151 0.18305 0.0
H1473 H 0.56486 0.44773 0.12413 0.0
H1474 H 0.55242 0.49226 0.11752 0.0
H1475 H 0.56151 0.53819 0.12391 0.0
H1476 H 0.61614 0.56195 0.18201 0.0
H1477 H 0.62307 0.51729 0.1937 0.0
C1478 C 0.60376 0.47597 0.1691 0.0
C1479 C 0.59303 0.45623 0.15381 0.0
C1480 C 0.59701 0.50173 0.16503 0.0
C1481 C 0.57365 0.46245 0.13605 0.0
C1482 C 0.56659 0.48799 0.13215 0.0
C1483 C 0.57453 0.53368 0.13951 0.0
C1484 C 0.58859 0.5535 0.15173 0.0
C1485 C 0.57886 0.50785 0.14583 0.0
C1486 C 0.60518 0.54719 0.17208 0.0
C1487 C 0.60929 0.52158 0.17871 0.0
H1488 H 0.96839 0.0854 0.62168 0.0
H1489 H 0.9416 0.12882 0.68692 0.0
H1490 H 0.98603 0.13749 0.6999 0.0
H1491 H 0.0323 0.13727 0.68965 0.0
H1492 H 0.05893 0.09399 0.6242 0.0
H1493 H 0.01488 0.08054 0.61464 0.0
C1494 C 0.97223 0.09638 0.63901 0.0
C1495 C 0.95157 0.10669 0.6531 0.0
C1496 C 0.99788 0.10155 0.64621 0.0
C1497 C 0.95701 0.12066 0.67565 0.0
C1498 C 0.98248 0.12578 0.683 0.0
C1499 C 0.02857 0.12453 0.67354 0.0
C1500 C 0.04901 0.11697 0.6575 0.0
C1501 C 0.00305 0.11702 0.66797 0.0
C1502 C 0.0437 0.10024 0.63686 0.0
C1503 C 0.01843 0.09262 0.63128 0.0
H1504 H 0.37838 0.56396 0.16266 0.0
H1505 H 0.4422 0.58431 0.11388 0.0
H1506 H 0.452 0.53899 0.10757 0.0
H1507 H 0.43887 0.49369 0.11114 0.0
H1508 H 0.37443 0.47345 0.15916 0.0
H1509 H 0.36874 0.51848 0.17069 0.0
C1510 C 0.39477 0.55855 0.15104 0.0
C1511 C 0.4093 0.57766 0.13852 0.0
C1512 C 0.40003 0.53237 0.14709 0.0
C1513 C 0.43059 0.57015 0.12373 0.0
C1514 C 0.43612 0.54416 0.11995 0.0
C1515 C 0.42385 0.49903 0.12449 0.0
C1516 C 0.40688 0.48011 0.13394 0.0
C1517 C 0.42042 0.5251 0.13079 0.0
C1518 C 0.3877 0.48749 0.15143 0.0
C1519 C 0.38434 0.51332 0.15796 0.0
H1520 H 0.32855 0.05754 0.12559 0.0
H1521 H 0.37402 0.07804 0.05956 0.0
H1522 H 0.37924 0.03277 0.0488 0.0
H1523 H 0.37623 0.98754 0.06169 0.0
H1524 H 0.33151 0.96709 0.12825 0.0
H1525 H 0.32039 0.01202 0.13491 0.0
C1526 C 0.33918 0.05216 0.10854 0.0
C1527 C 0.35119 0.07128 0.09367 0.0
C1528 C 0.34249 0.02601 0.10267 0.0
C1529 C 0.36465 0.06385 0.07148 0.0
C1530 C 0.36779 0.03789 0.06538 0.0
C1531 C 0.36362 0.9928 0.07737 0.0
C1532 C 0.35511 0.97389 0.09468 0.0
C1533 C 0.35762 0.01881 0.08138 0.0
C1534 C 0.33854 0.98115 0.1147 0.0
C1535 C 0.33226 0.00693 0.11863 0.0
H1536 H 0.46586 0.82696 0.62933 0.0
H1537 H 0.46189 0.88959 0.57575 0.0
H1538 H 0.50881 0.89101 0.57341 0.0
H1539 H 0.55105 0.87791 0.59069 0.0
H1540 H 0.55447 0.81547 0.64465 0.0
H1541 H 0.50793 0.81048 0.64248 0.0
C1542 C 0.4752 0.84065 0.61678 0.0
C1543 C 0.46024 0.85833 0.60299 0.0
C1544 C 0.50224 0.8416 0.61577 0.0
C1545 C 0.4728 0.87576 0.58665 0.0
C1546 C 0.49972 0.8767 0.58542 0.0
C1547 C 0.54169 0.86288 0.6016 0.0
C1548 C 0.55638 0.84732 0.61807 0.0
C1549 C 0.51467 0.86024 0.60051 0.0
C1550 C 0.54378 0.82791 0.63198 0.0
C1551 C 0.51706 0.82505 0.63082 0.0
H1552 H 0.68579 0.03572 0.12522 0.0
H1553 H 0.63982 0.06237 0.06179 0.0
H1554 H 0.63679 0.0187 0.04489 0.0
H1555 H 0.64204 0.97231 0.05146 0.0
H1556 H 0.68755 0.94568 0.11527 0.0
H1557 H 0.69623 0.98989 0.12831 0.0
C1558 C 0.67551 0.03208 0.10743 0.0
C1559 C 0.66274 0.05233 0.09505 0.0
C1560 C 0.67355 0.00681 0.09795 0.0
C1561 C 0.64976 0.04723 0.07184 0.0
C1562 C 0.64788 0.02218 0.06221 0.0
C1563 C 0.65431 0.97614 0.06791 0.0
C1564 C 0.66376 0.95557 0.08256 0.0
C1565 C 0.65893 0.0017 0.0756 0.0
C1566 C 0.67985 0.96102 0.10367 0.0
C1567 C 0.68471 0.98637 0.11127 0.0
H1568 H 0.53647 0.19555 0.6306 0.0
H1569 H 0.56013 0.13273 0.58199 0.0
H1570 H 0.51531 0.12187 0.57329 0.0
H1571 H 0.46969 0.12594 0.58494 0.0
H1572 H 0.44535 0.18925 0.63221 0.0
H1573 H 0.49 0.20439 0.63574 0.0
C1574 C 0.53182 0.17987 0.6176 0.0
C1575 C 0.55175 0.16473 0.60736 0.0
C1576 C 0.50584 0.17362 0.61268 0.0
C1577 C 0.54532 0.14468 0.59029 0.0
C1578 C 0.51961 0.1383 0.58542 0.0
C1579 C 0.47413 0.14344 0.59545 0.0
C1580 C 0.45438 0.15637 0.60848 0.0
C1581 C 0.49977 0.15198 0.59733 0.0
C1582 C 0.46025 0.17908 0.62191 0.0
C1583 C 0.48581 0.18758 0.62411 0.0
H1584 H 0.36735 0.01106 0.92967 0.0
H1585 H 0.31513 0.03566 0.8703 0.0
H1586 H 0.30208 0.99128 0.86251 0.0
H1587 H 0.31051 0.9453 0.86789 0.0
H1588 H 0.36355 0.92068 0.92653 0.0
H1589 H 0.3708 0.96515 0.9395 0.0
C1590 C 0.35272 0.00681 0.91538 0.0
C1591 C 0.34265 0.02671 0.90027 0.0
C1592 C 0.3456 0.98113 0.91065 0.0
C1593 C 0.32344 0.02079 0.88208 0.0
C1594 C 0.31603 0.99534 0.8775 0.0
C1595 C 0.32325 0.94957 0.88387 0.0
C1596 C 0.33682 0.92961 0.89584 0.0
C1597 C 0.32775 0.97529 0.89094 0.0
C1598 C 0.35299 0.93558 0.91676 0.0
C1599 C 0.35729 0.96109 0.92412 0.0
H1600 H 0.56722 0.86539 0.41601 0.0
H1601 H 0.58232 0.81822 0.34948 0.0
H1602 H 0.53626 0.81185 0.34293 0.0
H1603 H 0.49178 0.82422 0.35271 0.0
H1604 H 0.47662 0.87194 0.41881 0.0
H1605 H 0.52246 0.8732 0.42901 0.0
C1606 C 0.5605 0.85329 0.40036 0.0
C1607 C 0.57835 0.84262 0.38308 0.0
C1608 C 0.53386 0.85 0.39643 0.0
C1609 C 0.56915 0.82684 0.36304 0.0
C1610 C 0.54273 0.82328 0.35917 0.0
C1611 C 0.49841 0.83455 0.36962 0.0
C1612 C 0.4807 0.84826 0.38474 0.0
C1613 C 0.52491 0.83548 0.37522 0.0
C1614 C 0.48972 0.8613 0.40671 0.0
C1615 C 0.51602 0.86214 0.41251 0.0
H1616 H 0.61394 0.00665 0.93696 0.0
H1617 H 0.67035 0.03231 0.88206 0.0
H1618 H 0.68197 0.9879 0.87294 0.0
H1619 H 0.67208 0.94174 0.87633 0.0
H1620 H 0.61569 0.91608 0.93127 0.0
H1621 H 0.60844 0.96036 0.94476 0.0
C1622 C 0.62913 0.00259 0.92336 0.0
C1623 C 0.64097 0.02292 0.90999 0.0
C1624 C 0.63558 0.97689 0.91799 0.0
C1625 C 0.66081 0.01718 0.89262 0.0
C1626 C 0.66737 0.9917 0.88725 0.0
C1627 C 0.65855 0.94576 0.89161 0.0
C1628 C 0.64424 0.9255 0.9025 0.0
C1629 C 0.65428 0.97138 0.89916 0.0
C1630 C 0.62698 0.93116 0.92246 0.0
C1631 C 0.62268 0.95657 0.9301 0.0
H1632 H 0.45097 0.12875 0.42239 0.0
H1633 H 0.42891 0.17422 0.35704 0.0
H1634 H 0.47407 0.18181 0.34689 0.0
H1635 H 0.51967 0.17139 0.35349 0.0
H1636 H 0.54192 0.12571 0.41856 0.0
H1637 H 0.49701 0.1227 0.43199 0.0
C1638 C 0.45599 0.14072 0.40619 0.0
C1639 C 0.43638 0.15062 0.39037 0.0
C1640 C 0.48213 0.14481 0.40023 0.0
C1641 C 0.44342 0.16623 0.36955 0.0
C1642 C 0.46933 0.17049 0.36362 0.0
C1643 C 0.51479 0.16111 0.37086 0.0
C1644 C 0.53425 0.14855 0.38479 0.0
C1645 C 0.48883 0.15923 0.37835 0.0
C1646 C 0.52747 0.13554 0.40738 0.0
C1647 C 0.5017 0.13368 0.41501 0.0
H1648 H 0.05816 0.39335 0.98364 0.0
H1649 H 0.12213 0.34221 0.97224 0.0
H1650 H 0.12525 0.33559 0.01847 0.0
H1651 H 0.11369 0.349 0.06232 0.0
H1652 H 0.05084 0.40156 0.07346 0.0
H1653 H 0.04327 0.40262 0.02728 0.0
C1654 C 0.07249 0.38036 0.99117 0.0
C1655 C 0.0901 0.3686 0.97439 0.0
C1656 C 0.07457 0.37707 0.01786 0.0
C1657 C 0.10841 0.35169 0.98461 0.0
C1658 C 0.1103 0.34797 0.01113 0.0
C1659 C 0.09796 0.36024 0.05472 0.0
C1660 C 0.08305 0.37541 0.07141 0.0
C1661 C 0.09406 0.36126 0.02799 0.0
C1662 C 0.06277 0.38986 0.06112 0.0
C1663 C 0.05847 0.39056 0.03465 0.0
H1664 H 0.06482 0.63788 0.94486 0.0
H1665 H 0.12711 0.68696 0.92023 0.0
H1666 H 0.13827 0.69608 0.96486 0.0
H1667 H 0.13402 0.68565 0.01053 0.0
H1668 H 0.07289 0.63517 0.03518 0.0
H1669 H 0.05746 0.63144 0.991 0.0
C1670 C 0.08051 0.65101 0.94919 0.0
C1671 C 0.09525 0.66147 0.92906 0.0
C1672 C 0.08725 0.65573 0.97499 0.0
C1673 C 0.11548 0.67849 0.93521 0.0
C1674 C 0.12198 0.68363 0.96079 0.0
C1675 C 0.11703 0.67417 0.00638 0.0
C1676 C 0.10488 0.66045 0.02624 0.0
C1677 C 0.10857 0.67166 0.98081 0.0
C1678 C 0.08277 0.64585 0.02037 0.0
C1679 C 0.07398 0.6436 0.99503 0.0
H1680 H 0.87263 0.56669 0.46569 0.0
H1681 H 0.82549 0.63189 0.44702 0.0
H1682 H 0.81283 0.63593 0.49191 0.0
H1683 H 0.81954 0.62449 0.53714 0.0
H1684 H 0.86753 0.55996 0.55595 0.0
H1685 H 0.87504 0.55195 0.5104 0.0
C1686 C 0.85923 0.58154 0.47131 0.0
C1687 C 0.85035 0.59918 0.45292 0.0
C1688 C 0.8523 0.58402 0.49731 0.0
C1689 C 0.83279 0.61811 0.46066 0.0
C1690 C 0.82561 0.62052 0.48642 0.0
C1691 C 0.83125 0.60835 0.53131 0.0
C1692 C 0.84318 0.59307 0.5501 0.0
C1693 C 0.83591 0.60412 0.50503 0.0
C1694 C 0.85813 0.57213 0.54205 0.0
C1695 C 0.86259 0.56762 0.51593 0.0
H1696 H 0.92254 0.36357 0.00765 0.0
H1697 H 0.85412 0.32189 0.98494 0.0
H1698 H 0.84363 0.31441 0.02994 0.0
H1699 H 0.85113 0.32412 0.07564 0.0
H1700 H 0.91913 0.36656 0.09824 0.0
H1701 H 0.93258 0.36902 0.05349 0.0
C1702 C 0.90554 0.35247 0.01248 0.0
C1703 C 0.889 0.3436 0.9928 0.0
C1704 C 0.89938 0.34856 0.03847 0.0
C1705 C 0.86718 0.32907 0.99956 0.0
C1706 C 0.86107 0.32489 0.02536 0.0
C1707 C 0.86912 0.33356 0.07088 0.0
C1708 C 0.88391 0.34538 0.0904 0.0
C1709 C 0.87661 0.33523 0.04498 0.0
C1710 C 0.90726 0.35735 0.08373 0.0
C1711 C 0.91493 0.35888 0.05806 0.0
H1712 H 0.1583 0.38689 0.55534 0.0
H1713 H 0.11284 0.45278 0.57605 0.0
H1714 H 0.1081 0.46379 0.53084 0.0
H1715 H 0.11215 0.45157 0.48536 0.0
H1716 H 0.15699 0.3852 0.46475 0.0
H1717 H 0.16688 0.3778 0.50986 0.0
C1718 C 0.14773 0.40393 0.55004 0.0
C1719 C 0.13566 0.41875 0.56917 0.0
C1720 C 0.14473 0.40996 0.52391 0.0
C1721 C 0.12226 0.44091 0.56184 0.0
C1722 C 0.1194 0.44716 0.53591 0.0
C1723 C 0.12447 0.43573 0.49065 0.0
C1724 C 0.13347 0.41877 0.47159 0.0
C1725 C 0.12982 0.43134 0.51675 0.0
C1726 C 0.14961 0.3985 0.47891 0.0
C1727 C 0.15521 0.39417 0.50478 0.0
H1728 H 0.86864 0.672 0.97046 0.0
H1729 H 0.9315 0.62165 0.95164 0.0
H1730 H 0.94292 0.61873 0.99695 0.0
H1731 H 0.93162 0.62589 0.04222 0.0
H1732 H 0.86853 0.67591 0.06111 0.0
H1733 H 0.86101 0.68382 0.0156 0.0
C1734 C 0.88514 0.66076 0.97618 0.0
C1735 C 0.89892 0.64678 0.95757 0.0
C1736 C 0.89147 0.65891 0.0024 0.0
C1737 C 0.92041 0.63253 0.96544 0.0
C1738 C 0.92691 0.63073 0.99143 0.0
C1739 C 0.91652 0.63892 0.03645 0.0
C1740 C 0.90045 0.64997 0.05518 0.0
C1741 C 0.91205 0.64314 0.01015 0.0
C1742 C 0.88116 0.66701 0.04723 0.0
C1743 C 0.87673 0.67144 0.02113 0.0
H1744 H 0.8509 0.42384 0.51219 0.0
H1745 H 0.80639 0.35689 0.49073 0.0
H1746 H 0.79564 0.34953 0.53562 0.0
H1747 H 0.80401 0.35846 0.58128 0.0
H1748 H 0.84893 0.42511 0.60282 0.0
H1749 H 0.85388 0.43641 0.55773 0.0
C1750 C 0.83843 0.40791 0.51725 0.0
C1751 C 0.82985 0.39073 0.49803 0.0
C1752 C 0.83253 0.40357 0.54323 0.0
C1753 C 0.81345 0.37038 0.50502 0.0
C1754 C 0.80737 0.36605 0.53077 0.0
C1755 C 0.81442 0.37578 0.57618 0.0
C1756 C 0.82641 0.39065 0.59553 0.0
C1757 C 0.81758 0.38197 0.55011 0.0
C1758 C 0.83958 0.41318 0.58846 0.0
C1759 C 0.84259 0.41958 0.56259 0.0
H1760 H 0.12592 0.57366 0.5058 0.0
H1761 H 0.17738 0.63356 0.53221 0.0
H1762 H 0.19002 0.64233 0.48804 0.0
H1763 H 0.18219 0.63689 0.44176 0.0
H1764 H 0.13036 0.57736 0.41529 0.0
H1765 H 0.12249 0.56441 0.45953 0.0
C1766 C 0.14027 0.58833 0.50198 0.0
C1767 C 0.15037 0.60316 0.52241 0.0
C1768 C 0.14722 0.59355 0.47642 0.0
C1769 C 0.16914 0.6219 0.51698 0.0
C1770 C 0.17629 0.62705 0.49165 0.0
C1771 C 0.16952 0.62077 0.44559 0.0
C1772 C 0.1566 0.6084 0.42511 0.0
C1773 C 0.16481 0.6136 0.47117 0.0
C1774 C 0.14048 0.58737 0.43056 0.0
C1775 C 0.13584 0.58002 0.45593 0.0
H1776 H 0.27839 0.14105 0.3632 0.0
H1777 H 0.28395 0.10171 0.43559 0.0
H1778 H 0.23721 0.09735 0.43713 0.0
H1779 H 0.19488 0.10365 0.41761 0.0
H1780 H 0.18871 0.14222 0.34482 0.0
H1781 H 0.23551 0.1475 0.34355 0.0
C1782 C 0.26933 0.13188 0.3795 0.0
C1783 C 0.28471 0.12192 0.39939 0.0
C1784 C 0.24234 0.12887 0.37997 0.0
C1785 C 0.27263 0.10966 0.42011 0.0
C1786 C 0.24588 0.10702 0.42093 0.0
C1787 C 0.20369 0.11307 0.40132 0.0
C1788 C 0.18814 0.1224 0.38126 0.0
C1789 C 0.23057 0.11627 0.40084 0.0
C1790 C 0.2001 0.13468 0.36045 0.0
C1791 C 0.2269 0.13786 0.3598 0.0
H1792 H 0.34574 0.69037 0.89353 0.0
H1793 H 0.39607 0.67648 0.82927 0.0
H1794 H 0.3999 0.72276 0.82224 0.0
H1795 H 0.3893 0.76703 0.8347 0.0
H1796 H 0.33882 0.7806 0.89894 0.0
H1797 H 0.33463 0.73438 0.90553 0.0
C1798 C 0.3576 0.69737 0.87795 0.0
C1799 C 0.37069 0.67989 0.86199 0.0
C1800 C 0.35963 0.72393 0.87401 0.0
C1801 C 0.38582 0.68944 0.84186 0.0
C1802 C 0.388 0.71591 0.83784 0.0
C1803 C 0.3773 0.75993 0.85013 0.0
C1804 C 0.3644 0.77735 0.86634 0.0
C1805 C 0.37503 0.73332 0.85384 0.0
C1806 C 0.34893 0.76771 0.88617 0.0
C1807 C 0.34657 0.74126 0.88997 0.0
H1808 H 0.74265 0.9011 0.33575 0.0
H1809 H 0.73 0.82609 0.36824 0.0
H1810 H 0.77645 0.81873 0.36875 0.0
H1811 H 0.82046 0.83371 0.36031 0.0
H1812 H 0.83319 0.90918 0.32893 0.0
H1813 H 0.78668 0.91615 0.32746 0.0
C1814 C 0.74997 0.88309 0.34296 0.0
C1815 C 0.73275 0.86414 0.35194 0.0
C1816 C 0.77668 0.87905 0.34327 0.0
C1817 C 0.74273 0.84101 0.36127 0.0
C1818 C 0.7693 0.83678 0.36151 0.0
C1819 C 0.81314 0.85166 0.35295 0.0
C1820 C 0.8304 0.87087 0.34459 0.0
C1821 C 0.78643 0.85566 0.35254 0.0
C1822 C 0.82043 0.89406 0.3354 0.0
C1823 C 0.79383 0.89806 0.33462 0.0
H1824 H 0.60885 0.18185 0.88784 0.0
H1825 H 0.69092 0.17435 0.87883 0.0
H1826 H 0.69501 0.22047 0.87226 0.0
H1827 H 0.67554 0.26268 0.86801 0.0
H1828 H 0.59345 0.2712 0.87578 0.0
H1829 H 0.58907 0.22499 0.88347 0.0
C1830 C 0.62765 0.19041 0.88484 0.0
C1831 C 0.64962 0.17463 0.88412 0.0
C1832 C 0.62982 0.21708 0.88042 0.0
C1833 C 0.67375 0.18599 0.87963 0.0
C1834 C 0.6761 0.21239 0.87575 0.0
C1835 C 0.65659 0.25454 0.87128 0.0
C1836 C 0.63484 0.27055 0.87122 0.0
C1837 C 0.65427 0.22806 0.87582 0.0
C1838 C 0.61052 0.25942 0.87553 0.0
C1839 C 0.60804 0.23297 0.88009 0.0
H1840 H 0.30455 0.89197 0.59977 0.0
H1841 H 0.31291 0.82319 0.64468 0.0
H1842 H 0.26682 0.82289 0.65341 0.0
H1843 H 0.22437 0.84265 0.64943 0.0
H1844 H 0.21562 0.91162 0.60492 0.0
H1845 H 0.26169 0.91158 0.59537 0.0
C1846 C 0.29628 0.87672 0.61121 0.0
C1847 C 0.3123 0.85756 0.62146 0.0
C1848 C 0.26972 0.87695 0.61664 0.0
C1849 C 0.30114 0.83813 0.63645 0.0
C1850 C 0.27476 0.83802 0.6416 0.0
C1851 C 0.23249 0.85784 0.6378 0.0
C1852 C 0.21645 0.87724 0.6281 0.0
C1853 C 0.25893 0.85751 0.6321 0.0
C1854 C 0.22745 0.89655 0.61282 0.0
C1855 C 0.2538 0.89645 0.60721 0.0
H1856 H 0.65666 0.71135 0.09506 0.0
H1857 H 0.59215 0.70515 0.14669 0.0
H1858 H 0.58804 0.75187 0.14717 0.0
H1859 H 0.60234 0.79421 0.13254 0.0
H1860 H 0.66708 0.80064 0.08126 0.0
H1861 H 0.67153 0.75389 0.08106 0.0
C1862 C 0.64168 0.72016 0.10646 0.0
C1863 C 0.62465 0.70467 0.12077 0.0
C1864 C 0.63946 0.74702 0.10667 0.0
C1865 C 0.60549 0.71653 0.13551 0.0
C1866 C 0.60312 0.74326 0.13576 0.0
C1867 C 0.61746 0.78547 0.12126 0.0
C1868 C 0.6343 0.80099 0.1068 0.0
C1869 C 0.61993 0.75865 0.12133 0.0
C1870 C 0.65385 0.78922 0.0925 0.0
C1871 C 0.65637 0.76248 0.09239 0.0
H1872 H 0.79101 0.17958 0.66774 0.0
H1873 H 0.79369 0.1003 0.64365 0.0
H1874 H 0.74772 0.1012 0.6338 0.0
H1875 H 0.7067 0.12479 0.63123 0.0
H1876 H 0.70407 0.2036 0.65662 0.0
H1877 H 0.75008 0.20268 0.66631 0.0
C1878 C 0.78156 0.16235 0.66061 0.0
C1879 C 0.79598 0.13989 0.65648 0.0
C1880 C 0.75512 0.16306 0.65478 0.0
C1881 C 0.78321 0.11786 0.64712 0.0
C1882 C 0.75689 0.1184 0.6413 0.0
C1883 C 0.71629 0.14186 0.63855 0.0
C1884 C 0.70201 0.16438 0.64284 0.0
C1885 C 0.74269 0.14099 0.64474 0.0
C1886 C 0.71462 0.18612 0.65294 0.0
C1887 C 0.74092 0.18555 0.65862 0.0
H1888 H 0.40749 0.23897 0.13706 0.0
H1889 H 0.3499 0.22199 0.0795 0.0
H1890 H 0.34362 0.26789 0.07256 0.0
H1891 H 0.35501 0.31264 0.08222 0.0
H1892 H 0.41239 0.32981 0.13991 0.0
H1893 H 0.41821 0.28388 0.14741 0.0
C1894 C 0.3935 0.24524 0.12301 0.0
C1895 C 0.37923 0.22694 0.10875 0.0
C1896 C 0.39001 0.27167 0.11911 0.0
C1897 C 0.36114 0.23555 0.09073 0.0
C1898 C 0.35758 0.26182 0.08673 0.0
C1899 C 0.36884 0.30642 0.09646 0.0
C1900 C 0.38335 0.32474 0.11041 0.0
C1901 C 0.37201 0.28002 0.1007 0.0
C1902 C 0.401 0.3162 0.12888 0.0
C1903 C 0.40433 0.28992 0.13316 0.0
H1904 H 0.15407 0.40702 0.23272 0.0
H1905 H 0.08315 0.36834 0.21246 0.0
H1906 H 0.07019 0.36856 0.25754 0.0
H1907 H 0.07937 0.37898 0.30263 0.0
H1908 H 0.15041 0.41741 0.32293 0.0
H1909 H 0.16289 0.41816 0.27772 0.0
C1910 C 0.13574 0.39862 0.23809 0.0
C1911 C 0.11964 0.38758 0.21915 0.0
C1912 C 0.12844 0.39882 0.26402 0.0
C1913 C 0.09594 0.37691 0.22657 0.0
C1914 C 0.08852 0.37705 0.25236 0.0
C1915 C 0.09757 0.38764 0.29723 0.0
C1916 C 0.11395 0.39812 0.31625 0.0
C1917 C 0.10467 0.38785 0.27124 0.0
C1918 C 0.13742 0.40924 0.30877 0.0
C1919 C 0.14458 0.40962 0.28291 0.0
H1920 H 0.09304 0.6513 0.6882 0.0
H1921 H 0.15015 0.59306 0.6747 0.0
H1922 H 0.15518 0.58739 0.72108 0.0
H1923 H 0.14328 0.59899 0.7653 0.0
H1924 H 0.08675 0.65786 0.77856 0.0
H1925 H 0.08158 0.66325 0.73224 0.0
C1926 C 0.1066 0.63728 0.69531 0.0
C1927 C 0.12116 0.62254 0.67788 0.0
C1928 C 0.10947 0.63427 0.72194 0.0
C1929 C 0.13871 0.60465 0.68759 0.0
C1930 C 0.14156 0.6014 0.71413 0.0
C1931 C 0.12976 0.613 0.75813 0.0
C1932 C 0.11533 0.62796 0.7755 0.0
C1933 C 0.12702 0.6161 0.73146 0.0
C1934 C 0.09807 0.6461 0.76573 0.0
C1935 C 0.09511 0.64917 0.73922 0.0
H1936 H 0.88065 0.62033 0.21197 0.0
H1937 H 0.84974 0.6967 0.20675 0.0
H1938 H 0.84347 0.6978 0.25319 0.0
H1939 H 0.84619 0.67696 0.29524 0.0
H1940 H 0.87584 0.60003 0.30055 0.0
H1941 H 0.88272 0.59912 0.25418 0.0
C1942 C 0.87288 0.63735 0.22104 0.0
C1943 C 0.86598 0.65855 0.20588 0.0
C1944 C 0.86868 0.63759 0.24777 0.0
C1945 C 0.85539 0.68021 0.21794 0.0
C1946 C 0.85167 0.68079 0.24451 0.0
C1947 C 0.85396 0.65987 0.2863 0.0
C1948 C 0.86038 0.63856 0.30153 0.0
C1949 C 0.85803 0.65952 0.25959 0.0
C1950 C 0.87053 0.61667 0.28942 0.0
C1951 C 0.87465 0.61619 0.26287 0.0
H1952 H 0.87752 0.37479 0.83558 0.0
H1953 H 0.84393 0.29912 0.84012 0.0
H1954 H 0.83616 0.29916 0.79381 0.0
H1955 H 0.83804 0.32101 0.75219 0.0
H1956 H 0.86966 0.3976 0.74786 0.0
H1957 H 0.87859 0.39706 0.79394 0.0
C1958 C 0.86888 0.35814 0.82637 0.0
C1959 C 0.86169 0.33678 0.84127 0.0
C1960 C 0.86367 0.35866 0.79982 0.0
C1961 C 0.84988 0.31566 0.82909 0.0
C1962 C 0.84529 0.31575 0.80262 0.0
C1963 C 0.84675 0.33768 0.76129 0.0
C1964 C 0.85309 0.35934 0.74644 0.0
C1965 C 0.85185 0.33724 0.78783 0.0
C1966 C 0.86437 0.38073 0.75873 0.0
C1967 C 0.86966 0.38037 0.7851 0.0
H1968 H 0.72402 0.90571 0.65179 0.0
H1969 H 0.70105 0.85614 0.58909 0.0
H1970 H 0.74629 0.84869 0.57866 0.0
H1971 H 0.79219 0.85653 0.58717 0.0
H1972 H 0.81514 0.90526 0.65053 0.0
H1973 H 0.76989 0.91286 0.66083 0.0
C1974 C 0.72883 0.89325 0.63581 0.0
C1975 C 0.70906 0.88156 0.62117 0.0
C1976 C 0.75485 0.88899 0.63002 0.0
C1977 C 0.71579 0.86535 0.60068 0.0
C1978 C 0.74167 0.86115 0.59469 0.0
C1979 C 0.78737 0.86892 0.6032 0.0
C1980 C 0.80713 0.88045 0.61798 0.0
C1981 C 0.76134 0.87294 0.60917 0.0
C1982 C 0.8004 0.89619 0.63882 0.0
C1983 C 0.77452 0.90052 0.64471 0.0
H1984 H 0.5979 0.21446 0.14439 0.0
H1985 H 0.66189 0.20412 0.0928 0.0
H1986 H 0.667 0.25066 0.08958 0.0
H1987 H 0.65341 0.29403 0.10142 0.0
H1988 H 0.58926 0.30459 0.15273 0.0
H1989 H 0.58413 0.25799 0.15607 0.0
C1990 C 0.613 0.22232 0.13241 0.0
C1991 C 0.62953 0.20573 0.11884 0.0
C1992 C 0.6158 0.24909 0.13064 0.0
C1993 C 0.64891 0.21637 0.10342 0.0
C1994 C 0.65185 0.24299 0.10159 0.0
C1995 C 0.63828 0.28623 0.1134 0.0
C1996 C 0.62174 0.30287 0.12687 0.0
C1997 C 0.63542 0.2595 0.11513 0.0
C1998 C 0.60224 0.29229 0.14219 0.0
C1999 C 0.59932 0.26564 0.14409 0.0
H2000 H 0.21263 0.19045 0.64719 0.0
H2001 H 0.20411 0.10952 0.63168 0.0
H2002 H 0.2509 0.10571 0.62699 0.0
H2003 H 0.29428 0.12584 0.62649 0.0
H2004 H 0.30236 0.20615 0.6451 0.0
H2005 H 0.25563 0.20992 0.649 0.0
C2006 C 0.221 0.17191 0.64291 0.0
C2007 C 0.20488 0.1503 0.63969 0.0
C2008 C 0.24781 0.16989 0.64045 0.0
C2009 C 0.21607 0.1264 0.63442 0.0
C2010 C 0.24281 0.12428 0.63153 0.0
C2011 C 0.28571 0.1442 0.63109 0.0
C2012 C 0.30166 0.16586 0.635 0.0
C2013 C 0.25885 0.14597 0.63423 0.0
C2014 C 0.29044 0.18935 0.64173 0.0
C2015 C 0.26376 0.19145 0.64406 0.0
H2016 H 0.39277 0.82183 0.12651 0.0
H2017 H 0.35514 0.82516 0.05264 0.0
H2018 H 0.35711 0.77852 0.04898 0.0
H2019 H 0.36935 0.73703 0.06649 0.0
H2020 H 0.40742 0.7329 0.14001 0.0
H2021 H 0.4056 0.77978 0.14396 0.0
C2022 C 0.38489 0.81237 0.10963 0.0
C2023 C 0.37369 0.82709 0.08989 0.0
C2024 C 0.38629 0.78546 0.10753 0.0
C2025 C 0.36381 0.81443 0.06812 0.0
C2026 C 0.36496 0.78773 0.066 0.0
C2027 C 0.37732 0.74627 0.08344 0.0
C2028 C 0.38849 0.73136 0.10298 0.0
C2029 C 0.37616 0.77309 0.08555 0.0
C2030 C 0.39877 0.74384 0.12468 0.0
C2031 C 0.39765 0.77065 0.12695 0.0
H2032 H 0.69341 0.13131 0.36734 0.0
H2033 H 0.68258 0.08951 0.43779 0.0
H2034 H 0.72827 0.07936 0.43896 0.0
H2035 H 0.77113 0.08134 0.41971 0.0
H2036 H 0.78275 0.12337 0.34958 0.0
H2037 H 0.73694 0.13402 0.34837 0.0
C2038 C 0.70107 0.12026 0.38313 0.0
C2039 C 0.68441 0.11128 0.40251 0.0
C2040 C 0.72749 0.11413 0.38352 0.0
C2041 C 0.69481 0.09677 0.42265 0.0
C2042 C 0.72098 0.0908 0.42327 0.0
C2043 C 0.76369 0.09263 0.40397 0.0
C2044 C 0.78046 0.10127 0.3846 0.0
C2045 C 0.73744 0.09909 0.40367 0.0
C2046 C 0.77034 0.11625 0.36464 0.0
C2047 C 0.74413 0.12248 0.36402 0.0
H2048 H 0.34786 0.2671 0.88874 0.0
H2049 H 0.40771 0.27808 0.83253 0.0
H2050 H 0.41261 0.23155 0.82863 0.0
H2051 H 0.40047 0.188 0.84182 0.0
H2052 H 0.34052 0.17712 0.89795 0.0
H2053 H 0.33509 0.2236 0.90122 0.0
C2054 C 0.36199 0.25939 0.87557 0.0
C2055 C 0.37748 0.27612 0.861 0.0
C2056 C 0.3647 0.23269 0.87347 0.0
C2057 C 0.39556 0.26569 0.84397 0.0
C2058 C 0.39838 0.23909 0.84178 0.0
C2059 C 0.38617 0.19573 0.85479 0.0
C2060 C 0.37097 0.17904 0.86971 0.0
C2061 C 0.38315 0.22244 0.85654 0.0
C2062 C 0.35247 0.18948 0.88627 0.0
C2063 C 0.34938 0.21606 0.88816 0.0
H2064 H 0.23731 0.88099 0.41466 0.0
H2065 H 0.23829 0.88203 0.33194 0.0
H2066 H 0.28539 0.879 0.33251 0.0
H2067 H 0.32631 0.87616 0.35679 0.0
H2068 H 0.32474 0.87809 0.43948 0.0
H2069 H 0.27772 0.87937 0.4387 0.0
C2070 C 0.24778 0.88058 0.3967 0.0
C2071 C 0.23427 0.88167 0.37326 0.0
C2072 C 0.27472 0.87905 0.39722 0.0
C2073 C 0.24821 0.88138 0.35022 0.0
C2074 C 0.27512 0.87947 0.35056 0.0
C2075 C 0.3156 0.87646 0.37461 0.0
C2076 C 0.32892 0.87656 0.39822 0.0
C2077 C 0.28857 0.87816 0.37397 0.0
C2078 C 0.31489 0.87772 0.42114 0.0
C2079 C 0.28804 0.87859 0.42068 0.0
H2080 H 0.6177 0.6808 0.88919 0.0
H2081 H 0.65334 0.67606 0.81468 0.0
H2082 H 0.65862 0.72258 0.81401 0.0
H2083 H 0.65409 0.76452 0.83475 0.0
H2084 H 0.61911 0.76994 0.90954 0.0
H2085 H 0.61302 0.72334 0.91009 0.0
C2086 C 0.62627 0.69 0.87265 0.0
C2087 C 0.63491 0.67489 0.85189 0.0
C2088 C 0.62979 0.71688 0.87263 0.0
C2089 C 0.64641 0.68715 0.83085 0.0
C2090 C 0.64956 0.71379 0.83051 0.0
C2091 C 0.64529 0.75558 0.85131 0.0
C2092 C 0.63722 0.77087 0.87214 0.0
C2093 C 0.64161 0.72882 0.85139 0.0
C2094 C 0.62569 0.75876 0.89329 0.0
C2095 C 0.62205 0.73207 0.89355 0.0
H2096 H 0.84558 0.59061 0.79437 0.0
H2097 H 0.90433 0.6485 0.80574 0.0
H2098 H 0.90848 0.65319 0.75926 0.0
H2099 H 0.89673 0.63967 0.71568 0.0
H2100 H 0.83821 0.58163 0.70402 0.0
H2101 H 0.8326 0.57825 0.75056 0.0
C2102 C 0.85924 0.60438 0.78675 0.0
C2103 C 0.87475 0.61912 0.80363 0.0
C2104 C 0.86161 0.60685 0.76 0.0
C2105 C 0.8922 0.63691 0.79329 0.0
C2106 C 0.89461 0.63954 0.76669 0.0
C2107 C 0.88266 0.62627 0.72322 0.0
C2108 C 0.86801 0.61077 0.70629 0.0
C2109 C 0.87963 0.62441 0.74991 0.0
C2110 C 0.84975 0.59374 0.71654 0.0
C2111 C 0.84659 0.59179 0.74316 0.0
H2112 H 0.8873 0.34349 0.33271 0.0
H2113 H 0.8313 0.40248 0.34762 0.0
H2114 H 0.82655 0.40951 0.30145 0.0
H2115 H 0.83842 0.39904 0.25708 0.0
H2116 H 0.89424 0.33988 0.24216 0.0
H2117 H 0.89884 0.33271 0.28831 0.0
C2118 C 0.87405 0.35795 0.32595 0.0
C2119 C 0.85971 0.37251 0.34372 0.0
C2120 C 0.87136 0.36179 0.29941 0.0
C2121 C 0.84258 0.39103 0.33446 0.0
C2122 C 0.83986 0.39504 0.30805 0.0
C2123 C 0.85161 0.38451 0.26384 0.0
C2124 C 0.86601 0.37002 0.24606 0.0
C2125 C 0.85416 0.38054 0.29037 0.0
C2126 C 0.88292 0.35129 0.25531 0.0
C2127 C 0.88558 0.34722 0.28172 0.0
H2128 H 0.14591 0.41924 0.81053 0.0
H2129 H 0.08782 0.3619 0.82604 0.0
H2130 H 0.07861 0.35821 0.7801 0.0
H2131 H 0.08628 0.37207 0.73583 0.0
H2132 H 0.14464 0.42911 0.72025 0.0
H2133 H 0.15457 0.43206 0.76611 0.0
C2134 C 0.13123 0.40587 0.80393 0.0
C2135 C 0.11745 0.39095 0.8218 0.0
C2136 C 0.12608 0.40385 0.77751 0.0
C2137 C 0.09869 0.37361 0.81278 0.0
C2138 C 0.09339 0.37154 0.7865 0.0
C2139 C 0.10121 0.38517 0.7424 0.0
C2140 C 0.11459 0.40049 0.72457 0.0
C2141 C 0.10684 0.3867 0.76874 0.0
C2142 C 0.13402 0.41714 0.73349 0.0
C2143 C 0.13968 0.41885 0.75973 0.0
H2144 H 0.14223 0.63938 0.26747 0.0
H2145 H 0.11141 0.56251 0.27228 0.0
H2146 H 0.10375 0.56201 0.2261 0.0
H2147 H 0.10452 0.58357 0.18465 0.0
H2148 H 0.13483 0.66056 0.17898 0.0
H2149 H 0.14355 0.66099 0.22521 0.0
C2150 C 0.13423 0.62238 0.25833 0.0
C2151 C 0.12757 0.60091 0.27337 0.0
C2152 C 0.12932 0.62241 0.23168 0.0
C2153 C 0.1168 0.57923 0.26123 0.0
C2154 C 0.11227 0.57898 0.23481 0.0
C2155 C 0.11288 0.60058 0.19345 0.0
C2156 C 0.11881 0.62209 0.17824 0.0
C2157 C 0.11812 0.60056 0.21991 0.0
C2158 C 0.12985 0.64381 0.19015 0.0
C2159 C 0.135 0.64399 0.2166 0.0
loop_
_geom_bond_atom_site_label_1
_geom_bond_atom_site_label_2
_geom_bond_distance
_geom_bond_site_symmetry_2
_ccdc_geom_bond_type
C0 O1 1.160 . S
C0 O7 1.185 . S
O1 C0 1.160 . S
O2 Zn3 1.899 . S
O2 C10 1.284 . S
Zn3 O2 1.899 . S
Zn3 O4 2.032 . S
Zn3 O7 2.086 . S
Zn3 O12 1.977 . S
O4 Zn3 2.032 . S
O4 C8 1.278 . S
C5 O6 1.203 . S
C5 O12 1.267 . S
O6 C5 1.203 . S
O7 C0 1.185 . S
O7 Zn3 2.086 . S
C8 O4 1.278 . S
C8 O9 1.211 . S
O9 C8 1.211 . S
C10 O2 1.284 . S
C10 O11 1.273 . S
O11 C10 1.273 . S
O12 Zn3 1.977 . S
O12 C5 1.267 . S
C13 O14 1.160 . S
C13 O20 1.185 . S
O14 C13 1.160 . S
O15 Zn16 1.899 . S
O15 C23 1.284 . S
Zn16 O15 1.899 . S
Zn16 O17 2.032 . S
Zn16 O20 2.086 . S
Zn16 O25 1.977 . S
O17 Zn16 2.032 . S
O17 C21 1.278 . S
C18 O19 1.203 . S
C18 O25 1.267 . S
O19 C18 1.203 . S
O20 C13 1.185 . S
O20 Zn16 2.086 . S
C21 O17 1.278 . S
C21 O22 1.211 . S
O22 C21 1.211 . S
C23 O15 1.284 . S
C23 O24 1.273 . S
O24 C23 1.273 . S
O25 Zn16 1.977 . S
O25 C18 1.267 . S
C26 O27 1.160 . S
C26 O33 1.185 . S
O27 C26 1.160 . S
O28 Zn29 1.899 . S
O28 C36 1.284 . S
Zn29 O28 1.899 . S
Zn29 O30 2.032 . S
Zn29 O33 2.086 . S
Zn29 O38 1.977 . S
O30 Zn29 2.032 . S
O30 C34 1.278 . S
C31 O32 1.203 . S
C31 O38 1.267 . S
O32 C31 1.203 . S
O33 C26 1.185 . S
O33 Zn29 2.086 . S
C34 O30 1.278 . S
C34 O35 1.211 . S
O35 C34 1.211 . S
C36 O28 1.284 . S
C36 O37 1.273 . S
O37 C36 1.273 . S
O38 Zn29 1.977 . S
O38 C31 1.267 . S
C39 O40 1.160 . S
C39 O46 1.185 . S
O40 C39 1.160 . S
O41 Zn42 1.899 . S
O41 C49 1.284 . S
Zn42 O41 1.899 . S
Zn42 O43 2.032 . S
Zn42 O46 2.086 . S
Zn42 O51 1.977 . S
O43 Zn42 2.032 . S
O43 C47 1.278 . S
C44 O45 1.203 . S
C44 O51 1.267 . S
O45 C44 1.203 . S
O46 C39 1.185 . S
O46 Zn42 2.086 . S
C47 O43 1.278 . S
C47 O48 1.211 . S
O48 C47 1.211 . S
C49 O41 1.284 . S
C49 O50 1.273 . S
O50 C49 1.273 . S
O51 Zn42 1.977 . S
O51 C44 1.267 . S
C52 O53 1.160 . S
C52 O59 1.185 . S
O53 C52 1.160 . S
O54 Zn55 1.899 . S
O54 C62 1.284 . S
Zn55 O54 1.899 . S
Zn55 O56 2.032 . S
Zn55 O59 2.086 . S
Zn55 O64 1.977 . S
O56 Zn55 2.032 . S
O56 C60 1.278 . S
C57 O58 1.203 . S
C57 O64 1.267 . S
O58 C57 1.203 . S
O59 C52 1.185 . S
O59 Zn55 2.086 . S
C60 O56 1.278 . S
C60 O61 1.211 . S
O61 C60 1.211 . S
C62 O54 1.284 . S
C62 O63 1.273 . S
O63 C62 1.273 . S
O64 Zn55 1.977 . S
O64 C57 1.267 . S
C65 O66 1.160 . S
C65 O72 1.185 . S
O66 C65 1.160 . S
O67 Zn68 1.899 . S
O67 C75 1.284 . S
Zn68 O67 1.899 . S
Zn68 O69 2.032 . S
Zn68 O72 2.086 . S
Zn68 O77 1.977 . S
O69 Zn68 2.032 . S
O69 C73 1.278 . S
C70 O71 1.203 . S
C70 O77 1.267 . S
O71 C70 1.203 . S
O72 C65 1.185 . S
O72 Zn68 2.086 . S
C73 O69 1.278 . S
C73 O74 1.211 . S
O74 C73 1.211 . S
C75 O67 1.284 . S
C75 O76 1.273 . S
O76 C75 1.273 . S
O77 Zn68 1.977 . S
O77 C70 1.267 . S
C78 O79 1.160 . S
C78 O85 1.185 . S
O79 C78 1.160 . S
O80 Zn81 1.899 . S
O80 C88 1.284 . S
Zn81 O80 1.899 . S
Zn81 O82 2.032 . S
Zn81 O85 2.086 . S
Zn81 O90 1.977 . S
O82 Zn81 2.032 . S
O82 C86 1.278 . S
C83 O84 1.203 . S
C83 O90 1.267 . S
O84 C83 1.203 . S
O85 C78 1.185 . S
O85 Zn81 2.086 . S
C86 O82 1.278 . S
C86 O87 1.211 . S
O87 C86 1.211 . S
C88 O80 1.284 . S
C88 O89 1.273 . S
O89 C88 1.273 . S
O90 Zn81 1.977 . S
O90 C83 1.267 . S
C91 O92 1.160 . S
C91 O98 1.185 . S
O92 C91 1.160 . S
O93 Zn94 1.899 . S
O93 C101 1.284 . S
Zn94 O93 1.899 . S
Zn94 O95 2.032 . S
Zn94 O98 2.086 . S
Zn94 O103 1.977 . S
O95 Zn94 2.032 . S
O95 C99 1.278 . S
C96 O97 1.203 . S
C96 O103 1.267 . S
O97 C96 1.203 . S
O98 C91 1.185 . S
O98 Zn94 2.086 . S
C99 O95 1.278 . S
C99 O100 1.211 . S
O100 C99 1.211 . S
C101 O93 1.284 . S
C101 O102 1.273 . S
O102 C101 1.273 . S
O103 Zn94 1.977 . S
O103 C96 1.267 . S
C104 O105 1.160 . S
C104 O111 1.185 . S
O105 C104 1.160 . S
O106 Zn107 1.899 . S
O106 C114 1.284 . S
Zn107 O106 1.899 . S
Zn107 O108 2.032 . S
Zn107 O111 2.086 . S
Zn107 O116 1.977 . S
O108 Zn107 2.032 . S
O108 C112 1.278 . S
C109 O110 1.203 . S
C109 O116 1.267 . S
O110 C109 1.203 . S
O111 C104 1.185 . S
O111 Zn107 2.086 . S
C112 O108 1.278 . S
C112 O113 1.211 . S
O113 C112 1.211 . S
C114 O106 1.284 . S
C114 O115 1.273 . S
O115 C114 1.273 . S
O116 Zn107 1.977 . S
O116 C109 1.267 . S
C117 O118 1.160 . S
C117 O124 1.185 . S
O118 C117 1.160 . S
O119 Zn120 1.899 . S
O119 C127 1.284 . S
Zn120 O119 1.899 . S
Zn120 O121 2.032 . S
Zn120 O124 2.086 . S
Zn120 O129 1.977 . S
O121 Zn120 2.032 . S
O121 C125 1.278 . S
C122 O123 1.203 . S
C122 O129 1.267 . S
O123 C122 1.203 . S
O124 C117 1.185 . S
O124 Zn120 2.086 . S
C125 O121 1.278 . S
C125 O126 1.211 . S
O126 C125 1.211 . S
C127 O119 1.284 . S
C127 O128 1.273 . S
O128 C127 1.273 . S
O129 Zn120 1.977 . S
O129 C122 1.267 . S
C130 O131 1.160 . S
C130 O137 1.185 . S
O131 C130 1.160 . S
O132 Zn133 1.899 . S
O132 C140 1.284 . S
Zn133 O132 1.899 . S
Zn133 O134 2.032 . S
Zn133 O137 2.086 . S
Zn133 O142 1.977 . S
O134 Zn133 2.032 . S
O134 C138 1.278 . S
C135 O136 1.203 . S
C135 O142 1.267 . S
O136 C135 1.203 . S
O137 C130 1.185 . S
O137 Zn133 2.086 . S
C138 O134 1.278 . S
C138 O139 1.211 . S
O139 C138 1.211 . S
C140 O132 1.284 . S
C140 O141 1.273 . S
O141 C140 1.273 . S
O142 Zn133 1.977 . S
O142 C135 1.267 . S
C143 O144 1.160 . S
C143 O150 1.185 . S
O144 C143 1.160 . S
O145 Zn146 1.899 . S
O145 C153 1.284 . S
Zn146 O145 1.899 . S
Zn146 O147 2.032 . S
Zn146 O150 2.086 . S
Zn146 O155 1.977 . S
O147 Zn146 2.032 . S
O147 C151 1.278 . S
C148 O149 1.203 . S
C148 O155 1.267 . S
O149 C148 1.203 . S
O150 C143 1.185 . S
O150 Zn146 2.086 . S
C151 O147 1.278 . S
C151 O152 1.211 . S
O152 C151 1.211 . S
C153 O145 1.284 . S
C153 O154 1.273 . S
O154 C153 1.273 . S
O155 Zn146 1.977 . S
O155 C148 1.267 . S
C156 O157 1.160 . S
C156 O163 1.185 . S
O157 C156 1.160 . S
O158 Zn159 1.899 . S
O158 C166 1.284 . S
Zn159 O158 1.899 . S
Zn159 O160 2.032 . S
Zn159 O163 2.086 . S
Zn159 O168 1.977 . S
O160 Zn159 2.032 . S
O160 C164 1.278 . S
C161 O162 1.203 . S
C161 O168 1.267 . S
O162 C161 1.203 . S
O163 C156 1.185 . S
O163 Zn159 2.086 . S
C164 O160 1.278 . S
C164 O165 1.211 . S
O165 C164 1.211 . S
C166 O158 1.284 . S
C166 O167 1.273 . S
O167 C166 1.273 . S
O168 Zn159 1.977 . S
O168 C161 1.267 . S
C169 O170 1.160 . S
C169 O176 1.185 . S
O170 C169 1.160 . S
O171 Zn172 1.899 . S
O171 C179 1.284 . S
Zn172 O171 1.899 . S
Zn172 O173 2.032 . S
Zn172 O176 2.086 . S
Zn172 O181 1.977 . S
O173 Zn172 2.032 . S
O173 C177 1.278 . S
C174 O175 1.203 . S
C174 O181 1.267 . S
O175 C174 1.203 . S
O176 C169 1.185 . S
O176 Zn172 2.086 . S
C177 O173 1.278 . S
C177 O178 1.211 . S
O178 C177 1.211 . S
C179 O171 1.284 . S
C179 O180 1.273 . S
O180 C179 1.273 . S
O181 Zn172 1.977 . S
O181 C174 1.267 . S
C182 O183 1.160 . S
C182 O189 1.185 . S
O183 C182 1.160 . S
O184 Zn185 1.899 . S
O184 C192 1.284 . S
Zn185 O184 1.899 . S
Zn185 O186 2.032 . S
Zn185 O189 2.086 . S
Zn185 O194 1.977 . S
O186 Zn185 2.032 . S
O186 C190 1.278 . S
C187 O188 1.203 . S
C187 O194 1.267 . S
O188 C187 1.203 . S
O189 C182 1.185 . S
O189 Zn185 2.086 . S
C190 O186 1.278 . S
C190 O191 1.211 . S
O191 C190 1.211 . S
C192 O184 1.284 . S
C192 O193 1.273 . S
O193 C192 1.273 . S
O194 Zn185 1.977 . S
O194 C187 1.267 . S
C195 O196 1.160 . S
C195 O202 1.185 . S
O196 C195 1.160 . S
O197 Zn198 1.899 . S
O197 C205 1.284 . S
Zn198 O197 1.899 . S
Zn198 O199 2.032 . S
Zn198 O202 2.086 . S
Zn198 O207 1.977 . S
O199 Zn198 2.032 . S
O199 C203 1.278 . S
C200 O201 1.203 . S
C200 O207 1.267 . S
O201 C200 1.203 . S
O202 C195 1.185 . S
O202 Zn198 2.086 . S
C203 O199 1.278 . S
C203 O204 1.211 . S
O204 C203 1.211 . S
C205 O197 1.284 . S
C205 O206 1.273 . S
O206 C205 1.273 . S
O207 Zn198 1.977 . S
O207 C200 1.267 . S
C208 O209 1.160 . S
C208 O215 1.185 . S
O209 C208 1.160 . S
O210 Zn211 1.899 . S
O210 C218 1.284 . S
Zn211 O210 1.899 . S
Zn211 O212 2.032 . S
Zn211 O215 2.086 . S
Zn211 O220 1.977 . S
O212 Zn211 2.032 . S
O212 C216 1.278 . S
C213 O214 1.203 . S
C213 O220 1.267 . S
O214 C213 1.203 . S
O215 C208 1.185 . S
O215 Zn211 2.086 . S
C216 O212 1.278 . S
C216 O217 1.211 . S
O217 C216 1.211 . S
C218 O210 1.284 . S
C218 O219 1.273 . S
O219 C218 1.273 . S
O220 Zn211 1.977 . S
O220 C213 1.267 . S
C221 O222 1.160 . S
C221 O228 1.185 . S
O222 C221 1.160 . S
O223 Zn224 1.899 . S
O223 C231 1.284 . S
Zn224 O223 1.899 . S
Zn224 O225 2.032 . S
Zn224 O228 2.086 . S
Zn224 O233 1.977 . S
O225 Zn224 2.032 . S
O225 C229 1.278 . S
C226 O227 1.203 . S
C226 O233 1.267 . S
O227 C226 1.203 . S
O228 C221 1.185 . S
O228 Zn224 2.086 . S
C229 O225 1.278 . S
C229 O230 1.211 . S
O230 C229 1.211 . S
C231 O223 1.284 . S
C231 O232 1.273 . S
O232 C231 1.273 . S
O233 Zn224 1.977 . S
O233 C226 1.267 . S
C234 O235 1.160 . S
C234 O241 1.185 . S
O235 C234 1.160 . S
O236 Zn237 1.899 . S
O236 C244 1.284 . S
Zn237 O236 1.899 . S
Zn237 O238 2.032 . S
Zn237 O241 2.086 . S
Zn237 O246 1.977 . S
O238 Zn237 2.032 . S
O238 C242 1.278 . S
C239 O240 1.203 . S
C239 O246 1.267 . S
O240 C239 1.203 . S
O241 C234 1.185 . S
O241 Zn237 2.086 . S
C242 O238 1.278 . S
C242 O243 1.211 . S
O243 C242 1.211 . S
C244 O236 1.284 . S
C244 O245 1.273 . S
O245 C244 1.273 . S
O246 Zn237 1.977 . S
O246 C239 1.267 . S
C247 O248 1.160 . S
C247 O254 1.185 . S
O248 C247 1.160 . S
O249 Zn250 1.899 . S
O249 C257 1.284 . S
Zn250 O249 1.899 . S
Zn250 O251 2.032 . S
Zn250 O254 2.086 . S
Zn250 O259 1.977 . S
O251 Zn250 2.032 . S
O251 C255 1.278 . S
C252 O253 1.203 . S
C252 O259 1.267 . S
O253 C252 1.203 . S
O254 C247 1.185 . S
O254 Zn250 2.086 . S
C255 O251 1.278 . S
C255 O256 1.211 . S
O256 C255 1.211 . S
C257 O249 1.284 . S
C257 O258 1.273 . S
O258 C257 1.273 . S
O259 Zn250 1.977 . S
O259 C252 1.267 . S
C260 O261 1.160 . S
C260 O267 1.185 . S
O261 C260 1.160 . S
O262 Zn263 1.899 . S
O262 C270 1.284 . S
Zn263 O262 1.899 . S
Zn263 O264 2.032 . S
Zn263 O267 2.086 . S
Zn263 O272 1.977 . S
O264 Zn263 2.032 . S
O264 C268 1.278 . S
C265 O266 1.203 . S
C265 O272 1.267 . S
O266 C265 1.203 . S
O267 C260 1.185 . S
O267 Zn263 2.086 . S
C268 O264 1.278 . S
C268 O269 1.211 . S
O269 C268 1.211 . S
C270 O262 1.284 . S
C270 O271 1.273 . S
O271 C270 1.273 . S
O272 Zn263 1.977 . S
O272 C265 1.267 . S
C273 O274 1.160 . S
C273 O280 1.185 . S
O274 C273 1.160 . S
O275 Zn276 1.899 . S
O275 C283 1.284 . S
Zn276 O275 1.899 . S
Zn276 O277 2.032 . S
Zn276 O280 2.086 . S
Zn276 O285 1.977 . S
O277 Zn276 2.032 . S
O277 C281 1.278 . S
C278 O279 1.203 . S
C278 O285 1.267 . S
O279 C278 1.203 . S
O280 C273 1.185 . S
O280 Zn276 2.086 . S
C281 O277 1.278 . S
C281 O282 1.211 . S
O282 C281 1.211 . S
C283 O275 1.284 . S
C283 O284 1.273 . S
O284 C283 1.273 . S
O285 Zn276 1.977 . S
O285 C278 1.267 . S
C286 O287 1.160 . S
C286 O293 1.185 . S
O287 C286 1.160 . S
O288 Zn289 1.899 . S
O288 C296 1.284 . S
Zn289 O288 1.899 . S
Zn289 O290 2.032 . S
Zn289 O293 2.086 . S
Zn289 O298 1.977 . S
O290 Zn289 2.032 . S
O290 C294 1.278 . S
C291 O292 1.203 . S
C291 O298 1.267 . S
O292 C291 1.203 . S
O293 C286 1.185 . S
O293 Zn289 2.086 . S
C294 O290 1.278 . S
C294 O295 1.211 . S
O295 C294 1.211 . S
C296 O288 1.284 . S
C296 O297 1.273 . S
O297 C296 1.273 . S
O298 Zn289 1.977 . S
O298 C291 1.267 . S
C299 O300 1.160 . S
C299 O306 1.185 . S
O300 C299 1.160 . S
O301 Zn302 1.899 . S
O301 C309 1.284 . S
Zn302 O301 1.899 . S
Zn302 O303 2.032 . S
Zn302 O306 2.086 . S
Zn302 O311 1.977 . S
O303 Zn302 2.032 . S
O303 C307 1.278 . S
C304 O305 1.203 . S
C304 O311 1.267 . S
O305 C304 1.203 . S
O306 C299 1.185 . S
O306 Zn302 2.086 . S
C307 O303 1.278 . S
C307 O308 1.211 . S
O308 C307 1.211 . S
C309 O301 1.284 . S
C309 O310 1.273 . S
O310 C309 1.273 . S
O311 Zn302 1.977 . S
O311 C304 1.267 . S
C312 O313 1.160 . S
C312 O319 1.185 . S
O313 C312 1.160 . S
O314 Zn315 1.899 . S
O314 C322 1.284 . S
Zn315 O314 1.899 . S
Zn315 O316 2.032 . S
Zn315 O319 2.086 . S
Zn315 O324 1.977 . S
O316 Zn315 2.032 . S
O316 C320 1.278 . S
C317 O318 1.203 . S
C317 O324 1.267 . S
O318 C317 1.203 . S
O319 C312 1.185 . S
O319 Zn315 2.086 . S
C320 O316 1.278 . S
C320 O321 1.211 . S
O321 C320 1.211 . S
C322 O314 1.284 . S
C322 O323 1.273 . S
O323 C322 1.273 . S
O324 Zn315 1.977 . S
O324 C317 1.267 . S
C325 O326 1.160 . S
C325 O332 1.185 . S
O326 C325 1.160 . S
O327 Zn328 1.899 . S
O327 C335 1.284 . S
Zn328 O327 1.899 . S
Zn328 O329 2.032 . S
Zn328 O332 2.086 . S
Zn328 O337 1.977 . S
O329 Zn328 2.032 . S
O329 C333 1.278 . S
C330 O331 1.203 . S
C330 O337 1.267 . S
O331 C330 1.203 . S
O332 C325 1.185 . S
O332 Zn328 2.086 . S
C333 O329 1.278 . S
C333 O334 1.211 . S
O334 C333 1.211 . S
C335 O327 1.284 . S
C335 O336 1.273 . S
O336 C335 1.273 . S
O337 Zn328 1.977 . S
O337 C330 1.267 . S
C338 O339 1.160 . S
C338 O345 1.185 . S
O339 C338 1.160 . S
O340 Zn341 1.899 . S
O340 C348 1.284 . S
Zn341 O340 1.899 . S
Zn341 O342 2.032 . S
Zn341 O345 2.086 . S
Zn341 O350 1.977 . S
O342 Zn341 2.032 . S
O342 C346 1.278 . S
C343 O344 1.203 . S
C343 O350 1.267 . S
O344 C343 1.203 . S
O345 C338 1.185 . S
O345 Zn341 2.086 . S
C346 O342 1.278 . S
C346 O347 1.211 . S
O347 C346 1.211 . S
C348 O340 1.284 . S
C348 O349 1.273 . S
O349 C348 1.273 . S
O350 Zn341 1.977 . S
O350 C343 1.267 . S
C351 O352 1.160 . S
C351 O358 1.185 . S
O352 C351 1.160 . S
O353 Zn354 1.899 . S
O353 C361 1.284 . S
Zn354 O353 1.899 . S
Zn354 O355 2.032 . S
Zn354 O358 2.086 . S
Zn354 O363 1.977 . S
O355 Zn354 2.032 . S
O355 C359 1.278 . S
C356 O357 1.203 . S
C356 O363 1.267 . S
O357 C356 1.203 . S
O358 C351 1.185 . S
O358 Zn354 2.086 . S
C359 O355 1.278 . S
C359 O360 1.211 . S
O360 C359 1.211 . S
C361 O353 1.284 . S
C361 O362 1.273 . S
O362 C361 1.273 . S
O363 Zn354 1.977 . S
O363 C356 1.267 . S
C364 O365 1.160 . S
C364 O371 1.185 . S
O365 C364 1.160 . S
O366 Zn367 1.899 . S
O366 C374 1.284 . S
Zn367 O366 1.899 . S
Zn367 O368 2.032 . S
Zn367 O371 2.086 . S
Zn367 O376 1.977 . S
O368 Zn367 2.032 . S
O368 C372 1.278 . S
C369 O370 1.203 . S
C369 O376 1.267 . S
O370 C369 1.203 . S
O371 C364 1.185 . S
O371 Zn367 2.086 . S
C372 O368 1.278 . S
C372 O373 1.211 . S
O373 C372 1.211 . S
C374 O366 1.284 . S
C374 O375 1.273 . S
O375 C374 1.273 . S
O376 Zn367 1.977 . S
O376 C369 1.267 . S
C377 O378 1.160 . S
C377 O384 1.185 . S
O378 C377 1.160 . S
O379 Zn380 1.899 . S
O379 C387 1.284 . S
Zn380 O379 1.899 . S
Zn380 O381 2.032 . S
Zn380 O384 2.086 . S
Zn380 O389 1.977 . S
O381 Zn380 2.032 . S
O381 C385 1.278 . S
C382 O383 1.203 . S
C382 O389 1.267 . S
O383 C382 1.203 . S
O384 C377 1.185 . S
O384 Zn380 2.086 . S
C385 O381 1.278 . S
C385 O386 1.211 . S
O386 C385 1.211 . S
C387 O379 1.284 . S
C387 O388 1.273 . S
O388 C387 1.273 . S
O389 Zn380 1.977 . S
O389 C382 1.267 . S
C390 O391 1.160 . S
C390 O397 1.185 . S
O391 C390 1.160 . S
O392 Zn393 1.899 . S
O392 C400 1.284 . S
Zn393 O392 1.899 . S
Zn393 O394 2.032 . S
Zn393 O397 2.086 . S
Zn393 O402 1.977 . S
O394 Zn393 2.032 . S
O394 C398 1.278 . S
C395 O396 1.203 . S
C395 O402 1.267 . S
O396 C395 1.203 . S
O397 C390 1.185 . S
O397 Zn393 2.086 . S
C398 O394 1.278 . S
C398 O399 1.211 . S
O399 C398 1.211 . S
C400 O392 1.284 . S
C400 O401 1.273 . S
O401 C400 1.273 . S
O402 Zn393 1.977 . S
O402 C395 1.267 . S
C403 O404 1.160 . S
C403 O410 1.185 . S
O404 C403 1.160 . S
O405 Zn406 1.899 . S
O405 C413 1.284 . S
Zn406 O405 1.899 . S
Zn406 O407 2.032 . S
Zn406 O410 2.086 . S
Zn406 O415 1.977 . S
O407 Zn406 2.032 . S
O407 C411 1.278 . S
C408 O409 1.203 . S
C408 O415 1.267 . S
O409 C408 1.203 . S
O410 C403 1.185 . S
O410 Zn406 2.086 . S
C411 O407 1.278 . S
C411 O412 1.211 . S
O412 C411 1.211 . S
C413 O405 1.284 . S
C413 O414 1.273 . S
O414 C413 1.273 . S
O415 Zn406 1.977 . S
O415 C408 1.267 . S
C416 O417 1.160 . S
C416 O423 1.185 . S
O417 C416 1.160 . S
O418 Zn419 1.899 . S
O418 C426 1.284 . S
Zn419 O418 1.899 . S
Zn419 O420 2.032 . S
Zn419 O423 2.086 . S
Zn419 O428 1.977 . S
O420 Zn419 2.032 . S
O420 C424 1.278 . S
C421 O422 1.203 . S
C421 O428 1.267 . S
O422 C421 1.203 . S
O423 C416 1.185 . S
O423 Zn419 2.086 . S
C424 O420 1.278 . S
C424 O425 1.211 . S
O425 C424 1.211 . S
C426 O418 1.284 . S
C426 O427 1.273 . S
O427 C426 1.273 . S
O428 Zn419 1.977 . S
O428 C421 1.267 . S
C429 O430 1.160 . S
C429 O436 1.185 . S
O430 C429 1.160 . S
O431 Zn432 1.899 . S
O431 C439 1.284 . S
Zn432 O431 1.899 . S
Zn432 O433 2.032 . S
Zn432 O436 2.086 . S
Zn432 O441 1.977 . S
O433 Zn432 2.032 . S
O433 C437 1.278 . S
C434 O435 1.203 . S
C434 O441 1.267 . S
O435 C434 1.203 . S
O436 C429 1.185 . S
O436 Zn432 2.086 . S
C437 O433 1.278 . S
C437 O438 1.211 . S
O438 C437 1.211 . S
C439 O431 1.284 . S
C439 O440 1.273 . S
O440 C439 1.273 . S
O441 Zn432 1.977 . S
O441 C434 1.267 . S
C442 O443 1.160 . S
C442 O449 1.185 . S
O443 C442 1.160 . S
O444 Zn445 1.899 . S
O444 C452 1.284 . S
Zn445 O444 1.899 . S
Zn445 O446 2.032 . S
Zn445 O449 2.086 . S
Zn445 O454 1.977 . S
O446 Zn445 2.032 . S
O446 C450 1.278 . S
C447 O448 1.203 . S
C447 O454 1.267 . S
O448 C447 1.203 . S
O449 C442 1.185 . S
O449 Zn445 2.086 . S
C450 O446 1.278 . S
C450 O451 1.211 . S
O451 C450 1.211 . S
C452 O444 1.284 . S
C452 O453 1.273 . S
O453 C452 1.273 . S
O454 Zn445 1.977 . S
O454 C447 1.267 . S
C455 O456 1.160 . S
C455 O462 1.185 . S
O456 C455 1.160 . S
O457 Zn458 1.899 . S
O457 C465 1.284 . S
Zn458 O457 1.899 . S
Zn458 O459 2.032 . S
Zn458 O462 2.086 . S
Zn458 O467 1.977 . S
O459 Zn458 2.032 . S
O459 C463 1.278 . S
C460 O461 1.203 . S
C460 O467 1.267 . S
O461 C460 1.203 . S
O462 C455 1.185 . S
O462 Zn458 2.086 . S
C463 O459 1.278 . S
C463 O464 1.211 . S
O464 C463 1.211 . S
C465 O457 1.284 . S
C465 O466 1.273 . S
O466 C465 1.273 . S
O467 Zn458 1.977 . S
O467 C460 1.267 . S
C468 O469 1.160 . S
C468 O475 1.185 . S
O469 C468 1.160 . S
O470 Zn471 1.899 . S
O470 C478 1.284 . S
Zn471 O470 1.899 . S
Zn471 O472 2.032 . S
Zn471 O475 2.086 . S
Zn471 O480 1.977 . S
O472 Zn471 2.032 . S
O472 C476 1.278 . S
C473 O474 1.203 . S
C473 O480 1.267 . S
O474 C473 1.203 . S
O475 C468 1.185 . S
O475 Zn471 2.086 . S
C476 O472 1.278 . S
C476 O477 1.211 . S
O477 C476 1.211 . S
C478 O470 1.284 . S
C478 O479 1.273 . S
O479 C478 1.273 . S
O480 Zn471 1.977 . S
O480 C473 1.267 . S
C481 O482 1.160 . S
C481 O488 1.185 . S
O482 C481 1.160 . S
O483 Zn484 1.899 . S
O483 C491 1.284 . S
Zn484 O483 1.899 . S
Zn484 O485 2.032 . S
Zn484 O488 2.086 . S
Zn484 O493 1.977 . S
O485 Zn484 2.032 . S
O485 C489 1.278 . S
C486 O487 1.203 . S
C486 O493 1.267 . S
O487 C486 1.203 . S
O488 C481 1.185 . S
O488 Zn484 2.086 . S
C489 O485 1.278 . S
C489 O490 1.211 . S
O490 C489 1.211 . S
C491 O483 1.284 . S
C491 O492 1.273 . S
O492 C491 1.273 . S
O493 Zn484 1.977 . S
O493 C486 1.267 . S
C494 O495 1.160 . S
C494 O501 1.185 . S
O495 C494 1.160 . S
O496 Zn497 1.899 . S
O496 C504 1.284 . S
Zn497 O496 1.899 . S
Zn497 O498 2.032 . S
Zn497 O501 2.086 . S
Zn497 O506 1.977 . S
O498 Zn497 2.032 . S
O498 C502 1.278 . S
C499 O500 1.203 . S
C499 O506 1.267 . S
O500 C499 1.203 . S
O501 C494 1.185 . S
O501 Zn497 2.086 . S
C502 O498 1.278 . S
C502 O503 1.211 . S
O503 C502 1.211 . S
C504 O496 1.284 . S
C504 O505 1.273 . S
O505 C504 1.273 . S
O506 Zn497 1.977 . S
O506 C499 1.267 . S
C507 O508 1.160 . S
C507 O514 1.185 . S
O508 C507 1.160 . S
O509 Zn510 1.899 . S
O509 C517 1.284 . S
Zn510 O509 1.899 . S
Zn510 O511 2.032 . S
Zn510 O514 2.086 . S
Zn510 O519 1.977 . S
O511 Zn510 2.032 . S
O511 C515 1.278 . S
C512 O513 1.203 . S
C512 O519 1.267 . S
O513 C512 1.203 . S
O514 C507 1.185 . S
O514 Zn510 2.086 . S
C515 O511 1.278 . S
C515 O516 1.211 . S
O516 C515 1.211 . S
C517 O509 1.284 . S
C517 O518 1.273 . S
O518 C517 1.273 . S
O519 Zn510 1.977 . S
O519 C512 1.267 . S
C520 O521 1.160 . S
C520 O527 1.185 . S
O521 C520 1.160 . S
O522 Zn523 1.899 . S
O522 C530 1.284 . S
Zn523 O522 1.899 . S
Zn523 O524 2.032 . S
Zn523 O527 2.086 . S
Zn523 O532 1.977 . S
O524 Zn523 2.032 . S
O524 C528 1.278 . S
C525 O526 1.203 . S
C525 O532 1.267 . S
O526 C525 1.203 . S
O527 C520 1.185 . S
O527 Zn523 2.086 . S
C528 O524 1.278 . S
C528 O529 1.211 . S
O529 C528 1.211 . S
C530 O522 1.284 . S
C530 O531 1.273 . S
O531 C530 1.273 . S
O532 Zn523 1.977 . S
O532 C525 1.267 . S
C533 O534 1.160 . S
C533 O540 1.185 . S
O534 C533 1.160 . S
O535 Zn536 1.899 . S
O535 C543 1.284 . S
Zn536 O535 1.899 . S
Zn536 O537 2.032 . S
Zn536 O540 2.086 . S
Zn536 O545 1.977 . S
O537 Zn536 2.032 . S
O537 C541 1.278 . S
C538 O539 1.203 . S
C538 O545 1.267 . S
O539 C538 1.203 . S
O540 C533 1.185 . S
O540 Zn536 2.086 . S
C541 O537 1.278 . S
C541 O542 1.211 . S
O542 C541 1.211 . S
C543 O535 1.284 . S
C543 O544 1.273 . S
O544 C543 1.273 . S
O545 Zn536 1.977 . S
O545 C538 1.267 . S
C546 O547 1.160 . S
C546 O553 1.185 . S
O547 C546 1.160 . S
O548 Zn549 1.899 . S
O548 C556 1.284 . S
Zn549 O548 1.899 . S
Zn549 O550 2.032 . S
Zn549 O553 2.086 . S
Zn549 O558 1.977 . S
O550 Zn549 2.032 . S
O550 C554 1.278 . S
C551 O552 1.203 . S
C551 O558 1.267 . S
O552 C551 1.203 . S
O553 C546 1.185 . S
O553 Zn549 2.086 . S
C554 O550 1.278 . S
C554 O555 1.211 . S
O555 C554 1.211 . S
C556 O548 1.284 . S
C556 O557 1.273 . S
O557 C556 1.273 . S
O558 Zn549 1.977 . S
O558 C551 1.267 . S
C559 O560 1.160 . S
C559 O566 1.185 . S
O560 C559 1.160 . S
O561 Zn562 1.899 . S
O561 C569 1.284 . S
Zn562 O561 1.899 . S
Zn562 O563 2.032 . S
Zn562 O566 2.086 . S
Zn562 O571 1.977 . S
O563 Zn562 2.032 . S
O563 C567 1.278 . S
C564 O565 1.203 . S
C564 O571 1.267 . S
O565 C564 1.203 . S
O566 C559 1.185 . S
O566 Zn562 2.086 . S
C567 O563 1.278 . S
C567 O568 1.211 . S
O568 C567 1.211 . S
C569 O561 1.284 . S
C569 O570 1.273 . S
O570 C569 1.273 . S
O571 Zn562 1.977 . S
O571 C564 1.267 . S
C572 O573 1.160 . S
C572 O579 1.185 . S
O573 C572 1.160 . S
O574 Zn575 1.899 . S
O574 C582 1.284 . S
Zn575 O574 1.899 . S
Zn575 O576 2.032 . S
Zn575 O579 2.086 . S
Zn575 O584 1.977 . S
O576 Zn575 2.032 . S
O576 C580 1.278 . S
C577 O578 1.203 . S
C577 O584 1.267 . S
O578 C577 1.203 . S
O579 C572 1.185 . S
O579 Zn575 2.086 . S
C580 O576 1.278 . S
C580 O581 1.211 . S
O581 C580 1.211 . S
C582 O574 1.284 . S
C582 O583 1.273 . S
O583 C582 1.273 . S
O584 Zn575 1.977 . S
O584 C577 1.267 . S
C585 O586 1.160 . S
C585 O592 1.185 . S
O586 C585 1.160 . S
O587 Zn588 1.899 . S
O587 C595 1.284 . S
Zn588 O587 1.899 . S
Zn588 O589 2.032 . S
Zn588 O592 2.086 . S
Zn588 O597 1.977 . S
O589 Zn588 2.032 . S
O589 C593 1.278 . S
C590 O591 1.203 . S
C590 O597 1.267 . S
O591 C590 1.203 . S
O592 C585 1.185 . S
O592 Zn588 2.086 . S
C593 O589 1.278 . S
C593 O594 1.211 . S
O594 C593 1.211 . S
C595 O587 1.284 . S
C595 O596 1.273 . S
O596 C595 1.273 . S
O597 Zn588 1.977 . S
O597 C590 1.267 . S
C598 O599 1.160 . S
C598 O605 1.185 . S
O599 C598 1.160 . S
O600 Zn601 1.899 . S
O600 C608 1.284 . S
Zn601 O600 1.899 . S
Zn601 O602 2.032 . S
Zn601 O605 2.086 . S
Zn601 O610 1.977 . S
O602 Zn601 2.032 . S
O602 C606 1.278 . S
C603 O604 1.203 . S
C603 O610 1.267 . S
O604 C603 1.203 . S
O605 C598 1.185 . S
O605 Zn601 2.086 . S
C606 O602 1.278 . S
C606 O607 1.211 . S
O607 C606 1.211 . S
C608 O600 1.284 . S
C608 O609 1.273 . S
O609 C608 1.273 . S
O610 Zn601 1.977 . S
O610 C603 1.267 . S
C611 O612 1.160 . S
C611 O618 1.185 . S
O612 C611 1.160 . S
O613 Zn614 1.899 . S
O613 C621 1.284 . S
Zn614 O613 1.899 . S
Zn614 O615 2.032 . S
Zn614 O618 2.086 . S
Zn614 O623 1.977 . S
O615 Zn614 2.032 . S
O615 C619 1.278 . S
C616 O617 1.203 . S
C616 O623 1.267 . S
O617 C616 1.203 . S
O618 C611 1.185 . S
O618 Zn614 2.086 . S
C619 O615 1.278 . S
C619 O620 1.211 . S
O620 C619 1.211 . S
C621 O613 1.284 . S
C621 O622 1.273 . S
O622 C621 1.273 . S
O623 Zn614 1.977 . S
O623 C616 1.267 . S
H624 C630 0.930 . S
H625 C633 0.930 . S
H626 C634 0.930 . S
H627 C635 0.930 . S
H628 C638 0.930 . S
H629 C639 0.930 . S
C630 H624 0.930 . S
C630 C631 1.355 . S
C630 C632 1.415 . S
C631 C630 1.355 . S
C631 C633 1.419 . S
C632 C630 1.415 . S
C632 C637 1.425 . S
C632 C639 1.409 . S
C633 H625 0.930 . S
C633 C631 1.419 . S
C633 C634 1.362 . S
C634 H626 0.930 . S
C634 C633 1.362 . S
C634 C637 1.409 . S
C635 H627 0.930 . S
C635 C636 1.355 . S
C635 C637 1.415 . S
C636 C635 1.355 . S
C636 C638 1.419 . S
C637 C632 1.425 . S
C637 C634 1.409 . S
C637 C635 1.415 . S
C638 H628 0.930 . S
C638 C636 1.419 . S
C638 C639 1.362 . S
C639 H629 0.930 . S
C639 C632 1.409 . S
C639 C638 1.362 . S
H640 C646 0.930 . S
H641 C649 0.930 . S
H642 C650 0.930 . S
H643 C651 0.930 . S
H644 C654 0.930 . S
H645 C655 0.930 . S
C646 H640 0.930 . S
C646 C647 1.355 . S
C646 C648 1.415 . S
C647 C646 1.355 . S
C647 C649 1.419 . S
C648 C646 1.415 . S
C648 C653 1.425 . S
C648 C655 1.409 . S
C649 H641 0.930 . S
C649 C647 1.419 . S
C649 C650 1.362 . S
C650 H642 0.930 . S
C650 C649 1.362 . S
C650 C653 1.409 . S
C651 H643 0.930 . S
C651 C652 1.355 . S
C651 C653 1.415 . S
C652 C651 1.355 . S
C652 C654 1.419 . S
C653 C648 1.425 . S
C653 C650 1.409 . S
C653 C651 1.415 . S
C654 H644 0.930 . S
C654 C652 1.419 . S
C654 C655 1.362 . S
C655 H645 0.930 . S
C655 C648 1.409 . S
C655 C654 1.362 . S
H656 C662 0.930 . S
H657 C665 0.930 . S
H658 C666 0.930 . S
H659 C667 0.930 . S
H660 C670 0.930 . S
H661 C671 0.930 . S
C662 H656 0.930 . S
C662 C663 1.355 . S
C662 C664 1.415 . S
C663 C662 1.355 . S
C663 C665 1.419 . S
C664 C662 1.415 . S
C664 C669 1.425 . S
C664 C671 1.409 . S
C665 H657 0.930 . S
C665 C663 1.419 . S
C665 C666 1.362 . S
C666 H658 0.930 . S
C666 C665 1.362 . S
C666 C669 1.409 . S
C667 H659 0.930 . S
C667 C668 1.355 . S
C667 C669 1.415 . S
C668 C667 1.355 . S
C668 C670 1.419 . S
C669 C664 1.425 . S
C669 C666 1.409 . S
C669 C667 1.415 . S
C670 H660 0.930 . S
C670 C668 1.419 . S
C670 C671 1.362 . S
C671 H661 0.930 . S
C671 C664 1.409 . S
C671 C670 1.362 . S
H672 C678 0.930 . S
H673 C681 0.930 . S
H674 C682 0.930 . S
H675 C683 0.930 . S
H676 C686 0.930 . S
H677 C687 0.930 . S
C678 H672 0.930 . S
C678 C679 1.355 . S
C678 C680 1.415 . S
C679 C678 1.355 . S
C679 C681 1.419 . S
C680 C678 1.415 . S
C680 C685 1.425 . S
C680 C687 1.409 . S
C681 H673 0.930 . S
C681 C679 1.419 . S
C681 C682 1.362 . S
C682 H674 0.930 . S
C682 C681 1.362 . S
C682 C685 1.409 . S
C683 H675 0.930 . S
C683 C684 1.355 . S
C683 C685 1.415 . S
C684 C683 1.355 . S
C684 C686 1.419 . S
C685 C680 1.425 . S
C685 C682 1.409 . S
C685 C683 1.415 . S
C686 H676 0.930 . S
C686 C684 1.419 . S
C686 C687 1.362 . S
C687 H677 0.930 . S
C687 C680 1.409 . S
C687 C686 1.362 . S
H688 C694 0.930 . S
H689 C697 0.930 . S
H690 C698 0.930 . S
H691 C699 0.930 . S
H692 C702 0.930 . S
H693 C703 0.930 . S
C694 H688 0.930 . S
C694 C695 1.355 . S
C694 C696 1.415 . S
C695 C694 1.355 . S
C695 C697 1.419 . S
C696 C694 1.415 . S
C696 C701 1.425 . S
C696 C703 1.409 . S
C697 H689 0.930 . S
C697 C695 1.419 . S
C697 C698 1.362 . S
C698 H690 0.930 . S
C698 C697 1.362 . S
C698 C701 1.409 . S
C699 H691 0.930 . S
C699 C700 1.355 . S
C699 C701 1.415 . S
C700 C699 1.355 . S
C700 C702 1.419 . S
C701 C696 1.425 . S
C701 C698 1.409 . S
C701 C699 1.415 . S
C702 H692 0.930 . S
C702 C700 1.419 . S
C702 C703 1.362 . S
C703 H693 0.930 . S
C703 C696 1.409 . S
C703 C702 1.362 . S
H704 C710 0.930 . S
H705 C713 0.930 . S
H706 C714 0.930 . S
H707 C715 0.930 . S
H708 C718 0.930 . S
H709 C719 0.930 . S
C710 H704 0.930 . S
C710 C711 1.355 . S
C710 C712 1.415 . S
C711 C710 1.355 . S
C711 C713 1.419 . S
C712 C710 1.415 . S
C712 C717 1.425 . S
C712 C719 1.409 . S
C713 H705 0.930 . S
C713 C711 1.419 . S
C713 C714 1.362 . S
C714 H706 0.930 . S
C714 C713 1.362 . S
C714 C717 1.409 . S
C715 H707 0.930 . S
C715 C716 1.355 . S
C715 C717 1.415 . S
C716 C715 1.355 . S
C716 C718 1.419 . S
C717 C712 1.425 . S
C717 C714 1.409 . S
C717 C715 1.415 . S
C718 H708 0.930 . S
C718 C716 1.419 . S
C718 C719 1.362 . S
C719 H709 0.930 . S
C719 C712 1.409 . S
C719 C718 1.362 . S
H720 C726 0.930 . S
H721 C729 0.930 . S
H722 C730 0.930 . S
H723 C731 0.930 . S
H724 C734 0.930 . S
H725 C735 0.930 . S
C726 H720 0.930 . S
C726 C727 1.355 . S
C726 C728 1.415 . S
C727 C726 1.355 . S
C727 C729 1.419 . S
C728 C726 1.415 . S
C728 C733 1.425 . S
C728 C735 1.409 . S
C729 H721 0.930 . S
C729 C727 1.419 . S
C729 C730 1.362 . S
C730 H722 0.930 . S
C730 C729 1.362 . S
C730 C733 1.409 . S
C731 H723 0.930 . S
C731 C732 1.355 . S
C731 C733 1.415 . S
C732 C731 1.355 . S
C732 C734 1.419 . S
C733 C728 1.425 . S
C733 C730 1.409 . S
C733 C731 1.415 . S
C734 H724 0.930 . S
C734 C732 1.419 . S
C734 C735 1.362 . S
C735 H725 0.930 . S
C735 C728 1.409 . S
C735 C734 1.362 . S
H736 C742 0.930 . S
H737 C745 0.930 . S
H738 C746 0.930 . S
H739 C747 0.930 . S
H740 C750 0.930 . S
H741 C751 0.930 . S
C742 H736 0.930 . S
C742 C743 1.355 . S
C742 C744 1.415 . S
C743 C742 1.355 . S
C743 C745 1.419 . S
C744 C742 1.415 . S
C744 C749 1.425 . S
C744 C751 1.409 . S
C745 H737 0.930 . S
C745 C743 1.419 . S
C745 C746 1.362 . S
C746 H738 0.930 . S
C746 C745 1.362 . S
C746 C749 1.409 . S
C747 H739 0.930 . S
C747 C748 1.355 . S
C747 C749 1.415 . S
C748 C747 1.355 . S
C748 C750 1.419 . S
C749 C744 1.425 . S
C749 C746 1.409 . S
C749 C747 1.415 . S
C750 H740 0.930 . S
C750 C748 1.419 . S
C750 C751 1.362 . S
C751 H741 0.930 . S
C751 C744 1.409 . S
C751 C750 1.362 . S
H752 C758 0.930 . S
H753 C761 0.930 . S
H754 C762 0.930 . S
H755 C763 0.930 . S
H756 C766 0.930 . S
H757 C767 0.930 . S
C758 H752 0.930 . S
C758 C759 1.355 . S
C758 C760 1.415 . S
C759 C758 1.355 . S
C759 C761 1.419 . S
C760 C758 1.415 . S
C760 C765 1.425 . S
C760 C767 1.409 . S
C761 H753 0.930 . S
C761 C759 1.419 . S
C761 C762 1.362 . S
C762 H754 0.930 . S
C762 C761 1.362 . S
C762 C765 1.409 . S
C763 H755 0.930 . S
C763 C764 1.355 . S
C763 C765 1.415 . S
C764 C763 1.355 . S
C764 C766 1.419 . S
C765 C760 1.425 . S
C765 C762 1.409 . S
C765 C763 1.415 . S
C766 H756 0.930 . S
C766 C764 1.419 . S
C766 C767 1.362 . S
C767 H757 0.930 . S
C767 C760 1.409 . S
C767 C766 1.362 . S
H768 C774 0.930 . S
H769 C777 0.930 . S
H770 C778 0.930 . S
H771 C779 0.930 . S
H772 C782 0.930 . S
H773 C783 0.930 . S
C774 H768 0.930 . S
C774 C775 1.355 . S
C774 C776 1.415 . S
C775 C774 1.355 . S
C775 C777 1.419 . S
C776 C774 1.415 . S
C776 C781 1.425 . S
C776 C783 1.409 . S
C777 H769 0.930 . S
C777 C775 1.419 . S
C777 C778 1.362 . S
C778 H770 0.930 . S
C778 C777 1.362 . S
C778 C781 1.409 . S
C779 H771 0.930 . S
C779 C780 1.355 . S
C779 C781 1.415 . S
C780 C779 1.355 . S
C780 C782 1.419 . S
C781 C776 1.425 . S
C781 C778 1.409 . S
C781 C779 1.415 . S
C782 H772 0.930 . S
C782 C780 1.419 . S
C782 C783 1.362 . S
C783 H773 0.930 . S
C783 C776 1.409 . S
C783 C782 1.362 . S
H784 C790 0.930 . S
H785 C793 0.930 . S
H786 C794 0.930 . S
H787 C795 0.930 . S
H788 C798 0.930 . S
H789 C799 0.930 . S
C790 H784 0.930 . S
C790 C791 1.355 . S
C790 C792 1.415 . S
C791 C790 1.355 . S
C791 C793 1.419 . S
C792 C790 1.415 . S
C792 C797 1.425 . S
C792 C799 1.409 . S
C793 H785 0.930 . S
C793 C791 1.419 . S
C793 C794 1.362 . S
C794 H786 0.930 . S
C794 C793 1.362 . S
C794 C797 1.409 . S
C795 H787 0.930 . S
C795 C796 1.355 . S
C795 C797 1.415 . S
C796 C795 1.355 . S
C796 C798 1.419 . S
C797 C792 1.425 . S
C797 C794 1.409 . S
C797 C795 1.415 . S
C798 H788 0.930 . S
C798 C796 1.419 . S
C798 C799 1.362 . S
C799 H789 0.930 . S
C799 C792 1.409 . S
C799 C798 1.362 . S
H800 C806 0.930 . S
H801 C809 0.930 . S
H802 C810 0.930 . S
H803 C811 0.930 . S
H804 C814 0.930 . S
H805 C815 0.930 . S
C806 H800 0.930 . S
C806 C807 1.355 . S
C806 C808 1.415 . S
C807 C806 1.355 . S
C807 C809 1.419 . S
C808 C806 1.415 . S
C808 C813 1.425 . S
C808 C815 1.409 . S
C809 H801 0.930 . S
C809 C807 1.419 . S
C809 C810 1.362 . S
C810 H802 0.930 . S
C810 C809 1.362 . S
C810 C813 1.409 . S
C811 H803 0.930 . S
C811 C812 1.355 . S
C811 C813 1.415 . S
C812 C811 1.355 . S
C812 C814 1.419 . S
C813 C808 1.425 . S
C813 C810 1.409 . S
C813 C811 1.415 . S
C814 H804 0.930 . S
C814 C812 1.419 . S
C814 C815 1.362 . S
C815 H805 0.930 . S
C815 C808 1.409 . S
C815 C814 1.362 . S
H816 C822 0.930 . S
H817 C825 0.930 . S
H818 C826 0.930 . S
H819 C827 0.930 . S
H820 C830 0.930 . S
H821 C831 0.930 . S
C822 H816 0.930 . S
C822 C823 1.355 . S
C822 C824 1.415 . S
C823 C822 1.355 . S
C823 C825 1.419 . S
C824 C822 1.415 . S
C824 C829 1.425 . S
C824 C831 1.409 . S
C825 H817 0.930 . S
C825 C823 1.419 . S
C825 C826 1.362 . S
C826 H818 0.930 . S
C826 C825 1.362 . S
C826 C829 1.409 . S
C827 H819 0.930 . S
C827 C828 1.355 . S
C827 C829 1.415 . S
C828 C827 1.355 . S
C828 C830 1.419 . S
C829 C824 1.425 . S
C829 C826 1.409 . S
C829 C827 1.415 . S
C830 H820 0.930 . S
C830 C828 1.419 . S
C830 C831 1.362 . S
C831 H821 0.930 . S
C831 C824 1.409 . S
C831 C830 1.362 . S
H832 C838 0.930 . S
H833 C841 0.930 . S
H834 C842 0.930 . S
H835 C843 0.930 . S
H836 C846 0.930 . S
H837 C847 0.930 . S
C838 H832 0.930 . S
C838 C839 1.355 . S
C838 C840 1.415 . S
C839 C838 1.355 . S
C839 C841 1.419 . S
C840 C838 1.415 . S
C840 C845 1.425 . S
C840 C847 1.409 . S
C841 H833 0.930 . S
C841 C839 1.419 . S
C841 C842 1.362 . S
C842 H834 0.930 . S
C842 C841 1.362 . S
C842 C845 1.409 . S
C843 H835 0.930 . S
C843 C844 1.355 . S
C843 C845 1.415 . S
C844 C843 1.355 . S
C844 C846 1.419 . S
C845 C840 1.425 . S
C845 C842 1.409 . S
C845 C843 1.415 . S
C846 H836 0.930 . S
C846 C844 1.419 . S
C846 C847 1.362 . S
C847 H837 0.930 . S
C847 C840 1.409 . S
C847 C846 1.362 . S
H848 C854 0.930 . S
H849 C857 0.930 . S
H850 C858 0.930 . S
H851 C859 0.930 . S
H852 C862 0.930 . S
H853 C863 0.930 . S
C854 H848 0.930 . S
C854 C855 1.355 . S
C854 C856 1.415 . S
C855 C854 1.355 . S
C855 C857 1.419 . S
C856 C854 1.415 . S
C856 C861 1.425 . S
C856 C863 1.409 . S
C857 H849 0.930 . S
C857 C855 1.419 . S
C857 C858 1.362 . S
C858 H850 0.930 . S
C858 C857 1.362 . S
C858 C861 1.409 . S
C859 H851 0.930 . S
C859 C860 1.355 . S
C859 C861 1.415 . S
C860 C859 1.355 . S
C860 C862 1.419 . S
C861 C856 1.425 . S
C861 C858 1.409 . S
C861 C859 1.415 . S
C862 H852 0.930 . S
C862 C860 1.419 . S
C862 C863 1.362 . S
C863 H853 0.930 . S
C863 C856 1.409 . S
C863 C862 1.362 . S
H864 C870 0.930 . S
H865 C873 0.930 . S
H866 C874 0.930 . S
H867 C875 0.930 . S
H868 C878 0.930 . S
H869 C879 0.930 . S
C870 H864 0.930 . S
C870 C871 1.355 . S
C870 C872 1.415 . S
C871 C870 1.355 . S
C871 C873 1.419 . S
C872 C870 1.415 . S
C872 C877 1.425 . S
C872 C879 1.409 . S
C873 H865 0.930 . S
C873 C871 1.419 . S
C873 C874 1.362 . S
C874 H866 0.930 . S
C874 C873 1.362 . S
C874 C877 1.409 . S
C875 H867 0.930 . S
C875 C876 1.355 . S
C875 C877 1.415 . S
C876 C875 1.355 . S
C876 C878 1.419 . S
C877 C872 1.425 . S
C877 C874 1.409 . S
C877 C875 1.415 . S
C878 H868 0.930 . S
C878 C876 1.419 . S
C878 C879 1.362 . S
C879 H869 0.930 . S
C879 C872 1.409 . S
C879 C878 1.362 . S
H880 C886 0.930 . S
H881 C889 0.930 . S
H882 C890 0.930 . S
H883 C891 0.930 . S
H884 C894 0.930 . S
H885 C895 0.930 . S
C886 H880 0.930 . S
C886 C887 1.355 . S
C886 C888 1.415 . S
C887 C886 1.355 . S
C887 C889 1.419 . S
C888 C886 1.415 . S
C888 C893 1.425 . S
C888 C895 1.409 . S
C889 H881 0.930 . S
C889 C887 1.419 . S
C889 C890 1.362 . S
C890 H882 0.930 . S
C890 C889 1.362 . S
C890 C893 1.409 . S
C891 H883 0.930 . S
C891 C892 1.355 . S
C891 C893 1.415 . S
C892 C891 1.355 . S
C892 C894 1.419 . S
C893 C888 1.425 . S
C893 C890 1.409 . S
C893 C891 1.415 . S
C894 H884 0.930 . S
C894 C892 1.419 . S
C894 C895 1.362 . S
C895 H885 0.930 . S
C895 C888 1.409 . S
C895 C894 1.362 . S
H896 C902 0.930 . S
H897 C905 0.930 . S
H898 C906 0.930 . S
H899 C907 0.930 . S
H900 C910 0.930 . S
H901 C911 0.930 . S
C902 H896 0.930 . S
C902 C903 1.355 . S
C902 C904 1.415 . S
C903 C902 1.355 . S
C903 C905 1.419 . S
C904 C902 1.415 . S
C904 C909 1.425 . S
C904 C911 1.409 . S
C905 H897 0.930 . S
C905 C903 1.419 . S
C905 C906 1.362 . S
C906 H898 0.930 . S
C906 C905 1.362 . S
C906 C909 1.409 . S
C907 H899 0.930 . S
C907 C908 1.355 . S
C907 C909 1.415 . S
C908 C907 1.355 . S
C908 C910 1.419 . S
C909 C904 1.425 . S
C909 C906 1.409 . S
C909 C907 1.415 . S
C910 H900 0.930 . S
C910 C908 1.419 . S
C910 C911 1.362 . S
C911 H901 0.930 . S
C911 C904 1.409 . S
C911 C910 1.362 . S
H912 C918 0.930 . S
H913 C921 0.930 . S
H914 C922 0.930 . S
H915 C923 0.930 . S
H916 C926 0.930 . S
H917 C927 0.930 . S
C918 H912 0.930 . S
C918 C919 1.355 . S
C918 C920 1.415 . S
C919 C918 1.355 . S
C919 C921 1.419 . S
C920 C918 1.415 . S
C920 C925 1.425 . S
C920 C927 1.409 . S
C921 H913 0.930 . S
C921 C919 1.419 . S
C921 C922 1.362 . S
C922 H914 0.930 . S
C922 C921 1.362 . S
C922 C925 1.409 . S
C923 H915 0.930 . S
C923 C924 1.355 . S
C923 C925 1.415 . S
C924 C923 1.355 . S
C924 C926 1.419 . S
C925 C920 1.425 . S
C925 C922 1.409 . S
C925 C923 1.415 . S
C926 H916 0.930 . S
C926 C924 1.419 . S
C926 C927 1.362 . S
C927 H917 0.930 . S
C927 C920 1.409 . S
C927 C926 1.362 . S
H928 C934 0.930 . S
H929 C937 0.930 . S
H930 C938 0.930 . S
H931 C939 0.930 . S
H932 C942 0.930 . S
H933 C943 0.930 . S
C934 H928 0.930 . S
C934 C935 1.355 . S
C934 C936 1.415 . S
C935 C934 1.355 . S
C935 C937 1.419 . S
C936 C934 1.415 . S
C936 C941 1.425 . S
C936 C943 1.409 . S
C937 H929 0.930 . S
C937 C935 1.419 . S
C937 C938 1.362 . S
C938 H930 0.930 . S
C938 C937 1.362 . S
C938 C941 1.409 . S
C939 H931 0.930 . S
C939 C940 1.355 . S
C939 C941 1.415 . S
C940 C939 1.355 . S
C940 C942 1.419 . S
C941 C936 1.425 . S
C941 C938 1.409 . S
C941 C939 1.415 . S
C942 H932 0.930 . S
C942 C940 1.419 . S
C942 C943 1.362 . S
C943 H933 0.930 . S
C943 C936 1.409 . S
C943 C942 1.362 . S
H944 C950 0.930 . S
H945 C953 0.930 . S
H946 C954 0.930 . S
H947 C955 0.930 . S
H948 C958 0.930 . S
H949 C959 0.930 . S
C950 H944 0.930 . S
C950 C951 1.355 . S
C950 C952 1.415 . S
C951 C950 1.355 . S
C951 C953 1.419 . S
C952 C950 1.415 . S
C952 C957 1.425 . S
C952 C959 1.409 . S
C953 H945 0.930 . S
C953 C951 1.419 . S
C953 C954 1.362 . S
C954 H946 0.930 . S
C954 C953 1.362 . S
C954 C957 1.409 . S
C955 H947 0.930 . S
C955 C956 1.355 . S
C955 C957 1.415 . S
C956 C955 1.355 . S
C956 C958 1.419 . S
C957 C952 1.425 . S
C957 C954 1.409 . S
C957 C955 1.415 . S
C958 H948 0.930 . S
C958 C956 1.419 . S
C958 C959 1.362 . S
C959 H949 0.930 . S
C959 C952 1.409 . S
C959 C958 1.362 . S
H960 C966 0.930 . S
H961 C969 0.930 . S
H962 C970 0.930 . S
H963 C971 0.930 . S
H964 C974 0.930 . S
H965 C975 0.930 . S
C966 H960 0.930 . S
C966 C967 1.355 . S
C966 C968 1.415 . S
C967 C966 1.355 . S
C967 C969 1.419 . S
C968 C966 1.415 . S
C968 C973 1.425 . S
C968 C975 1.409 . S
C969 H961 0.930 . S
C969 C967 1.419 . S
C969 C970 1.362 . S
C970 H962 0.930 . S
C970 C969 1.362 . S
C970 C973 1.409 . S
C971 H963 0.930 . S
C971 C972 1.355 . S
C971 C973 1.415 . S
C972 C971 1.355 . S
C972 C974 1.419 . S
C973 C968 1.425 . S
C973 C970 1.409 . S
C973 C971 1.415 . S
C974 H964 0.930 . S
C974 C972 1.419 . S
C974 C975 1.362 . S
C975 H965 0.930 . S
C975 C968 1.409 . S
C975 C974 1.362 . S
H976 C982 0.930 . S
H977 C985 0.930 . S
H978 C986 0.930 . S
H979 C987 0.930 . S
H980 C990 0.930 . S
H981 C991 0.930 . S
C982 H976 0.930 . S
C982 C983 1.355 . S
C982 C984 1.415 . S
C983 C982 1.355 . S
C983 C985 1.419 . S
C984 C982 1.415 . S
C984 C989 1.425 . S
C984 C991 1.409 . S
C985 H977 0.930 . S
C985 C983 1.419 . S
C985 C986 1.362 . S
C986 H978 0.930 . S
C986 C985 1.362 . S
C986 C989 1.409 . S
C987 H979 0.930 . S
C987 C988 1.355 . S
C987 C989 1.415 . S
C988 C987 1.355 . S
C988 C990 1.419 . S
C989 C984 1.425 . S
C989 C986 1.409 . S
C989 C987 1.415 . S
C990 H980 0.930 . S
C990 C988 1.419 . S
C990 C991 1.362 . S
C991 H981 0.930 . S
C991 C984 1.409 . S
C991 C990 1.362 . S
H992 C998 0.930 . S
H993 C1001 0.930 . S
H994 C1002 0.930 . S
H995 C1003 0.930 . S
H996 C1006 0.930 . S
H997 C1007 0.930 . S
C998 H992 0.930 . S
C998 C999 1.355 . S
C998 C1000 1.415 . S
C999 C998 1.355 . S
C999 C1001 1.419 . S
C1000 C998 1.415 . S
C1000 C1005 1.425 . S
C1000 C1007 1.409 . S
C1001 H993 0.930 . S
C1001 C999 1.419 . S
C1001 C1002 1.362 . S
C1002 H994 0.930 . S
C1002 C1001 1.362 . S
C1002 C1005 1.409 . S
C1003 H995 0.930 . S
C1003 C1004 1.355 . S
C1003 C1005 1.415 . S
C1004 C1003 1.355 . S
C1004 C1006 1.419 . S
C1005 C1000 1.425 . S
C1005 C1002 1.409 . S
C1005 C1003 1.415 . S
C1006 H996 0.930 . S
C1006 C1004 1.419 . S
C1006 C1007 1.362 . S
C1007 H997 0.930 . S
C1007 C1000 1.409 . S
C1007 C1006 1.362 . S
H1008 C1014 0.930 . S
H1009 C1017 0.930 . S
H1010 C1018 0.930 . S
H1011 C1019 0.930 . S
H1012 C1022 0.930 . S
H1013 C1023 0.930 . S
C1014 H1008 0.930 . S
C1014 C1015 1.355 . S
C1014 C1016 1.415 . S
C1015 C1014 1.355 . S
C1015 C1017 1.419 . S
C1016 C1014 1.415 . S
C1016 C1021 1.425 . S
C1016 C1023 1.409 . S
C1017 H1009 0.930 . S
C1017 C1015 1.419 . S
C1017 C1018 1.362 . S
C1018 H1010 0.930 . S
C1018 C1017 1.362 . S
C1018 C1021 1.409 . S
C1019 H1011 0.930 . S
C1019 C1020 1.355 . S
C1019 C1021 1.415 . S
C1020 C1019 1.355 . S
C1020 C1022 1.419 . S
C1021 C1016 1.425 . S
C1021 C1018 1.409 . S
C1021 C1019 1.415 . S
C1022 H1012 0.930 . S
C1022 C1020 1.419 . S
C1022 C1023 1.362 . S
C1023 H1013 0.930 . S
C1023 C1016 1.409 . S
C1023 C1022 1.362 . S
H1024 C1030 0.930 . S
H1025 C1033 0.930 . S
H1026 C1034 0.930 . S
H1027 C1035 0.930 . S
H1028 C1038 0.930 . S
H1029 C1039 0.930 1_556 S
C1030 H1024 0.930 . S
C1030 C1031 1.355 . S
C1030 C1032 1.415 . S
C1031 C1030 1.355 . S
C1031 C1033 1.419 . S
C1032 C1030 1.415 . S
C1032 C1037 1.425 . S
C1032 C1039 1.409 1_556 S
C1033 H1025 0.930 . S
C1033 C1031 1.419 . S
C1033 C1034 1.362 . S
C1034 H1026 0.930 . S
C1034 C1033 1.362 . S
C1034 C1037 1.409 . S
C1035 H1027 0.930 . S
C1035 C1036 1.355 . S
C1035 C1037 1.415 1_554 S
C1036 C1035 1.355 . S
C1036 C1038 1.419 . S
C1037 C1032 1.425 . S
C1037 C1034 1.409 . S
C1037 C1035 1.415 1_556 S
C1038 H1028 0.930 . S
C1038 C1036 1.419 . S
C1038 C1039 1.362 . S
C1039 H1029 0.930 1_554 S
C1039 C1032 1.409 1_554 S
C1039 C1038 1.362 . S
H1040 C1046 0.930 . S
H1041 C1049 0.930 . S
H1042 C1050 0.930 . S
H1043 C1051 0.930 . S
H1044 C1054 0.930 . S
H1045 C1055 0.930 . S
C1046 H1040 0.930 . S
C1046 C1047 1.355 . S
C1046 C1048 1.415 . S
C1047 C1046 1.355 . S
C1047 C1049 1.419 . S
C1048 C1046 1.415 . S
C1048 C1053 1.425 . S
C1048 C1055 1.409 . S
C1049 H1041 0.930 . S
C1049 C1047 1.419 . S
C1049 C1050 1.362 . S
C1050 H1042 0.930 . S
C1050 C1049 1.362 . S
C1050 C1053 1.409 . S
C1051 H1043 0.930 . S
C1051 C1052 1.355 . S
C1051 C1053 1.415 . S
C1052 C1051 1.355 . S
C1052 C1054 1.419 . S
C1053 C1048 1.425 . S
C1053 C1050 1.409 . S
C1053 C1051 1.415 . S
C1054 H1044 0.930 . S
C1054 C1052 1.419 . S
C1054 C1055 1.362 . S
C1055 H1045 0.930 . S
C1055 C1048 1.409 . S
C1055 C1054 1.362 . S
H1056 C1062 0.930 . S
H1057 C1065 0.930 . S
H1058 C1066 0.930 . S
H1059 C1067 0.930 . S
H1060 C1070 0.930 . S
H1061 C1071 0.946 . S
C1062 H1056 0.930 . S
C1062 C1063 1.355 . S
C1062 C1064 1.415 . S
C1063 C1062 1.355 . S
C1063 C1065 1.419 . S
C1064 C1062 1.415 . S
C1064 C1069 1.437 . S
C1064 C1071 1.409 1_556 S
C1065 H1057 0.930 . S
C1065 C1063 1.419 . S
C1065 C1066 1.362 . S
C1066 H1058 0.930 . S
C1066 C1065 1.362 . S
C1066 C1069 1.430 . S
C1067 H1059 0.930 . S
C1067 C1068 1.355 . S
C1067 C1069 1.384 1_554 S
C1068 C1067 1.355 . S
C1068 C1070 1.419 . S
C1069 C1064 1.437 . S
C1069 C1066 1.430 . S
C1069 C1067 1.384 1_556 S
C1070 H1060 0.930 . S
C1070 C1068 1.419 . S
C1070 C1071 1.362 . S
C1071 H1061 0.946 . S
C1071 C1064 1.409 1_554 S
C1071 C1070 1.362 . S
H1072 C1078 0.930 . S
H1073 C1081 0.930 . S
H1074 C1082 0.930 . S
H1075 C1083 0.930 . S
H1076 C1086 0.930 . S
H1077 C1087 0.930 . S
C1078 H1072 0.930 . S
C1078 C1079 1.355 . S
C1078 C1080 1.415 . S
C1079 C1078 1.355 . S
C1079 C1081 1.419 . S
C1080 C1078 1.415 . S
C1080 C1085 1.425 . S
C1080 C1087 1.409 . S
C1081 H1073 0.930 . S
C1081 C1079 1.419 . S
C1081 C1082 1.362 . S
C1082 H1074 0.930 . S
C1082 C1081 1.362 . S
C1082 C1085 1.409 . S
C1083 H1075 0.930 . S
C1083 C1084 1.355 . S
C1083 C1085 1.415 . S
C1084 C1083 1.355 . S
C1084 C1086 1.419 . S
C1085 C1080 1.425 . S
C1085 C1082 1.409 . S
C1085 C1083 1.415 . S
C1086 H1076 0.930 . S
C1086 C1084 1.419 . S
C1086 C1087 1.362 . S
C1087 H1077 0.930 . S
C1087 C1080 1.409 . S
C1087 C1086 1.362 . S
H1088 C1094 0.930 . S
H1089 C1097 0.930 . S
H1090 C1098 0.930 . S
H1091 C1099 0.930 . S
H1092 C1102 0.930 . S
H1093 C1103 0.930 . S
C1094 H1088 0.930 . S
C1094 C1095 1.355 . S
C1094 C1096 1.420 . S
C1095 C1094 1.355 . S
C1095 C1097 1.419 . S
C1096 C1094 1.420 . S
C1096 C1101 1.423 1_556 S
C1096 C1103 1.406 1_556 S
C1097 H1089 0.930 . S
C1097 C1095 1.419 . S
C1097 C1098 1.362 . S
C1098 H1090 0.930 . S
C1098 C1097 1.362 . S
C1098 C1101 1.409 1_556 S
C1099 H1091 0.930 . S
C1099 C1100 1.355 . S
C1099 C1101 1.415 . S
C1100 C1099 1.355 . S
C1100 C1102 1.419 . S
C1101 C1096 1.423 1_554 S
C1101 C1098 1.409 1_554 S
C1101 C1099 1.415 . S
C1102 H1092 0.930 . S
C1102 C1100 1.419 . S
C1102 C1103 1.362 . S
C1103 H1093 0.930 . S
C1103 C1096 1.406 1_554 S
C1103 C1102 1.362 . S
H1104 C1110 0.930 . S
H1105 C1113 0.930 . S
H1106 C1114 0.930 . S
H1107 C1115 0.930 . S
H1108 C1118 0.930 . S
H1109 C1119 0.930 . S
C1110 H1104 0.930 . S
C1110 C1111 1.355 . S
C1110 C1112 1.415 . S
C1111 C1110 1.355 . S
C1111 C1113 1.419 . S
C1112 C1110 1.415 . S
C1112 C1117 1.425 . S
C1112 C1119 1.409 . S
C1113 H1105 0.930 . S
C1113 C1111 1.419 . S
C1113 C1114 1.362 . S
C1114 H1106 0.930 . S
C1114 C1113 1.362 . S
C1114 C1117 1.409 . S
C1115 H1107 0.930 . S
C1115 C1116 1.355 . S
C1115 C1117 1.415 . S
C1116 C1115 1.355 . S
C1116 C1118 1.419 . S
C1117 C1112 1.425 . S
C1117 C1114 1.409 . S
C1117 C1115 1.415 . S
C1118 H1108 0.930 . S
C1118 C1116 1.419 . S
C1118 C1119 1.362 . S
C1119 H1109 0.930 . S
C1119 C1112 1.409 . S
C1119 C1118 1.362 . S
H1120 C1126 0.930 . S
H1121 C1129 0.930 . S
H1122 C1130 0.927 1_554 S
H1123 C1131 0.930 . S
H1124 C1134 0.930 . S
H1125 C1135 0.930 . S
C1126 H1120 0.930 . S
C1126 C1127 1.355 . S
C1126 C1128 1.415 1_556 S
C1127 C1126 1.355 . S
C1127 C1129 1.419 . S
C1128 C1126 1.415 1_554 S
C1128 C1133 1.425 . S
C1128 C1135 1.409 . S
C1129 H1121 0.930 . S
C1129 C1127 1.419 . S
C1129 C1130 1.362 . S
C1130 H1122 0.927 1_556 S
C1130 C1129 1.362 . S
C1130 C1133 1.409 1_556 S
C1131 H1123 0.930 . S
C1131 C1132 1.355 . S
C1131 C1133 1.415 . S
C1132 C1131 1.355 . S
C1132 C1134 1.419 . S
C1133 C1128 1.425 . S
C1133 C1130 1.409 1_554 S
C1133 C1131 1.415 . S
C1134 H1124 0.930 . S
C1134 C1132 1.419 . S
C1134 C1135 1.362 . S
C1135 H1125 0.930 . S
C1135 C1128 1.409 . S
C1135 C1134 1.362 . S
H1136 C1142 0.930 . S
H1137 C1145 0.930 . S
H1138 C1146 0.930 . S
H1139 C1147 0.930 . S
H1140 C1150 0.930 . S
H1141 C1151 0.930 . S
C1142 H1136 0.930 . S
C1142 C1143 1.355 . S
C1142 C1144 1.415 . S
C1143 C1142 1.355 . S
C1143 C1145 1.419 . S
C1144 C1142 1.415 . S
C1144 C1149 1.425 . S
C1144 C1151 1.409 . S
C1145 H1137 0.930 . S
C1145 C1143 1.419 . S
C1145 C1146 1.362 . S
C1146 H1138 0.930 . S
C1146 C1145 1.362 . S
C1146 C1149 1.409 . S
C1147 H1139 0.930 . S
C1147 C1148 1.355 . S
C1147 C1149 1.415 . S
C1148 C1147 1.355 . S
C1148 C1150 1.419 . S
C1149 C1144 1.425 . S
C1149 C1146 1.409 . S
C1149 C1147 1.415 . S
C1150 H1140 0.930 . S
C1150 C1148 1.419 . S
C1150 C1151 1.362 . S
C1151 H1141 0.930 . S
C1151 C1144 1.409 . S
C1151 C1150 1.362 . S
H1152 C1158 0.930 . S
H1153 C1161 0.930 . S
H1154 C1162 0.930 . S
H1155 C1163 0.930 . S
H1156 C1166 0.930 . S
H1157 C1167 0.930 . S
C1158 H1152 0.930 . S
C1158 C1159 1.355 . S
C1158 C1160 1.415 . S
C1159 C1158 1.355 . S
C1159 C1161 1.419 . S
C1160 C1158 1.415 . S
C1160 C1165 1.425 . S
C1160 C1167 1.409 1_565 S
C1161 H1153 0.930 . S
C1161 C1159 1.419 . S
C1161 C1162 1.362 . S
C1162 H1154 0.930 . S
C1162 C1161 1.362 . S
C1162 C1165 1.409 . S
C1163 H1155 0.930 . S
C1163 C1164 1.355 . S
C1163 C1165 1.415 1_545 S
C1164 C1163 1.355 . S
C1164 C1166 1.419 . S
C1165 C1160 1.425 . S
C1165 C1162 1.409 . S
C1165 C1163 1.415 1_565 S
C1166 H1156 0.930 . S
C1166 C1164 1.419 . S
C1166 C1167 1.362 . S
C1167 H1157 0.930 . S
C1167 C1160 1.409 1_545 S
C1167 C1166 1.362 . S
H1168 C1174 0.930 . S
H1169 C1177 0.930 . S
H1170 C1178 0.930 . S
H1171 C1179 0.930 . S
H1172 C1182 0.930 . S
H1173 C1183 0.930 . S
C1174 H1168 0.930 . S
C1174 C1175 1.355 . S
C1174 C1176 1.415 . S
C1175 C1174 1.355 . S
C1175 C1177 1.419 . S
C1176 C1174 1.415 . S
C1176 C1181 1.425 . S
C1176 C1183 1.409 . S
C1177 H1169 0.930 . S
C1177 C1175 1.419 . S
C1177 C1178 1.362 . S
C1178 H1170 0.930 . S
C1178 C1177 1.362 . S
C1178 C1181 1.409 . S
C1179 H1171 0.930 . S
C1179 C1180 1.355 . S
C1179 C1181 1.415 . S
C1180 C1179 1.355 . S
C1180 C1182 1.419 . S
C1181 C1176 1.425 . S
C1181 C1178 1.409 . S
C1181 C1179 1.415 . S
C1182 H1172 0.930 . S
C1182 C1180 1.419 . S
C1182 C1183 1.362 . S
C1183 H1173 0.930 . S
C1183 C1176 1.409 . S
C1183 C1182 1.362 . S
H1184 C1190 0.930 . S
H1185 C1193 0.930 . S
H1186 C1194 0.930 . S
H1187 C1195 0.930 . S
H1188 C1198 0.930 . S
H1189 C1199 0.930 . S
C1190 H1184 0.930 . S
C1190 C1191 1.355 . S
C1190 C1192 1.415 . S
C1191 C1190 1.355 . S
C1191 C1193 1.419 . S
C1192 C1190 1.415 . S
C1192 C1197 1.425 . S
C1192 C1199 1.409 1_545 S
C1193 H1185 0.930 . S
C1193 C1191 1.419 . S
C1193 C1194 1.362 . S
C1194 H1186 0.930 . S
C1194 C1193 1.362 . S
C1194 C1197 1.409 . S
C1195 H1187 0.930 . S
C1195 C1196 1.355 . S
C1195 C1197 1.415 1_565 S
C1196 C1195 1.355 . S
C1196 C1198 1.419 . S
C1197 C1192 1.425 . S
C1197 C1194 1.409 . S
C1197 C1195 1.415 1_545 S
C1198 H1188 0.930 . S
C1198 C1196 1.419 . S
C1198 C1199 1.362 . S
C1199 H1189 0.930 . S
C1199 C1192 1.409 1_565 S
C1199 C1198 1.362 . S
H1200 C1206 0.930 . S
H1201 C1209 0.930 . S
H1202 C1210 0.930 . S
H1203 C1211 0.930 . S
H1204 C1214 0.930 . S
H1205 C1215 0.930 . S
C1206 H1200 0.930 . S
C1206 C1207 1.355 . S
C1206 C1208 1.415 . S
C1207 C1206 1.355 . S
C1207 C1209 1.419 . S
C1208 C1206 1.415 . S
C1208 C1213 1.425 . S
C1208 C1215 1.409 . S
C1209 H1201 0.930 . S
C1209 C1207 1.419 . S
C1209 C1210 1.362 . S
C1210 H1202 0.930 . S
C1210 C1209 1.362 . S
C1210 C1213 1.409 . S
C1211 H1203 0.930 . S
C1211 C1212 1.355 . S
C1211 C1213 1.415 . S
C1212 C1211 1.355 . S
C1212 C1214 1.419 . S
C1213 C1208 1.425 . S
C1213 C1210 1.409 . S
C1213 C1211 1.415 . S
C1214 H1204 0.930 . S
C1214 C1212 1.419 . S
C1214 C1215 1.362 . S
C1215 H1205 0.930 . S
C1215 C1208 1.409 . S
C1215 C1214 1.362 . S
H1216 C1222 0.930 . S
H1217 C1225 0.930 . S
H1218 C1226 0.930 . S
H1219 C1227 0.930 . S
H1220 C1230 0.930 . S
H1221 C1231 0.930 . S
C1222 H1216 0.930 . S
C1222 C1223 1.355 . S
C1222 C1224 1.415 . S
C1223 C1222 1.355 . S
C1223 C1225 1.419 . S
C1224 C1222 1.415 . S
C1224 C1229 1.425 . S
C1224 C1231 1.409 1_565 S
C1225 H1217 0.930 . S
C1225 C1223 1.419 . S
C1225 C1226 1.362 . S
C1226 H1218 0.930 . S
C1226 C1225 1.362 . S
C1226 C1229 1.409 . S
C1227 H1219 0.930 . S
C1227 C1228 1.355 . S
C1227 C1229 1.415 1_545 S
C1228 C1227 1.355 . S
C1228 C1230 1.419 . S
C1229 C1224 1.425 . S
C1229 C1226 1.409 . S
C1229 C1227 1.415 1_565 S
C1230 H1220 0.930 . S
C1230 C1228 1.419 . S
C1230 C1231 1.362 . S
C1231 H1221 0.930 . S
C1231 C1224 1.409 1_545 S
C1231 C1230 1.362 . S
H1232 C1238 0.930 . S
H1233 C1241 0.930 . S
H1234 C1242 0.930 . S
H1235 C1243 0.930 . S
H1236 C1246 0.930 . S
H1237 C1247 0.930 . S
C1238 H1232 0.930 . S
C1238 C1239 1.355 . S
C1238 C1240 1.415 . S
C1239 C1238 1.355 . S
C1239 C1241 1.419 . S
C1240 C1238 1.415 . S
C1240 C1245 1.425 . S
C1240 C1247 1.409 . S
C1241 H1233 0.930 . S
C1241 C1239 1.419 . S
C1241 C1242 1.362 . S
C1242 H1234 0.930 . S
C1242 C1241 1.362 . S
C1242 C1245 1.409 . S
C1243 H1235 0.930 . S
C1243 C1244 1.355 . S
C1243 C1245 1.415 . S
C1244 C1243 1.355 . S
C1244 C1246 1.419 . S
C1245 C1240 1.425 . S
C1245 C1242 1.409 . S
C1245 C1243 1.415 . S
C1246 H1236 0.930 . S
C1246 C1244 1.419 . S
C1246 C1247 1.362 . S
C1247 H1237 0.930 . S
C1247 C1240 1.409 . S
C1247 C1246 1.362 . S
H1248 C1254 0.930 . S
H1249 C1257 0.930 . S
H1250 C1258 0.930 . S
H1251 C1259 0.930 . S
H1252 C1262 0.930 . S
H1253 C1263 0.930 . S
C1254 H1248 0.930 . S
C1254 C1255 1.355 . S
C1254 C1256 1.415 . S
C1255 C1254 1.355 . S
C1255 C1257 1.419 . S
C1256 C1254 1.415 . S
C1256 C1261 1.425 1_565 S
C1256 C1263 1.409 1_565 S
C1257 H1249 0.930 . S
C1257 C1255 1.419 . S
C1257 C1258 1.362 . S
C1258 H1250 0.930 . S
C1258 C1257 1.362 . S
C1258 C1261 1.409 1_565 S
C1259 H1251 0.930 . S
C1259 C1260 1.355 . S
C1259 C1261 1.415 . S
C1260 C1259 1.355 . S
C1260 C1262 1.419 . S
C1261 C1256 1.425 1_545 S
C1261 C1258 1.409 1_545 S
C1261 C1259 1.415 . S
C1262 H1252 0.930 . S
C1262 C1260 1.419 . S
C1262 C1263 1.362 . S
C1263 H1253 0.930 . S
C1263 C1256 1.409 1_545 S
C1263 C1262 1.362 . S
H1264 C1270 0.930 . S
H1265 C1273 0.930 . S
H1266 C1274 0.930 . S
H1267 C1275 0.930 . S
H1268 C1278 0.930 . S
H1269 C1279 0.930 . S
C1270 H1264 0.930 . S
C1270 C1271 1.355 . S
C1270 C1272 1.415 . S
C1271 C1270 1.355 . S
C1271 C1273 1.419 . S
C1272 C1270 1.415 . S
C1272 C1277 1.425 . S
C1272 C1279 1.409 . S
C1273 H1265 0.930 . S
C1273 C1271 1.419 . S
C1273 C1274 1.362 . S
C1274 H1266 0.930 . S
C1274 C1273 1.362 . S
C1274 C1277 1.409 . S
C1275 H1267 0.930 . S
C1275 C1276 1.355 . S
C1275 C1277 1.415 . S
C1276 C1275 1.355 . S
C1276 C1278 1.419 . S
C1277 C1272 1.425 . S
C1277 C1274 1.409 . S
C1277 C1275 1.415 . S
C1278 H1268 0.930 . S
C1278 C1276 1.419 . S
C1278 C1279 1.362 . S
C1279 H1269 0.930 . S
C1279 C1272 1.409 . S
C1279 C1278 1.362 . S
H1280 C1286 0.930 . S
H1281 C1289 0.930 . S
H1282 C1290 0.930 . S
H1283 C1291 0.930 . S
H1284 C1294 0.930 . S
H1285 C1295 0.930 . S
C1286 H1280 0.930 . S
C1286 C1287 1.355 . S
C1286 C1288 1.415 . S
C1287 C1286 1.355 . S
C1287 C1289 1.419 . S
C1288 C1286 1.415 . S
C1288 C1293 1.425 . S
C1288 C1295 1.409 . S
C1289 H1281 0.930 . S
C1289 C1287 1.419 . S
C1289 C1290 1.362 . S
C1290 H1282 0.930 . S
C1290 C1289 1.362 . S
C1290 C1293 1.409 . S
C1291 H1283 0.930 . S
C1291 C1292 1.355 . S
C1291 C1293 1.415 . S
C1292 C1291 1.355 . S
C1292 C1294 1.419 . S
C1293 C1288 1.425 . S
C1293 C1290 1.409 . S
C1293 C1291 1.415 . S
C1294 H1284 0.930 . S
C1294 C1292 1.419 . S
C1294 C1295 1.362 . S
C1295 H1285 0.930 . S
C1295 C1288 1.409 . S
C1295 C1294 1.362 . S
H1296 C1302 0.930 . S
H1297 C1305 0.930 . S
H1298 C1306 0.930 . S
H1299 C1307 0.930 . S
H1300 C1310 0.930 . S
H1301 C1311 0.930 . S
C1302 H1296 0.930 . S
C1302 C1303 1.355 . S
C1302 C1304 1.415 . S
C1303 C1302 1.355 . S
C1303 C1305 1.419 . S
C1304 C1302 1.415 . S
C1304 C1309 1.425 . S
C1304 C1311 1.409 1_455 S
C1305 H1297 0.930 . S
C1305 C1303 1.419 . S
C1305 C1306 1.362 . S
C1306 H1298 0.930 . S
C1306 C1305 1.362 . S
C1306 C1309 1.409 . S
C1307 H1299 0.930 . S
C1307 C1308 1.355 . S
C1307 C1309 1.415 1_655 S
C1308 C1307 1.355 . S
C1308 C1310 1.419 . S
C1309 C1304 1.425 . S
C1309 C1306 1.409 . S
C1309 C1307 1.415 1_455 S
C1310 H1300 0.930 . S
C1310 C1308 1.419 . S
C1310 C1311 1.362 . S
C1311 H1301 0.930 . S
C1311 C1304 1.409 1_655 S
C1311 C1310 1.362 . S
H1312 C1318 0.930 . S
H1313 C1321 0.930 . S
H1314 C1322 0.930 . S
H1315 C1323 0.930 . S
H1316 C1326 0.930 . S
H1317 C1327 0.930 . S
C1318 H1312 0.930 . S
C1318 C1319 1.355 . S
C1318 C1320 1.415 . S
C1319 C1318 1.355 . S
C1319 C1321 1.419 . S
C1320 C1318 1.415 . S
C1320 C1325 1.425 . S
C1320 C1327 1.409 . S
C1321 H1313 0.930 . S
C1321 C1319 1.419 . S
C1321 C1322 1.362 . S
C1322 H1314 0.930 . S
C1322 C1321 1.362 . S
C1322 C1325 1.409 . S
C1323 H1315 0.930 . S
C1323 C1324 1.355 . S
C1323 C1325 1.415 . S
C1324 C1323 1.355 . S
C1324 C1326 1.419 . S
C1325 C1320 1.425 . S
C1325 C1322 1.409 . S
C1325 C1323 1.415 . S
C1326 H1316 0.930 . S
C1326 C1324 1.419 . S
C1326 C1327 1.362 . S
C1327 H1317 0.930 . S
C1327 C1320 1.409 . S
C1327 C1326 1.362 . S
H1328 C1334 0.930 . S
H1329 C1337 0.930 . S
H1330 C1338 0.930 1_655 S
H1331 C1339 0.930 . S
H1332 C1342 0.930 . S
H1333 C1343 0.930 . S
C1334 H1328 0.930 . S
C1334 C1335 1.355 . S
C1334 C1336 1.415 1_455 S
C1335 C1334 1.355 . S
C1335 C1337 1.419 . S
C1336 C1334 1.415 1_655 S
C1336 C1341 1.425 . S
C1336 C1343 1.409 . S
C1337 H1329 0.930 . S
C1337 C1335 1.419 . S
C1337 C1338 1.362 . S
C1338 H1330 0.930 1_455 S
C1338 C1337 1.362 . S
C1338 C1341 1.409 1_455 S
C1339 H1331 0.930 . S
C1339 C1340 1.355 . S
C1339 C1341 1.415 . S
C1340 C1339 1.355 . S
C1340 C1342 1.419 . S
C1341 C1336 1.425 . S
C1341 C1338 1.409 1_655 S
C1341 C1339 1.415 . S
C1342 H1332 0.930 . S
C1342 C1340 1.419 . S
C1342 C1343 1.362 . S
C1343 H1333 0.930 . S
C1343 C1336 1.409 . S
C1343 C1342 1.362 . S
H1344 C1350 0.930 . S
H1345 C1353 0.930 . S
H1346 C1354 0.930 . S
H1347 C1355 0.930 . S
H1348 C1358 0.930 . S
H1349 C1359 0.930 . S
C1350 H1344 0.930 . S
C1350 C1351 1.355 . S
C1350 C1352 1.415 . S
C1351 C1350 1.355 . S
C1351 C1353 1.419 . S
C1352 C1350 1.415 . S
C1352 C1357 1.425 . S
C1352 C1359 1.409 . S
C1353 H1345 0.930 . S
C1353 C1351 1.419 . S
C1353 C1354 1.362 . S
C1354 H1346 0.930 . S
C1354 C1353 1.362 . S
C1354 C1357 1.409 . S
C1355 H1347 0.930 . S
C1355 C1356 1.355 . S
C1355 C1357 1.415 . S
C1356 C1355 1.355 . S
C1356 C1358 1.419 . S
C1357 C1352 1.425 . S
C1357 C1354 1.409 . S
C1357 C1355 1.415 . S
C1358 H1348 0.930 . S
C1358 C1356 1.419 . S
C1358 C1359 1.362 . S
C1359 H1349 0.930 . S
C1359 C1352 1.409 . S
C1359 C1358 1.362 . S
H1360 C1366 0.930 . S
H1361 C1369 0.930 . S
H1362 C1370 0.930 . S
H1363 C1371 0.930 . S
H1364 C1374 0.930 . S
H1365 C1375 0.930 . S
C1366 H1360 0.930 . S
C1366 C1367 1.355 . S
C1366 C1368 1.415 . S
C1367 C1366 1.355 . S
C1367 C1369 1.419 . S
C1368 C1366 1.415 . S
C1368 C1373 1.425 . S
C1368 C1375 1.409 . S
C1369 H1361 0.930 . S
C1369 C1367 1.419 . S
C1369 C1370 1.362 . S
C1370 H1362 0.930 . S
C1370 C1369 1.362 . S
C1370 C1373 1.409 . S
C1371 H1363 0.930 . S
C1371 C1372 1.355 . S
C1371 C1373 1.415 1_455 S
C1372 C1371 1.355 . S
C1372 C1374 1.419 . S
C1373 C1368 1.425 . S
C1373 C1370 1.409 . S
C1373 C1371 1.415 1_655 S
C1374 H1364 0.930 . S
C1374 C1372 1.419 . S
C1374 C1375 1.362 1_455 S
C1375 H1365 0.930 . S
C1375 C1368 1.409 . S
C1375 C1374 1.362 1_655 S
H1376 C1382 0.930 . S
H1377 C1385 0.930 . S
H1378 C1386 0.930 . S
H1379 C1387 0.930 . S
H1380 C1390 0.930 . S
H1381 C1391 0.930 . S
C1382 H1376 0.930 . S
C1382 C1383 1.355 . S
C1382 C1384 1.415 . S
C1383 C1382 1.355 . S
C1383 C1385 1.419 . S
C1384 C1382 1.415 . S
C1384 C1389 1.425 . S
C1384 C1391 1.409 . S
C1385 H1377 0.930 . S
C1385 C1383 1.419 . S
C1385 C1386 1.362 . S
C1386 H1378 0.930 . S
C1386 C1385 1.362 . S
C1386 C1389 1.409 . S
C1387 H1379 0.930 . S
C1387 C1388 1.355 . S
C1387 C1389 1.415 1_655 S
C1388 C1387 1.355 . S
C1388 C1390 1.419 . S
C1389 C1384 1.425 . S
C1389 C1386 1.409 . S
C1389 C1387 1.415 1_455 S
C1390 H1380 0.930 . S
C1390 C1388 1.419 . S
C1390 C1391 1.362 1_655 S
C1391 H1381 0.930 . S
C1391 C1384 1.409 . S
C1391 C1390 1.362 1_455 S
H1392 C1398 0.930 . S
H1393 C1401 0.930 . S
H1394 C1402 0.930 . S
H1395 C1403 0.930 . S
H1396 C1406 0.930 . S
H1397 C1407 0.947 . S
C1398 H1392 0.930 . S
C1398 C1399 1.355 . S
C1398 C1400 1.415 . S
C1399 C1398 1.355 . S
C1399 C1401 1.419 . S
C1400 C1398 1.415 . S
C1400 C1405 1.425 1_655 S
C1400 C1407 1.409 1_655 S
C1401 H1393 0.930 . S
C1401 C1399 1.419 . S
C1401 C1402 1.362 . S
C1402 H1394 0.930 . S
C1402 C1401 1.362 . S
C1402 C1405 1.409 1_655 S
C1403 H1395 0.930 . S
C1403 C1404 1.355 . S
C1403 C1405 1.415 . S
C1404 C1403 1.355 . S
C1404 C1406 1.419 . S
C1405 C1400 1.425 1_455 S
C1405 C1402 1.409 1_455 S
C1405 C1403 1.415 . S
C1406 H1396 0.930 . S
C1406 C1404 1.419 . S
C1406 C1407 1.362 . S
C1407 H1397 0.947 . S
C1407 C1400 1.409 1_455 S
C1407 C1406 1.362 . S
H1408 C1414 0.930 . S
H1409 C1417 0.930 . S
H1410 C1418 0.930 . S
H1411 C1419 0.930 . S
H1412 C1422 0.930 . S
H1413 C1423 0.930 . S
C1414 H1408 0.930 . S
C1414 C1415 1.355 . S
C1414 C1416 1.415 . S
C1415 C1414 1.355 . S
C1415 C1417 1.419 . S
C1416 C1414 1.415 . S
C1416 C1421 1.425 . S
C1416 C1423 1.409 . S
C1417 H1409 0.930 . S
C1417 C1415 1.419 . S
C1417 C1418 1.362 . S
C1418 H1410 0.930 . S
C1418 C1417 1.362 . S
C1418 C1421 1.409 . S
C1419 H1411 0.930 . S
C1419 C1420 1.355 . S
C1419 C1421 1.415 . S
C1420 C1419 1.355 . S
C1420 C1422 1.419 . S
C1421 C1416 1.425 . S
C1421 C1418 1.409 . S
C1421 C1419 1.415 . S
C1422 H1412 0.930 . S
C1422 C1420 1.419 . S
C1422 C1423 1.362 . S
C1423 H1413 0.930 . S
C1423 C1416 1.409 . S
C1423 C1422 1.362 . S
H1424 C1430 0.930 . S
H1425 C1433 0.930 . S
H1426 C1434 0.930 . S
H1427 C1435 0.930 . S
H1428 C1438 0.930 . S
H1429 C1439 0.930 . S
C1430 H1424 0.930 . S
C1430 C1431 1.355 . S
C1430 C1432 1.415 . S
C1431 C1430 1.355 . S
C1431 C1433 1.419 . S
C1432 C1430 1.415 . S
C1432 C1437 1.425 1_455 S
C1432 C1439 1.409 1_455 S
C1433 H1425 0.930 . S
C1433 C1431 1.419 . S
C1433 C1434 1.362 . S
C1434 H1426 0.930 . S
C1434 C1433 1.362 . S
C1434 C1437 1.409 1_455 S
C1435 H1427 0.930 . S
C1435 C1436 1.355 . S
C1435 C1437 1.415 . S
C1436 C1435 1.355 . S
C1436 C1438 1.419 . S
C1437 C1432 1.425 1_655 S
C1437 C1434 1.409 1_655 S
C1437 C1435 1.415 . S
C1438 H1428 0.930 . S
C1438 C1436 1.419 . S
C1438 C1439 1.362 . S
C1439 H1429 0.930 . S
C1439 C1432 1.409 1_655 S
C1439 C1438 1.362 . S
H1440 C1446 0.930 . S
H1441 C1449 0.930 . S
H1442 C1450 0.930 . S
H1443 C1451 0.930 . S
H1444 C1454 0.930 . S
H1445 C1455 0.930 . S
C1446 H1440 0.930 . S
C1446 C1447 1.355 . S
C1446 C1448 1.415 . S
C1447 C1446 1.355 . S
C1447 C1449 1.419 . S
C1448 C1446 1.415 . S
C1448 C1453 1.425 . S
C1448 C1455 1.409 . S
C1449 H1441 0.930 . S
C1449 C1447 1.419 . S
C1449 C1450 1.362 . S
C1450 H1442 0.930 . S
C1450 C1449 1.362 . S
C1450 C1453 1.409 . S
C1451 H1443 0.930 . S
C1451 C1452 1.355 . S
C1451 C1453 1.415 . S
C1452 C1451 1.355 . S
C1452 C1454 1.419 . S
C1453 C1448 1.425 . S
C1453 C1450 1.409 . S
C1453 C1451 1.415 . S
C1454 H1444 0.930 . S
C1454 C1452 1.419 . S
C1454 C1455 1.362 . S
C1455 H1445 0.930 . S
C1455 C1448 1.409 . S
C1455 C1454 1.362 . S
H1456 C1462 0.930 . S
H1457 C1465 0.930 . S
H1458 C1466 0.930 . S
H1459 C1467 0.930 . S
H1460 C1470 0.930 . S
H1461 C1471 0.930 . S
C1462 H1456 0.930 . S
C1462 C1463 1.355 . S
C1462 C1464 1.415 1_655 S
C1463 C1462 1.355 . S
C1463 C1465 1.419 . S
C1464 C1462 1.415 1_455 S
C1464 C1469 1.425 . S
C1464 C1471 1.409 . S
C1465 H1457 0.930 . S
C1465 C1463 1.419 . S
C1465 C1466 1.362 . S
C1466 H1458 0.930 . S
C1466 C1465 1.362 . S
C1466 C1469 1.409 1_655 S
C1467 H1459 0.930 . S
C1467 C1468 1.355 . S
C1467 C1469 1.415 . S
C1468 C1467 1.355 . S
C1468 C1470 1.419 . S
C1469 C1464 1.425 . S
C1469 C1466 1.409 1_455 S
C1469 C1467 1.415 . S
C1470 H1460 0.930 . S
C1470 C1468 1.419 . S
C1470 C1471 1.362 . S
C1471 H1461 0.930 . S
C1471 C1464 1.409 . S
C1471 C1470 1.362 . S
H1472 C1478 0.930 . S
H1473 C1481 0.930 . S
H1474 C1482 0.930 . S
H1475 C1483 0.930 . S
H1476 C1486 0.930 . S
H1477 C1487 0.930 . S
C1478 H1472 0.930 . S
C1478 C1479 1.355 . S
C1478 C1480 1.415 . S
C1479 C1478 1.355 . S
C1479 C1481 1.419 . S
C1480 C1478 1.415 . S
C1480 C1485 1.425 . S
C1480 C1487 1.409 . S
C1481 H1473 0.930 . S
C1481 C1479 1.419 . S
C1481 C1482 1.362 . S
C1482 H1474 0.930 . S
C1482 C1481 1.362 . S
C1482 C1485 1.409 . S
C1483 H1475 0.930 . S
C1483 C1484 1.355 . S
C1483 C1485 1.415 . S
C1484 C1483 1.355 . S
C1484 C1486 1.419 . S
C1485 C1480 1.425 . S
C1485 C1482 1.409 . S
C1485 C1483 1.415 . S
C1486 H1476 0.930 . S
C1486 C1484 1.419 . S
C1486 C1487 1.362 . S
C1487 H1477 0.930 . S
C1487 C1480 1.409 . S
C1487 C1486 1.362 . S
H1488 C1494 0.930 . S
H1489 C1497 0.930 . S
H1490 C1498 0.930 . S
H1491 C1499 0.930 . S
H1492 C1502 0.930 . S
H1493 C1503 0.930 . S
C1494 H1488 0.930 . S
C1494 C1495 1.355 . S
C1494 C1496 1.415 . S
C1495 C1494 1.355 . S
C1495 C1497 1.419 . S
C1496 C1494 1.415 . S
C1496 C1501 1.425 1_655 S
C1496 C1503 1.409 1_655 S
C1497 H1489 0.930 . S
C1497 C1495 1.419 . S
C1497 C1498 1.362 . S
C1498 H1490 0.930 . S
C1498 C1497 1.362 . S
C1498 C1501 1.409 1_655 S
C1499 H1491 0.930 . S
C1499 C1500 1.355 . S
C1499 C1501 1.415 . S
C1500 C1499 1.355 . S
C1500 C1502 1.419 . S
C1501 C1496 1.425 1_455 S
C1501 C1498 1.409 1_455 S
C1501 C1499 1.415 . S
C1502 H1492 0.930 . S
C1502 C1500 1.419 . S
C1502 C1503 1.362 . S
C1503 H1493 0.930 . S
C1503 C1496 1.409 1_455 S
C1503 C1502 1.362 . S
H1504 C1510 0.930 . S
H1505 C1513 0.930 . S
H1506 C1514 0.930 . S
H1507 C1515 0.930 . S
H1508 C1518 0.930 . S
H1509 C1519 0.930 . S
C1510 H1504 0.930 . S
C1510 C1511 1.355 . S
C1510 C1512 1.415 . S
C1511 C1510 1.355 . S
C1511 C1513 1.419 . S
C1512 C1510 1.415 . S
C1512 C1517 1.425 . S
C1512 C1519 1.409 . S
C1513 H1505 0.930 . S
C1513 C1511 1.419 . S
C1513 C1514 1.362 . S
C1514 H1506 0.930 . S
C1514 C1513 1.362 . S
C1514 C1517 1.409 . S
C1515 H1507 0.930 . S
C1515 C1516 1.355 . S
C1515 C1517 1.415 . S
C1516 C1515 1.355 . S
C1516 C1518 1.419 . S
C1517 C1512 1.425 . S
C1517 C1514 1.409 . S
C1517 C1515 1.415 . S
C1518 H1508 0.930 . S
C1518 C1516 1.419 . S
C1518 C1519 1.362 . S
C1519 H1509 0.930 . S
C1519 C1512 1.409 . S
C1519 C1518 1.362 . S
H1520 C1526 0.930 . S
H1521 C1529 0.930 . S
H1522 C1530 0.930 . S
H1523 C1531 0.930 . S
H1524 C1534 0.930 . S
H1525 C1535 0.930 . S
C1526 H1520 0.930 . S
C1526 C1527 1.355 . S
C1526 C1528 1.415 . S
C1527 C1526 1.355 . S
C1527 C1529 1.419 . S
C1528 C1526 1.415 . S
C1528 C1533 1.425 . S
C1528 C1535 1.409 1_545 S
C1529 H1521 0.930 . S
C1529 C1527 1.419 . S
C1529 C1530 1.362 . S
C1530 H1522 0.930 . S
C1530 C1529 1.362 . S
C1530 C1533 1.409 . S
C1531 H1523 0.930 . S
C1531 C1532 1.355 . S
C1531 C1533 1.415 1_565 S
C1532 C1531 1.355 . S
C1532 C1534 1.419 . S
C1533 C1528 1.425 . S
C1533 C1530 1.409 . S
C1533 C1531 1.415 1_545 S
C1534 H1524 0.930 . S
C1534 C1532 1.419 . S
C1534 C1535 1.362 . S
C1535 H1525 0.930 . S
C1535 C1528 1.409 1_565 S
C1535 C1534 1.362 . S
H1536 C1542 0.930 . S
H1537 C1545 0.930 . S
H1538 C1546 0.930 . S
H1539 C1547 0.930 . S
H1540 C1550 0.930 . S
H1541 C1551 0.930 . S
C1542 H1536 0.930 . S
C1542 C1543 1.355 . S
C1542 C1544 1.415 . S
C1543 C1542 1.355 . S
C1543 C1545 1.419 . S
C1544 C1542 1.415 . S
C1544 C1549 1.425 . S
C1544 C1551 1.409 . S
C1545 H1537 0.930 . S
C1545 C1543 1.419 . S
C1545 C1546 1.362 . S
C1546 H1538 0.930 . S
C1546 C1545 1.362 . S
C1546 C1549 1.409 . S
C1547 H1539 0.930 . S
C1547 C1548 1.355 . S
C1547 C1549 1.415 . S
C1548 C1547 1.355 . S
C1548 C1550 1.419 . S
C1549 C1544 1.425 . S
C1549 C1546 1.409 . S
C1549 C1547 1.415 . S
C1550 H1540 0.930 . S
C1550 C1548 1.419 . S
C1550 C1551 1.362 . S
C1551 H1541 0.930 . S
C1551 C1544 1.409 . S
C1551 C1550 1.362 . S
H1552 C1558 0.930 . S
H1553 C1561 0.930 . S
H1554 C1562 0.930 . S
H1555 C1563 0.930 . S
H1556 C1566 0.930 . S
H1557 C1567 0.930 . S
C1558 H1552 0.930 . S
C1558 C1559 1.355 . S
C1558 C1560 1.415 . S
C1559 C1558 1.355 . S
C1559 C1561 1.419 . S
C1560 C1558 1.415 . S
C1560 C1565 1.425 1_545 S
C1560 C1567 1.409 1_545 S
C1561 H1553 0.930 . S
C1561 C1559 1.419 . S
C1561 C1562 1.362 . S
C1562 H1554 0.930 . S
C1562 C1561 1.362 . S
C1562 C1565 1.409 1_545 S
C1563 H1555 0.930 . S
C1563 C1564 1.355 . S
C1563 C1565 1.415 . S
C1564 C1563 1.355 . S
C1564 C1566 1.419 . S
C1565 C1560 1.425 1_565 S
C1565 C1562 1.409 1_565 S
C1565 C1563 1.415 . S
C1566 H1556 0.930 . S
C1566 C1564 1.419 . S
C1566 C1567 1.362 . S
C1567 H1557 0.930 . S
C1567 C1560 1.409 1_565 S
C1567 C1566 1.362 . S
H1568 C1574 0.930 . S
H1569 C1577 0.930 . S
H1570 C1578 0.930 . S
H1571 C1579 0.930 . S
H1572 C1582 0.930 . S
H1573 C1583 0.930 . S
C1574 H1568 0.930 . S
C1574 C1575 1.355 . S
C1574 C1576 1.415 . S
C1575 C1574 1.355 . S
C1575 C1577 1.419 . S
C1576 C1574 1.415 . S
C1576 C1581 1.425 . S
C1576 C1583 1.409 . S
C1577 H1569 0.930 . S
C1577 C1575 1.419 . S
C1577 C1578 1.362 . S
C1578 H1570 0.930 . S
C1578 C1577 1.362 . S
C1578 C1581 1.409 . S
C1579 H1571 0.930 . S
C1579 C1580 1.355 . S
C1579 C1581 1.415 . S
C1580 C1579 1.355 . S
C1580 C1582 1.419 . S
C1581 C1576 1.425 . S
C1581 C1578 1.409 . S
C1581 C1579 1.415 . S
C1582 H1572 0.930 . S
C1582 C1580 1.419 . S
C1582 C1583 1.362 . S
C1583 H1573 0.930 . S
C1583 C1576 1.409 . S
C1583 C1582 1.362 . S
H1584 C1590 0.930 . S
H1585 C1593 0.930 . S
H1586 C1594 0.930 . S
H1587 C1595 0.930 . S
H1588 C1598 0.930 . S
H1589 C1599 0.930 . S
C1590 H1584 0.930 . S
C1590 C1591 1.355 . S
C1590 C1592 1.415 . S
C1591 C1590 1.355 . S
C1591 C1593 1.419 . S
C1592 C1590 1.415 . S
C1592 C1597 1.425 1_545 S
C1592 C1599 1.409 1_545 S
C1593 H1585 0.930 . S
C1593 C1591 1.419 . S
C1593 C1594 1.362 . S
C1594 H1586 0.930 . S
C1594 C1593 1.362 . S
C1594 C1597 1.409 1_545 S
C1595 H1587 0.930 . S
C1595 C1596 1.355 . S
C1595 C1597 1.415 . S
C1596 C1595 1.355 . S
C1596 C1598 1.419 . S
C1597 C1592 1.425 1_565 S
C1597 C1594 1.409 1_565 S
C1597 C1595 1.415 . S
C1598 H1588 0.930 . S
C1598 C1596 1.419 . S
C1598 C1599 1.362 . S
C1599 H1589 0.930 . S
C1599 C1592 1.409 1_565 S
C1599 C1598 1.362 . S
H1600 C1606 0.930 . S
H1601 C1609 0.930 . S
H1602 C1610 0.930 . S
H1603 C1611 0.930 . S
H1604 C1614 0.930 . S
H1605 C1615 0.930 . S
C1606 H1600 0.930 . S
C1606 C1607 1.355 . S
C1606 C1608 1.415 . S
C1607 C1606 1.355 . S
C1607 C1609 1.419 . S
C1608 C1606 1.415 . S
C1608 C1613 1.425 . S
C1608 C1615 1.409 . S
C1609 H1601 0.930 . S
C1609 C1607 1.419 . S
C1609 C1610 1.362 . S
C1610 H1602 0.930 . S
C1610 C1609 1.362 . S
C1610 C1613 1.409 . S
C1611 H1603 0.930 . S
C1611 C1612 1.355 . S
C1611 C1613 1.415 . S
C1612 C1611 1.355 . S
C1612 C1614 1.419 . S
C1613 C1608 1.425 . S
C1613 C1610 1.409 . S
C1613 C1611 1.415 . S
C1614 H1604 0.930 . S
C1614 C1612 1.419 . S
C1614 C1615 1.362 . S
C1615 H1605 0.930 . S
C1615 C1608 1.409 . S
C1615 C1614 1.362 . S
H1616 C1622 0.930 . S
H1617 C1625 0.930 . S
H1618 C1626 0.931 . S
H1619 C1627 0.930 . S
H1620 C1630 0.930 . S
H1621 C1631 0.930 . S
C1622 H1616 0.930 . S
C1622 C1623 1.355 . S
C1622 C1624 1.415 . S
C1623 C1622 1.355 . S
C1623 C1625 1.419 . S
C1624 C1622 1.415 . S
C1624 C1629 1.425 1_545 S
C1624 C1631 1.409 1_545 S
C1625 H1617 0.930 . S
C1625 C1623 1.419 . S
C1625 C1626 1.362 . S
C1626 H1618 0.931 . S
C1626 C1625 1.362 . S
C1626 C1629 1.409 1_545 S
C1627 H1619 0.930 . S
C1627 C1628 1.355 . S
C1627 C1629 1.415 . S
C1628 C1627 1.355 . S
C1628 C1630 1.419 . S
C1629 C1624 1.425 1_565 S
C1629 C1626 1.409 1_565 S
C1629 C1627 1.415 . S
C1630 H1620 0.930 . S
C1630 C1628 1.419 . S
C1630 C1631 1.362 . S
C1631 H1621 0.930 . S
C1631 C1624 1.409 1_565 S
C1631 C1630 1.362 . S
H1632 C1638 0.930 . S
H1633 C1641 0.930 . S
H1634 C1642 0.930 . S
H1635 C1643 0.930 . S
H1636 C1646 0.930 . S
H1637 C1647 0.930 . S
C1638 H1632 0.930 . S
C1638 C1639 1.355 . S
C1638 C1640 1.415 . S
C1639 C1638 1.355 . S
C1639 C1641 1.419 . S
C1640 C1638 1.415 . S
C1640 C1645 1.425 . S
C1640 C1647 1.409 . S
C1641 H1633 0.930 . S
C1641 C1639 1.419 . S
C1641 C1642 1.362 . S
C1642 H1634 0.930 . S
C1642 C1641 1.362 . S
C1642 C1645 1.409 . S
C1643 H1635 0.930 . S
C1643 C1644 1.355 . S
C1643 C1645 1.415 . S
C1644 C1643 1.355 . S
C1644 C1646 1.419 . S
C1645 C1640 1.425 . S
C1645 C1642 1.409 . S
C1645 C1643 1.415 . S
C1646 H1636 0.930 . S
C1646 C1644 1.419 . S
C1646 C1647 1.362 . S
C1647 H1637 0.930 . S
C1647 C1640 1.409 . S
C1647 C1646 1.362 . S
H1648 C1654 0.930 . S
H1649 C1657 0.930 . S
H1650 C1658 0.930 . S
H1651 C1659 0.930 . S
H1652 C1662 0.930 . S
H1653 C1663 0.930 . S
C1654 H1648 0.930 . S
C1654 C1655 1.355 . S
C1654 C1656 1.415 1_556 S
C1655 C1654 1.355 . S
C1655 C1657 1.419 . S
C1656 C1654 1.415 1_554 S
C1656 C1661 1.425 . S
C1656 C1663 1.409 . S
C1657 H1649 0.930 . S
C1657 C1655 1.419 . S
C1657 C1658 1.362 . S
C1658 H1650 0.930 . S
C1658 C1657 1.362 . S
C1658 C1661 1.409 1_556 S
C1659 H1651 0.930 . S
C1659 C1660 1.355 . S
C1659 C1661 1.415 . S
C1660 C1659 1.355 . S
C1660 C1662 1.419 . S
C1661 C1656 1.425 . S
C1661 C1658 1.409 1_554 S
C1661 C1659 1.415 . S
C1662 H1652 0.930 . S
C1662 C1660 1.419 . S
C1662 C1663 1.362 . S
C1663 H1653 0.930 . S
C1663 C1656 1.409 . S
C1663 C1662 1.362 . S
H1664 C1670 0.930 . S
H1665 C1673 0.930 . S
H1666 C1674 0.930 . S
H1667 C1675 0.930 . S
H1668 C1678 0.930 . S
H1669 C1679 0.930 1_556 S
C1670 H1664 0.930 . S
C1670 C1671 1.355 . S
C1670 C1672 1.415 . S
C1671 C1670 1.355 . S
C1671 C1673 1.419 . S
C1672 C1670 1.415 . S
C1672 C1677 1.425 . S
C1672 C1679 1.409 1_556 S
C1673 H1665 0.930 . S
C1673 C1671 1.419 . S
C1673 C1674 1.362 . S
C1674 H1666 0.930 . S
C1674 C1673 1.362 . S
C1674 C1677 1.409 . S
C1675 H1667 0.930 . S
C1675 C1676 1.355 . S
C1675 C1677 1.415 1_554 S
C1676 C1675 1.355 . S
C1676 C1678 1.419 . S
C1677 C1672 1.425 . S
C1677 C1674 1.409 . S
C1677 C1675 1.415 1_556 S
C1678 H1668 0.930 . S
C1678 C1676 1.419 . S
C1678 C1679 1.362 . S
C1679 H1669 0.930 1_554 S
C1679 C1672 1.409 1_554 S
C1679 C1678 1.362 . S
H1680 C1686 0.930 . S
H1681 C1689 0.930 . S
H1682 C1690 0.930 . S
H1683 C1691 0.930 . S
H1684 C1694 0.930 . S
H1685 C1695 0.930 . S
C1686 H1680 0.930 . S
C1686 C1687 1.355 . S
C1686 C1688 1.415 . S
C1687 C1686 1.355 . S
C1687 C1689 1.419 . S
C1688 C1686 1.415 . S
C1688 C1693 1.425 . S
C1688 C1695 1.409 . S
C1689 H1681 0.930 . S
C1689 C1687 1.419 . S
C1689 C1690 1.362 . S
C1690 H1682 0.930 . S
C1690 C1689 1.362 . S
C1690 C1693 1.409 . S
C1691 H1683 0.930 . S
C1691 C1692 1.355 . S
C1691 C1693 1.415 . S
C1692 C1691 1.355 . S
C1692 C1694 1.419 . S
C1693 C1688 1.425 . S
C1693 C1690 1.409 . S
C1693 C1691 1.415 . S
C1694 H1684 0.930 . S
C1694 C1692 1.419 . S
C1694 C1695 1.362 . S
C1695 H1685 0.930 . S
C1695 C1688 1.409 . S
C1695 C1694 1.362 . S
H1696 C1702 0.930 . S
H1697 C1705 0.930 . S
H1698 C1706 0.930 1_554 S
H1699 C1707 0.930 . S
H1700 C1710 0.930 . S
H1701 C1711 0.930 . S
C1702 H1696 0.930 . S
C1702 C1703 1.355 . S
C1702 C1704 1.450 . S
C1703 C1702 1.355 . S
C1703 C1705 1.419 . S
C1704 C1702 1.450 . S
C1704 C1709 1.410 1_556 S
C1704 C1711 1.389 1_556 S
C1705 H1697 0.930 . S
C1705 C1703 1.419 . S
C1705 C1706 1.362 . S
C1706 H1698 0.930 1_556 S
C1706 C1705 1.362 . S
C1706 C1709 1.409 1_556 S
C1707 H1699 0.930 . S
C1707 C1708 1.355 . S
C1707 C1709 1.415 . S
C1708 C1707 1.355 . S
C1708 C1710 1.419 . S
C1709 C1704 1.410 1_554 S
C1709 C1706 1.409 1_554 S
C1709 C1707 1.415 . S
C1710 H1700 0.930 . S
C1710 C1708 1.419 . S
C1710 C1711 1.362 . S
C1711 H1701 0.930 . S
C1711 C1704 1.389 1_554 S
C1711 C1710 1.362 . S
H1712 C1718 0.930 . S
H1713 C1721 0.930 . S
H1714 C1722 0.930 . S
H1715 C1723 0.930 . S
H1716 C1726 0.930 . S
H1717 C1727 0.930 . S
C1718 H1712 0.930 . S
C1718 C1719 1.355 . S
C1718 C1720 1.415 . S
C1719 C1718 1.355 . S
C1719 C1721 1.419 . S
C1720 C1718 1.415 . S
C1720 C1725 1.425 . S
C1720 C1727 1.409 . S
C1721 H1713 0.930 . S
C1721 C1719 1.419 . S
C1721 C1722 1.362 . S
C1722 H1714 0.930 . S
C1722 C1721 1.362 . S
C1722 C1725 1.409 . S
C1723 H1715 0.930 . S
C1723 C1724 1.355 . S
C1723 C1725 1.415 . S
C1724 C1723 1.355 . S
C1724 C1726 1.419 . S
C1725 C1720 1.425 . S
C1725 C1722 1.409 . S
C1725 C1723 1.415 . S
C1726 H1716 0.930 . S
C1726 C1724 1.419 . S
C1726 C1727 1.362 . S
C1727 H1717 0.930 . S
C1727 C1720 1.409 . S
C1727 C1726 1.362 . S
H1728 C1734 0.930 . S
H1729 C1737 0.930 . S
H1730 C1738 0.930 . S
H1731 C1739 0.930 . S
H1732 C1742 0.930 . S
H1733 C1743 0.929 . S
C1734 H1728 0.930 . S
C1734 C1735 1.355 . S
C1734 C1736 1.415 . S
C1735 C1734 1.355 . S
C1735 C1737 1.419 . S
C1736 C1734 1.415 . S
C1736 C1741 1.425 1_556 S
C1736 C1743 1.409 1_556 S
C1737 H1729 0.930 . S
C1737 C1735 1.419 . S
C1737 C1738 1.362 . S
C1738 H1730 0.930 . S
C1738 C1737 1.362 . S
C1738 C1741 1.409 1_556 S
C1739 H1731 0.930 . S
C1739 C1740 1.355 . S
C1739 C1741 1.415 . S
C1740 C1739 1.355 . S
C1740 C1742 1.419 . S
C1741 C1736 1.425 1_554 S
C1741 C1738 1.409 1_554 S
C1741 C1739 1.415 . S
C1742 H1732 0.930 . S
C1742 C1740 1.419 . S
C1742 C1743 1.362 . S
C1743 H1733 0.929 . S
C1743 C1736 1.409 1_554 S
C1743 C1742 1.362 . S
H1744 C1750 0.930 . S
H1745 C1753 0.930 . S
H1746 C1754 0.930 . S
H1747 C1755 0.930 . S
H1748 C1758 0.930 . S
H1749 C1759 0.930 . S
C1750 H1744 0.930 . S
C1750 C1751 1.355 . S
C1750 C1752 1.415 . S
C1751 C1750 1.355 . S
C1751 C1753 1.419 . S
C1752 C1750 1.415 . S
C1752 C1757 1.425 . S
C1752 C1759 1.409 . S
C1753 H1745 0.930 . S
C1753 C1751 1.419 . S
C1753 C1754 1.362 . S
C1754 H1746 0.930 . S
C1754 C1753 1.362 . S
C1754 C1757 1.409 . S
C1755 H1747 0.930 . S
C1755 C1756 1.355 . S
C1755 C1757 1.415 . S
C1756 C1755 1.355 . S
C1756 C1758 1.419 . S
C1757 C1752 1.425 . S
C1757 C1754 1.409 . S
C1757 C1755 1.415 . S
C1758 H1748 0.930 . S
C1758 C1756 1.419 . S
C1758 C1759 1.362 . S
C1759 H1749 0.930 . S
C1759 C1752 1.409 . S
C1759 C1758 1.362 . S
H1760 C1766 0.930 . S
H1761 C1769 0.930 . S
H1762 C1770 0.930 . S
H1763 C1771 0.930 . S
H1764 C1774 0.930 . S
H1765 C1775 0.930 . S
C1766 H1760 0.930 . S
C1766 C1767 1.355 . S
C1766 C1768 1.415 . S
C1767 C1766 1.355 . S
C1767 C1769 1.419 . S
C1768 C1766 1.415 . S
C1768 C1773 1.425 . S
C1768 C1775 1.409 . S
C1769 H1761 0.930 . S
C1769 C1767 1.419 . S
C1769 C1770 1.362 . S
C1770 H1762 0.930 . S
C1770 C1769 1.362 . S
C1770 C1773 1.409 . S
C1771 H1763 0.930 . S
C1771 C1772 1.355 . S
C1771 C1773 1.415 . S
C1772 C1771 1.355 . S
C1772 C1774 1.419 . S
C1773 C1768 1.425 . S
C1773 C1770 1.409 . S
C1773 C1771 1.415 . S
C1774 H1764 0.930 . S
C1774 C1772 1.419 . S
C1774 C1775 1.362 . S
C1775 H1765 0.930 . S
C1775 C1768 1.409 . S
C1775 C1774 1.362 . S
H1776 C1782 0.930 . S
H1777 C1785 0.930 . S
H1778 C1786 0.930 . S
H1779 C1787 0.930 . S
H1780 C1790 0.930 . S
H1781 C1791 0.930 . S
C1782 H1776 0.930 . S
C1782 C1783 1.355 . S
C1782 C1784 1.415 . S
C1783 C1782 1.355 . S
C1783 C1785 1.419 . S
C1784 C1782 1.415 . S
C1784 C1789 1.425 . S
C1784 C1791 1.409 . S
C1785 H1777 0.930 . S
C1785 C1783 1.419 . S
C1785 C1786 1.362 . S
C1786 H1778 0.930 . S
C1786 C1785 1.362 . S
C1786 C1789 1.409 . S
C1787 H1779 0.930 . S
C1787 C1788 1.355 . S
C1787 C1789 1.415 . S
C1788 C1787 1.355 . S
C1788 C1790 1.419 . S
C1789 C1784 1.425 . S
C1789 C1786 1.409 . S
C1789 C1787 1.415 . S
C1790 H1780 0.930 . S
C1790 C1788 1.419 . S
C1790 C1791 1.362 . S
C1791 H1781 0.930 . S
C1791 C1784 1.409 . S
C1791 C1790 1.362 . S
H1792 C1798 0.930 . S
H1793 C1801 0.930 . S
H1794 C1802 0.930 . S
H1795 C1803 0.930 . S
H1796 C1806 0.930 . S
H1797 C1807 0.930 . S
C1798 H1792 0.930 . S
C1798 C1799 1.355 . S
C1798 C1800 1.415 . S
C1799 C1798 1.355 . S
C1799 C1801 1.419 . S
C1800 C1798 1.415 . S
C1800 C1805 1.425 . S
C1800 C1807 1.409 . S
C1801 H1793 0.930 . S
C1801 C1799 1.419 . S
C1801 C1802 1.362 . S
C1802 H1794 0.930 . S
C1802 C1801 1.362 . S
C1802 C1805 1.409 . S
C1803 H1795 0.930 . S
C1803 C1804 1.355 . S
C1803 C1805 1.415 . S
C1804 C1803 1.355 . S
C1804 C1806 1.419 . S
C1805 C1800 1.425 . S
C1805 C1802 1.409 . S
C1805 C1803 1.415 . S
C1806 H1796 0.930 . S
C1806 C1804 1.419 . S
C1806 C1807 1.362 . S
C1807 H1797 0.930 . S
C1807 C1800 1.409 . S
C1807 C1806 1.362 . S
H1808 C1814 0.930 . S
H1809 C1817 0.930 . S
H1810 C1818 0.930 . S
H1811 C1819 0.930 . S
H1812 C1822 0.930 . S
H1813 C1823 0.930 . S
C1814 H1808 0.930 . S
C1814 C1815 1.355 . S
C1814 C1816 1.415 . S
C1815 C1814 1.355 . S
C1815 C1817 1.419 . S
C1816 C1814 1.415 . S
C1816 C1821 1.425 . S
C1816 C1823 1.409 . S
C1817 H1809 0.930 . S
C1817 C1815 1.419 . S
C1817 C1818 1.362 . S
C1818 H1810 0.930 . S
C1818 C1817 1.362 . S
C1818 C1821 1.409 . S
C1819 H1811 0.930 . S
C1819 C1820 1.355 . S
C1819 C1821 1.415 . S
C1820 C1819 1.355 . S
C1820 C1822 1.419 . S
C1821 C1816 1.425 . S
C1821 C1818 1.409 . S
C1821 C1819 1.415 . S
C1822 H1812 0.930 . S
C1822 C1820 1.419 . S
C1822 C1823 1.362 . S
C1823 H1813 0.930 . S
C1823 C1816 1.409 . S
C1823 C1822 1.362 . S
H1824 C1830 0.930 . S
H1825 C1833 0.930 . S
H1826 C1834 0.930 . S
H1827 C1835 0.930 . S
H1828 C1838 0.930 . S
H1829 C1839 0.930 . S
C1830 H1824 0.930 . S
C1830 C1831 1.355 . S
C1830 C1832 1.415 . S
C1831 C1830 1.355 . S
C1831 C1833 1.419 . S
C1832 C1830 1.415 . S
C1832 C1837 1.425 . S
C1832 C1839 1.409 . S
C1833 H1825 0.930 . S
C1833 C1831 1.419 . S
C1833 C1834 1.362 . S
C1834 H1826 0.930 . S
C1834 C1833 1.362 . S
C1834 C1837 1.409 . S
C1835 H1827 0.930 . S
C1835 C1836 1.355 . S
C1835 C1837 1.415 . S
C1836 C1835 1.355 . S
C1836 C1838 1.419 . S
C1837 C1832 1.425 . S
C1837 C1834 1.409 . S
C1837 C1835 1.415 . S
C1838 H1828 0.930 . S
C1838 C1836 1.419 . S
C1838 C1839 1.362 . S
C1839 H1829 0.930 . S
C1839 C1832 1.409 . S
C1839 C1838 1.362 . S
H1840 C1846 0.930 . S
H1841 C1849 0.930 . S
H1842 C1850 0.930 . S
H1843 C1851 0.930 . S
H1844 C1854 0.930 . S
H1845 C1855 0.930 . S
C1846 H1840 0.930 . S
C1846 C1847 1.355 . S
C1846 C1848 1.415 . S
C1847 C1846 1.355 . S
C1847 C1849 1.419 . S
C1848 C1846 1.415 . S
C1848 C1853 1.425 . S
C1848 C1855 1.409 . S
C1849 H1841 0.930 . S
C1849 C1847 1.419 . S
C1849 C1850 1.362 . S
C1850 H1842 0.930 . S
C1850 C1849 1.362 . S
C1850 C1853 1.409 . S
C1851 H1843 0.930 . S
C1851 C1852 1.355 . S
C1851 C1853 1.415 . S
C1852 C1851 1.355 . S
C1852 C1854 1.419 . S
C1853 C1848 1.425 . S
C1853 C1850 1.409 . S
C1853 C1851 1.415 . S
C1854 H1844 0.930 . S
C1854 C1852 1.419 . S
C1854 C1855 1.362 . S
C1855 H1845 0.930 . S
C1855 C1848 1.409 . S
C1855 C1854 1.362 . S
H1856 C1862 0.930 . S
H1857 C1865 0.930 . S
H1858 C1866 0.930 . S
H1859 C1867 0.930 . S
H1860 C1870 0.930 . S
H1861 C1871 0.930 . S
C1862 H1856 0.930 . S
C1862 C1863 1.355 . S
C1862 C1864 1.415 . S
C1863 C1862 1.355 . S
C1863 C1865 1.419 . S
C1864 C1862 1.415 . S
C1864 C1869 1.425 . S
C1864 C1871 1.409 . S
C1865 H1857 0.930 . S
C1865 C1863 1.419 . S
C1865 C1866 1.362 . S
C1866 H1858 0.930 . S
C1866 C1865 1.362 . S
C1866 C1869 1.409 . S
C1867 H1859 0.930 . S
C1867 C1868 1.355 . S
C1867 C1869 1.415 . S
C1868 C1867 1.355 . S
C1868 C1870 1.419 . S
C1869 C1864 1.425 . S
C1869 C1866 1.409 . S
C1869 C1867 1.415 . S
C1870 H1860 0.930 . S
C1870 C1868 1.419 . S
C1870 C1871 1.362 . S
C1871 H1861 0.930 . S
C1871 C1864 1.409 . S
C1871 C1870 1.362 . S
H1872 C1878 0.930 . S
H1873 C1881 0.930 . S
H1874 C1882 0.930 . S
H1875 C1883 0.930 . S
H1876 C1886 0.930 . S
H1877 C1887 0.930 . S
C1878 H1872 0.930 . S
C1878 C1879 1.355 . S
C1878 C1880 1.415 . S
C1879 C1878 1.355 . S
C1879 C1881 1.419 . S
C1880 C1878 1.415 . S
C1880 C1885 1.425 . S
C1880 C1887 1.409 . S
C1881 H1873 0.930 . S
C1881 C1879 1.419 . S
C1881 C1882 1.362 . S
C1882 H1874 0.930 . S
C1882 C1881 1.362 . S
C1882 C1885 1.409 . S
C1883 H1875 0.930 . S
C1883 C1884 1.355 . S
C1883 C1885 1.415 . S
C1884 C1883 1.355 . S
C1884 C1886 1.419 . S
C1885 C1880 1.425 . S
C1885 C1882 1.409 . S
C1885 C1883 1.415 . S
C1886 H1876 0.930 . S
C1886 C1884 1.419 . S
C1886 C1887 1.362 . S
C1887 H1877 0.930 . S
C1887 C1880 1.409 . S
C1887 C1886 1.362 . S
H1888 C1894 0.930 . S
H1889 C1897 0.930 . S
H1890 C1898 0.930 . S
H1891 C1899 0.930 . S
H1892 C1902 0.930 . S
H1893 C1903 0.930 . S
C1894 H1888 0.930 . S
C1894 C1895 1.355 . S
C1894 C1896 1.415 . S
C1895 C1894 1.355 . S
C1895 C1897 1.419 . S
C1896 C1894 1.415 . S
C1896 C1901 1.425 . S
C1896 C1903 1.409 . S
C1897 H1889 0.930 . S
C1897 C1895 1.419 . S
C1897 C1898 1.362 . S
C1898 H1890 0.930 . S
C1898 C1897 1.362 . S
C1898 C1901 1.409 . S
C1899 H1891 0.930 . S
C1899 C1900 1.355 . S
C1899 C1901 1.415 . S
C1900 C1899 1.355 . S
C1900 C1902 1.419 . S
C1901 C1896 1.425 . S
C1901 C1898 1.409 . S
C1901 C1899 1.415 . S
C1902 H1892 0.930 . S
C1902 C1900 1.419 . S
C1902 C1903 1.362 . S
C1903 H1893 0.930 . S
C1903 C1896 1.409 . S
C1903 C1902 1.362 . S
H1904 C1910 0.930 . S
H1905 C1913 0.930 . S
H1906 C1914 0.930 . S
H1907 C1915 0.930 . S
H1908 C1918 0.930 . S
H1909 C1919 0.930 . S
C1910 H1904 0.930 . S
C1910 C1911 1.355 . S
C1910 C1912 1.415 . S
C1911 C1910 1.355 . S
C1911 C1913 1.419 . S
C1912 C1910 1.415 . S
C1912 C1917 1.425 . S
C1912 C1919 1.409 . S
C1913 H1905 0.930 . S
C1913 C1911 1.419 . S
C1913 C1914 1.362 . S
C1914 H1906 0.930 . S
C1914 C1913 1.362 . S
C1914 C1917 1.409 . S
C1915 H1907 0.930 . S
C1915 C1916 1.355 . S
C1915 C1917 1.415 . S
C1916 C1915 1.355 . S
C1916 C1918 1.419 . S
C1917 C1912 1.425 . S
C1917 C1914 1.409 . S
C1917 C1915 1.415 . S
C1918 H1908 0.930 . S
C1918 C1916 1.419 . S
C1918 C1919 1.362 . S
C1919 H1909 0.930 . S
C1919 C1912 1.409 . S
C1919 C1918 1.362 . S
H1920 C1926 0.930 . S
H1921 C1929 0.930 . S
H1922 C1930 0.930 . S
H1923 C1931 0.930 . S
H1924 C1934 0.930 . S
H1925 C1935 0.930 . S
C1926 H1920 0.930 . S
C1926 C1927 1.355 . S
C1926 C1928 1.415 . S
C1927 C1926 1.355 . S
C1927 C1929 1.419 . S
C1928 C1926 1.415 . S
C1928 C1933 1.425 . S
C1928 C1935 1.409 . S
C1929 H1921 0.930 . S
C1929 C1927 1.419 . S
C1929 C1930 1.362 . S
C1930 H1922 0.930 . S
C1930 C1929 1.362 . S
C1930 C1933 1.409 . S
C1931 H1923 0.930 . S
C1931 C1932 1.355 . S
C1931 C1933 1.415 . S
C1932 C1931 1.355 . S
C1932 C1934 1.419 . S
C1933 C1928 1.425 . S
C1933 C1930 1.409 . S
C1933 C1931 1.415 . S
C1934 H1924 0.930 . S
C1934 C1932 1.419 . S
C1934 C1935 1.362 . S
C1935 H1925 0.930 . S
C1935 C1928 1.409 . S
C1935 C1934 1.362 . S
H1936 C1942 0.930 . S
H1937 C1945 0.930 . S
H1938 C1946 0.930 . S
H1939 C1947 0.930 . S
H1940 C1950 0.930 . S
H1941 C1951 0.930 . S
C1942 H1936 0.930 . S
C1942 C1943 1.355 . S
C1942 C1944 1.415 . S
C1943 C1942 1.355 . S
C1943 C1945 1.419 . S
C1944 C1942 1.415 . S
C1944 C1949 1.425 . S
C1944 C1951 1.409 . S
C1945 H1937 0.930 . S
C1945 C1943 1.419 . S
C1945 C1946 1.362 . S
C1946 H1938 0.930 . S
C1946 C1945 1.362 . S
C1946 C1949 1.409 . S
C1947 H1939 0.930 . S
C1947 C1948 1.355 . S
C1947 C1949 1.415 . S
C1948 C1947 1.355 . S
C1948 C1950 1.419 . S
C1949 C1944 1.425 . S
C1949 C1946 1.409 . S
C1949 C1947 1.415 . S
C1950 H1940 0.930 . S
C1950 C1948 1.419 . S
C1950 C1951 1.362 . S
C1951 H1941 0.930 . S
C1951 C1944 1.409 . S
C1951 C1950 1.362 . S
H1952 C1958 0.930 . S
H1953 C1961 0.930 . S
H1954 C1962 0.930 . S
H1955 C1963 0.930 . S
H1956 C1966 0.930 . S
H1957 C1967 0.930 . S
C1958 H1952 0.930 . S
C1958 C1959 1.355 . S
C1958 C1960 1.415 . S
C1959 C1958 1.355 . S
C1959 C1961 1.419 . S
C1960 C1958 1.415 . S
C1960 C1965 1.425 . S
C1960 C1967 1.409 . S
C1961 H1953 0.930 . S
C1961 C1959 1.419 . S
C1961 C1962 1.362 . S
C1962 H1954 0.930 . S
C1962 C1961 1.362 . S
C1962 C1965 1.409 . S
C1963 H1955 0.930 . S
C1963 C1964 1.355 . S
C1963 C1965 1.415 . S
C1964 C1963 1.355 . S
C1964 C1966 1.419 . S
C1965 C1960 1.425 . S
C1965 C1962 1.409 . S
C1965 C1963 1.415 . S
C1966 H1956 0.930 . S
C1966 C1964 1.419 . S
C1966 C1967 1.362 . S
C1967 H1957 0.930 . S
C1967 C1960 1.409 . S
C1967 C1966 1.362 . S
H1968 C1974 0.930 . S
H1969 C1977 0.930 . S
H1970 C1978 0.930 . S
H1971 C1979 0.930 . S
H1972 C1982 0.930 . S
H1973 C1983 0.930 . S
C1974 H1968 0.930 . S
C1974 C1975 1.355 . S
C1974 C1976 1.415 . S
C1975 C1974 1.355 . S
C1975 C1977 1.419 . S
C1976 C1974 1.415 . S
C1976 C1981 1.425 . S
C1976 C1983 1.409 . S
C1977 H1969 0.930 . S
C1977 C1975 1.419 . S
C1977 C1978 1.362 . S
C1978 H1970 0.930 . S
C1978 C1977 1.362 . S
C1978 C1981 1.409 . S
C1979 H1971 0.930 . S
C1979 C1980 1.355 . S
C1979 C1981 1.415 . S
C1980 C1979 1.355 . S
C1980 C1982 1.419 . S
C1981 C1976 1.425 . S
C1981 C1978 1.409 . S
C1981 C1979 1.415 . S
C1982 H1972 0.930 . S
C1982 C1980 1.419 . S
C1982 C1983 1.362 . S
C1983 H1973 0.930 . S
C1983 C1976 1.409 . S
C1983 C1982 1.362 . S
H1984 C1990 0.930 . S
H1985 C1993 0.930 . S
H1986 C1994 0.930 . S
H1987 C1995 0.930 . S
H1988 C1998 0.930 . S
H1989 C1999 0.930 . S
C1990 H1984 0.930 . S
C1990 C1991 1.355 . S
C1990 C1992 1.415 . S
C1991 C1990 1.355 . S
C1991 C1993 1.419 . S
C1992 C1990 1.415 . S
C1992 C1997 1.425 . S
C1992 C1999 1.409 . S
C1993 H1985 0.930 . S
C1993 C1991 1.419 . S
C1993 C1994 1.362 . S
C1994 H1986 0.930 . S
C1994 C1993 1.362 . S
C1994 C1997 1.409 . S
C1995 H1987 0.930 . S
C1995 C1996 1.355 . S
C1995 C1997 1.415 . S
C1996 C1995 1.355 . S
C1996 C1998 1.419 . S
C1997 C1992 1.425 . S
C1997 C1994 1.409 . S
C1997 C1995 1.415 . S
C1998 H1988 0.930 . S
C1998 C1996 1.419 . S
C1998 C1999 1.362 . S
C1999 H1989 0.930 . S
C1999 C1992 1.409 . S
C1999 C1998 1.362 . S
H2000 C2006 0.930 . S
H2001 C2009 0.930 . S
H2002 C2010 0.930 . S
H2003 C2011 0.930 . S
H2004 C2014 0.930 . S
H2005 C2015 0.930 . S
C2006 H2000 0.930 . S
C2006 C2007 1.355 . S
C2006 C2008 1.415 . S
C2007 C2006 1.355 . S
C2007 C2009 1.419 . S
C2008 C2006 1.415 . S
C2008 C2013 1.425 . S
C2008 C2015 1.409 . S
C2009 H2001 0.930 . S
C2009 C2007 1.419 . S
C2009 C2010 1.362 . S
C2010 H2002 0.930 . S
C2010 C2009 1.362 . S
C2010 C2013 1.409 . S
C2011 H2003 0.930 . S
C2011 C2012 1.355 . S
C2011 C2013 1.415 . S
C2012 C2011 1.355 . S
C2012 C2014 1.419 . S
C2013 C2008 1.425 . S
C2013 C2010 1.409 . S
C2013 C2011 1.415 . S
C2014 H2004 0.930 . S
C2014 C2012 1.419 . S
C2014 C2015 1.362 . S
C2015 H2005 0.930 . S
C2015 C2008 1.409 . S
C2015 C2014 1.362 . S
H2016 C2022 0.930 . S
H2017 C2025 0.930 . S
H2018 C2026 0.930 . S
H2019 C2027 0.930 . S
H2020 C2030 0.930 . S
H2021 C2031 0.930 . S
C2022 H2016 0.930 . S
C2022 C2023 1.355 . S
C2022 C2024 1.415 . S
C2023 C2022 1.355 . S
C2023 C2025 1.419 . S
C2024 C2022 1.415 . S
C2024 C2029 1.425 . S
C2024 C2031 1.409 . S
C2025 H2017 0.930 . S
C2025 C2023 1.419 . S
C2025 C2026 1.362 . S
C2026 H2018 0.930 . S
C2026 C2025 1.362 . S
C2026 C2029 1.409 . S
C2027 H2019 0.930 . S
C2027 C2028 1.355 . S
C2027 C2029 1.415 . S
C2028 C2027 1.355 . S
C2028 C2030 1.419 . S
C2029 C2024 1.425 . S
C2029 C2026 1.409 . S
C2029 C2027 1.415 . S
C2030 H2020 0.930 . S
C2030 C2028 1.419 . S
C2030 C2031 1.362 . S
C2031 H2021 0.930 . S
C2031 C2024 1.409 . S
C2031 C2030 1.362 . S
H2032 C2038 0.930 . S
H2033 C2041 0.930 . S
H2034 C2042 0.930 . S
H2035 C2043 0.930 . S
H2036 C2046 0.930 . S
H2037 C2047 0.930 . S
C2038 H2032 0.930 . S
C2038 C2039 1.355 . S
C2038 C2040 1.415 . S
C2039 C2038 1.355 . S
C2039 C2041 1.419 . S
C2040 C2038 1.415 . S
C2040 C2045 1.425 . S
C2040 C2047 1.409 . S
C2041 H2033 0.930 . S
C2041 C2039 1.419 . S
C2041 C2042 1.362 . S
C2042 H2034 0.930 . S
C2042 C2041 1.362 . S
C2042 C2045 1.409 . S
C2043 H2035 0.930 . S
C2043 C2044 1.355 . S
C2043 C2045 1.415 . S
C2044 C2043 1.355 . S
C2044 C2046 1.419 . S
C2045 C2040 1.425 . S
C2045 C2042 1.409 . S
C2045 C2043 1.415 . S
C2046 H2036 0.930 . S
C2046 C2044 1.419 . S
C2046 C2047 1.362 . S
C2047 H2037 0.930 . S
C2047 C2040 1.409 . S
C2047 C2046 1.362 . S
H2048 C2054 0.930 . S
H2049 C2057 0.930 . S
H2050 C2058 0.930 . S
H2051 C2059 0.930 . S
H2052 C2062 0.930 . S
H2053 C2063 0.930 . S
C2054 H2048 0.930 . S
C2054 C2055 1.355 . S
C2054 C2056 1.415 . S
C2055 C2054 1.355 . S
C2055 C2057 1.419 . S
C2056 C2054 1.415 . S
C2056 C2061 1.425 . S
C2056 C2063 1.409 . S
C2057 H2049 0.930 . S
C2057 C2055 1.419 . S
C2057 C2058 1.362 . S
C2058 H2050 0.930 . S
C2058 C2057 1.362 . S
C2058 C2061 1.409 . S
C2059 H2051 0.930 . S
C2059 C2060 1.355 . S
C2059 C2061 1.415 . S
C2060 C2059 1.355 . S
C2060 C2062 1.419 . S
C2061 C2056 1.425 . S
C2061 C2058 1.409 . S
C2061 C2059 1.415 . S
C2062 H2052 0.930 . S
C2062 C2060 1.419 . S
C2062 C2063 1.362 . S
C2063 H2053 0.930 . S
C2063 C2056 1.409 . S
C2063 C2062 1.362 . S
H2064 C2070 0.930 . S
H2065 C2073 0.930 . S
H2066 C2074 0.930 . S
H2067 C2075 0.930 . S
H2068 C2078 0.930 . S
H2069 C2079 0.930 . S
C2070 H2064 0.930 . S
C2070 C2071 1.355 . S
C2070 C2072 1.415 . S
C2071 C2070 1.355 . S
C2071 C2073 1.419 . S
C2072 C2070 1.415 . S
C2072 C2077 1.425 . S
C2072 C2079 1.409 . S
C2073 H2065 0.930 . S
C2073 C2071 1.419 . S
C2073 C2074 1.362 . S
C2074 H2066 0.930 . S
C2074 C2073 1.362 . S
C2074 C2077 1.409 . S
C2075 H2067 0.930 . S
C2075 C2076 1.355 . S
C2075 C2077 1.415 . S
C2076 C2075 1.355 . S
C2076 C2078 1.419 . S
C2077 C2072 1.425 . S
C2077 C2074 1.409 . S
C2077 C2075 1.415 . S
C2078 H2068 0.930 . S
C2078 C2076 1.419 . S
C2078 C2079 1.362 . S
C2079 H2069 0.930 . S
C2079 C2072 1.409 . S
C2079 C2078 1.362 . S
H2080 C2086 0.930 . S
H2081 C2089 0.930 . S
H2082 C2090 0.930 . S
H2083 C2091 0.930 . S
H2084 C2094 0.930 . S
H2085 C2095 0.930 . S
C2086 H2080 0.930 . S
C2086 C2087 1.355 . S
C2086 C2088 1.415 . S
C2087 C2086 1.355 . S
C2087 C2089 1.419 . S
C2088 C2086 1.415 . S
C2088 C2093 1.425 . S
C2088 C2095 1.409 . S
C2089 H2081 0.930 . S
C2089 C2087 1.419 . S
C2089 C2090 1.362 . S
C2090 H2082 0.930 . S
C2090 C2089 1.362 . S
C2090 C2093 1.409 . S
C2091 H2083 0.930 . S
C2091 C2092 1.355 . S
C2091 C2093 1.415 . S
C2092 C2091 1.355 . S
C2092 C2094 1.419 . S
C2093 C2088 1.425 . S
C2093 C2090 1.409 . S
C2093 C2091 1.415 . S
C2094 H2084 0.930 . S
C2094 C2092 1.419 . S
C2094 C2095 1.362 . S
C2095 H2085 0.930 . S
C2095 C2088 1.409 . S
C2095 C2094 1.362 . S
H2096 C2102 0.930 . S
H2097 C2105 0.930 . S
H2098 C2106 0.930 . S
H2099 C2107 0.930 . S
H2100 C2110 0.930 . S
H2101 C2111 0.930 . S
C2102 H2096 0.930 . S
C2102 C2103 1.355 . S
C2102 C2104 1.415 . S
C2103 C2102 1.355 . S
C2103 C2105 1.419 . S
C2104 C2102 1.415 . S
C2104 C2109 1.425 . S
C2104 C2111 1.409 . S
C2105 H2097 0.930 . S
C2105 C2103 1.419 . S
C2105 C2106 1.362 . S
C2106 H2098 0.930 . S
C2106 C2105 1.362 . S
C2106 C2109 1.409 . S
C2107 H2099 0.930 . S
C2107 C2108 1.355 . S
C2107 C2109 1.415 . S
C2108 C2107 1.355 . S
C2108 C2110 1.419 . S
C2109 C2104 1.425 . S
C2109 C2106 1.409 . S
C2109 C2107 1.415 . S
C2110 H2100 0.930 . S
C2110 C2108 1.419 . S
C2110 C2111 1.362 . S
C2111 H2101 0.930 . S
C2111 C2104 1.409 . S
C2111 C2110 1.362 . S
H2112 C2118 0.930 . S
H2113 C2121 0.930 . S
H2114 C2122 0.930 . S
H2115 C2123 0.930 . S
H2116 C2126 0.930 . S
H2117 C2127 0.930 . S
C2118 H2112 0.930 . S
C2118 C2119 1.355 . S
C2118 C2120 1.415 . S
C2119 C2118 1.355 . S
C2119 C2121 1.419 . S
C2120 C2118 1.415 . S
C2120 C2125 1.425 . S
C2120 C2127 1.409 . S
C2121 H2113 0.930 . S
C2121 C2119 1.419 . S
C2121 C2122 1.362 . S
C2122 H2114 0.930 . S
C2122 C2121 1.362 . S
C2122 C2125 1.409 . S
C2123 H2115 0.930 . S
C2123 C2124 1.355 . S
C2123 C2125 1.415 . S
C2124 C2123 1.355 . S
C2124 C2126 1.419 . S
C2125 C2120 1.425 . S
C2125 C2122 1.409 . S
C2125 C2123 1.415 . S
C2126 H2116 0.930 . S
C2126 C2124 1.419 . S
C2126 C2127 1.362 . S
C2127 H2117 0.930 . S
C2127 C2120 1.409 . S
C2127 C2126 1.362 . S
H2128 C2134 0.930 . S
H2129 C2137 0.930 . S
H2130 C2138 0.930 . S
H2131 C2139 0.930 . S
H2132 C2142 0.930 . S
H2133 C2143 0.930 . S
C2134 H2128 0.930 . S
C2134 C2135 1.355 . S
C2134 C2136 1.415 . S
C2135 C2134 1.355 . S
C2135 C2137 1.419 . S
C2136 C2134 1.415 . S
C2136 C2141 1.425 . S
C2136 C2143 1.409 . S
C2137 H2129 0.930 . S
C2137 C2135 1.419 . S
C2137 C2138 1.362 . S
C2138 H2130 0.930 . S
C2138 C2137 1.362 . S
C2138 C2141 1.409 . S
C2139 H2131 0.930 . S
C2139 C2140 1.355 . S
C2139 C2141 1.415 . S
C2140 C2139 1.355 . S
C2140 C2142 1.419 . S
C2141 C2136 1.425 . S
C2141 C2138 1.409 . S
C2141 C2139 1.415 . S
C2142 H2132 0.930 . S
C2142 C2140 1.419 . S
C2142 C2143 1.362 . S
C2143 H2133 0.930 . S
C2143 C2136 1.409 . S
C2143 C2142 1.362 . S
H2144 C2150 0.930 . S
H2145 C2153 0.930 . S
H2146 C2154 0.930 . S
H2147 C2155 0.930 . S
H2148 C2158 0.930 . S
H2149 C2159 0.930 . S
C2150 H2144 0.930 . S
C2150 C2151 1.355 . S
C2150 C2152 1.415 . S
C2151 C2150 1.355 . S
C2151 C2153 1.419 . S
C2152 C2150 1.415 . S
C2152 C2157 1.425 . S
C2152 C2159 1.409 . S
C2153 H2145 0.930 . S
C2153 C2151 1.419 . S
C2153 C2154 1.362 . S
C2154 H2146 0.930 . S
C2154 C2153 1.362 . S
C2154 C2157 1.409 . S
C2155 H2147 0.930 . S
C2155 C2156 1.355 . S
C2155 C2157 1.415 . S
C2156 C2155 1.355 . S
C2156 C2158 1.419 . S
C2157 C2152 1.425 . S
C2157 C2154 1.409 . S
C2157 C2155 1.415 . S
C2158 H2148 0.930 . S
C2158 C2156 1.419 . S
C2158 C2159 1.362 . S
C2159 H2149 0.930 . S
C2159 C2152 1.409 . S
C2159 C2158 1.362 . S
C631 C268 1.150 . S
C636 C8 1.197 . S
C647 C23 1.073 . S
C652 C229 1.122 . S
C663 C34 1.161 . S
C668 C244 1.154 . S
C679 C257 1.108 . S
C684 C49 1.117 . S
C695 C309 1.065 . S
C700 C62 1.037 . S
C711 C73 1.156 . S
C716 C283 1.188 . S
C727 C88 1.049 . S
C732 C296 1.021 . S
C743 C99 1.169 . S
C748 C216 1.177 . S
C759 C112 1.164 . S
C764 C203 1.128 . S
C775 C127 1.092 . S
C780 C166 1.147 . S
C791 C138 1.130 . S
C796 C177 1.070 . S
C807 C192 1.123 . S
C812 C153 1.144 . S
C823 C322 1.227 . S
C828 C582 1.275 . S
C839 C543 1.123 . S
C844 C333 1.135 . S
C855 C348 1.205 . S
C860 C554 1.215 . S
C871 C567 1.196 . S
C876 C359 1.203 . S
C887 C372 1.160 . S
C892 C621 1.146 . S
C903 C593 1.254 . S
C908 C387 1.236 . S
C919 C398 1.212 . S
C924 C606 1.187 . S
C935 C530 1.200 . S
C940 C413 1.236 . S
C951 C426 1.180 . S
C956 C517 1.179 . S
C967 C476 1.237 . S
C972 C437 1.261 . S
C983 C491 1.207 . S
C988 C452 1.160 . S
C999 C502 1.186 . S
C1004 C463 1.165 . S
C1015 C346 1.042 . S
C1020 C10 1.072 . S
C1031 C21 1.076 . S
C1036 C361 1.027 . S
C1047 C36 1.087 . S
C1052 C320 1.038 . S
C1063 C47 1.040 . S
C1068 C335 1.081 . S
C1079 C60 1.097 . S
C1084 C400 1.115 . S
C1095 C411 1.004 . S
C1100 C75 1.018 . S
C1111 C374 1.049 . S
C1116 C86 1.014 . S
C1127 C385 1.075 . S
C1132 C101 1.036 . S
C1143 C478 1.043 . S
C1148 C114 1.045 . S
C1159 C125 1.021 . S
C1164 C489 1.021 . S
C1175 C504 1.001 . S
C1180 C140 1.084 . S
C1191 C151 1.019 . S
C1196 C515 1.005 . S
C1207 C164 1.023 . S
C1212 C424 1.015 . S
C1223 C179 1.046 . S
C1228 C439 1.042 . S
C1239 C450 1.063 . S
C1244 C190 1.075 . S
C1255 C465 1.004 . S
C1260 C205 1.080 . S
C1271 C218 1.000 . S
C1276 C569 1.075 . S
C1287 C231 1.097 . S
C1292 C595 1.015 . S
C1303 C608 1.080 . S
C1308 C242 1.033 . S
C1319 C528 1.075 . S
C1324 C255 1.083 . S
C1335 C270 1.065 . S
C1340 C619 1.054 . S
C1351 C541 1.066 . S
C1356 C281 1.073 . S
C1367 C294 1.047 . S
C1372 C556 1.003 . S
C1383 C307 1.094 . S
C1388 C580 1.097 . S
C1399 C364 1.542 . S
C1404 C5 1.500 . S
C1415 C382 1.605 . S
C1420 C13 1.480 . S
C1431 C390 1.512 . S
C1436 C31 1.578 . S
C1447 C39 1.501 . S
C1452 C408 1.584 . S
C1463 C317 1.589 . S
C1468 C52 1.473 . S
C1479 C325 1.533 . S
C1484 C70 1.533 . S
C1495 C78 1.529 . S
C1500 C343 1.580 . S
C1511 C351 1.524 . S
C1516 C96 1.536 . S
C1527 C109 1.517 . S
C1532 C494 1.556 . S
C1543 C117 1.505 . S
C1548 C512 1.566 . S
C1559 C468 1.597 . S
C1564 C135 1.455 . S
C1575 C143 1.493 . S
C1580 C486 1.601 . S
C1591 C447 1.556 . S
C1596 C156 1.524 . S
C1607 C174 1.473 . S
C1612 C455 1.580 . S
C1623 C182 1.543 . S
C1628 C421 1.547 . S
C1639 C200 1.543 . S
C1644 C429 1.503 . S
C1655 C585 1.533 . S
C1660 C213 1.494 . S
C1671 C226 1.560 . S
C1676 C559 1.594 . S
C1687 C234 1.557 . S
C1692 C577 1.518 . S
C1703 C247 1.608 . S
C1708 C538 1.540 . S
C1719 C546 1.571 . S
C1724 C265 1.436 . S
C1735 C525 1.493 . S
C1740 C273 1.533 . S
C1751 C616 1.570 . S
C1756 C286 1.568 . S
C1767 C299 1.576 . S
C1772 C598 1.532 . S
C1783 C195 1.500 . S
C1788 C0 1.514 . S
C1799 C18 1.482 . S
C1804 C161 1.531 . S
C1815 C169 1.625 . S
C1820 C26 1.612 . S
C1831 C187 1.606 . S
C1836 C44 1.615 . S
C1847 C122 1.589 . S
C1852 C57 1.585 . S
C1863 C65 1.581 . S
C1868 C130 1.636 . S
C1879 C83 1.605 . S
C1884 C148 1.623 . S
C1895 C104 1.605 . S
C1900 C91 1.551 . S
C1911 C208 1.610 . S
C1916 C260 1.623 . S
C1927 C304 1.523 . S
C1932 C221 1.581 . S
C1943 C278 1.485 . S
C1948 C239 1.505 . S
C1959 C252 1.543 . S
C1964 C291 1.564 . S
C1975 C507 1.582 . S
C1980 C312 1.561 . S
C1991 C473 1.494 . S
C1996 C330 1.499 . S
C2007 C338 1.551 . S
C2012 C481 1.531 . S
C2023 C499 1.559 . S
C2028 C356 1.588 . S
C2039 C434 1.497 . S
C2044 C369 1.501 . S
C2055 C377 1.652 . S
C2060 C442 1.567 . S
C2071 C395 1.622 . S
C2076 C460 1.616 . S
C2087 C403 1.532 . S
C2092 C416 1.555 . S
C2103 C520 1.640 . S
C2108 C572 1.615 . S
C2119 C611 1.655 . S
C2124 C533 1.659 . S
C2135 C590 1.560 . S
C2140 C551 1.579 . S
C2151 C603 1.511 . S
C2156 C564 1.490 . S
