# Generated by pormake.
# Topology ilc, (8)-cn, num edge types: 1
# Building blocks:
#     Node 0, Type 0, BuildingBlock: NUHRAL_clean_sbu_3, # of connection points: 8
#     Node 1, Type 0, BuildingBlock: NUHRAL_clean_sbu_3, # of connection points: 8
#     Node 2, Type 0, BuildingBlock: NUHRAL_clean_sbu_3, # of connection points: 8
#     Edge 3, Type (0, 0), BuildingBlock: FUNLAD_clean_linker_0, # of connection points: 2
#     Edge 4, Type (0, 0), BuildingBlock: FUNLAD_clean_linker_0, # of connection points: 2
#     Edge 5, Type (0, 0), BuildingBlock: FUNLAD_clean_linker_0, # of connection points: 2
#     Edge 6, Type (0, 0), BuildingBlock: FUNLAD_clean_linker_0, # of connection points: 2
#     Edge 7, Type (0, 0), BuildingBlock: FUNLAD_clean_linker_0, # of connection points: 2
#     Edge 8, Type (0, 0), BuildingBlock: FUNLAD_clean_linker_0, # of connection points: 2
#     Edge 9, Type (0, 0), BuildingBlock: FUNLAD_clean_linker_0, # of connection points: 2
#     Edge 10, Type (0, 0), BuildingBlock: FUNLAD_clean_linker_0, # of connection points: 2
#     Edge 11, Type (0, 0), BuildingBlock: FUNLAD_clean_linker_0, # of connection points: 2
#     Edge 12, Type (0, 0), BuildingBlock: FUNLAD_clean_linker_0, # of connection points: 2
#     Edge 13, Type (0, 0), BuildingBlock: FUNLAD_clean_linker_0, # of connection points: 2
#     Edge 14, Type (0, 0), BuildingBlock: FUNLAD_clean_linker_0, # of connection points: 2
# Relax obj value: 0.151
# Max RMSD: 0.201
# Mean RMSD: 0.201
data_MOF--net-ilc--node1-NUHRAL_clean_sbu_3--edge1-FUNLAD_clean_linker_0
_symmetry_space_group_name_H-M    P1
_symmetry_Int_Tables_number       1
_symmetry_cell_setting            triclinic
loop_
_symmetry_equiv_pos_as_xyz
'x, y, z'
_cell_length_a     25.19743
_cell_length_b     34.800501
_cell_length_c     21.768252
_cell_angle_alpha  100.51862
_cell_angle_beta   77.024277
_cell_angle_gamma 141.00945
loop_
_atom_site_label
_atom_site_type_symbol
_atom_site_fract_x
_atom_site_fract_y
_atom_site_fract_z
_atom_type_partial_charge
C0 C 0.07563 0.96821 0.18798 0.0
C1 C 0.13677 0.0246 0.21925 0.0
C2 C 0.16714 0.02991 0.2707 0.0
C3 C 0.13454 0.97787 0.2912 0.0
C4 C 0.07275 0.92107 0.2609 0.0
C5 C 0.04415 0.91661 0.20852 0.0
O6 O 0.93064 0.97363 0.05147 0.0
Tb7 Tb 0.04119 0.02468 0.09492 0.0
O8 O 0.07978 0.09613 0.16013 0.0
O9 O 0.80822 0.88606 0.01876 0.0
Eu10 Eu 0.89155 0.92716 0.92445 0.0
O11 O 0.10331 1.00643 0.09218 0.0
C12 C 0.90684 1.00195 0.88501 0.0
O13 O 0.97837 0.95086 0.14839 0.0
O14 O 1.00985 0.97255 0.95807 0.0
O15 O 0.11847 0.06403 1.00317 0.0
C16 C 0.04405 0.96319 0.13434 0.0
C17 C 0.89107 0.84107 0.84711 0.0
O18 O 0.92359 0.8518 0.89623 0.0
C19 C 0.85095 0.92028 0.06671 0.0
C20 C 0.08479 0.03092 0.95164 0.0
O21 O 0.8702 0.8657 0.84551 0.0
C22 C 0.93876 0.03424 0.82666 0.0
C23 C 0.93148 0.07736 0.75682 0.0
C24 C 0.89834 0.04373 0.81074 0.0
C25 C 1.01128 0.05737 0.78758 0.0
C26 C 0.04493 0.09122 0.73426 0.0
C27 C 1.00481 0.10086 0.71931 0.0
C28 C 0.11351 0.14524 0.13821 0.0
O29 O 0.12593 0.15077 0.07694 0.0
O30 O 0.83653 0.94233 0.88481 0.0
O31 O 0.96447 0.01974 0.91302 0.0
H32 H 0.16032 0.06421 0.20365 0.0
H33 H 0.15602 0.98116 0.33198 0.0
H34 H 0.99649 0.87299 0.18461 0.0
H35 H 0.8423 0.02587 0.84067 0.0
H36 H 0.04201 0.04953 0.79879 0.0
H37 H 0.02913 0.12484 0.67641 0.0
C38 C 0.80747 0.34328 0.47377 0.0
C39 C 0.82929 0.38039 0.52795 0.0
C40 C 0.83888 0.37085 0.58242 0.0
C41 C 0.82258 0.32226 0.58331 0.0
C42 C 0.79983 0.28444 0.53046 0.0
C43 C 0.79363 0.2956 0.47511 0.0
O44 O 0.62818 0.33842 0.43648 0.0
Tb45 Tb 0.7532 0.38948 0.38555 0.0
O46 O 0.80815 0.46964 0.44219 0.0
O47 O 0.54872 0.2414 0.39977 0.0
Eu48 Eu 0.59082 0.26658 0.29736 0.0
O49 O 0.8529 0.41339 0.40662 0.0
C50 C 0.55585 0.31279 0.26422 0.0
O51 O 0.72746 0.31733 0.39821 0.0
O52 O 0.72152 0.31881 0.25202 0.0
O53 O 0.78998 0.41288 0.28656 0.0
C54 C 0.80344 0.35607 0.41486 0.0
C55 C 0.56485 0.16519 0.23267 0.0
O56 O 0.62651 0.19445 0.26528 0.0
C57 C 0.5646 0.27895 0.4451 0.0
C58 C 0.78194 0.37762 0.24282 0.0
O59 O 0.53269 0.18272 0.23848 0.0
C60 C 0.58065 0.3446 0.20811 0.0
C61 C 0.56374 0.38616 0.14661 0.0
C62 C 0.54013 0.35657 0.20093 0.0
C63 C 0.64556 0.36324 0.16127 0.0
C64 C 0.67139 0.39462 0.10825 0.0
C65 C 0.62975 0.40533 0.1013 0.0
C66 C 0.79116 0.49619 0.43673 0.0
O67 O 0.74328 0.47523 0.39431 0.0
O68 O 0.50742 0.25481 0.25613 0.0
O69 O 0.61725 0.34289 0.29768 0.0
H70 H 0.84086 0.41754 0.52729 0.0
H71 H 0.82808 0.31381 0.62571 0.0
H72 H 0.77805 0.26737 0.43349 0.0
H73 H 0.48984 0.34211 0.23672 0.0
H74 H 0.67628 0.3537 0.16636 0.0
H75 H 0.64831 0.42838 0.05963 0.0
C76 C 0.46758 0.66961 0.84641 0.0
C77 C 0.49966 0.71903 0.88567 0.0
C78 C 0.52315 0.72789 0.94365 0.0
C79 C 0.51575 0.68709 0.96193 0.0
C80 C 0.48543 0.63762 0.92286 0.0
C81 C 0.46043 0.62878 0.86479 0.0
O82 O 0.30816 0.66178 0.71451 0.0
Tb83 Tb 0.42776 0.71742 0.74781 0.0
O84 O 0.46576 0.78784 0.81574 0.0
O85 O 0.18678 0.56817 0.6849 0.0
Eu86 Eu 0.25355 0.60472 0.58675 0.0
O87 O 0.49956 0.70741 0.7485 0.0
C88 C 0.24437 0.66887 0.55986 0.0
O89 O 0.36857 0.64202 0.79542 0.0
O90 O 0.37784 0.65824 0.61687 0.0
O91 O 0.49398 0.75205 0.65188 0.0
C92 C 0.43975 0.66131 0.78763 0.0
C93 C 0.17398 0.48226 0.53025 0.0
O94 O 0.14424 0.46877 0.59028 0.0
C95 C 0.23294 0.60559 0.73056 0.0
C96 C 0.45188 0.71568 0.60392 0.0
O97 O 0.22168 0.53702 0.51227 0.0
C98 C 0.24307 0.68953 0.50745 0.0
C99 C 0.17929 0.70395 0.46262 0.0
C100 C 0.1779 0.68087 0.51021 0.0
C101 C 0.30953 0.72164 0.45685 0.0
C102 C 0.3128 0.74658 0.4101 0.0
C103 C 0.24725 0.73743 0.41369 0.0
C104 C 0.43448 0.80587 0.82028 0.0
O105 O 0.38138 0.78228 0.78142 0.0
O106 O 0.17651 0.61085 0.57503 0.0
O107 O 0.31642 0.69172 0.56344 0.0
H108 H 0.50553 0.75047 0.87108 0.0
H109 H 0.53062 0.69259 0.00809 0.0
H110 H 0.43613 0.59083 0.83397 0.0
H111 H 0.12679 0.6567 0.54931 0.0
H112 H 0.35881 0.7273 0.45397 0.0
H113 H 0.24961 0.75764 0.37904 0.0
C114 C 0.18512 0.17285 0.66786 0.0
C115 C 0.11776 0.11276 0.69033 0.0
C116 C 0.24346 0.18931 0.61586 0.0
C117 C 0.23447 0.14557 0.5853 0.0
C118 C 0.17175 0.08722 0.61144 0.0
C119 C 0.11375 0.07089 0.66353 0.0
C120 C 0.28106 0.15572 0.52232 0.0
C121 C 0.30003 0.1886 0.47793 0.0
C122 C 0.29524 0.1688 0.41112 0.0
C123 C 0.24269 0.15838 0.37855 0.0
C124 C 0.20731 0.11749 0.32757 0.0
C125 C 0.22524 0.08733 0.30818 0.0
H126 H 0.36669 0.15549 0.40847 0.0
C127 C 0.28892 0.1058 0.33415 0.0
C128 C 0.32391 0.14644 0.38535 0.0
H129 H 0.30611 0.08478 0.31851 0.0
H130 H 0.18991 0.20611 0.68853 0.0
H131 H 0.2929 0.23527 0.5981 0.0
H132 H 0.16408 0.05286 0.58913 0.0
H133 H 0.06229 0.02429 0.67997 0.0
H134 H 0.28026 0.12369 0.50786 0.0
H135 H 0.29406 0.21686 0.49108 0.0
H136 H 0.22066 0.17584 0.39709 0.0
H137 H 0.15921 0.10476 0.30806 0.0
C138 C 0.82113 0.42167 0.6654 0.0
C139 C 0.8634 0.40952 0.63996 0.0
C140 C 0.83048 0.44585 0.7265 0.0
C141 C 0.88133 0.45754 0.76319 0.0
C142 C 0.93009 0.4511 0.73543 0.0
C143 C 0.92141 0.42752 0.67427 0.0
C144 C 0.87492 0.46993 0.83162 0.0
C145 C 0.87326 0.44557 0.8748 0.0
C146 C 0.83723 0.43924 0.94151 0.0
C147 C 0.78271 0.38417 0.97233 0.0
C148 C 0.73319 0.37127 0.02977 0.0
C149 C 0.73802 0.41354 0.05726 0.0
H150 H 0.89228 0.52769 0.95061 0.0
C151 C 0.79931 0.47121 0.02971 0.0
C152 C 0.84853 0.48399 0.97229 0.0
H153 H 0.8057 0.50518 0.05084 0.0
H154 H 0.77637 0.40853 0.63999 0.0
H155 H 0.79307 0.45122 0.7467 0.0
H156 H 0.97216 0.46182 0.76178 0.0
H157 H 0.95681 0.42034 0.65498 0.0
H158 H 0.85583 0.4898 0.84689 0.0
H159 H 0.88339 0.41992 0.85925 0.0
H160 H 0.77398 0.34934 0.94988 0.0
H161 H 0.68689 0.32663 0.05017 0.0
C162 C 0.61549 0.81037 0.02326 0.0
C163 C 0.55007 0.77736 0.98704 0.0
C164 C 0.63239 0.85053 0.07074 0.0
C165 C 0.5824 0.85693 0.08385 0.0
C166 C 0.52268 0.82853 0.04369 0.0
C167 C 0.50634 0.78888 0.99584 0.0
C168 C 0.5772 0.88109 0.14515 0.0
C169 C 0.57949 0.86832 0.19861 0.0
C170 C 0.5154 0.84511 0.25445 0.0
C171 C 0.53233 0.85006 0.31435 0.0
C172 C 0.46729 0.81922 0.36548 0.0
C173 C 0.38364 0.78162 0.35708 0.0
H174 H 0.41564 0.80106 0.20037 0.0
C175 C 0.3673 0.77691 0.29687 0.0
C176 C 0.43223 0.80848 0.24643 0.0
H177 H 0.30351 0.74698 0.28783 0.0
H178 H 0.65082 0.80292 0.01653 0.0
H179 H 0.68097 0.87373 0.0995 0.0
H180 H 0.48328 0.83276 0.0527 0.0
H181 H 0.45538 0.76414 0.96877 0.0
H182 H 0.54501 0.89103 0.14837 0.0
H183 H 0.61339 0.86016 0.19775 0.0
H184 H 0.59551 0.87694 0.32131 0.0
H185 H 0.48256 0.82451 0.41131 0.0
C186 C 0.11383 0.73324 0.50473 0.0
C187 C 0.11351 0.69709 0.46352 0.0
C188 C 0.07216 0.74251 0.49264 0.0
C189 C 0.03004 0.71605 0.43906 0.0
C190 C 1.02169 0.67419 0.40219 0.0
C191 C 0.06393 0.66539 0.41399 0.0
C192 C 1.00482 0.73865 0.41962 0.0
C193 C 1.00243 0.74003 0.35867 0.0
C194 C 1.00479 0.77889 0.33443 0.0
C195 C 1.02464 0.78846 0.26901 0.0
C196 C 0.04179 0.83215 0.2444 0.0
C197 C 0.03967 0.86735 0.28482 0.0
H198 H 0.97776 0.8038 0.42451 0.0
C199 C 1.01377 0.85484 0.34963 0.0
C200 C 0.99586 0.81082 0.37422 0.0
H201 H 1.00997 0.8806 0.38165 0.0
H202 H 0.15209 0.75833 0.54304 0.0
H203 H 0.07825 0.77402 0.52262 0.0
H204 H 0.98616 0.65037 0.36244 0.0
H205 H 0.06256 0.63695 0.38188 0.0
H206 H 1.00112 0.76278 0.45547 0.0
H207 H 1.01047 0.71812 0.32307 0.0
H208 H 0.03119 0.76425 0.23693 0.0
H209 H 0.06147 0.84083 0.19424 0.0
C210 C 0.19472 0.4529 0.42145 0.0
C211 C 0.15864 0.43779 0.48501 0.0
C212 C 0.18376 0.41188 0.37981 0.0
C213 C 0.13686 0.35491 0.40107 0.0
C214 C 0.09918 0.33946 0.46424 0.0
C215 C 0.10989 0.38029 0.50571 0.0
C216 C 0.12413 0.30977 0.35928 0.0
C217 C 0.17362 0.32387 0.3043 0.0
C218 C 0.15955 0.27794 0.26327 0.0
C219 C 0.18682 0.28855 0.19826 0.0
C220 C 0.17291 0.24589 0.15782 0.0
C221 C 0.13239 0.1919 0.18163 0.0
H222 H 0.10212 0.21589 0.33746 0.0
C223 C 0.10779 0.1822 0.24697 0.0
C224 C 0.12119 0.22472 0.28741 0.0
H225 H 0.07723 0.14138 0.26691 0.0
H226 H 0.23202 0.49662 0.40387 0.0
H227 H 0.21164 0.42509 0.33116 0.0
H228 H 0.06233 0.2959 0.48197 0.0
H229 H 0.08074 0.36694 0.55428 0.0
H230 H 0.07199 0.26292 0.37537 0.0
H231 H 0.22536 0.37034 0.2873 0.0
H232 H 0.21759 0.3295 0.17845 0.0
H233 H 0.19333 0.25507 0.10778 0.0
C234 C 0.56624 0.8002 0.52521 0.0
C235 C 0.48768 0.73835 0.53809 0.0
C236 C 0.60396 0.82038 0.46288 0.0
C237 C 0.56415 0.77896 0.41178 0.0
C238 C 0.48389 0.71774 0.42487 0.0
C239 C 0.44643 0.69759 0.4871 0.0
C240 C 0.60373 0.7971 0.34448 0.0
C241 C 0.68795 0.84748 0.32614 0.0
C242 C 0.7281 0.86419 0.2589 0.0
C243 C 0.80704 0.92557 0.24466 0.0
C244 C 0.84761 0.94346 0.18252 0.0
C245 C 0.81111 0.90023 0.13303 0.0
H246 H 0.63237 0.77267 0.21824 0.0
C247 C 0.73295 0.83856 0.14716 0.0
C248 C 0.69181 0.82066 0.20934 0.0
H249 H 0.70307 0.80414 0.11002 0.0
H250 H 0.59949 0.83299 0.56333 0.0
H251 H 0.66421 0.86839 0.45537 0.0
H252 H 0.45094 0.6848 0.38676 0.0
H253 H 0.38601 0.64967 0.49514 0.0
H254 H 0.56152 0.76639 0.30879 0.0
H255 H 0.73043 0.87861 0.36153 0.0
H256 H 0.83696 0.96012 0.2817 0.0
H257 H 0.90696 0.99142 0.17313 0.0
C258 C 0.73172 0.19474 0.58468 0.0
C259 C 0.78823 0.23625 0.5348 0.0
C260 C 0.73876 0.16252 0.603 0.0
C261 C 0.80269 0.17113 0.57151 0.0
C262 C 0.8537 0.2083 0.51781 0.0
C263 C 0.84672 0.2407 0.49963 0.0
C264 C 0.82667 0.15009 0.59785 0.0
C265 C 0.78275 0.11304 0.6479 0.0
C266 C 0.81962 0.10462 0.67969 0.0
C267 C 0.76712 0.04838 0.70688 0.0
C268 C 0.80233 0.03981 0.73499 0.0
C269 C 0.89053 0.08775 0.7371 0.0
H270 H 0.94864 0.19817 0.66757 0.0
C271 C 0.94174 0.14508 0.71373 0.0
C272 C 0.90691 0.15338 0.68524 0.0
H273 H 1.00956 0.18343 0.71617 0.0
H274 H 0.6864 0.19092 0.61271 0.0
H275 H 0.6979 0.13464 0.64449 0.0
H276 H 0.90303 0.21552 0.49226 0.0
H277 H 0.89179 0.27303 0.46155 0.0
H278 H 0.88707 0.16944 0.5771 0.0
H279 H 0.7191 0.08858 0.66672 0.0
H280 H 0.6993 1.01049 0.7045 0.0
H281 H 0.76121 0.99513 0.75259 0.0
C282 C 0.79859 0.57246 0.47728 0.0
C283 C 0.81967 0.5457 0.48127 0.0
C284 C 0.82014 0.61604 0.52198 0.0
C285 C 0.86299 0.63366 0.57205 0.0
C286 C 0.88703 0.60867 0.57439 0.0
C287 C 0.86548 0.56511 0.52972 0.0
C288 C 0.88392 0.67773 0.62262 0.0
C289 C 0.84216 0.68921 0.63798 0.0
C290 C 0.85856 0.72984 0.69138 0.0
C291 C 0.8319 0.75336 0.69152 0.0
C292 C 0.84279 0.78967 0.74177 0.0
C293 C 0.87993 0.80287 0.79358 0.0
H294 H 0.91478 0.72441 0.74642 0.0
C295 C 0.90631 0.77916 0.79373 0.0
C296 C 0.89567 0.743 0.74337 0.0
H297 H 0.93476 0.78814 0.83304 0.0
H298 H 0.76458 0.55934 0.43993 0.0
H299 H 0.80346 0.63586 0.51659 0.0
H300 H 0.9213 0.62202 0.61169 0.0
H301 H 0.88364 0.54599 0.53385 0.0
H302 H 0.93365 0.69956 0.64951 0.0
H303 H 0.79262 0.66756 0.611 0.0
H304 H 0.80241 0.74361 0.65252 0.0
H305 H 0.82157 0.80706 0.74009 0.0
C306 C 0.45961 0.19558 0.52508 0.0
C307 C 0.51046 0.25436 0.50709 0.0
C308 C 0.41108 0.17337 0.58467 0.0
C309 C 0.411 0.20913 0.62724 0.0
C310 C 0.4623 0.268 0.60906 0.0
C311 C 0.51155 0.29042 0.54986 0.0
C312 C 0.35904 0.18738 0.69078 0.0
C313 C 0.29243 0.12819 0.70777 0.0
C314 C 0.23819 0.10582 0.77031 0.0
C315 C 0.15922 0.04318 0.77674 0.0
C316 C 0.10784 0.01922 0.83505 0.0
C317 C 0.13441 0.05728 0.8886 0.0
H318 H 0.32497 0.19246 0.82183 0.0
C319 C 0.2126 0.12014 0.88221 0.0
C320 C 0.26406 0.14421 0.82383 0.0
H321 H 0.23521 0.15067 0.92271 0.0
H322 H 0.45832 0.16699 0.49351 0.0
H323 H 0.37468 0.12848 0.59688 0.0
H324 H 0.4639 0.29674 0.64067 0.0
H325 H 0.55018 0.336 0.53753 0.0
H326 H 0.37401 0.22161 0.72326 0.0
H327 H 0.27348 0.09349 0.6736 0.0
H328 H 0.13743 1.01236 0.73656 0.0
H329 H 0.04834 0.97062 0.83835 0.0
C330 C 0.49419 0.38325 0.07679 0.0
C331 C 0.52282 0.39923 0.13525 0.0
C332 C 0.47582 0.40807 0.05814 0.0
C333 C 0.48554 0.44963 0.09773 0.0
C334 C 0.5084 0.46211 0.15806 0.0
C335 C 0.52656 0.43703 0.17677 0.0
C336 C 0.48276 0.48621 0.07535 0.0
C337 C 0.45075 0.47351 0.02274 0.0
C338 C 0.46049 0.51596 0.99693 0.0
C339 C 0.39999 0.49262 0.96088 0.0
C340 C 0.40854 0.53178 0.93548 0.0
C341 C 0.47862 0.5954 0.94482 0.0
H342 H 0.58182 0.59971 0.02958 0.0
C343 C 0.54085 0.61868 0.97874 0.0
C344 C 0.53184 0.57964 1.00458 0.0
H345 H 0.59705 0.66745 0.98542 0.0
H346 H 0.49096 0.35427 0.04377 0.0
H347 H 0.45942 0.39735 0.01114 0.0
H348 H 0.51643 0.49386 0.18973 0.0
H349 H 0.54928 0.45063 0.22178 0.0
H350 H 0.5109 0.52675 0.10293 0.0
H351 H 0.41557 0.43062 0.9976 0.0
H352 H 0.34509 0.44382 0.95325 0.0
H353 H 0.35914 0.51204 0.90995 0.0
C354 C 0.41577 0.86476 0.87898 0.0
C355 C 0.45577 0.85022 0.87029 0.0
C356 C 0.43421 0.9055 0.92684 0.0
C357 C 0.49312 0.93271 0.96761 0.0
C358 C 0.53389 0.91872 0.95819 0.0
C359 C 0.51534 0.87792 0.91038 0.0
C360 C 0.51628 0.97732 0.01884 0.0
C361 C 0.4692 0.9839 0.04297 0.0
C362 C 0.49354 0.02942 0.09337 0.0
C363 C 0.45469 0.04485 0.10161 0.0
C364 C 0.47643 0.08799 0.1474 0.0
C365 C 0.53734 0.1166 0.18655 0.0
H366 H 0.58249 0.04526 0.13105 0.0
C367 C 0.57458 0.10003 0.17955 0.0
C368 C 0.5529 0.05695 0.13382 0.0
H369 H 0.62122 0.12069 0.20923 0.0
H370 H 0.36992 0.84462 0.84875 0.0
H371 H 0.40296 0.91601 0.93068 0.0
H372 H 0.58015 0.93924 0.98823 0.0
H373 H 0.54787 0.8682 0.90483 0.0
H374 H 0.57507 1.00571 0.03716 0.0
H375 H 0.41046 0.95558 0.02464 0.0
H376 H 0.40808 0.02408 0.07181 0.0
H377 H 0.44624 0.09944 0.1515 0.0
C378 C 0.12943 0.52226 0.80914 0.0
C379 C 0.19883 0.58493 0.79641 0.0
C380 C 0.08866 0.50174 0.87055 0.0
C381 C 0.11551 0.54361 0.9206 0.0
C382 C 0.18791 0.60639 0.90818 0.0
C383 C 0.2291 0.62689 0.84662 0.0
C384 C 0.06897 0.52368 0.98575 0.0
C385 C 0.98717 0.46795 0.99862 0.0
C386 C 0.93894 0.44745 0.06282 0.0
C387 C 0.872 0.38485 0.07521 0.0
C388 C 0.82211 0.36265 0.13388 0.0
C389 C 0.83743 0.40256 0.18157 0.0
H390 H 1.00413 0.53608 0.10167 0.0
C391 C 0.90415 0.46537 0.16924 0.0
C392 C 0.95461 0.48772 0.11031 0.0
H393 H 0.9169 0.49715 0.20482 0.0
H394 H 0.10541 0.48887 0.77136 0.0
H395 H 0.0359 0.45302 0.87794 0.0
H396 H 0.21091 0.63973 0.94582 0.0
H397 H 0.28239 0.67543 0.8381 0.0
H398 H 0.10255 0.55666 0.02387 0.0
H399 H 0.95296 0.43471 0.96096 0.0
H400 H 0.85794 0.35283 0.03916 0.0
H401 H 0.77078 0.3139 0.14143 0.0
loop_
_geom_bond_atom_site_label_1
_geom_bond_atom_site_label_2
_geom_bond_distance
_geom_bond_site_symmetry_2
_ccdc_geom_bond_type
C0 C1 1.387 . S
C0 C5 1.380 1_545 S
C0 C16 1.494 . S
C1 C0 1.387 . S
C1 C2 1.386 1_545 S
C1 H32 0.930 . S
C2 C1 1.386 1_565 S
C2 C3 1.397 . S
C3 C2 1.397 . S
C3 C4 1.393 . S
C3 H33 0.930 . S
C4 C3 1.393 . S
C4 C5 1.395 . S
C5 C0 1.380 1_565 S
C5 C4 1.395 . S
C5 H34 0.930 . S
O6 Tb7 2.295 1_655 S
O6 C19 1.242 1_545 S
Tb7 O6 2.295 1_455 S
Tb7 O8 2.312 . S
Tb7 O11 2.438 . S
Tb7 O13 2.472 . S
Tb7 O15 2.308 1_554 S
Tb7 C16 2.821 . S
O8 Tb7 2.312 . S
O8 C28 1.264 . S
O9 Eu10 2.308 1_554 S
O9 C19 1.243 . S
Eu10 O9 2.308 1_556 S
Eu10 C12 2.821 . S
Eu10 O14 2.295 1_655 S
Eu10 O21 2.312 . S
Eu10 O30 2.438 . S
Eu10 O31 2.472 . S
O11 Tb7 2.438 . S
O11 C16 1.263 . S
C12 Eu10 2.821 . S
C12 C22 1.494 . S
C12 O30 1.263 . S
C12 O31 1.264 . S
O13 Tb7 2.472 . S
O13 C16 1.264 . S
O14 Eu10 2.295 1_455 S
O14 C20 1.242 1_565 S
O15 Tb7 2.308 1_556 S
O15 C20 1.243 . S
C16 C0 1.494 . S
C16 Tb7 2.821 . S
C16 O11 1.263 . S
C16 O13 1.264 . S
C17 O18 1.260 . S
C17 O21 1.264 . S
O18 C17 1.260 . S
C19 O6 1.242 1_565 S
C19 O9 1.243 . S
C20 O14 1.242 1_545 S
C20 O15 1.243 . S
O21 Eu10 2.312 . S
O21 C17 1.264 . S
C22 C12 1.494 . S
C22 C24 1.380 1_565 S
C22 C25 1.387 . S
C23 C24 1.395 . S
C23 C27 1.393 . S
C24 C22 1.380 1_545 S
C24 C23 1.395 . S
C24 H35 0.930 . S
C25 C22 1.387 . S
C25 C26 1.386 1_565 S
C25 H36 0.930 . S
C26 C25 1.386 1_545 S
C26 C27 1.397 . S
C27 C23 1.393 . S
C27 C26 1.397 . S
C27 H37 0.930 . S
C28 O8 1.264 . S
C28 O29 1.260 . S
O29 C28 1.260 . S
O30 Eu10 2.438 . S
O30 C12 1.263 . S
O31 Eu10 2.472 . S
O31 C12 1.264 . S
H32 C1 0.930 . S
H33 C3 0.930 . S
H34 C5 0.930 . S
H35 C24 0.930 . S
H36 C25 0.930 . S
H37 C27 0.930 . S
C38 C39 1.387 . S
C38 C43 1.380 . S
C38 C54 1.494 . S
C39 C38 1.387 . S
C39 C40 1.386 . S
C39 H70 0.930 . S
C40 C39 1.386 . S
C40 C41 1.397 . S
C41 C40 1.397 . S
C41 C42 1.393 . S
C41 H71 0.930 . S
C42 C41 1.393 . S
C42 C43 1.395 . S
C43 C38 1.380 . S
C43 C42 1.395 . S
C43 H72 0.930 . S
O44 Tb45 2.295 . S
O44 C57 1.242 . S
Tb45 O44 2.295 . S
Tb45 O46 2.312 . S
Tb45 O49 2.438 . S
Tb45 O51 2.472 . S
Tb45 O53 2.308 . S
Tb45 C54 2.821 . S
O46 Tb45 2.312 . S
O46 C66 1.264 . S
O47 Eu48 2.308 . S
O47 C57 1.243 . S
Eu48 O47 2.308 . S
Eu48 C50 2.821 . S
Eu48 O52 2.295 . S
Eu48 O59 2.312 . S
Eu48 O68 2.438 . S
Eu48 O69 2.472 . S
O49 Tb45 2.438 . S
O49 C54 1.263 . S
C50 Eu48 2.821 . S
C50 C60 1.494 . S
C50 O68 1.263 . S
C50 O69 1.264 . S
O51 Tb45 2.472 . S
O51 C54 1.264 . S
O52 Eu48 2.295 . S
O52 C58 1.242 . S
O53 Tb45 2.308 . S
O53 C58 1.243 . S
C54 C38 1.494 . S
C54 Tb45 2.821 . S
C54 O49 1.263 . S
C54 O51 1.264 . S
C55 O56 1.260 . S
C55 O59 1.264 . S
O56 C55 1.260 . S
C57 O44 1.242 . S
C57 O47 1.243 . S
C58 O52 1.242 . S
C58 O53 1.243 . S
O59 Eu48 2.312 . S
O59 C55 1.264 . S
C60 C50 1.494 . S
C60 C62 1.380 . S
C60 C63 1.387 . S
C61 C62 1.395 . S
C61 C65 1.393 . S
C62 C60 1.380 . S
C62 C61 1.395 . S
C62 H73 0.930 . S
C63 C60 1.387 . S
C63 C64 1.386 . S
C63 H74 0.930 . S
C64 C63 1.386 . S
C64 C65 1.397 . S
C65 C61 1.393 . S
C65 C64 1.397 . S
C65 H75 0.930 . S
C66 O46 1.264 . S
C66 O67 1.260 . S
O67 C66 1.260 . S
O68 Eu48 2.438 . S
O68 C50 1.263 . S
O69 Eu48 2.472 . S
O69 C50 1.264 . S
H70 C39 0.930 . S
H71 C41 0.930 . S
H72 C43 0.930 . S
H73 C62 0.930 . S
H74 C63 0.930 . S
H75 C65 0.930 . S
C76 C77 1.387 . S
C76 C81 1.380 . S
C76 C92 1.494 . S
C77 C76 1.387 . S
C77 C78 1.386 . S
C77 H108 0.930 . S
C78 C77 1.386 . S
C78 C79 1.397 . S
C79 C78 1.397 . S
C79 C80 1.393 . S
C79 H109 0.930 . S
C80 C79 1.393 . S
C80 C81 1.395 . S
C81 C76 1.380 . S
C81 C80 1.395 . S
C81 H110 0.930 . S
O82 Tb83 2.295 . S
O82 C95 1.242 . S
Tb83 O82 2.295 . S
Tb83 O84 2.312 . S
Tb83 O87 2.438 . S
Tb83 O89 2.472 . S
Tb83 O91 2.308 . S
Tb83 C92 2.821 . S
O84 Tb83 2.312 . S
O84 C104 1.264 . S
O85 Eu86 2.308 . S
O85 C95 1.243 . S
Eu86 O85 2.308 . S
Eu86 C88 2.821 . S
Eu86 O90 2.295 . S
Eu86 O97 2.312 . S
Eu86 O106 2.438 . S
Eu86 O107 2.472 . S
O87 Tb83 2.438 . S
O87 C92 1.263 . S
C88 Eu86 2.821 . S
C88 C98 1.494 . S
C88 O106 1.263 . S
C88 O107 1.264 . S
O89 Tb83 2.472 . S
O89 C92 1.264 . S
O90 Eu86 2.295 . S
O90 C96 1.242 . S
O91 Tb83 2.308 . S
O91 C96 1.243 . S
C92 C76 1.494 . S
C92 Tb83 2.821 . S
C92 O87 1.263 . S
C92 O89 1.264 . S
C93 O94 1.260 . S
C93 O97 1.264 . S
O94 C93 1.260 . S
C95 O82 1.242 . S
C95 O85 1.243 . S
C96 O90 1.242 . S
C96 O91 1.243 . S
O97 Eu86 2.312 . S
O97 C93 1.264 . S
C98 C88 1.494 . S
C98 C100 1.380 . S
C98 C101 1.387 . S
C99 C100 1.395 . S
C99 C103 1.393 . S
C100 C98 1.380 . S
C100 C99 1.395 . S
C100 H111 0.930 . S
C101 C98 1.387 . S
C101 C102 1.386 . S
C101 H112 0.930 . S
C102 C101 1.386 . S
C102 C103 1.397 . S
C103 C99 1.393 . S
C103 C102 1.397 . S
C103 H113 0.930 . S
C104 O84 1.264 . S
C104 O105 1.260 . S
O105 C104 1.260 . S
O106 Eu86 2.438 . S
O106 C88 1.263 . S
O107 Eu86 2.472 . S
O107 C88 1.264 . S
H108 C77 0.930 . S
H109 C79 0.930 . S
H110 C81 0.930 . S
H111 C100 0.930 . S
H112 C101 0.930 . S
H113 C103 0.930 . S
C114 C115 1.386 . S
C114 C116 1.383 . S
C114 H130 0.951 . S
C115 C114 1.386 . S
C115 C119 1.383 1_545 S
C116 C114 1.383 . S
C116 C117 1.402 . S
C116 H131 0.951 . S
C117 C116 1.402 . S
C117 C118 1.375 1_545 S
C117 C120 1.481 1_645 S
C118 C117 1.375 1_565 S
C118 C119 1.367 . S
C118 H132 0.951 . S
C119 C115 1.383 1_565 S
C119 C118 1.367 . S
C119 H133 0.950 . S
C120 C117 1.481 1_465 S
C120 C121 1.297 1_565 S
C120 H134 0.950 . S
C121 C120 1.297 1_545 S
C121 C122 1.479 . S
C121 H135 0.950 . S
C122 C121 1.479 . S
C122 C123 1.375 . S
C122 C128 1.404 1_545 S
C123 C122 1.375 . S
C123 C124 1.369 . S
C123 H136 0.950 . S
C124 C123 1.369 . S
C124 C125 1.375 1_545 S
C124 H137 0.951 . S
C125 C124 1.375 1_565 S
C125 C127 1.397 . S
H126 C128 0.949 . S
C127 C125 1.397 . S
C127 C128 1.385 . S
C127 H129 0.950 . S
C128 C122 1.404 1_565 S
C128 H126 0.949 . S
C128 C127 1.385 . S
H129 C127 0.950 . S
H130 C114 0.951 . S
H131 C116 0.951 . S
H132 C118 0.951 . S
H133 C119 0.950 . S
H134 C120 0.950 . S
H135 C121 0.950 . S
H136 C123 0.950 . S
H137 C124 0.951 . S
C138 C139 1.386 . S
C138 C140 1.383 . S
C138 H154 0.951 . S
C139 C138 1.386 . S
C139 C143 1.383 . S
C140 C138 1.383 . S
C140 C141 1.402 . S
C140 H155 0.951 . S
C141 C140 1.402 . S
C141 C142 1.375 . S
C141 C144 1.481 . S
C142 C141 1.375 . S
C142 C143 1.367 . S
C142 H156 0.951 . S
C143 C139 1.383 . S
C143 C142 1.367 . S
C143 H157 0.950 . S
C144 C141 1.481 . S
C144 C145 1.297 . S
C144 H158 0.950 . S
C145 C144 1.297 . S
C145 C146 1.479 . S
C145 H159 0.950 . S
C146 C145 1.479 . S
C146 C147 1.375 . S
C146 C152 1.404 . S
C147 C146 1.375 . S
C147 C148 1.369 1_556 S
C147 H160 0.950 . S
C148 C147 1.369 1_554 S
C148 C149 1.392 . S
C148 H161 0.951 . S
C149 C148 1.392 . S
C149 C151 1.384 . S
H150 C152 0.949 . S
C151 C149 1.384 . S
C151 C152 1.385 1_554 S
C151 H153 0.950 . S
C152 C146 1.404 . S
C152 H150 0.949 . S
C152 C151 1.385 1_556 S
H153 C151 0.950 . S
H154 C138 0.951 . S
H155 C140 0.951 . S
H156 C142 0.951 . S
H157 C143 0.950 . S
H158 C144 0.950 . S
H159 C145 0.950 . S
H160 C147 0.950 . S
H161 C148 0.951 . S
C162 C163 1.386 1_554 S
C162 C164 1.383 . S
C162 H178 0.951 . S
C163 C162 1.386 1_556 S
C163 C167 1.383 . S
C164 C162 1.383 . S
C164 C165 1.402 . S
C164 H179 0.951 . S
C165 C164 1.402 . S
C165 C166 1.375 . S
C165 C168 1.481 . S
C166 C165 1.375 . S
C166 C167 1.367 1_554 S
C166 H180 0.951 . S
C167 C163 1.383 . S
C167 C166 1.367 1_556 S
C167 H181 0.950 . S
C168 C165 1.481 . S
C168 C169 1.297 . S
C168 H182 0.950 . S
C169 C168 1.297 . S
C169 C170 1.479 . S
C169 H183 0.950 . S
C170 C169 1.479 . S
C170 C171 1.375 . S
C170 C176 1.404 . S
C171 C170 1.375 . S
C171 C172 1.369 . S
C171 H184 0.950 . S
C172 C171 1.369 . S
C172 C173 1.392 . S
C172 H185 0.951 . S
C173 C172 1.392 . S
C173 C175 1.384 . S
H174 C176 0.949 . S
C175 C173 1.384 . S
C175 C176 1.385 . S
C175 H177 0.950 . S
C176 C170 1.404 . S
C176 H174 0.949 . S
C176 C175 1.385 . S
H177 C175 0.950 . S
H178 C162 0.951 . S
H179 C164 0.951 . S
H180 C166 0.951 . S
H181 C167 0.950 . S
H182 C168 0.950 . S
H183 C169 0.950 . S
H184 C171 0.950 . S
H185 C172 0.951 . S
C186 C187 1.386 . S
C186 C188 1.383 . S
C186 H202 0.951 . S
C187 C186 1.386 . S
C187 C191 1.383 . S
C188 C186 1.383 . S
C188 C189 1.402 . S
C188 H203 0.951 . S
C189 C188 1.402 . S
C189 C190 1.375 . S
C189 C192 1.481 . S
C190 C189 1.375 . S
C190 C191 1.367 . S
C190 H204 0.951 . S
C191 C187 1.383 . S
C191 C190 1.367 . S
C191 H205 0.950 . S
C192 C189 1.481 . S
C192 C193 1.297 . S
C192 H206 0.950 . S
C193 C192 1.297 . S
C193 C194 1.479 . S
C193 H207 0.950 . S
C194 C193 1.479 . S
C194 C195 1.375 . S
C194 C200 1.404 . S
C195 C194 1.375 . S
C195 C196 1.369 . S
C195 H208 0.950 . S
C196 C195 1.369 . S
C196 C197 1.392 . S
C196 H209 0.951 . S
C197 C196 1.392 . S
C197 C199 1.384 . S
H198 C200 0.949 . S
C199 C197 1.384 . S
C199 C200 1.385 . S
C199 H201 0.950 1_455 S
C200 C194 1.404 . S
C200 H198 0.949 . S
C200 C199 1.385 . S
H201 C199 0.950 1_655 S
H202 C186 0.951 . S
H203 C188 0.951 . S
H204 C190 0.951 . S
H205 C191 0.950 . S
H206 C192 0.950 . S
H207 C193 0.950 . S
H208 C195 0.950 . S
H209 C196 0.951 . S
C210 C211 1.386 . S
C210 C212 1.383 . S
C210 H226 0.951 . S
C211 C210 1.386 . S
C211 C215 1.383 . S
C212 C210 1.383 . S
C212 C213 1.402 . S
C212 H227 0.951 . S
C213 C212 1.402 . S
C213 C214 1.375 . S
C213 C216 1.481 . S
C214 C213 1.375 . S
C214 C215 1.367 . S
C214 H228 0.951 . S
C215 C211 1.383 . S
C215 C214 1.367 . S
C215 H229 0.950 . S
C216 C213 1.481 . S
C216 C217 1.297 . S
C216 H230 0.950 . S
C217 C216 1.297 . S
C217 C218 1.479 . S
C217 H231 0.950 . S
C218 C217 1.479 . S
C218 C219 1.375 . S
C218 C224 1.404 . S
C219 C218 1.375 . S
C219 C220 1.369 . S
C219 H232 0.950 . S
C220 C219 1.369 . S
C220 C221 1.392 . S
C220 H233 0.951 . S
C221 C220 1.392 . S
C221 C223 1.384 . S
H222 C224 0.949 . S
C223 C221 1.384 . S
C223 C224 1.385 . S
C223 H225 0.950 . S
C224 C218 1.404 . S
C224 H222 0.949 . S
C224 C223 1.385 . S
H225 C223 0.950 . S
H226 C210 0.951 . S
H227 C212 0.951 . S
H228 C214 0.951 . S
H229 C215 0.950 . S
H230 C216 0.950 . S
H231 C217 0.950 . S
H232 C219 0.950 . S
H233 C220 0.951 . S
C234 C235 1.386 . S
C234 C236 1.383 . S
C234 H250 0.951 . S
C235 C234 1.386 . S
C235 C239 1.383 . S
C236 C234 1.383 . S
C236 C237 1.402 . S
C236 H251 0.951 . S
C237 C236 1.402 . S
C237 C238 1.375 . S
C237 C240 1.481 . S
C238 C237 1.375 . S
C238 C239 1.367 . S
C238 H252 0.951 . S
C239 C235 1.383 . S
C239 C238 1.367 . S
C239 H253 0.950 . S
C240 C237 1.481 . S
C240 C241 1.297 . S
C240 H254 0.950 . S
C241 C240 1.297 . S
C241 C242 1.479 . S
C241 H255 0.950 . S
C242 C241 1.479 . S
C242 C243 1.375 . S
C242 C248 1.404 . S
C243 C242 1.375 . S
C243 C244 1.369 . S
C243 H256 0.950 . S
C244 C243 1.369 . S
C244 C245 1.392 . S
C244 H257 0.951 1_565 S
C245 C244 1.392 . S
C245 C247 1.384 . S
H246 C248 0.949 . S
C247 C245 1.384 . S
C247 C248 1.385 . S
C247 H249 0.950 . S
C248 C242 1.404 . S
C248 H246 0.949 . S
C248 C247 1.385 . S
H249 C247 0.950 . S
H250 C234 0.951 . S
H251 C236 0.951 . S
H252 C238 0.951 . S
H253 C239 0.950 . S
H254 C240 0.950 . S
H255 C241 0.950 . S
H256 C243 0.950 . S
H257 C244 0.951 1_545 S
C258 C259 1.386 . S
C258 C260 1.383 . S
C258 H274 0.951 . S
C259 C258 1.386 . S
C259 C263 1.383 . S
C260 C258 1.383 . S
C260 C261 1.402 . S
C260 H275 0.951 . S
C261 C260 1.402 . S
C261 C262 1.375 . S
C261 C264 1.481 . S
C262 C261 1.375 . S
C262 C263 1.367 . S
C262 H276 0.951 . S
C263 C259 1.383 . S
C263 C262 1.367 . S
C263 H277 0.950 . S
C264 C261 1.481 . S
C264 C265 1.297 . S
C264 H278 0.950 . S
C265 C264 1.297 . S
C265 C266 1.479 . S
C265 H279 0.950 . S
C266 C265 1.479 . S
C266 C267 1.375 . S
C266 C272 1.404 . S
C267 C266 1.375 . S
C267 C268 1.369 . S
C267 H280 0.950 . S
C268 C267 1.369 . S
C268 C269 1.392 . S
C268 H281 0.951 . S
C269 C268 1.392 . S
C269 C271 1.384 . S
H270 C272 0.949 . S
C271 C269 1.384 . S
C271 C272 1.385 . S
C271 H273 0.950 . S
C272 C266 1.404 . S
C272 H270 0.949 . S
C272 C271 1.385 . S
H273 C271 0.950 . S
H274 C258 0.951 . S
H275 C260 0.951 . S
H276 C262 0.951 . S
H277 C263 0.950 . S
H278 C264 0.950 . S
H279 C265 0.950 . S
H280 C267 0.950 . S
H281 C268 0.951 . S
C282 C283 1.386 . S
C282 C284 1.383 . S
C282 H298 0.951 . S
C283 C282 1.386 . S
C283 C287 1.383 . S
C284 C282 1.383 . S
C284 C285 1.402 . S
C284 H299 0.951 . S
C285 C284 1.402 . S
C285 C286 1.375 . S
C285 C288 1.481 . S
C286 C285 1.375 . S
C286 C287 1.367 . S
C286 H300 0.951 . S
C287 C283 1.383 . S
C287 C286 1.367 . S
C287 H301 0.950 . S
C288 C285 1.481 . S
C288 C289 1.297 . S
C288 H302 0.950 . S
C289 C288 1.297 . S
C289 C290 1.479 . S
C289 H303 0.950 . S
C290 C289 1.479 . S
C290 C291 1.375 . S
C290 C296 1.404 . S
C291 C290 1.375 . S
C291 C292 1.369 . S
C291 H304 0.950 . S
C292 C291 1.369 . S
C292 C293 1.392 . S
C292 H305 0.951 . S
C293 C292 1.392 . S
C293 C295 1.384 . S
H294 C296 0.949 . S
C295 C293 1.384 . S
C295 C296 1.385 . S
C295 H297 0.950 1_655 S
C296 C290 1.404 . S
C296 H294 0.949 . S
C296 C295 1.385 . S
H297 C295 0.950 1_455 S
H298 C282 0.951 . S
H299 C284 0.951 . S
H300 C286 0.951 . S
H301 C287 0.950 . S
H302 C288 0.950 . S
H303 C289 0.950 . S
H304 C291 0.950 . S
H305 C292 0.951 . S
C306 C307 1.386 . S
C306 C308 1.383 . S
C306 H322 0.951 . S
C307 C306 1.386 . S
C307 C311 1.383 . S
C308 C306 1.383 . S
C308 C309 1.402 . S
C308 H323 0.951 . S
C309 C308 1.402 . S
C309 C310 1.375 . S
C309 C312 1.481 . S
C310 C309 1.375 . S
C310 C311 1.367 . S
C310 H324 0.951 . S
C311 C307 1.383 . S
C311 C310 1.367 . S
C311 H325 0.950 . S
C312 C309 1.481 . S
C312 C313 1.297 . S
C312 H326 0.950 . S
C313 C312 1.297 . S
C313 C314 1.479 . S
C313 H327 0.950 . S
C314 C313 1.479 . S
C314 C315 1.375 . S
C314 C320 1.404 . S
C315 C314 1.375 . S
C315 C316 1.369 . S
C315 H328 0.950 . S
C316 C315 1.369 . S
C316 C317 1.392 . S
C316 H329 0.951 . S
C317 C316 1.392 . S
C317 C319 1.384 . S
H318 C320 0.949 . S
C319 C317 1.384 . S
C319 C320 1.385 . S
C319 H321 0.950 . S
C320 C314 1.404 . S
C320 H318 0.949 . S
C320 C319 1.385 . S
H321 C319 0.950 . S
H322 C306 0.951 . S
H323 C308 0.951 . S
H324 C310 0.951 . S
H325 C311 0.950 . S
H326 C312 0.950 . S
H327 C313 0.950 . S
H328 C315 0.950 . S
H329 C316 0.951 . S
C330 C331 1.386 . S
C330 C332 1.383 . S
C330 H346 0.951 . S
C331 C330 1.386 . S
C331 C335 1.383 . S
C332 C330 1.383 . S
C332 C333 1.402 . S
C332 H347 0.951 . S
C333 C332 1.402 . S
C333 C334 1.375 . S
C333 C336 1.481 . S
C334 C333 1.375 . S
C334 C335 1.367 . S
C334 H348 0.951 . S
C335 C331 1.383 . S
C335 C334 1.367 . S
C335 H349 0.950 . S
C336 C333 1.481 . S
C336 C337 1.297 1_554 S
C336 H350 0.950 . S
C337 C336 1.297 1_556 S
C337 C338 1.479 . S
C337 H351 0.950 . S
C338 C337 1.479 . S
C338 C339 1.375 . S
C338 C344 1.404 . S
C339 C338 1.375 . S
C339 C340 1.369 . S
C339 H352 0.950 . S
C340 C339 1.369 . S
C340 C341 1.392 . S
C340 H353 0.951 . S
C341 C340 1.392 . S
C341 C343 1.384 . S
H342 C344 0.949 1_554 S
C343 C341 1.384 . S
C343 C344 1.385 . S
C343 H345 0.950 . S
C344 C338 1.404 . S
C344 H342 0.949 1_556 S
C344 C343 1.385 . S
H345 C343 0.950 . S
H346 C330 0.951 . S
H347 C332 0.951 . S
H348 C334 0.951 . S
H349 C335 0.950 . S
H350 C336 0.950 . S
H351 C337 0.950 . S
H352 C339 0.950 . S
H353 C340 0.951 . S
C354 C355 1.386 . S
C354 C356 1.383 . S
C354 H370 0.951 . S
C355 C354 1.386 . S
C355 C359 1.383 . S
C356 C354 1.383 . S
C356 C357 1.402 . S
C356 H371 0.951 . S
C357 C356 1.402 . S
C357 C358 1.375 . S
C357 C360 1.481 1_556 S
C358 C357 1.375 . S
C358 C359 1.367 . S
C358 H372 0.951 . S
C359 C355 1.383 . S
C359 C358 1.367 . S
C359 H373 0.950 . S
C360 C357 1.481 1_554 S
C360 C361 1.297 . S
C360 H374 0.950 . S
C361 C360 1.297 . S
C361 C362 1.479 1_565 S
C361 H375 0.950 . S
C362 C361 1.479 1_545 S
C362 C363 1.375 . S
C362 C368 1.404 . S
C363 C362 1.375 . S
C363 C364 1.369 . S
C363 H376 0.950 . S
C364 C363 1.369 . S
C364 C365 1.392 . S
C364 H377 0.951 . S
C365 C364 1.392 . S
C365 C367 1.384 . S
H366 C368 0.949 . S
C367 C365 1.384 . S
C367 C368 1.385 . S
C367 H369 0.950 . S
C368 C362 1.404 . S
C368 H366 0.949 . S
C368 C367 1.385 . S
H369 C367 0.950 . S
H370 C354 0.951 . S
H371 C356 0.951 . S
H372 C358 0.951 . S
H373 C359 0.950 . S
H374 C360 0.950 . S
H375 C361 0.950 . S
H376 C363 0.950 . S
H377 C364 0.951 . S
C378 C379 1.386 . S
C378 C380 1.383 . S
C378 H394 0.951 . S
C379 C378 1.386 . S
C379 C383 1.383 . S
C380 C378 1.383 . S
C380 C381 1.402 . S
C380 H395 0.951 . S
C381 C380 1.402 . S
C381 C382 1.375 . S
C381 C384 1.481 . S
C382 C381 1.375 . S
C382 C383 1.367 . S
C382 H396 0.951 . S
C383 C379 1.383 . S
C383 C382 1.367 . S
C383 H397 0.950 . S
C384 C381 1.481 . S
C384 C385 1.297 1_556 S
C384 H398 0.950 1_556 S
C385 C384 1.297 1_554 S
C385 C386 1.479 1_455 S
C385 H399 0.950 . S
C386 C385 1.479 1_655 S
C386 C387 1.375 . S
C386 C392 1.404 . S
C387 C386 1.375 . S
C387 C388 1.369 . S
C387 H400 0.950 . S
C388 C387 1.369 . S
C388 C389 1.392 . S
C388 H401 0.951 . S
C389 C388 1.392 . S
C389 C391 1.384 . S
H390 C392 0.949 . S
C391 C389 1.384 . S
C391 C392 1.385 . S
C391 H393 0.950 . S
C392 C386 1.404 . S
C392 H390 0.949 . S
C392 C391 1.385 . S
H393 C391 0.950 . S
H394 C378 0.951 . S
H395 C380 0.951 . S
H396 C382 0.951 . S
H397 C383 0.950 . S
H398 C384 0.950 1_554 S
H399 C385 0.950 . S
H400 C387 0.950 . S
H401 C388 0.951 . S
C115 C26 0.451 . S
C125 C2 0.576 . S
C139 C40 0.545 . S
C149 C64 0.467 . S
C163 C78 0.496 . S
C173 C102 0.434 . S
C187 C99 2.505 . S
C197 C4 2.563 . S
C211 C93 1.255 . S
C221 C28 1.140 . S
C235 C96 1.501 . S
C245 C19 1.471 . S
C259 C42 2.553 . S
C269 C23 2.474 . S
C283 C66 1.188 . S
C293 C17 1.216 . S
C307 C57 1.476 . S
C317 C20 1.501 . S
C331 C61 2.553 . S
C341 C80 2.513 . S
C355 C104 1.229 . S
C365 C55 1.149 . S
C379 C95 1.497 . S
C389 C58 1.487 . S
