# Generated by pormake.
# Topology ull, (4)-cn, num edge types: 1
# Building blocks:
#     Node 0, Type 0, BuildingBlock: KUFVIS_clean_sbu_0, # of connection points: 4
#     Node 1, Type 0, BuildingBlock: KUFVIS_clean_sbu_0, # of connection points: 4
#     Node 2, Type 0, BuildingBlock: KUFVIS_clean_sbu_0, # of connection points: 4
#     Node 3, Type 0, BuildingBlock: KUFVIS_clean_sbu_0, # of connection points: 4
#     Node 4, Type 0, BuildingBlock: KUFVIS_clean_sbu_0, # of connection points: 4
#     Node 5, Type 0, BuildingBlock: KUFVIS_clean_sbu_0, # of connection points: 4
#     Node 6, Type 0, BuildingBlock: KUFVIS_clean_sbu_0, # of connection points: 4
#     Node 7, Type 0, BuildingBlock: KUFVIS_clean_sbu_0, # of connection points: 4
#     Node 8, Type 0, BuildingBlock: KUFVIS_clean_sbu_0, # of connection points: 4
#     Node 9, Type 0, BuildingBlock: KUFVIS_clean_sbu_0, # of connection points: 4
#     Node 10, Type 0, BuildingBlock: KUFVIS_clean_sbu_0, # of connection points: 4
#     Node 11, Type 0, BuildingBlock: KUFVIS_clean_sbu_0, # of connection points: 4
#     Node 12, Type 0, BuildingBlock: KUFVIS_clean_sbu_0, # of connection points: 4
#     Node 13, Type 0, BuildingBlock: KUFVIS_clean_sbu_0, # of connection points: 4
#     Node 14, Type 0, BuildingBlock: KUFVIS_clean_sbu_0, # of connection points: 4
#     Node 15, Type 0, BuildingBlock: KUFVIS_clean_sbu_0, # of connection points: 4
#     Node 16, Type 0, BuildingBlock: KUFVIS_clean_sbu_0, # of connection points: 4
#     Node 17, Type 0, BuildingBlock: KUFVIS_clean_sbu_0, # of connection points: 4
#     Node 18, Type 0, BuildingBlock: KUFVIS_clean_sbu_0, # of connection points: 4
#     Node 19, Type 0, BuildingBlock: KUFVIS_clean_sbu_0, # of connection points: 4
#     Node 20, Type 0, BuildingBlock: KUFVIS_clean_sbu_0, # of connection points: 4
#     Node 21, Type 0, BuildingBlock: KUFVIS_clean_sbu_0, # of connection points: 4
#     Node 22, Type 0, BuildingBlock: KUFVIS_clean_sbu_0, # of connection points: 4
#     Node 23, Type 0, BuildingBlock: KUFVIS_clean_sbu_0, # of connection points: 4
#     Node 24, Type 0, BuildingBlock: KUFVIS_clean_sbu_0, # of connection points: 4
#     Node 25, Type 0, BuildingBlock: KUFVIS_clean_sbu_0, # of connection points: 4
#     Node 26, Type 0, BuildingBlock: KUFVIS_clean_sbu_0, # of connection points: 4
#     Node 27, Type 0, BuildingBlock: KUFVIS_clean_sbu_0, # of connection points: 4
#     Node 28, Type 0, BuildingBlock: KUFVIS_clean_sbu_0, # of connection points: 4
#     Node 29, Type 0, BuildingBlock: KUFVIS_clean_sbu_0, # of connection points: 4
#     Node 30, Type 0, BuildingBlock: KUFVIS_clean_sbu_0, # of connection points: 4
#     Node 31, Type 0, BuildingBlock: KUFVIS_clean_sbu_0, # of connection points: 4
#     Node 32, Type 0, BuildingBlock: KUFVIS_clean_sbu_0, # of connection points: 4
#     Node 33, Type 0, BuildingBlock: KUFVIS_clean_sbu_0, # of connection points: 4
#     Node 34, Type 0, BuildingBlock: KUFVIS_clean_sbu_0, # of connection points: 4
#     Node 35, Type 0, BuildingBlock: KUFVIS_clean_sbu_0, # of connection points: 4
#     Node 36, Type 0, BuildingBlock: KUFVIS_clean_sbu_0, # of connection points: 4
#     Node 37, Type 0, BuildingBlock: KUFVIS_clean_sbu_0, # of connection points: 4
#     Node 38, Type 0, BuildingBlock: KUFVIS_clean_sbu_0, # of connection points: 4
#     Node 39, Type 0, BuildingBlock: KUFVIS_clean_sbu_0, # of connection points: 4
#     Node 40, Type 0, BuildingBlock: KUFVIS_clean_sbu_0, # of connection points: 4
#     Node 41, Type 0, BuildingBlock: KUFVIS_clean_sbu_0, # of connection points: 4
#     Node 42, Type 0, BuildingBlock: KUFVIS_clean_sbu_0, # of connection points: 4
#     Node 43, Type 0, BuildingBlock: KUFVIS_clean_sbu_0, # of connection points: 4
#     Node 44, Type 0, BuildingBlock: KUFVIS_clean_sbu_0, # of connection points: 4
#     Node 45, Type 0, BuildingBlock: KUFVIS_clean_sbu_0, # of connection points: 4
#     Node 46, Type 0, BuildingBlock: KUFVIS_clean_sbu_0, # of connection points: 4
#     Node 47, Type 0, BuildingBlock: KUFVIS_clean_sbu_0, # of connection points: 4
#     Edge 48, Type (0, 0), BuildingBlock: AJUNOK_clean_linker_0, # of connection points: 2
#     Edge 49, Type (0, 0), BuildingBlock: AJUNOK_clean_linker_0, # of connection points: 2
#     Edge 50, Type (0, 0), BuildingBlock: AJUNOK_clean_linker_0, # of connection points: 2
#     Edge 51, Type (0, 0), BuildingBlock: AJUNOK_clean_linker_0, # of connection points: 2
#     Edge 52, Type (0, 0), BuildingBlock: AJUNOK_clean_linker_0, # of connection points: 2
#     Edge 53, Type (0, 0), BuildingBlock: AJUNOK_clean_linker_0, # of connection points: 2
#     Edge 54, Type (0, 0), BuildingBlock: AJUNOK_clean_linker_0, # of connection points: 2
#     Edge 55, Type (0, 0), BuildingBlock: AJUNOK_clean_linker_0, # of connection points: 2
#     Edge 56, Type (0, 0), BuildingBlock: AJUNOK_clean_linker_0, # of connection points: 2
#     Edge 57, Type (0, 0), BuildingBlock: AJUNOK_clean_linker_0, # of connection points: 2
#     Edge 58, Type (0, 0), BuildingBlock: AJUNOK_clean_linker_0, # of connection points: 2
#     Edge 59, Type (0, 0), BuildingBlock: AJUNOK_clean_linker_0, # of connection points: 2
#     Edge 60, Type (0, 0), BuildingBlock: AJUNOK_clean_linker_0, # of connection points: 2
#     Edge 61, Type (0, 0), BuildingBlock: AJUNOK_clean_linker_0, # of connection points: 2
#     Edge 62, Type (0, 0), BuildingBlock: AJUNOK_clean_linker_0, # of connection points: 2
#     Edge 63, Type (0, 0), BuildingBlock: AJUNOK_clean_linker_0, # of connection points: 2
#     Edge 64, Type (0, 0), BuildingBlock: AJUNOK_clean_linker_0, # of connection points: 2
#     Edge 65, Type (0, 0), BuildingBlock: AJUNOK_clean_linker_0, # of connection points: 2
#     Edge 66, Type (0, 0), BuildingBlock: AJUNOK_clean_linker_0, # of connection points: 2
#     Edge 67, Type (0, 0), BuildingBlock: AJUNOK_clean_linker_0, # of connection points: 2
#     Edge 68, Type (0, 0), BuildingBlock: AJUNOK_clean_linker_0, # of connection points: 2
#     Edge 69, Type (0, 0), BuildingBlock: AJUNOK_clean_linker_0, # of connection points: 2
#     Edge 70, Type (0, 0), BuildingBlock: AJUNOK_clean_linker_0, # of connection points: 2
#     Edge 71, Type (0, 0), BuildingBlock: AJUNOK_clean_linker_0, # of connection points: 2
#     Edge 72, Type (0, 0), BuildingBlock: AJUNOK_clean_linker_0, # of connection points: 2
#     Edge 73, Type (0, 0), BuildingBlock: AJUNOK_clean_linker_0, # of connection points: 2
#     Edge 74, Type (0, 0), BuildingBlock: AJUNOK_clean_linker_0, # of connection points: 2
#     Edge 75, Type (0, 0), BuildingBlock: AJUNOK_clean_linker_0, # of connection points: 2
#     Edge 76, Type (0, 0), BuildingBlock: AJUNOK_clean_linker_0, # of connection points: 2
#     Edge 77, Type (0, 0), BuildingBlock: AJUNOK_clean_linker_0, # of connection points: 2
#     Edge 78, Type (0, 0), BuildingBlock: AJUNOK_clean_linker_0, # of connection points: 2
#     Edge 79, Type (0, 0), BuildingBlock: AJUNOK_clean_linker_0, # of connection points: 2
#     Edge 80, Type (0, 0), BuildingBlock: AJUNOK_clean_linker_0, # of connection points: 2
#     Edge 81, Type (0, 0), BuildingBlock: AJUNOK_clean_linker_0, # of connection points: 2
#     Edge 82, Type (0, 0), BuildingBlock: AJUNOK_clean_linker_0, # of connection points: 2
#     Edge 83, Type (0, 0), BuildingBlock: AJUNOK_clean_linker_0, # of connection points: 2
#     Edge 84, Type (0, 0), BuildingBlock: AJUNOK_clean_linker_0, # of connection points: 2
#     Edge 85, Type (0, 0), BuildingBlock: AJUNOK_clean_linker_0, # of connection points: 2
#     Edge 86, Type (0, 0), BuildingBlock: AJUNOK_clean_linker_0, # of connection points: 2
#     Edge 87, Type (0, 0), BuildingBlock: AJUNOK_clean_linker_0, # of connection points: 2
#     Edge 88, Type (0, 0), BuildingBlock: AJUNOK_clean_linker_0, # of connection points: 2
#     Edge 89, Type (0, 0), BuildingBlock: AJUNOK_clean_linker_0, # of connection points: 2
#     Edge 90, Type (0, 0), BuildingBlock: AJUNOK_clean_linker_0, # of connection points: 2
#     Edge 91, Type (0, 0), BuildingBlock: AJUNOK_clean_linker_0, # of connection points: 2
#     Edge 92, Type (0, 0), BuildingBlock: AJUNOK_clean_linker_0, # of connection points: 2
#     Edge 93, Type (0, 0), BuildingBlock: AJUNOK_clean_linker_0, # of connection points: 2
#     Edge 94, Type (0, 0), BuildingBlock: AJUNOK_clean_linker_0, # of connection points: 2
#     Edge 95, Type (0, 0), BuildingBlock: AJUNOK_clean_linker_0, # of connection points: 2
#     Edge 96, Type (0, 0), BuildingBlock: AJUNOK_clean_linker_0, # of connection points: 2
#     Edge 97, Type (0, 0), BuildingBlock: AJUNOK_clean_linker_0, # of connection points: 2
#     Edge 98, Type (0, 0), BuildingBlock: AJUNOK_clean_linker_0, # of connection points: 2
#     Edge 99, Type (0, 0), BuildingBlock: AJUNOK_clean_linker_0, # of connection points: 2
#     Edge 100, Type (0, 0), BuildingBlock: AJUNOK_clean_linker_0, # of connection points: 2
#     Edge 101, Type (0, 0), BuildingBlock: AJUNOK_clean_linker_0, # of connection points: 2
#     Edge 102, Type (0, 0), BuildingBlock: AJUNOK_clean_linker_0, # of connection points: 2
#     Edge 103, Type (0, 0), BuildingBlock: AJUNOK_clean_linker_0, # of connection points: 2
#     Edge 104, Type (0, 0), BuildingBlock: AJUNOK_clean_linker_0, # of connection points: 2
#     Edge 105, Type (0, 0), BuildingBlock: AJUNOK_clean_linker_0, # of connection points: 2
#     Edge 106, Type (0, 0), BuildingBlock: AJUNOK_clean_linker_0, # of connection points: 2
#     Edge 107, Type (0, 0), BuildingBlock: AJUNOK_clean_linker_0, # of connection points: 2
#     Edge 108, Type (0, 0), BuildingBlock: AJUNOK_clean_linker_0, # of connection points: 2
#     Edge 109, Type (0, 0), BuildingBlock: AJUNOK_clean_linker_0, # of connection points: 2
#     Edge 110, Type (0, 0), BuildingBlock: AJUNOK_clean_linker_0, # of connection points: 2
#     Edge 111, Type (0, 0), BuildingBlock: AJUNOK_clean_linker_0, # of connection points: 2
#     Edge 112, Type (0, 0), BuildingBlock: AJUNOK_clean_linker_0, # of connection points: 2
#     Edge 113, Type (0, 0), BuildingBlock: AJUNOK_clean_linker_0, # of connection points: 2
#     Edge 114, Type (0, 0), BuildingBlock: AJUNOK_clean_linker_0, # of connection points: 2
#     Edge 115, Type (0, 0), BuildingBlock: AJUNOK_clean_linker_0, # of connection points: 2
#     Edge 116, Type (0, 0), BuildingBlock: AJUNOK_clean_linker_0, # of connection points: 2
#     Edge 117, Type (0, 0), BuildingBlock: AJUNOK_clean_linker_0, # of connection points: 2
#     Edge 118, Type (0, 0), BuildingBlock: AJUNOK_clean_linker_0, # of connection points: 2
#     Edge 119, Type (0, 0), BuildingBlock: AJUNOK_clean_linker_0, # of connection points: 2
#     Edge 120, Type (0, 0), BuildingBlock: AJUNOK_clean_linker_0, # of connection points: 2
#     Edge 121, Type (0, 0), BuildingBlock: AJUNOK_clean_linker_0, # of connection points: 2
#     Edge 122, Type (0, 0), BuildingBlock: AJUNOK_clean_linker_0, # of connection points: 2
#     Edge 123, Type (0, 0), BuildingBlock: AJUNOK_clean_linker_0, # of connection points: 2
#     Edge 124, Type (0, 0), BuildingBlock: AJUNOK_clean_linker_0, # of connection points: 2
#     Edge 125, Type (0, 0), BuildingBlock: AJUNOK_clean_linker_0, # of connection points: 2
#     Edge 126, Type (0, 0), BuildingBlock: AJUNOK_clean_linker_0, # of connection points: 2
#     Edge 127, Type (0, 0), BuildingBlock: AJUNOK_clean_linker_0, # of connection points: 2
#     Edge 128, Type (0, 0), BuildingBlock: AJUNOK_clean_linker_0, # of connection points: 2
#     Edge 129, Type (0, 0), BuildingBlock: AJUNOK_clean_linker_0, # of connection points: 2
#     Edge 130, Type (0, 0), BuildingBlock: AJUNOK_clean_linker_0, # of connection points: 2
#     Edge 131, Type (0, 0), BuildingBlock: AJUNOK_clean_linker_0, # of connection points: 2
#     Edge 132, Type (0, 0), BuildingBlock: AJUNOK_clean_linker_0, # of connection points: 2
#     Edge 133, Type (0, 0), BuildingBlock: AJUNOK_clean_linker_0, # of connection points: 2
#     Edge 134, Type (0, 0), BuildingBlock: AJUNOK_clean_linker_0, # of connection points: 2
#     Edge 135, Type (0, 0), BuildingBlock: AJUNOK_clean_linker_0, # of connection points: 2
#     Edge 136, Type (0, 0), BuildingBlock: AJUNOK_clean_linker_0, # of connection points: 2
#     Edge 137, Type (0, 0), BuildingBlock: AJUNOK_clean_linker_0, # of connection points: 2
#     Edge 138, Type (0, 0), BuildingBlock: AJUNOK_clean_linker_0, # of connection points: 2
#     Edge 139, Type (0, 0), BuildingBlock: AJUNOK_clean_linker_0, # of connection points: 2
#     Edge 140, Type (0, 0), BuildingBlock: AJUNOK_clean_linker_0, # of connection points: 2
#     Edge 141, Type (0, 0), BuildingBlock: AJUNOK_clean_linker_0, # of connection points: 2
#     Edge 142, Type (0, 0), BuildingBlock: AJUNOK_clean_linker_0, # of connection points: 2
#     Edge 143, Type (0, 0), BuildingBlock: AJUNOK_clean_linker_0, # of connection points: 2
# Relax obj value: 0.046
# Max RMSD: 0.119
# Mean RMSD: 0.119
data_MOF--net-ull--node1-KUFVIS_clean_sbu_0--edge1-AJUNOK_clean_linker_0
_symmetry_space_group_name_H-M    P1
_symmetry_Int_Tables_number       1
_symmetry_cell_setting            triclinic
loop_
_symmetry_equiv_pos_as_xyz
'x, y, z'
_cell_length_a     44.826444
_cell_length_b     44.770279
_cell_length_c     44.83839
_cell_angle_alpha  89.950953
_cell_angle_beta   90.169258
_cell_angle_gamma 90.223386
loop_
_atom_site_label
_atom_site_type_symbol
_atom_site_fract_x
_atom_site_fract_y
_atom_site_fract_z
_atom_type_partial_charge
Mn0 Mn 0.03401 0.33974 0.18266 0.0
Mn1 Mn 0.01793 0.2812 0.13586 0.0
C2 C 0.01095 0.29884 0.20519 0.0
C3 C 0.06564 0.36904 0.21343 0.0
C4 C 0.98396 0.33957 0.13743 0.0
O5 O 0.05991 0.34684 0.14599 0.0
O6 O 0.05218 0.30467 0.11918 0.0
C7 C 0.06937 0.24038 0.12597 0.0
N8 N 0.04102 0.24398 0.13641 0.0
C9 C 0.0459 0.19044 0.15771 0.0
C10 C 0.07397 0.18878 0.14519 0.0
C11 C 0.08498 0.21314 0.12884 0.0
C12 C 0.02525 0.22027 0.1467 0.0
H13 H 0.08071 0.2588 0.1153 0.0
C14 C 0.06513 0.32998 0.12371 0.0
O15 O 0.04369 0.38025 0.19845 0.0
O16 O 0.07025 0.3406 0.2098 0.0
N17 N 0.98466 0.25908 0.15025 0.0
C18 C 0.95613 0.2688 0.15419 0.0
C19 C 0.93626 0.25381 0.17331 0.0
C20 C 0.94617 0.23135 0.19273 0.0
C21 C 0.97567 0.22218 0.1916 0.0
C22 C 0.99359 0.23305 0.16135 0.0
H23 H 0.94809 0.28798 0.14231 0.0
O24 O 0.00921 0.32587 0.2152 0.0
O25 O 0.02681 0.29516 0.1799 0.0
O26 O 0.99584 0.35172 0.16001 0.0
O27 O 0.99224 0.31475 0.12732 0.0
C28 C 0.989 0.19515 0.21372 0.0
C29 C 0.03731 0.171 0.18986 0.0
H30 H 0.08842 0.17015 0.15035 0.0
H31 H 0.10737 0.21181 0.11996 0.0
H32 H 0.91336 0.26126 0.17464 0.0
H33 H 0.93085 0.221 0.20823 0.0
H34 H 0.97578 0.18978 0.23352 0.0
H35 H 0.05178 0.15281 0.1972 0.0
Mn36 Mn 0.66764 0.03135 0.18458 0.0
Mn37 Mn 0.72604 0.00978 0.13965 0.0
C38 C 0.70806 0.00785 0.20911 0.0
C39 C 0.64058 0.06626 0.21366 0.0
C40 C 0.66637 0.97803 0.14273 0.0
O41 O 0.6615 0.0562 0.1465 0.0
O42 O 0.70311 0.04282 0.1222 0.0
C43 C 0.76541 0.06252 0.1302 0.0
N44 N 0.76314 0.03316 0.13837 0.0
C45 C 0.8171 0.03914 0.15754 0.0
C46 C 0.81794 0.0675 0.14553 0.0
C47 C 0.79243 0.07868 0.13157 0.0
C48 C 0.78756 0.01744 0.14696 0.0
H49 H 0.74598 0.07463 0.12322 0.0
C50 C 0.67926 0.05829 0.12444 0.0
O51 O 0.62761 0.04447 0.19974 0.0
O52 O 0.66926 0.06846 0.21024 0.0
N53 N 0.74825 0.97691 0.15436 0.0
C54 C 0.73772 0.94891 0.16043 0.0
C55 C 0.75278 0.92937 0.17979 0.0
C56 C 0.77692 0.93918 0.19697 0.0
C57 C 0.78752 0.96801 0.19287 0.0
C58 C 0.77564 0.98521 0.1624 0.0
H59 H 0.71756 0.94113 0.15028 0.0
O60 O 0.68087 0.00753 0.21877 0.0
O61 O 0.71218 0.02165 0.18276 0.0
O62 O 0.65355 0.99278 0.16313 0.0
O63 O 0.69213 0.98407 0.13347 0.0
C64 C 0.81426 0.98259 0.21432 0.0
C65 C 0.83674 0.03154 0.18968 0.0
H66 H 0.83649 0.0823 0.15034 0.0
H67 H 0.7926 0.1017 0.12415 0.0
H68 H 0.74394 0.90716 0.18344 0.0
H69 H 0.78629 0.92492 0.21407 0.0
H70 H 0.82014 0.96988 0.23435 0.0
H71 H 0.85448 0.04681 0.1968 0.0
Mn72 Mn 0.97284 0.66778 0.18359 0.0
Mn73 Mn 0.99283 0.72522 0.138 0.0
C74 C 0.99449 0.70851 0.20734 0.0
C75 C 0.9392 0.63991 0.21374 0.0
C76 C 0.02355 0.66529 0.13928 0.0
O77 O 0.94812 0.66233 0.14543 0.0
O78 O 0.95743 0.70504 0.11939 0.0
C79 C 0.94837 0.77225 0.12213 0.0
N80 N 0.97435 0.7649 0.13624 0.0
C81 C 0.97757 0.8209 0.15199 0.0
C82 C 0.95154 0.82586 0.13606 0.0
C83 C 0.93768 0.80196 0.12102 0.0
C84 C 0.99269 0.78647 0.14687 0.0
H85 H 0.9353 0.75504 0.11134 0.0
C86 C 0.9437 0.67995 0.12332 0.0
O87 O 0.96089 0.62754 0.19937 0.0
O88 O 0.93592 0.66842 0.20944 0.0
N89 N 0.02657 0.74309 0.15641 0.0
C90 C 0.05211 0.72943 0.16562 0.0
C91 C 0.06986 0.74103 0.18875 0.0
C92 C 0.06056 0.76529 0.20584 0.0
C93 C 0.03382 0.77925 0.19914 0.0
C94 C 0.01863 0.76944 0.16709 0.0
H95 H 0.05939 0.70949 0.15503 0.0
O96 O 0.99634 0.68147 0.21748 0.0
O97 O 0.9804 0.71201 0.18101 0.0
O98 O 0.01198 0.65424 0.16259 0.0
O99 O 0.01568 0.69015 0.12922 0.0
C100 C 0.02384 0.81031 0.21662 0.0
C101 C 0.98611 0.84175 0.1835 0.0
H102 H 0.94027 0.84713 0.13769 0.0
H103 H 0.91685 0.80615 0.10951 0.0
H104 H 0.09048 0.72992 0.19454 0.0
H105 H 0.07434 0.77333 0.22401 0.0
H106 H 0.03533 0.81472 0.2377 0.0
H107 H 0.9753 0.8633 0.18706 0.0
Mn108 Mn 0.34183 0.97642 0.18325 0.0
Mn109 Mn 0.28449 0.99802 0.1385 0.0
C110 C 0.30061 0.9976 0.20723 0.0
C111 C 0.36904 0.94247 0.21305 0.0
C112 C 0.34484 0.0281 0.14031 0.0
O113 O 0.34764 0.95218 0.14453 0.0
O114 O 0.30449 0.96337 0.12074 0.0
C115 C 0.23894 0.9514 0.12418 0.0
N116 N 0.2453 0.97861 0.13641 0.0
C117 C 0.18932 0.98047 0.151 0.0
C118 C 0.18513 0.95376 0.13605 0.0
C119 C 0.20962 0.93979 0.12267 0.0
C120 C 0.22327 0.99676 0.1459 0.0
H121 H 0.25663 0.93778 0.11553 0.0
C122 C 0.32897 0.94866 0.12307 0.0
O123 O 0.38167 0.96448 0.1992 0.0
O124 O 0.34063 0.93902 0.20829 0.0
N125 N 0.26629 0.03152 0.1564 0.0
C126 C 0.27963 0.05735 0.1656 0.0
C127 C 0.26692 0.07567 0.18751 0.0
C128 C 0.24209 0.06639 0.20386 0.0
C129 C 0.22889 0.03897 0.19753 0.0
C130 C 0.23946 0.02364 0.16592 0.0
H131 H 0.30021 0.06441 0.15598 0.0
O132 O 0.32752 0.99924 0.21775 0.0
O133 O 0.29763 0.98433 0.18066 0.0
O134 O 0.35608 0.01569 0.16305 0.0
O135 O 0.31957 0.02114 0.13058 0.0
C136 C 0.19811 0.02784 0.21499 0.0
C137 C 0.16822 0.98851 0.18206 0.0
H138 H 0.16412 0.94191 0.13782 0.0
H139 H 0.20624 0.91811 0.1125 0.0
H140 H 0.27771 0.09657 0.19321 0.0
H141 H 0.23357 0.08027 0.22163 0.0
H142 H 0.19314 0.0393 0.23589 0.0
H143 H 0.14703 0.97684 0.18553 0.0
Mn144 Mn 0.0338 0.66745 0.82377 0.0
Mn145 Mn 0.02395 0.72465 0.86976 0.0
C146 C 0.01501 0.70946 0.79983 0.0
C147 C 0.06595 0.63732 0.7952 0.0
C148 C 0.98922 0.66808 0.87128 0.0
O149 O 0.05806 0.6596 0.86235 0.0
O150 O 0.06234 0.70609 0.88173 0.0
C151 C 0.06817 0.77274 0.88113 0.0
N152 N 0.04088 0.76496 0.86993 0.0
C153 C 0.03637 0.81975 0.85267 0.0
C154 C 0.06391 0.82549 0.86546 0.0
C155 C 0.07902 0.80239 0.88022 0.0
C156 C 0.02124 0.78608 0.86145 0.0
H157 H 0.08228 0.75591 0.89101 0.0
C158 C 0.06963 0.6783 0.88076 0.0
O159 O 0.04225 0.62646 0.80779 0.0
O160 O 0.07144 0.6654 0.79968 0.0
N161 N 0.98674 0.74174 0.85724 0.0
C162 C 0.95964 0.72851 0.85248 0.0
C163 C 0.93888 0.73986 0.83185 0.0
C164 C 0.94607 0.76334 0.81264 0.0
C165 C 0.97374 0.77717 0.81513 0.0
C166 C 0.99263 0.76847 0.84556 0.0
H167 H 0.95274 0.70976 0.86524 0.0
O168 O 0.01182 0.68261 0.78961 0.0
O169 O 0.03069 0.71233 0.82538 0.0
O170 O 0.9926 0.65902 0.84477 0.0
O171 O 0.00715 0.68682 0.88135 0.0
C172 C 0.98254 0.80712 0.79458 0.0
C173 C 0.02492 0.8389 0.82137 0.0
H174 H 0.07506 0.84662 0.86155 0.0
H175 H 0.1009 0.80701 0.88944 0.0
H176 H 0.91727 0.72916 0.82977 0.0
H177 H 0.93017 0.77068 0.79599 0.0
H178 H 0.96863 0.81119 0.77494 0.0
H179 H 0.0358 0.86003 0.8156 0.0
Mn180 Mn 0.34161 0.03483 0.82534 0.0
Mn181 Mn 0.28476 0.01572 0.87117 0.0
C182 C 0.30009 0.01468 0.80139 0.0
C183 C 0.37045 0.06872 0.79687 0.0
C184 C 0.34382 0.98347 0.86835 0.0
O185 O 0.349 0.05762 0.86464 0.0
O186 O 0.30533 0.05098 0.88931 0.0
C187 C 0.23864 0.06181 0.88456 0.0
N188 N 0.24548 0.03501 0.8719 0.0
C189 C 0.18976 0.03263 0.85504 0.0
C190 C 0.18529 0.05952 0.86954 0.0
C191 C 0.20928 0.07339 0.88442 0.0
C192 C 0.22369 0.01691 0.86135 0.0
H193 H 0.256 0.07491 0.89506 0.0
C194 C 0.33147 0.06284 0.88655 0.0
O195 O 0.38181 0.04564 0.80998 0.0
O196 O 0.34215 0.07309 0.80129 0.0
N197 N 0.26635 0.98171 0.85378 0.0
C198 C 0.27881 0.95484 0.84709 0.0
C199 C 0.26662 0.9358 0.82531 0.0
C200 C 0.24281 0.94471 0.80729 0.0
C201 C 0.22981 0.97244 0.81192 0.0
C202 C 0.24009 0.98946 0.8428 0.0
H203 H 0.29784 0.94732 0.85913 0.0
O204 O 0.32678 0.0133 0.79052 0.0
O205 O 0.29741 0.02814 0.82808 0.0
O206 O 0.35364 0.99429 0.84421 0.0
O207 O 0.32013 0.99267 0.88003 0.0
C208 C 0.19919 0.98229 0.79354 0.0
C209 C 0.16876 0.02278 0.82402 0.0
H210 H 0.16437 0.07125 0.86696 0.0
H211 H 0.20548 0.09486 0.89481 0.0
H212 H 0.2767 0.91424 0.82146 0.0
H213 H 0.23452 0.93002 0.78996 0.0
H214 H 0.19466 0.96988 0.77303 0.0
H215 H 0.14753 0.03394 0.81965 0.0
Mn216 Mn 0.97718 0.34339 0.82411 0.0
Mn217 Mn 0.99418 0.2857 0.87004 0.0
C218 C 0.99603 0.30159 0.80047 0.0
C219 C 0.9434 0.37158 0.79552 0.0
C220 C 0.02815 0.3444 0.86732 0.0
O221 O 0.95491 0.35117 0.86307 0.0
O222 O 0.95914 0.30695 0.88761 0.0
C223 C 0.94682 0.24053 0.88355 0.0
N224 N 0.97365 0.24683 0.87065 0.0
C225 C 0.97407 0.1911 0.8537 0.0
C226 C 0.94721 0.18719 0.86836 0.0
C227 C 0.93432 0.21143 0.88347 0.0
C228 C 0.99095 0.22461 0.86006 0.0
H229 H 0.93442 0.25813 0.89427 0.0
C230 C 0.94832 0.33342 0.88443 0.0
O231 O 0.96663 0.38366 0.80789 0.0
O232 O 0.93892 0.34339 0.80064 0.0
N233 N 0.02759 0.26642 0.8527 0.0
C234 C 0.05469 0.27839 0.84582 0.0
C235 C 0.07334 0.26574 0.82411 0.0
C236 C 0.0638 0.242 0.80625 0.0
C237 C 0.03574 0.22959 0.81086 0.0
C238 C 0.019 0.24031 0.84166 0.0
H239 H 0.06267 0.29746 0.85761 0.0
O240 O 0.99819 0.32825 0.78947 0.0
O241 O 0.98254 0.29908 0.8271 0.0
O242 O 0.01775 0.35481 0.8432 0.0
O243 O 0.01831 0.32067 0.87878 0.0
C244 C 0.02491 0.19919 0.79248 0.0
C245 C 0.98324 0.16987 0.82274 0.0
H246 H 0.93483 0.16654 0.86587 0.0
H247 H 0.91292 0.20807 0.8941 0.0
H248 H 0.09509 0.27548 0.82013 0.0
H249 H 0.07821 0.2334 0.78896 0.0
H250 H 0.03717 0.19433 0.77202 0.0
H251 H 0.97133 0.14896 0.81833 0.0
Mn252 Mn 0.66723 0.97474 0.82469 0.0
Mn253 Mn 0.72408 0.99123 0.87152 0.0
C254 C 0.70886 0.99453 0.80148 0.0
C255 C 0.63795 0.94186 0.79583 0.0
C256 C 0.66562 0.02461 0.86888 0.0
O257 O 0.6594 0.95143 0.86328 0.0
O258 O 0.70329 0.95545 0.88833 0.0
C259 C 0.76975 0.94435 0.8839 0.0
N260 N 0.76317 0.97157 0.87192 0.0
C261 C 0.81876 0.97368 0.85513 0.0
C262 C 0.823 0.94638 0.86896 0.0
C263 C 0.79895 0.93242 0.8835 0.0
C264 C 0.78512 0.98969 0.86187 0.0
H265 H 0.75229 0.93117 0.89405 0.0
C266 C 0.67695 0.94437 0.88467 0.0
O267 O 0.62691 0.965 0.80902 0.0
O268 O 0.66613 0.93682 0.80046 0.0
N269 N 0.74285 0.02562 0.85528 0.0
C270 C 0.73072 0.05284 0.84934 0.0
C271 C 0.74304 0.0723 0.82803 0.0
C272 C 0.76657 0.06353 0.80969 0.0
C273 C 0.77921 0.03545 0.81349 0.0
C274 C 0.76894 0.01781 0.84401 0.0
H275 H 0.71186 0.06033 0.86163 0.0
O276 O 0.68225 0.99652 0.79039 0.0
O277 O 0.71142 0.98039 0.82791 0.0
O278 O 0.65621 0.01514 0.84401 0.0
O279 O 0.68873 0.0142 0.88091 0.0
C280 C 0.80959 0.02557 0.79475 0.0
C281 C 0.83963 0.98394 0.82431 0.0
H282 H 0.84375 0.93446 0.86607 0.0
H283 H 0.80253 0.91063 0.89335 0.0
H284 H 0.73325 0.09412 0.82481 0.0
H285 H 0.77494 0.07859 0.79274 0.0
H286 H 0.8143 0.0385 0.77461 0.0
H287 H 0.86069 0.97261 0.81972 0.0
Mn288 Mn 0.18217 0.03394 0.3388 0.0
Mn289 Mn 0.13604 0.01547 0.28082 0.0
C290 C 0.20538 0.0113 0.2981 0.0
C291 C 0.21199 0.06762 0.36687 0.0
C292 C 0.13872 0.9825 0.3398 0.0
O293 O 0.14367 0.05788 0.34555 0.0
O294 O 0.1189 0.0496 0.30226 0.0
C295 C 0.12471 0.06543 0.2379 0.0
N296 N 0.13582 0.03751 0.24292 0.0
C297 C 0.15471 0.03937 0.18814 0.0
C298 C 0.14153 0.06713 0.18528 0.0
C299 C 0.12639 0.07952 0.20969 0.0
C300 C 0.14634 0.0209 0.22024 0.0
H301 H 0.1144 0.07761 0.25588 0.0
C302 C 0.12162 0.06198 0.32784 0.0
O303 O 0.19824 0.04521 0.37892 0.0
O304 O 0.20744 0.07143 0.33847 0.0
N305 N 0.15168 0.98227 0.2606 0.0
C306 C 0.15603 0.95396 0.27073 0.0
C307 C 0.17654 0.9348 0.25695 0.0
C308 C 0.19617 0.94529 0.23504 0.0
C309 C 0.19421 0.97468 0.22525 0.0
C310 C 0.16344 0.9916 0.23528 0.0
H311 H 0.14305 0.94556 0.28896 0.0
O312 O 0.21606 0.01066 0.32493 0.0
O313 O 0.17947 0.02606 0.29456 0.0
O314 O 0.16149 0.99467 0.35141 0.0
O315 O 0.12803 0.99064 0.31515 0.0
C316 C 0.21436 0.98673 0.19659 0.0
C317 C 0.18642 0.03058 0.16813 0.0
H318 H 0.14556 0.08057 0.16561 0.0
H319 H 0.11724 0.10174 0.20734 0.0
H320 H 0.17826 0.91189 0.26443 0.0
H321 H 0.21209 0.93027 0.22502 0.0
H322 H 0.23464 0.9741 0.19201 0.0
H323 H 0.19209 0.04346 0.14819 0.0
Mn324 Mn 0.97768 0.1876 0.34785 0.0
Mn325 Mn 0.98771 0.15793 0.28154 0.0
C326 C 0.99716 0.2177 0.30949 0.0
C327 C 0.9446 0.21319 0.37905 0.0
C328 C 0.0193 0.1362 0.3356 0.0
O329 O 0.95116 0.14982 0.34641 0.0
O330 O 0.94836 0.14318 0.2962 0.0
C331 C 0.96635 0.11221 0.23898 0.0
N332 N 0.98908 0.13081 0.24707 0.0
C333 C 0.98975 0.14796 0.19093 0.0
C334 C 0.96728 0.12729 0.18549 0.0
C335 C 0.95666 0.10921 0.20897 0.0
C336 C 0.0048 0.14594 0.22586 0.0
H337 H 0.95438 0.10033 0.25615 0.0
C338 C 0.93999 0.13701 0.32323 0.0
O339 O 0.96635 0.19751 0.3902 0.0
O340 O 0.94192 0.21323 0.3504 0.0
N341 N 0.02696 0.16942 0.27158 0.0
C342 C 0.04918 0.18216 0.28829 0.0
C343 C 0.0702 0.20138 0.27497 0.0
C344 C 0.06451 0.21338 0.24665 0.0
C345 C 0.03965 0.20327 0.23104 0.0
C346 C 0.02708 0.17096 0.24252 0.0
H347 H 0.05001 0.17943 0.31208 0.0
O348 O 1.00175 0.22552 0.33698 0.0
O349 O 0.98416 0.1919 0.3072 0.0
O350 O 0.01471 0.15998 0.35108 0.0
O351 O 0.00623 0.13088 0.31068 0.0
C352 C 0.02884 0.21772 0.19898 0.0
C353 C 0.99528 0.17952 0.16853 0.0
H354 H 0.95627 0.12671 0.16398 0.0
H355 H 0.93833 0.09409 0.20432 0.0
H356 H 0.08841 0.21027 0.28817 0.0
H357 H 0.0784 0.2311 0.23781 0.0
H358 H 0.03836 0.23959 0.1938 0.0
H359 H 0.98473 0.18094 0.14657 0.0
Mn360 Mn 0.82556 0.97866 0.34997 0.0
Mn361 Mn 0.8528 0.98416 0.28289 0.0
C362 C 0.79294 0.99266 0.31154 0.0
C363 C 0.79986 0.94679 0.38298 0.0
C364 C 0.8745 0.02381 0.33099 0.0
O365 O 0.86351 0.95362 0.35003 0.0
O366 O 0.87176 0.94688 0.30033 0.0
C367 C 0.89719 0.96285 0.23955 0.0
N368 N 0.8785 0.98548 0.24742 0.0
C369 C 0.86109 0.98493 0.19124 0.0
C370 C 0.88226 0.96314 0.186 0.0
C371 C 0.90039 0.95308 0.20964 0.0
C372 C 0.86281 1.00053 0.22609 0.0
H373 H 0.90865 0.95051 0.25684 0.0
C374 C 0.87704 0.94095 0.32831 0.0
O375 O 0.81554 0.96914 0.39317 0.0
O376 O 0.80083 0.94226 0.35478 0.0
N377 N 0.83734 0.02161 0.27144 0.0
C378 C 0.82332 0.0435 0.28769 0.0
C379 C 0.80393 0.06384 0.27393 0.0
C380 C 0.79235 0.05719 0.24583 0.0
C381 C 0.80418 0.03314 0.23061 0.0
C382 C 0.83683 0.02203 0.24243 0.0
H383 H 0.82536 0.04489 0.31146 0.0
O384 O 0.78677 1.00025 0.33871 0.0
O385 O 0.81925 0.98041 0.3092 0.0
O386 O 0.85259 0.01783 0.34896 0.0
O387 O 0.8802 0.00739 0.30844 0.0
C388 C 0.79035 0.02143 0.19904 0.0
C389 C 0.82916 0.98898 0.1689 0.0
H390 H 0.88299 0.95197 0.16462 0.0
H391 H 0.9156 0.93488 0.20525 0.0
H392 H 0.79445 0.0819 0.28675 0.0
H393 H 0.77412 0.07001 0.23657 0.0
H394 H 0.76809 0.02982 0.19408 0.0
H395 H 0.82778 0.97804 0.14715 0.0
Mn396 Mn 0.03086 0.82618 0.34118 0.0
Mn397 Mn 0.01503 0.87272 0.28326 0.0
C398 C 0.01029 0.80257 0.29978 0.0
C399 C 0.06432 0.79769 0.37063 0.0
C400 C 0.98027 0.8705 0.34127 0.0
O401 O 0.05482 0.86438 0.34863 0.0
O402 O 0.05039 0.88933 0.30491 0.0
C403 C 0.06457 0.88286 0.24002 0.0
N404 N 0.03644 0.87226 0.24509 0.0
C405 C 0.03739 0.85354 0.19023 0.0
C406 C 0.06542 0.86624 0.18733 0.0
C407 C 0.07834 0.88112 0.21173 0.0
C408 C 0.01926 0.86235 0.22226 0.0
H409 H 0.07717 0.89284 0.258 0.0
C410 C 0.06199 0.88549 0.33088 0.0
O411 O 0.04122 0.81087 0.38174 0.0
O412 O 0.06855 0.80152 0.34222 0.0
N413 N 0.98109 0.85732 0.26296 0.0
C414 C 0.9532 0.85252 0.27388 0.0
C415 C 0.93335 0.83194 0.26082 0.0
C416 C 0.94231 0.81315 0.23769 0.0
C417 C 0.971 0.81592 0.22632 0.0
C418 C 0.98921 0.84615 0.23692 0.0
H419 H 0.94557 0.86543 0.29212 0.0
O420 O 0.00852 0.79188 0.32656 0.0
O421 O 0.02474 0.8289 0.29684 0.0
O422 O 0.99076 0.84647 0.35193 0.0
O423 O 0.99051 0.88222 0.31784 0.0
C424 C 0.98235 0.79554 0.19746 0.0
C425 C 0.02748 0.82225 0.16991 0.0
H426 H 0.07855 0.86209 0.16755 0.0
H427 H 0.10072 0.88996 0.20934 0.0
H428 H 0.9111 0.82957 0.26985 0.0
H429 H 0.9271 0.79646 0.22893 0.0
H430 H 0.96892 0.77575 0.19233 0.0
H431 H 0.04019 0.81642 0.14997 0.0
Mn432 Mn 0.18299 0.97576 0.66669 0.0
Mn433 Mn 0.13831 0.98875 0.72615 0.0
C434 C 0.2066 0.99745 0.70837 0.0
C435 C 0.21381 0.94332 0.63872 0.0
C436 C 0.13508 0.02145 0.66677 0.0
O437 O 0.14543 0.95004 0.6601 0.0
O438 O 0.12331 0.95232 0.70555 0.0
C439 C 0.12706 0.94167 0.77172 0.0
N440 N 0.13844 0.96922 0.76522 0.0
C441 C 0.15565 0.97142 0.82042 0.0
C442 C 0.1425 0.94374 0.82477 0.0
C443 C 0.12784 0.92961 0.80087 0.0
C444 C 0.14745 0.98782 0.78723 0.0
H445 H 0.11711 0.92833 0.75426 0.0
C446 C 0.12515 0.94229 0.67869 0.0
O447 O 0.19985 0.96549 0.62649 0.0
O448 O 0.20918 0.93921 0.66694 0.0
N449 N 0.15275 0.02403 0.74464 0.0
C450 C 0.15837 0.05122 0.73194 0.0
C451 C 0.17843 0.0716 0.74497 0.0
C452 C 0.19712 0.0632 0.76855 0.0
C453 C 0.19489 0.03464 0.78043 0.0
C454 C 0.16419 0.0167 0.77092 0.0
H455 H 0.14731 0.05791 0.71171 0.0
O456 O 0.21626 1.0003 0.68132 0.0
O457 O 0.18154 0.98124 0.71163 0.0
O458 O 0.15941 0.01457 0.65415 0.0
O459 O 0.12902 0.01063 0.69163 0.0
C460 C 0.21498 0.02451 0.81009 0.0
C461 C 0.18709 0.98174 0.84032 0.0
H462 H 0.14612 0.93169 0.84539 0.0
H463 H 0.11846 0.90759 0.80447 0.0
H464 H 0.18094 0.09362 0.73529 0.0
H465 H 0.21295 0.07901 0.77776 0.0
H466 H 0.23498 0.03786 0.81453 0.0
H467 H 0.19259 0.97007 0.86104 0.0
Mn468 Mn 0.03271 0.18549 0.66487 0.0
Mn469 Mn 0.01783 0.14104 0.72469 0.0
C470 C 0.01117 0.20914 0.70727 0.0
C471 C 0.06645 0.21583 0.63818 0.0
C472 C 0.98698 0.14142 0.6642 0.0
O473 O 0.05755 0.1473 0.65845 0.0
O474 O 0.05447 0.12652 0.7046 0.0
C475 C 0.06248 0.12484 0.77142 0.0
N476 N 0.03559 0.13731 0.76459 0.0
C477 C 0.03399 0.15523 0.81952 0.0
C478 C 0.06093 0.14093 0.82424 0.0
C479 C 0.07437 0.12535 0.80066 0.0
C480 C 0.01743 0.14753 0.78627 0.0
H481 H 0.07552 0.11449 0.75407 0.0
C482 C 0.06446 0.12715 0.67762 0.0
O483 O 0.04413 0.20269 0.62534 0.0
O484 O 0.06992 0.21087 0.66644 0.0
N485 N 0.98246 0.15496 0.74284 0.0
C486 C 0.95552 0.16101 0.72995 0.0
C487 C 0.93544 0.18107 0.7431 0.0
C488 C 0.94416 0.19936 0.76693 0.0
C489 C 0.97256 0.19647 0.77904 0.0
C490 C 0.98942 0.16533 0.76963 0.0
H491 H 0.94894 0.15038 0.70948 0.0
O492 O 0.00874 0.21879 0.68011 0.0
O493 O 0.0271 0.18415 0.71101 0.0
O494 O 0.99369 0.16339 0.64826 0.0
O495 O 0.99947 0.14142 0.68846 0.0
C496 C 0.98327 0.21621 0.80875 0.0
C497 C 0.02481 0.18702 0.83927 0.0
H498 H 0.07303 0.14422 0.84491 0.0
H499 H 0.0959 0.11515 0.80453 0.0
H500 H 0.91356 0.18399 0.7333 0.0
H501 H 0.9287 0.2153 0.77621 0.0
H502 H 0.97061 0.23655 0.81312 0.0
H503 H 0.03655 0.19214 0.86007 0.0
Mn504 Mn 0.82624 0.03479 0.66865 0.0
Mn505 Mn 0.87088 0.01877 0.72729 0.0
C506 C 0.80192 0.01334 0.70941 0.0
C507 C 0.79768 0.06793 0.63968 0.0
C508 C 0.87139 0.98658 0.66788 0.0
O509 O 0.8654 0.05817 0.66202 0.0
O510 O 0.88594 0.0553 0.70802 0.0
C511 C 0.88204 0.06545 0.77344 0.0
N512 N 0.87065 0.03796 0.76656 0.0
C513 C 0.85346 0.03518 0.82175 0.0
C514 C 0.86668 0.06278 0.82641 0.0
C515 C 0.88118 0.07722 0.80268 0.0
C516 C 0.86122 0.01928 0.78824 0.0
H517 H 0.89205 0.07903 0.75624 0.0
C518 C 0.88559 0.06503 0.68112 0.0
O519 O 0.81098 0.0451 0.62812 0.0
O520 O 0.80208 0.07261 0.66794 0.0
N521 N 0.85558 0.98367 0.74521 0.0
C522 C 0.84967 0.95673 0.73224 0.0
C523 C 0.82894 0.93669 0.74463 0.0
C524 C 0.81024 0.94516 0.76808 0.0
C525 C 0.81302 0.97343 0.78052 0.0
C526 C 0.84394 0.99106 0.77135 0.0
H527 H 0.8612 0.94995 0.71246 0.0
O528 O 0.7916 0.01222 0.68246 0.0
O529 O 0.82775 0.02824 0.7131 0.0
O530 O 0.84654 0.99497 0.65747 0.0
O531 O 0.88161 0.99685 0.69192 0.0
C532 C 0.79328 0.98322 0.81042 0.0
C533 C 0.82203 0.02487 0.8415 0.0
H534 H 0.86312 0.0746 0.84713 0.0
H535 H 0.89048 0.09924 0.80651 0.0
H536 H 0.82611 0.91485 0.73467 0.0
H537 H 0.79405 0.92951 0.77685 0.0
H538 H 0.7731 0.97011 0.81459 0.0
H539 H 0.81681 0.0362 0.86243 0.0
Mn540 Mn 0.97337 0.8256 0.66564 0.0
Mn541 Mn 0.98944 0.86956 0.72496 0.0
C542 C 0.99499 0.80134 0.70625 0.0
C543 C 0.94047 0.79585 0.63741 0.0
C544 C 0.02105 0.87259 0.66557 0.0
O545 O 0.94811 0.86325 0.66028 0.0
O546 O 0.95376 0.88696 0.7048 0.0
C547 C 0.94347 0.88139 0.77149 0.0
N548 N 0.97007 0.86873 0.76406 0.0
C549 C 0.9737 0.85208 0.81969 0.0
C550 C 0.94679 0.86625 0.82472 0.0
C551 C 0.93246 0.88115 0.80107 0.0
C552 C 0.98864 0.8586 0.78545 0.0
H553 H 0.93019 0.89213 0.75447 0.0
C554 C 0.94192 0.88416 0.67868 0.0
O555 O 0.96246 0.81009 0.62519 0.0
O556 O 0.93675 0.79956 0.66584 0.0
N557 N 0.02389 0.85254 0.74256 0.0
C558 C 0.05042 0.84591 0.72923 0.0
C559 C 0.07013 0.82488 0.74147 0.0
C560 C 0.06191 0.80679 0.76552 0.0
C561 C 0.03414 0.81034 0.77861 0.0
C562 C 0.01626 0.84077 0.76858 0.0
H563 H 0.05713 0.85684 0.70898 0.0
O564 O 0.99741 0.79184 0.67909 0.0
O565 O 0.97969 0.82681 0.71 0.0
O566 O 0.01211 0.84868 0.65326 0.0
O567 O 0.01186 0.88004 0.69074 0.0
C568 C 0.02545 0.79196 0.80956 0.0
C569 C 0.98477 0.82145 0.84067 0.0
H570 H 0.93555 0.86363 0.84589 0.0
H571 H 0.91114 0.89155 0.80536 0.0
H572 H 0.09153 0.82134 0.73097 0.0
H573 H 0.07734 0.79036 0.77414 0.0
H574 H 0.03855 0.77189 0.8139 0.0
H575 H 0.97416 0.8169 0.86213 0.0
Mn576 Mn 0.34285 0.18484 0.03513 0.0
Mn577 Mn 0.28399 0.14032 0.01894 0.0
C578 C 0.30178 0.20926 0.01475 0.0
C579 C 0.37116 0.21499 0.06835 0.0
C580 C 0.34362 0.13759 0.98771 0.0
O581 O 0.3483 0.14718 0.06021 0.0
O582 O 0.30393 0.12268 0.05501 0.0
C583 C 0.23634 0.1258 0.06299 0.0
N584 N 0.24424 0.13964 0.03706 0.0
C585 C 0.18839 0.155 0.03234 0.0
C586 C 0.18287 0.13954 0.05853 0.0
C587 C 0.20643 0.12475 0.07306 0.0
C588 C 0.22311 0.1497 0.01806 0.0
H589 H 0.25324 0.1151 0.07644 0.0
C590 C 0.33012 0.12607 0.06676 0.0
O591 O 0.38328 0.20087 0.04628 0.0
O592 O 0.34276 0.21067 0.07188 0.0
N593 N 0.26695 0.15812 0.98447 0.0
C594 C 0.28134 0.16698 0.9591 0.0
C595 C 0.26985 0.18948 0.94052 0.0
C596 C 0.24528 0.20661 0.94888 0.0
C597 C 0.23098 0.2008 0.97566 0.0
C598 C 0.24059 0.16923 0.99191 0.0
H599 H 0.30204 0.15694 0.95258 0.0
O600 O 0.32895 0.21871 0.01153 0.0
O601 O 0.29833 0.18329 0.02948 0.0
O602 O 0.35549 0.16197 0.99615 0.0
O603 O 0.31855 0.12997 0.99708 0.0
C604 C 0.19964 0.21841 0.98456 0.0
C605 C 0.1676 0.18612 0.02254 0.0
H606 H 0.16136 0.14125 0.06927 0.0
H607 H 0.20176 0.11343 0.09389 0.0
H608 H 0.28137 0.19489 0.92003 0.0
H609 H 0.23737 0.22425 0.9344 0.0
H610 H 0.19538 0.23912 0.97239 0.0
H611 H 0.14582 0.1898 0.03277 0.0
Mn612 Mn 0.34169 0.82457 0.97412 0.0
Mn613 Mn 0.28494 0.86936 0.98499 0.0
C614 C 0.29964 0.7999 0.99161 0.0
C615 C 0.37165 0.79609 0.94267 0.0
C616 C 0.34129 0.8719 0.01888 0.0
O617 O 0.34895 0.86301 0.94939 0.0
O618 O 0.30274 0.8834 0.94661 0.0
C619 C 0.23635 0.88187 0.94217 0.0
N620 N 0.24427 0.86999 0.96912 0.0
C621 C 0.18883 0.85445 0.97413 0.0
C622 C 0.18317 0.86809 0.94704 0.0
C623 C 0.20658 0.88213 0.93179 0.0
C624 C 0.22326 0.86137 0.98886 0.0
H625 H 0.25316 0.89151 0.92789 0.0
C626 C 0.33018 0.88146 0.93807 0.0
O627 O 0.38276 0.80971 0.96573 0.0
O628 O 0.34356 0.80006 0.93717 0.0
N629 N 0.26865 0.85341 0.02198 0.0
C630 C 0.28335 0.84315 0.04691 0.0
C631 C 0.27027 0.82405 0.06799 0.0
C632 C 0.24433 0.80835 0.06162 0.0
C633 C 0.23063 0.81281 0.03435 0.0
C634 C 0.24074 0.84368 0.01652 0.0
H635 H 0.30594 0.84772 0.05138 0.0
O636 O 0.32646 0.79007 0.99589 0.0
O637 O 0.29708 0.82564 0.97634 0.0
O638 O 0.35013 0.84536 0.01556 0.0
O639 O 0.32402 0.8819 0.99968 0.0
C640 C 0.19971 0.79396 0.02544 0.0
C641 C 0.16844 0.8235 0.98491 0.0
H642 H 0.16175 0.86521 0.93619 0.0
H643 H 0.20201 0.89185 0.91015 0.0
H644 H 0.28243 0.81864 0.08817 0.0
H645 H 0.23598 0.79174 0.07707 0.0
H646 H 0.19527 0.7738 0.0385 0.0
H647 H 0.14695 0.8189 0.97423 0.0
Mn648 Mn 0.18442 0.34258 0.9757 0.0
Mn649 Mn 0.1374 0.28488 0.98984 0.0
C650 C 0.20749 0.30111 0.99684 0.0
C651 C 0.21368 0.37131 0.94256 0.0
C652 C 0.13815 0.34355 0.0234 0.0
O653 O 0.14647 0.35022 0.95139 0.0
O654 O 0.12241 0.30567 0.95335 0.0
C655 C 0.12807 0.23994 0.94166 0.0
N656 N 0.13824 0.24599 0.96975 0.0
C657 C 0.15689 0.1912 0.97088 0.0
C658 C 0.14481 0.1873 0.94271 0.0
C659 C 0.13006 0.21119 0.92882 0.0
C660 C 0.14755 0.22374 0.98789 0.0
H661 H 0.11826 0.2575 0.92841 0.0
C662 C 0.1259 0.33226 0.94298 0.0
O663 O 0.20088 0.383 0.96562 0.0
O664 O 0.209 0.34301 0.93816 0.0
N665 N 0.15136 0.26576 0.02504 0.0
C666 C 0.15577 0.27793 0.0526 0.0
C667 C 0.1757 0.26532 0.0733 0.0
C668 C 0.1947 0.24193 0.06541 0.0
C669 C 0.19277 0.2297 0.03696 0.0
C670 C 0.1629 0.23949 0.01788 0.0
H671 H 0.1436 0.29728 0.05933 0.0
O672 O 0.2182 0.32793 0.99864 0.0
O673 O 0.18159 0.29811 0.98166 0.0
O674 O 0.16338 0.3535 0.01532 0.0
O675 O 0.12708 0.32018 0.01236 0.0
C676 C 0.2136 0.20059 0.02683 0.0
C677 C 0.18801 0.17144 0.98197 0.0
H678 H 0.1493 0.16712 0.93027 0.0
H679 H 0.1216 0.208 0.9064 0.0
H680 H 0.17765 0.2751 0.09529 0.0
H681 H 0.211 0.23371 0.08124 0.0
H682 H 0.23303 0.19595 0.04084 0.0
H683 H 0.19418 0.15114 0.96996 0.0
Mn684 Mn 0.66829 0.18282 0.97532 0.0
Mn685 Mn 0.72556 0.13772 0.98548 0.0
C686 C 0.70985 0.20696 0.99467 0.0
C687 C 0.63873 0.21158 0.94325 0.0
C688 C 0.66908 0.13483 0.01975 0.0
O689 O 0.66082 0.14483 0.95034 0.0
O690 O 0.70696 0.12461 0.94715 0.0
C691 C 0.773 0.12623 0.94126 0.0
N692 N 0.76591 0.13724 0.96875 0.0
C693 C 0.82121 0.15362 0.97234 0.0
C694 C 0.82613 0.1406 0.94486 0.0
C695 C 0.80238 0.12658 0.93002 0.0
C696 C 0.78755 0.14546 0.98817 0.0
H697 H 0.7558 0.11691 0.92716 0.0
C698 C 0.67949 0.12662 0.93876 0.0
O699 O 0.62751 0.19846 0.96652 0.0
O700 O 0.66683 0.20738 0.9382 0.0
N701 N 0.74288 0.15248 0.02233 0.0
C702 C 0.7288 0.16217 0.0477 0.0
C703 C 0.74266 0.18068 0.06885 0.0
C704 C 0.7678 0.19729 0.06157 0.0
C705 C 0.78003 0.194 0.03359 0.0
C706 C 0.77049 0.1626 0.01635 0.0
H707 H 0.70621 0.15759 0.05231 0.0
O708 O 0.68297 0.21681 0.99797 0.0
O709 O 0.71291 0.18178 0.97849 0.0
O710 O 0.65981 0.16126 0.01619 0.0
O711 O 0.68712 0.12479 1.00125 0.0
C712 C 0.8098 0.21404 0.02353 0.0
C713 C 0.8407 0.18549 0.98222 0.0
H714 H 0.84702 0.14423 0.93334 0.0
H715 H 0.80629 0.11755 0.90799 0.0
H716 H 0.73147 0.18521 0.08972 0.0
H717 H 0.77709 0.21321 0.07722 0.0
H718 H 0.81392 0.23439 0.03636 0.0
H719 H 0.86155 0.19092 0.97079 0.0
Mn720 Mn 0.82455 0.66924 0.97335 0.0
Mn721 Mn 0.87049 0.72778 0.98897 0.0
C722 C 0.80132 0.71021 0.9956 0.0
C723 C 0.79535 0.64055 0.93982 0.0
C724 C 0.86996 0.66887 0.02242 0.0
O725 O 0.86314 0.66221 0.94941 0.0
O726 O 0.88474 0.7078 0.95249 0.0
C727 C 0.88108 0.77335 0.94139 0.0
N728 N 0.87002 0.76685 0.96899 0.0
C729 C 0.85223 0.822 0.9707 0.0
C730 C 0.86505 0.82626 0.94296 0.0
C731 C 0.87977 0.8024 0.92904 0.0
C732 C 0.86064 0.78888 0.98719 0.0
H733 H 0.89118 0.75597 0.92818 0.0
C734 C 0.88338 0.6811 0.9422 0.0
O735 O 0.80872 0.62861 0.9625 0.0
O736 O 0.7995 0.669 0.93591 0.0
N737 N 0.85632 0.7467 0.02382 0.0
C738 C 0.85237 0.73515 0.05162 0.0
C739 C 0.83219 0.74793 0.07182 0.0
C740 C 0.81244 0.77044 0.06294 0.0
C741 C 0.81382 0.78182 0.03412 0.0
C742 C 0.84422 0.7725 0.01603 0.0
H743 H 0.86548 0.71661 0.0589 0.0
O744 O 0.79059 0.68335 0.99645 0.0
O745 O 0.82688 0.71375 0.98033 0.0
O746 O 0.84547 0.65811 0.01306 0.0
O747 O 0.88099 0.69251 0.01185 0.0
C748 C 0.79354 0.81132 0.02402 0.0
C749 C 0.82089 0.84179 0.98115 0.0
H750 H 0.86115 0.84674 0.93075 0.0
H751 H 0.88885 0.80594 0.90696 0.0
H752 H 0.83087 0.73921 0.09429 0.0
H753 H 0.79689 0.7797 0.0788 0.0
H754 H 0.77368 0.81557 0.03742 0.0
H755 H 0.81521 0.86247 0.96948 0.0
Mn756 Mn 0.66636 0.82507 0.03335 0.0
Mn757 Mn 0.72358 0.87173 0.01613 0.0
C758 C 0.70785 0.80194 0.01324 0.0
C759 C 0.63827 0.79573 0.0672 0.0
C760 C 0.66414 0.87034 0.98405 0.0
O761 O 0.65963 0.86333 0.05708 0.0
O762 O 0.70343 0.88868 0.05211 0.0
C763 C 0.77029 0.88501 0.06187 0.0
N764 N 0.76312 0.87245 0.03507 0.0
C765 C 0.81888 0.85651 0.032 0.0
C766 C 0.82369 0.87087 0.05893 0.0
C767 C 0.79983 0.88528 0.07314 0.0
C768 C 0.78473 0.86259 0.01659 0.0
H769 H 0.75307 0.89516 0.07521 0.0
C770 C 0.67734 0.88481 0.06364 0.0
O771 O 0.62601 0.80913 0.04469 0.0
O772 O 0.6667 0.80004 0.07077 0.0
N773 N 0.74152 0.85491 0.9817 0.0
C774 C 0.72826 0.84758 0.95527 0.0
C775 C 0.74033 0.82603 0.93605 0.0
C776 C 0.76461 0.80848 0.94453 0.0
C777 C 0.77801 0.81313 0.97214 0.0
C778 C 0.76797 0.84403 0.9892 0.0
H779 H 0.70839 0.85861 0.94826 0.0
O780 O 0.68112 0.791 0.01095 0.0
O781 O 0.71053 0.82835 0.02726 0.0
O782 O 0.65408 0.84563 0.99357 0.0
O783 O 0.68815 0.88122 0.99365 0.0
C784 C 0.80881 0.79487 0.98178 0.0
C785 C 0.83974 0.82565 0.02204 0.0
H786 H 0.8448 0.86845 0.07044 0.0
H787 H 0.80389 0.89556 0.09462 0.0
H788 H 0.7296 0.82181 0.9148 0.0
H789 H 0.77274 0.79126 0.92974 0.0
H790 H 0.81332 0.77446 0.96925 0.0
H791 H 0.86113 0.82147 0.03303 0.0
Mn792 Mn 0.18204 0.66793 0.03446 0.0
Mn793 Mn 0.13647 0.7262 0.0192 0.0
C794 C 0.20532 0.7084 0.01172 0.0
C795 C 0.21189 0.63997 0.06723 0.0
C796 C 0.13501 0.66676 0.98692 0.0
O797 O 0.14472 0.66181 0.06008 0.0
O798 O 0.12018 0.70581 0.05553 0.0
C799 C 0.12682 0.77242 0.06627 0.0
N800 N 0.13788 0.76544 0.03884 0.0
C801 C 0.15632 0.82075 0.03631 0.0
C802 C 0.14337 0.82539 0.0639 0.0
C803 C 0.12839 0.80171 0.07813 0.0
C804 C 0.14786 0.78716 0.02043 0.0
H805 H 0.11647 0.75524 0.07967 0.0
C806 C 0.12369 0.67967 0.0671 0.0
O807 O 0.19743 0.6275 0.04547 0.0
O808 O 0.20848 0.66852 0.07067 0.0
N809 N 0.15197 0.74444 0.9843 0.0
C810 C 0.15734 0.73155 0.95726 0.0
C811 C 0.1779 0.74388 0.93708 0.0
C812 C 0.19689 0.76736 0.94525 0.0
C813 C 0.19468 0.77986 0.97346 0.0
C814 C 0.16426 0.77042 0.99179 0.0
H815 H 0.14558 0.71173 0.9505 0.0
O816 O 0.21526 0.68135 0.00996 0.0
O817 O 0.18009 0.71217 0.02757 0.0
O818 O 0.15941 0.65573 0.99589 0.0
O819 O 0.12551 0.6912 0.99674 0.0
C820 C 0.21477 0.80986 0.98282 0.0
C821 C 0.18767 0.8408 0.02522 0.0
H822 H 0.14724 0.84611 0.07573 0.0
H823 H 0.11919 0.80561 0.10007 0.0
H824 H 0.18036 0.73382 0.91529 0.0
H825 H 0.21297 0.77602 0.92948 0.0
H826 H 0.23472 0.81384 0.96943 0.0
H827 H 0.19346 0.86169 0.03648 0.0
Mn828 Mn 0.82654 0.34269 0.03105 0.0
Mn829 Mn 0.87092 0.28452 0.0145 0.0
C830 C 0.80197 0.30089 0.0128 0.0
C831 C 0.79751 0.37258 0.06231 0.0
C832 C 0.87062 0.34362 0.98066 0.0
O833 O 0.86526 0.34962 0.05448 0.0
O834 O 0.88942 0.30529 0.04956 0.0
C835 C 0.88326 0.23899 0.06173 0.0
N836 N 0.87104 0.24535 0.03454 0.0
C837 C 0.85468 0.18921 0.0331 0.0
C838 C 0.86881 0.18536 0.0603 0.0
C839 C 0.88324 0.20977 0.07389 0.0
C840 C 0.8611 0.22305 0.01662 0.0
H841 H 0.89339 0.25663 0.07472 0.0
C842 C 0.88628 0.33148 0.06113 0.0
O843 O 0.8116 0.38342 0.0396 0.0
O844 O 0.80206 0.34456 0.06843 0.0
N845 N 0.85218 0.26598 0.98122 0.0
C846 C 0.84084 0.28038 0.95697 0.0
C847 C 0.82135 0.26689 0.93656 0.0
C848 C 0.80656 0.24058 0.94372 0.0
C849 C 0.81194 0.22763 0.97126 0.0
C850 C 0.84273 0.23877 0.98838 0.0
H851 H 0.84444 0.30326 0.95431 0.0
O852 O 0.79167 0.32769 0.00959 0.0
O853 O 0.82851 0.29837 0.02652 0.0
O854 O 0.84634 0.35356 0.99083 0.0
O855 O 0.88156 0.31948 0.99016 0.0
C856 C 0.79375 0.19709 0.98159 0.0
C857 C 0.82372 0.16772 0.02325 0.0
H858 H 0.86624 0.16461 0.07243 0.0
H859 H 0.89333 0.20644 0.0956 0.0
H860 H 0.81466 0.27903 0.91677 0.0
H861 H 0.7896 0.23165 0.92894 0.0
H862 H 0.77319 0.19252 0.96927 0.0
H863 H 0.81918 0.14677 0.03496 0.0
Mn864 Mn 0.53447 0.84118 0.6827 0.0
Mn865 Mn 0.52036 0.78301 0.63656 0.0
C866 C 0.51251 0.8003 0.70564 0.0
C867 C 0.56637 0.87006 0.71292 0.0
C868 C 0.48762 0.84188 0.63548 0.0
O869 O 0.56004 0.84802 0.64571 0.0
O870 O 0.55655 0.80392 0.62105 0.0
C871 C 0.56786 0.73774 0.62614 0.0
N872 N 0.54034 0.74415 0.63732 0.0
C873 C 0.53892 0.68926 0.65597 0.0
C874 C 0.56649 0.68497 0.64287 0.0
C875 C 0.58024 0.70875 0.62768 0.0
C876 C 0.52222 0.72214 0.64719 0.0
H877 H 0.58095 0.75516 0.61579 0.0
C878 C 0.56767 0.83021 0.62488 0.0
O879 O 0.54426 0.88157 0.69829 0.0
O880 O 0.57083 0.84166 0.70916 0.0
N881 N 0.4855 0.76421 0.65135 0.0
C882 C 0.45827 0.77663 0.65672 0.0
C883 C 0.4384 0.76412 0.67749 0.0
C884 C 0.4472 0.74113 0.69672 0.0
C885 C 0.47566 0.72928 0.69444 0.0
C886 C 0.49337 0.73847 0.66363 0.0
H887 H 0.45117 0.79617 0.6448 0.0
O888 O 0.5101 0.82731 0.71559 0.0
O889 O 0.5285 0.79677 0.68044 0.0
O890 O 0.49586 0.85289 0.66013 0.0
O891 O 0.49775 0.8176 0.62612 0.0
C892 C 0.48602 0.70001 0.71493 0.0
C893 C 0.52885 0.66974 0.68767 0.0
H894 H 0.57872 0.66456 0.6469 0.0
H895 H 0.60221 0.70523 0.6184 0.0
H896 H 0.41641 0.77368 0.67993 0.0
H897 H 0.43171 0.73229 0.71295 0.0
H898 H 0.47302 0.69592 0.73514 0.0
H899 H 0.54071 0.64926 0.69358 0.0
Mn900 Mn 0.16682 0.53404 0.68288 0.0
Mn901 Mn 0.2241 0.51853 0.63662 0.0
C902 C 0.2084 0.5131 0.70612 0.0
C903 C 0.13863 0.56644 0.71351 0.0
C904 C 0.16431 0.48734 0.63509 0.0
O905 O 0.16043 0.55962 0.64544 0.0
O906 O 0.20452 0.55516 0.62094 0.0
C907 C 0.27117 0.56368 0.62344 0.0
N908 N 0.2638 0.5368 0.63583 0.0
C909 C 0.31922 0.53328 0.65206 0.0
C910 C 0.32442 0.56027 0.63792 0.0
C911 C 0.3008 0.57468 0.62323 0.0
C912 C 0.28523 0.51773 0.64492 0.0
H913 H 0.25405 0.57728 0.61335 0.0
C914 C 0.17842 0.56662 0.62439 0.0
O915 O 0.12651 0.54457 0.69892 0.0
O916 O 0.16704 0.57039 0.70945 0.0
N917 N 0.24134 0.48309 0.65214 0.0
C918 C 0.22704 0.45722 0.66 0.0
C919 C 0.23899 0.43747 0.68123 0.0
C920 C 0.26391 0.44511 0.69836 0.0
C921 C 0.27779 0.4725 0.69377 0.0
C922 C 0.26817 0.48982 0.66277 0.0
H923 H 0.20613 0.45111 0.65002 0.0
O924 O 0.18148 0.51005 0.7162 0.0
O925 O 0.21126 0.52817 0.6803 0.0
O926 O 0.15394 0.49507 0.6602 0.0
O927 O 0.18879 0.49726 0.6262 0.0
C928 C 0.30822 0.4822 0.71285 0.0
C929 C 0.33937 0.52316 0.68341 0.0
H930 H 0.34561 0.57162 0.64069 0.0
H931 H 0.30508 0.59617 0.61299 0.0
H932 H 0.22746 0.41669 0.68585 0.0
H933 H 0.27175 0.43016 0.71565 0.0
H934 H 0.3123 0.46965 0.73335 0.0
H935 H 0.36057 0.53433 0.68831 0.0
Mn936 Mn 0.47601 0.16763 0.68426 0.0
Mn937 Mn 0.49595 0.22666 0.64011 0.0
C938 C 0.49923 0.20808 0.70878 0.0
C939 C 0.44209 0.13972 0.71339 0.0
C940 C 0.52818 0.16742 0.64163 0.0
O941 O 0.45124 0.16144 0.64588 0.0
O942 O 0.46201 0.20474 0.62277 0.0
C943 C 0.44476 0.26792 0.63048 0.0
N944 N 0.47329 0.26398 0.64051 0.0
C945 C 0.47005 0.31836 0.65991 0.0
C946 C 0.44188 0.32034 0.64748 0.0
C947 C 0.42987 0.2956 0.63247 0.0
C948 C 0.48963 0.28734 0.65048 0.0
H949 H 0.43257 0.24948 0.62092 0.0
C950 C 0.44748 0.18011 0.62464 0.0
O951 O 0.46424 0.12749 0.69963 0.0
O952 O 0.43856 0.16821 0.70925 0.0
N953 N 0.52928 0.24763 0.6558 0.0
C954 C 0.5575 0.23726 0.66048 0.0
C955 C 0.57758 0.25192 0.67973 0.0
C956 C 0.56835 0.27538 0.69806 0.0
C957 C 0.53923 0.28577 0.69573 0.0
C958 C 0.52084 0.27406 0.66602 0.0
H959 H 0.56516 0.21772 0.64908 0.0
O960 O 0.49954 0.18097 0.71876 0.0
O961 O 0.48489 0.21205 0.68276 0.0
O962 O 0.51498 0.15482 0.66325 0.0
O963 O 0.521 0.19278 0.63202 0.0
C964 C 0.52681 0.31411 0.7164 0.0
C965 C 0.47955 0.33901 0.69099 0.0
H966 H 0.42803 0.33957 0.65192 0.0
H967 H 0.40731 0.29711 0.62392 0.0
H968 H 0.60009 0.24353 0.68194 0.0
H969 H 0.5836 0.28496 0.71421 0.0
H970 H 0.54025 0.31989 0.73597 0.0
H971 H 0.46585 0.35817 0.69721 0.0
Mn972 Mn 0.84354 0.47492 0.68396 0.0
Mn973 Mn 0.7847 0.49187 0.64164 0.0
C974 C 0.80173 0.49064 0.7102 0.0
C975 C 0.87324 0.44137 0.71138 0.0
C976 C 0.84201 0.52682 0.63984 0.0
O977 O 0.84955 0.45267 0.64451 0.0
O978 O 0.80447 0.4575 0.62148 0.0
C979 C 0.73813 0.44694 0.62658 0.0
N980 N 0.74526 0.47322 0.64033 0.0
C981 C 0.6889 0.4769 0.65361 0.0
C982 C 0.68422 0.45056 0.63815 0.0
C983 C 0.70844 0.4363 0.6245 0.0
C984 C 0.72362 0.49203 0.6496 0.0
H985 H 0.7555 0.43358 0.61672 0.0
C986 C 0.83097 0.4464 0.62363 0.0
O987 O 0.88466 0.46469 0.69851 0.0
O988 O 0.84502 0.43665 0.70719 0.0
N989 N 0.76802 0.52466 0.66273 0.0
C990 C 0.78376 0.54588 0.67826 0.0
C991 C 0.77004 0.56711 0.69647 0.0
C992 C 0.74226 0.56121 0.70857 0.0
C993 C 0.72839 0.53454 0.70121 0.0
C994 C 0.73995 0.51861 0.67009 0.0
H995 H 0.80754 0.54673 0.67773 0.0
O996 O 0.82865 0.4948 0.72004 0.0
O997 O 0.79927 0.47826 0.68308 0.0
O998 O 0.85325 0.51677 0.66401 0.0
O999 O 0.81853 0.51567 0.6296 0.0
C1000 C 0.69685 0.52471 0.71733 0.0
C1001 C 0.66684 0.48606 0.68389 0.0
H1002 H 0.66277 0.43942 0.63918 0.0
H1003 H 0.70444 0.41523 0.61331 0.0
H1004 H 0.78298 0.58565 0.70511 0.0
H1005 H 0.73303 0.57581 0.72538 0.0
H1006 H 0.6919 0.53634 0.73812 0.0
H1007 H 0.64516 0.47516 0.6868 0.0
Mn1008 Mn 0.53627 0.16658 0.32495 0.0
Mn1009 Mn 0.51794 0.22488 0.36886 0.0
C1010 C 0.51557 0.20774 0.29994 0.0
C1011 C 0.57024 0.13847 0.29606 0.0
C1012 C 0.48678 0.16506 0.37007 0.0
O1013 O 0.56006 0.16083 0.36407 0.0
O1014 O 0.55371 0.20586 0.38617 0.0
C1015 C 0.5625 0.27187 0.38438 0.0
N1016 N 0.53639 0.26441 0.37045 0.0
C1017 C 0.53254 0.32038 0.35594 0.0
C1018 C 0.55878 0.32555 0.37144 0.0
C1019 C 0.57303 0.30166 0.38587 0.0
C1020 C 0.5176 0.28575 0.3608 0.0
H1021 H 0.57583 0.25474 0.39481 0.0
C1022 C 0.56535 0.1797 0.38498 0.0
O1023 O 0.54785 0.12612 0.30953 0.0
O1024 O 0.57383 0.16693 0.30024 0.0
N1025 N 0.48365 0.24198 0.35111 0.0
C1026 C 0.45827 0.22779 0.34174 0.0
C1027 C 0.43978 0.23995 0.31954 0.0
C1028 C 0.44848 0.26491 0.30297 0.0
C1029 C 0.47541 0.27892 0.30927 0.0
C1030 C 0.49126 0.26868 0.34082 0.0
H1031 H 0.45165 0.20682 0.35119 0.0
O1032 O 0.51365 0.1806 0.29011 0.0
O1033 O 0.52959 0.21114 0.32625 0.0
O1034 O 0.49641 0.15384 0.34597 0.0
O1035 O 0.49574 0.18997 0.37892 0.0
C1036 C 0.485 0.3104 0.29214 0.0
C1037 C 0.52337 0.34155 0.32506 0.0
H1038 H 0.56983 0.34703 0.36992 0.0
H1039 H 0.59398 0.30597 0.39717 0.0
H1040 H 0.41919 0.22861 0.31379 0.0
H1041 H 0.43419 0.27333 0.28541 0.0
H1042 H 0.47316 0.31506 0.27133 0.0
H1043 H 0.53409 0.36328 0.32168 0.0
Mn1044 Mn 0.83838 0.53396 0.32554 0.0
Mn1045 Mn 0.78026 0.52003 0.37355 0.0
C1046 C 0.79729 0.51036 0.30382 0.0
C1047 C 0.86687 0.56695 0.29533 0.0
C1048 C 0.83918 0.48657 0.37254 0.0
O1049 O 0.84629 0.55948 0.36211 0.0
O1050 O 0.80299 0.55591 0.38773 0.0
C1051 C 0.73828 0.57052 0.38267 0.0
N1052 N 0.74226 0.54181 0.37324 0.0
C1053 C 0.68885 0.54498 0.35214 0.0
C1054 C 0.68667 0.57351 0.3636 0.0
C1055 C 0.71079 0.58553 0.37958 0.0
C1056 C 0.71858 0.52493 0.36447 0.0
H1057 H 0.75661 0.58266 0.39263 0.0
C1058 C 0.82908 0.56709 0.38328 0.0
O1059 O 0.87865 0.5443 0.30885 0.0
O1060 O 0.83844 0.5708 0.29933 0.0
N1061 N 0.7587 0.48525 0.36164 0.0
C1062 C 0.7696 0.45702 0.35809 0.0
C1063 C 0.75467 0.43586 0.34026 0.0
C1064 C 0.73137 0.4443 0.32113 0.0
C1065 C 0.72151 0.4736 0.32135 0.0
C1066 C 0.73181 0.49267 0.35123 0.0
H1067 H 0.78987 0.45023 0.36906 0.0
O1068 O 0.82409 0.50923 0.29323 0.0
O1069 O 0.79368 0.52678 0.32887 0.0
O1070 O 0.85033 0.49568 0.34824 0.0
O1071 O 0.81482 0.49625 0.38246 0.0
C1072 C 0.69493 0.48612 0.29809 0.0
C1073 C 0.67028 0.5353 0.31981 0.0
H1074 H 0.66789 0.5875 0.35778 0.0
H1075 H 0.70912 0.60823 0.38766 0.0
H1076 H 0.76299 0.41321 0.33934 0.0
H1077 H 0.72124 0.42815 0.30629 0.0
H1078 H 0.6899 0.47218 0.27864 0.0
H1079 H 0.65227 0.54951 0.31157 0.0
Mn1080 Mn 0.47392 0.84473 0.32609 0.0
Mn1081 Mn 0.49368 0.78645 0.36942 0.0
C1082 C 0.49266 0.80423 0.30002 0.0
C1083 C 0.4397 0.87324 0.2983 0.0
C1084 C 0.5266 0.84577 0.36877 0.0
O1085 O 0.45103 0.85016 0.36492 0.0
O1086 O 0.45931 0.80669 0.38979 0.0
C1087 C 0.44903 0.73972 0.38699 0.0
N1088 N 0.47482 0.74674 0.37241 0.0
C1089 C 0.47804 0.68965 0.35961 0.0
C1090 C 0.45235 0.68532 0.37617 0.0
C1091 C 0.43849 0.70995 0.38972 0.0
C1092 C 0.49296 0.72488 0.36236 0.0
H1093 H 0.43594 0.75726 0.39694 0.0
C1094 C 0.44607 0.83207 0.38643 0.0
O1095 O 0.4627 0.88522 0.31117 0.0
O1096 O 0.43561 0.84485 0.30265 0.0
N1097 N 0.52571 0.76862 0.34859 0.0
C1098 C 0.54814 0.78369 0.3345 0.0
C1099 C 0.56341 0.77231 0.30981 0.0
C1100 C 0.55407 0.74637 0.29567 0.0
C1101 C 0.53024 0.73061 0.30723 0.0
C1102 C 0.51738 0.74154 0.33983 0.0
H1103 H 0.55303 0.80595 0.34023 0.0
O1104 O 0.49512 0.83155 0.29089 0.0
O1105 O 0.47985 0.80025 0.327 0.0
O1106 O 0.51448 0.85707 0.3458 0.0
O1107 O 0.51837 0.82089 0.37876 0.0
C1108 C 0.52019 0.69865 0.29225 0.0
C1109 C 0.48524 0.66748 0.32841 0.0
H1110 H 0.44109 0.66389 0.37582 0.0
H1111 H 0.41773 0.70618 0.40145 0.0
H1112 H 0.58125 0.78531 0.29997 0.0
H1113 H 0.56531 0.73872 0.27577 0.0
H1114 H 0.5299 0.69415 0.27043 0.0
H1115 H 0.47443 0.64569 0.32598 0.0
Mn1116 Mn 0.16571 0.47595 0.32487 0.0
Mn1117 Mn 0.22525 0.48778 0.36815 0.0
C1118 C 0.20713 0.49456 0.29974 0.0
C1119 C 0.13551 0.44346 0.2961 0.0
C1120 C 0.16866 0.52365 0.37193 0.0
O1121 O 0.15873 0.452 0.3632 0.0
O1122 O 0.20452 0.45171 0.38492 0.0
C1123 C 0.27008 0.44048 0.3792 0.0
N1124 N 0.26407 0.46798 0.36748 0.0
C1125 C 0.31971 0.46926 0.3516 0.0
C1126 C 0.3234 0.44173 0.36507 0.0
C1127 C 0.29902 0.42808 0.3792 0.0
C1128 C 0.28653 0.48629 0.3588 0.0
H1129 H 0.25236 0.42738 0.38896 0.0
C1130 C 0.17721 0.44263 0.38284 0.0
O1131 O 0.12464 0.46662 0.30963 0.0
O1132 O 0.16367 0.43855 0.30027 0.0
N1133 N 0.24368 0.52225 0.35044 0.0
C1134 C 0.22939 0.54641 0.3382 0.0
C1135 C 0.24427 0.56812 0.32134 0.0
C1136 C 0.27039 0.56099 0.30651 0.0
C1137 C 0.28236 0.53294 0.31074 0.0
C1138 C 0.27118 0.51543 0.34137 0.0
H1139 H 0.20588 0.54918 0.33993 0.0
O1140 O 0.18012 0.49815 0.29017 0.0
O1141 O 0.21012 0.47926 0.32541 0.0
O1142 O 0.15751 0.51658 0.34675 0.0
O1143 O 0.19094 0.51 0.38182 0.0
C1144 C 0.31235 0.52229 0.292 0.0
C1145 C 0.34069 0.47911 0.32072 0.0
H1146 H 0.34392 0.42945 0.36211 0.0
H1147 H 0.3021 0.40613 0.38886 0.0
H1148 H 0.23293 0.58868 0.31569 0.0
H1149 H 0.2802 0.57646 0.29076 0.0
H1150 H 0.31733 0.53513 0.27184 0.0
H1151 H 0.36119 0.46695 0.31576 0.0
Mn1152 Mn 0.6833 0.535 0.83954 0.0
Mn1153 Mn 0.63587 0.51803 0.78215 0.0
C1154 C 0.70549 0.51031 0.79928 0.0
C1155 C 0.71368 0.56863 0.86711 0.0
C1156 C 0.63762 0.4861 0.84185 0.0
O1157 O 0.64535 0.55992 0.84646 0.0
O1158 O 0.62221 0.55456 0.80208 0.0
C1159 C 0.62607 0.5664 0.73718 0.0
N1160 N 0.63589 0.53816 0.74312 0.0
C1161 C 0.65499 0.53747 0.68861 0.0
C1162 C 0.64314 0.5657 0.68473 0.0
C1163 C 0.62831 0.57946 0.70854 0.0
C1164 C 0.64483 0.52003 0.72081 0.0
H1165 H 0.61642 0.57969 0.75473 0.0
C1166 C 0.62413 0.56571 0.82827 0.0
O1167 O 0.69924 0.54698 0.87971 0.0
O1168 O 0.70983 0.57161 0.83852 0.0
N1169 N 0.64848 0.48284 0.76295 0.0
C1170 C 0.65205 0.455 0.77462 0.0
C1171 C 0.67171 0.43438 0.76172 0.0
C1172 C 0.6916 0.44305 0.73926 0.0
C1173 C 0.69072 0.47201 0.72822 0.0
C1174 C 0.6602 0.49023 0.73693 0.0
H1175 H 0.63912 0.44808 0.79343 0.0
O1176 O 0.71638 0.51045 0.82604 0.0
O1177 O 0.68022 0.52612 0.79527 0.0
O1178 O 0.66177 0.49638 0.85238 0.0
O1179 O 0.62643 0.49532 0.81775 0.0
C1180 C 0.71236 0.48282 0.70001 0.0
C1181 C 0.68708 0.52721 0.66999 0.0
H1182 H 0.6481 0.57839 0.66478 0.0
H1183 H 0.62016 0.60198 0.70545 0.0
H1184 H 0.67275 0.41189 0.7705 0.0
H1185 H 0.70705 0.42707 0.73003 0.0
H1186 H 0.73226 0.46935 0.6962 0.0
H1187 H 0.69391 0.53955 0.65007 0.0
Mn1188 Mn 0.47788 0.68627 0.84545 0.0
Mn1189 Mn 0.49322 0.64254 0.7857 0.0
C1190 C 0.49673 0.71069 0.80201 0.0
C1191 C 0.44452 0.71557 0.87291 0.0
C1192 C 0.52414 0.64324 0.84595 0.0
O1193 O 0.45325 0.6478 0.85227 0.0
O1194 O 0.4573 0.62677 0.8062 0.0
C1195 C 0.44941 0.62465 0.73838 0.0
N1196 N 0.47562 0.63835 0.74569 0.0
C1197 C 0.47812 0.65456 0.69007 0.0
C1198 C 0.45155 0.6395 0.68522 0.0
C1199 C 0.43796 0.62426 0.70895 0.0
C1200 C 0.49381 0.64885 0.72417 0.0
H1201 H 0.43682 0.61359 0.75532 0.0
C1202 C 0.44581 0.62827 0.83265 0.0
O1203 O 0.46738 0.7031 0.88521 0.0
O1204 O 0.44033 0.71064 0.84474 0.0
N1205 N 0.52805 0.65839 0.76776 0.0
C1206 C 0.5544 0.66609 0.78114 0.0
C1207 C 0.57393 0.68703 0.7683 0.0
C1208 C 0.5656 0.70392 0.74342 0.0
C1209 C 0.538 0.69891 0.73007 0.0
C1210 C 0.52112 0.668 0.74068 0.0
H1211 H 0.56093 0.65624 0.80199 0.0
O1212 O 0.50049 0.72037 0.82903 0.0
O1213 O 0.48197 0.68489 0.79916 0.0
O1214 O 0.51752 0.66519 0.86177 0.0
O1215 O 0.51149 0.64327 0.82181 0.0
C1216 C 0.52805 0.71677 0.69906 0.0
C1217 C 0.48772 0.68536 0.66891 0.0
H1218 H 0.43993 0.64174 0.66414 0.0
H1219 H 0.41681 0.61319 0.70493 0.0
H1220 H 0.5951 0.69161 0.77905 0.0
H1221 H 0.58045 0.721 0.73488 0.0
H1222 H 0.54045 0.73725 0.69417 0.0
H1223 H 0.47657 0.68921 0.64753 0.0
Mn1224 Mn 0.32704 0.47359 0.84082 0.0
Mn1225 Mn 0.36897 0.48759 0.78124 0.0
C1226 C 0.30106 0.49395 0.79996 0.0
C1227 C 0.29768 0.44094 0.8703 0.0
C1228 C 0.37398 0.52141 0.83916 0.0
O1229 O 0.36636 0.4494 0.84639 0.0
O1230 O 0.38443 0.45095 0.79949 0.0
C1231 C 0.37929 0.44141 0.73512 0.0
N1232 N 0.36813 0.46896 0.74192 0.0
C1233 C 0.35214 0.47192 0.68653 0.0
C1234 C 0.365 0.44429 0.68196 0.0
C1235 C 0.3789 0.42974 0.70588 0.0
C1236 C 0.35983 0.48802 0.72014 0.0
H1237 H 0.38884 0.42758 0.75235 0.0
C1238 C 0.38558 0.44187 0.82653 0.0
O1239 O 0.31226 0.46322 0.88187 0.0
O1240 O 0.30177 0.43647 0.84206 0.0
N1241 N 0.35214 0.52284 0.76422 0.0
C1242 C 0.3406 0.54686 0.77916 0.0
C1243 C 0.32401 0.56905 0.76482 0.0
C1244 C 0.30876 0.56247 0.73864 0.0
C1245 C 0.31209 0.53442 0.72631 0.0
C1246 C 0.34274 0.51669 0.7366 0.0
H1247 H 0.34258 0.54906 0.80273 0.0
O1248 O 0.29197 0.49639 0.8272 0.0
O1249 O 0.32651 0.47867 0.79635 0.0
O1250 O 0.3489 0.51412 0.85022 0.0
O1251 O 0.38358 0.50794 0.81667 0.0
C1252 C 0.29281 0.5245 0.6963 0.0
C1253 C 0.32108 0.48229 0.66626 0.0
H1254 H 0.36154 0.43257 0.66113 0.0
H1255 H 0.388 0.40769 0.7022 0.0
H1256 H 0.31893 0.58954 0.77652 0.0
H1257 H 0.29341 0.5784 0.72901 0.0
H1258 H 0.27263 0.53745 0.69199 0.0
H1259 H 0.31583 0.47071 0.64542 0.0
Mn1260 Mn 0.53486 0.3255 0.84593 0.0
Mn1261 Mn 0.51776 0.36924 0.78721 0.0
C1262 C 0.5162 0.30024 0.80311 0.0
C1263 C 0.56861 0.29564 0.8731 0.0
C1264 C 0.4893 0.36667 0.84619 0.0
O1265 O 0.55987 0.36384 0.85107 0.0
O1266 O 0.55444 0.38709 0.80591 0.0
C1267 C 0.55627 0.39262 0.73808 0.0
N1268 N 0.53151 0.37683 0.74627 0.0
C1269 C 0.52828 0.3598 0.69086 0.0
C1270 C 0.55284 0.37764 0.68489 0.0
C1271 C 0.56607 0.39416 0.70811 0.0
C1272 C 0.51365 0.36415 0.72563 0.0
H1273 H 0.56929 0.40406 0.75489 0.0
C1274 C 0.56653 0.38432 0.83207 0.0
O1275 O 0.54655 0.30914 0.88561 0.0
O1276 O 0.57202 0.30047 0.84483 0.0
N1277 N 0.48286 0.35125 0.77087 0.0
C1278 C 0.45866 0.33996 0.78565 0.0
C1279 C 0.44143 0.31644 0.77403 0.0
C1280 C 0.45043 0.30057 0.7489 0.0
C1281 C 0.47602 0.30923 0.73395 0.0
C1282 C 0.48955 0.34215 0.74354 0.0
H1283 H 0.45215 0.34842 0.80688 0.0
O1284 O 0.51201 0.29165 0.83046 0.0
O1285 O 0.53066 0.32631 0.79914 0.0
O1286 O 0.49489 0.34639 0.86418 0.0
O1287 O 0.5054 0.36286 0.82476 0.0
C1288 C 0.48614 0.29248 0.7026 0.0
C1289 C 0.52112 0.32772 0.67035 0.0
H1290 H 0.56363 0.37652 0.66336 0.0
H1291 H 0.58596 0.40703 0.70322 0.0
H1292 H 0.42186 0.30901 0.78606 0.0
H1293 H 0.43743 0.28169 0.74113 0.0
H1294 H 0.4757 0.2708 0.69838 0.0
H1295 H 0.53157 0.32476 0.64855 0.0
Mn1296 Mn 0.68616 0.47572 0.16077 0.0
Mn1297 Mn 0.65627 0.48479 0.22716 0.0
C1298 C 0.7169 0.49152 0.19974 0.0
C1299 C 0.71112 0.44325 0.12847 0.0
C1300 C 0.63799 0.52182 0.17481 0.0
O1301 O 0.64752 0.45114 0.16068 0.0
O1302 O 0.63706 0.44751 0.21034 0.0
C1303 C 0.61157 0.46414 0.27101 0.0
N1304 N 0.63037 0.48666 0.26266 0.0
C1305 C 0.64722 0.48779 0.31936 0.0
C1306 C 0.62595 0.46595 0.32484 0.0
C1307 C 0.60811 0.45512 0.30119 0.0
C1308 C 0.64618 0.50192 0.2839 0.0
H1309 H 0.60014 0.45136 0.25397 0.0
C1310 C 0.63275 0.4401 0.18261 0.0
O1311 O 0.69607 0.46588 0.11816 0.0
O1312 O 0.7101 0.43892 0.15689 0.0
N1313 N 0.67144 0.52241 0.23849 0.0
C1314 C 0.68561 0.54377 0.2219 0.0
C1315 C 0.70364 0.56571 0.23537 0.0
C1316 C 0.71437 0.56094 0.26421 0.0
C1317 C 0.70376 0.53632 0.27969 0.0
C1318 C 0.67187 0.52342 0.2675 0.0
H1319 H 0.68633 0.54214 0.19818 0.0
O1320 O 0.72487 0.49734 0.17255 0.0
O1321 O 0.69037 0.47969 0.20163 0.0
O1322 O 0.66072 0.51471 0.15877 0.0
O1323 O 0.63108 0.50828 0.19918 0.0
C1324 C 0.71715 0.52649 0.31218 0.0
C1325 C 0.67834 0.49394 0.34263 0.0
H1326 H 0.62471 0.45549 0.34658 0.0
H1327 H 0.59274 0.43702 0.30592 0.0
H1328 H 0.7135 0.58318 0.2219 0.0
H1329 H 0.73173 0.57505 0.27345 0.0
H1330 H 0.73892 0.5361 0.31742 0.0
H1331 H 0.67928 0.4841 0.36492 0.0
Mn1332 Mn 0.53364 0.68384 0.16829 0.0
Mn1333 Mn 0.51451 0.63891 0.2276 0.0
C1334 C 0.51142 0.70909 0.20839 0.0
C1335 C 0.56811 0.71262 0.13991 0.0
C1336 C 0.48391 0.63912 0.16738 0.0
O1337 O 0.55765 0.6453 0.16323 0.0
O1338 O 0.54959 0.62175 0.20723 0.0
C1339 C 0.56314 0.62778 0.27123 0.0
N1340 N 0.53489 0.63807 0.26617 0.0
C1341 C 0.5363 0.65712 0.32012 0.0
C1342 C 0.56425 0.64463 0.32352 0.0
C1343 C 0.57692 0.6293 0.29953 0.0
C1344 C 0.51719 0.64645 0.2891 0.0
H1345 H 0.57591 0.61829 0.25326 0.0
C1346 C 0.56218 0.62403 0.18174 0.0
O1347 O 0.54583 0.69877 0.12776 0.0
O1348 O 0.57127 0.70911 0.1685 0.0
N1349 N 0.47964 0.65305 0.24692 0.0
C1350 C 0.45242 0.65887 0.23426 0.0
C1351 C 0.43103 0.6766 0.24871 0.0
C1352 C 0.4385 0.69344 0.2739 0.0
C1353 C 0.46715 0.69107 0.28549 0.0
C1354 C 0.4858 0.66123 0.27479 0.0
H1355 H 0.44654 0.65007 0.21273 0.0
O1356 O 0.51068 0.71838 0.18104 0.0
O1357 O 0.52518 0.68265 0.21308 0.0
O1358 O 0.49467 0.66213 0.15486 0.0
O1359 O 0.49193 0.63115 0.19286 0.0
C1360 C 0.4795 0.71298 0.31304 0.0
C1361 C 0.52674 0.68897 0.33921 0.0
H1362 H 0.57745 0.64925 0.34325 0.0
H1363 H 0.59924 0.62048 0.30207 0.0
H1364 H 0.40936 0.67963 0.23847 0.0
H1365 H 0.42293 0.7095 0.28285 0.0
H1366 H 0.46558 0.73216 0.31846 0.0
H1367 H 0.54012 0.69577 0.3585 0.0
Mn1368 Mn 0.32421 0.53425 0.16434 0.0
Mn1369 Mn 0.36883 0.5175 0.22342 0.0
C1370 C 0.30016 0.51349 0.2072 0.0
C1371 C 0.294 0.56838 0.1377 0.0
C1372 C 0.36647 0.48909 0.16375 0.0
O1373 O 0.36222 0.55993 0.15932 0.0
O1374 O 0.3849 0.5548 0.20473 0.0
C1375 C 0.38843 0.55863 0.27202 0.0
N1376 N 0.37519 0.53225 0.26426 0.0
C1377 C 0.35663 0.52961 0.31906 0.0
C1378 C 0.37198 0.55591 0.32468 0.0
C1379 C 0.38817 0.56961 0.3016 0.0
C1380 C 0.36368 0.51387 0.28519 0.0
H1381 H 0.39908 0.57212 0.25511 0.0
C1382 C 0.3827 0.5665 0.1784 0.0
O1383 O 0.30771 0.54677 0.12462 0.0
O1384 O 0.29827 0.57095 0.16615 0.0
N1385 N 0.35349 0.48143 0.24 0.0
C1386 C 0.34498 0.45585 0.22559 0.0
C1387 C 0.32436 0.43573 0.238 0.0
C1388 C 0.30783 0.44318 0.26318 0.0
C1389 C 0.31314 0.47033 0.27712 0.0
C1390 C 0.34466 0.48685 0.2677 0.0
H1391 H 0.35357 0.45028 0.20418 0.0
O1392 O 0.29086 0.51029 0.1799 0.0
O1393 O 0.32569 0.52873 0.21098 0.0
O1394 O 0.3461 0.49495 0.14581 0.0
O1395 O 0.36279 0.50442 0.18581 0.0
C1396 C 0.29421 0.48047 0.30729 0.0
C1397 C 0.32464 0.52039 0.33876 0.0
H1398 H 0.36911 0.5674 0.3457 0.0
H1399 H 0.39907 0.59075 0.30614 0.0
H1400 H 0.31933 0.41513 0.22638 0.0
H1401 H 0.29044 0.42836 0.27112 0.0
H1402 H 0.2734 0.46834 0.31124 0.0
H1403 H 0.31993 0.53159 0.35988 0.0
Mn1404 Mn 0.47599 0.32878 0.16806 0.0
Mn1405 Mn 0.49183 0.37302 0.22698 0.0
C1406 C 0.49696 0.30356 0.20907 0.0
C1407 C 0.44202 0.30009 0.13918 0.0
C1408 C 0.52544 0.37368 0.16858 0.0
O1409 O 0.45284 0.36836 0.16113 0.0
O1410 O 0.45575 0.38777 0.20729 0.0
C1411 C 0.44354 0.38261 0.27133 0.0
N1412 N 0.47147 0.37205 0.26541 0.0
C1413 C 0.47196 0.35292 0.31976 0.0
C1414 C 0.444 0.36526 0.32365 0.0
C1415 C 0.43049 0.38049 0.29988 0.0
C1416 C 0.4894 0.36254 0.28758 0.0
H1417 H 0.43051 0.39289 0.25387 0.0
C1418 C 0.44607 0.38825 0.18049 0.0
O1419 O 0.46497 0.31331 0.12749 0.0
O1420 O 0.43791 0.30467 0.16744 0.0
N1421 N 0.52678 0.35864 0.2458 0.0
C1422 C 0.55422 0.35385 0.23366 0.0
C1423 C 0.57444 0.33344 0.24617 0.0
C1424 C 0.56607 0.31437 0.26939 0.0
C1425 C 0.53765 0.31669 0.28147 0.0
C1426 C 0.51926 0.34698 0.27188 0.0
H1427 H 0.56124 0.36608 0.21445 0.0
O1428 O 0.498 0.29369 0.182 0.0
O1429 O 0.48259 0.32965 0.21269 0.0
O1430 O 0.51647 0.34914 0.15754 0.0
O1431 O 0.5145 0.38397 0.19218 0.0
C1432 C 0.5269 0.29566 0.31018 0.0
C1433 C 0.48228 0.3214 0.33913 0.0
H1434 H 0.43138 0.36061 0.34368 0.0
H1435 H 0.40822 0.38921 0.30298 0.0
H1436 H 0.59638 0.33117 0.23641 0.0
H1437 H 0.58147 0.29766 0.27754 0.0
H1438 H 0.54038 0.27586 0.31463 0.0
H1439 H 0.46996 0.31503 0.35918 0.0
Mn1440 Mn 0.84269 0.68531 0.53034 0.0
Mn1441 Mn 0.78498 0.6387 0.51395 0.0
C1442 C 0.80099 0.70845 0.50969 0.0
C1443 C 0.87039 0.71406 0.56447 0.0
C1444 C 0.84386 0.64103 0.48077 0.0
O1445 O 0.85105 0.64681 0.55351 0.0
O1446 O 0.80672 0.62267 0.54936 0.0
C1447 C 0.74069 0.6268 0.56231 0.0
N1448 N 0.74637 0.63843 0.53476 0.0
C1449 C 0.6911 0.65616 0.53486 0.0
C1450 C 0.68779 0.64282 0.56252 0.0
C1451 C 0.71209 0.6279 0.57553 0.0
C1452 C 0.72379 0.64842 0.51738 0.0
H1453 H 0.7584 0.61634 0.57474 0.0
C1454 C 0.83329 0.62553 0.56018 0.0
O1455 O 0.88278 0.70139 0.5417 0.0
O1456 O 0.842 0.70955 0.56796 0.0
N1457 N 0.76507 0.65432 0.47999 0.0
C1458 C 0.7767 0.66014 0.45253 0.0
C1459 C 0.76365 0.68097 0.43306 0.0
C1460 C 0.7403 0.69942 0.44222 0.0
C1461 C 0.72856 0.6961 0.47072 0.0
C1462 C 0.73902 0.66554 0.48825 0.0
H1463 H 0.79599 0.64844 0.44501 0.0
O1464 O 0.82767 0.71949 0.50804 0.0
O1465 O 0.79836 0.68216 0.52399 0.0
O1466 O 0.85444 0.6653 0.49073 0.0
O1467 O 0.81983 0.62994 0.4902 0.0
C1468 C 0.69906 0.71575 0.48182 0.0
C1469 C 0.67051 0.68734 0.52526 0.0
H1470 H 0.66769 0.64637 0.57533 0.0
H1471 H 0.70927 0.61838 0.59755 0.0
H1472 H 0.773 0.68401 0.41104 0.0
H1473 H 0.73162 0.71628 0.42726 0.0
H1474 H 0.69406 0.73579 0.46883 0.0
H1475 H 0.65014 0.69252 0.53756 0.0
Mn1476 Mn 0.84069 0.3266 0.47616 0.0
Mn1477 Mn 0.78273 0.37252 0.48983 0.0
C1478 C 0.79958 0.30338 0.49741 0.0
C1479 C 0.86988 0.29612 0.44531 0.0
C1480 C 0.84188 0.37431 0.52224 0.0
O1481 O 0.84747 0.36392 0.45053 0.0
O1482 O 0.80294 0.38776 0.45348 0.0
C1483 C 0.73653 0.38286 0.44291 0.0
N1484 N 0.74346 0.37176 0.47042 0.0
C1485 C 0.68813 0.35431 0.47328 0.0
C1486 C 0.68345 0.36728 0.44562 0.0
C1487 C 0.70722 0.38178 0.43115 0.0
C1488 C 0.72177 0.36233 0.48906 0.0
H1489 H 0.75379 0.39283 0.42936 0.0
C1490 C 0.82939 0.3846 0.44284 0.0
O1491 O 0.88127 0.31111 0.46727 0.0
O1492 O 0.84159 0.29996 0.44025 0.0
N1493 N 0.76467 0.35752 0.52492 0.0
C1494 C 0.77776 0.35173 0.55183 0.0
C1495 C 0.76556 0.33088 0.57183 0.0
C1496 C 0.74203 0.31204 0.56349 0.0
C1497 C 0.7294 0.31471 0.53534 0.0
C1498 C 0.73865 0.34545 0.51743 0.0
H1499 H 0.79761 0.36337 0.5586 0.0
O1500 O 0.82653 0.29349 0.50035 0.0
O1501 O 0.7963 0.32872 0.48152 0.0
O1502 O 0.85212 0.34917 0.51475 0.0
O1503 O 0.81775 0.3839 0.51186 0.0
C1504 C 0.69939 0.29486 0.52586 0.0
C1505 C 0.66819 0.32294 0.484 0.0
H1506 H 0.66265 0.36358 0.43385 0.0
H1507 H 0.70333 0.39091 0.40912 0.0
H1508 H 0.77571 0.32811 0.59359 0.0
H1509 H 0.73336 0.2958 0.57913 0.0
H1510 H 0.69543 0.27463 0.53895 0.0
H1511 H 0.64721 0.31745 0.47273 0.0
Mn1512 Mn 0.68423 0.84278 0.47611 0.0
Mn1513 Mn 0.63825 0.78492 0.49229 0.0
C1514 C 0.70786 0.80139 0.49587 0.0
C1515 C 0.71365 0.87227 0.44455 0.0
C1516 C 0.63985 0.84381 0.52543 0.0
O1517 O 0.64578 0.84983 0.45216 0.0
O1518 O 0.62084 0.80573 0.45655 0.0
C1519 C 0.62405 0.73857 0.44638 0.0
N1520 N 0.6374 0.74554 0.47286 0.0
C1521 C 0.6541 0.68979 0.47489 0.0
C1522 C 0.63894 0.6852 0.44833 0.0
C1523 C 0.62376 0.70913 0.43483 0.0
C1524 C 0.64799 0.7237 0.49081 0.0
H1525 H 0.61324 0.75588 0.43356 0.0
C1526 C 0.62439 0.83206 0.44527 0.0
O1527 O 0.69956 0.88353 0.46697 0.0
O1528 O 0.70953 0.84404 0.43916 0.0
N1529 N 0.65558 0.76627 0.52619 0.0
C1530 C 0.66292 0.77879 0.55291 0.0
C1531 C 0.68512 0.7666 0.5714 0.0
C1532 C 0.70333 0.74325 0.56176 0.0
C1533 C 0.69868 0.73067 0.53384 0.0
C1534 C 0.66707 0.74037 0.51779 0.0
H1535 H 0.65117 0.79791 0.56072 0.0
O1536 O 0.71824 0.82828 0.49857 0.0
O1537 O 0.68163 0.79835 0.48138 0.0
O1538 O 0.66425 0.85401 0.51581 0.0
O1539 O 0.62872 0.81996 0.51561 0.0
C1540 C 0.71714 0.7002 0.52342 0.0
C1541 C 0.68563 0.66924 0.48378 0.0
H1542 H 0.64124 0.66427 0.43652 0.0
H1543 H 0.61282 0.70523 0.41362 0.0
H1544 H 0.68923 0.77646 0.59306 0.0
H1545 H 0.72052 0.73455 0.57632 0.0
H1546 H 0.73787 0.69578 0.53549 0.0
H1547 H 0.68978 0.64802 0.4725 0.0
Mn1548 Mn 0.16416 0.68617 0.47644 0.0
Mn1549 Mn 0.22305 0.64223 0.49471 0.0
C1550 C 0.20525 0.71131 0.49648 0.0
C1551 C 0.13592 0.71573 0.44319 0.0
C1552 C 0.1634 0.64112 0.52559 0.0
O1553 O 0.15795 0.64804 0.45221 0.0
O1554 O 0.20251 0.62487 0.45944 0.0
C1555 C 0.27012 0.62371 0.45119 0.0
N1556 N 0.26295 0.63851 0.47674 0.0
C1557 C 0.31977 0.65119 0.48072 0.0
C1558 C 0.32429 0.6348 0.45496 0.0
C1559 C 0.29981 0.62105 0.44087 0.0
C1560 C 0.28472 0.64783 0.4955 0.0
H1561 H 0.25285 0.61328 0.43834 0.0
C1562 C 0.17671 0.62737 0.44667 0.0
O1563 O 0.12391 0.70194 0.46556 0.0
O1564 O 0.16421 0.71133 0.43908 0.0
N1565 N 0.241 0.66051 0.52821 0.0
C1566 C 0.22638 0.67268 0.55196 0.0
C1567 C 0.23728 0.69799 0.56697 0.0
C1568 C 0.2622 0.71369 0.55685 0.0
C1569 C 0.27816 0.70285 0.53284 0.0
C1570 C 0.26783 0.66996 0.51997 0.0
H1571 H 0.20534 0.66378 0.55921 0.0
O1572 O 0.17799 0.72027 0.49937 0.0
O1573 O 0.20909 0.68497 0.48255 0.0
O1574 O 0.15123 0.66452 0.51555 0.0
O1575 O 0.18869 0.63334 0.51731 0.0
C1576 C 0.30993 0.71864 0.52275 0.0
C1577 C 0.34136 0.68279 0.48784 0.0
H1578 H 0.34569 0.63544 0.44386 0.0
H1579 H 0.30362 0.60926 0.42016 0.0
H1580 H 0.22501 0.70661 0.58581 0.0
H1581 H 0.2694 0.7338 0.5682 0.0
H1582 H 0.31434 0.74053 0.53255 0.0
H1583 H 0.36305 0.68552 0.47706 0.0
Mn1584 Mn 0.32472 0.16737 0.47297 0.0
Mn1585 Mn 0.36997 0.22419 0.48646 0.0
C1586 C 0.3002 0.20932 0.49104 0.0
C1587 C 0.29592 0.13806 0.43953 0.0
C1588 C 0.37093 0.16752 0.51943 0.0
O1589 O 0.36378 0.16049 0.449 0.0
O1590 O 0.3845 0.20687 0.44811 0.0
C1591 C 0.38417 0.27329 0.44485 0.0
N1592 N 0.37165 0.2652 0.47142 0.0
C1593 C 0.35553 0.3203 0.476 0.0
C1594 C 0.36985 0.32624 0.44937 0.0
C1595 C 0.38456 0.30308 0.43456 0.0
C1596 C 0.36265 0.28612 0.49111 0.0
H1597 H 0.39418 0.25659 0.43077 0.0
C1598 C 0.38288 0.17952 0.43892 0.0
O1599 O 0.30853 0.12659 0.46298 0.0
O1600 O 0.30103 0.16617 0.43493 0.0
N1601 N 0.35379 0.24021 0.52346 0.0
C1602 C 0.34315 0.22532 0.54811 0.0
C1603 C 0.32366 0.23818 0.56883 0.0
C1604 C 0.30797 0.26397 0.56217 0.0
C1605 C 0.31301 0.2778 0.53511 0.0
C1606 C 0.34452 0.26831 0.5183 0.0
H1607 H 0.34769 0.20275 0.5526 0.0
O1608 O 0.29001 0.18241 0.49418 0.0
O1609 O 0.32626 0.2122 0.47647 0.0
O1610 O 0.34459 0.15811 0.51516 0.0
O1611 O 0.38123 0.1846 0.50028 0.0
C1612 C 0.29383 0.3082 0.52536 0.0
C1613 C 0.32393 0.33988 0.48554 0.0
H1614 H 0.36698 0.3476 0.43843 0.0
H1615 H 0.39479 0.30782 0.41323 0.0
H1616 H 0.3179 0.22591 0.58883 0.0
H1617 H 0.29091 0.27202 0.57716 0.0
H1618 H 0.2734 0.31245 0.53791 0.0
H1619 H 0.31927 0.36119 0.47458 0.0
Mn1620 Mn 0.1674 0.32555 0.53314 0.0
Mn1621 Mn 0.2253 0.37132 0.5144 0.0
C1622 C 0.20771 0.30213 0.51053 0.0
C1623 C 0.13935 0.29699 0.56719 0.0
C1624 C 0.16601 0.36882 0.48134 0.0
O1625 O 0.161 0.36376 0.55729 0.0
O1626 O 0.20352 0.38986 0.54871 0.0
C1627 C 0.26958 0.38288 0.5635 0.0
N1628 N 0.26367 0.37097 0.5361 0.0
C1629 C 0.31917 0.35257 0.53663 0.0
C1630 C 0.32259 0.3664 0.56404 0.0
C1631 C 0.29832 0.38164 0.57676 0.0
C1632 C 0.28603 0.35988 0.51932 0.0
H1633 H 0.25193 0.39362 0.57578 0.0
C1634 C 0.1781 0.38621 0.5617 0.0
O1635 O 0.12725 0.31054 0.54472 0.0
O1636 O 0.16799 0.30041 0.57046 0.0
N1637 N 0.24517 0.35419 0.48144 0.0
C1638 C 0.23456 0.34934 0.4534 0.0
C1639 C 0.24769 0.32847 0.43417 0.0
C1640 C 0.27031 0.30939 0.44397 0.0
C1641 C 0.28135 0.3121 0.47281 0.0
C1642 C 0.27065 0.34239 0.49046 0.0
H1643 H 0.21654 0.36241 0.44516 0.0
O1644 O 0.18086 0.2914 0.50989 0.0
O1645 O 0.21137 0.32813 0.52522 0.0
O1646 O 0.15457 0.3462 0.49394 0.0
O1647 O 0.19081 0.37966 0.48923 0.0
C1648 C 0.31129 0.2931 0.48343 0.0
C1649 C 0.34032 0.32153 0.5266 0.0
H1650 H 0.34282 0.36319 0.57686 0.0
H1651 H 0.30132 0.39151 0.5986 0.0
H1652 H 0.23924 0.3262 0.41165 0.0
H1653 H 0.27982 0.29325 0.42882 0.0
H1654 H 0.31599 0.27309 0.47037 0.0
H1655 H 0.36092 0.31641 0.53863 0.0
Mn1656 Mn 0.68454 0.16676 0.5349 0.0
Mn1657 Mn 0.63937 0.22552 0.52047 0.0
C1658 C 0.70791 0.20877 0.51422 0.0
C1659 C 0.71462 0.13822 0.56758 0.0
C1660 C 0.637 0.16566 0.4892 0.0
O1661 O 0.64732 0.16049 0.56049 0.0
O1662 O 0.62349 0.20518 0.55694 0.0
C1663 C 0.62638 0.27226 0.56569 0.0
N1664 N 0.63873 0.26505 0.53889 0.0
C1665 C 0.65488 0.32061 0.53519 0.0
C1666 C 0.64094 0.3256 0.56223 0.0
C1667 C 0.6263 0.30187 0.57667 0.0
C1668 C 0.64788 0.28663 0.51987 0.0
H1669 H 0.61628 0.25502 0.57921 0.0
C1670 C 0.62678 0.17877 0.56803 0.0
O1671 O 0.70033 0.1264 0.54537 0.0
O1672 O 0.71105 0.16673 0.57132 0.0
N1673 N 0.6546 0.24318 0.48513 0.0
C1674 C 0.66118 0.22959 0.45864 0.0
C1675 C 0.68179 0.24197 0.43852 0.0
C1676 C 0.69952 0.26652 0.44626 0.0
C1677 C 0.69587 0.2799 0.47397 0.0
C1678 C 0.66538 0.26991 0.49185 0.0
H1679 H 0.65064 0.20895 0.45232 0.0
O1680 O 0.71776 0.18177 0.51084 0.0
O1681 O 0.68251 0.21165 0.52967 0.0
O1682 O 0.66135 0.15331 0.49621 0.0
O1683 O 0.63131 0.19074 0.49929 0.0
C1684 C 0.71488 0.31055 0.48333 0.0
C1685 C 0.68573 0.34124 0.52459 0.0
H1686 H 0.64371 0.34678 0.57354 0.0
H1687 H 0.61615 0.30605 0.59814 0.0
H1688 H 0.68539 0.23111 0.41729 0.0
H1689 H 0.71627 0.27471 0.43091 0.0
H1690 H 0.73495 0.31509 0.4703 0.0
H1691 H 0.69045 0.36256 0.53556 0.0
Mn1692 Mn 0.32596 0.84294 0.53475 0.0
Mn1693 Mn 0.37086 0.78428 0.51516 0.0
C1694 C 0.30072 0.803 0.51271 0.0
C1695 C 0.29777 0.87162 0.56912 0.0
C1696 C 0.36963 0.84392 0.48322 0.0
O1697 O 0.36418 0.84846 0.55897 0.0
O1698 O 0.38878 0.80546 0.54985 0.0
C1699 C 0.38214 0.74127 0.56459 0.0
N1700 N 0.37127 0.74603 0.53646 0.0
C1701 C 0.35202 0.69175 0.53879 0.0
C1702 C 0.36507 0.68879 0.56658 0.0
C1703 C 0.38069 0.71308 0.57873 0.0
C1704 C 0.36207 0.72281 0.51939 0.0
H1705 H 0.39216 0.7594 0.57692 0.0
C1706 C 0.3858 0.83055 0.56331 0.0
O1707 O 0.31181 0.8835 0.54687 0.0
O1708 O 0.30075 0.8429 0.57218 0.0
N1709 N 0.35544 0.76405 0.48108 0.0
C1710 C 0.34912 0.77595 0.45373 0.0
C1711 C 0.33098 0.76114 0.43276 0.0
C1712 C 0.31426 0.73605 0.44076 0.0
C1713 C 0.31698 0.72513 0.4696 0.0
C1714 C 0.3468 0.73652 0.48809 0.0
H1715 H 0.35812 0.79696 0.44744 0.0
O1716 O 0.29141 0.83032 0.51178 0.0
O1717 O 0.32731 0.79847 0.5263 0.0
O1718 O 0.34712 0.85571 0.49554 0.0
O1719 O 0.37955 0.81885 0.49093 0.0
C1720 C 0.29567 0.69737 0.48213 0.0
C1721 C 0.32039 0.67187 0.5294 0.0
H1722 H 0.36081 0.66914 0.58001 0.0
H1723 H 0.38999 0.71082 0.60092 0.0
H1724 H 0.32766 0.77099 0.41095 0.0
H1725 H 0.2981 0.72661 0.42542 0.0
H1726 H 0.27633 0.69177 0.46838 0.0
H1727 H 0.31397 0.65251 0.54287 0.0
C1728 C 0.12936 0.39836 0.26268 0.0
C1729 C 0.11717 0.42432 0.27567 0.0
C1730 C 0.11267 0.38038 0.24282 0.0
C1731 C 0.08328 0.38789 0.2347 0.0
H1732 H 0.15202 0.39181 0.26785 0.0
H1733 H 0.12303 0.3607 0.23345 0.0
S1734 S 0.04076 0.45329 0.26247 0.0
N1735 N 0.07357 0.45621 0.279 0.0
N1736 N 0.0426 0.42298 0.24166 0.0
C1737 C 0.0709 0.41381 0.24746 0.0
C1738 C 0.0877 0.43184 0.26791 0.0
C1739 C 0.63178 0.08923 0.26409 0.0
C1740 C 0.6235 0.0863 0.23388 0.0
C1741 C 0.61459 0.10624 0.28418 0.0
C1742 C 0.58883 0.12139 0.27464 0.0
H1743 H 0.65123 0.07758 0.27245 0.0
H1744 H 0.62136 0.10735 0.30737 0.0
S1745 S 0.5583 0.12219 0.19771 0.0
N1746 N 0.58796 0.10049 0.19546 0.0
N1747 N 0.55636 0.13307 0.23287 0.0
C1748 C 0.58062 0.11907 0.24445 0.0
C1749 C 0.59775 0.10136 0.22416 0.0
C1750 C 0.91968 0.5907 0.233 0.0
C1751 C 0.92015 0.62216 0.23481 0.0
C1752 C 0.9026 0.57318 0.25278 0.0
C1753 C 0.88495 0.58629 0.27508 0.0
H1754 H 0.93256 0.57939 0.21604 0.0
H1755 H 0.90289 0.54911 0.2503 0.0
S1756 S 0.88205 0.66706 0.29287 0.0
N1757 N 0.90395 0.66531 0.26334 0.0
N1758 N 0.87149 0.63237 0.29995 0.0
C1759 C 0.88587 0.61757 0.27786 0.0
C1760 C 0.90352 0.63547 0.25789 0.0
C1761 C 0.43428 0.91174 0.25827 0.0
C1762 C 0.42088 0.89065 0.2773 0.0
C1763 C 0.41741 0.9278 0.23728 0.0
C1764 C 0.38628 0.92377 0.23464 0.0
H1765 H 0.45816 0.91553 0.25925 0.0
H1766 H 0.42896 0.94362 0.22308 0.0
S1767 S 0.34016 0.8732 0.28148 0.0
N1768 N 0.37462 0.86754 0.2933 0.0
N1769 N 0.34263 0.89827 0.25453 0.0
C1770 C 0.37254 0.90314 0.25406 0.0
C1771 C 0.38989 0.88645 0.27517 0.0
C1772 C 0.08955 0.58682 0.73124 0.0
C1773 C 0.12079 0.58506 0.73455 0.0
C1774 C 0.07196 0.60339 0.75121 0.0
C1775 C 0.08489 0.61902 0.7752 0.0
H1776 H 0.07854 0.57541 0.71295 0.0
H1777 H 0.04808 0.60438 0.74754 0.0
S1778 S 0.16488 0.61897 0.79617 0.0
N1779 N 0.16343 0.59857 0.76549 0.0
N1780 N 0.13036 0.63007 0.80249 0.0
C1781 C 0.11591 0.61713 0.77914 0.0
C1782 C 0.13386 0.60007 0.75898 0.0
C1783 C 0.37569 0.1097 0.75811 0.0
C1784 C 0.38889 0.0878 0.77652 0.0
C1785 C 0.39286 0.12677 0.73788 0.0
C1786 C 0.42378 0.12219 0.73493 0.0
H1787 H 0.35186 0.11349 0.75907 0.0
H1788 H 0.38179 0.14322 0.72406 0.0
S1789 S 0.46964 0.06915 0.77895 0.0
N1790 N 0.43535 0.06381 0.79117 0.0
N1791 N 0.46705 0.09518 0.75302 0.0
C1792 C 0.43723 0.10062 0.75332 0.0
C1793 C 0.41997 0.08363 0.77411 0.0
C1794 C 0.88283 0.4211 0.76256 0.0
C1795 C 0.89085 0.4227 0.73223 0.0
C1796 C 0.89983 0.40442 0.7831 0.0
C1797 C 0.92504 0.3884 0.77383 0.0
H1798 H 0.86362 0.43331 0.77054 0.0
H1799 H 0.89331 0.40417 0.80635 0.0
S1800 S 0.95436 0.38401 0.69677 0.0
N1801 N 0.92522 0.40636 0.69397 0.0
N1802 N 0.95663 0.37438 0.7323 0.0
C1803 C 0.93295 0.38945 0.74354 0.0
C1804 C 0.91598 0.40679 0.72278 0.0
C1805 C 0.62998 0.89603 0.76385 0.0
C1806 C 0.61939 0.92336 0.77516 0.0
C1807 C 0.61276 0.87876 0.74386 0.0
C1808 C 0.58453 0.88841 0.73399 0.0
H1809 H 0.6517 0.88784 0.77053 0.0
H1810 H 0.62179 0.85785 0.73586 0.0
S1811 S 0.54642 0.95825 0.75689 0.0
N1812 N 0.57852 0.95904 0.77494 0.0
N1813 N 0.54665 0.92699 0.73746 0.0
C1814 C 0.57375 0.91571 0.74509 0.0
C1815 C 0.59102 0.93305 0.76563 0.0
C1816 C 0.24345 0.07614 0.41268 0.0
C1817 C 0.23323 0.08642 0.38471 0.0
C1818 C 0.26405 0.09263 0.42984 0.0
C1819 C 0.27516 0.12041 0.42007 0.0
H1820 H 0.23569 0.05493 0.4214 0.0
H1821 H 0.27099 0.08362 0.45118 0.0
S1822 S 0.25535 0.15782 0.34875 0.0
N1823 N 0.23598 0.12636 0.3481 0.0
N1824 N 0.27408 0.1576 0.38051 0.0
C1825 C 0.26501 0.1311 0.39224 0.0
C1826 C 0.24429 0.11408 0.37455 0.0
C1827 C 0.91739 0.26744 0.43809 0.0
C1828 C 0.88822 0.27432 0.42833 0.0
C1829 C 0.93514 0.24653 0.42298 0.0
C1830 C 0.92454 0.232 0.39729 0.0
H1831 H 0.92671 0.27831 0.45759 0.0
H1832 H 0.95762 0.24251 0.43089 0.0
S1833 S 0.84957 0.24072 0.3631 0.0
N1834 N 0.84935 0.26373 0.39185 0.0
N1835 N 0.8828 0.22497 0.36329 0.0
C1836 C 0.89535 0.23828 0.38754 0.0
C1837 C 0.87718 0.25928 0.40306 0.0
C1838 C 0.76588 0.89012 0.43634 0.0
C1839 C 0.73554 0.89055 0.42805 0.0
C1840 C 0.78678 0.90944 0.42283 0.0
C1841 C 0.77785 0.92968 0.40062 0.0
H1842 H 0.77345 0.87489 0.45353 0.0
H1843 H 0.81005 0.90801 0.42923 0.0
S1844 S 0.70106 0.93924 0.37097 0.0
N1845 N 0.69765 0.91294 0.39663 0.0
N1846 N 0.73676 0.94857 0.37061 0.0
C1847 C 0.74757 0.93008 0.39211 0.0
C1848 C 0.7264 0.91075 0.40605 0.0
C1849 C 0.10465 0.75857 0.37626 0.0
C1850 C 0.08383 0.77809 0.38943 0.0
C1851 C 0.12183 0.7387 0.39368 0.0
C1852 C 0.11849 0.73724 0.42485 0.0
H1853 H 0.10738 0.75827 0.35227 0.0
H1854 H 0.1373 0.7239 0.3826 0.0
S1855 S 0.06986 0.78565 0.47077 0.0
N1856 N 0.06308 0.7962 0.43613 0.0
N1857 N 0.09463 0.75857 0.46837 0.0
C1858 C 0.0984 0.75707 0.43833 0.0
C1859 C 0.08128 0.77754 0.42077 0.0
C1860 C 0.23364 0.89375 0.62094 0.0
C1861 C 0.23573 0.92512 0.62177 0.0
C1862 C 0.25413 0.87648 0.60447 0.0
C1863 C 0.27774 0.88992 0.58852 0.0
H1864 H 0.21565 0.88252 0.63255 0.0
H1865 H 0.25104 0.85249 0.60372 0.0
S1866 S 0.29512 0.97115 0.58701 0.0
N1867 N 0.26449 0.96872 0.60726 0.0
N1868 N 0.30319 0.93662 0.577 0.0
C1869 C 0.28057 0.92127 0.59018 0.0
C1870 C 0.25955 0.93876 0.6066 0.0
C1871 C 0.11631 0.23341 0.6193 0.0
C1872 C 0.0853 0.23736 0.62163 0.0
C1873 C 0.13394 0.25318 0.60224 0.0
C1874 C 0.12111 0.27764 0.58715 0.0
H1875 H 0.12686 0.21451 0.63007 0.0
H1876 H 0.1576 0.24883 0.60023 0.0
S1877 S 0.04131 0.29944 0.58937 0.0
N1878 N 0.04285 0.2685 0.60939 0.0
N1879 N 0.07571 0.30577 0.57783 0.0
C1880 C 0.09022 0.28221 0.59025 0.0
C1881 C 0.07238 0.26204 0.60736 0.0
C1882 C 0.77632 0.11719 0.62289 0.0
C1883 C 0.77618 0.0858 0.62189 0.0
C1884 C 0.75619 0.13405 0.60553 0.0
C1885 C 0.73489 0.1201 0.58688 0.0
H1886 H 0.79249 0.12879 0.6367 0.0
H1887 H 0.75761 0.15819 0.60644 0.0
S1888 S 0.7232 0.03823 0.57935 0.0
N1889 N 0.75177 0.04139 0.60246 0.0
N1890 N 0.7137 0.07272 0.5705 0.0
C1891 C 0.73405 0.08863 0.58652 0.0
C1892 C 0.75473 0.07159 0.60385 0.0
C1893 C 0.87631 0.76195 0.59297 0.0
C1894 C 0.8877 0.7339 0.58461 0.0
C1895 C 0.89337 0.78195 0.61035 0.0
C1896 C 0.92219 0.77438 0.62013 0.0
H1897 H 0.85443 0.7688 0.58534 0.0
H1898 H 0.88416 0.8036 0.61579 0.0
S1899 S 0.9608 0.70256 0.60703 0.0
N1900 N 0.92876 0.69897 0.58906 0.0
N1901 N 0.96052 0.73629 0.62199 0.0
C1902 C 0.93342 0.74613 0.61265 0.0
C1903 C 0.91624 0.72594 0.5948 0.0
C1904 C 0.43445 0.26576 0.09539 0.0
C1905 C 0.42303 0.27896 0.12147 0.0
C1906 C 0.41778 0.24481 0.07883 0.0
C1907 C 0.38868 0.23636 0.0873 0.0
H1908 H 0.45673 0.27131 0.08784 0.0
H1909 H 0.42778 0.2354 0.059 0.0
S1910 S 0.34796 0.2649 0.15338 0.0
N1911 N 0.38058 0.28211 0.15486 0.0
N1912 N 0.34903 0.2434 0.12349 0.0
C1913 C 0.37685 0.24959 0.11321 0.0
C1914 C 0.39404 0.27064 0.13033 0.0
C1915 C 0.42006 0.78168 0.91922 0.0
C1916 C 0.38974 0.77556 0.92442 0.0
C1917 C 0.4376 0.76213 0.90228 0.0
C1918 C 0.42537 0.73589 0.89004 0.0
H1919 H 0.43023 0.80179 0.92811 0.0
H1920 H 0.46086 0.76763 0.89859 0.0
S1921 S 0.34846 0.70759 0.9007 0.0
N1922 N 0.34901 0.74002 0.91826 0.0
N1923 N 0.38209 0.70344 0.88632 0.0
C1924 C 0.39536 0.72914 0.89561 0.0
C1925 C 0.37749 0.74898 0.91286 0.0
C1926 C 0.27647 0.42402 0.91951 0.0
C1927 C 0.27603 0.42273 0.88811 0.0
C1928 C 0.25595 0.40765 0.93683 0.0
C1929 C 0.2343 0.38908 0.92352 0.0
H1930 H 0.29289 0.4377 0.9309 0.0
H1931 H 0.25741 0.40916 0.9609 0.0
S1932 S 0.22054 0.3809 0.84243 0.0
N1933 N 0.24971 0.4035 0.84452 0.0
N1934 N 0.21185 0.37233 0.87718 0.0
C1935 C 0.23302 0.38808 0.89225 0.0
C1936 C 0.25367 0.405 0.87454 0.0
C1937 C 0.59804 0.24904 0.93756 0.0
C1938 C 0.62087 0.23213 0.92453 0.0
C1939 C 0.58179 0.26987 0.92081 0.0
C1940 C 0.58743 0.27438 0.89023 0.0
H1941 H 0.59302 0.24658 0.96106 0.0
H1942 H 0.56454 0.28243 0.93203 0.0
S1943 S 0.64371 0.23407 0.84511 0.0
N1944 N 0.64781 0.22043 0.87911 0.0
N1945 N 0.61683 0.25908 0.84736 0.0
C1946 C 0.60997 0.25723 0.87681 0.0
C1947 C 0.62679 0.23626 0.89402 0.0
C1948 C 0.72493 0.60204 0.91089 0.0
C1949 C 0.73456 0.5879 0.88459 0.0
C1950 C 0.74464 0.61942 0.92838 0.0
C1951 C 0.77486 0.62281 0.92054 0.0
H1952 H 0.70193 0.59978 0.91792 0.0
H1953 H 0.73623 0.63008 0.94832 0.0
S1954 S 0.81218 0.58723 0.8562 0.0
N1955 N 0.77692 0.57676 0.85291 0.0
N1956 N 0.81395 0.60866 0.88616 0.0
C1957 C 0.78497 0.60806 0.89489 0.0
C1958 C 0.76483 0.59081 0.87681 0.0
C1959 C 0.61474 0.72634 0.11127 0.0
C1960 C 0.58651 0.73418 0.12243 0.0
C1961 C 0.63167 0.7466 0.09396 0.0
C1962 C 0.62079 0.77526 0.08683 0.0
H1963 H 0.62366 0.70432 0.11571 0.0
H1964 H 0.65314 0.73954 0.0855 0.0
S1965 S 0.54865 0.80687 0.11153 0.0
N1966 N 0.54889 0.77281 0.12576 0.0
N1967 N 0.58027 0.81049 0.09298 0.0
C1968 C 0.59261 0.78325 0.09785 0.0
C1969 C 0.5756 0.76281 0.11569 0.0
C1970 C 0.26341 0.62342 0.08074 0.0
C1971 C 0.23252 0.62256 0.0862 0.0
C1972 C 0.28332 0.60596 0.09766 0.0
C1973 C 0.27304 0.58773 0.12107 0.0
H1974 H 0.27215 0.63726 0.06293 0.0
H1975 H 0.3069 0.60676 0.09244 0.0
S1976 S 0.19421 0.57667 0.14326 0.0
N1977 N 0.19252 0.601 0.11556 0.0
N1978 N 0.22996 0.56913 0.1481 0.0
C1979 C 0.24224 0.58677 0.12671 0.0
C1980 C 0.22195 0.60396 0.10906 0.0
C1981 C 0.74464 0.39913 0.12277 0.0
C1982 C 0.73117 0.42457 0.10996 0.0
C1983 C 0.76603 0.38245 0.10731 0.0
C1984 C 0.77519 0.39074 0.07856 0.0
H1985 H 0.7389 0.39213 0.14517 0.0
H1986 H 0.77575 0.36316 0.11817 0.0
S1987 S 0.74584 0.45448 0.03425 0.0
N1988 N 0.72778 0.45643 0.06622 0.0
N1989 N 0.76815 0.42536 0.03722 0.0
C1990 C 0.7616 0.41584 0.06525 0.0
C1991 C 0.73952 0.43263 0.08089 0.0
C1992 C 0.02715 0.25506 0.27767 0.0
C1993 C 1.00045 0.2394 0.28363 0.0
C1994 C 0.03095 0.27179 0.25081 0.0
C1995 C 0.00722 0.27642 0.2304 0.0
H1996 H 0.04583 0.25302 0.29287 0.0
H1997 H 0.05253 0.28178 0.24639 0.0
S1998 S 0.92835 0.26533 0.25367 0.0
N1999 N 0.94729 0.24311 0.27616 0.0
N2000 N 0.95329 0.28149 0.23173 0.0
C2001 C 0.97883 0.26888 0.24194 0.0
C2002 C 0.97558 0.24866 0.26691 0.0
C2003 C 0.76502 0.97387 0.265 0.0
C2004 C 0.77035 0.9966 0.28613 0.0
C2005 C 0.74378 0.9774 0.24153 0.0
C2006 C 0.73089 0.00507 0.23437 0.0
H2007 H 0.77602 0.95254 0.2676 0.0
H2008 H 0.73632 0.95801 0.22949 0.0
S2009 S 0.72454 0.06556 0.29092 0.0
N2010 N 0.74904 0.04239 0.30585 0.0
N2011 N 0.71545 0.05131 0.25811 0.0
C2012 C 0.73232 0.02618 0.25791 0.0
C2013 C 0.75087 0.02136 0.28411 0.0
C2014 C 0.97412 0.74729 0.24396 0.0
C2015 C 0.99854 0.73201 0.2315 0.0
C2016 C 0.97817 0.76824 0.26759 0.0
C2017 C 0.00676 0.77846 0.27617 0.0
H2018 H 0.95178 0.74264 0.23593 0.0
H2019 H 0.95878 0.77733 0.27852 0.0
S2020 S 0.07041 0.72578 0.27277 0.0
N2021 N 0.04672 0.71266 0.2476 0.0
N2022 N 0.05538 0.75672 0.28603 0.0
C2023 C 0.02947 0.75749 0.2703 0.0
C2024 C 0.02477 0.73343 0.24919 0.0
C2025 C 0.24682 0.03142 0.26507 0.0
C2026 C 0.22945 0.00691 0.27477 0.0
C2027 C 0.27125 0.02764 0.24521 0.0
C2028 C 0.27645 1.00018 0.2307 0.0
H2029 H 0.24186 0.05361 0.27324 0.0
H2030 H 0.28489 0.04684 0.23969 0.0
S2031 S 0.25824 0.9292 0.26924 0.0
N2032 N 0.23635 0.95399 0.28555 0.0
N2033 N 0.27591 0.94726 0.24233 0.0
C2034 C 0.26486 0.97519 0.24603 0.0
C2035 C 0.24284 0.9788 0.26933 0.0
C2036 C 0.98175 0.73905 0.76455 0.0
C2037 C 0.01062 0.73299 0.77582 0.0
C2038 C 0.97652 0.76248 0.74372 0.0
C2039 C 1.00038 0.77734 0.72956 0.0
H2040 H 0.96292 0.72644 0.77289 0.0
H2041 H 0.95377 0.76853 0.73833 0.0
S2042 S 0.07621 0.74389 0.72678 0.0
N2043 N 0.06105 0.72877 0.75683 0.0
N2044 N 0.05075 0.76644 0.71245 0.0
C2045 C 0.02805 0.76231 0.73204 0.0
C2046 C 0.03364 0.74153 0.75618 0.0
C2047 C 0.24703 0.97833 0.74365 0.0
C2048 C 0.23065 1.00247 0.73185 0.0
C2049 C 0.27087 0.98299 0.76425 0.0
C2050 C 0.276 0.0111 0.77775 0.0
H2051 H 0.24185 0.95579 0.73653 0.0
H2052 H 0.28416 0.96404 0.77108 0.0
S2053 S 0.2604 0.0802 0.73494 0.0
N2054 N 0.23881 0.05476 0.71887 0.0
N2055 N 0.27685 0.06335 0.76338 0.0
C2056 C 0.26552 0.03532 0.76055 0.0
C2057 C 0.24437 0.0307 0.73646 0.0
C2058 C 0.03092 0.2486 0.74287 0.0
C2059 C 0.00644 0.23294 0.73073 0.0
C2060 C 0.02682 0.27217 0.76363 0.0
C2061 C 0.99887 0.27755 0.777 0.0
H2062 H 0.05332 0.24311 0.7358 0.0
H2063 H 0.04606 0.28505 0.77069 0.0
S2064 S 0.92931 0.26325 0.73431 0.0
N2065 N 0.95426 0.24159 0.71797 0.0
N2066 N 0.94658 0.27919 0.76284 0.0
C2067 C 0.97436 0.26761 0.7598 0.0
C2068 C 0.97847 0.24673 0.73554 0.0
C2069 C 0.76204 0.03189 0.74505 0.0
C2070 C 0.77817 0.0079 0.73279 0.0
C2071 C 0.73821 0.0269 0.76538 0.0
C2072 C 0.73289 0.99846 0.77808 0.0
H2073 H 0.76744 0.05457 0.73853 0.0
H2074 H 0.72513 0.04578 0.77269 0.0
S2075 S 0.74711 0.93067 0.73295 0.0
N2076 N 0.76919 0.95627 0.71792 0.0
N2077 N 0.73098 0.94676 0.7619 0.0
C2078 C 0.74286 0.97464 0.76014 0.0
C2079 C 0.76405 0.97975 0.73634 0.0
C2080 C 0.24169 0.26964 0.02991 0.0
C2081 C 0.2316 0.27761 1.00108 0.0
C2082 C 0.26277 0.24626 0.03452 0.0
C2083 C 0.27843 0.23356 0.01044 0.0
H2084 H 0.23244 0.28088 0.04906 0.0
H2085 H 0.26721 0.23863 0.05702 0.0
S2086 S 0.2844 0.27317 0.93766 0.0
N2087 N 0.25336 0.28645 0.95233 0.0
N2088 N 0.29775 0.24883 0.96199 0.0
C2089 C 0.27698 0.25075 0.9839 0.0
C2090 C 0.25274 0.27144 0.97865 0.0
C2091 C 0.24631 0.74374 0.02962 0.0
C2092 C 0.22948 0.73157 0.00593 0.0
C2093 C 0.27054 0.76367 0.02425 0.0
C2094 C 0.27566 0.77623 0.99577 0.0
H2095 H 0.24121 0.73738 0.05236 0.0
H2096 H 0.2843 0.77057 0.04287 0.0
S2097 S 0.25955 0.73088 0.92856 0.0
N2098 N 0.23758 0.71624 0.95439 0.0
N2099 N 0.27643 0.7598 0.94429 0.0
C2100 C 0.26489 0.75837 0.9722 0.0
C2101 C 0.24333 0.73478 0.97767 0.0
C2102 C 0.76532 0.27156 0.981 0.0
C2103 C 0.77854 0.27666 0.00919 0.0
C2104 C 0.74513 0.24745 0.97604 0.0
C2105 C 0.73329 0.23091 0.99997 0.0
H2106 H 0.77178 0.28531 0.96226 0.0
H2107 H 0.73815 0.24239 0.95346 0.0
S2108 S 0.73444 0.26136 0.0773 0.0
N2109 N 0.76338 0.2776 0.06109 0.0
N2110 N 0.71888 0.23967 0.05169 0.0
C2111 C 0.7372 0.24487 0.02815 0.0
C2112 C 0.76117 0.26607 0.03317 0.0
C2113 C 0.76059 0.74478 0.97705 0.0
C2114 C 0.77774 0.73373 1.00102 0.0
C2115 C 0.73661 0.7649 0.98181 0.0
C2116 C 0.73194 0.77857 0.00979 0.0
H2117 H 0.76531 0.73743 0.95455 0.0
H2118 H 0.72292 0.77136 0.96296 0.0
S2119 S 0.74955 0.73678 0.07899 0.0
N2120 N 0.77094 0.72099 0.05346 0.0
N2121 N 0.73234 0.76477 0.06214 0.0
C2122 C 0.74319 0.76194 0.03406 0.0
C2123 C 0.76463 0.7383 0.02938 0.0
C2124 C 0.52802 0.74716 0.77171 0.0
C2125 C 0.49998 0.7341 0.77781 0.0
C2126 C 0.53227 0.76663 0.74693 0.0
C2127 C 0.5079 0.7774 0.73016 0.0
H2128 H 0.54718 0.74081 0.78496 0.0
H2129 H 0.5547 0.77364 0.74125 0.0
S2130 S 0.43067 0.77546 0.76052 0.0
N2131 N 0.44773 0.74788 0.77814 0.0
N2132 N 0.4558 0.79064 0.73811 0.0
C2133 C 0.47989 0.77336 0.74427 0.0
C2134 C 0.47557 0.75034 0.76653 0.0
C2135 C 0.26078 0.4758 0.76384 0.0
C2136 C 0.27711 0.49966 0.77641 0.0
C2137 C 0.23705 0.4809 0.74326 0.0
C2138 C 0.23221 0.50923 0.73013 0.0
H2139 H 0.26574 0.45311 0.77054 0.0
H2140 H 0.22352 0.46211 0.73624 0.0
S2141 S 0.24708 0.57723 0.7749 0.0
N2142 N 0.2682 0.55144 0.79084 0.0
N2143 N 0.23146 0.56113 0.74553 0.0
C2144 C 0.24271 0.53311 0.74786 0.0
C2145 C 0.26339 0.52793 0.77229 0.0
C2146 C 0.53632 0.2651 0.76249 0.0
C2147 C 0.51248 0.27557 0.78 0.0
C2148 C 0.53213 0.24169 0.74125 0.0
C2149 C 0.50352 0.23132 0.73316 0.0
H2150 H 0.55841 0.27444 0.76568 0.0
H2151 H 0.55132 0.232 0.73058 0.0
S2152 S 0.44244 0.2316 0.78895 0.0
N2153 N 0.46585 0.25743 0.80128 0.0
N2154 N 0.45654 0.2192 0.75727 0.0
C2155 C 0.48187 0.23585 0.75553 0.0
C2156 C 0.48695 0.25681 0.77959 0.0
C2157 C 0.77351 0.52188 0.74816 0.0
C2158 C 0.77706 0.49434 0.73318 0.0
C2159 C 0.74881 0.5273 0.76727 0.0
C2160 C 0.7294 0.50411 0.77614 0.0
H2161 H 0.78901 0.53993 0.74394 0.0
H2162 H 0.74545 0.54968 0.77576 0.0
S2163 S 0.7543 0.42497 0.77196 0.0
N2164 N 0.77319 0.44167 0.74501 0.0
N2165 N 0.73339 0.45104 0.78756 0.0
C2166 C 0.74118 0.47521 0.77098 0.0
C2167 C 0.76346 0.47015 0.74811 0.0
C2168 C 0.53484 0.24744 0.26317 0.0
C2169 C 0.51083 0.23159 0.27604 0.0
C2170 C 0.53013 0.26885 0.24 0.0
C2171 C 0.50131 0.27899 0.23226 0.0
H2172 H 0.5574 0.24289 0.27051 0.0
H2173 H 0.54924 0.27832 0.22875 0.0
S2174 S 0.43738 0.22631 0.23735 0.0
N2175 N 0.46195 0.21259 0.26126 0.0
N2176 N 0.45218 0.25748 0.22406 0.0
C2177 C 0.47874 0.25784 0.23868 0.0
C2178 C 0.48404 0.23334 0.25921 0.0
C2179 C 0.77096 0.52767 0.25698 0.0
C2180 C 0.77469 0.5053 0.27902 0.0
C2181 C 0.75435 0.52249 0.23031 0.0
C2182 C 0.73801 0.49583 0.22595 0.0
H2183 H 0.78154 0.54926 0.26001 0.0
H2184 H 0.75296 0.54018 0.21389 0.0
S2185 S 0.76324 0.42529 0.25966 0.0
N2186 N 0.77939 0.45129 0.28045 0.0
N2187 N 0.74103 0.44313 0.23628 0.0
C2188 C 0.74663 0.47186 0.2442 0.0
C2189 C 0.76675 0.47634 0.26911 0.0
C2190 C 0.47959 0.73817 0.24511 0.0
C2191 C 0.50712 0.73427 0.23109 0.0
C2192 C 0.47492 0.75973 0.26804 0.0
C2193 C 0.49684 0.78107 0.27522 0.0
H2194 H 0.46104 0.72582 0.23635 0.0
H2195 H 0.45344 0.76072 0.27891 0.0
S2196 S 0.54736 0.80489 0.21369 0.0
N2197 N 0.54037 0.76938 0.20622 0.0
N2198 N 0.53079 0.81197 0.24579 0.0
C2199 C 0.51789 0.7851 0.25174 0.0
C2200 C 0.52327 0.76161 0.23001 0.0
C2201 C 0.26373 0.48093 0.23634 0.0
C2202 C 0.27621 0.5094 0.23073 0.0
C2203 C 0.24343 0.47595 0.26023 0.0
C2204 C 0.23083 0.49993 0.27611 0.0
H2205 H 0.27081 0.4621 0.22309 0.0
H2206 H 0.23697 0.45326 0.26567 0.0
S2207 S 0.23135 0.57711 0.24486 0.0
N2208 N 0.26058 0.56111 0.22924 0.0
N2209 N 0.21587 0.55141 0.26647 0.0
C2210 C 0.23452 0.52804 0.26188 0.0
C2211 C 0.25858 0.53321 0.24098 0.0
C2212 C 0.76978 0.74412 0.47836 0.0
C2213 C 0.77712 0.73213 0.5066 0.0
C2214 C 0.74592 0.76476 0.47466 0.0
C2215 C 0.73189 0.77791 0.4995 0.0
H2216 H 0.78149 0.73629 0.45884 0.0
H2217 H 0.73887 0.77077 0.45234 0.0
S2218 S 0.76846 0.77903 0.57413 0.0
N2219 N 0.78311 0.74959 0.55751 0.0
N2220 N 0.7448 0.79379 0.54992 0.0
C2221 C 0.74811 0.77486 0.5265 0.0
C2222 C 0.76927 0.75089 0.53057 0.0
C2223 C 0.74432 0.2386 0.48229 0.0
C2224 C 0.73169 0.23266 0.51055 0.0
C2225 C 0.76437 0.26295 0.47777 0.0
C2226 C 0.77636 0.27908 0.50206 0.0
H2227 H 0.73721 0.22559 0.46322 0.0
H2228 H 0.77089 0.26874 0.45526 0.0
S2229 S 0.77581 0.24758 0.57894 0.0
N2230 N 0.74721 0.23099 0.56237 0.0
N2231 N 0.79088 0.26999 0.55371 0.0
C2232 C 0.77273 0.26464 0.52998 0.0
C2233 C 0.74915 0.24299 0.53462 0.0
C2234 C 0.27094 0.76589 0.48193 0.0
C2235 C 0.27541 0.78029 0.50919 0.0
C2236 C 0.24931 0.74285 0.4779 0.0
C2237 C 0.22833 0.73622 0.50011 0.0
H2238 H 0.2829 0.7744 0.4631 0.0
H2239 H 0.24791 0.73152 0.45664 0.0
S2240 S 0.20532 0.79933 0.54879 0.0
N2241 N 0.24086 0.80635 0.54177 0.0
N2242 N 0.19791 0.76666 0.53325 0.0
C2243 C 0.22468 0.76011 0.52074 0.0
C2244 C 0.24835 0.78189 0.52552 0.0
C2245 C 0.24343 0.26188 0.5286 0.0
C2246 C 0.23129 0.27857 0.50482 0.0
C2247 C 0.26371 0.23806 0.52341 0.0
C2248 C 0.2765 0.23314 0.49506 0.0
H2249 H 0.2368 0.26679 0.55128 0.0
H2250 H 0.27054 0.22434 0.54205 0.0
S2251 S 0.23152 0.24861 0.42739 0.0
N2252 N 0.21659 0.27046 0.45306 0.0
N2253 N 0.26034 0.23204 0.44343 0.0
C2254 C 0.25864 0.24358 0.47135 0.0
C2255 C 0.2349 0.26485 0.47657 0.0
C2256 C 0.07204 0.34666 0.07154 0.0
C2257 C 0.08452 0.34175 0.0998 0.0
C2258 C 0.09005 0.35361 0.04705 0.0
C2259 C 0.12142 0.35468 0.04956 0.0
H2260 H 0.0483 0.34355 0.068 0.0
H2261 H 0.0796 0.35443 0.02522 0.0
S2262 S 0.16444 0.34844 0.11997 0.0
N2263 N 0.1294 0.34318 0.13022 0.0
N2264 N 0.16366 0.35458 0.0836 0.0
C2265 C 0.13385 0.35315 0.07837 0.0
C2266 C 0.11529 0.34665 0.10361 0.0
C2267 C 0.69717 0.08368 0.07946 0.0
C2268 C 0.67366 0.07955 0.09951 0.0
C2269 C 0.69428 0.10118 0.05456 0.0
C2270 C 0.66807 0.11721 0.04802 0.0
H2271 H 0.71835 0.07252 0.08198 0.0
H2272 H 0.71371 0.10217 0.04028 0.0
S2273 S 0.59764 0.11132 0.09059 0.0
N2274 N 0.62136 0.0904 0.10967 0.0
N2275 N 0.61651 0.12554 0.06222 0.0
C2276 C 0.64372 0.11342 0.06738 0.0
C2277 C 0.64643 0.09427 0.09321 0.0
C2278 C 0.93565 0.66218 0.07152 0.0
C2279 C 0.92354 0.66953 0.09935 0.0
C2280 C 0.91716 0.65611 0.04699 0.0
C2281 C 0.88584 0.65774 0.04917 0.0
H2282 H 0.9596 0.66268 0.0683 0.0
H2283 H 0.92752 0.65347 0.02533 0.0
S2284 S 0.84328 0.67289 0.11824 0.0
N2285 N 0.87859 0.67506 0.1288 0.0
N2286 N 0.84366 0.66411 0.08244 0.0
C2287 C 0.8735 0.66201 0.07769 0.0
C2288 C 0.89243 0.66822 0.10279 0.0
C2289 C 0.31548 0.90622 0.05245 0.0
C2290 C 0.34147 0.88942 0.04723 0.0
C2291 C 0.31207 0.92383 0.07721 0.0
C2292 C 0.33475 0.92705 0.09852 0.0
H2293 H 0.29667 0.90574 0.03722 0.0
H2294 H 0.29119 0.93571 0.0787 0.0
S2295 S 0.40881 0.89008 0.09525 0.0
N2296 N 0.39117 0.87753 0.06527 0.0
N2297 N 0.38534 0.91262 0.11252 0.0
C2298 C 0.3614 0.91077 0.09402 0.0
C2299 C 0.36464 0.89164 0.06831 0.0
C2300 C 0.07154 0.66796 0.93464 0.0
C2301 C 0.08571 0.66643 0.90691 0.0
C2302 C 0.08702 0.66193 0.96098 0.0
C2303 C 0.11785 0.65567 0.96082 0.0
H2304 H 0.0487 0.67554 0.93613 0.0
H2305 H 0.07562 0.6659 0.9819 0.0
S2306 S 0.16327 0.64209 0.89328 0.0
N2307 N 0.13025 0.65188 0.88002 0.0
N2308 N 0.16045 0.64279 0.93005 0.0
C2309 C 0.13141 0.65064 0.93301 0.0
C2310 C 0.11513 0.65583 0.90589 0.0
C2311 C 0.33779 0.07001 0.94094 0.0
C2312 C 0.34276 0.08088 0.91209 0.0
C2313 C 0.34448 0.08728 0.96601 0.0
C2314 C 0.35424 0.11731 0.96354 0.0
H2315 H 0.32761 0.04825 0.94424 0.0
H2316 H 0.33828 0.07824 0.98758 0.0
S2317 S 0.37922 0.153 0.89333 0.0
N2318 N 0.36577 0.12027 0.88253 0.0
N2319 N 0.37497 0.15447 0.92994 0.0
C2320 C 0.36265 0.12723 0.93501 0.0
C2321 C 0.35741 0.1087 0.90922 0.0
C2322 C 0.87525 0.34147 0.92532 0.0
C2323 C 0.88407 0.35485 0.95249 0.0
C2324 C 0.89623 0.33439 0.90329 0.0
C2325 C 0.92596 0.34368 0.90611 0.0
H2326 H 0.85244 0.33468 0.92153 0.0
H2327 H 0.88926 0.32123 0.88421 0.0
S2328 S 0.95605 0.39364 0.96473 0.0
N2329 N 0.92209 0.38514 0.97637 0.0
N2330 N 0.96049 0.37614 0.9326 0.0
C2331 C 0.93345 0.36266 0.92989 0.0
C2332 C 0.91261 0.36773 0.95344 0.0
C2333 C 0.65192 0.91809 0.96052 0.0
C2334 C 0.65215 0.88667 0.95789 0.0
C2335 C 0.65883 0.93662 0.93629 0.0
C2336 C 0.66519 0.92454 0.90822 0.0
H2337 H 0.6502 0.92828 0.98238 0.0
H2338 H 0.66086 0.96047 0.93996 0.0
S2339 S 0.66249 0.84454 0.88756 0.0
N2340 N 0.65487 0.84476 0.92363 0.0
N2341 N 0.6668 0.87988 0.87769 0.0
C2342 C 0.66175 0.89361 0.90418 0.0
C2343 C 0.65501 0.8746 0.92906 0.0
C2344 C 0.09809 0.10893 0.3476 0.0
C2345 C 0.09556 0.07924 0.33772 0.0
C2346 C 0.07254 0.12701 0.35022 0.0
C2347 C 0.044 0.11573 0.343 0.0
H2348 H 0.11991 0.1188 0.35115 0.0
H2349 H 0.07544 0.15046 0.35542 0.0
S2350 S 0.02565 0.03797 0.32088 0.0
N2351 N 0.06227 0.03833 0.32464 0.0
N2352 N 0.01465 0.0721 0.32917 0.0
C2353 C 0.04125 0.08534 0.33571 0.0
C2354 C 0.06696 0.06714 0.33313 0.0
C2355 C 0.91734 0.09504 0.35456 0.0
C2356 C 0.91888 0.11141 0.3275 0.0
C2357 C 0.90199 0.06729 0.35633 0.0
C2358 C 0.88951 0.05401 0.33067 0.0
H2359 H 0.92881 0.10319 0.37424 0.0
H2360 H 0.9013 0.05549 0.37741 0.0
S2361 S 0.88648 0.08898 0.25502 0.0
N2362 N 0.9015 0.11474 0.27647 0.0
N2363 N 0.8822 0.05982 0.27697 0.0
C2364 C 0.89175 0.07037 0.30363 0.0
C2365 C 0.90373 0.0998 0.30285 0.0
C2366 C 0.90054 0.89002 0.33433 0.0
C2367 C 0.90226 0.92128 0.33702 0.0
C2368 C 0.92479 0.87172 0.34278 0.0
C2369 C 0.95222 0.88433 0.352 0.0
H2370 H 0.88073 0.87973 0.32495 0.0
H2371 H 0.92347 0.84805 0.33792 0.0
S2372 S 0.96453 0.96378 0.37161 0.0
N2373 N 0.93041 0.96298 0.35756 0.0
N2374 N 0.97682 0.92906 0.37014 0.0
C2375 C 0.9526 0.91503 0.35833 0.0
C2376 C 0.92758 0.93343 0.35118 0.0
C2377 C 0.09319 0.95888 0.35806 0.0
C2378 C 0.12394 0.95604 0.35248 0.0
C2379 C 0.07337 0.93522 0.35254 0.0
C2380 C 0.0837 0.90785 0.34155 0.0
H2381 H 0.08395 0.98061 0.36321 0.0
H2382 H 0.04963 0.93901 0.35496 0.0
S2383 S 0.1624 0.8873 0.32785 0.0
N2384 N 0.16412 0.92234 0.33936 0.0
N2385 N 0.12673 0.87784 0.3286 0.0
C2386 C 0.11458 0.90359 0.33888 0.0
C2387 C 0.13482 0.92764 0.34488 0.0
C2388 C 0.07426 0.88021 0.64902 0.0
C2389 C 0.04586 0.8921 0.65521 0.0
C2390 C 0.10047 0.89715 0.65456 0.0
C2391 C 0.09879 0.92584 0.66741 0.0
H2392 H 0.07639 0.85696 0.6428 0.0
H2393 H 0.12202 0.8869 0.65111 0.0
S2394 S 0.03012 0.96817 0.68442 0.0
N2395 N 0.01818 0.93618 0.67052 0.0
N2396 N 0.0668 0.96626 0.68333 0.0
C2397 C 0.07067 0.93867 0.67123 0.0
C2398 C 0.04439 0.92235 0.66415 0.0
C2399 C 0.08758 0.04702 0.67614 0.0
C2400 C 0.11406 0.04627 0.65896 0.0
C2401 C 0.0725 0.07327 0.68165 0.0
C2402 C 0.08087 0.10007 0.66799 0.0
H2403 H 0.07982 0.02758 0.68831 0.0
H2404 H 0.05415 0.07238 0.69733 0.0
S2405 S 0.1378 0.10726 0.60838 0.0
N2406 N 0.14225 0.07277 0.62095 0.0
N2407 N 0.11049 0.12219 0.6281 0.0
C2408 C 0.10338 0.0988 0.64599 0.0
C2409 C 0.12058 0.07188 0.64196 0.0
C2410 C 0.93597 0.12453 0.64583 0.0
C2411 C 0.96327 0.11863 0.66018 0.0
C2412 C 0.91073 0.10621 0.65121 0.0
C2413 C 0.91215 0.0823 0.67173 0.0
H2414 H 0.93355 0.14432 0.63216 0.0
H2415 H 0.88969 0.11187 0.64076 0.0
S2416 S 0.97933 0.05596 0.71258 0.0
N2417 N 0.99084 0.08478 0.69284 0.0
N2418 N 0.94374 0.05231 0.70416 0.0
C2419 C 0.93983 0.07527 0.68457 0.0
C2420 C 0.96532 0.09286 0.67834 0.0
C2421 C 0.93673 0.9376 0.66654 0.0
C2422 C 0.92364 0.90919 0.66775 0.0
C2423 C 0.91973 0.96285 0.66015 0.0
C2424 C 0.88854 0.96092 0.65644 0.0
H2425 H 0.96003 0.94056 0.67208 0.0
H2426 H 0.9305 0.98451 0.662 0.0
S2427 S 0.84459 0.89083 0.65186 0.0
N2428 N 0.87894 0.87957 0.65921 0.0
N2429 N 0.8461 0.92768 0.64967 0.0
C2430 C 0.87569 0.93229 0.65437 0.0
C2431 C 0.89341 0.90625 0.65984 0.0
C2432 C 0.35896 0.05154 0.0935 0.0
C2433 C 0.35782 0.05414 0.12485 0.0
C2434 C 0.35044 0.07521 0.07487 0.0
C2435 C 0.34144 0.10263 0.08688 0.0
H2436 H 0.36242 0.02984 0.08341 0.0
H2437 H 0.34944 0.07156 0.05099 0.0
S2438 S 0.34174 0.1235 0.16671 0.0
N2439 N 0.35235 0.08817 0.16657 0.0
N2440 N 0.33683 0.13295 0.1314 0.0
C2441 C 0.34412 0.10693 0.11776 0.0
C2442 C 0.35277 0.08272 0.13677 0.0
C2443 C 0.35828 0.95728 0.91408 0.0
C2444 C 0.35585 0.95624 0.88273 0.0
C2445 C 0.35135 0.93236 0.93176 0.0
C2446 C 0.34211 0.90538 0.91874 0.0
H2447 H 0.3619 0.97852 0.92514 0.0
H2448 H 0.35126 0.93483 0.9558 0.0
S2449 S 0.33851 0.88873 0.83803 0.0
N2450 N 0.34881 0.92421 0.83953 0.0
N2451 N 0.33538 0.87739 0.87297 0.0
C2452 C 0.34317 0.9028 0.8876 0.0
C2453 C 0.3507 0.92815 0.86951 0.0
C2454 C 0.05229 0.36046 0.91359 0.0
C2455 C 0.05492 0.35646 0.88253 0.0
C2456 C 0.07601 0.35398 0.93297 0.0
C2457 C 0.10332 0.34366 0.92194 0.0
H2458 H 0.03064 0.36507 0.92324 0.0
H2459 H 0.07233 0.35518 0.95682 0.0
S2460 S 0.12395 0.33522 0.84256 0.0
N2461 N 0.08886 0.34647 0.84156 0.0
N2462 N 0.13333 0.3337 0.8782 0.0
C2463 C 0.10751 0.3429 0.89097 0.0
C2464 C 0.08342 0.34995 0.87115 0.0
C2465 C 0.65908 0.07557 0.9326 0.0
C2466 C 0.66744 0.10277 0.9195 0.0
C2467 C 0.65234 0.0506 0.915 0.0
C2468 C 0.65416 0.0518 0.88363 0.0
H2469 H 0.65974 0.07301 0.95664 0.0
H2470 H 0.6493 0.02927 0.92608 0.0
S2471 S 0.66924 0.11975 0.83877 0.0
N2472 N 0.67262 0.1311 0.87369 0.0
N2473 N 0.6599 0.08401 0.84035 0.0
C2474 C 0.65854 0.07999 0.87034 0.0
C2475 C 0.66573 0.10546 0.88837 0.0
C2476 C 0.93549 0.65123 0.88144 0.0
C2477 C 0.9634 0.66178 0.89175 0.0
C2478 C 0.90922 0.65546 0.89853 0.0
C2479 C 0.91019 0.67109 0.92586 0.0
H2480 H 0.93358 0.64175 0.85931 0.0
H2481 H 0.88795 0.64837 0.88942 0.0
S2482 S 0.9773 0.70043 0.96463 0.0
N2483 N 0.98988 0.68513 0.93382 0.0
N2484 N 0.9411 0.69455 0.96361 0.0
C2485 C 0.93797 0.67971 0.93722 0.0
C2486 C 0.9644 0.67454 0.92086 0.0
C2487 C 0.64664 0.95565 0.09736 0.0
C2488 C 0.65292 0.95194 0.12795 0.0
C2489 C 0.65363 0.93331 0.07658 0.0
C2490 C 0.66679 0.90646 0.08585 0.0
H2491 H 0.63997 0.97736 0.089 0.0
H2492 H 0.65042 0.93777 0.05303 0.0
S2493 S 0.68148 0.883 0.16359 0.0
N2494 N 0.66774 0.91708 0.16672 0.0
N2495 N 0.68161 0.87539 0.12754 0.0
C2496 C 0.66981 0.90101 0.11646 0.0
C2497 C 0.66216 0.92354 0.13762 0.0
C2498 C 0.04806 0.65217 0.09248 0.0
C2499 C 0.05009 0.65312 0.12389 0.0
C2500 C 0.07239 0.65983 0.07435 0.0
C2501 C 0.09994 0.66803 0.08685 0.0
H2502 H 0.02647 0.64925 0.08189 0.0
H2503 H 0.06914 0.66095 0.05041 0.0
S2504 S 0.11912 0.66806 0.16721 0.0
N2505 N 0.08353 0.6582 0.16632 0.0
N2506 N 0.1294 0.67242 0.1321 0.0
C2507 C 0.10348 0.66554 0.11788 0.0
C2508 C 0.07861 0.65764 0.13642 0.0
C2509 C 0.92936 0.34399 0.13295 0.0
C2510 C 0.95776 0.35208 0.12221 0.0
C2511 C 0.90549 0.33871 0.11315 0.0
C2512 C 0.90932 0.34198 0.08221 0.0
H2513 H 0.92658 0.33807 0.15623 0.0
H2514 H 0.88465 0.33009 0.12188 0.0
S2515 S 0.97714 0.36914 0.04382 0.0
N2516 N 0.98678 0.36767 0.07938 0.0
N2517 N 0.94183 0.35849 0.04232 0.0
C2518 C 0.93642 0.35348 0.0717 0.0
C2519 C 0.9606 0.35869 0.09175 0.0
C2520 C 0.59337 0.85756 0.54989 0.0
C2521 C 0.62464 0.85561 0.55201 0.0
C2522 C 0.57515 0.85055 0.57419 0.0
C2523 C 0.58753 0.84204 0.60162 0.0
H2524 H 0.58286 0.86077 0.52832 0.0
H2525 H 0.55125 0.84998 0.57095 0.0
S2526 S 0.66782 0.83983 0.6208 0.0
N2527 N 0.66714 0.84956 0.58522 0.0
N2528 N 0.63259 0.83649 0.63115 0.0
C2529 C 0.61858 0.8437 0.60525 0.0
C2530 C 0.63724 0.85099 0.58042 0.0
C2531 C 0.15803 0.61501 0.60393 0.0
C2532 C 0.16682 0.58514 0.59977 0.0
C2533 C 0.15119 0.63341 0.57924 0.0
C2534 C 0.15203 0.62205 0.54996 0.0
H2535 H 0.15874 0.62476 0.62602 0.0
H2536 H 0.14848 0.65717 0.58282 0.0
S2537 S 0.16997 0.54411 0.52824 0.0
N2538 N 0.17373 0.54455 0.56485 0.0
N2539 N 0.15864 0.57794 0.51905 0.0
C2540 C 0.15711 0.59114 0.54635 0.0
C2541 C 0.16552 0.57308 0.57104 0.0
C2542 C 0.40642 0.19279 0.5528 0.0
C2543 C 0.38853 0.16722 0.54796 0.0
C2544 C 0.42402 0.1963 0.57771 0.0
C2545 C 0.42611 0.17413 0.59968 0.0
H2546 H 0.40674 0.2113 0.53722 0.0
H2547 H 0.43661 0.21694 0.57898 0.0
S2548 S 0.38574 0.10141 0.59802 0.0
N2549 N 0.37428 0.11855 0.56736 0.0
N2550 N 0.40927 0.12452 0.61484 0.0
C2551 C 0.40875 0.14791 0.5956 0.0
C2552 C 0.38964 0.1446 0.56973 0.0
C2553 C 0.84889 0.4234 0.54513 0.0
C2554 C 0.85321 0.39227 0.54749 0.0
C2555 C 0.84248 0.44076 0.57015 0.0
C2556 C 0.84175 0.42804 0.59865 0.0
H2557 H 0.84671 0.43374 0.52336 0.0
H2558 H 0.83673 0.46405 0.56699 0.0
S2559 S 0.85942 0.34958 0.61798 0.0
N2560 N 0.86118 0.35054 0.58116 0.0
N2561 N 0.85147 0.38395 0.62878 0.0
C2562 C 0.85025 0.398 0.60195 0.0
C2563 C 0.85582 0.37995 0.57619 0.0
C2564 C 0.60803 0.15229 0.41084 0.0
C2565 C 0.58208 0.17009 0.41194 0.0
C2566 C 0.62519 0.14677 0.43692 0.0
C2567 C 0.61567 0.1573 0.46492 0.0
H2568 H 0.61627 0.14458 0.38952 0.0
H2569 H 0.64685 0.13641 0.43477 0.0
S2570 S 0.54759 0.20226 0.47987 0.0
N2571 N 0.54787 0.19766 0.44346 0.0
N2572 N 0.57587 0.18241 0.49218 0.0
C2573 C 0.58738 0.17142 0.46629 0.0
C2574 C 0.57192 0.1795 0.43992 0.0
C2575 C 0.84207 0.6182 0.40227 0.0
C2576 C 0.84153 0.58706 0.40618 0.0
C2577 C 0.84964 0.63721 0.42617 0.0
C2578 C 0.85599 0.62544 0.45463 0.0
H2579 H 0.83462 0.62789 0.3814 0.0
H2580 H 0.84633 0.66102 0.42344 0.0
S2581 S 0.86425 0.54536 0.4737 0.0
N2582 N 0.85352 0.54533 0.43843 0.0
N2583 N 0.86684 0.58085 0.48343 0.0
C2584 C 0.85939 0.59436 0.45729 0.0
C2585 C 0.85187 0.57516 0.43313 0.0
C2586 C 0.37407 0.84776 0.42838 0.0
C2587 C 0.38471 0.85647 0.45671 0.0
C2588 C 0.39397 0.83999 0.40534 0.0
C2589 C 0.425 0.84214 0.40958 0.0
H2590 H 0.35052 0.84317 0.42522 0.0
H2591 H 0.38509 0.83096 0.38472 0.0
S2592 S 0.46318 0.87509 0.47484 0.0
N2593 N 0.42769 0.87397 0.48461 0.0
N2594 N 0.46481 0.86112 0.44084 0.0
C2595 C 0.43549 0.85529 0.43588 0.0
C2596 C 0.41536 0.86254 0.45939 0.0
C2597 C 0.17139 0.39072 0.40297 0.0
C2598 C 0.16578 0.42145 0.4054 0.0
C2599 C 0.16418 0.37108 0.42645 0.0
C2600 C 0.15348 0.38203 0.45384 0.0
H2601 H 0.18273 0.38206 0.38352 0.0
H2602 H 0.17111 0.34799 0.42469 0.0
S2603 S 0.12617 0.45876 0.46732 0.0
N2604 N 0.14092 0.46031 0.4336 0.0
N2605 N 0.13058 0.42399 0.47894 0.0
C2606 C 0.14404 0.41187 0.45473 0.0
C2607 C 0.14991 0.43156 0.43034 0.0
C2608 C 0.60062 0.60838 0.85726 0.0
C2609 C 0.59812 0.58351 0.83804 0.0
C2610 C 0.57577 0.62699 0.86285 0.0
C2611 C 0.54781 0.62056 0.84997 0.0
H2612 H 0.62214 0.61449 0.86648 0.0
H2613 H 0.57894 0.64738 0.87544 0.0
S2614 S 0.52888 0.55566 0.80145 0.0
N2615 N 0.56474 0.55215 0.80858 0.0
N2616 N 0.51854 0.58553 0.82011 0.0
C2617 C 0.54474 0.59408 0.83312 0.0
C2618 C 0.56977 0.57602 0.82678 0.0
C2619 C 0.40846 0.59358 0.81442 0.0
C2620 C 0.42244 0.60566 0.83929 0.0
C2621 C 0.39541 0.56599 0.81553 0.0
C2622 C 0.38807 0.55159 0.84247 0.0
H2623 H 0.41022 0.60392 0.79287 0.0
H2624 H 0.39254 0.55552 0.79413 0.0
S2625 S 0.41555 0.5762 0.9165 0.0
N2626 N 0.42891 0.60163 0.89321 0.0
N2627 N 0.39555 0.55254 0.89622 0.0
C2628 C 0.39885 0.56497 0.86884 0.0
C2629 C 0.41698 0.59178 0.86718 0.0
C2630 C 0.4126 0.4024 0.85728 0.0
C2631 C 0.41259 0.42435 0.83467 0.0
C2632 C 0.43804 0.38449 0.86258 0.0
C2633 C 0.46423 0.38836 0.84567 0.0
H2634 H 0.39254 0.39825 0.87005 0.0
H2635 H 0.43675 0.36677 0.87897 0.0
S2636 S 0.47699 0.44538 0.78667 0.0
N2637 N 0.44228 0.45061 0.79738 0.0
N2638 N 0.48934 0.41771 0.80749 0.0
C2639 C 0.46491 0.41148 0.82439 0.0
C2640 C 0.4393 0.42925 0.81883 0.0
C2641 C 0.61714 0.40626 0.84259 0.0
C2642 C 0.58589 0.40878 0.84257 0.0
C2643 C 0.63533 0.4313 0.84867 0.0
C2644 C 0.62259 0.45952 0.85409 0.0
H2645 H 0.6275 0.38549 0.83594 0.0
H2646 H 0.65915 0.42945 0.84504 0.0
S2647 S 0.54209 0.47567 0.86248 0.0
N2648 N 0.54321 0.43991 0.85352 0.0
N2649 N 0.57718 0.48698 0.864 0.0
C2650 C 0.59152 0.46109 0.85759 0.0
C2651 C 0.57316 0.43578 0.85162 0.0
C2652 C 0.58068 0.37592 0.15975 0.0
C2653 C 0.55264 0.39015 0.15904 0.0
C2654 C 0.60692 0.39203 0.16719 0.0
C2655 C 0.60575 0.42264 0.17445 0.0
H2656 H 0.58191 0.35184 0.15777 0.0
H2657 H 0.62791 0.38022 0.16867 0.0
S2658 S 0.53905 0.47102 0.17065 0.0
N2659 N 0.52656 0.43753 0.16152 0.0
N2660 N 0.5752 0.46705 0.17657 0.0
C2661 C 0.57849 0.43742 0.17106 0.0
C2662 C 0.55222 0.42142 0.16269 0.0
C2663 C 0.58956 0.54652 0.1643 0.0
C2664 C 0.62059 0.54918 0.16793 0.0
C2665 C 0.57086 0.57142 0.16676 0.0
C2666 C 0.58248 0.5998 0.17346 0.0
H2667 H 0.57953 0.52481 0.16094 0.0
H2668 H 0.54705 0.56814 0.16487 0.0
S2669 S 0.66183 0.61979 0.18366 0.0
N2670 N 0.6621 0.58383 0.17551 0.0
N2671 N 0.62643 0.62972 0.18314 0.0
C2672 C 0.61333 0.60324 0.17594 0.0
C2673 C 0.63255 0.57813 0.17235 0.0
C2674 C 0.43108 0.6313 0.1508 0.0
C2675 C 0.45994 0.61981 0.15538 0.0
C2676 C 0.40556 0.61346 0.15641 0.0
C2677 C 0.40847 0.58429 0.16794 0.0
H2678 H 0.42817 0.6548 0.14594 0.0
H2679 H 0.38364 0.62328 0.15405 0.0
S2680 S 0.47893 0.54331 0.18101 0.0
N2681 N 0.48942 0.57605 0.16777 0.0
N2682 N 0.44219 0.54428 0.18126 0.0
C2683 C 0.43705 0.57209 0.17028 0.0
C2684 C 0.46257 0.58927 0.16275 0.0
C2685 C 0.40554 0.41427 0.15006 0.0
C2686 C 0.42775 0.41478 0.17245 0.0
C2687 C 0.38647 0.43906 0.14549 0.0
C2688 C 0.38926 0.46497 0.16313 0.0
H2689 H 0.40204 0.39425 0.13694 0.0
H2690 H 0.36865 0.43735 0.12922 0.0
S2691 S 0.44539 0.47834 0.22307 0.0
N2692 N 0.45279 0.44467 0.21051 0.0
N2693 N 0.41699 0.4898 0.2028 0.0
C2694 C 0.41236 0.46601 0.18448 0.0
C2695 C 0.43156 0.44131 0.18894 0.0
C2696 C 0.82292 0.5769 0.62617 0.0
C2697 C 0.84769 0.55737 0.62716 0.0
C2698 C 0.82038 0.60035 0.60639 0.0
C2699 C 0.84174 0.60519 0.5847 0.0
H2700 H 0.80271 0.57272 0.63745 0.0
H2701 H 0.80002 0.61333 0.60659 0.0
S2702 S 0.91305 0.56417 0.57716 0.0
N2703 N 0.896 0.54708 0.60511 0.0
N2704 N 0.89081 0.59152 0.56628 0.0
C2705 C 0.86804 0.58795 0.58583 0.0
C2706 C 0.87095 0.56384 0.6071 0.0
C2707 C 0.84706 0.46332 0.42109 0.0
C2708 C 0.85126 0.46146 0.39001 0.0
C2709 C 0.84129 0.43792 0.4381 0.0
C2710 C 0.84109 0.40955 0.42502 0.0
H2711 H 0.84422 0.48486 0.43168 0.0
H2712 H 0.83525 0.44067 0.46133 0.0
S2713 S 0.86031 0.39165 0.34683 0.0
N2714 N 0.86076 0.42857 0.34807 0.0
N2715 N 0.85221 0.38014 0.38094 0.0
C2716 C 0.84992 0.4068 0.39511 0.0
C2717 C 0.8548 0.433 0.37739 0.0
C2718 C 0.58203 0.84478 0.37278 0.0
C2719 C 0.55474 0.85703 0.3826 0.0
C2720 C 0.6047 0.83678 0.39307 0.0
C2721 C 0.60196 0.84304 0.42358 0.0
H2722 H 0.5852 0.83921 0.34958 0.0
H2723 H 0.6241 0.82496 0.38495 0.0
S2724 S 0.54135 0.88641 0.45856 0.0
N2725 N 0.53011 0.88176 0.42372 0.0
N2726 N 0.57415 0.86991 0.46119 0.0
C2727 C 0.57743 0.86001 0.43278 0.0
C2728 C 0.5537 0.86669 0.4124 0.0
C2729 C 0.1943 0.59517 0.4073 0.0
C2730 C 0.16992 0.60563 0.42293 0.0
C2731 C 0.19282 0.56862 0.39229 0.0
C2732 C 0.16572 0.55376 0.38592 0.0
H2733 H 0.21581 0.60582 0.40916 0.0
H2734 H 0.21417 0.55873 0.38833 0.0
S2735 S 0.09321 0.5743 0.41935 0.0
N2736 N 0.1167 0.59982 0.4323 0.0
N2737 N 0.11267 0.55239 0.39698 0.0
C2738 C 0.13985 0.56563 0.39901 0.0
C2739 C 0.14206 0.59145 0.41822 0.0
C2740 C 0.43224 0.15286 0.37474 0.0
C2741 C 0.46091 0.15409 0.38778 0.0
C2742 C 0.40641 0.15942 0.39163 0.0
C2743 C 0.40862 0.1679 0.42182 0.0
H2744 H 0.43002 0.15012 0.35084 0.0
H2745 H 0.38494 0.15999 0.38051 0.0
S2746 S 0.47741 0.17006 0.46748 0.0
N2747 N 0.48887 0.16003 0.434 0.0
N2748 N 0.44093 0.17373 0.46476 0.0
C2749 C 0.43661 0.16649 0.43561 0.0
C2750 C 0.46251 0.15885 0.41892 0.0
C2751 C 0.16065 0.46504 0.58531 0.0
C2752 C 0.15322 0.46249 0.61585 0.0
C2753 C 0.16834 0.44019 0.56821 0.0
C2754 C 0.16659 0.41129 0.57999 0.0
H2755 H 0.16453 0.48682 0.57558 0.0
H2756 H 0.17667 0.44378 0.54581 0.0
S2757 S 0.13693 0.3912 0.65457 0.0
N2758 N 0.13803 0.42814 0.65492 0.0
N2759 N 0.14891 0.38077 0.62132 0.0
C2760 C 0.15408 0.40784 0.60865 0.0
C2761 C 0.14786 0.43356 0.62685 0.0
C2762 C 0.57634 0.15774 0.5769 0.0
C2763 C 0.60369 0.16766 0.58856 0.0
C2764 C 0.55226 0.15127 0.59575 0.0
C2765 C 0.55462 0.15495 0.62688 0.0
H2766 H 0.57295 0.15676 0.55298 0.0
H2767 H 0.53066 0.147 0.58567 0.0
S2768 S 0.62315 0.17589 0.66836 0.0
N2769 N 0.63325 0.17708 0.63295 0.0
N2770 N 0.58782 0.16514 0.66853 0.0
C2771 C 0.58293 0.16148 0.63884 0.0
C2772 C 0.60747 0.16821 0.6196 0.0
C2773 C 0.43367 0.85458 0.62951 0.0
C2774 C 0.46253 0.85307 0.61725 0.0
C2775 C 0.40824 0.84899 0.61165 0.0
C2776 C 0.41126 0.84098 0.58142 0.0
H2777 H 0.4309 0.85682 0.6534 0.0
H2778 H 0.38644 0.84862 0.622 0.0
S2779 S 0.48154 0.83657 0.53861 0.0
N2780 N 0.49193 0.84696 0.57233 0.0
N2781 N 0.44485 0.83391 0.53981 0.0
C2782 C 0.43968 0.84162 0.56866 0.0
C2783 C 0.46509 0.84877 0.58625 0.0
loop_
_geom_bond_atom_site_label_1
_geom_bond_atom_site_label_2
_geom_bond_distance
_geom_bond_site_symmetry_2
_ccdc_geom_bond_type
Mn0 O5 2.095 . S
Mn0 O15 2.162 . S
Mn0 O16 2.297 . S
Mn0 O24 2.385 . S
Mn0 O25 2.209 . S
Mn0 O26 2.094 1_455 S
Mn1 O6 2.121 . S
Mn1 N8 2.257 . S
Mn1 N17 2.282 1_455 S
Mn1 O25 2.215 . S
Mn1 O27 2.117 1_455 S
C2 O24 1.234 . S
C2 O25 1.283 . S
C3 O15 1.281 . S
C3 O16 1.236 . S
C4 O26 1.240 . S
C4 O27 1.264 . S
O5 Mn0 2.095 . S
O5 C14 1.250 . S
O6 Mn1 2.121 . S
O6 C14 1.258 . S
C7 N8 1.326 . S
C7 C11 1.460 . S
C7 H13 0.929 . S
N8 Mn1 2.257 . S
N8 C7 1.326 . S
N8 C12 1.362 . S
C9 C10 1.258 . S
C9 C12 1.431 . S
C9 C29 1.449 . S
C10 C9 1.258 . S
C10 C11 1.477 . S
C10 H30 0.931 . S
C11 C7 1.460 . S
C11 C10 1.477 . S
C11 H31 0.930 . S
C12 N8 1.362 . S
C12 C9 1.431 . S
C12 C22 1.476 1_455 S
H13 C7 0.929 . S
C14 O5 1.250 . S
C14 O6 1.258 . S
O15 Mn0 2.162 . S
O15 C3 1.281 . S
O16 Mn0 2.297 . S
O16 C3 1.236 . S
N17 Mn1 2.282 1_655 S
N17 C18 1.328 . S
N17 C22 1.318 . S
C18 N17 1.328 . S
C18 C19 1.457 . S
C18 H23 0.929 . S
C19 C18 1.457 . S
C19 C20 1.291 . S
C19 H32 0.931 . S
C20 C19 1.291 . S
C20 C21 1.373 . S
C20 H33 0.929 . S
C21 C20 1.373 . S
C21 C22 1.396 . S
C21 C28 1.403 . S
C22 C12 1.476 1_655 S
C22 N17 1.318 . S
C22 C21 1.396 . S
H23 C18 0.929 . S
O24 Mn0 2.385 . S
O24 C2 1.234 . S
O25 Mn0 2.209 . S
O25 Mn1 2.215 . S
O25 C2 1.283 . S
O26 Mn0 2.094 1_655 S
O26 C4 1.240 . S
O27 Mn1 2.117 1_655 S
O27 C4 1.264 . S
C28 C21 1.403 . S
C28 C29 1.399 1_655 S
C28 H34 0.929 . S
C29 C9 1.449 . S
C29 C28 1.399 1_455 S
C29 H35 0.930 . S
H30 C10 0.931 . S
H31 C11 0.930 . S
H32 C19 0.931 . S
H33 C20 0.929 . S
H34 C28 0.929 . S
H35 C29 0.930 . S
Mn36 O41 2.095 . S
Mn36 O51 2.162 . S
Mn36 O52 2.297 . S
Mn36 O60 2.385 . S
Mn36 O61 2.209 . S
Mn36 O62 2.094 1_545 S
Mn37 O42 2.121 . S
Mn37 N44 2.257 . S
Mn37 N53 2.282 1_545 S
Mn37 O61 2.215 . S
Mn37 O63 2.117 1_545 S
C38 O60 1.234 . S
C38 O61 1.283 . S
C39 O51 1.281 . S
C39 O52 1.236 . S
C40 O62 1.240 . S
C40 O63 1.264 . S
O41 Mn36 2.095 . S
O41 C50 1.250 . S
O42 Mn37 2.121 . S
O42 C50 1.258 . S
C43 N44 1.326 . S
C43 C47 1.460 . S
C43 H49 0.929 . S
N44 Mn37 2.257 . S
N44 C43 1.326 . S
N44 C48 1.362 . S
C45 C46 1.258 . S
C45 C48 1.431 . S
C45 C65 1.449 . S
C46 C45 1.258 . S
C46 C47 1.477 . S
C46 H66 0.931 . S
C47 C43 1.460 . S
C47 C46 1.477 . S
C47 H67 0.930 . S
C48 N44 1.362 . S
C48 C45 1.431 . S
C48 C58 1.476 1_545 S
H49 C43 0.929 . S
C50 O41 1.250 . S
C50 O42 1.258 . S
O51 Mn36 2.162 . S
O51 C39 1.281 . S
O52 Mn36 2.297 . S
O52 C39 1.236 . S
N53 Mn37 2.282 1_565 S
N53 C54 1.328 . S
N53 C58 1.318 . S
C54 N53 1.328 . S
C54 C55 1.457 . S
C54 H59 0.929 . S
C55 C54 1.457 . S
C55 C56 1.291 . S
C55 H68 0.931 . S
C56 C55 1.291 . S
C56 C57 1.373 . S
C56 H69 0.929 . S
C57 C56 1.373 . S
C57 C58 1.396 . S
C57 C64 1.403 . S
C58 C48 1.476 1_565 S
C58 N53 1.318 . S
C58 C57 1.396 . S
H59 C54 0.929 . S
O60 Mn36 2.385 . S
O60 C38 1.234 . S
O61 Mn36 2.209 . S
O61 Mn37 2.215 . S
O61 C38 1.283 . S
O62 Mn36 2.094 1_565 S
O62 C40 1.240 . S
O63 Mn37 2.117 1_565 S
O63 C40 1.264 . S
C64 C57 1.403 . S
C64 C65 1.399 1_565 S
C64 H70 0.929 . S
C65 C45 1.449 . S
C65 C64 1.399 1_545 S
C65 H71 0.930 . S
H66 C46 0.931 . S
H67 C47 0.930 . S
H68 C55 0.931 . S
H69 C56 0.929 . S
H70 C64 0.929 . S
H71 C65 0.930 . S
Mn72 O77 2.095 . S
Mn72 O87 2.162 . S
Mn72 O88 2.297 . S
Mn72 O96 2.385 . S
Mn72 O97 2.209 . S
Mn72 O98 2.094 1_655 S
Mn73 O78 2.121 . S
Mn73 N80 2.257 . S
Mn73 N89 2.282 1_655 S
Mn73 O97 2.215 . S
Mn73 O99 2.117 1_655 S
C74 O96 1.234 . S
C74 O97 1.283 . S
C75 O87 1.281 . S
C75 O88 1.236 . S
C76 O98 1.240 . S
C76 O99 1.264 . S
O77 Mn72 2.095 . S
O77 C86 1.250 . S
O78 Mn73 2.121 . S
O78 C86 1.258 . S
C79 N80 1.326 . S
C79 C83 1.460 . S
C79 H85 0.929 . S
N80 Mn73 2.257 . S
N80 C79 1.326 . S
N80 C84 1.362 . S
C81 C82 1.258 . S
C81 C84 1.431 . S
C81 C101 1.449 . S
C82 C81 1.258 . S
C82 C83 1.477 . S
C82 H102 0.931 . S
C83 C79 1.460 . S
C83 C82 1.477 . S
C83 H103 0.930 . S
C84 N80 1.362 . S
C84 C81 1.431 . S
C84 C94 1.476 1_655 S
H85 C79 0.929 . S
C86 O77 1.250 . S
C86 O78 1.258 . S
O87 Mn72 2.162 . S
O87 C75 1.281 . S
O88 Mn72 2.297 . S
O88 C75 1.236 . S
N89 Mn73 2.282 1_455 S
N89 C90 1.328 . S
N89 C94 1.318 . S
C90 N89 1.328 . S
C90 C91 1.457 . S
C90 H95 0.929 . S
C91 C90 1.457 . S
C91 C92 1.291 . S
C91 H104 0.931 . S
C92 C91 1.291 . S
C92 C93 1.373 . S
C92 H105 0.929 . S
C93 C92 1.373 . S
C93 C94 1.396 . S
C93 C100 1.403 . S
C94 C84 1.476 1_455 S
C94 N89 1.318 . S
C94 C93 1.396 . S
H95 C90 0.929 . S
O96 Mn72 2.385 . S
O96 C74 1.234 . S
O97 Mn72 2.209 . S
O97 Mn73 2.215 . S
O97 C74 1.283 . S
O98 Mn72 2.094 1_455 S
O98 C76 1.240 . S
O99 Mn73 2.117 1_455 S
O99 C76 1.264 . S
C100 C93 1.403 . S
C100 C101 1.399 1_455 S
C100 H106 0.929 . S
C101 C81 1.449 . S
C101 C100 1.399 1_655 S
C101 H107 0.930 . S
H102 C82 0.931 . S
H103 C83 0.930 . S
H104 C91 0.931 . S
H105 C92 0.929 . S
H106 C100 0.929 . S
H107 C101 0.930 . S
Mn108 O113 2.095 . S
Mn108 O123 2.162 . S
Mn108 O124 2.297 . S
Mn108 O132 2.385 . S
Mn108 O133 2.209 . S
Mn108 O134 2.094 1_565 S
Mn109 O114 2.121 . S
Mn109 N116 2.257 . S
Mn109 N125 2.282 1_565 S
Mn109 O133 2.215 . S
Mn109 O135 2.117 1_565 S
C110 O132 1.234 . S
C110 O133 1.283 . S
C111 O123 1.281 . S
C111 O124 1.236 . S
C112 O134 1.240 . S
C112 O135 1.264 . S
O113 Mn108 2.095 . S
O113 C122 1.250 . S
O114 Mn109 2.121 . S
O114 C122 1.258 . S
C115 N116 1.326 . S
C115 C119 1.460 . S
C115 H121 0.929 . S
N116 Mn109 2.257 . S
N116 C115 1.326 . S
N116 C120 1.362 . S
C117 C118 1.258 . S
C117 C120 1.431 . S
C117 C137 1.449 . S
C118 C117 1.258 . S
C118 C119 1.477 . S
C118 H138 0.931 . S
C119 C115 1.460 . S
C119 C118 1.477 . S
C119 H139 0.930 . S
C120 N116 1.362 . S
C120 C117 1.431 . S
C120 C130 1.476 1_565 S
H121 C115 0.929 . S
C122 O113 1.250 . S
C122 O114 1.258 . S
O123 Mn108 2.162 . S
O123 C111 1.281 . S
O124 Mn108 2.297 . S
O124 C111 1.236 . S
N125 Mn109 2.282 1_545 S
N125 C126 1.328 . S
N125 C130 1.318 . S
C126 N125 1.328 . S
C126 C127 1.457 . S
C126 H131 0.929 . S
C127 C126 1.457 . S
C127 C128 1.291 . S
C127 H140 0.931 . S
C128 C127 1.291 . S
C128 C129 1.373 . S
C128 H141 0.929 . S
C129 C128 1.373 . S
C129 C130 1.396 . S
C129 C136 1.403 . S
C130 C120 1.476 1_545 S
C130 N125 1.318 . S
C130 C129 1.396 . S
H131 C126 0.929 . S
O132 Mn108 2.385 . S
O132 C110 1.234 . S
O133 Mn108 2.209 . S
O133 Mn109 2.215 . S
O133 C110 1.283 . S
O134 Mn108 2.094 1_545 S
O134 C112 1.240 . S
O135 Mn109 2.117 1_545 S
O135 C112 1.264 . S
C136 C129 1.403 . S
C136 C137 1.399 1_545 S
C136 H142 0.929 . S
C137 C117 1.449 . S
C137 C136 1.399 1_565 S
C137 H143 0.930 . S
H138 C118 0.931 . S
H139 C119 0.930 . S
H140 C127 0.931 . S
H141 C128 0.929 . S
H142 C136 0.929 . S
H143 C137 0.930 . S
Mn144 O149 2.095 . S
Mn144 O159 2.162 . S
Mn144 O160 2.297 . S
Mn144 O168 2.385 . S
Mn144 O169 2.209 . S
Mn144 O170 2.094 1_455 S
Mn145 O150 2.121 . S
Mn145 N152 2.257 . S
Mn145 N161 2.282 1_455 S
Mn145 O169 2.215 . S
Mn145 O171 2.117 1_455 S
C146 O168 1.234 . S
C146 O169 1.283 . S
C147 O159 1.281 . S
C147 O160 1.236 . S
C148 O170 1.240 . S
C148 O171 1.264 . S
O149 Mn144 2.095 . S
O149 C158 1.250 . S
O150 Mn145 2.121 . S
O150 C158 1.258 . S
C151 N152 1.326 . S
C151 C155 1.460 . S
C151 H157 0.929 . S
N152 Mn145 2.257 . S
N152 C151 1.326 . S
N152 C156 1.362 . S
C153 C154 1.258 . S
C153 C156 1.431 . S
C153 C173 1.449 . S
C154 C153 1.258 . S
C154 C155 1.477 . S
C154 H174 0.931 . S
C155 C151 1.460 . S
C155 C154 1.477 . S
C155 H175 0.930 . S
C156 N152 1.362 . S
C156 C153 1.431 . S
C156 C166 1.476 1_455 S
H157 C151 0.929 . S
C158 O149 1.250 . S
C158 O150 1.258 . S
O159 Mn144 2.162 . S
O159 C147 1.281 . S
O160 Mn144 2.297 . S
O160 C147 1.236 . S
N161 Mn145 2.282 1_655 S
N161 C162 1.328 . S
N161 C166 1.318 . S
C162 N161 1.328 . S
C162 C163 1.457 . S
C162 H167 0.929 . S
C163 C162 1.457 . S
C163 C164 1.291 . S
C163 H176 0.931 . S
C164 C163 1.291 . S
C164 C165 1.373 . S
C164 H177 0.929 . S
C165 C164 1.373 . S
C165 C166 1.396 . S
C165 C172 1.403 . S
C166 C156 1.476 1_655 S
C166 N161 1.318 . S
C166 C165 1.396 . S
H167 C162 0.929 . S
O168 Mn144 2.385 . S
O168 C146 1.234 . S
O169 Mn144 2.209 . S
O169 Mn145 2.215 . S
O169 C146 1.283 . S
O170 Mn144 2.094 1_655 S
O170 C148 1.240 . S
O171 Mn145 2.117 1_655 S
O171 C148 1.264 . S
C172 C165 1.403 . S
C172 C173 1.399 1_655 S
C172 H178 0.929 . S
C173 C153 1.449 . S
C173 C172 1.399 1_455 S
C173 H179 0.930 . S
H174 C154 0.931 . S
H175 C155 0.930 . S
H176 C163 0.931 . S
H177 C164 0.929 . S
H178 C172 0.929 . S
H179 C173 0.930 . S
Mn180 O185 2.095 . S
Mn180 O195 2.162 . S
Mn180 O196 2.297 . S
Mn180 O204 2.385 . S
Mn180 O205 2.209 . S
Mn180 O206 2.094 1_545 S
Mn181 O186 2.121 . S
Mn181 N188 2.257 . S
Mn181 N197 2.282 1_545 S
Mn181 O205 2.215 . S
Mn181 O207 2.117 1_545 S
C182 O204 1.234 . S
C182 O205 1.283 . S
C183 O195 1.281 . S
C183 O196 1.236 . S
C184 O206 1.240 . S
C184 O207 1.264 . S
O185 Mn180 2.095 . S
O185 C194 1.250 . S
O186 Mn181 2.121 . S
O186 C194 1.258 . S
C187 N188 1.326 . S
C187 C191 1.460 . S
C187 H193 0.929 . S
N188 Mn181 2.257 . S
N188 C187 1.326 . S
N188 C192 1.362 . S
C189 C190 1.258 . S
C189 C192 1.431 . S
C189 C209 1.449 . S
C190 C189 1.258 . S
C190 C191 1.477 . S
C190 H210 0.931 . S
C191 C187 1.460 . S
C191 C190 1.477 . S
C191 H211 0.930 . S
C192 N188 1.362 . S
C192 C189 1.431 . S
C192 C202 1.476 1_545 S
H193 C187 0.929 . S
C194 O185 1.250 . S
C194 O186 1.258 . S
O195 Mn180 2.162 . S
O195 C183 1.281 . S
O196 Mn180 2.297 . S
O196 C183 1.236 . S
N197 Mn181 2.282 1_565 S
N197 C198 1.328 . S
N197 C202 1.318 . S
C198 N197 1.328 . S
C198 C199 1.457 . S
C198 H203 0.929 . S
C199 C198 1.457 . S
C199 C200 1.291 . S
C199 H212 0.931 . S
C200 C199 1.291 . S
C200 C201 1.373 . S
C200 H213 0.929 . S
C201 C200 1.373 . S
C201 C202 1.396 . S
C201 C208 1.403 . S
C202 C192 1.476 1_565 S
C202 N197 1.318 . S
C202 C201 1.396 . S
H203 C198 0.929 . S
O204 Mn180 2.385 . S
O204 C182 1.234 . S
O205 Mn180 2.209 . S
O205 Mn181 2.215 . S
O205 C182 1.283 . S
O206 Mn180 2.094 1_565 S
O206 C184 1.240 . S
O207 Mn181 2.117 1_565 S
O207 C184 1.264 . S
C208 C201 1.403 . S
C208 C209 1.399 1_565 S
C208 H214 0.929 . S
C209 C189 1.449 . S
C209 C208 1.399 1_545 S
C209 H215 0.930 . S
H210 C190 0.931 . S
H211 C191 0.930 . S
H212 C199 0.931 . S
H213 C200 0.929 . S
H214 C208 0.929 . S
H215 C209 0.930 . S
Mn216 O221 2.095 . S
Mn216 O231 2.162 . S
Mn216 O232 2.297 . S
Mn216 O240 2.385 . S
Mn216 O241 2.209 . S
Mn216 O242 2.094 1_655 S
Mn217 O222 2.121 . S
Mn217 N224 2.257 . S
Mn217 N233 2.282 1_655 S
Mn217 O241 2.215 . S
Mn217 O243 2.117 1_655 S
C218 O240 1.234 . S
C218 O241 1.283 . S
C219 O231 1.281 . S
C219 O232 1.236 . S
C220 O242 1.240 . S
C220 O243 1.264 . S
O221 Mn216 2.095 . S
O221 C230 1.250 . S
O222 Mn217 2.121 . S
O222 C230 1.258 . S
C223 N224 1.326 . S
C223 C227 1.460 . S
C223 H229 0.929 . S
N224 Mn217 2.257 . S
N224 C223 1.326 . S
N224 C228 1.362 . S
C225 C226 1.258 . S
C225 C228 1.431 . S
C225 C245 1.449 . S
C226 C225 1.258 . S
C226 C227 1.477 . S
C226 H246 0.931 . S
C227 C223 1.460 . S
C227 C226 1.477 . S
C227 H247 0.930 . S
C228 N224 1.362 . S
C228 C225 1.431 . S
C228 C238 1.476 1_655 S
H229 C223 0.929 . S
C230 O221 1.250 . S
C230 O222 1.258 . S
O231 Mn216 2.162 . S
O231 C219 1.281 . S
O232 Mn216 2.297 . S
O232 C219 1.236 . S
N233 Mn217 2.282 1_455 S
N233 C234 1.328 . S
N233 C238 1.318 . S
C234 N233 1.328 . S
C234 C235 1.457 . S
C234 H239 0.929 . S
C235 C234 1.457 . S
C235 C236 1.291 . S
C235 H248 0.931 . S
C236 C235 1.291 . S
C236 C237 1.373 . S
C236 H249 0.929 . S
C237 C236 1.373 . S
C237 C238 1.396 . S
C237 C244 1.403 . S
C238 C228 1.476 1_455 S
C238 N233 1.318 . S
C238 C237 1.396 . S
H239 C234 0.929 . S
O240 Mn216 2.385 . S
O240 C218 1.234 . S
O241 Mn216 2.209 . S
O241 Mn217 2.215 . S
O241 C218 1.283 . S
O242 Mn216 2.094 1_455 S
O242 C220 1.240 . S
O243 Mn217 2.117 1_455 S
O243 C220 1.264 . S
C244 C237 1.403 . S
C244 C245 1.399 1_455 S
C244 H250 0.929 . S
C245 C225 1.449 . S
C245 C244 1.399 1_655 S
C245 H251 0.930 . S
H246 C226 0.931 . S
H247 C227 0.930 . S
H248 C235 0.931 . S
H249 C236 0.929 . S
H250 C244 0.929 . S
H251 C245 0.930 . S
Mn252 O257 2.095 . S
Mn252 O267 2.162 . S
Mn252 O268 2.297 . S
Mn252 O276 2.385 . S
Mn252 O277 2.209 . S
Mn252 O278 2.094 1_565 S
Mn253 O258 2.121 . S
Mn253 N260 2.257 . S
Mn253 N269 2.282 1_565 S
Mn253 O277 2.215 . S
Mn253 O279 2.117 1_565 S
C254 O276 1.234 . S
C254 O277 1.283 . S
C255 O267 1.281 . S
C255 O268 1.236 . S
C256 O278 1.240 . S
C256 O279 1.264 . S
O257 Mn252 2.095 . S
O257 C266 1.250 . S
O258 Mn253 2.121 . S
O258 C266 1.258 . S
C259 N260 1.326 . S
C259 C263 1.460 . S
C259 H265 0.929 . S
N260 Mn253 2.257 . S
N260 C259 1.326 . S
N260 C264 1.362 . S
C261 C262 1.258 . S
C261 C264 1.431 . S
C261 C281 1.449 . S
C262 C261 1.258 . S
C262 C263 1.477 . S
C262 H282 0.931 . S
C263 C259 1.460 . S
C263 C262 1.477 . S
C263 H283 0.930 . S
C264 N260 1.362 . S
C264 C261 1.431 . S
C264 C274 1.476 1_565 S
H265 C259 0.929 . S
C266 O257 1.250 . S
C266 O258 1.258 . S
O267 Mn252 2.162 . S
O267 C255 1.281 . S
O268 Mn252 2.297 . S
O268 C255 1.236 . S
N269 Mn253 2.282 1_545 S
N269 C270 1.328 . S
N269 C274 1.318 . S
C270 N269 1.328 . S
C270 C271 1.457 . S
C270 H275 0.929 . S
C271 C270 1.457 . S
C271 C272 1.291 . S
C271 H284 0.931 . S
C272 C271 1.291 . S
C272 C273 1.373 . S
C272 H285 0.929 . S
C273 C272 1.373 . S
C273 C274 1.396 . S
C273 C280 1.403 . S
C274 C264 1.476 1_545 S
C274 N269 1.318 . S
C274 C273 1.396 . S
H275 C270 0.929 . S
O276 Mn252 2.385 . S
O276 C254 1.234 . S
O277 Mn252 2.209 . S
O277 Mn253 2.215 . S
O277 C254 1.283 . S
O278 Mn252 2.094 1_545 S
O278 C256 1.240 . S
O279 Mn253 2.117 1_545 S
O279 C256 1.264 . S
C280 C273 1.403 . S
C280 C281 1.399 1_545 S
C280 H286 0.929 . S
C281 C261 1.449 . S
C281 C280 1.399 1_565 S
C281 H287 0.930 . S
H282 C262 0.931 . S
H283 C263 0.930 . S
H284 C271 0.931 . S
H285 C272 0.929 . S
H286 C280 0.929 . S
H287 C281 0.930 . S
Mn288 O293 2.095 . S
Mn288 O303 2.162 . S
Mn288 O304 2.297 . S
Mn288 O312 2.385 . S
Mn288 O313 2.209 . S
Mn288 O314 2.094 1_545 S
Mn289 O294 2.121 . S
Mn289 N296 2.257 . S
Mn289 N305 2.282 1_545 S
Mn289 O313 2.215 . S
Mn289 O315 2.117 1_545 S
C290 O312 1.234 . S
C290 O313 1.283 . S
C291 O303 1.281 . S
C291 O304 1.236 . S
C292 O314 1.240 . S
C292 O315 1.264 . S
O293 Mn288 2.095 . S
O293 C302 1.250 . S
O294 Mn289 2.121 . S
O294 C302 1.258 . S
C295 N296 1.326 . S
C295 C299 1.460 . S
C295 H301 0.929 . S
N296 Mn289 2.257 . S
N296 C295 1.326 . S
N296 C300 1.362 . S
C297 C298 1.258 . S
C297 C300 1.431 . S
C297 C317 1.449 . S
C298 C297 1.258 . S
C298 C299 1.477 . S
C298 H318 0.931 . S
C299 C295 1.460 . S
C299 C298 1.477 . S
C299 H319 0.930 . S
C300 N296 1.362 . S
C300 C297 1.431 . S
C300 C310 1.476 1_545 S
H301 C295 0.929 . S
C302 O293 1.250 . S
C302 O294 1.258 . S
O303 Mn288 2.162 . S
O303 C291 1.281 . S
O304 Mn288 2.297 . S
O304 C291 1.236 . S
N305 Mn289 2.282 1_565 S
N305 C306 1.328 . S
N305 C310 1.318 . S
C306 N305 1.328 . S
C306 C307 1.457 . S
C306 H311 0.929 . S
C307 C306 1.457 . S
C307 C308 1.291 . S
C307 H320 0.931 . S
C308 C307 1.291 . S
C308 C309 1.373 . S
C308 H321 0.929 . S
C309 C308 1.373 . S
C309 C310 1.396 . S
C309 C316 1.403 . S
C310 C300 1.476 1_565 S
C310 N305 1.318 . S
C310 C309 1.396 . S
H311 C306 0.929 . S
O312 Mn288 2.385 . S
O312 C290 1.234 . S
O313 Mn288 2.209 . S
O313 Mn289 2.215 . S
O313 C290 1.283 . S
O314 Mn288 2.094 1_565 S
O314 C292 1.240 . S
O315 Mn289 2.117 1_565 S
O315 C292 1.264 . S
C316 C309 1.403 . S
C316 C317 1.399 1_565 S
C316 H322 0.929 . S
C317 C297 1.449 . S
C317 C316 1.399 1_545 S
C317 H323 0.930 . S
H318 C298 0.931 . S
H319 C299 0.930 . S
H320 C307 0.931 . S
H321 C308 0.929 . S
H322 C316 0.929 . S
H323 C317 0.930 . S
Mn324 O329 2.095 . S
Mn324 O339 2.162 . S
Mn324 O340 2.297 . S
Mn324 O348 2.385 . S
Mn324 O349 2.209 . S
Mn324 O350 2.094 1_655 S
Mn325 O330 2.121 . S
Mn325 N332 2.257 . S
Mn325 N341 2.282 1_655 S
Mn325 O349 2.215 . S
Mn325 O351 2.117 1_655 S
C326 O348 1.234 . S
C326 O349 1.283 . S
C327 O339 1.281 . S
C327 O340 1.236 . S
C328 O350 1.240 . S
C328 O351 1.264 . S
O329 Mn324 2.095 . S
O329 C338 1.250 . S
O330 Mn325 2.121 . S
O330 C338 1.258 . S
C331 N332 1.326 . S
C331 C335 1.460 . S
C331 H337 0.929 . S
N332 Mn325 2.257 . S
N332 C331 1.326 . S
N332 C336 1.362 . S
C333 C334 1.258 . S
C333 C336 1.431 . S
C333 C353 1.449 . S
C334 C333 1.258 . S
C334 C335 1.477 . S
C334 H354 0.931 . S
C335 C331 1.460 . S
C335 C334 1.477 . S
C335 H355 0.930 . S
C336 N332 1.362 . S
C336 C333 1.431 . S
C336 C346 1.476 1_655 S
H337 C331 0.929 . S
C338 O329 1.250 . S
C338 O330 1.258 . S
O339 Mn324 2.162 . S
O339 C327 1.281 . S
O340 Mn324 2.297 . S
O340 C327 1.236 . S
N341 Mn325 2.282 1_455 S
N341 C342 1.328 . S
N341 C346 1.318 . S
C342 N341 1.328 . S
C342 C343 1.457 . S
C342 H347 0.929 . S
C343 C342 1.457 . S
C343 C344 1.291 . S
C343 H356 0.931 . S
C344 C343 1.291 . S
C344 C345 1.373 . S
C344 H357 0.929 . S
C345 C344 1.373 . S
C345 C346 1.396 . S
C345 C352 1.403 . S
C346 C336 1.476 1_455 S
C346 N341 1.318 . S
C346 C345 1.396 . S
H347 C342 0.929 . S
O348 Mn324 2.385 . S
O348 C326 1.234 . S
O349 Mn324 2.209 . S
O349 Mn325 2.215 . S
O349 C326 1.283 . S
O350 Mn324 2.094 1_455 S
O350 C328 1.240 . S
O351 Mn325 2.117 1_455 S
O351 C328 1.264 . S
C352 C345 1.403 . S
C352 C353 1.399 1_455 S
C352 H358 0.929 . S
C353 C333 1.449 . S
C353 C352 1.399 1_655 S
C353 H359 0.930 . S
H354 C334 0.931 . S
H355 C335 0.930 . S
H356 C343 0.931 . S
H357 C344 0.929 . S
H358 C352 0.929 . S
H359 C353 0.930 . S
Mn360 O365 2.095 . S
Mn360 O375 2.162 . S
Mn360 O376 2.297 . S
Mn360 O384 2.385 . S
Mn360 O385 2.209 . S
Mn360 O386 2.094 1_565 S
Mn361 O366 2.121 . S
Mn361 N368 2.257 . S
Mn361 N377 2.282 1_565 S
Mn361 O385 2.215 . S
Mn361 O387 2.117 1_565 S
C362 O384 1.234 . S
C362 O385 1.283 . S
C363 O375 1.281 . S
C363 O376 1.236 . S
C364 O386 1.240 . S
C364 O387 1.264 . S
O365 Mn360 2.095 . S
O365 C374 1.250 . S
O366 Mn361 2.121 . S
O366 C374 1.258 . S
C367 N368 1.326 . S
C367 C371 1.460 . S
C367 H373 0.929 . S
N368 Mn361 2.257 . S
N368 C367 1.326 . S
N368 C372 1.362 . S
C369 C370 1.258 . S
C369 C372 1.431 . S
C369 C389 1.449 . S
C370 C369 1.258 . S
C370 C371 1.477 . S
C370 H390 0.931 . S
C371 C367 1.460 . S
C371 C370 1.477 . S
C371 H391 0.930 . S
C372 N368 1.362 . S
C372 C369 1.431 . S
C372 C382 1.476 1_565 S
H373 C367 0.929 . S
C374 O365 1.250 . S
C374 O366 1.258 . S
O375 Mn360 2.162 . S
O375 C363 1.281 . S
O376 Mn360 2.297 . S
O376 C363 1.236 . S
N377 Mn361 2.282 1_545 S
N377 C378 1.328 . S
N377 C382 1.318 . S
C378 N377 1.328 . S
C378 C379 1.457 . S
C378 H383 0.929 . S
C379 C378 1.457 . S
C379 C380 1.291 . S
C379 H392 0.931 . S
C380 C379 1.291 . S
C380 C381 1.373 . S
C380 H393 0.929 . S
C381 C380 1.373 . S
C381 C382 1.396 . S
C381 C388 1.403 . S
C382 C372 1.476 1_545 S
C382 N377 1.318 . S
C382 C381 1.396 . S
H383 C378 0.929 . S
O384 Mn360 2.385 . S
O384 C362 1.234 . S
O385 Mn360 2.209 . S
O385 Mn361 2.215 . S
O385 C362 1.283 . S
O386 Mn360 2.094 1_545 S
O386 C364 1.240 . S
O387 Mn361 2.117 1_545 S
O387 C364 1.264 . S
C388 C381 1.403 . S
C388 C389 1.399 1_545 S
C388 H394 0.929 . S
C389 C369 1.449 . S
C389 C388 1.399 1_565 S
C389 H395 0.930 . S
H390 C370 0.931 . S
H391 C371 0.930 . S
H392 C379 0.931 . S
H393 C380 0.929 . S
H394 C388 0.929 . S
H395 C389 0.930 . S
Mn396 O401 2.095 . S
Mn396 O411 2.162 . S
Mn396 O412 2.297 . S
Mn396 O420 2.385 . S
Mn396 O421 2.209 . S
Mn396 O422 2.094 1_455 S
Mn397 O402 2.121 . S
Mn397 N404 2.257 . S
Mn397 N413 2.282 1_455 S
Mn397 O421 2.215 . S
Mn397 O423 2.117 1_455 S
C398 O420 1.234 . S
C398 O421 1.283 . S
C399 O411 1.281 . S
C399 O412 1.236 . S
C400 O422 1.240 . S
C400 O423 1.264 . S
O401 Mn396 2.095 . S
O401 C410 1.250 . S
O402 Mn397 2.121 . S
O402 C410 1.258 . S
C403 N404 1.326 . S
C403 C407 1.460 . S
C403 H409 0.929 . S
N404 Mn397 2.257 . S
N404 C403 1.326 . S
N404 C408 1.362 . S
C405 C406 1.258 . S
C405 C408 1.431 . S
C405 C425 1.449 . S
C406 C405 1.258 . S
C406 C407 1.477 . S
C406 H426 0.931 . S
C407 C403 1.460 . S
C407 C406 1.477 . S
C407 H427 0.930 . S
C408 N404 1.362 . S
C408 C405 1.431 . S
C408 C418 1.476 1_455 S
H409 C403 0.929 . S
C410 O401 1.250 . S
C410 O402 1.258 . S
O411 Mn396 2.162 . S
O411 C399 1.281 . S
O412 Mn396 2.297 . S
O412 C399 1.236 . S
N413 Mn397 2.282 1_655 S
N413 C414 1.328 . S
N413 C418 1.318 . S
C414 N413 1.328 . S
C414 C415 1.457 . S
C414 H419 0.929 . S
C415 C414 1.457 . S
C415 C416 1.291 . S
C415 H428 0.931 . S
C416 C415 1.291 . S
C416 C417 1.373 . S
C416 H429 0.929 . S
C417 C416 1.373 . S
C417 C418 1.396 . S
C417 C424 1.403 . S
C418 C408 1.476 1_655 S
C418 N413 1.318 . S
C418 C417 1.396 . S
H419 C414 0.929 . S
O420 Mn396 2.385 . S
O420 C398 1.234 . S
O421 Mn396 2.209 . S
O421 Mn397 2.215 . S
O421 C398 1.283 . S
O422 Mn396 2.094 1_655 S
O422 C400 1.240 . S
O423 Mn397 2.117 1_655 S
O423 C400 1.264 . S
C424 C417 1.403 . S
C424 C425 1.399 1_655 S
C424 H430 0.929 . S
C425 C405 1.449 . S
C425 C424 1.399 1_455 S
C425 H431 0.930 . S
H426 C406 0.931 . S
H427 C407 0.930 . S
H428 C415 0.931 . S
H429 C416 0.929 . S
H430 C424 0.929 . S
H431 C425 0.930 . S
Mn432 O437 2.095 . S
Mn432 O447 2.162 . S
Mn432 O448 2.297 . S
Mn432 O456 2.385 . S
Mn432 O457 2.209 . S
Mn432 O458 2.094 1_565 S
Mn433 O438 2.121 . S
Mn433 N440 2.257 . S
Mn433 N449 2.282 1_565 S
Mn433 O457 2.215 . S
Mn433 O459 2.117 1_565 S
C434 O456 1.234 . S
C434 O457 1.283 . S
C435 O447 1.281 . S
C435 O448 1.236 . S
C436 O458 1.240 . S
C436 O459 1.264 . S
O437 Mn432 2.095 . S
O437 C446 1.250 . S
O438 Mn433 2.121 . S
O438 C446 1.258 . S
C439 N440 1.326 . S
C439 C443 1.460 . S
C439 H445 0.929 . S
N440 Mn433 2.257 . S
N440 C439 1.326 . S
N440 C444 1.362 . S
C441 C442 1.258 . S
C441 C444 1.431 . S
C441 C461 1.449 . S
C442 C441 1.258 . S
C442 C443 1.477 . S
C442 H462 0.931 . S
C443 C439 1.460 . S
C443 C442 1.477 . S
C443 H463 0.930 . S
C444 N440 1.362 . S
C444 C441 1.431 . S
C444 C454 1.476 1_565 S
H445 C439 0.929 . S
C446 O437 1.250 . S
C446 O438 1.258 . S
O447 Mn432 2.162 . S
O447 C435 1.281 . S
O448 Mn432 2.297 . S
O448 C435 1.236 . S
N449 Mn433 2.282 1_545 S
N449 C450 1.328 . S
N449 C454 1.318 . S
C450 N449 1.328 . S
C450 C451 1.457 . S
C450 H455 0.929 . S
C451 C450 1.457 . S
C451 C452 1.291 . S
C451 H464 0.931 . S
C452 C451 1.291 . S
C452 C453 1.373 . S
C452 H465 0.929 . S
C453 C452 1.373 . S
C453 C454 1.396 . S
C453 C460 1.403 . S
C454 C444 1.476 1_545 S
C454 N449 1.318 . S
C454 C453 1.396 . S
H455 C450 0.929 . S
O456 Mn432 2.385 . S
O456 C434 1.234 . S
O457 Mn432 2.209 . S
O457 Mn433 2.215 . S
O457 C434 1.283 . S
O458 Mn432 2.094 1_545 S
O458 C436 1.240 . S
O459 Mn433 2.117 1_545 S
O459 C436 1.264 . S
C460 C453 1.403 . S
C460 C461 1.399 1_545 S
C460 H466 0.929 . S
C461 C441 1.449 . S
C461 C460 1.399 1_565 S
C461 H467 0.930 . S
H462 C442 0.931 . S
H463 C443 0.930 . S
H464 C451 0.931 . S
H465 C452 0.929 . S
H466 C460 0.929 . S
H467 C461 0.930 . S
Mn468 O473 2.095 . S
Mn468 O483 2.162 . S
Mn468 O484 2.297 . S
Mn468 O492 2.385 . S
Mn468 O493 2.209 . S
Mn468 O494 2.094 1_455 S
Mn469 O474 2.121 . S
Mn469 N476 2.257 . S
Mn469 N485 2.282 1_455 S
Mn469 O493 2.215 . S
Mn469 O495 2.117 1_455 S
C470 O492 1.234 . S
C470 O493 1.283 . S
C471 O483 1.281 . S
C471 O484 1.236 . S
C472 O494 1.240 . S
C472 O495 1.264 . S
O473 Mn468 2.095 . S
O473 C482 1.250 . S
O474 Mn469 2.121 . S
O474 C482 1.258 . S
C475 N476 1.326 . S
C475 C479 1.460 . S
C475 H481 0.929 . S
N476 Mn469 2.257 . S
N476 C475 1.326 . S
N476 C480 1.362 . S
C477 C478 1.258 . S
C477 C480 1.431 . S
C477 C497 1.449 . S
C478 C477 1.258 . S
C478 C479 1.477 . S
C478 H498 0.931 . S
C479 C475 1.460 . S
C479 C478 1.477 . S
C479 H499 0.930 . S
C480 N476 1.362 . S
C480 C477 1.431 . S
C480 C490 1.476 1_455 S
H481 C475 0.929 . S
C482 O473 1.250 . S
C482 O474 1.258 . S
O483 Mn468 2.162 . S
O483 C471 1.281 . S
O484 Mn468 2.297 . S
O484 C471 1.236 . S
N485 Mn469 2.282 1_655 S
N485 C486 1.328 . S
N485 C490 1.318 . S
C486 N485 1.328 . S
C486 C487 1.457 . S
C486 H491 0.929 . S
C487 C486 1.457 . S
C487 C488 1.291 . S
C487 H500 0.931 . S
C488 C487 1.291 . S
C488 C489 1.373 . S
C488 H501 0.929 . S
C489 C488 1.373 . S
C489 C490 1.396 . S
C489 C496 1.403 . S
C490 C480 1.476 1_655 S
C490 N485 1.318 . S
C490 C489 1.396 . S
H491 C486 0.929 . S
O492 Mn468 2.385 . S
O492 C470 1.234 . S
O493 Mn468 2.209 . S
O493 Mn469 2.215 . S
O493 C470 1.283 . S
O494 Mn468 2.094 1_655 S
O494 C472 1.240 . S
O495 Mn469 2.117 1_655 S
O495 C472 1.264 . S
C496 C489 1.403 . S
C496 C497 1.399 1_655 S
C496 H502 0.929 . S
C497 C477 1.449 . S
C497 C496 1.399 1_455 S
C497 H503 0.930 . S
H498 C478 0.931 . S
H499 C479 0.930 . S
H500 C487 0.931 . S
H501 C488 0.929 . S
H502 C496 0.929 . S
H503 C497 0.930 . S
Mn504 O509 2.095 . S
Mn504 O519 2.162 . S
Mn504 O520 2.297 . S
Mn504 O528 2.385 . S
Mn504 O529 2.209 . S
Mn504 O530 2.094 1_545 S
Mn505 O510 2.121 . S
Mn505 N512 2.257 . S
Mn505 N521 2.282 1_545 S
Mn505 O529 2.215 . S
Mn505 O531 2.117 1_545 S
C506 O528 1.234 . S
C506 O529 1.283 . S
C507 O519 1.281 . S
C507 O520 1.236 . S
C508 O530 1.240 . S
C508 O531 1.264 . S
O509 Mn504 2.095 . S
O509 C518 1.250 . S
O510 Mn505 2.121 . S
O510 C518 1.258 . S
C511 N512 1.326 . S
C511 C515 1.460 . S
C511 H517 0.929 . S
N512 Mn505 2.257 . S
N512 C511 1.326 . S
N512 C516 1.362 . S
C513 C514 1.258 . S
C513 C516 1.431 . S
C513 C533 1.449 . S
C514 C513 1.258 . S
C514 C515 1.477 . S
C514 H534 0.931 . S
C515 C511 1.460 . S
C515 C514 1.477 . S
C515 H535 0.930 . S
C516 N512 1.362 . S
C516 C513 1.431 . S
C516 C526 1.476 1_545 S
H517 C511 0.929 . S
C518 O509 1.250 . S
C518 O510 1.258 . S
O519 Mn504 2.162 . S
O519 C507 1.281 . S
O520 Mn504 2.297 . S
O520 C507 1.236 . S
N521 Mn505 2.282 1_565 S
N521 C522 1.328 . S
N521 C526 1.318 . S
C522 N521 1.328 . S
C522 C523 1.457 . S
C522 H527 0.929 . S
C523 C522 1.457 . S
C523 C524 1.291 . S
C523 H536 0.931 . S
C524 C523 1.291 . S
C524 C525 1.373 . S
C524 H537 0.929 . S
C525 C524 1.373 . S
C525 C526 1.396 . S
C525 C532 1.403 . S
C526 C516 1.476 1_565 S
C526 N521 1.318 . S
C526 C525 1.396 . S
H527 C522 0.929 . S
O528 Mn504 2.385 . S
O528 C506 1.234 . S
O529 Mn504 2.209 . S
O529 Mn505 2.215 . S
O529 C506 1.283 . S
O530 Mn504 2.094 1_565 S
O530 C508 1.240 . S
O531 Mn505 2.117 1_565 S
O531 C508 1.264 . S
C532 C525 1.403 . S
C532 C533 1.399 1_565 S
C532 H538 0.929 . S
C533 C513 1.449 . S
C533 C532 1.399 1_545 S
C533 H539 0.930 . S
H534 C514 0.931 . S
H535 C515 0.930 . S
H536 C523 0.931 . S
H537 C524 0.929 . S
H538 C532 0.929 . S
H539 C533 0.930 . S
Mn540 O545 2.095 . S
Mn540 O555 2.162 . S
Mn540 O556 2.297 . S
Mn540 O564 2.385 . S
Mn540 O565 2.209 . S
Mn540 O566 2.094 1_655 S
Mn541 O546 2.121 . S
Mn541 N548 2.257 . S
Mn541 N557 2.282 1_655 S
Mn541 O565 2.215 . S
Mn541 O567 2.117 1_655 S
C542 O564 1.234 . S
C542 O565 1.283 . S
C543 O555 1.281 . S
C543 O556 1.236 . S
C544 O566 1.240 . S
C544 O567 1.264 . S
O545 Mn540 2.095 . S
O545 C554 1.250 . S
O546 Mn541 2.121 . S
O546 C554 1.258 . S
C547 N548 1.326 . S
C547 C551 1.460 . S
C547 H553 0.929 . S
N548 Mn541 2.257 . S
N548 C547 1.326 . S
N548 C552 1.362 . S
C549 C550 1.258 . S
C549 C552 1.431 . S
C549 C569 1.449 . S
C550 C549 1.258 . S
C550 C551 1.477 . S
C550 H570 0.931 . S
C551 C547 1.460 . S
C551 C550 1.477 . S
C551 H571 0.930 . S
C552 N548 1.362 . S
C552 C549 1.431 . S
C552 C562 1.476 1_655 S
H553 C547 0.929 . S
C554 O545 1.250 . S
C554 O546 1.258 . S
O555 Mn540 2.162 . S
O555 C543 1.281 . S
O556 Mn540 2.297 . S
O556 C543 1.236 . S
N557 Mn541 2.282 1_455 S
N557 C558 1.328 . S
N557 C562 1.318 . S
C558 N557 1.328 . S
C558 C559 1.457 . S
C558 H563 0.929 . S
C559 C558 1.457 . S
C559 C560 1.291 . S
C559 H572 0.931 . S
C560 C559 1.291 . S
C560 C561 1.373 . S
C560 H573 0.929 . S
C561 C560 1.373 . S
C561 C562 1.396 . S
C561 C568 1.403 . S
C562 C552 1.476 1_455 S
C562 N557 1.318 . S
C562 C561 1.396 . S
H563 C558 0.929 . S
O564 Mn540 2.385 . S
O564 C542 1.234 . S
O565 Mn540 2.209 . S
O565 Mn541 2.215 . S
O565 C542 1.283 . S
O566 Mn540 2.094 1_455 S
O566 C544 1.240 . S
O567 Mn541 2.117 1_455 S
O567 C544 1.264 . S
C568 C561 1.403 . S
C568 C569 1.399 1_455 S
C568 H574 0.929 . S
C569 C549 1.449 . S
C569 C568 1.399 1_655 S
C569 H575 0.930 . S
H570 C550 0.931 . S
H571 C551 0.930 . S
H572 C559 0.931 . S
H573 C560 0.929 . S
H574 C568 0.929 . S
H575 C569 0.930 . S
Mn576 O581 2.095 . S
Mn576 O591 2.162 . S
Mn576 O592 2.297 . S
Mn576 O600 2.385 . S
Mn576 O601 2.209 . S
Mn576 O602 2.094 1_554 S
Mn577 O582 2.121 . S
Mn577 N584 2.257 . S
Mn577 N593 2.282 1_554 S
Mn577 O601 2.215 . S
Mn577 O603 2.117 1_554 S
C578 O600 1.234 . S
C578 O601 1.283 . S
C579 O591 1.281 . S
C579 O592 1.236 . S
C580 O602 1.240 . S
C580 O603 1.264 . S
O581 Mn576 2.095 . S
O581 C590 1.250 . S
O582 Mn577 2.121 . S
O582 C590 1.258 . S
C583 N584 1.326 . S
C583 C587 1.460 . S
C583 H589 0.929 . S
N584 Mn577 2.257 . S
N584 C583 1.326 . S
N584 C588 1.362 . S
C585 C586 1.258 . S
C585 C588 1.431 . S
C585 C605 1.449 . S
C586 C585 1.258 . S
C586 C587 1.477 . S
C586 H606 0.931 . S
C587 C583 1.460 . S
C587 C586 1.477 . S
C587 H607 0.930 . S
C588 N584 1.362 . S
C588 C585 1.431 . S
C588 C598 1.476 1_554 S
H589 C583 0.929 . S
C590 O581 1.250 . S
C590 O582 1.258 . S
O591 Mn576 2.162 . S
O591 C579 1.281 . S
O592 Mn576 2.297 . S
O592 C579 1.236 . S
N593 Mn577 2.282 1_556 S
N593 C594 1.328 . S
N593 C598 1.318 . S
C594 N593 1.328 . S
C594 C595 1.457 . S
C594 H599 0.929 . S
C595 C594 1.457 . S
C595 C596 1.291 . S
C595 H608 0.931 . S
C596 C595 1.291 . S
C596 C597 1.373 . S
C596 H609 0.929 . S
C597 C596 1.373 . S
C597 C598 1.396 . S
C597 C604 1.403 . S
C598 C588 1.476 1_556 S
C598 N593 1.318 . S
C598 C597 1.396 . S
H599 C594 0.929 . S
O600 Mn576 2.385 . S
O600 C578 1.234 . S
O601 Mn576 2.209 . S
O601 Mn577 2.215 . S
O601 C578 1.283 . S
O602 Mn576 2.094 1_556 S
O602 C580 1.240 . S
O603 Mn577 2.117 1_556 S
O603 C580 1.264 . S
C604 C597 1.403 . S
C604 C605 1.399 1_556 S
C604 H610 0.929 . S
C605 C585 1.449 . S
C605 C604 1.399 1_554 S
C605 H611 0.930 . S
H606 C586 0.931 . S
H607 C587 0.930 . S
H608 C595 0.931 . S
H609 C596 0.929 . S
H610 C604 0.929 . S
H611 C605 0.930 . S
Mn612 O617 2.095 . S
Mn612 O627 2.162 . S
Mn612 O628 2.297 . S
Mn612 O636 2.385 . S
Mn612 O637 2.209 . S
Mn612 O638 2.094 1_556 S
Mn613 O618 2.121 . S
Mn613 N620 2.257 . S
Mn613 N629 2.282 1_556 S
Mn613 O637 2.215 . S
Mn613 O639 2.117 1_556 S
C614 O636 1.234 . S
C614 O637 1.283 . S
C615 O627 1.281 . S
C615 O628 1.236 . S
C616 O638 1.240 . S
C616 O639 1.264 . S
O617 Mn612 2.095 . S
O617 C626 1.250 . S
O618 Mn613 2.121 . S
O618 C626 1.258 . S
C619 N620 1.326 . S
C619 C623 1.460 . S
C619 H625 0.929 . S
N620 Mn613 2.257 . S
N620 C619 1.326 . S
N620 C624 1.362 . S
C621 C622 1.258 . S
C621 C624 1.431 . S
C621 C641 1.449 . S
C622 C621 1.258 . S
C622 C623 1.477 . S
C622 H642 0.931 . S
C623 C619 1.460 . S
C623 C622 1.477 . S
C623 H643 0.930 . S
C624 N620 1.362 . S
C624 C621 1.431 . S
C624 C634 1.476 1_556 S
H625 C619 0.929 . S
C626 O617 1.250 . S
C626 O618 1.258 . S
O627 Mn612 2.162 . S
O627 C615 1.281 . S
O628 Mn612 2.297 . S
O628 C615 1.236 . S
N629 Mn613 2.282 1_554 S
N629 C630 1.328 . S
N629 C634 1.318 . S
C630 N629 1.328 . S
C630 C631 1.457 . S
C630 H635 0.929 . S
C631 C630 1.457 . S
C631 C632 1.291 . S
C631 H644 0.931 . S
C632 C631 1.291 . S
C632 C633 1.373 . S
C632 H645 0.929 . S
C633 C632 1.373 . S
C633 C634 1.396 . S
C633 C640 1.403 . S
C634 C624 1.476 1_554 S
C634 N629 1.318 . S
C634 C633 1.396 . S
H635 C630 0.929 . S
O636 Mn612 2.385 . S
O636 C614 1.234 . S
O637 Mn612 2.209 . S
O637 Mn613 2.215 . S
O637 C614 1.283 . S
O638 Mn612 2.094 1_554 S
O638 C616 1.240 . S
O639 Mn613 2.117 1_554 S
O639 C616 1.264 . S
C640 C633 1.403 . S
C640 C641 1.399 1_554 S
C640 H646 0.929 . S
C641 C621 1.449 . S
C641 C640 1.399 1_556 S
C641 H647 0.930 . S
H642 C622 0.931 . S
H643 C623 0.930 . S
H644 C631 0.931 . S
H645 C632 0.929 . S
H646 C640 0.929 . S
H647 C641 0.930 . S
Mn648 O653 2.095 . S
Mn648 O663 2.162 . S
Mn648 O664 2.297 . S
Mn648 O672 2.385 . S
Mn648 O673 2.209 . S
Mn648 O674 2.094 1_556 S
Mn649 O654 2.121 . S
Mn649 N656 2.257 . S
Mn649 N665 2.282 1_556 S
Mn649 O673 2.215 . S
Mn649 O675 2.117 1_556 S
C650 O672 1.234 . S
C650 O673 1.283 . S
C651 O663 1.281 . S
C651 O664 1.236 . S
C652 O674 1.240 . S
C652 O675 1.264 . S
O653 Mn648 2.095 . S
O653 C662 1.250 . S
O654 Mn649 2.121 . S
O654 C662 1.258 . S
C655 N656 1.326 . S
C655 C659 1.460 . S
C655 H661 0.929 . S
N656 Mn649 2.257 . S
N656 C655 1.326 . S
N656 C660 1.362 . S
C657 C658 1.258 . S
C657 C660 1.431 . S
C657 C677 1.449 . S
C658 C657 1.258 . S
C658 C659 1.477 . S
C658 H678 0.931 . S
C659 C655 1.460 . S
C659 C658 1.477 . S
C659 H679 0.930 . S
C660 N656 1.362 . S
C660 C657 1.431 . S
C660 C670 1.476 1_556 S
H661 C655 0.929 . S
C662 O653 1.250 . S
C662 O654 1.258 . S
O663 Mn648 2.162 . S
O663 C651 1.281 . S
O664 Mn648 2.297 . S
O664 C651 1.236 . S
N665 Mn649 2.282 1_554 S
N665 C666 1.328 . S
N665 C670 1.318 . S
C666 N665 1.328 . S
C666 C667 1.457 . S
C666 H671 0.929 . S
C667 C666 1.457 . S
C667 C668 1.291 . S
C667 H680 0.931 . S
C668 C667 1.291 . S
C668 C669 1.373 . S
C668 H681 0.929 . S
C669 C668 1.373 . S
C669 C670 1.396 . S
C669 C676 1.403 . S
C670 C660 1.476 1_554 S
C670 N665 1.318 . S
C670 C669 1.396 . S
H671 C666 0.929 . S
O672 Mn648 2.385 . S
O672 C650 1.234 . S
O673 Mn648 2.209 . S
O673 Mn649 2.215 . S
O673 C650 1.283 . S
O674 Mn648 2.094 1_554 S
O674 C652 1.240 . S
O675 Mn649 2.117 1_554 S
O675 C652 1.264 . S
C676 C669 1.403 . S
C676 C677 1.399 1_554 S
C676 H682 0.929 . S
C677 C657 1.449 . S
C677 C676 1.399 1_556 S
C677 H683 0.930 . S
H678 C658 0.931 . S
H679 C659 0.930 . S
H680 C667 0.931 . S
H681 C668 0.929 . S
H682 C676 0.929 . S
H683 C677 0.930 . S
Mn684 O689 2.095 . S
Mn684 O699 2.162 . S
Mn684 O700 2.297 . S
Mn684 O708 2.385 . S
Mn684 O709 2.209 . S
Mn684 O710 2.094 1_556 S
Mn685 O690 2.121 . S
Mn685 N692 2.257 . S
Mn685 N701 2.282 1_556 S
Mn685 O709 2.215 . S
Mn685 O711 2.117 1_556 S
C686 O708 1.234 . S
C686 O709 1.283 . S
C687 O699 1.281 . S
C687 O700 1.236 . S
C688 O710 1.240 . S
C688 O711 1.264 . S
O689 Mn684 2.095 . S
O689 C698 1.250 . S
O690 Mn685 2.121 . S
O690 C698 1.258 . S
C691 N692 1.326 . S
C691 C695 1.460 . S
C691 H697 0.929 . S
N692 Mn685 2.257 . S
N692 C691 1.326 . S
N692 C696 1.362 . S
C693 C694 1.258 . S
C693 C696 1.431 . S
C693 C713 1.449 . S
C694 C693 1.258 . S
C694 C695 1.477 . S
C694 H714 0.931 . S
C695 C691 1.460 . S
C695 C694 1.477 . S
C695 H715 0.930 . S
C696 N692 1.362 . S
C696 C693 1.431 . S
C696 C706 1.476 1_556 S
H697 C691 0.929 . S
C698 O689 1.250 . S
C698 O690 1.258 . S
O699 Mn684 2.162 . S
O699 C687 1.281 . S
O700 Mn684 2.297 . S
O700 C687 1.236 . S
N701 Mn685 2.282 1_554 S
N701 C702 1.328 . S
N701 C706 1.318 . S
C702 N701 1.328 . S
C702 C703 1.457 . S
C702 H707 0.929 . S
C703 C702 1.457 . S
C703 C704 1.291 . S
C703 H716 0.931 . S
C704 C703 1.291 . S
C704 C705 1.373 . S
C704 H717 0.929 . S
C705 C704 1.373 . S
C705 C706 1.396 . S
C705 C712 1.403 . S
C706 C696 1.476 1_554 S
C706 N701 1.318 . S
C706 C705 1.396 . S
H707 C702 0.929 . S
O708 Mn684 2.385 . S
O708 C686 1.234 . S
O709 Mn684 2.209 . S
O709 Mn685 2.215 . S
O709 C686 1.283 . S
O710 Mn684 2.094 1_554 S
O710 C688 1.240 . S
O711 Mn685 2.117 1_554 S
O711 C688 1.264 . S
C712 C705 1.403 . S
C712 C713 1.399 1_554 S
C712 H718 0.929 . S
C713 C693 1.449 . S
C713 C712 1.399 1_556 S
C713 H719 0.930 . S
H714 C694 0.931 . S
H715 C695 0.930 . S
H716 C703 0.931 . S
H717 C704 0.929 . S
H718 C712 0.929 . S
H719 C713 0.930 . S
Mn720 O725 2.095 . S
Mn720 O735 2.162 . S
Mn720 O736 2.297 . S
Mn720 O744 2.385 . S
Mn720 O745 2.209 . S
Mn720 O746 2.094 1_556 S
Mn721 O726 2.121 . S
Mn721 N728 2.257 . S
Mn721 N737 2.282 1_556 S
Mn721 O745 2.215 . S
Mn721 O747 2.117 1_556 S
C722 O744 1.234 . S
C722 O745 1.283 . S
C723 O735 1.281 . S
C723 O736 1.236 . S
C724 O746 1.240 . S
C724 O747 1.264 . S
O725 Mn720 2.095 . S
O725 C734 1.250 . S
O726 Mn721 2.121 . S
O726 C734 1.258 . S
C727 N728 1.326 . S
C727 C731 1.460 . S
C727 H733 0.929 . S
N728 Mn721 2.257 . S
N728 C727 1.326 . S
N728 C732 1.362 . S
C729 C730 1.258 . S
C729 C732 1.431 . S
C729 C749 1.449 . S
C730 C729 1.258 . S
C730 C731 1.477 . S
C730 H750 0.931 . S
C731 C727 1.460 . S
C731 C730 1.477 . S
C731 H751 0.930 . S
C732 N728 1.362 . S
C732 C729 1.431 . S
C732 C742 1.476 1_556 S
H733 C727 0.929 . S
C734 O725 1.250 . S
C734 O726 1.258 . S
O735 Mn720 2.162 . S
O735 C723 1.281 . S
O736 Mn720 2.297 . S
O736 C723 1.236 . S
N737 Mn721 2.282 1_554 S
N737 C738 1.328 . S
N737 C742 1.318 . S
C738 N737 1.328 . S
C738 C739 1.457 . S
C738 H743 0.929 . S
C739 C738 1.457 . S
C739 C740 1.291 . S
C739 H752 0.931 . S
C740 C739 1.291 . S
C740 C741 1.373 . S
C740 H753 0.929 . S
C741 C740 1.373 . S
C741 C742 1.396 . S
C741 C748 1.403 . S
C742 C732 1.476 1_554 S
C742 N737 1.318 . S
C742 C741 1.396 . S
H743 C738 0.929 . S
O744 Mn720 2.385 . S
O744 C722 1.234 . S
O745 Mn720 2.209 . S
O745 Mn721 2.215 . S
O745 C722 1.283 . S
O746 Mn720 2.094 1_554 S
O746 C724 1.240 . S
O747 Mn721 2.117 1_554 S
O747 C724 1.264 . S
C748 C741 1.403 . S
C748 C749 1.399 1_554 S
C748 H754 0.929 . S
C749 C729 1.449 . S
C749 C748 1.399 1_556 S
C749 H755 0.930 . S
H750 C730 0.931 . S
H751 C731 0.930 . S
H752 C739 0.931 . S
H753 C740 0.929 . S
H754 C748 0.929 . S
H755 C749 0.930 . S
Mn756 O761 2.095 . S
Mn756 O771 2.162 . S
Mn756 O772 2.297 . S
Mn756 O780 2.385 . S
Mn756 O781 2.209 . S
Mn756 O782 2.094 1_554 S
Mn757 O762 2.121 . S
Mn757 N764 2.257 . S
Mn757 N773 2.282 1_554 S
Mn757 O781 2.215 . S
Mn757 O783 2.117 1_554 S
C758 O780 1.234 . S
C758 O781 1.283 . S
C759 O771 1.281 . S
C759 O772 1.236 . S
C760 O782 1.240 . S
C760 O783 1.264 . S
O761 Mn756 2.095 . S
O761 C770 1.250 . S
O762 Mn757 2.121 . S
O762 C770 1.258 . S
C763 N764 1.326 . S
C763 C767 1.460 . S
C763 H769 0.929 . S
N764 Mn757 2.257 . S
N764 C763 1.326 . S
N764 C768 1.362 . S
C765 C766 1.258 . S
C765 C768 1.431 . S
C765 C785 1.449 . S
C766 C765 1.258 . S
C766 C767 1.477 . S
C766 H786 0.931 . S
C767 C763 1.460 . S
C767 C766 1.477 . S
C767 H787 0.930 . S
C768 N764 1.362 . S
C768 C765 1.431 . S
C768 C778 1.476 1_554 S
H769 C763 0.929 . S
C770 O761 1.250 . S
C770 O762 1.258 . S
O771 Mn756 2.162 . S
O771 C759 1.281 . S
O772 Mn756 2.297 . S
O772 C759 1.236 . S
N773 Mn757 2.282 1_556 S
N773 C774 1.328 . S
N773 C778 1.318 . S
C774 N773 1.328 . S
C774 C775 1.457 . S
C774 H779 0.929 . S
C775 C774 1.457 . S
C775 C776 1.291 . S
C775 H788 0.931 . S
C776 C775 1.291 . S
C776 C777 1.373 . S
C776 H789 0.929 . S
C777 C776 1.373 . S
C777 C778 1.396 . S
C777 C784 1.403 . S
C778 C768 1.476 1_556 S
C778 N773 1.318 . S
C778 C777 1.396 . S
H779 C774 0.929 . S
O780 Mn756 2.385 . S
O780 C758 1.234 . S
O781 Mn756 2.209 . S
O781 Mn757 2.215 . S
O781 C758 1.283 . S
O782 Mn756 2.094 1_556 S
O782 C760 1.240 . S
O783 Mn757 2.117 1_556 S
O783 C760 1.264 . S
C784 C777 1.403 . S
C784 C785 1.399 1_556 S
C784 H790 0.929 . S
C785 C765 1.449 . S
C785 C784 1.399 1_554 S
C785 H791 0.930 . S
H786 C766 0.931 . S
H787 C767 0.930 . S
H788 C775 0.931 . S
H789 C776 0.929 . S
H790 C784 0.929 . S
H791 C785 0.930 . S
Mn792 O797 2.095 . S
Mn792 O807 2.162 . S
Mn792 O808 2.297 . S
Mn792 O816 2.385 . S
Mn792 O817 2.209 . S
Mn792 O818 2.094 1_554 S
Mn793 O798 2.121 . S
Mn793 N800 2.257 . S
Mn793 N809 2.282 1_554 S
Mn793 O817 2.215 . S
Mn793 O819 2.117 1_554 S
C794 O816 1.234 . S
C794 O817 1.283 . S
C795 O807 1.281 . S
C795 O808 1.236 . S
C796 O818 1.240 . S
C796 O819 1.264 . S
O797 Mn792 2.095 . S
O797 C806 1.250 . S
O798 Mn793 2.121 . S
O798 C806 1.258 . S
C799 N800 1.326 . S
C799 C803 1.460 . S
C799 H805 0.929 . S
N800 Mn793 2.257 . S
N800 C799 1.326 . S
N800 C804 1.362 . S
C801 C802 1.258 . S
C801 C804 1.431 . S
C801 C821 1.449 . S
C802 C801 1.258 . S
C802 C803 1.477 . S
C802 H822 0.931 . S
C803 C799 1.460 . S
C803 C802 1.477 . S
C803 H823 0.930 . S
C804 N800 1.362 . S
C804 C801 1.431 . S
C804 C814 1.476 1_554 S
H805 C799 0.929 . S
C806 O797 1.250 . S
C806 O798 1.258 . S
O807 Mn792 2.162 . S
O807 C795 1.281 . S
O808 Mn792 2.297 . S
O808 C795 1.236 . S
N809 Mn793 2.282 1_556 S
N809 C810 1.328 . S
N809 C814 1.318 . S
C810 N809 1.328 . S
C810 C811 1.457 . S
C810 H815 0.929 . S
C811 C810 1.457 . S
C811 C812 1.291 . S
C811 H824 0.931 . S
C812 C811 1.291 . S
C812 C813 1.373 . S
C812 H825 0.929 . S
C813 C812 1.373 . S
C813 C814 1.396 . S
C813 C820 1.403 . S
C814 C804 1.476 1_556 S
C814 N809 1.318 . S
C814 C813 1.396 . S
H815 C810 0.929 . S
O816 Mn792 2.385 . S
O816 C794 1.234 . S
O817 Mn792 2.209 . S
O817 Mn793 2.215 . S
O817 C794 1.283 . S
O818 Mn792 2.094 1_556 S
O818 C796 1.240 . S
O819 Mn793 2.117 1_556 S
O819 C796 1.264 . S
C820 C813 1.403 . S
C820 C821 1.399 1_556 S
C820 H826 0.929 . S
C821 C801 1.449 . S
C821 C820 1.399 1_554 S
C821 H827 0.930 . S
H822 C802 0.931 . S
H823 C803 0.930 . S
H824 C811 0.931 . S
H825 C812 0.929 . S
H826 C820 0.929 . S
H827 C821 0.930 . S
Mn828 O833 2.095 . S
Mn828 O843 2.162 . S
Mn828 O844 2.297 . S
Mn828 O852 2.385 . S
Mn828 O853 2.209 . S
Mn828 O854 2.094 1_554 S
Mn829 O834 2.121 . S
Mn829 N836 2.257 . S
Mn829 N845 2.282 1_554 S
Mn829 O853 2.215 . S
Mn829 O855 2.117 1_554 S
C830 O852 1.234 . S
C830 O853 1.283 . S
C831 O843 1.281 . S
C831 O844 1.236 . S
C832 O854 1.240 . S
C832 O855 1.264 . S
O833 Mn828 2.095 . S
O833 C842 1.250 . S
O834 Mn829 2.121 . S
O834 C842 1.258 . S
C835 N836 1.326 . S
C835 C839 1.460 . S
C835 H841 0.929 . S
N836 Mn829 2.257 . S
N836 C835 1.326 . S
N836 C840 1.362 . S
C837 C838 1.258 . S
C837 C840 1.431 . S
C837 C857 1.449 . S
C838 C837 1.258 . S
C838 C839 1.477 . S
C838 H858 0.931 . S
C839 C835 1.460 . S
C839 C838 1.477 . S
C839 H859 0.930 . S
C840 N836 1.362 . S
C840 C837 1.431 . S
C840 C850 1.476 1_554 S
H841 C835 0.929 . S
C842 O833 1.250 . S
C842 O834 1.258 . S
O843 Mn828 2.162 . S
O843 C831 1.281 . S
O844 Mn828 2.297 . S
O844 C831 1.236 . S
N845 Mn829 2.282 1_556 S
N845 C846 1.328 . S
N845 C850 1.318 . S
C846 N845 1.328 . S
C846 C847 1.457 . S
C846 H851 0.929 . S
C847 C846 1.457 . S
C847 C848 1.291 . S
C847 H860 0.931 . S
C848 C847 1.291 . S
C848 C849 1.373 . S
C848 H861 0.929 . S
C849 C848 1.373 . S
C849 C850 1.396 . S
C849 C856 1.403 . S
C850 C840 1.476 1_556 S
C850 N845 1.318 . S
C850 C849 1.396 . S
H851 C846 0.929 . S
O852 Mn828 2.385 . S
O852 C830 1.234 . S
O853 Mn828 2.209 . S
O853 Mn829 2.215 . S
O853 C830 1.283 . S
O854 Mn828 2.094 1_556 S
O854 C832 1.240 . S
O855 Mn829 2.117 1_556 S
O855 C832 1.264 . S
C856 C849 1.403 . S
C856 C857 1.399 1_556 S
C856 H862 0.929 . S
C857 C837 1.449 . S
C857 C856 1.399 1_554 S
C857 H863 0.930 . S
H858 C838 0.931 . S
H859 C839 0.930 . S
H860 C847 0.931 . S
H861 C848 0.929 . S
H862 C856 0.929 . S
H863 C857 0.930 . S
Mn864 O869 2.095 . S
Mn864 O879 2.162 . S
Mn864 O880 2.297 . S
Mn864 O888 2.385 . S
Mn864 O889 2.209 . S
Mn864 O890 2.094 . S
Mn865 O870 2.121 . S
Mn865 N872 2.257 . S
Mn865 N881 2.282 . S
Mn865 O889 2.215 . S
Mn865 O891 2.117 . S
C866 O888 1.234 . S
C866 O889 1.283 . S
C867 O879 1.281 . S
C867 O880 1.236 . S
C868 O890 1.240 . S
C868 O891 1.264 . S
O869 Mn864 2.095 . S
O869 C878 1.250 . S
O870 Mn865 2.121 . S
O870 C878 1.258 . S
C871 N872 1.326 . S
C871 C875 1.460 . S
C871 H877 0.929 . S
N872 Mn865 2.257 . S
N872 C871 1.326 . S
N872 C876 1.362 . S
C873 C874 1.258 . S
C873 C876 1.431 . S
C873 C893 1.449 . S
C874 C873 1.258 . S
C874 C875 1.477 . S
C874 H894 0.931 . S
C875 C871 1.460 . S
C875 C874 1.477 . S
C875 H895 0.930 . S
C876 N872 1.362 . S
C876 C873 1.431 . S
C876 C886 1.476 . S
H877 C871 0.929 . S
C878 O869 1.250 . S
C878 O870 1.258 . S
O879 Mn864 2.162 . S
O879 C867 1.281 . S
O880 Mn864 2.297 . S
O880 C867 1.236 . S
N881 Mn865 2.282 . S
N881 C882 1.328 . S
N881 C886 1.318 . S
C882 N881 1.328 . S
C882 C883 1.457 . S
C882 H887 0.929 . S
C883 C882 1.457 . S
C883 C884 1.291 . S
C883 H896 0.931 . S
C884 C883 1.291 . S
C884 C885 1.373 . S
C884 H897 0.929 . S
C885 C884 1.373 . S
C885 C886 1.396 . S
C885 C892 1.403 . S
C886 C876 1.476 . S
C886 N881 1.318 . S
C886 C885 1.396 . S
H887 C882 0.929 . S
O888 Mn864 2.385 . S
O888 C866 1.234 . S
O889 Mn864 2.209 . S
O889 Mn865 2.215 . S
O889 C866 1.283 . S
O890 Mn864 2.094 . S
O890 C868 1.240 . S
O891 Mn865 2.117 . S
O891 C868 1.264 . S
C892 C885 1.403 . S
C892 C893 1.399 . S
C892 H898 0.929 . S
C893 C873 1.449 . S
C893 C892 1.399 . S
C893 H899 0.930 . S
H894 C874 0.931 . S
H895 C875 0.930 . S
H896 C883 0.931 . S
H897 C884 0.929 . S
H898 C892 0.929 . S
H899 C893 0.930 . S
Mn900 O905 2.095 . S
Mn900 O915 2.162 . S
Mn900 O916 2.297 . S
Mn900 O924 2.385 . S
Mn900 O925 2.209 . S
Mn900 O926 2.094 . S
Mn901 O906 2.121 . S
Mn901 N908 2.257 . S
Mn901 N917 2.282 . S
Mn901 O925 2.215 . S
Mn901 O927 2.117 . S
C902 O924 1.234 . S
C902 O925 1.283 . S
C903 O915 1.281 . S
C903 O916 1.236 . S
C904 O926 1.240 . S
C904 O927 1.264 . S
O905 Mn900 2.095 . S
O905 C914 1.250 . S
O906 Mn901 2.121 . S
O906 C914 1.258 . S
C907 N908 1.326 . S
C907 C911 1.460 . S
C907 H913 0.929 . S
N908 Mn901 2.257 . S
N908 C907 1.326 . S
N908 C912 1.362 . S
C909 C910 1.258 . S
C909 C912 1.431 . S
C909 C929 1.449 . S
C910 C909 1.258 . S
C910 C911 1.477 . S
C910 H930 0.931 . S
C911 C907 1.460 . S
C911 C910 1.477 . S
C911 H931 0.930 . S
C912 N908 1.362 . S
C912 C909 1.431 . S
C912 C922 1.476 . S
H913 C907 0.929 . S
C914 O905 1.250 . S
C914 O906 1.258 . S
O915 Mn900 2.162 . S
O915 C903 1.281 . S
O916 Mn900 2.297 . S
O916 C903 1.236 . S
N917 Mn901 2.282 . S
N917 C918 1.328 . S
N917 C922 1.318 . S
C918 N917 1.328 . S
C918 C919 1.457 . S
C918 H923 0.929 . S
C919 C918 1.457 . S
C919 C920 1.291 . S
C919 H932 0.931 . S
C920 C919 1.291 . S
C920 C921 1.373 . S
C920 H933 0.929 . S
C921 C920 1.373 . S
C921 C922 1.396 . S
C921 C928 1.403 . S
C922 C912 1.476 . S
C922 N917 1.318 . S
C922 C921 1.396 . S
H923 C918 0.929 . S
O924 Mn900 2.385 . S
O924 C902 1.234 . S
O925 Mn900 2.209 . S
O925 Mn901 2.215 . S
O925 C902 1.283 . S
O926 Mn900 2.094 . S
O926 C904 1.240 . S
O927 Mn901 2.117 . S
O927 C904 1.264 . S
C928 C921 1.403 . S
C928 C929 1.399 . S
C928 H934 0.929 . S
C929 C909 1.449 . S
C929 C928 1.399 . S
C929 H935 0.930 . S
H930 C910 0.931 . S
H931 C911 0.930 . S
H932 C919 0.931 . S
H933 C920 0.929 . S
H934 C928 0.929 . S
H935 C929 0.930 . S
Mn936 O941 2.095 . S
Mn936 O951 2.162 . S
Mn936 O952 2.297 . S
Mn936 O960 2.385 . S
Mn936 O961 2.209 . S
Mn936 O962 2.094 . S
Mn937 O942 2.121 . S
Mn937 N944 2.257 . S
Mn937 N953 2.282 . S
Mn937 O961 2.215 . S
Mn937 O963 2.117 . S
C938 O960 1.234 . S
C938 O961 1.283 . S
C939 O951 1.281 . S
C939 O952 1.236 . S
C940 O962 1.240 . S
C940 O963 1.264 . S
O941 Mn936 2.095 . S
O941 C950 1.250 . S
O942 Mn937 2.121 . S
O942 C950 1.258 . S
C943 N944 1.326 . S
C943 C947 1.460 . S
C943 H949 0.929 . S
N944 Mn937 2.257 . S
N944 C943 1.326 . S
N944 C948 1.362 . S
C945 C946 1.258 . S
C945 C948 1.431 . S
C945 C965 1.449 . S
C946 C945 1.258 . S
C946 C947 1.477 . S
C946 H966 0.931 . S
C947 C943 1.460 . S
C947 C946 1.477 . S
C947 H967 0.930 . S
C948 N944 1.362 . S
C948 C945 1.431 . S
C948 C958 1.476 . S
H949 C943 0.929 . S
C950 O941 1.250 . S
C950 O942 1.258 . S
O951 Mn936 2.162 . S
O951 C939 1.281 . S
O952 Mn936 2.297 . S
O952 C939 1.236 . S
N953 Mn937 2.282 . S
N953 C954 1.328 . S
N953 C958 1.318 . S
C954 N953 1.328 . S
C954 C955 1.457 . S
C954 H959 0.929 . S
C955 C954 1.457 . S
C955 C956 1.291 . S
C955 H968 0.931 . S
C956 C955 1.291 . S
C956 C957 1.373 . S
C956 H969 0.929 . S
C957 C956 1.373 . S
C957 C958 1.396 . S
C957 C964 1.403 . S
C958 C948 1.476 . S
C958 N953 1.318 . S
C958 C957 1.396 . S
H959 C954 0.929 . S
O960 Mn936 2.385 . S
O960 C938 1.234 . S
O961 Mn936 2.209 . S
O961 Mn937 2.215 . S
O961 C938 1.283 . S
O962 Mn936 2.094 . S
O962 C940 1.240 . S
O963 Mn937 2.117 . S
O963 C940 1.264 . S
C964 C957 1.403 . S
C964 C965 1.399 . S
C964 H970 0.929 . S
C965 C945 1.449 . S
C965 C964 1.399 . S
C965 H971 0.930 . S
H966 C946 0.931 . S
H967 C947 0.930 . S
H968 C955 0.931 . S
H969 C956 0.929 . S
H970 C964 0.929 . S
H971 C965 0.930 . S
Mn972 O977 2.095 . S
Mn972 O987 2.162 . S
Mn972 O988 2.297 . S
Mn972 O996 2.385 . S
Mn972 O997 2.209 . S
Mn972 O998 2.094 . S
Mn973 O978 2.121 . S
Mn973 N980 2.257 . S
Mn973 N989 2.282 . S
Mn973 O997 2.215 . S
Mn973 O999 2.117 . S
C974 O996 1.234 . S
C974 O997 1.283 . S
C975 O987 1.281 . S
C975 O988 1.236 . S
C976 O998 1.240 . S
C976 O999 1.264 . S
O977 Mn972 2.095 . S
O977 C986 1.250 . S
O978 Mn973 2.121 . S
O978 C986 1.258 . S
C979 N980 1.326 . S
C979 C983 1.460 . S
C979 H985 0.929 . S
N980 Mn973 2.257 . S
N980 C979 1.326 . S
N980 C984 1.362 . S
C981 C982 1.258 . S
C981 C984 1.431 . S
C981 C1001 1.449 . S
C982 C981 1.258 . S
C982 C983 1.477 . S
C982 H1002 0.931 . S
C983 C979 1.460 . S
C983 C982 1.477 . S
C983 H1003 0.930 . S
C984 N980 1.362 . S
C984 C981 1.431 . S
C984 C994 1.476 . S
H985 C979 0.929 . S
C986 O977 1.250 . S
C986 O978 1.258 . S
O987 Mn972 2.162 . S
O987 C975 1.281 . S
O988 Mn972 2.297 . S
O988 C975 1.236 . S
N989 Mn973 2.282 . S
N989 C990 1.328 . S
N989 C994 1.318 . S
C990 N989 1.328 . S
C990 C991 1.457 . S
C990 H995 0.929 . S
C991 C990 1.457 . S
C991 C992 1.291 . S
C991 H1004 0.931 . S
C992 C991 1.291 . S
C992 C993 1.373 . S
C992 H1005 0.929 . S
C993 C992 1.373 . S
C993 C994 1.396 . S
C993 C1000 1.403 . S
C994 C984 1.476 . S
C994 N989 1.318 . S
C994 C993 1.396 . S
H995 C990 0.929 . S
O996 Mn972 2.385 . S
O996 C974 1.234 . S
O997 Mn972 2.209 . S
O997 Mn973 2.215 . S
O997 C974 1.283 . S
O998 Mn972 2.094 . S
O998 C976 1.240 . S
O999 Mn973 2.117 . S
O999 C976 1.264 . S
C1000 C993 1.403 . S
C1000 C1001 1.399 . S
C1000 H1006 0.929 . S
C1001 C981 1.449 . S
C1001 C1000 1.399 . S
C1001 H1007 0.930 . S
H1002 C982 0.931 . S
H1003 C983 0.930 . S
H1004 C991 0.931 . S
H1005 C992 0.929 . S
H1006 C1000 0.929 . S
H1007 C1001 0.930 . S
Mn1008 O1013 2.095 . S
Mn1008 O1023 2.162 . S
Mn1008 O1024 2.297 . S
Mn1008 O1032 2.385 . S
Mn1008 O1033 2.209 . S
Mn1008 O1034 2.094 . S
Mn1009 O1014 2.121 . S
Mn1009 N1016 2.257 . S
Mn1009 N1025 2.282 . S
Mn1009 O1033 2.215 . S
Mn1009 O1035 2.117 . S
C1010 O1032 1.234 . S
C1010 O1033 1.283 . S
C1011 O1023 1.281 . S
C1011 O1024 1.236 . S
C1012 O1034 1.240 . S
C1012 O1035 1.264 . S
O1013 Mn1008 2.095 . S
O1013 C1022 1.250 . S
O1014 Mn1009 2.121 . S
O1014 C1022 1.258 . S
C1015 N1016 1.326 . S
C1015 C1019 1.460 . S
C1015 H1021 0.929 . S
N1016 Mn1009 2.257 . S
N1016 C1015 1.326 . S
N1016 C1020 1.362 . S
C1017 C1018 1.258 . S
C1017 C1020 1.431 . S
C1017 C1037 1.449 . S
C1018 C1017 1.258 . S
C1018 C1019 1.477 . S
C1018 H1038 0.931 . S
C1019 C1015 1.460 . S
C1019 C1018 1.477 . S
C1019 H1039 0.930 . S
C1020 N1016 1.362 . S
C1020 C1017 1.431 . S
C1020 C1030 1.476 . S
H1021 C1015 0.929 . S
C1022 O1013 1.250 . S
C1022 O1014 1.258 . S
O1023 Mn1008 2.162 . S
O1023 C1011 1.281 . S
O1024 Mn1008 2.297 . S
O1024 C1011 1.236 . S
N1025 Mn1009 2.282 . S
N1025 C1026 1.328 . S
N1025 C1030 1.318 . S
C1026 N1025 1.328 . S
C1026 C1027 1.457 . S
C1026 H1031 0.929 . S
C1027 C1026 1.457 . S
C1027 C1028 1.291 . S
C1027 H1040 0.931 . S
C1028 C1027 1.291 . S
C1028 C1029 1.373 . S
C1028 H1041 0.929 . S
C1029 C1028 1.373 . S
C1029 C1030 1.396 . S
C1029 C1036 1.403 . S
C1030 C1020 1.476 . S
C1030 N1025 1.318 . S
C1030 C1029 1.396 . S
H1031 C1026 0.929 . S
O1032 Mn1008 2.385 . S
O1032 C1010 1.234 . S
O1033 Mn1008 2.209 . S
O1033 Mn1009 2.215 . S
O1033 C1010 1.283 . S
O1034 Mn1008 2.094 . S
O1034 C1012 1.240 . S
O1035 Mn1009 2.117 . S
O1035 C1012 1.264 . S
C1036 C1029 1.403 . S
C1036 C1037 1.399 . S
C1036 H1042 0.929 . S
C1037 C1017 1.449 . S
C1037 C1036 1.399 . S
C1037 H1043 0.930 . S
H1038 C1018 0.931 . S
H1039 C1019 0.930 . S
H1040 C1027 0.931 . S
H1041 C1028 0.929 . S
H1042 C1036 0.929 . S
H1043 C1037 0.930 . S
Mn1044 O1049 2.095 . S
Mn1044 O1059 2.162 . S
Mn1044 O1060 2.297 . S
Mn1044 O1068 2.385 . S
Mn1044 O1069 2.209 . S
Mn1044 O1070 2.094 . S
Mn1045 O1050 2.121 . S
Mn1045 N1052 2.257 . S
Mn1045 N1061 2.282 . S
Mn1045 O1069 2.215 . S
Mn1045 O1071 2.117 . S
C1046 O1068 1.234 . S
C1046 O1069 1.283 . S
C1047 O1059 1.281 . S
C1047 O1060 1.236 . S
C1048 O1070 1.240 . S
C1048 O1071 1.264 . S
O1049 Mn1044 2.095 . S
O1049 C1058 1.250 . S
O1050 Mn1045 2.121 . S
O1050 C1058 1.258 . S
C1051 N1052 1.326 . S
C1051 C1055 1.460 . S
C1051 H1057 0.929 . S
N1052 Mn1045 2.257 . S
N1052 C1051 1.326 . S
N1052 C1056 1.362 . S
C1053 C1054 1.258 . S
C1053 C1056 1.431 . S
C1053 C1073 1.449 . S
C1054 C1053 1.258 . S
C1054 C1055 1.477 . S
C1054 H1074 0.931 . S
C1055 C1051 1.460 . S
C1055 C1054 1.477 . S
C1055 H1075 0.930 . S
C1056 N1052 1.362 . S
C1056 C1053 1.431 . S
C1056 C1066 1.476 . S
H1057 C1051 0.929 . S
C1058 O1049 1.250 . S
C1058 O1050 1.258 . S
O1059 Mn1044 2.162 . S
O1059 C1047 1.281 . S
O1060 Mn1044 2.297 . S
O1060 C1047 1.236 . S
N1061 Mn1045 2.282 . S
N1061 C1062 1.328 . S
N1061 C1066 1.318 . S
C1062 N1061 1.328 . S
C1062 C1063 1.457 . S
C1062 H1067 0.929 . S
C1063 C1062 1.457 . S
C1063 C1064 1.291 . S
C1063 H1076 0.931 . S
C1064 C1063 1.291 . S
C1064 C1065 1.373 . S
C1064 H1077 0.929 . S
C1065 C1064 1.373 . S
C1065 C1066 1.396 . S
C1065 C1072 1.403 . S
C1066 C1056 1.476 . S
C1066 N1061 1.318 . S
C1066 C1065 1.396 . S
H1067 C1062 0.929 . S
O1068 Mn1044 2.385 . S
O1068 C1046 1.234 . S
O1069 Mn1044 2.209 . S
O1069 Mn1045 2.215 . S
O1069 C1046 1.283 . S
O1070 Mn1044 2.094 . S
O1070 C1048 1.240 . S
O1071 Mn1045 2.117 . S
O1071 C1048 1.264 . S
C1072 C1065 1.403 . S
C1072 C1073 1.399 . S
C1072 H1078 0.929 . S
C1073 C1053 1.449 . S
C1073 C1072 1.399 . S
C1073 H1079 0.930 . S
H1074 C1054 0.931 . S
H1075 C1055 0.930 . S
H1076 C1063 0.931 . S
H1077 C1064 0.929 . S
H1078 C1072 0.929 . S
H1079 C1073 0.930 . S
Mn1080 O1085 2.095 . S
Mn1080 O1095 2.162 . S
Mn1080 O1096 2.297 . S
Mn1080 O1104 2.385 . S
Mn1080 O1105 2.209 . S
Mn1080 O1106 2.094 . S
Mn1081 O1086 2.121 . S
Mn1081 N1088 2.257 . S
Mn1081 N1097 2.282 . S
Mn1081 O1105 2.215 . S
Mn1081 O1107 2.117 . S
C1082 O1104 1.234 . S
C1082 O1105 1.283 . S
C1083 O1095 1.281 . S
C1083 O1096 1.236 . S
C1084 O1106 1.240 . S
C1084 O1107 1.264 . S
O1085 Mn1080 2.095 . S
O1085 C1094 1.250 . S
O1086 Mn1081 2.121 . S
O1086 C1094 1.258 . S
C1087 N1088 1.326 . S
C1087 C1091 1.460 . S
C1087 H1093 0.929 . S
N1088 Mn1081 2.257 . S
N1088 C1087 1.326 . S
N1088 C1092 1.362 . S
C1089 C1090 1.258 . S
C1089 C1092 1.431 . S
C1089 C1109 1.449 . S
C1090 C1089 1.258 . S
C1090 C1091 1.477 . S
C1090 H1110 0.931 . S
C1091 C1087 1.460 . S
C1091 C1090 1.477 . S
C1091 H1111 0.930 . S
C1092 N1088 1.362 . S
C1092 C1089 1.431 . S
C1092 C1102 1.476 . S
H1093 C1087 0.929 . S
C1094 O1085 1.250 . S
C1094 O1086 1.258 . S
O1095 Mn1080 2.162 . S
O1095 C1083 1.281 . S
O1096 Mn1080 2.297 . S
O1096 C1083 1.236 . S
N1097 Mn1081 2.282 . S
N1097 C1098 1.328 . S
N1097 C1102 1.318 . S
C1098 N1097 1.328 . S
C1098 C1099 1.457 . S
C1098 H1103 0.929 . S
C1099 C1098 1.457 . S
C1099 C1100 1.291 . S
C1099 H1112 0.931 . S
C1100 C1099 1.291 . S
C1100 C1101 1.373 . S
C1100 H1113 0.929 . S
C1101 C1100 1.373 . S
C1101 C1102 1.396 . S
C1101 C1108 1.403 . S
C1102 C1092 1.476 . S
C1102 N1097 1.318 . S
C1102 C1101 1.396 . S
H1103 C1098 0.929 . S
O1104 Mn1080 2.385 . S
O1104 C1082 1.234 . S
O1105 Mn1080 2.209 . S
O1105 Mn1081 2.215 . S
O1105 C1082 1.283 . S
O1106 Mn1080 2.094 . S
O1106 C1084 1.240 . S
O1107 Mn1081 2.117 . S
O1107 C1084 1.264 . S
C1108 C1101 1.403 . S
C1108 C1109 1.399 . S
C1108 H1114 0.929 . S
C1109 C1089 1.449 . S
C1109 C1108 1.399 . S
C1109 H1115 0.930 . S
H1110 C1090 0.931 . S
H1111 C1091 0.930 . S
H1112 C1099 0.931 . S
H1113 C1100 0.929 . S
H1114 C1108 0.929 . S
H1115 C1109 0.930 . S
Mn1116 O1121 2.095 . S
Mn1116 O1131 2.162 . S
Mn1116 O1132 2.297 . S
Mn1116 O1140 2.385 . S
Mn1116 O1141 2.209 . S
Mn1116 O1142 2.094 . S
Mn1117 O1122 2.121 . S
Mn1117 N1124 2.257 . S
Mn1117 N1133 2.282 . S
Mn1117 O1141 2.215 . S
Mn1117 O1143 2.117 . S
C1118 O1140 1.234 . S
C1118 O1141 1.283 . S
C1119 O1131 1.281 . S
C1119 O1132 1.236 . S
C1120 O1142 1.240 . S
C1120 O1143 1.264 . S
O1121 Mn1116 2.095 . S
O1121 C1130 1.250 . S
O1122 Mn1117 2.121 . S
O1122 C1130 1.258 . S
C1123 N1124 1.326 . S
C1123 C1127 1.460 . S
C1123 H1129 0.929 . S
N1124 Mn1117 2.257 . S
N1124 C1123 1.326 . S
N1124 C1128 1.362 . S
C1125 C1126 1.258 . S
C1125 C1128 1.431 . S
C1125 C1145 1.449 . S
C1126 C1125 1.258 . S
C1126 C1127 1.477 . S
C1126 H1146 0.931 . S
C1127 C1123 1.460 . S
C1127 C1126 1.477 . S
C1127 H1147 0.930 . S
C1128 N1124 1.362 . S
C1128 C1125 1.431 . S
C1128 C1138 1.476 . S
H1129 C1123 0.929 . S
C1130 O1121 1.250 . S
C1130 O1122 1.258 . S
O1131 Mn1116 2.162 . S
O1131 C1119 1.281 . S
O1132 Mn1116 2.297 . S
O1132 C1119 1.236 . S
N1133 Mn1117 2.282 . S
N1133 C1134 1.328 . S
N1133 C1138 1.318 . S
C1134 N1133 1.328 . S
C1134 C1135 1.457 . S
C1134 H1139 0.929 . S
C1135 C1134 1.457 . S
C1135 C1136 1.291 . S
C1135 H1148 0.931 . S
C1136 C1135 1.291 . S
C1136 C1137 1.373 . S
C1136 H1149 0.929 . S
C1137 C1136 1.373 . S
C1137 C1138 1.396 . S
C1137 C1144 1.403 . S
C1138 C1128 1.476 . S
C1138 N1133 1.318 . S
C1138 C1137 1.396 . S
H1139 C1134 0.929 . S
O1140 Mn1116 2.385 . S
O1140 C1118 1.234 . S
O1141 Mn1116 2.209 . S
O1141 Mn1117 2.215 . S
O1141 C1118 1.283 . S
O1142 Mn1116 2.094 . S
O1142 C1120 1.240 . S
O1143 Mn1117 2.117 . S
O1143 C1120 1.264 . S
C1144 C1137 1.403 . S
C1144 C1145 1.399 . S
C1144 H1150 0.929 . S
C1145 C1125 1.449 . S
C1145 C1144 1.399 . S
C1145 H1151 0.930 . S
H1146 C1126 0.931 . S
H1147 C1127 0.930 . S
H1148 C1135 0.931 . S
H1149 C1136 0.929 . S
H1150 C1144 0.929 . S
H1151 C1145 0.930 . S
Mn1152 O1157 2.095 . S
Mn1152 O1167 2.162 . S
Mn1152 O1168 2.297 . S
Mn1152 O1176 2.385 . S
Mn1152 O1177 2.209 . S
Mn1152 O1178 2.094 . S
Mn1153 O1158 2.121 . S
Mn1153 N1160 2.257 . S
Mn1153 N1169 2.282 . S
Mn1153 O1177 2.215 . S
Mn1153 O1179 2.117 . S
C1154 O1176 1.234 . S
C1154 O1177 1.283 . S
C1155 O1167 1.281 . S
C1155 O1168 1.236 . S
C1156 O1178 1.240 . S
C1156 O1179 1.264 . S
O1157 Mn1152 2.095 . S
O1157 C1166 1.250 . S
O1158 Mn1153 2.121 . S
O1158 C1166 1.258 . S
C1159 N1160 1.326 . S
C1159 C1163 1.460 . S
C1159 H1165 0.929 . S
N1160 Mn1153 2.257 . S
N1160 C1159 1.326 . S
N1160 C1164 1.362 . S
C1161 C1162 1.258 . S
C1161 C1164 1.431 . S
C1161 C1181 1.449 . S
C1162 C1161 1.258 . S
C1162 C1163 1.477 . S
C1162 H1182 0.931 . S
C1163 C1159 1.460 . S
C1163 C1162 1.477 . S
C1163 H1183 0.930 . S
C1164 N1160 1.362 . S
C1164 C1161 1.431 . S
C1164 C1174 1.476 . S
H1165 C1159 0.929 . S
C1166 O1157 1.250 . S
C1166 O1158 1.258 . S
O1167 Mn1152 2.162 . S
O1167 C1155 1.281 . S
O1168 Mn1152 2.297 . S
O1168 C1155 1.236 . S
N1169 Mn1153 2.282 . S
N1169 C1170 1.328 . S
N1169 C1174 1.318 . S
C1170 N1169 1.328 . S
C1170 C1171 1.457 . S
C1170 H1175 0.929 . S
C1171 C1170 1.457 . S
C1171 C1172 1.291 . S
C1171 H1184 0.931 . S
C1172 C1171 1.291 . S
C1172 C1173 1.373 . S
C1172 H1185 0.929 . S
C1173 C1172 1.373 . S
C1173 C1174 1.396 . S
C1173 C1180 1.403 . S
C1174 C1164 1.476 . S
C1174 N1169 1.318 . S
C1174 C1173 1.396 . S
H1175 C1170 0.929 . S
O1176 Mn1152 2.385 . S
O1176 C1154 1.234 . S
O1177 Mn1152 2.209 . S
O1177 Mn1153 2.215 . S
O1177 C1154 1.283 . S
O1178 Mn1152 2.094 . S
O1178 C1156 1.240 . S
O1179 Mn1153 2.117 . S
O1179 C1156 1.264 . S
C1180 C1173 1.403 . S
C1180 C1181 1.399 . S
C1180 H1186 0.929 . S
C1181 C1161 1.449 . S
C1181 C1180 1.399 . S
C1181 H1187 0.930 . S
H1182 C1162 0.931 . S
H1183 C1163 0.930 . S
H1184 C1171 0.931 . S
H1185 C1172 0.929 . S
H1186 C1180 0.929 . S
H1187 C1181 0.930 . S
Mn1188 O1193 2.095 . S
Mn1188 O1203 2.162 . S
Mn1188 O1204 2.297 . S
Mn1188 O1212 2.385 . S
Mn1188 O1213 2.209 . S
Mn1188 O1214 2.094 . S
Mn1189 O1194 2.121 . S
Mn1189 N1196 2.257 . S
Mn1189 N1205 2.282 . S
Mn1189 O1213 2.215 . S
Mn1189 O1215 2.117 . S
C1190 O1212 1.234 . S
C1190 O1213 1.283 . S
C1191 O1203 1.281 . S
C1191 O1204 1.236 . S
C1192 O1214 1.240 . S
C1192 O1215 1.264 . S
O1193 Mn1188 2.095 . S
O1193 C1202 1.250 . S
O1194 Mn1189 2.121 . S
O1194 C1202 1.258 . S
C1195 N1196 1.326 . S
C1195 C1199 1.460 . S
C1195 H1201 0.929 . S
N1196 Mn1189 2.257 . S
N1196 C1195 1.326 . S
N1196 C1200 1.362 . S
C1197 C1198 1.258 . S
C1197 C1200 1.431 . S
C1197 C1217 1.449 . S
C1198 C1197 1.258 . S
C1198 C1199 1.477 . S
C1198 H1218 0.931 . S
C1199 C1195 1.460 . S
C1199 C1198 1.477 . S
C1199 H1219 0.930 . S
C1200 N1196 1.362 . S
C1200 C1197 1.431 . S
C1200 C1210 1.476 . S
H1201 C1195 0.929 . S
C1202 O1193 1.250 . S
C1202 O1194 1.258 . S
O1203 Mn1188 2.162 . S
O1203 C1191 1.281 . S
O1204 Mn1188 2.297 . S
O1204 C1191 1.236 . S
N1205 Mn1189 2.282 . S
N1205 C1206 1.328 . S
N1205 C1210 1.318 . S
C1206 N1205 1.328 . S
C1206 C1207 1.457 . S
C1206 H1211 0.929 . S
C1207 C1206 1.457 . S
C1207 C1208 1.291 . S
C1207 H1220 0.931 . S
C1208 C1207 1.291 . S
C1208 C1209 1.373 . S
C1208 H1221 0.929 . S
C1209 C1208 1.373 . S
C1209 C1210 1.396 . S
C1209 C1216 1.403 . S
C1210 C1200 1.476 . S
C1210 N1205 1.318 . S
C1210 C1209 1.396 . S
H1211 C1206 0.929 . S
O1212 Mn1188 2.385 . S
O1212 C1190 1.234 . S
O1213 Mn1188 2.209 . S
O1213 Mn1189 2.215 . S
O1213 C1190 1.283 . S
O1214 Mn1188 2.094 . S
O1214 C1192 1.240 . S
O1215 Mn1189 2.117 . S
O1215 C1192 1.264 . S
C1216 C1209 1.403 . S
C1216 C1217 1.399 . S
C1216 H1222 0.929 . S
C1217 C1197 1.449 . S
C1217 C1216 1.399 . S
C1217 H1223 0.930 . S
H1218 C1198 0.931 . S
H1219 C1199 0.930 . S
H1220 C1207 0.931 . S
H1221 C1208 0.929 . S
H1222 C1216 0.929 . S
H1223 C1217 0.930 . S
Mn1224 O1229 2.095 . S
Mn1224 O1239 2.162 . S
Mn1224 O1240 2.297 . S
Mn1224 O1248 2.385 . S
Mn1224 O1249 2.209 . S
Mn1224 O1250 2.094 . S
Mn1225 O1230 2.121 . S
Mn1225 N1232 2.257 . S
Mn1225 N1241 2.282 . S
Mn1225 O1249 2.215 . S
Mn1225 O1251 2.117 . S
C1226 O1248 1.234 . S
C1226 O1249 1.283 . S
C1227 O1239 1.281 . S
C1227 O1240 1.236 . S
C1228 O1250 1.240 . S
C1228 O1251 1.264 . S
O1229 Mn1224 2.095 . S
O1229 C1238 1.250 . S
O1230 Mn1225 2.121 . S
O1230 C1238 1.258 . S
C1231 N1232 1.326 . S
C1231 C1235 1.460 . S
C1231 H1237 0.929 . S
N1232 Mn1225 2.257 . S
N1232 C1231 1.326 . S
N1232 C1236 1.362 . S
C1233 C1234 1.258 . S
C1233 C1236 1.431 . S
C1233 C1253 1.449 . S
C1234 C1233 1.258 . S
C1234 C1235 1.477 . S
C1234 H1254 0.931 . S
C1235 C1231 1.460 . S
C1235 C1234 1.477 . S
C1235 H1255 0.930 . S
C1236 N1232 1.362 . S
C1236 C1233 1.431 . S
C1236 C1246 1.476 . S
H1237 C1231 0.929 . S
C1238 O1229 1.250 . S
C1238 O1230 1.258 . S
O1239 Mn1224 2.162 . S
O1239 C1227 1.281 . S
O1240 Mn1224 2.297 . S
O1240 C1227 1.236 . S
N1241 Mn1225 2.282 . S
N1241 C1242 1.328 . S
N1241 C1246 1.318 . S
C1242 N1241 1.328 . S
C1242 C1243 1.457 . S
C1242 H1247 0.929 . S
C1243 C1242 1.457 . S
C1243 C1244 1.291 . S
C1243 H1256 0.931 . S
C1244 C1243 1.291 . S
C1244 C1245 1.373 . S
C1244 H1257 0.929 . S
C1245 C1244 1.373 . S
C1245 C1246 1.396 . S
C1245 C1252 1.403 . S
C1246 C1236 1.476 . S
C1246 N1241 1.318 . S
C1246 C1245 1.396 . S
H1247 C1242 0.929 . S
O1248 Mn1224 2.385 . S
O1248 C1226 1.234 . S
O1249 Mn1224 2.209 . S
O1249 Mn1225 2.215 . S
O1249 C1226 1.283 . S
O1250 Mn1224 2.094 . S
O1250 C1228 1.240 . S
O1251 Mn1225 2.117 . S
O1251 C1228 1.264 . S
C1252 C1245 1.403 . S
C1252 C1253 1.399 . S
C1252 H1258 0.929 . S
C1253 C1233 1.449 . S
C1253 C1252 1.399 . S
C1253 H1259 0.930 . S
H1254 C1234 0.931 . S
H1255 C1235 0.930 . S
H1256 C1243 0.931 . S
H1257 C1244 0.929 . S
H1258 C1252 0.929 . S
H1259 C1253 0.930 . S
Mn1260 O1265 2.095 . S
Mn1260 O1275 2.162 . S
Mn1260 O1276 2.297 . S
Mn1260 O1284 2.385 . S
Mn1260 O1285 2.209 . S
Mn1260 O1286 2.094 . S
Mn1261 O1266 2.121 . S
Mn1261 N1268 2.257 . S
Mn1261 N1277 2.282 . S
Mn1261 O1285 2.215 . S
Mn1261 O1287 2.117 . S
C1262 O1284 1.234 . S
C1262 O1285 1.283 . S
C1263 O1275 1.281 . S
C1263 O1276 1.236 . S
C1264 O1286 1.240 . S
C1264 O1287 1.264 . S
O1265 Mn1260 2.095 . S
O1265 C1274 1.250 . S
O1266 Mn1261 2.121 . S
O1266 C1274 1.258 . S
C1267 N1268 1.326 . S
C1267 C1271 1.460 . S
C1267 H1273 0.929 . S
N1268 Mn1261 2.257 . S
N1268 C1267 1.326 . S
N1268 C1272 1.362 . S
C1269 C1270 1.258 . S
C1269 C1272 1.431 . S
C1269 C1289 1.449 . S
C1270 C1269 1.258 . S
C1270 C1271 1.477 . S
C1270 H1290 0.931 . S
C1271 C1267 1.460 . S
C1271 C1270 1.477 . S
C1271 H1291 0.930 . S
C1272 N1268 1.362 . S
C1272 C1269 1.431 . S
C1272 C1282 1.476 . S
H1273 C1267 0.929 . S
C1274 O1265 1.250 . S
C1274 O1266 1.258 . S
O1275 Mn1260 2.162 . S
O1275 C1263 1.281 . S
O1276 Mn1260 2.297 . S
O1276 C1263 1.236 . S
N1277 Mn1261 2.282 . S
N1277 C1278 1.328 . S
N1277 C1282 1.318 . S
C1278 N1277 1.328 . S
C1278 C1279 1.457 . S
C1278 H1283 0.929 . S
C1279 C1278 1.457 . S
C1279 C1280 1.291 . S
C1279 H1292 0.931 . S
C1280 C1279 1.291 . S
C1280 C1281 1.373 . S
C1280 H1293 0.929 . S
C1281 C1280 1.373 . S
C1281 C1282 1.396 . S
C1281 C1288 1.403 . S
C1282 C1272 1.476 . S
C1282 N1277 1.318 . S
C1282 C1281 1.396 . S
H1283 C1278 0.929 . S
O1284 Mn1260 2.385 . S
O1284 C1262 1.234 . S
O1285 Mn1260 2.209 . S
O1285 Mn1261 2.215 . S
O1285 C1262 1.283 . S
O1286 Mn1260 2.094 . S
O1286 C1264 1.240 . S
O1287 Mn1261 2.117 . S
O1287 C1264 1.264 . S
C1288 C1281 1.403 . S
C1288 C1289 1.399 . S
C1288 H1294 0.929 . S
C1289 C1269 1.449 . S
C1289 C1288 1.399 . S
C1289 H1295 0.930 . S
H1290 C1270 0.931 . S
H1291 C1271 0.930 . S
H1292 C1279 0.931 . S
H1293 C1280 0.929 . S
H1294 C1288 0.929 . S
H1295 C1289 0.930 . S
Mn1296 O1301 2.095 . S
Mn1296 O1311 2.162 . S
Mn1296 O1312 2.297 . S
Mn1296 O1320 2.385 . S
Mn1296 O1321 2.209 . S
Mn1296 O1322 2.094 . S
Mn1297 O1302 2.121 . S
Mn1297 N1304 2.257 . S
Mn1297 N1313 2.282 . S
Mn1297 O1321 2.215 . S
Mn1297 O1323 2.117 . S
C1298 O1320 1.234 . S
C1298 O1321 1.283 . S
C1299 O1311 1.281 . S
C1299 O1312 1.236 . S
C1300 O1322 1.240 . S
C1300 O1323 1.264 . S
O1301 Mn1296 2.095 . S
O1301 C1310 1.250 . S
O1302 Mn1297 2.121 . S
O1302 C1310 1.258 . S
C1303 N1304 1.326 . S
C1303 C1307 1.460 . S
C1303 H1309 0.929 . S
N1304 Mn1297 2.257 . S
N1304 C1303 1.326 . S
N1304 C1308 1.362 . S
C1305 C1306 1.258 . S
C1305 C1308 1.431 . S
C1305 C1325 1.449 . S
C1306 C1305 1.258 . S
C1306 C1307 1.477 . S
C1306 H1326 0.931 . S
C1307 C1303 1.460 . S
C1307 C1306 1.477 . S
C1307 H1327 0.930 . S
C1308 N1304 1.362 . S
C1308 C1305 1.431 . S
C1308 C1318 1.476 . S
H1309 C1303 0.929 . S
C1310 O1301 1.250 . S
C1310 O1302 1.258 . S
O1311 Mn1296 2.162 . S
O1311 C1299 1.281 . S
O1312 Mn1296 2.297 . S
O1312 C1299 1.236 . S
N1313 Mn1297 2.282 . S
N1313 C1314 1.328 . S
N1313 C1318 1.318 . S
C1314 N1313 1.328 . S
C1314 C1315 1.457 . S
C1314 H1319 0.929 . S
C1315 C1314 1.457 . S
C1315 C1316 1.291 . S
C1315 H1328 0.931 . S
C1316 C1315 1.291 . S
C1316 C1317 1.373 . S
C1316 H1329 0.929 . S
C1317 C1316 1.373 . S
C1317 C1318 1.396 . S
C1317 C1324 1.403 . S
C1318 C1308 1.476 . S
C1318 N1313 1.318 . S
C1318 C1317 1.396 . S
H1319 C1314 0.929 . S
O1320 Mn1296 2.385 . S
O1320 C1298 1.234 . S
O1321 Mn1296 2.209 . S
O1321 Mn1297 2.215 . S
O1321 C1298 1.283 . S
O1322 Mn1296 2.094 . S
O1322 C1300 1.240 . S
O1323 Mn1297 2.117 . S
O1323 C1300 1.264 . S
C1324 C1317 1.403 . S
C1324 C1325 1.399 . S
C1324 H1330 0.929 . S
C1325 C1305 1.449 . S
C1325 C1324 1.399 . S
C1325 H1331 0.930 . S
H1326 C1306 0.931 . S
H1327 C1307 0.930 . S
H1328 C1315 0.931 . S
H1329 C1316 0.929 . S
H1330 C1324 0.929 . S
H1331 C1325 0.930 . S
Mn1332 O1337 2.095 . S
Mn1332 O1347 2.162 . S
Mn1332 O1348 2.297 . S
Mn1332 O1356 2.385 . S
Mn1332 O1357 2.209 . S
Mn1332 O1358 2.094 . S
Mn1333 O1338 2.121 . S
Mn1333 N1340 2.257 . S
Mn1333 N1349 2.282 . S
Mn1333 O1357 2.215 . S
Mn1333 O1359 2.117 . S
C1334 O1356 1.234 . S
C1334 O1357 1.283 . S
C1335 O1347 1.281 . S
C1335 O1348 1.236 . S
C1336 O1358 1.240 . S
C1336 O1359 1.264 . S
O1337 Mn1332 2.095 . S
O1337 C1346 1.250 . S
O1338 Mn1333 2.121 . S
O1338 C1346 1.258 . S
C1339 N1340 1.326 . S
C1339 C1343 1.460 . S
C1339 H1345 0.929 . S
N1340 Mn1333 2.257 . S
N1340 C1339 1.326 . S
N1340 C1344 1.362 . S
C1341 C1342 1.258 . S
C1341 C1344 1.431 . S
C1341 C1361 1.449 . S
C1342 C1341 1.258 . S
C1342 C1343 1.477 . S
C1342 H1362 0.931 . S
C1343 C1339 1.460 . S
C1343 C1342 1.477 . S
C1343 H1363 0.930 . S
C1344 N1340 1.362 . S
C1344 C1341 1.431 . S
C1344 C1354 1.476 . S
H1345 C1339 0.929 . S
C1346 O1337 1.250 . S
C1346 O1338 1.258 . S
O1347 Mn1332 2.162 . S
O1347 C1335 1.281 . S
O1348 Mn1332 2.297 . S
O1348 C1335 1.236 . S
N1349 Mn1333 2.282 . S
N1349 C1350 1.328 . S
N1349 C1354 1.318 . S
C1350 N1349 1.328 . S
C1350 C1351 1.457 . S
C1350 H1355 0.929 . S
C1351 C1350 1.457 . S
C1351 C1352 1.291 . S
C1351 H1364 0.931 . S
C1352 C1351 1.291 . S
C1352 C1353 1.373 . S
C1352 H1365 0.929 . S
C1353 C1352 1.373 . S
C1353 C1354 1.396 . S
C1353 C1360 1.403 . S
C1354 C1344 1.476 . S
C1354 N1349 1.318 . S
C1354 C1353 1.396 . S
H1355 C1350 0.929 . S
O1356 Mn1332 2.385 . S
O1356 C1334 1.234 . S
O1357 Mn1332 2.209 . S
O1357 Mn1333 2.215 . S
O1357 C1334 1.283 . S
O1358 Mn1332 2.094 . S
O1358 C1336 1.240 . S
O1359 Mn1333 2.117 . S
O1359 C1336 1.264 . S
C1360 C1353 1.403 . S
C1360 C1361 1.399 . S
C1360 H1366 0.929 . S
C1361 C1341 1.449 . S
C1361 C1360 1.399 . S
C1361 H1367 0.930 . S
H1362 C1342 0.931 . S
H1363 C1343 0.930 . S
H1364 C1351 0.931 . S
H1365 C1352 0.929 . S
H1366 C1360 0.929 . S
H1367 C1361 0.930 . S
Mn1368 O1373 2.095 . S
Mn1368 O1383 2.162 . S
Mn1368 O1384 2.297 . S
Mn1368 O1392 2.385 . S
Mn1368 O1393 2.209 . S
Mn1368 O1394 2.094 . S
Mn1369 O1374 2.121 . S
Mn1369 N1376 2.257 . S
Mn1369 N1385 2.282 . S
Mn1369 O1393 2.215 . S
Mn1369 O1395 2.117 . S
C1370 O1392 1.234 . S
C1370 O1393 1.283 . S
C1371 O1383 1.281 . S
C1371 O1384 1.236 . S
C1372 O1394 1.240 . S
C1372 O1395 1.264 . S
O1373 Mn1368 2.095 . S
O1373 C1382 1.250 . S
O1374 Mn1369 2.121 . S
O1374 C1382 1.258 . S
C1375 N1376 1.326 . S
C1375 C1379 1.460 . S
C1375 H1381 0.929 . S
N1376 Mn1369 2.257 . S
N1376 C1375 1.326 . S
N1376 C1380 1.362 . S
C1377 C1378 1.258 . S
C1377 C1380 1.431 . S
C1377 C1397 1.449 . S
C1378 C1377 1.258 . S
C1378 C1379 1.477 . S
C1378 H1398 0.931 . S
C1379 C1375 1.460 . S
C1379 C1378 1.477 . S
C1379 H1399 0.930 . S
C1380 N1376 1.362 . S
C1380 C1377 1.431 . S
C1380 C1390 1.476 . S
H1381 C1375 0.929 . S
C1382 O1373 1.250 . S
C1382 O1374 1.258 . S
O1383 Mn1368 2.162 . S
O1383 C1371 1.281 . S
O1384 Mn1368 2.297 . S
O1384 C1371 1.236 . S
N1385 Mn1369 2.282 . S
N1385 C1386 1.328 . S
N1385 C1390 1.318 . S
C1386 N1385 1.328 . S
C1386 C1387 1.457 . S
C1386 H1391 0.929 . S
C1387 C1386 1.457 . S
C1387 C1388 1.291 . S
C1387 H1400 0.931 . S
C1388 C1387 1.291 . S
C1388 C1389 1.373 . S
C1388 H1401 0.929 . S
C1389 C1388 1.373 . S
C1389 C1390 1.396 . S
C1389 C1396 1.403 . S
C1390 C1380 1.476 . S
C1390 N1385 1.318 . S
C1390 C1389 1.396 . S
H1391 C1386 0.929 . S
O1392 Mn1368 2.385 . S
O1392 C1370 1.234 . S
O1393 Mn1368 2.209 . S
O1393 Mn1369 2.215 . S
O1393 C1370 1.283 . S
O1394 Mn1368 2.094 . S
O1394 C1372 1.240 . S
O1395 Mn1369 2.117 . S
O1395 C1372 1.264 . S
C1396 C1389 1.403 . S
C1396 C1397 1.399 . S
C1396 H1402 0.929 . S
C1397 C1377 1.449 . S
C1397 C1396 1.399 . S
C1397 H1403 0.930 . S
H1398 C1378 0.931 . S
H1399 C1379 0.930 . S
H1400 C1387 0.931 . S
H1401 C1388 0.929 . S
H1402 C1396 0.929 . S
H1403 C1397 0.930 . S
Mn1404 O1409 2.095 . S
Mn1404 O1419 2.162 . S
Mn1404 O1420 2.297 . S
Mn1404 O1428 2.385 . S
Mn1404 O1429 2.209 . S
Mn1404 O1430 2.094 . S
Mn1405 O1410 2.121 . S
Mn1405 N1412 2.257 . S
Mn1405 N1421 2.282 . S
Mn1405 O1429 2.215 . S
Mn1405 O1431 2.117 . S
C1406 O1428 1.234 . S
C1406 O1429 1.283 . S
C1407 O1419 1.281 . S
C1407 O1420 1.236 . S
C1408 O1430 1.240 . S
C1408 O1431 1.264 . S
O1409 Mn1404 2.095 . S
O1409 C1418 1.250 . S
O1410 Mn1405 2.121 . S
O1410 C1418 1.258 . S
C1411 N1412 1.326 . S
C1411 C1415 1.460 . S
C1411 H1417 0.929 . S
N1412 Mn1405 2.257 . S
N1412 C1411 1.326 . S
N1412 C1416 1.362 . S
C1413 C1414 1.258 . S
C1413 C1416 1.431 . S
C1413 C1433 1.449 . S
C1414 C1413 1.258 . S
C1414 C1415 1.477 . S
C1414 H1434 0.931 . S
C1415 C1411 1.460 . S
C1415 C1414 1.477 . S
C1415 H1435 0.930 . S
C1416 N1412 1.362 . S
C1416 C1413 1.431 . S
C1416 C1426 1.476 . S
H1417 C1411 0.929 . S
C1418 O1409 1.250 . S
C1418 O1410 1.258 . S
O1419 Mn1404 2.162 . S
O1419 C1407 1.281 . S
O1420 Mn1404 2.297 . S
O1420 C1407 1.236 . S
N1421 Mn1405 2.282 . S
N1421 C1422 1.328 . S
N1421 C1426 1.318 . S
C1422 N1421 1.328 . S
C1422 C1423 1.457 . S
C1422 H1427 0.929 . S
C1423 C1422 1.457 . S
C1423 C1424 1.291 . S
C1423 H1436 0.931 . S
C1424 C1423 1.291 . S
C1424 C1425 1.373 . S
C1424 H1437 0.929 . S
C1425 C1424 1.373 . S
C1425 C1426 1.396 . S
C1425 C1432 1.403 . S
C1426 C1416 1.476 . S
C1426 N1421 1.318 . S
C1426 C1425 1.396 . S
H1427 C1422 0.929 . S
O1428 Mn1404 2.385 . S
O1428 C1406 1.234 . S
O1429 Mn1404 2.209 . S
O1429 Mn1405 2.215 . S
O1429 C1406 1.283 . S
O1430 Mn1404 2.094 . S
O1430 C1408 1.240 . S
O1431 Mn1405 2.117 . S
O1431 C1408 1.264 . S
C1432 C1425 1.403 . S
C1432 C1433 1.399 . S
C1432 H1438 0.929 . S
C1433 C1413 1.449 . S
C1433 C1432 1.399 . S
C1433 H1439 0.930 . S
H1434 C1414 0.931 . S
H1435 C1415 0.930 . S
H1436 C1423 0.931 . S
H1437 C1424 0.929 . S
H1438 C1432 0.929 . S
H1439 C1433 0.930 . S
Mn1440 O1445 2.095 . S
Mn1440 O1455 2.162 . S
Mn1440 O1456 2.297 . S
Mn1440 O1464 2.385 . S
Mn1440 O1465 2.209 . S
Mn1440 O1466 2.094 . S
Mn1441 O1446 2.121 . S
Mn1441 N1448 2.257 . S
Mn1441 N1457 2.282 . S
Mn1441 O1465 2.215 . S
Mn1441 O1467 2.117 . S
C1442 O1464 1.234 . S
C1442 O1465 1.283 . S
C1443 O1455 1.281 . S
C1443 O1456 1.236 . S
C1444 O1466 1.240 . S
C1444 O1467 1.264 . S
O1445 Mn1440 2.095 . S
O1445 C1454 1.250 . S
O1446 Mn1441 2.121 . S
O1446 C1454 1.258 . S
C1447 N1448 1.326 . S
C1447 C1451 1.460 . S
C1447 H1453 0.929 . S
N1448 Mn1441 2.257 . S
N1448 C1447 1.326 . S
N1448 C1452 1.362 . S
C1449 C1450 1.258 . S
C1449 C1452 1.431 . S
C1449 C1469 1.449 . S
C1450 C1449 1.258 . S
C1450 C1451 1.477 . S
C1450 H1470 0.931 . S
C1451 C1447 1.460 . S
C1451 C1450 1.477 . S
C1451 H1471 0.930 . S
C1452 N1448 1.362 . S
C1452 C1449 1.431 . S
C1452 C1462 1.476 . S
H1453 C1447 0.929 . S
C1454 O1445 1.250 . S
C1454 O1446 1.258 . S
O1455 Mn1440 2.162 . S
O1455 C1443 1.281 . S
O1456 Mn1440 2.297 . S
O1456 C1443 1.236 . S
N1457 Mn1441 2.282 . S
N1457 C1458 1.328 . S
N1457 C1462 1.318 . S
C1458 N1457 1.328 . S
C1458 C1459 1.457 . S
C1458 H1463 0.929 . S
C1459 C1458 1.457 . S
C1459 C1460 1.291 . S
C1459 H1472 0.931 . S
C1460 C1459 1.291 . S
C1460 C1461 1.373 . S
C1460 H1473 0.929 . S
C1461 C1460 1.373 . S
C1461 C1462 1.396 . S
C1461 C1468 1.403 . S
C1462 C1452 1.476 . S
C1462 N1457 1.318 . S
C1462 C1461 1.396 . S
H1463 C1458 0.929 . S
O1464 Mn1440 2.385 . S
O1464 C1442 1.234 . S
O1465 Mn1440 2.209 . S
O1465 Mn1441 2.215 . S
O1465 C1442 1.283 . S
O1466 Mn1440 2.094 . S
O1466 C1444 1.240 . S
O1467 Mn1441 2.117 . S
O1467 C1444 1.264 . S
C1468 C1461 1.403 . S
C1468 C1469 1.399 . S
C1468 H1474 0.929 . S
C1469 C1449 1.449 . S
C1469 C1468 1.399 . S
C1469 H1475 0.930 . S
H1470 C1450 0.931 . S
H1471 C1451 0.930 . S
H1472 C1459 0.931 . S
H1473 C1460 0.929 . S
H1474 C1468 0.929 . S
H1475 C1469 0.930 . S
Mn1476 O1481 2.095 . S
Mn1476 O1491 2.162 . S
Mn1476 O1492 2.297 . S
Mn1476 O1500 2.385 . S
Mn1476 O1501 2.209 . S
Mn1476 O1502 2.094 . S
Mn1477 O1482 2.121 . S
Mn1477 N1484 2.257 . S
Mn1477 N1493 2.282 . S
Mn1477 O1501 2.215 . S
Mn1477 O1503 2.117 . S
C1478 O1500 1.234 . S
C1478 O1501 1.283 . S
C1479 O1491 1.281 . S
C1479 O1492 1.236 . S
C1480 O1502 1.240 . S
C1480 O1503 1.264 . S
O1481 Mn1476 2.095 . S
O1481 C1490 1.250 . S
O1482 Mn1477 2.121 . S
O1482 C1490 1.258 . S
C1483 N1484 1.326 . S
C1483 C1487 1.460 . S
C1483 H1489 0.929 . S
N1484 Mn1477 2.257 . S
N1484 C1483 1.326 . S
N1484 C1488 1.362 . S
C1485 C1486 1.258 . S
C1485 C1488 1.431 . S
C1485 C1505 1.449 . S
C1486 C1485 1.258 . S
C1486 C1487 1.477 . S
C1486 H1506 0.931 . S
C1487 C1483 1.460 . S
C1487 C1486 1.477 . S
C1487 H1507 0.930 . S
C1488 N1484 1.362 . S
C1488 C1485 1.431 . S
C1488 C1498 1.476 . S
H1489 C1483 0.929 . S
C1490 O1481 1.250 . S
C1490 O1482 1.258 . S
O1491 Mn1476 2.162 . S
O1491 C1479 1.281 . S
O1492 Mn1476 2.297 . S
O1492 C1479 1.236 . S
N1493 Mn1477 2.282 . S
N1493 C1494 1.328 . S
N1493 C1498 1.318 . S
C1494 N1493 1.328 . S
C1494 C1495 1.457 . S
C1494 H1499 0.929 . S
C1495 C1494 1.457 . S
C1495 C1496 1.291 . S
C1495 H1508 0.931 . S
C1496 C1495 1.291 . S
C1496 C1497 1.373 . S
C1496 H1509 0.929 . S
C1497 C1496 1.373 . S
C1497 C1498 1.396 . S
C1497 C1504 1.403 . S
C1498 C1488 1.476 . S
C1498 N1493 1.318 . S
C1498 C1497 1.396 . S
H1499 C1494 0.929 . S
O1500 Mn1476 2.385 . S
O1500 C1478 1.234 . S
O1501 Mn1476 2.209 . S
O1501 Mn1477 2.215 . S
O1501 C1478 1.283 . S
O1502 Mn1476 2.094 . S
O1502 C1480 1.240 . S
O1503 Mn1477 2.117 . S
O1503 C1480 1.264 . S
C1504 C1497 1.403 . S
C1504 C1505 1.399 . S
C1504 H1510 0.929 . S
C1505 C1485 1.449 . S
C1505 C1504 1.399 . S
C1505 H1511 0.930 . S
H1506 C1486 0.931 . S
H1507 C1487 0.930 . S
H1508 C1495 0.931 . S
H1509 C1496 0.929 . S
H1510 C1504 0.929 . S
H1511 C1505 0.930 . S
Mn1512 O1517 2.095 . S
Mn1512 O1527 2.162 . S
Mn1512 O1528 2.297 . S
Mn1512 O1536 2.385 . S
Mn1512 O1537 2.209 . S
Mn1512 O1538 2.094 . S
Mn1513 O1518 2.121 . S
Mn1513 N1520 2.257 . S
Mn1513 N1529 2.282 . S
Mn1513 O1537 2.215 . S
Mn1513 O1539 2.117 . S
C1514 O1536 1.234 . S
C1514 O1537 1.283 . S
C1515 O1527 1.281 . S
C1515 O1528 1.236 . S
C1516 O1538 1.240 . S
C1516 O1539 1.264 . S
O1517 Mn1512 2.095 . S
O1517 C1526 1.250 . S
O1518 Mn1513 2.121 . S
O1518 C1526 1.258 . S
C1519 N1520 1.326 . S
C1519 C1523 1.460 . S
C1519 H1525 0.929 . S
N1520 Mn1513 2.257 . S
N1520 C1519 1.326 . S
N1520 C1524 1.362 . S
C1521 C1522 1.258 . S
C1521 C1524 1.431 . S
C1521 C1541 1.449 . S
C1522 C1521 1.258 . S
C1522 C1523 1.477 . S
C1522 H1542 0.931 . S
C1523 C1519 1.460 . S
C1523 C1522 1.477 . S
C1523 H1543 0.930 . S
C1524 N1520 1.362 . S
C1524 C1521 1.431 . S
C1524 C1534 1.476 . S
H1525 C1519 0.929 . S
C1526 O1517 1.250 . S
C1526 O1518 1.258 . S
O1527 Mn1512 2.162 . S
O1527 C1515 1.281 . S
O1528 Mn1512 2.297 . S
O1528 C1515 1.236 . S
N1529 Mn1513 2.282 . S
N1529 C1530 1.328 . S
N1529 C1534 1.318 . S
C1530 N1529 1.328 . S
C1530 C1531 1.457 . S
C1530 H1535 0.929 . S
C1531 C1530 1.457 . S
C1531 C1532 1.291 . S
C1531 H1544 0.931 . S
C1532 C1531 1.291 . S
C1532 C1533 1.373 . S
C1532 H1545 0.929 . S
C1533 C1532 1.373 . S
C1533 C1534 1.396 . S
C1533 C1540 1.403 . S
C1534 C1524 1.476 . S
C1534 N1529 1.318 . S
C1534 C1533 1.396 . S
H1535 C1530 0.929 . S
O1536 Mn1512 2.385 . S
O1536 C1514 1.234 . S
O1537 Mn1512 2.209 . S
O1537 Mn1513 2.215 . S
O1537 C1514 1.283 . S
O1538 Mn1512 2.094 . S
O1538 C1516 1.240 . S
O1539 Mn1513 2.117 . S
O1539 C1516 1.264 . S
C1540 C1533 1.403 . S
C1540 C1541 1.399 . S
C1540 H1546 0.929 . S
C1541 C1521 1.449 . S
C1541 C1540 1.399 . S
C1541 H1547 0.930 . S
H1542 C1522 0.931 . S
H1543 C1523 0.930 . S
H1544 C1531 0.931 . S
H1545 C1532 0.929 . S
H1546 C1540 0.929 . S
H1547 C1541 0.930 . S
Mn1548 O1553 2.095 . S
Mn1548 O1563 2.162 . S
Mn1548 O1564 2.297 . S
Mn1548 O1572 2.385 . S
Mn1548 O1573 2.209 . S
Mn1548 O1574 2.094 . S
Mn1549 O1554 2.121 . S
Mn1549 N1556 2.257 . S
Mn1549 N1565 2.282 . S
Mn1549 O1573 2.215 . S
Mn1549 O1575 2.117 . S
C1550 O1572 1.234 . S
C1550 O1573 1.283 . S
C1551 O1563 1.281 . S
C1551 O1564 1.236 . S
C1552 O1574 1.240 . S
C1552 O1575 1.264 . S
O1553 Mn1548 2.095 . S
O1553 C1562 1.250 . S
O1554 Mn1549 2.121 . S
O1554 C1562 1.258 . S
C1555 N1556 1.326 . S
C1555 C1559 1.460 . S
C1555 H1561 0.929 . S
N1556 Mn1549 2.257 . S
N1556 C1555 1.326 . S
N1556 C1560 1.362 . S
C1557 C1558 1.258 . S
C1557 C1560 1.431 . S
C1557 C1577 1.449 . S
C1558 C1557 1.258 . S
C1558 C1559 1.477 . S
C1558 H1578 0.931 . S
C1559 C1555 1.460 . S
C1559 C1558 1.477 . S
C1559 H1579 0.930 . S
C1560 N1556 1.362 . S
C1560 C1557 1.431 . S
C1560 C1570 1.476 . S
H1561 C1555 0.929 . S
C1562 O1553 1.250 . S
C1562 O1554 1.258 . S
O1563 Mn1548 2.162 . S
O1563 C1551 1.281 . S
O1564 Mn1548 2.297 . S
O1564 C1551 1.236 . S
N1565 Mn1549 2.282 . S
N1565 C1566 1.328 . S
N1565 C1570 1.318 . S
C1566 N1565 1.328 . S
C1566 C1567 1.457 . S
C1566 H1571 0.929 . S
C1567 C1566 1.457 . S
C1567 C1568 1.291 . S
C1567 H1580 0.931 . S
C1568 C1567 1.291 . S
C1568 C1569 1.373 . S
C1568 H1581 0.929 . S
C1569 C1568 1.373 . S
C1569 C1570 1.396 . S
C1569 C1576 1.403 . S
C1570 C1560 1.476 . S
C1570 N1565 1.318 . S
C1570 C1569 1.396 . S
H1571 C1566 0.929 . S
O1572 Mn1548 2.385 . S
O1572 C1550 1.234 . S
O1573 Mn1548 2.209 . S
O1573 Mn1549 2.215 . S
O1573 C1550 1.283 . S
O1574 Mn1548 2.094 . S
O1574 C1552 1.240 . S
O1575 Mn1549 2.117 . S
O1575 C1552 1.264 . S
C1576 C1569 1.403 . S
C1576 C1577 1.399 . S
C1576 H1582 0.929 . S
C1577 C1557 1.449 . S
C1577 C1576 1.399 . S
C1577 H1583 0.930 . S
H1578 C1558 0.931 . S
H1579 C1559 0.930 . S
H1580 C1567 0.931 . S
H1581 C1568 0.929 . S
H1582 C1576 0.929 . S
H1583 C1577 0.930 . S
Mn1584 O1589 2.095 . S
Mn1584 O1599 2.162 . S
Mn1584 O1600 2.297 . S
Mn1584 O1608 2.385 . S
Mn1584 O1609 2.209 . S
Mn1584 O1610 2.094 . S
Mn1585 O1590 2.121 . S
Mn1585 N1592 2.257 . S
Mn1585 N1601 2.282 . S
Mn1585 O1609 2.215 . S
Mn1585 O1611 2.117 . S
C1586 O1608 1.234 . S
C1586 O1609 1.283 . S
C1587 O1599 1.281 . S
C1587 O1600 1.236 . S
C1588 O1610 1.240 . S
C1588 O1611 1.264 . S
O1589 Mn1584 2.095 . S
O1589 C1598 1.250 . S
O1590 Mn1585 2.121 . S
O1590 C1598 1.258 . S
C1591 N1592 1.326 . S
C1591 C1595 1.460 . S
C1591 H1597 0.929 . S
N1592 Mn1585 2.257 . S
N1592 C1591 1.326 . S
N1592 C1596 1.362 . S
C1593 C1594 1.258 . S
C1593 C1596 1.431 . S
C1593 C1613 1.449 . S
C1594 C1593 1.258 . S
C1594 C1595 1.477 . S
C1594 H1614 0.931 . S
C1595 C1591 1.460 . S
C1595 C1594 1.477 . S
C1595 H1615 0.930 . S
C1596 N1592 1.362 . S
C1596 C1593 1.431 . S
C1596 C1606 1.476 . S
H1597 C1591 0.929 . S
C1598 O1589 1.250 . S
C1598 O1590 1.258 . S
O1599 Mn1584 2.162 . S
O1599 C1587 1.281 . S
O1600 Mn1584 2.297 . S
O1600 C1587 1.236 . S
N1601 Mn1585 2.282 . S
N1601 C1602 1.328 . S
N1601 C1606 1.318 . S
C1602 N1601 1.328 . S
C1602 C1603 1.457 . S
C1602 H1607 0.929 . S
C1603 C1602 1.457 . S
C1603 C1604 1.291 . S
C1603 H1616 0.931 . S
C1604 C1603 1.291 . S
C1604 C1605 1.373 . S
C1604 H1617 0.929 . S
C1605 C1604 1.373 . S
C1605 C1606 1.396 . S
C1605 C1612 1.403 . S
C1606 C1596 1.476 . S
C1606 N1601 1.318 . S
C1606 C1605 1.396 . S
H1607 C1602 0.929 . S
O1608 Mn1584 2.385 . S
O1608 C1586 1.234 . S
O1609 Mn1584 2.209 . S
O1609 Mn1585 2.215 . S
O1609 C1586 1.283 . S
O1610 Mn1584 2.094 . S
O1610 C1588 1.240 . S
O1611 Mn1585 2.117 . S
O1611 C1588 1.264 . S
C1612 C1605 1.403 . S
C1612 C1613 1.399 . S
C1612 H1618 0.929 . S
C1613 C1593 1.449 . S
C1613 C1612 1.399 . S
C1613 H1619 0.930 . S
H1614 C1594 0.931 . S
H1615 C1595 0.930 . S
H1616 C1603 0.931 . S
H1617 C1604 0.929 . S
H1618 C1612 0.929 . S
H1619 C1613 0.930 . S
Mn1620 O1625 2.095 . S
Mn1620 O1635 2.162 . S
Mn1620 O1636 2.297 . S
Mn1620 O1644 2.385 . S
Mn1620 O1645 2.209 . S
Mn1620 O1646 2.094 . S
Mn1621 O1626 2.121 . S
Mn1621 N1628 2.257 . S
Mn1621 N1637 2.282 . S
Mn1621 O1645 2.215 . S
Mn1621 O1647 2.117 . S
C1622 O1644 1.234 . S
C1622 O1645 1.283 . S
C1623 O1635 1.281 . S
C1623 O1636 1.236 . S
C1624 O1646 1.240 . S
C1624 O1647 1.264 . S
O1625 Mn1620 2.095 . S
O1625 C1634 1.250 . S
O1626 Mn1621 2.121 . S
O1626 C1634 1.258 . S
C1627 N1628 1.326 . S
C1627 C1631 1.460 . S
C1627 H1633 0.929 . S
N1628 Mn1621 2.257 . S
N1628 C1627 1.326 . S
N1628 C1632 1.362 . S
C1629 C1630 1.258 . S
C1629 C1632 1.431 . S
C1629 C1649 1.449 . S
C1630 C1629 1.258 . S
C1630 C1631 1.477 . S
C1630 H1650 0.931 . S
C1631 C1627 1.460 . S
C1631 C1630 1.477 . S
C1631 H1651 0.930 . S
C1632 N1628 1.362 . S
C1632 C1629 1.431 . S
C1632 C1642 1.476 . S
H1633 C1627 0.929 . S
C1634 O1625 1.250 . S
C1634 O1626 1.258 . S
O1635 Mn1620 2.162 . S
O1635 C1623 1.281 . S
O1636 Mn1620 2.297 . S
O1636 C1623 1.236 . S
N1637 Mn1621 2.282 . S
N1637 C1638 1.328 . S
N1637 C1642 1.318 . S
C1638 N1637 1.328 . S
C1638 C1639 1.457 . S
C1638 H1643 0.929 . S
C1639 C1638 1.457 . S
C1639 C1640 1.291 . S
C1639 H1652 0.931 . S
C1640 C1639 1.291 . S
C1640 C1641 1.373 . S
C1640 H1653 0.929 . S
C1641 C1640 1.373 . S
C1641 C1642 1.396 . S
C1641 C1648 1.403 . S
C1642 C1632 1.476 . S
C1642 N1637 1.318 . S
C1642 C1641 1.396 . S
H1643 C1638 0.929 . S
O1644 Mn1620 2.385 . S
O1644 C1622 1.234 . S
O1645 Mn1620 2.209 . S
O1645 Mn1621 2.215 . S
O1645 C1622 1.283 . S
O1646 Mn1620 2.094 . S
O1646 C1624 1.240 . S
O1647 Mn1621 2.117 . S
O1647 C1624 1.264 . S
C1648 C1641 1.403 . S
C1648 C1649 1.399 . S
C1648 H1654 0.929 . S
C1649 C1629 1.449 . S
C1649 C1648 1.399 . S
C1649 H1655 0.930 . S
H1650 C1630 0.931 . S
H1651 C1631 0.930 . S
H1652 C1639 0.931 . S
H1653 C1640 0.929 . S
H1654 C1648 0.929 . S
H1655 C1649 0.930 . S
Mn1656 O1661 2.095 . S
Mn1656 O1671 2.162 . S
Mn1656 O1672 2.297 . S
Mn1656 O1680 2.385 . S
Mn1656 O1681 2.209 . S
Mn1656 O1682 2.094 . S
Mn1657 O1662 2.121 . S
Mn1657 N1664 2.257 . S
Mn1657 N1673 2.282 . S
Mn1657 O1681 2.215 . S
Mn1657 O1683 2.117 . S
C1658 O1680 1.234 . S
C1658 O1681 1.283 . S
C1659 O1671 1.281 . S
C1659 O1672 1.236 . S
C1660 O1682 1.240 . S
C1660 O1683 1.264 . S
O1661 Mn1656 2.095 . S
O1661 C1670 1.250 . S
O1662 Mn1657 2.121 . S
O1662 C1670 1.258 . S
C1663 N1664 1.326 . S
C1663 C1667 1.460 . S
C1663 H1669 0.929 . S
N1664 Mn1657 2.257 . S
N1664 C1663 1.326 . S
N1664 C1668 1.362 . S
C1665 C1666 1.258 . S
C1665 C1668 1.431 . S
C1665 C1685 1.449 . S
C1666 C1665 1.258 . S
C1666 C1667 1.477 . S
C1666 H1686 0.931 . S
C1667 C1663 1.460 . S
C1667 C1666 1.477 . S
C1667 H1687 0.930 . S
C1668 N1664 1.362 . S
C1668 C1665 1.431 . S
C1668 C1678 1.476 . S
H1669 C1663 0.929 . S
C1670 O1661 1.250 . S
C1670 O1662 1.258 . S
O1671 Mn1656 2.162 . S
O1671 C1659 1.281 . S
O1672 Mn1656 2.297 . S
O1672 C1659 1.236 . S
N1673 Mn1657 2.282 . S
N1673 C1674 1.328 . S
N1673 C1678 1.318 . S
C1674 N1673 1.328 . S
C1674 C1675 1.457 . S
C1674 H1679 0.929 . S
C1675 C1674 1.457 . S
C1675 C1676 1.291 . S
C1675 H1688 0.931 . S
C1676 C1675 1.291 . S
C1676 C1677 1.373 . S
C1676 H1689 0.929 . S
C1677 C1676 1.373 . S
C1677 C1678 1.396 . S
C1677 C1684 1.403 . S
C1678 C1668 1.476 . S
C1678 N1673 1.318 . S
C1678 C1677 1.396 . S
H1679 C1674 0.929 . S
O1680 Mn1656 2.385 . S
O1680 C1658 1.234 . S
O1681 Mn1656 2.209 . S
O1681 Mn1657 2.215 . S
O1681 C1658 1.283 . S
O1682 Mn1656 2.094 . S
O1682 C1660 1.240 . S
O1683 Mn1657 2.117 . S
O1683 C1660 1.264 . S
C1684 C1677 1.403 . S
C1684 C1685 1.399 . S
C1684 H1690 0.929 . S
C1685 C1665 1.449 . S
C1685 C1684 1.399 . S
C1685 H1691 0.930 . S
H1686 C1666 0.931 . S
H1687 C1667 0.930 . S
H1688 C1675 0.931 . S
H1689 C1676 0.929 . S
H1690 C1684 0.929 . S
H1691 C1685 0.930 . S
Mn1692 O1697 2.095 . S
Mn1692 O1707 2.162 . S
Mn1692 O1708 2.297 . S
Mn1692 O1716 2.385 . S
Mn1692 O1717 2.209 . S
Mn1692 O1718 2.094 . S
Mn1693 O1698 2.121 . S
Mn1693 N1700 2.257 . S
Mn1693 N1709 2.282 . S
Mn1693 O1717 2.215 . S
Mn1693 O1719 2.117 . S
C1694 O1716 1.234 . S
C1694 O1717 1.283 . S
C1695 O1707 1.281 . S
C1695 O1708 1.236 . S
C1696 O1718 1.240 . S
C1696 O1719 1.264 . S
O1697 Mn1692 2.095 . S
O1697 C1706 1.250 . S
O1698 Mn1693 2.121 . S
O1698 C1706 1.258 . S
C1699 N1700 1.326 . S
C1699 C1703 1.460 . S
C1699 H1705 0.929 . S
N1700 Mn1693 2.257 . S
N1700 C1699 1.326 . S
N1700 C1704 1.362 . S
C1701 C1702 1.258 . S
C1701 C1704 1.431 . S
C1701 C1721 1.449 . S
C1702 C1701 1.258 . S
C1702 C1703 1.477 . S
C1702 H1722 0.931 . S
C1703 C1699 1.460 . S
C1703 C1702 1.477 . S
C1703 H1723 0.930 . S
C1704 N1700 1.362 . S
C1704 C1701 1.431 . S
C1704 C1714 1.476 . S
H1705 C1699 0.929 . S
C1706 O1697 1.250 . S
C1706 O1698 1.258 . S
O1707 Mn1692 2.162 . S
O1707 C1695 1.281 . S
O1708 Mn1692 2.297 . S
O1708 C1695 1.236 . S
N1709 Mn1693 2.282 . S
N1709 C1710 1.328 . S
N1709 C1714 1.318 . S
C1710 N1709 1.328 . S
C1710 C1711 1.457 . S
C1710 H1715 0.929 . S
C1711 C1710 1.457 . S
C1711 C1712 1.291 . S
C1711 H1724 0.931 . S
C1712 C1711 1.291 . S
C1712 C1713 1.373 . S
C1712 H1725 0.929 . S
C1713 C1712 1.373 . S
C1713 C1714 1.396 . S
C1713 C1720 1.403 . S
C1714 C1704 1.476 . S
C1714 N1709 1.318 . S
C1714 C1713 1.396 . S
H1715 C1710 0.929 . S
O1716 Mn1692 2.385 . S
O1716 C1694 1.234 . S
O1717 Mn1692 2.209 . S
O1717 Mn1693 2.215 . S
O1717 C1694 1.283 . S
O1718 Mn1692 2.094 . S
O1718 C1696 1.240 . S
O1719 Mn1693 2.117 . S
O1719 C1696 1.264 . S
C1720 C1713 1.403 . S
C1720 C1721 1.399 . S
C1720 H1726 0.929 . S
C1721 C1701 1.449 . S
C1721 C1720 1.399 . S
C1721 H1727 0.930 . S
H1722 C1702 0.931 . S
H1723 C1703 0.930 . S
H1724 C1711 0.931 . S
H1725 C1712 0.929 . S
H1726 C1720 0.929 . S
H1727 C1721 0.930 . S
C1728 C1729 1.369 . S
C1728 C1730 1.419 . S
C1728 H1732 0.930 . S
C1729 C1728 1.369 . S
C1729 C1738 1.429 . S
C1730 C1728 1.419 . S
C1730 C1731 1.363 . S
C1730 H1733 0.929 . S
C1731 C1730 1.363 . S
C1731 C1737 1.428 . S
H1732 C1728 0.930 . S
H1733 C1730 0.929 . S
S1734 N1735 1.613 . S
S1734 N1736 1.610 . S
N1735 S1734 1.613 . S
N1735 C1738 1.350 . S
N1736 S1734 1.610 . S
N1736 C1737 1.351 . S
C1737 C1731 1.428 . S
C1737 N1736 1.351 . S
C1737 C1738 1.434 . S
C1738 C1729 1.429 . S
C1738 N1735 1.350 . S
C1738 C1737 1.434 . S
C1739 C1740 1.369 . S
C1739 C1741 1.419 . S
C1739 H1743 0.930 . S
C1740 C1739 1.369 . S
C1740 C1749 1.429 . S
C1741 C1739 1.419 . S
C1741 C1742 1.363 . S
C1741 H1744 0.929 . S
C1742 C1741 1.363 . S
C1742 C1748 1.428 . S
H1743 C1739 0.930 . S
H1744 C1741 0.929 . S
S1745 N1746 1.613 . S
S1745 N1747 1.610 . S
N1746 S1745 1.613 . S
N1746 C1749 1.350 . S
N1747 S1745 1.610 . S
N1747 C1748 1.351 . S
C1748 C1742 1.428 . S
C1748 N1747 1.351 . S
C1748 C1749 1.434 . S
C1749 C1740 1.429 . S
C1749 N1746 1.350 . S
C1749 C1748 1.434 . S
C1750 C1751 1.369 . S
C1750 C1752 1.419 . S
C1750 H1754 0.930 . S
C1751 C1750 1.369 . S
C1751 C1760 1.429 . S
C1752 C1750 1.419 . S
C1752 C1753 1.363 . S
C1752 H1755 0.929 . S
C1753 C1752 1.363 . S
C1753 C1759 1.428 . S
H1754 C1750 0.930 . S
H1755 C1752 0.929 . S
S1756 N1757 1.613 . S
S1756 N1758 1.610 . S
N1757 S1756 1.613 . S
N1757 C1760 1.350 . S
N1758 S1756 1.610 . S
N1758 C1759 1.351 . S
C1759 C1753 1.428 . S
C1759 N1758 1.351 . S
C1759 C1760 1.434 . S
C1760 C1751 1.429 . S
C1760 N1757 1.350 . S
C1760 C1759 1.434 . S
C1761 C1762 1.369 . S
C1761 C1763 1.419 . S
C1761 H1765 0.930 . S
C1762 C1761 1.369 . S
C1762 C1771 1.429 . S
C1763 C1761 1.419 . S
C1763 C1764 1.363 . S
C1763 H1766 0.929 . S
C1764 C1763 1.363 . S
C1764 C1770 1.428 . S
H1765 C1761 0.930 . S
H1766 C1763 0.929 . S
S1767 N1768 1.613 . S
S1767 N1769 1.610 . S
N1768 S1767 1.613 . S
N1768 C1771 1.350 . S
N1769 S1767 1.610 . S
N1769 C1770 1.351 . S
C1770 C1764 1.428 . S
C1770 N1769 1.351 . S
C1770 C1771 1.434 . S
C1771 C1762 1.429 . S
C1771 N1768 1.350 . S
C1771 C1770 1.434 . S
C1772 C1773 1.369 . S
C1772 C1774 1.419 . S
C1772 H1776 0.930 . S
C1773 C1772 1.369 . S
C1773 C1782 1.429 . S
C1774 C1772 1.419 . S
C1774 C1775 1.363 . S
C1774 H1777 0.929 . S
C1775 C1774 1.363 . S
C1775 C1781 1.428 . S
H1776 C1772 0.930 . S
H1777 C1774 0.929 . S
S1778 N1779 1.613 . S
S1778 N1780 1.610 . S
N1779 S1778 1.613 . S
N1779 C1782 1.350 . S
N1780 S1778 1.610 . S
N1780 C1781 1.351 . S
C1781 C1775 1.428 . S
C1781 N1780 1.351 . S
C1781 C1782 1.434 . S
C1782 C1773 1.429 . S
C1782 N1779 1.350 . S
C1782 C1781 1.434 . S
C1783 C1784 1.369 . S
C1783 C1785 1.419 . S
C1783 H1787 0.930 . S
C1784 C1783 1.369 . S
C1784 C1793 1.429 . S
C1785 C1783 1.419 . S
C1785 C1786 1.363 . S
C1785 H1788 0.929 . S
C1786 C1785 1.363 . S
C1786 C1792 1.428 . S
H1787 C1783 0.930 . S
H1788 C1785 0.929 . S
S1789 N1790 1.613 . S
S1789 N1791 1.610 . S
N1790 S1789 1.613 . S
N1790 C1793 1.350 . S
N1791 S1789 1.610 . S
N1791 C1792 1.351 . S
C1792 C1786 1.428 . S
C1792 N1791 1.351 . S
C1792 C1793 1.434 . S
C1793 C1784 1.429 . S
C1793 N1790 1.350 . S
C1793 C1792 1.434 . S
C1794 C1795 1.369 . S
C1794 C1796 1.419 . S
C1794 H1798 0.930 . S
C1795 C1794 1.369 . S
C1795 C1804 1.429 . S
C1796 C1794 1.419 . S
C1796 C1797 1.363 . S
C1796 H1799 0.929 . S
C1797 C1796 1.363 . S
C1797 C1803 1.428 . S
H1798 C1794 0.930 . S
H1799 C1796 0.929 . S
S1800 N1801 1.613 . S
S1800 N1802 1.610 . S
N1801 S1800 1.613 . S
N1801 C1804 1.350 . S
N1802 S1800 1.610 . S
N1802 C1803 1.351 . S
C1803 C1797 1.428 . S
C1803 N1802 1.351 . S
C1803 C1804 1.434 . S
C1804 C1795 1.429 . S
C1804 N1801 1.350 . S
C1804 C1803 1.434 . S
C1805 C1806 1.369 . S
C1805 C1807 1.419 . S
C1805 H1809 0.930 . S
C1806 C1805 1.369 . S
C1806 C1815 1.429 . S
C1807 C1805 1.419 . S
C1807 C1808 1.363 . S
C1807 H1810 0.929 . S
C1808 C1807 1.363 . S
C1808 C1814 1.428 . S
H1809 C1805 0.930 . S
H1810 C1807 0.929 . S
S1811 N1812 1.613 . S
S1811 N1813 1.610 . S
N1812 S1811 1.613 . S
N1812 C1815 1.350 . S
N1813 S1811 1.610 . S
N1813 C1814 1.351 . S
C1814 C1808 1.428 . S
C1814 N1813 1.351 . S
C1814 C1815 1.434 . S
C1815 C1806 1.429 . S
C1815 N1812 1.350 . S
C1815 C1814 1.434 . S
C1816 C1817 1.369 . S
C1816 C1818 1.419 . S
C1816 H1820 0.930 . S
C1817 C1816 1.369 . S
C1817 C1826 1.429 . S
C1818 C1816 1.419 . S
C1818 C1819 1.363 . S
C1818 H1821 0.929 . S
C1819 C1818 1.363 . S
C1819 C1825 1.428 . S
H1820 C1816 0.930 . S
H1821 C1818 0.929 . S
S1822 N1823 1.613 . S
S1822 N1824 1.610 . S
N1823 S1822 1.613 . S
N1823 C1826 1.350 . S
N1824 S1822 1.610 . S
N1824 C1825 1.351 . S
C1825 C1819 1.428 . S
C1825 N1824 1.351 . S
C1825 C1826 1.434 . S
C1826 C1817 1.429 . S
C1826 N1823 1.350 . S
C1826 C1825 1.434 . S
C1827 C1828 1.369 . S
C1827 C1829 1.419 . S
C1827 H1831 0.930 . S
C1828 C1827 1.369 . S
C1828 C1837 1.429 . S
C1829 C1827 1.419 . S
C1829 C1830 1.363 . S
C1829 H1832 0.929 . S
C1830 C1829 1.363 . S
C1830 C1836 1.428 . S
H1831 C1827 0.930 . S
H1832 C1829 0.929 . S
S1833 N1834 1.613 . S
S1833 N1835 1.610 . S
N1834 S1833 1.613 . S
N1834 C1837 1.350 . S
N1835 S1833 1.610 . S
N1835 C1836 1.351 . S
C1836 C1830 1.428 . S
C1836 N1835 1.351 . S
C1836 C1837 1.434 . S
C1837 C1828 1.429 . S
C1837 N1834 1.350 . S
C1837 C1836 1.434 . S
C1838 C1839 1.369 . S
C1838 C1840 1.419 . S
C1838 H1842 0.930 . S
C1839 C1838 1.369 . S
C1839 C1848 1.429 . S
C1840 C1838 1.419 . S
C1840 C1841 1.363 . S
C1840 H1843 0.929 . S
C1841 C1840 1.363 . S
C1841 C1847 1.428 . S
H1842 C1838 0.930 . S
H1843 C1840 0.929 . S
S1844 N1845 1.613 . S
S1844 N1846 1.610 . S
N1845 S1844 1.613 . S
N1845 C1848 1.350 . S
N1846 S1844 1.610 . S
N1846 C1847 1.351 . S
C1847 C1841 1.428 . S
C1847 N1846 1.351 . S
C1847 C1848 1.434 . S
C1848 C1839 1.429 . S
C1848 N1845 1.350 . S
C1848 C1847 1.434 . S
C1849 C1850 1.369 . S
C1849 C1851 1.419 . S
C1849 H1853 0.930 . S
C1850 C1849 1.369 . S
C1850 C1859 1.429 . S
C1851 C1849 1.419 . S
C1851 C1852 1.363 . S
C1851 H1854 0.929 . S
C1852 C1851 1.363 . S
C1852 C1858 1.428 . S
H1853 C1849 0.930 . S
H1854 C1851 0.929 . S
S1855 N1856 1.613 . S
S1855 N1857 1.610 . S
N1856 S1855 1.613 . S
N1856 C1859 1.350 . S
N1857 S1855 1.610 . S
N1857 C1858 1.351 . S
C1858 C1852 1.428 . S
C1858 N1857 1.351 . S
C1858 C1859 1.434 . S
C1859 C1850 1.429 . S
C1859 N1856 1.350 . S
C1859 C1858 1.434 . S
C1860 C1861 1.369 . S
C1860 C1862 1.419 . S
C1860 H1864 0.930 . S
C1861 C1860 1.369 . S
C1861 C1870 1.429 . S
C1862 C1860 1.419 . S
C1862 C1863 1.363 . S
C1862 H1865 0.929 . S
C1863 C1862 1.363 . S
C1863 C1869 1.428 . S
H1864 C1860 0.930 . S
H1865 C1862 0.929 . S
S1866 N1867 1.613 . S
S1866 N1868 1.610 . S
N1867 S1866 1.613 . S
N1867 C1870 1.350 . S
N1868 S1866 1.610 . S
N1868 C1869 1.351 . S
C1869 C1863 1.428 . S
C1869 N1868 1.351 . S
C1869 C1870 1.434 . S
C1870 C1861 1.429 . S
C1870 N1867 1.350 . S
C1870 C1869 1.434 . S
C1871 C1872 1.369 . S
C1871 C1873 1.419 . S
C1871 H1875 0.930 . S
C1872 C1871 1.369 . S
C1872 C1881 1.429 . S
C1873 C1871 1.419 . S
C1873 C1874 1.363 . S
C1873 H1876 0.929 . S
C1874 C1873 1.363 . S
C1874 C1880 1.428 . S
H1875 C1871 0.930 . S
H1876 C1873 0.929 . S
S1877 N1878 1.613 . S
S1877 N1879 1.610 . S
N1878 S1877 1.613 . S
N1878 C1881 1.350 . S
N1879 S1877 1.610 . S
N1879 C1880 1.351 . S
C1880 C1874 1.428 . S
C1880 N1879 1.351 . S
C1880 C1881 1.434 . S
C1881 C1872 1.429 . S
C1881 N1878 1.350 . S
C1881 C1880 1.434 . S
C1882 C1883 1.369 . S
C1882 C1884 1.419 . S
C1882 H1886 0.930 . S
C1883 C1882 1.369 . S
C1883 C1892 1.429 . S
C1884 C1882 1.419 . S
C1884 C1885 1.363 . S
C1884 H1887 0.929 . S
C1885 C1884 1.363 . S
C1885 C1891 1.428 . S
H1886 C1882 0.930 . S
H1887 C1884 0.929 . S
S1888 N1889 1.613 . S
S1888 N1890 1.610 . S
N1889 S1888 1.613 . S
N1889 C1892 1.350 . S
N1890 S1888 1.610 . S
N1890 C1891 1.351 . S
C1891 C1885 1.428 . S
C1891 N1890 1.351 . S
C1891 C1892 1.434 . S
C1892 C1883 1.429 . S
C1892 N1889 1.350 . S
C1892 C1891 1.434 . S
C1893 C1894 1.369 . S
C1893 C1895 1.419 . S
C1893 H1897 0.930 . S
C1894 C1893 1.369 . S
C1894 C1903 1.429 . S
C1895 C1893 1.419 . S
C1895 C1896 1.363 . S
C1895 H1898 0.929 . S
C1896 C1895 1.363 . S
C1896 C1902 1.428 . S
H1897 C1893 0.930 . S
H1898 C1895 0.929 . S
S1899 N1900 1.613 . S
S1899 N1901 1.610 . S
N1900 S1899 1.613 . S
N1900 C1903 1.350 . S
N1901 S1899 1.610 . S
N1901 C1902 1.351 . S
C1902 C1896 1.428 . S
C1902 N1901 1.351 . S
C1902 C1903 1.434 . S
C1903 C1894 1.429 . S
C1903 N1900 1.350 . S
C1903 C1902 1.434 . S
C1904 C1905 1.369 . S
C1904 C1906 1.419 . S
C1904 H1908 0.930 . S
C1905 C1904 1.369 . S
C1905 C1914 1.429 . S
C1906 C1904 1.419 . S
C1906 C1907 1.363 . S
C1906 H1909 0.929 . S
C1907 C1906 1.363 . S
C1907 C1913 1.428 . S
H1908 C1904 0.930 . S
H1909 C1906 0.929 . S
S1910 N1911 1.613 . S
S1910 N1912 1.610 . S
N1911 S1910 1.613 . S
N1911 C1914 1.350 . S
N1912 S1910 1.610 . S
N1912 C1913 1.351 . S
C1913 C1907 1.428 . S
C1913 N1912 1.351 . S
C1913 C1914 1.434 . S
C1914 C1905 1.429 . S
C1914 N1911 1.350 . S
C1914 C1913 1.434 . S
C1915 C1916 1.369 . S
C1915 C1917 1.419 . S
C1915 H1919 0.930 . S
C1916 C1915 1.369 . S
C1916 C1925 1.429 . S
C1917 C1915 1.419 . S
C1917 C1918 1.363 . S
C1917 H1920 0.929 . S
C1918 C1917 1.363 . S
C1918 C1924 1.428 . S
H1919 C1915 0.930 . S
H1920 C1917 0.929 . S
S1921 N1922 1.613 . S
S1921 N1923 1.610 . S
N1922 S1921 1.613 . S
N1922 C1925 1.350 . S
N1923 S1921 1.610 . S
N1923 C1924 1.351 . S
C1924 C1918 1.428 . S
C1924 N1923 1.351 . S
C1924 C1925 1.434 . S
C1925 C1916 1.429 . S
C1925 N1922 1.350 . S
C1925 C1924 1.434 . S
C1926 C1927 1.369 . S
C1926 C1928 1.419 . S
C1926 H1930 0.930 . S
C1927 C1926 1.369 . S
C1927 C1936 1.429 . S
C1928 C1926 1.419 . S
C1928 C1929 1.363 . S
C1928 H1931 0.929 . S
C1929 C1928 1.363 . S
C1929 C1935 1.428 . S
H1930 C1926 0.930 . S
H1931 C1928 0.929 . S
S1932 N1933 1.613 . S
S1932 N1934 1.610 . S
N1933 S1932 1.613 . S
N1933 C1936 1.350 . S
N1934 S1932 1.610 . S
N1934 C1935 1.351 . S
C1935 C1929 1.428 . S
C1935 N1934 1.351 . S
C1935 C1936 1.434 . S
C1936 C1927 1.429 . S
C1936 N1933 1.350 . S
C1936 C1935 1.434 . S
C1937 C1938 1.369 . S
C1937 C1939 1.419 . S
C1937 H1941 0.930 . S
C1938 C1937 1.369 . S
C1938 C1947 1.429 . S
C1939 C1937 1.419 . S
C1939 C1940 1.363 . S
C1939 H1942 0.929 . S
C1940 C1939 1.363 . S
C1940 C1946 1.428 . S
H1941 C1937 0.930 . S
H1942 C1939 0.929 . S
S1943 N1944 1.613 . S
S1943 N1945 1.610 . S
N1944 S1943 1.613 . S
N1944 C1947 1.350 . S
N1945 S1943 1.610 . S
N1945 C1946 1.351 . S
C1946 C1940 1.428 . S
C1946 N1945 1.351 . S
C1946 C1947 1.434 . S
C1947 C1938 1.429 . S
C1947 N1944 1.350 . S
C1947 C1946 1.434 . S
C1948 C1949 1.369 . S
C1948 C1950 1.419 . S
C1948 H1952 0.930 . S
C1949 C1948 1.369 . S
C1949 C1958 1.429 . S
C1950 C1948 1.419 . S
C1950 C1951 1.363 . S
C1950 H1953 0.929 . S
C1951 C1950 1.363 . S
C1951 C1957 1.428 . S
H1952 C1948 0.930 . S
H1953 C1950 0.929 . S
S1954 N1955 1.613 . S
S1954 N1956 1.610 . S
N1955 S1954 1.613 . S
N1955 C1958 1.350 . S
N1956 S1954 1.610 . S
N1956 C1957 1.351 . S
C1957 C1951 1.428 . S
C1957 N1956 1.351 . S
C1957 C1958 1.434 . S
C1958 C1949 1.429 . S
C1958 N1955 1.350 . S
C1958 C1957 1.434 . S
C1959 C1960 1.369 . S
C1959 C1961 1.419 . S
C1959 H1963 0.930 . S
C1960 C1959 1.369 . S
C1960 C1969 1.429 . S
C1961 C1959 1.419 . S
C1961 C1962 1.363 . S
C1961 H1964 0.929 . S
C1962 C1961 1.363 . S
C1962 C1968 1.428 . S
H1963 C1959 0.930 . S
H1964 C1961 0.929 . S
S1965 N1966 1.613 . S
S1965 N1967 1.610 . S
N1966 S1965 1.613 . S
N1966 C1969 1.350 . S
N1967 S1965 1.610 . S
N1967 C1968 1.351 . S
C1968 C1962 1.428 . S
C1968 N1967 1.351 . S
C1968 C1969 1.434 . S
C1969 C1960 1.429 . S
C1969 N1966 1.350 . S
C1969 C1968 1.434 . S
C1970 C1971 1.369 . S
C1970 C1972 1.419 . S
C1970 H1974 0.930 . S
C1971 C1970 1.369 . S
C1971 C1980 1.429 . S
C1972 C1970 1.419 . S
C1972 C1973 1.363 . S
C1972 H1975 0.929 . S
C1973 C1972 1.363 . S
C1973 C1979 1.428 . S
H1974 C1970 0.930 . S
H1975 C1972 0.929 . S
S1976 N1977 1.613 . S
S1976 N1978 1.610 . S
N1977 S1976 1.613 . S
N1977 C1980 1.350 . S
N1978 S1976 1.610 . S
N1978 C1979 1.351 . S
C1979 C1973 1.428 . S
C1979 N1978 1.351 . S
C1979 C1980 1.434 . S
C1980 C1971 1.429 . S
C1980 N1977 1.350 . S
C1980 C1979 1.434 . S
C1981 C1982 1.369 . S
C1981 C1983 1.419 . S
C1981 H1985 0.930 . S
C1982 C1981 1.369 . S
C1982 C1991 1.429 . S
C1983 C1981 1.419 . S
C1983 C1984 1.363 . S
C1983 H1986 0.929 . S
C1984 C1983 1.363 . S
C1984 C1990 1.428 . S
H1985 C1981 0.930 . S
H1986 C1983 0.929 . S
S1987 N1988 1.613 . S
S1987 N1989 1.610 . S
N1988 S1987 1.613 . S
N1988 C1991 1.350 . S
N1989 S1987 1.610 . S
N1989 C1990 1.351 . S
C1990 C1984 1.428 . S
C1990 N1989 1.351 . S
C1990 C1991 1.434 . S
C1991 C1982 1.429 . S
C1991 N1988 1.350 . S
C1991 C1990 1.434 . S
C1992 C1993 1.369 . S
C1992 C1994 1.419 1_655 S
C1992 H1996 0.930 . S
C1993 C1992 1.369 . S
C1993 C2002 1.429 . S
C1994 C1992 1.419 1_455 S
C1994 C1995 1.363 . S
C1994 H1997 0.929 . S
C1995 C1994 1.363 . S
C1995 C2001 1.428 . S
H1996 C1992 0.930 . S
H1997 C1994 0.929 . S
S1998 N1999 1.613 . S
S1998 N2000 1.610 1_655 S
N1999 S1998 1.613 . S
N1999 C2002 1.350 . S
N2000 S1998 1.610 1_455 S
N2000 C2001 1.351 . S
C2001 C1995 1.428 . S
C2001 N2000 1.351 . S
C2001 C2002 1.434 1_455 S
C2002 C1993 1.429 . S
C2002 N1999 1.350 . S
C2002 C2001 1.434 1_655 S
C2003 C2004 1.369 . S
C2003 C2005 1.419 . S
C2003 H2007 0.930 . S
C2004 C2003 1.369 . S
C2004 C2013 1.429 1_565 S
C2005 C2003 1.419 . S
C2005 C2006 1.363 1_565 S
C2005 H2008 0.929 . S
C2006 C2005 1.363 1_545 S
C2006 C2012 1.428 . S
H2007 C2003 0.930 . S
H2008 C2005 0.929 . S
S2009 N2010 1.613 . S
S2009 N2011 1.610 . S
N2010 S2009 1.613 . S
N2010 C2013 1.350 . S
N2011 S2009 1.610 . S
N2011 C2012 1.351 . S
C2012 C2006 1.428 . S
C2012 N2011 1.351 . S
C2012 C2013 1.434 . S
C2013 C2004 1.429 1_545 S
C2013 N2010 1.350 . S
C2013 C2012 1.434 . S
C2014 C2015 1.369 . S
C2014 C2016 1.419 . S
C2014 H2018 0.930 . S
C2015 C2014 1.369 . S
C2015 C2024 1.429 1_655 S
C2016 C2014 1.419 . S
C2016 C2017 1.363 1_655 S
C2016 H2019 0.929 . S
C2017 C2016 1.363 1_455 S
C2017 C2023 1.428 . S
H2018 C2014 0.930 . S
H2019 C2016 0.929 . S
S2020 N2021 1.613 . S
S2020 N2022 1.610 . S
N2021 S2020 1.613 . S
N2021 C2024 1.350 . S
N2022 S2020 1.610 . S
N2022 C2023 1.351 . S
C2023 C2017 1.428 . S
C2023 N2022 1.351 . S
C2023 C2024 1.434 . S
C2024 C2015 1.429 1_455 S
C2024 N2021 1.350 . S
C2024 C2023 1.434 . S
C2025 C2026 1.369 . S
C2025 C2027 1.432 . S
C2025 H2029 0.930 . S
C2026 C2025 1.369 . S
C2026 C2035 1.429 1_545 S
C2027 C2025 1.432 . S
C2027 C2028 1.348 1_545 S
C2027 H2030 0.932 . S
C2028 C2027 1.348 1_565 S
C2028 C2034 1.428 . S
H2029 C2025 0.930 . S
H2030 C2027 0.932 . S
S2031 N2032 1.613 . S
S2031 N2033 1.610 . S
N2032 S2031 1.613 . S
N2032 C2035 1.350 . S
N2033 S2031 1.610 . S
N2033 C2034 1.351 . S
C2034 C2028 1.428 . S
C2034 N2033 1.351 . S
C2034 C2035 1.434 . S
C2035 C2026 1.429 1_565 S
C2035 N2032 1.350 . S
C2035 C2034 1.434 . S
C2036 C2037 1.369 1_655 S
C2036 C2038 1.419 . S
C2036 H2040 0.930 . S
C2037 C2036 1.369 1_455 S
C2037 C2046 1.429 . S
C2038 C2036 1.419 . S
C2038 C2039 1.363 . S
C2038 H2041 0.929 . S
C2039 C2038 1.363 . S
C2039 C2045 1.428 1_655 S
H2040 C2036 0.930 . S
H2041 C2038 0.929 . S
S2042 N2043 1.613 . S
S2042 N2044 1.610 . S
N2043 S2042 1.613 . S
N2043 C2046 1.350 . S
N2044 S2042 1.610 . S
N2044 C2045 1.351 . S
C2045 C2039 1.428 1_455 S
C2045 N2044 1.351 . S
C2045 C2046 1.434 . S
C2046 C2037 1.429 . S
C2046 N2043 1.350 . S
C2046 C2045 1.434 . S
C2047 C2048 1.369 . S
C2047 C2049 1.419 . S
C2047 H2051 0.930 . S
C2048 C2047 1.369 . S
C2048 C2057 1.429 1_565 S
C2049 C2047 1.419 . S
C2049 C2050 1.363 1_565 S
C2049 H2052 0.929 . S
C2050 C2049 1.363 1_545 S
C2050 C2056 1.428 . S
H2051 C2047 0.930 . S
H2052 C2049 0.929 . S
S2053 N2054 1.613 . S
S2053 N2055 1.610 . S
N2054 S2053 1.613 . S
N2054 C2057 1.350 . S
N2055 S2053 1.610 . S
N2055 C2056 1.351 . S
C2056 C2050 1.428 . S
C2056 N2055 1.351 . S
C2056 C2057 1.434 . S
C2057 C2048 1.429 1_545 S
C2057 N2054 1.350 . S
C2057 C2056 1.434 . S
C2058 C2059 1.369 . S
C2058 C2060 1.419 . S
C2058 H2062 0.930 . S
C2059 C2058 1.369 . S
C2059 C2068 1.429 1_455 S
C2060 C2058 1.419 . S
C2060 C2061 1.363 1_455 S
C2060 H2063 0.929 . S
C2061 C2060 1.363 1_655 S
C2061 C2067 1.428 . S
H2062 C2058 0.930 . S
H2063 C2060 0.929 . S
S2064 N2065 1.613 . S
S2064 N2066 1.610 . S
N2065 S2064 1.613 . S
N2065 C2068 1.350 . S
N2066 S2064 1.610 . S
N2066 C2067 1.351 . S
C2067 C2061 1.428 . S
C2067 N2066 1.351 . S
C2067 C2068 1.434 . S
C2068 C2059 1.429 1_655 S
C2068 N2065 1.350 . S
C2068 C2067 1.434 . S
C2069 C2070 1.369 . S
C2069 C2071 1.419 . S
C2069 H2073 0.930 . S
C2070 C2069 1.369 . S
C2070 C2079 1.429 1_545 S
C2071 C2069 1.419 . S
C2071 C2072 1.363 1_545 S
C2071 H2074 0.929 . S
C2072 C2071 1.363 1_565 S
C2072 C2078 1.428 . S
H2073 C2069 0.930 . S
H2074 C2071 0.929 . S
S2075 N2076 1.613 . S
S2075 N2077 1.610 . S
N2076 S2075 1.613 . S
N2076 C2079 1.350 . S
N2077 S2075 1.610 . S
N2077 C2078 1.351 . S
C2078 C2072 1.428 . S
C2078 N2077 1.351 . S
C2078 C2079 1.434 . S
C2079 C2070 1.429 1_565 S
C2079 N2076 1.350 . S
C2079 C2078 1.434 . S
C2080 C2081 1.369 1_554 S
C2080 C2082 1.419 . S
C2080 H2084 0.930 . S
C2081 C2080 1.369 1_556 S
C2081 C2090 1.429 . S
C2082 C2080 1.419 . S
C2082 C2083 1.363 . S
C2082 H2085 0.929 . S
C2083 C2082 1.363 . S
C2083 C2089 1.428 1_554 S
H2084 C2080 0.930 . S
H2085 C2082 0.929 . S
S2086 N2087 1.613 . S
S2086 N2088 1.610 . S
N2087 S2086 1.613 . S
N2087 C2090 1.350 . S
N2088 S2086 1.610 . S
N2088 C2089 1.351 . S
C2089 C2083 1.428 1_556 S
C2089 N2088 1.351 . S
C2089 C2090 1.434 . S
C2090 C2081 1.429 . S
C2090 N2087 1.350 . S
C2090 C2089 1.434 . S
C2091 C2092 1.369 . S
C2091 C2093 1.419 . S
C2091 H2095 0.930 . S
C2092 C2091 1.369 . S
C2092 C2101 1.429 1_554 S
C2093 C2091 1.419 . S
C2093 C2094 1.363 1_554 S
C2093 H2096 0.929 . S
C2094 C2093 1.363 1_556 S
C2094 C2100 1.428 . S
H2095 C2091 0.930 . S
H2096 C2093 0.929 . S
S2097 N2098 1.613 . S
S2097 N2099 1.610 . S
N2098 S2097 1.613 . S
N2098 C2101 1.350 . S
N2099 S2097 1.610 . S
N2099 C2100 1.351 . S
C2100 C2094 1.428 . S
C2100 N2099 1.351 . S
C2100 C2101 1.434 . S
C2101 C2092 1.429 1_556 S
C2101 N2098 1.350 . S
C2101 C2100 1.434 . S
C2102 C2103 1.369 1_556 S
C2102 C2104 1.419 . S
C2102 H2106 0.930 . S
C2103 C2102 1.369 1_554 S
C2103 C2112 1.429 . S
C2104 C2102 1.419 . S
C2104 C2105 1.363 . S
C2104 H2107 0.929 . S
C2105 C2104 1.363 . S
C2105 C2111 1.428 1_556 S
H2106 C2102 0.930 . S
H2107 C2104 0.929 . S
S2108 N2109 1.613 . S
S2108 N2110 1.610 . S
N2109 S2108 1.613 . S
N2109 C2112 1.350 . S
N2110 S2108 1.610 . S
N2110 C2111 1.351 . S
C2111 C2105 1.428 1_554 S
C2111 N2110 1.351 . S
C2111 C2112 1.434 . S
C2112 C2103 1.429 . S
C2112 N2109 1.350 . S
C2112 C2111 1.434 . S
C2113 C2114 1.369 . S
C2113 C2115 1.419 . S
C2113 H2117 0.930 . S
C2114 C2113 1.369 . S
C2114 C2123 1.429 1_556 S
C2115 C2113 1.419 . S
C2115 C2116 1.363 1_556 S
C2115 H2118 0.929 . S
C2116 C2115 1.363 1_554 S
C2116 C2122 1.428 . S
H2117 C2113 0.930 . S
H2118 C2115 0.929 . S
S2119 N2120 1.613 . S
S2119 N2121 1.610 . S
N2120 S2119 1.613 . S
N2120 C2123 1.350 . S
N2121 S2119 1.610 . S
N2121 C2122 1.351 . S
C2122 C2116 1.428 . S
C2122 N2121 1.351 . S
C2122 C2123 1.434 . S
C2123 C2114 1.429 1_554 S
C2123 N2120 1.350 . S
C2123 C2122 1.434 . S
C2124 C2125 1.369 . S
C2124 C2126 1.419 . S
C2124 H2128 0.930 . S
C2125 C2124 1.369 . S
C2125 C2134 1.429 . S
C2126 C2124 1.419 . S
C2126 C2127 1.363 . S
C2126 H2129 0.929 . S
C2127 C2126 1.363 . S
C2127 C2133 1.428 . S
H2128 C2124 0.930 . S
H2129 C2126 0.929 . S
S2130 N2131 1.613 . S
S2130 N2132 1.610 . S
N2131 S2130 1.613 . S
N2131 C2134 1.350 . S
N2132 S2130 1.610 . S
N2132 C2133 1.351 . S
C2133 C2127 1.428 . S
C2133 N2132 1.351 . S
C2133 C2134 1.434 . S
C2134 C2125 1.429 . S
C2134 N2131 1.350 . S
C2134 C2133 1.434 . S
C2135 C2136 1.369 . S
C2135 C2137 1.419 . S
C2135 H2139 0.930 . S
C2136 C2135 1.369 . S
C2136 C2145 1.429 . S
C2137 C2135 1.419 . S
C2137 C2138 1.363 . S
C2137 H2140 0.929 . S
C2138 C2137 1.363 . S
C2138 C2144 1.428 . S
H2139 C2135 0.930 . S
H2140 C2137 0.929 . S
S2141 N2142 1.613 . S
S2141 N2143 1.610 . S
N2142 S2141 1.613 . S
N2142 C2145 1.350 . S
N2143 S2141 1.610 . S
N2143 C2144 1.351 . S
C2144 C2138 1.428 . S
C2144 N2143 1.351 . S
C2144 C2145 1.434 . S
C2145 C2136 1.429 . S
C2145 N2142 1.350 . S
C2145 C2144 1.434 . S
C2146 C2147 1.369 . S
C2146 C2148 1.419 . S
C2146 H2150 0.930 . S
C2147 C2146 1.369 . S
C2147 C2156 1.429 . S
C2148 C2146 1.419 . S
C2148 C2149 1.363 . S
C2148 H2151 0.929 . S
C2149 C2148 1.363 . S
C2149 C2155 1.428 . S
H2150 C2146 0.930 . S
H2151 C2148 0.929 . S
S2152 N2153 1.613 . S
S2152 N2154 1.610 . S
N2153 S2152 1.613 . S
N2153 C2156 1.350 . S
N2154 S2152 1.610 . S
N2154 C2155 1.351 . S
C2155 C2149 1.428 . S
C2155 N2154 1.351 . S
C2155 C2156 1.434 . S
C2156 C2147 1.429 . S
C2156 N2153 1.350 . S
C2156 C2155 1.434 . S
C2157 C2158 1.369 . S
C2157 C2159 1.419 . S
C2157 H2161 0.930 . S
C2158 C2157 1.369 . S
C2158 C2167 1.429 . S
C2159 C2157 1.419 . S
C2159 C2160 1.363 . S
C2159 H2162 0.929 . S
C2160 C2159 1.363 . S
C2160 C2166 1.428 . S
H2161 C2157 0.930 . S
H2162 C2159 0.929 . S
S2163 N2164 1.613 . S
S2163 N2165 1.610 . S
N2164 S2163 1.613 . S
N2164 C2167 1.350 . S
N2165 S2163 1.610 . S
N2165 C2166 1.351 . S
C2166 C2160 1.428 . S
C2166 N2165 1.351 . S
C2166 C2167 1.434 . S
C2167 C2158 1.429 . S
C2167 N2164 1.350 . S
C2167 C2166 1.434 . S
C2168 C2169 1.369 . S
C2168 C2170 1.419 . S
C2168 H2172 0.930 . S
C2169 C2168 1.369 . S
C2169 C2178 1.429 . S
C2170 C2168 1.419 . S
C2170 C2171 1.363 . S
C2170 H2173 0.929 . S
C2171 C2170 1.363 . S
C2171 C2177 1.428 . S
H2172 C2168 0.930 . S
H2173 C2170 0.929 . S
S2174 N2175 1.613 . S
S2174 N2176 1.610 . S
N2175 S2174 1.613 . S
N2175 C2178 1.350 . S
N2176 S2174 1.610 . S
N2176 C2177 1.351 . S
C2177 C2171 1.428 . S
C2177 N2176 1.351 . S
C2177 C2178 1.434 . S
C2178 C2169 1.429 . S
C2178 N2175 1.350 . S
C2178 C2177 1.434 . S
C2179 C2180 1.369 . S
C2179 C2181 1.419 . S
C2179 H2183 0.930 . S
C2180 C2179 1.369 . S
C2180 C2189 1.429 . S
C2181 C2179 1.419 . S
C2181 C2182 1.363 . S
C2181 H2184 0.929 . S
C2182 C2181 1.363 . S
C2182 C2188 1.428 . S
H2183 C2179 0.930 . S
H2184 C2181 0.929 . S
S2185 N2186 1.613 . S
S2185 N2187 1.610 . S
N2186 S2185 1.613 . S
N2186 C2189 1.350 . S
N2187 S2185 1.610 . S
N2187 C2188 1.351 . S
C2188 C2182 1.428 . S
C2188 N2187 1.351 . S
C2188 C2189 1.434 . S
C2189 C2180 1.429 . S
C2189 N2186 1.350 . S
C2189 C2188 1.434 . S
C2190 C2191 1.369 . S
C2190 C2192 1.419 . S
C2190 H2194 0.930 . S
C2191 C2190 1.369 . S
C2191 C2200 1.429 . S
C2192 C2190 1.419 . S
C2192 C2193 1.363 . S
C2192 H2195 0.929 . S
C2193 C2192 1.363 . S
C2193 C2199 1.428 . S
H2194 C2190 0.930 . S
H2195 C2192 0.929 . S
S2196 N2197 1.613 . S
S2196 N2198 1.610 . S
N2197 S2196 1.613 . S
N2197 C2200 1.350 . S
N2198 S2196 1.610 . S
N2198 C2199 1.351 . S
C2199 C2193 1.428 . S
C2199 N2198 1.351 . S
C2199 C2200 1.434 . S
C2200 C2191 1.429 . S
C2200 N2197 1.350 . S
C2200 C2199 1.434 . S
C2201 C2202 1.369 . S
C2201 C2203 1.419 . S
C2201 H2205 0.930 . S
C2202 C2201 1.369 . S
C2202 C2211 1.429 . S
C2203 C2201 1.419 . S
C2203 C2204 1.363 . S
C2203 H2206 0.929 . S
C2204 C2203 1.363 . S
C2204 C2210 1.428 . S
H2205 C2201 0.930 . S
H2206 C2203 0.929 . S
S2207 N2208 1.613 . S
S2207 N2209 1.610 . S
N2208 S2207 1.613 . S
N2208 C2211 1.350 . S
N2209 S2207 1.610 . S
N2209 C2210 1.351 . S
C2210 C2204 1.428 . S
C2210 N2209 1.351 . S
C2210 C2211 1.434 . S
C2211 C2202 1.429 . S
C2211 N2208 1.350 . S
C2211 C2210 1.434 . S
C2212 C2213 1.369 . S
C2212 C2214 1.419 . S
C2212 H2216 0.930 . S
C2213 C2212 1.369 . S
C2213 C2222 1.429 . S
C2214 C2212 1.419 . S
C2214 C2215 1.363 . S
C2214 H2217 0.929 . S
C2215 C2214 1.363 . S
C2215 C2221 1.428 . S
H2216 C2212 0.930 . S
H2217 C2214 0.929 . S
S2218 N2219 1.613 . S
S2218 N2220 1.610 . S
N2219 S2218 1.613 . S
N2219 C2222 1.350 . S
N2220 S2218 1.610 . S
N2220 C2221 1.351 . S
C2221 C2215 1.428 . S
C2221 N2220 1.351 . S
C2221 C2222 1.434 . S
C2222 C2213 1.429 . S
C2222 N2219 1.350 . S
C2222 C2221 1.434 . S
C2223 C2224 1.369 . S
C2223 C2225 1.419 . S
C2223 H2227 0.930 . S
C2224 C2223 1.369 . S
C2224 C2233 1.429 . S
C2225 C2223 1.419 . S
C2225 C2226 1.363 . S
C2225 H2228 0.929 . S
C2226 C2225 1.363 . S
C2226 C2232 1.428 . S
H2227 C2223 0.930 . S
H2228 C2225 0.929 . S
S2229 N2230 1.613 . S
S2229 N2231 1.610 . S
N2230 S2229 1.613 . S
N2230 C2233 1.350 . S
N2231 S2229 1.610 . S
N2231 C2232 1.351 . S
C2232 C2226 1.428 . S
C2232 N2231 1.351 . S
C2232 C2233 1.434 . S
C2233 C2224 1.429 . S
C2233 N2230 1.350 . S
C2233 C2232 1.434 . S
C2234 C2235 1.369 . S
C2234 C2236 1.419 . S
C2234 H2238 0.930 . S
C2235 C2234 1.369 . S
C2235 C2244 1.429 . S
C2236 C2234 1.419 . S
C2236 C2237 1.363 . S
C2236 H2239 0.929 . S
C2237 C2236 1.363 . S
C2237 C2243 1.428 . S
H2238 C2234 0.930 . S
H2239 C2236 0.929 . S
S2240 N2241 1.613 . S
S2240 N2242 1.610 . S
N2241 S2240 1.613 . S
N2241 C2244 1.350 . S
N2242 S2240 1.610 . S
N2242 C2243 1.351 . S
C2243 C2237 1.428 . S
C2243 N2242 1.351 . S
C2243 C2244 1.434 . S
C2244 C2235 1.429 . S
C2244 N2241 1.350 . S
C2244 C2243 1.434 . S
C2245 C2246 1.369 . S
C2245 C2247 1.419 . S
C2245 H2249 0.930 . S
C2246 C2245 1.369 . S
C2246 C2255 1.429 . S
C2247 C2245 1.419 . S
C2247 C2248 1.363 . S
C2247 H2250 0.929 . S
C2248 C2247 1.363 . S
C2248 C2254 1.428 . S
H2249 C2245 0.930 . S
H2250 C2247 0.929 . S
S2251 N2252 1.613 . S
S2251 N2253 1.610 . S
N2252 S2251 1.613 . S
N2252 C2255 1.350 . S
N2253 S2251 1.610 . S
N2253 C2254 1.351 . S
C2254 C2248 1.428 . S
C2254 N2253 1.351 . S
C2254 C2255 1.434 . S
C2255 C2246 1.429 . S
C2255 N2252 1.350 . S
C2255 C2254 1.434 . S
C2256 C2257 1.369 . S
C2256 C2258 1.419 . S
C2256 H2260 0.930 . S
C2257 C2256 1.369 . S
C2257 C2266 1.429 . S
C2258 C2256 1.419 . S
C2258 C2259 1.363 . S
C2258 H2261 0.929 . S
C2259 C2258 1.363 . S
C2259 C2265 1.428 . S
H2260 C2256 0.930 . S
H2261 C2258 0.929 . S
S2262 N2263 1.613 . S
S2262 N2264 1.610 . S
N2263 S2262 1.613 . S
N2263 C2266 1.350 . S
N2264 S2262 1.610 . S
N2264 C2265 1.351 . S
C2265 C2259 1.428 . S
C2265 N2264 1.351 . S
C2265 C2266 1.434 . S
C2266 C2257 1.429 . S
C2266 N2263 1.350 . S
C2266 C2265 1.434 . S
C2267 C2268 1.369 . S
C2267 C2269 1.419 . S
C2267 H2271 0.930 . S
C2268 C2267 1.369 . S
C2268 C2277 1.429 . S
C2269 C2267 1.419 . S
C2269 C2270 1.363 . S
C2269 H2272 0.929 . S
C2270 C2269 1.363 . S
C2270 C2276 1.428 . S
H2271 C2267 0.930 . S
H2272 C2269 0.929 . S
S2273 N2274 1.613 . S
S2273 N2275 1.610 . S
N2274 S2273 1.613 . S
N2274 C2277 1.350 . S
N2275 S2273 1.610 . S
N2275 C2276 1.351 . S
C2276 C2270 1.428 . S
C2276 N2275 1.351 . S
C2276 C2277 1.434 . S
C2277 C2268 1.429 . S
C2277 N2274 1.350 . S
C2277 C2276 1.434 . S
C2278 C2279 1.369 . S
C2278 C2280 1.419 . S
C2278 H2282 0.930 . S
C2279 C2278 1.369 . S
C2279 C2288 1.429 . S
C2280 C2278 1.419 . S
C2280 C2281 1.363 . S
C2280 H2283 0.929 . S
C2281 C2280 1.363 . S
C2281 C2287 1.428 . S
H2282 C2278 0.930 . S
H2283 C2280 0.929 . S
S2284 N2285 1.613 . S
S2284 N2286 1.610 . S
N2285 S2284 1.613 . S
N2285 C2288 1.350 . S
N2286 S2284 1.610 . S
N2286 C2287 1.351 . S
C2287 C2281 1.428 . S
C2287 N2286 1.351 . S
C2287 C2288 1.434 . S
C2288 C2279 1.429 . S
C2288 N2285 1.350 . S
C2288 C2287 1.434 . S
C2289 C2290 1.369 . S
C2289 C2291 1.419 . S
C2289 H2293 0.930 . S
C2290 C2289 1.369 . S
C2290 C2299 1.429 . S
C2291 C2289 1.419 . S
C2291 C2292 1.363 . S
C2291 H2294 0.929 . S
C2292 C2291 1.363 . S
C2292 C2298 1.428 . S
H2293 C2289 0.930 . S
H2294 C2291 0.929 . S
S2295 N2296 1.613 . S
S2295 N2297 1.610 . S
N2296 S2295 1.613 . S
N2296 C2299 1.350 . S
N2297 S2295 1.610 . S
N2297 C2298 1.351 . S
C2298 C2292 1.428 . S
C2298 N2297 1.351 . S
C2298 C2299 1.434 . S
C2299 C2290 1.429 . S
C2299 N2296 1.350 . S
C2299 C2298 1.434 . S
C2300 C2301 1.369 . S
C2300 C2302 1.419 . S
C2300 H2304 0.930 . S
C2301 C2300 1.369 . S
C2301 C2310 1.429 . S
C2302 C2300 1.419 . S
C2302 C2303 1.363 . S
C2302 H2305 0.929 . S
C2303 C2302 1.363 . S
C2303 C2309 1.428 . S
H2304 C2300 0.930 . S
H2305 C2302 0.929 . S
S2306 N2307 1.613 . S
S2306 N2308 1.610 . S
N2307 S2306 1.613 . S
N2307 C2310 1.350 . S
N2308 S2306 1.610 . S
N2308 C2309 1.351 . S
C2309 C2303 1.428 . S
C2309 N2308 1.351 . S
C2309 C2310 1.434 . S
C2310 C2301 1.429 . S
C2310 N2307 1.350 . S
C2310 C2309 1.434 . S
C2311 C2312 1.369 . S
C2311 C2313 1.419 . S
C2311 H2315 0.930 . S
C2312 C2311 1.369 . S
C2312 C2321 1.429 . S
C2313 C2311 1.419 . S
C2313 C2314 1.363 . S
C2313 H2316 0.929 . S
C2314 C2313 1.363 . S
C2314 C2320 1.428 . S
H2315 C2311 0.930 . S
H2316 C2313 0.929 . S
S2317 N2318 1.613 . S
S2317 N2319 1.610 . S
N2318 S2317 1.613 . S
N2318 C2321 1.350 . S
N2319 S2317 1.610 . S
N2319 C2320 1.351 . S
C2320 C2314 1.428 . S
C2320 N2319 1.351 . S
C2320 C2321 1.434 . S
C2321 C2312 1.429 . S
C2321 N2318 1.350 . S
C2321 C2320 1.434 . S
C2322 C2323 1.369 . S
C2322 C2324 1.419 . S
C2322 H2326 0.930 . S
C2323 C2322 1.369 . S
C2323 C2332 1.429 . S
C2324 C2322 1.419 . S
C2324 C2325 1.363 . S
C2324 H2327 0.929 . S
C2325 C2324 1.363 . S
C2325 C2331 1.428 . S
H2326 C2322 0.930 . S
H2327 C2324 0.929 . S
S2328 N2329 1.613 . S
S2328 N2330 1.610 . S
N2329 S2328 1.613 . S
N2329 C2332 1.350 . S
N2330 S2328 1.610 . S
N2330 C2331 1.351 . S
C2331 C2325 1.428 . S
C2331 N2330 1.351 . S
C2331 C2332 1.434 . S
C2332 C2323 1.429 . S
C2332 N2329 1.350 . S
C2332 C2331 1.434 . S
C2333 C2334 1.369 . S
C2333 C2335 1.419 . S
C2333 H2337 0.930 . S
C2334 C2333 1.369 . S
C2334 C2343 1.429 . S
C2335 C2333 1.419 . S
C2335 C2336 1.363 . S
C2335 H2338 0.929 . S
C2336 C2335 1.363 . S
C2336 C2342 1.428 . S
H2337 C2333 0.930 . S
H2338 C2335 0.929 . S
S2339 N2340 1.613 . S
S2339 N2341 1.610 . S
N2340 S2339 1.613 . S
N2340 C2343 1.350 . S
N2341 S2339 1.610 . S
N2341 C2342 1.351 . S
C2342 C2336 1.428 . S
C2342 N2341 1.351 . S
C2342 C2343 1.434 . S
C2343 C2334 1.429 . S
C2343 N2340 1.350 . S
C2343 C2342 1.434 . S
C2344 C2345 1.369 . S
C2344 C2346 1.419 . S
C2344 H2348 0.930 . S
C2345 C2344 1.369 . S
C2345 C2354 1.429 . S
C2346 C2344 1.419 . S
C2346 C2347 1.363 . S
C2346 H2349 0.929 . S
C2347 C2346 1.363 . S
C2347 C2353 1.428 . S
H2348 C2344 0.930 . S
H2349 C2346 0.929 . S
S2350 N2351 1.613 . S
S2350 N2352 1.610 . S
N2351 S2350 1.613 . S
N2351 C2354 1.350 . S
N2352 S2350 1.610 . S
N2352 C2353 1.351 . S
C2353 C2347 1.428 . S
C2353 N2352 1.351 . S
C2353 C2354 1.434 . S
C2354 C2345 1.429 . S
C2354 N2351 1.350 . S
C2354 C2353 1.434 . S
C2355 C2356 1.369 . S
C2355 C2357 1.419 . S
C2355 H2359 0.930 . S
C2356 C2355 1.369 . S
C2356 C2365 1.429 . S
C2357 C2355 1.419 . S
C2357 C2358 1.363 . S
C2357 H2360 0.929 . S
C2358 C2357 1.363 . S
C2358 C2364 1.428 . S
H2359 C2355 0.930 . S
H2360 C2357 0.929 . S
S2361 N2362 1.613 . S
S2361 N2363 1.610 . S
N2362 S2361 1.613 . S
N2362 C2365 1.350 . S
N2363 S2361 1.610 . S
N2363 C2364 1.351 . S
C2364 C2358 1.428 . S
C2364 N2363 1.351 . S
C2364 C2365 1.434 . S
C2365 C2356 1.429 . S
C2365 N2362 1.350 . S
C2365 C2364 1.434 . S
C2366 C2367 1.369 . S
C2366 C2368 1.419 . S
C2366 H2370 0.930 . S
C2367 C2366 1.369 . S
C2367 C2376 1.429 . S
C2368 C2366 1.419 . S
C2368 C2369 1.363 . S
C2368 H2371 0.929 . S
C2369 C2368 1.363 . S
C2369 C2375 1.428 . S
H2370 C2366 0.930 . S
H2371 C2368 0.929 . S
S2372 N2373 1.613 . S
S2372 N2374 1.610 . S
N2373 S2372 1.613 . S
N2373 C2376 1.350 . S
N2374 S2372 1.610 . S
N2374 C2375 1.351 . S
C2375 C2369 1.428 . S
C2375 N2374 1.351 . S
C2375 C2376 1.434 . S
C2376 C2367 1.429 . S
C2376 N2373 1.350 . S
C2376 C2375 1.434 . S
C2377 C2378 1.369 . S
C2377 C2379 1.419 . S
C2377 H2381 0.930 . S
C2378 C2377 1.369 . S
C2378 C2387 1.429 . S
C2379 C2377 1.419 . S
C2379 C2380 1.363 . S
C2379 H2382 0.929 . S
C2380 C2379 1.363 . S
C2380 C2386 1.428 . S
H2381 C2377 0.930 . S
H2382 C2379 0.929 . S
S2383 N2384 1.613 . S
S2383 N2385 1.610 . S
N2384 S2383 1.613 . S
N2384 C2387 1.350 . S
N2385 S2383 1.610 . S
N2385 C2386 1.351 . S
C2386 C2380 1.428 . S
C2386 N2385 1.351 . S
C2386 C2387 1.434 . S
C2387 C2378 1.429 . S
C2387 N2384 1.350 . S
C2387 C2386 1.434 . S
C2388 C2389 1.369 . S
C2388 C2390 1.419 . S
C2388 H2392 0.930 . S
C2389 C2388 1.369 . S
C2389 C2398 1.429 . S
C2390 C2388 1.419 . S
C2390 C2391 1.363 . S
C2390 H2393 0.929 . S
C2391 C2390 1.363 . S
C2391 C2397 1.428 . S
H2392 C2388 0.930 . S
H2393 C2390 0.929 . S
S2394 N2395 1.613 . S
S2394 N2396 1.610 . S
N2395 S2394 1.613 . S
N2395 C2398 1.350 . S
N2396 S2394 1.610 . S
N2396 C2397 1.351 . S
C2397 C2391 1.428 . S
C2397 N2396 1.351 . S
C2397 C2398 1.434 . S
C2398 C2389 1.429 . S
C2398 N2395 1.350 . S
C2398 C2397 1.434 . S
C2399 C2400 1.369 . S
C2399 C2401 1.419 . S
C2399 H2403 0.930 . S
C2400 C2399 1.369 . S
C2400 C2409 1.429 . S
C2401 C2399 1.419 . S
C2401 C2402 1.363 . S
C2401 H2404 0.929 . S
C2402 C2401 1.363 . S
C2402 C2408 1.428 . S
H2403 C2399 0.930 . S
H2404 C2401 0.929 . S
S2405 N2406 1.613 . S
S2405 N2407 1.610 . S
N2406 S2405 1.613 . S
N2406 C2409 1.350 . S
N2407 S2405 1.610 . S
N2407 C2408 1.351 . S
C2408 C2402 1.428 . S
C2408 N2407 1.351 . S
C2408 C2409 1.434 . S
C2409 C2400 1.429 . S
C2409 N2406 1.350 . S
C2409 C2408 1.434 . S
C2410 C2411 1.369 . S
C2410 C2412 1.419 . S
C2410 H2414 0.930 . S
C2411 C2410 1.369 . S
C2411 C2420 1.429 . S
C2412 C2410 1.419 . S
C2412 C2413 1.363 . S
C2412 H2415 0.929 . S
C2413 C2412 1.363 . S
C2413 C2419 1.428 . S
H2414 C2410 0.930 . S
H2415 C2412 0.929 . S
S2416 N2417 1.613 . S
S2416 N2418 1.610 . S
N2417 S2416 1.613 . S
N2417 C2420 1.350 . S
N2418 S2416 1.610 . S
N2418 C2419 1.351 . S
C2419 C2413 1.428 . S
C2419 N2418 1.351 . S
C2419 C2420 1.434 . S
C2420 C2411 1.429 . S
C2420 N2417 1.350 . S
C2420 C2419 1.434 . S
C2421 C2422 1.369 . S
C2421 C2423 1.419 . S
C2421 H2425 0.930 . S
C2422 C2421 1.369 . S
C2422 C2431 1.429 . S
C2423 C2421 1.419 . S
C2423 C2424 1.363 . S
C2423 H2426 0.929 . S
C2424 C2423 1.363 . S
C2424 C2430 1.428 . S
H2425 C2421 0.930 . S
H2426 C2423 0.929 . S
S2427 N2428 1.613 . S
S2427 N2429 1.610 . S
N2428 S2427 1.613 . S
N2428 C2431 1.350 . S
N2429 S2427 1.610 . S
N2429 C2430 1.351 . S
C2430 C2424 1.428 . S
C2430 N2429 1.351 . S
C2430 C2431 1.434 . S
C2431 C2422 1.429 . S
C2431 N2428 1.350 . S
C2431 C2430 1.434 . S
C2432 C2433 1.369 . S
C2432 C2434 1.419 . S
C2432 H2436 0.930 . S
C2433 C2432 1.369 . S
C2433 C2442 1.429 . S
C2434 C2432 1.419 . S
C2434 C2435 1.363 . S
C2434 H2437 0.929 . S
C2435 C2434 1.363 . S
C2435 C2441 1.428 . S
H2436 C2432 0.930 . S
H2437 C2434 0.929 . S
S2438 N2439 1.613 . S
S2438 N2440 1.610 . S
N2439 S2438 1.613 . S
N2439 C2442 1.350 . S
N2440 S2438 1.610 . S
N2440 C2441 1.351 . S
C2441 C2435 1.428 . S
C2441 N2440 1.351 . S
C2441 C2442 1.434 . S
C2442 C2433 1.429 . S
C2442 N2439 1.350 . S
C2442 C2441 1.434 . S
C2443 C2444 1.369 . S
C2443 C2445 1.419 . S
C2443 H2447 0.930 . S
C2444 C2443 1.369 . S
C2444 C2453 1.429 . S
C2445 C2443 1.419 . S
C2445 C2446 1.363 . S
C2445 H2448 0.929 . S
C2446 C2445 1.363 . S
C2446 C2452 1.428 . S
H2447 C2443 0.930 . S
H2448 C2445 0.929 . S
S2449 N2450 1.613 . S
S2449 N2451 1.610 . S
N2450 S2449 1.613 . S
N2450 C2453 1.350 . S
N2451 S2449 1.610 . S
N2451 C2452 1.351 . S
C2452 C2446 1.428 . S
C2452 N2451 1.351 . S
C2452 C2453 1.434 . S
C2453 C2444 1.429 . S
C2453 N2450 1.350 . S
C2453 C2452 1.434 . S
C2454 C2455 1.369 . S
C2454 C2456 1.419 . S
C2454 H2458 0.930 . S
C2455 C2454 1.369 . S
C2455 C2464 1.429 . S
C2456 C2454 1.419 . S
C2456 C2457 1.363 . S
C2456 H2459 0.929 . S
C2457 C2456 1.363 . S
C2457 C2463 1.428 . S
H2458 C2454 0.930 . S
H2459 C2456 0.929 . S
S2460 N2461 1.613 . S
S2460 N2462 1.610 . S
N2461 S2460 1.613 . S
N2461 C2464 1.350 . S
N2462 S2460 1.610 . S
N2462 C2463 1.351 . S
C2463 C2457 1.428 . S
C2463 N2462 1.351 . S
C2463 C2464 1.434 . S
C2464 C2455 1.429 . S
C2464 N2461 1.350 . S
C2464 C2463 1.434 . S
C2465 C2466 1.369 . S
C2465 C2467 1.419 . S
C2465 H2469 0.930 . S
C2466 C2465 1.369 . S
C2466 C2475 1.429 . S
C2467 C2465 1.419 . S
C2467 C2468 1.363 . S
C2467 H2470 0.929 . S
C2468 C2467 1.363 . S
C2468 C2474 1.428 . S
H2469 C2465 0.930 . S
H2470 C2467 0.929 . S
S2471 N2472 1.613 . S
S2471 N2473 1.610 . S
N2472 S2471 1.613 . S
N2472 C2475 1.350 . S
N2473 S2471 1.610 . S
N2473 C2474 1.351 . S
C2474 C2468 1.428 . S
C2474 N2473 1.351 . S
C2474 C2475 1.434 . S
C2475 C2466 1.429 . S
C2475 N2472 1.350 . S
C2475 C2474 1.434 . S
C2476 C2477 1.369 . S
C2476 C2478 1.419 . S
C2476 H2480 0.930 . S
C2477 C2476 1.369 . S
C2477 C2486 1.429 . S
C2478 C2476 1.419 . S
C2478 C2479 1.363 . S
C2478 H2481 0.929 . S
C2479 C2478 1.363 . S
C2479 C2485 1.428 . S
H2480 C2476 0.930 . S
H2481 C2478 0.929 . S
S2482 N2483 1.613 . S
S2482 N2484 1.610 . S
N2483 S2482 1.613 . S
N2483 C2486 1.350 . S
N2484 S2482 1.610 . S
N2484 C2485 1.351 . S
C2485 C2479 1.428 . S
C2485 N2484 1.351 . S
C2485 C2486 1.434 . S
C2486 C2477 1.429 . S
C2486 N2483 1.350 . S
C2486 C2485 1.434 . S
C2487 C2488 1.369 . S
C2487 C2489 1.419 . S
C2487 H2491 0.930 . S
C2488 C2487 1.369 . S
C2488 C2497 1.429 . S
C2489 C2487 1.419 . S
C2489 C2490 1.363 . S
C2489 H2492 0.929 . S
C2490 C2489 1.363 . S
C2490 C2496 1.428 . S
H2491 C2487 0.930 . S
H2492 C2489 0.929 . S
S2493 N2494 1.613 . S
S2493 N2495 1.610 . S
N2494 S2493 1.613 . S
N2494 C2497 1.350 . S
N2495 S2493 1.610 . S
N2495 C2496 1.351 . S
C2496 C2490 1.428 . S
C2496 N2495 1.351 . S
C2496 C2497 1.434 . S
C2497 C2488 1.429 . S
C2497 N2494 1.350 . S
C2497 C2496 1.434 . S
C2498 C2499 1.369 . S
C2498 C2500 1.419 . S
C2498 H2502 0.930 . S
C2499 C2498 1.369 . S
C2499 C2508 1.429 . S
C2500 C2498 1.419 . S
C2500 C2501 1.363 . S
C2500 H2503 0.929 . S
C2501 C2500 1.363 . S
C2501 C2507 1.428 . S
H2502 C2498 0.930 . S
H2503 C2500 0.929 . S
S2504 N2505 1.613 . S
S2504 N2506 1.610 . S
N2505 S2504 1.613 . S
N2505 C2508 1.350 . S
N2506 S2504 1.610 . S
N2506 C2507 1.351 . S
C2507 C2501 1.428 . S
C2507 N2506 1.351 . S
C2507 C2508 1.434 . S
C2508 C2499 1.429 . S
C2508 N2505 1.350 . S
C2508 C2507 1.434 . S
C2509 C2510 1.369 . S
C2509 C2511 1.419 . S
C2509 H2513 0.930 . S
C2510 C2509 1.369 . S
C2510 C2519 1.429 . S
C2511 C2509 1.419 . S
C2511 C2512 1.363 . S
C2511 H2514 0.929 . S
C2512 C2511 1.363 . S
C2512 C2518 1.428 . S
H2513 C2509 0.930 . S
H2514 C2511 0.929 . S
S2515 N2516 1.613 . S
S2515 N2517 1.610 . S
N2516 S2515 1.613 . S
N2516 C2519 1.350 . S
N2517 S2515 1.610 . S
N2517 C2518 1.351 . S
C2518 C2512 1.428 . S
C2518 N2517 1.351 . S
C2518 C2519 1.434 . S
C2519 C2510 1.429 . S
C2519 N2516 1.350 . S
C2519 C2518 1.434 . S
C2520 C2521 1.369 . S
C2520 C2522 1.419 . S
C2520 H2524 0.930 . S
C2521 C2520 1.369 . S
C2521 C2530 1.429 . S
C2522 C2520 1.419 . S
C2522 C2523 1.363 . S
C2522 H2525 0.929 . S
C2523 C2522 1.363 . S
C2523 C2529 1.428 . S
H2524 C2520 0.930 . S
H2525 C2522 0.929 . S
S2526 N2527 1.613 . S
S2526 N2528 1.610 . S
N2527 S2526 1.613 . S
N2527 C2530 1.350 . S
N2528 S2526 1.610 . S
N2528 C2529 1.351 . S
C2529 C2523 1.428 . S
C2529 N2528 1.351 . S
C2529 C2530 1.434 . S
C2530 C2521 1.429 . S
C2530 N2527 1.350 . S
C2530 C2529 1.434 . S
C2531 C2532 1.369 . S
C2531 C2533 1.419 . S
C2531 H2535 0.930 . S
C2532 C2531 1.369 . S
C2532 C2541 1.429 . S
C2533 C2531 1.419 . S
C2533 C2534 1.363 . S
C2533 H2536 0.929 . S
C2534 C2533 1.363 . S
C2534 C2540 1.428 . S
H2535 C2531 0.930 . S
H2536 C2533 0.929 . S
S2537 N2538 1.613 . S
S2537 N2539 1.610 . S
N2538 S2537 1.613 . S
N2538 C2541 1.350 . S
N2539 S2537 1.610 . S
N2539 C2540 1.351 . S
C2540 C2534 1.428 . S
C2540 N2539 1.351 . S
C2540 C2541 1.434 . S
C2541 C2532 1.429 . S
C2541 N2538 1.350 . S
C2541 C2540 1.434 . S
C2542 C2543 1.369 . S
C2542 C2544 1.419 . S
C2542 H2546 0.930 . S
C2543 C2542 1.369 . S
C2543 C2552 1.429 . S
C2544 C2542 1.419 . S
C2544 C2545 1.363 . S
C2544 H2547 0.929 . S
C2545 C2544 1.363 . S
C2545 C2551 1.428 . S
H2546 C2542 0.930 . S
H2547 C2544 0.929 . S
S2548 N2549 1.613 . S
S2548 N2550 1.610 . S
N2549 S2548 1.613 . S
N2549 C2552 1.350 . S
N2550 S2548 1.610 . S
N2550 C2551 1.351 . S
C2551 C2545 1.428 . S
C2551 N2550 1.351 . S
C2551 C2552 1.434 . S
C2552 C2543 1.429 . S
C2552 N2549 1.350 . S
C2552 C2551 1.434 . S
C2553 C2554 1.369 . S
C2553 C2555 1.419 . S
C2553 H2557 0.930 . S
C2554 C2553 1.369 . S
C2554 C2563 1.429 . S
C2555 C2553 1.419 . S
C2555 C2556 1.363 . S
C2555 H2558 0.929 . S
C2556 C2555 1.363 . S
C2556 C2562 1.428 . S
H2557 C2553 0.930 . S
H2558 C2555 0.929 . S
S2559 N2560 1.613 . S
S2559 N2561 1.610 . S
N2560 S2559 1.613 . S
N2560 C2563 1.350 . S
N2561 S2559 1.610 . S
N2561 C2562 1.351 . S
C2562 C2556 1.428 . S
C2562 N2561 1.351 . S
C2562 C2563 1.434 . S
C2563 C2554 1.429 . S
C2563 N2560 1.350 . S
C2563 C2562 1.434 . S
C2564 C2565 1.369 . S
C2564 C2566 1.419 . S
C2564 H2568 0.930 . S
C2565 C2564 1.369 . S
C2565 C2574 1.429 . S
C2566 C2564 1.419 . S
C2566 C2567 1.363 . S
C2566 H2569 0.929 . S
C2567 C2566 1.363 . S
C2567 C2573 1.428 . S
H2568 C2564 0.930 . S
H2569 C2566 0.929 . S
S2570 N2571 1.613 . S
S2570 N2572 1.610 . S
N2571 S2570 1.613 . S
N2571 C2574 1.350 . S
N2572 S2570 1.610 . S
N2572 C2573 1.351 . S
C2573 C2567 1.428 . S
C2573 N2572 1.351 . S
C2573 C2574 1.434 . S
C2574 C2565 1.429 . S
C2574 N2571 1.350 . S
C2574 C2573 1.434 . S
C2575 C2576 1.369 . S
C2575 C2577 1.419 . S
C2575 H2579 0.930 . S
C2576 C2575 1.369 . S
C2576 C2585 1.429 . S
C2577 C2575 1.419 . S
C2577 C2578 1.363 . S
C2577 H2580 0.929 . S
C2578 C2577 1.363 . S
C2578 C2584 1.428 . S
H2579 C2575 0.930 . S
H2580 C2577 0.929 . S
S2581 N2582 1.613 . S
S2581 N2583 1.610 . S
N2582 S2581 1.613 . S
N2582 C2585 1.350 . S
N2583 S2581 1.610 . S
N2583 C2584 1.351 . S
C2584 C2578 1.428 . S
C2584 N2583 1.351 . S
C2584 C2585 1.434 . S
C2585 C2576 1.429 . S
C2585 N2582 1.350 . S
C2585 C2584 1.434 . S
C2586 C2587 1.369 . S
C2586 C2588 1.419 . S
C2586 H2590 0.930 . S
C2587 C2586 1.369 . S
C2587 C2596 1.429 . S
C2588 C2586 1.419 . S
C2588 C2589 1.363 . S
C2588 H2591 0.929 . S
C2589 C2588 1.363 . S
C2589 C2595 1.428 . S
H2590 C2586 0.930 . S
H2591 C2588 0.929 . S
S2592 N2593 1.613 . S
S2592 N2594 1.610 . S
N2593 S2592 1.613 . S
N2593 C2596 1.350 . S
N2594 S2592 1.610 . S
N2594 C2595 1.351 . S
C2595 C2589 1.428 . S
C2595 N2594 1.351 . S
C2595 C2596 1.434 . S
C2596 C2587 1.429 . S
C2596 N2593 1.350 . S
C2596 C2595 1.434 . S
C2597 C2598 1.369 . S
C2597 C2599 1.419 . S
C2597 H2601 0.930 . S
C2598 C2597 1.369 . S
C2598 C2607 1.429 . S
C2599 C2597 1.419 . S
C2599 C2600 1.363 . S
C2599 H2602 0.929 . S
C2600 C2599 1.363 . S
C2600 C2606 1.428 . S
H2601 C2597 0.930 . S
H2602 C2599 0.929 . S
S2603 N2604 1.613 . S
S2603 N2605 1.610 . S
N2604 S2603 1.613 . S
N2604 C2607 1.350 . S
N2605 S2603 1.610 . S
N2605 C2606 1.351 . S
C2606 C2600 1.428 . S
C2606 N2605 1.351 . S
C2606 C2607 1.434 . S
C2607 C2598 1.429 . S
C2607 N2604 1.350 . S
C2607 C2606 1.434 . S
C2608 C2609 1.369 . S
C2608 C2610 1.419 . S
C2608 H2612 0.930 . S
C2609 C2608 1.369 . S
C2609 C2618 1.429 . S
C2610 C2608 1.419 . S
C2610 C2611 1.363 . S
C2610 H2613 0.929 . S
C2611 C2610 1.363 . S
C2611 C2617 1.428 . S
H2612 C2608 0.930 . S
H2613 C2610 0.929 . S
S2614 N2615 1.613 . S
S2614 N2616 1.610 . S
N2615 S2614 1.613 . S
N2615 C2618 1.350 . S
N2616 S2614 1.610 . S
N2616 C2617 1.351 . S
C2617 C2611 1.428 . S
C2617 N2616 1.351 . S
C2617 C2618 1.434 . S
C2618 C2609 1.429 . S
C2618 N2615 1.350 . S
C2618 C2617 1.434 . S
C2619 C2620 1.369 . S
C2619 C2621 1.419 . S
C2619 H2623 0.930 . S
C2620 C2619 1.369 . S
C2620 C2629 1.429 . S
C2621 C2619 1.419 . S
C2621 C2622 1.363 . S
C2621 H2624 0.929 . S
C2622 C2621 1.363 . S
C2622 C2628 1.428 . S
H2623 C2619 0.930 . S
H2624 C2621 0.929 . S
S2625 N2626 1.613 . S
S2625 N2627 1.610 . S
N2626 S2625 1.613 . S
N2626 C2629 1.350 . S
N2627 S2625 1.610 . S
N2627 C2628 1.351 . S
C2628 C2622 1.428 . S
C2628 N2627 1.351 . S
C2628 C2629 1.434 . S
C2629 C2620 1.429 . S
C2629 N2626 1.350 . S
C2629 C2628 1.434 . S
C2630 C2631 1.369 . S
C2630 C2632 1.419 . S
C2630 H2634 0.930 . S
C2631 C2630 1.369 . S
C2631 C2640 1.429 . S
C2632 C2630 1.419 . S
C2632 C2633 1.363 . S
C2632 H2635 0.929 . S
C2633 C2632 1.363 . S
C2633 C2639 1.428 . S
H2634 C2630 0.930 . S
H2635 C2632 0.929 . S
S2636 N2637 1.613 . S
S2636 N2638 1.610 . S
N2637 S2636 1.613 . S
N2637 C2640 1.350 . S
N2638 S2636 1.610 . S
N2638 C2639 1.351 . S
C2639 C2633 1.428 . S
C2639 N2638 1.351 . S
C2639 C2640 1.434 . S
C2640 C2631 1.429 . S
C2640 N2637 1.350 . S
C2640 C2639 1.434 . S
C2641 C2642 1.369 . S
C2641 C2643 1.419 . S
C2641 H2645 0.930 . S
C2642 C2641 1.369 . S
C2642 C2651 1.429 . S
C2643 C2641 1.419 . S
C2643 C2644 1.363 . S
C2643 H2646 0.929 . S
C2644 C2643 1.363 . S
C2644 C2650 1.428 . S
H2645 C2641 0.930 . S
H2646 C2643 0.929 . S
S2647 N2648 1.613 . S
S2647 N2649 1.610 . S
N2648 S2647 1.613 . S
N2648 C2651 1.350 . S
N2649 S2647 1.610 . S
N2649 C2650 1.351 . S
C2650 C2644 1.428 . S
C2650 N2649 1.351 . S
C2650 C2651 1.434 . S
C2651 C2642 1.429 . S
C2651 N2648 1.350 . S
C2651 C2650 1.434 . S
C2652 C2653 1.369 . S
C2652 C2654 1.419 . S
C2652 H2656 0.930 . S
C2653 C2652 1.369 . S
C2653 C2662 1.429 . S
C2654 C2652 1.419 . S
C2654 C2655 1.363 . S
C2654 H2657 0.929 . S
C2655 C2654 1.363 . S
C2655 C2661 1.428 . S
H2656 C2652 0.930 . S
H2657 C2654 0.929 . S
S2658 N2659 1.613 . S
S2658 N2660 1.610 . S
N2659 S2658 1.613 . S
N2659 C2662 1.350 . S
N2660 S2658 1.610 . S
N2660 C2661 1.351 . S
C2661 C2655 1.428 . S
C2661 N2660 1.351 . S
C2661 C2662 1.434 . S
C2662 C2653 1.429 . S
C2662 N2659 1.350 . S
C2662 C2661 1.434 . S
C2663 C2664 1.369 . S
C2663 C2665 1.419 . S
C2663 H2667 0.930 . S
C2664 C2663 1.369 . S
C2664 C2673 1.429 . S
C2665 C2663 1.419 . S
C2665 C2666 1.363 . S
C2665 H2668 0.929 . S
C2666 C2665 1.363 . S
C2666 C2672 1.428 . S
H2667 C2663 0.930 . S
H2668 C2665 0.929 . S
S2669 N2670 1.613 . S
S2669 N2671 1.610 . S
N2670 S2669 1.613 . S
N2670 C2673 1.350 . S
N2671 S2669 1.610 . S
N2671 C2672 1.351 . S
C2672 C2666 1.428 . S
C2672 N2671 1.351 . S
C2672 C2673 1.434 . S
C2673 C2664 1.429 . S
C2673 N2670 1.350 . S
C2673 C2672 1.434 . S
C2674 C2675 1.369 . S
C2674 C2676 1.419 . S
C2674 H2678 0.930 . S
C2675 C2674 1.369 . S
C2675 C2684 1.429 . S
C2676 C2674 1.419 . S
C2676 C2677 1.363 . S
C2676 H2679 0.929 . S
C2677 C2676 1.363 . S
C2677 C2683 1.428 . S
H2678 C2674 0.930 . S
H2679 C2676 0.929 . S
S2680 N2681 1.613 . S
S2680 N2682 1.610 . S
N2681 S2680 1.613 . S
N2681 C2684 1.350 . S
N2682 S2680 1.610 . S
N2682 C2683 1.351 . S
C2683 C2677 1.428 . S
C2683 N2682 1.351 . S
C2683 C2684 1.434 . S
C2684 C2675 1.429 . S
C2684 N2681 1.350 . S
C2684 C2683 1.434 . S
C2685 C2686 1.369 . S
C2685 C2687 1.419 . S
C2685 H2689 0.930 . S
C2686 C2685 1.369 . S
C2686 C2695 1.429 . S
C2687 C2685 1.419 . S
C2687 C2688 1.363 . S
C2687 H2690 0.929 . S
C2688 C2687 1.363 . S
C2688 C2694 1.428 . S
H2689 C2685 0.930 . S
H2690 C2687 0.929 . S
S2691 N2692 1.613 . S
S2691 N2693 1.610 . S
N2692 S2691 1.613 . S
N2692 C2695 1.350 . S
N2693 S2691 1.610 . S
N2693 C2694 1.351 . S
C2694 C2688 1.428 . S
C2694 N2693 1.351 . S
C2694 C2695 1.434 . S
C2695 C2686 1.429 . S
C2695 N2692 1.350 . S
C2695 C2694 1.434 . S
C2696 C2697 1.369 . S
C2696 C2698 1.419 . S
C2696 H2700 0.930 . S
C2697 C2696 1.369 . S
C2697 C2706 1.429 . S
C2698 C2696 1.419 . S
C2698 C2699 1.363 . S
C2698 H2701 0.929 . S
C2699 C2698 1.363 . S
C2699 C2705 1.428 . S
H2700 C2696 0.930 . S
H2701 C2698 0.929 . S
S2702 N2703 1.613 . S
S2702 N2704 1.610 . S
N2703 S2702 1.613 . S
N2703 C2706 1.350 . S
N2704 S2702 1.610 . S
N2704 C2705 1.351 . S
C2705 C2699 1.428 . S
C2705 N2704 1.351 . S
C2705 C2706 1.434 . S
C2706 C2697 1.429 . S
C2706 N2703 1.350 . S
C2706 C2705 1.434 . S
C2707 C2708 1.369 . S
C2707 C2709 1.419 . S
C2707 H2711 0.930 . S
C2708 C2707 1.369 . S
C2708 C2717 1.429 . S
C2709 C2707 1.419 . S
C2709 C2710 1.363 . S
C2709 H2712 0.929 . S
C2710 C2709 1.363 . S
C2710 C2716 1.428 . S
H2711 C2707 0.930 . S
H2712 C2709 0.929 . S
S2713 N2714 1.613 . S
S2713 N2715 1.610 . S
N2714 S2713 1.613 . S
N2714 C2717 1.350 . S
N2715 S2713 1.610 . S
N2715 C2716 1.351 . S
C2716 C2710 1.428 . S
C2716 N2715 1.351 . S
C2716 C2717 1.434 . S
C2717 C2708 1.429 . S
C2717 N2714 1.350 . S
C2717 C2716 1.434 . S
C2718 C2719 1.369 . S
C2718 C2720 1.419 . S
C2718 H2722 0.930 . S
C2719 C2718 1.369 . S
C2719 C2728 1.429 . S
C2720 C2718 1.419 . S
C2720 C2721 1.363 . S
C2720 H2723 0.929 . S
C2721 C2720 1.363 . S
C2721 C2727 1.428 . S
H2722 C2718 0.930 . S
H2723 C2720 0.929 . S
S2724 N2725 1.613 . S
S2724 N2726 1.610 . S
N2725 S2724 1.613 . S
N2725 C2728 1.350 . S
N2726 S2724 1.610 . S
N2726 C2727 1.351 . S
C2727 C2721 1.428 . S
C2727 N2726 1.351 . S
C2727 C2728 1.434 . S
C2728 C2719 1.429 . S
C2728 N2725 1.350 . S
C2728 C2727 1.434 . S
C2729 C2730 1.369 . S
C2729 C2731 1.419 . S
C2729 H2733 0.930 . S
C2730 C2729 1.369 . S
C2730 C2739 1.429 . S
C2731 C2729 1.419 . S
C2731 C2732 1.363 . S
C2731 H2734 0.929 . S
C2732 C2731 1.363 . S
C2732 C2738 1.428 . S
H2733 C2729 0.930 . S
H2734 C2731 0.929 . S
S2735 N2736 1.613 . S
S2735 N2737 1.610 . S
N2736 S2735 1.613 . S
N2736 C2739 1.350 . S
N2737 S2735 1.610 . S
N2737 C2738 1.351 . S
C2738 C2732 1.428 . S
C2738 N2737 1.351 . S
C2738 C2739 1.434 . S
C2739 C2730 1.429 . S
C2739 N2736 1.350 . S
C2739 C2738 1.434 . S
C2740 C2741 1.369 . S
C2740 C2742 1.419 . S
C2740 H2744 0.930 . S
C2741 C2740 1.369 . S
C2741 C2750 1.429 . S
C2742 C2740 1.419 . S
C2742 C2743 1.363 . S
C2742 H2745 0.929 . S
C2743 C2742 1.363 . S
C2743 C2749 1.428 . S
H2744 C2740 0.930 . S
H2745 C2742 0.929 . S
S2746 N2747 1.613 . S
S2746 N2748 1.610 . S
N2747 S2746 1.613 . S
N2747 C2750 1.350 . S
N2748 S2746 1.610 . S
N2748 C2749 1.351 . S
C2749 C2743 1.428 . S
C2749 N2748 1.351 . S
C2749 C2750 1.434 . S
C2750 C2741 1.429 . S
C2750 N2747 1.350 . S
C2750 C2749 1.434 . S
C2751 C2752 1.369 . S
C2751 C2753 1.419 . S
C2751 H2755 0.930 . S
C2752 C2751 1.369 . S
C2752 C2761 1.429 . S
C2753 C2751 1.419 . S
C2753 C2754 1.363 . S
C2753 H2756 0.929 . S
C2754 C2753 1.363 . S
C2754 C2760 1.428 . S
H2755 C2751 0.930 . S
H2756 C2753 0.929 . S
S2757 N2758 1.613 . S
S2757 N2759 1.610 . S
N2758 S2757 1.613 . S
N2758 C2761 1.350 . S
N2759 S2757 1.610 . S
N2759 C2760 1.351 . S
C2760 C2754 1.428 . S
C2760 N2759 1.351 . S
C2760 C2761 1.434 . S
C2761 C2752 1.429 . S
C2761 N2758 1.350 . S
C2761 C2760 1.434 . S
C2762 C2763 1.369 . S
C2762 C2764 1.419 . S
C2762 H2766 0.930 . S
C2763 C2762 1.369 . S
C2763 C2772 1.429 . S
C2764 C2762 1.419 . S
C2764 C2765 1.363 . S
C2764 H2767 0.929 . S
C2765 C2764 1.363 . S
C2765 C2771 1.428 . S
H2766 C2762 0.930 . S
H2767 C2764 0.929 . S
S2768 N2769 1.613 . S
S2768 N2770 1.610 . S
N2769 S2768 1.613 . S
N2769 C2772 1.350 . S
N2770 S2768 1.610 . S
N2770 C2771 1.351 . S
C2771 C2765 1.428 . S
C2771 N2770 1.351 . S
C2771 C2772 1.434 . S
C2772 C2763 1.429 . S
C2772 N2769 1.350 . S
C2772 C2771 1.434 . S
C2773 C2774 1.369 . S
C2773 C2775 1.419 . S
C2773 H2777 0.930 . S
C2774 C2773 1.369 . S
C2774 C2783 1.429 . S
C2775 C2773 1.419 . S
C2775 C2776 1.363 . S
C2775 H2778 0.929 . S
C2776 C2775 1.363 . S
C2776 C2782 1.428 . S
H2777 C2773 0.930 . S
H2778 C2775 0.929 . S
S2779 N2780 1.613 . S
S2779 N2781 1.610 . S
N2780 S2779 1.613 . S
N2780 C2783 1.350 . S
N2781 S2779 1.610 . S
N2781 C2782 1.351 . S
C2782 C2776 1.428 . S
C2782 N2781 1.351 . S
C2782 C2783 1.434 . S
C2783 C2774 1.429 . S
C2783 N2780 1.350 . S
C2783 C2782 1.434 . S
C1729 C1119 1.396 . S
C1731 C3 1.396 . S
C1740 C39 1.395 . S
C1742 C1011 1.396 . S
C1751 C75 1.396 . S
C1753 C1047 1.395 . S
C1762 C1083 1.395 . S
C1764 C111 1.395 . S
C1773 C903 1.396 . S
C1775 C147 1.395 . S
C1784 C183 1.395 . S
C1786 C939 1.396 . S
C1795 C975 1.395 . S
C1797 C219 1.396 . S
C1806 C255 1.396 . S
C1808 C867 1.396 . S
C1817 C291 1.395 . S
C1819 C1587 1.395 . S
C1828 C1479 1.395 . S
C1830 C327 1.395 . S
C1839 C1515 1.395 . S
C1841 C363 1.396 . S
C1850 C399 1.395 . S
C1852 C1551 1.396 . S
C1861 C435 1.396 . S
C1863 C1695 1.396 . S
C1872 C471 1.396 . S
C1874 C1623 1.396 . S
C1883 C507 1.396 . S
C1885 C1659 1.396 . S
C1894 C1443 1.395 . S
C1896 C543 1.396 . S
C1905 C1407 1.395 . S
C1907 C579 1.395 . S
C1916 C615 1.396 . S
C1918 C1191 1.395 . S
C1927 C1227 1.396 . S
C1929 C651 1.395 . S
C1938 C687 1.395 . S
C1940 C1263 1.395 . S
C1949 C1155 1.396 . S
C1951 C723 1.395 . S
C1960 C1335 1.397 . S
C1962 C759 1.395 . S
C1971 C795 1.395 . S
C1973 C1371 1.396 . S
C1982 C1299 1.396 . S
C1984 C831 1.396 . S
C1993 C326 1.373 . S
C1995 C2 1.374 . S
C2004 C362 1.369 . S
C2006 C38 1.371 . S
C2015 C74 1.370 . S
C2017 C398 1.370 . S
C2026 C290 1.372 . S
C2028 C110 1.374 . S
C2037 C146 1.374 . S
C2039 C542 1.369 . S
C2048 C434 1.371 . S
C2050 C182 1.375 . S
C2059 C470 1.370 . S
C2061 C218 1.374 . S
C2070 C506 1.369 . S
C2072 C254 1.374 . S
C2081 C650 1.372 . S
C2083 C578 1.369 . S
C2092 C794 1.369 . S
C2094 C614 1.373 . S
C2103 C830 1.375 . S
C2105 C686 1.373 . S
C2114 C722 1.371 . S
C2116 C758 1.375 . S
C2125 C1190 1.375 . S
C2127 C866 1.371 . S
C2136 C1226 1.372 . S
C2138 C902 1.374 . S
C2147 C1262 1.370 . S
C2149 C938 1.370 . S
C2158 C974 1.374 . S
C2160 C1154 1.373 . S
C2169 C1010 1.369 . S
C2171 C1406 1.371 . S
C2180 C1046 1.373 . S
C2182 C1298 1.374 . S
C2191 C1334 1.371 . S
C2193 C1082 1.370 . S
C2202 C1370 1.375 . S
C2204 C1118 1.372 . S
C2213 C1442 1.373 . S
C2215 C1514 1.369 . S
C2224 C1658 1.375 . S
C2226 C1478 1.371 . S
C2235 C1694 1.371 . S
C2237 C1550 1.370 . S
C2246 C1622 1.369 . S
C2248 C1586 1.374 . S
C2257 C14 1.410 . S
C2259 C652 1.397 . S
C2268 C50 1.406 . S
C2270 C688 1.397 . S
C2279 C86 1.410 . S
C2281 C724 1.396 . S
C2290 C616 1.399 . S
C2292 C122 1.409 . S
C2301 C158 1.409 . S
C2303 C796 1.398 . S
C2312 C194 1.409 . S
C2314 C580 1.398 . S
C2323 C832 1.399 . S
C2325 C230 1.407 . S
C2334 C760 1.395 . S
C2336 C266 1.409 . S
C2345 C302 1.403 . S
C2347 C328 1.392 . S
C2356 C338 1.408 . S
C2358 C364 1.393 . S
C2367 C374 1.403 . S
C2369 C400 1.395 . S
C2378 C292 1.392 . S
C2380 C410 1.407 . S
C2389 C544 1.392 . S
C2391 C446 1.404 . S
C2400 C436 1.399 . S
C2402 C482 1.409 . S
C2411 C472 1.391 . S
C2413 C518 1.404 . S
C2422 C554 1.410 . S
C2424 C508 1.398 . S
C2433 C112 1.394 . S
C2435 C590 1.409 . S
C2444 C184 1.393 . S
C2446 C626 1.408 . S
C2455 C220 1.392 . S
C2457 C662 1.408 . S
C2466 C698 1.410 . S
C2468 C256 1.396 . S
C2477 C148 1.392 . S
C2479 C734 1.404 . S
C2488 C40 1.391 . S
C2490 C770 1.407 . S
C2499 C76 1.394 . S
C2501 C806 1.409 . S
C2510 C4 1.397 . S
C2512 C842 1.405 . S
C2521 C1516 1.394 . S
C2523 C878 1.409 . S
C2532 C914 1.403 . S
C2534 C1552 1.392 . S
C2543 C1588 1.399 . S
C2545 C950 1.409 . S
C2554 C1480 1.397 . S
C2556 C986 1.410 . S
C2565 C1022 1.404 . S
C2567 C1660 1.392 . S
C2576 C1058 1.403 . S
C2578 C1444 1.394 . S
C2587 C1696 1.397 . S
C2589 C1094 1.405 . S
C2598 C1130 1.404 . S
C2600 C1624 1.396 . S
C2609 C1166 1.404 . S
C2611 C1192 1.392 . S
C2620 C1202 1.405 . S
C2622 C1228 1.397 . S
C2631 C1238 1.405 . S
C2633 C1264 1.391 . S
C2642 C1274 1.403 . S
C2644 C1156 1.394 . S
C2653 C1408 1.395 . S
C2655 C1310 1.404 . S
C2664 C1300 1.392 . S
C2666 C1346 1.408 . S
C2675 C1336 1.393 . S
C2677 C1382 1.404 . S
C2686 C1418 1.405 . S
C2688 C1372 1.391 . S
C2697 C976 1.399 . S
C2699 C1454 1.407 . S
C2708 C1048 1.397 . S
C2710 C1490 1.410 . S
C2719 C1084 1.398 . S
C2721 C1526 1.406 . S
C2730 C1562 1.405 . S
C2732 C1120 1.397 . S
C2741 C1012 1.394 . S
C2743 C1598 1.404 . S
C2752 C904 1.398 . S
C2754 C1634 1.410 . S
C2763 C1670 1.410 . S
C2765 C940 1.396 . S
C2774 C868 1.394 . S
C2776 C1706 1.404 . S
