# Generated by pormake.
# Topology umb, (4)-cn, num edge types: 1
# Building blocks:
#     Node 0, Type 0, BuildingBlock: KUFVIS_clean_sbu_0, # of connection points: 4
#     Node 1, Type 0, BuildingBlock: KUFVIS_clean_sbu_0, # of connection points: 4
#     Node 2, Type 0, BuildingBlock: KUFVIS_clean_sbu_0, # of connection points: 4
#     Node 3, Type 0, BuildingBlock: KUFVIS_clean_sbu_0, # of connection points: 4
#     Node 4, Type 0, BuildingBlock: KUFVIS_clean_sbu_0, # of connection points: 4
#     Node 5, Type 0, BuildingBlock: KUFVIS_clean_sbu_0, # of connection points: 4
#     Node 6, Type 0, BuildingBlock: KUFVIS_clean_sbu_0, # of connection points: 4
#     Node 7, Type 0, BuildingBlock: KUFVIS_clean_sbu_0, # of connection points: 4
#     Node 8, Type 0, BuildingBlock: KUFVIS_clean_sbu_0, # of connection points: 4
#     Node 9, Type 0, BuildingBlock: KUFVIS_clean_sbu_0, # of connection points: 4
#     Node 10, Type 0, BuildingBlock: KUFVIS_clean_sbu_0, # of connection points: 4
#     Node 11, Type 0, BuildingBlock: KUFVIS_clean_sbu_0, # of connection points: 4
#     Edge 12, Type (0, 0), BuildingBlock: OJICUG_clean_linker_0, # of connection points: 2
#     Edge 13, Type (0, 0), BuildingBlock: OJICUG_clean_linker_0, # of connection points: 2
#     Edge 14, Type (0, 0), BuildingBlock: OJICUG_clean_linker_0, # of connection points: 2
#     Edge 15, Type (0, 0), BuildingBlock: OJICUG_clean_linker_0, # of connection points: 2
#     Edge 16, Type (0, 0), BuildingBlock: OJICUG_clean_linker_0, # of connection points: 2
#     Edge 17, Type (0, 0), BuildingBlock: OJICUG_clean_linker_0, # of connection points: 2
#     Edge 18, Type (0, 0), BuildingBlock: OJICUG_clean_linker_0, # of connection points: 2
#     Edge 19, Type (0, 0), BuildingBlock: OJICUG_clean_linker_0, # of connection points: 2
#     Edge 20, Type (0, 0), BuildingBlock: OJICUG_clean_linker_0, # of connection points: 2
#     Edge 21, Type (0, 0), BuildingBlock: OJICUG_clean_linker_0, # of connection points: 2
#     Edge 22, Type (0, 0), BuildingBlock: OJICUG_clean_linker_0, # of connection points: 2
#     Edge 23, Type (0, 0), BuildingBlock: OJICUG_clean_linker_0, # of connection points: 2
#     Edge 24, Type (0, 0), BuildingBlock: OJICUG_clean_linker_0, # of connection points: 2
#     Edge 25, Type (0, 0), BuildingBlock: OJICUG_clean_linker_0, # of connection points: 2
#     Edge 26, Type (0, 0), BuildingBlock: OJICUG_clean_linker_0, # of connection points: 2
#     Edge 27, Type (0, 0), BuildingBlock: OJICUG_clean_linker_0, # of connection points: 2
#     Edge 28, Type (0, 0), BuildingBlock: OJICUG_clean_linker_0, # of connection points: 2
#     Edge 29, Type (0, 0), BuildingBlock: OJICUG_clean_linker_0, # of connection points: 2
#     Edge 30, Type (0, 0), BuildingBlock: OJICUG_clean_linker_0, # of connection points: 2
#     Edge 31, Type (0, 0), BuildingBlock: OJICUG_clean_linker_0, # of connection points: 2
#     Edge 32, Type (0, 0), BuildingBlock: OJICUG_clean_linker_0, # of connection points: 2
#     Edge 33, Type (0, 0), BuildingBlock: OJICUG_clean_linker_0, # of connection points: 2
#     Edge 34, Type (0, 0), BuildingBlock: OJICUG_clean_linker_0, # of connection points: 2
#     Edge 35, Type (0, 0), BuildingBlock: OJICUG_clean_linker_0, # of connection points: 2
# Relax obj value: 0.247
# Max RMSD: 0.279
# Mean RMSD: 0.279
data_MOF--net-umb--node1-KUFVIS_clean_sbu_0--edge1-OJICUG_clean_linker_0
_symmetry_space_group_name_H-M    P1
_symmetry_Int_Tables_number       1
_symmetry_cell_setting            triclinic
loop_
_symmetry_equiv_pos_as_xyz
'x, y, z'
_cell_length_a     34.082445
_cell_length_b     34.212539
_cell_length_c     27.636579
_cell_angle_alpha  89.696149
_cell_angle_beta   89.688148
_cell_angle_gamma 119.7165
loop_
_atom_site_label
_atom_site_type_symbol
_atom_site_fract_x
_atom_site_fract_y
_atom_site_fract_z
_atom_type_partial_charge
Mn0 Mn 0.49958 0.15841 0.33978 0.0
Mn1 Mn 0.57626 0.12725 0.36969 0.0
C2 C 0.57274 0.21461 0.35182 0.0
C3 C 0.46144 0.17372 0.27731 0.0
C4 C 0.50888 0.12694 0.44047 0.0
O5 O 0.4692 0.09159 0.32266 0.0
O6 O 0.53024 0.08325 0.32765 0.0
C7 C 0.61739 0.11795 0.27959 0.0
N8 N 0.6221 0.13533 0.32471 0.0
C9 C 0.68995 0.13175 0.33814 0.0
C10 C 0.68586 0.11371 0.29176 0.0
C11 C 0.65017 0.10803 0.26183 0.0
C12 C 0.6579 0.14346 0.35253 0.0
H13 H 0.58779 0.10988 0.2584 0.0
C14 C 0.49072 0.0709 0.3125 0.0
O15 O 0.44475 0.16356 0.32097 0.0
O16 O 0.49846 0.17292 0.26983 0.0
N17 N 0.62455 0.16666 0.41014 0.0
C18 C 0.62584 0.19012 0.45002 0.0
C19 C 0.6628 0.20523 0.48139 0.0
C20 C 0.69702 0.19455 0.4717 0.0
C21 C 0.69539 0.17177 0.42897 0.0
C22 C 0.65961 0.16104 0.3977 0.0
H23 H 0.59946 0.19783 0.45664 0.0
O24 O 0.53898 0.22202 0.35298 0.0
O25 O 0.56349 0.17358 0.34183 0.0
O26 O 0.4929 0.14711 0.41491 0.0
O27 O 0.53284 0.11185 0.42253 0.0
C28 C 0.72669 0.15792 0.41656 0.0
C29 C 0.72328 0.13688 0.37159 0.0
H30 H 0.70986 0.10405 0.27879 0.0
H31 H 0.64672 0.09395 0.22611 0.0
H32 H 0.66427 0.22388 0.51349 0.0
H33 H 0.72458 0.20451 0.49684 0.0
H34 H 0.75338 0.16315 0.44128 0.0
H35 H 0.74724 0.1259 0.36256 0.0
Mn36 Mn 0.33743 0.51402 0.70968 0.0
Mn37 Mn 0.42217 0.58886 0.77525 0.0
C38 C 0.33207 0.57112 0.74672 0.0
C39 C 0.29114 0.49163 0.63768 0.0
C40 C 0.3651 0.50548 0.81313 0.0
O41 O 0.38807 0.51137 0.67663 0.0
O42 O 0.4326 0.54294 0.7406 0.0
C43 C 0.49601 0.63176 0.70268 0.0
N44 N 0.47135 0.63578 0.73937 0.0
C45 C 0.53453 0.70659 0.76256 0.0
C46 C 0.56147 0.70081 0.72807 0.0
C47 C 0.54166 0.6641 0.69675 0.0
C48 C 0.48891 0.67332 0.76655 0.0
H49 H 0.48158 0.60374 0.67858 0.0
C50 C 0.42448 0.52339 0.6994 0.0
O51 O 0.28781 0.46202 0.66967 0.0
O52 O 0.32105 0.53229 0.64713 0.0
N53 N 0.4221 0.6364 0.81163 0.0
C54 C 0.39872 0.63187 0.85343 0.0
C55 C 0.41148 0.66887 0.88369 0.0
C56 C 0.45161 0.70899 0.87429 0.0
C57 C 0.47872 0.71124 0.83503 0.0
C58 C 0.46196 0.67458 0.80326 0.0
H59 H 0.37021 0.60017 0.86381 0.0
O60 O 0.29772 0.53073 0.74402 0.0
O61 O 0.37176 0.57789 0.73209 0.0
O62 O 0.34999 0.48401 0.77327 0.0
O63 O 0.37254 0.54483 0.81401 0.0
C64 C 0.52355 0.74639 0.82944 0.0
C65 C 0.55185 0.74327 0.79435 0.0
H66 H 0.59706 0.72522 0.7242 0.0
H67 H 0.56171 0.66034 0.6686 0.0
H68 H 0.39173 0.6656 0.91565 0.0
H69 H 0.46282 0.73664 0.8994 0.0
H70 H 0.53742 0.77473 0.85383 0.0
H71 H 0.58699 0.76936 0.79202 0.0
Mn72 Mn 0.79942 0.34908 1.01499 0.0
Mn73 Mn 0.80641 0.45227 0.05732 0.0
C74 C 0.73563 0.34744 0.04819 0.0
C75 C 0.7767 0.3052 0.94243 0.0
C76 C 0.83721 0.39013 0.09647 0.0
O77 O 0.85718 0.40364 0.98754 0.0
O78 O 0.84177 0.46144 0.99614 0.0
C79 C 0.84815 0.54818 1.02927 0.0
N80 N 0.82382 0.51445 0.06167 0.0
C81 C 0.82404 0.56683 0.11941 0.0
C82 C 0.85131 0.60238 0.08773 0.0
C83 C 0.86282 0.59294 1.04214 0.0
C84 C 0.81071 0.5229 0.10469 0.0
H85 H 0.85619 0.54091 0.9938 0.0
C86 C 0.86718 0.44523 0.98231 0.0
O87 O 0.80193 0.30048 0.97445 0.0
O88 O 0.7685 0.33757 0.95043 0.0
N89 N 0.77611 0.44553 0.11879 0.0
C90 C 0.75326 0.40832 0.14763 0.0
C91 C 0.73543 0.41175 0.19222 0.0
C92 C 0.74332 0.45384 0.2082 0.0
C93 C 0.76901 0.49213 0.17936 0.0
C94 C 0.78433 0.48639 0.13423 0.0
H95 H 0.74913 0.37636 0.13699 0.0
O96 O 0.73697 0.31044 1.04229 0.0
O97 O 0.77467 0.38457 0.04441 0.0
O98 O 0.83365 0.35363 0.08123 0.0
O99 O 0.81508 0.40211 0.06939 0.0
C100 C 0.78107 0.53594 0.19432 0.0
C101 C 0.80893 0.57329 0.16459 0.0
H102 H 0.86246 0.63693 0.09748 0.0
H103 H 0.8827 0.62005 1.01689 0.0
H104 H 0.71639 0.38213 0.21471 0.0
H105 H 0.73042 0.45651 0.24319 0.0
H106 H 0.76965 0.54134 0.22899 0.0
H107 H 0.81826 0.60683 0.17667 0.0
Mn108 Mn 0.41698 0.81342 0.34099 0.0
Mn109 Mn 0.3446 0.84663 0.3836 0.0
C110 C 0.35374 0.76337 0.3826 0.0
C111 C 0.43705 0.78129 0.27412 0.0
C112 C 0.4292 0.86652 0.43431 0.0
O113 O 0.43603 0.87385 0.30715 0.0
O114 O 0.37566 0.88145 0.32593 0.0
C115 C 0.27895 0.83301 0.30794 0.0
N116 N 0.28736 0.82403 0.35357 0.0
C117 C 0.21412 0.80912 0.38157 0.0
C118 C 0.2054 0.81972 0.33527 0.0
C119 C 0.23739 0.83045 0.29797 0.0
C120 C 0.25606 0.81228 0.38929 0.0
H121 H 0.30462 0.8442 0.27996 0.0
C122 C 0.41162 0.8925 0.30163 0.0
O123 O 0.46597 0.80365 0.30786 0.0
O124 O 0.39922 0.78108 0.27772 0.0
N125 N 0.31074 0.81344 0.43976 0.0
C126 C 0.32288 0.79899 0.47996 0.0
C127 C 0.29196 0.77943 0.5185 0.0
C128 C 0.24896 0.77533 0.51541 0.0
C129 C 0.23643 0.78816 0.47257 0.0
C130 C 0.26797 0.80514 0.43461 0.0
H131 H 0.35479 0.80008 0.48149 0.0
O132 O 0.38677 0.75546 0.3753 0.0
O133 O 0.35643 0.79874 0.36164 0.0
O134 O 0.44177 0.84309 0.40888 0.0
O135 O 0.40165 0.87789 0.41822 0.0
C136 C 0.19393 0.78472 0.46577 0.0
C137 C 0.18353 0.79695 0.42082 0.0
H138 H 0.17411 0.81947 0.32787 0.0
H139 H 0.23069 0.83834 0.26206 0.0
H140 H 0.30124 0.7676 0.55045 0.0
H141 H 0.22546 0.76112 0.54553 0.0
H142 H 0.16924 0.77319 0.49493 0.0
H143 H 0.15156 0.79606 0.41667 0.0
Mn144 Mn 0.59684 0.42023 0.66449 0.0
Mn145 Mn 0.48412 0.36535 0.68595 0.0
C146 C 0.56149 0.34476 0.68347 0.0
C147 C 0.65322 0.44789 0.60124 0.0
C148 C 0.55391 0.42074 0.76098 0.0
O149 O 0.57619 0.46646 0.65258 0.0
O150 O 0.50468 0.41501 0.63861 0.0
C151 C 0.44827 0.32999 0.58885 0.0
N152 N 0.44925 0.32297 0.63726 0.0
C153 C 0.3822 0.25029 0.63265 0.0
C154 C 0.38043 0.25679 0.58282 0.0
C155 C 0.41394 0.29658 0.56073 0.0
C156 C 0.41794 0.28418 0.65856 0.0
H157 H 0.47304 0.36118 0.57196 0.0
C158 C 0.53587 0.45573 0.64143 0.0
O159 O 0.66247 0.46459 0.64462 0.0
O160 O 0.61147 0.41796 0.59458 0.0
N161 N 0.45797 0.31404 0.72936 0.0
C162 C 0.46523 0.31103 0.77727 0.0
C163 C 0.43684 0.27182 0.8038 0.0
C164 C 0.39943 0.23642 0.78145 0.0
C165 C 0.39163 0.24029 0.73247 0.0
C166 C 0.42246 0.27946 0.70734 0.0
H167 H 0.49218 0.33804 0.7952 0.0
O168 O 0.60507 0.36806 0.67891 0.0
O169 O 0.53906 0.36389 0.66879 0.0
O170 O 0.58987 0.42678 0.73871 0.0
O171 O 0.51623 0.40785 0.73953 0.0
C172 C 0.35406 0.20703 0.70773 0.0
C173 C 0.34939 0.21192 0.65777 0.0
H174 H 0.35348 0.23149 0.56119 0.0
H175 H 0.41273 0.30191 0.52227 0.0
H176 H 0.44323 0.26942 0.84172 0.0
H177 H 0.37693 0.20653 0.8022 0.0
H178 H 0.32855 0.17757 0.72686 0.0
H179 H 0.32051 0.18594 0.63895 0.0
Mn180 Mn 0.14762 0.62123 1.01098 0.0
Mn181 Mn 0.11413 0.51225 1.0315 0.0
C182 C 0.20317 0.60252 1.01036 0.0
C183 C 0.16403 0.67748 0.9491 0.0
C184 C 0.12168 0.57518 0.11007 0.0
O185 O 0.0791 0.5876 1.00169 0.0
O186 O 0.06873 0.5177 0.99277 0.0
C187 C 0.10588 0.46852 0.93701 0.0
N188 N 0.1218 0.47718 0.98299 0.0
C189 C 0.1314 0.41196 0.98431 0.0
C190 C 0.11572 0.40262 0.93666 0.0
C191 C 0.10348 0.43137 0.9127 0.0
C192 C 0.13415 0.44996 1.00605 0.0
H193 H 0.09402 0.48911 0.91973 0.0
C194 C 0.05565 0.54666 0.98826 0.0
O195 O 0.15735 0.68413 0.99401 0.0
O196 O 0.15701 0.63773 0.94012 0.0
N197 N 0.15442 0.50075 0.06852 0.0
C198 C 0.18283 0.52361 0.10504 0.0
C199 C 0.20379 0.50358 0.13091 0.0
C200 C 0.19601 0.46066 0.11766 0.0
C201 C 0.1703 0.44011 0.07641 0.0
C202 C 0.15133 0.46241 0.05191 0.0
H203 H 0.19131 0.55761 0.11164 0.0
O204 O 0.21127 0.64315 1.01704 0.0
O205 O 0.16085 0.57158 1.0043 0.0
O206 O 0.14295 0.61301 0.08722 0.0
O207 O 0.09994 0.53846 0.08757 0.0
C208 C 0.16411 0.39945 0.05732 0.0
C209 C 0.14407 0.38502 1.01146 0.0
H210 H 0.11312 0.37364 0.9181 0.0
H211 H 0.09101 0.42415 0.87606 0.0
H212 H 0.22622 0.52134 0.16044 0.0
H213 H 0.21211 0.44514 0.13753 0.0
H214 H 0.1753 0.37955 0.07723 0.0
H215 H 0.13927 0.35365 0.99705 0.0
Mn216 Mn 0.81055 0.43471 0.38683 0.0
Mn217 Mn 0.82527 0.35044 0.34275 0.0
C218 C 0.74882 0.36983 0.35608 0.0
C219 C 0.78303 0.45777 0.45589 0.0
C220 C 0.85445 0.44022 0.29364 0.0
O221 O 0.87009 0.44594 0.41749 0.0
O222 O 0.86761 0.3812 0.39508 0.0
C223 C 0.82768 0.28506 0.40891 0.0
N224 N 0.80927 0.29304 0.36907 0.0
C225 C 0.80263 0.22742 0.32949 0.0
C226 C 0.8228 0.21946 0.36959 0.0
C227 C 0.83426 0.2477 0.40995 0.0
C228 C 0.79653 0.2649 0.33069 0.0
H229 H 0.83991 0.30869 0.43839 0.0
C230 C 0.88458 0.41761 0.41919 0.0
O231 O 0.80601 0.48579 0.4213 0.0
O232 O 0.77952 0.41881 0.4521 0.0
N233 N 0.78627 0.31882 0.29055 0.0
C234 C 0.76979 0.33333 0.25412 0.0
C235 C 0.74926 0.30508 0.21448 0.0
C236 C 0.74856 0.26373 0.21153 0.0
C237 C 0.76624 0.25001 0.24953 0.0
C238 C 0.78225 0.27766 0.28997 0.0
H239 H 0.7729 0.36629 0.25521 0.0
O240 O 0.75119 0.40882 0.35663 0.0
O241 O 0.78326 0.36755 0.37311 0.0
O242 O 0.8426 0.46457 0.31714 0.0
O243 O 0.84269 0.4041 0.31345 0.0
C244 C 0.7702 0.211 0.24832 0.0
C245 C 0.79003 0.2007 0.28752 0.0
H246 H 0.82916 0.19142 0.37002 0.0
H247 H 0.8497 0.24161 0.44106 0.0
H248 H 0.73536 0.31562 0.18552 0.0
H249 H 0.73471 0.243 0.17982 0.0
H250 H 0.7593 0.18941 0.21696 0.0
H251 H 0.79462 0.17161 0.28542 0.0
Mn252 Mn 0.33764 0.80144 0.73345 0.0
Mn253 Mn 0.42398 0.79688 0.6858 0.0
C254 C 0.33357 0.73401 0.7193 0.0
C255 C 0.28477 0.78891 0.79851 0.0
C256 C 0.37132 0.81622 0.6283 0.0
O257 O 0.38769 0.86019 0.75774 0.0
O258 O 0.43505 0.85891 0.70162 0.0
C259 C 0.49257 0.83806 0.76248 0.0
N260 N 0.47081 0.80534 0.729 0.0
C261 C 0.53733 0.80027 0.71348 0.0
C262 C 0.56102 0.83492 0.74663 0.0
C263 C 0.53803 0.85267 0.77266 0.0
C264 C 0.49105 0.78428 0.70821 0.0
H265 H 0.47585 0.85368 0.7804 0.0
C266 C 0.42566 0.87863 0.73547 0.0
O267 O 0.28479 0.80925 0.75856 0.0
O268 O 0.31638 0.77903 0.80148 0.0
N269 N 0.42344 0.74295 0.66684 0.0
C270 C 0.39798 0.71352 0.63172 0.0
C271 C 0.41387 0.68798 0.60774 0.0
C272 C 0.45813 0.69691 0.61561 0.0
C273 C 0.48533 0.73027 0.64853 0.0
C274 C 0.46558 0.7504 0.67602 0.0
H275 H 0.36696 0.71145 0.61981 0.0
O276 O 0.29936 0.73977 0.71108 0.0
O277 O 0.37241 0.76879 0.73065 0.0
O278 O 0.35387 0.83016 0.66055 0.0
O279 O 0.37728 0.78466 0.64016 0.0
C280 C 0.53222 0.7473 0.65168 0.0
C281 C 0.55829 0.78258 0.68375 0.0
H282 H 0.59677 0.84801 0.75247 0.0
H283 H 0.55586 0.87905 0.79873 0.0
H284 H 0.39337 0.66402 0.5805 0.0
H285 H 0.47164 0.6797 0.59433 0.0
H286 H 0.54878 0.73394 0.62904 0.0
H287 H 0.59437 0.79546 0.68571 0.0
Mn288 Mn 0.49603 0.33412 0.06217 0.0
Mn289 Mn 0.57899 0.44053 1.03851 0.0
C290 C 0.56764 0.34548 0.05419 0.0
C291 C 0.4551 0.28103 0.12456 0.0
C292 C 0.51383 0.37955 0.96284 0.0
O293 O 0.46721 0.37226 0.07591 0.0
O294 O 0.52941 0.44075 0.07581 0.0
C295 C 0.61384 0.48321 0.13327 0.0
N296 N 0.62134 0.47253 0.08812 0.0
C297 C 0.69824 0.53359 0.08766 0.0
C298 C 0.69154 0.54507 0.13438 0.0
C299 C 0.64941 0.51926 0.15762 0.0
C300 C 0.66221 0.49649 0.0661 0.0
H301 H 0.58064 0.46523 0.14976 0.0
C302 C 0.48767 0.41409 0.08538 0.0
O303 O 0.43949 0.27525 0.0807 0.0
O304 O 0.49184 0.31813 0.13219 0.0
N305 N 0.62988 0.44693 1.00282 0.0
C306 C 0.63255 0.42528 0.96304 0.0
C307 C 0.67383 0.44252 0.93786 0.0
C308 C 0.71165 0.4823 0.95381 0.0
C309 C 0.70832 0.50269 0.99639 0.0
C310 C 0.66683 0.4826 1.02078 0.0
H311 H 0.60377 0.39464 0.95201 0.0
O312 O 0.53232 0.30611 0.05079 0.0
O313 O 0.56071 0.37915 0.06392 0.0
O314 O 0.49397 0.34236 0.98697 0.0
O315 O 0.54073 0.41694 0.98184 0.0
C316 C 0.74418 0.54208 1.01578 0.0
C317 C 0.73872 0.55808 0.06095 0.0
H318 H 0.71843 0.57361 0.15271 0.0
H319 H 0.64392 0.52815 0.19354 0.0
H320 H 0.67635 0.42554 0.90606 0.0
H321 H 0.74327 0.49614 0.93389 0.0
H322 H 0.77585 0.56033 0.99618 0.0
H323 H 0.7658 0.58914 0.07497 0.0
Mn324 Mn 0.16026 0.52219 0.41086 0.0
Mn325 Mn 0.10956 0.58027 0.38013 0.0
C326 C 0.20547 0.59903 0.40646 0.0
C327 C 0.18271 0.48926 0.47467 0.0
C328 C 0.12592 0.52563 0.31187 0.0
O329 O 0.09162 0.48124 0.42331 0.0
O330 O 0.07407 0.53647 0.43017 0.0
C331 C 0.09632 0.62792 0.46177 0.0
N332 N 0.11158 0.62843 0.41609 0.0
C333 C 0.10202 0.69128 0.39315 0.0
C334 C 0.08674 0.69186 0.44021 0.0
C335 C 0.08462 0.66053 0.47488 0.0
C336 C 0.11428 0.65889 0.38275 0.0
H337 H 0.09164 0.60185 0.48727 0.0
C338 C 0.06588 0.49636 0.43844 0.0
O339 O 0.17776 0.47498 0.43037 0.0
O340 O 0.17195 0.51994 0.48209 0.0
N341 N 0.14255 0.62528 0.33195 0.0
C342 C 0.17618 0.63218 0.30052 0.0
C343 C 0.19081 0.66709 0.26591 0.0
C344 C 0.17202 0.69562 0.26604 0.0
C345 C 0.14268 0.69177 0.30391 0.0
C346 C 0.1311 0.65736 0.33783 0.0
H347 H 0.19306 0.61284 0.30395 0.0
O348 O 0.2219 0.57208 0.40327 0.0
O349 O 0.16189 0.58045 0.41147 0.0
O350 O 0.15572 0.52014 0.33404 0.0
O351 O 0.09747 0.53014 0.33688 0.0
C352 C 0.12678 0.72216 0.31147 0.0
C353 C 0.10559 0.72136 0.35591 0.0
H354 H 0.0769 0.71637 0.45021 0.0
H355 H 0.07252 0.66059 0.51114 0.0
H356 H 0.21682 0.67237 0.23983 0.0
H357 H 0.1831 0.72244 0.23939 0.0
H358 H 0.13234 0.74736 0.28431 0.0
H359 H 0.09436 0.74553 0.3619 0.0
Mn360 Mn 0.5888 0.16135 0.74009 0.0
Mn361 Mn 0.47838 0.09962 0.71836 0.0
C362 C 0.54673 0.1982 0.7432 0.0
C363 C 0.64843 0.18783 0.79866 0.0
C364 C 0.54924 0.12639 0.64278 0.0
O365 O 0.57131 0.09408 0.74494 0.0
O366 O 0.49826 0.06875 0.7635 0.0
C367 C 0.42849 0.08517 0.81071 0.0
N368 N 0.43469 0.09737 0.76319 0.0
C369 C 0.36085 0.0902 0.75842 0.0
C370 C 0.35379 0.07802 0.80753 0.0
C371 C 0.38792 0.07591 0.83389 0.0
C372 C 0.40217 0.09979 0.73763 0.0
H373 H 0.45397 0.08168 0.83031 0.0
C374 C 0.53257 0.06323 0.7606 0.0
O375 O 0.65609 0.18586 0.75283 0.0
O376 O 0.60634 0.17137 0.81041 0.0
N377 N 0.45483 0.12687 0.67539 0.0
C378 C 0.47345 0.15532 0.637 0.0
C379 C 0.44615 0.16544 0.60754 0.0
C380 C 0.40022 0.14756 0.61932 0.0
C381 C 0.38333 0.12308 0.66264 0.0
C382 C 0.41252 0.11455 0.69039 0.0
H383 H 0.50926 0.17382 0.63255 0.0
O384 O 0.59047 0.21979 0.73884 0.0
O385 O 0.52816 0.1548 0.74574 0.0
O386 O 0.58253 0.15841 0.66472 0.0
O387 O 0.51673 0.09534 0.66674 0.0
C388 C 0.33986 0.10955 0.68117 0.0
C389 C 0.32872 0.09346 0.72927 0.0
H390 H 0.3224 0.07041 0.8254 0.0
H391 H 0.38255 0.06627 0.87172 0.0
H392 H 0.46077 0.18808 0.57689 0.0
H393 H 0.37928 0.15578 0.59694 0.0
H394 H 0.3156 0.11361 0.65974 0.0
H395 H 0.29593 0.08515 0.74395 0.0
Mn396 Mn 0.42764 0.60662 0.06335 0.0
Mn397 Mn 0.3335 0.49766 1.03548 0.0
C398 C 0.36613 0.60175 1.02174 0.0
C399 C 0.44251 0.65616 0.1315 0.0
C400 C 0.42705 0.55684 0.98906 0.0
O401 O 0.43368 0.5577 0.10045 0.0
O402 O 0.36043 0.50146 0.10058 0.0
C403 C 0.27895 0.40929 0.08423 0.0
N404 N 0.28847 0.43581 0.04403 0.0
C405 C 0.23501 0.37306 0.99717 0.0
C406 C 0.22691 0.34457 1.03715 0.0
C407 C 0.24849 0.36291 0.08112 0.0
C408 C 0.26618 0.41896 1.0023 0.0
H409 H 0.29551 0.42333 0.11811 0.0
C410 C 0.4026 0.51703 0.11042 0.0
O411 O 0.47508 0.66038 0.10319 0.0
O412 O 0.40377 0.62181 0.12259 0.0
N413 N 0.30802 0.49219 0.97169 0.0
C414 C 0.31902 0.52357 0.93576 0.0
C415 C 0.29388 0.51182 0.89292 0.0
C416 C 0.26037 0.46715 0.88536 0.0
C417 C 0.25145 0.43474 0.92122 0.0
C418 C 0.27524 0.44898 0.96474 0.0
H419 H 0.34687 0.55725 0.93957 0.0
O420 O 0.40304 0.64015 1.02619 0.0
O421 O 0.36901 0.56625 1.03384 0.0
O422 O 0.45879 0.59569 1.00076 0.0
O423 O 0.3928 0.54581 1.01628 0.0
C424 C 0.22006 0.38877 0.91523 0.0
C425 C 0.21261 0.35779 0.95278 0.0
H426 H 0.20318 0.30884 1.03492 0.0
H427 H 0.24157 0.34138 0.11254 0.0
H428 H 0.3008 0.5368 0.86514 0.0
H429 H 0.24211 0.45802 0.85157 0.0
H430 H 0.20157 0.37684 0.88178 0.0
H431 H 0.18837 0.3225 0.94776 0.0
C432 C 0.49855 0.08629 0.51846 0.0
C433 C 0.50885 0.12664 0.49436 0.0
H434 H 0.5036 0.05456 0.5834 0.0
C435 C 0.53523 0.16727 0.51904 0.0
H436 H 0.47987 0.05443 0.50004 0.0
C437 C 0.55413 0.16769 0.56443 0.0
C438 C 0.54228 0.12717 0.58927 0.0
H439 H 0.54433 0.19909 0.50155 0.0
H440 H 0.57513 0.19972 0.58173 0.0
C441 C 0.51388 0.0865 0.56552 0.0
C442 C 0.37084 0.47117 0.89093 0.0
C443 C 0.39269 0.4977 0.84997 0.0
H444 H 0.36832 0.46756 0.9688 0.0
C445 C 0.4368 0.53478 0.8572 0.0
H446 H 0.33783 0.44159 0.8875 0.0
C447 C 0.45118 0.55279 0.90354 0.0
C448 C 0.42421 0.53108 0.9441 0.0
H449 H 0.45605 0.55573 0.82687 0.0
H450 H 0.48063 0.5859 0.9068 0.0
C451 C 0.38759 0.48709 0.93768 0.0
C452 C 0.86308 0.46734 0.20481 0.0
C453 C 0.86726 0.44107 0.24128 0.0
H454 H 0.85918 0.47559 0.12789 0.0
C455 C 0.8747 0.40544 0.22637 0.0
H456 H 0.85913 0.49594 0.21393 0.0
C457 C 0.86755 0.3901 0.1788 0.0
C458 C 0.85745 0.41274 0.14335 0.0
H459 H 0.88048 0.38528 0.25271 0.0
H460 H 0.86699 0.35889 0.17066 0.0
C461 C 0.86107 0.4545 0.15583 0.0
C462 C 0.41357 0.89132 0.5145 0.0
C463 C 0.43381 0.86991 0.48831 0.0
H464 H 0.37549 0.89016 0.57795 0.0
C465 C 0.44198 0.83926 0.51347 0.0
H466 H 0.40748 0.91608 0.49672 0.0
C467 C 0.42385 0.82488 0.55987 0.0
C468 C 0.39674 0.84045 0.58305 0.0
H469 H 0.45749 0.82222 0.49542 0.0
H470 H 0.42883 0.7988 0.57603 0.0
C471 C 0.39443 0.87614 0.56101 0.0
C472 C 0.50438 0.41206 0.88588 0.0
C473 C 0.51539 0.38208 0.90912 0.0
H474 H 0.50838 0.4486 0.82079 0.0
C475 C 0.54414 0.37028 0.88437 0.0
H476 H 0.48402 0.4236 0.90458 0.0
C477 C 0.56386 0.39028 0.83956 0.0
C478 C 0.55046 0.41778 0.81492 0.0
H479 H 0.55351 0.34737 0.90093 0.0
H480 H 0.58636 0.38086 0.82231 0.0
C481 C 0.52028 0.42831 0.83888 0.0
C482 C 0.08459 0.52408 0.2359 0.0
C483 C 0.12563 0.53351 0.25792 0.0
H484 H 0.05113 0.52973 0.17275 0.0
C485 C 0.16565 0.56005 0.23107 0.0
H486 H 0.05286 0.50391 0.25497 0.0
C487 C 0.16479 0.58067 0.18681 0.0
C488 C 0.12365 0.56972 0.16402 0.0
H489 H 0.19806 0.56825 0.24619 0.0
H490 H 0.1966 0.60341 0.16922 0.0
C491 C 0.08359 0.54043 0.18934 0.0
C492 C 0.69901 0.28688 0.35058 0.0
C493 C 0.70426 0.32996 0.35178 0.0
H494 H 0.65387 0.21806 0.33774 0.0
C495 C 0.66572 0.33483 0.35325 0.0
H496 H 0.72725 0.28152 0.35389 0.0
C497 C 0.62312 0.29703 0.35503 0.0
C498 C 0.61817 0.25381 0.3517 0.0
H499 H 0.66827 0.36763 0.35528 0.0
H500 H 0.59417 0.30196 0.35825 0.0
C501 C 0.65648 0.24967 0.34578 0.0
C502 C 0.30935 0.65706 0.69118 0.0
C503 C 0.32528 0.68894 0.72798 0.0
H504 H 0.30252 0.59464 0.66771 0.0
C505 C 0.33163 0.67696 0.77452 0.0
H506 H 0.29982 0.66435 0.6564 0.0
C507 C 0.32747 0.635 0.78239 0.0
C508 C 0.32237 0.60773 0.74298 0.0
H509 H 0.33957 0.69988 0.80454 0.0
H510 H 0.32861 0.62429 0.81865 0.0
C511 C 0.31005 0.61716 0.69793 0.0
C512 C 0.61193 0.30615 0.0505 0.0
C513 C 0.61106 0.34668 0.05597 0.0
H514 H 0.6522 0.27447 0.04772 0.0
C515 C 0.65113 0.38611 0.06453 0.0
H516 H 0.58132 0.27419 0.04571 0.0
C517 C 0.69192 0.38722 0.058 0.0
C518 C 0.69302 0.347 0.05423 0.0
H519 H 0.651 0.41584 0.07555 0.0
H520 H 0.7221 0.41953 0.05535 0.0
C521 C 0.65253 0.30614 0.05155 0.0
C522 C 0.31522 0.69703 0.43555 0.0
C523 C 0.31276 0.72854 0.40505 0.0
H524 H 0.28085 0.6289 0.46013 0.0
C525 C 0.27098 0.72086 0.3885 0.0
H526 H 0.34728 0.7028 0.4496 0.0
C527 C 0.23255 0.68053 0.39901 0.0
C528 C 0.23677 0.64555 0.41908 0.0
H529 H 0.26835 0.74349 0.36329 0.0
H530 H 0.20127 0.67556 0.38605 0.0
C531 C 0.27727 0.65507 0.44186 0.0
C532 C 0.50553 0.26461 0.69756 0.0
C533 C 0.5422 0.30456 0.71323 0.0
H534 H 0.46468 0.19515 0.71239 0.0
C535 C 0.56408 0.30499 0.75618 0.0
H536 H 0.48728 0.26363 0.66528 0.0
C537 C 0.55311 0.26466 0.77927 0.0
C538 C 0.52442 0.22426 0.75569 0.0
H539 H 0.59271 0.33567 0.76885 0.0
H540 H 0.575 0.26533 0.80798 0.0
C541 C 0.49419 0.22499 0.72243 0.0
C542 C 0.28362 0.63781 0.9882 0.0
C543 C 0.24262 0.59819 0.99865 0.0
H544 H 0.35536 0.66969 0.98701 0.0
C545 C 0.24284 0.55819 1.00524 0.0
H546 H 0.28473 0.66935 0.97991 0.0
C547 C 0.28311 0.55924 1.01464 0.0
C548 C 0.32408 0.59928 1.0079 0.0
H549 H 0.21241 0.527 1.00609 0.0
H550 H 0.28179 0.52917 1.02889 0.0
C551 C 0.32418 0.63819 0.99229 0.0
C552 C 0.42249 0.0028 0.28137 0.0
C553 C 0.46934 0.02806 0.28623 0.0
H554 H 0.36598 0.93674 0.27674 0.0
C555 C 0.49591 0.00845 0.27341 0.0
H556 H 0.40124 0.01743 0.28853 0.0
C557 C 0.47593 0.9621 0.26846 0.0
C558 C 0.42936 0.93563 0.2755 0.0
H559 H 0.53245 0.02779 0.27362 0.0
H560 H 0.49743 0.94712 0.26678 0.0
C561 C 0.40249 0.95655 0.2744 0.0
C562 C 0.45178 0.49277 0.63359 0.0
C563 C 0.45911 0.51453 0.67822 0.0
H564 H 0.47349 0.45917 0.58452 0.0
C565 C 0.50015 0.52816 0.70235 0.0
H566 H 0.42127 0.48315 0.61329 0.0
C567 C 0.53068 0.51543 0.68506 0.0
C568 C 0.52016 0.48845 0.6439 0.0
H569 H 0.50758 0.54641 0.73605 0.0
H570 H 0.55954 0.52208 0.70705 0.0
C571 C 0.48223 0.48004 0.61643 0.0
C572 C 0.93563 0.52083 0.98959 0.0
C573 C 0.91423 0.47784 0.96855 0.0
H574 H -0.00202 0.57735 1.01145 0.0
C575 C 0.94068 0.46322 0.94406 0.0
H576 H 0.91671 0.53262 1.01015 0.0
C577 C -0.01234 0.48862 0.94581 0.0
C578 C 0.00883 0.52897 0.9721 0.0
H579 H 0.92521 0.43042 0.92727 0.0
H580 H 0.00728 0.47475 0.93012 0.0
C581 C -0.0174 0.54645 0.99094 0.0
C582 C -0.00347 0.48634 0.47827 0.0
C583 C 0.01998 0.46632 0.45696 0.0
H584 H 0.93441 0.48767 0.48067 0.0
C585 C -0.00462 0.42274 0.43895 0.0
H586 H 0.01484 0.51937 0.49442 0.0
C587 C 0.94899 0.40387 0.43277 0.0
C588 C 0.92731 0.42903 0.44349 0.0
H589 H 0.01235 0.40599 0.42349 0.0
H590 H 0.93159 0.37207 0.41403 0.0
C591 C 0.95051 0.46847 0.47021 0.0
C592 C 0.52835 -0.00485 0.72579 0.0
C593 C 0.52133 0.01613 0.76565 0.0
H594 H 0.5025 0.93502 0.68414 0.0
C595 C 0.48798 -0.01037 0.80013 0.0
H596 H 0.55354 0.01486 0.6985 0.0
C597 C 0.45747 0.94453 0.791 0.0
C598 C 0.46068 0.92489 0.74788 0.0
H599 H 0.48199 0.00519 0.83125 0.0
H600 H 0.43009 0.92582 0.8165 0.0
C601 C 0.49819 0.94971 0.71696 0.0
C602 C 0.39504 0.44173 0.09862 0.0
C603 C 0.41826 0.48461 0.11953 0.0
H604 H 0.39873 0.38519 0.07199 0.0
C605 C 0.46175 0.49978 0.13778 0.0
H606 H 0.36261 0.42977 0.08223 0.0
C607 C 0.48344 0.47488 0.13002 0.0
C608 C 0.4616 0.43421 0.10458 0.0
H609 H 0.48047 0.53267 0.15413 0.0
H610 H 0.51827 0.48889 0.14107 0.0
C611 C 0.41629 0.41642 0.09176 0.0
C612 C 0.44389 0.17966 0.19048 0.0
C613 C 0.44421 0.19201 0.23904 0.0
H614 H 0.44428 0.19704 0.11555 0.0
C615 C 0.43806 0.2289 0.24884 0.0
H616 H 0.44919 0.15176 0.18181 0.0
C617 C 0.43642 0.25554 0.2108 0.0
C618 C 0.43928 0.24498 0.16218 0.0
H619 H 0.4391 0.23985 0.28576 0.0
H620 H 0.43642 0.28639 0.21945 0.0
C621 C 0.44072 0.20543 0.15246 0.0
C622 C 0.18979 0.45158 0.55182 0.0
C623 C 0.20983 0.48099 0.51188 0.0
H624 H 0.19954 0.43026 0.62251 0.0
C625 C 0.25686 0.50962 0.51223 0.0
H626 H 0.15349 0.42982 0.55329 0.0
C627 C 0.28289 0.5105 0.5519 0.0
C628 C 0.26312 0.48237 0.59269 0.0
H629 H 0.27334 0.53343 0.48281 0.0
H630 H 0.31868 0.53482 0.55146 0.0
C631 C 0.21622 0.45181 0.59153 0.0
C632 C 0.76078 0.27397 0.85684 0.0
C633 C 0.7488 0.26978 0.90624 0.0
H634 H 0.73935 0.25079 0.7841 0.0
C635 C 0.70534 0.23547 0.91988 0.0
H636 H 0.79363 0.30059 0.84495 0.0
C637 C 0.67407 0.20744 0.88519 0.0
C638 C 0.68509 0.21252 0.83545 0.0
H639 H 0.69459 0.23182 0.95741 0.0
H640 H 0.64039 0.18283 0.8973 0.0
C641 C 0.72952 0.24538 0.82193 0.0
C642 C 0.4842 0.72054 0.1934 0.0
C643 C 0.44526 0.69087 0.16715 0.0
H644 H 0.51276 0.77203 0.24852 0.0
C645 C 0.40586 0.69356 0.17533 0.0
H646 H 0.51528 0.7197 0.18817 0.0
C647 C 0.4047 0.72375 0.20849 0.0
C648 C 0.44266 0.75256 0.23611 0.0
H649 H 0.37522 0.67206 0.15572 0.0
H650 H 0.37305 0.72361 0.21309 0.0
C651 C 0.48275 0.75064 0.228 0.0
C652 C 0.73486 0.48677 0.56785 0.0
C653 C 0.68798 0.45743 0.56201 0.0
H654 H 0.80224 0.51111 0.53853 0.0
C655 C 0.67388 0.43302 0.51859 0.0
H656 H 0.74723 0.50609 0.60069 0.0
C657 C 0.70511 0.4357 0.48362 0.0
C658 C 0.75183 0.46349 0.48996 0.0
H659 H 0.63839 0.41002 0.51225 0.0
H660 H 0.6926 0.41452 0.45199 0.0
C661 C 0.76646 0.48985 0.53212 0.0
C662 C 0.22747 0.75394 0.92223 0.0
C663 C 0.1874 0.7139 0.91136 0.0
H664 H 0.28985 0.80925 0.89489 0.0
C665 C 0.17648 0.70414 0.86208 0.0
H666 H 0.2378 0.76203 0.95952 0.0
C667 C 0.20577 0.73202 0.82494 0.0
C668 C 0.24754 0.77003 0.83584 0.0
H669 H 0.14652 0.67317 0.85218 0.0
H670 H 0.19758 0.72144 0.78772 0.0
C671 C 0.25743 0.7811 0.88504 0.0
loop_
_geom_bond_atom_site_label_1
_geom_bond_atom_site_label_2
_geom_bond_distance
_geom_bond_site_symmetry_2
_ccdc_geom_bond_type
Mn0 O5 2.095 . S
Mn0 O15 2.162 . S
Mn0 O16 2.297 . S
Mn0 O24 2.385 . S
Mn0 O25 2.209 . S
Mn0 O26 2.094 . S
Mn1 O6 2.121 . S
Mn1 N8 2.257 . S
Mn1 N17 2.282 . S
Mn1 O25 2.215 . S
Mn1 O27 2.117 . S
C2 O24 1.234 . S
C2 O25 1.283 . S
C3 O15 1.281 . S
C3 O16 1.236 . S
C4 O26 1.240 . S
C4 O27 1.264 . S
O5 Mn0 2.095 . S
O5 C14 1.250 . S
O6 Mn1 2.121 . S
O6 C14 1.258 . S
C7 N8 1.326 . S
C7 C11 1.460 . S
C7 H13 0.929 . S
N8 Mn1 2.257 . S
N8 C7 1.326 . S
N8 C12 1.362 . S
C9 C10 1.258 . S
C9 C12 1.431 . S
C9 C29 1.449 . S
C10 C9 1.258 . S
C10 C11 1.477 . S
C10 H30 0.931 . S
C11 C7 1.460 . S
C11 C10 1.477 . S
C11 H31 0.930 . S
C12 N8 1.362 . S
C12 C9 1.431 . S
C12 C22 1.476 . S
H13 C7 0.929 . S
C14 O5 1.250 . S
C14 O6 1.258 . S
O15 Mn0 2.162 . S
O15 C3 1.281 . S
O16 Mn0 2.297 . S
O16 C3 1.236 . S
N17 Mn1 2.282 . S
N17 C18 1.328 . S
N17 C22 1.318 . S
C18 N17 1.328 . S
C18 C19 1.457 . S
C18 H23 0.929 . S
C19 C18 1.457 . S
C19 C20 1.291 . S
C19 H32 0.931 . S
C20 C19 1.291 . S
C20 C21 1.373 . S
C20 H33 0.929 . S
C21 C20 1.373 . S
C21 C22 1.396 . S
C21 C28 1.403 . S
C22 C12 1.476 . S
C22 N17 1.318 . S
C22 C21 1.396 . S
H23 C18 0.929 . S
O24 Mn0 2.385 . S
O24 C2 1.234 . S
O25 Mn0 2.209 . S
O25 Mn1 2.215 . S
O25 C2 1.283 . S
O26 Mn0 2.094 . S
O26 C4 1.240 . S
O27 Mn1 2.117 . S
O27 C4 1.264 . S
C28 C21 1.403 . S
C28 C29 1.399 . S
C28 H34 0.929 . S
C29 C9 1.449 . S
C29 C28 1.399 . S
C29 H35 0.930 . S
H30 C10 0.931 . S
H31 C11 0.930 . S
H32 C19 0.931 . S
H33 C20 0.929 . S
H34 C28 0.929 . S
H35 C29 0.930 . S
Mn36 O41 2.095 . S
Mn36 O51 2.162 . S
Mn36 O52 2.297 . S
Mn36 O60 2.385 . S
Mn36 O61 2.209 . S
Mn36 O62 2.094 . S
Mn37 O42 2.121 . S
Mn37 N44 2.257 . S
Mn37 N53 2.282 . S
Mn37 O61 2.215 . S
Mn37 O63 2.117 . S
C38 O60 1.234 . S
C38 O61 1.283 . S
C39 O51 1.281 . S
C39 O52 1.236 . S
C40 O62 1.240 . S
C40 O63 1.264 . S
O41 Mn36 2.095 . S
O41 C50 1.250 . S
O42 Mn37 2.121 . S
O42 C50 1.258 . S
C43 N44 1.326 . S
C43 C47 1.460 . S
C43 H49 0.929 . S
N44 Mn37 2.257 . S
N44 C43 1.326 . S
N44 C48 1.362 . S
C45 C46 1.258 . S
C45 C48 1.431 . S
C45 C65 1.449 . S
C46 C45 1.258 . S
C46 C47 1.477 . S
C46 H66 0.931 . S
C47 C43 1.460 . S
C47 C46 1.477 . S
C47 H67 0.930 . S
C48 N44 1.362 . S
C48 C45 1.431 . S
C48 C58 1.476 . S
H49 C43 0.929 . S
C50 O41 1.250 . S
C50 O42 1.258 . S
O51 Mn36 2.162 . S
O51 C39 1.281 . S
O52 Mn36 2.297 . S
O52 C39 1.236 . S
N53 Mn37 2.282 . S
N53 C54 1.328 . S
N53 C58 1.318 . S
C54 N53 1.328 . S
C54 C55 1.457 . S
C54 H59 0.929 . S
C55 C54 1.457 . S
C55 C56 1.291 . S
C55 H68 0.931 . S
C56 C55 1.291 . S
C56 C57 1.373 . S
C56 H69 0.929 . S
C57 C56 1.373 . S
C57 C58 1.396 . S
C57 C64 1.403 . S
C58 C48 1.476 . S
C58 N53 1.318 . S
C58 C57 1.396 . S
H59 C54 0.929 . S
O60 Mn36 2.385 . S
O60 C38 1.234 . S
O61 Mn36 2.209 . S
O61 Mn37 2.215 . S
O61 C38 1.283 . S
O62 Mn36 2.094 . S
O62 C40 1.240 . S
O63 Mn37 2.117 . S
O63 C40 1.264 . S
C64 C57 1.403 . S
C64 C65 1.399 . S
C64 H70 0.929 . S
C65 C45 1.449 . S
C65 C64 1.399 . S
C65 H71 0.930 . S
H66 C46 0.931 . S
H67 C47 0.930 . S
H68 C55 0.931 . S
H69 C56 0.929 . S
H70 C64 0.929 . S
H71 C65 0.930 . S
Mn72 O77 2.095 . S
Mn72 O87 2.162 . S
Mn72 O88 2.297 . S
Mn72 O96 2.385 . S
Mn72 O97 2.209 . S
Mn72 O98 2.094 1_556 S
Mn73 O78 2.121 1_554 S
Mn73 N80 2.257 . S
Mn73 N89 2.282 . S
Mn73 O97 2.215 1_554 S
Mn73 O99 2.117 . S
C74 O96 1.234 . S
C74 O97 1.283 . S
C75 O87 1.281 . S
C75 O88 1.236 . S
C76 O98 1.240 . S
C76 O99 1.264 . S
O77 Mn72 2.095 . S
O77 C86 1.250 . S
O78 Mn73 2.121 1_556 S
O78 C86 1.258 . S
C79 N80 1.326 1_556 S
C79 C83 1.460 . S
C79 H85 0.929 . S
N80 Mn73 2.257 . S
N80 C79 1.326 1_554 S
N80 C84 1.362 . S
C81 C82 1.258 1_554 S
C81 C84 1.431 . S
C81 C101 1.449 . S
C82 C81 1.258 1_556 S
C82 C83 1.477 . S
C82 H102 0.931 . S
C83 C79 1.460 . S
C83 C82 1.477 . S
C83 H103 0.930 . S
C84 N80 1.362 . S
C84 C81 1.431 . S
C84 C94 1.476 . S
H85 C79 0.929 . S
C86 O77 1.250 . S
C86 O78 1.258 . S
O87 Mn72 2.162 . S
O87 C75 1.281 . S
O88 Mn72 2.297 . S
O88 C75 1.236 . S
N89 Mn73 2.282 . S
N89 C90 1.328 . S
N89 C94 1.318 . S
C90 N89 1.328 . S
C90 C91 1.457 . S
C90 H95 0.929 . S
C91 C90 1.457 . S
C91 C92 1.291 . S
C91 H104 0.931 . S
C92 C91 1.291 . S
C92 C93 1.373 . S
C92 H105 0.929 . S
C93 C92 1.373 . S
C93 C94 1.396 . S
C93 C100 1.403 . S
C94 C84 1.476 . S
C94 N89 1.318 . S
C94 C93 1.396 . S
H95 C90 0.929 . S
O96 Mn72 2.385 . S
O96 C74 1.234 . S
O97 Mn72 2.209 . S
O97 Mn73 2.215 1_556 S
O97 C74 1.283 . S
O98 Mn72 2.094 1_554 S
O98 C76 1.240 . S
O99 Mn73 2.117 . S
O99 C76 1.264 . S
C100 C93 1.403 . S
C100 C101 1.399 . S
C100 H106 0.929 . S
C101 C81 1.449 . S
C101 C100 1.399 . S
C101 H107 0.930 . S
H102 C82 0.931 . S
H103 C83 0.930 . S
H104 C91 0.931 . S
H105 C92 0.929 . S
H106 C100 0.929 . S
H107 C101 0.930 . S
Mn108 O113 2.095 . S
Mn108 O123 2.162 . S
Mn108 O124 2.297 . S
Mn108 O132 2.385 . S
Mn108 O133 2.209 . S
Mn108 O134 2.094 . S
Mn109 O114 2.121 . S
Mn109 N116 2.257 . S
Mn109 N125 2.282 . S
Mn109 O133 2.215 . S
Mn109 O135 2.117 . S
C110 O132 1.234 . S
C110 O133 1.283 . S
C111 O123 1.281 . S
C111 O124 1.236 . S
C112 O134 1.240 . S
C112 O135 1.264 . S
O113 Mn108 2.095 . S
O113 C122 1.250 . S
O114 Mn109 2.121 . S
O114 C122 1.258 . S
C115 N116 1.326 . S
C115 C119 1.460 . S
C115 H121 0.929 . S
N116 Mn109 2.257 . S
N116 C115 1.326 . S
N116 C120 1.362 . S
C117 C118 1.258 . S
C117 C120 1.431 . S
C117 C137 1.449 . S
C118 C117 1.258 . S
C118 C119 1.477 . S
C118 H138 0.931 . S
C119 C115 1.460 . S
C119 C118 1.477 . S
C119 H139 0.930 . S
C120 N116 1.362 . S
C120 C117 1.431 . S
C120 C130 1.476 . S
H121 C115 0.929 . S
C122 O113 1.250 . S
C122 O114 1.258 . S
O123 Mn108 2.162 . S
O123 C111 1.281 . S
O124 Mn108 2.297 . S
O124 C111 1.236 . S
N125 Mn109 2.282 . S
N125 C126 1.328 . S
N125 C130 1.318 . S
C126 N125 1.328 . S
C126 C127 1.457 . S
C126 H131 0.929 . S
C127 C126 1.457 . S
C127 C128 1.291 . S
C127 H140 0.931 . S
C128 C127 1.291 . S
C128 C129 1.373 . S
C128 H141 0.929 . S
C129 C128 1.373 . S
C129 C130 1.396 . S
C129 C136 1.403 . S
C130 C120 1.476 . S
C130 N125 1.318 . S
C130 C129 1.396 . S
H131 C126 0.929 . S
O132 Mn108 2.385 . S
O132 C110 1.234 . S
O133 Mn108 2.209 . S
O133 Mn109 2.215 . S
O133 C110 1.283 . S
O134 Mn108 2.094 . S
O134 C112 1.240 . S
O135 Mn109 2.117 . S
O135 C112 1.264 . S
C136 C129 1.403 . S
C136 C137 1.399 . S
C136 H142 0.929 . S
C137 C117 1.449 . S
C137 C136 1.399 . S
C137 H143 0.930 . S
H138 C118 0.931 . S
H139 C119 0.930 . S
H140 C127 0.931 . S
H141 C128 0.929 . S
H142 C136 0.929 . S
H143 C137 0.930 . S
Mn144 O149 2.095 . S
Mn144 O159 2.162 . S
Mn144 O160 2.297 . S
Mn144 O168 2.385 . S
Mn144 O169 2.209 . S
Mn144 O170 2.094 . S
Mn145 O150 2.121 . S
Mn145 N152 2.257 . S
Mn145 N161 2.282 . S
Mn145 O169 2.215 . S
Mn145 O171 2.117 . S
C146 O168 1.234 . S
C146 O169 1.283 . S
C147 O159 1.281 . S
C147 O160 1.236 . S
C148 O170 1.240 . S
C148 O171 1.264 . S
O149 Mn144 2.095 . S
O149 C158 1.250 . S
O150 Mn145 2.121 . S
O150 C158 1.258 . S
C151 N152 1.326 . S
C151 C155 1.460 . S
C151 H157 0.929 . S
N152 Mn145 2.257 . S
N152 C151 1.326 . S
N152 C156 1.362 . S
C153 C154 1.258 . S
C153 C156 1.431 . S
C153 C173 1.449 . S
C154 C153 1.258 . S
C154 C155 1.477 . S
C154 H174 0.931 . S
C155 C151 1.460 . S
C155 C154 1.477 . S
C155 H175 0.930 . S
C156 N152 1.362 . S
C156 C153 1.431 . S
C156 C166 1.476 . S
H157 C151 0.929 . S
C158 O149 1.250 . S
C158 O150 1.258 . S
O159 Mn144 2.162 . S
O159 C147 1.281 . S
O160 Mn144 2.297 . S
O160 C147 1.236 . S
N161 Mn145 2.282 . S
N161 C162 1.328 . S
N161 C166 1.318 . S
C162 N161 1.328 . S
C162 C163 1.457 . S
C162 H167 0.929 . S
C163 C162 1.457 . S
C163 C164 1.291 . S
C163 H176 0.931 . S
C164 C163 1.291 . S
C164 C165 1.373 . S
C164 H177 0.929 . S
C165 C164 1.373 . S
C165 C166 1.396 . S
C165 C172 1.403 . S
C166 C156 1.476 . S
C166 N161 1.318 . S
C166 C165 1.396 . S
H167 C162 0.929 . S
O168 Mn144 2.385 . S
O168 C146 1.234 . S
O169 Mn144 2.209 . S
O169 Mn145 2.215 . S
O169 C146 1.283 . S
O170 Mn144 2.094 . S
O170 C148 1.240 . S
O171 Mn145 2.117 . S
O171 C148 1.264 . S
C172 C165 1.403 . S
C172 C173 1.399 . S
C172 H178 0.929 . S
C173 C153 1.449 . S
C173 C172 1.399 . S
C173 H179 0.930 . S
H174 C154 0.931 . S
H175 C155 0.930 . S
H176 C163 0.931 . S
H177 C164 0.929 . S
H178 C172 0.929 . S
H179 C173 0.930 . S
Mn180 O185 2.095 . S
Mn180 O195 2.162 . S
Mn180 O196 2.297 . S
Mn180 O204 2.385 . S
Mn180 O205 2.209 . S
Mn180 O206 2.094 1_556 S
Mn181 O186 2.121 1_554 S
Mn181 N188 2.257 . S
Mn181 N197 2.282 . S
Mn181 O205 2.215 1_554 S
Mn181 O207 2.117 . S
C182 O204 1.234 . S
C182 O205 1.283 . S
C183 O195 1.281 . S
C183 O196 1.236 . S
C184 O206 1.240 . S
C184 O207 1.264 . S
O185 Mn180 2.095 . S
O185 C194 1.250 . S
O186 Mn181 2.121 1_556 S
O186 C194 1.258 . S
C187 N188 1.326 1_556 S
C187 C191 1.460 . S
C187 H193 0.929 . S
N188 Mn181 2.257 . S
N188 C187 1.326 1_554 S
N188 C192 1.362 . S
C189 C190 1.258 1_554 S
C189 C192 1.431 . S
C189 C209 1.449 . S
C190 C189 1.258 1_556 S
C190 C191 1.477 . S
C190 H210 0.931 . S
C191 C187 1.460 . S
C191 C190 1.477 . S
C191 H211 0.930 . S
C192 N188 1.362 . S
C192 C189 1.431 . S
C192 C202 1.476 . S
H193 C187 0.929 . S
C194 O185 1.250 . S
C194 O186 1.258 . S
O195 Mn180 2.162 . S
O195 C183 1.281 . S
O196 Mn180 2.297 . S
O196 C183 1.236 . S
N197 Mn181 2.282 . S
N197 C198 1.328 . S
N197 C202 1.318 . S
C198 N197 1.328 . S
C198 C199 1.457 . S
C198 H203 0.929 . S
C199 C198 1.457 . S
C199 C200 1.291 . S
C199 H212 0.931 . S
C200 C199 1.291 . S
C200 C201 1.373 . S
C200 H213 0.929 . S
C201 C200 1.373 . S
C201 C202 1.396 . S
C201 C208 1.403 . S
C202 C192 1.476 . S
C202 N197 1.318 . S
C202 C201 1.396 . S
H203 C198 0.929 . S
O204 Mn180 2.385 . S
O204 C182 1.234 . S
O205 Mn180 2.209 . S
O205 Mn181 2.215 1_556 S
O205 C182 1.283 . S
O206 Mn180 2.094 1_554 S
O206 C184 1.240 . S
O207 Mn181 2.117 . S
O207 C184 1.264 . S
C208 C201 1.403 . S
C208 C209 1.399 . S
C208 H214 0.929 . S
C209 C189 1.449 . S
C209 C208 1.399 . S
C209 H215 0.930 . S
H210 C190 0.931 . S
H211 C191 0.930 . S
H212 C199 0.931 . S
H213 C200 0.929 . S
H214 C208 0.929 . S
H215 C209 0.930 . S
Mn216 O221 2.095 . S
Mn216 O231 2.162 . S
Mn216 O232 2.297 . S
Mn216 O240 2.385 . S
Mn216 O241 2.209 . S
Mn216 O242 2.094 . S
Mn217 O222 2.121 . S
Mn217 N224 2.257 . S
Mn217 N233 2.282 . S
Mn217 O241 2.215 . S
Mn217 O243 2.117 . S
C218 O240 1.234 . S
C218 O241 1.283 . S
C219 O231 1.281 . S
C219 O232 1.236 . S
C220 O242 1.240 . S
C220 O243 1.264 . S
O221 Mn216 2.095 . S
O221 C230 1.250 . S
O222 Mn217 2.121 . S
O222 C230 1.258 . S
C223 N224 1.326 . S
C223 C227 1.460 . S
C223 H229 0.929 . S
N224 Mn217 2.257 . S
N224 C223 1.326 . S
N224 C228 1.362 . S
C225 C226 1.258 . S
C225 C228 1.431 . S
C225 C245 1.449 . S
C226 C225 1.258 . S
C226 C227 1.477 . S
C226 H246 0.931 . S
C227 C223 1.460 . S
C227 C226 1.477 . S
C227 H247 0.930 . S
C228 N224 1.362 . S
C228 C225 1.431 . S
C228 C238 1.476 . S
H229 C223 0.929 . S
C230 O221 1.250 . S
C230 O222 1.258 . S
O231 Mn216 2.162 . S
O231 C219 1.281 . S
O232 Mn216 2.297 . S
O232 C219 1.236 . S
N233 Mn217 2.282 . S
N233 C234 1.328 . S
N233 C238 1.318 . S
C234 N233 1.328 . S
C234 C235 1.457 . S
C234 H239 0.929 . S
C235 C234 1.457 . S
C235 C236 1.291 . S
C235 H248 0.931 . S
C236 C235 1.291 . S
C236 C237 1.373 . S
C236 H249 0.929 . S
C237 C236 1.373 . S
C237 C238 1.396 . S
C237 C244 1.403 . S
C238 C228 1.476 . S
C238 N233 1.318 . S
C238 C237 1.396 . S
H239 C234 0.929 . S
O240 Mn216 2.385 . S
O240 C218 1.234 . S
O241 Mn216 2.209 . S
O241 Mn217 2.215 . S
O241 C218 1.283 . S
O242 Mn216 2.094 . S
O242 C220 1.240 . S
O243 Mn217 2.117 . S
O243 C220 1.264 . S
C244 C237 1.403 . S
C244 C245 1.399 . S
C244 H250 0.929 . S
C245 C225 1.449 . S
C245 C244 1.399 . S
C245 H251 0.930 . S
H246 C226 0.931 . S
H247 C227 0.930 . S
H248 C235 0.931 . S
H249 C236 0.929 . S
H250 C244 0.929 . S
H251 C245 0.930 . S
Mn252 O257 2.095 . S
Mn252 O267 2.162 . S
Mn252 O268 2.297 . S
Mn252 O276 2.385 . S
Mn252 O277 2.209 . S
Mn252 O278 2.094 . S
Mn253 O258 2.121 . S
Mn253 N260 2.257 . S
Mn253 N269 2.282 . S
Mn253 O277 2.215 . S
Mn253 O279 2.117 . S
C254 O276 1.234 . S
C254 O277 1.283 . S
C255 O267 1.281 . S
C255 O268 1.236 . S
C256 O278 1.240 . S
C256 O279 1.264 . S
O257 Mn252 2.095 . S
O257 C266 1.250 . S
O258 Mn253 2.121 . S
O258 C266 1.258 . S
C259 N260 1.326 . S
C259 C263 1.460 . S
C259 H265 0.929 . S
N260 Mn253 2.257 . S
N260 C259 1.326 . S
N260 C264 1.362 . S
C261 C262 1.258 . S
C261 C264 1.431 . S
C261 C281 1.449 . S
C262 C261 1.258 . S
C262 C263 1.477 . S
C262 H282 0.931 . S
C263 C259 1.460 . S
C263 C262 1.477 . S
C263 H283 0.930 . S
C264 N260 1.362 . S
C264 C261 1.431 . S
C264 C274 1.476 . S
H265 C259 0.929 . S
C266 O257 1.250 . S
C266 O258 1.258 . S
O267 Mn252 2.162 . S
O267 C255 1.281 . S
O268 Mn252 2.297 . S
O268 C255 1.236 . S
N269 Mn253 2.282 . S
N269 C270 1.328 . S
N269 C274 1.318 . S
C270 N269 1.328 . S
C270 C271 1.457 . S
C270 H275 0.929 . S
C271 C270 1.457 . S
C271 C272 1.291 . S
C271 H284 0.931 . S
C272 C271 1.291 . S
C272 C273 1.373 . S
C272 H285 0.929 . S
C273 C272 1.373 . S
C273 C274 1.396 . S
C273 C280 1.403 . S
C274 C264 1.476 . S
C274 N269 1.318 . S
C274 C273 1.396 . S
H275 C270 0.929 . S
O276 Mn252 2.385 . S
O276 C254 1.234 . S
O277 Mn252 2.209 . S
O277 Mn253 2.215 . S
O277 C254 1.283 . S
O278 Mn252 2.094 . S
O278 C256 1.240 . S
O279 Mn253 2.117 . S
O279 C256 1.264 . S
C280 C273 1.403 . S
C280 C281 1.399 . S
C280 H286 0.929 . S
C281 C261 1.449 . S
C281 C280 1.399 . S
C281 H287 0.930 . S
H282 C262 0.931 . S
H283 C263 0.930 . S
H284 C271 0.931 . S
H285 C272 0.929 . S
H286 C280 0.929 . S
H287 C281 0.930 . S
Mn288 O293 2.095 . S
Mn288 O303 2.162 . S
Mn288 O304 2.297 . S
Mn288 O312 2.385 . S
Mn288 O313 2.209 . S
Mn288 O314 2.094 1_554 S
Mn289 O294 2.121 1_556 S
Mn289 N296 2.257 . S
Mn289 N305 2.282 . S
Mn289 O313 2.215 1_556 S
Mn289 O315 2.117 . S
C290 O312 1.234 . S
C290 O313 1.283 . S
C291 O303 1.281 . S
C291 O304 1.236 . S
C292 O314 1.240 . S
C292 O315 1.264 . S
O293 Mn288 2.095 . S
O293 C302 1.250 . S
O294 Mn289 2.121 1_554 S
O294 C302 1.258 . S
C295 N296 1.326 1_554 S
C295 C299 1.460 . S
C295 H301 0.929 . S
N296 Mn289 2.257 . S
N296 C295 1.326 1_556 S
N296 C300 1.362 . S
C297 C298 1.258 1_556 S
C297 C300 1.431 . S
C297 C317 1.449 . S
C298 C297 1.258 1_554 S
C298 C299 1.477 . S
C298 H318 0.931 . S
C299 C295 1.460 . S
C299 C298 1.477 . S
C299 H319 0.930 . S
C300 N296 1.362 . S
C300 C297 1.431 . S
C300 C310 1.476 . S
H301 C295 0.929 . S
C302 O293 1.250 . S
C302 O294 1.258 . S
O303 Mn288 2.162 . S
O303 C291 1.281 . S
O304 Mn288 2.297 . S
O304 C291 1.236 . S
N305 Mn289 2.282 . S
N305 C306 1.328 . S
N305 C310 1.318 . S
C306 N305 1.328 . S
C306 C307 1.457 . S
C306 H311 0.929 . S
C307 C306 1.457 . S
C307 C308 1.291 . S
C307 H320 0.931 . S
C308 C307 1.291 . S
C308 C309 1.373 . S
C308 H321 0.929 . S
C309 C308 1.373 . S
C309 C310 1.396 . S
C309 C316 1.403 . S
C310 C300 1.476 . S
C310 N305 1.318 . S
C310 C309 1.396 . S
H311 C306 0.929 . S
O312 Mn288 2.385 . S
O312 C290 1.234 . S
O313 Mn288 2.209 . S
O313 Mn289 2.215 1_554 S
O313 C290 1.283 . S
O314 Mn288 2.094 1_556 S
O314 C292 1.240 . S
O315 Mn289 2.117 . S
O315 C292 1.264 . S
C316 C309 1.403 . S
C316 C317 1.399 . S
C316 H322 0.929 . S
C317 C297 1.449 . S
C317 C316 1.399 . S
C317 H323 0.930 . S
H318 C298 0.931 . S
H319 C299 0.930 . S
H320 C307 0.931 . S
H321 C308 0.929 . S
H322 C316 0.929 . S
H323 C317 0.930 . S
Mn324 O329 2.095 . S
Mn324 O339 2.162 . S
Mn324 O340 2.297 . S
Mn324 O348 2.385 . S
Mn324 O349 2.209 . S
Mn324 O350 2.094 . S
Mn325 O330 2.121 . S
Mn325 N332 2.257 . S
Mn325 N341 2.282 . S
Mn325 O349 2.215 . S
Mn325 O351 2.117 . S
C326 O348 1.234 . S
C326 O349 1.283 . S
C327 O339 1.281 . S
C327 O340 1.236 . S
C328 O350 1.240 . S
C328 O351 1.264 . S
O329 Mn324 2.095 . S
O329 C338 1.250 . S
O330 Mn325 2.121 . S
O330 C338 1.258 . S
C331 N332 1.326 . S
C331 C335 1.460 . S
C331 H337 0.929 . S
N332 Mn325 2.257 . S
N332 C331 1.326 . S
N332 C336 1.362 . S
C333 C334 1.258 . S
C333 C336 1.431 . S
C333 C353 1.449 . S
C334 C333 1.258 . S
C334 C335 1.477 . S
C334 H354 0.931 . S
C335 C331 1.460 . S
C335 C334 1.477 . S
C335 H355 0.930 . S
C336 N332 1.362 . S
C336 C333 1.431 . S
C336 C346 1.476 . S
H337 C331 0.929 . S
C338 O329 1.250 . S
C338 O330 1.258 . S
O339 Mn324 2.162 . S
O339 C327 1.281 . S
O340 Mn324 2.297 . S
O340 C327 1.236 . S
N341 Mn325 2.282 . S
N341 C342 1.328 . S
N341 C346 1.318 . S
C342 N341 1.328 . S
C342 C343 1.457 . S
C342 H347 0.929 . S
C343 C342 1.457 . S
C343 C344 1.291 . S
C343 H356 0.931 . S
C344 C343 1.291 . S
C344 C345 1.373 . S
C344 H357 0.929 . S
C345 C344 1.373 . S
C345 C346 1.396 . S
C345 C352 1.403 . S
C346 C336 1.476 . S
C346 N341 1.318 . S
C346 C345 1.396 . S
H347 C342 0.929 . S
O348 Mn324 2.385 . S
O348 C326 1.234 . S
O349 Mn324 2.209 . S
O349 Mn325 2.215 . S
O349 C326 1.283 . S
O350 Mn324 2.094 . S
O350 C328 1.240 . S
O351 Mn325 2.117 . S
O351 C328 1.264 . S
C352 C345 1.403 . S
C352 C353 1.399 . S
C352 H358 0.929 . S
C353 C333 1.449 . S
C353 C352 1.399 . S
C353 H359 0.930 . S
H354 C334 0.931 . S
H355 C335 0.930 . S
H356 C343 0.931 . S
H357 C344 0.929 . S
H358 C352 0.929 . S
H359 C353 0.930 . S
Mn360 O365 2.095 . S
Mn360 O375 2.162 . S
Mn360 O376 2.297 . S
Mn360 O384 2.385 . S
Mn360 O385 2.209 . S
Mn360 O386 2.094 . S
Mn361 O366 2.121 . S
Mn361 N368 2.257 . S
Mn361 N377 2.282 . S
Mn361 O385 2.215 . S
Mn361 O387 2.117 . S
C362 O384 1.234 . S
C362 O385 1.283 . S
C363 O375 1.281 . S
C363 O376 1.236 . S
C364 O386 1.240 . S
C364 O387 1.264 . S
O365 Mn360 2.095 . S
O365 C374 1.250 . S
O366 Mn361 2.121 . S
O366 C374 1.258 . S
C367 N368 1.326 . S
C367 C371 1.460 . S
C367 H373 0.929 . S
N368 Mn361 2.257 . S
N368 C367 1.326 . S
N368 C372 1.362 . S
C369 C370 1.258 . S
C369 C372 1.431 . S
C369 C389 1.449 . S
C370 C369 1.258 . S
C370 C371 1.477 . S
C370 H390 0.931 . S
C371 C367 1.460 . S
C371 C370 1.477 . S
C371 H391 0.930 . S
C372 N368 1.362 . S
C372 C369 1.431 . S
C372 C382 1.476 . S
H373 C367 0.929 . S
C374 O365 1.250 . S
C374 O366 1.258 . S
O375 Mn360 2.162 . S
O375 C363 1.281 . S
O376 Mn360 2.297 . S
O376 C363 1.236 . S
N377 Mn361 2.282 . S
N377 C378 1.328 . S
N377 C382 1.318 . S
C378 N377 1.328 . S
C378 C379 1.457 . S
C378 H383 0.929 . S
C379 C378 1.457 . S
C379 C380 1.291 . S
C379 H392 0.931 . S
C380 C379 1.291 . S
C380 C381 1.373 . S
C380 H393 0.929 . S
C381 C380 1.373 . S
C381 C382 1.396 . S
C381 C388 1.403 . S
C382 C372 1.476 . S
C382 N377 1.318 . S
C382 C381 1.396 . S
H383 C378 0.929 . S
O384 Mn360 2.385 . S
O384 C362 1.234 . S
O385 Mn360 2.209 . S
O385 Mn361 2.215 . S
O385 C362 1.283 . S
O386 Mn360 2.094 . S
O386 C364 1.240 . S
O387 Mn361 2.117 . S
O387 C364 1.264 . S
C388 C381 1.403 . S
C388 C389 1.399 . S
C388 H394 0.929 . S
C389 C369 1.449 . S
C389 C388 1.399 . S
C389 H395 0.930 . S
H390 C370 0.931 . S
H391 C371 0.930 . S
H392 C379 0.931 . S
H393 C380 0.929 . S
H394 C388 0.929 . S
H395 C389 0.930 . S
Mn396 O401 2.095 . S
Mn396 O411 2.162 . S
Mn396 O412 2.297 . S
Mn396 O420 2.385 . S
Mn396 O421 2.209 . S
Mn396 O422 2.094 1_554 S
Mn397 O402 2.121 1_556 S
Mn397 N404 2.257 . S
Mn397 N413 2.282 . S
Mn397 O421 2.215 1_556 S
Mn397 O423 2.117 . S
C398 O420 1.234 . S
C398 O421 1.283 . S
C399 O411 1.281 . S
C399 O412 1.236 . S
C400 O422 1.240 . S
C400 O423 1.264 . S
O401 Mn396 2.095 . S
O401 C410 1.250 . S
O402 Mn397 2.121 1_554 S
O402 C410 1.258 . S
C403 N404 1.326 1_554 S
C403 C407 1.460 . S
C403 H409 0.929 . S
N404 Mn397 2.257 . S
N404 C403 1.326 1_556 S
N404 C408 1.362 . S
C405 C406 1.258 1_556 S
C405 C408 1.431 . S
C405 C425 1.449 . S
C406 C405 1.258 1_554 S
C406 C407 1.477 . S
C406 H426 0.931 . S
C407 C403 1.460 . S
C407 C406 1.477 . S
C407 H427 0.930 . S
C408 N404 1.362 . S
C408 C405 1.431 . S
C408 C418 1.476 . S
H409 C403 0.929 . S
C410 O401 1.250 . S
C410 O402 1.258 . S
O411 Mn396 2.162 . S
O411 C399 1.281 . S
O412 Mn396 2.297 . S
O412 C399 1.236 . S
N413 Mn397 2.282 . S
N413 C414 1.328 . S
N413 C418 1.318 . S
C414 N413 1.328 . S
C414 C415 1.457 . S
C414 H419 0.929 . S
C415 C414 1.457 . S
C415 C416 1.291 . S
C415 H428 0.931 . S
C416 C415 1.291 . S
C416 C417 1.373 . S
C416 H429 0.929 . S
C417 C416 1.373 . S
C417 C418 1.396 . S
C417 C424 1.403 . S
C418 C408 1.476 . S
C418 N413 1.318 . S
C418 C417 1.396 . S
H419 C414 0.929 . S
O420 Mn396 2.385 . S
O420 C398 1.234 . S
O421 Mn396 2.209 . S
O421 Mn397 2.215 1_554 S
O421 C398 1.283 . S
O422 Mn396 2.094 1_556 S
O422 C400 1.240 . S
O423 Mn397 2.117 . S
O423 C400 1.264 . S
C424 C417 1.403 . S
C424 C425 1.399 . S
C424 H430 0.929 . S
C425 C405 1.449 . S
C425 C424 1.399 . S
C425 H431 0.930 . S
H426 C406 0.931 . S
H427 C407 0.930 . S
H428 C415 0.931 . S
H429 C416 0.929 . S
H430 C424 0.929 . S
H431 C425 0.930 . S
C432 C433 1.387 . S
C432 H436 0.950 . S
C432 C441 1.390 . S
C433 C432 1.387 . S
C433 C435 1.387 . S
H434 C441 0.950 . S
C435 C433 1.387 . S
C435 C437 1.390 . S
C435 H439 0.950 . S
H436 C432 0.950 . S
C437 C435 1.390 . S
C437 C438 1.387 . S
C437 H440 0.950 . S
C438 C437 1.387 . S
C438 C441 1.387 . S
H439 C435 0.950 . S
H440 C437 0.950 . S
C441 C432 1.390 . S
C441 H434 0.950 . S
C441 C438 1.387 . S
C442 C443 1.387 . S
C442 H446 0.950 . S
C442 C451 1.390 . S
C443 C442 1.387 . S
C443 C445 1.387 . S
H444 C451 0.950 . S
C445 C443 1.387 . S
C445 C447 1.390 . S
C445 H449 0.950 . S
H446 C442 0.950 . S
C447 C445 1.390 . S
C447 C448 1.387 . S
C447 H450 0.950 . S
C448 C447 1.387 . S
C448 C451 1.387 . S
H449 C445 0.950 . S
H450 C447 0.950 . S
C451 C442 1.390 . S
C451 H444 0.950 . S
C451 C448 1.387 . S
C452 C453 1.387 . S
C452 H456 0.950 . S
C452 C461 1.390 . S
C453 C452 1.387 . S
C453 C455 1.387 . S
H454 C461 0.950 . S
C455 C453 1.387 . S
C455 C457 1.390 . S
C455 H459 0.950 . S
H456 C452 0.950 . S
C457 C455 1.390 . S
C457 C458 1.387 . S
C457 H460 0.950 . S
C458 C457 1.387 . S
C458 C461 1.387 . S
H459 C455 0.950 . S
H460 C457 0.950 . S
C461 C452 1.390 . S
C461 H454 0.950 . S
C461 C458 1.387 . S
C462 C463 1.387 . S
C462 H466 0.950 . S
C462 C471 1.390 . S
C463 C462 1.387 . S
C463 C465 1.387 . S
H464 C471 0.950 . S
C465 C463 1.387 . S
C465 C467 1.390 . S
C465 H469 0.950 . S
H466 C462 0.950 . S
C467 C465 1.390 . S
C467 C468 1.387 . S
C467 H470 0.950 . S
C468 C467 1.387 . S
C468 C471 1.387 . S
H469 C465 0.950 . S
H470 C467 0.950 . S
C471 C462 1.390 . S
C471 H464 0.950 . S
C471 C468 1.387 . S
C472 C473 1.387 . S
C472 H476 0.950 . S
C472 C481 1.390 . S
C473 C472 1.387 . S
C473 C475 1.387 . S
H474 C481 0.950 . S
C475 C473 1.387 . S
C475 C477 1.390 . S
C475 H479 0.950 . S
H476 C472 0.950 . S
C477 C475 1.390 . S
C477 C478 1.387 . S
C477 H480 0.950 . S
C478 C477 1.387 . S
C478 C481 1.387 . S
H479 C475 0.950 . S
H480 C477 0.950 . S
C481 C472 1.390 . S
C481 H474 0.950 . S
C481 C478 1.387 . S
C482 C483 1.387 . S
C482 H486 0.950 . S
C482 C491 1.390 . S
C483 C482 1.387 . S
C483 C485 1.387 . S
H484 C491 0.950 . S
C485 C483 1.387 . S
C485 C487 1.390 . S
C485 H489 0.950 . S
H486 C482 0.950 . S
C487 C485 1.390 . S
C487 C488 1.387 . S
C487 H490 0.950 . S
C488 C487 1.387 . S
C488 C491 1.387 . S
H489 C485 0.950 . S
H490 C487 0.950 . S
C491 C482 1.390 . S
C491 H484 0.950 . S
C491 C488 1.387 . S
C492 C493 1.387 . S
C492 H496 0.950 . S
C492 C501 1.390 . S
C493 C492 1.387 . S
C493 C495 1.387 . S
H494 C501 0.950 . S
C495 C493 1.387 . S
C495 C497 1.390 . S
C495 H499 0.950 . S
H496 C492 0.950 . S
C497 C495 1.390 . S
C497 C498 1.387 . S
C497 H500 0.950 . S
C498 C497 1.387 . S
C498 C501 1.387 . S
H499 C495 0.950 . S
H500 C497 0.950 . S
C501 C492 1.390 . S
C501 H494 0.950 . S
C501 C498 1.387 . S
C502 C503 1.387 . S
C502 H506 0.950 . S
C502 C511 1.390 . S
C503 C502 1.387 . S
C503 C505 1.387 . S
H504 C511 0.950 . S
C505 C503 1.387 . S
C505 C507 1.390 . S
C505 H509 0.950 . S
H506 C502 0.950 . S
C507 C505 1.390 . S
C507 C508 1.387 . S
C507 H510 0.950 . S
C508 C507 1.387 . S
C508 C511 1.387 . S
H509 C505 0.950 . S
H510 C507 0.950 . S
C511 C502 1.390 . S
C511 H504 0.950 . S
C511 C508 1.387 . S
C512 C513 1.387 . S
C512 H516 0.950 . S
C512 C521 1.390 1_554 S
C513 C512 1.387 . S
C513 C515 1.387 . S
H514 C521 0.950 . S
C515 C513 1.387 . S
C515 C517 1.390 1_554 S
C515 H519 0.950 . S
H516 C512 0.950 . S
C517 C515 1.390 1_556 S
C517 C518 1.387 . S
C517 H520 0.950 . S
C518 C517 1.387 . S
C518 C521 1.387 . S
H519 C515 0.950 . S
H520 C517 0.950 . S
C521 C512 1.390 1_556 S
C521 H514 0.950 . S
C521 C518 1.387 . S
C522 C523 1.387 . S
C522 H526 0.950 . S
C522 C531 1.390 . S
C523 C522 1.387 . S
C523 C525 1.387 . S
H524 C531 0.950 . S
C525 C523 1.387 . S
C525 C527 1.390 . S
C525 H529 0.950 . S
H526 C522 0.950 . S
C527 C525 1.390 . S
C527 C528 1.387 . S
C527 H530 0.950 . S
C528 C527 1.387 . S
C528 C531 1.387 . S
H529 C525 0.950 . S
H530 C527 0.950 . S
C531 C522 1.390 . S
C531 H524 0.950 . S
C531 C528 1.387 . S
C532 C533 1.387 . S
C532 H536 0.950 . S
C532 C541 1.390 . S
C533 C532 1.387 . S
C533 C535 1.387 . S
H534 C541 0.950 . S
C535 C533 1.387 . S
C535 C537 1.390 . S
C535 H539 0.950 . S
H536 C532 0.950 . S
C537 C535 1.390 . S
C537 C538 1.387 . S
C537 H540 0.950 . S
C538 C537 1.387 . S
C538 C541 1.387 . S
H539 C535 0.950 . S
H540 C537 0.950 . S
C541 C532 1.390 . S
C541 H534 0.950 . S
C541 C538 1.387 . S
C542 C543 1.387 . S
C542 H546 0.950 . S
C542 C551 1.390 1_556 S
C543 C542 1.387 . S
C543 C545 1.387 . S
H544 C551 0.950 . S
C545 C543 1.387 . S
C545 C547 1.390 1_556 S
C545 H549 0.950 . S
H546 C542 0.950 . S
C547 C545 1.390 1_554 S
C547 C548 1.387 . S
C547 H550 0.950 . S
C548 C547 1.387 . S
C548 C551 1.387 . S
H549 C545 0.950 . S
H550 C547 0.950 . S
C551 C542 1.390 1_554 S
C551 H544 0.950 . S
C551 C548 1.387 . S
C552 C553 1.387 . S
C552 H556 0.950 . S
C552 C561 1.390 1_545 S
C553 C552 1.387 . S
C553 C555 1.387 . S
H554 C561 0.950 . S
C555 C553 1.387 . S
C555 C557 1.390 1_545 S
C555 H559 0.950 . S
H556 C552 0.950 . S
C557 C555 1.390 1_565 S
C557 C558 1.387 . S
C557 H560 0.950 . S
C558 C557 1.387 . S
C558 C561 1.387 . S
H559 C555 0.950 . S
H560 C557 0.950 . S
C561 C552 1.390 1_565 S
C561 H554 0.950 . S
C561 C558 1.387 . S
C562 C563 1.387 . S
C562 H566 0.950 . S
C562 C571 1.390 . S
C563 C562 1.387 . S
C563 C565 1.387 . S
H564 C571 0.950 . S
C565 C563 1.387 . S
C565 C567 1.390 . S
C565 H569 0.950 . S
H566 C562 0.950 . S
C567 C565 1.390 . S
C567 C568 1.387 . S
C567 H570 0.950 . S
C568 C567 1.387 . S
C568 C571 1.387 . S
H569 C565 0.950 . S
H570 C567 0.950 . S
C571 C562 1.390 . S
C571 H564 0.950 . S
C571 C568 1.387 . S
C572 C573 1.387 1_554 S
C572 H576 0.950 . S
C572 C581 1.390 1_655 S
C573 C572 1.387 1_556 S
C573 C575 1.387 . S
H574 C581 0.950 . S
C575 C573 1.387 . S
C575 C577 1.390 1_655 S
C575 H579 0.950 . S
H576 C572 0.950 . S
C577 C575 1.390 1_455 S
C577 C578 1.387 . S
C577 H580 0.950 . S
C578 C577 1.387 . S
C578 C581 1.387 1_556 S
H579 C575 0.950 . S
H580 C577 0.950 . S
C581 C572 1.390 1_455 S
C581 H574 0.950 . S
C581 C578 1.387 1_554 S
C582 C583 1.387 . S
C582 H586 0.950 . S
C582 C591 1.390 1_455 S
C583 C582 1.387 . S
C583 C585 1.387 . S
H584 C591 0.950 . S
C585 C583 1.387 . S
C585 C587 1.390 1_455 S
C585 H589 0.950 . S
H586 C582 0.950 . S
C587 C585 1.390 1_655 S
C587 C588 1.387 . S
C587 H590 0.950 . S
C588 C587 1.387 . S
C588 C591 1.387 . S
H589 C585 0.950 . S
H590 C587 0.950 . S
C591 C582 1.390 1_655 S
C591 H584 0.950 . S
C591 C588 1.387 . S
C592 C593 1.387 . S
C592 H596 0.950 . S
C592 C601 1.390 1_545 S
C593 C592 1.387 . S
C593 C595 1.387 . S
H594 C601 0.950 . S
C595 C593 1.387 . S
C595 C597 1.390 1_545 S
C595 H599 0.950 . S
H596 C592 0.950 . S
C597 C595 1.390 1_565 S
C597 C598 1.387 . S
C597 H600 0.950 . S
C598 C597 1.387 . S
C598 C601 1.387 . S
H599 C595 0.950 . S
H600 C597 0.950 . S
C601 C592 1.390 1_565 S
C601 H594 0.950 . S
C601 C598 1.387 . S
C602 C603 1.387 1_556 S
C602 H606 0.950 . S
C602 C611 1.390 . S
C603 C602 1.387 1_554 S
C603 C605 1.387 . S
H604 C611 0.950 . S
C605 C603 1.387 . S
C605 C607 1.390 . S
C605 H609 0.950 . S
H606 C602 0.950 . S
C607 C605 1.390 . S
C607 C608 1.387 . S
C607 H610 0.950 . S
C608 C607 1.387 . S
C608 C611 1.387 1_554 S
H609 C605 0.950 . S
H610 C607 0.950 . S
C611 C602 1.390 . S
C611 H604 0.950 . S
C611 C608 1.387 1_556 S
C612 C613 1.387 . S
C612 H616 0.950 . S
C612 C621 1.390 . S
C613 C612 1.387 . S
C613 C615 1.387 . S
H614 C621 0.950 . S
C615 C613 1.387 . S
C615 C617 1.390 . S
C615 H619 0.950 . S
H616 C612 0.950 . S
C617 C615 1.390 . S
C617 C618 1.387 . S
C617 H620 0.950 . S
C618 C617 1.387 . S
C618 C621 1.387 . S
H619 C615 0.950 . S
H620 C617 0.950 . S
C621 C612 1.390 . S
C621 H614 0.950 . S
C621 C618 1.387 . S
C622 C623 1.387 . S
C622 H626 0.950 . S
C622 C631 1.390 . S
C623 C622 1.387 . S
C623 C625 1.387 . S
H624 C631 0.950 . S
C625 C623 1.387 . S
C625 C627 1.390 . S
C625 H629 0.950 . S
H626 C622 0.950 . S
C627 C625 1.390 . S
C627 C628 1.387 . S
C627 H630 0.950 . S
C628 C627 1.387 . S
C628 C631 1.387 . S
H629 C625 0.950 . S
H630 C627 0.950 . S
C631 C622 1.390 . S
C631 H624 0.950 . S
C631 C628 1.387 . S
C632 C633 1.387 . S
C632 H636 0.950 . S
C632 C641 1.390 . S
C633 C632 1.387 . S
C633 C635 1.387 . S
H634 C641 0.950 . S
C635 C633 1.387 . S
C635 C637 1.390 . S
C635 H639 0.950 . S
H636 C632 0.950 . S
C637 C635 1.390 . S
C637 C638 1.387 . S
C637 H640 0.950 . S
C638 C637 1.387 . S
C638 C641 1.387 . S
H639 C635 0.950 . S
H640 C637 0.950 . S
C641 C632 1.390 . S
C641 H634 0.950 . S
C641 C638 1.387 . S
C642 C643 1.387 . S
C642 H646 0.950 . S
C642 C651 1.390 . S
C643 C642 1.387 . S
C643 C645 1.387 . S
H644 C651 0.950 . S
C645 C643 1.387 . S
C645 C647 1.390 . S
C645 H649 0.950 . S
H646 C642 0.950 . S
C647 C645 1.390 . S
C647 C648 1.387 . S
C647 H650 0.950 . S
C648 C647 1.387 . S
C648 C651 1.387 . S
H649 C645 0.950 . S
H650 C647 0.950 . S
C651 C642 1.390 . S
C651 H644 0.950 . S
C651 C648 1.387 . S
C652 C653 1.387 . S
C652 H656 0.950 . S
C652 C661 1.390 . S
C653 C652 1.387 . S
C653 C655 1.387 . S
H654 C661 0.950 . S
C655 C653 1.387 . S
C655 C657 1.390 . S
C655 H659 0.950 . S
H656 C652 0.950 . S
C657 C655 1.390 . S
C657 C658 1.387 . S
C657 H660 0.950 . S
C658 C657 1.387 . S
C658 C661 1.387 . S
H659 C655 0.950 . S
H660 C657 0.950 . S
C661 C652 1.390 . S
C661 H654 0.950 . S
C661 C658 1.387 . S
C662 C663 1.387 . S
C662 H666 0.950 . S
C662 C671 1.390 . S
C663 C662 1.387 . S
C663 C665 1.387 . S
H664 C671 0.950 . S
C665 C663 1.387 . S
C665 C667 1.390 . S
C665 H669 0.950 . S
H666 C662 0.950 . S
C667 C665 1.390 . S
C667 C668 1.387 . S
C667 H670 0.950 . S
C668 C667 1.387 . S
C668 C671 1.387 . S
H669 C665 0.950 . S
H670 C667 0.950 . S
C671 C662 1.390 . S
C671 H664 0.950 . S
C671 C668 1.387 . S
C433 C4 1.668 . S
C438 C364 1.668 . S
C443 C40 1.665 . S
C448 C400 1.666 . S
C453 C220 1.666 . S
C458 C76 1.666 . S
C463 C112 1.668 . S
C468 C256 1.668 . S
C473 C292 1.668 . S
C478 C148 1.668 . S
C483 C328 1.668 . S
C488 C184 1.668 . S
C493 C218 0.743 . S
C498 C2 0.745 . S
C503 C254 0.746 . S
C508 C38 0.750 . S
C513 C290 0.750 . S
C518 C74 0.750 . S
C523 C110 0.750 . S
C528 C326 0.750 . S
C533 C146 0.745 . S
C538 C362 0.743 . S
C543 C182 0.750 . S
C548 C398 0.750 . S
C553 C14 1.289 . S
C558 C122 1.289 . S
C563 C50 1.291 . S
C568 C158 1.291 . S
C573 C86 1.289 . S
C578 C194 1.289 . S
C583 C338 1.291 . S
C588 C230 1.291 . S
C593 C374 1.289 . S
C598 C266 1.289 . S
C603 C410 1.289 . S
C608 C302 1.289 . S
C613 C3 1.598 . S
C618 C291 1.599 . S
C623 C327 1.598 . S
C628 C39 1.598 . S
C633 C75 1.598 . S
C638 C363 1.599 . S
C643 C399 1.598 . S
C648 C111 1.598 . S
C653 C147 1.598 . S
C658 C219 1.598 . S
C663 C183 1.599 . S
C668 C255 1.597 . S
