# Generated by pormake.
# Topology swd, (7)-cn, num edge types: 1
# Building blocks:
#     Node 0, Type 0, BuildingBlock: HICVOG_clean_sbu_0, # of connection points: 7
#     Node 1, Type 0, BuildingBlock: HICVOG_clean_sbu_0, # of connection points: 7
#     Node 2, Type 0, BuildingBlock: HICVOG_clean_sbu_0, # of connection points: 7
#     Node 3, Type 0, BuildingBlock: HICVOG_clean_sbu_0, # of connection points: 7
#     Node 4, Type 0, BuildingBlock: HICVOG_clean_sbu_0, # of connection points: 7
#     Node 5, Type 0, BuildingBlock: HICVOG_clean_sbu_0, # of connection points: 7
#     Node 6, Type 0, BuildingBlock: HICVOG_clean_sbu_0, # of connection points: 7
#     Node 7, Type 0, BuildingBlock: HICVOG_clean_sbu_0, # of connection points: 7
#     Node 8, Type 0, BuildingBlock: HICVOG_clean_sbu_0, # of connection points: 7
#     Node 9, Type 0, BuildingBlock: HICVOG_clean_sbu_0, # of connection points: 7
#     Node 10, Type 0, BuildingBlock: HICVOG_clean_sbu_0, # of connection points: 7
#     Node 11, Type 0, BuildingBlock: HICVOG_clean_sbu_0, # of connection points: 7
#     Node 12, Type 0, BuildingBlock: HICVOG_clean_sbu_0, # of connection points: 7
#     Node 13, Type 0, BuildingBlock: HICVOG_clean_sbu_0, # of connection points: 7
#     Node 14, Type 0, BuildingBlock: HICVOG_clean_sbu_0, # of connection points: 7
#     Node 15, Type 0, BuildingBlock: HICVOG_clean_sbu_0, # of connection points: 7
#     Node 16, Type 0, BuildingBlock: HICVOG_clean_sbu_0, # of connection points: 7
#     Node 17, Type 0, BuildingBlock: HICVOG_clean_sbu_0, # of connection points: 7
#     Edge 18, Type (0, 0), BuildingBlock: CIFDUS_clean_linker_0, # of connection points: 2
#     Edge 19, Type (0, 0), BuildingBlock: CIFDUS_clean_linker_0, # of connection points: 2
#     Edge 20, Type (0, 0), BuildingBlock: CIFDUS_clean_linker_0, # of connection points: 2
#     Edge 21, Type (0, 0), BuildingBlock: CIFDUS_clean_linker_0, # of connection points: 2
#     Edge 22, Type (0, 0), BuildingBlock: CIFDUS_clean_linker_0, # of connection points: 2
#     Edge 23, Type (0, 0), BuildingBlock: CIFDUS_clean_linker_0, # of connection points: 2
#     Edge 24, Type (0, 0), BuildingBlock: CIFDUS_clean_linker_0, # of connection points: 2
#     Edge 25, Type (0, 0), BuildingBlock: CIFDUS_clean_linker_0, # of connection points: 2
#     Edge 26, Type (0, 0), BuildingBlock: CIFDUS_clean_linker_0, # of connection points: 2
#     Edge 27, Type (0, 0), BuildingBlock: CIFDUS_clean_linker_0, # of connection points: 2
#     Edge 28, Type (0, 0), BuildingBlock: CIFDUS_clean_linker_0, # of connection points: 2
#     Edge 29, Type (0, 0), BuildingBlock: CIFDUS_clean_linker_0, # of connection points: 2
#     Edge 30, Type (0, 0), BuildingBlock: CIFDUS_clean_linker_0, # of connection points: 2
#     Edge 31, Type (0, 0), BuildingBlock: CIFDUS_clean_linker_0, # of connection points: 2
#     Edge 32, Type (0, 0), BuildingBlock: CIFDUS_clean_linker_0, # of connection points: 2
#     Edge 33, Type (0, 0), BuildingBlock: CIFDUS_clean_linker_0, # of connection points: 2
#     Edge 34, Type (0, 0), BuildingBlock: CIFDUS_clean_linker_0, # of connection points: 2
#     Edge 35, Type (0, 0), BuildingBlock: CIFDUS_clean_linker_0, # of connection points: 2
#     Edge 36, Type (0, 0), BuildingBlock: CIFDUS_clean_linker_0, # of connection points: 2
#     Edge 37, Type (0, 0), BuildingBlock: CIFDUS_clean_linker_0, # of connection points: 2
#     Edge 38, Type (0, 0), BuildingBlock: CIFDUS_clean_linker_0, # of connection points: 2
#     Edge 39, Type (0, 0), BuildingBlock: CIFDUS_clean_linker_0, # of connection points: 2
#     Edge 40, Type (0, 0), BuildingBlock: CIFDUS_clean_linker_0, # of connection points: 2
#     Edge 41, Type (0, 0), BuildingBlock: CIFDUS_clean_linker_0, # of connection points: 2
#     Edge 42, Type (0, 0), BuildingBlock: CIFDUS_clean_linker_0, # of connection points: 2
#     Edge 43, Type (0, 0), BuildingBlock: CIFDUS_clean_linker_0, # of connection points: 2
#     Edge 44, Type (0, 0), BuildingBlock: CIFDUS_clean_linker_0, # of connection points: 2
#     Edge 45, Type (0, 0), BuildingBlock: CIFDUS_clean_linker_0, # of connection points: 2
#     Edge 46, Type (0, 0), BuildingBlock: CIFDUS_clean_linker_0, # of connection points: 2
#     Edge 47, Type (0, 0), BuildingBlock: CIFDUS_clean_linker_0, # of connection points: 2
#     Edge 48, Type (0, 0), BuildingBlock: CIFDUS_clean_linker_0, # of connection points: 2
#     Edge 49, Type (0, 0), BuildingBlock: CIFDUS_clean_linker_0, # of connection points: 2
#     Edge 50, Type (0, 0), BuildingBlock: CIFDUS_clean_linker_0, # of connection points: 2
#     Edge 51, Type (0, 0), BuildingBlock: CIFDUS_clean_linker_0, # of connection points: 2
#     Edge 52, Type (0, 0), BuildingBlock: CIFDUS_clean_linker_0, # of connection points: 2
#     Edge 53, Type (0, 0), BuildingBlock: CIFDUS_clean_linker_0, # of connection points: 2
#     Edge 54, Type (0, 0), BuildingBlock: CIFDUS_clean_linker_0, # of connection points: 2
#     Edge 55, Type (0, 0), BuildingBlock: CIFDUS_clean_linker_0, # of connection points: 2
#     Edge 56, Type (0, 0), BuildingBlock: CIFDUS_clean_linker_0, # of connection points: 2
#     Edge 57, Type (0, 0), BuildingBlock: CIFDUS_clean_linker_0, # of connection points: 2
#     Edge 58, Type (0, 0), BuildingBlock: CIFDUS_clean_linker_0, # of connection points: 2
#     Edge 59, Type (0, 0), BuildingBlock: CIFDUS_clean_linker_0, # of connection points: 2
#     Edge 60, Type (0, 0), BuildingBlock: CIFDUS_clean_linker_0, # of connection points: 2
#     Edge 61, Type (0, 0), BuildingBlock: CIFDUS_clean_linker_0, # of connection points: 2
#     Edge 62, Type (0, 0), BuildingBlock: CIFDUS_clean_linker_0, # of connection points: 2
#     Edge 63, Type (0, 0), BuildingBlock: CIFDUS_clean_linker_0, # of connection points: 2
#     Edge 64, Type (0, 0), BuildingBlock: CIFDUS_clean_linker_0, # of connection points: 2
#     Edge 65, Type (0, 0), BuildingBlock: CIFDUS_clean_linker_0, # of connection points: 2
#     Edge 66, Type (0, 0), BuildingBlock: CIFDUS_clean_linker_0, # of connection points: 2
#     Edge 67, Type (0, 0), BuildingBlock: CIFDUS_clean_linker_0, # of connection points: 2
#     Edge 68, Type (0, 0), BuildingBlock: CIFDUS_clean_linker_0, # of connection points: 2
#     Edge 69, Type (0, 0), BuildingBlock: CIFDUS_clean_linker_0, # of connection points: 2
#     Edge 70, Type (0, 0), BuildingBlock: CIFDUS_clean_linker_0, # of connection points: 2
#     Edge 71, Type (0, 0), BuildingBlock: CIFDUS_clean_linker_0, # of connection points: 2
#     Edge 72, Type (0, 0), BuildingBlock: CIFDUS_clean_linker_0, # of connection points: 2
#     Edge 73, Type (0, 0), BuildingBlock: CIFDUS_clean_linker_0, # of connection points: 2
#     Edge 74, Type (0, 0), BuildingBlock: CIFDUS_clean_linker_0, # of connection points: 2
#     Edge 75, Type (0, 0), BuildingBlock: CIFDUS_clean_linker_0, # of connection points: 2
#     Edge 76, Type (0, 0), BuildingBlock: CIFDUS_clean_linker_0, # of connection points: 2
#     Edge 77, Type (0, 0), BuildingBlock: CIFDUS_clean_linker_0, # of connection points: 2
#     Edge 78, Type (0, 0), BuildingBlock: CIFDUS_clean_linker_0, # of connection points: 2
#     Edge 79, Type (0, 0), BuildingBlock: CIFDUS_clean_linker_0, # of connection points: 2
#     Edge 80, Type (0, 0), BuildingBlock: CIFDUS_clean_linker_0, # of connection points: 2
# Relax obj value: 0.443
# Max RMSD: 0.313
# Mean RMSD: 0.311
data_MOF--net-swd--node1-HICVOG_clean_sbu_0--edge1-CIFDUS_clean_linker_0
_symmetry_space_group_name_H-M    P1
_symmetry_Int_Tables_number       1
_symmetry_cell_setting            triclinic
loop_
_symmetry_equiv_pos_as_xyz
'x, y, z'
_cell_length_a     44.71881
_cell_length_b     44.798496
_cell_length_c     29.537159
_cell_angle_alpha  90.072949
_cell_angle_beta   90.214348
_cell_angle_gamma 120.09832
loop_
_atom_site_label
_atom_site_type_symbol
_atom_site_fract_x
_atom_site_fract_y
_atom_site_fract_z
_atom_type_partial_charge
Zn0 Zn 0.21756 0.15527 0.34229 0.0
C1 C 0.20434 0.08374 0.43782 0.0
N2 N 0.19715 0.10353 0.46381 0.0
C3 C 0.20393 0.13039 0.43746 0.0
N4 N 0.21527 0.12801 0.39612 0.0
N5 N 0.2161 0.09869 0.39663 0.0
C6 C 0.19575 0.02754 0.29956 0.0
O7 O 0.20627 0.05147 0.26827 0.0
O8 O 0.23945 0.20763 0.35153 0.0
Zn9 Zn 0.24142 0.08635 0.35627 0.0
N10 N 0.17153 0.13404 0.31654 0.0
C11 C 0.12976 0.0843 0.27656 0.0
C12 C 0.16158 0.10257 0.29826 0.0
C13 C 0.15053 0.14799 0.31478 0.0
N14 N 0.10902 0.09824 0.27407 0.0
C15 C 0.11823 0.12958 0.29259 0.0
O16 O 0.2609 0.11356 0.29868 0.0
C17 C 0.26256 0.13903 0.27766 0.0
O18 O 0.24745 0.15458 0.29243 0.0
H19 H 0.17859 0.09196 0.30028 0.0
H20 H 0.15919 0.1732 0.32942 0.0
C21 C 0.30715 0.09303 0.37087 0.0
C22 C 0.33904 0.10487 0.39264 0.0
C23 C 0.3205 0.12567 0.4536 0.0
C24 C 0.28918 0.11473 0.43137 0.0
N25 N 0.28272 0.09782 0.39087 0.0
N26 N 0.34473 0.12037 0.43385 0.0
H27 H 0.30165 0.0802 0.33828 0.0
C28 C 0.2723 0.22294 0.3552 0.0
O29 O 0.28703 0.20394 0.35782 0.0
O30 O 0.2092 0.03577 0.33886 0.0
H31 H 0.27089 0.12071 0.44622 0.0
H32 H 0.12162 0.0593 0.2616 0.0
H33 H 0.32573 0.13873 0.48596 0.0
Zn34 Zn 0.90534 0.1618 0.37155 0.0
C35 C 0.85229 0.08453 0.45654 0.0
N36 N 0.87826 0.10347 0.48533 0.0
C37 C 0.90187 0.12862 0.45927 0.0
N38 N 0.89017 0.12513 0.41561 0.0
N39 N 0.85935 0.09667 0.41397 0.0
C40 C 0.76464 0.053 0.38091 0.0
O41 O 0.78139 0.08595 0.3916 0.0
O42 O 0.95572 0.17722 0.35758 0.0
Zn43 Zn 0.83389 0.07216 0.35931 0.0
N44 N 0.89758 0.19447 0.40456 0.0
C45 C 0.86764 0.20656 0.46189 0.0
C46 C 0.87417 0.18327 0.43895 0.0
C47 C 0.91344 0.22766 0.39099 0.0
N48 N 0.88341 0.23984 0.4481 0.0
C49 C 0.90567 0.25078 0.41265 0.0
O50 O 0.83368 0.10245 0.3108 0.0
C51 C 0.85057 0.13211 0.29326 0.0
O52 O 0.87848 0.15545 0.31149 0.0
H53 H 0.8601 0.15643 0.44831 0.0
H54 H 0.93143 0.23561 0.36308 0.0
C55 C 0.84489 0.01576 0.32789 0.0
C56 C 0.8658 0.0042 0.30775 0.0
C57 C 0.91106 0.06236 0.30039 0.0
C58 C 0.89045 0.07361 0.32061 0.0
N59 N 0.85785 0.05031 0.33367 0.0
N60 N 0.89829 0.02807 0.29442 0.0
H61 H 0.81871 0.99773 0.3382 0.0
C62 C 0.96648 0.17163 0.32053 0.0
O63 O 0.94504 0.15891 0.28603 0.0
O64 O 0.78197 0.03926 0.36749 0.0
H65 H 0.90014 0.10081 0.32582 0.0
H66 H 0.84952 0.19809 0.48964 0.0
H67 H 0.93703 0.08068 0.2896 0.0
Zn68 Zn 0.9262 0.76692 0.34603 0.0
C69 C 0.88917 0.80708 0.43609 0.0
N70 N 0.91102 0.80555 0.46565 0.0
C71 C 0.92324 0.78808 0.44263 0.0
N72 N 0.9099 0.77963 0.40024 0.0
N73 N 0.88722 0.79033 0.39708 0.0
C74 C 0.83236 0.81389 0.32858 0.0
O75 O 0.85226 0.8107 0.29867 0.0
O76 O 0.95452 0.74338 0.35799 0.0
Zn77 Zn 0.84326 0.76319 0.36795 0.0
N78 N 0.95521 0.80984 0.31397 0.0
C79 C 0.95669 0.8487 0.258 0.0
C80 C 0.93842 0.81855 0.28292 0.0
C81 C 0.98981 0.83059 0.32167 0.0
N82 N 0.99103 0.86935 0.26562 0.0
C83 C 0.00837 0.86147 0.297 0.0
O84 O 0.8412 0.74081 0.30647 0.0
C85 C 0.85873 0.72963 0.28605 0.0
O86 O 0.88848 0.73679 0.30046 0.0
H87 H 0.91096 0.80215 0.27755 0.0
H88 H 0.00272 0.82302 0.34615 0.0
C89 C 0.78918 0.69742 0.38923 0.0
C90 C 0.77057 0.66687 0.41388 0.0
C91 C 0.80897 0.69229 0.47566 0.0
C92 C 0.82796 0.72234 0.45053 0.0
N93 N 0.81727 0.72459 0.40805 0.0
N94 N 0.78055 0.66523 0.4569 0.0
H95 H 0.78146 0.6998 0.35526 0.0
C96 C 0.94758 0.71556 0.3376 0.0
O97 O 0.92009 0.70043 0.31148 0.0
O98 O 0.82215 0.79372 0.36241 0.0
H99 H 0.85121 0.74312 0.46488 0.0
H100 H 0.94364 0.85582 0.23302 0.0
H101 H 0.81696 0.69036 0.50963 0.0
Zn102 Zn 0.15452 0.22449 0.67788 0.0
C103 C 0.0844 0.22002 0.58642 0.0
N104 N 0.10612 0.21839 0.55682 0.0
C105 C 0.13275 0.22291 0.58322 0.0
N106 N 0.12769 0.22701 0.627 0.0
N107 N 0.09718 0.22487 0.62905 0.0
C108 C 0.02958 0.19865 0.73034 0.0
O109 O 0.05583 0.21139 0.7587 0.0
O110 O 0.20586 0.24266 0.66339 0.0
Zn111 Zn 0.08332 0.24649 0.67212 0.0
N112 N 0.13116 0.17692 0.69868 0.0
C113 C 0.07833 0.13327 0.72999 0.0
C114 C 0.09869 0.1665 0.71348 0.0
C115 C 0.14415 0.15502 0.69889 0.0
N116 N 0.09129 0.11167 0.73114 0.0
C117 C 0.12363 0.12127 0.71604 0.0
O118 O 0.11523 0.26799 0.72619 0.0
C119 C 0.14193 0.27054 0.74552 0.0
O120 O 0.15724 0.25524 0.72999 0.0
H121 H 0.08883 0.18411 0.71244 0.0
H122 H 0.17009 0.16392 0.68686 0.0
C123 C 0.06368 0.28965 0.62136 0.0
C124 C 0.07124 0.31591 0.58968 0.0
C125 C 0.12931 0.32825 0.5866 0.0
C126 C 0.12206 0.30322 0.6192 0.0
N127 N 0.08943 0.28436 0.63573 0.0
N128 N 0.10394 0.33442 0.57315 0.0
H129 H 0.03816 0.27439 0.63569 0.0
C130 C 0.22281 0.27416 0.65131 0.0
O131 O 0.20564 0.29044 0.64399 0.0
O132 O 0.03403 0.21194 0.69111 0.0
H133 H 0.14202 0.29796 0.63033 0.0
H134 H 0.05246 0.12472 0.74206 0.0
H135 H 0.15503 0.34314 0.57273 0.0
Zn136 Zn 0.76396 0.84407 0.65809 0.0
C137 C 0.78941 0.92978 0.59257 0.0
N138 N 0.80334 0.91763 0.56286 0.0
C139 C 0.80247 0.89107 0.58447 0.0
N140 N 0.78803 0.88707 0.62633 0.0
N141 N 0.78106 0.9124 0.63201 0.0
C142 C 0.71429 0.94191 0.68965 0.0
O143 O 0.69601 0.90844 0.69605 0.0
O144 O 0.79887 0.82897 0.67375 0.0
Zn145 Zn 0.77112 0.92768 0.69013 0.0
N146 N 0.72776 0.81501 0.61541 0.0
C147 C 0.6942 0.80553 0.54825 0.0
C148 C 0.7213 0.82757 0.57679 0.0
C149 C 0.70723 0.78181 0.6274 0.0
N150 N 0.6733 0.77225 0.56068 0.0
C151 C 0.67887 0.76015 0.60007 0.0
O152 O 0.74055 0.8897 0.73352 0.0
C153 C 0.72978 0.85808 0.74157 0.0
O154 O 0.73801 0.84043 0.7162 0.0
H155 H 0.73641 0.85444 0.5681 0.0
H156 H 0.71251 0.77278 0.65877 0.0
C157 C 0.83448 0.99038 0.71963 0.0
C158 C 0.86803 0.00764 0.73832 0.0
C159 C 0.86029 0.95372 0.7628 0.0
C160 C 0.8278 0.93671 0.7423 0.0
N161 N 0.8155 0.95521 0.72091 0.0
N162 N 0.87974 0.98859 0.75988 0.0
H163 H 0.82379 0.00488 0.70446 0.0
C164 C 0.81255 0.8332 0.71271 0.0
O165 O 0.80133 0.84446 0.74592 0.0
O166 O 0.74678 0.95587 0.68391 0.0
H167 H 0.81248 0.90889 0.74301 0.0
H168 H 0.68916 0.81507 0.5172 0.0
H169 H 0.87034 0.93926 0.77999 0.0
Zn170 Zn 0.15899 0.90726 0.64288 0.0
C171 C 0.09106 0.8486 0.55113 0.0
N172 N 0.10908 0.87745 0.52641 0.0
C173 C 0.12768 0.9012 0.55773 0.0
N174 N 0.12155 0.88765 0.59972 0.0
N175 N 0.09788 0.8546 0.59603 0.0
C176 C 0.05208 0.75659 0.65313 0.0
O177 O 0.08491 0.76976 0.66354 0.0
O178 O 0.17258 0.95799 0.65178 0.0
Zn179 Zn 0.0736 0.82872 0.64976 0.0
N180 N 0.19439 0.90238 0.61199 0.0
C181 C 0.212 0.87551 0.55665 0.0
C182 C 0.18657 0.88066 0.57585 0.0
C183 C 0.22628 0.91781 0.63082 0.0
N184 N 0.24383 0.89071 0.57582 0.0
C185 C 0.25146 0.91122 0.61302 0.0
O186 O 0.10538 0.83275 0.70108 0.0
C187 C 0.13377 0.85337 0.72069 0.0
O188 O 0.15437 0.88289 0.70389 0.0
H189 H 0.16075 0.86644 0.56246 0.0
H190 H 0.23147 0.93432 0.66006 0.0
C191 C 0.01359 0.83606 0.67089 0.0
C192 C -0.00152 0.85396 0.69057 0.0
C193 C 0.05424 0.8992 0.71197 0.0
C194 C 0.06905 0.88146 0.69245 0.0
N195 N 0.04858 0.85023 0.67276 0.0
N196 N 0.01942 0.88503 0.71074 0.0
H197 H -0.00216 0.81106 0.65516 0.0
C198 C 0.16556 0.9687 0.68795 0.0
O199 O 0.15279 0.9475 0.72239 0.0
O200 O 0.04112 0.77687 0.642 0.0
H201 H 0.09672 0.89228 0.69315 0.0
H202 H 0.20619 0.85868 0.52764 0.0
H203 H 0.07025 0.92401 0.72803 0.0
Zn204 Zn 0.89385 0.48871 0.69118 0.0
C205 C 0.87326 0.41581 0.786 0.0
N206 N 0.87831 0.44058 0.81556 0.0
C207 C 0.8895 0.46872 0.78955 0.0
N208 N 0.89062 0.46167 0.74524 0.0
N209 N 0.88167 0.42862 0.74331 0.0
C210 C 0.84592 0.34474 0.64305 0.0
O211 O 0.86802 0.36003 0.61006 0.0
O212 O 0.91634 0.54028 0.70173 0.0
Zn213 Zn 0.89189 0.40754 0.69324 0.0
N214 N 0.84711 0.4694 0.66691 0.0
C215 C 0.80179 0.42032 0.62962 0.0
C216 C 0.83447 0.43722 0.64931 0.0
C217 C 0.82767 0.48517 0.66685 0.0
N218 N 0.78273 0.43613 0.62862 0.0
C219 C 0.79446 0.46804 0.64688 0.0
O220 O 0.9094 0.43235 0.63303 0.0
C221 C 0.92529 0.46326 0.61885 0.0
O222 O 0.9241 0.48715 0.64066 0.0
H223 H 0.84978 0.42477 0.65056 0.0
H224 H 0.83807 0.51073 0.68123 0.0
C225 C 0.94838 0.39892 0.67912 0.0
C226 C 0.98232 0.40628 0.68545 0.0
C227 C 0.98306 0.42837 0.75856 0.0
C228 C 0.94954 0.42197 0.75164 0.0
N229 N 0.93289 0.40734 0.71199 0.0
N230 N -0.00115 0.42073 0.72514 0.0
H231 H 0.93503 0.38855 0.64732 0.0
C232 C 0.94816 0.55549 0.71264 0.0
O233 O 0.96236 0.53662 0.72175 0.0
O234 O 0.85114 0.36 0.68096 0.0
H235 H 0.9378 0.43006 0.77697 0.0
H236 H 0.79161 0.39482 0.61517 0.0
H237 H 0.99677 0.44017 0.78969 0.0
Zn238 Zn 0.57583 0.49658 0.7155 0.0
C239 C 0.51221 0.42813 0.80183 0.0
N240 N 0.53666 0.45 0.831 0.0
C241 C 0.56299 0.47054 0.8044 0.0
N242 N 0.55449 0.4623 0.76034 0.0
N243 N 0.5226 0.4355 0.75836 0.0
C244 C 0.42839 0.37838 0.69072 0.0
O245 O 0.43997 0.41019 0.67705 0.0
O246 O 0.62687 0.5099 0.71119 0.0
Zn247 Zn 0.50226 0.40736 0.70281 0.0
N248 N 0.56603 0.53133 0.738 0.0
C249 C 0.52982 0.54577 0.78081 0.0
C250 C 0.53837 0.52156 0.76587 0.0
C251 C 0.58405 0.56397 0.72235 0.0
N252 N 0.54783 0.57844 0.76506 0.0
C253 C 0.57427 0.58793 0.73549 0.0
O254 O 0.50562 0.43665 0.64799 0.0
C255 C 0.52744 0.46589 0.63175 0.0
O256 O 0.55414 0.48711 0.65389 0.0
H257 H 0.52229 0.4951 0.77586 0.0
H258 H 0.60515 0.57077 0.69908 0.0
C259 C 0.51889 0.35235 0.68123 0.0
C260 C 0.54281 0.34212 0.66812 0.0
C261 C 0.58785 0.40078 0.67095 0.0
C262 C 0.56418 0.41075 0.68316 0.0
N263 N 0.5303 0.38663 0.68805 0.0
N264 N 0.57662 0.36694 0.66351 0.0
H265 H 0.49168 0.33366 0.68463 0.0
C266 C 0.64012 0.50584 0.67528 0.0
O267 O 0.62141 0.4959 0.63805 0.0
O268 O 0.45011 0.37031 0.70629 0.0
H269 H 0.57264 0.43771 0.68824 0.0
H270 H 0.50833 0.53841 0.80352 0.0
H271 H 0.61489 0.4198 0.66686 0.0
Zn272 Zn 0.58259 0.08216 0.6931 0.0
C273 C 0.55207 0.13019 0.78006 0.0
N274 N 0.57183 0.12632 0.81084 0.0
C275 C 0.58284 0.10753 0.78825 0.0
N276 N 0.57065 0.10048 0.7453 0.0
N277 N 0.5502 0.11373 0.74096 0.0
C278 C 0.50656 0.14909 0.67003 0.0
O279 O 0.52984 0.14771 0.64447 0.0
O280 O 0.6106 0.05893 0.70675 0.0
Zn281 Zn 0.50715 0.0908 0.7092 0.0
N282 N 0.60975 0.12061 0.65268 0.0
C283 C 0.61497 0.14736 0.58128 0.0
C284 C 0.59617 0.12057 0.61138 0.0
C285 C 0.64157 0.14676 0.66518 0.0
N286 N 0.64671 0.17323 0.59358 0.0
C287 C 0.66079 0.17393 0.63481 0.0
O288 O 0.50373 0.06488 0.64994 0.0
C289 C 0.51544 0.04541 0.63725 0.0
O290 O 0.54186 0.04703 0.65612 0.0
H291 H 0.57103 0.09986 0.60153 0.0
H292 H 0.65191 0.14597 0.69797 0.0
C293 C 0.44422 0.03471 0.73493 0.0
C294 C 0.42108 0.00564 0.75975 0.0
C295 C 0.46355 0.02006 0.81649 0.0
C296 C 0.48707 0.04791 0.79049 0.0
N297 N 0.47669 0.05511 0.75053 0.0
N298 N 0.43106 -0.00068 0.80043 0.0
H299 H 0.43697 0.04083 0.70273 0.0
C300 C 0.59565 0.02762 0.71934 0.0
O301 O 0.56228 0.01163 0.72736 0.0
O302 O 0.49118 0.12576 0.6997 0.0
H303 H 0.51325 0.06315 0.8023 0.0
H304 H 0.60448 0.14757 0.5483 0.0
H305 H 0.47133 0.01443 0.8486 0.0
Zn306 Zn 0.75068 0.57241 0.99315 0.0
C307 C 0.79889 0.54871 0.90152 0.0
N308 N 0.7674 0.53381 0.88205 0.0
C309 C 0.74727 0.53345 0.91553 0.0
N310 N 0.76567 0.54831 0.95361 0.0
N311 N 0.79822 0.55701 0.94559 0.0
C312 C 0.90312 0.62342 0.98707 0.0
O313 O 0.88926 0.64227 0.99788 0.0
O314 O 0.69988 0.53774 1.00883 0.0
Zn315 Zn 0.83156 0.56884 0.99566 0.0
N316 N 0.75809 0.61172 0.95701 0.0
C317 C 0.78087 0.64786 0.89208 0.0
C318 C 0.77042 0.61665 0.91384 0.0
C319 C 0.75747 0.63764 0.97977 0.0
N320 N 0.78013 0.67369 0.91491 0.0
C321 C 0.76933 0.66963 0.95858 0.0
O322 O 0.82978 0.60058 0.04345 0.0
C323 C 0.80952 0.60811 0.06422 0.0
O324 O 0.7783 0.5959 0.05123 0.0
H325 H 0.77364 0.59746 0.89645 0.0
H326 H 0.74836 0.63335 0.01435 0.0
C327 C 0.82924 0.50402 0.01878 0.0
C328 C 0.81671 0.4734 0.04402 0.0
C329 C 0.78162 0.48907 0.08645 0.0
C330 C 0.79375 0.51901 0.06107 0.0
N331 N 0.81737 0.5261 0.02795 0.0
N332 N 0.7933 0.46706 0.07734 0.0
H333 H 0.84836 0.51038 0.99272 0.0
C334 C 0.69551 0.52043 0.04488 0.0
O335 O 0.72243 0.5294 0.07123 0.0
O336 O 0.88324 0.59122 0.98009 0.0
H337 H 0.78441 0.53656 0.06775 0.0
H338 H 0.79034 0.65185 0.8577 0.0
H339 H 0.76289 0.48322 0.11299 0.0
Zn340 Zn 0.42665 0.25444 1.00112 0.0
C341 C 0.44292 0.20488 0.89734 0.0
N342 N 0.44533 0.2319 0.87478 0.0
C343 C 0.43477 0.24681 0.90531 0.0
N344 N 0.4272 0.23067 0.94526 0.0
N345 N 0.43105 0.20342 0.94 0.0
C346 C 0.46069 0.15399 0.03267 0.0
O347 O 0.44707 0.16282 0.06571 0.0
O348 O 0.40795 0.28796 0.99173 0.0
Zn349 Zn 0.41174 0.16434 0.97892 0.0
N350 N 0.47388 0.28071 0.02439 0.0
C351 C 0.51989 0.27674 0.05871 0.0
C352 C 0.4864 0.26103 0.04152 0.0
C353 C 0.49374 0.31593 0.02361 0.0
N354 N 0.53979 0.31161 0.05753 0.0
C355 C 0.52807 0.33208 0.04025 0.0
O356 O 0.39236 0.17035 0.03785 0.0
C357 C 0.38671 0.19052 0.06198 0.0
O358 O 0.39754 0.22162 0.05044 0.0
H359 H 0.47032 0.23323 0.04169 0.0
H360 H 0.48296 0.33093 1.01 0.0
C361 C 0.34505 0.10622 0.97376 0.0
C362 C 0.31185 0.08487 0.95575 0.0
C363 C 0.33079 0.11244 0.88484 0.0
C364 C 0.36345 0.13404 0.90315 0.0
N365 N 0.37016 0.13034 0.94725 0.0
N366 N 0.30577 0.08831 0.91145 0.0
H367 H 0.35115 0.10398 1.00862 0.0
C368 C 0.37657 0.27802 1.00162 0.0
O369 O 0.35635 0.24569 1.01339 0.0
O370 O 0.44853 0.15096 0.99286 0.0
H371 H 0.38264 0.15393 0.8822 0.0
H372 H 0.53016 0.26135 0.07257 0.0
H373 H 0.32524 0.11505 0.84986 0.0
Zn374 Zn 0.72992 0.15787 1.00059 0.0
C375 C 0.77332 0.23027 0.90374 0.0
N376 N 0.75637 0.20459 0.87401 0.0
C377 C 0.7426 0.17638 0.9006 0.0
N378 N 0.75024 0.18444 0.94493 0.0
N379 N 0.77078 0.21835 0.9463 0.0
C380 C 0.83064 0.30372 0.03681 0.0
O381 O 0.8329 0.28563 0.07023 0.0
O382 O 0.70221 0.10552 0.99284 0.0
Zn383 Zn 0.81036 0.24112 0.98497 0.0
N384 N 0.70092 0.1746 0.02625 0.0
C385 C 0.70019 0.21631 0.07548 0.0
C386 C 0.71799 0.20213 0.05447 0.0
C387 C 0.6665 0.16103 0.01726 0.0
N388 N 0.66599 0.20272 0.06695 0.0
C389 C 0.6484 0.17554 0.0382 0.0
O390 O 0.81011 0.21781 0.04384 0.0
C391 C 0.79391 0.18927 0.06472 0.0
O392 O 0.76514 0.16493 0.04989 0.0
H393 H 0.74533 0.21303 0.06063 0.0
H394 H 0.65333 0.13908 0.99482 0.0
C395 C 0.87734 0.25528 0.97493 0.0
C396 C 0.90481 0.25217 0.9581 0.0
C397 C 0.8708 0.22152 0.89457 0.0
C398 C 0.84314 0.22377 0.91219 0.0
N399 N 0.84716 0.24099 0.95186 0.0
N400 N 0.9009 0.23537 0.9182 0.0
H401 H 0.87895 0.26707 1.00754 0.0
C402 C 0.71895 0.08989 0.98612 0.0
O403 O 0.75255 0.10838 0.98034 0.0
O404 O 0.82207 0.29021 0.99761 0.0
H405 H 0.81862 0.21064 0.89498 0.0
H406 H 0.71345 0.23807 0.09825 0.0
H407 H 0.86802 0.20789 0.86316 0.0
Zn408 Zn 0.5602 0.81415 0.02452 0.0
C409 C 0.55669 0.75169 0.12557 0.0
N410 N 0.55153 0.77398 0.14985 0.0
C411 C 0.55701 0.79855 0.11983 0.0
N412 N 0.56431 0.79166 0.07855 0.0
N413 N 0.56542 0.76276 0.08209 0.0
C414 C 0.53168 0.68536 0.99407 0.0
O415 O 0.53681 0.70741 0.96158 0.0
O416 O 0.57757 0.86547 0.0343 0.0
Zn417 Zn 0.58631 0.74701 0.03847 0.0
N418 N 0.51203 0.7903 1.00612 0.0
C419 C 0.46445 0.73588 0.98492 0.0
C420 C 0.49855 0.75594 0.99924 0.0
C421 C 0.49249 0.80561 1.00009 0.0
N422 N 0.4451 0.75103 0.97816 0.0
C423 C 0.4579 0.78539 0.98545 0.0
O424 O 0.60185 0.77209 0.97731 0.0
C425 C 0.60247 0.79712 0.95605 0.0
O426 O 0.58803 0.81304 0.9721 0.0
H427 H 0.51439 0.74435 1.00484 0.0
H428 H 0.50387 0.83306 1.0058 0.0
C429 C 0.65378 0.75695 0.04007 0.0
C430 C 0.68791 0.77075 0.05554 0.0
C431 C 0.67334 0.78798 0.12374 0.0
C432 C 0.6397 0.77491 0.10789 0.0
N433 N 0.63031 0.75907 0.06659 0.0
N434 N 0.69667 0.78548 0.09734 0.0
H435 H 0.64571 0.74464 1.00723 0.0
C436 C 0.60985 0.88578 0.0287 0.0
O437 O 0.62976 0.87235 0.02248 0.0
O438 O 0.55196 0.69564 0.02811 0.0
H439 H 0.62196 0.77858 0.12824 0.0
H440 H 0.45345 0.70849 0.97904 0.0
H441 H 0.68098 0.80038 0.15655 0.0
Zn442 Zn 0.25442 0.83373 0.03366 0.0
C443 C 0.19676 0.75418 0.1111 0.0
N444 N 0.22488 0.76996 0.13808 0.0
C445 C 0.24867 0.79339 0.11062 0.0
N446 N 0.23563 0.79245 0.06897 0.0
N447 N 0.20305 0.76702 0.06853 0.0
C448 C 0.10844 0.73344 0.02643 0.0
O449 O 0.1266 0.76681 0.03424 0.0
O450 O 0.30626 0.85144 0.02819 0.0
Zn451 Zn 0.17715 0.74695 1.01199 0.0
N452 N 0.24302 0.86377 0.06807 0.0
C453 C 0.21882 0.87703 0.13163 0.0
C454 C 0.23155 0.85748 0.11166 0.0
C455 C 0.24107 0.88822 0.04349 0.0
N456 N 0.21699 0.90153 0.10693 0.0
C457 C 0.22723 0.90723 0.06298 0.0
O458 O 0.18301 0.78231 0.96428 0.0
C459 C 0.20499 0.81216 0.9498 0.0
O460 O 0.23302 0.83128 0.97133 0.0
H461 H 0.23089 0.8369 0.13081 0.0
H462 H 0.25011 0.89256 1.00889 0.0
C463 C 0.18338 0.68655 0.98229 0.0
C464 C 0.20251 0.67307 0.96147 0.0
C465 C 0.24825 0.7302 0.94797 0.0
C466 C 0.22942 0.74332 0.96866 0.0
N467 N 0.1974 0.72152 0.98509 0.0
N468 N 0.23439 0.69558 0.94481 0.0
H469 H 0.15777 0.66962 0.99542 0.0
C470 C 0.31701 0.84393 0.99247 0.0
O471 O 0.29554 0.83019 0.95818 0.0
O472 O 0.12455 0.71733 0.01828 0.0
H473 H 0.24014 0.77084 0.97176 0.0
H474 H 0.20989 0.87237 0.16628 0.0
H475 H 0.27373 0.74736 0.93463 0.0
Zn476 Zn 0.17188 0.42743 0.03676 0.0
C477 C 0.24199 0.43801 0.12418 0.0
N478 N 0.22156 0.44504 0.15022 0.0
C479 C 0.202 0.44956 0.12016 0.0
N480 N 0.20959 0.44496 0.07757 0.0
N481 N 0.2346 0.43727 0.0795 0.0
C482 C 0.27225 0.38007 0.03014 0.0
O483 O 0.23833 0.36471 0.02953 0.0
O484 O 0.1575 0.46353 0.0274 0.0
Zn485 Zn 0.25945 0.43609 0.02465 0.0
N486 N 0.13802 0.38839 0.07008 0.0
C487 C 0.12531 0.34116 0.1188 0.0
C488 C 0.14901 0.36985 0.09444 0.0
C489 C 0.10421 0.379 0.06838 0.0
N490 N 0.09127 0.33092 0.11569 0.0
C491 C 0.08012 0.34912 0.09102 0.0
O492 O 0.22655 0.4084 0.97305 0.0
C493 C 0.1968 0.40009 0.95728 0.0
O494 O 0.17668 0.40784 0.97787 0.0
H495 H 0.17591 0.37696 0.09459 0.0
H496 H 0.09611 0.39331 0.04701 0.0
C497 C 0.32086 0.50297 0.99903 0.0
C498 C 0.33526 0.53623 0.97994 0.0
C499 C 0.27881 0.52814 0.97111 0.0
C500 C 0.26472 0.49533 0.9895 0.0
N501 N 0.28575 0.48319 1.00274 0.0
N502 N 0.31354 0.54761 0.9665 0.0
H503 H 0.33711 0.49269 1.00959 0.0
C504 C 0.16417 0.48072 0.99091 0.0
O505 O 0.17783 0.47271 0.95706 0.0
O506 O 0.28938 0.413 0.03113 0.0
H507 H 0.23704 0.4793 0.99293 0.0
H508 H 0.13369 0.3263 0.13844 0.0
H509 H 0.26228 0.538 0.96022 0.0
Zn510 Zn 0.42268 0.91493 0.32983 0.0
C511 C 0.47729 0.89384 0.24435 0.0
N512 N 0.45363 0.89215 0.21489 0.0
C513 C 0.42946 0.89222 0.24099 0.0
N514 N 0.43887 0.89544 0.28533 0.0
N515 N 0.46867 0.89567 0.28763 0.0
C516 C 0.55962 0.93621 0.34768 0.0
O517 O 0.54546 0.95525 0.35564 0.0
O518 O 0.37131 0.88177 0.33905 0.0
Zn519 Zn 0.48815 0.88711 0.34295 0.0
N520 N 0.43551 0.95958 0.30501 0.0
C521 C 0.47076 0.00657 0.25614 0.0
C522 C 0.45833 0.97272 0.27002 0.0
C523 C 0.42617 0.97968 0.32809 0.0
N524 N 0.46111 0.02655 0.27898 0.0
C525 C 0.43962 0.01415 0.31516 0.0
O526 O 0.48527 0.91176 0.39956 0.0
C527 C 0.46916 0.92632 0.41478 0.0
O528 O 0.44618 0.9278 0.39114 0.0
H529 H 0.46811 0.95788 0.25376 0.0
H530 H 0.40883 0.96888 0.35656 0.0
C531 C 0.47519 0.81674 0.36258 0.0
C532 C 0.45263 0.78184 0.37385 0.0
C533 C 0.40493 0.79123 0.3677 0.0
C534 C 0.42725 0.82564 0.35714 0.0
N535 N 0.46181 0.83786 0.35503 0.0
N536 N 0.4181 0.77034 0.37608 0.0
H537 H 0.50285 0.82716 0.36123 0.0
C538 C 0.36114 0.86316 0.37439 0.0
O539 O 0.38371 0.86855 0.40652 0.0
O540 O 0.53992 0.90435 0.33826 0.0
H541 H 0.4172 0.84278 0.35115 0.0
H542 H 0.48856 0.01714 0.22814 0.0
H543 H 0.37737 0.78125 0.36976 0.0
Zn544 Zn 0.10554 0.60314 0.34966 0.0
C545 C 0.12559 0.55209 0.25124 0.0
N546 N 0.12938 0.57839 0.22571 0.0
C547 C 0.12035 0.59616 0.25345 0.0
N548 N 0.11189 0.58211 0.2951 0.0
N549 N 0.11406 0.55363 0.29347 0.0
C550 C 0.13897 0.50535 0.39025 0.0
O551 O 0.12705 0.51622 0.42309 0.0
O552 O 0.08488 0.63346 0.33724 0.0
Zn553 Zn 0.08982 0.51494 0.33394 0.0
N554 N 0.14953 0.62665 0.3811 0.0
C555 C 0.18855 0.61678 0.42464 0.0
C556 C 0.15783 0.60428 0.40048 0.0
C557 C 0.17106 0.66145 0.38449 0.0
N558 N 0.21014 0.65132 0.42786 0.0
C559 C 0.20255 0.67425 0.40823 0.0
O560 O 0.06535 0.51805 0.39156 0.0
C561 C 0.05889 0.53985 0.41017 0.0
O562 O 0.07206 0.57032 0.395 0.0
H563 H 0.14045 0.57686 0.39704 0.0
H564 H 0.1637 0.67882 0.36941 0.0
C565 C 0.03148 0.45061 0.31008 0.0
C566 C 0.00141 0.42838 0.28578 0.0
C567 C 0.01298 0.47299 0.23397 0.0
C568 C 0.04195 0.49548 0.2594 0.0
N569 N 0.05108 0.4836 0.29643 0.0
N570 N 0.9932 0.43992 0.24783 0.0
H571 H 0.03909 0.44217 0.34009 0.0
C572 C 0.05576 0.61838 0.31713 0.0
O573 O 0.04359 0.58653 0.30289 0.0
O574 O 0.12487 0.49996 0.35137 0.0
H575 H 0.0564 0.52224 0.24981 0.0
H576 H 0.19537 0.5992 0.44041 0.0
H577 H 0.00576 0.48197 0.20416 0.0
Zn578 Zn 0.49585 0.57267 0.33513 0.0
C579 C 0.42115 0.52125 0.24461 0.0
N580 N 0.44244 0.54775 0.21786 0.0
C581 C 0.46752 0.56889 0.24649 0.0
N582 N 0.46147 0.55585 0.28882 0.0
N583 N 0.4322 0.52611 0.28773 0.0
C584 C 0.3773 0.42932 0.33244 0.0
O585 O 0.40975 0.44092 0.3437 0.0
O586 O 0.5121 0.62384 0.34443 0.0
Zn587 Zn 0.40242 0.50193 0.33887 0.0
N588 N 0.53098 0.56415 0.31121 0.0
C589 C 0.54877 0.53518 0.25957 0.0
C590 C 0.52525 0.54521 0.27266 0.0
C591 C 0.55879 0.57244 0.33787 0.0
N592 N 0.57666 0.54363 0.28613 0.0
C593 C 0.58215 0.56164 0.32537 0.0
O594 O 0.42924 0.50122 0.39344 0.0
C595 C 0.45872 0.51863 0.4123 0.0
O596 O 0.48305 0.54561 0.39399 0.0
H597 H 0.50217 0.53671 0.25273 0.0
H598 H 0.56227 0.58707 0.36855 0.0
C599 C 0.343 0.5115 0.35502 0.0
C600 C 0.32803 0.53082 0.37053 0.0
C601 C 0.38411 0.57747 0.38784 0.0
C602 C 0.39874 0.55833 0.37238 0.0
N603 N 0.37807 0.52574 0.35675 0.0
N604 N 0.34926 0.56328 0.38675 0.0
H605 H 0.32709 0.48546 0.34235 0.0
C606 C 0.50192 0.63397 0.37827 0.0
O607 O 0.48508 0.61187 0.41071 0.0
O608 O 0.36748 0.45113 0.32505 0.0
H609 H 0.42642 0.56913 0.37297 0.0
H610 H 0.54461 0.52029 0.22894 0.0
H611 H 0.4003 0.6034 0.40068 0.0
H612 H 0.29473 0.11036 0.23086 0.0
H613 H 0.27987 0.1985 0.23218 0.0
H614 H 0.31766 0.22252 0.16699 0.0
H615 H 0.35517 0.21898 0.10964 0.0
H616 H 0.36882 0.13019 0.10616 0.0
H617 H 0.33149 0.10622 0.17211 0.0
C618 C 0.29965 0.13476 0.21681 0.0
C619 C 0.28434 0.15248 0.23655 0.0
C620 C 0.32141 0.14852 0.179 0.0
C621 C 0.29106 0.1841 0.21772 0.0
C622 C 0.31283 0.19801 0.18045 0.0
C623 C 0.35021 0.19449 0.12344 0.0
C624 C 0.36507 0.17661 0.10309 0.0
C625 C 0.32825 0.18054 0.16092 0.0
C626 C 0.35787 0.14464 0.12117 0.0
C627 C 0.33645 0.13084 0.15889 0.0
H628 H 0.87756 0.19119 0.2408 0.0
H629 H 0.79111 0.08711 0.24941 0.0
H630 H 0.76637 0.09555 0.18088 0.0
H631 H 0.76843 0.13184 0.11789 0.0
H632 H 0.85436 0.23583 0.10734 0.0
H633 H 0.87966 0.22793 0.17654 0.0
C634 C 0.85335 0.17037 0.22767 0.0
C635 C 0.83648 0.13855 0.2507 0.0
C636 C 0.83889 0.17528 0.18759 0.0
C637 C 0.80499 0.11194 0.23284 0.0
C638 C 0.79062 0.11667 0.19341 0.0
C639 C 0.79267 0.15286 0.13063 0.0
C640 C 0.80924 0.18439 0.10717 0.0
C641 C 0.80725 0.14817 0.17046 0.0
C642 C 0.84079 0.21122 0.12449 0.0
C643 C 0.8554 0.20674 0.1642 0.0
H644 H 0.89036 0.70475 0.23107 0.0
H645 H 0.79428 0.70431 0.24729 0.0
H646 H 0.7705 0.66712 0.18053 0.0
H647 H 0.77674 0.63387 0.11745 0.0
H648 H 0.87329 0.63471 0.10321 0.0
H649 H 0.89666 0.67216 0.16902 0.0
C650 C 0.86416 0.69655 0.22025 0.0
C651 C 0.84427 0.7075 0.24462 0.0
C652 C 0.85052 0.67496 0.18194 0.0
C653 C 0.81039 0.69653 0.22943 0.0
C654 C 0.79668 0.67511 0.19118 0.0
C655 C 0.80286 0.64216 0.12878 0.0
C656 C 0.823 0.63111 0.10503 0.0
C657 C 0.81645 0.664 0.16715 0.0
C658 C 0.85693 0.6425 0.12042 0.0
C659 C 0.87047 0.66405 0.15825 0.0
H660 H 0.11832 0.30952 0.78596 0.0
H661 H 0.19883 0.28336 0.79598 0.0
H662 H 0.2238 0.32213 0.86083 0.0
H663 H 0.22254 0.3632 0.91544 0.0
H664 H 0.14147 0.38856 0.90527 0.0
H665 H 0.11734 0.35067 0.83968 0.0
C666 C 0.14129 0.31215 0.8023 0.0
C667 C 0.15651 0.29332 0.78597 0.0
C668 C 0.15563 0.33459 0.83955 0.0
C669 C 0.18638 0.29733 0.80773 0.0
C670 C 0.20079 0.31962 0.84484 0.0
C671 C 0.19979 0.3607 0.89863 0.0
C672 C 0.18395 0.37884 0.91539 0.0
C673 C 0.18567 0.33844 0.86104 0.0
C674 C 0.15424 0.37494 0.89331 0.0
C675 C 0.14033 0.35319 0.85576 0.0
H676 H 0.69169 0.88033 0.78692 0.0
H677 H 0.71498 0.79785 0.78453 0.0
H678 H 0.67724 0.77104 0.84978 0.0
H679 H 0.63823 0.77172 0.90888 0.0
H680 H 0.61402 0.85377 0.90792 0.0
H681 H 0.65109 0.87957 0.84276 0.0
C682 C 0.6886 0.8565 0.80062 0.0
C683 C 0.70648 0.84137 0.78092 0.0
C684 C 0.66643 0.84092 0.83764 0.0
C685 C 0.70165 0.81018 0.79895 0.0
C686 C 0.68003 0.7948 0.83634 0.0
C687 C 0.6408 0.79506 0.89419 0.0
C688 C 0.62314 0.8106 0.9137 0.0
C689 C 0.6623 0.80998 0.85612 0.0
C690 C 0.62702 0.84097 0.89394 0.0
C691 C 0.64841 0.85595 0.85658 0.0
H692 H 0.14727 0.7797 0.89637 0.0
H693 H 0.24516 0.87441 0.90724 0.0
H694 H 0.23211 0.89584 0.83816 0.0
H695 H 0.19265 0.88762 0.77385 0.0
H696 H 0.09471 0.79254 0.76491 0.0
H697 H 0.10813 0.77176 0.83356 0.0
C698 C 0.16589 0.80503 0.88372 0.0
C699 C 0.1973 0.82519 0.90721 0.0
C700 C 0.15817 0.81734 0.84403 0.0
C701 C 0.22085 0.85808 0.89003 0.0
C702 C 0.21336 0.87045 0.85042 0.0
C703 C 0.17419 0.86242 0.78698 0.0
C704 C 0.14262 0.84186 0.76377 0.0
C705 C 0.18206 0.85031 0.82702 0.0
C706 C 0.11919 0.80917 0.7816 0.0
C707 C 0.12683 0.7971 0.82107 0.0
H708 H 0.01767 0.47556 0.44831 0.0
H709 H 0.04664 0.58273 0.46251 0.0
H710 H 0.00785 0.56867 0.52646 0.0
H711 H 0.96561 0.52638 0.57923 0.0
H712 H 0.93607 0.41908 0.56595 0.0
H713 H 0.97468 0.4328 0.50139 0.0
C714 C 0.01561 0.49586 0.46547 0.0
C715 C 0.03536 0.53024 0.45021 0.0
C716 C 0.99284 0.4876 0.5026 0.0
C717 C 0.03196 0.55603 0.47306 0.0
C718 C 0.00965 0.54804 0.50984 0.0
C719 C 0.96738 0.50589 0.56213 0.0
C720 C 0.9476 0.47168 0.57771 0.0
C721 C 0.98988 0.51395 0.52494 0.0
C722 C 0.95066 0.44566 0.55491 0.0
C723 C 0.97293 0.45349 0.51789 0.0
H724 H 0.46555 0.44071 0.58743 0.0
H725 H 0.57349 0.51831 0.57833 0.0
H726 H 0.56173 0.54195 0.5107 0.0
H727 H 0.52077 0.54166 0.45503 0.0
H728 H 0.4126 0.46463 0.46437 0.0
H729 H 0.42451 0.44014 0.53108 0.0
C730 C 0.48656 0.46253 0.57036 0.0
C731 C 0.52037 0.47759 0.58801 0.0
C732 C 0.47954 0.4765 0.53179 0.0
C733 C 0.5472 0.50615 0.56561 0.0
C734 C 0.5405 0.51982 0.52696 0.0
C735 C 0.49969 0.51968 0.4718 0.0
C736 C 0.46578 0.50525 0.45467 0.0
C737 C 0.50672 0.50548 0.51004 0.0
C738 C 0.43895 0.47648 0.47677 0.0
C739 C 0.44574 0.4623 0.5149 0.0
H740 H 0.53548 0.0024 0.60013 0.0
H741 H 0.46132 0.03643 0.58287 0.0
H742 H 0.4395 0.00156 0.51389 0.0
H743 H 0.44323 0.96335 0.45649 0.0
H744 H 0.51805 0.93014 0.4743 0.0
H745 H 0.53759 0.96264 0.54499 0.0
C746 C 0.51439 0.00216 0.58157 0.0
C747 C 0.50031 0.02239 0.59685 0.0
C748 C 0.50207 0.98217 0.54178 0.0
C749 C 0.47286 0.02136 0.57208 0.0
C750 C 0.46035 0.0014 0.53251 0.0
C751 C 0.46362 0.96293 0.47596 0.0
C752 C 0.4791 0.94417 0.4597 0.0
C753 C 0.47502 0.98198 0.51672 0.0
C754 C 0.50555 0.94418 0.48566 0.0
C755 C 0.51685 0.96287 0.52618 0.0
H756 H 0.16306 0.0499 0.50727 0.0
H757 H 0.23156 0.04103 0.41295 0.0
H758 H 0.21449 0.98385 0.44242 0.0
H759 H 0.17764 0.93496 0.49434 0.0
H760 H 0.11581 0.94911 0.59433 0.0
H761 H 0.13378 0.00641 0.56439 0.0
C762 C 0.17471 0.03587 0.49287 0.0
C763 C 0.19719 0.04945 0.45545 0.0
C764 C 0.16642 0.0041 0.51204 0.0
C765 C 0.21226 0.03067 0.43885 0.0
C766 C 0.20311 0.99813 0.45676 0.0
C767 C 0.16907 0.95118 0.5103 0.0
C768 C 0.14595 0.93825 0.547 0.0
C769 C 0.17985 0.9844 0.49309 0.0
C770 C 0.1343 0.95895 0.56689 0.0
C771 C 0.14419 0.99146 0.54935 0.0
H772 H 0.05675 0.23896 0.51672 0.0
H773 H 0.02963 0.16711 0.62698 0.0
H774 H 0.97079 0.13353 0.59757 0.0
H775 H 0.92919 0.12117 0.53694 0.0
H776 H 0.9523 0.19526 0.43083 0.0
H777 H 0.0106 0.23096 0.46133 0.0
C778 C 0.03757 0.21651 0.53494 0.0
C779 C 0.0474 0.20593 0.5746 0.0
C780 C 0.00348 0.1971 0.51762 0.0
C781 C 0.0225 0.17649 0.59741 0.0
C782 C 0.98895 0.15693 0.58012 0.0
C783 C 0.94667 0.14521 0.52019 0.0
C784 C 0.93666 0.15396 0.47902 0.0
C785 C 0.97946 0.16649 0.53966 0.0
C786 C 0.9598 0.18594 0.4596 0.0
C787 C 0.99305 0.20697 0.47808 0.0
H788 H 0.84126 0.90704 0.50865 0.0
H789 H 0.78398 0.82196 0.59903 0.0
H790 H 0.80405 0.78811 0.55992 0.0
H791 H 0.84073 0.78365 0.50158 0.0
H792 H 0.89251 0.86546 0.40478 0.0
H793 H 0.87065 0.89917 0.44339 0.0
C794 C 0.83295 0.88104 0.52006 0.0
C795 C 0.81273 0.86826 0.55972 0.0
C796 C 0.84301 0.86077 0.49504 0.0
C797 C 0.80172 0.8341 0.57214 0.0
C798 C 0.81247 0.81411 0.54844 0.0
C799 C 0.84602 0.80819 0.48774 0.0
C800 C 0.86744 0.8217 0.44965 0.0
C801 C 0.83348 0.82735 0.51019 0.0
C802 C 0.87526 0.85418 0.43327 0.0
C803 C 0.86322 0.87363 0.45582 0.0
H804 H 0.82323 0.07352 0.53752 0.0
H805 H 0.81838 0.02359 0.41107 0.0
H806 H 0.77989 0.96754 0.44381 0.0
H807 H 0.76574 0.93379 0.51214 0.0
H808 H 0.79926 0.98623 0.63965 0.0
H809 H 0.80673 0.03918 0.60619 0.0
C810 C 0.81269 0.05027 0.51698 0.0
C811 C 0.82223 0.05251 0.47137 0.0
C812 C 0.79592 0.01819 0.53804 0.0
C813 C 0.80936 0.02256 0.44509 0.0
C814 C 0.78822 0.99043 0.46444 0.0
C815 C 0.77364 0.95668 0.53273 0.0
C816 C 0.78162 0.95642 0.57864 0.0
C817 C 0.78376 0.98799 0.51148 0.0
C818 C 0.79168 0.98573 0.60515 0.0
C819 C 0.7969 0.01619 0.58535 0.0
H820 H 0.02706 0.80704 0.58448 0.0
H821 H 0.09103 0.82451 0.46779 0.0
H822 H 0.04029 0.79957 0.41889 0.0
H823 H 0.98171 0.79136 0.4107 0.0
H824 H 0.91633 0.7649 0.52762 0.0
H825 H 0.96395 0.7734 0.57637 0.0
C826 C 0.02976 0.80227 0.54928 0.0
C827 C 0.06255 0.81794 0.52975 0.0
C828 C 0.00038 0.78713 0.52143 0.0
C829 C 0.06574 0.81303 0.48334 0.0
C830 C 0.03678 0.79902 0.45523 0.0
C831 C 0.97701 0.78448 0.44596 0.0
C832 C 0.94596 0.77799 0.46548 0.0
C833 C 0.00429 0.78856 0.47375 0.0
C834 C 0.94056 0.77067 0.51204 0.0
C835 C 0.96773 0.77558 0.54003 0.0
H836 H 0.19088 0.24857 0.53219 0.0
H837 H 0.11305 0.15839 0.60169 0.0
H838 H 0.12311 0.12118 0.55199 0.0
H839 H 0.14891 0.11445 0.4848 0.0
H840 H 0.24171 0.20131 0.43419 0.0
H841 H 0.22898 0.24092 0.47646 0.0
C842 C 0.17748 0.22089 0.53748 0.0
C843 C 0.15125 0.2058 0.56981 0.0
C844 C 0.1842 0.19963 0.50975 0.0
C845 C 0.13372 0.17015 0.57711 0.0
C846 C 0.13874 0.14892 0.54805 0.0
C847 C 0.16639 0.14214 0.48267 0.0
C848 C 0.19469 0.15541 0.4535 0.0
C849 C 0.16283 0.16347 0.51324 0.0
C850 C 0.21771 0.19104 0.45222 0.0
C851 C 0.21138 0.21334 0.4784 0.0
H852 H 0.81703 0.25773 0.83253 0.0
H853 H 0.77072 0.28395 0.94176 0.0
H854 H 0.79677 0.34315 0.91365 0.0
H855 H 0.83205 0.38705 0.85795 0.0
H856 H 0.88085 0.36201 0.75071 0.0
H857 H 0.85446 0.30292 0.77764 0.0
C858 C 0.81325 0.27668 0.85056 0.0
C859 C 0.79281 0.26687 0.8899 0.0
C860 C 0.82847 0.31074 0.83424 0.0
C861 C 0.78734 0.29129 0.91238 0.0
C862 C 0.80193 0.325 0.89602 0.0
C863 C 0.83711 0.36879 0.84031 0.0
C864 C 0.85783 0.37918 0.80107 0.0
C865 C 0.82256 0.335 0.85704 0.0
C866 C 0.86404 0.35493 0.77936 0.0
C867 C 0.84928 0.32102 0.79542 0.0
H868 H 0.72115 0.56139 0.85715 0.0
H869 H 0.69173 0.47797 0.95132 0.0
H870 H 0.63174 0.45125 0.92476 0.0
H871 H 0.58873 0.45033 0.87233 0.0
H872 H 0.61713 0.5355 0.78147 0.0
H873 H 0.67641 0.56363 0.81022 0.0
C874 C 0.70134 0.53819 0.8733 0.0
C875 C 0.71055 0.52226 0.90739 0.0
C876 C 0.6669 0.52328 0.8582 0.0
C877 C 0.68496 0.49123 0.92621 0.0
C878 C 0.65078 0.47585 0.91071 0.0
C879 C 0.60777 0.47522 0.85893 0.0
C880 C 0.59867 0.49009 0.82322 0.0
C881 C 0.64158 0.49147 0.87641 0.0
C882 C 0.62359 0.52258 0.80712 0.0
C883 C 0.65747 0.53893 0.82415 0.0
H884 H 0.49074 0.22447 0.83166 0.0
H885 H 0.42672 0.13752 0.91667 0.0
H886 H 0.45458 0.10678 0.88755 0.0
H887 H 0.49924 0.10572 0.83979 0.0
H888 H 0.56009 0.19076 0.75059 0.0
H889 H 0.53179 0.22156 0.77989 0.0
C890 C 0.48257 0.19867 0.84379 0.0
C891 C 0.45735 0.18398 0.87804 0.0
C892 C 0.49817 0.18081 0.8258 0.0
C893 C 0.44709 0.15039 0.89249 0.0
C894 C 0.46272 0.13248 0.87511 0.0
C895 C 0.50533 0.13041 0.8256 0.0
C896 C 0.53079 0.14557 0.792 0.0
C897 C 0.48852 0.14759 0.84206 0.0
C898 C 0.5398 0.17831 0.77551 0.0
C899 C 0.52383 0.19595 0.79252 0.0
H900 H 0.53158 0.39481 0.85482 0.0
H901 H 0.44158 0.38562 0.78768 0.0
H902 H 0.40616 0.32707 0.81953 0.0
H903 H 0.40384 0.27803 0.86356 0.0
H904 H 0.4954 0.29433 0.93432 0.0
H905 H 0.52744 0.35289 0.90667 0.0
C906 C 0.504 0.38044 0.84767 0.0
C907 C 0.48907 0.39351 0.81803 0.0
C908 C 0.48424 0.34914 0.86835 0.0
C909 C 0.45358 0.37481 0.80877 0.0
C910 C 0.43344 0.342 0.8278 0.0
C911 C 0.43028 0.29528 0.87433 0.0
C912 C 0.4474 0.28305 0.90181 0.0
C913 C 0.44876 0.32884 0.85739 0.0
C914 C 0.48177 0.30438 0.91492 0.0
C915 C 0.5002 0.33739 0.89832 0.0
H916 H 0.6407 0.10843 0.75857 0.0
H917 H 0.57176 0.08116 0.87192 0.0
H918 H 0.61831 0.0911 0.92363 0.0
H919 H 0.68078 0.12906 0.93413 0.0
H920 H 0.74907 0.15032 0.82151 0.0
H921 H 0.69983 0.11917 0.77083 0.0
C922 C 0.63503 0.10165 0.79384 0.0
C923 C 0.60341 0.09509 0.81162 0.0
C924 C 0.66187 0.10703 0.8234 0.0
C925 C 0.59652 0.08721 0.85784 0.0
C926 C 0.62312 0.09301 0.88751 0.0
C927 C 0.68503 0.12407 0.89967 0.0
C928 C 0.71811 0.14263 0.88127 0.0
C929 C 0.65657 0.10613 0.87078 0.0
C930 C 0.72339 0.13678 0.83597 0.0
C931 C 0.69526 0.11931 0.80683 0.0
H932 H 0.85337 0.5422 0.92921 0.0
H933 H 0.80911 0.56362 0.81295 0.0
H934 H 0.84127 0.54703 0.76268 0.0
H935 H 0.86704 0.51007 0.7553 0.0
H936 H 0.91791 0.49585 0.87031 0.0
H937 H 0.89915 0.52756 0.91833 0.0
C938 C 0.85295 0.54596 0.89324 0.0
C939 C 0.82868 0.55352 0.87499 0.0
C940 C 0.87209 0.53704 0.8644 0.0
C941 C 0.82724 0.55701 0.82777 0.0
C942 C 0.84554 0.54748 0.79889 0.0
C943 C 0.87659 0.51644 0.78972 0.0
C944 C 0.8935 0.50055 0.80931 0.0
C945 C 0.86608 0.53506 0.81704 0.0
C946 C 0.90444 0.50769 0.85475 0.0
C947 C 0.8935 0.52555 0.88236 0.0
H948 H 0.51863 0.59964 0.1831 0.0
H949 H 0.46103 0.61993 0.28304 0.0
H950 H 0.48408 0.67834 0.25418 0.0
H951 H 0.5168 0.72176 0.19798 0.0
H952 H 0.57903 0.70536 0.10123 0.0
H953 H 0.55829 0.64747 0.13138 0.0
C954 C 0.51224 0.6174 0.19944 0.0
C955 C 0.48894 0.60592 0.23598 0.0
C956 C 0.52589 0.65131 0.18273 0.0
C957 C 0.47985 0.62864 0.25599 0.0
C958 C 0.4927 0.66189 0.23912 0.0
C959 C 0.52627 0.70586 0.18336 0.0
C960 C 0.54814 0.71757 0.14528 0.0
C961 C 0.51525 0.67326 0.20213 0.0
C962 C 0.56045 0.6965 0.12814 0.0
C963 C 0.54909 0.6635 0.14621 0.0
H964 H 0.2748 0.84163 0.17882 0.0
H965 H 0.30308 0.79055 0.07814 0.0
H966 H 0.36079 0.81565 0.11159 0.0
H967 H 0.40209 0.85022 0.16964 0.0
H968 H 0.37841 0.90818 0.26511 0.0
H969 H 0.31984 0.88273 0.23302 0.0
C970 C 0.29407 0.83718 0.16308 0.0
C971 C 0.28508 0.81511 0.12502 0.0
C972 C 0.32768 0.8526 0.18182 0.0
C973 C 0.30978 0.80829 0.10638 0.0
C974 C 0.34264 0.82241 0.12575 0.0
C975 C 0.38441 0.85773 0.18359 0.0
C976 C 0.39426 0.87986 0.22165 0.0
C977 C 0.35175 0.84442 0.16346 0.0
C978 C 0.37091 0.88945 0.23819 0.0
C979 C 0.33765 0.87547 0.21899 0.0
H980 H 0.15536 0.43324 0.18791 0.0
H981 H 0.2102 0.50849 0.08415 0.0
H982 H 0.19128 0.54651 0.11631 0.0
H983 H 0.16299 0.56006 0.17648 0.0
H984 H 0.10451 0.48381 0.27755 0.0
H985 H 0.12143 0.44487 0.24473 0.0
C986 C 0.16218 0.45752 0.17166 0.0
C987 C 0.1833 0.46766 0.13293 0.0
C988 C 0.15139 0.47946 0.19065 0.0
C989 C 0.19292 0.49959 0.11291 0.0
C990 C 0.18258 0.52157 0.13178 0.0
C991 C 0.1536 0.53488 0.1916 0.0
C992 C 0.13357 0.52596 0.2315 0.0
C993 C 0.16232 0.512 0.17105 0.0
C994 C 0.12153 0.49281 0.24924 0.0
C995 C 0.13069 0.47 0.22954 0.0
H996 H 0.10274 0.60514 0.17073 0.0
H997 H 0.14191 0.65687 0.29824 0.0
H998 H 0.15655 0.71202 0.26383 0.0
H999 H 0.1727 0.74587 0.19476 0.0
H1000 H 0.15373 0.69433 0.06599 0.0
H1001 H 0.11557 0.63905 0.10174 0.0
C1002 C 0.1136 0.62847 0.19113 0.0
C1003 C 0.12057 0.62715 0.2373 0.0
C1004 C 0.12579 0.66023 0.1698 0.0
C1005 C 0.13495 0.65725 0.26341 0.0
C1006 C 0.14398 0.68879 0.2433 0.0
C1007 C 0.1592 0.72255 0.17445 0.0
C1008 C 0.16534 0.724 0.12766 0.0
C1009 C 0.14153 0.69072 0.1961 0.0
C1010 C 0.14809 0.69397 0.10149 0.0
C1011 C 0.12711 0.66226 0.12233 0.0
H1012 H 0.38511 0.46173 0.19628 0.0
H1013 H 0.3782 0.54258 0.26645 0.0
H1014 H 0.3217 0.52349 0.23359 0.0
H1015 H 0.27895 0.48953 0.17888 0.0
H1016 H 0.27752 0.40232 0.11538 0.0
H1017 H 0.33441 0.41931 0.14937 0.0
C1018 C 0.37042 0.47414 0.20518 0.0
C1019 C 0.38481 0.50291 0.23401 0.0
C1020 C 0.3379 0.4631 0.18575 0.0
C1021 C 0.36659 0.51966 0.24528 0.0
C1022 C 0.33476 0.50922 0.22594 0.0
C1023 C 0.29071 0.47377 0.1727 0.0
C1024 C 0.27539 0.44585 0.14272 0.0
C1025 C 0.32093 0.48185 0.19514 0.0
C1026 C 0.29057 0.42552 0.13548 0.0
C1027 C 0.32234 0.43464 0.15609 0.0
H1028 H 0.45619 0.83864 0.19471 0.0
H1029 H 0.54793 0.92226 0.25502 0.0
H1030 H 0.58339 0.9016 0.21749 0.0
H1031 H 0.5864 0.85847 0.16647 0.0
H1032 H 0.49416 0.78399 0.09603 0.0
H1033 H 0.46051 0.80505 0.13475 0.0
C1034 C 0.48404 0.8525 0.19973 0.0
C1035 C 0.4995 0.88068 0.22941 0.0
C1036 C 0.50398 0.84342 0.17399 0.0
C1037 C 0.53546 0.89889 0.235 0.0
C1038 C 0.55565 0.88785 0.21222 0.0
C1039 C 0.55927 0.84814 0.15842 0.0
C1040 C 0.54254 0.8204 0.1281 0.0
C1041 C 0.54005 0.86021 0.18128 0.0
C1042 C 0.50743 0.80627 0.11807 0.0
C1043 C 0.4881 0.81758 0.14114 0.0
H1044 H 0.10257 0.16515 0.35524 0.0
H1045 H 0.07782 0.12211 0.22036 0.0
H1046 H 0.03092 0.13476 0.21517 0.0
H1047 H 0.99327 0.1525 0.25138 0.0
H1048 H 0.01594 0.19366 0.38728 0.0
H1049 H 0.0674 0.18783 0.38931 0.0
C1050 C 0.08743 0.15932 0.32436 0.0
C1051 C 0.09368 0.14262 0.28826 0.0
C1052 C 0.05984 0.16603 0.32189 0.0
C1053 C 0.07341 0.13473 0.24876 0.0
C1054 C 0.04653 0.14194 0.24573 0.0
C1055 C 0.00973 0.16076 0.28121 0.0
C1056 C 0.00048 0.17324 0.3192 0.0
C1057 C 0.03892 0.15673 0.28249 0.0
C1058 C 0.02225 0.18379 0.35755 0.0
C1059 C 0.0517 0.18037 0.35882 0.0
H1060 H 0.85338 0.86183 0.2625 0.0
H1061 H 0.80096 0.83466 0.39107 0.0
H1062 H 0.8032 0.89035 0.39405 0.0
H1063 H 0.82655 0.94958 0.3641 0.0
H1064 H 0.88039 0.97606 0.23645 0.0
H1065 H 0.87083 0.91777 0.22905 0.0
C1066 C 0.8419 0.86776 0.2909 0.0
C1067 C 0.82759 0.84433 0.32687 0.0
C1068 C 0.84377 0.89992 0.29269 0.0
C1069 C 0.81243 0.85235 0.36305 0.0
C1070 C 0.81382 0.88428 0.36486 0.0
C1071 C 0.83538 0.9423 0.33416 0.0
C1072 C 0.8543 0.9672 0.30093 0.0
C1073 C 0.83037 0.90872 0.33048 0.0
C1074 C 0.86603 0.95747 0.26266 0.0
C1075 C 0.8606 0.92414 0.25838 0.0
H1076 H 0.05469 0.90197 0.23444 0.0
H1077 H 0.04594 0.87757 0.37676 0.0
H1078 H 0.10509 0.92478 0.38943 0.0
H1079 H 0.15695 0.97707 0.36115 0.0
H1080 H 0.16407 0.00138 0.21871 0.0
H1081 H 0.1081 0.95011 0.20516 0.0
C1082 C 0.06582 0.9067 0.2682 0.0
C1083 C 0.04575 0.88631 0.30453 0.0
C1084 C 0.09956 0.93413 0.27533 0.0
C1085 C 0.06078 0.89257 0.34799 0.0
C1086 C 0.09457 0.91982 0.35535 0.0
C1087 C 0.14655 0.97081 0.32702 0.0
C1088 C 0.16463 0.99335 0.29107 0.0
C1089 C 0.1139 0.94134 0.31943 0.0
C1090 C 0.15069 0.98475 0.24709 0.0
C1091 C 0.11859 0.95542 0.23927 0.0
H1092 H 0.16184 0.10688 0.65532 0.0
H1093 H 0.11129 0.07747 0.78509 0.0
H1094 H 0.12237 0.02966 0.7895 0.0
H1095 H 0.14158 0.99306 0.75425 0.0
H1096 H 0.19185 0.02057 0.62436 0.0
H1097 H 0.18588 0.07203 0.62233 0.0
C1098 C 0.15396 0.09043 0.68493 0.0
C1099 C 0.13565 0.09579 0.71982 0.0
C1100 C 0.15994 0.06228 0.68702 0.0
C1101 C 0.12518 0.07385 0.75763 0.0
C1102 C 0.13148 0.04642 0.76022 0.0
C1103 C 0.15173 0.01049 0.72569 0.0
C1104 C 0.16661 0.00249 0.68915 0.0
C1105 C 0.14809 0.03989 0.72472 0.0
C1106 C 0.17971 0.02568 0.65264 0.0
C1107 C 0.17637 0.05522 0.65152 0.0
H1108 H 0.91759 0.05089 0.79691 0.0
H1109 H 0.87275 0.04922 0.66666 0.0
H1110 H 0.91689 0.10939 0.65439 0.0
H1111 H 0.97154 0.16112 0.67791 0.0
H1112 H 0.01625 0.16154 0.80792 0.0
H1113 H 0.96886 0.10367 0.82297 0.0
C1114 C 0.91722 0.06378 0.76603 0.0
C1115 C 0.89176 0.04544 0.73295 0.0
C1116 C 0.94291 0.09828 0.75893 0.0
C1117 C 0.89161 0.06269 0.69318 0.0
C1118 C 0.91712 0.09711 0.68588 0.0
C1119 C 0.97071 0.14869 0.7097 0.0
C1120 C 0.99778 0.16566 0.7414 0.0
C1121 C 0.94335 0.11498 0.71814 0.0
C1122 C 0.99599 0.14921 0.78269 0.0
C1123 C 0.96889 0.11595 0.79136 0.0
H1124 H 0.9603 0.85731 0.75831 0.0
H1125 H 0.95243 0.82172 0.62072 0.0
H1126 H 0.89233 0.80875 0.6168 0.0
H1127 H 0.84433 0.81355 0.65017 0.0
H1128 H 0.85318 0.84952 0.78804 0.0
H1129 H 0.91043 0.85591 0.79428 0.0
C1130 C 0.94524 0.84626 0.72768 0.0
C1131 C 0.96077 0.84067 0.68983 0.0
C1132 C 0.91095 0.83914 0.72564 0.0
C1133 C 0.94095 0.82601 0.65046 0.0
C1134 C 0.90668 0.81885 0.6481 0.0
C1135 C 0.85855 0.82226 0.68183 0.0
C1136 C 0.84459 0.83147 0.71841 0.0
C1137 C 0.89172 0.82617 0.68514 0.0
C1138 C 0.86329 0.84245 0.75926 0.0
C1139 C 0.89614 0.84625 0.76284 0.0
H1140 H 0.67429 0.49753 0.60507 0.0
H1141 H 0.68231 0.51675 0.74895 0.0
H1142 H 0.73419 0.51159 0.75232 0.0
H1143 H 0.77373 0.49506 0.7153 0.0
H1144 H 0.76255 0.47276 0.5722 0.0
H1145 H 0.71602 0.48607 0.56749 0.0
C1146 C 0.68757 0.50106 0.63714 0.0
C1147 C 0.67414 0.50731 0.67672 0.0
C1148 C 0.71697 0.49736 0.63896 0.0
C1149 C 0.69194 0.51191 0.7179 0.0
C1150 C 0.72162 0.50881 0.71989 0.0
C1151 C 0.76164 0.49405 0.68299 0.0
C1152 C 0.77162 0.48309 0.64405 0.0
C1153 C 0.73394 0.5007 0.68078 0.0
C1154 C 0.75533 0.48121 0.60254 0.0
C1155 C 0.72859 0.48864 0.59987 0.0
H1156 H 0.49443 0.28156 0.70976 0.0
H1157 H 0.57037 0.32117 0.60315 0.0
H1158 H 0.56324 0.26428 0.59138 0.0
H1159 H 0.54036 0.20501 0.61599 0.0
H1160 H 0.46453 0.1637 0.72236 0.0
H1161 H 0.46629 0.21908 0.72901 0.0
C1162 C 0.50879 0.27753 0.68331 0.0
C1163 C 0.53317 0.30583 0.65766 0.0
C1164 C 0.50487 0.24444 0.67689 0.0
C1165 C 0.55178 0.30007 0.62381 0.0
C1166 C 0.54773 0.26747 0.61696 0.0
C1167 C 0.52377 0.20781 0.64022 0.0
C1168 C 0.50285 0.18032 0.66917 0.0
C1169 C 0.52512 0.23972 0.64409 0.0
C1170 C 0.48118 0.18449 0.69986 0.0
C1171 C 0.48225 0.21626 0.70379 0.0
H1172 H 0.7982 0.30379 0.70556 0.0
H1173 H 0.82218 0.31012 0.56313 0.0
H1174 H 0.76787 0.25689 0.54898 0.0
H1175 H 0.71244 0.21036 0.57604 0.0
H1176 H 0.68761 0.20386 0.71813 0.0
H1177 H 0.74367 0.255 0.73342 0.0
C1178 C 0.79162 0.29344 0.67145 0.0
C1179 C 0.81411 0.31114 0.63538 0.0
C1180 C 0.76025 0.26275 0.66346 0.0
C1181 C 0.80534 0.29715 0.59149 0.0
C1182 C 0.77424 0.26671 0.58332 0.0
C1183 C 0.71927 0.22002 0.61044 0.0
C1184 C 0.69574 0.20319 0.64577 0.0
C1185 C 0.75131 0.24961 0.61891 0.0
C1186 C 0.70526 0.21589 0.69024 0.0
C1187 C 0.73725 0.24538 0.69899 0.0
H1188 H 0.82268 0.4323 0.1054 0.0
H1189 H 0.83321 0.45511 0.96247 0.0
H1190 H 0.84177 0.40614 0.94817 0.0
H1191 H 0.84077 0.35354 0.97581 0.0
H1192 H 0.82841 0.33051 0.11859 0.0
H1193 H 0.82653 0.38307 0.13345 0.0
C1194 C 0.82716 0.42677 0.07112 0.0
C1195 C 0.8271 0.44726 0.03513 0.0
C1196 C 0.83147 0.39832 0.06307 0.0
C1197 C 0.83342 0.44003 0.99096 0.0
C1198 C 0.83799 0.41178 0.98268 0.0
C1199 C 0.83758 0.36005 1.01008 0.0
C1200 C 0.8339 0.33772 0.04585 0.0
C1201 C 0.83615 0.39022 0.01837 0.0
C1202 C 0.83103 0.34706 0.09037 0.0
C1203 C 0.82983 0.37707 0.09891 0.0
H1204 H 0.63358 0.48997 0.99716 0.0
H1205 H 0.68375 0.47604 0.11384 0.0
H1206 H 0.63526 0.41828 0.1244 0.0
H1207 H 0.58152 0.36952 0.09712 0.0
H1208 H 0.5303 0.38096 0.97998 0.0
H1209 H 0.57595 0.44132 0.97308 0.0
C1210 C 0.63382 0.47429 0.02488 0.0
C1211 C 0.6629 0.48735 0.05392 0.0
C1212 C 0.60569 0.44034 0.03057 0.0
C1213 C 0.66216 0.46687 0.0905 0.0
C1214 C 0.63437 0.43359 0.09659 0.0
C1215 C 0.58006 0.38517 0.07016 0.0
C1216 C 0.55252 0.37023 0.03883 0.0
C1217 C 0.60649 0.41973 0.06621 0.0
C1218 C 0.55101 0.39138 1.00468 0.0
C1219 C 0.57732 0.42604 1.00057 0.0
H1220 H 0.60198 0.17072 0.09957 0.0
H1221 H 0.61141 0.15318 0.95812 0.0
H1222 H 0.55258 0.14212 0.94409 0.0
H1223 H 0.50063 0.1433 0.97131 0.0
H1224 H 0.49277 0.16106 0.11348 0.0
H1225 H 0.54862 0.166 0.12779 0.0
C1226 C 0.59102 0.16405 0.06572 0.0
C1227 C 0.61114 0.16301 0.02997 0.0
C1228 C 0.55749 0.15806 0.05794 0.0
C1229 C 0.59643 0.15393 0.98638 0.0
C1230 C 0.56287 0.1479 0.97828 0.0
C1231 C 0.51093 0.14775 1.0055 0.0
C1232 C 0.49255 0.15221 0.04116 0.0
C1233 C 0.54345 0.15074 0.01367 0.0
C1234 C 0.5063 0.1578 0.08527 0.0
C1235 C 0.53836 0.16069 0.09357 0.0
H1236 H 0.33679 0.8114 0.93279 0.0
H1237 H 0.37142 0.87494 0.05287 0.0
H1238 H 0.42066 0.86534 0.05941 0.0
H1239 H 0.45027 0.83343 0.0351 0.0
H1240 H 0.41288 0.76858 0.91619 0.0
H1241 H 0.3686 0.78432 0.90504 0.0
C1242 C 0.35538 0.82374 0.96002 0.0
C1243 C 0.35006 0.84348 0.99267 0.0
C1244 C 0.38311 0.81756 0.964 0.0
C1245 C 0.37463 0.85928 0.02754 0.0
C1246 C 0.40279 0.85374 0.03132 0.0
C1247 C 0.4329 0.82342 1.00623 0.0
C1248 C 0.43486 0.79976 0.97653 0.0
C1249 C 0.40678 0.83209 1.00042 0.0
C1250 C 0.41179 0.7866 0.9397 0.0
C1251 C 0.38643 0.79559 0.93326 0.0
H1252 H 0.18513 0.52744 0.92284 0.0
H1253 H 0.13756 0.5058 0.05452 0.0
H1254 H 0.14215 0.56259 0.05591 0.0
H1255 H 0.16516 0.62088 0.02245 0.0
H1256 H 0.21288 0.64124 0.89076 0.0
H1257 H 0.20222 0.58244 0.88642 0.0
C1258 C 0.17526 0.53483 0.95162 0.0
C1259 C 0.16173 0.51261 0.98895 0.0
C1260 C 0.17807 0.5675 0.95222 0.0
C1261 C 0.14878 0.52266 0.0257 0.0
C1262 C 0.15132 0.55515 0.02646 0.0
C1263 C 0.17242 0.61216 0.99238 0.0
C1264 C 0.18995 0.63556 0.95704 0.0
C1265 C 0.16673 0.57819 0.99034 0.0
C1266 C 0.19961 0.62389 0.91859 0.0
C1267 C 0.19358 0.59024 0.91606 0.0
H1268 H 0.48237 0.65756 0.92859 0.0
H1269 H 0.50696 0.63714 0.0622 0.0
H1270 H 0.44927 0.58631 0.0681 0.0
H1271 H 0.3893 0.55124 0.03825 0.0
H1272 H 0.36538 0.57429 0.90577 0.0
H1273 H 0.42514 0.62004 0.8964 0.0
C1274 C 0.4754 0.64174 0.95878 0.0
C1275 C 0.49902 0.65146 0.99499 0.0
C1276 C 0.442 0.61295 0.96227 0.0
C1277 C 0.48938 0.63043 0.03376 0.0
C1278 C 0.45625 0.60136 0.03725 0.0
C1279 C 0.39746 0.56576 1.00697 0.0
C1280 C 0.37289 0.55939 0.97275 0.0
C1281 C 0.43197 0.59284 1.00215 0.0
C1282 C 0.38374 0.57879 0.93268 0.0
C1283 C 0.41791 0.60504 0.9273 0.0
H1284 H 0.4669 0.65475 0.43229 0.0
H1285 H 0.53846 0.6888 0.32088 0.0
H1286 H 0.53235 0.73987 0.31183 0.0
H1287 H 0.50195 0.77199 0.33127 0.0
H1288 H 0.42902 0.73533 0.4413 0.0
H1289 H 0.44065 0.68857 0.45537 0.0
C1290 C 0.4817 0.67359 0.40648 0.0
C1291 C 0.50282 0.66765 0.37701 0.0
C1292 C 0.47761 0.7025 0.40103 0.0
C1293 C 0.52174 0.6925 0.34381 0.0
C1294 C 0.51822 0.72174 0.33859 0.0
C1295 C 0.48924 0.75419 0.3589 0.0
C1296 C 0.46458 0.75716 0.38518 0.0
C1297 C 0.49554 0.72662 0.36632 0.0
C1298 C 0.44793 0.73353 0.42042 0.0
C1299 C 0.45454 0.70672 0.42852 0.0
H1300 H 0.33237 0.81962 0.44502 0.0
H1301 H 0.31147 0.83668 0.30764 0.0
H1302 H 0.25787 0.7809 0.30747 0.0
H1303 H 0.22048 0.72441 0.34367 0.0
H1304 H 0.24353 0.70746 0.48007 0.0
H1305 H 0.2926 0.76606 0.48329 0.0
C1306 C 0.3159 0.81143 0.41519 0.0
C1307 C 0.32616 0.83221 0.37629 0.0
C1308 C 0.28554 0.77912 0.41505 0.0
C1309 C 0.30429 0.8212 0.33807 0.0
C1310 C 0.27368 0.78919 0.33787 0.0
C1311 C 0.2357 0.73385 0.37448 0.0
C1312 C 0.22836 0.71155 0.41161 0.0
C1313 C 0.26449 0.76751 0.3758 0.0
C1314 C 0.24876 0.72403 0.45096 0.0
C1315 C 0.27687 0.75753 0.45283 0.0
H1316 H 0.29033 0.53847 0.43562 0.0
H1317 H 0.28097 0.4939 0.30326 0.0
H1318 H 0.22045 0.47968 0.29867 0.0
H1319 H 0.17171 0.48458 0.33006 0.0
H1320 H 0.18181 0.5282 0.46361 0.0
H1321 H 0.24021 0.53768 0.47008 0.0
C1322 C 0.27489 0.52524 0.40599 0.0
C1323 C 0.29017 0.51744 0.36977 0.0
C1324 C 0.24021 0.51706 0.40374 0.0
C1325 C 0.2698 0.50001 0.33175 0.0
C1326 C 0.23523 0.49207 0.32902 0.0
C1327 C 0.18649 0.49566 0.36086 0.0
C1328 C 0.17231 0.50591 0.39615 0.0
C1329 C 0.22035 0.50112 0.36448 0.0
C1330 C 0.19189 0.52009 0.43586 0.0
C1331 C 0.22545 0.52569 0.43956 0.0
H1332 H 0.37473 0.0806 0.43626 0.0
H1333 H 0.36113 0.11465 0.30524 0.0
H1334 H 0.39682 0.0938 0.2705 0.0
H1335 H 0.42386 0.05825 0.27616 0.0
H1336 H 0.433 0.01972 0.40623 0.0
H1337 H 0.4073 0.05034 0.44309 0.0
C1338 C 0.38032 0.08409 0.40031 0.0
C1339 C 0.36513 0.09838 0.373 0.0
C1340 C 0.39955 0.07088 0.38054 0.0
C1341 C 0.37225 0.10297 0.32649 0.0
C1342 C 0.39256 0.09113 0.30674 0.0
C1343 C 0.42081 0.05719 0.31267 0.0
C1344 C 0.42937 0.03636 0.33849 0.0
C1345 C 0.4051 0.07381 0.3332 0.0
C1346 C 0.42559 0.03503 0.38573 0.0
C1347 C 0.41109 0.05257 0.40675 0.0
H1348 H 0.98281 0.40872 0.37208 0.0
H1349 H 0.9675 0.3703 0.23489 0.0
H1350 H 0.93321 0.31106 0.26246 0.0
H1351 H 0.91236 0.27081 0.32572 0.0
H1352 H 0.92993 0.30909 0.46308 0.0
H1353 H 0.95872 0.36851 0.4352 0.0
C1354 C 0.97216 0.38731 0.3483 0.0
C1355 C 0.97836 0.39336 0.30179 0.0
C1356 C 0.95317 0.3537 0.36437 0.0
C1357 C 0.96325 0.36585 0.27094 0.0
C1358 C 0.94385 0.33217 0.28665 0.0
C1359 C 0.92275 0.29222 0.34949 0.0
C1360 C 0.92022 0.28606 0.39622 0.0
C1361 C 0.9395 0.32588 0.33331 0.0
C1362 C 0.9322 0.31363 0.4269 0.0
C1363 C 0.94865 0.3474 0.41103 0.0
H1364 H 0.64363 0.57562 0.29268 0.0
H1365 H 0.5911 0.56908 0.41783 0.0
H1366 H 0.64616 0.59614 0.45851 0.0
H1367 H 0.7095 0.63031 0.45547 0.0
H1368 H 0.76155 0.63955 0.32919 0.0
H1369 H 0.70626 0.6018 0.29202 0.0
C1370 C 0.64413 0.57943 0.32903 0.0
C1371 C 0.61369 0.57166 0.35193 0.0
C1372 C 0.67577 0.59558 0.35187 0.0
C1373 C 0.61452 0.57624 0.39912 0.0
C1374 C 0.64591 0.59145 0.42246 0.0
C1375 C 0.70865 0.62317 0.42017 0.0
C1376 C 0.73906 0.63804 0.39467 0.0
C1377 C 0.67679 0.60263 0.39874 0.0
C1378 C 0.73808 0.62878 0.34903 0.0
C1379 C 0.70658 0.60732 0.32783 0.0
H1380 H 0.08836 0.38196 0.58522 0.0
H1381 H 0.00037 0.27887 0.57967 0.0
H1382 H 0.96208 0.30114 0.59938 0.0
H1383 H 0.95712 0.3468 0.63849 0.0
H1384 H 0.04732 0.44751 0.65519 0.0
H1385 H 0.0815 0.42959 0.6105 0.0
C1386 C 0.06063 0.36451 0.58658 0.0
C1387 C 0.04718 0.32882 0.58282 0.0
C1388 C 0.03944 0.3771 0.60118 0.0
C1389 C 0.01126 0.30643 0.58394 0.0
C1390 C 0.98948 0.31912 0.59547 0.0
C1391 C 0.98397 0.36505 0.63097 0.0
C1392 C 0.00013 0.3981 0.65046 0.0
C1393 C 0.00374 0.35395 0.60756 0.0
C1394 C 0.03482 0.42171 0.64097 0.0
C1395 C 0.05424 0.41149 0.61545 0.0
H1396 H 0.59068 0.60408 0.64788 0.0
H1397 H 0.5926 0.64789 0.77885 0.0
H1398 H 0.62218 0.70586 0.7464 0.0
H1399 H 0.65112 0.74349 0.6825 0.0
H1400 H 0.65129 0.70032 0.55197 0.0
H1401 H 0.61624 0.64185 0.5824 0.0
C1402 C 0.59792 0.62641 0.66929 0.0
C1403 C 0.5907 0.62229 0.71575 0.0
C1404 C 0.61486 0.65929 0.65052 0.0
C1405 C 0.59859 0.65093 0.74305 0.0
C1406 C 0.61537 0.68385 0.72459 0.0
C1407 C 0.64341 0.72118 0.66081 0.0
C1408 C 0.65425 0.72559 0.61568 0.0
C1409 C 0.6242 0.68824 0.67866 0.0
C1410 C 0.6433 0.69701 0.58707 0.0
C1411 C 0.62358 0.66383 0.60447 0.0
H1412 H 0.40622 0.98348 0.6736 0.0
H1413 H 0.35991 0.97352 0.8047 0.0
H1414 H 0.30218 0.93998 0.77081 0.0
H1415 H 0.26578 0.91909 0.70296 0.0
H1416 H 0.31277 0.93287 0.57141 0.0
H1417 H 0.36997 0.95959 0.60666 0.0
C1418 C 0.38344 0.9741 0.6947 0.0
C1419 C 0.38688 0.98174 0.74113 0.0
C1420 C 0.35081 0.95595 0.67493 0.0
C1421 C 0.35752 0.96819 0.76867 0.0
C1422 C 0.3247 0.94928 0.74932 0.0
C1423 C 0.28857 0.92834 0.68197 0.0
C1424 C 0.28542 0.92524 0.63463 0.0
C1425 C 0.32115 0.94408 0.7023 0.0
C1426 C 0.31485 0.93559 0.60792 0.0
C1427 C 0.34742 0.95083 0.62797 0.0
H1428 H 0.64962 0.92173 0.71944 0.0
H1429 H 0.74126 0.01011 0.6674 0.0
H1430 H 0.71338 0.04504 0.67408 0.0
H1431 H 0.66237 0.05007 0.69354 0.0
H1432 H 0.57116 0.96113 0.74575 0.0
H1433 H 0.59971 0.92707 0.74067 0.0
C1434 C 0.66352 0.9486 0.70933 0.0
C1435 C 0.69742 0.96317 0.69262 0.0
C1436 C 0.64747 0.96854 0.71361 0.0
C1437 C 0.71512 0.99818 0.68025 0.0
C1438 C 0.69919 0.01818 0.68414 0.0
C1439 C 0.64882 0.0233 0.70413 0.0
C1440 C 0.61454 0.00821 0.71986 0.0
C1441 C 0.66533 0.00362 0.70073 0.0
C1442 C 0.59746 0.97347 0.73342 0.0
C1443 C 0.61374 0.95388 0.73039 0.0
H1444 H 0.93219 0.60115 0.6733 0.0
H1445 H 0.0143 0.59514 0.74231 0.0
H1446 H 0.05351 0.65633 0.72897 0.0
H1447 H 0.0653 0.71102 0.69587 0.0
H1448 H 0.98398 0.71835 0.62698 0.0
H1449 H 0.94378 0.65712 0.64171 0.0
C1450 C 0.95854 0.61333 0.68588 0.0
C1451 C 0.97025 0.59347 0.70875 0.0
C1452 C 0.98125 0.64866 0.67757 0.0
C1453 C 0.00457 0.60969 0.72455 0.0
C1454 C 0.0271 0.64471 0.71678 0.0
C1455 C 0.03885 0.69926 0.68376 0.0
C1456 C 0.02779 0.71922 0.65997 0.0
C1457 C 0.01588 0.6643 0.69281 0.0
C1458 C 0.99324 0.70356 0.64516 0.0
C1459 C 0.97022 0.66857 0.65372 0.0
H1460 H 0.26977 0.26002 0.69346 0.0
H1461 H 0.2628 0.33383 0.60674 0.0
H1462 H 0.32513 0.37154 0.61076 0.0
H1463 H 0.38122 0.38559 0.6417 0.0
H1464 H 0.39053 0.31346 0.72877 0.0
H1465 H 0.328 0.27328 0.72187 0.0
C1466 C 0.282 0.2841 0.67491 0.0
C1467 C 0.26137 0.29401 0.64988 0.0
C1468 C 0.31832 0.30626 0.67788 0.0
C1469 C 0.27778 0.32551 0.62642 0.0
C1470 C 0.31354 0.34723 0.62877 0.0
C1471 C 0.36973 0.36109 0.6593 0.0
C1472 C 0.39068 0.35283 0.68615 0.0
C1473 C 0.33397 0.33822 0.65502 0.0
C1474 C 0.37513 0.32065 0.70803 0.0
C1475 C 0.33931 0.29765 0.70406 0.0
H1476 H 0.06362 0.67519 0.3624 0.0
H1477 H -0.0014 0.5975 0.26478 0.0
H1478 H 0.9594 0.62044 0.26326 0.0
H1479 H 0.94269 0.66132 0.29065 0.0
H1480 H 0.0065 0.73888 0.38895 0.0
H1481 H 0.04692 0.71705 0.38949 0.0
C1482 C 0.04106 0.66353 0.34047 0.0
C1483 C 0.03408 0.63466 0.31371 0.0
C1484 C 0.01822 0.67657 0.34023 0.0
C1485 C 0.00458 0.61968 0.28577 0.0
C1486 C 0.98206 0.63272 0.28495 0.0
C1487 C 0.96535 0.67346 0.31238 0.0
C1488 C 0.9715 0.7017 0.3398 0.0
C1489 C 0.98843 0.66088 0.31236 0.0
C1490 C 0.00113 0.71712 0.36754 0.0
C1491 C 0.02429 0.70467 0.36777 0.0
H1492 H 0.25587 0.27245 0.32985 0.0
H1493 H 0.33913 0.25964 0.38185 0.0
H1494 H 0.37835 0.32148 0.37835 0.0
H1495 H 0.39002 0.37906 0.35942 0.0
H1496 H 0.30836 0.39427 0.30755 0.0
H1497 H 0.26781 0.3319 0.31176 0.0
C1498 C 0.2825 0.2833 0.34079 0.0
C1499 C 0.29441 0.26121 0.35603 0.0
C1500 C 0.30541 0.31935 0.33829 0.0
C1501 C 0.32913 0.27578 0.36978 0.0
C1502 C 0.35173 0.31126 0.36774 0.0
C1503 C 0.3634 0.36889 0.34878 0.0
C1504 C 0.35241 0.39147 0.33295 0.0
C1505 C 0.3403 0.33323 0.35167 0.0
C1506 C 0.31764 0.37756 0.31974 0.0
C1507 C 0.2944 0.34186 0.32227 0.0
H1508 H 0.60443 0.99788 0.385 0.0
H1509 H 0.6006 0.91004 0.31913 0.0
H1510 H 0.66375 0.93754 0.32531 0.0
H1511 H 0.72041 0.98777 0.34789 0.0
H1512 H 0.72225 0.07476 0.41395 0.0
H1513 H 0.65958 0.04618 0.40951 0.0
C1514 C 0.6173 0.98465 0.37184 0.0
C1515 C 0.59776 0.95201 0.35134 0.0
C1516 C 0.65337 0.00048 0.37572 0.0
C1517 C 0.61499 0.93519 0.33504 0.0
C1518 C 0.65111 0.95093 0.33857 0.0
C1519 C 0.70705 0.00031 0.36163 0.0
C1520 C 0.72621 0.03353 0.38105 0.0
C1521 C 0.67064 0.98371 0.35871 0.0
C1522 C 0.70837 0.04935 0.39864 0.0
C1523 C 0.67243 0.03304 0.39606 0.0
H1524 H 0.73388 0.75511 0.08931 0.0
H1525 H 0.69794 0.77554 0.9637 0.0
H1526 H 0.72768 0.75148 0.92109 0.0
H1527 H 0.75227 0.71355 0.92132 0.0
H1528 H 0.7839 0.68908 0.04757 0.0
H1529 H 0.76799 0.72643 0.0884 0.0
C1530 C 0.73347 0.75524 0.05256 0.0
C1531 C 0.71292 0.76577 0.02955 0.0
C1532 C 0.7493 0.74013 0.02861 0.0
C1533 C 0.71277 0.76634 0.982 0.0
C1534 C 0.72975 0.75266 0.9577 0.0
C1535 C 0.75652 0.71717 0.9576 0.0
C1536 C 0.76785 0.69778 0.98178 0.0
C1537 C 0.74625 0.73762 0.98086 0.0
C1538 C 0.77386 0.70288 0.02863 0.0
C1539 C 0.76495 0.7243 0.0519 0.0
H1540 H 0.24201 0.96888 0.09633 0.0
H1541 H 0.21156 0.90828 0.97348 0.0
H1542 H 0.22831 0.96004 0.92884 0.0
H1543 H 0.26438 0.0226 0.92436 0.0
H1544 H 0.29869 0.08349 0.04694 0.0
H1545 H 0.26685 0.03147 0.09231 0.0
C1546 C 0.23802 0.96692 0.05994 0.0
C1547 C 0.22706 0.93538 0.03787 0.0
C1548 C 0.24894 0.99686 0.0345 0.0
C1549 C 0.22131 0.93277 0.99086 0.0
C1550 C 0.23079 0.96227 0.96539 0.0
C1551 C 0.26401 0.02461 0.96095 0.0
C1552 C 0.28507 0.05638 0.98244 0.0
C1553 C 0.24675 0.99461 0.98669 0.0
C1554 C 0.28385 0.05891 0.02978 0.0
C1555 C 0.26557 0.02924 0.05571 0.0
H1556 H 0.93799 0.31148 1.00637 0.0
H1557 H 0.94236 0.22054 0.9691 0.0
H1558 H 0.99471 0.24042 0.01471 0.0
H1559 H 0.04091 0.28536 0.06027 0.0
H1560 H 0.0393 0.37841 0.09256 0.0
H1561 H 0.98281 0.35523 0.05534 0.0
C1562 C 0.95017 0.29582 1.00879 0.0
C1563 C 0.93656 0.26464 0.98472 0.0
C1564 C 0.98019 0.30751 0.03461 0.0
C1565 C 0.95281 0.24485 0.98713 0.0
C1566 C 0.98243 0.256 0.01344 0.0
C1567 C 0.02762 0.30005 0.06023 0.0
C1568 C 0.04363 0.33322 0.07907 0.0
C1569 C 0.99646 0.28742 0.03686 0.0
C1570 C 0.02695 0.35264 0.07823 0.0
C1571 C 0.99502 0.33958 0.05667 0.0
H1572 H 0.31308 0.26412 0.02888 0.0
H1573 H 0.40977 0.34734 0.97969 0.0
H1574 H 0.38718 0.38709 0.98616 0.0
H1575 H 0.33895 0.39794 1.00536 0.0
H1576 H 0.24284 0.31296 0.05362 0.0
H1577 H 0.26637 0.27461 0.04841 0.0
C1578 C 0.32935 0.29093 0.01936 0.0
C1579 C 0.36312 0.30254 1.00364 0.0
C1580 C 0.31628 0.31356 0.02334 0.0
C1581 C 0.38366 0.33753 0.99178 0.0
C1582 C 0.37074 0.36033 0.9956 0.0
C1583 C 0.32335 0.37112 0.01512 0.0
C1584 C 0.28904 0.35849 0.02986 0.0
C1585 C 0.337 0.34867 1.01144 0.0
C1586 C 0.26918 0.32352 0.04198 0.0
C1587 C 0.2826 0.30142 0.03897 0.0
H1588 H 0.67419 0.93246 1.00056 0.0
H1589 H 0.57871 0.92438 0.04542 0.0
H1590 H 0.60333 0.98663 0.03451 0.0
H1591 H 0.65256 0.04366 1.01255 0.0
H1592 H 0.74732 0.05004 0.96729 0.0
H1593 H 0.72217 0.98816 0.97755 0.0
C1594 C 0.6587 0.94421 1.00826 0.0
C1595 C 0.62468 0.92369 0.02412 0.0
C1596 C 0.67284 0.9798 1.00144 0.0
C1597 C 0.605 0.93952 0.03336 0.0
C1598 C 0.61906 0.97513 0.02699 0.0
C1599 C 0.6676 0.03145 1.00461 0.0
C1600 C 0.7019 0.05167 0.98922 0.0
C1601 C 0.65299 0.99557 1.01095 0.0
C1602 C 0.72097 0.03532 0.97926 0.0
C1603 C 0.70663 -0.00015 0.98523 0.0
H1604 H 0.95001 0.68727 0.01731 0.0
H1605 H 0.94236 0.59424 0.96295 0.0
H1606 H 0.00504 0.61933 0.97159 0.0
H1607 H 0.06232 0.66808 0.99522 0.0
H1608 H 0.06809 0.76023 0.0502 0.0
H1609 H 0.00595 0.73487 0.04114 0.0
C1610 C 0.96194 0.67243 1.00697 0.0
C1611 C 0.94137 0.63892 0.98924 0.0
C1612 C 0.99779 0.6868 1.0126 0.0
C1613 C 0.95749 0.62012 0.97654 0.0
C1614 C 0.99336 0.63444 0.98164 0.0
C1615 C 0.04992 0.68248 1.0055 0.0
C1616 C 0.07007 0.71612 0.02341 0.0
C1617 C 0.01382 0.66775 0.99989 0.0
C1618 C 0.05346 0.7344 0.0363 0.0
C1619 C 0.01782 0.71994 0.03102 0.0
loop_
_geom_bond_atom_site_label_1
_geom_bond_atom_site_label_2
_geom_bond_distance
_geom_bond_site_symmetry_2
_ccdc_geom_bond_type
Zn0 N4 2.020 . S
Zn0 O8 2.019 . S
Zn0 N10 2.119 . S
Zn0 O18 1.975 . S
C1 N2 1.334 . S
C1 N5 1.336 . S
N2 C1 1.334 . S
N2 C3 1.334 . S
C3 N2 1.334 . S
C3 N4 1.336 . S
N4 Zn0 2.020 . S
N4 C3 1.336 . S
N4 N5 1.354 . S
N5 C1 1.336 . S
N5 N4 1.354 . S
N5 Zn9 2.020 . S
C6 O7 1.244 . S
C6 O30 1.257 . S
O7 C6 1.244 . S
O8 Zn0 2.019 . S
O8 C28 1.257 . S
Zn9 N5 2.020 . S
Zn9 O16 1.975 . S
Zn9 N25 2.119 . S
Zn9 O30 2.019 . S
N10 Zn0 2.119 . S
N10 C12 1.334 . S
N10 C13 1.328 . S
C11 C12 1.391 . S
C11 N14 1.329 . S
C11 H32 0.930 . S
C12 N10 1.334 . S
C12 C11 1.391 . S
C12 H19 0.930 . S
C13 N10 1.328 . S
C13 C15 1.392 . S
C13 H20 0.930 . S
N14 C11 1.329 . S
N14 C15 1.331 . S
C15 C13 1.392 . S
C15 N14 1.331 . S
O16 Zn9 1.975 . S
O16 C17 1.252 . S
C17 O16 1.252 . S
C17 O18 1.252 . S
O18 Zn0 1.975 . S
O18 C17 1.252 . S
H19 C12 0.930 . S
H20 C13 0.930 . S
C21 C22 1.392 . S
C21 N25 1.328 . S
C21 H27 0.930 . S
C22 C21 1.392 . S
C22 N26 1.331 . S
C23 C24 1.391 . S
C23 N26 1.329 . S
C23 H33 0.930 . S
C24 C23 1.391 . S
C24 N25 1.334 . S
C24 H31 0.930 . S
N25 Zn9 2.119 . S
N25 C21 1.328 . S
N25 C24 1.334 . S
N26 C22 1.331 . S
N26 C23 1.329 . S
H27 C21 0.930 . S
C28 O8 1.257 . S
C28 O29 1.244 . S
O29 C28 1.244 . S
O30 C6 1.257 . S
O30 Zn9 2.019 . S
H31 C24 0.930 . S
H32 C11 0.930 . S
H33 C23 0.930 . S
Zn34 N38 2.020 . S
Zn34 O42 2.019 . S
Zn34 N44 2.119 . S
Zn34 O52 1.975 . S
C35 N36 1.334 . S
C35 N39 1.336 . S
N36 C35 1.334 . S
N36 C37 1.334 . S
C37 N36 1.334 . S
C37 N38 1.336 . S
N38 Zn34 2.020 . S
N38 C37 1.336 . S
N38 N39 1.354 . S
N39 C35 1.336 . S
N39 N38 1.354 . S
N39 Zn43 2.020 . S
C40 O41 1.244 . S
C40 O64 1.257 . S
O41 C40 1.244 . S
O42 Zn34 2.019 . S
O42 C62 1.257 . S
Zn43 N39 2.020 . S
Zn43 O50 1.975 . S
Zn43 N59 2.119 . S
Zn43 O64 2.019 . S
N44 Zn34 2.119 . S
N44 C46 1.334 . S
N44 C47 1.328 . S
C45 C46 1.391 . S
C45 N48 1.329 . S
C45 H66 0.930 . S
C46 N44 1.334 . S
C46 C45 1.391 . S
C46 H53 0.930 . S
C47 N44 1.328 . S
C47 C49 1.392 . S
C47 H54 0.930 . S
N48 C45 1.329 . S
N48 C49 1.331 . S
C49 C47 1.392 . S
C49 N48 1.331 . S
O50 Zn43 1.975 . S
O50 C51 1.252 . S
C51 O50 1.252 . S
C51 O52 1.252 . S
O52 Zn34 1.975 . S
O52 C51 1.252 . S
H53 C46 0.930 . S
H54 C47 0.930 . S
C55 C56 1.428 . S
C55 N59 1.303 1_565 S
C55 H61 0.920 . S
C56 C55 1.428 . S
C56 N60 1.331 . S
C57 C58 1.391 . S
C57 N60 1.329 1_545 S
C57 H67 0.930 . S
C58 C57 1.391 . S
C58 N59 1.334 . S
C58 H65 0.930 . S
N59 Zn43 2.119 . S
N59 C55 1.303 1_545 S
N59 C58 1.334 . S
N60 C56 1.331 . S
N60 C57 1.329 1_565 S
H61 C55 0.920 . S
C62 O42 1.257 . S
C62 O63 1.244 . S
O63 C62 1.244 . S
O64 C40 1.257 . S
O64 Zn43 2.019 . S
H65 C58 0.930 . S
H66 C45 0.930 . S
H67 C57 0.930 . S
Zn68 N72 2.020 . S
Zn68 O76 2.019 . S
Zn68 N78 2.119 . S
Zn68 O86 1.975 . S
C69 N70 1.334 . S
C69 N73 1.336 . S
N70 C69 1.334 . S
N70 C71 1.334 . S
C71 N70 1.334 . S
C71 N72 1.336 . S
N72 Zn68 2.020 . S
N72 C71 1.336 . S
N72 N73 1.354 . S
N73 C69 1.336 . S
N73 N72 1.354 . S
N73 Zn77 2.020 . S
C74 O75 1.244 . S
C74 O98 1.257 . S
O75 C74 1.244 . S
O76 Zn68 2.019 . S
O76 C96 1.257 . S
Zn77 N73 2.020 . S
Zn77 O84 1.975 . S
Zn77 N93 2.119 . S
Zn77 O98 2.019 . S
N78 Zn68 2.119 . S
N78 C80 1.334 . S
N78 C81 1.289 1_655 S
C79 C80 1.391 . S
C79 N82 1.329 1_655 S
C79 H100 0.930 . S
C80 N78 1.334 . S
C80 C79 1.391 . S
C80 H87 0.930 . S
C81 N78 1.289 1_455 S
C81 C83 1.406 . S
C81 H88 0.957 . S
N82 C79 1.329 1_455 S
N82 C83 1.331 . S
C83 C81 1.406 . S
C83 N82 1.331 . S
O84 Zn77 1.975 . S
O84 C85 1.252 . S
C85 O84 1.252 . S
C85 O86 1.252 . S
O86 Zn68 1.975 . S
O86 C85 1.252 . S
H87 C80 0.930 . S
H88 C81 0.957 . S
C89 C90 1.392 . S
C89 N93 1.328 . S
C89 H95 0.930 . S
C90 C89 1.392 . S
C90 N94 1.331 . S
C91 C92 1.391 . S
C91 N94 1.329 . S
C91 H101 0.930 . S
C92 C91 1.391 . S
C92 N93 1.334 . S
C92 H99 0.930 . S
N93 Zn77 2.119 . S
N93 C89 1.328 . S
N93 C92 1.334 . S
N94 C90 1.331 . S
N94 C91 1.329 . S
H95 C89 0.930 . S
C96 O76 1.257 . S
C96 O97 1.244 . S
O97 C96 1.244 . S
O98 C74 1.257 . S
O98 Zn77 2.019 . S
H99 C92 0.930 . S
H100 C79 0.930 . S
H101 C91 0.930 . S
Zn102 N106 2.020 . S
Zn102 O110 2.019 . S
Zn102 N112 2.119 . S
Zn102 O120 1.975 . S
C103 N104 1.334 . S
C103 N107 1.336 . S
N104 C103 1.334 . S
N104 C105 1.334 . S
C105 N104 1.334 . S
C105 N106 1.336 . S
N106 Zn102 2.020 . S
N106 C105 1.336 . S
N106 N107 1.354 . S
N107 C103 1.336 . S
N107 N106 1.354 . S
N107 Zn111 2.020 . S
C108 O109 1.244 . S
C108 O132 1.257 . S
O109 C108 1.244 . S
O110 Zn102 2.019 . S
O110 C130 1.257 . S
Zn111 N107 2.020 . S
Zn111 O118 1.975 . S
Zn111 N127 2.119 . S
Zn111 O132 2.019 . S
N112 Zn102 2.119 . S
N112 C114 1.334 . S
N112 C115 1.328 . S
C113 C114 1.391 . S
C113 N116 1.329 . S
C113 H134 0.930 . S
C114 N112 1.334 . S
C114 C113 1.391 . S
C114 H121 0.930 . S
C115 N112 1.328 . S
C115 C117 1.392 . S
C115 H122 0.930 . S
N116 C113 1.329 . S
N116 C117 1.331 . S
C117 C115 1.392 . S
C117 N116 1.331 . S
O118 Zn111 1.975 . S
O118 C119 1.252 . S
C119 O118 1.252 . S
C119 O120 1.252 . S
O120 Zn102 1.975 . S
O120 C119 1.252 . S
H121 C114 0.930 . S
H122 C115 0.930 . S
C123 C124 1.392 . S
C123 N127 1.328 . S
C123 H129 0.930 . S
C124 C123 1.392 . S
C124 N128 1.331 . S
C125 C126 1.391 . S
C125 N128 1.329 . S
C125 H135 0.930 . S
C126 C125 1.391 . S
C126 N127 1.334 . S
C126 H133 0.930 . S
N127 Zn111 2.119 . S
N127 C123 1.328 . S
N127 C126 1.334 . S
N128 C124 1.331 . S
N128 C125 1.329 . S
H129 C123 0.930 . S
C130 O110 1.257 . S
C130 O131 1.244 . S
O131 C130 1.244 . S
O132 C108 1.257 . S
O132 Zn111 2.019 . S
H133 C126 0.930 . S
H134 C113 0.930 . S
H135 C125 0.930 . S
Zn136 N140 2.020 . S
Zn136 O144 2.019 . S
Zn136 N146 2.119 . S
Zn136 O154 1.975 . S
C137 N138 1.334 . S
C137 N141 1.336 . S
N138 C137 1.334 . S
N138 C139 1.334 . S
C139 N138 1.334 . S
C139 N140 1.336 . S
N140 Zn136 2.020 . S
N140 C139 1.336 . S
N140 N141 1.354 . S
N141 C137 1.336 . S
N141 N140 1.354 . S
N141 Zn145 2.020 . S
C142 O143 1.244 . S
C142 O166 1.257 . S
O143 C142 1.244 . S
O144 Zn136 2.019 . S
O144 C164 1.257 . S
Zn145 N141 2.020 . S
Zn145 O152 1.975 . S
Zn145 N161 2.119 . S
Zn145 O166 2.019 . S
N146 Zn136 2.119 . S
N146 C148 1.334 . S
N146 C149 1.328 . S
C147 C148 1.391 . S
C147 N150 1.329 . S
C147 H168 0.930 . S
C148 N146 1.334 . S
C148 C147 1.391 . S
C148 H155 0.930 . S
C149 N146 1.328 . S
C149 C151 1.392 . S
C149 H156 0.930 . S
N150 C147 1.329 . S
N150 C151 1.331 . S
C151 C149 1.392 . S
C151 N150 1.331 . S
O152 Zn145 1.975 . S
O152 C153 1.252 . S
C153 O152 1.252 . S
C153 O154 1.252 . S
O154 Zn136 1.975 . S
O154 C153 1.252 . S
H155 C148 0.930 . S
H156 C149 0.930 . S
C157 C158 1.406 . S
C157 N161 1.289 1_545 S
C157 H163 0.957 . S
C158 C157 1.406 . S
C158 N162 1.331 . S
C159 C160 1.391 . S
C159 N162 1.329 1_565 S
C159 H169 0.930 . S
C160 C159 1.391 . S
C160 N161 1.334 . S
C160 H167 0.930 . S
N161 Zn145 2.119 . S
N161 C157 1.289 1_565 S
N161 C160 1.334 . S
N162 C158 1.331 . S
N162 C159 1.329 1_545 S
H163 C157 0.957 . S
C164 O144 1.257 . S
C164 O165 1.244 . S
O165 C164 1.244 . S
O166 C142 1.257 . S
O166 Zn145 2.019 . S
H167 C160 0.930 . S
H168 C147 0.930 . S
H169 C159 0.930 . S
Zn170 N174 2.020 . S
Zn170 O178 2.019 . S
Zn170 N180 2.119 . S
Zn170 O188 1.975 . S
C171 N172 1.334 . S
C171 N175 1.336 . S
N172 C171 1.334 . S
N172 C173 1.334 . S
C173 N172 1.334 . S
C173 N174 1.336 . S
N174 Zn170 2.020 . S
N174 C173 1.336 . S
N174 N175 1.354 . S
N175 C171 1.336 . S
N175 N174 1.354 . S
N175 Zn179 2.020 . S
C176 O177 1.244 . S
C176 O200 1.257 . S
O177 C176 1.244 . S
O178 Zn170 2.019 . S
O178 C198 1.257 . S
Zn179 N175 2.020 . S
Zn179 O186 1.975 . S
Zn179 N195 2.119 . S
Zn179 O200 2.019 . S
N180 Zn170 2.119 . S
N180 C182 1.334 . S
N180 C183 1.328 . S
C181 C182 1.391 . S
C181 N184 1.329 . S
C181 H202 0.930 . S
C182 N180 1.334 . S
C182 C181 1.391 . S
C182 H189 0.930 . S
C183 N180 1.328 . S
C183 C185 1.392 . S
C183 H190 0.930 . S
N184 C181 1.329 . S
N184 C185 1.331 . S
C185 C183 1.392 . S
C185 N184 1.331 . S
O186 Zn179 1.975 . S
O186 C187 1.252 . S
C187 O186 1.252 . S
C187 O188 1.252 . S
O188 Zn170 1.975 . S
O188 C187 1.252 . S
H189 C182 0.930 . S
H190 C183 0.930 . S
C191 C192 1.428 . S
C191 N195 1.303 1_655 S
C191 H197 0.920 . S
C192 C191 1.428 . S
C192 N196 1.331 . S
C193 C194 1.391 . S
C193 N196 1.329 1_455 S
C193 H203 0.930 . S
C194 C193 1.391 . S
C194 N195 1.334 . S
C194 H201 0.930 . S
N195 Zn179 2.119 . S
N195 C191 1.303 1_455 S
N195 C194 1.334 . S
N196 C192 1.331 . S
N196 C193 1.329 1_655 S
H197 C191 0.920 . S
C198 O178 1.257 . S
C198 O199 1.244 . S
O199 C198 1.244 . S
O200 C176 1.257 . S
O200 Zn179 2.019 . S
H201 C194 0.930 . S
H202 C181 0.930 . S
H203 C193 0.930 . S
Zn204 N208 2.020 . S
Zn204 O212 2.019 . S
Zn204 N214 2.119 . S
Zn204 O222 1.975 . S
C205 N206 1.334 . S
C205 N209 1.336 . S
N206 C205 1.334 . S
N206 C207 1.334 . S
C207 N206 1.334 . S
C207 N208 1.336 . S
N208 Zn204 2.020 . S
N208 C207 1.336 . S
N208 N209 1.354 . S
N209 C205 1.336 . S
N209 N208 1.354 . S
N209 Zn213 2.020 . S
C210 O211 1.244 . S
C210 O234 1.257 . S
O211 C210 1.244 . S
O212 Zn204 2.019 . S
O212 C232 1.257 . S
Zn213 N209 2.020 . S
Zn213 O220 1.975 . S
Zn213 N229 2.119 . S
Zn213 O234 2.019 . S
N214 Zn204 2.119 . S
N214 C216 1.334 . S
N214 C217 1.328 . S
C215 C216 1.391 . S
C215 N218 1.329 . S
C215 H236 0.930 . S
C216 N214 1.334 . S
C216 C215 1.391 . S
C216 H223 0.930 . S
C217 N214 1.328 . S
C217 C219 1.392 . S
C217 H224 0.930 . S
N218 C215 1.329 . S
N218 C219 1.331 . S
C219 C217 1.392 . S
C219 N218 1.331 . S
O220 Zn213 1.975 . S
O220 C221 1.252 . S
C221 O220 1.252 . S
C221 O222 1.252 . S
O222 Zn204 1.975 . S
O222 C221 1.252 . S
H223 C216 0.930 . S
H224 C217 0.930 . S
C225 C226 1.392 . S
C225 N229 1.328 . S
C225 H231 0.930 . S
C226 C225 1.392 . S
C226 N230 1.331 1_655 S
C227 C228 1.391 1_455 S
C227 N230 1.329 . S
C227 H237 0.930 . S
C228 C227 1.391 1_655 S
C228 N229 1.334 . S
C228 H235 0.930 . S
N229 Zn213 2.119 . S
N229 C225 1.328 . S
N229 C228 1.334 . S
N230 C226 1.331 1_455 S
N230 C227 1.329 . S
H231 C225 0.930 . S
C232 O212 1.257 . S
C232 O233 1.244 . S
O233 C232 1.244 . S
O234 C210 1.257 . S
O234 Zn213 2.019 . S
H235 C228 0.930 . S
H236 C215 0.930 . S
H237 C227 0.930 . S
Zn238 N242 2.020 . S
Zn238 O246 2.019 . S
Zn238 N248 2.119 . S
Zn238 O256 1.975 . S
C239 N240 1.334 . S
C239 N243 1.336 . S
N240 C239 1.334 . S
N240 C241 1.334 . S
C241 N240 1.334 . S
C241 N242 1.336 . S
N242 Zn238 2.020 . S
N242 C241 1.336 . S
N242 N243 1.354 . S
N243 C239 1.336 . S
N243 N242 1.354 . S
N243 Zn247 2.020 . S
C244 O245 1.244 . S
C244 O268 1.257 . S
O245 C244 1.244 . S
O246 Zn238 2.019 . S
O246 C266 1.257 . S
Zn247 N243 2.020 . S
Zn247 O254 1.975 . S
Zn247 N263 2.119 . S
Zn247 O268 2.019 . S
N248 Zn238 2.119 . S
N248 C250 1.334 . S
N248 C251 1.328 . S
C249 C250 1.391 . S
C249 N252 1.329 . S
C249 H270 0.930 . S
C250 N248 1.334 . S
C250 C249 1.391 . S
C250 H257 0.930 . S
C251 N248 1.328 . S
C251 C253 1.392 . S
C251 H258 0.930 . S
N252 C249 1.329 . S
N252 C253 1.331 . S
C253 C251 1.392 . S
C253 N252 1.331 . S
O254 Zn247 1.975 . S
O254 C255 1.252 . S
C255 O254 1.252 . S
C255 O256 1.252 . S
O256 Zn238 1.975 . S
O256 C255 1.252 . S
H257 C250 0.930 . S
H258 C251 0.930 . S
C259 C260 1.392 . S
C259 N263 1.328 . S
C259 H265 0.930 . S
C260 C259 1.392 . S
C260 N264 1.331 . S
C261 C262 1.391 . S
C261 N264 1.329 . S
C261 H271 0.930 . S
C262 C261 1.391 . S
C262 N263 1.334 . S
C262 H269 0.930 . S
N263 Zn247 2.119 . S
N263 C259 1.328 . S
N263 C262 1.334 . S
N264 C260 1.331 . S
N264 C261 1.329 . S
H265 C259 0.930 . S
C266 O246 1.257 . S
C266 O267 1.244 . S
O267 C266 1.244 . S
O268 C244 1.257 . S
O268 Zn247 2.019 . S
H269 C262 0.930 . S
H270 C249 0.930 . S
H271 C261 0.930 . S
Zn272 N276 2.020 . S
Zn272 O280 2.019 . S
Zn272 N282 2.119 . S
Zn272 O290 1.975 . S
C273 N274 1.334 . S
C273 N277 1.336 . S
N274 C273 1.334 . S
N274 C275 1.334 . S
C275 N274 1.334 . S
C275 N276 1.336 . S
N276 Zn272 2.020 . S
N276 C275 1.336 . S
N276 N277 1.354 . S
N277 C273 1.336 . S
N277 N276 1.354 . S
N277 Zn281 2.020 . S
C278 O279 1.244 . S
C278 O302 1.257 . S
O279 C278 1.244 . S
O280 Zn272 2.019 . S
O280 C300 1.257 . S
Zn281 N277 2.020 . S
Zn281 O288 1.975 . S
Zn281 N297 2.119 . S
Zn281 O302 2.019 . S
N282 Zn272 2.119 . S
N282 C284 1.334 . S
N282 C285 1.328 . S
C283 C284 1.391 . S
C283 N286 1.329 . S
C283 H304 0.930 . S
C284 N282 1.334 . S
C284 C283 1.391 . S
C284 H291 0.930 . S
C285 N282 1.328 . S
C285 C287 1.392 . S
C285 H292 0.930 . S
N286 C283 1.329 . S
N286 C287 1.331 . S
C287 C285 1.392 . S
C287 N286 1.331 . S
O288 Zn281 1.975 . S
O288 C289 1.252 . S
C289 O288 1.252 . S
C289 O290 1.252 . S
O290 Zn272 1.975 . S
O290 C289 1.252 . S
H291 C284 0.930 . S
H292 C285 0.930 . S
C293 C294 1.392 . S
C293 N297 1.328 . S
C293 H299 0.930 . S
C294 C293 1.392 . S
C294 N298 1.331 1_545 S
C295 C296 1.391 1_565 S
C295 N298 1.329 . S
C295 H305 0.930 . S
C296 C295 1.391 1_545 S
C296 N297 1.334 . S
C296 H303 0.930 . S
N297 Zn281 2.119 . S
N297 C293 1.328 . S
N297 C296 1.334 . S
N298 C294 1.331 1_565 S
N298 C295 1.329 . S
H299 C293 0.930 . S
C300 O280 1.257 . S
C300 O301 1.244 . S
O301 C300 1.244 . S
O302 C278 1.257 . S
O302 Zn281 2.019 . S
H303 C296 0.930 . S
H304 C283 0.930 . S
H305 C295 0.930 . S
Zn306 N310 2.020 1_554 S
Zn306 O314 2.019 . S
Zn306 N316 2.119 1_554 S
Zn306 O324 1.975 . S
C307 N308 1.334 . S
C307 N311 1.336 . S
N308 C307 1.334 . S
N308 C309 1.334 . S
C309 N308 1.334 . S
C309 N310 1.336 . S
N310 Zn306 2.020 1_556 S
N310 C309 1.336 . S
N310 N311 1.354 . S
N311 C307 1.336 . S
N311 N310 1.354 . S
N311 Zn315 2.020 1_556 S
C312 O313 1.244 . S
C312 O336 1.257 1_556 S
O313 C312 1.244 . S
O314 Zn306 2.019 . S
O314 C334 1.257 . S
Zn315 N311 2.020 1_554 S
Zn315 O322 1.975 . S
Zn315 N331 2.119 . S
Zn315 O336 2.019 . S
N316 Zn306 2.119 1_556 S
N316 C318 1.334 . S
N316 C319 1.328 . S
C317 C318 1.391 . S
C317 N320 1.329 . S
C317 H338 0.930 . S
C318 N316 1.334 . S
C318 C317 1.391 . S
C318 H325 0.930 . S
C319 N316 1.328 . S
C319 C321 1.392 . S
C319 H326 0.930 1_556 S
N320 C317 1.329 . S
N320 C321 1.331 . S
C321 C319 1.392 . S
C321 N320 1.331 . S
O322 Zn315 1.975 . S
O322 C323 1.252 . S
C323 O322 1.252 . S
C323 O324 1.252 . S
O324 Zn306 1.975 . S
O324 C323 1.252 . S
H325 C318 0.930 . S
H326 C319 0.930 1_554 S
C327 C328 1.392 . S
C327 N331 1.328 . S
C327 H333 0.930 . S
C328 C327 1.392 . S
C328 N332 1.331 . S
C329 C330 1.391 . S
C329 N332 1.329 . S
C329 H339 0.930 . S
C330 C329 1.391 . S
C330 N331 1.334 . S
C330 H337 0.930 . S
N331 Zn315 2.119 . S
N331 C327 1.328 . S
N331 C330 1.334 . S
N332 C328 1.331 . S
N332 C329 1.329 . S
H333 C327 0.930 . S
C334 O314 1.257 . S
C334 O335 1.244 . S
O335 C334 1.244 . S
O336 C312 1.257 1_554 S
O336 Zn315 2.019 . S
H337 C330 0.930 . S
H338 C317 0.930 . S
H339 C329 0.930 . S
Zn340 N344 2.020 1_554 S
Zn340 O348 2.019 . S
Zn340 N350 2.119 . S
Zn340 O358 1.975 . S
C341 N342 1.334 . S
C341 N345 1.336 . S
N342 C341 1.334 . S
N342 C343 1.334 . S
C343 N342 1.334 . S
C343 N344 1.336 . S
N344 Zn340 2.020 1_556 S
N344 C343 1.336 . S
N344 N345 1.354 . S
N345 C341 1.336 . S
N345 N344 1.354 . S
N345 Zn349 2.020 1_556 S
C346 O347 1.244 . S
C346 O370 1.257 . S
O347 C346 1.244 . S
O348 Zn340 2.019 . S
O348 C368 1.257 1_554 S
Zn349 N345 2.020 1_554 S
Zn349 O356 1.975 . S
Zn349 N365 2.119 1_554 S
Zn349 O370 2.019 . S
N350 Zn340 2.119 . S
N350 C352 1.334 . S
N350 C353 1.328 . S
C351 C352 1.391 . S
C351 N354 1.329 . S
C351 H372 0.930 . S
C352 N350 1.334 . S
C352 C351 1.391 . S
C352 H359 0.930 . S
C353 N350 1.328 . S
C353 C355 1.392 . S
C353 H360 0.930 . S
N354 C351 1.329 . S
N354 C355 1.331 . S
C355 C353 1.392 . S
C355 N354 1.331 . S
O356 Zn349 1.975 . S
O356 C357 1.252 . S
C357 O356 1.252 . S
C357 O358 1.252 . S
O358 Zn340 1.975 . S
O358 C357 1.252 . S
H359 C352 0.930 . S
H360 C353 0.930 . S
C361 C362 1.392 . S
C361 N365 1.328 . S
C361 H367 0.930 1_556 S
C362 C361 1.392 . S
C362 N366 1.331 . S
C363 C364 1.391 . S
C363 N366 1.329 . S
C363 H373 0.930 . S
C364 C363 1.391 . S
C364 N365 1.334 . S
C364 H371 0.930 . S
N365 Zn349 2.119 1_556 S
N365 C361 1.328 . S
N365 C364 1.334 . S
N366 C362 1.331 . S
N366 C363 1.329 . S
H367 C361 0.930 1_554 S
C368 O348 1.257 1_556 S
C368 O369 1.244 . S
O369 C368 1.244 . S
O370 C346 1.257 . S
O370 Zn349 2.019 . S
H371 C364 0.930 . S
H372 C351 0.930 . S
H373 C363 0.930 . S
Zn374 N378 2.020 1_554 S
Zn374 O382 2.019 . S
Zn374 N384 2.119 . S
Zn374 O392 1.975 . S
C375 N376 1.334 . S
C375 N379 1.336 . S
N376 C375 1.334 . S
N376 C377 1.334 . S
C377 N376 1.334 . S
C377 N378 1.336 . S
N378 Zn374 2.020 1_556 S
N378 C377 1.336 . S
N378 N379 1.354 . S
N379 C375 1.336 . S
N379 N378 1.354 . S
N379 Zn383 2.020 1_556 S
C380 O381 1.244 . S
C380 O404 1.257 . S
O381 C380 1.244 . S
O382 Zn374 2.019 . S
O382 C402 1.257 1_554 S
Zn383 N379 2.020 1_554 S
Zn383 O390 1.975 . S
Zn383 N399 2.119 1_554 S
Zn383 O404 2.019 . S
N384 Zn374 2.119 . S
N384 C386 1.334 . S
N384 C387 1.328 . S
C385 C386 1.391 . S
C385 N388 1.329 . S
C385 H406 0.930 . S
C386 N384 1.334 . S
C386 C385 1.391 . S
C386 H393 0.930 . S
C387 N384 1.328 . S
C387 C389 1.392 . S
C387 H394 0.930 . S
N388 C385 1.329 . S
N388 C389 1.331 . S
C389 C387 1.392 . S
C389 N388 1.331 . S
O390 Zn383 1.975 . S
O390 C391 1.252 . S
C391 O390 1.252 . S
C391 O392 1.252 . S
O392 Zn374 1.975 . S
O392 C391 1.252 . S
H393 C386 0.930 . S
H394 C387 0.930 . S
C395 C396 1.392 . S
C395 N399 1.328 . S
C395 H401 0.930 1_556 S
C396 C395 1.392 . S
C396 N400 1.331 . S
C397 C398 1.391 . S
C397 N400 1.329 . S
C397 H407 0.930 . S
C398 C397 1.391 . S
C398 N399 1.334 . S
C398 H405 0.930 . S
N399 Zn383 2.119 1_556 S
N399 C395 1.328 . S
N399 C398 1.334 . S
N400 C396 1.331 . S
N400 C397 1.329 . S
H401 C395 0.930 1_554 S
C402 O382 1.257 1_556 S
C402 O403 1.244 . S
O403 C402 1.244 . S
O404 C380 1.257 . S
O404 Zn383 2.019 . S
H405 C398 0.930 . S
H406 C385 0.930 . S
H407 C397 0.930 . S
Zn408 N412 2.020 1_556 S
Zn408 O416 2.019 . S
Zn408 N418 2.119 . S
Zn408 O426 1.975 . S
C409 N410 1.334 . S
C409 N413 1.336 . S
N410 C409 1.334 . S
N410 C411 1.334 . S
C411 N410 1.334 . S
C411 N412 1.336 . S
N412 Zn408 2.020 1_554 S
N412 C411 1.336 . S
N412 N413 1.354 . S
N413 C409 1.336 . S
N413 N412 1.354 . S
N413 Zn417 2.020 1_554 S
C414 O415 1.244 . S
C414 O438 1.257 . S
O415 C414 1.244 . S
O416 Zn408 2.019 . S
O416 C436 1.257 1_556 S
Zn417 N413 2.020 1_556 S
Zn417 O424 1.975 . S
Zn417 N433 2.119 1_556 S
Zn417 O438 2.019 . S
N418 Zn408 2.119 . S
N418 C420 1.334 . S
N418 C421 1.328 . S
C419 C420 1.391 . S
C419 N422 1.329 . S
C419 H440 0.930 . S
C420 N418 1.334 . S
C420 C419 1.391 . S
C420 H427 0.930 . S
C421 N418 1.328 . S
C421 C423 1.392 . S
C421 H428 0.930 . S
N422 C419 1.329 . S
N422 C423 1.331 . S
C423 C421 1.392 . S
C423 N422 1.331 . S
O424 Zn417 1.975 . S
O424 C425 1.252 . S
C425 O424 1.252 . S
C425 O426 1.252 . S
O426 Zn408 1.975 . S
O426 C425 1.252 . S
H427 C420 0.930 . S
H428 C421 0.930 . S
C429 C430 1.392 . S
C429 N433 1.328 . S
C429 H435 0.930 1_554 S
C430 C429 1.392 . S
C430 N434 1.331 . S
C431 C432 1.391 . S
C431 N434 1.329 . S
C431 H441 0.930 . S
C432 C431 1.391 . S
C432 N433 1.334 . S
C432 H439 0.930 . S
N433 Zn417 2.119 1_554 S
N433 C429 1.328 . S
N433 C432 1.334 . S
N434 C430 1.331 . S
N434 C431 1.329 . S
H435 C429 0.930 1_556 S
C436 O416 1.257 1_554 S
C436 O437 1.244 . S
O437 C436 1.244 . S
O438 C414 1.257 . S
O438 Zn417 2.019 . S
H439 C432 0.930 . S
H440 C419 0.930 . S
H441 C431 0.930 . S
Zn442 N446 2.020 1_556 S
Zn442 O450 2.019 . S
Zn442 N452 2.119 1_556 S
Zn442 O460 1.975 . S
C443 N444 1.334 . S
C443 N447 1.336 . S
N444 C443 1.334 . S
N444 C445 1.334 . S
C445 N444 1.334 . S
C445 N446 1.336 . S
N446 Zn442 2.020 1_554 S
N446 C445 1.336 . S
N446 N447 1.354 . S
N447 C443 1.336 . S
N447 N446 1.354 . S
N447 Zn451 2.020 1_554 S
C448 O449 1.244 . S
C448 O472 1.257 1_554 S
O449 C448 1.244 . S
O450 Zn442 2.019 . S
O450 C470 1.257 . S
Zn451 N447 2.020 1_556 S
Zn451 O458 1.975 . S
Zn451 N467 2.119 . S
Zn451 O472 2.019 . S
N452 Zn442 2.119 1_554 S
N452 C454 1.334 . S
N452 C455 1.328 . S
C453 C454 1.391 . S
C453 N456 1.329 . S
C453 H474 0.930 . S
C454 N452 1.334 . S
C454 C453 1.391 . S
C454 H461 0.930 . S
C455 N452 1.328 . S
C455 C457 1.392 . S
C455 H462 0.930 1_554 S
N456 C453 1.329 . S
N456 C457 1.331 . S
C457 C455 1.392 . S
C457 N456 1.331 . S
O458 Zn451 1.975 . S
O458 C459 1.252 . S
C459 O458 1.252 . S
C459 O460 1.252 . S
O460 Zn442 1.975 . S
O460 C459 1.252 . S
H461 C454 0.930 . S
H462 C455 0.930 1_556 S
C463 C464 1.392 . S
C463 N467 1.328 . S
C463 H469 0.930 . S
C464 C463 1.392 . S
C464 N468 1.331 . S
C465 C466 1.391 . S
C465 N468 1.329 . S
C465 H475 0.930 . S
C466 C465 1.391 . S
C466 N467 1.334 . S
C466 H473 0.930 . S
N467 Zn451 2.119 . S
N467 C463 1.328 . S
N467 C466 1.334 . S
N468 C464 1.331 . S
N468 C465 1.329 . S
H469 C463 0.930 . S
C470 O450 1.257 . S
C470 O471 1.244 . S
O471 C470 1.244 . S
O472 C448 1.257 1_556 S
O472 Zn451 2.019 . S
H473 C466 0.930 . S
H474 C453 0.930 . S
H475 C465 0.930 . S
Zn476 N480 2.020 1_556 S
Zn476 O484 2.019 . S
Zn476 N486 2.119 1_556 S
Zn476 O494 1.975 . S
C477 N478 1.334 . S
C477 N481 1.336 . S
N478 C477 1.334 . S
N478 C479 1.334 . S
C479 N478 1.334 . S
C479 N480 1.336 . S
N480 Zn476 2.020 1_554 S
N480 C479 1.336 . S
N480 N481 1.354 . S
N481 C477 1.336 . S
N481 N480 1.354 . S
N481 Zn485 2.020 1_554 S
C482 O483 1.244 . S
C482 O506 1.257 1_554 S
O483 C482 1.244 . S
O484 Zn476 2.019 . S
O484 C504 1.257 . S
Zn485 N481 2.020 1_556 S
Zn485 O492 1.975 . S
Zn485 N501 2.119 . S
Zn485 O506 2.019 . S
N486 Zn476 2.119 1_554 S
N486 C488 1.334 . S
N486 C489 1.328 . S
C487 C488 1.391 . S
C487 N490 1.329 . S
C487 H508 0.930 . S
C488 N486 1.334 . S
C488 C487 1.391 . S
C488 H495 0.930 . S
C489 N486 1.328 . S
C489 C491 1.392 . S
C489 H496 0.930 1_554 S
N490 C487 1.329 . S
N490 C491 1.331 . S
C491 C489 1.392 . S
C491 N490 1.331 . S
O492 Zn485 1.975 . S
O492 C493 1.252 . S
C493 O492 1.252 . S
C493 O494 1.252 . S
O494 Zn476 1.975 . S
O494 C493 1.252 . S
H495 C488 0.930 . S
H496 C489 0.930 1_556 S
C497 C498 1.392 . S
C497 N501 1.328 . S
C497 H503 0.930 . S
C498 C497 1.392 . S
C498 N502 1.331 . S
C499 C500 1.391 . S
C499 N502 1.329 . S
C499 H509 0.930 . S
C500 C499 1.391 . S
C500 N501 1.334 . S
C500 H507 0.930 . S
N501 Zn485 2.119 . S
N501 C497 1.328 . S
N501 C500 1.334 . S
N502 C498 1.331 . S
N502 C499 1.329 . S
H503 C497 0.930 . S
C504 O484 1.257 . S
C504 O505 1.244 . S
O505 C504 1.244 . S
O506 C482 1.257 1_556 S
O506 Zn485 2.019 . S
H507 C500 0.930 . S
H508 C487 0.930 . S
H509 C499 0.930 . S
Zn510 N514 2.020 . S
Zn510 O518 2.019 . S
Zn510 N520 2.119 . S
Zn510 O528 1.975 . S
C511 N512 1.334 . S
C511 N515 1.336 . S
N512 C511 1.334 . S
N512 C513 1.334 . S
C513 N512 1.334 . S
C513 N514 1.336 . S
N514 Zn510 2.020 . S
N514 C513 1.336 . S
N514 N515 1.354 . S
N515 C511 1.336 . S
N515 N514 1.354 . S
N515 Zn519 2.020 . S
C516 O517 1.244 . S
C516 O540 1.257 . S
O517 C516 1.244 . S
O518 Zn510 2.019 . S
O518 C538 1.257 . S
Zn519 N515 2.020 . S
Zn519 O526 1.975 . S
Zn519 N535 2.119 . S
Zn519 O540 2.019 . S
N520 Zn510 2.119 . S
N520 C522 1.334 . S
N520 C523 1.328 . S
C521 C522 1.391 1_545 S
C521 N524 1.329 . S
C521 H542 0.930 . S
C522 N520 1.334 . S
C522 C521 1.391 1_565 S
C522 H529 0.930 . S
C523 N520 1.328 . S
C523 C525 1.392 . S
C523 H530 0.930 . S
N524 C521 1.329 . S
N524 C525 1.331 1_545 S
C525 C523 1.392 . S
C525 N524 1.331 1_565 S
O526 Zn519 1.975 . S
O526 C527 1.252 . S
C527 O526 1.252 . S
C527 O528 1.252 . S
O528 Zn510 1.975 . S
O528 C527 1.252 . S
H529 C522 0.930 . S
H530 C523 0.930 . S
C531 C532 1.392 . S
C531 N535 1.328 . S
C531 H537 0.930 . S
C532 C531 1.392 . S
C532 N536 1.331 . S
C533 C534 1.391 . S
C533 N536 1.329 . S
C533 H543 0.930 . S
C534 C533 1.391 . S
C534 N535 1.334 . S
C534 H541 0.930 . S
N535 Zn519 2.119 . S
N535 C531 1.328 . S
N535 C534 1.334 . S
N536 C532 1.331 . S
N536 C533 1.329 . S
H537 C531 0.930 . S
C538 O518 1.257 . S
C538 O539 1.244 . S
O539 C538 1.244 . S
O540 C516 1.257 . S
O540 Zn519 2.019 . S
H541 C534 0.930 . S
H542 C521 0.930 . S
H543 C533 0.930 . S
Zn544 N548 2.020 . S
Zn544 O552 2.019 . S
Zn544 N554 2.119 . S
Zn544 O562 1.975 . S
C545 N546 1.334 . S
C545 N549 1.336 . S
N546 C545 1.334 . S
N546 C547 1.334 . S
C547 N546 1.334 . S
C547 N548 1.336 . S
N548 Zn544 2.020 . S
N548 C547 1.336 . S
N548 N549 1.354 . S
N549 C545 1.336 . S
N549 N548 1.354 . S
N549 Zn553 2.020 . S
C550 O551 1.244 . S
C550 O574 1.257 . S
O551 C550 1.244 . S
O552 Zn544 2.019 . S
O552 C572 1.257 . S
Zn553 N549 2.020 . S
Zn553 O560 1.975 . S
Zn553 N569 2.119 . S
Zn553 O574 2.019 . S
N554 Zn544 2.119 . S
N554 C556 1.334 . S
N554 C557 1.328 . S
C555 C556 1.391 . S
C555 N558 1.329 . S
C555 H576 0.930 . S
C556 N554 1.334 . S
C556 C555 1.391 . S
C556 H563 0.930 . S
C557 N554 1.328 . S
C557 C559 1.392 . S
C557 H564 0.930 . S
N558 C555 1.329 . S
N558 C559 1.331 . S
C559 C557 1.392 . S
C559 N558 1.331 . S
O560 Zn553 1.975 . S
O560 C561 1.252 . S
C561 O560 1.252 . S
C561 O562 1.252 . S
O562 Zn544 1.975 . S
O562 C561 1.252 . S
H563 C556 0.930 . S
H564 C557 0.930 . S
C565 C566 1.392 . S
C565 N569 1.328 . S
C565 H571 0.930 . S
C566 C565 1.392 . S
C566 N570 1.331 1_455 S
C567 C568 1.391 1_655 S
C567 N570 1.329 . S
C567 H577 0.930 . S
C568 C567 1.391 1_455 S
C568 N569 1.334 . S
C568 H575 0.930 . S
N569 Zn553 2.119 . S
N569 C565 1.328 . S
N569 C568 1.334 . S
N570 C566 1.331 1_655 S
N570 C567 1.329 . S
H571 C565 0.930 . S
C572 O552 1.257 . S
C572 O573 1.244 . S
O573 C572 1.244 . S
O574 C550 1.257 . S
O574 Zn553 2.019 . S
H575 C568 0.930 . S
H576 C555 0.930 . S
H577 C567 0.930 . S
Zn578 N582 2.020 . S
Zn578 O586 2.019 . S
Zn578 N588 2.119 . S
Zn578 O596 1.975 . S
C579 N580 1.334 . S
C579 N583 1.336 . S
N580 C579 1.334 . S
N580 C581 1.334 . S
C581 N580 1.334 . S
C581 N582 1.336 . S
N582 Zn578 2.020 . S
N582 C581 1.336 . S
N582 N583 1.354 . S
N583 C579 1.336 . S
N583 N582 1.354 . S
N583 Zn587 2.020 . S
C584 O585 1.244 . S
C584 O608 1.257 . S
O585 C584 1.244 . S
O586 Zn578 2.019 . S
O586 C606 1.257 . S
Zn587 N583 2.020 . S
Zn587 O594 1.975 . S
Zn587 N603 2.119 . S
Zn587 O608 2.019 . S
N588 Zn578 2.119 . S
N588 C590 1.334 . S
N588 C591 1.328 . S
C589 C590 1.391 . S
C589 N592 1.329 . S
C589 H610 0.930 . S
C590 N588 1.334 . S
C590 C589 1.391 . S
C590 H597 0.930 . S
C591 N588 1.328 . S
C591 C593 1.392 . S
C591 H598 0.930 . S
N592 C589 1.329 . S
N592 C593 1.331 . S
C593 C591 1.392 . S
C593 N592 1.331 . S
O594 Zn587 1.975 . S
O594 C595 1.252 . S
C595 O594 1.252 . S
C595 O596 1.252 . S
O596 Zn578 1.975 . S
O596 C595 1.252 . S
H597 C590 0.930 . S
H598 C591 0.930 . S
C599 C600 1.392 . S
C599 N603 1.328 . S
C599 H605 0.930 . S
C600 C599 1.392 . S
C600 N604 1.331 . S
C601 C602 1.391 . S
C601 N604 1.329 . S
C601 H611 0.930 . S
C602 C601 1.391 . S
C602 N603 1.334 . S
C602 H609 0.930 . S
N603 Zn587 2.119 . S
N603 C599 1.328 . S
N603 C602 1.334 . S
N604 C600 1.331 . S
N604 C601 1.329 . S
H605 C599 0.930 . S
C606 O586 1.257 . S
C606 O607 1.244 . S
O607 C606 1.244 . S
O608 C584 1.257 . S
O608 Zn587 2.019 . S
H609 C602 0.930 . S
H610 C589 0.930 . S
H611 C601 0.930 . S
H612 C618 0.930 . S
H613 C621 0.930 . S
H614 C622 0.930 . S
H615 C623 0.930 . S
H616 C626 0.930 . S
H617 C627 0.930 . S
C618 H612 0.930 . S
C618 C619 1.355 . S
C618 C620 1.415 . S
C619 C618 1.355 . S
C619 C621 1.419 . S
C620 C618 1.415 . S
C620 C625 1.425 . S
C620 C627 1.409 . S
C621 H613 0.930 . S
C621 C619 1.419 . S
C621 C622 1.362 . S
C622 H614 0.930 . S
C622 C621 1.362 . S
C622 C625 1.409 . S
C623 H615 0.930 . S
C623 C624 1.355 . S
C623 C625 1.415 . S
C624 C623 1.355 . S
C624 C626 1.419 . S
C625 C620 1.425 . S
C625 C622 1.409 . S
C625 C623 1.415 . S
C626 H616 0.930 . S
C626 C624 1.419 . S
C626 C627 1.362 . S
C627 H617 0.930 . S
C627 C620 1.409 . S
C627 C626 1.362 . S
H628 C634 0.930 . S
H629 C637 0.930 . S
H630 C638 0.930 . S
H631 C639 0.930 . S
H632 C642 0.930 . S
H633 C643 0.930 . S
C634 H628 0.930 . S
C634 C635 1.355 . S
C634 C636 1.415 . S
C635 C634 1.355 . S
C635 C637 1.419 . S
C636 C634 1.415 . S
C636 C641 1.425 . S
C636 C643 1.409 . S
C637 H629 0.930 . S
C637 C635 1.419 . S
C637 C638 1.362 . S
C638 H630 0.930 . S
C638 C637 1.362 . S
C638 C641 1.409 . S
C639 H631 0.930 . S
C639 C640 1.355 . S
C639 C641 1.415 . S
C640 C639 1.355 . S
C640 C642 1.419 . S
C641 C636 1.425 . S
C641 C638 1.409 . S
C641 C639 1.415 . S
C642 H632 0.930 . S
C642 C640 1.419 . S
C642 C643 1.362 . S
C643 H633 0.930 . S
C643 C636 1.409 . S
C643 C642 1.362 . S
H644 C650 0.930 . S
H645 C653 0.930 . S
H646 C654 0.930 . S
H647 C655 0.930 . S
H648 C658 0.930 . S
H649 C659 0.930 . S
C650 H644 0.930 . S
C650 C651 1.355 . S
C650 C652 1.415 . S
C651 C650 1.355 . S
C651 C653 1.419 . S
C652 C650 1.415 . S
C652 C657 1.425 . S
C652 C659 1.409 . S
C653 H645 0.930 . S
C653 C651 1.419 . S
C653 C654 1.362 . S
C654 H646 0.930 . S
C654 C653 1.362 . S
C654 C657 1.409 . S
C655 H647 0.930 . S
C655 C656 1.355 . S
C655 C657 1.415 . S
C656 C655 1.355 . S
C656 C658 1.419 . S
C657 C652 1.425 . S
C657 C654 1.409 . S
C657 C655 1.415 . S
C658 H648 0.930 . S
C658 C656 1.419 . S
C658 C659 1.362 . S
C659 H649 0.930 . S
C659 C652 1.409 . S
C659 C658 1.362 . S
H660 C666 0.930 . S
H661 C669 0.930 . S
H662 C670 0.930 . S
H663 C671 0.930 . S
H664 C674 0.930 . S
H665 C675 0.930 . S
C666 H660 0.930 . S
C666 C667 1.355 . S
C666 C668 1.415 . S
C667 C666 1.355 . S
C667 C669 1.419 . S
C668 C666 1.415 . S
C668 C673 1.425 . S
C668 C675 1.409 . S
C669 H661 0.930 . S
C669 C667 1.419 . S
C669 C670 1.362 . S
C670 H662 0.930 . S
C670 C669 1.362 . S
C670 C673 1.409 . S
C671 H663 0.930 . S
C671 C672 1.355 . S
C671 C673 1.415 . S
C672 C671 1.355 . S
C672 C674 1.419 . S
C673 C668 1.425 . S
C673 C670 1.409 . S
C673 C671 1.415 . S
C674 H664 0.930 . S
C674 C672 1.419 . S
C674 C675 1.362 . S
C675 H665 0.930 . S
C675 C668 1.409 . S
C675 C674 1.362 . S
H676 C682 0.930 . S
H677 C685 0.930 . S
H678 C686 0.930 . S
H679 C687 0.930 . S
H680 C690 0.930 . S
H681 C691 0.930 . S
C682 H676 0.930 . S
C682 C683 1.355 . S
C682 C684 1.415 . S
C683 C682 1.355 . S
C683 C685 1.419 . S
C684 C682 1.415 . S
C684 C689 1.425 . S
C684 C691 1.409 . S
C685 H677 0.930 . S
C685 C683 1.419 . S
C685 C686 1.362 . S
C686 H678 0.930 . S
C686 C685 1.362 . S
C686 C689 1.409 . S
C687 H679 0.930 . S
C687 C688 1.355 . S
C687 C689 1.415 . S
C688 C687 1.355 . S
C688 C690 1.419 . S
C689 C684 1.425 . S
C689 C686 1.409 . S
C689 C687 1.415 . S
C690 H680 0.930 . S
C690 C688 1.419 . S
C690 C691 1.362 . S
C691 H681 0.930 . S
C691 C684 1.409 . S
C691 C690 1.362 . S
H692 C698 0.930 . S
H693 C701 0.930 . S
H694 C702 0.930 . S
H695 C703 0.930 . S
H696 C706 0.930 . S
H697 C707 0.930 . S
C698 H692 0.930 . S
C698 C699 1.355 . S
C698 C700 1.415 . S
C699 C698 1.355 . S
C699 C701 1.419 . S
C700 C698 1.415 . S
C700 C705 1.425 . S
C700 C707 1.409 . S
C701 H693 0.930 . S
C701 C699 1.419 . S
C701 C702 1.362 . S
C702 H694 0.930 . S
C702 C701 1.362 . S
C702 C705 1.409 . S
C703 H695 0.930 . S
C703 C704 1.355 . S
C703 C705 1.415 . S
C704 C703 1.355 . S
C704 C706 1.419 . S
C705 C700 1.425 . S
C705 C702 1.409 . S
C705 C703 1.415 . S
C706 H696 0.930 . S
C706 C704 1.419 . S
C706 C707 1.362 . S
C707 H697 0.930 . S
C707 C700 1.409 . S
C707 C706 1.362 . S
H708 C714 0.930 . S
H709 C717 0.930 . S
H710 C718 0.930 . S
H711 C719 0.930 . S
H712 C722 0.930 . S
H713 C723 0.930 . S
C714 H708 0.930 . S
C714 C715 1.355 . S
C714 C716 1.415 1_455 S
C715 C714 1.355 . S
C715 C717 1.419 . S
C716 C714 1.415 1_655 S
C716 C721 1.425 1_655 S
C716 C723 1.409 . S
C717 H709 0.930 . S
C717 C715 1.419 . S
C717 C718 1.362 . S
C718 H710 0.930 . S
C718 C717 1.362 . S
C718 C721 1.409 . S
C719 H711 0.930 . S
C719 C720 1.355 . S
C719 C721 1.415 1_655 S
C720 C719 1.355 . S
C720 C722 1.419 . S
C721 C716 1.425 1_455 S
C721 C718 1.409 . S
C721 C719 1.415 1_455 S
C722 H712 0.930 . S
C722 C720 1.419 . S
C722 C723 1.362 . S
C723 H713 0.930 . S
C723 C716 1.409 . S
C723 C722 1.362 . S
H724 C730 0.930 . S
H725 C733 0.930 . S
H726 C734 0.930 . S
H727 C735 0.930 . S
H728 C738 0.930 . S
H729 C739 0.930 . S
C730 H724 0.930 . S
C730 C731 1.355 . S
C730 C732 1.415 . S
C731 C730 1.355 . S
C731 C733 1.419 . S
C732 C730 1.415 . S
C732 C737 1.425 . S
C732 C739 1.409 . S
C733 H725 0.930 . S
C733 C731 1.419 . S
C733 C734 1.362 . S
C734 H726 0.930 . S
C734 C733 1.362 . S
C734 C737 1.409 . S
C735 H727 0.930 . S
C735 C736 1.355 . S
C735 C737 1.415 . S
C736 C735 1.355 . S
C736 C738 1.419 . S
C737 C732 1.425 . S
C737 C734 1.409 . S
C737 C735 1.415 . S
C738 H728 0.930 . S
C738 C736 1.419 . S
C738 C739 1.362 . S
C739 H729 0.930 . S
C739 C732 1.409 . S
C739 C738 1.362 . S
H740 C746 0.930 . S
H741 C749 0.930 . S
H742 C750 0.930 . S
H743 C751 0.930 . S
H744 C754 0.930 . S
H745 C755 0.930 . S
C746 H740 0.930 . S
C746 C747 1.355 . S
C746 C748 1.415 . S
C747 C746 1.355 . S
C747 C749 1.419 . S
C748 C746 1.415 . S
C748 C753 1.425 1_545 S
C748 C755 1.409 . S
C749 H741 0.930 . S
C749 C747 1.419 . S
C749 C750 1.362 1_545 S
C750 H742 0.930 . S
C750 C749 1.362 1_565 S
C750 C753 1.409 . S
C751 H743 0.930 . S
C751 C752 1.355 . S
C751 C753 1.415 . S
C752 C751 1.355 . S
C752 C754 1.419 . S
C753 C748 1.425 1_565 S
C753 C750 1.409 . S
C753 C751 1.415 . S
C754 H744 0.930 . S
C754 C752 1.419 . S
C754 C755 1.362 1_565 S
C755 H745 0.930 . S
C755 C748 1.409 . S
C755 C754 1.362 1_545 S
H756 C762 0.930 . S
H757 C765 0.930 . S
H758 C766 0.930 . S
H759 C767 0.930 . S
H760 C770 0.930 . S
H761 C771 0.930 . S
C762 H756 0.930 . S
C762 C763 1.355 . S
C762 C764 1.415 . S
C763 C762 1.355 . S
C763 C765 1.419 . S
C764 C762 1.415 . S
C764 C769 1.425 1_545 S
C764 C771 1.409 . S
C765 H757 0.930 . S
C765 C763 1.419 . S
C765 C766 1.362 1_545 S
C766 H758 0.930 . S
C766 C765 1.362 1_565 S
C766 C769 1.409 . S
C767 H759 0.930 . S
C767 C768 1.355 . S
C767 C769 1.415 . S
C768 C767 1.355 . S
C768 C770 1.419 . S
C769 C764 1.425 1_565 S
C769 C766 1.409 . S
C769 C767 1.415 . S
C770 H760 0.930 . S
C770 C768 1.419 . S
C770 C771 1.362 1_565 S
C771 H761 0.930 . S
C771 C764 1.409 . S
C771 C770 1.362 1_545 S
H772 C778 0.930 . S
H773 C781 0.930 . S
H774 C782 0.930 . S
H775 C783 0.930 . S
H776 C786 0.930 . S
H777 C787 0.930 . S
C778 H772 0.930 . S
C778 C779 1.355 . S
C778 C780 1.415 1_455 S
C779 C778 1.355 . S
C779 C781 1.419 . S
C780 C778 1.415 1_655 S
C780 C785 1.425 1_655 S
C780 C787 1.409 . S
C781 H773 0.930 . S
C781 C779 1.419 . S
C781 C782 1.362 . S
C782 H774 0.930 . S
C782 C781 1.362 . S
C782 C785 1.409 . S
C783 H775 0.930 . S
C783 C784 1.355 . S
C783 C785 1.415 1_655 S
C784 C783 1.355 . S
C784 C786 1.419 . S
C785 C780 1.425 1_455 S
C785 C782 1.409 . S
C785 C783 1.415 1_455 S
C786 H776 0.930 . S
C786 C784 1.419 . S
C786 C787 1.362 . S
C787 H777 0.930 . S
C787 C780 1.409 . S
C787 C786 1.362 . S
H788 C794 0.930 . S
H789 C797 0.930 . S
H790 C798 0.930 . S
H791 C799 0.930 . S
H792 C802 0.930 . S
H793 C803 0.930 . S
C794 H788 0.930 . S
C794 C795 1.355 . S
C794 C796 1.415 . S
C795 C794 1.355 . S
C795 C797 1.419 . S
C796 C794 1.415 . S
C796 C801 1.425 . S
C796 C803 1.409 . S
C797 H789 0.930 . S
C797 C795 1.419 . S
C797 C798 1.362 . S
C798 H790 0.930 . S
C798 C797 1.362 . S
C798 C801 1.409 . S
C799 H791 0.930 . S
C799 C800 1.355 . S
C799 C801 1.415 . S
C800 C799 1.355 . S
C800 C802 1.419 . S
C801 C796 1.425 . S
C801 C798 1.409 . S
C801 C799 1.415 . S
C802 H792 0.930 . S
C802 C800 1.419 . S
C802 C803 1.362 . S
C803 H793 0.930 . S
C803 C796 1.409 . S
C803 C802 1.362 . S
H804 C810 0.930 . S
H805 C813 0.930 . S
H806 C814 0.930 . S
H807 C815 0.930 . S
H808 C818 0.930 . S
H809 C819 0.930 . S
C810 H804 0.930 . S
C810 C811 1.355 . S
C810 C812 1.415 . S
C811 C810 1.355 . S
C811 C813 1.419 . S
C812 C810 1.415 . S
C812 C817 1.425 1_545 S
C812 C819 1.409 . S
C813 H805 0.930 . S
C813 C811 1.419 . S
C813 C814 1.362 1_545 S
C814 H806 0.930 . S
C814 C813 1.362 1_565 S
C814 C817 1.409 . S
C815 H807 0.930 . S
C815 C816 1.355 . S
C815 C817 1.415 . S
C816 C815 1.355 . S
C816 C818 1.419 . S
C817 C812 1.425 1_565 S
C817 C814 1.409 . S
C817 C815 1.415 . S
C818 H808 0.930 . S
C818 C816 1.419 . S
C818 C819 1.362 1_565 S
C819 H809 0.930 . S
C819 C812 1.409 . S
C819 C818 1.362 1_545 S
H820 C826 0.930 . S
H821 C829 0.930 . S
H822 C830 0.930 . S
H823 C831 0.930 . S
H824 C834 0.930 . S
H825 C835 0.930 . S
C826 H820 0.930 . S
C826 C827 1.355 . S
C826 C828 1.415 1_455 S
C827 C826 1.355 . S
C827 C829 1.419 . S
C828 C826 1.415 1_655 S
C828 C833 1.425 1_655 S
C828 C835 1.409 . S
C829 H821 0.930 . S
C829 C827 1.419 . S
C829 C830 1.362 . S
C830 H822 0.930 . S
C830 C829 1.362 . S
C830 C833 1.409 . S
C831 H823 0.930 . S
C831 C832 1.355 . S
C831 C833 1.415 1_655 S
C832 C831 1.355 . S
C832 C834 1.419 . S
C833 C828 1.425 1_455 S
C833 C830 1.409 . S
C833 C831 1.415 1_455 S
C834 H824 0.930 . S
C834 C832 1.419 . S
C834 C835 1.362 . S
C835 H825 0.930 . S
C835 C828 1.409 . S
C835 C834 1.362 . S
H836 C842 0.930 . S
H837 C845 0.930 . S
H838 C846 0.930 . S
H839 C847 0.930 . S
H840 C850 0.930 . S
H841 C851 0.930 . S
C842 H836 0.930 . S
C842 C843 1.355 . S
C842 C844 1.415 . S
C843 C842 1.355 . S
C843 C845 1.419 . S
C844 C842 1.415 . S
C844 C849 1.425 . S
C844 C851 1.409 . S
C845 H837 0.930 . S
C845 C843 1.419 . S
C845 C846 1.362 . S
C846 H838 0.930 . S
C846 C845 1.362 . S
C846 C849 1.409 . S
C847 H839 0.930 . S
C847 C848 1.355 . S
C847 C849 1.415 . S
C848 C847 1.355 . S
C848 C850 1.419 . S
C849 C844 1.425 . S
C849 C846 1.409 . S
C849 C847 1.415 . S
C850 H840 0.930 . S
C850 C848 1.419 . S
C850 C851 1.362 . S
C851 H841 0.930 . S
C851 C844 1.409 . S
C851 C850 1.362 . S
H852 C858 0.930 . S
H853 C861 0.930 . S
H854 C862 0.930 . S
H855 C863 0.930 . S
H856 C866 0.930 . S
H857 C867 0.930 . S
C858 H852 0.930 . S
C858 C859 1.355 . S
C858 C860 1.415 . S
C859 C858 1.355 . S
C859 C861 1.419 . S
C860 C858 1.415 . S
C860 C865 1.425 . S
C860 C867 1.409 . S
C861 H853 0.930 . S
C861 C859 1.419 . S
C861 C862 1.362 . S
C862 H854 0.930 . S
C862 C861 1.362 . S
C862 C865 1.409 . S
C863 H855 0.930 . S
C863 C864 1.355 . S
C863 C865 1.415 . S
C864 C863 1.355 . S
C864 C866 1.419 . S
C865 C860 1.425 . S
C865 C862 1.409 . S
C865 C863 1.415 . S
C866 H856 0.930 . S
C866 C864 1.419 . S
C866 C867 1.362 . S
C867 H857 0.930 . S
C867 C860 1.409 . S
C867 C866 1.362 . S
H868 C874 0.930 . S
H869 C877 0.930 . S
H870 C878 0.930 . S
H871 C879 0.930 . S
H872 C882 0.930 . S
H873 C883 0.930 . S
C874 H868 0.930 . S
C874 C875 1.355 . S
C874 C876 1.415 . S
C875 C874 1.355 . S
C875 C877 1.419 . S
C876 C874 1.415 . S
C876 C881 1.425 . S
C876 C883 1.409 . S
C877 H869 0.930 . S
C877 C875 1.419 . S
C877 C878 1.362 . S
C878 H870 0.930 . S
C878 C877 1.362 . S
C878 C881 1.409 . S
C879 H871 0.930 . S
C879 C880 1.355 . S
C879 C881 1.415 . S
C880 C879 1.355 . S
C880 C882 1.419 . S
C881 C876 1.425 . S
C881 C878 1.409 . S
C881 C879 1.415 . S
C882 H872 0.930 . S
C882 C880 1.419 . S
C882 C883 1.362 . S
C883 H873 0.930 . S
C883 C876 1.409 . S
C883 C882 1.362 . S
H884 C890 0.930 . S
H885 C893 0.930 . S
H886 C894 0.930 . S
H887 C895 0.930 . S
H888 C898 0.930 . S
H889 C899 0.930 . S
C890 H884 0.930 . S
C890 C891 1.355 . S
C890 C892 1.415 . S
C891 C890 1.355 . S
C891 C893 1.419 . S
C892 C890 1.415 . S
C892 C897 1.425 . S
C892 C899 1.409 . S
C893 H885 0.930 . S
C893 C891 1.419 . S
C893 C894 1.362 . S
C894 H886 0.930 . S
C894 C893 1.362 . S
C894 C897 1.409 . S
C895 H887 0.930 . S
C895 C896 1.355 . S
C895 C897 1.415 . S
C896 C895 1.355 . S
C896 C898 1.419 . S
C897 C892 1.425 . S
C897 C894 1.409 . S
C897 C895 1.415 . S
C898 H888 0.930 . S
C898 C896 1.419 . S
C898 C899 1.362 . S
C899 H889 0.930 . S
C899 C892 1.409 . S
C899 C898 1.362 . S
H900 C906 0.930 . S
H901 C909 0.930 . S
H902 C910 0.930 . S
H903 C911 0.930 . S
H904 C914 0.930 . S
H905 C915 0.930 . S
C906 H900 0.930 . S
C906 C907 1.355 . S
C906 C908 1.415 . S
C907 C906 1.355 . S
C907 C909 1.419 . S
C908 C906 1.415 . S
C908 C913 1.425 . S
C908 C915 1.409 . S
C909 H901 0.930 . S
C909 C907 1.419 . S
C909 C910 1.362 . S
C910 H902 0.930 . S
C910 C909 1.362 . S
C910 C913 1.409 . S
C911 H903 0.930 . S
C911 C912 1.355 . S
C911 C913 1.415 . S
C912 C911 1.355 . S
C912 C914 1.419 . S
C913 C908 1.425 . S
C913 C910 1.409 . S
C913 C911 1.415 . S
C914 H904 0.930 . S
C914 C912 1.419 . S
C914 C915 1.362 . S
C915 H905 0.930 . S
C915 C908 1.409 . S
C915 C914 1.362 . S
H916 C922 0.930 . S
H917 C925 0.930 . S
H918 C926 0.930 . S
H919 C927 0.930 . S
H920 C930 0.930 . S
H921 C931 0.930 . S
C922 H916 0.930 . S
C922 C923 1.355 . S
C922 C924 1.415 . S
C923 C922 1.355 . S
C923 C925 1.419 . S
C924 C922 1.415 . S
C924 C929 1.425 . S
C924 C931 1.409 . S
C925 H917 0.930 . S
C925 C923 1.419 . S
C925 C926 1.362 . S
C926 H918 0.930 . S
C926 C925 1.362 . S
C926 C929 1.409 . S
C927 H919 0.930 . S
C927 C928 1.355 . S
C927 C929 1.415 . S
C928 C927 1.355 . S
C928 C930 1.419 . S
C929 C924 1.425 . S
C929 C926 1.409 . S
C929 C927 1.415 . S
C930 H920 0.930 . S
C930 C928 1.419 . S
C930 C931 1.362 . S
C931 H921 0.930 . S
C931 C924 1.409 . S
C931 C930 1.362 . S
H932 C938 0.930 . S
H933 C941 0.930 . S
H934 C942 0.930 . S
H935 C943 0.930 . S
H936 C946 0.930 . S
H937 C947 0.930 . S
C938 H932 0.930 . S
C938 C939 1.355 . S
C938 C940 1.415 . S
C939 C938 1.355 . S
C939 C941 1.419 . S
C940 C938 1.415 . S
C940 C945 1.425 . S
C940 C947 1.409 . S
C941 H933 0.930 . S
C941 C939 1.419 . S
C941 C942 1.362 . S
C942 H934 0.930 . S
C942 C941 1.362 . S
C942 C945 1.409 . S
C943 H935 0.930 . S
C943 C944 1.355 . S
C943 C945 1.415 . S
C944 C943 1.355 . S
C944 C946 1.419 . S
C945 C940 1.425 . S
C945 C942 1.409 . S
C945 C943 1.415 . S
C946 H936 0.930 . S
C946 C944 1.419 . S
C946 C947 1.362 . S
C947 H937 0.930 . S
C947 C940 1.409 . S
C947 C946 1.362 . S
H948 C954 0.930 . S
H949 C957 0.930 . S
H950 C958 0.930 . S
H951 C959 0.930 . S
H952 C962 0.930 . S
H953 C963 0.930 . S
C954 H948 0.930 . S
C954 C955 1.355 . S
C954 C956 1.415 . S
C955 C954 1.355 . S
C955 C957 1.419 . S
C956 C954 1.415 . S
C956 C961 1.425 . S
C956 C963 1.409 . S
C957 H949 0.930 . S
C957 C955 1.419 . S
C957 C958 1.362 . S
C958 H950 0.930 . S
C958 C957 1.362 . S
C958 C961 1.409 . S
C959 H951 0.930 . S
C959 C960 1.355 . S
C959 C961 1.415 . S
C960 C959 1.355 . S
C960 C962 1.419 . S
C961 C956 1.425 . S
C961 C958 1.409 . S
C961 C959 1.415 . S
C962 H952 0.930 . S
C962 C960 1.419 . S
C962 C963 1.362 . S
C963 H953 0.930 . S
C963 C956 1.409 . S
C963 C962 1.362 . S
H964 C970 0.930 . S
H965 C973 0.930 . S
H966 C974 0.930 . S
H967 C975 0.930 . S
H968 C978 0.930 . S
H969 C979 0.930 . S
C970 H964 0.930 . S
C970 C971 1.355 . S
C970 C972 1.415 . S
C971 C970 1.355 . S
C971 C973 1.419 . S
C972 C970 1.415 . S
C972 C977 1.425 . S
C972 C979 1.409 . S
C973 H965 0.930 . S
C973 C971 1.419 . S
C973 C974 1.362 . S
C974 H966 0.930 . S
C974 C973 1.362 . S
C974 C977 1.409 . S
C975 H967 0.930 . S
C975 C976 1.355 . S
C975 C977 1.415 . S
C976 C975 1.355 . S
C976 C978 1.419 . S
C977 C972 1.425 . S
C977 C974 1.409 . S
C977 C975 1.415 . S
C978 H968 0.930 . S
C978 C976 1.419 . S
C978 C979 1.362 . S
C979 H969 0.930 . S
C979 C972 1.409 . S
C979 C978 1.362 . S
H980 C986 0.930 . S
H981 C989 0.930 . S
H982 C990 0.930 . S
H983 C991 0.930 . S
H984 C994 0.930 . S
H985 C995 0.930 . S
C986 H980 0.930 . S
C986 C987 1.355 . S
C986 C988 1.415 . S
C987 C986 1.355 . S
C987 C989 1.419 . S
C988 C986 1.415 . S
C988 C993 1.425 . S
C988 C995 1.409 . S
C989 H981 0.930 . S
C989 C987 1.419 . S
C989 C990 1.362 . S
C990 H982 0.930 . S
C990 C989 1.362 . S
C990 C993 1.409 . S
C991 H983 0.930 . S
C991 C992 1.355 . S
C991 C993 1.415 . S
C992 C991 1.355 . S
C992 C994 1.419 . S
C993 C988 1.425 . S
C993 C990 1.409 . S
C993 C991 1.415 . S
C994 H984 0.930 . S
C994 C992 1.419 . S
C994 C995 1.362 . S
C995 H985 0.930 . S
C995 C988 1.409 . S
C995 C994 1.362 . S
H996 C1002 0.930 . S
H997 C1005 0.930 . S
H998 C1006 0.930 . S
H999 C1007 0.930 . S
H1000 C1010 0.930 . S
H1001 C1011 0.930 . S
C1002 H996 0.930 . S
C1002 C1003 1.355 . S
C1002 C1004 1.415 . S
C1003 C1002 1.355 . S
C1003 C1005 1.419 . S
C1004 C1002 1.415 . S
C1004 C1009 1.425 . S
C1004 C1011 1.409 . S
C1005 H997 0.930 . S
C1005 C1003 1.419 . S
C1005 C1006 1.362 . S
C1006 H998 0.930 . S
C1006 C1005 1.362 . S
C1006 C1009 1.409 . S
C1007 H999 0.930 . S
C1007 C1008 1.355 . S
C1007 C1009 1.415 . S
C1008 C1007 1.355 . S
C1008 C1010 1.419 . S
C1009 C1004 1.425 . S
C1009 C1006 1.409 . S
C1009 C1007 1.415 . S
C1010 H1000 0.930 . S
C1010 C1008 1.419 . S
C1010 C1011 1.362 . S
C1011 H1001 0.930 . S
C1011 C1004 1.409 . S
C1011 C1010 1.362 . S
H1012 C1018 0.930 . S
H1013 C1021 0.930 . S
H1014 C1022 0.930 . S
H1015 C1023 0.930 . S
H1016 C1026 0.930 . S
H1017 C1027 0.930 . S
C1018 H1012 0.930 . S
C1018 C1019 1.355 . S
C1018 C1020 1.415 . S
C1019 C1018 1.355 . S
C1019 C1021 1.419 . S
C1020 C1018 1.415 . S
C1020 C1025 1.425 . S
C1020 C1027 1.409 . S
C1021 H1013 0.930 . S
C1021 C1019 1.419 . S
C1021 C1022 1.362 . S
C1022 H1014 0.930 . S
C1022 C1021 1.362 . S
C1022 C1025 1.409 . S
C1023 H1015 0.930 . S
C1023 C1024 1.355 . S
C1023 C1025 1.415 . S
C1024 C1023 1.355 . S
C1024 C1026 1.419 . S
C1025 C1020 1.425 . S
C1025 C1022 1.409 . S
C1025 C1023 1.415 . S
C1026 H1016 0.930 . S
C1026 C1024 1.419 . S
C1026 C1027 1.362 . S
C1027 H1017 0.930 . S
C1027 C1020 1.409 . S
C1027 C1026 1.362 . S
H1028 C1034 0.930 . S
H1029 C1037 0.930 . S
H1030 C1038 0.930 . S
H1031 C1039 0.930 . S
H1032 C1042 0.930 . S
H1033 C1043 0.930 . S
C1034 H1028 0.930 . S
C1034 C1035 1.355 . S
C1034 C1036 1.415 . S
C1035 C1034 1.355 . S
C1035 C1037 1.419 . S
C1036 C1034 1.415 . S
C1036 C1041 1.425 . S
C1036 C1043 1.409 . S
C1037 H1029 0.930 . S
C1037 C1035 1.419 . S
C1037 C1038 1.362 . S
C1038 H1030 0.930 . S
C1038 C1037 1.362 . S
C1038 C1041 1.409 . S
C1039 H1031 0.930 . S
C1039 C1040 1.355 . S
C1039 C1041 1.415 . S
C1040 C1039 1.355 . S
C1040 C1042 1.419 . S
C1041 C1036 1.425 . S
C1041 C1038 1.409 . S
C1041 C1039 1.415 . S
C1042 H1032 0.930 . S
C1042 C1040 1.419 . S
C1042 C1043 1.362 . S
C1043 H1033 0.930 . S
C1043 C1036 1.409 . S
C1043 C1042 1.362 . S
H1044 C1050 0.930 . S
H1045 C1053 0.930 . S
H1046 C1054 0.930 . S
H1047 C1055 0.930 . S
H1048 C1058 0.930 1_655 S
H1049 C1059 0.930 . S
C1050 H1044 0.930 . S
C1050 C1051 1.355 . S
C1050 C1052 1.415 . S
C1051 C1050 1.355 . S
C1051 C1053 1.419 . S
C1052 C1050 1.415 . S
C1052 C1057 1.425 . S
C1052 C1059 1.409 . S
C1053 H1045 0.930 . S
C1053 C1051 1.419 . S
C1053 C1054 1.362 . S
C1054 H1046 0.930 . S
C1054 C1053 1.362 . S
C1054 C1057 1.409 . S
C1055 H1047 0.930 . S
C1055 C1056 1.355 . S
C1055 C1057 1.415 . S
C1056 C1055 1.355 . S
C1056 C1058 1.419 . S
C1057 C1052 1.425 . S
C1057 C1054 1.409 . S
C1057 C1055 1.415 . S
C1058 H1048 0.930 1_455 S
C1058 C1056 1.419 . S
C1058 C1059 1.362 . S
C1059 H1049 0.930 . S
C1059 C1052 1.409 . S
C1059 C1058 1.362 . S
H1060 C1066 0.930 . S
H1061 C1069 0.930 . S
H1062 C1070 0.930 . S
H1063 C1071 0.930 . S
H1064 C1074 0.930 . S
H1065 C1075 0.930 . S
C1066 H1060 0.930 . S
C1066 C1067 1.355 . S
C1066 C1068 1.415 . S
C1067 C1066 1.355 . S
C1067 C1069 1.419 . S
C1068 C1066 1.415 . S
C1068 C1073 1.425 . S
C1068 C1075 1.409 . S
C1069 H1061 0.930 . S
C1069 C1067 1.419 . S
C1069 C1070 1.362 . S
C1070 H1062 0.930 . S
C1070 C1069 1.362 . S
C1070 C1073 1.409 . S
C1071 H1063 0.930 . S
C1071 C1072 1.355 . S
C1071 C1073 1.415 . S
C1072 C1071 1.355 . S
C1072 C1074 1.419 . S
C1073 C1068 1.425 . S
C1073 C1070 1.409 . S
C1073 C1071 1.415 . S
C1074 H1064 0.930 . S
C1074 C1072 1.419 . S
C1074 C1075 1.362 . S
C1075 H1065 0.930 . S
C1075 C1068 1.409 . S
C1075 C1074 1.362 . S
H1076 C1082 0.930 . S
H1077 C1085 0.930 . S
H1078 C1086 0.930 . S
H1079 C1087 0.930 . S
H1080 C1090 0.930 . S
H1081 C1091 0.930 . S
C1082 H1076 0.930 . S
C1082 C1083 1.355 . S
C1082 C1084 1.415 . S
C1083 C1082 1.355 . S
C1083 C1085 1.419 . S
C1084 C1082 1.415 . S
C1084 C1089 1.425 . S
C1084 C1091 1.409 . S
C1085 H1077 0.930 . S
C1085 C1083 1.419 . S
C1085 C1086 1.362 . S
C1086 H1078 0.930 . S
C1086 C1085 1.362 . S
C1086 C1089 1.409 . S
C1087 H1079 0.930 . S
C1087 C1088 1.355 . S
C1087 C1089 1.415 . S
C1088 C1087 1.355 . S
C1088 C1090 1.419 . S
C1089 C1084 1.425 . S
C1089 C1086 1.409 . S
C1089 C1087 1.415 . S
C1090 H1080 0.930 . S
C1090 C1088 1.419 . S
C1090 C1091 1.362 . S
C1091 H1081 0.930 . S
C1091 C1084 1.409 . S
C1091 C1090 1.362 . S
H1092 C1098 0.930 . S
H1093 C1101 0.930 . S
H1094 C1102 0.930 . S
H1095 C1103 0.930 . S
H1096 C1106 0.930 . S
H1097 C1107 0.930 . S
C1098 H1092 0.930 . S
C1098 C1099 1.355 . S
C1098 C1100 1.415 . S
C1099 C1098 1.355 . S
C1099 C1101 1.419 . S
C1100 C1098 1.415 . S
C1100 C1105 1.425 . S
C1100 C1107 1.409 . S
C1101 H1093 0.930 . S
C1101 C1099 1.419 . S
C1101 C1102 1.362 . S
C1102 H1094 0.930 . S
C1102 C1101 1.362 . S
C1102 C1105 1.409 . S
C1103 H1095 0.930 . S
C1103 C1104 1.355 . S
C1103 C1105 1.415 . S
C1104 C1103 1.355 . S
C1104 C1106 1.419 . S
C1105 C1100 1.425 . S
C1105 C1102 1.409 . S
C1105 C1103 1.415 . S
C1106 H1096 0.930 . S
C1106 C1104 1.419 . S
C1106 C1107 1.362 . S
C1107 H1097 0.930 . S
C1107 C1100 1.409 . S
C1107 C1106 1.362 . S
H1108 C1114 0.930 . S
H1109 C1117 0.930 . S
H1110 C1118 0.930 . S
H1111 C1119 0.930 . S
H1112 C1122 0.930 1_455 S
H1113 C1123 0.930 . S
C1114 H1108 0.930 . S
C1114 C1115 1.355 . S
C1114 C1116 1.415 . S
C1115 C1114 1.355 . S
C1115 C1117 1.419 . S
C1116 C1114 1.415 . S
C1116 C1121 1.425 . S
C1116 C1123 1.409 . S
C1117 H1109 0.930 . S
C1117 C1115 1.419 . S
C1117 C1118 1.362 . S
C1118 H1110 0.930 . S
C1118 C1117 1.362 . S
C1118 C1121 1.409 . S
C1119 H1111 0.930 . S
C1119 C1120 1.355 . S
C1119 C1121 1.415 . S
C1120 C1119 1.355 . S
C1120 C1122 1.419 . S
C1121 C1116 1.425 . S
C1121 C1118 1.409 . S
C1121 C1119 1.415 . S
C1122 H1112 0.930 1_655 S
C1122 C1120 1.419 . S
C1122 C1123 1.362 . S
C1123 H1113 0.930 . S
C1123 C1116 1.409 . S
C1123 C1122 1.362 . S
H1124 C1130 0.930 . S
H1125 C1133 0.930 . S
H1126 C1134 0.930 . S
H1127 C1135 0.930 . S
H1128 C1138 0.930 . S
H1129 C1139 0.930 . S
C1130 H1124 0.930 . S
C1130 C1131 1.355 . S
C1130 C1132 1.415 . S
C1131 C1130 1.355 . S
C1131 C1133 1.419 . S
C1132 C1130 1.415 . S
C1132 C1137 1.425 . S
C1132 C1139 1.409 . S
C1133 H1125 0.930 . S
C1133 C1131 1.419 . S
C1133 C1134 1.362 . S
C1134 H1126 0.930 . S
C1134 C1133 1.362 . S
C1134 C1137 1.409 . S
C1135 H1127 0.930 . S
C1135 C1136 1.355 . S
C1135 C1137 1.415 . S
C1136 C1135 1.355 . S
C1136 C1138 1.419 . S
C1137 C1132 1.425 . S
C1137 C1134 1.409 . S
C1137 C1135 1.415 . S
C1138 H1128 0.930 . S
C1138 C1136 1.419 . S
C1138 C1139 1.362 . S
C1139 H1129 0.930 . S
C1139 C1132 1.409 . S
C1139 C1138 1.362 . S
H1140 C1146 0.930 . S
H1141 C1149 0.930 . S
H1142 C1150 0.930 . S
H1143 C1151 0.930 . S
H1144 C1154 0.930 . S
H1145 C1155 0.930 . S
C1146 H1140 0.930 . S
C1146 C1147 1.355 . S
C1146 C1148 1.415 . S
C1147 C1146 1.355 . S
C1147 C1149 1.419 . S
C1148 C1146 1.415 . S
C1148 C1153 1.425 . S
C1148 C1155 1.409 . S
C1149 H1141 0.930 . S
C1149 C1147 1.419 . S
C1149 C1150 1.362 . S
C1150 H1142 0.930 . S
C1150 C1149 1.362 . S
C1150 C1153 1.409 . S
C1151 H1143 0.930 . S
C1151 C1152 1.355 . S
C1151 C1153 1.415 . S
C1152 C1151 1.355 . S
C1152 C1154 1.419 . S
C1153 C1148 1.425 . S
C1153 C1150 1.409 . S
C1153 C1151 1.415 . S
C1154 H1144 0.930 . S
C1154 C1152 1.419 . S
C1154 C1155 1.362 . S
C1155 H1145 0.930 . S
C1155 C1148 1.409 . S
C1155 C1154 1.362 . S
H1156 C1162 0.930 . S
H1157 C1165 0.930 . S
H1158 C1166 0.930 . S
H1159 C1167 0.930 . S
H1160 C1170 0.930 . S
H1161 C1171 0.930 . S
C1162 H1156 0.930 . S
C1162 C1163 1.355 . S
C1162 C1164 1.415 . S
C1163 C1162 1.355 . S
C1163 C1165 1.419 . S
C1164 C1162 1.415 . S
C1164 C1169 1.425 . S
C1164 C1171 1.409 . S
C1165 H1157 0.930 . S
C1165 C1163 1.419 . S
C1165 C1166 1.362 . S
C1166 H1158 0.930 . S
C1166 C1165 1.362 . S
C1166 C1169 1.409 . S
C1167 H1159 0.930 . S
C1167 C1168 1.355 . S
C1167 C1169 1.415 . S
C1168 C1167 1.355 . S
C1168 C1170 1.419 . S
C1169 C1164 1.425 . S
C1169 C1166 1.409 . S
C1169 C1167 1.415 . S
C1170 H1160 0.930 . S
C1170 C1168 1.419 . S
C1170 C1171 1.362 . S
C1171 H1161 0.930 . S
C1171 C1164 1.409 . S
C1171 C1170 1.362 . S
H1172 C1178 0.930 . S
H1173 C1181 0.930 . S
H1174 C1182 0.930 . S
H1175 C1183 0.930 . S
H1176 C1186 0.930 . S
H1177 C1187 0.930 . S
C1178 H1172 0.930 . S
C1178 C1179 1.355 . S
C1178 C1180 1.415 . S
C1179 C1178 1.355 . S
C1179 C1181 1.419 . S
C1180 C1178 1.415 . S
C1180 C1185 1.425 . S
C1180 C1187 1.409 . S
C1181 H1173 0.930 . S
C1181 C1179 1.419 . S
C1181 C1182 1.362 . S
C1182 H1174 0.930 . S
C1182 C1181 1.362 . S
C1182 C1185 1.409 . S
C1183 H1175 0.930 . S
C1183 C1184 1.355 . S
C1183 C1185 1.415 . S
C1184 C1183 1.355 . S
C1184 C1186 1.419 . S
C1185 C1180 1.425 . S
C1185 C1182 1.409 . S
C1185 C1183 1.415 . S
C1186 H1176 0.930 . S
C1186 C1184 1.419 . S
C1186 C1187 1.362 . S
C1187 H1177 0.930 . S
C1187 C1180 1.409 . S
C1187 C1186 1.362 . S
H1188 C1194 0.930 . S
H1189 C1197 0.930 . S
H1190 C1198 0.930 1_556 S
H1191 C1199 0.930 . S
H1192 C1202 0.930 . S
H1193 C1203 0.930 . S
C1194 H1188 0.930 . S
C1194 C1195 1.355 . S
C1194 C1196 1.415 . S
C1195 C1194 1.355 . S
C1195 C1197 1.419 . S
C1196 C1194 1.415 . S
C1196 C1201 1.425 . S
C1196 C1203 1.409 . S
C1197 H1189 0.930 . S
C1197 C1195 1.419 . S
C1197 C1198 1.362 . S
C1198 H1190 0.930 1_554 S
C1198 C1197 1.362 . S
C1198 C1201 1.409 . S
C1199 H1191 0.930 . S
C1199 C1200 1.355 . S
C1199 C1201 1.415 . S
C1200 C1199 1.355 . S
C1200 C1202 1.419 . S
C1201 C1196 1.425 . S
C1201 C1198 1.409 . S
C1201 C1199 1.415 . S
C1202 H1192 0.930 . S
C1202 C1200 1.419 . S
C1202 C1203 1.362 . S
C1203 H1193 0.930 . S
C1203 C1196 1.409 . S
C1203 C1202 1.362 . S
H1204 C1210 0.930 . S
H1205 C1213 0.930 . S
H1206 C1214 0.930 . S
H1207 C1215 0.930 . S
H1208 C1218 0.930 . S
H1209 C1219 0.930 . S
C1210 H1204 0.930 . S
C1210 C1211 1.355 . S
C1210 C1212 1.415 . S
C1211 C1210 1.355 . S
C1211 C1213 1.419 . S
C1212 C1210 1.415 . S
C1212 C1217 1.425 . S
C1212 C1219 1.409 . S
C1213 H1205 0.930 . S
C1213 C1211 1.419 . S
C1213 C1214 1.362 . S
C1214 H1206 0.930 . S
C1214 C1213 1.362 . S
C1214 C1217 1.409 . S
C1215 H1207 0.930 . S
C1215 C1216 1.355 . S
C1215 C1217 1.415 . S
C1216 C1215 1.355 . S
C1216 C1218 1.419 . S
C1217 C1212 1.425 . S
C1217 C1214 1.409 . S
C1217 C1215 1.415 . S
C1218 H1208 0.930 . S
C1218 C1216 1.419 . S
C1218 C1219 1.362 . S
C1219 H1209 0.930 . S
C1219 C1212 1.409 . S
C1219 C1218 1.362 . S
H1220 C1226 0.930 . S
H1221 C1229 0.930 . S
H1222 C1230 0.930 . S
H1223 C1231 0.930 . S
H1224 C1234 0.930 . S
H1225 C1235 0.930 . S
C1226 H1220 0.930 . S
C1226 C1227 1.355 . S
C1226 C1228 1.415 . S
C1227 C1226 1.355 . S
C1227 C1229 1.419 . S
C1228 C1226 1.415 . S
C1228 C1233 1.425 . S
C1228 C1235 1.409 . S
C1229 H1221 0.930 . S
C1229 C1227 1.419 . S
C1229 C1230 1.362 . S
C1230 H1222 0.930 . S
C1230 C1229 1.362 . S
C1230 C1233 1.409 . S
C1231 H1223 0.930 . S
C1231 C1232 1.355 . S
C1231 C1233 1.415 . S
C1232 C1231 1.355 . S
C1232 C1234 1.419 . S
C1233 C1228 1.425 . S
C1233 C1230 1.409 . S
C1233 C1231 1.415 . S
C1234 H1224 0.930 . S
C1234 C1232 1.419 . S
C1234 C1235 1.362 . S
C1235 H1225 0.930 . S
C1235 C1228 1.409 . S
C1235 C1234 1.362 . S
H1236 C1242 0.930 . S
H1237 C1245 0.930 . S
H1238 C1246 0.930 . S
H1239 C1247 0.930 . S
H1240 C1250 0.930 . S
H1241 C1251 0.930 . S
C1242 H1236 0.930 . S
C1242 C1243 1.355 . S
C1242 C1244 1.415 . S
C1243 C1242 1.355 . S
C1243 C1245 1.419 . S
C1244 C1242 1.415 . S
C1244 C1249 1.425 . S
C1244 C1251 1.409 . S
C1245 H1237 0.930 . S
C1245 C1243 1.419 . S
C1245 C1246 1.362 . S
C1246 H1238 0.930 . S
C1246 C1245 1.362 . S
C1246 C1249 1.409 . S
C1247 H1239 0.930 . S
C1247 C1248 1.355 . S
C1247 C1249 1.415 . S
C1248 C1247 1.355 . S
C1248 C1250 1.419 . S
C1249 C1244 1.425 . S
C1249 C1246 1.409 . S
C1249 C1247 1.415 . S
C1250 H1240 0.930 . S
C1250 C1248 1.419 . S
C1250 C1251 1.362 . S
C1251 H1241 0.930 . S
C1251 C1244 1.409 . S
C1251 C1250 1.362 . S
H1252 C1258 0.930 . S
H1253 C1261 0.930 . S
H1254 C1262 0.930 . S
H1255 C1263 0.930 1_554 S
H1256 C1266 0.930 . S
H1257 C1267 0.930 . S
C1258 H1252 0.930 . S
C1258 C1259 1.355 . S
C1258 C1260 1.415 . S
C1259 C1258 1.355 . S
C1259 C1261 1.419 1_556 S
C1260 C1258 1.415 . S
C1260 C1265 1.425 . S
C1260 C1267 1.409 . S
C1261 H1253 0.930 . S
C1261 C1259 1.419 1_554 S
C1261 C1262 1.362 . S
C1262 H1254 0.930 . S
C1262 C1261 1.362 . S
C1262 C1265 1.409 1_554 S
C1263 H1255 0.930 1_556 S
C1263 C1264 1.355 . S
C1263 C1265 1.415 . S
C1264 C1263 1.355 . S
C1264 C1266 1.419 . S
C1265 C1260 1.425 . S
C1265 C1262 1.409 1_556 S
C1265 C1263 1.415 . S
C1266 H1256 0.930 . S
C1266 C1264 1.419 . S
C1266 C1267 1.362 . S
C1267 H1257 0.930 . S
C1267 C1260 1.409 . S
C1267 C1266 1.362 . S
H1268 C1274 0.930 . S
H1269 C1277 0.930 . S
H1270 C1278 0.930 . S
H1271 C1279 0.930 . S
H1272 C1282 0.930 . S
H1273 C1283 0.930 . S
C1274 H1268 0.930 . S
C1274 C1275 1.355 . S
C1274 C1276 1.415 . S
C1275 C1274 1.355 . S
C1275 C1277 1.419 . S
C1276 C1274 1.415 . S
C1276 C1281 1.425 . S
C1276 C1283 1.409 . S
C1277 H1269 0.930 . S
C1277 C1275 1.419 . S
C1277 C1278 1.362 . S
C1278 H1270 0.930 . S
C1278 C1277 1.362 . S
C1278 C1281 1.409 . S
C1279 H1271 0.930 . S
C1279 C1280 1.355 . S
C1279 C1281 1.415 . S
C1280 C1279 1.355 . S
C1280 C1282 1.419 . S
C1281 C1276 1.425 . S
C1281 C1278 1.409 . S
C1281 C1279 1.415 . S
C1282 H1272 0.930 . S
C1282 C1280 1.419 . S
C1282 C1283 1.362 . S
C1283 H1273 0.930 . S
C1283 C1276 1.409 . S
C1283 C1282 1.362 . S
H1284 C1290 0.930 . S
H1285 C1293 0.930 . S
H1286 C1294 0.930 . S
H1287 C1295 0.930 . S
H1288 C1298 0.930 . S
H1289 C1299 0.930 . S
C1290 H1284 0.930 . S
C1290 C1291 1.355 . S
C1290 C1292 1.415 . S
C1291 C1290 1.355 . S
C1291 C1293 1.419 . S
C1292 C1290 1.415 . S
C1292 C1297 1.425 . S
C1292 C1299 1.409 . S
C1293 H1285 0.930 . S
C1293 C1291 1.419 . S
C1293 C1294 1.362 . S
C1294 H1286 0.930 . S
C1294 C1293 1.362 . S
C1294 C1297 1.409 . S
C1295 H1287 0.930 . S
C1295 C1296 1.355 . S
C1295 C1297 1.415 . S
C1296 C1295 1.355 . S
C1296 C1298 1.419 . S
C1297 C1292 1.425 . S
C1297 C1294 1.409 . S
C1297 C1295 1.415 . S
C1298 H1288 0.930 . S
C1298 C1296 1.419 . S
C1298 C1299 1.362 . S
C1299 H1289 0.930 . S
C1299 C1292 1.409 . S
C1299 C1298 1.362 . S
H1300 C1306 0.930 . S
H1301 C1309 0.930 . S
H1302 C1310 0.930 . S
H1303 C1311 0.930 . S
H1304 C1314 0.930 . S
H1305 C1315 0.930 . S
C1306 H1300 0.930 . S
C1306 C1307 1.355 . S
C1306 C1308 1.415 . S
C1307 C1306 1.355 . S
C1307 C1309 1.419 . S
C1308 C1306 1.415 . S
C1308 C1313 1.425 . S
C1308 C1315 1.409 . S
C1309 H1301 0.930 . S
C1309 C1307 1.419 . S
C1309 C1310 1.362 . S
C1310 H1302 0.930 . S
C1310 C1309 1.362 . S
C1310 C1313 1.409 . S
C1311 H1303 0.930 . S
C1311 C1312 1.355 . S
C1311 C1313 1.415 . S
C1312 C1311 1.355 . S
C1312 C1314 1.419 . S
C1313 C1308 1.425 . S
C1313 C1310 1.409 . S
C1313 C1311 1.415 . S
C1314 H1304 0.930 . S
C1314 C1312 1.419 . S
C1314 C1315 1.362 . S
C1315 H1305 0.930 . S
C1315 C1308 1.409 . S
C1315 C1314 1.362 . S
H1316 C1322 0.930 . S
H1317 C1325 0.930 . S
H1318 C1326 0.930 . S
H1319 C1327 0.930 . S
H1320 C1330 0.930 . S
H1321 C1331 0.930 . S
C1322 H1316 0.930 . S
C1322 C1323 1.355 . S
C1322 C1324 1.415 . S
C1323 C1322 1.355 . S
C1323 C1325 1.419 . S
C1324 C1322 1.415 . S
C1324 C1329 1.425 . S
C1324 C1331 1.409 . S
C1325 H1317 0.930 . S
C1325 C1323 1.419 . S
C1325 C1326 1.362 . S
C1326 H1318 0.930 . S
C1326 C1325 1.362 . S
C1326 C1329 1.409 . S
C1327 H1319 0.930 . S
C1327 C1328 1.355 . S
C1327 C1329 1.415 . S
C1328 C1327 1.355 . S
C1328 C1330 1.419 . S
C1329 C1324 1.425 . S
C1329 C1326 1.409 . S
C1329 C1327 1.415 . S
C1330 H1320 0.930 . S
C1330 C1328 1.419 . S
C1330 C1331 1.362 . S
C1331 H1321 0.930 . S
C1331 C1324 1.409 . S
C1331 C1330 1.362 . S
H1332 C1338 0.930 . S
H1333 C1341 0.930 . S
H1334 C1342 0.930 . S
H1335 C1343 0.930 . S
H1336 C1346 0.930 . S
H1337 C1347 0.931 1_565 S
C1338 H1332 0.930 . S
C1338 C1339 1.355 . S
C1338 C1340 1.415 . S
C1339 C1338 1.355 . S
C1339 C1341 1.419 . S
C1340 C1338 1.415 . S
C1340 C1345 1.425 . S
C1340 C1347 1.417 . S
C1341 H1333 0.930 . S
C1341 C1339 1.419 . S
C1341 C1342 1.362 . S
C1342 H1334 0.930 . S
C1342 C1341 1.362 . S
C1342 C1345 1.409 . S
C1343 H1335 0.930 . S
C1343 C1344 1.355 1_545 S
C1343 C1345 1.415 . S
C1344 C1343 1.355 1_565 S
C1344 C1346 1.419 . S
C1345 C1340 1.425 . S
C1345 C1342 1.409 . S
C1345 C1343 1.415 . S
C1346 H1336 0.930 . S
C1346 C1344 1.419 . S
C1346 C1347 1.354 1_565 S
C1347 H1337 0.931 1_545 S
C1347 C1340 1.417 . S
C1347 C1346 1.354 1_545 S
H1348 C1354 0.930 . S
H1349 C1357 0.930 . S
H1350 C1358 0.930 1_455 S
H1351 C1359 0.930 . S
H1352 C1362 0.930 . S
H1353 C1363 0.930 . S
C1354 H1348 0.930 . S
C1354 C1355 1.355 1_655 S
C1354 C1356 1.415 . S
C1355 C1354 1.355 1_455 S
C1355 C1357 1.419 . S
C1356 C1354 1.415 . S
C1356 C1361 1.425 . S
C1356 C1363 1.409 . S
C1357 H1349 0.930 . S
C1357 C1355 1.419 . S
C1357 C1358 1.362 1_455 S
C1358 H1350 0.930 1_655 S
C1358 C1357 1.362 1_655 S
C1358 C1361 1.409 . S
C1359 H1351 0.930 . S
C1359 C1360 1.355 . S
C1359 C1361 1.415 . S
C1360 C1359 1.355 . S
C1360 C1362 1.419 . S
C1361 C1356 1.425 . S
C1361 C1358 1.409 . S
C1361 C1359 1.415 . S
C1362 H1352 0.930 . S
C1362 C1360 1.419 . S
C1362 C1363 1.362 . S
C1363 H1353 0.930 . S
C1363 C1356 1.409 . S
C1363 C1362 1.362 . S
H1364 C1370 0.930 . S
H1365 C1373 0.930 . S
H1366 C1374 0.930 . S
H1367 C1375 0.930 . S
H1368 C1378 0.930 . S
H1369 C1379 0.930 . S
C1370 H1364 0.930 . S
C1370 C1371 1.355 . S
C1370 C1372 1.415 . S
C1371 C1370 1.355 . S
C1371 C1373 1.419 . S
C1372 C1370 1.415 . S
C1372 C1377 1.425 . S
C1372 C1379 1.409 . S
C1373 H1365 0.930 . S
C1373 C1371 1.419 . S
C1373 C1374 1.362 . S
C1374 H1366 0.930 . S
C1374 C1373 1.362 . S
C1374 C1377 1.409 . S
C1375 H1367 0.930 . S
C1375 C1376 1.355 . S
C1375 C1377 1.415 . S
C1376 C1375 1.355 . S
C1376 C1378 1.419 . S
C1377 C1372 1.425 . S
C1377 C1374 1.409 . S
C1377 C1375 1.415 . S
C1378 H1368 0.930 . S
C1378 C1376 1.419 . S
C1378 C1379 1.362 . S
C1379 H1369 0.930 . S
C1379 C1372 1.409 . S
C1379 C1378 1.362 . S
H1380 C1386 0.930 . S
H1381 C1389 0.930 . S
H1382 C1390 0.910 1_655 S
H1383 C1391 0.930 . S
H1384 C1394 0.930 . S
H1385 C1395 0.930 . S
C1386 H1380 0.930 . S
C1386 C1387 1.355 . S
C1386 C1388 1.415 . S
C1387 C1386 1.355 . S
C1387 C1389 1.419 . S
C1388 C1386 1.415 . S
C1388 C1393 1.425 . S
C1388 C1395 1.409 . S
C1389 H1381 0.930 . S
C1389 C1387 1.419 . S
C1389 C1390 1.388 . S
C1390 H1382 0.910 1_455 S
C1390 C1389 1.388 . S
C1390 C1393 1.404 . S
C1391 H1383 0.930 . S
C1391 C1392 1.353 . S
C1391 C1393 1.415 1_655 S
C1392 C1391 1.353 . S
C1392 C1394 1.410 1_655 S
C1393 C1388 1.425 . S
C1393 C1390 1.404 . S
C1393 C1391 1.415 1_455 S
C1394 H1384 0.930 . S
C1394 C1392 1.410 1_455 S
C1394 C1395 1.362 . S
C1395 H1385 0.930 . S
C1395 C1388 1.409 . S
C1395 C1394 1.362 . S
H1396 C1402 0.930 . S
H1397 C1405 0.930 . S
H1398 C1406 0.930 . S
H1399 C1407 0.930 . S
H1400 C1410 0.930 . S
H1401 C1411 0.930 . S
C1402 H1396 0.930 . S
C1402 C1403 1.355 . S
C1402 C1404 1.415 . S
C1403 C1402 1.355 . S
C1403 C1405 1.419 . S
C1404 C1402 1.415 . S
C1404 C1409 1.425 . S
C1404 C1411 1.409 . S
C1405 H1397 0.930 . S
C1405 C1403 1.419 . S
C1405 C1406 1.362 . S
C1406 H1398 0.930 . S
C1406 C1405 1.362 . S
C1406 C1409 1.409 . S
C1407 H1399 0.930 . S
C1407 C1408 1.355 . S
C1407 C1409 1.415 . S
C1408 C1407 1.355 . S
C1408 C1410 1.419 . S
C1409 C1404 1.425 . S
C1409 C1406 1.409 . S
C1409 C1407 1.415 . S
C1410 H1400 0.930 . S
C1410 C1408 1.419 . S
C1410 C1411 1.362 . S
C1411 H1401 0.930 . S
C1411 C1404 1.409 . S
C1411 C1410 1.362 . S
H1412 C1418 0.930 . S
H1413 C1421 0.930 . S
H1414 C1422 0.930 . S
H1415 C1423 0.930 . S
H1416 C1426 0.930 . S
H1417 C1427 0.930 . S
C1418 H1412 0.930 . S
C1418 C1419 1.355 1_565 S
C1418 C1420 1.415 . S
C1419 C1418 1.355 1_545 S
C1419 C1421 1.419 . S
C1420 C1418 1.415 . S
C1420 C1425 1.425 . S
C1420 C1427 1.409 . S
C1421 H1413 0.930 . S
C1421 C1419 1.419 . S
C1421 C1422 1.362 . S
C1422 H1414 0.930 . S
C1422 C1421 1.362 . S
C1422 C1425 1.409 1_545 S
C1423 H1415 0.930 . S
C1423 C1424 1.355 . S
C1423 C1425 1.415 . S
C1424 C1423 1.355 . S
C1424 C1426 1.419 . S
C1425 C1420 1.425 . S
C1425 C1422 1.409 1_565 S
C1425 C1423 1.415 . S
C1426 H1416 0.930 . S
C1426 C1424 1.419 . S
C1426 C1427 1.362 . S
C1427 H1417 0.930 . S
C1427 C1420 1.409 . S
C1427 C1426 1.362 . S
H1428 C1434 0.930 . S
H1429 C1437 0.930 1_545 S
H1430 C1438 0.930 . S
H1431 C1439 0.930 . S
H1432 C1442 0.930 . S
H1433 C1443 0.930 . S
C1434 H1428 0.930 . S
C1434 C1435 1.355 . S
C1434 C1436 1.415 . S
C1435 C1434 1.355 . S
C1435 C1437 1.419 . S
C1436 C1434 1.415 . S
C1436 C1441 1.425 1_565 S
C1436 C1443 1.409 . S
C1437 H1429 0.930 1_565 S
C1437 C1435 1.419 . S
C1437 C1438 1.362 1_565 S
C1438 H1430 0.930 . S
C1438 C1437 1.362 1_545 S
C1438 C1441 1.409 . S
C1439 H1431 0.930 . S
C1439 C1440 1.355 . S
C1439 C1441 1.415 . S
C1440 C1439 1.355 . S
C1440 C1442 1.419 1_545 S
C1441 C1436 1.425 1_545 S
C1441 C1438 1.409 . S
C1441 C1439 1.415 . S
C1442 H1432 0.930 . S
C1442 C1440 1.419 1_565 S
C1442 C1443 1.362 . S
C1443 H1433 0.930 . S
C1443 C1436 1.409 . S
C1443 C1442 1.362 . S
H1444 C1450 0.930 . S
H1445 C1453 0.930 . S
H1446 C1454 0.930 . S
H1447 C1455 0.930 . S
H1448 C1458 0.930 1_655 S
H1449 C1459 0.930 . S
C1450 H1444 0.930 . S
C1450 C1451 1.355 . S
C1450 C1452 1.415 . S
C1451 C1450 1.355 . S
C1451 C1453 1.419 1_655 S
C1452 C1450 1.415 . S
C1452 C1457 1.425 1_655 S
C1452 C1459 1.409 . S
C1453 H1445 0.930 . S
C1453 C1451 1.419 1_455 S
C1453 C1454 1.362 . S
C1454 H1446 0.930 . S
C1454 C1453 1.362 . S
C1454 C1457 1.409 . S
C1455 H1447 0.930 . S
C1455 C1456 1.355 . S
C1455 C1457 1.415 . S
C1456 C1455 1.355 . S
C1456 C1458 1.419 . S
C1457 C1452 1.425 1_455 S
C1457 C1454 1.409 . S
C1457 C1455 1.415 . S
C1458 H1448 0.930 1_455 S
C1458 C1456 1.419 . S
C1458 C1459 1.362 1_455 S
C1459 H1449 0.930 . S
C1459 C1452 1.409 . S
C1459 C1458 1.362 1_655 S
H1460 C1466 0.930 . S
H1461 C1469 0.930 . S
H1462 C1470 0.930 . S
H1463 C1471 0.930 . S
H1464 C1474 0.930 . S
H1465 C1475 0.930 . S
C1466 H1460 0.930 . S
C1466 C1467 1.355 . S
C1466 C1468 1.415 . S
C1467 C1466 1.355 . S
C1467 C1469 1.419 . S
C1468 C1466 1.415 . S
C1468 C1473 1.425 . S
C1468 C1475 1.409 . S
C1469 H1461 0.930 . S
C1469 C1467 1.419 . S
C1469 C1470 1.362 . S
C1470 H1462 0.930 . S
C1470 C1469 1.362 . S
C1470 C1473 1.409 . S
C1471 H1463 0.930 . S
C1471 C1472 1.355 . S
C1471 C1473 1.415 . S
C1472 C1471 1.355 . S
C1472 C1474 1.419 . S
C1473 C1468 1.425 . S
C1473 C1470 1.409 . S
C1473 C1471 1.415 . S
C1474 H1464 0.930 . S
C1474 C1472 1.419 . S
C1474 C1475 1.362 . S
C1475 H1465 0.930 . S
C1475 C1468 1.409 . S
C1475 C1474 1.362 . S
H1476 C1482 0.930 . S
H1477 C1485 0.930 . S
H1478 C1486 0.930 . S
H1479 C1487 0.930 . S
H1480 C1490 0.930 . S
H1481 C1491 0.930 . S
C1482 H1476 0.930 . S
C1482 C1483 1.355 . S
C1482 C1484 1.415 1_455 S
C1483 C1482 1.355 . S
C1483 C1485 1.419 . S
C1484 C1482 1.415 1_655 S
C1484 C1489 1.425 . S
C1484 C1491 1.409 . S
C1485 H1477 0.930 . S
C1485 C1483 1.419 . S
C1485 C1486 1.362 1_455 S
C1486 H1478 0.930 . S
C1486 C1485 1.362 1_655 S
C1486 C1489 1.409 . S
C1487 H1479 0.930 . S
C1487 C1488 1.355 . S
C1487 C1489 1.415 . S
C1488 C1487 1.355 . S
C1488 C1490 1.419 . S
C1489 C1484 1.425 . S
C1489 C1486 1.409 . S
C1489 C1487 1.415 . S
C1490 H1480 0.930 . S
C1490 C1488 1.419 . S
C1490 C1491 1.362 . S
C1491 H1481 0.930 . S
C1491 C1484 1.409 . S
C1491 C1490 1.362 . S
H1492 C1498 0.930 . S
H1493 C1501 0.930 . S
H1494 C1502 0.930 . S
H1495 C1503 0.930 . S
H1496 C1506 0.930 . S
H1497 C1507 0.930 . S
C1498 H1492 0.930 . S
C1498 C1499 1.355 . S
C1498 C1500 1.415 . S
C1499 C1498 1.355 . S
C1499 C1501 1.419 . S
C1500 C1498 1.415 . S
C1500 C1505 1.425 . S
C1500 C1507 1.409 . S
C1501 H1493 0.930 . S
C1501 C1499 1.419 . S
C1501 C1502 1.362 . S
C1502 H1494 0.930 . S
C1502 C1501 1.362 . S
C1502 C1505 1.409 . S
C1503 H1495 0.930 . S
C1503 C1504 1.355 . S
C1503 C1505 1.415 . S
C1504 C1503 1.355 . S
C1504 C1506 1.419 . S
C1505 C1500 1.425 . S
C1505 C1502 1.409 . S
C1505 C1503 1.415 . S
C1506 H1496 0.930 . S
C1506 C1504 1.419 . S
C1506 C1507 1.362 . S
C1507 H1497 0.930 . S
C1507 C1500 1.409 . S
C1507 C1506 1.362 . S
H1508 C1514 0.928 1_545 S
H1509 C1517 0.930 . S
H1510 C1518 0.930 . S
H1511 C1519 0.930 . S
H1512 C1522 0.930 . S
H1513 C1523 0.930 . S
C1514 H1508 0.928 1_565 S
C1514 C1515 1.356 . S
C1514 C1516 1.415 1_565 S
C1515 C1514 1.356 . S
C1515 C1517 1.419 . S
C1516 C1514 1.415 1_545 S
C1516 C1521 1.425 . S
C1516 C1523 1.409 . S
C1517 H1509 0.930 . S
C1517 C1515 1.419 . S
C1517 C1518 1.362 . S
C1518 H1510 0.930 . S
C1518 C1517 1.362 . S
C1518 C1521 1.409 1_565 S
C1519 H1511 0.930 . S
C1519 C1520 1.355 . S
C1519 C1521 1.415 . S
C1520 C1519 1.355 . S
C1520 C1522 1.419 . S
C1521 C1516 1.425 . S
C1521 C1518 1.409 1_545 S
C1521 C1519 1.415 . S
C1522 H1512 0.930 . S
C1522 C1520 1.419 . S
C1522 C1523 1.362 . S
C1523 H1513 0.930 . S
C1523 C1516 1.409 . S
C1523 C1522 1.362 . S
H1524 C1530 0.930 . S
H1525 C1533 0.930 . S
H1526 C1534 0.930 . S
H1527 C1535 0.930 . S
H1528 C1538 0.930 . S
H1529 C1539 0.930 . S
C1530 H1524 0.930 . S
C1530 C1531 1.355 . S
C1530 C1532 1.415 . S
C1531 C1530 1.355 . S
C1531 C1533 1.419 1_554 S
C1532 C1530 1.415 . S
C1532 C1537 1.425 1_554 S
C1532 C1539 1.409 . S
C1533 H1525 0.930 . S
C1533 C1531 1.419 1_556 S
C1533 C1534 1.362 . S
C1534 H1526 0.930 . S
C1534 C1533 1.362 . S
C1534 C1537 1.409 . S
C1535 H1527 0.930 . S
C1535 C1536 1.355 . S
C1535 C1537 1.415 . S
C1536 C1535 1.355 . S
C1536 C1538 1.419 1_556 S
C1537 C1532 1.425 1_556 S
C1537 C1534 1.409 . S
C1537 C1535 1.415 . S
C1538 H1528 0.930 . S
C1538 C1536 1.419 1_554 S
C1538 C1539 1.362 . S
C1539 H1529 0.930 . S
C1539 C1532 1.409 . S
C1539 C1538 1.362 . S
H1540 C1546 0.930 . S
H1541 C1549 0.930 . S
H1542 C1550 0.930 . S
H1543 C1551 0.930 . S
H1544 C1554 0.930 . S
H1545 C1555 0.930 . S
C1546 H1540 0.930 . S
C1546 C1547 1.355 . S
C1546 C1548 1.415 . S
C1547 C1546 1.355 . S
C1547 C1549 1.419 1_554 S
C1548 C1546 1.415 . S
C1548 C1553 1.425 1_564 S
C1548 C1555 1.409 1_565 S
C1549 H1541 0.930 . S
C1549 C1547 1.419 1_556 S
C1549 C1550 1.362 . S
C1550 H1542 0.930 . S
C1550 C1549 1.362 . S
C1550 C1553 1.409 1_565 S
C1551 H1543 0.930 . S
C1551 C1552 1.355 . S
C1551 C1553 1.415 . S
C1552 C1551 1.355 . S
C1552 C1554 1.419 1_556 S
C1553 C1548 1.425 1_546 S
C1553 C1550 1.409 1_545 S
C1553 C1551 1.415 . S
C1554 H1544 0.930 . S
C1554 C1552 1.419 1_554 S
C1554 C1555 1.362 . S
C1555 H1545 0.930 . S
C1555 C1548 1.409 1_545 S
C1555 C1554 1.362 . S
H1556 C1562 0.930 . S
H1557 C1565 0.930 . S
H1558 C1566 0.930 . S
H1559 C1567 0.930 . S
H1560 C1570 0.930 . S
H1561 C1571 0.930 . S
C1562 H1556 0.930 . S
C1562 C1563 1.355 . S
C1562 C1564 1.415 . S
C1563 C1562 1.355 . S
C1563 C1565 1.419 1_556 S
C1564 C1562 1.415 . S
C1564 C1569 1.425 1_656 S
C1564 C1571 1.409 1_655 S
C1565 H1557 0.930 . S
C1565 C1563 1.419 1_554 S
C1565 C1566 1.362 . S
C1566 H1558 0.930 . S
C1566 C1565 1.362 . S
C1566 C1569 1.409 1_655 S
C1567 H1559 0.930 . S
C1567 C1568 1.355 . S
C1567 C1569 1.415 . S
C1568 C1567 1.355 . S
C1568 C1570 1.419 1_554 S
C1569 C1564 1.425 1_454 S
C1569 C1566 1.409 1_455 S
C1569 C1567 1.415 . S
C1570 H1560 0.930 . S
C1570 C1568 1.419 1_556 S
C1570 C1571 1.362 . S
C1571 H1561 0.930 . S
C1571 C1564 1.409 1_455 S
C1571 C1570 1.362 . S
H1572 C1578 0.930 . S
H1573 C1581 0.930 . S
H1574 C1582 0.930 . S
H1575 C1583 0.930 . S
H1576 C1586 0.930 . S
H1577 C1587 0.930 . S
C1578 H1572 0.930 . S
C1578 C1579 1.355 . S
C1578 C1580 1.416 . S
C1579 C1578 1.355 . S
C1579 C1581 1.419 . S
C1580 C1578 1.416 . S
C1580 C1585 1.425 1_556 S
C1580 C1587 1.408 1_556 S
C1581 H1573 0.930 . S
C1581 C1579 1.419 . S
C1581 C1582 1.362 . S
C1582 H1574 0.930 . S
C1582 C1581 1.362 . S
C1582 C1585 1.409 1_556 S
C1583 H1575 0.930 . S
C1583 C1584 1.355 . S
C1583 C1585 1.415 . S
C1584 C1583 1.355 . S
C1584 C1586 1.419 . S
C1585 C1580 1.425 1_554 S
C1585 C1582 1.409 1_554 S
C1585 C1583 1.415 . S
C1586 H1576 0.930 . S
C1586 C1584 1.419 . S
C1586 C1587 1.362 . S
C1587 H1577 0.930 . S
C1587 C1580 1.408 1_554 S
C1587 C1586 1.362 . S
H1588 C1594 0.930 . S
H1589 C1597 0.930 . S
H1590 C1598 0.930 . S
H1591 C1599 0.930 . S
H1592 C1602 0.930 . S
H1593 C1603 0.930 . S
C1594 H1588 0.930 . S
C1594 C1595 1.355 . S
C1594 C1596 1.415 . S
C1595 C1594 1.355 . S
C1595 C1597 1.419 1_554 S
C1596 C1594 1.415 . S
C1596 C1601 1.425 1_564 S
C1596 C1603 1.409 1_565 S
C1597 H1589 0.930 . S
C1597 C1595 1.419 1_556 S
C1597 C1598 1.362 . S
C1598 H1590 0.930 . S
C1598 C1597 1.362 . S
C1598 C1601 1.409 1_565 S
C1599 H1591 0.930 . S
C1599 C1600 1.355 . S
C1599 C1601 1.415 . S
C1600 C1599 1.355 . S
C1600 C1602 1.419 1_556 S
C1601 C1596 1.425 1_546 S
C1601 C1598 1.409 1_545 S
C1601 C1599 1.415 . S
C1602 H1592 0.930 . S
C1602 C1600 1.419 1_554 S
C1602 C1603 1.362 . S
C1603 H1593 0.930 . S
C1603 C1596 1.409 1_545 S
C1603 C1602 1.362 . S
H1604 C1610 0.930 . S
H1605 C1613 0.930 . S
H1606 C1614 0.930 . S
H1607 C1615 0.930 . S
H1608 C1618 0.930 . S
H1609 C1619 0.930 . S
C1610 H1604 0.930 . S
C1610 C1611 1.355 1_554 S
C1610 C1612 1.415 . S
C1611 C1610 1.355 1_556 S
C1611 C1613 1.419 . S
C1612 C1610 1.415 . S
C1612 C1617 1.425 1_654 S
C1612 C1619 1.409 1_655 S
C1613 H1605 0.930 . S
C1613 C1611 1.419 . S
C1613 C1614 1.362 . S
C1614 H1606 0.930 . S
C1614 C1613 1.362 . S
C1614 C1617 1.409 1_655 S
C1615 H1607 0.930 . S
C1615 C1616 1.355 1_556 S
C1615 C1617 1.415 . S
C1616 C1615 1.355 1_554 S
C1616 C1618 1.419 . S
C1617 C1612 1.425 1_456 S
C1617 C1614 1.409 1_455 S
C1617 C1615 1.415 . S
C1618 H1608 0.930 . S
C1618 C1616 1.419 . S
C1618 C1619 1.362 . S
C1619 H1609 0.930 . S
C1619 C1612 1.409 1_455 S
C1619 C1618 1.362 . S
C619 C17 1.606 . S
C624 C357 1.605 . S
C635 C51 1.570 . S
C640 C391 1.569 . S
C651 C85 1.568 . S
C656 C323 1.569 . S
C667 C119 1.529 . S
C672 C493 1.528 . S
C683 C153 1.603 . S
C688 C425 1.604 . S
C699 C459 1.534 . S
C704 C187 1.540 . S
C715 C561 1.470 . S
C720 C221 1.469 . S
C731 C255 1.463 . S
C736 C595 1.463 . S
C747 C289 1.396 . S
C752 C527 1.397 . S
C763 C1 2.136 . S
C768 C173 2.113 . S
C779 C103 2.089 . S
C784 C37 2.114 . S
C795 C139 2.111 . S
C800 C69 2.088 . S
C811 C35 1.637 . S
C816 C137 1.663 . S
C827 C171 1.602 . S
C832 C71 1.617 . S
C843 C105 1.594 . S
C848 C3 1.633 . S
C859 C375 2.045 . S
C864 C205 2.073 . S
C875 C309 2.052 . S
C880 C241 2.081 . S
C891 C341 2.057 . S
C896 C273 2.039 . S
C907 C239 1.601 . S
C912 C343 1.535 . S
C923 C275 1.550 . S
C928 C377 1.565 . S
C939 C307 1.592 . S
C944 C207 1.540 . S
C955 C581 2.053 . S
C960 C409 2.080 . S
C971 C445 2.066 . S
C976 C513 2.089 . S
C987 C479 2.081 . S
C992 C545 2.090 . S
C1003 C547 1.614 . S
C1008 C443 1.580 . S
C1019 C579 1.551 . S
C1024 C477 1.611 . S
C1035 C511 1.607 . S
C1040 C411 1.537 . S
C1051 C15 1.398 . S
C1056 C62 1.489 1_455 S
C1067 C74 1.513 . S
C1072 C56 1.309 . S
C1083 C83 1.278 . S
C1088 C6 1.537 1_565 S
C1099 C117 1.282 . S
C1104 C198 1.526 1_545 S
C1115 C158 1.398 . S
C1120 C108 1.500 1_655 S
C1131 C192 1.354 . S
C1136 C164 1.521 . S
C1147 C266 1.502 . S
C1152 C219 1.335 . S
C1163 C260 1.326 . S
C1168 C278 1.505 . S
C1179 C210 1.534 . S
C1184 C287 1.273 . S
C1195 C328 1.290 . S
C1200 C380 1.522 . S
C1211 C334 1.493 . S
C1216 C355 1.374 . S
C1227 C389 1.269 . S
C1232 C346 1.524 . S
C1243 C470 1.506 . S
C1248 C423 1.281 . S
C1259 C504 1.476 . S
C1264 C464 1.376 . S
C1275 C414 1.506 . S
C1280 C498 1.281 . S
C1291 C606 1.519 . S
C1296 C532 1.293 . S
C1307 C538 1.507 . S
C1312 C559 1.322 . S
C1323 C600 1.372 . S
C1328 C550 1.513 . S
C1339 C22 0.737 . S
C1344 C525 0.803 . S
C1355 C566 0.798 . S
C1360 C49 0.737 . S
C1371 C593 0.736 . S
C1376 C90 0.804 . S
C1387 C124 0.807 . S
C1392 C226 0.740 . S
C1403 C253 0.797 . S
C1408 C151 0.738 . S
C1419 C294 0.811 . S
C1424 C185 0.725 . S
C1435 C142 1.130 . S
C1440 C300 1.148 . S
C1451 C232 1.147 . S
C1456 C176 1.127 . S
C1467 C130 1.148 . S
C1472 C244 1.127 . S
C1483 C572 1.133 . S
C1488 C96 1.137 . S
C1499 C28 1.133 . S
C1504 C584 1.137 . S
C1515 C516 1.138 . S
C1520 C40 1.142 . S
C1531 C430 0.730 . S
C1536 C321 0.813 . S
C1547 C457 0.802 . S
C1552 C362 0.735 . S
C1563 C396 0.730 . S
C1568 C491 0.815 . S
C1579 C368 1.129 . S
C1584 C482 1.148 . S
C1595 C436 1.124 . S
C1600 C402 1.145 . S
C1611 C312 1.132 . S
C1616 C448 1.148 . S
