# Generated by pormake.
# Topology unv, (4)-cn, num edge types: 1
# Building blocks:
#     Node 0, Type 0, BuildingBlock: QUQFOY_clean_sbu_1, # of connection points: 4
#     Node 1, Type 0, BuildingBlock: QUQFOY_clean_sbu_1, # of connection points: 4
#     Node 2, Type 0, BuildingBlock: QUQFOY_clean_sbu_1, # of connection points: 4
#     Node 3, Type 0, BuildingBlock: QUQFOY_clean_sbu_1, # of connection points: 4
#     Node 4, Type 0, BuildingBlock: QUQFOY_clean_sbu_1, # of connection points: 4
#     Node 5, Type 0, BuildingBlock: QUQFOY_clean_sbu_1, # of connection points: 4
#     Node 6, Type 0, BuildingBlock: QUQFOY_clean_sbu_1, # of connection points: 4
#     Node 7, Type 0, BuildingBlock: QUQFOY_clean_sbu_1, # of connection points: 4
#     Node 8, Type 0, BuildingBlock: QUQFOY_clean_sbu_1, # of connection points: 4
#     Node 9, Type 0, BuildingBlock: QUQFOY_clean_sbu_1, # of connection points: 4
#     Node 10, Type 0, BuildingBlock: QUQFOY_clean_sbu_1, # of connection points: 4
#     Node 11, Type 0, BuildingBlock: QUQFOY_clean_sbu_1, # of connection points: 4
#     Node 12, Type 0, BuildingBlock: QUQFOY_clean_sbu_1, # of connection points: 4
#     Node 13, Type 0, BuildingBlock: QUQFOY_clean_sbu_1, # of connection points: 4
#     Node 14, Type 0, BuildingBlock: QUQFOY_clean_sbu_1, # of connection points: 4
#     Node 15, Type 0, BuildingBlock: QUQFOY_clean_sbu_1, # of connection points: 4
#     Node 16, Type 0, BuildingBlock: QUQFOY_clean_sbu_1, # of connection points: 4
#     Node 17, Type 0, BuildingBlock: QUQFOY_clean_sbu_1, # of connection points: 4
#     Node 18, Type 0, BuildingBlock: QUQFOY_clean_sbu_1, # of connection points: 4
#     Node 19, Type 0, BuildingBlock: QUQFOY_clean_sbu_1, # of connection points: 4
#     Node 20, Type 0, BuildingBlock: QUQFOY_clean_sbu_1, # of connection points: 4
#     Node 21, Type 0, BuildingBlock: QUQFOY_clean_sbu_1, # of connection points: 4
#     Node 22, Type 0, BuildingBlock: QUQFOY_clean_sbu_1, # of connection points: 4
#     Node 23, Type 0, BuildingBlock: QUQFOY_clean_sbu_1, # of connection points: 4
#     Edge 24, Type (0, 0), None
#     Edge 25, Type (0, 0), None
#     Edge 26, Type (0, 0), None
#     Edge 27, Type (0, 0), None
#     Edge 28, Type (0, 0), None
#     Edge 29, Type (0, 0), None
#     Edge 30, Type (0, 0), None
#     Edge 31, Type (0, 0), None
#     Edge 32, Type (0, 0), None
#     Edge 33, Type (0, 0), None
#     Edge 34, Type (0, 0), None
#     Edge 35, Type (0, 0), None
#     Edge 36, Type (0, 0), None
#     Edge 37, Type (0, 0), None
#     Edge 38, Type (0, 0), None
#     Edge 39, Type (0, 0), None
#     Edge 40, Type (0, 0), None
#     Edge 41, Type (0, 0), None
#     Edge 42, Type (0, 0), None
#     Edge 43, Type (0, 0), None
#     Edge 44, Type (0, 0), None
#     Edge 45, Type (0, 0), None
#     Edge 46, Type (0, 0), None
#     Edge 47, Type (0, 0), None
#     Edge 48, Type (0, 0), None
#     Edge 49, Type (0, 0), None
#     Edge 50, Type (0, 0), None
#     Edge 51, Type (0, 0), None
#     Edge 52, Type (0, 0), None
#     Edge 53, Type (0, 0), None
#     Edge 54, Type (0, 0), None
#     Edge 55, Type (0, 0), None
#     Edge 56, Type (0, 0), None
#     Edge 57, Type (0, 0), None
#     Edge 58, Type (0, 0), None
#     Edge 59, Type (0, 0), None
#     Edge 60, Type (0, 0), None
#     Edge 61, Type (0, 0), None
#     Edge 62, Type (0, 0), None
#     Edge 63, Type (0, 0), None
#     Edge 64, Type (0, 0), None
#     Edge 65, Type (0, 0), None
#     Edge 66, Type (0, 0), None
#     Edge 67, Type (0, 0), None
#     Edge 68, Type (0, 0), None
#     Edge 69, Type (0, 0), None
#     Edge 70, Type (0, 0), None
#     Edge 71, Type (0, 0), None
# Relax obj value: 0.089
# Max RMSD: 0.165
# Mean RMSD: 0.143
data_MOF--net-unv--node1-QUQFOY_clean_sbu_1--edge1-none
_symmetry_space_group_name_H-M    P1
_symmetry_Int_Tables_number       1
_symmetry_cell_setting            triclinic
loop_
_symmetry_equiv_pos_as_xyz
'x, y, z'
_cell_length_a     24.428379
_cell_length_b     24.428054
_cell_length_c     24.42762
_cell_angle_alpha  89.962994
_cell_angle_beta   89.962848
_cell_angle_gamma 89.962805
loop_
_atom_site_label
_atom_site_type_symbol
_atom_site_fract_x
_atom_site_fract_y
_atom_site_fract_z
_atom_type_partial_charge
O0 O 0.07246 0.10534 0.4922 0.0
Cd1 Cd 0.02124 0.13226 0.43075 0.0
Cd2 Cd 0.09274 0.05921 0.3707 0.0
O3 O 0.13665 0.06527 0.44252 0.0
O4 O 0.98769 0.19915 0.4633 0.0
O5 O 0.03454 0.20055 0.38563 0.0
C6 C 1.00784 0.22663 0.42307 0.0
C7 C 0.1311 0.02389 0.29028 0.0
C8 C 0.11712 0.07895 0.48895 0.0
C9 C 0.97181 0.02905 0.39494 0.0
O10 O 0.01984 0.01906 0.37824 0.0
O11 O 0.96005 0.0756 0.41519 0.0
O12 O 0.12925 0.99524 0.33424 0.0
O13 O 0.11784 0.07491 0.2936 0.0
O14 O 0.9409 0.40909 0.49212 0.0
Cd15 Cd 0.99193 0.38108 0.4309 0.0
Cd16 Cd 0.92279 0.45688 0.37005 0.0
O17 O 0.87868 0.45169 0.44201 0.0
O18 O 0.02399 0.3136 0.46379 0.0
O19 O 0.97806 0.313 0.38564 0.0
C20 C 1.00403 0.28648 0.42328 0.0
C21 C 0.88528 0.49485 0.29022 0.0
C22 C 0.89722 0.43707 0.48857 0.0
C23 C 0.04461 0.48293 0.39505 0.0
O24 O 0.99711 0.49435 0.37777 0.0
O25 O 0.05465 0.43619 0.41581 0.0
O26 O 0.88819 0.52262 0.33464 0.0
O27 O 0.89711 0.44343 0.29264 0.0
O28 O 0.0728 0.91226 0.03638 0.0
Cd29 Cd 0.02164 0.88687 0.09854 0.0
Cd30 Cd 0.09279 0.9611 0.15664 0.0
O31 O 0.13672 0.954 0.08485 0.0
O32 O 0.98768 0.82008 0.06651 0.0
O33 O 0.03446 0.81875 0.14414 0.0
C34 C 1.00767 0.79267 0.10683 0.0
C35 C 0.13103 0.9963 0.23704 0.0
C36 C 0.11733 0.93887 0.03884 0.0
C37 C 0.97197 0.99088 0.13202 0.0
O38 O 0.01997 1.00137 0.14842 0.0
O39 O 0.96037 0.94381 0.11299 0.0
O40 O 0.12948 0.02494 0.19305 0.0
O41 O 0.11746 0.94537 0.23379 0.0
O42 O 0.94035 0.61183 0.0366 0.0
Cd43 Cd 0.9913 0.63841 0.09842 0.0
Cd44 Cd 0.92267 0.56132 0.15749 0.0
O45 O 0.87857 0.56737 0.08563 0.0
O46 O 0.02368 0.70583 0.06595 0.0
O47 O 0.97785 0.70631 0.14419 0.0
C48 C 1.00387 0.73285 0.1066 0.0
C49 C 0.88532 0.52343 0.2374 0.0
C50 C 0.8969 0.5835 0.03945 0.0
C51 C 0.0444 0.53585 0.13186 0.0
O52 O 0.99697 0.52384 0.14899 0.0
O53 O 0.05417 0.58311 0.11224 0.0
O54 O 0.88799 0.49567 0.19295 0.0
O55 O 0.89734 0.57479 0.23501 0.0
O56 O 0.49218 0.07246 0.10535 0.0
Cd57 Cd 0.43073 0.02124 0.13226 0.0
Cd58 Cd 0.37069 0.09274 0.05922 0.0
O59 O 0.4425 0.13666 0.06529 0.0
O60 O 0.46328 0.98769 0.19915 0.0
O61 O 0.38561 0.03454 0.20055 0.0
C62 C 0.42305 1.00784 0.22664 0.0
C63 C 0.29027 0.13109 0.02392 0.0
C64 C 0.48894 0.11713 0.07896 0.0
C65 C 0.39493 0.97181 0.02906 0.0
O66 O 0.37824 0.01985 0.01906 0.0
O67 O 0.41517 0.96005 0.0756 0.0
O68 O 0.33422 0.12926 0.99526 0.0
O69 O 0.2936 0.11782 0.07494 0.0
O70 O 0.52865 0.45328 0.10496 0.0
Cd71 Cd 0.5921 0.50189 0.13189 0.0
Cd72 Cd 0.64914 0.42873 0.05882 0.0
O73 O 0.57603 0.38697 0.06556 0.0
O74 O 0.56212 0.5358 0.19985 0.0
O75 O 0.63689 0.48441 0.19944 0.0
C76 C 0.6012 0.51253 0.22652 0.0
C77 C 0.72902 0.38886 0.02392 0.0
C78 C 0.53029 0.4083 0.07902 0.0
C79 C 0.62867 0.55023 0.02834 0.0
O80 O 0.64322 0.50154 0.01823 0.0
O81 O 0.60978 0.56286 0.07526 0.0
O82 O 0.6851 0.391 0.99525 0.0
O83 O 0.72575 0.40244 0.07486 0.0
O84 O 0.49211 0.94091 0.4091 0.0
Cd85 Cd 0.43089 0.99194 0.38109 0.0
Cd86 Cd 0.37005 0.9228 0.45689 0.0
O87 O 0.442 0.87869 0.4517 0.0
O88 O 0.46377 0.024 0.3136 0.0
O89 O 0.38563 0.97806 0.31301 0.0
C90 C 0.42327 1.00403 0.28649 0.0
C91 C 0.29021 0.88528 0.49483 0.0
C92 C 0.48857 0.89724 0.43707 0.0
C93 C 0.39504 0.04462 0.48294 0.0
O94 O 0.37776 0.99712 0.49436 0.0
O95 O 0.41579 0.05466 0.4362 0.0
O96 O 0.33462 0.88819 0.52261 0.0
O97 O 0.29264 0.89712 0.44341 0.0
O98 O 0.52886 0.5719 0.40948 0.0
Cd99 Cd 0.59202 0.52337 0.38134 0.0
Cd100 Cd 0.64993 0.59421 0.45719 0.0
O101 O 0.57673 0.63626 0.45136 0.0
O102 O 0.56158 0.49092 0.31292 0.0
O103 O 0.63696 0.54128 0.31389 0.0
C104 C 0.60098 0.51394 0.28651 0.0
C105 C 0.72915 0.63315 0.49487 0.0
C106 C 0.53083 0.61593 0.437 0.0
C107 C 0.62854 0.47176 0.4835 0.0
O108 O 0.64372 0.51993 0.49503 0.0
O109 O 0.60916 0.46084 0.43639 0.0
O110 O 0.68469 0.62993 0.52262 0.0
O111 O 0.72692 0.62109 0.44351 0.0
O112 O 0.10535 0.49221 0.07253 0.0
Cd113 Cd 0.13224 0.43075 0.02131 0.0
Cd114 Cd 0.05918 0.37071 0.09283 0.0
O115 O 0.06527 0.44252 0.13675 0.0
O116 O 0.19912 0.46331 0.98774 0.0
O117 O 0.20054 0.38564 0.03459 0.0
C118 C 0.22661 0.42308 1.00788 0.0
C119 C 0.02388 0.29029 0.13118 0.0
C120 C 0.07899 0.48895 0.11722 0.0
C121 C 0.02902 0.39496 0.97189 0.0
O122 O 0.01903 0.37828 0.01993 0.0
O123 O 0.07557 0.41519 0.96013 0.0
O124 O 0.99522 0.33424 0.12935 0.0
O125 O 0.0749 0.29362 0.1179 0.0
O126 O 0.10494 0.52867 0.45325 0.0
Cd127 Cd 0.13185 0.59212 0.50188 0.0
Cd128 Cd 0.05875 0.64917 0.42869 0.0
O129 O 0.06552 0.57605 0.38692 0.0
O130 O 0.19979 0.56213 0.53581 0.0
O131 O 0.19941 0.63691 0.48443 0.0
C132 C 0.22647 0.60121 0.51254 0.0
C133 C 0.02385 0.72905 0.38883 0.0
C134 C 0.07903 0.53033 0.40825 0.0
C135 C 0.02828 0.62868 0.5502 0.0
O136 O 0.01817 0.64323 0.5015 0.0
O137 O 0.0752 0.60981 0.56283 0.0
O138 O 0.99519 0.68513 0.39096 0.0
O139 O 0.07479 0.72577 0.40241 0.0
O140 O 0.91276 0.98153 0.45313 0.0
Cd141 Cd 0.88728 0.91733 0.50162 0.0
Cd142 Cd 0.96145 0.86224 0.42867 0.0
O143 O 0.95365 0.93532 0.38689 0.0
O144 O 0.81934 0.94661 0.53602 0.0
O145 O 0.82 0.87205 0.48444 0.0
C146 C 0.79282 0.90749 0.51274 0.0
C147 C 0.99622 0.78234 0.38891 0.0
C148 C 0.93881 0.98064 0.40817 0.0
C149 C 0.99152 0.88299 0.55003 0.0
O150 O 1.00212 0.86883 0.50133 0.0
O151 O 0.9441 0.90063 0.5626 0.0
O152 O 0.02487 0.82629 0.39063 0.0
O153 O 0.94536 0.78557 0.40289 0.0
O154 O 0.40944 0.52887 0.57194 0.0
Cd155 Cd 0.38129 0.59202 0.52339 0.0
Cd156 Cd 0.45715 0.64999 0.59421 0.0
O157 O 0.45136 0.57677 0.63625 0.0
O158 O 0.31287 0.56157 0.49097 0.0
O159 O 0.31384 0.63697 0.54129 0.0
C160 C 0.28646 0.60099 0.51396 0.0
C161 C 0.49485 0.7292 0.63317 0.0
C162 C 0.43699 0.53087 0.61595 0.0
C163 C 0.48342 0.62858 0.47176 0.0
O164 O 0.49495 0.6438 0.51991 0.0
O165 O 0.43633 0.60913 0.46086 0.0
O166 O 0.52259 0.68473 0.62991 0.0
O167 O 0.44348 0.72697 0.62113 0.0
O168 O 0.57219 0.61142 0.98126 0.0
Cd169 Cd 0.52381 0.63819 0.91745 0.0
Cd170 Cd 0.59428 0.56116 0.86133 0.0
O171 O 0.63632 0.56786 0.93443 0.0
O172 O 0.49097 0.70666 0.94726 0.0
O173 O 0.54151 0.70534 0.87195 0.0
C174 C 0.514 0.73287 0.90774 0.0
C175 C 0.63312 0.52355 0.78199 0.0
C176 C 0.61611 0.58364 0.97995 0.0
C177 C 0.47195 0.53544 0.88325 0.0
O178 O 0.52009 0.52333 0.86831 0.0
O179 O 0.46118 0.58307 0.90145 0.0
O180 O 0.63022 0.49581 0.82649 0.0
O181 O 0.62075 0.57486 0.78422 0.0
O182 O 0.45312 0.91276 0.98153 0.0
Cd183 Cd 0.50161 0.88728 0.91733 0.0
Cd184 Cd 0.42867 0.96144 0.86224 0.0
O185 O 0.38689 0.95365 0.93532 0.0
O186 O 0.53601 0.81933 0.94661 0.0
O187 O 0.48442 0.82 0.87205 0.0
C188 C 0.51272 0.79282 0.90749 0.0
C189 C 0.3889 0.99621 0.78233 0.0
C190 C 0.40816 0.93881 0.98064 0.0
C191 C 0.55003 0.99152 0.883 0.0
O192 O 0.50132 1.00212 0.86884 0.0
O193 O 0.5626 0.94409 0.90064 0.0
O194 O 0.39064 0.02486 0.82629 0.0
O195 O 0.40288 0.94536 0.78557 0.0
O196 O 0.57192 0.40944 0.5289 0.0
Cd197 Cd 0.52336 0.38131 0.59204 0.0
Cd198 Cd 0.59421 0.4572 0.65001 0.0
O199 O 0.63625 0.45137 0.57679 0.0
O200 O 0.49092 0.3129 0.5616 0.0
O201 O 0.54124 0.31385 0.63699 0.0
C202 C 0.51391 0.28648 0.60101 0.0
C203 C 0.63314 0.49489 0.72921 0.0
C204 C 0.61595 0.43695 0.5309 0.0
C205 C 0.47176 0.48346 0.6286 0.0
O206 O 0.51991 0.49499 0.64381 0.0
O207 O 0.46085 0.43637 0.60916 0.0
O208 O 0.62991 0.52264 0.68475 0.0
O209 O 0.62111 0.44352 0.72699 0.0
O210 O 0.45323 0.10496 0.52868 0.0
Cd211 Cd 0.50185 0.13187 0.59213 0.0
Cd212 Cd 0.42868 0.05876 0.64917 0.0
O213 O 0.38691 0.06553 0.57606 0.0
O214 O 0.53577 0.19982 0.56214 0.0
O215 O 0.48439 0.19942 0.63692 0.0
C216 C 0.51249 0.22649 0.60122 0.0
C217 C 0.38884 0.02385 0.72904 0.0
C218 C 0.40823 0.07905 0.53033 0.0
C219 C 0.55019 0.0283 0.62868 0.0
O220 O 0.50149 0.01819 0.64323 0.0
O221 O 0.56281 0.07523 0.60981 0.0
O222 O 0.39095 0.99518 0.68512 0.0
O223 O 0.4024 0.0748 0.72578 0.0
O224 O 0.98122 0.57223 0.61142 0.0
Cd225 Cd 0.91743 0.52382 0.6382 0.0
Cd226 Cd 0.86125 0.59428 0.56115 0.0
O227 O 0.93436 0.63631 0.56781 0.0
O228 O 0.94727 0.491 0.70667 0.0
O229 O 0.87194 0.54149 0.70536 0.0
C230 C 0.90774 0.51401 0.73289 0.0
C231 C 0.78193 0.63311 0.52353 0.0
C232 C 0.97989 0.61612 0.58361 0.0
C233 C 0.88319 0.47194 0.53548 0.0
O234 O 0.86821 0.52007 0.52336 0.0
O235 O 0.90146 0.46119 0.58308 0.0
O236 O 0.82643 0.63019 0.49578 0.0
O237 O 0.78415 0.62078 0.57485 0.0
O238 O 0.03656 0.94031 0.61186 0.0
Cd239 Cd 0.09834 0.9913 0.63842 0.0
Cd240 Cd 0.15748 0.92267 0.56129 0.0
O241 O 0.08561 0.87857 0.56732 0.0
O242 O 0.06586 0.02368 0.70584 0.0
O243 O 0.14413 0.97789 0.70632 0.0
C244 C 0.10653 1.00389 0.73287 0.0
C245 C 0.23739 0.88532 0.5234 0.0
C246 C 0.03945 0.89687 0.58351 0.0
C247 C 0.13182 0.0444 0.53587 0.0
O248 O 0.149 0.99699 0.52385 0.0
O249 O 0.11214 0.05416 0.58311 0.0
O250 O 0.19294 0.88801 0.49563 0.0
O251 O 0.23499 0.89732 0.57477 0.0
O252 O 0.98152 0.45312 0.9128 0.0
Cd253 Cd 0.91734 0.50163 0.8873 0.0
Cd254 Cd 0.86219 0.4287 0.96148 0.0
O255 O 0.93529 0.38694 0.95374 0.0
O256 O 0.94663 0.536 0.81935 0.0
O257 O 0.87205 0.48445 0.82003 0.0
C258 C 0.9075 0.51273 0.79285 0.0
C259 C 0.78231 0.38894 0.99628 0.0
C260 C 0.98061 0.40818 0.93889 0.0
C261 C 0.88296 0.55006 0.99152 0.0
O262 O 0.86876 0.50138 1.00213 0.0
O263 O 0.90067 0.56262 0.94412 0.0
O264 O 0.82626 0.39069 0.02493 0.0
O265 O 0.78553 0.40288 0.94541 0.0
O266 O 0.03633 0.07283 0.91229 0.0
Cd267 Cd 0.09846 0.02165 0.88688 0.0
Cd268 Cd 0.15664 0.09277 0.96113 0.0
O269 O 0.08484 0.13669 0.95409 0.0
O270 O 0.06641 0.98772 0.82009 0.0
O271 O 0.14407 0.03445 0.81877 0.0
C272 C 0.10674 1.0077 0.79268 0.0
C273 C 0.23703 0.13101 0.99634 0.0
C274 C 0.03881 0.11734 0.93895 0.0
C275 C 0.132 0.97194 0.99086 0.0
O276 O 0.14845 0.01993 1.00137 0.0
O277 O 0.11288 0.96037 0.94382 0.0
O278 O 0.19305 0.12943 0.02498 0.0
O279 O 0.23377 0.11748 0.9454 0.0
O280 O 0.6114 0.98125 0.57222 0.0
Cd281 Cd 0.63819 0.91746 0.52383 0.0
Cd282 Cd 0.56114 0.86128 0.5943 0.0
O283 O 0.56781 0.93439 0.63632 0.0
O284 O 0.70666 0.94727 0.491 0.0
O285 O 0.70534 0.87195 0.54152 0.0
C286 C 0.73287 0.90775 0.51402 0.0
C287 C 0.52352 0.78197 0.63313 0.0
C288 C 0.58361 0.97992 0.61612 0.0
C289 C 0.53547 0.8832 0.47196 0.0
O290 O 0.52335 0.86824 0.52009 0.0
O291 O 0.58307 0.90148 0.46119 0.0
O292 O 0.49578 0.82647 0.63022 0.0
O293 O 0.57484 0.78418 0.62079 0.0
O294 O 0.61185 0.03656 0.94032 0.0
Cd295 Cd 0.6384 0.09834 0.99131 0.0
Cd296 Cd 0.56129 0.15747 0.92268 0.0
O297 O 0.56731 0.08561 0.87859 0.0
O298 O 0.70582 0.06586 0.02369 0.0
O299 O 0.70629 0.14413 0.97791 0.0
C300 C 0.73284 0.10654 1.00391 0.0
C301 C 0.52341 0.2374 0.88531 0.0
C302 C 0.5835 0.03944 0.89689 0.0
C303 C 0.53585 0.13182 0.04441 0.0
O304 O 0.52383 0.149 0.997 0.0
O305 O 0.58309 0.11214 0.05418 0.0
O306 O 0.49565 0.19295 0.88801 0.0
O307 O 0.57477 0.23498 0.89733 0.0
O308 O 0.40905 0.49213 0.94089 0.0
Cd309 Cd 0.38105 0.43093 0.99195 0.0
Cd310 Cd 0.45688 0.37004 0.9228 0.0
O311 O 0.45171 0.442 0.8787 0.0
O312 O 0.31357 0.46382 0.02401 0.0
O313 O 0.31298 0.38565 0.9781 0.0
C314 C 0.28646 0.4233 1.00406 0.0
C315 C 0.49484 0.29022 0.8853 0.0
C316 C 0.43702 0.48855 0.89722 0.0
C317 C 0.48288 0.39504 0.04464 0.0
O318 O 0.49432 0.37773 0.99715 0.0
O319 O 0.43617 0.41586 0.05466 0.0
O320 O 0.52262 0.33462 0.88821 0.0
O321 O 0.44342 0.29263 0.89711 0.0
O322 O 0.91223 0.03635 0.07289 0.0
Cd323 Cd 0.88685 0.09849 0.02171 0.0
Cd324 Cd 0.96111 0.15665 0.09286 0.0
O325 O 0.95404 0.08485 0.13678 0.0
O326 O 0.82007 0.06643 0.98775 0.0
O327 O 0.81873 0.14409 0.03449 0.0
C328 C 0.79265 0.10676 1.00772 0.0
C329 C 0.99631 0.23704 0.1311 0.0
C330 C 0.93885 0.03884 0.11742 0.0
C331 C 0.99084 0.13201 0.97202 0.0
O332 O 1.00135 0.14845 0.02001 0.0
O333 O 0.9438 0.11291 0.96044 0.0
O334 O 0.02496 0.19306 0.12952 0.0
O335 O 0.94537 0.23379 0.11755 0.0
loop_
_geom_bond_atom_site_label_1
_geom_bond_atom_site_label_2
_geom_bond_distance
_geom_bond_site_symmetry_2
_ccdc_geom_bond_type
O0 Cd1 2.223 1_455 S
O0 C8 1.315 . S
Cd1 O0 2.223 1_655 S
Cd1 O4 2.297 . S
Cd1 O5 2.439 . S
Cd1 O11 2.240 . S
Cd2 O3 2.240 . S
Cd2 O10 2.223 1_445 S
Cd2 O12 2.297 1_545 S
Cd2 O13 2.439 1_455 S
O3 Cd2 2.240 . S
O3 C8 1.279 . S
O4 Cd1 2.297 . S
O4 C6 1.247 . S
O5 Cd1 2.439 . S
O5 C6 1.208 . S
C6 O4 1.247 . S
C6 O5 1.208 . S
C7 O12 1.242 1_645 S
C7 O13 1.209 . S
C8 O0 1.315 . S
C8 O3 1.279 . S
C9 O10 1.315 . S
C9 O11 1.279 1_565 S
O10 Cd2 2.223 1_665 S
O10 C9 1.315 . S
O11 Cd1 2.240 . S
O11 C9 1.279 1_545 S
O12 Cd2 2.297 1_565 S
O12 C7 1.242 1_465 S
O13 Cd2 2.439 1_655 S
O13 C7 1.209 . S
O14 Cd15 2.223 1_655 S
O14 C22 1.315 . S
Cd15 O14 2.223 1_455 S
Cd15 O18 2.297 . S
Cd15 O19 2.439 . S
Cd15 O25 2.240 . S
Cd16 O17 2.240 . S
Cd16 O24 2.228 . S
Cd16 O26 2.297 . S
Cd16 O27 2.431 1_655 S
O17 Cd16 2.240 . S
O17 C22 1.279 . S
O18 Cd15 2.297 . S
O18 C20 1.247 . S
O19 Cd15 2.439 . S
O19 C20 1.208 . S
C20 O18 1.247 . S
C20 O19 1.208 . S
C21 O26 1.247 . S
C21 O27 1.207 1_655 S
C22 O14 1.315 . S
C22 O17 1.279 . S
C23 O24 1.307 1_455 S
C23 O25 1.279 . S
O24 Cd16 2.228 . S
O24 C23 1.307 1_655 S
O25 Cd15 2.240 . S
O25 C23 1.279 . S
O26 Cd16 2.297 . S
O26 C21 1.247 . S
O27 Cd16 2.431 1_455 S
O27 C21 1.207 1_455 S
O28 Cd29 2.223 1_455 S
O28 C36 1.315 . S
Cd29 O28 2.223 1_655 S
Cd29 O32 2.297 . S
Cd29 O33 2.439 . S
Cd29 O39 2.240 . S
Cd30 O31 2.240 . S
Cd30 O38 2.223 1_465 S
Cd30 O40 2.297 1_565 S
Cd30 O41 2.439 . S
O31 Cd30 2.240 . S
O31 C36 1.279 . S
O32 Cd29 2.297 . S
O32 C34 1.247 . S
O33 Cd29 2.439 . S
O33 C34 1.208 . S
C34 O32 1.247 . S
C34 O33 1.208 . S
C35 O40 1.247 1_565 S
C35 O41 1.208 . S
C36 O28 1.315 . S
C36 O31 1.279 . S
C37 O38 1.315 . S
C37 O39 1.279 1_545 S
O38 Cd30 2.223 1_645 S
O38 C37 1.315 . S
O39 Cd29 2.240 . S
O39 C37 1.279 1_565 S
O40 Cd30 2.297 1_545 S
O40 C35 1.247 1_545 S
O41 Cd30 2.439 . S
O41 C35 1.208 . S
O42 Cd43 2.223 1_655 S
O42 C50 1.315 . S
Cd43 O42 2.223 1_455 S
Cd43 O46 2.297 . S
Cd43 O47 2.439 . S
Cd43 O53 2.240 . S
Cd44 O45 2.240 . S
Cd44 O52 2.233 . S
Cd44 O54 2.297 . S
Cd44 O55 2.439 . S
O45 Cd44 2.240 . S
O45 C50 1.279 . S
O46 Cd43 2.297 . S
O46 C48 1.247 . S
O47 Cd43 2.439 . S
O47 C48 1.208 . S
C48 O46 1.247 . S
C48 O47 1.208 . S
C49 O54 1.247 . S
C49 O55 1.208 . S
C50 O42 1.315 . S
C50 O45 1.279 . S
C51 O52 1.300 1_455 S
C51 O53 1.279 . S
O52 Cd44 2.233 . S
O52 C51 1.300 1_655 S
O53 Cd43 2.240 . S
O53 C51 1.279 . S
O54 Cd44 2.297 . S
O54 C49 1.247 . S
O55 Cd44 2.439 . S
O55 C49 1.208 . S
O56 Cd57 2.223 1_545 S
O56 C64 1.315 . S
Cd57 O56 2.223 1_565 S
Cd57 O60 2.297 . S
Cd57 O61 2.439 . S
Cd57 O67 2.240 . S
Cd58 O59 2.240 . S
Cd58 O66 2.223 1_544 S
Cd58 O68 2.297 1_554 S
Cd58 O69 2.439 1_545 S
O59 Cd58 2.240 . S
O59 C64 1.279 . S
O60 Cd57 2.297 . S
O60 C62 1.247 . S
O61 Cd57 2.439 . S
O61 C62 1.208 . S
C62 O60 1.247 . S
C62 O61 1.208 . S
C63 O68 1.242 1_564 S
C63 O69 1.209 . S
C64 O56 1.315 . S
C64 O59 1.279 . S
C65 O66 1.315 . S
C65 O67 1.279 1_556 S
O66 Cd58 2.223 1_566 S
O66 C65 1.315 . S
O67 Cd57 2.240 . S
O67 C65 1.279 1_554 S
O68 Cd58 2.297 1_556 S
O68 C63 1.242 1_546 S
O69 Cd58 2.439 1_565 S
O69 C63 1.209 . S
O70 Cd71 2.223 . S
O70 C78 1.315 . S
Cd71 O70 2.223 . S
Cd71 O74 2.297 . S
Cd71 O75 2.439 . S
Cd71 O81 2.240 . S
Cd72 O73 2.240 . S
Cd72 O80 2.223 1_554 S
Cd72 O82 2.297 1_554 S
Cd72 O83 2.439 . S
O73 Cd72 2.240 . S
O73 C78 1.279 . S
O74 Cd71 2.297 . S
O74 C76 1.247 . S
O75 Cd71 2.439 . S
O75 C76 1.208 . S
C76 O74 1.247 . S
C76 O75 1.208 . S
C77 O82 1.247 1_554 S
C77 O83 1.208 . S
C78 O70 1.315 . S
C78 O73 1.279 . S
C79 O80 1.315 1_554 S
C79 O81 1.279 . S
O80 Cd72 2.223 1_556 S
O80 C79 1.315 1_556 S
O81 Cd71 2.240 . S
O81 C79 1.279 . S
O82 Cd72 2.297 1_556 S
O82 C77 1.247 1_556 S
O83 Cd72 2.439 . S
O83 C77 1.208 . S
O84 Cd85 2.223 1_565 S
O84 C92 1.315 . S
Cd85 O84 2.223 1_545 S
Cd85 O88 2.297 . S
Cd85 O89 2.439 . S
Cd85 O95 2.240 . S
Cd86 O87 2.240 . S
Cd86 O94 2.228 . S
Cd86 O96 2.297 . S
Cd86 O97 2.431 1_565 S
O87 Cd86 2.240 . S
O87 C92 1.279 . S
O88 Cd85 2.297 . S
O88 C90 1.247 . S
O89 Cd85 2.439 . S
O89 C90 1.208 . S
C90 O88 1.247 . S
C90 O89 1.208 . S
C91 O96 1.247 . S
C91 O97 1.207 1_565 S
C92 O84 1.315 . S
C92 O87 1.279 . S
C93 O94 1.307 1_545 S
C93 O95 1.279 . S
O94 Cd86 2.228 . S
O94 C93 1.307 1_565 S
O95 Cd85 2.240 . S
O95 C93 1.279 . S
O96 Cd86 2.297 . S
O96 C91 1.247 . S
O97 Cd86 2.431 1_545 S
O97 C91 1.207 1_545 S
O98 Cd99 2.223 . S
O98 C106 1.315 . S
Cd99 O98 2.223 . S
Cd99 O102 2.297 . S
Cd99 O103 2.439 . S
Cd99 O109 2.240 . S
Cd100 O101 2.240 . S
Cd100 O108 2.223 . S
Cd100 O110 2.297 . S
Cd100 O111 2.439 . S
O101 Cd100 2.240 . S
O101 C106 1.279 . S
O102 Cd99 2.297 . S
O102 C104 1.247 . S
O103 Cd99 2.439 . S
O103 C104 1.208 . S
C104 O102 1.247 . S
C104 O103 1.208 . S
C105 O110 1.247 . S
C105 O111 1.208 . S
C106 O98 1.315 . S
C106 O101 1.279 . S
C107 O108 1.315 . S
C107 O109 1.279 . S
O108 Cd100 2.223 . S
O108 C107 1.315 . S
O109 Cd99 2.240 . S
O109 C107 1.279 . S
O110 Cd100 2.297 . S
O110 C105 1.247 . S
O111 Cd100 2.439 . S
O111 C105 1.208 . S
O112 Cd113 2.223 1_554 S
O112 C120 1.315 . S
Cd113 O112 2.223 1_556 S
Cd113 O116 2.297 . S
Cd113 O117 2.439 . S
Cd113 O123 2.240 . S
Cd114 O115 2.240 . S
Cd114 O122 2.223 1_454 S
Cd114 O124 2.297 1_455 S
Cd114 O125 2.439 1_554 S
O115 Cd114 2.240 . S
O115 C120 1.279 . S
O116 Cd113 2.297 . S
O116 C118 1.247 . S
O117 Cd113 2.439 . S
O117 C118 1.208 . S
C118 O116 1.247 . S
C118 O117 1.208 . S
C119 O124 1.242 1_456 S
C119 O125 1.209 . S
C120 O112 1.315 . S
C120 O115 1.279 . S
C121 O122 1.315 . S
C121 O123 1.279 1_655 S
O122 Cd114 2.223 1_656 S
O122 C121 1.315 . S
O123 Cd113 2.240 . S
O123 C121 1.279 1_455 S
O124 Cd114 2.297 1_655 S
O124 C119 1.242 1_654 S
O125 Cd114 2.439 1_556 S
O125 C119 1.209 . S
O126 Cd127 2.223 . S
O126 C134 1.315 . S
Cd127 O126 2.223 . S
Cd127 O130 2.297 . S
Cd127 O131 2.439 . S
Cd127 O137 2.240 . S
Cd128 O129 2.240 . S
Cd128 O136 2.223 1_455 S
Cd128 O138 2.297 1_455 S
Cd128 O139 2.439 . S
O129 Cd128 2.240 . S
O129 C134 1.279 . S
O130 Cd127 2.297 . S
O130 C132 1.247 . S
O131 Cd127 2.439 . S
O131 C132 1.208 . S
C132 O130 1.247 . S
C132 O131 1.208 . S
C133 O138 1.247 1_455 S
C133 O139 1.208 . S
C134 O126 1.315 . S
C134 O129 1.279 . S
C135 O136 1.315 1_455 S
C135 O137 1.279 . S
O136 Cd128 2.223 1_655 S
O136 C135 1.315 1_655 S
O137 Cd127 2.240 . S
O137 C135 1.279 . S
O138 Cd128 2.297 1_655 S
O138 C133 1.247 1_655 S
O139 Cd128 2.439 . S
O139 C133 1.208 . S
O140 Cd141 2.223 . S
O140 C148 1.315 . S
Cd141 O140 2.223 . S
Cd141 O144 2.297 . S
Cd141 O145 2.439 . S
Cd141 O151 2.240 . S
Cd142 O143 2.240 . S
Cd142 O150 2.223 1_655 S
Cd142 O152 2.297 1_655 S
Cd142 O153 2.439 . S
O143 Cd142 2.240 . S
O143 C148 1.279 . S
O144 Cd141 2.297 . S
O144 C146 1.247 . S
O145 Cd141 2.439 . S
O145 C146 1.208 . S
C146 O144 1.247 . S
C146 O145 1.208 . S
C147 O152 1.247 1_655 S
C147 O153 1.208 . S
C148 O140 1.315 . S
C148 O143 1.279 . S
C149 O150 1.315 1_655 S
C149 O151 1.279 . S
O150 Cd142 2.223 1_455 S
O150 C149 1.315 1_455 S
O151 Cd141 2.240 . S
O151 C149 1.279 . S
O152 Cd142 2.297 1_455 S
O152 C147 1.247 1_455 S
O153 Cd142 2.439 . S
O153 C147 1.208 . S
O154 Cd155 2.223 . S
O154 C162 1.315 . S
Cd155 O154 2.223 . S
Cd155 O158 2.297 . S
Cd155 O159 2.439 . S
Cd155 O165 2.240 . S
Cd156 O157 2.240 . S
Cd156 O164 2.223 . S
Cd156 O166 2.297 . S
Cd156 O167 2.439 . S
O157 Cd156 2.240 . S
O157 C162 1.279 . S
O158 Cd155 2.297 . S
O158 C160 1.247 . S
O159 Cd155 2.439 . S
O159 C160 1.208 . S
C160 O158 1.247 . S
C160 O159 1.208 . S
C161 O166 1.247 . S
C161 O167 1.208 . S
C162 O154 1.315 . S
C162 O157 1.279 . S
C163 O164 1.315 . S
C163 O165 1.279 . S
O164 Cd156 2.223 . S
O164 C163 1.315 . S
O165 Cd155 2.240 . S
O165 C163 1.279 . S
O166 Cd156 2.297 . S
O166 C161 1.247 . S
O167 Cd156 2.439 . S
O167 C161 1.208 . S
O168 Cd169 2.223 . S
O168 C176 1.315 . S
Cd169 O168 2.223 . S
Cd169 O172 2.297 . S
Cd169 O173 2.439 . S
Cd169 O179 2.240 . S
Cd170 O171 2.240 . S
Cd170 O178 2.223 . S
Cd170 O180 2.297 . S
Cd170 O181 2.439 . S
O171 Cd170 2.240 . S
O171 C176 1.279 . S
O172 Cd169 2.297 . S
O172 C174 1.247 . S
O173 Cd169 2.439 . S
O173 C174 1.208 . S
C174 O172 1.247 . S
C174 O173 1.208 . S
C175 O180 1.247 . S
C175 O181 1.208 . S
C176 O168 1.315 . S
C176 O171 1.279 . S
C177 O178 1.315 . S
C177 O179 1.279 . S
O178 Cd170 2.223 . S
O178 C177 1.315 . S
O179 Cd169 2.240 . S
O179 C177 1.279 . S
O180 Cd170 2.297 . S
O180 C175 1.247 . S
O181 Cd170 2.439 . S
O181 C175 1.208 . S
O182 Cd183 2.223 . S
O182 C190 1.315 . S
Cd183 O182 2.223 . S
Cd183 O186 2.297 . S
Cd183 O187 2.439 . S
Cd183 O193 2.240 . S
Cd184 O185 2.240 . S
Cd184 O192 2.223 1_565 S
Cd184 O194 2.297 1_565 S
Cd184 O195 2.439 . S
O185 Cd184 2.240 . S
O185 C190 1.279 . S
O186 Cd183 2.297 . S
O186 C188 1.247 . S
O187 Cd183 2.439 . S
O187 C188 1.208 . S
C188 O186 1.247 . S
C188 O187 1.208 . S
C189 O194 1.247 1_565 S
C189 O195 1.208 . S
C190 O182 1.315 . S
C190 O185 1.279 . S
C191 O192 1.315 1_565 S
C191 O193 1.279 . S
O192 Cd184 2.223 1_545 S
O192 C191 1.315 1_545 S
O193 Cd183 2.240 . S
O193 C191 1.279 . S
O194 Cd184 2.297 1_545 S
O194 C189 1.247 1_545 S
O195 Cd184 2.439 . S
O195 C189 1.208 . S
O196 Cd197 2.223 . S
O196 C204 1.315 . S
Cd197 O196 2.223 . S
Cd197 O200 2.297 . S
Cd197 O201 2.439 . S
Cd197 O207 2.240 . S
Cd198 O199 2.240 . S
Cd198 O206 2.223 . S
Cd198 O208 2.297 . S
Cd198 O209 2.439 . S
O199 Cd198 2.240 . S
O199 C204 1.279 . S
O200 Cd197 2.297 . S
O200 C202 1.247 . S
O201 Cd197 2.439 . S
O201 C202 1.208 . S
C202 O200 1.247 . S
C202 O201 1.208 . S
C203 O208 1.247 . S
C203 O209 1.208 . S
C204 O196 1.315 . S
C204 O199 1.279 . S
C205 O206 1.315 . S
C205 O207 1.279 . S
O206 Cd198 2.223 . S
O206 C205 1.315 . S
O207 Cd197 2.240 . S
O207 C205 1.279 . S
O208 Cd198 2.297 . S
O208 C203 1.247 . S
O209 Cd198 2.439 . S
O209 C203 1.208 . S
O210 Cd211 2.223 . S
O210 C218 1.315 . S
Cd211 O210 2.223 . S
Cd211 O214 2.297 . S
Cd211 O215 2.439 . S
Cd211 O221 2.240 . S
Cd212 O213 2.240 . S
Cd212 O220 2.223 1_545 S
Cd212 O222 2.297 1_545 S
Cd212 O223 2.439 . S
O213 Cd212 2.240 . S
O213 C218 1.279 . S
O214 Cd211 2.297 . S
O214 C216 1.247 . S
O215 Cd211 2.439 . S
O215 C216 1.208 . S
C216 O214 1.247 . S
C216 O215 1.208 . S
C217 O222 1.247 1_545 S
C217 O223 1.208 . S
C218 O210 1.315 . S
C218 O213 1.279 . S
C219 O220 1.315 1_545 S
C219 O221 1.279 . S
O220 Cd212 2.223 1_565 S
O220 C219 1.315 1_565 S
O221 Cd211 2.240 . S
O221 C219 1.279 . S
O222 Cd212 2.297 1_565 S
O222 C217 1.247 1_565 S
O223 Cd212 2.439 . S
O223 C217 1.208 . S
O224 Cd225 2.223 . S
O224 C232 1.315 . S
Cd225 O224 2.223 . S
Cd225 O228 2.297 . S
Cd225 O229 2.439 . S
Cd225 O235 2.240 . S
Cd226 O227 2.240 . S
Cd226 O234 2.223 . S
Cd226 O236 2.297 . S
Cd226 O237 2.439 . S
O227 Cd226 2.240 . S
O227 C232 1.279 . S
O228 Cd225 2.297 . S
O228 C230 1.247 . S
O229 Cd225 2.439 . S
O229 C230 1.208 . S
C230 O228 1.247 . S
C230 O229 1.208 . S
C231 O236 1.247 . S
C231 O237 1.208 . S
C232 O224 1.315 . S
C232 O227 1.279 . S
C233 O234 1.315 . S
C233 O235 1.279 . S
O234 Cd226 2.223 . S
O234 C233 1.315 . S
O235 Cd225 2.240 . S
O235 C233 1.279 . S
O236 Cd226 2.297 . S
O236 C231 1.247 . S
O237 Cd226 2.439 . S
O237 C231 1.208 . S
O238 Cd239 2.223 1_565 S
O238 C246 1.315 . S
Cd239 O238 2.223 1_545 S
Cd239 O242 2.297 . S
Cd239 O243 2.439 . S
Cd239 O249 2.240 . S
Cd240 O241 2.240 . S
Cd240 O248 2.233 . S
Cd240 O250 2.297 . S
Cd240 O251 2.439 . S
O241 Cd240 2.240 . S
O241 C246 1.279 . S
O242 Cd239 2.297 . S
O242 C244 1.247 . S
O243 Cd239 2.439 . S
O243 C244 1.208 . S
C244 O242 1.247 . S
C244 O243 1.208 . S
C245 O250 1.247 . S
C245 O251 1.208 . S
C246 O238 1.315 . S
C246 O241 1.279 . S
C247 O248 1.300 1_545 S
C247 O249 1.279 . S
O248 Cd240 2.233 . S
O248 C247 1.300 1_565 S
O249 Cd239 2.240 . S
O249 C247 1.279 . S
O250 Cd240 2.297 . S
O250 C245 1.247 . S
O251 Cd240 2.439 . S
O251 C245 1.208 . S
O252 Cd253 2.223 . S
O252 C260 1.315 . S
Cd253 O252 2.223 . S
Cd253 O256 2.297 . S
Cd253 O257 2.439 . S
Cd253 O263 2.240 . S
Cd254 O255 2.240 . S
Cd254 O262 2.223 1_556 S
Cd254 O264 2.297 1_556 S
Cd254 O265 2.439 . S
O255 Cd254 2.240 . S
O255 C260 1.279 . S
O256 Cd253 2.297 . S
O256 C258 1.247 . S
O257 Cd253 2.439 . S
O257 C258 1.208 . S
C258 O256 1.247 . S
C258 O257 1.208 . S
C259 O264 1.247 1_556 S
C259 O265 1.208 . S
C260 O252 1.315 . S
C260 O255 1.279 . S
C261 O262 1.315 1_556 S
C261 O263 1.279 . S
O262 Cd254 2.223 1_554 S
O262 C261 1.315 1_554 S
O263 Cd253 2.240 . S
O263 C261 1.279 . S
O264 Cd254 2.297 1_554 S
O264 C259 1.247 1_554 S
O265 Cd254 2.439 . S
O265 C259 1.208 . S
O266 Cd267 2.223 1_545 S
O266 C274 1.315 . S
Cd267 O266 2.223 1_565 S
Cd267 O270 2.297 . S
Cd267 O271 2.439 . S
Cd267 O277 2.240 . S
Cd268 O269 2.240 . S
Cd268 O276 2.223 1_546 S
Cd268 O278 2.297 1_556 S
Cd268 O279 2.439 . S
O269 Cd268 2.240 . S
O269 C274 1.279 . S
O270 Cd267 2.297 . S
O270 C272 1.247 . S
O271 Cd267 2.439 . S
O271 C272 1.208 . S
C272 O270 1.247 . S
C272 O271 1.208 . S
C273 O278 1.247 1_556 S
C273 O279 1.208 . S
C274 O266 1.315 . S
C274 O269 1.279 . S
C275 O276 1.315 . S
C275 O277 1.279 1_554 S
O276 Cd268 2.223 1_564 S
O276 C275 1.315 . S
O277 Cd267 2.240 . S
O277 C275 1.279 1_556 S
O278 Cd268 2.297 1_554 S
O278 C273 1.247 1_554 S
O279 Cd268 2.439 . S
O279 C273 1.208 . S
O280 Cd281 2.223 . S
O280 C288 1.315 . S
Cd281 O280 2.223 . S
Cd281 O284 2.297 . S
Cd281 O285 2.439 . S
Cd281 O291 2.240 . S
Cd282 O283 2.240 . S
Cd282 O290 2.223 . S
Cd282 O292 2.297 . S
Cd282 O293 2.439 . S
O283 Cd282 2.240 . S
O283 C288 1.279 . S
O284 Cd281 2.297 . S
O284 C286 1.247 . S
O285 Cd281 2.439 . S
O285 C286 1.208 . S
C286 O284 1.247 . S
C286 O285 1.208 . S
C287 O292 1.247 . S
C287 O293 1.208 . S
C288 O280 1.315 . S
C288 O283 1.279 . S
C289 O290 1.315 . S
C289 O291 1.279 . S
O290 Cd282 2.223 . S
O290 C289 1.315 . S
O291 Cd281 2.240 . S
O291 C289 1.279 . S
O292 Cd282 2.297 . S
O292 C287 1.247 . S
O293 Cd282 2.439 . S
O293 C287 1.208 . S
O294 Cd295 2.223 1_556 S
O294 C302 1.315 . S
Cd295 O294 2.223 1_554 S
Cd295 O298 2.297 . S
Cd295 O299 2.439 . S
Cd295 O305 2.240 . S
Cd296 O297 2.240 . S
Cd296 O304 2.233 . S
Cd296 O306 2.297 . S
Cd296 O307 2.439 . S
O297 Cd296 2.240 . S
O297 C302 1.279 . S
O298 Cd295 2.297 . S
O298 C300 1.247 . S
O299 Cd295 2.439 . S
O299 C300 1.208 . S
C300 O298 1.247 . S
C300 O299 1.208 . S
C301 O306 1.247 . S
C301 O307 1.208 . S
C302 O294 1.315 . S
C302 O297 1.279 . S
C303 O304 1.300 1_554 S
C303 O305 1.279 . S
O304 Cd296 2.233 . S
O304 C303 1.300 1_556 S
O305 Cd295 2.240 . S
O305 C303 1.279 . S
O306 Cd296 2.297 . S
O306 C301 1.247 . S
O307 Cd296 2.439 . S
O307 C301 1.208 . S
O308 Cd309 2.223 1_556 S
O308 C316 1.315 . S
Cd309 O308 2.223 1_554 S
Cd309 O312 2.297 . S
Cd309 O313 2.439 . S
Cd309 O319 2.240 . S
Cd310 O311 2.240 . S
Cd310 O318 2.228 . S
Cd310 O320 2.297 . S
Cd310 O321 2.431 1_556 S
O311 Cd310 2.240 . S
O311 C316 1.279 . S
O312 Cd309 2.297 . S
O312 C314 1.247 . S
O313 Cd309 2.439 . S
O313 C314 1.208 . S
C314 O312 1.247 . S
C314 O313 1.208 . S
C315 O320 1.247 . S
C315 O321 1.207 1_556 S
C316 O308 1.315 . S
C316 O311 1.279 . S
C317 O318 1.307 1_554 S
C317 O319 1.279 . S
O318 Cd310 2.228 . S
O318 C317 1.307 1_556 S
O319 Cd309 2.240 . S
O319 C317 1.279 . S
O320 Cd310 2.297 . S
O320 C315 1.247 . S
O321 Cd310 2.431 1_554 S
O321 C315 1.207 1_554 S
O322 Cd323 2.223 1_554 S
O322 C330 1.315 . S
Cd323 O322 2.223 1_556 S
Cd323 O326 2.297 . S
Cd323 O327 2.439 . S
Cd323 O333 2.240 . S
Cd324 O325 2.240 . S
Cd324 O332 2.223 1_654 S
Cd324 O334 2.297 1_655 S
Cd324 O335 2.439 . S
O325 Cd324 2.240 . S
O325 C330 1.279 . S
O326 Cd323 2.297 . S
O326 C328 1.247 . S
O327 Cd323 2.439 . S
O327 C328 1.208 . S
C328 O326 1.247 . S
C328 O327 1.208 . S
C329 O334 1.247 1_655 S
C329 O335 1.208 . S
C330 O322 1.315 . S
C330 O325 1.279 . S
C331 O332 1.315 . S
C331 O333 1.279 1_455 S
O332 Cd324 2.223 1_456 S
O332 C331 1.315 . S
O333 Cd323 2.240 . S
O333 C331 1.279 1_655 S
O334 Cd324 2.297 1_455 S
O334 C329 1.247 1_455 S
O335 Cd324 2.439 . S
O335 C329 1.208 . S
C247 C8 1.022 . S
C22 C233 0.929 . S
C36 C275 1.205 . S
C50 C261 1.159 1_554 S
C64 C303 1.022 . S
C78 C317 1.342 . S
C289 C92 0.929 . S
C163 C106 1.256 . S
C120 C51 1.022 . S
C23 C134 1.342 . S
C148 C9 1.530 . S
C162 C205 1.256 . S
C79 C176 1.478 1_554 S
C65 C190 1.530 . S
C204 C107 1.256 . S
C218 C93 1.342 . S
C135 C232 1.478 1_455 S
C149 C246 1.159 1_655 S
C121 C260 1.530 . S
C274 C331 1.205 . S
C219 C288 1.478 1_545 S
C302 C191 1.159 1_545 S
C177 C316 0.929 . S
C330 C37 1.205 . S
C6 C20 1.566 1_655 S
C48 C34 1.529 1_455 S
C62 C90 1.566 1_565 S
C76 C104 2.473 . S
C314 C118 1.566 1_554 S
C132 C160 2.473 . S
C286 C146 2.552 . S
C188 C174 2.552 . S
C202 C216 2.473 . S
C258 C230 2.552 . S
C244 C272 1.529 1_545 S
C328 C300 1.529 1_556 S
C35 C7 1.153 1_465 S
C21 C49 1.426 . S
C273 C63 1.153 1_546 S
C77 C259 1.326 1_554 S
C91 C245 1.426 . S
C231 C105 1.592 . S
C119 C329 1.153 1_456 S
C133 C147 1.326 1_455 S
C287 C161 1.592 . S
C175 C203 1.592 . S
C189 C217 1.326 1_565 S
C315 C301 1.426 . S
