# Generated by pormake.
# Topology uke, (4)-cn, num edge types: 1
# Building blocks:
#     Node 0, Type 0, BuildingBlock: QUQFOY_clean_sbu_1, # of connection points: 4
#     Node 1, Type 0, BuildingBlock: QUQFOY_clean_sbu_1, # of connection points: 4
#     Node 2, Type 0, BuildingBlock: QUQFOY_clean_sbu_1, # of connection points: 4
#     Node 3, Type 0, BuildingBlock: QUQFOY_clean_sbu_1, # of connection points: 4
#     Node 4, Type 0, BuildingBlock: QUQFOY_clean_sbu_1, # of connection points: 4
#     Node 5, Type 0, BuildingBlock: QUQFOY_clean_sbu_1, # of connection points: 4
#     Node 6, Type 0, BuildingBlock: QUQFOY_clean_sbu_1, # of connection points: 4
#     Node 7, Type 0, BuildingBlock: QUQFOY_clean_sbu_1, # of connection points: 4
#     Node 8, Type 0, BuildingBlock: QUQFOY_clean_sbu_1, # of connection points: 4
#     Node 9, Type 0, BuildingBlock: QUQFOY_clean_sbu_1, # of connection points: 4
#     Node 10, Type 0, BuildingBlock: QUQFOY_clean_sbu_1, # of connection points: 4
#     Node 11, Type 0, BuildingBlock: QUQFOY_clean_sbu_1, # of connection points: 4
#     Node 12, Type 0, BuildingBlock: QUQFOY_clean_sbu_1, # of connection points: 4
#     Node 13, Type 0, BuildingBlock: QUQFOY_clean_sbu_1, # of connection points: 4
#     Node 14, Type 0, BuildingBlock: QUQFOY_clean_sbu_1, # of connection points: 4
#     Node 15, Type 0, BuildingBlock: QUQFOY_clean_sbu_1, # of connection points: 4
#     Node 16, Type 0, BuildingBlock: QUQFOY_clean_sbu_1, # of connection points: 4
#     Node 17, Type 0, BuildingBlock: QUQFOY_clean_sbu_1, # of connection points: 4
#     Node 18, Type 0, BuildingBlock: QUQFOY_clean_sbu_1, # of connection points: 4
#     Node 19, Type 0, BuildingBlock: QUQFOY_clean_sbu_1, # of connection points: 4
#     Node 20, Type 0, BuildingBlock: QUQFOY_clean_sbu_1, # of connection points: 4
#     Node 21, Type 0, BuildingBlock: QUQFOY_clean_sbu_1, # of connection points: 4
#     Node 22, Type 0, BuildingBlock: QUQFOY_clean_sbu_1, # of connection points: 4
#     Node 23, Type 0, BuildingBlock: QUQFOY_clean_sbu_1, # of connection points: 4
#     Node 24, Type 0, BuildingBlock: QUQFOY_clean_sbu_1, # of connection points: 4
#     Node 25, Type 0, BuildingBlock: QUQFOY_clean_sbu_1, # of connection points: 4
#     Node 26, Type 0, BuildingBlock: QUQFOY_clean_sbu_1, # of connection points: 4
#     Node 27, Type 0, BuildingBlock: QUQFOY_clean_sbu_1, # of connection points: 4
#     Node 28, Type 0, BuildingBlock: QUQFOY_clean_sbu_1, # of connection points: 4
#     Node 29, Type 0, BuildingBlock: QUQFOY_clean_sbu_1, # of connection points: 4
#     Node 30, Type 0, BuildingBlock: QUQFOY_clean_sbu_1, # of connection points: 4
#     Node 31, Type 0, BuildingBlock: QUQFOY_clean_sbu_1, # of connection points: 4
#     Edge 32, Type (0, 0), BuildingBlock: KIFKEQ_clean_linker_1, # of connection points: 2
#     Edge 33, Type (0, 0), BuildingBlock: KIFKEQ_clean_linker_1, # of connection points: 2
#     Edge 34, Type (0, 0), BuildingBlock: KIFKEQ_clean_linker_1, # of connection points: 2
#     Edge 35, Type (0, 0), BuildingBlock: KIFKEQ_clean_linker_1, # of connection points: 2
#     Edge 36, Type (0, 0), BuildingBlock: KIFKEQ_clean_linker_1, # of connection points: 2
#     Edge 37, Type (0, 0), BuildingBlock: KIFKEQ_clean_linker_1, # of connection points: 2
#     Edge 38, Type (0, 0), BuildingBlock: KIFKEQ_clean_linker_1, # of connection points: 2
#     Edge 39, Type (0, 0), BuildingBlock: KIFKEQ_clean_linker_1, # of connection points: 2
#     Edge 40, Type (0, 0), BuildingBlock: KIFKEQ_clean_linker_1, # of connection points: 2
#     Edge 41, Type (0, 0), BuildingBlock: KIFKEQ_clean_linker_1, # of connection points: 2
#     Edge 42, Type (0, 0), BuildingBlock: KIFKEQ_clean_linker_1, # of connection points: 2
#     Edge 43, Type (0, 0), BuildingBlock: KIFKEQ_clean_linker_1, # of connection points: 2
#     Edge 44, Type (0, 0), BuildingBlock: KIFKEQ_clean_linker_1, # of connection points: 2
#     Edge 45, Type (0, 0), BuildingBlock: KIFKEQ_clean_linker_1, # of connection points: 2
#     Edge 46, Type (0, 0), BuildingBlock: KIFKEQ_clean_linker_1, # of connection points: 2
#     Edge 47, Type (0, 0), BuildingBlock: KIFKEQ_clean_linker_1, # of connection points: 2
#     Edge 48, Type (0, 0), BuildingBlock: KIFKEQ_clean_linker_1, # of connection points: 2
#     Edge 49, Type (0, 0), BuildingBlock: KIFKEQ_clean_linker_1, # of connection points: 2
#     Edge 50, Type (0, 0), BuildingBlock: KIFKEQ_clean_linker_1, # of connection points: 2
#     Edge 51, Type (0, 0), BuildingBlock: KIFKEQ_clean_linker_1, # of connection points: 2
#     Edge 52, Type (0, 0), BuildingBlock: KIFKEQ_clean_linker_1, # of connection points: 2
#     Edge 53, Type (0, 0), BuildingBlock: KIFKEQ_clean_linker_1, # of connection points: 2
#     Edge 54, Type (0, 0), BuildingBlock: KIFKEQ_clean_linker_1, # of connection points: 2
#     Edge 55, Type (0, 0), BuildingBlock: KIFKEQ_clean_linker_1, # of connection points: 2
#     Edge 56, Type (0, 0), BuildingBlock: KIFKEQ_clean_linker_1, # of connection points: 2
#     Edge 57, Type (0, 0), BuildingBlock: KIFKEQ_clean_linker_1, # of connection points: 2
#     Edge 58, Type (0, 0), BuildingBlock: KIFKEQ_clean_linker_1, # of connection points: 2
#     Edge 59, Type (0, 0), BuildingBlock: KIFKEQ_clean_linker_1, # of connection points: 2
#     Edge 60, Type (0, 0), BuildingBlock: KIFKEQ_clean_linker_1, # of connection points: 2
#     Edge 61, Type (0, 0), BuildingBlock: KIFKEQ_clean_linker_1, # of connection points: 2
#     Edge 62, Type (0, 0), BuildingBlock: KIFKEQ_clean_linker_1, # of connection points: 2
#     Edge 63, Type (0, 0), BuildingBlock: KIFKEQ_clean_linker_1, # of connection points: 2
#     Edge 64, Type (0, 0), BuildingBlock: KIFKEQ_clean_linker_1, # of connection points: 2
#     Edge 65, Type (0, 0), BuildingBlock: KIFKEQ_clean_linker_1, # of connection points: 2
#     Edge 66, Type (0, 0), BuildingBlock: KIFKEQ_clean_linker_1, # of connection points: 2
#     Edge 67, Type (0, 0), BuildingBlock: KIFKEQ_clean_linker_1, # of connection points: 2
#     Edge 68, Type (0, 0), BuildingBlock: KIFKEQ_clean_linker_1, # of connection points: 2
#     Edge 69, Type (0, 0), BuildingBlock: KIFKEQ_clean_linker_1, # of connection points: 2
#     Edge 70, Type (0, 0), BuildingBlock: KIFKEQ_clean_linker_1, # of connection points: 2
#     Edge 71, Type (0, 0), BuildingBlock: KIFKEQ_clean_linker_1, # of connection points: 2
#     Edge 72, Type (0, 0), BuildingBlock: KIFKEQ_clean_linker_1, # of connection points: 2
#     Edge 73, Type (0, 0), BuildingBlock: KIFKEQ_clean_linker_1, # of connection points: 2
#     Edge 74, Type (0, 0), BuildingBlock: KIFKEQ_clean_linker_1, # of connection points: 2
#     Edge 75, Type (0, 0), BuildingBlock: KIFKEQ_clean_linker_1, # of connection points: 2
#     Edge 76, Type (0, 0), BuildingBlock: KIFKEQ_clean_linker_1, # of connection points: 2
#     Edge 77, Type (0, 0), BuildingBlock: KIFKEQ_clean_linker_1, # of connection points: 2
#     Edge 78, Type (0, 0), BuildingBlock: KIFKEQ_clean_linker_1, # of connection points: 2
#     Edge 79, Type (0, 0), BuildingBlock: KIFKEQ_clean_linker_1, # of connection points: 2
#     Edge 80, Type (0, 0), BuildingBlock: KIFKEQ_clean_linker_1, # of connection points: 2
#     Edge 81, Type (0, 0), BuildingBlock: KIFKEQ_clean_linker_1, # of connection points: 2
#     Edge 82, Type (0, 0), BuildingBlock: KIFKEQ_clean_linker_1, # of connection points: 2
#     Edge 83, Type (0, 0), BuildingBlock: KIFKEQ_clean_linker_1, # of connection points: 2
#     Edge 84, Type (0, 0), BuildingBlock: KIFKEQ_clean_linker_1, # of connection points: 2
#     Edge 85, Type (0, 0), BuildingBlock: KIFKEQ_clean_linker_1, # of connection points: 2
#     Edge 86, Type (0, 0), BuildingBlock: KIFKEQ_clean_linker_1, # of connection points: 2
#     Edge 87, Type (0, 0), BuildingBlock: KIFKEQ_clean_linker_1, # of connection points: 2
#     Edge 88, Type (0, 0), BuildingBlock: KIFKEQ_clean_linker_1, # of connection points: 2
#     Edge 89, Type (0, 0), BuildingBlock: KIFKEQ_clean_linker_1, # of connection points: 2
#     Edge 90, Type (0, 0), BuildingBlock: KIFKEQ_clean_linker_1, # of connection points: 2
#     Edge 91, Type (0, 0), BuildingBlock: KIFKEQ_clean_linker_1, # of connection points: 2
#     Edge 92, Type (0, 0), BuildingBlock: KIFKEQ_clean_linker_1, # of connection points: 2
#     Edge 93, Type (0, 0), BuildingBlock: KIFKEQ_clean_linker_1, # of connection points: 2
#     Edge 94, Type (0, 0), BuildingBlock: KIFKEQ_clean_linker_1, # of connection points: 2
#     Edge 95, Type (0, 0), BuildingBlock: KIFKEQ_clean_linker_1, # of connection points: 2
# Relax obj value: 0.022
# Max RMSD: 0.085
# Mean RMSD: 0.085
data_MOF--net-uke--node1-QUQFOY_clean_sbu_1--edge1-KIFKEQ_clean_linker_1
_symmetry_space_group_name_H-M    P1
_symmetry_Int_Tables_number       1
_symmetry_cell_setting            triclinic
loop_
_symmetry_equiv_pos_as_xyz
'x, y, z'
_cell_length_a     25.072987
_cell_length_b     113.17435
_cell_length_c     53.044638
_cell_angle_alpha  89.983112
_cell_angle_beta   90.01422
_cell_angle_gamma 89.994955
loop_
_atom_site_label
_atom_site_type_symbol
_atom_site_fract_x
_atom_site_fract_y
_atom_site_fract_z
_atom_type_partial_charge
O0 O 0.08885 0.09647 0.28906 0.0
Cd1 Cd 0.06525 0.07971 0.27856 0.0
Cd2 Cd 0.17031 0.0768 0.27728 0.0
O3 O 0.17366 0.09264 0.29687 0.0
O4 O 0.99095 0.07783 0.29167 0.0
O5 O 0.06001 0.06803 0.3071 0.0
C6 C 1.01 0.07075 0.3085 0.0
C7 C 0.21538 0.05915 0.2839 0.0
C8 C 0.13419 0.09974 0.29725 0.0
C9 C 0.11312 0.07634 0.22802 0.0
O10 O 0.15655 0.07817 0.23958 0.0
O11 O 0.06947 0.07553 0.24019 0.0
O12 O 0.24053 0.0686 0.27726 0.0
O13 O 0.16574 0.06014 0.29018 0.0
O14 O 0.21 0.19047 0.28699 0.0
Cd15 Cd 0.2332 0.2071 0.27552 0.0
Cd16 Cd 0.12843 0.21019 0.27664 0.0
O17 O 0.12696 0.1947 0.29759 0.0
O18 O 0.30912 0.20896 0.28687 0.0
O19 O 0.24183 0.2188 0.30374 0.0
C20 C 0.29185 0.21606 0.30408 0.0
C21 C 0.09511 0.22897 0.28408 0.0
C22 C 0.16585 0.18745 0.29687 0.0
C23 C 0.1782 0.21006 0.22616 0.0
O24 O 0.13621 0.20805 0.23877 0.0
O25 O 0.22301 0.21123 0.2373 0.0
O26 O 0.06317 0.22019 0.28009 0.0
O27 O 0.14521 0.22669 0.28722 0.0
O28 O 0.08279 0.19097 0.97936 0.0
Cd29 Cd 0.06302 0.20792 0.98966 0.0
Cd30 Cd 0.16687 0.20997 0.98652 0.0
O31 O 0.16279 0.19483 0.96423 0.0
O32 O 0.98669 0.21022 0.97919 0.0
O33 O 0.05453 0.21913 0.96056 0.0
C34 C 1.00411 0.21683 0.96111 0.0
C35 C 0.19888 0.22894 0.9799 0.0
C36 C 0.12402 0.18767 0.9673 0.0
C37 C 0.12208 0.21017 0.03774 0.0
O38 O 0.16191 0.20722 0.02441 0.0
O39 O 0.07733 0.21241 0.02731 0.0
O40 O 0.23155 0.22016 0.98223 0.0
O41 O 0.14858 0.22662 0.97788 0.0
O42 O 0.2005 0.09695 0.98098 0.0
Cd43 Cd 0.22036 0.07998 0.9911 0.0
Cd44 Cd 0.11642 0.07793 0.98815 0.0
O45 O 0.12073 0.09302 0.96565 0.0
O46 O 0.29672 0.07766 0.98056 0.0
O47 O 0.22867 0.06893 0.96172 0.0
C48 C 0.27913 0.07116 0.96233 0.0
C49 C 0.08701 0.05876 0.98147 0.0
C50 C 0.15938 0.10021 0.96878 0.0
C51 C 0.16112 0.07763 0.03924 0.0
O52 O 0.12134 0.08076 0.02602 0.0
O53 O 0.20563 0.07531 0.02866 0.0
O54 O 0.05309 0.06733 0.98361 0.0
O55 O 0.13698 0.06142 0.97976 0.0
O56 O 0.94885 0.94083 0.72865 0.0
Cd57 Cd 0.96848 0.95771 0.74051 0.0
Cd58 Cd 0.86476 0.9591 0.74046 0.0
O59 O 0.86538 0.9443 0.7177 0.0
O60 O 0.04403 0.96014 0.72933 0.0
O61 O 0.97551 0.96953 0.71236 0.0
C62 C 0.02589 0.96712 0.71207 0.0
C63 C 0.82473 0.97741 0.7355 0.0
C64 C 0.90571 0.93746 0.71825 0.0
C65 C 0.91564 0.95886 0.7904 0.0
O66 O 0.87501 0.95576 0.77783 0.0
O67 O 0.95847 0.9617 0.7789 0.0
O68 O 0.79647 0.96807 0.73975 0.0
O69 O 0.87502 0.97606 0.73091 0.0
O70 O 0.84615 0.84691 0.72647 0.0
Cd71 Cd 0.82464 0.83017 0.73811 0.0
Cd72 Cd 0.92837 0.82817 0.73815 0.0
O73 O 0.92873 0.84286 0.71492 0.0
O74 O 0.74853 0.8282 0.7271 0.0
O75 O 0.81582 0.81862 0.70958 0.0
C76 C 0.76575 0.82129 0.7095 0.0
C77 C 0.95854 0.80897 0.73324 0.0
C78 C 0.88938 0.84997 0.71576 0.0
C79 C 0.87862 0.82884 0.78794 0.0
O80 O 0.91947 0.83185 0.77539 0.0
O81 O 0.83566 0.82606 0.77644 0.0
O82 O 0.992 0.81758 0.73594 0.0
O83 O 0.90871 0.81153 0.7302 0.0
O84 O 0.95086 0.84608 0.03966 0.0
Cd85 Cd 0.97197 0.8294 0.02742 0.0
Cd86 Cd 0.86793 0.82744 0.02774 0.0
O87 O 0.8681 0.84212 0.05104 0.0
O88 O 0.04839 0.82736 0.03792 0.0
O89 O 0.98169 0.81758 0.05541 0.0
C90 C 0.03176 0.82026 0.05528 0.0
C91 C 0.83681 0.8083 0.03269 0.0
C92 C 0.90767 0.84917 0.05037 0.0
C93 C 0.91706 0.82828 0.97773 0.0
O94 O 0.87627 0.83115 0.99046 0.0
O95 O 0.96032 0.82555 0.98904 0.0
O96 O 0.8038 0.817 0.03007 0.0
O97 O 0.8868 0.81074 0.03562 0.0
O98 O 0.84685 0.94012 0.0414 0.0
Cd99 Cd 0.82625 0.95704 0.03027 0.0
Cd100 Cd 0.92968 0.95865 0.02992 0.0
O101 O 0.93021 0.94371 0.05236 0.0
O102 O 0.75091 0.95926 0.04195 0.0
O103 O 0.81954 0.96858 0.05898 0.0
C104 C 0.76925 0.96608 0.05943 0.0
C105 C 0.96865 0.97711 0.03462 0.0
C106 C 0.89024 0.93677 0.05161 0.0
C107 C 0.87791 0.95851 0.98022 0.0
O108 O 0.91875 0.95536 0.9926 0.0
O109 O 0.83528 0.9613 0.99193 0.0
O110 O 0.99742 0.96786 0.03027 0.0
O111 O 0.91859 0.97559 0.03953 0.0
O112 O 0.08595 0.59619 0.78618 0.0
Cd113 Cd 0.06621 0.57915 0.7763 0.0
Cd114 Cd 0.17009 0.57705 0.77899 0.0
O115 O 0.16752 0.59263 0.79972 0.0
O116 O 0.99098 0.57669 0.78782 0.0
O117 O 0.06033 0.56776 0.80523 0.0
C118 C 1.00977 0.56998 0.80542 0.0
C119 C 0.21271 0.55924 0.78706 0.0
C120 C 0.1282 0.59968 0.79717 0.0
C121 C 0.12173 0.57632 0.72779 0.0
O122 O 0.16257 0.57884 0.74083 0.0
O123 O 0.07688 0.57466 0.73852 0.0
O124 O 0.23968 0.56865 0.78182 0.0
O125 O 0.16207 0.56035 0.791 0.0
O126 O 0.20816 0.69076 0.78528 0.0
Cd127 Cd 0.22775 0.70787 0.77571 0.0
Cd128 Cd 0.12416 0.70978 0.77821 0.0
O129 O 0.12701 0.69433 0.79932 0.0
O130 O 0.30297 0.71032 0.78732 0.0
O131 O 0.23345 0.71907 0.80496 0.0
C132 C 0.28405 0.71689 0.80512 0.0
C133 C 0.08269 0.72776 0.78567 0.0
C134 C 0.16623 0.68728 0.79654 0.0
C135 C 0.17216 0.71069 0.7272 0.0
O136 O 0.13168 0.7078 0.74013 0.0
O137 O 0.21667 0.71262 0.73806 0.0
O138 O 0.05505 0.71839 0.78085 0.0
O139 O 0.13326 0.72652 0.78965 0.0
O140 O 0.09402 0.69134 0.47751 0.0
Cd141 Cd 0.07191 0.70812 0.48849 0.0
Cd142 Cd 0.17654 0.71069 0.48858 0.0
O143 O 0.17823 0.69507 0.46825 0.0
O144 O 0.99711 0.71022 0.47622 0.0
O145 O 0.06601 0.71982 0.46007 0.0
C146 C 1.01582 0.71723 0.45916 0.0
C147 C 0.21968 0.72852 0.48183 0.0
C148 C 0.13852 0.68805 0.46838 0.0
C149 C 0.1228 0.71111 0.53847 0.0
O150 O 0.16531 0.70897 0.5264 0.0
O151 O 0.07871 0.7123 0.52678 0.0
O152 O 0.24612 0.71911 0.48766 0.0
O153 O 0.16966 0.72739 0.47638 0.0
O154 O 0.2075 0.59743 0.47844 0.0
Cd155 Cd 0.23001 0.58077 0.48992 0.0
Cd156 Cd 0.1253 0.57797 0.4888 0.0
O157 O 0.12463 0.59329 0.46738 0.0
O158 O 0.30593 0.57878 0.47868 0.0
O159 O 0.23829 0.56917 0.46152 0.0
C160 C 0.2884 0.5718 0.46129 0.0
C161 C 0.09368 0.55906 0.48163 0.0
C162 C 0.16373 0.60048 0.46821 0.0
C163 C 0.17448 0.57797 0.53921 0.0
O164 O 0.13281 0.58031 0.52661 0.0
O165 O 0.21909 0.57651 0.52805 0.0
O166 O 0.06087 0.56772 0.48524 0.0
O167 O 0.14363 0.56152 0.47869 0.0
O168 O 0.95717 0.44081 0.23156 0.0
Cd169 Cd 0.97712 0.45792 0.24089 0.0
Cd170 Cd 0.87382 0.45987 0.23874 0.0
O171 O 0.87618 0.44447 0.21742 0.0
O172 O 0.05207 0.46036 0.22887 0.0
O173 O 0.98214 0.46903 0.21139 0.0
C174 C 0.03274 0.46684 0.21102 0.0
C175 C 0.83214 0.47789 0.2321 0.0
C176 C 0.91519 0.43737 0.22028 0.0
C177 C 0.92226 0.46067 0.28957 0.0
O178 O 0.88182 0.45767 0.27672 0.0
O179 O 0.96654 0.46272 0.27861 0.0
O180 O 0.80464 0.46847 0.23665 0.0
O181 O 0.88262 0.4767 0.22781 0.0
O182 O 0.8333 0.34637 0.232 0.0
Cd183 Cd 0.81322 0.32932 0.24175 0.0
Cd184 Cd 0.9169 0.32726 0.23933 0.0
O185 O 0.9145 0.3427 0.21816 0.0
O186 O 0.73801 0.32696 0.23007 0.0
O187 O 0.80728 0.31803 0.2126 0.0
C188 C 0.75676 0.32032 0.21235 0.0
C189 C 0.96038 0.30946 0.23239 0.0
C190 C 0.87542 0.3498 0.22081 0.0
C191 C 0.86838 0.32658 0.29036 0.0
O192 O 0.909 0.32931 0.27737 0.0
O193 O 0.82375 0.32473 0.27955 0.0
O194 O 0.98686 0.31898 0.23723 0.0
O195 O 0.90981 0.31042 0.22803 0.0
O196 O 0.95691 0.34728 0.53936 0.0
Cd197 Cd 0.98 0.33065 0.52797 0.0
Cd198 Cd 0.87548 0.32762 0.52943 0.0
O199 O 0.87438 0.34299 0.5507 0.0
O200 O 0.05617 0.32885 0.53903 0.0
O201 O 0.98917 0.31914 0.55652 0.0
C202 C 0.03917 0.32189 0.55659 0.0
C203 C 0.84426 0.30869 0.53678 0.0
C204 C 0.91315 0.35026 0.54968 0.0
C205 C 0.92386 0.3277 0.47883 0.0
O206 O 0.88229 0.32994 0.49158 0.0
O207 O 0.96872 0.32635 0.48985 0.0
O208 O 0.81129 0.31732 0.53318 0.0
O209 O 0.89421 0.31119 0.53961 0.0
O210 O 0.84161 0.4411 0.53935 0.0
Cd211 Cd 0.81962 0.45788 0.52815 0.0
Cd212 Cd 0.92437 0.46044 0.52833 0.0
O213 O 0.92577 0.44484 0.54873 0.0
O214 O 0.74473 0.46008 0.54031 0.0
O215 O 0.8137 0.46965 0.55643 0.0
C216 C 0.76345 0.46712 0.5573 0.0
C217 C 0.9676 0.47824 0.53515 0.0
C218 C 0.88605 0.43782 0.54857 0.0
C219 C 0.87127 0.46082 0.47827 0.0
O220 O 0.91362 0.4587 0.4905 0.0
O221 O 0.82702 0.46201 0.48982 0.0
O222 O 0.99402 0.46883 0.52939 0.0
O223 O 0.91753 0.47713 0.54049 0.0
O224 O 0.58503 0.09623 0.78906 0.0
Cd225 Cd 0.56645 0.07911 0.77933 0.0
Cd226 Cd 0.66948 0.07776 0.78205 0.0
O227 O 0.66416 0.09249 0.80526 0.0
O228 O 0.49016 0.07664 0.78978 0.0
O229 O 0.55852 0.06825 0.80907 0.0
C230 C 0.50795 0.07036 0.80831 0.0
C231 C 0.69993 0.05862 0.78791 0.0
C232 C 0.62539 0.09959 0.80169 0.0
C233 C 0.62509 0.07746 0.73116 0.0
O234 O 0.66369 0.08119 0.74444 0.0
O235 O 0.58181 0.07426 0.74186 0.0
O236 O 0.73337 0.06729 0.78606 0.0
O237 O 0.64977 0.06112 0.78962 0.0
O238 O 0.70135 0.19035 0.78763 0.0
Cd239 Cd 0.7208 0.20738 0.77747 0.0
Cd240 Cd 0.6174 0.20919 0.77969 0.0
O241 O 0.62044 0.19405 0.80179 0.0
O242 O 0.79615 0.20989 0.78889 0.0
O243 O 0.72678 0.21868 0.80656 0.0
C244 C 0.77736 0.21649 0.80667 0.0
C245 C 0.57767 0.22743 0.7861 0.0
C246 C 0.65965 0.18698 0.79924 0.0
C247 C 0.66511 0.20967 0.72878 0.0
O248 O 0.62486 0.20667 0.74176 0.0
O249 O 0.70933 0.21191 0.73966 0.0
O250 O 0.54908 0.21813 0.78196 0.0
O251 O 0.62817 0.22602 0.79002 0.0
O252 O 0.59392 0.19033 0.47831 0.0
Cd253 Cd 0.57018 0.20701 0.48931 0.0
Cd254 Cd 0.67507 0.20995 0.49034 0.0
O255 O 0.67854 0.19426 0.47029 0.0
O256 O 0.49562 0.20889 0.4765 0.0
O257 O 0.5643 0.21878 0.46099 0.0
C258 C 0.51432 0.21604 0.4597 0.0
C259 C 0.71878 0.22774 0.48382 0.0
C260 C 0.63916 0.18715 0.46984 0.0
C261 C 0.61896 0.21019 0.53978 0.0
O262 O 0.66217 0.20834 0.52806 0.0
O263 O 0.57516 0.21109 0.52774 0.0
O264 O 0.74474 0.21834 0.49015 0.0
O265 O 0.66905 0.22661 0.47778 0.0
O266 O 0.70903 0.09644 0.48109 0.0
Cd267 Cd 0.72968 0.07961 0.4927 0.0
Cd268 Cd 0.62589 0.07773 0.49179 0.0
O269 O 0.62683 0.09249 0.46882 0.0
O270 O 0.80574 0.07736 0.48185 0.0
O271 O 0.73788 0.06799 0.46429 0.0
C272 C 0.78818 0.07045 0.46432 0.0
C273 C 0.59262 0.0588 0.48641 0.0
C274 C 0.6662 0.09957 0.4701 0.0
C275 C 0.67415 0.07814 0.54204 0.0
O276 O 0.63383 0.08122 0.52918 0.0
O277 O 0.71753 0.07541 0.53087 0.0
O278 O 0.56062 0.06767 0.48916 0.0
O279 O 0.6429 0.06097 0.48358 0.0
O280 O 0.46305 0.9402 0.23326 0.0
Cd281 Cd 0.48399 0.95716 0.24315 0.0
Cd282 Cd 0.38037 0.9596 0.23949 0.0
O283 O 0.38373 0.94434 0.21764 0.0
O284 O 0.5603 0.95935 0.23241 0.0
O285 O 0.49235 0.9682 0.21373 0.0
C286 C 0.54277 0.96588 0.21422 0.0
C287 C 0.34825 0.9785 0.23218 0.0
C288 C 0.42176 0.93703 0.22109 0.0
C289 C 0.42424 0.96006 0.29091 0.0
O290 O 0.38451 0.95711 0.27748 0.0
O291 O 0.46938 0.96203 0.28062 0.0
O292 O 0.31567 0.96972 0.23478 0.0
O293 O 0.39857 0.97619 0.23029 0.0
O294 O 0.33436 0.8462 0.23039 0.0
Cd295 Cd 0.31335 0.82916 0.23981 0.0
Cd296 Cd 0.41702 0.82685 0.23821 0.0
O297 O 0.41598 0.84239 0.21728 0.0
O298 O 0.23858 0.82688 0.2275 0.0
O299 O 0.30833 0.81793 0.21052 0.0
C300 C 0.25785 0.82025 0.20991 0.0
C301 C 0.46093 0.80906 0.23164 0.0
C302 C 0.3771 0.84957 0.21965 0.0
C303 C 0.36646 0.82616 0.28883 0.0
O304 O 0.40774 0.82877 0.27621 0.0
O305 O 0.32207 0.8245 0.27768 0.0
O306 O 0.4871 0.8186 0.23673 0.0
O307 O 0.41057 0.81001 0.22676 0.0
O308 O 0.45988 0.84778 0.53512 0.0
Cd309 Cd 0.48157 0.83086 0.52532 0.0
Cd310 Cd 0.37795 0.82828 0.52815 0.0
O311 O 0.38025 0.84348 0.55016 0.0
O312 O 0.55757 0.8287 0.53657 0.0
O313 O 0.48912 0.81983 0.55479 0.0
C314 C 0.53953 0.82215 0.55462 0.0
C315 C 0.3467 0.80932 0.53519 0.0
C316 C 0.41812 0.85086 0.54704 0.0
C317 C 0.42342 0.82792 0.47711 0.0
O318 O 0.38317 0.83082 0.49022 0.0
O319 O 0.46823 0.82599 0.48776 0.0
O320 O 0.31367 0.81801 0.53245 0.0
O321 O 0.39684 0.81176 0.53736 0.0
O322 O 0.32686 0.94144 0.53696 0.0
Cd323 Cd 0.30575 0.95845 0.52731 0.0
Cd324 Cd 0.40948 0.96096 0.52991 0.0
O325 O 0.40805 0.94536 0.55055 0.0
O326 O 0.23074 0.96072 0.5393 0.0
O327 O 0.30016 0.96974 0.55645 0.0
C328 C 0.24968 0.96741 0.5569 0.0
C329 C 0.4539 0.97859 0.53752 0.0
C330 C 0.36942 0.93814 0.54796 0.0
C331 C 0.36052 0.96167 0.47876 0.0
O332 O 0.40155 0.95927 0.49176 0.0
O333 O 0.31552 0.96308 0.4895 0.0
O334 O 0.47981 0.96905 0.53217 0.0
O335 O 0.40335 0.97771 0.54195 0.0
O336 O 0.59136 0.59693 0.28639 0.0
Cd337 Cd 0.57078 0.57992 0.27687 0.0
Cd338 Cd 0.67459 0.57771 0.27927 0.0
O339 O 0.67152 0.59297 0.30122 0.0
O340 O 0.4949 0.57767 0.28808 0.0
O341 O 0.56363 0.56899 0.3065 0.0
C342 C 0.51315 0.57122 0.30626 0.0
C343 C 0.70589 0.55872 0.28618 0.0
C344 C 0.633 0.6002 0.29817 0.0
C345 C 0.62816 0.57708 0.22849 0.0
O346 O 0.66846 0.5802 0.24134 0.0
O347 O 0.58379 0.57498 0.23938 0.0
O348 O 0.73893 0.56741 0.28346 0.0
O349 O 0.65579 0.56117 0.28846 0.0
O350 O 0.71304 0.69097 0.28605 0.0
Cd351 Cd 0.73284 0.70794 0.27578 0.0
Cd352 Cd 0.62894 0.71005 0.27908 0.0
O353 O 0.63309 0.69486 0.30121 0.0
O354 O 0.80904 0.71036 0.28634 0.0
O355 O 0.74078 0.71918 0.30482 0.0
C356 C 0.7913 0.71699 0.30432 0.0
C357 C 0.59614 0.72892 0.28588 0.0
C358 C 0.67177 0.68768 0.2981 0.0
C359 C 0.67356 0.71041 0.22782 0.0
O360 O 0.63375 0.70743 0.24115 0.0
O361 O 0.71842 0.71255 0.23822 0.0
O362 O 0.56384 0.72008 0.28345 0.0
O363 O 0.64652 0.7267 0.28793 0.0
O364 O 0.58066 0.69024 0.98206 0.0
Cd365 Cd 0.56008 0.70735 0.99114 0.0
Cd366 Cd 0.66394 0.70961 0.98901 0.0
O367 O 0.66235 0.69387 0.96879 0.0
O368 O 0.48533 0.70972 0.97888 0.0
O369 O 0.55534 0.71853 0.9618 0.0
C370 C 0.50476 0.71633 0.96127 0.0
C371 C 0.70724 0.72736 0.98119 0.0
C372 C 0.62332 0.68676 0.97142 0.0
C373 C 0.61404 0.71073 0.03981 0.0
O374 O 0.65523 0.70811 0.02713 0.0
O375 O 0.56938 0.71221 0.02879 0.0
O376 O 0.73381 0.71793 0.98673 0.0
O377 O 0.6568 0.72628 0.97664 0.0
O378 O 0.71103 0.59562 0.98179 0.0
Cd379 Cd 0.73229 0.57858 0.99096 0.0
Cd380 Cd 0.62835 0.57613 0.98943 0.0
O381 O 0.62887 0.59191 0.96929 0.0
O382 O 0.80705 0.57641 0.97862 0.0
O383 O 0.73752 0.56734 0.96172 0.0
C384 C 0.78794 0.56971 0.96111 0.0
C385 C 0.58448 0.55843 0.98161 0.0
C386 C 0.66788 0.59906 0.97152 0.0
C387 C 0.67989 0.57518 0.04001 0.0
O388 O 0.6381 0.57757 0.02754 0.0
O389 O 0.72434 0.57386 0.02874 0.0
O390 O 0.55831 0.56786 0.98748 0.0
O391 O 0.63483 0.55947 0.97683 0.0
O392 O 0.46165 0.44136 0.72855 0.0
Cd393 Cd 0.48069 0.4583 0.74031 0.0
Cd394 Cd 0.37744 0.45909 0.74111 0.0
O395 O 0.37905 0.44497 0.71653 0.0
O396 O 0.55669 0.46075 0.72961 0.0
O397 O 0.48858 0.46997 0.7119 0.0
C398 C 0.53899 0.46762 0.71204 0.0
C399 C 0.34535 0.47823 0.73774 0.0
C400 C 0.41915 0.43807 0.71746 0.0
C401 C 0.42828 0.45837 0.7902 0.0
O402 O 0.3887 0.45452 0.77781 0.0
O403 O 0.46901 0.46241 0.77862 0.0
O404 O 0.31278 0.46942 0.74005 0.0
O405 O 0.3954 0.47595 0.73447 0.0
O406 O 0.35201 0.3478 0.72671 0.0
Cd407 Cd 0.32767 0.33134 0.73877 0.0
Cd408 Cd 0.4323 0.32808 0.73846 0.0
O409 O 0.43511 0.3433 0.7167 0.0
O410 O 0.25148 0.32974 0.72758 0.0
O411 O 0.31782 0.31958 0.71075 0.0
C412 C 0.26806 0.32251 0.71043 0.0
C413 C 0.46137 0.30891 0.73183 0.0
C414 C 0.39646 0.35062 0.71686 0.0
C415 C 0.38198 0.32871 0.78858 0.0
O416 O 0.42426 0.3307 0.77616 0.0
O417 O 0.33754 0.3274 0.77717 0.0
O418 O 0.49531 0.31736 0.73535 0.0
O419 O 0.4118 0.3117 0.72872 0.0
O420 O 0.45498 0.34674 0.03765 0.0
Cd421 Cd 0.47687 0.32985 0.02741 0.0
Cd422 Cd 0.37307 0.32743 0.02825 0.0
O423 O 0.3729 0.34276 0.04987 0.0
O424 O 0.55192 0.32778 0.03953 0.0
O425 O 0.48319 0.3183 0.05612 0.0
C426 C 0.53344 0.32084 0.05679 0.0
C427 C 0.33042 0.30943 0.03406 0.0
C428 C 0.4118 0.34997 0.04818 0.0
C429 C 0.42491 0.32737 0.97791 0.0
O430 O 0.3832 0.32979 0.9904 0.0
O431 O 0.46898 0.32562 0.98929 0.0
O432 O 0.30361 0.3189 0.02914 0.0
O433 O 0.38065 0.31053 0.0391 0.0
O434 O 0.33104 0.44081 0.03611 0.0
Cd435 Cd 0.31343 0.45804 0.02621 0.0
Cd436 Cd 0.41567 0.45864 0.02789 0.0
O437 O 0.41005 0.44444 0.05245 0.0
O438 O 0.23748 0.46076 0.03687 0.0
O439 O 0.30654 0.46906 0.05578 0.0
C440 C 0.25583 0.46708 0.05521 0.0
C441 C 0.44837 0.47773 0.03164 0.0
C442 C 0.37108 0.4374 0.04893 0.0
C443 C 0.36951 0.45851 0.97772 0.0
O444 O 0.40707 0.45421 0.99087 0.0
O445 O 0.32843 0.4628 0.98857 0.0
O446 O 0.48075 0.46884 0.03014 0.0
O447 O 0.39803 0.47555 0.03403 0.0
H448 H 0.23731 0.07871 0.0763 0.0
H449 H 0.06831 0.07398 0.06442 0.0
H450 H 0.22326 0.07788 0.12178 0.0
H451 H 0.05437 0.07251 0.1096 0.0
H452 H 0.03973 0.08342 0.19265 0.0
H453 H 0.05126 0.08339 0.14685 0.0
H454 H 0.20313 0.0657 0.15566 0.0
H455 H 0.19263 0.06638 0.20112 0.0
C456 C 0.19731 0.07733 0.08343 0.0
C457 C 0.15397 0.07649 0.06682 0.0
C458 C 0.18911 0.07678 0.10952 0.0
C459 C 0.1375 0.07514 0.11956 0.0
C460 C 0.09445 0.07404 0.10276 0.0
C461 C 0.10253 0.07481 0.07677 0.0
C462 C 0.07518 0.07944 0.18464 0.0
C463 C 0.11544 0.075 0.20036 0.0
C464 C 0.08192 0.07938 0.1584 0.0
C465 C 0.12861 0.07468 0.14739 0.0
C466 C 0.16747 0.06973 0.1633 0.0
C467 C 0.1612 0.07001 0.18941 0.0
H468 H 0.04733 0.20752 0.07506 0.0
H469 H 0.21396 0.21507 0.06256 0.0
H470 H 0.06253 0.20783 0.12051 0.0
H471 H 0.22886 0.21607 0.10772 0.0
H472 H 0.25108 0.20434 0.18951 0.0
H473 H 0.23701 0.20467 0.14391 0.0
H474 H 0.07983 0.21952 0.15538 0.0
H475 H 0.09304 0.21851 0.20064 0.0
C476 C 0.08698 0.20943 0.08207 0.0
C477 C 0.12945 0.21118 0.0653 0.0
C478 C 0.09582 0.20968 0.10814 0.0
C479 C 0.14715 0.21194 0.11799 0.0
C480 C 0.18915 0.21401 0.10102 0.0
C481 C 0.1805 0.21353 0.07506 0.0
C482 C 0.21378 0.20773 0.18214 0.0
C483 C 0.17304 0.21129 0.19855 0.0
C484 C 0.20561 0.20797 0.156 0.0
C485 C 0.15692 0.21202 0.14577 0.0
C486 C 0.11718 0.21602 0.16239 0.0
C487 C 0.12495 0.21554 0.1884 0.0
H488 H 0.96383 0.95269 0.95149 0.0
H489 H 0.80229 0.96578 0.94572 0.0
H490 H 0.97306 0.95357 0.9061 0.0
H491 H 0.8121 0.96688 0.89984 0.0
H492 H 0.82955 0.95285 0.81889 0.0
H493 H 0.81996 0.95356 0.8643 0.0
H494 H 0.98047 0.96709 0.87097 0.0
H495 H 0.99064 0.96614 0.82512 0.0
C496 C 0.93019 0.95582 0.94055 0.0
C497 C 0.88208 0.95912 0.95234 0.0
C498 C 0.9358 0.95643 0.91444 0.0
C499 C 0.89353 0.96035 0.89928 0.0
C500 C 0.84536 0.96371 0.91098 0.0
C501 C 0.83969 0.96311 0.93726 0.0
C502 C 0.863 0.95599 0.82993 0.0
C503 C 0.91111 0.95938 0.81828 0.0
C504 C 0.85718 0.9565 0.85605 0.0
C505 C 0.89927 0.96042 0.87133 0.0
C506 C 0.94738 0.9639 0.85974 0.0
C507 C 0.95326 0.96339 0.83348 0.0
H508 H 0.99229 0.82138 0.94284 0.0
H509 H 0.83051 0.83422 0.94943 0.0
H510 H 0.98206 0.82062 0.89698 0.0
H511 H 0.82085 0.8337 0.90399 0.0
H512 H 0.80359 0.82146 0.82251 0.0
H513 H 0.81361 0.82042 0.86837 0.0
H514 H 0.97374 0.8342 0.86198 0.0
H515 H 0.9643 0.835 0.81657 0.0
C516 C 0.95473 0.82408 0.93455 0.0
C517 C 0.9124 0.82789 0.94985 0.0
C518 C 0.94884 0.82367 0.90829 0.0
C519 C 0.90051 0.82708 0.89679 0.0
C520 C 0.85825 0.83082 0.91216 0.0
C521 C 0.86409 0.83122 0.9383 0.0
C522 C 0.84085 0.82426 0.83094 0.0
C523 C 0.88298 0.82833 0.81582 0.0
C524 C 0.84662 0.82369 0.85721 0.0
C525 C 0.89463 0.82719 0.86887 0.0
C526 C 0.93662 0.83123 0.85367 0.0
C527 C 0.9309 0.83179 0.82755 0.0
H528 H 0.0468 0.58026 0.69107 0.0
H529 H 0.21123 0.57026 0.70225 0.0
H530 H 0.06091 0.58033 0.64555 0.0
H531 H 0.22486 0.56965 0.65695 0.0
H532 H 0.24899 0.58237 0.57601 0.0
H533 H 0.23546 0.58157 0.62162 0.0
H534 H 0.07444 0.56899 0.60976 0.0
H535 H 0.08728 0.57046 0.56455 0.0
C536 C 0.08565 0.57787 0.68374 0.0
C537 C 0.12793 0.57533 0.70017 0.0
C538 C 0.09386 0.57785 0.65762 0.0
C539 C 0.14428 0.57505 0.64737 0.0
C540 C 0.18594 0.57215 0.66398 0.0
C541 C 0.17798 0.57239 0.69001 0.0
C542 C 0.21091 0.5794 0.58328 0.0
C543 C 0.1691 0.5766 0.56679 0.0
C544 C 0.20306 0.57888 0.60942 0.0
C545 C 0.15354 0.5753 0.61957 0.0
C546 C 0.11255 0.5721 0.60284 0.0
C547 C 0.12007 0.57285 0.57685 0.0
H548 H 0.08132 0.71594 0.70184 0.0
H549 H 0.24811 0.70818 0.69036 0.0
H550 H 0.06789 0.71717 0.65659 0.0
H551 H 0.23437 0.70875 0.64482 0.0
H552 H 0.20667 0.71969 0.56468 0.0
H553 H 0.21824 0.72066 0.61004 0.0
H554 H 0.06072 0.70579 0.62021 0.0
H555 H 0.04833 0.70548 0.57449 0.0
C556 C 0.11514 0.71441 0.68955 0.0
C557 C 0.1658 0.71192 0.69962 0.0
C558 C 0.10733 0.71503 0.66354 0.0
C559 C 0.14979 0.71296 0.64683 0.0
C560 C 0.20074 0.71059 0.65699 0.0
C561 C 0.20875 0.71019 0.68312 0.0
C562 C 0.17432 0.71672 0.57665 0.0
C563 C 0.12666 0.71244 0.5661 0.0
C564 C 0.18115 0.71717 0.60272 0.0
C565 C 0.14087 0.71314 0.619 0.0
C566 C 0.09252 0.70911 0.60837 0.0
C567 C 0.08531 0.70888 0.58217 0.0
H568 H 0.95572 0.46931 0.45233 0.0
H569 H 0.79721 0.45528 0.44197 0.0
H570 H 0.96788 0.47034 0.40701 0.0
H571 H 0.81018 0.45565 0.39629 0.0
H572 H 0.83152 0.46596 0.31486 0.0
H573 H 0.81785 0.4671 0.36008 0.0
H574 H 0.98417 0.45857 0.37204 0.0
H575 H 0.99816 0.45809 0.32649 0.0
C576 C 0.92346 0.46639 0.44025 0.0
C577 C 0.87556 0.46216 0.45064 0.0
C578 C 0.93063 0.46688 0.4142 0.0
C579 C 0.89045 0.46293 0.39777 0.0
C580 C 0.84191 0.45892 0.40824 0.0
C581 C 0.83436 0.45865 0.43443 0.0
C582 C 0.86527 0.4644 0.32718 0.0
C583 C 0.91594 0.46189 0.31716 0.0
C584 C 0.8573 0.46496 0.35319 0.0
C585 C 0.89963 0.46282 0.36995 0.0
C586 C 0.95064 0.46046 0.35983 0.0
C587 C 0.9588 0.46012 0.33371 0.0
H588 H 0.79366 0.33027 0.32733 0.0
H589 H 0.95823 0.32054 0.31559 0.0
H590 H 0.80837 0.33019 0.37285 0.0
H591 H 0.97247 0.31979 0.36083 0.0
H592 H 0.99764 0.33228 0.44181 0.0
H593 H 0.98332 0.33161 0.39625 0.0
H594 H 0.82284 0.31879 0.40852 0.0
H595 H 0.83645 0.32012 0.4537 0.0
C596 C 0.83267 0.32791 0.33454 0.0
C597 C 0.87481 0.32551 0.31796 0.0
C598 C 0.84123 0.32781 0.36064 0.0
C599 C 0.89188 0.32506 0.37072 0.0
C600 C 0.93338 0.32226 0.35394 0.0
C601 C 0.92507 0.32259 0.32795 0.0
C602 C 0.95952 0.32928 0.43464 0.0
C603 C 0.91808 0.32637 0.45125 0.0
C604 C 0.95121 0.32883 0.40852 0.0
C605 C 0.9016 0.32523 0.3985 0.0
C606 C 0.86099 0.32192 0.41534 0.0
C607 C 0.86897 0.32259 0.44132 0.0
H608 H 0.71332 0.08347 0.70409 0.0
H609 H 0.55339 0.0698 0.69538 0.0
H610 H 0.72592 0.08283 0.65879 0.0
H611 H 0.5666 0.06893 0.64973 0.0
H612 H 0.58672 0.08382 0.56988 0.0
H613 H 0.57527 0.08277 0.61515 0.0
H614 H 0.73621 0.06964 0.623 0.0
H615 H 0.74825 0.0709 0.57726 0.0
C616 C 0.68082 0.08025 0.69253 0.0
C617 C 0.63208 0.07676 0.70343 0.0
C618 C 0.68835 0.07979 0.66649 0.0
C619 C 0.64739 0.07582 0.65058 0.0
C620 C 0.5988 0.07217 0.66145 0.0
C621 C 0.59122 0.07263 0.68761 0.0
C622 C 0.61988 0.0807 0.58115 0.0
C623 C 0.66861 0.07749 0.56986 0.0
C624 C 0.61301 0.07999 0.60718 0.0
C625 C 0.65461 0.07605 0.62274 0.0
C626 C 0.70345 0.0728 0.61154 0.0
C627 C 0.71037 0.07351 0.58534 0.0
H628 H 0.74188 0.20792 0.69209 0.0
H629 H 0.5734 0.21383 0.70313 0.0
H630 H 0.72863 0.20848 0.64651 0.0
H631 H 0.56033 0.21504 0.65787 0.0
H632 H 0.54483 0.20366 0.57529 0.0
H633 H 0.55621 0.20385 0.62109 0.0
H634 H 0.7105 0.22044 0.61202 0.0
H635 H 0.70006 0.21959 0.56658 0.0
C636 C 0.7022 0.20951 0.68475 0.0
C637 C 0.65872 0.21074 0.70115 0.0
C638 C 0.69446 0.2099 0.6586 0.0
C639 C 0.64321 0.21178 0.64831 0.0
C640 C 0.6001 0.2133 0.66491 0.0
C641 C 0.6077 0.21269 0.69094 0.0
C642 C 0.58083 0.20742 0.58323 0.0
C643 C 0.6217 0.2115 0.56745 0.0
C644 C 0.58748 0.20757 0.60948 0.0
C645 C 0.63471 0.21204 0.62044 0.0
C646 C 0.67435 0.2166 0.60444 0.0
C647 C 0.66814 0.21623 0.57833 0.0
H648 H 0.44773 0.96957 0.45394 0.0
H649 H 0.28848 0.95635 0.4415 0.0
H650 H 0.46306 0.97026 0.40878 0.0
H651 H 0.30457 0.95634 0.39607 0.0
H652 H 0.33218 0.96577 0.31469 0.0
H653 H 0.31569 0.96735 0.35963 0.0
H654 H 0.4805 0.95831 0.37432 0.0
H655 H 0.49739 0.95743 0.32903 0.0
C656 C 0.41598 0.96676 0.44143 0.0
C657 C 0.36693 0.96287 0.45119 0.0
C658 C 0.42496 0.96704 0.41548 0.0
C659 C 0.38548 0.9632 0.39855 0.0
C660 C 0.33583 0.95953 0.40839 0.0
C661 C 0.32648 0.95948 0.43444 0.0
C662 C 0.36499 0.96418 0.32755 0.0
C663 C 0.41609 0.96143 0.31836 0.0
C664 C 0.35541 0.96499 0.35341 0.0
C665 C 0.39647 0.96285 0.37086 0.0
C666 C 0.4479 0.96022 0.36158 0.0
C667 C 0.45772 0.95964 0.33559 0.0
H668 H 0.33253 0.82193 0.45263 0.0
H669 H 0.4977 0.83075 0.4396 0.0
H670 H 0.3177 0.8203 0.40756 0.0
H671 H 0.48244 0.82982 0.39418 0.0
H672 H 0.45323 0.81852 0.31434 0.0
H673 H 0.46696 0.81784 0.35961 0.0
H674 H 0.30717 0.83127 0.37103 0.0
H675 H 0.29273 0.83123 0.32548 0.0
C676 C 0.36567 0.82362 0.44002 0.0
C677 C 0.41628 0.82652 0.44961 0.0
C678 C 0.35705 0.82277 0.4141 0.0
C679 C 0.39858 0.82504 0.39698 0.0
C680 C 0.44952 0.82782 0.40667 0.0
C681 C 0.4584 0.82843 0.43272 0.0
C682 C 0.42086 0.82122 0.32659 0.0
C683 C 0.37193 0.82497 0.31644 0.0
C684 C 0.42891 0.82094 0.3526 0.0
C685 C 0.38859 0.82466 0.36921 0.0
C686 C 0.33907 0.82819 0.35897 0.0
C687 C 0.33066 0.82822 0.33285 0.0
H688 H 0.59433 0.56722 0.06603 0.0
H689 H 0.75417 0.58052 0.07617 0.0
H690 H 0.58195 0.56653 0.1114 0.0
H691 H 0.74103 0.58055 0.12179 0.0
H692 H 0.71876 0.57132 0.20356 0.0
H693 H 0.73237 0.56959 0.15841 0.0
H694 H 0.56665 0.57855 0.14595 0.0
H695 H 0.55267 0.57956 0.19144 0.0
C696 C 0.62683 0.57005 0.07808 0.0
C697 C 0.67518 0.57397 0.06763 0.0
C698 C 0.61956 0.56976 0.10414 0.0
C699 C 0.66009 0.57363 0.12048 0.0
C700 C 0.70903 0.57733 0.10994 0.0
C701 C 0.71668 0.57737 0.08377 0.0
C702 C 0.68516 0.57286 0.19113 0.0
C703 C 0.63465 0.57563 0.20098 0.0
C704 C 0.69307 0.57195 0.16517 0.0
C705 C 0.65088 0.57403 0.14829 0.0
C706 C 0.60005 0.57669 0.15825 0.0
C707 C 0.59192 0.57735 0.18434 0.0
H708 H 0.74738 0.7075 0.1902 0.0
H709 H 0.58204 0.71607 0.2035 0.0
H710 H 0.73146 0.7081 0.14482 0.0
H711 H 0.56652 0.71739 0.15842 0.0
H712 H 0.54105 0.70577 0.07682 0.0
H713 H 0.55604 0.70612 0.12232 0.0
H714 H 0.71501 0.71984 0.10996 0.0
H715 H 0.70077 0.71877 0.06475 0.0
C716 C 0.7079 0.7097 0.18338 0.0
C717 C 0.66593 0.71163 0.20033 0.0
C718 C 0.69865 0.71012 0.15735 0.0
C719 C 0.64746 0.71275 0.14774 0.0
C720 C 0.60606 0.71504 0.16492 0.0
C721 C 0.61507 0.71437 0.19083 0.0
C722 C 0.57892 0.70893 0.08397 0.0
C723 C 0.61984 0.71214 0.06733 0.0
C724 C 0.58764 0.70919 0.11006 0.0
C725 C 0.6371 0.71291 0.12002 0.0
C726 C 0.67704 0.71659 0.10317 0.0
C727 C 0.6687 0.71609 0.0772 0.0
H728 H 0.46567 0.47495 0.82362 0.0
H729 H 0.38087 0.44181 0.81916 0.0
H730 H 0.44923 0.47554 0.86943 0.0
H731 H 0.36596 0.44226 0.86463 0.0
H732 H 0.42185 0.44235 0.94956 0.0
H733 H 0.4385 0.4427 0.90424 0.0
H734 H 0.35034 0.47529 0.89791 0.0
H735 H 0.33224 0.47482 0.94357 0.0
C736 C 0.44441 0.46773 0.83249 0.0
C737 C 0.42475 0.45831 0.81796 0.0
C738 C 0.43451 0.46813 0.85852 0.0
C739 C 0.40603 0.45898 0.87033 0.0
C740 C 0.38785 0.44943 0.85588 0.0
C741 C 0.39656 0.44917 0.82994 0.0
C742 C 0.40565 0.44956 0.93851 0.0
C743 C 0.37548 0.45853 0.95003 0.0
C744 C 0.41535 0.44976 0.91265 0.0
C745 C 0.39612 0.45907 0.89779 0.0
C746 C 0.36594 0.46809 0.90915 0.0
C747 C 0.35513 0.46775 0.9351 0.0
H748 H 0.46855 0.32162 0.81508 0.0
H749 H 0.30581 0.33324 0.82453 0.0
H750 H 0.47928 0.32039 0.86044 0.0
H751 H 0.31718 0.33267 0.87027 0.0
H752 H 0.33719 0.32128 0.9511 0.0
H753 H 0.32621 0.32075 0.90566 0.0
H754 H 0.4904 0.33171 0.8965 0.0
H755 H 0.50187 0.33156 0.94222 0.0
C756 C 0.43508 0.32401 0.82696 0.0
C757 C 0.38635 0.32758 0.81627 0.0
C758 C 0.44139 0.32339 0.85305 0.0
C759 C 0.39943 0.32654 0.86926 0.0
C760 C 0.3503 0.33 0.85849 0.0
C761 C 0.34368 0.33039 0.83227 0.0
C762 C 0.37107 0.32351 0.93934 0.0
C763 C 0.42041 0.3265 0.95019 0.0
C764 C 0.36463 0.32331 0.91322 0.0
C765 C 0.40712 0.32631 0.89718 0.0
C766 C 0.45684 0.32916 0.90812 0.0
C767 C 0.46354 0.32914 0.93435 0.0
H768 H 0.24544 0.98675 0.2337 0.0
H769 H 0.4093 0.99803 0.24057 0.0
H770 H 0.21559 1.00624 0.24725 0.0
H771 H 0.37989 1.01724 0.25531 0.0
H772 H 0.30937 0.05424 0.26035 0.0
H773 H 0.34086 0.0352 0.24572 0.0
H774 H 0.20878 1.01812 0.28341 0.0
H775 H 0.17572 0.03738 0.29696 0.0
C776 C 0.27509 0.99343 0.23782 0.0
C777 C 0.32974 0.99083 0.23591 0.0
C778 C 0.25803 1.00458 0.24602 0.0
C779 C 0.2952 1.01335 0.25286 0.0
C780 C 0.34986 1.01083 0.25003 0.0
C781 C 0.36685 0.99976 0.2415 0.0
C782 C 0.28747 0.04642 0.26593 0.0
C783 C 0.23995 0.04736 0.27987 0.0
C784 C 0.3056 0.03543 0.25748 0.0
C785 C 0.27717 0.02503 0.26303 0.0
C786 C 0.23107 0.02593 0.27812 0.0
C787 C 0.2125 0.03697 0.28629 0.0
H788 H 0.05543 0.30466 0.25505 0.0
H789 H 0.92006 0.28766 0.22019 0.0
H790 H 0.08752 0.28568 0.26979 0.0
H791 H 0.95375 0.26846 0.23371 0.0
H792 H 0.1559 0.24851 0.27555 0.0
H793 H 0.12609 0.2677 0.2608 0.0
H794 H 0.96201 0.25663 0.26953 0.0
H795 H 0.99229 0.23716 0.28296 0.0
C796 C 0.0333 0.29681 0.24985 0.0
C797 C 0.98513 0.2977 0.2364 0.0
C798 C 0.05176 0.28586 0.25836 0.0
C799 C 1.02306 0.27543 0.25332 0.0
C800 C 0.97629 0.27628 0.23866 0.0
C801 C 0.95734 0.28729 0.23049 0.0
C802 C 0.11343 0.25024 0.27478 0.0
C803 C 0.07648 0.24129 0.28048 0.0
C804 C 0.09619 0.26129 0.26623 0.0
C805 C 0.04144 0.26379 0.26356 0.0
C806 C 1.00448 0.255 0.27059 0.0
C807 C 1.02179 0.24386 0.27873 0.0
H808 H 0.30157 0.23731 0.98109 0.0
H809 H 0.13768 0.24832 0.9895 0.0
H810 H 0.33134 0.25675 0.99506 0.0
H811 H 0.16702 0.26744 1.00473 0.0
H812 H 0.23576 0.3045 0.01113 0.0
H813 H 0.20469 0.28553 0.99585 0.0
H814 H 0.33964 0.26844 0.03121 0.0
H815 H 0.37225 0.28764 0.04533 0.0
C816 C 0.27188 0.24392 0.98566 0.0
C817 C 0.21726 0.24126 0.98402 0.0
C818 C 0.28892 0.25503 0.9941 0.0
C819 C 0.25175 0.26371 1.0015 0.0
C820 C 0.19707 0.26113 0.99899 0.0
C821 C 0.1801 0.2501 0.99019 0.0
C822 C 0.2584 0.29668 0.01605 0.0
C823 C 0.30653 0.29761 0.02951 0.0
C824 C 0.24051 0.28574 1.00722 0.0
C825 C 0.26977 0.27535 0.01195 0.0
C826 C 0.31663 0.27623 0.02654 0.0
C827 C 0.33498 0.28723 0.03504 0.0
H828 H 0.9855 0.04968 0.9826 0.0
H829 H 0.15097 0.03978 0.99058 0.0
H830 H 0.95868 0.02994 0.99607 0.0
H831 H 0.12455 0.02038 1.00532 0.0
H832 H 0.06185 0.98283 0.01122 0.0
H833 H 0.08959 1.00208 0.99603 0.0
H834 H 0.95239 1.01799 0.03193 0.0
H835 H 0.92315 0.99851 0.04594 0.0
C836 C 1.01616 0.04325 0.98696 0.0
C837 C 0.07036 0.04631 0.98536 0.0
C838 C 1.00082 0.03196 0.99511 0.0
C839 C 0.0393 0.02351 1.00224 0.0
C840 C 0.09355 0.02651 0.99977 0.0
C841 C 0.10882 0.0377 0.99127 0.0
C842 C 0.038 0.99046 0.01625 0.0
C843 C 0.99029 0.98911 0.02987 0.0
C844 C 0.05396 1.00156 1.00749 0.0
C845 C 1.02312 1.0117 0.01244 0.0
C846 C 0.97658 1.0104 0.0271 0.0
C847 C 0.96017 0.99924 0.03553 0.0
H848 H 0.63729 0.03953 0.77804 0.0
H849 H 0.80194 0.04984 0.78729 0.0
H850 H 0.66523 0.02022 0.76337 0.0
H851 H 0.83026 0.0302 0.77388 0.0
H852 H 0.86906 0.99893 0.72424 0.0
H853 H 0.83814 1.01833 0.73793 0.0
H854 H 0.70103 1.00202 0.77309 0.0
H855 H 0.73047 0.98284 0.75822 0.0
C856 C 0.67956 0.03756 0.77763 0.0
C857 C 0.71738 0.04625 0.78388 0.0
C858 C 0.69571 0.02642 0.76917 0.0
C859 C 0.75019 0.02358 0.76709 0.0
C860 C 0.78799 0.03212 0.77453 0.0
C861 C 0.77179 0.04334 0.78264 0.0
C862 C 0.83172 0.99955 0.73442 0.0
C863 C 0.80212 0.98934 0.73999 0.0
C864 C 0.81433 1.01066 0.74265 0.0
C865 C 0.76733 1.01182 0.75703 0.0
C866 C 0.737 1.0016 0.76185 0.0
C867 C 0.75393 0.99054 0.75328 0.0
H868 H 0.98758 0.73319 0.76369 0.0
H869 H 0.12592 0.74925 0.79798 0.0
H870 H 0.95771 0.75241 0.74924 0.0
H871 H 0.09459 0.76867 0.78471 0.0
H872 H 0.89499 0.79001 0.74326 0.0
H873 H 0.92208 0.7707 0.75849 0.0
H874 H 0.08759 0.78043 0.74863 0.0
H875 H 0.06012 0.80004 0.73468 0.0
C876 C 1.01084 0.74088 0.76884 0.0
C877 C 0.0592 0.73966 0.782 0.0
C878 C 0.99367 0.75197 0.76049 0.0
C879 C 0.02395 0.76219 0.76542 0.0
C880 C 0.07086 0.76101 0.77986 0.0
C881 C 0.08847 0.74988 0.78788 0.0
C882 C 0.93718 0.78798 0.74394 0.0
C883 C 0.97539 0.79658 0.7377 0.0
C884 C 0.95284 0.77685 0.75274 0.0
C885 C 1.0072 0.77394 0.75516 0.0
C886 C 0.04538 0.7824 0.74775 0.0
C887 C 0.02967 0.79361 0.73933 0.0
H888 H 0.66567 0.74898 0.96845 0.0
H889 H 0.8026 0.73254 1.00323 0.0
H890 H 0.69831 0.76833 0.98146 0.0
H891 H 0.83376 0.7517 0.0174 0.0
H892 H 0.89914 0.78912 0.02286 0.0
H893 H 0.87078 0.76986 1.00784 0.0
H894 H 0.70593 0.78016 0.01747 0.0
H895 H 0.73467 0.7997 0.03124 0.0
C896 C 0.70309 0.74951 0.97859 0.0
C897 C 0.73156 0.7392 0.98469 0.0
C898 C 0.72145 0.7606 0.98646 0.0
C899 C 0.76835 0.76166 1.00096 0.0
C900 C 0.79784 0.75135 1.0061 0.0
C901 C 0.77992 0.7403 0.99791 0.0
C902 C 0.85682 0.78722 0.02217 0.0
C903 C 0.81918 0.79596 0.02831 0.0
C904 C 0.84043 0.77612 0.01349 0.0
C905 C 0.78588 0.77339 0.01107 0.0
C906 C 0.74826 0.78199 0.01836 0.0
C907 C 0.76471 0.79316 0.02667 0.0
H908 H 0.30886 0.55395 0.76599 0.0
H909 H 0.17064 0.5377 0.79996 0.0
H910 H 0.34074 0.53472 0.75271 0.0
H911 H 0.20398 0.51827 0.78788 0.0
H912 H 0.24286 0.48664 0.73901 0.0
H913 H 0.21323 0.50617 0.75243 0.0
H914 H 0.37754 0.51668 0.7631 0.0
H915 H 0.4068 0.49744 0.7484 0.0
C916 C 0.28602 0.54622 0.77132 0.0
C917 C 0.23713 0.54739 0.78405 0.0
C918 C 0.30437 0.53513 0.76366 0.0
C919 C 0.27477 0.52484 0.76885 0.0
C920 C 0.22726 0.52597 0.78286 0.0
C921 C 0.20847 0.53712 0.79018 0.0
C922 C 0.27258 0.49322 0.74378 0.0
C923 C 0.32717 0.4905 0.74245 0.0
C924 C 0.25562 0.50438 0.75187 0.0
C925 C 0.29283 0.51306 0.75926 0.0
C926 C 0.34751 0.51037 0.75732 0.0
C927 C 0.36441 0.49928 0.74884 0.0
H928 H 0.40912 0.79006 0.52641 0.0
H929 H 0.24447 0.80073 0.53355 0.0
H930 H 0.38114 0.77084 0.51119 0.0
H931 H 0.21604 0.78119 0.51959 0.0
H932 H 0.17817 0.75018 0.46932 0.0
H933 H 0.20985 0.76948 0.48326 0.0
H934 H 0.34374 0.75271 0.52021 0.0
H935 H 0.31367 0.73364 0.50513 0.0
C936 C 0.36681 0.78818 0.52545 0.0
C937 C 0.32904 0.79695 0.53124 0.0
C938 C 0.35064 0.77711 0.51665 0.0
C939 C 0.29617 0.77441 0.51377 0.0
C940 C 0.25835 0.78301 0.52084 0.0
C941 C 0.27459 0.79417 0.52928 0.0
C942 C 0.21506 0.75068 0.4799 0.0
C943 C 0.24345 0.74036 0.48599 0.0
C944 C 0.23284 0.76173 0.4883 0.0
C945 C 0.27902 0.76273 0.50332 0.0
C946 C 0.30838 0.75241 0.50851 0.0
C947 C 0.29108 0.74141 0.4998 0.0
H948 H 0.92657 0.4999 0.54792 0.0
H949 H 0.06126 0.48334 0.51155 0.0
H950 H 0.95815 0.5192 0.53392 0.0
H951 H 0.0912 0.50241 0.49639 0.0
H952 H 0.15642 0.5398 0.48985 0.0
H953 H 0.12883 0.52055 0.50511 0.0
H954 H 0.96353 0.5309 0.49762 0.0
H955 H 0.99159 0.55046 0.48363 0.0
C956 C 0.96327 0.50039 0.53721 0.0
C957 C 0.99145 0.49007 0.53098 0.0
C958 C 0.98098 0.51145 0.52877 0.0
C959 C 0.02687 0.51244 0.51356 0.0
C960 C 0.05608 0.50212 0.50823 0.0
C961 C 0.03885 0.49111 0.51699 0.0
C962 C 0.11414 0.53791 0.491 0.0
C963 C 0.07621 0.54668 0.48548 0.0
C964 C 0.0982 0.52682 0.49984 0.0
C965 C 0.0438 0.52411 0.50301 0.0
C966 C 1.0058 0.53272 0.49616 0.0
C967 C 1.02183 0.54389 0.4877 0.0
H968 H 0.64336 0.53954 0.27691 0.0
H969 H 0.80805 0.55005 0.28477 0.0
H970 H 0.67124 0.52033 0.26161 0.0
H971 H 0.83638 0.53051 0.27077 0.0
H972 H 0.87487 0.49953 0.22052 0.0
H973 H 0.84345 0.51882 0.23463 0.0
H974 H 0.7078 0.50212 0.27022 0.0
H975 H 0.73767 0.48306 0.25491 0.0
C976 C 0.68566 0.53762 0.2761 0.0
C977 C 0.72347 0.54635 0.28212 0.0
C978 C 0.70178 0.52655 0.26725 0.0
C979 C 0.75625 0.52379 0.26456 0.0
C980 C 0.79408 0.53235 0.27185 0.0
C981 C 0.77789 0.54352 0.28032 0.0
C982 C 0.83767 0.50005 0.23084 0.0
C983 C 0.80868 0.48975 0.23643 0.0
C984 C 0.82002 0.5111 0.23934 0.0
C985 C 0.77338 0.51212 0.25403 0.0
C986 C 0.7435 0.50182 0.25878 0.0
C987 C 0.76067 0.49082 0.24992 0.0
H988 H 0.74225 0.30006 0.5347 0.0
H989 H 0.90716 0.28941 0.52894 0.0
H990 H 0.71434 0.28047 0.52087 0.0
H991 H 0.8797 0.2701 0.51388 0.0
H992 H 0.81196 0.23287 0.50784 0.0
H993 H 0.84177 0.25198 0.52286 0.0
H994 H 0.70951 0.26871 0.48456 0.0
H995 H 0.67807 0.24939 0.47064 0.0
C996 C 0.77254 0.29349 0.53077 0.0
C997 C 0.8269 0.29629 0.53306 0.0
C998 C 0.7566 0.28229 0.5224 0.0
C999 C 0.79465 0.27368 0.51574 0.0
C1000 C 0.84903 0.27639 0.519 0.0
C1001 C 0.86489 0.28751 0.52772 0.0
C1002 C 0.78969 0.24064 0.50221 0.0
C1003 C 0.74255 0.23958 0.48801 0.0
C1004 C 0.80684 0.25166 0.51089 0.0
C1005 C 0.77781 0.26198 0.50529 0.0
C1006 C 0.73219 0.26097 0.4899 0.0
C1007 C 0.71457 0.24989 0.48152 0.0
H1008 H 0.56221 0.29959 0.73341 0.0
H1009 H 0.39615 0.29013 0.74082 0.0
H1010 H 0.58788 0.27989 0.74746 0.0
H1011 H 0.42142 0.27073 0.75617 0.0
H1012 H 0.48385 0.23305 0.76314 0.0
H1013 H 0.45601 0.25227 0.74778 0.0
H1014 H 0.59296 0.26827 0.78374 0.0
H1015 H 0.6223 0.24883 0.79789 0.0
C1016 C 0.53117 0.29326 0.73778 0.0
C1017 C 0.47716 0.29642 0.73585 0.0
C1018 C 0.54584 0.28199 0.74627 0.0
C1019 C 0.50686 0.27368 0.75348 0.0
C1020 C 0.45278 0.27676 0.75062 0.0
C1021 C 0.43817 0.28794 0.74173 0.0
C1022 C 0.50754 0.24069 0.76819 0.0
C1023 C 0.55532 0.23939 0.78178 0.0
C1024 C 0.49156 0.25178 0.75931 0.0
C1025 C 0.52247 0.26192 0.76412 0.0
C1026 C 0.56881 0.26067 0.77895 0.0
C1027 C 0.58526 0.24953 0.78748 0.0
H1028 H 0.65267 0.03929 0.49642 0.0
H1029 H 0.48956 0.05076 0.4873 0.0
H1030 H 0.62194 0.0202 0.51133 0.0
H1031 H 0.45843 0.03138 0.50094 0.0
H1032 H 0.41403 1.00041 0.54987 0.0
H1033 H 0.44881 0.01959 0.53689 0.0
H1034 H 0.58325 1.00227 0.50165 0.0
H1035 H 0.55001 0.98329 0.51581 0.0
C1036 C 0.61014 0.03762 0.49691 0.0
C1037 C 0.57357 0.04656 0.49061 0.0
C1038 C 0.59239 0.02662 0.50553 0.0
C1039 C 0.5375 0.02419 0.50771 0.0
C1040 C 0.50096 0.03298 0.50023 0.0
C1041 C 0.51878 0.04406 0.49199 0.0
C1042 C 0.45167 1.00075 0.53989 0.0
C1043 C 0.47928 0.99031 0.53399 0.0
C1044 C 0.47127 1.01175 0.53204 0.0
C1045 C 0.51854 1.01256 0.51775 0.0
C1046 C 0.5471 1.00211 0.51279 0.0
C1047 C 0.52796 0.99116 0.52097 0.0
H1048 H 0.49314 0.73709 0.28468 0.0
H1049 H 0.6566 0.74841 0.27626 0.0
H1050 H 0.46262 0.75645 0.27057 0.0
H1051 H 0.62653 0.76746 0.2609 0.0
H1052 H 0.55606 0.80437 0.25435 0.0
H1053 H 0.58808 0.78548 0.26964 0.0
H1054 H 0.45399 0.76806 0.23429 0.0
H1055 H 0.4204 0.78718 0.22017 0.0
C1056 C 0.52257 0.74376 0.28009 0.0
C1057 C 0.57729 0.7412 0.28176 0.0
C1058 C 0.50511 0.75482 0.27156 0.0
C1059 C 0.54195 0.76356 0.2641 0.0
C1060 C 0.59673 0.76109 0.26666 0.0
C1061 C 0.61411 0.75011 0.27555 0.0
C1062 C 0.53383 0.7965 0.24942 0.0
C1063 C 0.48562 0.79731 0.23598 0.0
C1064 C 0.55226 0.78559 0.25825 0.0
C1065 C 0.52347 0.77514 0.25356 0.0
C1066 C 0.47661 0.77591 0.23895 0.0
C1067 C 0.45772 0.78687 0.23044 0.0
H1068 H 0.38799 0.49709 0.02082 0.0
H1069 H 0.55136 0.48591 0.03048 0.0
H1070 H 0.41822 0.51623 1.00603 0.0
H1071 H 0.58197 0.50535 0.01692 0.0
H1072 H 0.6257 0.53676 0.9689 0.0
H1073 H 0.59174 0.51741 0.98127 0.0
H1074 H 0.45587 0.53419 0.01648 0.0
H1075 H 0.48836 0.55334 1.00297 0.0
C1076 C 0.43046 0.49882 0.02042 0.0
C1077 C 0.46724 0.48996 0.02692 0.0
C1078 C 0.44793 0.50986 0.01189 0.0
C1079 C 0.50273 0.51242 0.00998 0.0
C1080 C 0.53949 0.50367 0.01746 0.0
C1081 C 0.52197 0.49255 0.02564 0.0
C1082 C 0.58793 0.53627 0.97875 0.0
C1083 C 0.55971 0.54661 0.98483 0.0
C1084 C 0.5688 0.52517 0.98624 0.0
C1085 C 0.52132 0.52415 1.00032 0.0
C1086 C 0.49219 0.53451 1.00548 0.0
C1087 C 0.5109 0.54556 0.99768 0.0
H1088 H 0.07522 0.1741 0.29548 0.0
H1089 H 0.24173 0.17268 0.31569 0.0
H1090 H 0.06862 0.1528 0.30054 0.0
H1091 H 0.2348 0.15146 0.32245 0.0
H1092 H 0.22413 0.11322 0.29364 0.0
H1093 H 0.2309 0.13452 0.29866 0.0
H1094 H 0.06693 0.13572 0.32402 0.0
H1095 H 0.05966 0.1145 0.31734 0.0
C1096 C 0.10998 0.16926 0.30184 0.0
C1097 C 0.15904 0.17503 0.30498 0.0
C1098 C 0.1063 0.157 0.30486 0.0
C1099 C 0.1514 0.15024 0.31162 0.0
C1100 C 0.19954 0.15623 0.3165 0.0
C1101 C 0.20345 0.16843 0.31291 0.0
C1102 C 0.1899 0.11803 0.30071 0.0
C1103 C 0.14129 0.11222 0.30488 0.0
C1104 C 0.1937 0.13029 0.30372 0.0
C1105 C 0.14923 0.13701 0.31151 0.0
C1106 C 0.10164 0.13099 0.3173 0.0
C1107 C 0.09755 0.11878 0.31373 0.0
H1108 H 0.20947 0.17602 0.94601 0.0
H1109 H 0.0469 0.17079 0.97061 0.0
H1110 H 0.21809 0.15477 0.93887 0.0
H1111 H 0.05605 0.14972 0.96451 0.0
H1112 H 0.23606 0.11716 0.97248 0.0
H1113 H 0.22705 0.13819 0.9656 0.0
H1114 H 0.06615 0.13291 0.93856 0.0
H1115 H 0.07461 0.1117 0.94648 0.0
C1116 C 0.1754 0.17038 0.94959 0.0
C1117 C 0.12779 0.17513 0.95922 0.0
C1118 C 0.1804 0.15818 0.94567 0.0
C1119 C 0.13799 0.15044 0.95141 0.0
C1120 C 0.08946 0.15532 0.95959 0.0
C1121 C 0.08439 0.16748 0.96335 0.0
C1122 C 0.19885 0.12042 0.96476 0.0
C1123 C 0.15571 0.11272 0.96044 0.0
C1124 C 0.19388 0.13254 0.96055 0.0
C1125 C 0.1457 0.13735 0.95171 0.0
C1126 C 0.10356 0.12956 0.94585 0.0
C1127 C 0.10846 0.11738 0.95022 0.0
H1128 H 0.81788 0.92328 0.71853 0.0
H1129 H 0.98476 0.9237 0.69884 0.0
H1130 H 0.81534 0.90204 0.71213 0.0
H1131 H 0.98186 0.90254 0.69058 0.0
H1132 H 0.97782 0.86392 0.71792 0.0
H1133 H 0.98129 0.88525 0.71289 0.0
H1134 H 0.81663 0.88523 0.6883 0.0
H1135 H 0.81267 0.86398 0.69522 0.0
C1136 C 0.85361 0.91886 0.71198 0.0
C1137 C 0.90159 0.92511 0.70941 0.0
C1138 C 0.85225 0.90663 0.70815 0.0
C1139 C 0.89864 0.90038 0.70108 0.0
C1140 C 0.94568 0.90688 0.69674 0.0
C1141 C 0.94729 0.91905 0.7012 0.0
C1142 C 0.9428 0.86847 0.71093 0.0
C1143 C 0.8949 0.86233 0.70716 0.0
C1144 C 0.94467 0.88076 0.70793 0.0
C1145 C 0.89893 0.88715 0.70052 0.0
C1146 C 0.85223 0.88077 0.69482 0.0
C1147 C 0.85005 0.86854 0.69846 0.0
H1148 H 0.81223 0.92273 0.07101 0.0
H1149 H 0.97841 0.92269 0.05006 0.0
H1150 H 0.81577 0.90149 0.07815 0.0
H1151 H 0.98154 0.90138 0.05535 0.0
H1152 H 0.98514 0.86309 0.07059 0.0
H1153 H 0.98132 0.88428 0.07827 0.0
H1154 H 0.8158 0.88445 0.05503 0.0
H1155 H 0.81919 0.86316 0.04922 0.0
C1156 C 0.8497 0.91815 0.06814 0.0
C1157 C 0.89501 0.92434 0.05991 0.0
C1158 C 0.85167 0.90593 0.07195 0.0
C1159 C 0.89865 0.89952 0.06691 0.0
C1160 C 0.94469 0.90589 0.05984 0.0
C1161 C 0.943 0.91816 0.05666 0.0
C1162 C 0.94764 0.86766 0.06778 0.0
C1163 C 0.90249 0.8615 0.05925 0.0
C1164 C 0.94552 0.87986 0.07187 0.0
C1165 C 0.89857 0.88628 0.06681 0.0
C1166 C 0.85263 0.87993 0.05951 0.0
C1167 C 0.85446 0.86767 0.05606 0.0
H1168 H 0.21405 0.61129 0.81805 0.0
H1169 H 0.05179 0.6167 0.7931 0.0
H1170 H 0.22338 0.63254 0.82487 0.0
H1171 H 0.06164 0.63779 0.79895 0.0
H1172 H 0.08121 0.67571 0.81827 0.0
H1173 H 0.07214 0.65448 0.82543 0.0
H1174 H 0.2327 0.64915 0.79805 0.0
H1175 H 0.24234 0.67022 0.79185 0.0
C1176 C 0.18021 0.61697 0.81429 0.0
C1177 C 0.13243 0.61228 0.80473 0.0
C1178 C 0.18562 0.62918 0.81804 0.0
C1179 C 0.14347 0.63695 0.8122 0.0
C1180 C 0.09483 0.63214 0.80396 0.0
C1181 C 0.08935 0.61998 0.80037 0.0
C1182 C 0.11485 0.67002 0.81425 0.0
C1183 C 0.16223 0.67468 0.80419 0.0
C1184 C 0.10959 0.65782 0.8182 0.0
C1185 C 0.15147 0.65003 0.81207 0.0
C1186 C 0.19974 0.65482 0.8033 0.0
C1187 C 0.20509 0.66696 0.7995 0.0
H1188 H 0.06236 0.67371 0.44836 0.0
H1189 H 0.22766 0.67429 0.47087 0.0
H1190 H 0.06791 0.6525 0.44111 0.0
H1191 H 0.23274 0.653 0.46537 0.0
H1192 H 0.24014 0.61486 0.44863 0.0
H1193 H 0.23457 0.63608 0.44157 0.0
H1194 H 0.06888 0.6354 0.46443 0.0
H1195 H 0.07406 0.6141 0.46973 0.0
C1196 C 0.10006 0.66927 0.45157 0.0
C1197 C 0.14453 0.67562 0.46028 0.0
C1198 C 0.10317 0.65707 0.44768 0.0
C1199 C 0.15049 0.65086 0.45305 0.0
C1200 C 0.19571 0.65738 0.46063 0.0
C1201 C 0.19288 0.66963 0.46393 0.0
C1202 C 0.20224 0.61925 0.45153 0.0
C1203 C 0.15757 0.61286 0.45982 0.0
C1204 C 0.19912 0.63146 0.44777 0.0
C1205 C 0.15157 0.63763 0.45288 0.0
C1206 C 0.10613 0.63106 0.45994 0.0
C1207 C 0.10899 0.6188 0.4631 0.0
H1208 H 0.79947 0.36692 0.22501 0.0
H1209 H 0.96116 0.36128 0.19952 0.0
H1210 H 0.80966 0.38799 0.21886 0.0
H1211 H 0.97081 0.38251 0.1924 0.0
H1212 H 0.99108 0.42026 0.22487 0.0
H1213 H 0.98093 0.39918 0.21898 0.0
H1214 H 0.82002 0.40459 0.19209 0.0
H1215 H 0.82962 0.42584 0.19893 0.0
C1216 C 0.83697 0.37014 0.21757 0.0
C1217 C 0.8798 0.36238 0.21313 0.0
C1218 C 0.84264 0.38228 0.2138 0.0
C1219 C 0.89122 0.38703 0.20531 0.0
C1220 C 0.93311 0.3792 0.19942 0.0
C1221 C 0.92751 0.36701 0.20334 0.0
C1222 C 0.95364 0.41702 0.21738 0.0
C1223 C 0.91085 0.42477 0.21274 0.0
C1224 C 0.948 0.40486 0.21377 0.0
C1225 C 0.89949 0.4001 0.20524 0.0
C1226 C 0.85765 0.40792 0.19914 0.0
C1227 C 0.86323 0.42012 0.20291 0.0
H1228 H 0.98894 0.36477 0.56931 0.0
H1229 H 0.82312 0.36374 0.5478 0.0
H1230 H 0.98272 0.386 0.57613 0.0
H1231 H 0.81731 0.38506 0.55282 0.0
H1232 H 0.80973 0.42342 0.56832 0.0
H1233 H 0.81558 0.40223 0.57579 0.0
H1234 H 0.98082 0.40286 0.5522 0.0
H1235 H 0.97542 0.42412 0.5465 0.0
C1236 C 0.95096 0.36911 0.56627 0.0
C1237 C 0.90655 0.36264 0.55795 0.0
C1238 C 0.94746 0.38132 0.56989 0.0
C1239 C 0.89982 0.38742 0.56457 0.0
C1240 C 0.85462 0.38077 0.55747 0.0
C1241 C 0.85784 0.3685 0.55447 0.0
C1242 C 0.84757 0.41902 0.5653 0.0
C1243 C 0.89207 0.4254 0.55674 0.0
C1244 C 0.85086 0.40683 0.56932 0.0
C1245 C 0.89841 0.40065 0.56422 0.0
C1246 C 0.94361 0.4072 0.55675 0.0
C1247 C 0.94059 0.41944 0.55333 0.0
H1248 H 0.54809 0.11639 0.79751 0.0
H1249 H 0.70967 0.11131 0.82372 0.0
H1250 H 0.55684 0.13749 0.8034 0.0
H1251 H 0.71787 0.13259 0.83058 0.0
H1252 H 0.73654 0.17003 0.79594 0.0
H1253 H 0.72752 0.14902 0.80318 0.0
H1254 H 0.56616 0.15436 0.82948 0.0
H1255 H 0.57464 0.17553 0.82127 0.0
C1256 C 0.58524 0.11975 0.80508 0.0
C1257 C 0.62854 0.11214 0.80972 0.0
C1258 C 0.59007 0.13191 0.80871 0.0
C1259 C 0.63826 0.13683 0.81724 0.0
C1260 C 0.68047 0.12914 0.82351 0.0
C1261 C 0.6757 0.11692 0.81975 0.0
C1262 C 0.69924 0.16679 0.80357 0.0
C1263 C 0.65598 0.17448 0.80762 0.0
C1264 C 0.69426 0.15469 0.80799 0.0
C1265 C 0.64595 0.14991 0.81674 0.0
C1266 C 0.60367 0.1577 0.82229 0.0
C1267 C 0.60858 0.16985 0.81773 0.0
H1268 H 0.56552 0.17271 0.4481 0.0
H1269 H 0.72835 0.17352 0.47427 0.0
H1270 H 0.57245 0.15152 0.44091 0.0
H1271 H 0.73463 0.15225 0.46888 0.0
H1272 H 0.74463 0.11406 0.4526 0.0
H1273 H 0.73945 0.13528 0.44543 0.0
H1274 H 0.5714 0.13443 0.46403 0.0
H1275 H 0.57637 0.11314 0.46938 0.0
C1276 C 0.60299 0.16833 0.45214 0.0
C1277 C 0.64634 0.17474 0.46183 0.0
C1278 C 0.60687 0.15614 0.44829 0.0
C1279 C 0.65378 0.14998 0.45471 0.0
C1280 C 0.69798 0.15657 0.46331 0.0
C1281 C 0.69445 0.16882 0.46655 0.0
C1282 C 0.70637 0.11842 0.45452 0.0
C1283 C 0.66094 0.11197 0.46162 0.0
C1284 C 0.70343 0.13063 0.45071 0.0
C1285 C 0.65523 0.13675 0.45459 0.0
C1286 C 0.6092 0.13013 0.46047 0.0
C1287 C 0.61194 0.11787 0.46367 0.0
H1288 H 0.33627 0.92584 0.19877 0.0
H1289 H 0.49643 0.91968 0.22585 0.0
H1290 H 0.32564 0.90465 0.19143 0.0
H1291 H 0.48525 0.89866 0.21947 0.0
H1292 H 0.46418 0.86091 0.19924 0.0
H1293 H 0.47519 0.88213 0.19254 0.0
H1294 H 0.31336 0.88793 0.21772 0.0
H1295 H 0.30186 0.86687 0.22345 0.0
C1296 C 0.36939 0.92001 0.20288 0.0
C1297 C 0.41692 0.92448 0.21319 0.0
C1298 C 0.36322 0.90784 0.19883 0.0
C1299 C 0.40437 0.89987 0.2051 0.0
C1300 C 0.45284 0.90446 0.21411 0.0
C1301 C 0.45907 0.91658 0.21801 0.0
C1302 C 0.43069 0.86671 0.20286 0.0
C1303 C 0.38239 0.86217 0.21218 0.0
C1304 C 0.43706 0.87889 0.19919 0.0
C1305 C 0.39537 0.88682 0.20486 0.0
C1306 C 0.34623 0.88217 0.21285 0.0
C1307 C 0.33979 0.87002 0.21638 0.0
H1308 H 0.4561 0.92703 0.56927 0.0
H1309 H 0.29515 0.92067 0.54347 0.0
H1310 H 0.46786 0.90585 0.57616 0.0
H1311 H 0.30744 0.89963 0.54943 0.0
H1312 H 0.33149 0.86182 0.56879 0.0
H1313 H 0.31959 0.88298 0.57606 0.0
H1314 H 0.47978 0.88936 0.54922 0.0
H1315 H 0.4922 0.86837 0.5429 0.0
C1316 C 0.42306 0.92115 0.56533 0.0
C1317 C 0.37495 0.92556 0.55551 0.0
C1318 C 0.42987 0.90899 0.56914 0.0
C1319 C 0.38882 0.90096 0.56309 0.0
C1320 C 0.3398 0.90548 0.5546 0.0
C1321 C 0.33292 0.91761 0.55094 0.0
C1322 C 0.36446 0.86773 0.56494 0.0
C1323 C 0.41252 0.86338 0.55497 0.0
C1324 C 0.35756 0.87988 0.56894 0.0
C1325 C 0.3985 0.88795 0.56297 0.0
C1326 C 0.4475 0.88348 0.55434 0.0
C1327 C 0.45445 0.87138 0.55047 0.0
H1328 H 0.58662 0.6762 0.32001 0.0
H1329 H 0.74806 0.67064 0.29411 0.0
H1330 H 0.57742 0.65497 0.32732 0.0
H1331 H 0.73831 0.64958 0.30042 0.0
H1332 H 0.71892 0.61165 0.31952 0.0
H1333 H 0.72848 0.63287 0.32683 0.0
H1334 H 0.56698 0.63834 0.30079 0.0
H1335 H 0.55692 0.6173 0.29447 0.0
C1336 C 0.62033 0.67049 0.31617 0.0
C1337 C 0.66778 0.67514 0.30616 0.0
C1338 C 0.61499 0.6583 0.32019 0.0
C1339 C 0.65689 0.65048 0.31418 0.0
C1340 C 0.7053 0.65526 0.30556 0.0
C1341 C 0.71071 0.6674 0.30169 0.0
C1342 C 0.68519 0.61737 0.31585 0.0
C1343 C 0.63744 0.61275 0.30609 0.0
C1344 C 0.69072 0.62956 0.31988 0.0
C1345 C 0.64871 0.6374 0.31414 0.0
C1346 C 0.60008 0.63265 0.30573 0.0
C1347 C 0.59449 0.62051 0.30185 0.0
H1348 H 0.70925 0.6753 0.95023 0.0
H1349 H 0.54851 0.66946 0.97682 0.0
H1350 H 0.71976 0.65406 0.9437 0.0
H1351 H 0.55959 0.64837 0.97127 0.0
H1352 H 0.58065 0.61047 0.95137 0.0
H1353 H 0.56968 0.6317 0.9448 0.0
H1354 H 0.73143 0.63745 0.9702 0.0
H1355 H 0.7429 0.61638 0.97578 0.0
C1356 C 0.67601 0.66952 0.95445 0.0
C1357 C 0.62829 0.67411 0.96431 0.0
C1358 C 0.68211 0.65732 0.95087 0.0
C1359 C 0.64073 0.64942 0.9572 0.0
C1360 C 0.59217 0.65411 0.96586 0.0
C1361 C 0.58599 0.66627 0.96927 0.0
C1362 C 0.61411 0.61626 0.95509 0.0
C1363 C 0.66243 0.6117 0.96436 0.0
C1364 C 0.60777 0.62845 0.95149 0.0
C1365 C 0.64949 0.63637 0.95721 0.0
C1366 C 0.69855 0.6317 0.96527 0.0
C1367 C 0.70498 0.61955 0.9687 0.0
H1368 H 0.33033 0.42421 0.71594 0.0
H1369 H 0.49903 0.42392 0.70007 0.0
H1370 H 0.32689 0.40295 0.71011 0.0
H1371 H 0.49543 0.40272 0.69241 0.0
H1372 H 0.48564 0.36428 0.72078 0.0
H1373 H 0.49127 0.38556 0.71523 0.0
H1374 H 0.32935 0.38598 0.68687 0.0
H1375 H 0.32305 0.3648 0.69429 0.0
C1376 C 0.36636 0.41963 0.71031 0.0
C1377 C 0.41499 0.4257 0.70867 0.0
C1378 C 0.3645 0.40738 0.70684 0.0
C1379 C 0.41109 0.40093 0.70105 0.0
C1380 C 0.45898 0.40723 0.69758 0.0
C1381 C 0.46102 0.41943 0.70168 0.0
C1382 C 0.45173 0.36892 0.71288 0.0
C1383 C 0.40381 0.36292 0.70817 0.0
C1384 C 0.45485 0.38117 0.70957 0.0
C1385 C 0.41043 0.38768 0.70092 0.0
C1386 C 0.36389 0.38143 0.69434 0.0
C1387 C 0.36039 0.36924 0.69828 0.0
H1388 H 0.29535 0.42035 0.04285 0.0
H1389 H 0.45363 0.42588 0.07284 0.0
H1390 H 0.30483 0.39926 0.0489 0.0
H1391 H 0.46245 0.40464 0.07986 0.0
H1392 H 0.48767 0.3672 0.0466 0.0
H1393 H 0.47623 0.38821 0.05309 0.0
H1394 H 0.31234 0.38238 0.07507 0.0
H1395 H 0.32337 0.36121 0.06759 0.0
C1396 C 0.33185 0.4171 0.05129 0.0
C1397 C 0.3741 0.42484 0.05697 0.0
C1398 C 0.3371 0.40493 0.05499 0.0
C1399 C 0.38465 0.40015 0.06464 0.0
C1400 C 0.42564 0.40797 0.07189 0.0
C1401 C 0.42048 0.42018 0.06805 0.0
C1402 C 0.44926 0.37033 0.05313 0.0
C1403 C 0.40618 0.36249 0.05619 0.0
C1404 C 0.44284 0.38244 0.05711 0.0
C1405 C 0.39321 0.38709 0.06444 0.0
C1406 C 0.3509 0.37916 0.06898 0.0
C1407 C 0.35728 0.367 0.06486 0.0
H1408 H 0.04275 0.06031 0.35253 0.0
H1409 H 0.90225 0.07316 0.31421 0.0
H1410 H 0.99035 0.05742 0.39093 0.0
H1411 H 0.85016 0.07033 0.35247 0.0
H1412 H 0.75962 0.05891 0.42101 0.0
H1413 H 0.81349 0.05615 0.38313 0.0
H1414 H 0.94936 0.0713 0.4213 0.0
H1415 H 0.8957 0.07399 0.4592 0.0
C1416 C 1.00049 0.06229 0.35212 0.0
C1417 C 0.97678 0.06703 0.3303 0.0
C1418 C 0.97056 0.06071 0.3742 0.0
C1419 C 0.91611 0.06371 0.37488 0.0
C1420 C 0.89184 0.06781 0.35261 0.0
C1421 C 0.92182 0.06949 0.33065 0.0
C1422 C 0.80129 0.06142 0.42152 0.0
C1423 C 0.82319 0.06676 0.44313 0.0
C1424 C 0.83208 0.05991 0.39972 0.0
C1425 C 0.88562 0.06361 0.39905 0.0
C1426 C 0.90839 0.06826 0.42117 0.0
C1427 C 0.87752 0.06985 0.44292 0.0
H1428 H 0.26326 0.22768 0.3473 0.0
H1429 H 0.39925 0.21244 0.30935 0.0
H1430 H 0.31715 0.23052 0.38518 0.0
H1431 H 0.45293 0.21523 0.34722 0.0
H1432 H 0.5465 0.22652 0.41566 0.0
H1433 H 0.4938 0.22934 0.37732 0.0
H1434 H 0.35409 0.21635 0.416 0.0
H1435 H 0.40651 0.21358 0.45421 0.0
C1436 C 0.30492 0.22516 0.34683 0.0
C1437 C 0.3268 0.21975 0.3253 0.0
C1438 C 0.3357 0.22672 0.36863 0.0
C1439 C 0.38924 0.22301 0.36935 0.0
C1440 C 0.41197 0.21828 0.3473 0.0
C1441 C 0.38109 0.21663 0.32558 0.0
C1442 C 0.50428 0.22452 0.41614 0.0
C1443 C 0.48081 0.21976 0.43799 0.0
C1444 C 0.47417 0.22605 0.3941 0.0
C1445 C 0.41979 0.22299 0.3935 0.0
C1446 C 0.39573 0.21889 0.41581 0.0
C1447 C 0.42589 0.21726 0.43774 0.0
H1448 H 0.74658 0.2269 0.85097 0.0
H1449 H 0.88545 0.21404 0.81138 0.0
H1450 H 0.8004 0.22974 0.88889 0.0
H1451 H 0.939 0.21679 0.84926 0.0
H1452 H 0.03187 0.2281 0.91735 0.0
H1453 H 0.9771 0.23078 0.87973 0.0
H1454 H 0.84192 0.21591 0.91892 0.0
H1455 H 0.89646 0.21331 0.95657 0.0
C1456 C 0.78878 0.2249 0.85017 0.0
C1457 C 0.81161 0.22018 0.82814 0.0
C1458 C 0.81955 0.22644 0.87199 0.0
C1459 C 0.87395 0.2234 0.87223 0.0
C1460 C 0.89736 0.21932 0.84974 0.0
C1461 C 0.86655 0.2177 0.828 0.0
C1462 C 0.99017 0.22562 0.91813 0.0
C1463 C 0.96868 0.22041 0.93997 0.0
C1464 C 0.95887 0.22709 0.89648 0.0
C1465 C 0.90522 0.22346 0.89618 0.0
C1466 C 0.88294 0.21889 0.9185 0.0
C1467 C 0.91432 0.21736 0.94011 0.0
H1468 H 0.38696 0.07446 0.95786 0.0
H1469 H 0.25081 0.06015 0.91839 0.0
H1470 H 0.44151 0.07173 0.92025 0.0
H1471 H 0.30555 0.05735 0.88081 0.0
H1472 H 0.39997 0.07348 0.81251 0.0
H1473 H 0.34547 0.07116 0.85025 0.0
H1474 H 0.48188 0.05754 0.8906 0.0
H1475 H 0.53657 0.05993 0.85287 0.0
C1476 C 0.36891 0.0705 0.94134 0.0
C1477 C 0.31439 0.0676 0.94114 0.0
C1478 C 0.40027 0.06889 0.91977 0.0
C1479 C 0.37782 0.06441 0.8974 0.0
C1480 C 0.32392 0.06097 0.8976 0.0
C1481 C 0.29265 0.0625 0.91923 0.0
C1482 C 0.41813 0.06976 0.82926 0.0
C1483 C 0.47276 0.06697 0.82966 0.0
C1484 C 0.3868 0.0684 0.85092 0.0
C1485 C 0.4094 0.06426 0.87356 0.0
C1486 C 0.4634 0.0609 0.87358 0.0
C1487 C 0.49465 0.06219 0.85187 0.0
H1488 H 0.14178 0.9648 0.56201 0.0
H1489 H 0.2808 0.97796 0.60104 0.0
H1490 H 0.0887 0.96752 0.60001 0.0
H1491 H 0.2274 0.98079 0.6391 0.0
H1492 H 0.99629 0.9784 0.66853 0.0
H1493 H 0.05019 0.98134 0.63067 0.0
H1494 H 0.18724 0.96696 0.6693 0.0
H1495 H 0.13364 0.96412 0.70711 0.0
C1496 C 0.1608 0.96852 0.57854 0.0
C1497 C 0.21568 0.97108 0.57848 0.0
C1498 C 0.13024 0.97013 0.60035 0.0
C1499 C 0.15382 0.97429 0.62273 0.0
C1500 C 0.20812 0.97743 0.62229 0.0
C1501 C 0.23865 0.97589 0.6004 0.0
C1502 C 0.03822 0.97611 0.66913 0.0
C1503 C 0.06052 0.97095 0.69084 0.0
C1504 C 0.06902 0.97771 0.64735 0.0
C1505 C 0.12296 0.97428 0.64681 0.0
C1506 C 0.14599 0.9698 0.66904 0.0
C1507 C 0.11514 0.96812 0.69075 0.0
H1508 H 0.79443 0.81045 0.66539 0.0
H1509 H 0.65813 0.82473 0.70477 0.0
H1510 H 0.74023 0.80808 0.62746 0.0
H1511 H 0.60414 0.82239 0.66687 0.0
H1512 H 0.50991 0.81133 0.5986 0.0
H1513 H 0.5639 0.80847 0.63643 0.0
H1514 H 0.70124 0.82242 0.59738 0.0
H1515 H 0.64742 0.82523 0.55954 0.0
C1516 C 0.75265 0.81286 0.66615 0.0
C1517 C 0.73072 0.81784 0.68813 0.0
C1518 C 0.7217 0.81158 0.64432 0.0
C1519 C 0.66795 0.81514 0.64402 0.0
C1520 C 0.64527 0.81947 0.66645 0.0
C1521 C 0.67631 0.82085 0.68821 0.0
C1522 C 0.55188 0.81357 0.5979 0.0
C1523 C 0.57424 0.81858 0.57603 0.0
C1524 C 0.58273 0.81201 0.61967 0.0
C1525 C 0.6368 0.8153 0.62004 0.0
C1526 C 0.65984 0.81969 0.59773 0.0
C1527 C 0.6289 0.82134 0.57602 0.0
H1528 H 0.1497 0.82233 0.205 0.0
H1529 H 0.28991 0.81031 0.16528 0.0
H1530 H 0.09664 0.81961 0.16697 0.0
H1531 H 0.23656 0.80752 0.12716 0.0
H1532 H 0.1391 0.82413 0.05997 0.0
H1533 H 0.19384 0.82142 0.09752 0.0
H1534 H 0.05996 0.8056 0.13602 0.0
H1535 H 1.00498 0.8084 0.09848 0.0
C1536 C 0.16902 0.81886 0.1883 0.0
C1537 C 0.22416 0.8166 0.18819 0.0
C1538 C 0.13849 0.81726 0.16647 0.0
C1539 C 0.16237 0.81342 0.1439 0.0
C1540 C 0.21704 0.81061 0.14413 0.0
C1541 C 0.24753 0.81213 0.16605 0.0
C1542 C 0.12159 0.81985 0.07624 0.0
C1543 C 0.06749 0.81657 0.07623 0.0
C1544 C 0.15309 0.81825 0.09779 0.0
C1545 C 0.13119 0.81339 0.11992 0.0
C1546 C 0.07788 0.80952 0.11943 0.0
C1547 C 0.04647 0.81105 0.09782 0.0
H1548 H 0.79983 0.97642 0.10388 0.0
H1549 H 0.66132 0.96342 0.06421 0.0
H1550 H 0.74605 0.979 0.14191 0.0
H1551 H 0.60782 0.96592 0.10217 0.0
H1552 H 0.51472 0.97706 0.1704 0.0
H1553 H 0.56934 0.97982 0.13277 0.0
H1554 H 0.70487 0.96502 0.17185 0.0
H1555 H 0.65044 0.96235 0.20952 0.0
C1556 C 0.7577 0.97434 0.10309 0.0
C1557 C 0.73497 0.96966 0.08099 0.0
C1558 C 0.72697 0.97573 0.12497 0.0
C1559 C 0.67268 0.97258 0.1252 0.0
C1560 C 0.64936 0.96854 0.10266 0.0
C1561 C 0.68014 0.96706 0.08087 0.0
C1562 C 0.55645 0.97461 0.17116 0.0
C1563 C 0.57806 0.96941 0.19298 0.0
C1564 C 0.58767 0.97612 0.14949 0.0
C1565 C 0.6414 0.97254 0.14916 0.0
C1566 C 0.66378 0.96797 0.17146 0.0
C1567 C 0.63247 0.96639 0.19308 0.0
H1568 H 0.90201 0.57287 0.81063 0.0
H1569 H 0.0402 0.55886 0.84901 0.0
H1570 H 0.8489 0.57002 0.84859 0.0
H1571 H 0.98678 0.55589 0.88699 0.0
H1572 H 0.89567 0.57242 0.9557 0.0
H1573 H 0.94834 0.56969 0.91759 0.0
H1574 H 0.80946 0.5562 0.87898 0.0
H1575 H 0.75645 0.55905 0.91715 0.0
C1576 C 0.92081 0.56893 0.82699 0.0
C1577 C 0.97552 0.56619 0.8268 0.0
C1578 C 0.89024 0.56724 0.84877 0.0
C1579 C 0.91365 0.56282 0.87096 0.0
C1580 C 0.96767 0.55947 0.87034 0.0
C1581 C 0.99821 0.5611 0.84849 0.0
C1582 C 0.87652 0.56865 0.93926 0.0
C1583 C 0.8217 0.56604 0.93947 0.0
C1584 C 0.90685 0.56703 0.91738 0.0
C1585 C 0.88308 0.56281 0.89511 0.0
C1586 C 0.82886 0.55961 0.8957 0.0
C1587 C 0.79856 0.56116 0.91766 0.0
H1588 H 0.39175 0.71394 0.81047 0.0
H1589 H 0.25335 0.72777 0.84891 0.0
H1590 H 0.44457 0.71656 0.8486 0.0
H1591 H 0.30649 0.73052 0.88706 0.0
H1592 H 0.39701 0.71369 0.95564 0.0
H1593 H 0.34462 0.7166 0.91748 0.0
H1594 H 0.48392 0.73017 0.87933 0.0
H1595 H 0.53663 0.72713 0.91753 0.0
C1596 C 0.37284 0.71779 0.82688 0.0
C1597 C 0.31816 0.72055 0.82665 0.0
C1598 C 0.40325 0.71935 0.84876 0.0
C1599 C 0.3797 0.72365 0.87102 0.0
C1600 C 0.3257 0.72702 0.87037 0.0
C1601 C 0.29533 0.72553 0.84842 0.0
C1602 C 0.41631 0.71751 0.93929 0.0
C1603 C 0.47116 0.72009 0.93963 0.0
C1604 C 0.38614 0.71924 0.91739 0.0
C1605 C 0.41011 0.72353 0.89522 0.0
C1606 C 0.46436 0.72669 0.89596 0.0
C1607 C 0.4945 0.72503 0.91794 0.0
H1608 H 0.90795 0.71479 0.45405 0.0
H1609 H 0.04741 0.7277 0.415 0.0
H1610 H 0.85506 0.71748 0.41598 0.0
H1611 H 0.9942 0.73047 0.37682 0.0
H1612 H 0.76304 0.72851 0.34766 0.0
H1613 H 0.81744 0.73146 0.3853 0.0
H1614 H 0.9532 0.71646 0.3468 0.0
H1615 H 0.89901 0.71359 0.30912 0.0
C1616 C 0.92711 0.71845 0.4375 0.0
C1617 C 0.98202 0.72096 0.43757 0.0
C1618 C 0.89667 0.72004 0.41565 0.0
C1619 C 0.92044 0.72411 0.39324 0.0
C1620 C 0.97481 0.72719 0.39367 0.0
C1621 C 1.0052 0.72568 0.41562 0.0
C1622 C 0.80478 0.72607 0.34702 0.0
C1623 C 0.82652 0.72072 0.32539 0.0
C1624 C 0.83588 0.72769 0.36868 0.0
C1625 C 0.88956 0.72409 0.36919 0.0
C1626 C 0.91213 0.71942 0.34704 0.0
C1627 C 0.88095 0.71773 0.32542 0.0
H1628 H 0.54313 0.56069 0.35049 0.0
H1629 H 0.40525 0.57422 0.3111 0.0
H1630 H 0.48943 0.55812 0.38849 0.0
H1631 H 0.35173 0.57171 0.34911 0.0
H1632 H 0.39595 0.57518 0.45618 0.0
H1633 H 0.44957 0.5724 0.41831 0.0
H1634 H 0.31306 0.55768 0.37989 0.0
H1635 H 0.25921 0.56051 0.41778 0.0
C1636 C 0.50114 0.5629 0.34976 0.0
C1637 C 0.47859 0.56774 0.32776 0.0
C1638 C 0.47046 0.56151 0.37162 0.0
C1639 C 0.41639 0.56481 0.37194 0.0
C1640 C 0.39313 0.56899 0.34949 0.0
C1641 C 0.4239 0.57047 0.32769 0.0
C1642 C 0.37759 0.57112 0.43985 0.0
C1643 C 0.32317 0.56814 0.44001 0.0
C1644 C 0.40843 0.56949 0.41812 0.0
C1645 C 0.3855 0.5649 0.39597 0.0
C1646 C 0.33175 0.56137 0.39653 0.0
C1647 C 0.30101 0.56291 0.41834 0.0
H1648 H 0.14061 0.46427 0.20565 0.0
H1649 H 1.00092 0.47718 0.16675 0.0
H1650 H 0.19324 0.46694 0.16749 0.0
H1651 H 0.05386 0.47996 0.12853 0.0
H1652 H 0.1481 0.46379 0.06018 0.0
H1653 H 0.09446 0.46634 0.09811 0.0
H1654 H 0.2311 0.48078 0.13694 0.0
H1655 H 0.28498 0.4781 0.09905 0.0
C1656 C 0.12134 0.46792 0.18911 0.0
C1657 C 0.06643 0.47044 0.18927 0.0
C1658 C 0.15163 0.4695 0.1672 0.0
C1659 C 0.12775 0.47358 0.14482 0.0
C1660 C 0.07337 0.47665 0.14533 0.0
C1661 C 0.04312 0.47514 0.16732 0.0
C1662 C 0.16648 0.46773 0.07662 0.0
C1663 C 0.221 0.47065 0.07657 0.0
C1664 C 0.13562 0.46924 0.0984 0.0
C1665 C 0.15855 0.47366 0.12071 0.0
C1666 C 0.21236 0.47718 0.12022 0.0
C1667 C 0.24316 0.47573 0.09841 0.0
H1668 H 0.78731 0.3097 0.16821 0.0
H1669 H 0.64888 0.32309 0.20732 0.0
H1670 H 0.73373 0.30699 0.13017 0.0
H1671 H 0.5956 0.3205 0.16932 0.0
H1672 H 0.64109 0.3238 0.06213 0.0
H1673 H 0.69427 0.32094 0.10007 0.0
H1674 H 0.55645 0.30683 0.13851 0.0
H1675 H 0.50295 0.3098 0.10051 0.0
C1676 C 0.74524 0.31185 0.16887 0.0
C1677 C 0.72252 0.31669 0.19081 0.0
C1678 C 0.71461 0.31038 0.14698 0.0
C1679 C 0.66043 0.31363 0.14656 0.0
C1680 C 0.63705 0.3178 0.16897 0.0
C1681 C 0.66772 0.31934 0.19078 0.0
C1682 C 0.6223 0.31987 0.07849 0.0
C1683 C 0.56762 0.31711 0.07828 0.0
C1684 C 0.65292 0.31817 0.10027 0.0
C1685 C 0.6296 0.31374 0.12246 0.0
C1686 C 0.57552 0.31041 0.12185 0.0
C1687 C 0.54494 0.31203 0.09999 0.0
H1688 H 0.14702 0.32509 0.56093 0.0
H1689 H 1.01067 0.31119 0.60087 0.0
H1690 H 0.20156 0.32262 0.59865 0.0
H1691 H 0.06537 0.3087 0.63862 0.0
H1692 H 0.16046 0.32602 0.70582 0.0
H1693 H 0.10581 0.32323 0.66824 0.0
H1694 H 0.24118 0.30838 0.62917 0.0
H1695 H 0.29598 0.31119 0.66679 0.0
C1696 C 0.12892 0.32127 0.57758 0.0
C1697 C 0.07437 0.3184 0.57788 0.0
C1698 C 0.16027 0.31981 0.59922 0.0
C1699 C 0.13773 0.31555 0.62175 0.0
C1700 C 0.08379 0.31214 0.62167 0.0
C1701 C 0.05255 0.31349 0.59995 0.0
C1702 C 0.17834 0.32194 0.6894 0.0
C1703 C 0.23271 0.31889 0.68931 0.0
C1704 C 0.14693 0.32029 0.66785 0.0
C1705 C 0.16923 0.31566 0.64561 0.0
C1706 C 0.22295 0.31209 0.6459 0.0
C1707 C 0.25425 0.31363 0.66755 0.0
H1708 H 0.51035 0.47896 0.66846 0.0
H1709 H 0.64675 0.46441 0.70736 0.0
H1710 H 0.56464 0.48175 0.63072 0.0
H1711 H 0.70079 0.46712 0.66961 0.0
H1712 H 0.79485 0.47789 0.60115 0.0
H1713 H 0.74154 0.48093 0.63919 0.0
H1714 H 0.60255 0.46762 0.60039 0.0
H1715 H 0.65555 0.46467 0.56244 0.0
C1716 C 0.55217 0.47658 0.66916 0.0
C1717 C 0.57406 0.47138 0.69092 0.0
C1718 C 0.5832 0.4781 0.64744 0.0
C1719 C 0.63696 0.47455 0.64701 0.0
C1720 C 0.65967 0.47004 0.66929 0.0
C1721 C 0.62857 0.46845 0.69095 0.0
C1722 C 0.75265 0.47586 0.60057 0.0
C1723 C 0.72956 0.47097 0.57876 0.0
C1724 C 0.72219 0.47752 0.62245 0.0
C1725 C 0.66784 0.47443 0.62295 0.0
C1726 C 0.64415 0.4702 0.60066 0.0
C1727 C 0.67465 0.46845 0.57888 0.0
loop_
_geom_bond_atom_site_label_1
_geom_bond_atom_site_label_2
_geom_bond_distance
_geom_bond_site_symmetry_2
_ccdc_geom_bond_type
O0 Cd1 2.223 . S
O0 C8 1.315 . S
Cd1 O0 2.223 . S
Cd1 O4 2.297 1_455 S
Cd1 O5 2.439 . S
Cd1 O11 2.240 . S
Cd2 O3 2.240 . S
Cd2 O10 2.223 . S
Cd2 O12 2.297 . S
Cd2 O13 2.439 . S
O3 Cd2 2.240 . S
O3 C8 1.279 . S
O4 Cd1 2.297 1_655 S
O4 C6 1.247 . S
O5 Cd1 2.439 . S
O5 C6 1.208 1_455 S
C6 O4 1.247 . S
C6 O5 1.208 1_655 S
C7 O12 1.247 . S
C7 O13 1.208 . S
C8 O0 1.315 . S
C8 O3 1.279 . S
C9 O10 1.315 . S
C9 O11 1.279 . S
O10 Cd2 2.223 . S
O10 C9 1.315 . S
O11 Cd1 2.240 . S
O11 C9 1.279 . S
O12 Cd2 2.297 . S
O12 C7 1.247 . S
O13 Cd2 2.439 . S
O13 C7 1.208 . S
O14 Cd15 2.223 . S
O14 C22 1.315 . S
Cd15 O14 2.223 . S
Cd15 O18 2.297 . S
Cd15 O19 2.439 . S
Cd15 O25 2.240 . S
Cd16 O17 2.240 . S
Cd16 O24 2.223 . S
Cd16 O26 2.297 . S
Cd16 O27 2.439 . S
O17 Cd16 2.240 . S
O17 C22 1.279 . S
O18 Cd15 2.297 . S
O18 C20 1.247 . S
O19 Cd15 2.439 . S
O19 C20 1.208 . S
C20 O18 1.247 . S
C20 O19 1.208 . S
C21 O26 1.247 . S
C21 O27 1.208 . S
C22 O14 1.315 . S
C22 O17 1.279 . S
C23 O24 1.315 . S
C23 O25 1.279 . S
O24 Cd16 2.223 . S
O24 C23 1.315 . S
O25 Cd15 2.240 . S
O25 C23 1.279 . S
O26 Cd16 2.297 . S
O26 C21 1.247 . S
O27 Cd16 2.439 . S
O27 C21 1.208 . S
O28 Cd29 2.223 1_554 S
O28 C36 1.315 1_554 S
Cd29 O28 2.223 1_556 S
Cd29 O32 2.297 1_455 S
Cd29 O33 2.439 . S
Cd29 O39 2.240 1_556 S
Cd30 O31 2.240 . S
Cd30 O38 2.223 1_556 S
Cd30 O40 2.297 1_556 S
Cd30 O41 2.439 . S
O31 Cd30 2.240 . S
O31 C36 1.279 . S
O32 Cd29 2.297 1_655 S
O32 C34 1.247 . S
O33 Cd29 2.439 . S
O33 C34 1.208 1_455 S
C34 O32 1.247 . S
C34 O33 1.208 1_655 S
C35 O40 1.247 1_556 S
C35 O41 1.208 . S
C36 O28 1.315 1_556 S
C36 O31 1.279 . S
C37 O38 1.315 . S
C37 O39 1.279 . S
O38 Cd30 2.223 1_554 S
O38 C37 1.315 . S
O39 Cd29 2.240 1_554 S
O39 C37 1.279 . S
O40 Cd30 2.297 1_554 S
O40 C35 1.247 1_554 S
O41 Cd30 2.439 . S
O41 C35 1.208 . S
O42 Cd43 2.223 1_554 S
O42 C50 1.315 1_554 S
Cd43 O42 2.223 1_556 S
Cd43 O46 2.297 . S
Cd43 O47 2.439 . S
Cd43 O53 2.240 1_556 S
Cd44 O45 2.240 . S
Cd44 O52 2.223 1_556 S
Cd44 O54 2.297 1_556 S
Cd44 O55 2.439 . S
O45 Cd44 2.240 . S
O45 C50 1.279 . S
O46 Cd43 2.297 . S
O46 C48 1.247 . S
O47 Cd43 2.439 . S
O47 C48 1.208 . S
C48 O46 1.247 . S
C48 O47 1.208 . S
C49 O54 1.247 1_556 S
C49 O55 1.208 . S
C50 O42 1.315 1_556 S
C50 O45 1.279 . S
C51 O52 1.315 . S
C51 O53 1.279 . S
O52 Cd44 2.223 1_554 S
O52 C51 1.315 . S
O53 Cd43 2.240 1_554 S
O53 C51 1.279 . S
O54 Cd44 2.297 1_554 S
O54 C49 1.247 1_554 S
O55 Cd44 2.439 . S
O55 C49 1.208 . S
O56 Cd57 2.223 . S
O56 C64 1.315 . S
Cd57 O56 2.223 . S
Cd57 O60 2.297 1_655 S
Cd57 O61 2.439 . S
Cd57 O67 2.240 . S
Cd58 O59 2.240 . S
Cd58 O66 2.223 . S
Cd58 O68 2.297 . S
Cd58 O69 2.439 . S
O59 Cd58 2.240 . S
O59 C64 1.279 . S
O60 Cd57 2.297 1_455 S
O60 C62 1.247 . S
O61 Cd57 2.439 . S
O61 C62 1.208 1_655 S
C62 O60 1.247 . S
C62 O61 1.208 1_455 S
C63 O68 1.247 . S
C63 O69 1.208 . S
C64 O56 1.315 . S
C64 O59 1.279 . S
C65 O66 1.315 . S
C65 O67 1.279 . S
O66 Cd58 2.223 . S
O66 C65 1.315 . S
O67 Cd57 2.240 . S
O67 C65 1.279 . S
O68 Cd58 2.297 . S
O68 C63 1.247 . S
O69 Cd58 2.439 . S
O69 C63 1.208 . S
O70 Cd71 2.223 . S
O70 C78 1.315 . S
Cd71 O70 2.223 . S
Cd71 O74 2.297 . S
Cd71 O75 2.439 . S
Cd71 O81 2.240 . S
Cd72 O73 2.240 . S
Cd72 O80 2.223 . S
Cd72 O82 2.297 . S
Cd72 O83 2.439 . S
O73 Cd72 2.240 . S
O73 C78 1.279 . S
O74 Cd71 2.297 . S
O74 C76 1.247 . S
O75 Cd71 2.439 . S
O75 C76 1.208 . S
C76 O74 1.247 . S
C76 O75 1.208 . S
C77 O82 1.247 . S
C77 O83 1.208 . S
C78 O70 1.315 . S
C78 O73 1.279 . S
C79 O80 1.315 . S
C79 O81 1.279 . S
O80 Cd72 2.223 . S
O80 C79 1.315 . S
O81 Cd71 2.240 . S
O81 C79 1.279 . S
O82 Cd72 2.297 . S
O82 C77 1.247 . S
O83 Cd72 2.439 . S
O83 C77 1.208 . S
O84 Cd85 2.223 1_556 S
O84 C92 1.315 1_556 S
Cd85 O84 2.223 1_554 S
Cd85 O88 2.297 1_655 S
Cd85 O89 2.439 . S
Cd85 O95 2.240 1_554 S
Cd86 O87 2.240 . S
Cd86 O94 2.223 1_554 S
Cd86 O96 2.297 1_554 S
Cd86 O97 2.439 . S
O87 Cd86 2.240 . S
O87 C92 1.279 . S
O88 Cd85 2.297 1_455 S
O88 C90 1.247 . S
O89 Cd85 2.439 . S
O89 C90 1.208 1_655 S
C90 O88 1.247 . S
C90 O89 1.208 1_455 S
C91 O96 1.247 1_554 S
C91 O97 1.208 . S
C92 O84 1.315 1_554 S
C92 O87 1.279 . S
C93 O94 1.315 . S
C93 O95 1.279 . S
O94 Cd86 2.223 1_556 S
O94 C93 1.315 . S
O95 Cd85 2.240 1_556 S
O95 C93 1.279 . S
O96 Cd86 2.297 1_556 S
O96 C91 1.247 1_556 S
O97 Cd86 2.439 . S
O97 C91 1.208 . S
O98 Cd99 2.223 1_556 S
O98 C106 1.315 1_556 S
Cd99 O98 2.223 1_554 S
Cd99 O102 2.297 . S
Cd99 O103 2.439 . S
Cd99 O109 2.240 1_554 S
Cd100 O101 2.240 . S
Cd100 O108 2.223 1_554 S
Cd100 O110 2.297 1_554 S
Cd100 O111 2.439 . S
O101 Cd100 2.240 . S
O101 C106 1.279 . S
O102 Cd99 2.297 . S
O102 C104 1.247 . S
O103 Cd99 2.439 . S
O103 C104 1.208 . S
C104 O102 1.247 . S
C104 O103 1.208 . S
C105 O110 1.247 1_554 S
C105 O111 1.208 . S
C106 O98 1.315 1_554 S
C106 O101 1.279 . S
C107 O108 1.315 . S
C107 O109 1.279 . S
O108 Cd100 2.223 1_556 S
O108 C107 1.315 . S
O109 Cd99 2.240 1_556 S
O109 C107 1.279 . S
O110 Cd100 2.297 1_556 S
O110 C105 1.247 1_556 S
O111 Cd100 2.439 . S
O111 C105 1.208 . S
O112 Cd113 2.223 . S
O112 C120 1.315 . S
Cd113 O112 2.223 . S
Cd113 O116 2.297 1_455 S
Cd113 O117 2.439 . S
Cd113 O123 2.240 . S
Cd114 O115 2.240 . S
Cd114 O122 2.223 . S
Cd114 O124 2.297 . S
Cd114 O125 2.439 . S
O115 Cd114 2.240 . S
O115 C120 1.279 . S
O116 Cd113 2.297 1_655 S
O116 C118 1.247 . S
O117 Cd113 2.439 . S
O117 C118 1.208 1_455 S
C118 O116 1.247 . S
C118 O117 1.208 1_655 S
C119 O124 1.247 . S
C119 O125 1.208 . S
C120 O112 1.315 . S
C120 O115 1.279 . S
C121 O122 1.315 . S
C121 O123 1.279 . S
O122 Cd114 2.223 . S
O122 C121 1.315 . S
O123 Cd113 2.240 . S
O123 C121 1.279 . S
O124 Cd114 2.297 . S
O124 C119 1.247 . S
O125 Cd114 2.439 . S
O125 C119 1.208 . S
O126 Cd127 2.223 . S
O126 C134 1.315 . S
Cd127 O126 2.223 . S
Cd127 O130 2.297 . S
Cd127 O131 2.439 . S
Cd127 O137 2.240 . S
Cd128 O129 2.240 . S
Cd128 O136 2.223 . S
Cd128 O138 2.297 . S
Cd128 O139 2.439 . S
O129 Cd128 2.240 . S
O129 C134 1.279 . S
O130 Cd127 2.297 . S
O130 C132 1.247 . S
O131 Cd127 2.439 . S
O131 C132 1.208 . S
C132 O130 1.247 . S
C132 O131 1.208 . S
C133 O138 1.247 . S
C133 O139 1.208 . S
C134 O126 1.315 . S
C134 O129 1.279 . S
C135 O136 1.315 . S
C135 O137 1.279 . S
O136 Cd128 2.223 . S
O136 C135 1.315 . S
O137 Cd127 2.240 . S
O137 C135 1.279 . S
O138 Cd128 2.297 . S
O138 C133 1.247 . S
O139 Cd128 2.439 . S
O139 C133 1.208 . S
O140 Cd141 2.223 . S
O140 C148 1.315 . S
Cd141 O140 2.223 . S
Cd141 O144 2.297 1_455 S
Cd141 O145 2.439 . S
Cd141 O151 2.240 . S
Cd142 O143 2.240 . S
Cd142 O150 2.223 . S
Cd142 O152 2.297 . S
Cd142 O153 2.439 . S
O143 Cd142 2.240 . S
O143 C148 1.279 . S
O144 Cd141 2.297 1_655 S
O144 C146 1.247 . S
O145 Cd141 2.439 . S
O145 C146 1.208 1_455 S
C146 O144 1.247 . S
C146 O145 1.208 1_655 S
C147 O152 1.247 . S
C147 O153 1.208 . S
C148 O140 1.315 . S
C148 O143 1.279 . S
C149 O150 1.315 . S
C149 O151 1.279 . S
O150 Cd142 2.223 . S
O150 C149 1.315 . S
O151 Cd141 2.240 . S
O151 C149 1.279 . S
O152 Cd142 2.297 . S
O152 C147 1.247 . S
O153 Cd142 2.439 . S
O153 C147 1.208 . S
O154 Cd155 2.223 . S
O154 C162 1.315 . S
Cd155 O154 2.223 . S
Cd155 O158 2.297 . S
Cd155 O159 2.439 . S
Cd155 O165 2.240 . S
Cd156 O157 2.240 . S
Cd156 O164 2.223 . S
Cd156 O166 2.297 . S
Cd156 O167 2.439 . S
O157 Cd156 2.240 . S
O157 C162 1.279 . S
O158 Cd155 2.297 . S
O158 C160 1.247 . S
O159 Cd155 2.439 . S
O159 C160 1.208 . S
C160 O158 1.247 . S
C160 O159 1.208 . S
C161 O166 1.247 . S
C161 O167 1.208 . S
C162 O154 1.315 . S
C162 O157 1.279 . S
C163 O164 1.315 . S
C163 O165 1.279 . S
O164 Cd156 2.223 . S
O164 C163 1.315 . S
O165 Cd155 2.240 . S
O165 C163 1.279 . S
O166 Cd156 2.297 . S
O166 C161 1.247 . S
O167 Cd156 2.439 . S
O167 C161 1.208 . S
O168 Cd169 2.223 . S
O168 C176 1.315 . S
Cd169 O168 2.223 . S
Cd169 O172 2.297 1_655 S
Cd169 O173 2.439 . S
Cd169 O179 2.240 . S
Cd170 O171 2.240 . S
Cd170 O178 2.223 . S
Cd170 O180 2.297 . S
Cd170 O181 2.439 . S
O171 Cd170 2.240 . S
O171 C176 1.279 . S
O172 Cd169 2.297 1_455 S
O172 C174 1.247 . S
O173 Cd169 2.439 . S
O173 C174 1.208 1_655 S
C174 O172 1.247 . S
C174 O173 1.208 1_455 S
C175 O180 1.247 . S
C175 O181 1.208 . S
C176 O168 1.315 . S
C176 O171 1.279 . S
C177 O178 1.315 . S
C177 O179 1.279 . S
O178 Cd170 2.223 . S
O178 C177 1.315 . S
O179 Cd169 2.240 . S
O179 C177 1.279 . S
O180 Cd170 2.297 . S
O180 C175 1.247 . S
O181 Cd170 2.439 . S
O181 C175 1.208 . S
O182 Cd183 2.223 . S
O182 C190 1.315 . S
Cd183 O182 2.223 . S
Cd183 O186 2.297 . S
Cd183 O187 2.439 . S
Cd183 O193 2.240 . S
Cd184 O185 2.240 . S
Cd184 O192 2.223 . S
Cd184 O194 2.297 . S
Cd184 O195 2.439 . S
O185 Cd184 2.240 . S
O185 C190 1.279 . S
O186 Cd183 2.297 . S
O186 C188 1.247 . S
O187 Cd183 2.439 . S
O187 C188 1.208 . S
C188 O186 1.247 . S
C188 O187 1.208 . S
C189 O194 1.247 . S
C189 O195 1.208 . S
C190 O182 1.315 . S
C190 O185 1.279 . S
C191 O192 1.315 . S
C191 O193 1.279 . S
O192 Cd184 2.223 . S
O192 C191 1.315 . S
O193 Cd183 2.240 . S
O193 C191 1.279 . S
O194 Cd184 2.297 . S
O194 C189 1.247 . S
O195 Cd184 2.439 . S
O195 C189 1.208 . S
O196 Cd197 2.223 . S
O196 C204 1.315 . S
Cd197 O196 2.223 . S
Cd197 O200 2.297 1_655 S
Cd197 O201 2.439 . S
Cd197 O207 2.240 . S
Cd198 O199 2.240 . S
Cd198 O206 2.223 . S
Cd198 O208 2.297 . S
Cd198 O209 2.439 . S
O199 Cd198 2.240 . S
O199 C204 1.279 . S
O200 Cd197 2.297 1_455 S
O200 C202 1.247 . S
O201 Cd197 2.439 . S
O201 C202 1.208 1_655 S
C202 O200 1.247 . S
C202 O201 1.208 1_455 S
C203 O208 1.247 . S
C203 O209 1.208 . S
C204 O196 1.315 . S
C204 O199 1.279 . S
C205 O206 1.315 . S
C205 O207 1.279 . S
O206 Cd198 2.223 . S
O206 C205 1.315 . S
O207 Cd197 2.240 . S
O207 C205 1.279 . S
O208 Cd198 2.297 . S
O208 C203 1.247 . S
O209 Cd198 2.439 . S
O209 C203 1.208 . S
O210 Cd211 2.223 . S
O210 C218 1.315 . S
Cd211 O210 2.223 . S
Cd211 O214 2.297 . S
Cd211 O215 2.439 . S
Cd211 O221 2.240 . S
Cd212 O213 2.240 . S
Cd212 O220 2.223 . S
Cd212 O222 2.297 . S
Cd212 O223 2.439 . S
O213 Cd212 2.240 . S
O213 C218 1.279 . S
O214 Cd211 2.297 . S
O214 C216 1.247 . S
O215 Cd211 2.439 . S
O215 C216 1.208 . S
C216 O214 1.247 . S
C216 O215 1.208 . S
C217 O222 1.247 . S
C217 O223 1.208 . S
C218 O210 1.315 . S
C218 O213 1.279 . S
C219 O220 1.315 . S
C219 O221 1.279 . S
O220 Cd212 2.223 . S
O220 C219 1.315 . S
O221 Cd211 2.240 . S
O221 C219 1.279 . S
O222 Cd212 2.297 . S
O222 C217 1.247 . S
O223 Cd212 2.439 . S
O223 C217 1.208 . S
O224 Cd225 2.223 . S
O224 C232 1.315 . S
Cd225 O224 2.223 . S
Cd225 O228 2.297 . S
Cd225 O229 2.439 . S
Cd225 O235 2.240 . S
Cd226 O227 2.240 . S
Cd226 O234 2.223 . S
Cd226 O236 2.297 . S
Cd226 O237 2.439 . S
O227 Cd226 2.240 . S
O227 C232 1.279 . S
O228 Cd225 2.297 . S
O228 C230 1.247 . S
O229 Cd225 2.439 . S
O229 C230 1.208 . S
C230 O228 1.247 . S
C230 O229 1.208 . S
C231 O236 1.247 . S
C231 O237 1.208 . S
C232 O224 1.315 . S
C232 O227 1.279 . S
C233 O234 1.315 . S
C233 O235 1.279 . S
O234 Cd226 2.223 . S
O234 C233 1.315 . S
O235 Cd225 2.240 . S
O235 C233 1.279 . S
O236 Cd226 2.297 . S
O236 C231 1.247 . S
O237 Cd226 2.439 . S
O237 C231 1.208 . S
O238 Cd239 2.223 . S
O238 C246 1.315 . S
Cd239 O238 2.223 . S
Cd239 O242 2.297 . S
Cd239 O243 2.439 . S
Cd239 O249 2.240 . S
Cd240 O241 2.240 . S
Cd240 O248 2.223 . S
Cd240 O250 2.297 . S
Cd240 O251 2.439 . S
O241 Cd240 2.240 . S
O241 C246 1.279 . S
O242 Cd239 2.297 . S
O242 C244 1.247 . S
O243 Cd239 2.439 . S
O243 C244 1.208 . S
C244 O242 1.247 . S
C244 O243 1.208 . S
C245 O250 1.247 . S
C245 O251 1.208 . S
C246 O238 1.315 . S
C246 O241 1.279 . S
C247 O248 1.315 . S
C247 O249 1.279 . S
O248 Cd240 2.223 . S
O248 C247 1.315 . S
O249 Cd239 2.240 . S
O249 C247 1.279 . S
O250 Cd240 2.297 . S
O250 C245 1.247 . S
O251 Cd240 2.439 . S
O251 C245 1.208 . S
O252 Cd253 2.223 . S
O252 C260 1.315 . S
Cd253 O252 2.223 . S
Cd253 O256 2.297 . S
Cd253 O257 2.439 . S
Cd253 O263 2.240 . S
Cd254 O255 2.240 . S
Cd254 O262 2.223 . S
Cd254 O264 2.297 . S
Cd254 O265 2.439 . S
O255 Cd254 2.240 . S
O255 C260 1.279 . S
O256 Cd253 2.297 . S
O256 C258 1.247 . S
O257 Cd253 2.439 . S
O257 C258 1.208 . S
C258 O256 1.247 . S
C258 O257 1.208 . S
C259 O264 1.247 . S
C259 O265 1.208 . S
C260 O252 1.315 . S
C260 O255 1.279 . S
C261 O262 1.315 . S
C261 O263 1.279 . S
O262 Cd254 2.223 . S
O262 C261 1.315 . S
O263 Cd253 2.240 . S
O263 C261 1.279 . S
O264 Cd254 2.297 . S
O264 C259 1.247 . S
O265 Cd254 2.439 . S
O265 C259 1.208 . S
O266 Cd267 2.223 . S
O266 C274 1.315 . S
Cd267 O266 2.223 . S
Cd267 O270 2.297 . S
Cd267 O271 2.439 . S
Cd267 O277 2.240 . S
Cd268 O269 2.240 . S
Cd268 O276 2.223 . S
Cd268 O278 2.297 . S
Cd268 O279 2.439 . S
O269 Cd268 2.240 . S
O269 C274 1.279 . S
O270 Cd267 2.297 . S
O270 C272 1.247 . S
O271 Cd267 2.439 . S
O271 C272 1.208 . S
C272 O270 1.247 . S
C272 O271 1.208 . S
C273 O278 1.247 . S
C273 O279 1.208 . S
C274 O266 1.315 . S
C274 O269 1.279 . S
C275 O276 1.315 . S
C275 O277 1.279 . S
O276 Cd268 2.223 . S
O276 C275 1.315 . S
O277 Cd267 2.240 . S
O277 C275 1.279 . S
O278 Cd268 2.297 . S
O278 C273 1.247 . S
O279 Cd268 2.439 . S
O279 C273 1.208 . S
O280 Cd281 2.223 . S
O280 C288 1.315 . S
Cd281 O280 2.223 . S
Cd281 O284 2.297 . S
Cd281 O285 2.439 . S
Cd281 O291 2.240 . S
Cd282 O283 2.240 . S
Cd282 O290 2.223 . S
Cd282 O292 2.297 . S
Cd282 O293 2.439 . S
O283 Cd282 2.240 . S
O283 C288 1.279 . S
O284 Cd281 2.297 . S
O284 C286 1.247 . S
O285 Cd281 2.439 . S
O285 C286 1.208 . S
C286 O284 1.247 . S
C286 O285 1.208 . S
C287 O292 1.247 . S
C287 O293 1.208 . S
C288 O280 1.315 . S
C288 O283 1.279 . S
C289 O290 1.315 . S
C289 O291 1.279 . S
O290 Cd282 2.223 . S
O290 C289 1.315 . S
O291 Cd281 2.240 . S
O291 C289 1.279 . S
O292 Cd282 2.297 . S
O292 C287 1.247 . S
O293 Cd282 2.439 . S
O293 C287 1.208 . S
O294 Cd295 2.223 . S
O294 C302 1.315 . S
Cd295 O294 2.223 . S
Cd295 O298 2.297 . S
Cd295 O299 2.439 . S
Cd295 O305 2.240 . S
Cd296 O297 2.240 . S
Cd296 O304 2.223 . S
Cd296 O306 2.297 . S
Cd296 O307 2.439 . S
O297 Cd296 2.240 . S
O297 C302 1.279 . S
O298 Cd295 2.297 . S
O298 C300 1.247 . S
O299 Cd295 2.439 . S
O299 C300 1.208 . S
C300 O298 1.247 . S
C300 O299 1.208 . S
C301 O306 1.247 . S
C301 O307 1.208 . S
C302 O294 1.315 . S
C302 O297 1.279 . S
C303 O304 1.315 . S
C303 O305 1.279 . S
O304 Cd296 2.223 . S
O304 C303 1.315 . S
O305 Cd295 2.240 . S
O305 C303 1.279 . S
O306 Cd296 2.297 . S
O306 C301 1.247 . S
O307 Cd296 2.439 . S
O307 C301 1.208 . S
O308 Cd309 2.223 . S
O308 C316 1.315 . S
Cd309 O308 2.223 . S
Cd309 O312 2.297 . S
Cd309 O313 2.439 . S
Cd309 O319 2.240 . S
Cd310 O311 2.240 . S
Cd310 O318 2.223 . S
Cd310 O320 2.297 . S
Cd310 O321 2.439 . S
O311 Cd310 2.240 . S
O311 C316 1.279 . S
O312 Cd309 2.297 . S
O312 C314 1.247 . S
O313 Cd309 2.439 . S
O313 C314 1.208 . S
C314 O312 1.247 . S
C314 O313 1.208 . S
C315 O320 1.247 . S
C315 O321 1.208 . S
C316 O308 1.315 . S
C316 O311 1.279 . S
C317 O318 1.315 . S
C317 O319 1.279 . S
O318 Cd310 2.223 . S
O318 C317 1.315 . S
O319 Cd309 2.240 . S
O319 C317 1.279 . S
O320 Cd310 2.297 . S
O320 C315 1.247 . S
O321 Cd310 2.439 . S
O321 C315 1.208 . S
O322 Cd323 2.223 . S
O322 C330 1.315 . S
Cd323 O322 2.223 . S
Cd323 O326 2.297 . S
Cd323 O327 2.439 . S
Cd323 O333 2.240 . S
Cd324 O325 2.240 . S
Cd324 O332 2.223 . S
Cd324 O334 2.297 . S
Cd324 O335 2.439 . S
O325 Cd324 2.240 . S
O325 C330 1.279 . S
O326 Cd323 2.297 . S
O326 C328 1.247 . S
O327 Cd323 2.439 . S
O327 C328 1.208 . S
C328 O326 1.247 . S
C328 O327 1.208 . S
C329 O334 1.247 . S
C329 O335 1.208 . S
C330 O322 1.315 . S
C330 O325 1.279 . S
C331 O332 1.315 . S
C331 O333 1.279 . S
O332 Cd324 2.223 . S
O332 C331 1.315 . S
O333 Cd323 2.240 . S
O333 C331 1.279 . S
O334 Cd324 2.297 . S
O334 C329 1.247 . S
O335 Cd324 2.439 . S
O335 C329 1.208 . S
O336 Cd337 2.223 . S
O336 C344 1.315 . S
Cd337 O336 2.223 . S
Cd337 O340 2.297 . S
Cd337 O341 2.439 . S
Cd337 O347 2.240 . S
Cd338 O339 2.240 . S
Cd338 O346 2.223 . S
Cd338 O348 2.297 . S
Cd338 O349 2.439 . S
O339 Cd338 2.240 . S
O339 C344 1.279 . S
O340 Cd337 2.297 . S
O340 C342 1.247 . S
O341 Cd337 2.439 . S
O341 C342 1.208 . S
C342 O340 1.247 . S
C342 O341 1.208 . S
C343 O348 1.247 . S
C343 O349 1.208 . S
C344 O336 1.315 . S
C344 O339 1.279 . S
C345 O346 1.315 . S
C345 O347 1.279 . S
O346 Cd338 2.223 . S
O346 C345 1.315 . S
O347 Cd337 2.240 . S
O347 C345 1.279 . S
O348 Cd338 2.297 . S
O348 C343 1.247 . S
O349 Cd338 2.439 . S
O349 C343 1.208 . S
O350 Cd351 2.223 . S
O350 C358 1.315 . S
Cd351 O350 2.223 . S
Cd351 O354 2.297 . S
Cd351 O355 2.439 . S
Cd351 O361 2.240 . S
Cd352 O353 2.240 . S
Cd352 O360 2.223 . S
Cd352 O362 2.297 . S
Cd352 O363 2.439 . S
O353 Cd352 2.240 . S
O353 C358 1.279 . S
O354 Cd351 2.297 . S
O354 C356 1.247 . S
O355 Cd351 2.439 . S
O355 C356 1.208 . S
C356 O354 1.247 . S
C356 O355 1.208 . S
C357 O362 1.247 . S
C357 O363 1.208 . S
C358 O350 1.315 . S
C358 O353 1.279 . S
C359 O360 1.315 . S
C359 O361 1.279 . S
O360 Cd352 2.223 . S
O360 C359 1.315 . S
O361 Cd351 2.240 . S
O361 C359 1.279 . S
O362 Cd352 2.297 . S
O362 C357 1.247 . S
O363 Cd352 2.439 . S
O363 C357 1.208 . S
O364 Cd365 2.223 1_554 S
O364 C372 1.315 1_554 S
Cd365 O364 2.223 1_556 S
Cd365 O368 2.297 . S
Cd365 O369 2.439 . S
Cd365 O375 2.240 1_556 S
Cd366 O367 2.240 . S
Cd366 O374 2.223 1_556 S
Cd366 O376 2.297 1_556 S
Cd366 O377 2.439 . S
O367 Cd366 2.240 . S
O367 C372 1.279 . S
O368 Cd365 2.297 . S
O368 C370 1.247 . S
O369 Cd365 2.439 . S
O369 C370 1.208 . S
C370 O368 1.247 . S
C370 O369 1.208 . S
C371 O376 1.247 1_556 S
C371 O377 1.208 . S
C372 O364 1.315 1_556 S
C372 O367 1.279 . S
C373 O374 1.315 . S
C373 O375 1.279 . S
O374 Cd366 2.223 1_554 S
O374 C373 1.315 . S
O375 Cd365 2.240 1_554 S
O375 C373 1.279 . S
O376 Cd366 2.297 1_554 S
O376 C371 1.247 1_554 S
O377 Cd366 2.439 . S
O377 C371 1.208 . S
O378 Cd379 2.223 1_554 S
O378 C386 1.315 1_554 S
Cd379 O378 2.223 1_556 S
Cd379 O382 2.297 . S
Cd379 O383 2.439 . S
Cd379 O389 2.240 1_556 S
Cd380 O381 2.240 . S
Cd380 O388 2.223 1_556 S
Cd380 O390 2.297 1_556 S
Cd380 O391 2.439 . S
O381 Cd380 2.240 . S
O381 C386 1.279 . S
O382 Cd379 2.297 . S
O382 C384 1.247 . S
O383 Cd379 2.439 . S
O383 C384 1.208 . S
C384 O382 1.247 . S
C384 O383 1.208 . S
C385 O390 1.247 1_556 S
C385 O391 1.208 . S
C386 O378 1.315 1_556 S
C386 O381 1.279 . S
C387 O388 1.315 . S
C387 O389 1.279 . S
O388 Cd380 2.223 1_554 S
O388 C387 1.315 . S
O389 Cd379 2.240 1_554 S
O389 C387 1.279 . S
O390 Cd380 2.297 1_554 S
O390 C385 1.247 1_554 S
O391 Cd380 2.439 . S
O391 C385 1.208 . S
O392 Cd393 2.223 . S
O392 C400 1.315 . S
Cd393 O392 2.223 . S
Cd393 O396 2.297 . S
Cd393 O397 2.439 . S
Cd393 O403 2.240 . S
Cd394 O395 2.240 . S
Cd394 O402 2.223 . S
Cd394 O404 2.297 . S
Cd394 O405 2.439 . S
O395 Cd394 2.240 . S
O395 C400 1.279 . S
O396 Cd393 2.297 . S
O396 C398 1.247 . S
O397 Cd393 2.439 . S
O397 C398 1.208 . S
C398 O396 1.247 . S
C398 O397 1.208 . S
C399 O404 1.247 . S
C399 O405 1.208 . S
C400 O392 1.315 . S
C400 O395 1.279 . S
C401 O402 1.315 . S
C401 O403 1.279 . S
O402 Cd394 2.223 . S
O402 C401 1.315 . S
O403 Cd393 2.240 . S
O403 C401 1.279 . S
O404 Cd394 2.297 . S
O404 C399 1.247 . S
O405 Cd394 2.439 . S
O405 C399 1.208 . S
O406 Cd407 2.223 . S
O406 C414 1.315 . S
Cd407 O406 2.223 . S
Cd407 O410 2.297 . S
Cd407 O411 2.439 . S
Cd407 O417 2.240 . S
Cd408 O409 2.240 . S
Cd408 O416 2.223 . S
Cd408 O418 2.297 . S
Cd408 O419 2.439 . S
O409 Cd408 2.240 . S
O409 C414 1.279 . S
O410 Cd407 2.297 . S
O410 C412 1.247 . S
O411 Cd407 2.439 . S
O411 C412 1.208 . S
C412 O410 1.247 . S
C412 O411 1.208 . S
C413 O418 1.247 . S
C413 O419 1.208 . S
C414 O406 1.315 . S
C414 O409 1.279 . S
C415 O416 1.315 . S
C415 O417 1.279 . S
O416 Cd408 2.223 . S
O416 C415 1.315 . S
O417 Cd407 2.240 . S
O417 C415 1.279 . S
O418 Cd408 2.297 . S
O418 C413 1.247 . S
O419 Cd408 2.439 . S
O419 C413 1.208 . S
O420 Cd421 2.223 1_556 S
O420 C428 1.315 1_556 S
Cd421 O420 2.223 1_554 S
Cd421 O424 2.297 . S
Cd421 O425 2.439 . S
Cd421 O431 2.240 1_554 S
Cd422 O423 2.240 . S
Cd422 O430 2.223 1_554 S
Cd422 O432 2.297 1_554 S
Cd422 O433 2.439 . S
O423 Cd422 2.240 . S
O423 C428 1.279 . S
O424 Cd421 2.297 . S
O424 C426 1.247 . S
O425 Cd421 2.439 . S
O425 C426 1.208 . S
C426 O424 1.247 . S
C426 O425 1.208 . S
C427 O432 1.247 1_554 S
C427 O433 1.208 . S
C428 O420 1.315 1_554 S
C428 O423 1.279 . S
C429 O430 1.315 . S
C429 O431 1.279 . S
O430 Cd422 2.223 1_556 S
O430 C429 1.315 . S
O431 Cd421 2.240 1_556 S
O431 C429 1.279 . S
O432 Cd422 2.297 1_556 S
O432 C427 1.247 1_556 S
O433 Cd422 2.439 . S
O433 C427 1.208 . S
O434 Cd435 2.223 1_556 S
O434 C442 1.315 1_556 S
Cd435 O434 2.223 1_554 S
Cd435 O438 2.297 . S
Cd435 O439 2.439 . S
Cd435 O445 2.240 1_554 S
Cd436 O437 2.240 . S
Cd436 O444 2.223 1_554 S
Cd436 O446 2.297 1_554 S
Cd436 O447 2.439 . S
O437 Cd436 2.240 . S
O437 C442 1.279 . S
O438 Cd435 2.297 . S
O438 C440 1.247 . S
O439 Cd435 2.439 . S
O439 C440 1.208 . S
C440 O438 1.247 . S
C440 O439 1.208 . S
C441 O446 1.247 1_554 S
C441 O447 1.208 . S
C442 O434 1.315 1_554 S
C442 O437 1.279 . S
C443 O444 1.315 . S
C443 O445 1.279 . S
O444 Cd436 2.223 1_556 S
O444 C443 1.315 . S
O445 Cd435 2.240 1_556 S
O445 C443 1.279 . S
O446 Cd436 2.297 1_556 S
O446 C441 1.247 1_556 S
O447 Cd436 2.439 . S
O447 C441 1.208 . S
H448 C456 0.950 . S
H449 C461 0.950 . S
H450 C458 0.950 . S
H451 C460 0.950 . S
H452 C462 0.950 . S
H453 C464 0.950 . S
H454 C466 0.950 . S
H455 C467 0.950 . S
C456 H448 0.950 . S
C456 C457 1.386 . S
C456 C458 1.391 . S
C457 C456 1.386 . S
C457 C461 1.393 . S
C458 H450 0.950 . S
C458 C456 1.391 . S
C458 C459 1.400 . S
C459 C458 1.400 . S
C459 C460 1.398 . S
C459 C465 1.491 . S
C460 H451 0.950 . S
C460 C459 1.398 . S
C460 C461 1.391 . S
C461 H449 0.950 . S
C461 C457 1.393 . S
C461 C460 1.391 . S
C462 H452 0.950 . S
C462 C463 1.386 . S
C462 C464 1.391 . S
C463 C462 1.386 . S
C463 C467 1.393 . S
C464 H453 0.950 . S
C464 C462 1.391 . S
C464 C465 1.400 . S
C465 C459 1.491 . S
C465 C464 1.400 . S
C465 C466 1.398 . S
C466 H454 0.950 . S
C466 C465 1.398 . S
C466 C467 1.391 . S
C467 H455 0.950 . S
C467 C463 1.393 . S
C467 C466 1.391 . S
H468 C476 0.950 . S
H469 C481 0.950 . S
H470 C478 0.950 . S
H471 C480 0.950 . S
H472 C482 0.950 . S
H473 C484 0.950 . S
H474 C486 0.950 . S
H475 C487 0.950 . S
C476 H468 0.950 . S
C476 C477 1.386 . S
C476 C478 1.391 . S
C477 C476 1.386 . S
C477 C481 1.393 . S
C478 H470 0.950 . S
C478 C476 1.391 . S
C478 C479 1.400 . S
C479 C478 1.400 . S
C479 C480 1.398 . S
C479 C485 1.491 . S
C480 H471 0.950 . S
C480 C479 1.398 . S
C480 C481 1.391 . S
C481 H469 0.950 . S
C481 C477 1.393 . S
C481 C480 1.391 . S
C482 H472 0.950 . S
C482 C483 1.386 . S
C482 C484 1.391 . S
C483 C482 1.386 . S
C483 C487 1.393 . S
C484 H473 0.950 . S
C484 C482 1.391 . S
C484 C485 1.400 . S
C485 C479 1.491 . S
C485 C484 1.400 . S
C485 C486 1.398 . S
C486 H474 0.950 . S
C486 C485 1.398 . S
C486 C487 1.391 . S
C487 H475 0.950 . S
C487 C483 1.393 . S
C487 C486 1.391 . S
H488 C496 0.950 . S
H489 C501 0.950 . S
H490 C498 0.950 . S
H491 C500 0.950 . S
H492 C502 0.950 . S
H493 C504 0.950 . S
H494 C506 0.950 . S
H495 C507 0.950 . S
C496 H488 0.950 . S
C496 C497 1.386 . S
C496 C498 1.391 . S
C497 C496 1.386 . S
C497 C501 1.393 . S
C498 H490 0.950 . S
C498 C496 1.391 . S
C498 C499 1.400 . S
C499 C498 1.400 . S
C499 C500 1.398 . S
C499 C505 1.491 . S
C500 H491 0.950 . S
C500 C499 1.398 . S
C500 C501 1.391 . S
C501 H489 0.950 . S
C501 C497 1.393 . S
C501 C500 1.391 . S
C502 H492 0.950 . S
C502 C503 1.386 . S
C502 C504 1.391 . S
C503 C502 1.386 . S
C503 C507 1.393 . S
C504 H493 0.950 . S
C504 C502 1.391 . S
C504 C505 1.400 . S
C505 C499 1.491 . S
C505 C504 1.400 . S
C505 C506 1.398 . S
C506 H494 0.950 . S
C506 C505 1.398 . S
C506 C507 1.391 . S
C507 H495 0.950 . S
C507 C503 1.393 . S
C507 C506 1.391 . S
H508 C516 0.950 . S
H509 C521 0.950 . S
H510 C518 0.950 . S
H511 C520 0.950 . S
H512 C522 0.950 . S
H513 C524 0.950 . S
H514 C526 0.950 . S
H515 C527 0.950 . S
C516 H508 0.950 . S
C516 C517 1.386 . S
C516 C518 1.391 . S
C517 C516 1.386 . S
C517 C521 1.393 . S
C518 H510 0.950 . S
C518 C516 1.391 . S
C518 C519 1.400 . S
C519 C518 1.400 . S
C519 C520 1.398 . S
C519 C525 1.491 . S
C520 H511 0.950 . S
C520 C519 1.398 . S
C520 C521 1.391 . S
C521 H509 0.950 . S
C521 C517 1.393 . S
C521 C520 1.391 . S
C522 H512 0.950 . S
C522 C523 1.386 . S
C522 C524 1.391 . S
C523 C522 1.386 . S
C523 C527 1.393 . S
C524 H513 0.950 . S
C524 C522 1.391 . S
C524 C525 1.400 . S
C525 C519 1.491 . S
C525 C524 1.400 . S
C525 C526 1.398 . S
C526 H514 0.950 . S
C526 C525 1.398 . S
C526 C527 1.391 . S
C527 H515 0.950 . S
C527 C523 1.393 . S
C527 C526 1.391 . S
H528 C536 0.950 . S
H529 C541 0.950 . S
H530 C538 0.950 . S
H531 C540 0.950 . S
H532 C542 0.950 . S
H533 C544 0.950 . S
H534 C546 0.950 . S
H535 C547 0.950 . S
C536 H528 0.950 . S
C536 C537 1.386 . S
C536 C538 1.391 . S
C537 C536 1.386 . S
C537 C541 1.393 . S
C538 H530 0.950 . S
C538 C536 1.391 . S
C538 C539 1.400 . S
C539 C538 1.400 . S
C539 C540 1.398 . S
C539 C545 1.491 . S
C540 H531 0.950 . S
C540 C539 1.398 . S
C540 C541 1.391 . S
C541 H529 0.950 . S
C541 C537 1.393 . S
C541 C540 1.391 . S
C542 H532 0.950 . S
C542 C543 1.386 . S
C542 C544 1.391 . S
C543 C542 1.386 . S
C543 C547 1.393 . S
C544 H533 0.950 . S
C544 C542 1.391 . S
C544 C545 1.400 . S
C545 C539 1.491 . S
C545 C544 1.400 . S
C545 C546 1.398 . S
C546 H534 0.950 . S
C546 C545 1.398 . S
C546 C547 1.391 . S
C547 H535 0.950 . S
C547 C543 1.393 . S
C547 C546 1.391 . S
H548 C556 0.950 . S
H549 C561 0.950 . S
H550 C558 0.950 . S
H551 C560 0.950 . S
H552 C562 0.950 . S
H553 C564 0.950 . S
H554 C566 0.950 . S
H555 C567 0.950 . S
C556 H548 0.950 . S
C556 C557 1.386 . S
C556 C558 1.391 . S
C557 C556 1.386 . S
C557 C561 1.393 . S
C558 H550 0.950 . S
C558 C556 1.391 . S
C558 C559 1.400 . S
C559 C558 1.400 . S
C559 C560 1.398 . S
C559 C565 1.491 . S
C560 H551 0.950 . S
C560 C559 1.398 . S
C560 C561 1.391 . S
C561 H549 0.950 . S
C561 C557 1.393 . S
C561 C560 1.391 . S
C562 H552 0.950 . S
C562 C563 1.386 . S
C562 C564 1.391 . S
C563 C562 1.386 . S
C563 C567 1.393 . S
C564 H553 0.950 . S
C564 C562 1.391 . S
C564 C565 1.400 . S
C565 C559 1.491 . S
C565 C564 1.400 . S
C565 C566 1.398 . S
C566 H554 0.950 . S
C566 C565 1.398 . S
C566 C567 1.391 . S
C567 H555 0.950 . S
C567 C563 1.393 . S
C567 C566 1.391 . S
H568 C576 0.950 . S
H569 C581 0.950 . S
H570 C578 0.950 . S
H571 C580 0.950 . S
H572 C582 0.950 . S
H573 C584 0.950 . S
H574 C586 0.950 . S
H575 C587 0.950 . S
C576 H568 0.950 . S
C576 C577 1.386 . S
C576 C578 1.391 . S
C577 C576 1.386 . S
C577 C581 1.393 . S
C578 H570 0.950 . S
C578 C576 1.391 . S
C578 C579 1.400 . S
C579 C578 1.400 . S
C579 C580 1.398 . S
C579 C585 1.491 . S
C580 H571 0.950 . S
C580 C579 1.398 . S
C580 C581 1.391 . S
C581 H569 0.950 . S
C581 C577 1.393 . S
C581 C580 1.391 . S
C582 H572 0.950 . S
C582 C583 1.386 . S
C582 C584 1.391 . S
C583 C582 1.386 . S
C583 C587 1.393 . S
C584 H573 0.950 . S
C584 C582 1.391 . S
C584 C585 1.400 . S
C585 C579 1.491 . S
C585 C584 1.400 . S
C585 C586 1.398 . S
C586 H574 0.950 . S
C586 C585 1.398 . S
C586 C587 1.391 . S
C587 H575 0.950 . S
C587 C583 1.393 . S
C587 C586 1.391 . S
H588 C596 0.950 . S
H589 C601 0.950 . S
H590 C598 0.950 . S
H591 C600 0.950 . S
H592 C602 0.950 . S
H593 C604 0.950 . S
H594 C606 0.950 . S
H595 C607 0.950 . S
C596 H588 0.950 . S
C596 C597 1.386 . S
C596 C598 1.391 . S
C597 C596 1.386 . S
C597 C601 1.393 . S
C598 H590 0.950 . S
C598 C596 1.391 . S
C598 C599 1.400 . S
C599 C598 1.400 . S
C599 C600 1.398 . S
C599 C605 1.491 . S
C600 H591 0.950 . S
C600 C599 1.398 . S
C600 C601 1.391 . S
C601 H589 0.950 . S
C601 C597 1.393 . S
C601 C600 1.391 . S
C602 H592 0.950 . S
C602 C603 1.386 . S
C602 C604 1.391 . S
C603 C602 1.386 . S
C603 C607 1.393 . S
C604 H593 0.950 . S
C604 C602 1.391 . S
C604 C605 1.400 . S
C605 C599 1.491 . S
C605 C604 1.400 . S
C605 C606 1.398 . S
C606 H594 0.950 . S
C606 C605 1.398 . S
C606 C607 1.391 . S
C607 H595 0.950 . S
C607 C603 1.393 . S
C607 C606 1.391 . S
H608 C616 0.950 . S
H609 C621 0.950 . S
H610 C618 0.950 . S
H611 C620 0.950 . S
H612 C622 0.950 . S
H613 C624 0.950 . S
H614 C626 0.950 . S
H615 C627 0.950 . S
C616 H608 0.950 . S
C616 C617 1.386 . S
C616 C618 1.391 . S
C617 C616 1.386 . S
C617 C621 1.393 . S
C618 H610 0.950 . S
C618 C616 1.391 . S
C618 C619 1.400 . S
C619 C618 1.400 . S
C619 C620 1.398 . S
C619 C625 1.491 . S
C620 H611 0.950 . S
C620 C619 1.398 . S
C620 C621 1.391 . S
C621 H609 0.950 . S
C621 C617 1.393 . S
C621 C620 1.391 . S
C622 H612 0.950 . S
C622 C623 1.386 . S
C622 C624 1.391 . S
C623 C622 1.386 . S
C623 C627 1.393 . S
C624 H613 0.950 . S
C624 C622 1.391 . S
C624 C625 1.400 . S
C625 C619 1.491 . S
C625 C624 1.400 . S
C625 C626 1.398 . S
C626 H614 0.950 . S
C626 C625 1.398 . S
C626 C627 1.391 . S
C627 H615 0.950 . S
C627 C623 1.393 . S
C627 C626 1.391 . S
H628 C636 0.950 . S
H629 C641 0.950 . S
H630 C638 0.950 . S
H631 C640 0.950 . S
H632 C642 0.950 . S
H633 C644 0.950 . S
H634 C646 0.950 . S
H635 C647 0.950 . S
C636 H628 0.950 . S
C636 C637 1.386 . S
C636 C638 1.391 . S
C637 C636 1.386 . S
C637 C641 1.393 . S
C638 H630 0.950 . S
C638 C636 1.391 . S
C638 C639 1.400 . S
C639 C638 1.400 . S
C639 C640 1.398 . S
C639 C645 1.491 . S
C640 H631 0.950 . S
C640 C639 1.398 . S
C640 C641 1.391 . S
C641 H629 0.950 . S
C641 C637 1.393 . S
C641 C640 1.391 . S
C642 H632 0.950 . S
C642 C643 1.386 . S
C642 C644 1.391 . S
C643 C642 1.386 . S
C643 C647 1.393 . S
C644 H633 0.950 . S
C644 C642 1.391 . S
C644 C645 1.400 . S
C645 C639 1.491 . S
C645 C644 1.400 . S
C645 C646 1.398 . S
C646 H634 0.950 . S
C646 C645 1.398 . S
C646 C647 1.391 . S
C647 H635 0.950 . S
C647 C643 1.393 . S
C647 C646 1.391 . S
H648 C656 0.950 . S
H649 C661 0.950 . S
H650 C658 0.950 . S
H651 C660 0.950 . S
H652 C662 0.950 . S
H653 C664 0.950 . S
H654 C666 0.950 . S
H655 C667 0.950 . S
C656 H648 0.950 . S
C656 C657 1.386 . S
C656 C658 1.391 . S
C657 C656 1.386 . S
C657 C661 1.393 . S
C658 H650 0.950 . S
C658 C656 1.391 . S
C658 C659 1.400 . S
C659 C658 1.400 . S
C659 C660 1.398 . S
C659 C665 1.491 . S
C660 H651 0.950 . S
C660 C659 1.398 . S
C660 C661 1.391 . S
C661 H649 0.950 . S
C661 C657 1.393 . S
C661 C660 1.391 . S
C662 H652 0.950 . S
C662 C663 1.386 . S
C662 C664 1.391 . S
C663 C662 1.386 . S
C663 C667 1.393 . S
C664 H653 0.950 . S
C664 C662 1.391 . S
C664 C665 1.400 . S
C665 C659 1.491 . S
C665 C664 1.400 . S
C665 C666 1.398 . S
C666 H654 0.950 . S
C666 C665 1.398 . S
C666 C667 1.391 . S
C667 H655 0.950 . S
C667 C663 1.393 . S
C667 C666 1.391 . S
H668 C676 0.950 . S
H669 C681 0.950 . S
H670 C678 0.950 . S
H671 C680 0.950 . S
H672 C682 0.950 . S
H673 C684 0.950 . S
H674 C686 0.950 . S
H675 C687 0.950 . S
C676 H668 0.950 . S
C676 C677 1.386 . S
C676 C678 1.391 . S
C677 C676 1.386 . S
C677 C681 1.393 . S
C678 H670 0.950 . S
C678 C676 1.391 . S
C678 C679 1.400 . S
C679 C678 1.400 . S
C679 C680 1.398 . S
C679 C685 1.491 . S
C680 H671 0.950 . S
C680 C679 1.398 . S
C680 C681 1.391 . S
C681 H669 0.950 . S
C681 C677 1.393 . S
C681 C680 1.391 . S
C682 H672 0.950 . S
C682 C683 1.386 . S
C682 C684 1.391 . S
C683 C682 1.386 . S
C683 C687 1.393 . S
C684 H673 0.950 . S
C684 C682 1.391 . S
C684 C685 1.400 . S
C685 C679 1.491 . S
C685 C684 1.400 . S
C685 C686 1.398 . S
C686 H674 0.950 . S
C686 C685 1.398 . S
C686 C687 1.391 . S
C687 H675 0.950 . S
C687 C683 1.393 . S
C687 C686 1.391 . S
H688 C696 0.950 . S
H689 C701 0.950 . S
H690 C698 0.950 . S
H691 C700 0.950 . S
H692 C702 0.950 . S
H693 C704 0.950 . S
H694 C706 0.950 . S
H695 C707 0.950 . S
C696 H688 0.950 . S
C696 C697 1.386 . S
C696 C698 1.391 . S
C697 C696 1.386 . S
C697 C701 1.393 . S
C698 H690 0.950 . S
C698 C696 1.391 . S
C698 C699 1.400 . S
C699 C698 1.400 . S
C699 C700 1.398 . S
C699 C705 1.491 . S
C700 H691 0.950 . S
C700 C699 1.398 . S
C700 C701 1.391 . S
C701 H689 0.950 . S
C701 C697 1.393 . S
C701 C700 1.391 . S
C702 H692 0.950 . S
C702 C703 1.386 . S
C702 C704 1.391 . S
C703 C702 1.386 . S
C703 C707 1.393 . S
C704 H693 0.950 . S
C704 C702 1.391 . S
C704 C705 1.400 . S
C705 C699 1.491 . S
C705 C704 1.400 . S
C705 C706 1.398 . S
C706 H694 0.950 . S
C706 C705 1.398 . S
C706 C707 1.391 . S
C707 H695 0.950 . S
C707 C703 1.393 . S
C707 C706 1.391 . S
H708 C716 0.950 . S
H709 C721 0.950 . S
H710 C718 0.950 . S
H711 C720 0.950 . S
H712 C722 0.950 . S
H713 C724 0.950 . S
H714 C726 0.950 . S
H715 C727 0.950 . S
C716 H708 0.950 . S
C716 C717 1.386 . S
C716 C718 1.391 . S
C717 C716 1.386 . S
C717 C721 1.393 . S
C718 H710 0.950 . S
C718 C716 1.391 . S
C718 C719 1.400 . S
C719 C718 1.400 . S
C719 C720 1.398 . S
C719 C725 1.491 . S
C720 H711 0.950 . S
C720 C719 1.398 . S
C720 C721 1.391 . S
C721 H709 0.950 . S
C721 C717 1.393 . S
C721 C720 1.391 . S
C722 H712 0.950 . S
C722 C723 1.386 . S
C722 C724 1.391 . S
C723 C722 1.386 . S
C723 C727 1.393 . S
C724 H713 0.950 . S
C724 C722 1.391 . S
C724 C725 1.400 . S
C725 C719 1.491 . S
C725 C724 1.400 . S
C725 C726 1.398 . S
C726 H714 0.950 . S
C726 C725 1.398 . S
C726 C727 1.391 . S
C727 H715 0.950 . S
C727 C723 1.393 . S
C727 C726 1.391 . S
H728 C736 0.950 . S
H729 C741 0.950 . S
H730 C738 0.950 . S
H731 C740 0.950 . S
H732 C742 0.950 . S
H733 C744 0.950 . S
H734 C746 0.950 . S
H735 C747 0.950 . S
C736 H728 0.950 . S
C736 C737 1.386 . S
C736 C738 1.391 . S
C737 C736 1.386 . S
C737 C741 1.393 . S
C738 H730 0.950 . S
C738 C736 1.391 . S
C738 C739 1.400 . S
C739 C738 1.400 . S
C739 C740 1.398 . S
C739 C745 1.491 . S
C740 H731 0.950 . S
C740 C739 1.398 . S
C740 C741 1.391 . S
C741 H729 0.950 . S
C741 C737 1.393 . S
C741 C740 1.391 . S
C742 H732 0.950 . S
C742 C743 1.386 . S
C742 C744 1.391 . S
C743 C742 1.386 . S
C743 C747 1.393 . S
C744 H733 0.950 . S
C744 C742 1.391 . S
C744 C745 1.400 . S
C745 C739 1.491 . S
C745 C744 1.400 . S
C745 C746 1.398 . S
C746 H734 0.950 . S
C746 C745 1.398 . S
C746 C747 1.391 . S
C747 H735 0.950 . S
C747 C743 1.393 . S
C747 C746 1.391 . S
H748 C756 0.950 . S
H749 C761 0.950 . S
H750 C758 0.950 . S
H751 C760 0.950 . S
H752 C762 0.950 . S
H753 C764 0.950 . S
H754 C766 0.950 . S
H755 C767 0.950 . S
C756 H748 0.950 . S
C756 C757 1.386 . S
C756 C758 1.391 . S
C757 C756 1.386 . S
C757 C761 1.393 . S
C758 H750 0.950 . S
C758 C756 1.391 . S
C758 C759 1.400 . S
C759 C758 1.400 . S
C759 C760 1.398 . S
C759 C765 1.491 . S
C760 H751 0.950 . S
C760 C759 1.398 . S
C760 C761 1.391 . S
C761 H749 0.950 . S
C761 C757 1.393 . S
C761 C760 1.391 . S
C762 H752 0.950 . S
C762 C763 1.386 . S
C762 C764 1.391 . S
C763 C762 1.386 . S
C763 C767 1.393 . S
C764 H753 0.950 . S
C764 C762 1.391 . S
C764 C765 1.400 . S
C765 C759 1.491 . S
C765 C764 1.400 . S
C765 C766 1.398 . S
C766 H754 0.950 . S
C766 C765 1.398 . S
C766 C767 1.391 . S
C767 H755 0.950 . S
C767 C763 1.393 . S
C767 C766 1.391 . S
H768 C776 0.950 . S
H769 C781 0.950 . S
H770 C778 0.950 . S
H771 C780 1.002 . S
H772 C782 0.950 . S
H773 C784 0.950 . S
H774 C786 1.002 . S
H775 C787 0.950 . S
C776 H768 0.950 . S
C776 C777 1.386 . S
C776 C778 1.391 . S
C777 C776 1.386 . S
C777 C781 1.393 . S
C778 H770 0.950 . S
C778 C776 1.391 . S
C778 C779 1.400 . S
C779 C778 1.400 . S
C779 C780 1.398 . S
C779 C785 1.491 1_565 S
C780 H771 1.002 . S
C780 C779 1.398 . S
C780 C781 1.391 . S
C781 H769 0.950 . S
C781 C777 1.393 . S
C781 C780 1.391 . S
C782 H772 0.950 . S
C782 C783 1.386 . S
C782 C784 1.391 . S
C783 C782 1.386 . S
C783 C787 1.393 . S
C784 H773 0.950 . S
C784 C782 1.391 . S
C784 C785 1.400 . S
C785 C779 1.491 1_545 S
C785 C784 1.400 . S
C785 C786 1.398 . S
C786 H774 1.002 . S
C786 C785 1.398 . S
C786 C787 1.391 . S
C787 H775 0.950 . S
C787 C783 1.393 . S
C787 C786 1.391 . S
H788 C796 0.950 . S
H789 C801 0.950 . S
H790 C798 0.950 . S
H791 C800 0.950 1_455 S
H792 C802 0.950 . S
H793 C804 0.950 . S
H794 C806 0.950 1_655 S
H795 C807 0.950 . S
C796 H788 0.950 . S
C796 C797 1.386 . S
C796 C798 1.391 . S
C797 C796 1.386 . S
C797 C801 1.393 . S
C798 H790 0.950 . S
C798 C796 1.391 . S
C798 C799 1.400 . S
C799 C798 1.400 . S
C799 C800 1.398 . S
C799 C805 1.491 1_655 S
C800 H791 0.950 1_655 S
C800 C799 1.398 . S
C800 C801 1.391 . S
C801 H789 0.950 . S
C801 C797 1.393 . S
C801 C800 1.391 . S
C802 H792 0.950 . S
C802 C803 1.386 . S
C802 C804 1.391 . S
C803 C802 1.386 . S
C803 C807 1.393 . S
C804 H793 0.950 . S
C804 C802 1.391 . S
C804 C805 1.400 . S
C805 C799 1.491 1_455 S
C805 C804 1.400 . S
C805 C806 1.398 . S
C806 H794 0.950 1_455 S
C806 C805 1.398 . S
C806 C807 1.391 . S
C807 H795 0.950 . S
C807 C803 1.393 . S
C807 C806 1.391 . S
H808 C816 0.954 . S
H809 C821 0.950 . S
H810 C818 0.950 . S
H811 C820 0.950 . S
H812 C822 0.954 . S
H813 C824 0.950 . S
H814 C826 0.950 . S
H815 C827 0.950 . S
C816 H808 0.954 . S
C816 C817 1.379 1_554 S
C816 C818 1.394 . S
C817 C816 1.379 1_556 S
C817 C821 1.393 . S
C818 H810 0.950 . S
C818 C816 1.394 . S
C818 C819 1.400 1_554 S
C819 C818 1.400 1_556 S
C819 C820 1.398 . S
C819 C825 1.491 1_556 S
C820 H811 0.950 . S
C820 C819 1.398 . S
C820 C821 1.391 . S
C821 H809 0.950 . S
C821 C817 1.393 . S
C821 C820 1.391 . S
C822 H812 0.954 . S
C822 C823 1.379 1_556 S
C822 C824 1.394 . S
C823 C822 1.379 1_554 S
C823 C827 1.393 . S
C824 H813 0.950 . S
C824 C822 1.394 . S
C824 C825 1.400 1_556 S
C825 C819 1.491 1_554 S
C825 C824 1.400 1_554 S
C825 C826 1.398 . S
C826 H814 0.950 . S
C826 C825 1.398 . S
C826 C827 1.391 . S
C827 H815 0.950 . S
C827 C823 1.393 . S
C827 C826 1.391 . S
H828 C836 0.950 1_655 S
H829 C841 0.950 . S
H830 C838 0.950 . S
H831 C840 1.017 . S
H832 C842 0.950 1_455 S
H833 C844 0.950 . S
H834 C846 1.017 . S
H835 C847 0.950 . S
C836 H828 0.950 1_455 S
C836 C837 1.386 1_554 S
C836 C838 1.391 1_455 S
C837 C836 1.386 1_556 S
C837 C841 1.393 . S
C838 H830 0.950 . S
C838 C836 1.391 1_655 S
C838 C839 1.400 1_654 S
C839 C838 1.400 1_456 S
C839 C840 1.398 . S
C839 C845 1.491 1_446 S
C840 H831 1.017 . S
C840 C839 1.398 . S
C840 C841 1.391 . S
C841 H829 0.950 . S
C841 C837 1.393 . S
C841 C840 1.391 . S
C842 H832 0.950 1_655 S
C842 C843 1.386 1_556 S
C842 C844 1.391 1_655 S
C843 C842 1.386 1_554 S
C843 C847 1.393 . S
C844 H833 0.950 . S
C844 C842 1.391 1_455 S
C844 C845 1.400 1_456 S
C845 C839 1.491 1_664 S
C845 C844 1.400 1_654 S
C845 C846 1.398 . S
C846 H834 1.017 . S
C846 C845 1.398 . S
C846 C847 1.391 . S
C847 H835 0.950 . S
C847 C843 1.393 . S
C847 C846 1.391 . S
H848 C856 0.950 . S
H849 C861 0.950 . S
H850 C858 0.950 . S
H851 C860 0.950 . S
H852 C862 0.950 . S
H853 C864 0.950 . S
H854 C866 0.950 . S
H855 C867 0.950 . S
C856 H848 0.950 . S
C856 C857 1.386 . S
C856 C858 1.391 . S
C857 C856 1.386 . S
C857 C861 1.393 . S
C858 H850 0.950 . S
C858 C856 1.391 . S
C858 C859 1.400 . S
C859 C858 1.400 . S
C859 C860 1.398 . S
C859 C865 1.491 1_545 S
C860 H851 0.950 . S
C860 C859 1.398 . S
C860 C861 1.391 . S
C861 H849 0.950 . S
C861 C857 1.393 . S
C861 C860 1.391 . S
C862 H852 0.950 . S
C862 C863 1.386 . S
C862 C864 1.391 . S
C863 C862 1.386 . S
C863 C867 1.393 . S
C864 H853 0.950 . S
C864 C862 1.391 . S
C864 C865 1.400 . S
C865 C859 1.491 1_565 S
C865 C864 1.400 . S
C865 C866 1.398 . S
C866 H854 0.950 . S
C866 C865 1.398 . S
C866 C867 1.391 . S
C867 H855 0.950 . S
C867 C863 1.393 . S
C867 C866 1.391 . S
H868 C876 0.950 . S
H869 C881 0.950 . S
H870 C878 0.950 . S
H871 C880 0.950 1_655 S
H872 C882 0.950 . S
H873 C884 0.950 . S
H874 C886 0.950 1_455 S
H875 C887 0.950 . S
C876 H868 0.950 . S
C876 C877 1.386 . S
C876 C878 1.391 . S
C877 C876 1.386 . S
C877 C881 1.393 . S
C878 H870 0.950 . S
C878 C876 1.391 . S
C878 C879 1.400 . S
C879 C878 1.400 . S
C879 C880 1.398 . S
C879 C885 1.491 1_455 S
C880 H871 0.950 1_455 S
C880 C879 1.398 . S
C880 C881 1.391 . S
C881 H869 0.950 . S
C881 C877 1.393 . S
C881 C880 1.391 . S
C882 H872 0.950 . S
C882 C883 1.386 . S
C882 C884 1.391 . S
C883 C882 1.386 . S
C883 C887 1.393 . S
C884 H873 0.950 . S
C884 C882 1.391 . S
C884 C885 1.400 . S
C885 C879 1.491 1_655 S
C885 C884 1.400 . S
C885 C886 1.398 . S
C886 H874 0.950 1_655 S
C886 C885 1.398 . S
C886 C887 1.391 . S
C887 H875 0.950 . S
C887 C883 1.393 . S
C887 C886 1.391 . S
H888 C896 0.950 . S
H889 C901 0.950 . S
H890 C898 0.950 . S
H891 C900 0.950 . S
H892 C902 0.950 . S
H893 C904 0.950 . S
H894 C906 0.950 . S
H895 C907 0.950 . S
C896 H888 0.950 . S
C896 C897 1.386 1_554 S
C896 C898 1.391 . S
C897 C896 1.386 1_556 S
C897 C901 1.393 . S
C898 H890 0.950 . S
C898 C896 1.391 . S
C898 C899 1.400 1_554 S
C899 C898 1.400 1_556 S
C899 C900 1.398 . S
C899 C905 1.491 1_556 S
C900 H891 0.950 . S
C900 C899 1.398 . S
C900 C901 1.391 . S
C901 H889 0.950 . S
C901 C897 1.393 . S
C901 C900 1.391 . S
C902 H892 0.950 . S
C902 C903 1.386 1_556 S
C902 C904 1.391 . S
C903 C902 1.386 1_554 S
C903 C907 1.393 . S
C904 H893 0.950 . S
C904 C902 1.391 . S
C904 C905 1.400 1_556 S
C905 C899 1.491 1_554 S
C905 C904 1.400 1_554 S
C905 C906 1.398 . S
C906 H894 0.950 . S
C906 C905 1.398 . S
C906 C907 1.391 . S
C907 H895 0.950 . S
C907 C903 1.393 . S
C907 C906 1.391 . S
H908 C916 0.950 . S
H909 C921 0.950 . S
H910 C918 0.950 . S
H911 C920 0.950 . S
H912 C922 0.950 . S
H913 C924 0.950 . S
H914 C926 0.950 . S
H915 C927 0.950 . S
C916 H908 0.950 . S
C916 C917 1.386 . S
C916 C918 1.391 . S
C917 C916 1.386 . S
C917 C921 1.393 . S
C918 H910 0.950 . S
C918 C916 1.391 . S
C918 C919 1.400 . S
C919 C918 1.400 . S
C919 C920 1.398 . S
C919 C925 1.491 . S
C920 H911 0.950 . S
C920 C919 1.398 . S
C920 C921 1.391 . S
C921 H909 0.950 . S
C921 C917 1.393 . S
C921 C920 1.391 . S
C922 H912 0.950 . S
C922 C923 1.386 . S
C922 C924 1.391 . S
C923 C922 1.386 . S
C923 C927 1.393 . S
C924 H913 0.950 . S
C924 C922 1.391 . S
C924 C925 1.400 . S
C925 C919 1.491 . S
C925 C924 1.400 . S
C925 C926 1.398 . S
C926 H914 0.950 . S
C926 C925 1.398 . S
C926 C927 1.391 . S
C927 H915 0.950 . S
C927 C923 1.393 . S
C927 C926 1.391 . S
H928 C936 0.950 . S
H929 C941 0.950 . S
H930 C938 0.950 . S
H931 C940 0.950 . S
H932 C942 0.950 . S
H933 C944 0.950 . S
H934 C946 0.950 . S
H935 C947 0.950 . S
C936 H928 0.950 . S
C936 C937 1.386 . S
C936 C938 1.391 . S
C937 C936 1.386 . S
C937 C941 1.393 . S
C938 H930 0.950 . S
C938 C936 1.391 . S
C938 C939 1.400 . S
C939 C938 1.400 . S
C939 C940 1.398 . S
C939 C945 1.491 . S
C940 H931 0.950 . S
C940 C939 1.398 . S
C940 C941 1.391 . S
C941 H929 0.950 . S
C941 C937 1.393 . S
C941 C940 1.391 . S
C942 H932 0.950 . S
C942 C943 1.386 . S
C942 C944 1.391 . S
C943 C942 1.386 . S
C943 C947 1.393 . S
C944 H933 0.950 . S
C944 C942 1.391 . S
C944 C945 1.400 . S
C945 C939 1.491 . S
C945 C944 1.400 . S
C945 C946 1.398 . S
C946 H934 0.950 . S
C946 C945 1.398 . S
C946 C947 1.391 . S
C947 H935 0.950 . S
C947 C943 1.393 . S
C947 C946 1.391 . S
H948 C956 0.950 . S
H949 C961 0.950 1_455 S
H950 C958 0.950 . S
H951 C960 0.950 . S
H952 C962 0.950 . S
H953 C964 0.950 . S
H954 C966 0.950 . S
H955 C967 0.950 1_655 S
C956 H948 0.950 . S
C956 C957 1.386 . S
C956 C958 1.391 . S
C957 C956 1.386 . S
C957 C961 1.393 . S
C958 H950 0.950 . S
C958 C956 1.391 . S
C958 C959 1.400 . S
C959 C958 1.400 . S
C959 C960 1.398 1_655 S
C959 C965 1.491 1_655 S
C960 H951 0.950 . S
C960 C959 1.398 1_455 S
C960 C961 1.391 1_455 S
C961 H949 0.950 1_655 S
C961 C957 1.393 . S
C961 C960 1.391 1_655 S
C962 H952 0.950 . S
C962 C963 1.386 . S
C962 C964 1.391 . S
C963 C962 1.386 . S
C963 C967 1.393 . S
C964 H953 0.950 . S
C964 C962 1.391 . S
C964 C965 1.400 . S
C965 C959 1.491 1_455 S
C965 C964 1.400 . S
C965 C966 1.398 1_455 S
C966 H954 0.950 . S
C966 C965 1.398 1_655 S
C966 C967 1.391 1_655 S
C967 H955 0.950 1_455 S
C967 C963 1.393 . S
C967 C966 1.391 1_455 S
H968 C976 0.950 . S
H969 C981 0.950 . S
H970 C978 0.950 . S
H971 C980 0.950 . S
H972 C982 0.950 . S
H973 C984 0.950 . S
H974 C986 0.950 . S
H975 C987 0.950 . S
C976 H968 0.950 . S
C976 C977 1.386 . S
C976 C978 1.391 . S
C977 C976 1.386 . S
C977 C981 1.393 . S
C978 H970 0.950 . S
C978 C976 1.391 . S
C978 C979 1.400 . S
C979 C978 1.400 . S
C979 C980 1.398 . S
C979 C985 1.491 . S
C980 H971 0.950 . S
C980 C979 1.398 . S
C980 C981 1.391 . S
C981 H969 0.950 . S
C981 C977 1.393 . S
C981 C980 1.391 . S
C982 H972 0.950 . S
C982 C983 1.386 . S
C982 C984 1.391 . S
C983 C982 1.386 . S
C983 C987 1.393 . S
C984 H973 0.950 . S
C984 C982 1.391 . S
C984 C985 1.400 . S
C985 C979 1.491 . S
C985 C984 1.400 . S
C985 C986 1.398 . S
C986 H974 0.950 . S
C986 C985 1.398 . S
C986 C987 1.391 . S
C987 H975 0.950 . S
C987 C983 1.393 . S
C987 C986 1.391 . S
H988 C996 0.950 . S
H989 C1001 0.950 . S
H990 C998 0.950 . S
H991 C1000 0.950 . S
H992 C1002 0.950 . S
H993 C1004 0.950 . S
H994 C1006 0.950 . S
H995 C1007 0.950 . S
C996 H988 0.950 . S
C996 C997 1.386 . S
C996 C998 1.391 . S
C997 C996 1.386 . S
C997 C1001 1.393 . S
C998 H990 0.950 . S
C998 C996 1.391 . S
C998 C999 1.400 . S
C999 C998 1.400 . S
C999 C1000 1.398 . S
C999 C1005 1.491 . S
C1000 H991 0.950 . S
C1000 C999 1.398 . S
C1000 C1001 1.391 . S
C1001 H989 0.950 . S
C1001 C997 1.393 . S
C1001 C1000 1.391 . S
C1002 H992 0.950 . S
C1002 C1003 1.386 . S
C1002 C1004 1.391 . S
C1003 C1002 1.386 . S
C1003 C1007 1.393 . S
C1004 H993 0.950 . S
C1004 C1002 1.391 . S
C1004 C1005 1.400 . S
C1005 C999 1.491 . S
C1005 C1004 1.400 . S
C1005 C1006 1.398 . S
C1006 H994 0.950 . S
C1006 C1005 1.398 . S
C1006 C1007 1.391 . S
C1007 H995 0.950 . S
C1007 C1003 1.393 . S
C1007 C1006 1.391 . S
H1008 C1016 0.950 . S
H1009 C1021 0.950 . S
H1010 C1018 0.950 . S
H1011 C1020 0.950 . S
H1012 C1022 0.950 . S
H1013 C1024 0.950 . S
H1014 C1026 0.950 . S
H1015 C1027 0.950 . S
C1016 H1008 0.950 . S
C1016 C1017 1.386 . S
C1016 C1018 1.391 . S
C1017 C1016 1.386 . S
C1017 C1021 1.393 . S
C1018 H1010 0.950 . S
C1018 C1016 1.391 . S
C1018 C1019 1.400 . S
C1019 C1018 1.400 . S
C1019 C1020 1.398 . S
C1019 C1025 1.491 . S
C1020 H1011 0.950 . S
C1020 C1019 1.398 . S
C1020 C1021 1.391 . S
C1021 H1009 0.950 . S
C1021 C1017 1.393 . S
C1021 C1020 1.391 . S
C1022 H1012 0.950 . S
C1022 C1023 1.386 . S
C1022 C1024 1.391 . S
C1023 C1022 1.386 . S
C1023 C1027 1.393 . S
C1024 H1013 0.950 . S
C1024 C1022 1.391 . S
C1024 C1025 1.400 . S
C1025 C1019 1.491 . S
C1025 C1024 1.400 . S
C1025 C1026 1.398 . S
C1026 H1014 0.950 . S
C1026 C1025 1.398 . S
C1026 C1027 1.391 . S
C1027 H1015 0.950 . S
C1027 C1023 1.393 . S
C1027 C1026 1.391 . S
H1028 C1036 0.950 . S
H1029 C1041 0.950 . S
H1030 C1038 0.988 . S
H1031 C1040 0.950 . S
H1032 C1042 0.950 . S
H1033 C1044 0.988 . S
H1034 C1046 0.950 . S
H1035 C1047 0.950 . S
C1036 H1028 0.950 . S
C1036 C1037 1.386 . S
C1036 C1038 1.391 . S
C1037 C1036 1.386 . S
C1037 C1041 1.393 . S
C1038 H1030 0.988 . S
C1038 C1036 1.391 . S
C1038 C1039 1.400 . S
C1039 C1038 1.400 . S
C1039 C1040 1.398 . S
C1039 C1045 1.491 1_545 S
C1040 H1031 0.950 . S
C1040 C1039 1.398 . S
C1040 C1041 1.391 . S
C1041 H1029 0.950 . S
C1041 C1037 1.393 . S
C1041 C1040 1.391 . S
C1042 H1032 0.950 . S
C1042 C1043 1.386 . S
C1042 C1044 1.391 . S
C1043 C1042 1.386 . S
C1043 C1047 1.393 . S
C1044 H1033 0.988 . S
C1044 C1042 1.391 . S
C1044 C1045 1.400 . S
C1045 C1039 1.491 1_565 S
C1045 C1044 1.400 . S
C1045 C1046 1.398 . S
C1046 H1034 0.950 . S
C1046 C1045 1.398 . S
C1046 C1047 1.391 . S
C1047 H1035 0.950 . S
C1047 C1043 1.393 . S
C1047 C1046 1.391 . S
H1048 C1056 0.950 . S
H1049 C1061 0.950 . S
H1050 C1058 0.950 . S
H1051 C1060 0.950 . S
H1052 C1062 0.950 . S
H1053 C1064 0.950 . S
H1054 C1066 0.950 . S
H1055 C1067 0.950 . S
C1056 H1048 0.950 . S
C1056 C1057 1.386 . S
C1056 C1058 1.391 . S
C1057 C1056 1.386 . S
C1057 C1061 1.393 . S
C1058 H1050 0.950 . S
C1058 C1056 1.391 . S
C1058 C1059 1.400 . S
C1059 C1058 1.400 . S
C1059 C1060 1.398 . S
C1059 C1065 1.491 . S
C1060 H1051 0.950 . S
C1060 C1059 1.398 . S
C1060 C1061 1.391 . S
C1061 H1049 0.950 . S
C1061 C1057 1.393 . S
C1061 C1060 1.391 . S
C1062 H1052 0.950 . S
C1062 C1063 1.386 . S
C1062 C1064 1.391 . S
C1063 C1062 1.386 . S
C1063 C1067 1.393 . S
C1064 H1053 0.950 . S
C1064 C1062 1.391 . S
C1064 C1065 1.400 . S
C1065 C1059 1.491 . S
C1065 C1064 1.400 . S
C1065 C1066 1.398 . S
C1066 H1054 0.950 . S
C1066 C1065 1.398 . S
C1066 C1067 1.391 . S
C1067 H1055 0.950 . S
C1067 C1063 1.393 . S
C1067 C1066 1.391 . S
H1068 C1076 0.950 . S
H1069 C1081 0.950 . S
H1070 C1078 0.950 . S
H1071 C1080 0.950 . S
H1072 C1082 0.950 . S
H1073 C1084 0.950 . S
H1074 C1086 0.950 . S
H1075 C1087 0.950 . S
C1076 H1068 0.950 . S
C1076 C1077 1.386 . S
C1076 C1078 1.391 . S
C1077 C1076 1.386 . S
C1077 C1081 1.393 1_554 S
C1078 H1070 0.950 . S
C1078 C1076 1.391 . S
C1078 C1079 1.400 . S
C1079 C1078 1.400 . S
C1079 C1080 1.398 1_554 S
C1079 C1085 1.491 1_554 S
C1080 H1071 0.950 . S
C1080 C1079 1.398 1_556 S
C1080 C1081 1.391 . S
C1081 H1069 0.950 . S
C1081 C1077 1.393 1_556 S
C1081 C1080 1.391 . S
C1082 H1072 0.950 . S
C1082 C1083 1.386 . S
C1082 C1084 1.391 . S
C1083 C1082 1.386 . S
C1083 C1087 1.393 1_556 S
C1084 H1073 0.950 . S
C1084 C1082 1.391 . S
C1084 C1085 1.400 . S
C1085 C1079 1.491 1_556 S
C1085 C1084 1.400 . S
C1085 C1086 1.398 1_556 S
C1086 H1074 0.950 . S
C1086 C1085 1.398 1_554 S
C1086 C1087 1.391 . S
C1087 H1075 0.950 . S
C1087 C1083 1.393 1_554 S
C1087 C1086 1.391 . S
H1088 C1096 0.950 . S
H1089 C1101 0.950 . S
H1090 C1098 0.950 . S
H1091 C1100 0.950 . S
H1092 C1102 0.950 . S
H1093 C1104 0.950 . S
H1094 C1106 0.950 . S
H1095 C1107 0.950 . S
C1096 H1088 0.950 . S
C1096 C1097 1.386 . S
C1096 C1098 1.391 . S
C1097 C1096 1.386 . S
C1097 C1101 1.393 . S
C1098 H1090 0.950 . S
C1098 C1096 1.391 . S
C1098 C1099 1.400 . S
C1099 C1098 1.400 . S
C1099 C1100 1.398 . S
C1099 C1105 1.491 . S
C1100 H1091 0.950 . S
C1100 C1099 1.398 . S
C1100 C1101 1.391 . S
C1101 H1089 0.950 . S
C1101 C1097 1.393 . S
C1101 C1100 1.391 . S
C1102 H1092 0.950 . S
C1102 C1103 1.386 . S
C1102 C1104 1.391 . S
C1103 C1102 1.386 . S
C1103 C1107 1.393 . S
C1104 H1093 0.950 . S
C1104 C1102 1.391 . S
C1104 C1105 1.400 . S
C1105 C1099 1.491 . S
C1105 C1104 1.400 . S
C1105 C1106 1.398 . S
C1106 H1094 0.950 . S
C1106 C1105 1.398 . S
C1106 C1107 1.391 . S
C1107 H1095 0.950 . S
C1107 C1103 1.393 . S
C1107 C1106 1.391 . S
H1108 C1116 0.950 . S
H1109 C1121 0.950 . S
H1110 C1118 0.950 . S
H1111 C1120 0.950 . S
H1112 C1122 0.950 . S
H1113 C1124 0.950 . S
H1114 C1126 0.950 . S
H1115 C1127 0.950 . S
C1116 H1108 0.950 . S
C1116 C1117 1.386 . S
C1116 C1118 1.391 . S
C1117 C1116 1.386 . S
C1117 C1121 1.393 1_556 S
C1118 H1110 0.950 . S
C1118 C1116 1.391 . S
C1118 C1119 1.400 . S
C1119 C1118 1.400 . S
C1119 C1120 1.398 1_556 S
C1119 C1125 1.491 . S
C1120 H1111 0.950 . S
C1120 C1119 1.398 1_554 S
C1120 C1121 1.391 . S
C1121 H1109 0.950 . S
C1121 C1117 1.393 1_554 S
C1121 C1120 1.391 . S
C1122 H1112 0.950 . S
C1122 C1123 1.386 1_554 S
C1122 C1124 1.391 . S
C1123 C1122 1.386 1_556 S
C1123 C1127 1.393 . S
C1124 H1113 0.950 . S
C1124 C1122 1.391 . S
C1124 C1125 1.400 1_554 S
C1125 C1119 1.491 . S
C1125 C1124 1.400 1_556 S
C1125 C1126 1.398 . S
C1126 H1114 0.950 . S
C1126 C1125 1.398 . S
C1126 C1127 1.391 . S
C1127 H1115 0.950 . S
C1127 C1123 1.393 . S
C1127 C1126 1.391 . S
H1128 C1136 0.950 . S
H1129 C1141 0.950 . S
H1130 C1138 0.950 . S
H1131 C1140 0.950 . S
H1132 C1142 0.950 . S
H1133 C1144 0.950 . S
H1134 C1146 0.950 . S
H1135 C1147 0.950 . S
C1136 H1128 0.950 . S
C1136 C1137 1.386 . S
C1136 C1138 1.391 . S
C1137 C1136 1.386 . S
C1137 C1141 1.393 . S
C1138 H1130 0.950 . S
C1138 C1136 1.391 . S
C1138 C1139 1.400 . S
C1139 C1138 1.400 . S
C1139 C1140 1.398 . S
C1139 C1145 1.491 . S
C1140 H1131 0.950 . S
C1140 C1139 1.398 . S
C1140 C1141 1.391 . S
C1141 H1129 0.950 . S
C1141 C1137 1.393 . S
C1141 C1140 1.391 . S
C1142 H1132 0.950 . S
C1142 C1143 1.386 . S
C1142 C1144 1.391 . S
C1143 C1142 1.386 . S
C1143 C1147 1.393 . S
C1144 H1133 0.950 . S
C1144 C1142 1.391 . S
C1144 C1145 1.400 . S
C1145 C1139 1.491 . S
C1145 C1144 1.400 . S
C1145 C1146 1.398 . S
C1146 H1134 0.950 . S
C1146 C1145 1.398 . S
C1146 C1147 1.391 . S
C1147 H1135 0.950 . S
C1147 C1143 1.393 . S
C1147 C1146 1.391 . S
H1148 C1156 0.950 . S
H1149 C1161 0.950 . S
H1150 C1158 0.950 . S
H1151 C1160 0.950 . S
H1152 C1162 0.950 . S
H1153 C1164 0.950 . S
H1154 C1166 0.950 . S
H1155 C1167 0.950 . S
C1156 H1148 0.950 . S
C1156 C1157 1.386 1_556 S
C1156 C1158 1.391 . S
C1157 C1156 1.386 1_554 S
C1157 C1161 1.393 . S
C1158 H1150 0.950 . S
C1158 C1156 1.391 . S
C1158 C1159 1.400 1_556 S
C1159 C1158 1.400 1_554 S
C1159 C1160 1.398 . S
C1159 C1165 1.491 . S
C1160 H1151 0.950 . S
C1160 C1159 1.398 . S
C1160 C1161 1.391 . S
C1161 H1149 0.950 . S
C1161 C1157 1.393 . S
C1161 C1160 1.391 . S
C1162 H1152 0.950 . S
C1162 C1163 1.386 . S
C1162 C1164 1.391 . S
C1163 C1162 1.386 . S
C1163 C1167 1.393 1_554 S
C1164 H1153 0.950 . S
C1164 C1162 1.391 . S
C1164 C1165 1.400 . S
C1165 C1159 1.491 . S
C1165 C1164 1.400 . S
C1165 C1166 1.398 1_554 S
C1166 H1154 0.950 . S
C1166 C1165 1.398 1_556 S
C1166 C1167 1.391 . S
C1167 H1155 0.950 . S
C1167 C1163 1.393 1_556 S
C1167 C1166 1.391 . S
H1168 C1176 0.950 . S
H1169 C1181 0.950 . S
H1170 C1178 0.950 . S
H1171 C1180 0.950 . S
H1172 C1182 0.950 . S
H1173 C1184 0.950 . S
H1174 C1186 0.950 . S
H1175 C1187 0.950 . S
C1176 H1168 0.950 . S
C1176 C1177 1.386 . S
C1176 C1178 1.391 . S
C1177 C1176 1.386 . S
C1177 C1181 1.393 . S
C1178 H1170 0.950 . S
C1178 C1176 1.391 . S
C1178 C1179 1.400 . S
C1179 C1178 1.400 . S
C1179 C1180 1.398 . S
C1179 C1185 1.491 . S
C1180 H1171 0.950 . S
C1180 C1179 1.398 . S
C1180 C1181 1.391 . S
C1181 H1169 0.950 . S
C1181 C1177 1.393 . S
C1181 C1180 1.391 . S
C1182 H1172 0.950 . S
C1182 C1183 1.386 . S
C1182 C1184 1.391 . S
C1183 C1182 1.386 . S
C1183 C1187 1.393 . S
C1184 H1173 0.950 . S
C1184 C1182 1.391 . S
C1184 C1185 1.400 . S
C1185 C1179 1.491 . S
C1185 C1184 1.400 . S
C1185 C1186 1.398 . S
C1186 H1174 0.950 . S
C1186 C1185 1.398 . S
C1186 C1187 1.391 . S
C1187 H1175 0.950 . S
C1187 C1183 1.393 . S
C1187 C1186 1.391 . S
H1188 C1196 0.950 . S
H1189 C1201 0.950 . S
H1190 C1198 0.950 . S
H1191 C1200 0.950 . S
H1192 C1202 0.950 . S
H1193 C1204 0.950 . S
H1194 C1206 0.950 . S
H1195 C1207 0.950 . S
C1196 H1188 0.950 . S
C1196 C1197 1.386 . S
C1196 C1198 1.391 . S
C1197 C1196 1.386 . S
C1197 C1201 1.393 . S
C1198 H1190 0.950 . S
C1198 C1196 1.391 . S
C1198 C1199 1.400 . S
C1199 C1198 1.400 . S
C1199 C1200 1.398 . S
C1199 C1205 1.491 . S
C1200 H1191 0.950 . S
C1200 C1199 1.398 . S
C1200 C1201 1.391 . S
C1201 H1189 0.950 . S
C1201 C1197 1.393 . S
C1201 C1200 1.391 . S
C1202 H1192 0.950 . S
C1202 C1203 1.386 . S
C1202 C1204 1.391 . S
C1203 C1202 1.386 . S
C1203 C1207 1.393 . S
C1204 H1193 0.950 . S
C1204 C1202 1.391 . S
C1204 C1205 1.400 . S
C1205 C1199 1.491 . S
C1205 C1204 1.400 . S
C1205 C1206 1.398 . S
C1206 H1194 0.950 . S
C1206 C1205 1.398 . S
C1206 C1207 1.391 . S
C1207 H1195 0.950 . S
C1207 C1203 1.393 . S
C1207 C1206 1.391 . S
H1208 C1216 0.950 . S
H1209 C1221 0.950 . S
H1210 C1218 0.950 . S
H1211 C1220 0.950 . S
H1212 C1222 0.950 . S
H1213 C1224 0.950 . S
H1214 C1226 0.950 . S
H1215 C1227 0.950 . S
C1216 H1208 0.950 . S
C1216 C1217 1.386 . S
C1216 C1218 1.391 . S
C1217 C1216 1.386 . S
C1217 C1221 1.393 . S
C1218 H1210 0.950 . S
C1218 C1216 1.391 . S
C1218 C1219 1.400 . S
C1219 C1218 1.400 . S
C1219 C1220 1.398 . S
C1219 C1225 1.491 . S
C1220 H1211 0.950 . S
C1220 C1219 1.398 . S
C1220 C1221 1.391 . S
C1221 H1209 0.950 . S
C1221 C1217 1.393 . S
C1221 C1220 1.391 . S
C1222 H1212 0.950 . S
C1222 C1223 1.386 . S
C1222 C1224 1.391 . S
C1223 C1222 1.386 . S
C1223 C1227 1.393 . S
C1224 H1213 0.950 . S
C1224 C1222 1.391 . S
C1224 C1225 1.400 . S
C1225 C1219 1.491 . S
C1225 C1224 1.400 . S
C1225 C1226 1.398 . S
C1226 H1214 0.950 . S
C1226 C1225 1.398 . S
C1226 C1227 1.391 . S
C1227 H1215 0.950 . S
C1227 C1223 1.393 . S
C1227 C1226 1.391 . S
H1228 C1236 0.950 . S
H1229 C1241 0.950 . S
H1230 C1238 0.950 . S
H1231 C1240 0.950 . S
H1232 C1242 0.950 . S
H1233 C1244 0.950 . S
H1234 C1246 0.950 . S
H1235 C1247 0.950 . S
C1236 H1228 0.950 . S
C1236 C1237 1.386 . S
C1236 C1238 1.391 . S
C1237 C1236 1.386 . S
C1237 C1241 1.393 . S
C1238 H1230 0.950 . S
C1238 C1236 1.391 . S
C1238 C1239 1.400 . S
C1239 C1238 1.400 . S
C1239 C1240 1.398 . S
C1239 C1245 1.491 . S
C1240 H1231 0.950 . S
C1240 C1239 1.398 . S
C1240 C1241 1.391 . S
C1241 H1229 0.950 . S
C1241 C1237 1.393 . S
C1241 C1240 1.391 . S
C1242 H1232 0.950 . S
C1242 C1243 1.386 . S
C1242 C1244 1.391 . S
C1243 C1242 1.386 . S
C1243 C1247 1.393 . S
C1244 H1233 0.950 . S
C1244 C1242 1.391 . S
C1244 C1245 1.400 . S
C1245 C1239 1.491 . S
C1245 C1244 1.400 . S
C1245 C1246 1.398 . S
C1246 H1234 0.950 . S
C1246 C1245 1.398 . S
C1246 C1247 1.391 . S
C1247 H1235 0.950 . S
C1247 C1243 1.393 . S
C1247 C1246 1.391 . S
H1248 C1256 0.950 . S
H1249 C1261 0.950 . S
H1250 C1258 0.950 . S
H1251 C1260 0.950 . S
H1252 C1262 0.950 . S
H1253 C1264 0.950 . S
H1254 C1266 0.950 . S
H1255 C1267 0.950 . S
C1256 H1248 0.950 . S
C1256 C1257 1.386 . S
C1256 C1258 1.391 . S
C1257 C1256 1.386 . S
C1257 C1261 1.393 . S
C1258 H1250 0.950 . S
C1258 C1256 1.391 . S
C1258 C1259 1.400 . S
C1259 C1258 1.400 . S
C1259 C1260 1.398 . S
C1259 C1265 1.491 . S
C1260 H1251 0.950 . S
C1260 C1259 1.398 . S
C1260 C1261 1.391 . S
C1261 H1249 0.950 . S
C1261 C1257 1.393 . S
C1261 C1260 1.391 . S
C1262 H1252 0.950 . S
C1262 C1263 1.386 . S
C1262 C1264 1.391 . S
C1263 C1262 1.386 . S
C1263 C1267 1.393 . S
C1264 H1253 0.950 . S
C1264 C1262 1.391 . S
C1264 C1265 1.400 . S
C1265 C1259 1.491 . S
C1265 C1264 1.400 . S
C1265 C1266 1.398 . S
C1266 H1254 0.950 . S
C1266 C1265 1.398 . S
C1266 C1267 1.391 . S
C1267 H1255 0.950 . S
C1267 C1263 1.393 . S
C1267 C1266 1.391 . S
H1268 C1276 0.950 . S
H1269 C1281 0.950 . S
H1270 C1278 0.950 . S
H1271 C1280 0.950 . S
H1272 C1282 0.950 . S
H1273 C1284 0.950 . S
H1274 C1286 0.950 . S
H1275 C1287 0.950 . S
C1276 H1268 0.950 . S
C1276 C1277 1.386 . S
C1276 C1278 1.391 . S
C1277 C1276 1.386 . S
C1277 C1281 1.393 . S
C1278 H1270 0.950 . S
C1278 C1276 1.391 . S
C1278 C1279 1.400 . S
C1279 C1278 1.400 . S
C1279 C1280 1.398 . S
C1279 C1285 1.491 . S
C1280 H1271 0.950 . S
C1280 C1279 1.398 . S
C1280 C1281 1.391 . S
C1281 H1269 0.950 . S
C1281 C1277 1.393 . S
C1281 C1280 1.391 . S
C1282 H1272 0.950 . S
C1282 C1283 1.386 . S
C1282 C1284 1.391 . S
C1283 C1282 1.386 . S
C1283 C1287 1.393 . S
C1284 H1273 0.950 . S
C1284 C1282 1.391 . S
C1284 C1285 1.400 . S
C1285 C1279 1.491 . S
C1285 C1284 1.400 . S
C1285 C1286 1.398 . S
C1286 H1274 0.950 . S
C1286 C1285 1.398 . S
C1286 C1287 1.391 . S
C1287 H1275 0.950 . S
C1287 C1283 1.393 . S
C1287 C1286 1.391 . S
H1288 C1296 0.950 . S
H1289 C1301 0.950 . S
H1290 C1298 0.950 . S
H1291 C1300 0.950 . S
H1292 C1302 0.950 . S
H1293 C1304 0.950 . S
H1294 C1306 0.950 . S
H1295 C1307 0.950 . S
C1296 H1288 0.950 . S
C1296 C1297 1.386 . S
C1296 C1298 1.391 . S
C1297 C1296 1.386 . S
C1297 C1301 1.393 . S
C1298 H1290 0.950 . S
C1298 C1296 1.391 . S
C1298 C1299 1.400 . S
C1299 C1298 1.400 . S
C1299 C1300 1.398 . S
C1299 C1305 1.491 . S
C1300 H1291 0.950 . S
C1300 C1299 1.398 . S
C1300 C1301 1.391 . S
C1301 H1289 0.950 . S
C1301 C1297 1.393 . S
C1301 C1300 1.391 . S
C1302 H1292 0.950 . S
C1302 C1303 1.386 . S
C1302 C1304 1.391 . S
C1303 C1302 1.386 . S
C1303 C1307 1.393 . S
C1304 H1293 0.950 . S
C1304 C1302 1.391 . S
C1304 C1305 1.400 . S
C1305 C1299 1.491 . S
C1305 C1304 1.400 . S
C1305 C1306 1.398 . S
C1306 H1294 0.950 . S
C1306 C1305 1.398 . S
C1306 C1307 1.391 . S
C1307 H1295 0.950 . S
C1307 C1303 1.393 . S
C1307 C1306 1.391 . S
H1308 C1316 0.950 . S
H1309 C1321 0.950 . S
H1310 C1318 0.950 . S
H1311 C1320 0.950 . S
H1312 C1322 0.950 . S
H1313 C1324 0.950 . S
H1314 C1326 0.950 . S
H1315 C1327 0.950 . S
C1316 H1308 0.950 . S
C1316 C1317 1.386 . S
C1316 C1318 1.391 . S
C1317 C1316 1.386 . S
C1317 C1321 1.393 . S
C1318 H1310 0.950 . S
C1318 C1316 1.391 . S
C1318 C1319 1.400 . S
C1319 C1318 1.400 . S
C1319 C1320 1.398 . S
C1319 C1325 1.491 . S
C1320 H1311 0.950 . S
C1320 C1319 1.398 . S
C1320 C1321 1.391 . S
C1321 H1309 0.950 . S
C1321 C1317 1.393 . S
C1321 C1320 1.391 . S
C1322 H1312 0.950 . S
C1322 C1323 1.386 . S
C1322 C1324 1.391 . S
C1323 C1322 1.386 . S
C1323 C1327 1.393 . S
C1324 H1313 0.950 . S
C1324 C1322 1.391 . S
C1324 C1325 1.400 . S
C1325 C1319 1.491 . S
C1325 C1324 1.400 . S
C1325 C1326 1.398 . S
C1326 H1314 0.950 . S
C1326 C1325 1.398 . S
C1326 C1327 1.391 . S
C1327 H1315 0.950 . S
C1327 C1323 1.393 . S
C1327 C1326 1.391 . S
H1328 C1336 0.950 . S
H1329 C1341 0.950 . S
H1330 C1338 0.950 . S
H1331 C1340 0.950 . S
H1332 C1342 0.950 . S
H1333 C1344 0.950 . S
H1334 C1346 0.950 . S
H1335 C1347 0.950 . S
C1336 H1328 0.950 . S
C1336 C1337 1.386 . S
C1336 C1338 1.391 . S
C1337 C1336 1.386 . S
C1337 C1341 1.393 . S
C1338 H1330 0.950 . S
C1338 C1336 1.391 . S
C1338 C1339 1.400 . S
C1339 C1338 1.400 . S
C1339 C1340 1.398 . S
C1339 C1345 1.491 . S
C1340 H1331 0.950 . S
C1340 C1339 1.398 . S
C1340 C1341 1.391 . S
C1341 H1329 0.950 . S
C1341 C1337 1.393 . S
C1341 C1340 1.391 . S
C1342 H1332 0.950 . S
C1342 C1343 1.386 . S
C1342 C1344 1.391 . S
C1343 C1342 1.386 . S
C1343 C1347 1.393 . S
C1344 H1333 0.950 . S
C1344 C1342 1.391 . S
C1344 C1345 1.400 . S
C1345 C1339 1.491 . S
C1345 C1344 1.400 . S
C1345 C1346 1.398 . S
C1346 H1334 0.950 . S
C1346 C1345 1.398 . S
C1346 C1347 1.391 . S
C1347 H1335 0.950 . S
C1347 C1343 1.393 . S
C1347 C1346 1.391 . S
H1348 C1356 0.956 . S
H1349 C1361 0.950 . S
H1350 C1358 0.951 . S
H1351 C1360 0.950 . S
H1352 C1362 0.950 . S
H1353 C1364 0.950 . S
H1354 C1366 0.950 1_554 S
H1355 C1367 0.950 1_554 S
C1356 H1348 0.956 . S
C1356 C1357 1.379 1_554 S
C1356 C1358 1.391 . S
C1357 C1356 1.379 1_556 S
C1357 C1361 1.393 . S
C1358 H1350 0.951 . S
C1358 C1356 1.391 . S
C1358 C1359 1.399 1_554 S
C1359 C1358 1.399 1_556 S
C1359 C1360 1.398 . S
C1359 C1365 1.491 . S
C1360 H1351 0.950 . S
C1360 C1359 1.398 . S
C1360 C1361 1.391 . S
C1361 H1349 0.950 . S
C1361 C1357 1.393 . S
C1361 C1360 1.391 . S
C1362 H1352 0.950 . S
C1362 C1363 1.386 . S
C1362 C1364 1.391 . S
C1363 C1362 1.386 . S
C1363 C1367 1.393 . S
C1364 H1353 0.950 . S
C1364 C1362 1.391 . S
C1364 C1365 1.400 . S
C1365 C1359 1.491 . S
C1365 C1364 1.400 . S
C1365 C1366 1.398 . S
C1366 H1354 0.950 1_556 S
C1366 C1365 1.398 . S
C1366 C1367 1.391 . S
C1367 H1355 0.950 1_556 S
C1367 C1363 1.393 . S
C1367 C1366 1.391 . S
H1368 C1376 0.950 . S
H1369 C1381 0.950 . S
H1370 C1378 0.950 . S
H1371 C1380 0.950 . S
H1372 C1382 0.950 . S
H1373 C1384 0.950 . S
H1374 C1386 0.950 . S
H1375 C1387 0.950 . S
C1376 H1368 0.950 . S
C1376 C1377 1.386 . S
C1376 C1378 1.391 . S
C1377 C1376 1.386 . S
C1377 C1381 1.393 . S
C1378 H1370 0.950 . S
C1378 C1376 1.391 . S
C1378 C1379 1.400 . S
C1379 C1378 1.400 . S
C1379 C1380 1.398 . S
C1379 C1385 1.491 . S
C1380 H1371 0.950 . S
C1380 C1379 1.398 . S
C1380 C1381 1.391 . S
C1381 H1369 0.950 . S
C1381 C1377 1.393 . S
C1381 C1380 1.391 . S
C1382 H1372 0.950 . S
C1382 C1383 1.386 . S
C1382 C1384 1.391 . S
C1383 C1382 1.386 . S
C1383 C1387 1.393 . S
C1384 H1373 0.950 . S
C1384 C1382 1.391 . S
C1384 C1385 1.400 . S
C1385 C1379 1.491 . S
C1385 C1384 1.400 . S
C1385 C1386 1.398 . S
C1386 H1374 0.950 . S
C1386 C1385 1.398 . S
C1386 C1387 1.391 . S
C1387 H1375 0.950 . S
C1387 C1383 1.393 . S
C1387 C1386 1.391 . S
H1388 C1396 0.950 . S
H1389 C1401 0.950 . S
H1390 C1398 0.950 . S
H1391 C1400 0.950 . S
H1392 C1402 0.950 . S
H1393 C1404 0.950 . S
H1394 C1406 0.950 . S
H1395 C1407 0.950 . S
C1396 H1388 0.950 . S
C1396 C1397 1.386 . S
C1396 C1398 1.391 . S
C1397 C1396 1.386 . S
C1397 C1401 1.393 1_554 S
C1398 H1390 0.950 . S
C1398 C1396 1.391 . S
C1398 C1399 1.400 . S
C1399 C1398 1.400 . S
C1399 C1400 1.398 1_554 S
C1399 C1405 1.491 . S
C1400 H1391 0.950 . S
C1400 C1399 1.398 1_556 S
C1400 C1401 1.391 . S
C1401 H1389 0.950 . S
C1401 C1397 1.393 1_556 S
C1401 C1400 1.391 . S
C1402 H1392 0.950 . S
C1402 C1403 1.386 1_556 S
C1402 C1404 1.391 . S
C1403 C1402 1.386 1_554 S
C1403 C1407 1.393 . S
C1404 H1393 0.950 . S
C1404 C1402 1.391 . S
C1404 C1405 1.400 1_556 S
C1405 C1399 1.491 . S
C1405 C1404 1.400 1_554 S
C1405 C1406 1.398 . S
C1406 H1394 0.950 . S
C1406 C1405 1.398 . S
C1406 C1407 1.391 . S
C1407 H1395 0.950 . S
C1407 C1403 1.393 . S
C1407 C1406 1.391 . S
H1408 C1416 0.950 1_455 S
H1409 C1421 0.950 . S
H1410 C1418 0.950 . S
H1411 C1420 0.950 . S
H1412 C1422 0.950 . S
H1413 C1424 0.950 . S
H1414 C1426 0.950 . S
H1415 C1427 0.950 . S
C1416 H1408 0.950 1_655 S
C1416 C1417 1.386 . S
C1416 C1418 1.391 . S
C1417 C1416 1.386 . S
C1417 C1421 1.393 . S
C1418 H1410 0.950 . S
C1418 C1416 1.391 . S
C1418 C1419 1.400 . S
C1419 C1418 1.400 . S
C1419 C1420 1.398 . S
C1419 C1425 1.491 . S
C1420 H1411 0.950 . S
C1420 C1419 1.398 . S
C1420 C1421 1.391 . S
C1421 H1409 0.950 . S
C1421 C1417 1.393 . S
C1421 C1420 1.391 . S
C1422 H1412 0.950 . S
C1422 C1423 1.386 . S
C1422 C1424 1.391 . S
C1423 C1422 1.386 . S
C1423 C1427 1.393 . S
C1424 H1413 0.950 . S
C1424 C1422 1.391 . S
C1424 C1425 1.400 . S
C1425 C1419 1.491 . S
C1425 C1424 1.400 . S
C1425 C1426 1.398 . S
C1426 H1414 0.950 . S
C1426 C1425 1.398 . S
C1426 C1427 1.391 . S
C1427 H1415 0.950 . S
C1427 C1423 1.393 . S
C1427 C1426 1.391 . S
H1428 C1436 0.950 . S
H1429 C1441 0.950 . S
H1430 C1438 0.950 . S
H1431 C1440 0.950 . S
H1432 C1442 0.950 . S
H1433 C1444 0.950 . S
H1434 C1446 0.950 . S
H1435 C1447 0.950 . S
C1436 H1428 0.950 . S
C1436 C1437 1.386 . S
C1436 C1438 1.391 . S
C1437 C1436 1.386 . S
C1437 C1441 1.393 . S
C1438 H1430 0.950 . S
C1438 C1436 1.391 . S
C1438 C1439 1.400 . S
C1439 C1438 1.400 . S
C1439 C1440 1.398 . S
C1439 C1445 1.491 . S
C1440 H1431 0.950 . S
C1440 C1439 1.398 . S
C1440 C1441 1.391 . S
C1441 H1429 0.950 . S
C1441 C1437 1.393 . S
C1441 C1440 1.391 . S
C1442 H1432 0.950 . S
C1442 C1443 1.386 . S
C1442 C1444 1.391 . S
C1443 C1442 1.386 . S
C1443 C1447 1.393 . S
C1444 H1433 0.950 . S
C1444 C1442 1.391 . S
C1444 C1445 1.400 . S
C1445 C1439 1.491 . S
C1445 C1444 1.400 . S
C1445 C1446 1.398 . S
C1446 H1434 0.950 . S
C1446 C1445 1.398 . S
C1446 C1447 1.391 . S
C1447 H1435 0.950 . S
C1447 C1443 1.393 . S
C1447 C1446 1.391 . S
H1448 C1456 0.950 . S
H1449 C1461 0.950 . S
H1450 C1458 0.950 . S
H1451 C1460 0.950 . S
H1452 C1462 0.950 1_455 S
H1453 C1464 0.950 . S
H1454 C1466 0.950 . S
H1455 C1467 0.950 . S
C1456 H1448 0.950 . S
C1456 C1457 1.386 . S
C1456 C1458 1.391 . S
C1457 C1456 1.386 . S
C1457 C1461 1.393 . S
C1458 H1450 0.950 . S
C1458 C1456 1.391 . S
C1458 C1459 1.400 . S
C1459 C1458 1.400 . S
C1459 C1460 1.398 . S
C1459 C1465 1.491 . S
C1460 H1451 0.950 . S
C1460 C1459 1.398 . S
C1460 C1461 1.391 . S
C1461 H1449 0.950 . S
C1461 C1457 1.393 . S
C1461 C1460 1.391 . S
C1462 H1452 0.950 1_655 S
C1462 C1463 1.386 . S
C1462 C1464 1.391 . S
C1463 C1462 1.386 . S
C1463 C1467 1.393 . S
C1464 H1453 0.950 . S
C1464 C1462 1.391 . S
C1464 C1465 1.400 . S
C1465 C1459 1.491 . S
C1465 C1464 1.400 . S
C1465 C1466 1.398 . S
C1466 H1454 0.950 . S
C1466 C1465 1.398 . S
C1466 C1467 1.391 . S
C1467 H1455 0.950 . S
C1467 C1463 1.393 . S
C1467 C1466 1.391 . S
H1468 C1476 0.950 . S
H1469 C1481 0.950 . S
H1470 C1478 0.950 . S
H1471 C1480 0.950 . S
H1472 C1482 0.950 . S
H1473 C1484 0.950 . S
H1474 C1486 0.950 . S
H1475 C1487 0.950 . S
C1476 H1468 0.950 . S
C1476 C1477 1.386 . S
C1476 C1478 1.391 . S
C1477 C1476 1.386 . S
C1477 C1481 1.393 . S
C1478 H1470 0.950 . S
C1478 C1476 1.391 . S
C1478 C1479 1.400 . S
C1479 C1478 1.400 . S
C1479 C1480 1.398 . S
C1479 C1485 1.491 . S
C1480 H1471 0.950 . S
C1480 C1479 1.398 . S
C1480 C1481 1.391 . S
C1481 H1469 0.950 . S
C1481 C1477 1.393 . S
C1481 C1480 1.391 . S
C1482 H1472 0.950 . S
C1482 C1483 1.386 . S
C1482 C1484 1.391 . S
C1483 C1482 1.386 . S
C1483 C1487 1.393 . S
C1484 H1473 0.950 . S
C1484 C1482 1.391 . S
C1484 C1485 1.400 . S
C1485 C1479 1.491 . S
C1485 C1484 1.400 . S
C1485 C1486 1.398 . S
C1486 H1474 0.950 . S
C1486 C1485 1.398 . S
C1486 C1487 1.391 . S
C1487 H1475 0.950 . S
C1487 C1483 1.393 . S
C1487 C1486 1.391 . S
H1488 C1496 0.950 . S
H1489 C1501 0.950 . S
H1490 C1498 0.950 . S
H1491 C1500 0.950 . S
H1492 C1502 0.950 . S
H1493 C1504 0.950 . S
H1494 C1506 0.950 . S
H1495 C1507 0.950 . S
C1496 H1488 0.950 . S
C1496 C1497 1.386 . S
C1496 C1498 1.391 . S
C1497 C1496 1.386 . S
C1497 C1501 1.393 . S
C1498 H1490 0.950 . S
C1498 C1496 1.391 . S
C1498 C1499 1.400 . S
C1499 C1498 1.400 . S
C1499 C1500 1.398 . S
C1499 C1505 1.491 . S
C1500 H1491 0.950 . S
C1500 C1499 1.398 . S
C1500 C1501 1.391 . S
C1501 H1489 0.950 . S
C1501 C1497 1.393 . S
C1501 C1500 1.391 . S
C1502 H1492 0.950 . S
C1502 C1503 1.386 . S
C1502 C1504 1.391 . S
C1503 C1502 1.386 . S
C1503 C1507 1.393 . S
C1504 H1493 0.950 . S
C1504 C1502 1.391 . S
C1504 C1505 1.400 . S
C1505 C1499 1.491 . S
C1505 C1504 1.400 . S
C1505 C1506 1.398 . S
C1506 H1494 0.950 . S
C1506 C1505 1.398 . S
C1506 C1507 1.391 . S
C1507 H1495 0.950 . S
C1507 C1503 1.393 . S
C1507 C1506 1.391 . S
H1508 C1516 0.950 . S
H1509 C1521 0.950 . S
H1510 C1518 0.950 . S
H1511 C1520 0.950 . S
H1512 C1522 0.950 . S
H1513 C1524 0.950 . S
H1514 C1526 0.950 . S
H1515 C1527 0.950 . S
C1516 H1508 0.950 . S
C1516 C1517 1.386 . S
C1516 C1518 1.391 . S
C1517 C1516 1.386 . S
C1517 C1521 1.393 . S
C1518 H1510 0.950 . S
C1518 C1516 1.391 . S
C1518 C1519 1.400 . S
C1519 C1518 1.400 . S
C1519 C1520 1.398 . S
C1519 C1525 1.491 . S
C1520 H1511 0.950 . S
C1520 C1519 1.398 . S
C1520 C1521 1.391 . S
C1521 H1509 0.950 . S
C1521 C1517 1.393 . S
C1521 C1520 1.391 . S
C1522 H1512 0.950 . S
C1522 C1523 1.386 . S
C1522 C1524 1.391 . S
C1523 C1522 1.386 . S
C1523 C1527 1.393 . S
C1524 H1513 0.950 . S
C1524 C1522 1.391 . S
C1524 C1525 1.400 . S
C1525 C1519 1.491 . S
C1525 C1524 1.400 . S
C1525 C1526 1.398 . S
C1526 H1514 0.950 . S
C1526 C1525 1.398 . S
C1526 C1527 1.391 . S
C1527 H1515 0.950 . S
C1527 C1523 1.393 . S
C1527 C1526 1.391 . S
H1528 C1536 0.950 . S
H1529 C1541 0.950 . S
H1530 C1538 0.950 . S
H1531 C1540 0.950 . S
H1532 C1542 0.950 . S
H1533 C1544 0.950 . S
H1534 C1546 0.950 . S
H1535 C1547 0.950 1_655 S
C1536 H1528 0.950 . S
C1536 C1537 1.386 . S
C1536 C1538 1.391 . S
C1537 C1536 1.386 . S
C1537 C1541 1.393 . S
C1538 H1530 0.950 . S
C1538 C1536 1.391 . S
C1538 C1539 1.400 . S
C1539 C1538 1.400 . S
C1539 C1540 1.398 . S
C1539 C1545 1.491 . S
C1540 H1531 0.950 . S
C1540 C1539 1.398 . S
C1540 C1541 1.391 . S
C1541 H1529 0.950 . S
C1541 C1537 1.393 . S
C1541 C1540 1.391 . S
C1542 H1532 0.950 . S
C1542 C1543 1.386 . S
C1542 C1544 1.391 . S
C1543 C1542 1.386 . S
C1543 C1547 1.393 . S
C1544 H1533 0.950 . S
C1544 C1542 1.391 . S
C1544 C1545 1.400 . S
C1545 C1539 1.491 . S
C1545 C1544 1.400 . S
C1545 C1546 1.398 . S
C1546 H1534 0.950 . S
C1546 C1545 1.398 . S
C1546 C1547 1.391 . S
C1547 H1535 0.950 1_455 S
C1547 C1543 1.393 . S
C1547 C1546 1.391 . S
H1548 C1556 0.950 . S
H1549 C1561 0.950 . S
H1550 C1558 0.950 . S
H1551 C1560 0.950 . S
H1552 C1562 0.950 . S
H1553 C1564 0.950 . S
H1554 C1566 0.950 . S
H1555 C1567 0.950 . S
C1556 H1548 0.950 . S
C1556 C1557 1.386 . S
C1556 C1558 1.391 . S
C1557 C1556 1.386 . S
C1557 C1561 1.393 . S
C1558 H1550 0.950 . S
C1558 C1556 1.391 . S
C1558 C1559 1.400 . S
C1559 C1558 1.400 . S
C1559 C1560 1.398 . S
C1559 C1565 1.491 . S
C1560 H1551 0.950 . S
C1560 C1559 1.398 . S
C1560 C1561 1.391 . S
C1561 H1549 0.950 . S
C1561 C1557 1.393 . S
C1561 C1560 1.391 . S
C1562 H1552 0.950 . S
C1562 C1563 1.386 . S
C1562 C1564 1.391 . S
C1563 C1562 1.386 . S
C1563 C1567 1.393 . S
C1564 H1553 0.950 . S
C1564 C1562 1.391 . S
C1564 C1565 1.400 . S
C1565 C1559 1.491 . S
C1565 C1564 1.400 . S
C1565 C1566 1.398 . S
C1566 H1554 0.950 . S
C1566 C1565 1.398 . S
C1566 C1567 1.391 . S
C1567 H1555 0.950 . S
C1567 C1563 1.393 . S
C1567 C1566 1.391 . S
H1568 C1576 0.950 . S
H1569 C1581 0.950 1_455 S
H1570 C1578 0.950 . S
H1571 C1580 0.950 . S
H1572 C1582 0.950 . S
H1573 C1584 0.950 . S
H1574 C1586 0.950 . S
H1575 C1587 0.950 . S
C1576 H1568 0.950 . S
C1576 C1577 1.386 . S
C1576 C1578 1.391 . S
C1577 C1576 1.386 . S
C1577 C1581 1.393 . S
C1578 H1570 0.950 . S
C1578 C1576 1.391 . S
C1578 C1579 1.400 . S
C1579 C1578 1.400 . S
C1579 C1580 1.398 . S
C1579 C1585 1.491 . S
C1580 H1571 0.950 . S
C1580 C1579 1.398 . S
C1580 C1581 1.391 . S
C1581 H1569 0.950 1_655 S
C1581 C1577 1.393 . S
C1581 C1580 1.391 . S
C1582 H1572 0.950 . S
C1582 C1583 1.386 . S
C1582 C1584 1.391 . S
C1583 C1582 1.386 . S
C1583 C1587 1.393 . S
C1584 H1573 0.950 . S
C1584 C1582 1.391 . S
C1584 C1585 1.400 . S
C1585 C1579 1.491 . S
C1585 C1584 1.400 . S
C1585 C1586 1.398 . S
C1586 H1574 0.950 . S
C1586 C1585 1.398 . S
C1586 C1587 1.391 . S
C1587 H1575 0.950 . S
C1587 C1583 1.393 . S
C1587 C1586 1.391 . S
H1588 C1596 0.950 . S
H1589 C1601 0.950 . S
H1590 C1598 0.950 . S
H1591 C1600 0.950 . S
H1592 C1602 0.950 . S
H1593 C1604 0.950 . S
H1594 C1606 0.950 . S
H1595 C1607 0.950 . S
C1596 H1588 0.950 . S
C1596 C1597 1.386 . S
C1596 C1598 1.391 . S
C1597 C1596 1.386 . S
C1597 C1601 1.393 . S
C1598 H1590 0.950 . S
C1598 C1596 1.391 . S
C1598 C1599 1.400 . S
C1599 C1598 1.400 . S
C1599 C1600 1.398 . S
C1599 C1605 1.491 . S
C1600 H1591 0.950 . S
C1600 C1599 1.398 . S
C1600 C1601 1.391 . S
C1601 H1589 0.950 . S
C1601 C1597 1.393 . S
C1601 C1600 1.391 . S
C1602 H1592 0.950 . S
C1602 C1603 1.386 . S
C1602 C1604 1.391 . S
C1603 C1602 1.386 . S
C1603 C1607 1.393 . S
C1604 H1593 0.950 . S
C1604 C1602 1.391 . S
C1604 C1605 1.400 . S
C1605 C1599 1.491 . S
C1605 C1604 1.400 . S
C1605 C1606 1.398 . S
C1606 H1594 0.950 . S
C1606 C1605 1.398 . S
C1606 C1607 1.391 . S
C1607 H1595 0.950 . S
C1607 C1603 1.393 . S
C1607 C1606 1.391 . S
H1608 C1616 0.950 . S
H1609 C1621 0.950 . S
H1610 C1618 0.950 . S
H1611 C1620 0.950 . S
H1612 C1622 0.950 . S
H1613 C1624 0.950 . S
H1614 C1626 0.950 . S
H1615 C1627 0.950 . S
C1616 H1608 0.950 . S
C1616 C1617 1.386 . S
C1616 C1618 1.391 . S
C1617 C1616 1.386 . S
C1617 C1621 1.393 . S
C1618 H1610 0.950 . S
C1618 C1616 1.391 . S
C1618 C1619 1.400 . S
C1619 C1618 1.400 . S
C1619 C1620 1.398 . S
C1619 C1625 1.491 . S
C1620 H1611 0.950 . S
C1620 C1619 1.398 . S
C1620 C1621 1.391 . S
C1621 H1609 0.950 . S
C1621 C1617 1.393 . S
C1621 C1620 1.391 . S
C1622 H1612 0.950 . S
C1622 C1623 1.386 . S
C1622 C1624 1.391 . S
C1623 C1622 1.386 . S
C1623 C1627 1.393 . S
C1624 H1613 0.950 . S
C1624 C1622 1.391 . S
C1624 C1625 1.400 . S
C1625 C1619 1.491 . S
C1625 C1624 1.400 . S
C1625 C1626 1.398 . S
C1626 H1614 0.950 . S
C1626 C1625 1.398 . S
C1626 C1627 1.391 . S
C1627 H1615 0.950 . S
C1627 C1623 1.393 . S
C1627 C1626 1.391 . S
H1628 C1636 0.950 . S
H1629 C1641 0.950 . S
H1630 C1638 0.950 . S
H1631 C1640 0.950 . S
H1632 C1642 0.950 . S
H1633 C1644 0.950 . S
H1634 C1646 0.950 . S
H1635 C1647 0.950 . S
C1636 H1628 0.950 . S
C1636 C1637 1.386 . S
C1636 C1638 1.391 . S
C1637 C1636 1.386 . S
C1637 C1641 1.393 . S
C1638 H1630 0.950 . S
C1638 C1636 1.391 . S
C1638 C1639 1.400 . S
C1639 C1638 1.400 . S
C1639 C1640 1.398 . S
C1639 C1645 1.491 . S
C1640 H1631 0.950 . S
C1640 C1639 1.398 . S
C1640 C1641 1.391 . S
C1641 H1629 0.950 . S
C1641 C1637 1.393 . S
C1641 C1640 1.391 . S
C1642 H1632 0.950 . S
C1642 C1643 1.386 . S
C1642 C1644 1.391 . S
C1643 C1642 1.386 . S
C1643 C1647 1.393 . S
C1644 H1633 0.950 . S
C1644 C1642 1.391 . S
C1644 C1645 1.400 . S
C1645 C1639 1.491 . S
C1645 C1644 1.400 . S
C1645 C1646 1.398 . S
C1646 H1634 0.950 . S
C1646 C1645 1.398 . S
C1646 C1647 1.391 . S
C1647 H1635 0.950 . S
C1647 C1643 1.393 . S
C1647 C1646 1.391 . S
H1648 C1656 0.950 . S
H1649 C1661 0.950 . S
H1650 C1658 0.950 . S
H1651 C1660 0.950 . S
H1652 C1662 0.950 . S
H1653 C1664 0.950 . S
H1654 C1666 0.950 . S
H1655 C1667 0.950 . S
C1656 H1648 0.950 . S
C1656 C1657 1.386 . S
C1656 C1658 1.391 . S
C1657 C1656 1.386 . S
C1657 C1661 1.393 . S
C1658 H1650 0.950 . S
C1658 C1656 1.391 . S
C1658 C1659 1.400 . S
C1659 C1658 1.400 . S
C1659 C1660 1.398 . S
C1659 C1665 1.491 . S
C1660 H1651 0.950 . S
C1660 C1659 1.398 . S
C1660 C1661 1.391 . S
C1661 H1649 0.950 . S
C1661 C1657 1.393 . S
C1661 C1660 1.391 . S
C1662 H1652 0.950 . S
C1662 C1663 1.386 . S
C1662 C1664 1.391 . S
C1663 C1662 1.386 . S
C1663 C1667 1.393 . S
C1664 H1653 0.950 . S
C1664 C1662 1.391 . S
C1664 C1665 1.400 . S
C1665 C1659 1.491 . S
C1665 C1664 1.400 . S
C1665 C1666 1.398 . S
C1666 H1654 0.950 . S
C1666 C1665 1.398 . S
C1666 C1667 1.391 . S
C1667 H1655 0.950 . S
C1667 C1663 1.393 . S
C1667 C1666 1.391 . S
H1668 C1676 0.950 . S
H1669 C1681 0.950 . S
H1670 C1678 0.950 . S
H1671 C1680 0.950 . S
H1672 C1682 0.950 . S
H1673 C1684 0.950 . S
H1674 C1686 0.950 . S
H1675 C1687 0.950 . S
C1676 H1668 0.950 . S
C1676 C1677 1.386 . S
C1676 C1678 1.391 . S
C1677 C1676 1.386 . S
C1677 C1681 1.393 . S
C1678 H1670 0.950 . S
C1678 C1676 1.391 . S
C1678 C1679 1.400 . S
C1679 C1678 1.400 . S
C1679 C1680 1.398 . S
C1679 C1685 1.491 . S
C1680 H1671 0.950 . S
C1680 C1679 1.398 . S
C1680 C1681 1.391 . S
C1681 H1669 0.950 . S
C1681 C1677 1.393 . S
C1681 C1680 1.391 . S
C1682 H1672 0.950 . S
C1682 C1683 1.386 . S
C1682 C1684 1.391 . S
C1683 C1682 1.386 . S
C1683 C1687 1.393 . S
C1684 H1673 0.950 . S
C1684 C1682 1.391 . S
C1684 C1685 1.400 . S
C1685 C1679 1.491 . S
C1685 C1684 1.400 . S
C1685 C1686 1.398 . S
C1686 H1674 0.950 . S
C1686 C1685 1.398 . S
C1686 C1687 1.391 . S
C1687 H1675 0.950 . S
C1687 C1683 1.393 . S
C1687 C1686 1.391 . S
H1688 C1696 0.950 . S
H1689 C1701 0.950 1_655 S
H1690 C1698 0.950 . S
H1691 C1700 0.950 . S
H1692 C1702 0.950 . S
H1693 C1704 0.950 . S
H1694 C1706 0.950 . S
H1695 C1707 0.950 . S
C1696 H1688 0.950 . S
C1696 C1697 1.386 . S
C1696 C1698 1.391 . S
C1697 C1696 1.386 . S
C1697 C1701 1.393 . S
C1698 H1690 0.950 . S
C1698 C1696 1.391 . S
C1698 C1699 1.400 . S
C1699 C1698 1.400 . S
C1699 C1700 1.398 . S
C1699 C1705 1.491 . S
C1700 H1691 0.950 . S
C1700 C1699 1.398 . S
C1700 C1701 1.391 . S
C1701 H1689 0.950 1_455 S
C1701 C1697 1.393 . S
C1701 C1700 1.391 . S
C1702 H1692 0.950 . S
C1702 C1703 1.386 . S
C1702 C1704 1.391 . S
C1703 C1702 1.386 . S
C1703 C1707 1.393 . S
C1704 H1693 0.950 . S
C1704 C1702 1.391 . S
C1704 C1705 1.400 . S
C1705 C1699 1.491 . S
C1705 C1704 1.400 . S
C1705 C1706 1.398 . S
C1706 H1694 0.950 . S
C1706 C1705 1.398 . S
C1706 C1707 1.391 . S
C1707 H1695 0.950 . S
C1707 C1703 1.393 . S
C1707 C1706 1.391 . S
H1708 C1716 0.950 . S
H1709 C1721 0.950 . S
H1710 C1718 0.950 . S
H1711 C1720 0.950 . S
H1712 C1722 0.950 . S
H1713 C1724 0.950 . S
H1714 C1726 0.950 . S
H1715 C1727 0.950 . S
C1716 H1708 0.950 . S
C1716 C1717 1.386 . S
C1716 C1718 1.391 . S
C1717 C1716 1.386 . S
C1717 C1721 1.393 . S
C1718 H1710 0.950 . S
C1718 C1716 1.391 . S
C1718 C1719 1.400 . S
C1719 C1718 1.400 . S
C1719 C1720 1.398 . S
C1719 C1725 1.491 . S
C1720 H1711 0.950 . S
C1720 C1719 1.398 . S
C1720 C1721 1.391 . S
C1721 H1709 0.950 . S
C1721 C1717 1.393 . S
C1721 C1720 1.391 . S
C1722 H1712 0.950 . S
C1722 C1723 1.386 . S
C1722 C1724 1.391 . S
C1723 C1722 1.386 . S
C1723 C1727 1.393 . S
C1724 H1713 0.950 . S
C1724 C1722 1.391 . S
C1724 C1725 1.400 . S
C1725 C1719 1.491 . S
C1725 C1724 1.400 . S
C1725 C1726 1.398 . S
C1726 H1714 0.950 . S
C1726 C1725 1.398 . S
C1726 C1727 1.391 . S
C1727 H1715 0.950 . S
C1727 C1723 1.393 . S
C1727 C1726 1.391 . S
C457 C51 1.219 . S
C463 C9 1.213 . S
C477 C37 1.221 . S
C483 C23 1.216 . S
C497 C107 1.210 . S
C503 C65 1.201 . S
C517 C93 1.198 . S
C523 C79 1.207 . S
C537 C121 1.201 . S
C543 C163 1.194 . S
C557 C135 1.217 . S
C563 C149 1.221 . S
C577 C219 1.214 . S
C583 C177 1.206 . S
C597 C191 1.203 . S
C603 C205 1.212 . S
C617 C233 1.203 . S
C623 C275 1.212 . S
C637 C247 1.221 . S
C643 C261 1.218 . S
C657 C331 1.193 . S
C663 C289 1.192 . S
C677 C317 1.219 . S
C683 C303 1.212 . S
C697 C387 1.214 . S
C703 C345 1.220 . S
C717 C359 1.210 . S
C723 C373 1.201 . S
C737 C401 1.193 . S
C743 C443 1.192 . S
C757 C415 1.221 . S
C763 C429 1.218 . S
C777 C287 1.410 . S
C783 C7 1.410 . S
C797 C189 1.419 . S
C803 C21 1.419 . S
C817 C35 1.415 . S
C823 C427 1.415 . S
C837 C49 1.413 . S
C843 C105 1.413 . S
C857 C231 1.402 . S
C863 C63 1.402 . S
C877 C133 1.404 . S
C883 C77 1.404 . S
C897 C371 1.402 . S
C903 C91 1.402 . S
C917 C119 1.417 . S
C923 C399 1.417 . S
C937 C315 1.416 . S
C943 C147 1.416 . S
C957 C217 1.413 . S
C963 C161 1.413 . S
C977 C343 1.403 . S
C983 C175 1.403 . S
C997 C203 1.416 . S
C1003 C259 1.416 . S
C1017 C413 1.409 . S
C1023 C245 1.409 . S
C1037 C273 1.404 . S
C1043 C329 1.404 . S
C1057 C357 1.417 . S
C1063 C301 1.417 . S
C1077 C441 1.413 . S
C1083 C385 1.413 . S
C1097 C22 1.330 . S
C1103 C8 1.331 . S
C1117 C36 1.348 . S
C1123 C50 1.348 . S
C1137 C64 1.344 . S
C1143 C78 1.343 . S
C1157 C106 1.348 . S
C1163 C92 1.348 . S
C1177 C120 1.326 . S
C1183 C134 1.326 . S
C1197 C148 1.325 . S
C1203 C162 1.325 . S
C1217 C190 1.340 . S
C1223 C176 1.341 . S
C1237 C204 1.347 . S
C1243 C218 1.347 . S
C1257 C232 1.330 . S
C1263 C246 1.329 . S
C1277 C260 1.337 . S
C1283 C274 1.336 . S
C1297 C288 1.339 . S
C1303 C302 1.339 . S
C1317 C330 1.341 . S
C1323 C316 1.340 . S
C1337 C358 1.326 . S
C1343 C344 1.326 . S
C1357 C372 1.328 . S
C1363 C386 1.329 . S
C1377 C400 1.339 . S
C1383 C414 1.338 . S
C1397 C442 1.328 . S
C1403 C428 1.328 . S
C1417 C6 1.547 . S
C1423 C272 1.553 . S
C1437 C20 1.548 . S
C1443 C258 1.554 . S
C1457 C244 1.547 . S
C1463 C34 1.552 . S
C1477 C48 1.556 . S
C1483 C230 1.549 . S
C1497 C328 1.561 . S
C1503 C62 1.559 . S
C1517 C76 1.550 . S
C1523 C314 1.547 . S
C1537 C300 1.553 . S
C1543 C90 1.559 . S
C1557 C104 1.554 . S
C1563 C286 1.548 . S
C1577 C118 1.559 . S
C1583 C384 1.553 . S
C1597 C132 1.561 . S
C1603 C370 1.556 . S
C1617 C146 1.547 . S
C1623 C356 1.548 . S
C1637 C342 1.561 . S
C1643 C160 1.558 . S
C1657 C174 1.557 . S
C1663 C440 1.561 . S
C1677 C188 1.550 . S
C1683 C426 1.546 . S
C1697 C202 1.550 . S
C1703 C412 1.556 . S
C1717 C398 1.560 . S
C1723 C216 1.555 . S
