# Generated by pormake.
# Topology wlm, (5)-cn, num edge types: 1
# Building blocks:
#     Node 0, Type 0, BuildingBlock: XOMCOT_clean_sbu_0, # of connection points: 5
#     Node 1, Type 0, BuildingBlock: XOMCOT_clean_sbu_0, # of connection points: 5
#     Node 2, Type 0, BuildingBlock: XOMCOT_clean_sbu_0, # of connection points: 5
#     Node 3, Type 0, BuildingBlock: XOMCOT_clean_sbu_0, # of connection points: 5
#     Node 4, Type 0, BuildingBlock: XOMCOT_clean_sbu_0, # of connection points: 5
#     Node 5, Type 0, BuildingBlock: XOMCOT_clean_sbu_0, # of connection points: 5
#     Node 6, Type 0, BuildingBlock: XOMCOT_clean_sbu_0, # of connection points: 5
#     Node 7, Type 0, BuildingBlock: XOMCOT_clean_sbu_0, # of connection points: 5
#     Node 8, Type 0, BuildingBlock: XOMCOT_clean_sbu_0, # of connection points: 5
#     Node 9, Type 0, BuildingBlock: XOMCOT_clean_sbu_0, # of connection points: 5
#     Node 10, Type 0, BuildingBlock: XOMCOT_clean_sbu_0, # of connection points: 5
#     Node 11, Type 0, BuildingBlock: XOMCOT_clean_sbu_0, # of connection points: 5
#     Node 12, Type 0, BuildingBlock: XOMCOT_clean_sbu_0, # of connection points: 5
#     Node 13, Type 0, BuildingBlock: XOMCOT_clean_sbu_0, # of connection points: 5
#     Node 14, Type 0, BuildingBlock: XOMCOT_clean_sbu_0, # of connection points: 5
#     Node 15, Type 0, BuildingBlock: XOMCOT_clean_sbu_0, # of connection points: 5
#     Node 16, Type 0, BuildingBlock: XOMCOT_clean_sbu_0, # of connection points: 5
#     Node 17, Type 0, BuildingBlock: XOMCOT_clean_sbu_0, # of connection points: 5
#     Node 18, Type 0, BuildingBlock: XOMCOT_clean_sbu_0, # of connection points: 5
#     Node 19, Type 0, BuildingBlock: XOMCOT_clean_sbu_0, # of connection points: 5
#     Node 20, Type 0, BuildingBlock: XOMCOT_clean_sbu_0, # of connection points: 5
#     Node 21, Type 0, BuildingBlock: XOMCOT_clean_sbu_0, # of connection points: 5
#     Node 22, Type 0, BuildingBlock: XOMCOT_clean_sbu_0, # of connection points: 5
#     Node 23, Type 0, BuildingBlock: XOMCOT_clean_sbu_0, # of connection points: 5
#     Node 24, Type 0, BuildingBlock: XOMCOT_clean_sbu_0, # of connection points: 5
#     Node 25, Type 0, BuildingBlock: XOMCOT_clean_sbu_0, # of connection points: 5
#     Node 26, Type 0, BuildingBlock: XOMCOT_clean_sbu_0, # of connection points: 5
#     Node 27, Type 0, BuildingBlock: XOMCOT_clean_sbu_0, # of connection points: 5
#     Node 28, Type 0, BuildingBlock: XOMCOT_clean_sbu_0, # of connection points: 5
#     Node 29, Type 0, BuildingBlock: XOMCOT_clean_sbu_0, # of connection points: 5
#     Node 30, Type 0, BuildingBlock: XOMCOT_clean_sbu_0, # of connection points: 5
#     Node 31, Type 0, BuildingBlock: XOMCOT_clean_sbu_0, # of connection points: 5
#     Node 32, Type 0, BuildingBlock: XOMCOT_clean_sbu_0, # of connection points: 5
#     Node 33, Type 0, BuildingBlock: XOMCOT_clean_sbu_0, # of connection points: 5
#     Node 34, Type 0, BuildingBlock: XOMCOT_clean_sbu_0, # of connection points: 5
#     Node 35, Type 0, BuildingBlock: XOMCOT_clean_sbu_0, # of connection points: 5
#     Edge 36, Type (0, 0), BuildingBlock: CIFDUS_clean_linker_0, # of connection points: 2
#     Edge 37, Type (0, 0), BuildingBlock: CIFDUS_clean_linker_0, # of connection points: 2
#     Edge 38, Type (0, 0), BuildingBlock: CIFDUS_clean_linker_0, # of connection points: 2
#     Edge 39, Type (0, 0), BuildingBlock: CIFDUS_clean_linker_0, # of connection points: 2
#     Edge 40, Type (0, 0), BuildingBlock: CIFDUS_clean_linker_0, # of connection points: 2
#     Edge 41, Type (0, 0), BuildingBlock: CIFDUS_clean_linker_0, # of connection points: 2
#     Edge 42, Type (0, 0), BuildingBlock: CIFDUS_clean_linker_0, # of connection points: 2
#     Edge 43, Type (0, 0), BuildingBlock: CIFDUS_clean_linker_0, # of connection points: 2
#     Edge 44, Type (0, 0), BuildingBlock: CIFDUS_clean_linker_0, # of connection points: 2
#     Edge 45, Type (0, 0), BuildingBlock: CIFDUS_clean_linker_0, # of connection points: 2
#     Edge 46, Type (0, 0), BuildingBlock: CIFDUS_clean_linker_0, # of connection points: 2
#     Edge 47, Type (0, 0), BuildingBlock: CIFDUS_clean_linker_0, # of connection points: 2
#     Edge 48, Type (0, 0), BuildingBlock: CIFDUS_clean_linker_0, # of connection points: 2
#     Edge 49, Type (0, 0), BuildingBlock: CIFDUS_clean_linker_0, # of connection points: 2
#     Edge 50, Type (0, 0), BuildingBlock: CIFDUS_clean_linker_0, # of connection points: 2
#     Edge 51, Type (0, 0), BuildingBlock: CIFDUS_clean_linker_0, # of connection points: 2
#     Edge 52, Type (0, 0), BuildingBlock: CIFDUS_clean_linker_0, # of connection points: 2
#     Edge 53, Type (0, 0), BuildingBlock: CIFDUS_clean_linker_0, # of connection points: 2
#     Edge 54, Type (0, 0), BuildingBlock: CIFDUS_clean_linker_0, # of connection points: 2
#     Edge 55, Type (0, 0), BuildingBlock: CIFDUS_clean_linker_0, # of connection points: 2
#     Edge 56, Type (0, 0), BuildingBlock: CIFDUS_clean_linker_0, # of connection points: 2
#     Edge 57, Type (0, 0), BuildingBlock: CIFDUS_clean_linker_0, # of connection points: 2
#     Edge 58, Type (0, 0), BuildingBlock: CIFDUS_clean_linker_0, # of connection points: 2
#     Edge 59, Type (0, 0), BuildingBlock: CIFDUS_clean_linker_0, # of connection points: 2
#     Edge 60, Type (0, 0), BuildingBlock: CIFDUS_clean_linker_0, # of connection points: 2
#     Edge 61, Type (0, 0), BuildingBlock: CIFDUS_clean_linker_0, # of connection points: 2
#     Edge 62, Type (0, 0), BuildingBlock: CIFDUS_clean_linker_0, # of connection points: 2
#     Edge 63, Type (0, 0), BuildingBlock: CIFDUS_clean_linker_0, # of connection points: 2
#     Edge 64, Type (0, 0), BuildingBlock: CIFDUS_clean_linker_0, # of connection points: 2
#     Edge 65, Type (0, 0), BuildingBlock: CIFDUS_clean_linker_0, # of connection points: 2
#     Edge 66, Type (0, 0), BuildingBlock: CIFDUS_clean_linker_0, # of connection points: 2
#     Edge 67, Type (0, 0), BuildingBlock: CIFDUS_clean_linker_0, # of connection points: 2
#     Edge 68, Type (0, 0), BuildingBlock: CIFDUS_clean_linker_0, # of connection points: 2
#     Edge 69, Type (0, 0), BuildingBlock: CIFDUS_clean_linker_0, # of connection points: 2
#     Edge 70, Type (0, 0), BuildingBlock: CIFDUS_clean_linker_0, # of connection points: 2
#     Edge 71, Type (0, 0), BuildingBlock: CIFDUS_clean_linker_0, # of connection points: 2
#     Edge 72, Type (0, 0), BuildingBlock: CIFDUS_clean_linker_0, # of connection points: 2
#     Edge 73, Type (0, 0), BuildingBlock: CIFDUS_clean_linker_0, # of connection points: 2
#     Edge 74, Type (0, 0), BuildingBlock: CIFDUS_clean_linker_0, # of connection points: 2
#     Edge 75, Type (0, 0), BuildingBlock: CIFDUS_clean_linker_0, # of connection points: 2
#     Edge 76, Type (0, 0), BuildingBlock: CIFDUS_clean_linker_0, # of connection points: 2
#     Edge 77, Type (0, 0), BuildingBlock: CIFDUS_clean_linker_0, # of connection points: 2
#     Edge 78, Type (0, 0), BuildingBlock: CIFDUS_clean_linker_0, # of connection points: 2
#     Edge 79, Type (0, 0), BuildingBlock: CIFDUS_clean_linker_0, # of connection points: 2
#     Edge 80, Type (0, 0), BuildingBlock: CIFDUS_clean_linker_0, # of connection points: 2
#     Edge 81, Type (0, 0), BuildingBlock: CIFDUS_clean_linker_0, # of connection points: 2
#     Edge 82, Type (0, 0), BuildingBlock: CIFDUS_clean_linker_0, # of connection points: 2
#     Edge 83, Type (0, 0), BuildingBlock: CIFDUS_clean_linker_0, # of connection points: 2
#     Edge 84, Type (0, 0), BuildingBlock: CIFDUS_clean_linker_0, # of connection points: 2
#     Edge 85, Type (0, 0), BuildingBlock: CIFDUS_clean_linker_0, # of connection points: 2
#     Edge 86, Type (0, 0), BuildingBlock: CIFDUS_clean_linker_0, # of connection points: 2
#     Edge 87, Type (0, 0), BuildingBlock: CIFDUS_clean_linker_0, # of connection points: 2
#     Edge 88, Type (0, 0), BuildingBlock: CIFDUS_clean_linker_0, # of connection points: 2
#     Edge 89, Type (0, 0), BuildingBlock: CIFDUS_clean_linker_0, # of connection points: 2
#     Edge 90, Type (0, 0), BuildingBlock: CIFDUS_clean_linker_0, # of connection points: 2
#     Edge 91, Type (0, 0), BuildingBlock: CIFDUS_clean_linker_0, # of connection points: 2
#     Edge 92, Type (0, 0), BuildingBlock: CIFDUS_clean_linker_0, # of connection points: 2
#     Edge 93, Type (0, 0), BuildingBlock: CIFDUS_clean_linker_0, # of connection points: 2
#     Edge 94, Type (0, 0), BuildingBlock: CIFDUS_clean_linker_0, # of connection points: 2
#     Edge 95, Type (0, 0), BuildingBlock: CIFDUS_clean_linker_0, # of connection points: 2
#     Edge 96, Type (0, 0), BuildingBlock: CIFDUS_clean_linker_0, # of connection points: 2
#     Edge 97, Type (0, 0), BuildingBlock: CIFDUS_clean_linker_0, # of connection points: 2
#     Edge 98, Type (0, 0), BuildingBlock: CIFDUS_clean_linker_0, # of connection points: 2
#     Edge 99, Type (0, 0), BuildingBlock: CIFDUS_clean_linker_0, # of connection points: 2
#     Edge 100, Type (0, 0), BuildingBlock: CIFDUS_clean_linker_0, # of connection points: 2
#     Edge 101, Type (0, 0), BuildingBlock: CIFDUS_clean_linker_0, # of connection points: 2
#     Edge 102, Type (0, 0), BuildingBlock: CIFDUS_clean_linker_0, # of connection points: 2
#     Edge 103, Type (0, 0), BuildingBlock: CIFDUS_clean_linker_0, # of connection points: 2
#     Edge 104, Type (0, 0), BuildingBlock: CIFDUS_clean_linker_0, # of connection points: 2
#     Edge 105, Type (0, 0), BuildingBlock: CIFDUS_clean_linker_0, # of connection points: 2
#     Edge 106, Type (0, 0), BuildingBlock: CIFDUS_clean_linker_0, # of connection points: 2
#     Edge 107, Type (0, 0), BuildingBlock: CIFDUS_clean_linker_0, # of connection points: 2
#     Edge 108, Type (0, 0), BuildingBlock: CIFDUS_clean_linker_0, # of connection points: 2
#     Edge 109, Type (0, 0), BuildingBlock: CIFDUS_clean_linker_0, # of connection points: 2
#     Edge 110, Type (0, 0), BuildingBlock: CIFDUS_clean_linker_0, # of connection points: 2
#     Edge 111, Type (0, 0), BuildingBlock: CIFDUS_clean_linker_0, # of connection points: 2
#     Edge 112, Type (0, 0), BuildingBlock: CIFDUS_clean_linker_0, # of connection points: 2
#     Edge 113, Type (0, 0), BuildingBlock: CIFDUS_clean_linker_0, # of connection points: 2
#     Edge 114, Type (0, 0), BuildingBlock: CIFDUS_clean_linker_0, # of connection points: 2
#     Edge 115, Type (0, 0), BuildingBlock: CIFDUS_clean_linker_0, # of connection points: 2
#     Edge 116, Type (0, 0), BuildingBlock: CIFDUS_clean_linker_0, # of connection points: 2
#     Edge 117, Type (0, 0), BuildingBlock: CIFDUS_clean_linker_0, # of connection points: 2
#     Edge 118, Type (0, 0), BuildingBlock: CIFDUS_clean_linker_0, # of connection points: 2
#     Edge 119, Type (0, 0), BuildingBlock: CIFDUS_clean_linker_0, # of connection points: 2
#     Edge 120, Type (0, 0), BuildingBlock: CIFDUS_clean_linker_0, # of connection points: 2
#     Edge 121, Type (0, 0), BuildingBlock: CIFDUS_clean_linker_0, # of connection points: 2
#     Edge 122, Type (0, 0), BuildingBlock: CIFDUS_clean_linker_0, # of connection points: 2
#     Edge 123, Type (0, 0), BuildingBlock: CIFDUS_clean_linker_0, # of connection points: 2
#     Edge 124, Type (0, 0), BuildingBlock: CIFDUS_clean_linker_0, # of connection points: 2
#     Edge 125, Type (0, 0), BuildingBlock: CIFDUS_clean_linker_0, # of connection points: 2
# Relax obj value: 0.125
# Max RMSD: 0.151
# Mean RMSD: 0.151
data_MOF--net-wlm--node1-XOMCOT_clean_sbu_0--edge1-CIFDUS_clean_linker_0
_symmetry_space_group_name_H-M    P1
_symmetry_Int_Tables_number       1
_symmetry_cell_setting            triclinic
loop_
_symmetry_equiv_pos_as_xyz
'x, y, z'
_cell_length_a     116.07255
_cell_length_b     116.05888
_cell_length_c     15.984637
_cell_angle_alpha  89.988784
_cell_angle_beta   89.982657
_cell_angle_gamma 119.96603
loop_
_atom_site_label
_atom_site_type_symbol
_atom_site_fract_x
_atom_site_fract_y
_atom_site_fract_z
_atom_type_partial_charge
Co0 Co 0.12349 0.39572 0.21695 0.0
C1 C 0.11951 0.39509 0.03166 0.0
C2 C 0.12469 0.38067 0.07252 0.0
C3 C 0.12389 0.38026 0.98668 0.0
N4 N 0.12186 0.38992 0.10109 0.0
N5 N 0.12067 0.38936 0.96085 0.0
H6 H 0.11738 0.40315 0.03241 0.0
H7 H 0.12781 0.37506 0.11095 0.0
C8 C 0.1082 0.36709 0.24651 0.0
O9 O 0.09836 0.36786 0.2117 0.0
N10 N 0.12525 0.40144 0.33212 0.0
C11 C 0.13324 0.41388 0.36028 0.0
C12 C 0.13249 0.41381 0.4462 0.0
C13 C 0.1197 0.39396 0.40097 0.0
N14 N 0.12401 0.40127 0.47189 0.0
C15 C 0.14997 0.40944 0.14992 0.0
C16 C 0.16096 0.40063 0.27003 0.0
C17 C 0.16883 0.40816 0.20264 0.0
C18 C 0.16326 0.41269 0.14231 0.0
C19 C 0.14767 0.39733 0.27417 0.0
N20 N 0.14229 0.40154 0.21385 0.0
H21 H 0.14569 0.41292 0.10321 0.0
H22 H 0.14163 0.39121 0.32535 0.0
H23 H 0.13953 0.42233 0.32114 0.0
H24 H 0.11282 0.38336 0.39924 0.0
O25 O 0.12385 0.41202 0.1832 0.0
O26 O 0.10573 0.39303 0.2148 0.0
O27 O 0.11952 0.37755 0.25448 0.0
C28 C 0.11098 0.4054 0.19265 0.0
H29 H 0.12625 0.37423 0.94635 0.0
H30 H 0.13824 0.42226 0.48665 0.0
H31 H 0.16492 0.39689 0.31753 0.0
H32 H 0.1691 0.41859 0.08963 0.0
Co33 Co 0.59662 0.72928 0.17033 0.0
C34 C 0.59596 0.72961 0.98558 0.0
C35 C 0.61377 0.73047 0.03114 0.0
C36 C 0.61408 0.7306 0.94495 0.0
N37 N 0.60243 0.7299 0.05631 0.0
N38 N 0.60287 0.73005 0.91618 0.0
H39 H 0.58631 0.72893 0.98537 0.0
H40 H 0.62128 0.73077 0.0725 0.0
C41 C 0.62064 0.75096 0.25608 0.0
O42 O 0.613 0.75459 0.29505 0.0
N43 N 0.59071 0.72822 0.28612 0.0
C44 C 0.57866 0.72567 0.31363 0.0
C45 C 0.5783 0.72479 0.39942 0.0
C46 C 0.59719 0.72802 0.35617 0.0
N47 N 0.59 0.72637 0.42637 0.0
C48 C 0.58209 0.74336 0.14825 0.0
C49 C 0.60388 0.76737 0.10346 0.0
C50 C 0.5916 0.76672 0.1148 0.0
C51 C 0.58052 0.75442 0.1353 0.0
C52 C 0.60499 0.75611 0.11764 0.0
N53 N 0.59439 0.74453 0.14575 0.0
H54 H 0.57336 0.73384 0.15845 0.0
H55 H 0.61446 0.75677 0.10599 0.0
H56 H 0.57031 0.72377 0.27503 0.0
H57 H 0.60699 0.72908 0.35575 0.0
O58 O 0.57912 0.71491 0.14069 0.0
O59 O 0.59592 0.71251 0.18538 0.0
O60 O 0.61574 0.74124 0.20468 0.0
C61 C 0.58366 0.70699 0.15966 0.0
H62 H 0.62207 0.73125 0.90673 0.0
H63 H 0.56986 0.72263 0.43865 0.0
H64 H 0.61266 0.77657 0.08561 0.0
H65 H 0.57072 0.75332 0.14043 0.0
Co66 Co 0.2676 0.87484 0.19516 0.0
C67 C 0.26685 0.87363 1.00716 0.0
C68 C 0.26679 0.89079 0.05523 0.0
C69 C 0.26664 0.89127 0.96922 0.0
N70 N 0.26654 0.87953 0.07937 0.0
N71 N 0.26663 0.88042 0.93902 0.0
H72 H 0.26791 0.86497 1.00334 0.0
H73 H 0.26711 0.89823 0.0975 0.0
C74 C 0.2442 0.87871 0.19169 0.0
O75 O 0.24048 0.87127 0.12408 0.0
N76 N 0.26908 0.87069 0.3101 0.0
C77 C 0.27065 0.86057 0.33694 0.0
C78 C 0.27113 0.86086 0.42292 0.0
C79 C 0.26874 0.87709 0.37964 0.0
N80 N 0.26991 0.87123 0.44975 0.0
C81 C 0.25451 0.84799 0.13065 0.0
C82 C 0.23181 0.83881 0.22671 0.0
C83 C 0.2326 0.83031 0.16801 0.0
C84 C 0.24417 0.83491 0.12032 0.0
C85 C 0.24223 0.85186 0.23351 0.0
N86 N 0.25306 0.8566 0.18191 0.0
H87 H 0.26382 0.85098 0.09985 0.0
H88 H 0.24164 0.85809 0.28152 0.0
H89 H 0.27135 0.85346 0.29667 0.0
H90 H 0.26747 0.88571 0.37888 0.0
O91 O 0.28229 0.87226 0.16661 0.0
O92 O 0.28408 0.89144 0.20573 0.0
O93 O 0.25491 0.88118 0.22948 0.0
C94 C 0.28991 0.88485 0.18269 0.0
H95 H 0.26649 0.89899 0.9321 0.0
H96 H 0.27246 0.85404 0.46252 0.0
H97 H 0.22318 0.8354 0.26679 0.0
H98 H 0.24537 0.82835 0.07752 0.0
Co99 Co 0.39691 0.12637 0.78609 0.0
C100 C 0.39734 0.12714 0.97067 0.0
C101 C 0.37977 0.10995 0.92523 0.0
C102 C 0.37953 0.10974 1.01159 0.0
N103 N 0.39092 0.12089 0.89991 0.0
N104 N 0.39061 0.12057 0.04029 0.0
H105 H 0.40686 0.13624 0.97066 0.0
H106 H 0.37235 0.10263 0.88391 0.0
C107 C 0.37349 0.12429 0.69768 0.0
O108 O 0.38171 0.13626 0.66882 0.0
N109 N 0.40311 0.13143 0.67065 0.0
C110 C 0.41525 0.14084 0.64376 0.0
C111 C 0.41572 0.14033 0.55782 0.0
C112 C 0.39674 0.12479 0.60021 0.0
N113 N 0.40403 0.13027 0.5303 0.0
C114 C 0.40927 0.15523 0.80143 0.0
C115 C 0.3864 0.15462 0.85669 0.0
C116 C 0.39755 0.16691 0.83797 0.0
C117 C 0.40929 0.16721 0.81331 0.0
C118 C 0.38684 0.143 0.84439 0.0
N119 N 0.39783 0.14331 0.81082 0.0
H120 H 0.41844 0.15562 0.78547 0.0
H121 H 0.37809 0.13364 0.85952 0.0
H122 H 0.42358 0.14715 0.6831 0.0
H123 H 0.38696 0.11604 0.60007 0.0
O124 O 0.41461 0.13054 0.81912 0.0
O125 O 0.39879 0.11092 0.77246 0.0
O126 O 0.3778 0.11856 0.74686 0.0
C127 C 0.41084 0.11822 0.80075 0.0
H128 H 0.3717 0.10224 0.04996 0.0
H129 H 0.42424 0.14654 0.51894 0.0
H130 H 0.37731 0.15398 0.87963 0.0
H131 H 0.41829 0.17656 0.80126 0.0
Co132 Co 0.87425 0.26503 0.85395 0.0
C133 C 0.87487 0.26464 0.04611 0.0
C134 C 0.88453 0.25503 0.98903 0.0
C135 C 0.88511 0.25403 0.07432 0.0
N136 N 0.87795 0.26151 0.96973 0.0
N137 N 0.87893 0.25992 0.11131 0.0
H138 H 0.86968 0.27013 0.05415 0.0
H139 H 0.88877 0.25117 0.94484 0.0
C140 C 0.89031 0.25468 0.77737 0.0
O141 O 0.89954 0.26718 0.76779 0.0
N142 N 0.87055 0.26858 0.73878 0.0
C143 C 0.86245 0.27347 0.72108 0.0
C144 C 0.86201 0.27491 0.63579 0.0
C145 C 0.87477 0.26692 0.66216 0.0
N146 N 0.86973 0.27081 0.59808 0.0
C147 C 0.84808 0.25148 0.9263 0.0
C148 C 0.83774 0.23026 0.81622 0.0
C149 C 0.82991 0.23012 0.88332 0.0
C150 C 0.83513 0.24096 0.93828 0.0
C151 C 0.85071 0.24082 0.80763 0.0
N152 N 0.85587 0.25104 0.86388 0.0
H153 H 0.85186 0.25994 0.96746 0.0
H154 H 0.85662 0.24073 0.75569 0.0
H155 H 0.85711 0.27579 0.76728 0.0
H156 H 0.88143 0.2631 0.65264 0.0
O157 O 0.8729 0.28014 0.89357 0.0
O158 O 0.89143 0.28088 0.85115 0.0
O159 O 0.87916 0.2518 0.81007 0.0
C160 C 0.88562 0.28717 0.87935 0.0
H161 H 0.88989 0.24935 0.10659 0.0
H162 H 0.85622 0.27854 0.6038 0.0
H163 H 0.83399 0.22209 0.77211 0.0
H164 H 0.82924 0.2413 0.98977 0.0
Co165 Co 0.72771 0.60148 0.82317 0.0
C166 C 0.72701 0.60035 1.00804 0.0
C167 C 0.72794 0.61817 0.96186 0.0
C168 C 0.72727 0.61817 0.04788 0.0
N169 N 0.72783 0.60703 0.93717 0.0
N170 N 0.72666 0.60695 0.07698 0.0
H171 H 0.72664 0.59085 1.00878 0.0
H172 H 0.7282 0.62564 0.92017 0.0
C173 C 0.74917 0.62596 0.73811 0.0
O174 O 0.75283 0.61862 0.69589 0.0
N175 N 0.72718 0.59589 0.70737 0.0
C176 C 0.7263 0.58454 0.67866 0.0
C177 C 0.72561 0.58438 0.59282 0.0
C178 C 0.72634 0.60213 0.63803 0.0
N179 N 0.72573 0.59549 0.56701 0.0
C180 C 0.74121 0.58669 0.85263 0.0
C181 C 0.76593 0.60837 0.88504 0.0
C182 C 0.76475 0.59579 0.87735 0.0
C183 C 0.75208 0.58479 0.86397 0.0
C184 C 0.75479 0.60979 0.87286 0.0
N185 N 0.74285 0.59917 0.84983 0.0
H186 H 0.73146 0.57807 0.84625 0.0
H187 H 0.75588 0.61949 0.88175 0.0
H188 H 0.72581 0.57661 0.71617 0.0
H189 H 0.72617 0.61136 0.63973 0.0
O190 O 0.71325 0.58388 0.85023 0.0
O191 O 0.71092 0.6007 0.80562 0.0
O192 O 0.73966 0.62073 0.79105 0.0
C193 C 0.70535 0.58839 0.83032 0.0
H194 H 0.72684 0.62568 0.08574 0.0
H195 H 0.72523 0.57669 0.55268 0.0
H196 H 0.77544 0.61712 0.89797 0.0
H197 H 0.75058 0.5748 0.86217 0.0
Co198 Co 0.87838 0.60775 0.82804 0.0
C199 C 0.87999 0.60861 0.01861 0.0
C200 C 0.89632 0.62538 0.9588 0.0
C201 C 0.89816 0.62672 0.04407 0.0
N202 N 0.88495 0.61406 0.94198 0.0
N203 N 0.88797 0.61619 0.08267 0.0
H204 H 0.87089 0.59922 0.02713 0.0
H205 H 0.90293 0.63221 0.91198 0.0
C206 C 0.87929 0.63137 0.74582 0.0
O207 O 0.86719 0.62349 0.71766 0.0
N208 N 0.87217 0.60138 0.71207 0.0
C209 C 0.86281 0.5889 0.6907 0.0
C210 C 0.8615 0.58786 0.60513 0.0
C211 C 0.87699 0.60752 0.63648 0.0
N212 N 0.87033 0.59955 0.57018 0.0
C213 C 0.85011 0.59307 0.86235 0.0
C214 C 0.84818 0.61479 0.9134 0.0
C215 C 0.8365 0.60245 0.90553 0.0
C216 C 0.83763 0.59141 0.88219 0.0
C217 C 0.86042 0.61597 0.89317 0.0
N218 N 0.86117 0.6054 0.86184 0.0
H219 H 0.85084 0.58438 0.84918 0.0
H220 H 0.8693 0.62549 0.90185 0.0
H221 H 0.85763 0.58071 0.73333 0.0
H222 H 0.88516 0.61759 0.62983 0.0
O223 O 0.87586 0.59042 0.85701 0.0
O224 O 0.8943 0.60724 0.80398 0.0
O225 O 0.88501 0.62669 0.79162 0.0
C226 C 0.88805 0.59506 0.83131 0.0
H227 H 0.90643 0.63499 0.07518 0.0
H228 H 0.85478 0.57895 0.57089 0.0
H229 H 0.84791 0.62358 0.93298 0.0
H230 H 0.82897 0.58155 0.87978 0.0
Co231 Co 0.39423 0.27346 0.84094 0.0
C232 C 0.39547 0.27433 0.02582 0.0
C233 C 0.37762 0.27334 0.97966 0.0
C234 C 0.37758 0.27394 0.06568 0.0
N235 N 0.3888 0.27353 0.95496 0.0
N236 N 0.38881 0.27459 0.09472 0.0
H237 H 0.40497 0.27471 0.02666 0.0
H238 H 0.37013 0.27302 0.93798 0.0
C239 C 0.36966 0.2514 0.76012 0.0
O240 O 0.3771 0.24778 0.71851 0.0
N241 N 0.39969 0.27377 0.72502 0.0
C242 C 0.41129 0.27522 0.69638 0.0
C243 C 0.41138 0.27574 0.61054 0.0
C244 C 0.39321 0.27412 0.65551 0.0
N245 N 0.39997 0.27498 0.58457 0.0
C246 C 0.40921 0.26014 0.86932 0.0
C247 C 0.38772 0.23548 0.90522 0.0
C248 C 0.40025 0.23664 0.89434 0.0
C249 C 0.41119 0.24931 0.87987 0.0
C250 C 0.38622 0.24658 0.89391 0.0
N251 N 0.3967 0.25845 0.86857 0.0
H252 H 0.41778 0.26987 0.86149 0.0
H253 H 0.37658 0.24553 0.90507 0.0
H254 H 0.41946 0.27635 0.73396 0.0
H255 H 0.38377 0.27387 0.65702 0.0
O256 O 0.41184 0.28787 0.86663 0.0
O257 O 0.39507 0.2903 0.82231 0.0
O258 O 0.37492 0.26129 0.81039 0.0
C259 C 0.40743 0.29582 0.84611 0.0
H260 H 0.37002 0.27425 0.10365 0.0
H261 H 0.41927 0.27655 0.57055 0.0
H262 H 0.37911 0.22604 0.92156 0.0
H263 H 0.42115 0.25082 0.87416 0.0
Co264 Co 0.72646 0.11804 0.8276 0.0
C265 C 0.72686 0.11928 1.01244 0.0
C266 C 0.73129 0.10451 0.96714 0.0
C267 C 0.73153 0.10444 0.05321 0.0
N268 N 0.72843 0.11386 0.94182 0.0
N269 N 0.7287 0.11371 0.08191 0.0
H270 H 0.72421 0.12699 1.01248 0.0
H271 H 0.73303 0.09815 0.92597 0.0
C272 C 0.75013 0.11927 0.74315 0.0
O273 O 0.75247 0.13023 0.70457 0.0
N274 N 0.72399 0.12175 0.71152 0.0
C275 C 0.71815 0.12863 0.68447 0.0
C276 C 0.71728 0.128 0.59873 0.0
C277 C 0.7257 0.11625 0.6412 0.0
N278 N 0.72212 0.12028 0.57142 0.0
C279 C 0.73766 0.14662 0.834 0.0
C280 C 0.76261 0.15227 0.88674 0.0
C281 C 0.76061 0.16276 0.86315 0.0
C282 C 0.74785 0.15986 0.83895 0.0
C283 C 0.7522 0.13919 0.87935 0.0
N284 N 0.74016 0.13646 0.8476 0.0
H285 H 0.7278 0.14461 0.81955 0.0
H286 H 0.75396 0.13122 0.89711 0.0
H287 H 0.71392 0.13313 0.72366 0.0
H288 H 0.72931 0.10929 0.64088 0.0
O289 O 0.71081 0.11886 0.85921 0.0
O290 O 0.71098 0.10072 0.81659 0.0
O291 O 0.74023 0.11324 0.79258 0.0
C292 C 0.70418 0.10619 0.84209 0.0
H293 H 0.73374 0.09809 0.09135 0.0
H294 H 0.71287 0.1324 0.55978 0.0
H295 H 0.77228 0.15412 0.90748 0.0
H296 H 0.7458 0.16775 0.82374 0.0
Co297 Co 0.60099 0.87804 0.24758 0.0
C298 C 0.60007 0.87808 0.06298 0.0
C299 C 0.61938 0.89245 0.1089 0.0
C300 C 0.61953 0.89309 0.02271 0.0
N301 N 0.60719 0.88299 0.13381 0.0
N302 N 0.60737 0.88407 0.9939 0.0
H303 H 0.58976 0.87025 0.06229 0.0
H304 H 0.62752 0.89858 0.15043 0.0
C305 C 0.62262 0.87541 0.33005 0.0
O306 O 0.61333 0.86401 0.36064 0.0
N307 N 0.59477 0.87353 0.36319 0.0
C308 C 0.58219 0.86588 0.39098 0.0
C309 C 0.58212 0.8662 0.47701 0.0
C310 C 0.60199 0.87902 0.4334 0.0
N311 N 0.59461 0.87442 0.50394 0.0
C312 C 0.58326 0.84966 0.22666 0.0
C313 C 0.60258 0.84429 0.16996 0.0
C314 C 0.58974 0.83364 0.18443 0.0
C315 C 0.57991 0.83649 0.21102 0.0
C316 C 0.60547 0.85725 0.18655 0.0
N317 N 0.59611 0.85976 0.22027 0.0
H318 H 0.57545 0.8517 0.24207 0.0
H319 H 0.61539 0.8653 0.17344 0.0
H320 H 0.57343 0.8609 0.35249 0.0
H321 H 0.6124 0.88656 0.43278 0.0
O322 O 0.58464 0.87762 0.21802 0.0
O323 O 0.60291 0.89535 0.26469 0.0
O324 O 0.61946 0.88233 0.28303 0.0
C325 C 0.59072 0.89017 0.2381 0.0
H326 H 0.62785 0.89993 0.98445 0.0
H327 H 0.57345 0.86081 0.51632 0.0
H328 H 0.61048 0.84265 0.14807 0.0
H329 H 0.5697 0.82862 0.21899 0.0
Co330 Co 0.12494 0.72264 0.25161 0.0
C331 C 0.12498 0.72377 0.0616 0.0
C332 C 0.11024 0.72735 0.11772 0.0
C333 C 0.10974 0.72849 0.03216 0.0
N334 N 0.11989 0.72456 0.13699 0.0
N335 N 0.11896 0.72624 0.99635 0.0
H336 H 0.13309 0.72177 0.05478 0.0
H337 H 0.104 0.72857 0.16284 0.0
C338 C 0.12514 0.74574 0.33733 0.0
O339 O 0.13709 0.74947 0.36626 0.0
N340 N 0.12955 0.72019 0.3679 0.0
C341 C 0.13611 0.71368 0.38766 0.0
C342 C 0.13632 0.71233 0.47274 0.0
C343 C 0.12533 0.72215 0.44396 0.0
N344 N 0.12951 0.71756 0.50925 0.0
C345 C 0.15369 0.73603 0.24662 0.0
C346 C 0.15717 0.75979 0.18465 0.0
C347 C 0.16831 0.75904 0.21002 0.0
C348 C 0.16652 0.7469 0.23921 0.0
C349 C 0.14451 0.74875 0.19456 0.0
N350 N 0.14284 0.73729 0.22998 0.0
H351 H 0.15258 0.72667 0.26581 0.0
H352 H 0.13599 0.74962 0.17679 0.0
H353 H 0.13998 0.70944 0.34343 0.0
H354 H 0.11878 0.72619 0.45156 0.0
O355 O 0.12702 0.70795 0.21409 0.0
O356 O 0.10834 0.70634 0.26308 0.0
O357 O 0.11894 0.73521 0.29308 0.0
C358 C 0.1145 0.70046 0.2331 0.0
H359 H 0.10301 0.73074 0.99857 0.0
H360 H 0.14097 0.70752 0.5051 0.0
H361 H 0.15818 0.76899 0.16081 0.0
H362 H 0.17497 0.74584 0.25659 0.0
Co363 Co 0.26745 0.39276 0.18012 0.0
C364 C 0.26826 0.39381 0.99542 0.0
C365 C 0.26524 0.37513 0.04167 0.0
C366 C 0.2659 0.37506 0.95564 0.0
N367 N 0.26667 0.38686 0.06628 0.0
N368 N 0.26783 0.38682 0.92652 0.0
H369 H 0.26973 0.40377 0.99468 0.0
H370 H 0.26409 0.36728 0.08341 0.0
C371 C 0.24427 0.36976 0.26412 0.0
O372 O 0.24153 0.37807 0.30303 0.0
N373 N 0.26867 0.39867 0.29591 0.0
C374 C 0.27178 0.41083 0.32438 0.0
C375 C 0.27245 0.41092 0.4102 0.0
C376 C 0.26827 0.39181 0.36543 0.0
N377 N 0.27018 0.39892 0.43638 0.0
C378 C 0.25604 0.40968 0.155 0.0
C379 C 0.23105 0.38952 0.10987 0.0
C380 C 0.23307 0.40234 0.12196 0.0
C381 C 0.24584 0.4126 0.14251 0.0
C382 C 0.24145 0.38704 0.12463 0.0
N383 N 0.2535 0.39686 0.15313 0.0
H384 H 0.26598 0.41777 0.16492 0.0
H385 H 0.23975 0.37714 0.11334 0.0
H386 H 0.27404 0.41938 0.28669 0.0
H387 H 0.26681 0.38185 0.3638 0.0
O388 O 0.28307 0.40958 0.15252 0.0
O389 O 0.28315 0.39153 0.19784 0.0
O390 O 0.25401 0.37396 0.21305 0.0
C391 C 0.28985 0.40381 0.17266 0.0
H392 H 0.26541 0.36709 0.91781 0.0
H393 H 0.27447 0.41927 0.4499 0.0
H394 H 0.22141 0.38139 0.09156 0.0
H395 H 0.24793 0.42276 0.14835 0.0
Co396 Co 0.78516 0.72585 0.52204 0.0
C397 C 0.78602 0.72667 0.33727 0.0
C398 C 0.76933 0.70867 0.38312 0.0
C399 C 0.76915 0.70832 0.29698 0.0
N400 N 0.77993 0.72014 0.40807 0.0
N401 N 0.77965 0.71965 0.26803 0.0
H402 H 0.79486 0.73639 0.3369 0.0
H403 H 0.76226 0.70106 0.42464 0.0
C404 C 0.78409 0.70209 0.60424 0.0
O405 O 0.79519 0.71 0.64396 0.0
N406 N 0.79002 0.73161 0.63793 0.0
C407 C 0.79919 0.74378 0.66579 0.0
C408 C 0.79867 0.74401 0.75156 0.0
C409 C 0.78354 0.7249 0.70784 0.0
N410 N 0.78889 0.73211 0.77819 0.0
C411 C 0.81357 0.74167 0.49808 0.0
C412 C 0.81741 0.7209 0.45191 0.0
C413 C 0.82852 0.73351 0.46448 0.0
C414 C 0.82649 0.74407 0.48551 0.0
C415 C 0.80469 0.71893 0.46656 0.0
N416 N 0.80295 0.72905 0.49546 0.0
H417 H 0.81215 0.75003 0.50848 0.0
H418 H 0.79625 0.70921 0.45473 0.0
H419 H 0.80535 0.7523 0.62755 0.0
H420 H 0.77504 0.71494 0.7072 0.0
O421 O 0.78744 0.7431 0.49483 0.0
O422 O 0.76869 0.72575 0.53968 0.0
O423 O 0.77889 0.70678 0.55405 0.0
C424 C 0.775 0.73812 0.51553 0.0
H425 H 0.76194 0.70021 0.25892 0.0
H426 H 0.80468 0.75252 0.791 0.0
H427 H 0.81854 0.71255 0.43313 0.0
H428 H 0.83481 0.75409 0.4916 0.0
Co429 Co 0.2687 0.05615 0.58717 0.0
C430 C 0.2676 0.05503 0.3998 0.0
C431 C 0.28657 0.05931 0.44679 0.0
C432 C 0.28672 0.05833 0.36106 0.0
N433 N 0.27475 0.05776 0.47134 0.0
N434 N 0.27477 0.05565 0.33146 0.0
H435 H 0.25719 0.05194 0.39746 0.0
H436 H 0.29442 0.06049 0.48845 0.0
C437 C 0.29609 0.07979 0.59321 0.0
O438 O 0.29292 0.08464 0.52847 0.0
N439 N 0.26277 0.05411 0.70193 0.0
C440 C 0.25084 0.05185 0.72888 0.0
C441 C 0.25073 0.05152 0.81505 0.0
C442 C 0.26975 0.05505 0.77157 0.0
N443 N 0.26265 0.05357 0.84189 0.0
C444 C 0.25646 0.07053 0.5158 0.0
C445 C 0.2691 0.09231 0.62048 0.0
C446 C 0.26161 0.09281 0.55349 0.0
C447 C 0.25496 0.08162 0.50194 0.0
C448 C 0.27056 0.08116 0.63081 0.0
N449 N 0.26502 0.0708 0.57535 0.0
H450 H 0.25059 0.06173 0.47941 0.0
H451 H 0.27645 0.08101 0.68268 0.0
H452 H 0.24288 0.0508 0.68865 0.0
H453 H 0.27982 0.05681 0.77065 0.0
O454 O 0.25158 0.04109 0.55576 0.0
O455 O 0.26937 0.04004 0.59541 0.0
O456 O 0.28751 0.06867 0.62496 0.0
C457 C 0.25709 0.03385 0.57008 0.0
H458 H 0.2948 0.05894 0.3239 0.0
H459 H 0.24264 0.05028 0.85475 0.0
H460 H 0.27413 0.10062 0.66307 0.0
H461 H 0.24855 0.0814 0.45196 0.0
Co462 Co 0.93856 0.202 0.54662 0.0
C463 C 0.93961 0.20174 0.36194 0.0
C464 C 0.94078 0.21969 0.40783 0.0
C465 C 0.94134 0.22022 0.32168 0.0
N466 N 0.93962 0.20807 0.43276 0.0
N467 N 0.94061 0.20894 0.29289 0.0
H468 H 0.93875 0.19202 0.36119 0.0
H469 H 0.94133 0.2273 0.44933 0.0
C470 C 0.91824 0.20785 0.62343 0.0
O471 O 0.91189 0.1959 0.65663 0.0
N472 N 0.9379 0.19621 0.66219 0.0
C473 C 0.93947 0.1861 0.68993 0.0
C474 C 0.93966 0.18619 0.77588 0.0
C475 C 0.93789 0.20272 0.7325 0.0
N476 N 0.93864 0.19664 0.80298 0.0
C477 C 0.92132 0.17357 0.52364 0.0
C478 C 0.89953 0.17524 0.47125 0.0
C479 C 0.89792 0.16267 0.48807 0.0
C480 C 0.90917 0.16188 0.51115 0.0
C481 C 0.91181 0.1866 0.48477 0.0
N482 N 0.92223 0.18572 0.51724 0.0
H483 H 0.92996 0.1728 0.53811 0.0
H484 H 0.91284 0.19617 0.47055 0.0
H485 H 0.94118 0.17948 0.65146 0.0
H486 H 0.93791 0.21204 0.73201 0.0
O487 O 0.95189 0.19701 0.52041 0.0
O488 O 0.95589 0.21664 0.56771 0.0
O489 O 0.92855 0.21137 0.57829 0.0
C490 C 0.96057 0.20915 0.54241 0.0
H491 H 0.94249 0.22842 0.28336 0.0
H492 H 0.94067 0.17914 0.81499 0.0
H493 H 0.89131 0.17632 0.44885 0.0
H494 H 0.90853 0.15236 0.52181 0.0
Co495 Co 0.05784 0.45359 0.15311 0.0
C496 C 0.05912 0.45386 0.33783 0.0
C497 C 0.042 0.43624 0.29185 0.0
C498 C 0.04204 0.43564 0.37794 0.0
N499 N 0.05267 0.44769 0.26702 0.0
N500 N 0.05282 0.44672 0.40682 0.0
H501 H 0.06818 0.46341 0.33857 0.0
H502 H 0.0348 0.42877 0.25028 0.0
C503 C 0.03257 0.44899 0.07251 0.0
O504 O 0.03931 0.46047 0.034 0.0
N505 N 0.06315 0.45913 0.03734 0.0
C506 C 0.0747 0.4694 1.00927 0.0
C507 C 0.07488 0.46909 0.92334 0.0
C508 C 0.05686 0.45229 0.96741 0.0
N509 N 0.06361 0.45835 0.89674 0.0
C510 C 0.06941 0.48218 0.17529 0.0
C511 C 0.04593 0.48091 0.22303 0.0
C512 C 0.05698 0.49337 0.20576 0.0
C513 C 0.06904 0.49399 0.18547 0.0
C514 C 0.04678 0.46945 0.2123 0.0
N515 N 0.05807 0.4701 0.18132 0.0
H516 H 0.07881 0.4828 0.16287 0.0
H517 H 0.03817 0.45998 0.22722 0.0
H518 H 0.08287 0.47633 0.04746 0.0
H519 H 0.04765 0.44288 0.96843 0.0
O520 O 0.07602 0.4584 0.17969 0.0
O521 O 0.06039 0.43869 0.13371 0.0
O522 O 0.03841 0.4448 0.12137 0.0
C523 C 0.07259 0.44626 0.1584 0.0
H524 H 0.03487 0.42751 0.41609 0.0
H525 H 0.0828 0.47624 0.88385 0.0
H526 H 0.03661 0.47999 0.24351 0.0
H527 H 0.07799 0.50345 0.17507 0.0
Co528 Co 0.53944 0.60594 0.1071 0.0
C529 C 0.53968 0.60718 0.29171 0.0
C530 C 0.55457 0.60297 0.24561 0.0
C531 C 0.55523 0.60351 0.33181 0.0
N532 N 0.54477 0.6052 0.22081 0.0
N533 N 0.54588 0.60619 0.3607 0.0
H534 H 0.53153 0.6092 0.29254 0.0
H535 H 0.56089 0.60122 0.20402 0.0
C536 C 0.53773 0.58195 0.02665 0.0
O537 O 0.52598 0.57914 0.99822 0.0
N538 N 0.53459 0.60722 0.99154 0.0
C539 C 0.52698 0.61223 0.96401 0.0
C540 C 0.52723 0.61258 0.87798 0.0
C541 C 0.54001 0.60545 0.92107 0.0
N542 N 0.53539 0.60825 0.85068 0.0
C543 C 0.51064 0.59344 0.12376 0.0
C544 C 0.50728 0.56993 0.1893 0.0
C545 C 0.49597 0.5707 0.16821 0.0
C546 C 0.49776 0.58284 0.13794 0.0
C547 C 0.51988 0.58067 0.17333 0.0
N548 N 0.52146 0.59194 0.1356 0.0
H549 H 0.51181 0.6028 0.10376 0.0
H550 H 0.52842 0.57975 0.18942 0.0
H551 H 0.52218 0.61618 1.00283 0.0
H552 H 0.54762 0.60269 0.92136 0.0
O553 O 0.53831 0.62155 0.13599 0.0
O554 O 0.55634 0.62163 0.08842 0.0
O555 O 0.54446 0.59228 0.07198 0.0
C556 C 0.55082 0.62834 0.11493 0.0
H557 H 0.56227 0.60234 0.37006 0.0
H558 H 0.5219 0.61598 0.83898 0.0
H559 H 0.50643 0.56102 0.21687 0.0
H560 H 0.48932 0.58406 0.1233 0.0
Co561 Co 0.39081 0.9406 0.12375 0.0
C562 C 0.39026 0.93969 0.311 0.0
C563 C 0.39501 0.95881 0.26388 0.0
C564 C 0.39426 0.95904 0.34974 0.0
N565 N 0.39295 0.94679 0.23932 0.0
N566 N 0.39125 0.94699 0.37937 0.0
H567 H 0.387 0.92925 0.31356 0.0
H568 H 0.39641 0.96673 0.22212 0.0
C569 C 0.41546 0.96745 0.11526 0.0
O570 O 0.42017 0.96436 0.18098 0.0
N571 N 0.38834 0.93457 1.00909 0.0
C572 C 0.38542 0.92241 0.9823 0.0
C573 C 0.38519 0.92234 0.89612 0.0
C574 C 0.38979 0.94171 0.93933 0.0
N575 N 0.38798 0.9345 0.86909 0.0
C576 C 0.40281 0.92586 0.19035 0.0
C577 C 0.42515 0.93767 0.08995 0.0
C578 C 0.42424 0.9287 0.15182 0.0
C579 C 0.41276 0.92255 0.20141 0.0
C580 C 0.41507 0.94079 0.0819 0.0
N581 N 0.40445 0.93557 0.13535 0.0
H582 H 0.39366 0.92031 0.22439 0.0
H583 H 0.41583 0.94744 0.03226 0.0
H584 H 0.38388 0.91428 0.02264 0.0
H585 H 0.39215 0.95198 0.94008 0.0
O586 O 0.37522 0.92407 0.15559 0.0
O587 O 0.37533 0.94247 0.11585 0.0
O588 O 0.40414 0.95906 0.08508 0.0
C589 C 0.36858 0.93019 0.14087 0.0
H590 H 0.39521 0.96726 0.38702 0.0
H591 H 0.38353 0.91408 0.85658 0.0
H592 H 0.43371 0.94242 0.04889 0.0
H593 H 0.41139 0.91508 0.24718 0.0
Co594 Co 0.53633 0.9362 0.14133 0.0
C595 C 0.53472 0.93514 0.3285 0.0
C596 C 0.55038 0.95372 0.28252 0.0
C597 C 0.55116 0.95384 0.36821 0.0
N598 N 0.53979 0.94218 0.25721 0.0
N599 N 0.54132 0.94214 0.39717 0.0
H600 H 0.52695 0.92488 0.33043 0.0
H601 H 0.55756 0.96129 0.2413 0.0
C602 C 0.53987 0.96331 0.13571 0.0
O603 O 0.53121 0.95933 0.19733 0.0
N604 N 0.53344 0.93024 0.02652 0.0
C605 C 0.52407 0.91815 0.99975 0.0
C606 C 0.5243 0.91801 0.9138 0.0
C607 C 0.53931 0.9373 0.95686 0.0
N608 N 0.53386 0.93007 0.88671 0.0
C609 C 0.50874 0.92381 0.19661 0.0
C610 C 0.50116 0.93562 0.07489 0.0
C611 C 0.49159 0.92689 0.13154 0.0
C612 C 0.49548 0.92092 0.19317 0.0
C613 C 0.5142 0.93827 0.08091 0.0
N614 N 0.51806 0.93283 0.1431 0.0
H615 H 0.51129 0.91835 0.23987 0.0
H616 H 0.52119 0.94463 0.03404 0.0
H617 H 0.51721 0.91015 0.03993 0.0
H618 H 0.54722 0.94756 0.95763 0.0
O619 O 0.53326 0.91891 0.17533 0.0
O620 O 0.55292 0.93614 0.14205 0.0
O621 O 0.54319 0.95525 0.10396 0.0
C622 C 0.54601 0.92379 0.166 0.0
H623 H 0.55887 0.96161 0.40586 0.0
H624 H 0.51754 0.90982 0.87447 0.0
H625 H 0.49861 0.94041 0.02593 0.0
H626 H 0.48827 0.91377 0.23647 0.0
Co627 Co 0.05281 0.6001 0.17573 0.0
C628 C 0.05348 0.59962 0.36058 0.0
C629 C 0.03637 0.60018 0.31507 0.0
C630 C 0.03602 0.6 0.40117 0.0
N631 N 0.04727 0.59987 0.28989 0.0
N632 N 0.04679 0.59966 0.42994 0.0
H633 H 0.06279 0.5996 0.36083 0.0
H634 H 0.0292 0.60056 0.27374 0.0
C635 C 0.02756 0.57863 0.09387 0.0
O636 O 0.03405 0.57374 0.05378 0.0
N637 N 0.05838 0.60063 0.06 0.0
C638 C 0.0702 0.60254 0.03229 0.0
C639 C 0.07046 0.60319 0.94647 0.0
C640 C 0.0519 0.60081 0.99004 0.0
N641 N 0.05892 0.60202 0.91974 0.0
C642 C 0.06781 0.58675 0.20353 0.0
C643 C 0.04628 0.56203 0.2381 0.0
C644 C 0.05889 0.56326 0.23034 0.0
C645 C 0.06982 0.57595 0.21568 0.0
C646 C 0.04475 0.57308 0.22503 0.0
N647 N 0.05529 0.58504 0.20161 0.0
H648 H 0.07637 0.59651 0.19619 0.0
H649 H 0.03504 0.57197 0.23434 0.0
H650 H 0.07846 0.60409 0.07072 0.0
H651 H 0.04226 0.60013 0.99059 0.0
O652 O 0.07034 0.61483 0.20273 0.0
O653 O 0.05317 0.61659 0.15826 0.0
O654 O 0.03363 0.58839 0.14412 0.0
C655 C 0.06544 0.62245 0.18329 0.0
H656 H 0.0283 0.59995 0.43931 0.0
H657 H 0.07875 0.60491 0.907 0.0
H658 H 0.03765 0.5526 0.25429 0.0
H659 H 0.07982 0.57754 0.21184 0.0
Co660 Co 0.39078 0.458 0.1248 0.0
C661 C 0.39097 0.45883 0.3088 0.0
C662 C 0.38921 0.44063 0.26328 0.0
C663 C 0.38877 0.4402 0.3494 0.0
N664 N 0.39064 0.45233 0.23831 0.0
N665 N 0.3899 0.45168 0.37825 0.0
H666 H 0.39199 0.46861 0.30841 0.0
H667 H 0.38827 0.43285 0.22173 0.0
C668 C 0.41331 0.45549 0.05214 0.0
O669 O 0.41876 0.46775 0.02399 0.0
N670 N 0.39035 0.46326 1.00935 0.0
C671 C 0.38544 0.47096 0.98209 0.0
C672 C 0.38488 0.47058 0.89632 0.0
C673 C 0.39205 0.4578 0.93898 0.0
N674 N 0.38909 0.46233 0.86878 0.0
C675 C 0.40676 0.48682 0.13238 0.0
C676 C 0.42885 0.48731 0.20092 0.0
C677 C 0.42996 0.49924 0.17237 0.0
C678 C 0.41855 0.49899 0.14113 0.0
C679 C 0.41692 0.47542 0.19085 0.0
N680 N 0.40635 0.47515 0.15122 0.0
H681 H 0.39808 0.48684 0.10939 0.0
H682 H 0.4164 0.4663 0.21128 0.0
H683 H 0.38161 0.47586 0.02132 0.0
H684 H 0.39479 0.45019 0.93933 0.0
O685 O 0.37667 0.46163 0.15369 0.0
O686 O 0.37386 0.44236 0.10697 0.0
O687 O 0.40227 0.45024 0.09179 0.0
C688 C 0.36855 0.44927 0.13321 0.0
H689 H 0.38739 0.43188 0.38721 0.0
H690 H 0.38093 0.47549 0.85801 0.0
H691 H 0.43727 0.48711 0.22863 0.0
H692 H 0.41885 0.50802 0.12044 0.0
Co693 Co 0.26787 0.20502 0.5742 0.0
C694 C 0.26673 0.204 0.38938 0.0
C695 C 0.28541 0.21979 0.43446 0.0
C696 C 0.28549 0.22029 0.34851 0.0
N697 N 0.27369 0.20954 0.45985 0.0
N698 N 0.27373 0.21039 0.32021 0.0
H699 H 0.25672 0.19557 0.389 0.0
H700 H 0.29323 0.22667 0.47554 0.0
C701 C 0.29245 0.20739 0.6567 0.0
O702 O 0.28527 0.19642 0.69962 0.0
N703 N 0.26201 0.2009 0.69039 0.0
C704 C 0.24953 0.1927 0.71812 0.0
C705 C 0.24937 0.1931 0.80387 0.0
C706 C 0.26904 0.20684 0.76035 0.0
N707 N 0.26168 0.20195 0.83073 0.0
C708 C 0.25253 0.17636 0.56609 0.0
C709 C 0.27344 0.1724 0.52596 0.0
C710 C 0.26121 0.16144 0.54883 0.0
C711 C 0.25054 0.16346 0.56599 0.0
C712 C 0.27503 0.18518 0.52851 0.0
N713 N 0.26491 0.1871 0.5551 0.0
H714 H 0.24408 0.17766 0.57542 0.0
H715 H 0.28454 0.19354 0.51128 0.0
H716 H 0.24084 0.1872 0.67961 0.0
H717 H 0.27924 0.21485 0.75977 0.0
O718 O 0.25053 0.20235 0.544 0.0
O719 O 0.26774 0.22148 0.58499 0.0
O720 O 0.28703 0.21188 0.6069 0.0
C721 C 0.25541 0.21493 0.56051 0.0
H722 H 0.2934 0.22769 0.31003 0.0
H723 H 0.24077 0.18729 0.843 0.0
H724 H 0.28183 0.17118 0.50975 0.0
H725 H 0.24077 0.15515 0.57995 0.0
Co726 Co 0.78618 0.05782 0.49719 0.0
C727 C 0.78712 0.05797 0.31244 0.0
C728 C 0.77141 0.06096 0.358 0.0
C729 C 0.77127 0.06113 0.27184 0.0
N730 N 0.78138 0.05904 0.38316 0.0
N731 N 0.78115 0.05924 0.24304 0.0
H732 H 0.7954 0.05616 0.31229 0.0
H733 H 0.76471 0.06217 0.39936 0.0
C734 C 0.78655 0.08109 0.58124 0.0
O735 O 0.79763 0.08375 0.61951 0.0
N736 N 0.79057 0.05613 0.613 0.0
C737 C 0.79874 0.05178 0.64035 0.0
C738 C 0.79817 0.05095 0.72616 0.0
C739 C 0.78452 0.05705 0.68317 0.0
N740 N 0.78929 0.05436 0.75323 0.0
C741 C 0.81481 0.0698 0.47966 0.0
C742 C 0.81916 0.09454 0.43213 0.0
C743 C 0.83016 0.09301 0.44938 0.0
C744 C 0.82787 0.08029 0.47008 0.0
C745 C 0.80635 0.08382 0.44285 0.0
N746 N 0.80429 0.07192 0.47289 0.0
H747 H 0.81322 0.06001 0.49187 0.0
H748 H 0.79805 0.08521 0.42804 0.0
H749 H 0.80415 0.04853 0.60151 0.0
H750 H 0.77671 0.05954 0.68299 0.0
O751 O 0.78745 0.04229 0.4676 0.0
O752 O 0.76922 0.04206 0.51235 0.0
O753 O 0.78081 0.07122 0.53127 0.0
C754 C 0.77486 0.03543 0.48672 0.0
H755 H 0.76449 0.06273 0.23369 0.0
H756 H 0.80346 0.04753 0.7653 0.0
H757 H 0.82043 0.10398 0.41129 0.0
H758 H 0.83605 0.0785 0.48088 0.0
Co759 Co 0.9349 0.73122 0.54651 0.0
C760 C 0.93479 0.73215 0.35919 0.0
C761 C 0.9303 0.71306 0.40516 0.0
C762 C 0.93049 0.71276 0.31915 0.0
N763 N 0.93246 0.72508 0.43066 0.0
N764 N 0.93327 0.72478 0.29022 0.0
H765 H 0.93849 0.7427 0.35699 0.0
H766 H 0.92903 0.7051 0.44616 0.0
C767 C 0.91057 0.70451 0.55472 0.0
O768 O 0.90592 0.70838 0.49239 0.0
N769 N 0.93783 0.73729 0.66117 0.0
C770 C 0.94097 0.74955 0.68715 0.0
C771 C 0.94184 0.74994 0.773 0.0
C772 C 0.93691 0.73039 0.73121 0.0
N773 N 0.93924 0.73788 0.80081 0.0
C774 C 0.92049 0.7439 0.48176 0.0
C775 C 0.90029 0.73283 0.59884 0.0
C776 C 0.89946 0.74046 0.53408 0.0
C777 C 0.9098 0.74623 0.47564 0.0
C778 C 0.91095 0.7305 0.6013 0.0
N779 N 0.92054 0.73538 0.54054 0.0
H780 H 0.92879 0.74921 0.44051 0.0
H781 H 0.91138 0.72456 0.65195 0.0
H782 H 0.94238 0.7576 0.64643 0.0
H783 H 0.93428 0.72004 0.73126 0.0
O784 O 0.94982 0.74816 0.51294 0.0
O785 O 0.951 0.73032 0.54953 0.0
O786 O 0.92208 0.71246 0.58497 0.0
C787 C 0.95711 0.74267 0.52519 0.0
H788 H 0.9288 0.70434 0.28116 0.0
H789 H 0.94427 0.7585 0.81176 0.0
H790 H 0.8926 0.72844 0.64617 0.0
H791 H 0.90971 0.75265 0.42671 0.0
Co792 Co 0.45867 0.06555 0.89974 0.0
C793 C 0.4588 0.06637 0.71516 0.0
C794 C 0.44423 0.04713 0.76108 0.0
C795 C 0.44361 0.04701 0.67486 0.0
N796 N 0.45381 0.05926 0.78601 0.0
N797 N 0.45275 0.05913 0.64605 0.0
H798 H 0.46671 0.07664 0.71451 0.0
H799 H 0.43798 0.03903 0.80261 0.0
C800 C 0.46044 0.04362 0.98561 0.0
O801 O 0.47206 0.05264 0.01525 0.0
N802 N 0.46309 0.07189 0.01517 0.0
C803 C 0.4709 0.08446 0.04266 0.0
C804 C 0.47056 0.08457 0.12876 0.0
C805 C 0.45748 0.06475 0.08552 0.0
N806 N 0.46218 0.07212 0.15593 0.0
C807 C 0.48736 0.08248 0.8821 0.0
C808 C 0.49165 0.06236 0.82685 0.0
C809 C 0.50268 0.0749 0.84302 0.0
C810 C 0.5004 0.08515 0.86871 0.0
C811 C 0.47888 0.06016 0.84101 0.0
N812 N 0.47686 0.06987 0.87407 0.0
H813 H 0.48578 0.09059 0.89755 0.0
H814 H 0.47056 0.05043 0.82723 0.0
H815 H 0.47603 0.09317 1.00382 0.0
H816 H 0.4498 0.0544 0.08514 0.0
O817 O 0.4594 0.08204 0.86809 0.0
O818 O 0.44153 0.06392 0.9151 0.0
O819 O 0.45388 0.04705 0.93727 0.0
C820 C 0.44678 0.07602 0.88692 0.0
H821 H 0.43667 0.03875 0.6366 0.0
H822 H 0.47608 0.09323 0.16794 0.0
H823 H 0.49282 0.05413 0.80597 0.0
H824 H 0.5086 0.09516 0.87811 0.0
Co825 Co 0.93106 0.38834 0.87878 0.0
C826 C 0.92954 0.38675 0.69387 0.0
C827 C 0.94687 0.38674 0.74055 0.0
C828 C 0.94685 0.38599 0.65451 0.0
N829 N 0.93605 0.38727 0.76494 0.0
N830 N 0.93595 0.38601 0.62508 0.0
H831 H 0.92038 0.38707 0.69278 0.0
H832 H 0.95421 0.38679 0.78245 0.0
C833 C 0.95569 0.41058 0.95637 0.0
O834 O 0.94837 0.41427 0.99862 0.0
N835 N 0.92606 0.38907 0.99455 0.0
C836 C 0.91531 0.38937 0.02374 0.0
C837 C 0.91527 0.3889 0.10963 0.0
C838 C 0.93213 0.38791 0.06386 0.0
N839 N 0.92587 0.38803 0.1351 0.0
C840 C 0.91574 0.401 0.8402 0.0
C841 C 0.93701 0.42541 0.79644 0.0
C842 C 0.9243 0.42398 0.8008 0.0
C843 C 0.91352 0.41147 0.82078 0.0
C844 C 0.93877 0.41473 0.8173 0.0
N845 N 0.92835 0.40298 0.84499 0.0
H846 H 0.90727 0.39128 0.85126 0.0
H847 H 0.94856 0.41596 0.81016 0.0
H848 H 0.90767 0.38954 0.98677 0.0
H849 H 0.94091 0.38692 0.06187 0.0
O850 O 0.91343 0.37347 0.85853 0.0
O851 O 0.93066 0.37195 0.90432 0.0
O852 O 0.95041 0.4008 0.90552 0.0
C853 C 0.91819 0.36596 0.88277 0.0
H854 H 0.9542 0.38525 0.61683 0.0
H855 H 0.90799 0.38928 0.15006 0.0
H856 H 0.94558 0.4348 0.77877 0.0
H857 H 0.90346 0.40978 0.8209 0.0
Co858 Co 0.60456 0.54436 0.90318 0.0
C859 C 0.60384 0.5431 0.71579 0.0
C860 C 0.6007 0.55857 0.76252 0.0
C861 C 0.60067 0.55897 0.67641 0.0
N862 N 0.60224 0.54831 0.78762 0.0
N863 N 0.6026 0.54918 0.64702 0.0
H864 H 0.60676 0.53566 0.71297 0.0
H865 H 0.59997 0.56554 0.80394 0.0
C866 C 0.5806 0.54768 0.91255 0.0
O867 O 0.5756 0.53969 0.84791 0.0
N868 N 0.60722 0.54086 0.01764 0.0
C869 C 0.60986 0.5314 0.04376 0.0
C870 C 0.61055 0.53174 0.12978 0.0
C871 C 0.60642 0.54691 0.08772 0.0
N872 N 0.60835 0.54148 0.15749 0.0
C873 C 0.59132 0.51742 0.83845 0.0
C874 C 0.5691 0.50805 0.93938 0.0
C875 C 0.56925 0.49985 0.87563 0.0
C876 C 0.58069 0.50453 0.82617 0.0
C877 C 0.57983 0.52094 0.9482 0.0
N878 N 0.59035 0.52584 0.89394 0.0
H879 H 0.60038 0.5205 0.80437 0.0
H880 H 0.57958 0.52704 0.99832 0.0
H881 H 0.61105 0.52462 1.00303 0.0
H882 H 0.60419 0.55491 0.08765 0.0
O883 O 0.61976 0.54273 0.86944 0.0
O884 O 0.62043 0.56142 0.90853 0.0
O885 O 0.59183 0.55026 0.9428 0.0
C886 C 0.62678 0.55551 0.88267 0.0
H887 H 0.59939 0.56599 0.63867 0.0
H888 H 0.61259 0.52535 0.16875 0.0
H889 H 0.56061 0.50466 0.98063 0.0
H890 H 0.58145 0.49822 0.77912 0.0
Co891 Co 0.71796 0.78244 0.49336 0.0
C892 C 0.71906 0.78275 0.67808 0.0
C893 C 0.69984 0.76811 0.63234 0.0
C894 C 0.6997 0.76748 0.71838 0.0
N895 N 0.71195 0.77773 0.60738 0.0
N896 N 0.7118 0.77666 0.74707 0.0
H897 H 0.72932 0.79068 0.67875 0.0
H898 H 0.69176 0.76181 0.59089 0.0
C899 C 0.69544 0.7839 0.41227 0.0
O900 O 0.70405 0.79498 0.37479 0.0
N901 N 0.72399 0.78668 0.37733 0.0
C902 C 0.73663 0.79394 0.34954 0.0
C903 C 0.73672 0.79353 0.26371 0.0
C904 C 0.71673 0.78122 0.30726 0.0
N905 N 0.72417 0.78557 0.23678 0.0
C906 C 0.73521 0.81103 0.50526 0.0
C907 C 0.7158 0.81631 0.56118 0.0
C908 C 0.72825 0.82694 0.53887 0.0
C909 C 0.73817 0.82422 0.513 0.0
C910 C 0.71321 0.80328 0.55086 0.0
N911 N 0.72258 0.80076 0.51749 0.0
H912 H 0.74313 0.80914 0.48997 0.0
H913 H 0.7035 0.7952 0.56784 0.0
H914 H 0.74541 0.79864 0.38803 0.0
H915 H 0.70628 0.77385 0.30793 0.0
O916 O 0.73452 0.78321 0.52214 0.0
O917 O 0.71624 0.76521 0.47809 0.0
O918 O 0.69932 0.77772 0.4603 0.0
C919 C 0.72854 0.77062 0.50285 0.0
H920 H 0.69145 0.76051 0.75665 0.0
H921 H 0.74546 0.79865 0.22462 0.0
H922 H 0.70795 0.81802 0.58334 0.0
H923 H 0.74811 0.83222 0.49882 0.0
Co924 Co 0.2033 0.93309 0.50152 0.0
C925 C 0.20242 0.93277 0.6861 0.0
C926 C 0.21977 0.93266 0.64059 0.0
C927 C 0.21994 0.93254 0.72685 0.0
N928 N 0.20875 0.93274 0.61537 0.0
N929 N 0.20902 0.93262 0.75561 0.0
H930 H 0.19324 0.93304 0.68618 0.0
H931 H 0.22715 0.93268 0.59925 0.0
C932 C 0.20644 0.91198 0.41547 0.0
O933 O 0.19445 0.90743 0.3844 0.0
N934 N 0.19819 0.93392 0.38593 0.0
C935 C 0.18867 0.93648 0.35876 0.0
C936 C 0.18911 0.9373 0.27285 0.0
C937 C 0.20479 0.93409 0.31557 0.0
N938 N 0.19922 0.93572 0.24556 0.0
C939 C 0.17459 0.91735 0.52058 0.0
C940 C 0.17421 0.89448 0.57317 0.0
C941 C 0.16209 0.89403 0.55878 0.0
C942 C 0.16238 0.90578 0.53421 0.0
C943 C 0.18614 0.90621 0.55816 0.0
N944 N 0.18626 0.91723 0.52667 0.0
H945 H 0.17462 0.92643 0.50696 0.0
H946 H 0.19535 0.90635 0.571 0.0
H947 H 0.18233 0.9385 0.39776 0.0
H948 H 0.21362 0.93317 0.31556 0.0
O949 O 0.1994 0.94697 0.53249 0.0
O950 O 0.21882 0.9502 0.48609 0.0
O951 O 0.21135 0.92197 0.4649 0.0
C952 C 0.21176 0.95529 0.513 0.0
H953 H 0.22747 0.93225 0.76511 0.0
H954 H 0.18283 0.9395 0.2338 0.0
H955 H 0.17451 0.88575 0.59386 0.0
H956 H 0.15325 0.90605 0.52643 0.0
Co957 Co 0.06123 0.26661 0.47257 0.0
C958 C 0.06219 0.26603 0.65733 0.0
C959 C 0.06383 0.28421 0.6123 0.0
C960 C 0.06414 0.28455 0.69836 0.0
N961 N 0.06268 0.27264 0.58679 0.0
N962 N 0.06306 0.27308 0.72692 0.0
H963 H 0.06096 0.25615 0.65722 0.0
H964 H 0.0643 0.29185 0.57133 0.0
C965 C 0.08268 0.29228 0.39066 0.0
O966 O 0.08907 0.28666 0.3583 0.0
N967 N 0.05944 0.26054 0.35681 0.0
C968 C 0.05496 0.24797 0.32997 0.0
C969 C 0.05434 0.24769 0.24406 0.0
C970 C 0.06078 0.26755 0.28619 0.0
N971 N 0.05805 0.26002 0.21653 0.0
C972 C 0.07523 0.25199 0.4825 0.0
C973 C 0.09941 0.27317 0.53103 0.0
C974 C 0.09852 0.26087 0.51506 0.0
C975 C 0.08614 0.25012 0.49236 0.0
C976 C 0.08825 0.27461 0.51982 0.0
N977 N 0.07654 0.26429 0.49102 0.0
H978 H 0.06569 0.24346 0.46956 0.0
H979 H 0.08906 0.28409 0.53395 0.0
H980 H 0.0516 0.23934 0.36941 0.0
H981 H 0.06336 0.27786 0.28537 0.0
O982 O 0.04683 0.24914 0.50594 0.0
O983 O 0.0446 0.26613 0.46315 0.0
O984 O 0.07239 0.28566 0.43616 0.0
C985 C 0.03905 0.25401 0.49084 0.0
H986 H 0.06516 0.29269 0.73655 0.0
H987 H 0.05087 0.23894 0.20509 0.0
H988 H 0.10871 0.2817 0.55032 0.0
H989 H 0.08485 0.2403 0.48319 0.0
Co990 Co 0.21231 0.27317 0.51851 0.0
C991 C 0.2123 0.2721 0.70314 0.0
C992 C 0.2277 0.29093 0.65703 0.0
C993 C 0.22838 0.29101 0.74316 0.0
N994 N 0.21759 0.27909 0.63228 0.0
N995 N 0.2187 0.27916 0.77211 0.0
H996 H 0.20391 0.26207 0.70391 0.0
H997 H 0.23425 0.29887 0.6154 0.0
C998 C 0.21156 0.29589 0.43626 0.0
O999 O 0.20026 0.28728 0.40113 0.0
N1000 N 0.20747 0.26718 0.40286 0.0
C1001 C 0.19905 0.25477 0.37503 0.0
C1002 C 0.19945 0.25466 0.28907 0.0
C1003 C 0.21348 0.27419 0.33279 0.0
N1004 N 0.20849 0.26692 0.2622 0.0
C1005 C 0.18354 0.25713 0.53866 0.0
C1006 C 0.18031 0.27786 0.59474 0.0
C1007 C 0.16896 0.26558 0.57829 0.0
C1008 C 0.17069 0.255 0.55218 0.0
C1009 C 0.19288 0.27954 0.57993 0.0
N1010 N 0.19439 0.26953 0.54637 0.0
H1011 H 0.1847 0.24876 0.52342 0.0
H1012 H 0.20145 0.28908 0.59415 0.0
H1013 H 0.19349 0.24609 0.41346 0.0
H1014 H 0.22161 0.28434 0.33365 0.0
O1015 O 0.21089 0.25623 0.54654 0.0
O1016 O 0.22909 0.27406 0.50014 0.0
O1017 O 0.2177 0.29199 0.48477 0.0
C1018 C 0.22341 0.26179 0.5257 0.0
H1019 H 0.23566 0.29907 0.78126 0.0
H1020 H 0.19355 0.2461 0.24979 0.0
H1021 H 0.17952 0.28628 0.6165 0.0
H1022 H 0.16221 0.24516 0.54273 0.0
Co1023 Co 0.72902 0.93468 0.41981 0.0
C1024 C 0.72946 0.93373 0.60739 0.0
C1025 C 0.71206 0.9334 0.56046 0.0
C1026 C 0.7116 0.93338 0.6465 0.0
N1027 N 0.72306 0.93318 0.53554 0.0
N1028 N 0.72256 0.93355 0.67604 0.0
H1029 H 0.73933 0.93512 0.61039 0.0
H1030 H 0.70493 0.93382 0.51888 0.0
C1031 C 0.70083 0.9126 0.41551 0.0
O1032 O 0.70356 0.90733 0.4799 0.0
N1033 N 0.73492 0.93657 0.30513 0.0
C1034 C 0.74655 0.9379 0.27887 0.0
C1035 C 0.74691 0.93855 0.1929 0.0
C1036 C 0.72839 0.93652 0.2352 0.0
N1037 N 0.73549 0.93765 0.1654 0.0
C1038 C 0.74077 0.91943 0.4826 0.0
C1039 C 0.72654 0.8977 0.3798 0.0
C1040 C 0.73499 0.89719 0.44015 0.0
C1041 C 0.74234 0.90829 0.49123 0.0
C1042 C 0.72505 0.90888 0.37479 0.0
N1043 N 0.73149 0.91926 0.42932 0.0
H1044 H 0.74735 0.9283 0.51672 0.0
H1045 H 0.71875 0.9092 0.32626 0.0
H1046 H 0.75416 0.93825 0.31951 0.0
H1047 H 0.71857 0.9354 0.23539 0.0
O1048 O 0.74659 0.94875 0.45189 0.0
O1049 O 0.72977 0.95154 0.41339 0.0
O1050 O 0.70998 0.9233 0.38228 0.0
C1051 C 0.74206 0.95683 0.43802 0.0
H1052 H 0.70381 0.9333 0.68409 0.0
H1053 H 0.75503 0.9397 0.15378 0.0
H1054 H 0.721 0.88945 0.33744 0.0
H1055 H 0.74946 0.90848 0.53577 0.0
Co1056 Co 0.05762 0.78167 0.46625 0.0
C1057 C 0.05854 0.78311 0.65021 0.0
C1058 C 0.05812 0.76548 0.6052 0.0
C1059 C 0.05798 0.76522 0.69125 0.0
N1060 N 0.05851 0.77671 0.57992 0.0
N1061 N 0.05825 0.77633 0.71985 0.0
H1062 H 0.05867 0.79249 0.64951 0.0
H1063 H 0.05763 0.75787 0.56391 0.0
C1064 C 0.08113 0.78041 0.39377 0.0
O1065 O 0.08644 0.79259 0.36454 0.0
N1066 N 0.05631 0.78625 0.3506 0.0
C1067 C 0.05028 0.79293 0.32321 0.0
C1068 C 0.04987 0.79262 0.23743 0.0
C1069 C 0.05892 0.78149 0.28029 0.0
N1070 N 0.05537 0.78547 0.21011 0.0
C1071 C 0.07046 0.81024 0.47474 0.0
C1072 C 0.09459 0.81449 0.53479 0.0
C1073 C 0.09339 0.82552 0.51182 0.0
C1074 C 0.08096 0.82324 0.4843 0.0
C1075 C 0.08377 0.80163 0.52458 0.0
N1076 N 0.07218 0.79962 0.48928 0.0
H1077 H 0.06093 0.80878 0.45605 0.0
H1078 H 0.08487 0.79326 0.54275 0.0
H1079 H 0.04568 0.79709 0.36224 0.0
H1080 H 0.06282 0.77479 0.2804 0.0
O1081 O 0.0426 0.78382 0.49621 0.0
O1082 O 0.04133 0.76511 0.45158 0.0
O1083 O 0.07008 0.77507 0.43318 0.0
C1084 C 0.03522 0.77127 0.47738 0.0
H1085 H 0.05733 0.7572 0.72916 0.0
H1086 H 0.04522 0.7968 0.19879 0.0
H1087 H 0.1039 0.81571 0.55786 0.0
H1088 H 0.07933 0.83144 0.47 0.0
Co1089 Co 0.92627 0.53288 0.8656 0.0
C1090 C 0.92571 0.53002 0.68199 0.0
C1091 C 0.94352 0.54738 0.7232 0.0
C1092 C 0.94367 0.54688 0.63711 0.0
N1093 N 0.93228 0.53679 0.75102 0.0
N1094 N 0.93245 0.53596 0.61105 0.0
H1095 H 0.91614 0.52099 0.68412 0.0
H1096 H 0.95092 0.55512 0.76252 0.0
C1097 C 0.9526 0.54921 0.94067 0.0
O1098 O 0.94813 0.55707 0.96501 0.0
N1099 N 0.92012 0.52895 0.98167 0.0
C1100 C 0.90813 0.5263 1.01098 0.0
C1101 C 0.90802 0.52533 0.09665 0.0
C1102 C 0.92701 0.52922 0.05077 0.0
N1103 N 0.91994 0.52728 0.12194 0.0
C1104 C 0.91024 0.5044 0.86781 0.0
C1105 C 0.93028 0.49972 0.81573 0.0
C1106 C 0.91776 0.48882 0.83487 0.0
C1107 C 0.90761 0.49129 0.86045 0.0
C1108 C 0.93246 0.5126 0.82368 0.0
N1109 N 0.92261 0.51481 0.85112 0.0
H1110 H 0.90239 0.50623 0.88756 0.0
H1111 H 0.94214 0.52082 0.8078 0.0
H1112 H 0.89999 0.52545 0.97355 0.0
H1113 H 0.93701 0.53086 0.04965 0.0
O1114 O 0.90933 0.53106 0.83148 0.0
O1115 O 0.92699 0.54976 0.87267 0.0
O1116 O 0.94494 0.53853 0.90132 0.0
C1117 C 0.91478 0.54376 0.84645 0.0
H1118 H 0.95126 0.5543 0.59697 0.0
H1119 H 0.89995 0.52393 0.13721 0.0
H1120 H 0.93847 0.49836 0.79663 0.0
H1121 H 0.89773 0.48319 0.87464 0.0
Co1122 Co 0.45581 0.39707 0.90361 0.0
C1123 C 0.45748 0.39806 0.71956 0.0
C1124 C 0.44148 0.40061 0.7646 0.0
C1125 C 0.44117 0.40044 0.6786 0.0
N1126 N 0.45172 0.39916 0.78988 0.0
N1127 N 0.45125 0.39883 0.64996 0.0
H1128 H 0.46595 0.39656 0.72023 0.0
H1129 H 0.43447 0.40131 0.80588 0.0
C1130 C 0.45789 0.42191 0.97877 0.0
O1131 O 0.46975 0.42547 1.00864 0.0
N1132 N 0.45935 0.39443 0.01943 0.0
C1133 C 0.46414 0.3866 0.04635 0.0
C1134 C 0.46363 0.38598 0.1321 0.0
C1135 C 0.45538 0.39787 0.08996 0.0
N1136 N 0.45816 0.39314 0.1598 0.0
C1137 C 0.48439 0.4082 0.90962 0.0
C1138 C 0.49073 0.43259 0.84206 0.0
C1139 C 0.50087 0.43093 0.87702 0.0
C1140 C 0.49765 0.41841 0.90839 0.0
C1141 C 0.47758 0.42217 0.84582 0.0
N1142 N 0.47444 0.41044 0.88451 0.0
H1143 H 0.48218 0.39859 0.93214 0.0
H1144 H 0.46982 0.42383 0.82189 0.0
H1145 H 0.46727 0.38112 1.00673 0.0
H1146 H 0.45007 0.40329 0.09032 0.0
O1147 O 0.45609 0.38112 0.87093 0.0
O1148 O 0.43829 0.38187 0.91421 0.0
O1149 O 0.45128 0.41102 0.93845 0.0
C1150 C 0.44338 0.3748 0.88742 0.0
H1151 H 0.43375 0.40099 0.64078 0.0
H1152 H 0.46653 0.38018 0.17046 0.0
H1153 H 0.49283 0.44208 0.81621 0.0
H1154 H 0.50529 0.41659 0.93307 0.0
Co1155 Co 0.60299 0.06074 0.86622 0.0
C1156 C 0.60409 0.06191 0.6815 0.0
C1157 C 0.60263 0.04386 0.72778 0.0
C1158 C 0.60321 0.0438 0.64165 0.0
N1159 N 0.60312 0.05518 0.75245 0.0
N1160 N 0.60414 0.05517 0.61257 0.0
H1161 H 0.60466 0.07151 0.68064 0.0
H1162 H 0.60206 0.03626 0.76948 0.0
C1163 C 0.58056 0.03675 0.94692 0.0
O1164 O 0.57654 0.04454 0.97956 0.0
N1165 N 0.60324 0.06633 0.9819 0.0
C1166 C 0.60519 0.07812 1.01025 0.0
C1167 C 0.60555 0.07818 0.0962 0.0
C1168 C 0.60311 0.05966 0.05176 0.0
N1169 N 0.60418 0.06653 0.12257 0.0
C1170 C 0.59002 0.07604 0.83603 0.0
C1171 C 0.56574 0.05489 0.78923 0.0
C1172 C 0.56699 0.06749 0.79797 0.0
C1173 C 0.57945 0.07823 0.8193 0.0
C1174 C 0.57656 0.05317 0.80703 0.0
N1175 N 0.58823 0.06349 0.83643 0.0
H1176 H 0.59971 0.08452 0.84696 0.0
H1177 H 0.57549 0.04348 0.79736 0.0
H1178 H 0.60683 0.08647 0.97243 0.0
H1179 H 0.60251 0.05006 0.05062 0.0
O1180 O 0.61774 0.0782 0.84035 0.0
O1181 O 0.61949 0.06111 0.88681 0.0
O1182 O 0.59069 0.04159 0.89867 0.0
C1183 C 0.62536 0.07345 0.86245 0.0
H1184 H 0.60326 0.03612 0.60362 0.0
H1185 H 0.60674 0.08624 0.13595 0.0
H1186 H 0.5564 0.04635 0.77057 0.0
H1187 H 0.58106 0.08825 0.82222 0.0
H1188 H 0.11822 0.43173 0.19629 0.0
H1189 H 0.08465 0.3924 0.15846 0.0
H1190 H 0.07002 0.40165 0.14171 0.0
H1191 H 0.06651 0.42068 0.14214 0.0
H1192 H 0.09952 0.4601 0.18642 0.0
H1193 H 0.11461 0.45109 0.19647 0.0
C1194 C 0.10772 0.42524 0.1837 0.0
C1195 C 0.10252 0.41141 0.17854 0.0
C1196 C 0.09925 0.43063 0.17581 0.0
C1197 C 0.08888 0.40307 0.16307 0.0
C1198 C 0.0805 0.40835 0.15345 0.0
C1199 C 0.07702 0.42734 0.15363 0.0
C1200 C 0.08189 0.44104 0.1634 0.0
C1201 C 0.08554 0.42208 0.16046 0.0
C1202 C 0.09552 0.4495 0.17882 0.0
C1203 C 0.10414 0.44435 0.18447 0.0
H1204 H 0.54157 0.64575 0.12677 0.0
H1205 H 0.57766 0.64366 0.12059 0.0
H1206 H 0.59093 0.66775 0.13558 0.0
H1207 H 0.59236 0.68938 0.15045 0.0
H1208 H 0.55657 0.69198 0.14937 0.0
H1209 H 0.54309 0.66773 0.13709 0.0
C1210 C 0.55234 0.65059 0.12884 0.0
C1211 C 0.55863 0.64295 0.12284 0.0
C1212 C 0.55995 0.66452 0.1361 0.0
C1213 C 0.57258 0.64934 0.12478 0.0
C1214 C 0.58018 0.66311 0.13355 0.0
C1215 C 0.5816 0.68464 0.14777 0.0
C1216 C 0.57545 0.69242 0.15133 0.0
C1217 C 0.57398 0.67079 0.1393 0.0
C1218 C 0.56152 0.68617 0.14668 0.0
C1219 C 0.55382 0.67232 0.1398 0.0
H1220 H 0.351 0.90366 0.15041 0.0
H1221 H 0.35361 0.94207 0.15502 0.0
H1222 H 0.32952 0.93145 0.17033 0.0
H1223 H 0.30767 0.91127 0.18036 0.0
H1224 H 0.30483 0.87279 0.16932 0.0
H1225 H 0.32901 0.88339 0.15843 0.0
C1226 C 0.34627 0.90968 0.15518 0.0
C1227 C 0.35404 0.92361 0.15178 0.0
C1228 C 0.33238 0.9035 0.16251 0.0
C1229 C 0.34782 0.93131 0.15721 0.0
C1230 C 0.33405 0.92526 0.16604 0.0
C1231 C 0.31236 0.90521 0.17578 0.0
C1232 C 0.3045 0.89129 0.1758 0.0
C1233 C 0.32623 0.91137 0.1684 0.0
C1234 C 0.31068 0.88355 0.16917 0.0
C1235 C 0.3245 0.8896 0.16312 0.0
H1236 H 0.45493 0.10231 0.86272 0.0
H1237 H 0.4199 0.06343 0.87842 0.0
H1238 H 0.40581 0.07301 0.85026 0.0
H1239 H 0.40332 0.09233 0.82115 0.0
H1240 H 0.43795 0.13149 0.81328 0.0
H1241 H 0.45232 0.12195 0.83817 0.0
C1242 C 0.44422 0.09597 0.86002 0.0
C1243 C 0.43848 0.08219 0.87253 0.0
C1244 C 0.4361 0.10159 0.84499 0.0
C1245 C 0.42457 0.07408 0.86945 0.0
C1246 C 0.41649 0.07954 0.85304 0.0
C1247 C 0.41402 0.09877 0.82443 0.0
C1248 C 0.41959 0.11256 0.81471 0.0
C1249 C 0.42214 0.09326 0.84058 0.0
C1250 C 0.43345 0.12082 0.82048 0.0
C1251 C 0.44165 0.11537 0.83468 0.0
H1252 H 0.87622 0.30445 0.87444 0.0
H1253 H 0.91206 0.30243 0.90723 0.0
H1254 H 0.9252 0.32663 0.91474 0.0
H1255 H 0.92669 0.34835 0.90567 0.0
H1256 H 0.89121 0.35075 0.86487 0.0
H1257 H 0.87774 0.32644 0.86655 0.0
C1258 C 0.88688 0.30934 0.88427 0.0
C1259 C 0.89318 0.30171 0.8906 0.0
C1260 C 0.89444 0.32331 0.88629 0.0
C1261 C 0.90701 0.30812 0.90207 0.0
C1262 C 0.91453 0.32195 0.90626 0.0
C1263 C 0.916 0.34356 0.89755 0.0
C1264 C 0.90995 0.35132 0.88514 0.0
C1265 C 0.90838 0.32964 0.89735 0.0
C1266 C 0.8961 0.34498 0.87423 0.0
C1267 C 0.8884 0.33109 0.87535 0.0
H1268 H 0.64425 0.54625 0.87392 0.0
H1269 H 0.64181 0.5821 0.85967 0.0
H1270 H 0.66577 0.5953 0.83912 0.0
H1271 H 0.68748 0.59683 0.82835 0.0
H1272 H 0.6905 0.56139 0.84969 0.0
H1273 H 0.6663 0.54786 0.86427 0.0
C1274 C 0.64899 0.55694 0.86585 0.0
C1275 C 0.64128 0.56319 0.86825 0.0
C1276 C 0.66287 0.56454 0.85558 0.0
C1277 C 0.64753 0.57706 0.85848 0.0
C1278 C 0.66124 0.58462 0.84659 0.0
C1279 C 0.68284 0.58613 0.83574 0.0
C1280 C 0.69074 0.58011 0.83763 0.0
C1281 C 0.66901 0.57849 0.84553 0.0
C1282 C 0.68461 0.56626 0.84813 0.0
C1283 C 0.67078 0.55852 0.8564 0.0
H1284 H 0.92544 0.57031 0.8381 0.0
H1285 H 0.88782 0.5337 0.83776 0.0
H1286 H 0.87603 0.54633 0.83486 0.0
H1287 H 0.87659 0.56799 0.83548 0.0
H1288 H 0.91454 0.60431 0.83041 0.0
H1289 H 0.92604 0.59158 0.83292 0.0
C1290 C 0.91465 0.56507 0.83715 0.0
C1291 C 0.9075 0.55111 0.8385 0.0
C1292 C 0.90802 0.57236 0.83502 0.0
C1293 C 0.89354 0.54446 0.83641 0.0
C1294 C 0.88681 0.55168 0.83519 0.0
C1295 C 0.88737 0.57307 0.83518 0.0
C1296 C 0.89471 0.58706 0.83325 0.0
C1297 C 0.89396 0.56566 0.83514 0.0
C1298 C 0.90867 0.59355 0.83178 0.0
C1299 C 0.91526 0.58629 0.83325 0.0
H1300 H 0.39974 0.31437 0.84746 0.0
H1301 H 0.43447 0.30994 0.85616 0.0
H1302 H 0.44879 0.33406 0.86651 0.0
H1303 H 0.4514 0.35645 0.87589 0.0
H1304 H 0.41648 0.36061 0.87467 0.0
H1305 H 0.40231 0.33661 0.85852 0.0
C1306 C 0.41045 0.31869 0.85119 0.0
C1307 C 0.41605 0.3104 0.8508 0.0
C1308 C 0.41859 0.33254 0.85869 0.0
C1309 C 0.42992 0.31613 0.85655 0.0
C1310 C 0.43812 0.32992 0.86238 0.0
C1311 C 0.44069 0.35209 0.87167 0.0
C1312 C 0.435 0.36028 0.8763 0.0
C1313 C 0.43256 0.33822 0.8639 0.0
C1314 C 0.42111 0.3545 0.87158 0.0
C1315 C 0.41299 0.34078 0.86221 0.0
H1316 H 0.64299 0.06469 0.86813 0.0
H1317 H 0.6405 0.10047 0.84959 0.0
H1318 H 0.66479 0.1139 0.84502 0.0
H1319 H 0.68675 0.11538 0.84451 0.0
H1320 H 0.68893 0.07938 0.85561 0.0
H1321 H 0.66474 0.06611 0.86516 0.0
C1322 C 0.64776 0.07544 0.86338 0.0
C1323 C 0.63999 0.0816 0.85951 0.0
C1324 C 0.66167 0.08304 0.85947 0.0
C1325 C 0.64629 0.0955 0.8525 0.0
C1326 C 0.66017 0.10318 0.85004 0.0
C1327 C 0.6819 0.10464 0.84953 0.0
C1328 C 0.68958 0.09835 0.84973 0.0
C1329 C 0.66796 0.09705 0.85332 0.0
C1330 C 0.68321 0.08443 0.85518 0.0
C1331 C 0.66939 0.07684 0.8607 0.0
H1332 H 0.57223 0.93247 0.19016 0.0
H1333 H 0.53387 0.89679 0.17615 0.0
H1334 H 0.54429 0.88318 0.19731 0.0
H1335 H 0.56438 0.88143 0.21756 0.0
H1336 H 0.60261 0.91718 0.23753 0.0
H1337 H 0.59217 0.93075 0.21656 0.0
C1338 C 0.56616 0.92172 0.19171 0.0
C1339 C 0.55232 0.91563 0.18108 0.0
C1340 C 0.57219 0.91397 0.20503 0.0
C1341 C 0.54455 0.9017 0.18423 0.0
C1342 C 0.5505 0.89392 0.19616 0.0
C1343 C 0.57041 0.89219 0.21741 0.0
C1344 C 0.58425 0.89829 0.22867 0.0
C1345 C 0.56432 0.89994 0.20629 0.0
C1346 C 0.59193 0.91224 0.22914 0.0
C1347 C 0.58598 0.92001 0.21693 0.0
H1348 H 0.09242 0.63872 0.19154 0.0
H1349 H 0.05531 0.63886 0.19542 0.0
H1350 H 0.06721 0.66291 0.21191 0.0
H1351 H 0.08802 0.6839 0.22568 0.0
H1352 H 0.12541 0.68445 0.21524 0.0
H1353 H 0.11359 0.66018 0.20053 0.0
C1354 C 0.08699 0.64405 0.19613 0.0
C1355 C 0.07303 0.63703 0.19247 0.0
C1356 C 0.09393 0.65799 0.20426 0.0
C1357 C 0.06608 0.64404 0.1977 0.0
C1358 C 0.07286 0.6578 0.20732 0.0
C1359 C 0.09359 0.67871 0.2203 0.0
C1360 C 0.10753 0.6859 0.22197 0.0
C1361 C 0.08677 0.66487 0.21072 0.0
C1362 C 0.11464 0.67909 0.21392 0.0
C1363 C 0.10789 0.66523 0.20575 0.0
H1364 H 0.35081 0.42309 0.13943 0.0
H1365 H 0.35372 0.4616 0.14538 0.0
H1366 H 0.32944 0.45096 0.15637 0.0
H1367 H 0.30734 0.4305 0.16402 0.0
H1368 H 0.30509 0.39224 0.16493 0.0
H1369 H 0.32917 0.40299 0.15139 0.0
C1370 C 0.34613 0.42917 0.14285 0.0
C1371 C 0.35399 0.44309 0.14101 0.0
C1372 C 0.33229 0.42301 0.15045 0.0
C1373 C 0.34784 0.45085 0.14671 0.0
C1374 C 0.33397 0.44477 0.15283 0.0
C1375 C 0.31215 0.42456 0.1611 0.0
C1376 C 0.30446 0.41061 0.16522 0.0
C1377 C 0.32609 0.43083 0.15467 0.0
C1378 C 0.3108 0.403 0.16219 0.0
C1379 C 0.32457 0.40913 0.15427 0.0
H1380 H 0.75516 0.77985 0.50416 0.0
H1381 H 0.71708 0.74374 0.51156 0.0
H1382 H 0.7281 0.73051 0.51773 0.0
H1383 H 0.74852 0.72916 0.51974 0.0
H1384 H 0.78665 0.76512 0.50507 0.0
H1385 H 0.77568 0.77845 0.50278 0.0
C1386 C 0.7493 0.76909 0.50753 0.0
C1387 C 0.73535 0.76277 0.5078 0.0
C1388 C 0.75571 0.76152 0.50943 0.0
C1389 C 0.72785 0.74882 0.51113 0.0
C1390 C 0.73413 0.74125 0.51473 0.0
C1391 C 0.75442 0.73992 0.51618 0.0
C1392 C 0.76836 0.74615 0.51283 0.0
C1393 C 0.74805 0.74749 0.51368 0.0
C1394 C 0.77589 0.76008 0.50747 0.0
C1395 C 0.76963 0.76771 0.50637 0.0
H1396 H 0.23786 0.97338 0.51087 0.0
H1397 H 0.19927 0.96984 0.53853 0.0
H1398 H 0.20979 0.99404 0.55557 0.0
H1399 H 0.23024 0.01629 0.56448 0.0
H1400 H 0.26855 0.0189 0.54326 0.0
H1401 H 0.25786 0.99501 0.52149 0.0
C1402 C 0.23172 0.97788 0.52025 0.0
C1403 C 0.21782 0.96985 0.52304 0.0
C1404 C 0.23781 0.99166 0.53124 0.0
C1405 C 0.21001 0.97583 0.53619 0.0
C1406 C 0.21603 0.98966 0.54583 0.0
C1407 C 0.23619 0.01159 0.55473 0.0
C1408 C 0.25016 0.01935 0.55553 0.0
C1409 C 0.22995 0.99769 0.54368 0.0
C1410 C 0.25779 0.01315 0.54348 0.0
C1411 C 0.25169 -0.00052 0.53085 0.0
H1412 H 0.97924 0.23459 0.56663 0.0
H1413 H 0.97456 0.19643 0.50136 0.0
H1414 H -0.00121 0.20673 0.48445 0.0
H1415 H 0.02135 0.22711 0.48287 0.0
H1416 H 0.0247 0.26499 0.54094 0.0
H1417 H 0.00093 0.25424 0.5665 0.0
C1418 C 0.98345 0.22843 0.54919 0.0
C1419 C 0.97511 0.21476 0.53534 0.0
C1420 C -0.00281 0.23442 0.53812 0.0
C1421 C 0.98079 0.207 0.51236 0.0
C1422 C 0.99463 0.21289 0.50265 0.0
C1423 C 0.01681 0.23291 0.50176 0.0
C1424 C 0.02472 0.24681 0.50972 0.0
C1425 C 0.00295 0.22666 0.51461 0.0
C1426 C 0.01879 0.2543 0.5336 0.0
C1427 C 0.0052 0.24817 0.54843 0.0
H1428 H 0.26442 0.24137 0.55357 0.0
H1429 H 0.22834 0.20327 0.54963 0.0
H1430 H 0.21511 0.21434 0.54037 0.0
H1431 H 0.21385 0.235 0.5341 0.0
H1432 H 0.25021 0.27291 0.53132 0.0
H1433 H 0.26324 0.26178 0.54264 0.0
C1434 C 0.25366 0.23548 0.55077 0.0
C1435 C 0.24736 0.22153 0.55271 0.0
C1436 C 0.24615 0.24189 0.54432 0.0
C1437 C 0.23342 0.21403 0.5481 0.0
C1438 C 0.22585 0.22036 0.54302 0.0
C1439 C 0.22462 0.24079 0.53616 0.0
C1440 C 0.23105 0.25476 0.53219 0.0
C1441 C 0.23211 0.2343 0.54127 0.0
C1442 C 0.24502 0.26215 0.53404 0.0
C1443 C 0.25249 0.2558 0.54066 0.0
H1444 H 0.73342 0.97442 0.45092 0.0
H1445 H 0.76918 0.97178 0.45085 0.0
H1446 H 0.78267 0.99603 0.46459 0.0
H1447 H 0.78418 0.01804 0.475 0.0
H1448 H 0.74805 0.02006 0.48071 0.0
H1449 H 0.73483 0.99599 0.4662 0.0
C1450 C 0.74417 0.97914 0.45384 0.0
C1451 C 0.75031 0.97136 0.44935 0.0
C1452 C 0.75179 0.99298 0.46262 0.0
C1453 C 0.76424 0.97759 0.45426 0.0
C1454 C 0.77194 0.99144 0.46188 0.0
C1455 C 0.77342 0.01318 0.47289 0.0
C1456 C 0.7671 0.02082 0.47853 0.0
C1457 C 0.76582 -0.00075 0.46577 0.0
C1458 C 0.75315 0.01441 0.47665 0.0
C1459 C 0.74557 0.00064 0.46823 0.0
H1460 H 0.97351 0.73246 0.51336 0.0
H1461 H 0.97341 0.76958 0.51131 0.0
H1462 H -0.00233 0.78184 0.49777 0.0
H1463 H 0.01899 0.78195 0.48808 0.0
H1464 H 0.01864 0.74459 0.48443 0.0
H1465 H 0.9945 0.73251 0.49879 0.0
C1466 C 0.97879 0.74324 0.50992 0.0
C1467 C 0.9717 0.75011 0.51373 0.0
C1468 C 0.99267 0.75018 0.50129 0.0
C1469 C 0.97866 0.76406 0.50836 0.0
C1470 C 0.99253 0.77107 0.50087 0.0
C1471 C 0.01361 0.77117 0.49062 0.0
C1472 C 0.02059 0.76418 0.4856 0.0
C1473 C -0.00034 0.76424 0.49762 0.0
C1474 C 0.0135 0.75021 0.48802 0.0
C1475 C -0.00031 0.74328 0.49635 0.0
H1476 H 0.10697 0.31374 0.35023 0.0
H1477 H 0.06521 0.301 0.37275 0.0
H1478 H 0.06947 0.32286 0.33003 0.0
H1479 H 0.08481 0.34554 0.28604 0.0
H1480 H 0.1268 0.35938 0.27017 0.0
H1481 H 0.12275 0.33727 0.31103 0.0
C1482 C 0.09885 0.3158 0.34555 0.0
C1483 C 0.08581 0.30576 0.36459 0.0
C1484 C 0.1014 0.3286 0.32244 0.0
C1485 C 0.07537 0.30857 0.35908 0.0
C1486 C 0.07777 0.32107 0.33442 0.0
C1487 C 0.09309 0.34373 0.29141 0.0
C1488 C 0.10605 0.35402 0.27454 0.0
C1489 C 0.09071 0.33115 0.31602 0.0
C1490 C 0.11671 0.35159 0.28299 0.0
C1491 C 0.11439 0.33894 0.30604 0.0
H1492 H 0.63294 0.75675 0.40589 0.0
H1493 H 0.64032 0.76076 0.14041 0.0
H1494 H 0.66437 0.77238 0.16543 0.0
H1495 H 0.68326 0.78082 0.26341 0.0
H1496 H 0.67575 0.77414 0.52792 0.0
H1497 H 0.6518 0.76419 0.50352 0.0
C1498 C 0.63988 0.76028 0.35386 0.0
C1499 C 0.63503 0.75812 0.27163 0.0
C1500 C 0.65361 0.76643 0.36877 0.0
C1501 C 0.64396 0.76242 0.20421 0.0
C1502 C 0.65766 0.76904 0.21851 0.0
C1503 C 0.67634 0.77724 0.31545 0.0
C1504 C 0.68114 0.77828 0.39724 0.0
C1505 C 0.6626 0.77104 0.30052 0.0
C1506 C 0.67217 0.77343 0.46446 0.0
C1507 C 0.65852 0.76776 0.45052 0.0
H1508 H 0.20147 0.89493 0.28662 0.0
H1509 H 0.23009 0.91641 0.48085 0.0
H1510 H 0.24426 0.90788 0.42973 0.0
H1511 H 0.24875 0.89471 0.32757 0.0
H1512 H 0.22018 0.87374 0.13178 0.0
H1513 H 0.20582 0.88171 0.1859 0.0
C1514 C 0.21075 0.89767 0.31827 0.0
C1515 C 0.21469 0.90627 0.38752 0.0
C1516 C 0.21892 0.89289 0.28796 0.0
C1517 C 0.22682 0.90981 0.42728 0.0
C1518 C 0.23494 0.90495 0.39806 0.0
C1519 C 0.23938 0.89187 0.29679 0.0
C1520 C 0.23559 0.88365 0.22557 0.0
C1521 C 0.23114 0.89656 0.328 0.0
C1522 C 0.2234 0.88008 0.18654 0.0
C1523 C 0.21514 0.88462 0.21749 0.0
H1524 H 0.31671 0.10327 0.53976 0.0
H1525 H 0.30645 0.07194 0.72035 0.0
H1526 H 0.32946 0.08289 0.76912 0.0
H1527 H 0.3527 0.10118 0.75821 0.0
H1528 H 0.36259 0.13244 0.57749 0.0
H1529 H 0.33957 0.12167 0.53132 0.0
C1530 C 0.31947 0.09884 0.59001 0.0
C1531 C 0.30986 0.08677 0.62595 0.0
C1532 C 0.3327 0.10515 0.61766 0.0
C1533 C 0.31364 0.08122 0.6913 0.0
C1534 C 0.32681 0.08746 0.71921 0.0
C1535 C 0.34981 0.10562 0.70872 0.0
C1536 C 0.35939 0.11758 0.67131 0.0
C1537 C 0.33646 0.09939 0.68239 0.0
C1538 C 0.35545 0.12325 0.6076 0.0
C1539 C 0.34226 0.11709 0.58096 0.0
H1540 H 0.89645 0.20429 0.71146 0.0
H1541 H 0.93074 0.2338 0.57545 0.0
H1542 H 0.92488 0.25063 0.60921 0.0
H1543 H 0.91059 0.25729 0.68069 0.0
H1544 H 0.87606 0.22814 0.81578 0.0
H1545 H 0.88141 0.21087 0.77856 0.0
C1546 C 0.9026 0.21439 0.68895 0.0
C1547 C 0.91406 0.21774 0.64133 0.0
C1548 C 0.89916 0.22411 0.7085 0.0
C1549 C 0.92187 0.23088 0.61231 0.0
C1550 C 0.91855 0.24056 0.63166 0.0
C1551 C 0.9042 0.24716 0.70197 0.0
C1552 C 0.89302 0.24403 0.75144 0.0
C1553 C 0.90731 0.23732 0.68029 0.0
C1554 C 0.88476 0.23081 0.77761 0.0
C1555 C 0.88783 0.22094 0.75654 0.0
H1556 H 0.77936 0.68864 0.74984 0.0
H1557 H 0.77449 0.68328 0.48292 0.0
H1558 H 0.76398 0.65912 0.5002 0.0
H1559 H 0.75586 0.63949 0.59205 0.0
H1560 H 0.75822 0.64475 0.85952 0.0
H1561 H 0.77005 0.66896 0.84192 0.0
C1562 C 0.77603 0.68213 0.69571 0.0
C1563 C 0.77776 0.68761 0.6153 0.0
C1564 C 0.76956 0.66827 0.70643 0.0
C1565 C 0.77323 0.67918 0.54538 0.0
C1566 C 0.76726 0.66541 0.55524 0.0
C1567 C 0.75905 0.64599 0.64619 0.0
C1568 C 0.75637 0.64047 0.72683 0.0
C1569 C 0.76534 0.65984 0.63549 0.0
C1570 C 0.76026 0.64887 0.79688 0.0
C1571 C 0.76701 0.66268 0.78683 0.0
H1572 H 0.87122 0.64412 0.63852 0.0
H1573 H 0.90361 0.65071 0.80153 0.0
H1574 H 0.91593 0.67403 0.7594 0.0
H1575 H 0.91785 0.69239 0.67269 0.0
H1576 H 0.88556 0.68562 0.50813 0.0
H1577 H 0.87288 0.66258 0.55488 0.0
C1578 C 0.88094 0.65066 0.66523 0.0
C1579 C 0.88648 0.64564 0.72287 0.0
C1580 C 0.88803 0.66405 0.64032 0.0
C1581 C 0.89911 0.65428 0.75674 0.0
C1582 C 0.90618 0.66763 0.73271 0.0
C1583 C 0.90802 0.6859 0.64732 0.0
C1584 C 0.90271 0.69074 0.58668 0.0
C1585 C 0.90079 0.6726 0.67397 0.0
C1586 C 0.88993 0.68217 0.55462 0.0
C1587 C 0.88266 0.66897 0.58128 0.0
H1588 H 0.30715 0.21782 0.79657 0.0
H1589 H 0.31016 0.21341 0.53129 0.0
H1590 H 0.33448 0.22619 0.53995 0.0
H1591 H 0.3549 0.23909 0.62299 0.0
H1592 H 0.35178 0.24563 0.88544 0.0
H1593 H 0.32755 0.23168 0.87837 0.0
C1594 C 0.3132 0.2196 0.7411 0.0
C1595 C 0.30702 0.21458 0.66371 0.0
C1596 C 0.32712 0.22742 0.7461 0.0
C1597 C 0.31482 0.21714 0.59155 0.0
C1598 C 0.32868 0.22445 0.59649 0.0
C1599 C 0.34888 0.23741 0.67849 0.0
C1600 C 0.35505 0.24328 0.75464 0.0
C1601 C 0.33495 0.22971 0.67335 0.0
C1602 C 0.34719 0.24123 0.82604 0.0
C1603 C 0.33336 0.23322 0.82211 0.0
H1604 H 0.75635 0.11356 0.59219 0.0
H1605 H 0.76198 0.11132 0.85677 0.0
H1606 H 0.7749 0.10024 0.82966 0.0
H1607 H 0.78364 0.09023 0.73041 0.0
H1608 H 0.77553 0.08997 0.46716 0.0
H1609 H 0.76454 0.10298 0.49323 0.0
C1610 C 0.76058 0.11076 0.64351 0.0
C1611 C 0.75847 0.11334 0.7261 0.0
C1612 C 0.76746 0.1039 0.62749 0.0
C1613 C 0.76363 0.10944 0.79269 0.0
C1614 C 0.77097 0.10312 0.7772 0.0
C1615 C 0.77957 0.09318 0.67894 0.0
C1616 C 0.78045 0.08933 0.59706 0.0
C1617 C 0.77282 0.10017 0.69488 0.0
C1618 C 0.77493 0.09289 0.53069 0.0
C1619 C 0.76868 0.10031 0.54556 0.0
H1620 H 0.67903 0.89037 0.47339 0.0
H1621 H 0.69144 0.92163 0.28954 0.0
H1622 H 0.66838 0.91277 0.24589 0.0
H1623 H 0.6446 0.89659 0.26314 0.0
H1624 H 0.6323 0.86534 0.447 0.0
H1625 H 0.6554 0.87377 0.48717 0.0
C1626 C 0.67672 0.89522 0.42344 0.0
C1627 C 0.68696 0.90669 0.38518 0.0
C1628 C 0.66344 0.89011 0.39881 0.0
C1629 C 0.68376 0.9128 0.32031 0.0
C1630 C 0.67057 0.90775 0.29535 0.0
C1631 C 0.64697 0.89161 0.31192 0.0
C1632 C 0.63671 0.88038 0.35217 0.0
C1633 C 0.66031 0.8965 0.33476 0.0
C1634 C 0.63998 0.874 0.41485 0.0
C1635 C 0.6532 0.87882 0.43803 0.0
H1636 H 0.09895 0.738 0.33212 0.0
H1637 H 0.13765 0.77225 0.37445 0.0
H1638 H 0.12756 0.78626 0.39134 0.0
H1639 H 0.10759 0.78874 0.3939 0.0
H1640 H 0.0689 0.75403 0.36144 0.0
H1641 H 0.0791 0.74025 0.34016 0.0
C1642 C 0.10517 0.74853 0.34514 0.0
C1643 C 0.11902 0.75409 0.35182 0.0
C1644 C 0.0993 0.75645 0.35607 0.0
C1645 C 0.12695 0.76772 0.36951 0.0
C1646 C 0.12119 0.77575 0.37874 0.0
C1647 C 0.10145 0.77818 0.38158 0.0
C1648 C 0.08755 0.77239 0.37854 0.0
C1649 C 0.10737 0.77023 0.37191 0.0
C1650 C 0.07964 0.75867 0.36406 0.0
C1651 C 0.08545 0.7508 0.35191 0.0
H1652 H 0.2386 0.3583 0.41647 0.0
H1653 H 0.23333 0.34946 0.15296 0.0
H1654 H 0.22171 0.32555 0.18345 0.0
H1655 H 0.2139 0.30724 0.28551 0.0
H1656 H 0.22223 0.31624 0.54753 0.0
H1657 H 0.23191 0.34005 0.51802 0.0
C1658 C 0.23481 0.35109 0.36609 0.0
C1659 C 0.23662 0.35548 0.28286 0.0
C1660 C 0.22881 0.33745 0.38406 0.0
C1661 C 0.23192 0.34617 0.21752 0.0
C1662 C 0.22533 0.33256 0.23494 0.0
C1663 C 0.21781 0.31446 0.3359 0.0
C1664 C 0.21732 0.31013 0.41844 0.0
C1665 C 0.22384 0.32809 0.31795 0.0
C1666 C 0.22255 0.31946 0.4835 0.0
C1667 C 0.22804 0.33302 0.46667 0.0
H1668 H 0.97002 0.4165 0.09863 0.0
H1669 H 0.97369 0.42129 0.83099 0.0
H1670 H -0.00202 0.43415 0.84317 0.0
H1671 H 0.01818 0.44398 0.93069 0.0
H1672 H 0.01455 0.43688 0.19658 0.0
H1673 H 0.99026 0.42491 0.18499 0.0
C1674 C 0.9762 0.42043 0.0433 0.0
C1675 C 0.97022 0.41819 0.96424 0.0
C1676 C 0.99012 0.42732 0.05064 0.0
C1677 C 0.97819 0.42302 0.89244 0.0
C1678 C 0.99203 0.43034 0.89942 0.0
C1679 C 0.01202 0.43979 0.98584 0.0
C1680 C 0.01802 0.44135 0.06436 0.0
C1681 C -0.00189 0.43256 0.97821 0.0
C1682 C 0.01005 0.43574 0.1355 0.0
C1683 C 0.9962 0.42895 0.12894 0.0
H1684 H 0.55673 0.54468 0.86486 0.0
H1685 H 0.58894 0.56578 0.03977 0.0
H1686 H 0.57831 0.57791 0.0923 0.0
H1687 H 0.56036 0.58322 0.08485 0.0
H1688 H 0.52813 0.56211 0.91024 0.0
H1689 H 0.53827 0.54928 0.86181 0.0
C1690 C 0.5614 0.55187 0.91477 0.0
C1691 C 0.57366 0.55436 0.9478 0.0
C1692 C 0.55526 0.55886 0.94469 0.0
C1693 C 0.57952 0.56368 1.01284 0.0
C1694 C 0.57346 0.57065 0.04295 0.0
C1695 C 0.55552 0.57578 0.03641 0.0
C1696 C 0.54354 0.57369 1.001 0.0
C1697 C 0.56141 0.56844 1.00869 0.0
C1698 C 0.53736 0.56394 0.9387 0.0
C1699 C 0.54317 0.5566 0.91075 0.0
H1700 H 0.43942 0.98816 0.16397 0.0
H1701 H 0.40825 0.97686 0.98066 0.0
H1702 H 0.41972 -0.00079 0.92226 0.0
H1703 H 0.43802 0.02223 0.92676 0.0
H1704 H 0.46923 0.03372 0.10977 0.0
H1705 H 0.45835 0.01103 0.16413 0.0
C1706 C 0.43517 0.99056 0.11098 0.0
C1707 C 0.42293 0.98085 0.07733 0.0
C1708 C 0.4418 0.00349 0.0776 0.0
C1709 C 0.41761 0.98413 1.00829 0.0
C1710 C 0.42416 0.99694 0.97473 0.0
C1711 C 0.44249 0.01977 0.97827 0.0
C1712 C 0.45438 0.02968 0.01432 0.0
C1713 C 0.43617 0.00673 1.0095 0.0
C1714 C 0.46008 0.02629 0.08068 0.0
C1715 C 0.45384 0.01332 0.11207 0.0
H1716 H 0.55871 0.97558 0.01397 0.0
H1717 H 0.53434 0.98226 0.18943 0.0
H1718 H 0.54443 0.00532 0.14456 0.0
H1719 H 0.56055 0.02381 0.05899 0.0
H1720 H 0.58524 0.01751 0.88429 0.0
H1721 H 0.57461 0.99413 0.92524 0.0
C1722 C 0.55559 0.98207 0.04218 0.0
C1723 C 0.54582 0.97717 0.10526 0.0
C1724 C 0.56148 0.99542 0.01636 0.0
C1725 C 0.54186 0.98573 0.14096 0.0
C1726 C 0.54762 -0.00105 0.11537 0.0
C1727 C 0.56357 0.01733 0.0294 0.0
C1728 C 0.57369 0.02244 0.96877 0.0
C1729 C 0.5575 0.00393 0.0536 0.0
C1730 C 0.57749 0.01386 0.93134 0.0
C1731 C 0.57142 0.00048 0.95474 0.0
H1732 H 0.96878 0.5671 0.05518 0.0
H1733 H 0.96704 0.5385 0.87587 0.0
H1734 H 0.98999 0.54464 0.90928 0.0
H1735 H 0.0109 0.55885 0.9863 0.0
H1736 H 0.01194 0.58712 0.16643 0.0
H1737 H 0.98896 0.58033 0.13592 0.0
C1738 C 0.9734 0.5622 0.02329 0.0
C1739 C 0.96626 0.55246 0.96264 0.0
C1740 C 0.98652 0.56571 0.04299 0.0
C1741 C 0.97235 0.54607 0.9228 0.0
C1742 C 0.98548 0.54958 0.94177 0.0
C1743 C 0.00606 0.56344 0.01925 0.0
C1744 C 0.01323 0.57354 0.07824 0.0
C1745 C 0.99271 0.55949 1.00135 0.0
C1746 C 0.00676 0.57936 0.1205 0.0
C1747 C 0.99358 0.5755 0.10307 0.0
H1748 H 0.43165 0.4136 0.98668 0.0
H1749 H 0.47036 0.44869 1.0068 0.0
H1750 H 0.45998 0.46238 0.02823 0.0
H1751 H 0.43976 0.46428 0.04073 0.0
H1752 H 0.40121 0.4288 0.03017 0.0
H1753 H 0.41164 0.41532 1.00513 0.0
C1754 C 0.43782 0.42425 0.99562 0.0
C1755 C 0.45174 0.43017 0.99464 0.0
C1756 C 0.43179 0.43197 1.0094 0.0
C1757 C 0.45961 0.44393 1.00755 0.0
C1758 C 0.45368 0.45175 0.01947 0.0
C1759 C 0.43369 0.45361 0.0325 0.0
C1760 C 0.41976 0.44752 0.03658 0.0
C1761 C 0.43978 0.44588 0.02029 0.0
C1762 C 0.41196 0.43368 0.02732 0.0
C1763 C 0.41791 0.42598 1.01293 0.0
H1764 H 0.17904 0.40188 0.06983 0.0
H1765 H 0.1889 0.41908 0.31651 0.0
H1766 H 0.21051 0.4202 0.30901 0.0
H1767 H 0.2256 0.41428 0.23766 0.0
H1768 H 0.21497 0.39543 0.99574 0.0
H1769 H 0.1947 0.39701 0.99527 0.0
C1770 C 0.18607 0.40611 0.12106 0.0
C1771 C 0.18249 0.41044 0.19346 0.0
C1772 C 0.19825 0.4063 0.11731 0.0
C1773 C 0.19151 0.41569 0.26026 0.0
C1774 C 0.20382 0.4163 0.25602 0.0
C1775 C 0.21896 0.41077 0.18423 0.0
C1776 C 0.22172 0.40477 0.11679 0.0
C1777 C 0.20716 0.41135 0.18566 0.0
C1778 C 0.21296 0.40003 0.04843 0.0
C1779 C 0.2014 0.40093 0.04821 0.0
H1780 H 0.57842 0.77477 0.21837 0.0
H1781 H 0.6026 0.78614 0.99536 0.0
H1782 H 0.60323 0.8075 0.9934 0.0
H1783 H 0.5983 0.82353 0.0608 0.0
H1784 H 0.57475 0.81245 0.28654 0.0
H1785 H 0.57213 0.79024 0.28011 0.0
C1786 C 0.58361 0.78181 0.16843 0.0
C1787 C 0.59056 0.77892 0.10757 0.0
C1788 C 0.58405 0.79413 0.1682 0.0
C1789 C 0.59735 0.78822 0.04371 0.0
C1790 C 0.59768 0.80041 0.04241 0.0
C1791 C 0.59257 0.81625 0.10853 0.0
C1792 C 0.58684 0.81971 0.17449 0.0
C1793 C 0.59134 0.8036 0.10545 0.0
C1794 C 0.5792 0.81005 0.23475 0.0
C1795 C 0.57778 0.79737 0.23152 0.0
H1796 H 0.22208 0.8114 0.2873 0.0
H1797 H 0.21827 0.81883 0.02759 0.0
H1798 H 0.19817 0.79693 0.01564 0.0
H1799 H 0.18085 0.77636 0.08268 0.0
H1800 H 0.18524 0.76873 0.34134 0.0
H1801 H 0.20604 0.78996 0.35033 0.0
C1802 C 0.21687 0.80811 0.22806 0.0
C1803 C 0.22145 0.81662 0.15858 0.0
C1804 C 0.20546 0.79553 0.22171 0.0
C1805 C 0.21483 0.81234 0.08168 0.0
C1806 C 0.20335 0.79988 0.07503 0.0
C1807 C 0.18647 0.77934 0.14058 0.0
C1808 C 0.18157 0.77111 0.21138 0.0
C1809 C 0.19844 0.7915 0.14508 0.0
C1810 C 0.18892 0.77493 0.28601 0.0
C1811 C 0.20075 0.78707 0.29131 0.0
H1812 H 0.4148 0.19081 0.91004 0.0
H1813 H 0.37795 0.17032 0.7727 0.0
H1814 H 0.37544 0.18993 0.77985 0.0
H1815 H 0.3837 0.21284 0.82356 0.0
H1816 H 0.42031 0.23359 0.96308 0.0
H1817 H 0.42303 0.21402 0.95573 0.0
C1818 C 0.40629 0.19071 0.88137 0.0
C1819 C 0.39654 0.17913 0.84134 0.0
C1820 C 0.40486 0.20204 0.88608 0.0
C1821 C 0.38549 0.17907 0.80484 0.0
C1822 C 0.38407 0.19028 0.80864 0.0
C1823 C 0.39218 0.21304 0.85359 0.0
C1824 C 0.40174 0.22465 0.8942 0.0
C1825 C 0.39364 0.20178 0.8494 0.0
C1826 C 0.41284 0.22482 0.93089 0.0
C1827 C 0.41438 0.21361 0.92693 0.0
H1828 H 0.77891 0.17635 0.98408 0.0
H1829 H 0.7678 0.17979 0.73192 0.0
H1830 H 0.78799 0.20144 0.71704 0.0
H1831 H 0.80965 0.21855 0.77219 0.0
H1832 H 0.82054 0.21549 0.02551 0.0
H1833 H 0.79957 0.1946 0.04407 0.0
C1834 C 0.78089 0.18194 0.9263 0.0
C1835 C 0.77198 0.17651 0.85899 0.0
C1836 C 0.79249 0.19439 0.91837 0.0
C1837 C 0.77452 0.18385 0.78466 0.0
C1838 C 0.78608 0.19617 0.77596 0.0
C1839 C 0.80733 0.21334 0.83159 0.0
C1840 C 0.8166 0.21842 0.8972 0.0
C1841 C 0.79526 0.20141 0.84181 0.0
C1842 C 0.81349 0.21173 0.97432 0.0
C1843 C 0.80156 0.19977 0.98474 0.0
H1844 H 0.81388 0.5877 0.81571 0.0
H1845 H 0.82933 0.61464 0.02539 0.0
H1846 H 0.80829 0.61449 0.03768 0.0
H1847 H 0.78589 0.60761 0.98423 0.0
H1848 H 0.77055 0.58064 0.77472 0.0
H1849 H 0.79101 0.57959 0.76884 0.0
C1850 C 0.81258 0.59334 0.86521 0.0
C1851 C 0.82325 0.60126 0.91898 0.0
C1852 C 0.80045 0.5932 0.87205 0.0
C1853 C 0.8214 0.60864 0.98204 0.0
C1854 C 0.80934 0.60852 0.98941 0.0
C1855 C 0.78702 0.60149 0.93742 0.0
C1856 C 0.77672 0.59427 0.87975 0.0
C1857 C 0.79888 0.60102 0.9338 0.0
C1858 C 0.77826 0.5862 0.82037 0.0
C1859 C 0.79 0.58566 0.81654 0.0
H1860 H 0.88214 0.73316 0.40527 0.0
H1861 H 0.8903 0.75101 0.6502 0.0
H1862 H 0.86947 0.75153 0.64675 0.0
H1863 H 0.84818 0.7453 0.57857 0.0
H1864 H 0.83915 0.72585 0.33837 0.0
H1865 H 0.86104 0.72754 0.33493 0.0
C1866 C 0.8794 0.73736 0.45705 0.0
C1867 C 0.88768 0.74212 0.52765 0.0
C1868 C 0.86722 0.73721 0.45566 0.0
C1869 C 0.88402 0.74733 0.59526 0.0
C1870 C 0.87213 0.74759 0.59333 0.0
C1871 C 0.85112 0.74163 0.52496 0.0
C1872 C 0.84213 0.7355 0.45874 0.0
C1873 C 0.86354 0.74233 0.52455 0.0
C1874 C 0.84592 0.73056 0.39018 0.0
C1875 C 0.85841 0.73154 0.3882 0.0
H1876 H 0.26634 0.14702 0.43529 0.0
H1877 H 0.25291 0.14612 0.68787 0.0
H1878 H 0.25156 0.12466 0.71173 0.0
H1879 H 0.25493 0.10648 0.66221 0.0
H1880 H 0.26716 0.10663 0.40751 0.0
H1881 H 0.26813 0.12793 0.38243 0.0
C1882 C 0.26307 0.14205 0.49526 0.0
C1883 C 0.25978 0.14811 0.5599 0.0
C1884 C 0.26209 0.12959 0.50803 0.0
C1885 C 0.25543 0.14158 0.63719 0.0
C1886 C 0.2547 0.12934 0.65092 0.0
C1887 C 0.25773 0.11117 0.60118 0.0
C1888 C 0.26104 0.10508 0.5369 0.0
C1889 C 0.2581 0.12331 0.58705 0.0
C1890 C 0.26452 0.11114 0.45775 0.0
C1891 C 0.26514 0.12334 0.44357 0.0
H1892 H 0.89078 0.13798 0.42532 0.0
H1893 H 0.87483 0.16033 0.54566 0.0
H1894 H 0.85264 0.1409 0.54292 0.0
H1895 H 0.8378 0.11757 0.50936 0.0
H1896 H 0.85324 0.09481 0.38906 0.0
H1897 H 0.87563 0.11429 0.39074 0.0
C1898 C 0.88245 0.13856 0.45126 0.0
C1899 C 0.88448 0.15065 0.48496 0.0
C1900 C 0.86964 0.12727 0.45003 0.0
C1901 C 0.87355 0.15125 0.51783 0.0
C1902 C 0.86085 0.14011 0.51688 0.0
C1903 C 0.84602 0.11689 0.48236 0.0
C1904 C 0.84381 0.10477 0.44858 0.0
C1905 C 0.85879 0.12809 0.48311 0.0
C1906 C 0.85466 0.104 0.41594 0.0
C1907 C 0.86746 0.11515 0.41653 0.0
H1908 H 0.04242 0.53867 0.16742 0.0
H1909 H 0.07913 0.56102 0.30416 0.0
H1910 H 0.08198 0.54153 0.30748 0.0
H1911 H 0.07392 0.51796 0.27187 0.0
H1912 H 0.03693 0.49584 0.13752 0.0
H1913 H 0.03421 0.51532 0.13472 0.0
C1914 C 0.05096 0.53927 0.19917 0.0
C1915 C 0.06051 0.55133 0.23561 0.0
C1916 C 0.05248 0.52801 0.20152 0.0
C1917 C 0.07167 0.55193 0.2747 0.0
C1918 C 0.07328 0.54076 0.27702 0.0
C1919 C 0.0653 0.51745 0.24178 0.0
C1920 C 0.05561 0.50543 0.20544 0.0
C1921 C 0.06376 0.52874 0.24039 0.0
C1922 C 0.04444 0.50489 0.16715 0.0
C1923 C 0.0429 0.51606 0.16507 0.0
H1924 H 0.43615 0.52464 0.21361 0.0
H1925 H 0.45335 0.50151 0.12289 0.0
H1926 H 0.47509 0.52149 0.11411 0.0
H1927 H 0.48913 0.54543 0.12873 0.0
H1928 H 0.47256 0.56899 0.22116 0.0
H1929 H 0.45058 0.54899 0.23039 0.0
C1930 C 0.44467 0.52401 0.1918 0.0
C1931 C 0.44314 0.51157 0.16972 0.0
C1932 C 0.45721 0.5356 0.18647 0.0
C1933 C 0.45429 0.5109 0.1419 0.0
C1934 C 0.46671 0.52234 0.13619 0.0
C1935 C 0.48078 0.54621 0.15221 0.0
C1936 C 0.48254 0.5587 0.17489 0.0
C1937 C 0.46829 0.53471 0.15827 0.0
C1938 C 0.47148 0.55952 0.20276 0.0
C1939 C 0.45893 0.54808 0.2085 0.0
H1940 H 0.47533 0.92629 0.25675 0.0
H1941 H 0.47672 0.92141 0.99004 0.0
H1942 H 0.45538 0.92046 0.97363 0.0
H1943 H 0.43742 0.92315 0.03304 0.0
H1944 H 0.43588 0.92823 0.29916 0.0
H1945 H 0.45598 0.92666 0.31821 0.0
C1946 C 0.47081 0.92474 0.19538 0.0
C1947 C 0.4777 0.92415 0.12459 0.0
C1948 C 0.45855 0.92432 0.18622 0.0
C1949 C 0.47174 0.92216 0.04532 0.0
C1950 C 0.45953 0.92159 0.03585 0.0
C1951 C 0.44145 0.92382 0.09523 0.0
C1952 C 0.43531 0.92598 0.16443 0.0
C1953 C 0.45305 0.92306 0.1055 0.0
C1954 C 0.44045 0.92656 0.24491 0.0
C1955 C 0.45198 0.92574 0.25576 0.0
H1956 H 0.55969 0.08197 0.8952 0.0
H1957 H 0.54795 0.05698 0.67587 0.0
H1958 H 0.52756 0.05815 0.66586 0.0
H1959 H 0.51242 0.06503 0.72482 0.0
H1960 H 0.52371 0.08918 0.94796 0.0
H1961 H 0.54514 0.09002 0.94903 0.0
C1962 C 0.55279 0.07698 0.84432 0.0
C1963 C 0.55529 0.06931 0.78677 0.0
C1964 C 0.54102 0.07758 0.83946 0.0
C1965 C 0.54616 0.06278 0.72175 0.0
C1966 C 0.53453 0.06349 0.71579 0.0
C1967 C 0.51957 0.07049 0.77371 0.0
C1968 C 0.51637 0.07691 0.8367 0.0
C1969 C 0.53172 0.07063 0.77533 0.0
C1970 C 0.52591 0.08422 0.89829 0.0
C1971 C 0.53814 0.08461 0.89945 0.0
H1972 H 0.91 0.43167 0.89595 0.0
H1973 H 0.93468 0.44241 0.6755 0.0
H1974 H 0.93371 0.46289 0.66204 0.0
H1975 H 0.9272 0.47843 0.71867 0.0
H1976 H 0.90366 0.46832 0.94425 0.0
H1977 H 0.90243 0.44671 0.9482 0.0
C1978 C 0.91495 0.43839 0.84412 0.0
C1979 C 0.92246 0.43559 0.78708 0.0
C1980 C 0.91455 0.45025 0.83768 0.0
C1981 C 0.92897 0.44444 0.72075 0.0
C1982 C 0.9284 0.45613 0.71295 0.0
C1983 C 0.92181 0.47151 0.76881 0.0
C1984 C 0.91566 0.47509 0.83155 0.0
C1985 C 0.92147 0.45927 0.77215 0.0
C1986 C 0.90841 0.46584 0.89476 0.0
C1987 C 0.9078 0.45351 0.89753 0.0
H1988 H 0.51633 0.44901 0.75865 0.0
H1989 H 0.51574 0.43877 0.01854 0.0
H1990 H 0.53717 0.45891 0.04076 0.0
H1991 H 0.55543 0.48016 0.98827 0.0
H1992 H 0.5565 0.49016 0.72765 0.0
H1993 H 0.53563 0.46939 0.70336 0.0
C1994 C 0.52098 0.45117 0.81986 0.0
C1995 C 0.51447 0.44247 0.88692 0.0
C1996 C 0.53336 0.46274 0.83207 0.0
C1997 C 0.52062 0.44528 0.96583 0.0
C1998 C 0.53283 0.45683 0.97871 0.0
C1999 C 0.55111 0.47771 0.92614 0.0
C2000 C 0.55739 0.48667 0.85995 0.0
C2001 C 0.53919 0.46573 0.91262 0.0
C2002 C 0.55183 0.48336 0.77943 0.0
C2003 C 0.53988 0.47154 0.76565 0.0
H2004 H 0.73026 0.88205 0.57861 0.0
H2005 H 0.74193 0.88525 0.31993 0.0
H2006 H 0.74207 0.86426 0.33018 0.0
H2007 H 0.73739 0.8443 0.41017 0.0
H2008 H 0.72394 0.84013 0.6655 0.0
H2009 H 0.726 0.8622 0.65977 0.0
C2010 C 0.733 0.87819 0.52505 0.0
C2011 C 0.73613 0.88512 0.44876 0.0
C2012 C 0.73266 0.86594 0.53083 0.0
C2013 C 0.73948 0.88001 0.37916 0.0
C2014 C 0.73955 0.86804 0.38504 0.0
C2015 C 0.73512 0.84835 0.46485 0.0
C2016 C 0.7306 0.8407 0.53828 0.0
C2017 C 0.73595 0.86082 0.46015 0.0
C2018 C 0.72743 0.84589 0.60835 0.0
C2019 C 0.7286 0.85847 0.60502 0.0
H2020 H 0.11324 0.83668 0.62888 0.0
H2021 H 0.09994 0.84526 0.39709 0.0
H2022 H 0.11944 0.86745 0.39462 0.0
H2023 H 0.14093 0.88401 0.4535 0.0
H2024 H 0.15468 0.87536 0.68287 0.0
H2025 H 0.13449 0.85358 0.69029 0.0
C2026 C 0.11463 0.84338 0.57766 0.0
C2027 C 0.10508 0.83925 0.51337 0.0
C2028 C 0.126 0.85611 0.57584 0.0
C2029 C 0.10698 0.84819 0.44816 0.0
C2030 C 0.1182 0.86087 0.44629 0.0
C2031 C 0.13941 0.87745 0.50583 0.0
C2032 C 0.14932 0.8813 0.56736 0.0
C2033 C 0.12783 0.8649 0.50933 0.0
C2034 C 0.14728 0.87258 0.63412 0.0
C2035 C 0.13572 0.86014 0.63853 0.0
H2036 H 0.14813 0.25286 0.4711 0.0
H2037 H 0.15966 0.27525 0.7013 0.0
H2038 H 0.13871 0.27541 0.70358 0.0
H2039 H 0.11764 0.27028 0.63597 0.0
H2040 H 0.10617 0.24795 0.40557 0.0
H2041 H 0.12641 0.24644 0.40854 0.0
C2042 C 0.14595 0.25754 0.52265 0.0
C2043 C 0.15552 0.26413 0.5855 0.0
C2044 C 0.1339 0.25766 0.52335 0.0
C2045 C 0.15257 0.27029 0.65137 0.0
C2046 C 0.14058 0.27036 0.65284 0.0
C2047 C 0.11959 0.26509 0.58645 0.0
C2048 C 0.11045 0.25931 0.52041 0.0
C2049 C 0.13129 0.26432 0.58827 0.0
C2050 C 0.11299 0.25241 0.45744 0.0
C2051 C 0.1246 0.2516 0.45885 0.0
H2052 H 0.11512 0.37396 0.82342 0.0
H2053 H 0.12531 0.4134 0.90443 0.0
H2054 H 0.12627 0.42028 0.75935 0.0
H2055 H 0.12555 0.41552 0.60921 0.0
H2056 H 0.11649 0.37641 0.52815 0.0
H2057 H 0.11369 0.36899 0.67321 0.0
C2058 C 0.11759 0.38407 0.80948 0.0
C2059 C 0.12023 0.39314 0.87525 0.0
C2060 C 0.11835 0.38805 0.72565 0.0
C2061 C 0.12311 0.40614 0.85565 0.0
C2062 C 0.12377 0.41013 0.77243 0.0
C2063 C 0.123 0.40539 0.62312 0.0
C2064 C 0.12134 0.3966 0.55739 0.0
C2065 C 0.12162 0.40123 0.70692 0.0
C2066 C 0.11773 0.38339 0.57694 0.0
C2067 C 0.11622 0.37916 0.66014 0.0
H2068 H 0.58108 0.7333 0.5622 0.0
H2069 H 0.60782 0.71962 0.48488 0.0
H2070 H 0.61425 0.7196 0.63047 0.0
H2071 H 0.61191 0.72304 0.77991 0.0
H2072 H 0.58539 0.73713 0.856 0.0
H2073 H 0.57897 0.73702 0.71091 0.0
C2074 C 0.58821 0.73017 0.57708 0.0
C2075 C 0.59388 0.72639 0.51234 0.0
C2076 C 0.59183 0.73016 0.66092 0.0
C2077 C 0.60335 0.72267 0.53303 0.0
C2078 C 0.60698 0.72259 0.61646 0.0
C2079 C 0.60483 0.72622 0.76505 0.0
C2080 C 0.59914 0.73004 0.82971 0.0
C2081 C 0.60127 0.7263 0.68096 0.0
C2082 C 0.58981 0.73393 0.80842 0.0
C2083 C 0.58618 0.73396 0.7251 0.0
H2084 H 0.27452 0.89671 0.80377 0.0
H2085 H 0.25788 0.85564 0.87781 0.0
H2086 H 0.25751 0.84923 0.73253 0.0
H2087 H 0.26168 0.85515 0.58434 0.0
H2088 H 0.27791 0.89603 0.50854 0.0
H2089 H 0.27828 0.90258 0.65436 0.0
C2090 C 0.2707 0.88634 0.78829 0.0
C2091 C 0.26635 0.87672 0.85238 0.0
C2092 C 0.27034 0.88266 0.70408 0.0
C2093 C 0.26157 0.86334 0.83054 0.0
C2094 C 0.26124 0.85962 0.74716 0.0
C2095 C 0.26541 0.86551 0.59966 0.0
C2096 C 0.26984 0.87508 0.53549 0.0
C2097 C 0.26563 0.8692 0.68351 0.0
C2098 C 0.27435 0.88843 0.5565 0.0
C2099 C 0.27463 0.89219 0.63997 0.0
H2100 H 0.41289 0.14598 0.39355 0.0
H2101 H 0.38643 0.1056 0.47245 0.0
H2102 H 0.37987 0.099 0.32728 0.0
H2103 H 0.38186 0.10463 0.17756 0.0
H2104 H 0.408 0.14522 0.09981 0.0
H2105 H 0.41467 0.15166 0.24434 0.0
C2106 C 0.40579 0.1357 0.37905 0.0
C2107 C 0.40022 0.12631 0.44426 0.0
C2108 C 0.40203 0.13197 0.2953 0.0
C2109 C 0.39081 0.11309 0.42402 0.0
C2110 C 0.38709 0.10928 0.34078 0.0
C2111 C 0.38892 0.11492 0.1919 0.0
C2112 C 0.39442 0.12436 0.12674 0.0
C2113 C 0.39263 0.11864 0.27583 0.0
C2114 C 0.40372 0.13762 0.14757 0.0
C2115 C 0.40749 0.14137 0.23067 0.0
H2116 H 0.87332 0.25305 0.50605 0.0
H2117 H 0.87085 0.28875 0.48498 0.0
H2118 H 0.87306 0.28853 0.33306 0.0
H2119 H 0.8757 0.27814 0.20325 0.0
H2120 H 0.87733 0.24194 0.22601 0.0
H2121 H 0.87552 0.24249 0.37703 0.0
C2122 C 0.87339 0.26085 0.46834 0.0
C2123 C 0.8719 0.27089 0.50798 0.0
C2124 C 0.8745 0.26058 0.37985 0.0
C2125 C 0.87185 0.2808 0.45699 0.0
C2126 C 0.87314 0.2807 0.36957 0.0
C2127 C 0.87556 0.27033 0.24106 0.0
C2128 C 0.87689 0.26014 0.20161 0.0
C2129 C 0.87439 0.2706 0.32974 0.0
C2130 C 0.87668 0.25013 0.25315 0.0
C2131 C 0.87556 0.25037 0.34038 0.0
H2132 H 0.71677 0.57978 0.42994 0.0
H2133 H 0.73554 0.62073 0.50988 0.0
H2134 H 0.73734 0.62791 0.36465 0.0
H2135 H 0.73441 0.62263 0.21449 0.0
H2136 H 0.71585 0.58167 0.13499 0.0
H2137 H 0.71357 0.57449 0.28037 0.0
C2138 C 0.72134 0.59029 0.41588 0.0
C2139 C 0.72605 0.59967 0.48137 0.0
C2140 C 0.72253 0.59437 0.33201 0.0
C2141 C 0.73168 0.61324 0.46134 0.0
C2142 C 0.73282 0.61737 0.37803 0.0
C2143 C 0.72975 0.61212 0.22877 0.0
C2144 C 0.72536 0.60273 0.16329 0.0
C2145 C 0.72837 0.60803 0.31281 0.0
C2146 C 0.71952 0.58916 0.18354 0.0
C2147 C 0.71811 0.58502 0.2669 0.0
H2148 H 0.89298 0.61435 0.47834 0.0
H2149 H 0.85037 0.59067 0.45758 0.0
H2150 H 0.85184 0.59325 0.30571 0.0
H2151 H 0.86525 0.60206 0.17578 0.0
H2152 H 0.90795 0.62521 0.19688 0.0
H2153 H 0.90639 0.62304 0.34831 0.0
C2154 C 0.88402 0.60989 0.44066 0.0
C2155 C 0.87157 0.6023 0.48039 0.0
C2156 C 0.88493 0.61126 0.35195 0.0
C2157 C 0.86011 0.59647 0.42946 0.0
C2158 C 0.86093 0.59795 0.34208 0.0
C2159 C 0.87422 0.60655 0.2133 0.0
C2160 C 0.88669 0.61393 0.17325 0.0
C2161 C 0.87329 0.60521 0.30205 0.0
C2162 C 0.89815 0.61969 0.22446 0.0
C2163 C 0.8973 0.61841 0.31193 0.0
H2164 H 0.41574 0.28458 0.44805 0.0
H2165 H 0.37467 0.26426 0.52678 0.0
H2166 H 0.36756 0.26251 0.38137 0.0
H2167 H 0.37299 0.26602 0.23137 0.0
H2168 H 0.41406 0.28595 0.15325 0.0
H2169 H 0.42115 0.28817 0.29884 0.0
C2170 C 0.40522 0.27967 0.43371 0.0
C2171 C 0.39578 0.27455 0.49887 0.0
C2172 C 0.40119 0.27849 0.3498 0.0
C2173 C 0.3822 0.26847 0.47848 0.0
C2174 C 0.37811 0.26736 0.39509 0.0
C2175 C 0.38349 0.27095 0.2461 0.0
C2176 C 0.39296 0.27578 0.18102 0.0
C2177 C 0.38752 0.27225 0.3302 0.0
C2178 C 0.40654 0.28196 0.20161 0.0
C2179 C 0.41061 0.28333 0.28504 0.0
H2180 H 0.72503 0.09827 0.21808 0.0
H2181 H 0.73026 0.13634 0.14249 0.0
H2182 H 0.72842 0.14156 0.2876 0.0
H2183 H 0.72565 0.13554 0.43632 0.0
H2184 H 0.72108 0.09784 0.51272 0.0
H2185 H 0.72275 0.09245 0.367 0.0
C2186 C 0.72592 0.10779 0.23291 0.0
C2187 C 0.72775 0.11685 0.16839 0.0
C2188 C 0.72506 0.11084 0.31696 0.0
C2189 C 0.72865 0.12904 0.18988 0.0
C2190 C 0.72769 0.1321 0.27323 0.0
C2191 C 0.72489 0.12608 0.42108 0.0
C2192 C 0.72316 0.11708 0.4855 0.0
C2193 C 0.72588 0.12307 0.33721 0.0
C2194 C 0.7225 0.105 0.46465 0.0
C2195 C 0.72339 0.10188 0.38121 0.0
H2196 H 0.62247 0.88782 0.85668 0.0
H2197 H 0.58234 0.87504 0.93632 0.0
H2198 H 0.57489 0.87117 0.7911 0.0
H2199 H 0.57974 0.87157 0.64161 0.0
H2200 H 0.61978 0.88381 0.56165 0.0
H2201 H 0.62732 0.88812 0.70648 0.0
C2202 C 0.61212 0.88429 0.8423 0.0
C2203 C 0.603 0.88172 0.90774 0.0
C2204 C 0.60788 0.8821 0.75837 0.0
C2205 C 0.58956 0.87694 0.88767 0.0
C2206 C 0.5853 0.87481 0.80443 0.0
C2207 C 0.5901 0.87508 0.65544 0.0
C2208 C 0.59914 0.87737 0.58986 0.0
C2209 C 0.59436 0.87733 0.73926 0.0
C2210 C 0.61258 0.88214 0.60999 0.0
C2211 C 0.61691 0.88451 0.69317 0.0
H2212 H 0.12572 0.73517 0.60338 0.0
H2213 H 0.12741 0.69896 0.62042 0.0
H2214 H 0.12542 0.69896 0.77166 0.0
H2215 H 0.12314 0.70911 0.9025 0.0
H2216 H 0.12022 0.74458 0.88706 0.0
H2217 H 0.12275 0.74501 0.73481 0.0
C2218 C 0.12552 0.72722 0.64005 0.0
C2219 C 0.12694 0.7172 0.5991 0.0
C2220 C 0.12425 0.72718 0.72874 0.0
C2221 C 0.12667 0.70701 0.64895 0.0
C2222 C 0.12547 0.70695 0.73622 0.0
C2223 C 0.12323 0.71701 0.86582 0.0
C2224 C 0.1216 0.72686 0.90683 0.0
C2225 C 0.12438 0.71703 0.77729 0.0
C2226 C 0.12146 0.73687 0.85755 0.0
C2227 C 0.12288 0.73711 0.77013 0.0
H2228 H 0.25883 0.37125 0.78881 0.0
H2229 H 0.28089 0.41221 0.86882 0.0
H2230 H 0.28388 0.41954 0.72357 0.0
H2231 H 0.28032 0.4144 0.57419 0.0
H2232 H 0.25819 0.37346 0.49374 0.0
H2233 H 0.25558 0.36609 0.63862 0.0
C2234 C 0.26441 0.38178 0.77467 0.0
C2235 C 0.26957 0.39113 0.84026 0.0
C2236 C 0.26619 0.38595 0.69071 0.0
C2237 C 0.2766 0.40476 0.82019 0.0
C2238 C 0.27842 0.40898 0.73689 0.0
C2239 C 0.27482 0.40386 0.58785 0.0
C2240 C 0.26936 0.39454 0.52215 0.0
C2241 C 0.27322 0.39967 0.67167 0.0
C2242 C 0.26257 0.38091 0.54216 0.0
C2243 C 0.26099 0.37666 0.62539 0.0
H2244 H 0.80465 0.74132 0.91392 0.0
H2245 H 0.76447 0.71386 0.83635 0.0
H2246 H 0.75802 0.7075 0.98209 0.0
H2247 H 0.76371 0.71017 0.13164 0.0
H2248 H 0.8041 0.73741 0.20796 0.0
H2249 H 0.81042 0.7437 0.06273 0.0
C2250 C 0.79445 0.73403 0.9288 0.0
C2251 C 0.78505 0.72815 0.86403 0.0
C2252 C 0.79081 0.73046 1.01267 0.0
C2253 C 0.77194 0.71849 0.88462 0.0
C2254 C 0.76823 0.7149 0.96809 0.0
C2255 C 0.77393 0.71738 0.11681 0.0
C2256 C 0.78337 0.72331 0.18154 0.0
C2257 C 0.77758 0.72085 0.03268 0.0
C2258 C 0.79653 0.73281 0.16029 0.0
C2259 C 0.8002 0.73636 0.07691 0.0
H2260 H 0.24729 0.04242 0.97827 0.0
H2261 H 0.288 0.06733 0.89954 0.0
H2262 H 0.29539 0.06984 0.0446 0.0
H2263 H 0.29024 0.06567 0.19442 0.0
H2264 H 0.24951 0.04079 0.27306 0.0
H2265 H 0.24219 0.03785 0.12782 0.0
C2266 C 0.25777 0.04846 0.99273 0.0
C2267 C 0.26704 0.05468 0.92763 0.0
C2268 C 0.26196 0.04997 0.07654 0.0
C2269 C 0.28063 0.06229 0.94785 0.0
C2270 C 0.28487 0.06381 0.03104 0.0
C2271 C 0.27978 0.05947 0.17988 0.0
C2272 C 0.27047 0.05353 0.24514 0.0
C2273 C 0.27562 0.05776 0.09594 0.0
C2274 C 0.25691 0.04569 0.22473 0.0
C2275 C 0.25271 0.04392 0.14141 0.0
H2276 H 0.94749 0.18954 0.93968 0.0
H2277 H 0.92929 0.21241 0.86204 0.0
H2278 H 0.92852 0.21845 1.00719 0.0
H2279 H 0.93247 0.21678 0.15697 0.0
H2280 H 0.95005 0.19336 0.23403 0.0
H2281 H 0.95121 0.18768 0.08846 0.0
C2282 C 0.94323 0.19574 0.95401 0.0
C2283 C 0.93847 0.20048 0.88903 0.0
C2284 C 0.94258 0.19899 0.03794 0.0
C2285 C 0.93322 0.20873 0.90991 0.0
C2286 C 0.93267 0.21212 0.99325 0.0
C2287 C 0.93665 0.21052 0.1419 0.0
C2288 C 0.94116 0.20551 0.20665 0.0
C2289 C 0.93729 0.20728 0.05783 0.0
C2290 C 0.94635 0.19722 0.18584 0.0
C2291 C 0.9471 0.19403 0.10244 0.0
H2292 H 0.07947 0.46535 0.75984 0.0
H2293 H 0.03847 0.44265 0.83861 0.0
H2294 H 0.03152 0.43684 0.69347 0.0
H2295 H 0.03699 0.43879 0.54348 0.0
H2296 H 0.07793 0.46194 0.46512 0.0
H2297 H 0.08493 0.46732 0.61062 0.0
C2298 C 0.069 0.45922 0.74566 0.0
C2299 C 0.05955 0.45447 0.81089 0.0
C2300 C 0.06503 0.4561 0.66175 0.0
C2301 C 0.04603 0.44632 0.79043 0.0
C2302 C 0.04202 0.44307 0.70712 0.0
C2303 C 0.04745 0.44492 0.55818 0.0
C2304 C 0.0569 0.44996 0.49307 0.0
C2305 C 0.05142 0.44796 0.64223 0.0
C2306 C 0.07041 0.45807 0.51354 0.0
C2307 C 0.07443 0.46108 0.59692 0.0
H2308 H 0.53229 0.62019 0.71327 0.0
H2309 H 0.54531 0.59294 0.79226 0.0
H2310 H 0.54999 0.59012 0.64746 0.0
H2311 H 0.54985 0.5949 0.49743 0.0
H2312 H 0.53618 0.62159 0.41872 0.0
H2313 H 0.53195 0.62479 0.56404 0.0
C2314 C 0.53605 0.61354 0.69929 0.0
C2315 C 0.53845 0.60684 0.76465 0.0
C2316 C 0.5385 0.61175 0.61544 0.0
C2317 C 0.54354 0.59843 0.74418 0.0
C2318 C 0.54613 0.59671 0.66099 0.0
C2319 C 0.54604 0.6015 0.51208 0.0
C2320 C 0.54333 0.60798 0.4469 0.0
C2321 C 0.54361 0.60329 0.59604 0.0
C2322 C 0.5382 0.61633 0.46722 0.0
C2323 C 0.53585 0.61824 0.5505 0.0
H2324 H 0.40174 0.96228 0.5166 0.0
H2325 H 0.37554 0.92185 0.43741 0.0
H2326 H 0.37213 0.91444 0.58257 0.0
H2327 H 0.37657 0.91939 0.73221 0.0
H2328 H 0.40285 0.95979 0.81173 0.0
H2329 H 0.4059 0.96729 0.66669 0.0
C2330 C 0.39517 0.95188 0.53103 0.0
C2331 C 0.38898 0.94266 0.46565 0.0
C2332 C 0.39319 0.94767 0.61497 0.0
C2333 C 0.38064 0.92916 0.48587 0.0
C2334 C 0.3786 0.92491 0.56913 0.0
C2335 C 0.38304 0.92982 0.71796 0.0
C2336 C 0.38946 0.93898 0.78329 0.0
C2337 C 0.38488 0.93406 0.63417 0.0
C2338 C 0.39762 0.95251 0.76326 0.0
C2339 C 0.39946 0.95681 0.68007 0.0
H2340 H 0.52903 0.91472 0.74966 0.0
H2341 H 0.54505 0.95545 0.8292 0.0
H2342 H 0.54894 0.96277 0.68387 0.0
H2343 H 0.54708 0.95756 0.53396 0.0
H2344 H 0.53073 0.91682 0.45444 0.0
H2345 H 0.52726 0.90952 0.60002 0.0
C2346 C 0.53327 0.92519 0.73546 0.0
C2347 C 0.5367 0.93448 0.80083 0.0
C2348 C 0.53528 0.92933 0.65158 0.0
C2349 C 0.54246 0.94806 0.78073 0.0
C2350 C 0.54459 0.95226 0.69739 0.0
C2351 C 0.54286 0.9471 0.54844 0.0
C2352 C 0.53915 0.93777 0.48314 0.0
C2353 C 0.54096 0.94297 0.63235 0.0
C2354 C 0.53349 0.92421 0.50314 0.0
C2355 C 0.5316 0.92003 0.58651 0.0
H2356 H 0.03845 0.60739 0.5662 0.0
H2357 H 0.06306 0.59103 0.49011 0.0
H2358 H 0.06902 0.59043 0.63541 0.0
H2359 H 0.06706 0.59423 0.78425 0.0
H2360 H 0.04219 0.61017 0.8613 0.0
H2361 H 0.03619 0.61083 0.71552 0.0
C2362 C 0.04501 0.60355 0.58106 0.0
C2363 C 0.0503 0.5993 0.51641 0.0
C2364 C 0.04828 0.60306 0.66519 0.0
C2365 C 0.05896 0.59457 0.53773 0.0
C2366 C 0.06232 0.59413 0.62114 0.0
C2367 C 0.06042 0.59797 0.76923 0.0
C2368 C 0.05515 0.60221 0.83387 0.0
C2369 C 0.05705 0.59836 0.68531 0.0
C2370 C 0.04632 0.60674 0.81313 0.0
C2371 C 0.04294 0.6072 0.72964 0.0
H2372 H 0.39243 0.43975 0.51786 0.0
H2373 H 0.38683 0.47213 0.43579 0.0
H2374 H 0.3866 0.47845 0.57994 0.0
H2375 H 0.38783 0.47486 0.72892 0.0
H2376 H 0.39181 0.44156 0.81208 0.0
H2377 H 0.39285 0.43567 0.66769 0.0
C2378 C 0.39102 0.44811 0.5308 0.0
C2379 C 0.38968 0.45539 0.46453 0.0
C2380 C 0.39062 0.4516 0.6145 0.0
C2381 C 0.38807 0.46634 0.48418 0.0
C2382 C 0.38785 0.46997 0.56716 0.0
C2383 C 0.38874 0.46619 0.71629 0.0
C2384 C 0.38967 0.45871 0.78276 0.0
C2385 C 0.38908 0.46265 0.63277 0.0
C2386 C 0.39117 0.44768 0.76343 0.0
C2387 C 0.3917 0.44421 0.68035 0.0
H2388 H 0.28916 0.21553 0.18365 0.0
H2389 H 0.24848 0.19968 0.26301 0.0
H2390 H 0.24117 0.19605 0.11736 0.0
H2391 H 0.24638 0.19767 0.96808 0.0
H2392 H 0.28702 0.21294 0.88856 0.0
H2393 H 0.29434 0.21699 0.03371 0.0
C2394 C 0.2787 0.21137 0.16909 0.0
C2395 C 0.26939 0.20788 0.2343 0.0
C2396 C 0.27459 0.20936 0.08517 0.0
C2397 C 0.25584 0.20229 0.21427 0.0
C2398 C 0.25167 0.20031 0.13091 0.0
C2399 C 0.25683 0.20178 0.98202 0.0
C2400 C 0.26609 0.20497 0.91661 0.0
C2401 C 0.26096 0.20382 0.06589 0.0
C2402 C 0.27964 0.21055 0.93687 0.0
C2403 C 0.28385 0.21276 0.02017 0.0
H2404 H 0.80482 0.05936 0.88898 0.0
H2405 H 0.7657 0.0507 0.81154 0.0
H2406 H 0.7597 0.05148 0.95718 0.0
H2407 H 0.76543 0.05416 0.10657 0.0
H2408 H 0.80481 0.06334 0.18291 0.0
H2409 H 0.81067 0.06243 0.03784 0.0
C2410 C 0.79493 0.05751 0.9039 0.0
C2411 C 0.78571 0.0549 0.83915 0.0
C2412 C 0.79155 0.05797 0.98775 0.0
C2413 C 0.77304 0.05283 0.85977 0.0
C2414 C 0.76957 0.05321 0.9432 0.0
C2415 C 0.77535 0.05611 0.09182 0.0
C2416 C 0.78461 0.05877 0.15656 0.0
C2417 C 0.77875 0.05575 1.00774 0.0
C2418 C 0.79736 0.06105 0.13531 0.0
C2419 C 0.80077 0.06063 0.05199 0.0
H2420 H 0.93399 0.74842 0.93599 0.0
H2421 H 0.94311 0.71816 0.86052 0.0
H2422 H 0.94214 0.71141 1.00633 0.0
H2423 H 0.93896 0.7143 0.15552 0.0
H2424 H 0.9297 0.74454 0.22943 0.0
H2425 H 0.9309 0.75136 0.08413 0.0
C2426 C 0.93593 0.74045 0.95121 0.0
C2427 C 0.93867 0.73386 0.88696 0.0
C2428 C 0.93544 0.73668 0.03516 0.0
C2429 C 0.94085 0.72334 0.90829 0.0
C2430 C 0.94038 0.71952 0.99184 0.0
C2431 C 0.93712 0.72233 0.13999 0.0
C2432 C 0.93429 0.72891 0.20394 0.0
C2433 C 0.93768 0.72612 0.05583 0.0
C2434 C 0.93211 0.73942 0.18215 0.0
C2435 C 0.9327 0.74327 0.0988 0.0
H2436 H 0.44865 0.04405 0.50825 0.0
H2437 H 0.46211 0.08426 0.58905 0.0
H2438 H 0.46598 0.09181 0.44399 0.0
H2439 H 0.46541 0.08702 0.29415 0.0
H2440 H 0.45247 0.04687 0.2132 0.0
H2441 H 0.44816 0.03927 0.35785 0.0
C2442 C 0.45233 0.05445 0.49417 0.0
C2443 C 0.4551 0.06356 0.55993 0.0
C2444 C 0.45453 0.05874 0.41031 0.0
C2445 C 0.46006 0.07704 0.54019 0.0
C2446 C 0.4622 0.08136 0.45702 0.0
C2447 C 0.46174 0.07662 0.30775 0.0
C2448 C 0.45925 0.06758 0.24188 0.0
C2449 C 0.45949 0.07231 0.39154 0.0
C2450 C 0.45429 0.05408 0.26173 0.0
C2451 C 0.45192 0.04971 0.34483 0.0
H2452 H 0.95189 0.39336 0.48843 0.0
H2453 H 0.911 0.37693 0.56548 0.0
H2454 H 0.90426 0.37582 0.41996 0.0
H2455 H 0.90989 0.37948 0.27099 0.0
H2456 H 0.95075 0.39607 0.19309 0.0
H2457 H 0.95749 0.39671 0.33856 0.0
C2458 C 0.94148 0.3894 0.47358 0.0
C2459 C 0.93199 0.38528 0.53851 0.0
C2460 C 0.93764 0.38871 0.38939 0.0
C2461 C 0.91857 0.38038 0.51747 0.0
C2462 C 0.91468 0.37965 0.43399 0.0
C2463 C 0.92029 0.38332 0.28559 0.0
C2464 C 0.92978 0.38776 0.22069 0.0
C2465 C 0.92413 0.38383 0.36951 0.0
C2466 C 0.94318 0.39245 0.24126 0.0
C2467 C 0.94707 0.39291 0.32467 0.0
H2468 H 0.60217 0.52553 0.2928 0.0
H2469 H 0.6133 0.56544 0.21698 0.0
H2470 H 0.61248 0.57142 0.36252 0.0
H2471 H 0.60893 0.56538 0.51179 0.0
H2472 H 0.59757 0.52532 0.58619 0.0
H2473 H 0.59853 0.51948 0.44109 0.0
C2474 C 0.60456 0.53558 0.30794 0.0
C2475 C 0.60784 0.54502 0.2436 0.0
C2476 C 0.60413 0.53897 0.39182 0.0
C2477 C 0.61062 0.55792 0.26478 0.0
C2478 C 0.61023 0.56138 0.34821 0.0
C2479 C 0.60656 0.55535 0.49643 0.0
C2480 C 0.60326 0.54585 0.56057 0.0
C2481 C 0.60699 0.55198 0.41231 0.0
C2482 C 0.60038 0.53293 0.53886 0.0
C2483 C 0.60083 0.52954 0.45558 0.0
H2484 H 0.73912 0.78854 0.09937 0.0
H2485 H 0.699 0.77608 0.17867 0.0
H2486 H 0.6916 0.77206 0.03369 0.0
H2487 H 0.6966 0.77272 0.88368 0.0
H2488 H 0.73681 0.78575 0.80472 0.0
H2489 H 0.74415 0.78932 0.95024 0.0
C2490 C 0.72877 0.78505 0.08547 0.0
C2491 C 0.71969 0.78266 0.15086 0.0
C2492 C 0.7246 0.78299 1.00161 0.0
C2493 C 0.70625 0.77788 0.1305 0.0
C2494 C 0.702 0.77567 0.04723 0.0
C2495 C 0.70695 0.77624 0.8983 0.0
C2496 C 0.71613 0.77897 0.83313 0.0
C2497 C 0.7111 0.77825 0.98226 0.0
C2498 C 0.72956 0.78374 0.85333 0.0
C2499 C 0.73374 0.78569 0.93666 0.0
H2500 H 0.22496 0.93984 0.89257 0.0
H2501 H 0.18429 0.92496 0.81531 0.0
H2502 H 0.17778 0.92486 0.96015 0.0
H2503 H 0.18346 0.92866 0.10927 0.0
H2504 H 0.22394 0.94304 0.18754 0.0
H2505 H 0.23058 0.9433 0.04216 0.0
C2506 C 0.21464 0.93645 0.90708 0.0
C2507 C 0.20518 0.93247 0.84207 0.0
C2508 C 0.21089 0.93624 0.99108 0.0
C2509 C 0.19188 0.92829 0.86305 0.0
C2510 C 0.1881 0.92814 0.94628 0.0
C2511 C 0.19376 0.93198 0.09458 0.0
C2512 C 0.20318 0.93588 0.15959 0.0
C2513 C 0.19752 0.93211 1.01077 0.0
C2514 C 0.21644 0.93987 0.1392 0.0
C2515 C 0.22027 0.9401 0.05587 0.0
H2516 H 0.06347 0.24969 0.08141 0.0
H2517 H 0.05396 0.27961 0.15786 0.0
H2518 H 0.05469 0.28634 1.01221 0.0
H2519 H 0.05755 0.28338 0.86342 0.0
H2520 H 0.06776 0.25388 0.78726 0.0
H2521 H 0.06686 0.24711 0.93236 0.0
C2522 C 0.06145 0.25761 0.06614 0.0
C2523 C 0.05861 0.26409 0.13059 0.0
C2524 C 0.06191 0.26144 0.98224 0.0
C2525 C 0.05628 0.27453 0.10978 0.0
C2526 C 0.05663 0.27833 0.02637 0.0
C2527 C 0.05974 0.27558 0.87807 0.0
C2528 C 0.06268 0.26917 0.81339 0.0
C2529 C 0.05942 0.27184 0.96208 0.0
C2530 C 0.06526 0.25891 0.83475 0.0
C2531 C 0.06484 0.25506 0.91811 0.0
H2532 H 0.22396 0.29463 0.90922 0.0
H2533 H 0.20758 0.25387 0.83002 0.0
H2534 H 0.20323 0.2465 0.97535 0.0
H2535 H 0.20421 0.2516 0.12469 0.0
H2536 H 0.2202 0.29233 0.20425 0.0
H2537 H 0.22495 0.29974 0.05935 0.0
C2538 C 0.21955 0.28415 0.92368 0.0
C2539 C 0.21609 0.27484 0.85834 0.0
C2540 C 0.2171 0.27997 1.00767 0.0
C2541 C 0.21018 0.26126 0.87858 0.0
C2542 C 0.20777 0.25704 0.96188 0.0
C2543 C 0.20864 0.26209 0.1108 0.0
C2544 C 0.21179 0.27134 0.17628 0.0
C2545 C 0.21117 0.2663 0.02693 0.0
C2546 C 0.21778 0.28494 0.156 0.0
C2547 C 0.22042 0.2892 0.07277 0.0
H2548 H 0.71434 0.94171 0.81093 0.0
H2549 H 0.73902 0.92533 0.73736 0.0
H2550 H 0.7453 0.92531 0.88261 0.0
H2551 H 0.74355 0.92956 0.03075 0.0
H2552 H 0.7187 0.94561 0.10578 0.0
H2553 H 0.71241 0.94576 0.96001 0.0
C2554 C 0.721 0.93803 0.82648 0.0
C2555 C 0.72624 0.93361 0.76255 0.0
C2556 C 0.72447 0.93789 0.91065 0.0
C2557 C 0.735 0.92903 0.78451 0.0
C2558 C 0.73854 0.92891 0.86787 0.0
C2559 C 0.73687 0.93322 0.01532 0.0
C2560 C 0.73166 0.93762 0.07939 0.0
C2561 C 0.73334 0.93332 0.93141 0.0
C2562 C 0.72277 0.94205 0.05804 0.0
C2563 C 0.71923 0.94222 0.97455 0.0
H2564 H 0.06154 0.76487 0.85931 0.0
H2565 H 0.0539 0.79597 0.7777 0.0
H2566 H 0.05291 0.80178 0.92202 0.0
H2567 H 0.05385 0.79796 0.07115 0.0
H2568 H 0.05982 0.76583 0.15322 0.0
H2569 H 0.06184 0.76062 1.00867 0.0
C2570 C 0.05952 0.77284 0.87227 0.0
C2571 C 0.05779 0.77989 0.80613 0.0
C2572 C 0.05867 0.77601 0.95597 0.0
C2573 C 0.05543 0.79036 0.82596 0.0
C2574 C 0.05477 0.79369 0.90904 0.0
C2575 C 0.05541 0.78969 0.05805 0.0
C2576 C 0.0566 0.78231 0.12417 0.0
C2577 C 0.0563 0.78653 0.97448 0.0
C2578 C 0.05896 0.77184 0.10467 0.0
C2579 C 0.06005 0.76877 0.02156 0.0
H2580 H 0.90489 0.51686 0.26052 0.0
H2581 H 0.94548 0.54112 0.17737 0.0
H2582 H 0.95303 0.54526 0.32223 0.0
H2583 H 0.94801 0.54308 0.4726 0.0
H2584 H 0.90722 0.51996 0.55497 0.0
H2585 H 0.89992 0.51431 0.41063 0.0
C2586 C 0.91539 0.52309 0.27381 0.0
C2587 C 0.92455 0.52871 0.20746 0.0
C2588 C 0.91966 0.52569 0.35747 0.0
C2589 C 0.93817 0.53651 0.22653 0.0
C2590 C 0.9425 0.539 0.30965 0.0
C2591 C 0.93751 0.53687 0.45929 0.0
C2592 C 0.92822 0.53207 0.52544 0.0
C2593 C 0.93331 0.53382 0.37563 0.0
C2594 C 0.91467 0.52376 0.50621 0.0
C2595 C 0.91045 0.52057 0.42328 0.0
H2596 H 0.44129 0.40406 0.51051 0.0
H2597 H 0.46807 0.39053 0.59218 0.0
H2598 H 0.47279 0.38803 0.44777 0.0
H2599 H 0.46923 0.38937 0.29848 0.0
H2600 H 0.44122 0.4013 0.21696 0.0
H2601 H 0.43716 0.4047 0.36144 0.0
C2602 C 0.44806 0.40043 0.49757 0.0
C2603 C 0.45423 0.3975 0.56369 0.0
C2604 C 0.45057 0.39871 0.41393 0.0
C2605 C 0.46318 0.39304 0.54387 0.0
C2606 C 0.46588 0.39151 0.46077 0.0
C2607 C 0.46209 0.39254 0.31176 0.0
C2608 C 0.45557 0.39502 0.24579 0.0
C2609 C 0.45957 0.39425 0.39536 0.0
C2610 C 0.44657 0.39942 0.2654 0.0
C2611 C 0.44415 0.40131 0.34846 0.0
H2612 H 0.61414 0.08223 0.25927 0.0
H2613 H 0.59285 0.04117 0.18064 0.0
H2614 H 0.59115 0.034 0.32588 0.0
H2615 H 0.59507 0.03937 0.47589 0.0
H2616 H 0.61597 0.08045 0.55388 0.0
H2617 H 0.61808 0.08759 0.40842 0.0
C2618 C 0.60903 0.0717 0.27355 0.0
C2619 C 0.60364 0.06229 0.20838 0.0
C2620 C 0.60789 0.06763 0.35745 0.0
C2621 C 0.59728 0.04868 0.22885 0.0
C2622 C 0.5962 0.04455 0.31218 0.0
C2623 C 0.60019 0.04988 0.46115 0.0
C2624 C 0.60533 0.05934 0.52622 0.0
C2625 C 0.60141 0.05394 0.37706 0.0
C2626 C 0.61175 0.07293 0.50558 0.0
C2627 C 0.61304 0.07703 0.42219 0.0
loop_
_geom_bond_atom_site_label_1
_geom_bond_atom_site_label_2
_geom_bond_distance
_geom_bond_site_symmetry_2
_ccdc_geom_bond_type
Co0 N4 2.148 . S
Co0 N10 2.128 . S
Co0 N20 2.194 . S
Co0 O25 2.351 . S
Co0 O26 2.155 . S
Co0 O27 2.096 . S
C1 N4 1.301 . S
C1 N5 1.328 1_554 S
C1 H6 0.930 . S
C2 C3 1.333 . S
C2 N4 1.317 . S
C2 H7 0.930 . S
C3 C2 1.333 . S
C3 N5 1.350 1_554 S
C3 H29 0.931 1_554 S
N4 Co0 2.148 . S
N4 C1 1.301 . S
N4 C2 1.317 . S
N5 C1 1.328 1_556 S
N5 C3 1.350 1_556 S
H6 C1 0.930 . S
H7 C2 0.930 . S
C8 O9 1.224 . S
C8 O27 1.247 . S
O9 C8 1.224 . S
N10 Co0 2.128 . S
N10 C11 1.355 . S
N10 C13 1.311 . S
C11 N10 1.355 . S
C11 C12 1.363 . S
C11 H23 0.929 . S
C12 C11 1.363 . S
C12 N14 1.375 . S
C12 H30 0.931 . S
C13 N10 1.311 . S
C13 N14 1.347 . S
C13 H24 0.929 . S
N14 C12 1.375 . S
N14 C13 1.347 . S
C15 C18 1.365 . S
C15 N20 1.328 . S
C15 H21 0.929 . S
C16 C17 1.362 . S
C16 C19 1.378 . S
C16 H31 0.929 . S
C17 C16 1.362 . S
C17 C18 1.366 . S
C18 C15 1.365 . S
C18 C17 1.366 . S
C18 H32 0.930 . S
C19 C16 1.378 . S
C19 N20 1.315 . S
C19 H22 0.930 . S
N20 Co0 2.194 . S
N20 C15 1.328 . S
N20 C19 1.315 . S
H21 C15 0.929 . S
H22 C19 0.930 . S
H23 C11 0.929 . S
H24 C13 0.929 . S
O25 Co0 2.351 . S
O25 C28 1.244 . S
O26 Co0 2.155 . S
O26 C28 1.240 . S
O27 Co0 2.096 . S
O27 C8 1.247 . S
C28 O25 1.244 . S
C28 O26 1.240 . S
H29 C3 0.931 1_556 S
H30 C12 0.931 . S
H31 C16 0.929 . S
H32 C18 0.930 . S
Co33 N37 2.148 . S
Co33 N43 2.128 . S
Co33 N53 2.194 . S
Co33 O58 2.351 . S
Co33 O59 2.155 . S
Co33 O60 2.096 . S
C34 N37 1.301 . S
C34 N38 1.328 1_554 S
C34 H39 0.930 . S
C35 C36 1.333 . S
C35 N37 1.317 . S
C35 H40 0.930 . S
C36 C35 1.333 . S
C36 N38 1.350 1_554 S
C36 H62 0.931 1_554 S
N37 Co33 2.148 . S
N37 C34 1.301 . S
N37 C35 1.317 . S
N38 C34 1.328 1_556 S
N38 C36 1.350 1_556 S
H39 C34 0.930 . S
H40 C35 0.930 . S
C41 O42 1.224 . S
C41 O60 1.247 . S
O42 C41 1.224 . S
N43 Co33 2.128 . S
N43 C44 1.355 . S
N43 C46 1.311 . S
C44 N43 1.355 . S
C44 C45 1.363 . S
C44 H56 0.929 . S
C45 C44 1.363 . S
C45 N47 1.375 . S
C45 H63 0.931 . S
C46 N43 1.311 . S
C46 N47 1.347 . S
C46 H57 0.929 . S
N47 C45 1.375 . S
N47 C46 1.347 . S
C48 C51 1.365 . S
C48 N53 1.328 . S
C48 H54 0.929 . S
C49 C50 1.362 . S
C49 C52 1.378 . S
C49 H64 0.929 . S
C50 C49 1.362 . S
C50 C51 1.366 . S
C51 C48 1.365 . S
C51 C50 1.366 . S
C51 H65 0.930 . S
C52 C49 1.378 . S
C52 N53 1.315 . S
C52 H55 0.930 . S
N53 Co33 2.194 . S
N53 C48 1.328 . S
N53 C52 1.315 . S
H54 C48 0.929 . S
H55 C52 0.930 . S
H56 C44 0.929 . S
H57 C46 0.929 . S
O58 Co33 2.351 . S
O58 C61 1.244 . S
O59 Co33 2.155 . S
O59 C61 1.240 . S
O60 Co33 2.096 . S
O60 C41 1.247 . S
C61 O58 1.244 . S
C61 O59 1.240 . S
H62 C36 0.931 1_556 S
H63 C45 0.931 . S
H64 C49 0.929 . S
H65 C51 0.930 . S
Co66 N70 2.148 . S
Co66 N76 2.128 . S
Co66 N86 2.194 . S
Co66 O91 2.351 . S
Co66 O92 2.155 . S
Co66 O93 2.096 . S
C67 N70 1.301 . S
C67 N71 1.328 1_554 S
C67 H72 0.930 . S
C68 C69 1.333 . S
C68 N70 1.317 . S
C68 H73 0.930 . S
C69 C68 1.333 . S
C69 N71 1.350 1_554 S
C69 H95 0.931 1_554 S
N70 Co66 2.148 . S
N70 C67 1.301 . S
N70 C68 1.317 . S
N71 C67 1.328 1_556 S
N71 C69 1.350 1_556 S
H72 C67 0.930 . S
H73 C68 0.930 . S
C74 O75 1.224 . S
C74 O93 1.247 . S
O75 C74 1.224 . S
N76 Co66 2.128 . S
N76 C77 1.355 . S
N76 C79 1.311 . S
C77 N76 1.355 . S
C77 C78 1.363 . S
C77 H89 0.929 . S
C78 C77 1.363 . S
C78 N80 1.375 . S
C78 H96 0.931 . S
C79 N76 1.311 . S
C79 N80 1.347 . S
C79 H90 0.929 . S
N80 C78 1.375 . S
N80 C79 1.347 . S
C81 C84 1.365 . S
C81 N86 1.328 . S
C81 H87 0.929 . S
C82 C83 1.362 . S
C82 C85 1.378 . S
C82 H97 0.929 . S
C83 C82 1.362 . S
C83 C84 1.366 . S
C84 C81 1.365 . S
C84 C83 1.366 . S
C84 H98 0.930 . S
C85 C82 1.378 . S
C85 N86 1.315 . S
C85 H88 0.930 . S
N86 Co66 2.194 . S
N86 C81 1.328 . S
N86 C85 1.315 . S
H87 C81 0.929 . S
H88 C85 0.930 . S
H89 C77 0.929 . S
H90 C79 0.929 . S
O91 Co66 2.351 . S
O91 C94 1.244 . S
O92 Co66 2.155 . S
O92 C94 1.240 . S
O93 Co66 2.096 . S
O93 C74 1.247 . S
C94 O91 1.244 . S
C94 O92 1.240 . S
H95 C69 0.931 1_556 S
H96 C78 0.931 . S
H97 C82 0.929 . S
H98 C84 0.930 . S
Co99 N103 2.148 . S
Co99 N109 2.128 . S
Co99 N119 2.194 . S
Co99 O124 2.351 . S
Co99 O125 2.155 . S
Co99 O126 2.096 . S
C100 N103 1.301 . S
C100 N104 1.328 1_556 S
C100 H105 0.930 . S
C101 C102 1.333 . S
C101 N103 1.317 . S
C101 H106 0.930 . S
C102 C101 1.333 . S
C102 N104 1.350 1_556 S
C102 H128 0.931 1_556 S
N103 Co99 2.148 . S
N103 C100 1.301 . S
N103 C101 1.317 . S
N104 C100 1.328 1_554 S
N104 C102 1.350 1_554 S
H105 C100 0.930 . S
H106 C101 0.930 . S
C107 O108 1.224 . S
C107 O126 1.247 . S
O108 C107 1.224 . S
N109 Co99 2.128 . S
N109 C110 1.355 . S
N109 C112 1.311 . S
C110 N109 1.355 . S
C110 C111 1.363 . S
C110 H122 0.929 . S
C111 C110 1.363 . S
C111 N113 1.375 . S
C111 H129 0.931 . S
C112 N109 1.311 . S
C112 N113 1.347 . S
C112 H123 0.929 . S
N113 C111 1.375 . S
N113 C112 1.347 . S
C114 C117 1.365 . S
C114 N119 1.328 . S
C114 H120 0.929 . S
C115 C116 1.362 . S
C115 C118 1.378 . S
C115 H130 0.929 . S
C116 C115 1.362 . S
C116 C117 1.366 . S
C117 C114 1.365 . S
C117 C116 1.366 . S
C117 H131 0.930 . S
C118 C115 1.378 . S
C118 N119 1.315 . S
C118 H121 0.930 . S
N119 Co99 2.194 . S
N119 C114 1.328 . S
N119 C118 1.315 . S
H120 C114 0.929 . S
H121 C118 0.930 . S
H122 C110 0.929 . S
H123 C112 0.929 . S
O124 Co99 2.351 . S
O124 C127 1.244 . S
O125 Co99 2.155 . S
O125 C127 1.240 . S
O126 Co99 2.096 . S
O126 C107 1.247 . S
C127 O124 1.244 . S
C127 O125 1.240 . S
H128 C102 0.931 1_554 S
H129 C111 0.931 . S
H130 C115 0.929 . S
H131 C117 0.930 . S
Co132 N136 2.148 . S
Co132 N142 2.128 . S
Co132 N152 2.194 . S
Co132 O157 2.351 . S
Co132 O158 2.155 . S
Co132 O159 2.096 . S
C133 N136 1.301 . S
C133 N137 1.328 1_556 S
C133 H138 0.930 . S
C134 C135 1.333 . S
C134 N136 1.317 . S
C134 H139 0.930 . S
C135 C134 1.333 . S
C135 N137 1.350 1_556 S
C135 H161 0.931 1_556 S
N136 Co132 2.148 . S
N136 C133 1.301 . S
N136 C134 1.317 . S
N137 C133 1.328 1_554 S
N137 C135 1.350 1_554 S
H138 C133 0.930 . S
H139 C134 0.930 . S
C140 O141 1.224 . S
C140 O159 1.247 . S
O141 C140 1.224 . S
N142 Co132 2.128 . S
N142 C143 1.355 . S
N142 C145 1.311 . S
C143 N142 1.355 . S
C143 C144 1.363 . S
C143 H155 0.929 . S
C144 C143 1.363 . S
C144 N146 1.375 . S
C144 H162 0.931 . S
C145 N142 1.311 . S
C145 N146 1.347 . S
C145 H156 0.929 . S
N146 C144 1.375 . S
N146 C145 1.347 . S
C147 C150 1.365 . S
C147 N152 1.328 . S
C147 H153 0.929 . S
C148 C149 1.362 . S
C148 C151 1.378 . S
C148 H163 0.929 . S
C149 C148 1.362 . S
C149 C150 1.366 . S
C150 C147 1.365 . S
C150 C149 1.366 . S
C150 H164 0.930 . S
C151 C148 1.378 . S
C151 N152 1.315 . S
C151 H154 0.930 . S
N152 Co132 2.194 . S
N152 C147 1.328 . S
N152 C151 1.315 . S
H153 C147 0.929 . S
H154 C151 0.930 . S
H155 C143 0.929 . S
H156 C145 0.929 . S
O157 Co132 2.351 . S
O157 C160 1.244 . S
O158 Co132 2.155 . S
O158 C160 1.240 . S
O159 Co132 2.096 . S
O159 C140 1.247 . S
C160 O157 1.244 . S
C160 O158 1.240 . S
H161 C135 0.931 1_554 S
H162 C144 0.931 . S
H163 C148 0.929 . S
H164 C150 0.930 . S
Co165 N169 2.148 . S
Co165 N175 2.128 . S
Co165 N185 2.194 . S
Co165 O190 2.351 . S
Co165 O191 2.155 . S
Co165 O192 2.096 . S
C166 N169 1.301 . S
C166 N170 1.328 1_556 S
C166 H171 0.930 . S
C167 C168 1.333 . S
C167 N169 1.317 . S
C167 H172 0.930 . S
C168 C167 1.333 . S
C168 N170 1.350 1_556 S
C168 H194 0.931 1_556 S
N169 Co165 2.148 . S
N169 C166 1.301 . S
N169 C167 1.317 . S
N170 C166 1.328 1_554 S
N170 C168 1.350 1_554 S
H171 C166 0.930 . S
H172 C167 0.930 . S
C173 O174 1.224 . S
C173 O192 1.247 . S
O174 C173 1.224 . S
N175 Co165 2.128 . S
N175 C176 1.355 . S
N175 C178 1.311 . S
C176 N175 1.355 . S
C176 C177 1.363 . S
C176 H188 0.929 . S
C177 C176 1.363 . S
C177 N179 1.375 . S
C177 H195 0.931 . S
C178 N175 1.311 . S
C178 N179 1.347 . S
C178 H189 0.929 . S
N179 C177 1.375 . S
N179 C178 1.347 . S
C180 C183 1.365 . S
C180 N185 1.328 . S
C180 H186 0.929 . S
C181 C182 1.362 . S
C181 C184 1.378 . S
C181 H196 0.929 . S
C182 C181 1.362 . S
C182 C183 1.366 . S
C183 C180 1.365 . S
C183 C182 1.366 . S
C183 H197 0.930 . S
C184 C181 1.378 . S
C184 N185 1.315 . S
C184 H187 0.930 . S
N185 Co165 2.194 . S
N185 C180 1.328 . S
N185 C184 1.315 . S
H186 C180 0.929 . S
H187 C184 0.930 . S
H188 C176 0.929 . S
H189 C178 0.929 . S
O190 Co165 2.351 . S
O190 C193 1.244 . S
O191 Co165 2.155 . S
O191 C193 1.240 . S
O192 Co165 2.096 . S
O192 C173 1.247 . S
C193 O190 1.244 . S
C193 O191 1.240 . S
H194 C168 0.931 1_554 S
H195 C177 0.931 . S
H196 C181 0.929 . S
H197 C183 0.930 . S
Co198 N202 2.148 . S
Co198 N208 2.128 . S
Co198 N218 2.194 . S
Co198 O223 2.351 . S
Co198 O224 2.155 . S
Co198 O225 2.096 . S
C199 N202 1.301 . S
C199 N203 1.328 1_556 S
C199 H204 0.930 . S
C200 C201 1.333 . S
C200 N202 1.317 . S
C200 H205 0.930 . S
C201 C200 1.333 . S
C201 N203 1.350 1_556 S
C201 H227 0.931 1_556 S
N202 Co198 2.148 . S
N202 C199 1.301 . S
N202 C200 1.317 . S
N203 C199 1.328 1_554 S
N203 C201 1.350 1_554 S
H204 C199 0.930 . S
H205 C200 0.930 . S
C206 O207 1.224 . S
C206 O225 1.247 . S
O207 C206 1.224 . S
N208 Co198 2.128 . S
N208 C209 1.355 . S
N208 C211 1.311 . S
C209 N208 1.355 . S
C209 C210 1.363 . S
C209 H221 0.929 . S
C210 C209 1.363 . S
C210 N212 1.375 . S
C210 H228 0.931 . S
C211 N208 1.311 . S
C211 N212 1.347 . S
C211 H222 0.929 . S
N212 C210 1.375 . S
N212 C211 1.347 . S
C213 C216 1.365 . S
C213 N218 1.328 . S
C213 H219 0.929 . S
C214 C215 1.362 . S
C214 C217 1.378 . S
C214 H229 0.929 . S
C215 C214 1.362 . S
C215 C216 1.366 . S
C216 C213 1.365 . S
C216 C215 1.366 . S
C216 H230 0.930 . S
C217 C214 1.378 . S
C217 N218 1.315 . S
C217 H220 0.930 . S
N218 Co198 2.194 . S
N218 C213 1.328 . S
N218 C217 1.315 . S
H219 C213 0.929 . S
H220 C217 0.930 . S
H221 C209 0.929 . S
H222 C211 0.929 . S
O223 Co198 2.351 . S
O223 C226 1.244 . S
O224 Co198 2.155 . S
O224 C226 1.240 . S
O225 Co198 2.096 . S
O225 C206 1.247 . S
C226 O223 1.244 . S
C226 O224 1.240 . S
H227 C201 0.931 1_554 S
H228 C210 0.931 . S
H229 C214 0.929 . S
H230 C216 0.930 . S
Co231 N235 2.148 . S
Co231 N241 2.128 . S
Co231 N251 2.194 . S
Co231 O256 2.351 . S
Co231 O257 2.155 . S
Co231 O258 2.096 . S
C232 N235 1.301 . S
C232 N236 1.328 1_556 S
C232 H237 0.930 . S
C233 C234 1.333 . S
C233 N235 1.317 . S
C233 H238 0.930 . S
C234 C233 1.333 . S
C234 N236 1.350 1_556 S
C234 H260 0.931 1_556 S
N235 Co231 2.148 . S
N235 C232 1.301 . S
N235 C233 1.317 . S
N236 C232 1.328 1_554 S
N236 C234 1.350 1_554 S
H237 C232 0.930 . S
H238 C233 0.930 . S
C239 O240 1.224 . S
C239 O258 1.247 . S
O240 C239 1.224 . S
N241 Co231 2.128 . S
N241 C242 1.355 . S
N241 C244 1.311 . S
C242 N241 1.355 . S
C242 C243 1.363 . S
C242 H254 0.929 . S
C243 C242 1.363 . S
C243 N245 1.375 . S
C243 H261 0.931 . S
C244 N241 1.311 . S
C244 N245 1.347 . S
C244 H255 0.929 . S
N245 C243 1.375 . S
N245 C244 1.347 . S
C246 C249 1.365 . S
C246 N251 1.328 . S
C246 H252 0.929 . S
C247 C248 1.362 . S
C247 C250 1.378 . S
C247 H262 0.929 . S
C248 C247 1.362 . S
C248 C249 1.366 . S
C249 C246 1.365 . S
C249 C248 1.366 . S
C249 H263 0.930 . S
C250 C247 1.378 . S
C250 N251 1.315 . S
C250 H253 0.930 . S
N251 Co231 2.194 . S
N251 C246 1.328 . S
N251 C250 1.315 . S
H252 C246 0.929 . S
H253 C250 0.930 . S
H254 C242 0.929 . S
H255 C244 0.929 . S
O256 Co231 2.351 . S
O256 C259 1.244 . S
O257 Co231 2.155 . S
O257 C259 1.240 . S
O258 Co231 2.096 . S
O258 C239 1.247 . S
C259 O256 1.244 . S
C259 O257 1.240 . S
H260 C234 0.931 1_554 S
H261 C243 0.931 . S
H262 C247 0.929 . S
H263 C249 0.930 . S
Co264 N268 2.148 . S
Co264 N274 2.128 . S
Co264 N284 2.194 . S
Co264 O289 2.351 . S
Co264 O290 2.155 . S
Co264 O291 2.096 . S
C265 N268 1.301 . S
C265 N269 1.328 1_556 S
C265 H270 0.930 . S
C266 C267 1.333 . S
C266 N268 1.317 . S
C266 H271 0.930 . S
C267 C266 1.333 . S
C267 N269 1.350 1_556 S
C267 H293 0.931 1_556 S
N268 Co264 2.148 . S
N268 C265 1.301 . S
N268 C266 1.317 . S
N269 C265 1.328 1_554 S
N269 C267 1.350 1_554 S
H270 C265 0.930 . S
H271 C266 0.930 . S
C272 O273 1.224 . S
C272 O291 1.247 . S
O273 C272 1.224 . S
N274 Co264 2.128 . S
N274 C275 1.355 . S
N274 C277 1.311 . S
C275 N274 1.355 . S
C275 C276 1.363 . S
C275 H287 0.929 . S
C276 C275 1.363 . S
C276 N278 1.375 . S
C276 H294 0.931 . S
C277 N274 1.311 . S
C277 N278 1.347 . S
C277 H288 0.929 . S
N278 C276 1.375 . S
N278 C277 1.347 . S
C279 C282 1.365 . S
C279 N284 1.328 . S
C279 H285 0.929 . S
C280 C281 1.362 . S
C280 C283 1.378 . S
C280 H295 0.929 . S
C281 C280 1.362 . S
C281 C282 1.366 . S
C282 C279 1.365 . S
C282 C281 1.366 . S
C282 H296 0.930 . S
C283 C280 1.378 . S
C283 N284 1.315 . S
C283 H286 0.930 . S
N284 Co264 2.194 . S
N284 C279 1.328 . S
N284 C283 1.315 . S
H285 C279 0.929 . S
H286 C283 0.930 . S
H287 C275 0.929 . S
H288 C277 0.929 . S
O289 Co264 2.351 . S
O289 C292 1.244 . S
O290 Co264 2.155 . S
O290 C292 1.240 . S
O291 Co264 2.096 . S
O291 C272 1.247 . S
C292 O289 1.244 . S
C292 O290 1.240 . S
H293 C267 0.931 1_554 S
H294 C276 0.931 . S
H295 C280 0.929 . S
H296 C282 0.930 . S
Co297 N301 2.148 . S
Co297 N307 2.128 . S
Co297 N317 2.194 . S
Co297 O322 2.351 . S
Co297 O323 2.155 . S
Co297 O324 2.096 . S
C298 N301 1.301 . S
C298 N302 1.328 1_554 S
C298 H303 0.930 . S
C299 C300 1.333 . S
C299 N301 1.317 . S
C299 H304 0.930 . S
C300 C299 1.333 . S
C300 N302 1.350 1_554 S
C300 H326 0.931 1_554 S
N301 Co297 2.148 . S
N301 C298 1.301 . S
N301 C299 1.317 . S
N302 C298 1.328 1_556 S
N302 C300 1.350 1_556 S
H303 C298 0.930 . S
H304 C299 0.930 . S
C305 O306 1.224 . S
C305 O324 1.247 . S
O306 C305 1.224 . S
N307 Co297 2.128 . S
N307 C308 1.355 . S
N307 C310 1.311 . S
C308 N307 1.355 . S
C308 C309 1.363 . S
C308 H320 0.929 . S
C309 C308 1.363 . S
C309 N311 1.375 . S
C309 H327 0.931 . S
C310 N307 1.311 . S
C310 N311 1.347 . S
C310 H321 0.929 . S
N311 C309 1.375 . S
N311 C310 1.347 . S
C312 C315 1.365 . S
C312 N317 1.328 . S
C312 H318 0.929 . S
C313 C314 1.362 . S
C313 C316 1.378 . S
C313 H328 0.929 . S
C314 C313 1.362 . S
C314 C315 1.366 . S
C315 C312 1.365 . S
C315 C314 1.366 . S
C315 H329 0.930 . S
C316 C313 1.378 . S
C316 N317 1.315 . S
C316 H319 0.930 . S
N317 Co297 2.194 . S
N317 C312 1.328 . S
N317 C316 1.315 . S
H318 C312 0.929 . S
H319 C316 0.930 . S
H320 C308 0.929 . S
H321 C310 0.929 . S
O322 Co297 2.351 . S
O322 C325 1.244 . S
O323 Co297 2.155 . S
O323 C325 1.240 . S
O324 Co297 2.096 . S
O324 C305 1.247 . S
C325 O322 1.244 . S
C325 O323 1.240 . S
H326 C300 0.931 1_556 S
H327 C309 0.931 . S
H328 C313 0.929 . S
H329 C315 0.930 . S
Co330 N334 2.148 . S
Co330 N340 2.128 . S
Co330 N350 2.194 . S
Co330 O355 2.351 . S
Co330 O356 2.155 . S
Co330 O357 2.096 . S
C331 N334 1.301 . S
C331 N335 1.328 1_554 S
C331 H336 0.930 . S
C332 C333 1.333 . S
C332 N334 1.317 . S
C332 H337 0.930 . S
C333 C332 1.333 . S
C333 N335 1.350 1_554 S
C333 H359 0.931 1_554 S
N334 Co330 2.148 . S
N334 C331 1.301 . S
N334 C332 1.317 . S
N335 C331 1.328 1_556 S
N335 C333 1.350 1_556 S
H336 C331 0.930 . S
H337 C332 0.930 . S
C338 O339 1.224 . S
C338 O357 1.247 . S
O339 C338 1.224 . S
N340 Co330 2.128 . S
N340 C341 1.355 . S
N340 C343 1.311 . S
C341 N340 1.355 . S
C341 C342 1.363 . S
C341 H353 0.929 . S
C342 C341 1.363 . S
C342 N344 1.375 . S
C342 H360 0.931 . S
C343 N340 1.311 . S
C343 N344 1.347 . S
C343 H354 0.929 . S
N344 C342 1.375 . S
N344 C343 1.347 . S
C345 C348 1.365 . S
C345 N350 1.328 . S
C345 H351 0.929 . S
C346 C347 1.362 . S
C346 C349 1.378 . S
C346 H361 0.929 . S
C347 C346 1.362 . S
C347 C348 1.366 . S
C348 C345 1.365 . S
C348 C347 1.366 . S
C348 H362 0.930 . S
C349 C346 1.378 . S
C349 N350 1.315 . S
C349 H352 0.930 . S
N350 Co330 2.194 . S
N350 C345 1.328 . S
N350 C349 1.315 . S
H351 C345 0.929 . S
H352 C349 0.930 . S
H353 C341 0.929 . S
H354 C343 0.929 . S
O355 Co330 2.351 . S
O355 C358 1.244 . S
O356 Co330 2.155 . S
O356 C358 1.240 . S
O357 Co330 2.096 . S
O357 C338 1.247 . S
C358 O355 1.244 . S
C358 O356 1.240 . S
H359 C333 0.931 1_556 S
H360 C342 0.931 . S
H361 C346 0.929 . S
H362 C348 0.930 . S
Co363 N367 2.148 . S
Co363 N373 2.128 . S
Co363 N383 2.194 . S
Co363 O388 2.351 . S
Co363 O389 2.155 . S
Co363 O390 2.096 . S
C364 N367 1.301 . S
C364 N368 1.328 1_554 S
C364 H369 0.930 . S
C365 C366 1.333 . S
C365 N367 1.317 . S
C365 H370 0.930 . S
C366 C365 1.333 . S
C366 N368 1.350 1_554 S
C366 H392 0.931 1_554 S
N367 Co363 2.148 . S
N367 C364 1.301 . S
N367 C365 1.317 . S
N368 C364 1.328 1_556 S
N368 C366 1.350 1_556 S
H369 C364 0.930 . S
H370 C365 0.930 . S
C371 O372 1.224 . S
C371 O390 1.247 . S
O372 C371 1.224 . S
N373 Co363 2.128 . S
N373 C374 1.355 . S
N373 C376 1.311 . S
C374 N373 1.355 . S
C374 C375 1.363 . S
C374 H386 0.929 . S
C375 C374 1.363 . S
C375 N377 1.375 . S
C375 H393 0.931 . S
C376 N373 1.311 . S
C376 N377 1.347 . S
C376 H387 0.929 . S
N377 C375 1.375 . S
N377 C376 1.347 . S
C378 C381 1.365 . S
C378 N383 1.328 . S
C378 H384 0.929 . S
C379 C380 1.362 . S
C379 C382 1.378 . S
C379 H394 0.929 . S
C380 C379 1.362 . S
C380 C381 1.366 . S
C381 C378 1.365 . S
C381 C380 1.366 . S
C381 H395 0.930 . S
C382 C379 1.378 . S
C382 N383 1.315 . S
C382 H385 0.930 . S
N383 Co363 2.194 . S
N383 C378 1.328 . S
N383 C382 1.315 . S
H384 C378 0.929 . S
H385 C382 0.930 . S
H386 C374 0.929 . S
H387 C376 0.929 . S
O388 Co363 2.351 . S
O388 C391 1.244 . S
O389 Co363 2.155 . S
O389 C391 1.240 . S
O390 Co363 2.096 . S
O390 C371 1.247 . S
C391 O388 1.244 . S
C391 O389 1.240 . S
H392 C366 0.931 1_556 S
H393 C375 0.931 . S
H394 C379 0.929 . S
H395 C381 0.930 . S
Co396 N400 2.148 . S
Co396 N406 2.128 . S
Co396 N416 2.194 . S
Co396 O421 2.351 . S
Co396 O422 2.155 . S
Co396 O423 2.096 . S
C397 N400 1.301 . S
C397 N401 1.328 . S
C397 H402 0.930 . S
C398 C399 1.333 . S
C398 N400 1.317 . S
C398 H403 0.930 . S
C399 C398 1.333 . S
C399 N401 1.350 . S
C399 H425 0.931 . S
N400 Co396 2.148 . S
N400 C397 1.301 . S
N400 C398 1.317 . S
N401 C397 1.328 . S
N401 C399 1.350 . S
H402 C397 0.930 . S
H403 C398 0.930 . S
C404 O405 1.224 . S
C404 O423 1.247 . S
O405 C404 1.224 . S
N406 Co396 2.128 . S
N406 C407 1.355 . S
N406 C409 1.311 . S
C407 N406 1.355 . S
C407 C408 1.363 . S
C407 H419 0.929 . S
C408 C407 1.363 . S
C408 N410 1.375 . S
C408 H426 0.931 . S
C409 N406 1.311 . S
C409 N410 1.347 . S
C409 H420 0.929 . S
N410 C408 1.375 . S
N410 C409 1.347 . S
C411 C414 1.365 . S
C411 N416 1.328 . S
C411 H417 0.929 . S
C412 C413 1.362 . S
C412 C415 1.378 . S
C412 H427 0.929 . S
C413 C412 1.362 . S
C413 C414 1.366 . S
C414 C411 1.365 . S
C414 C413 1.366 . S
C414 H428 0.930 . S
C415 C412 1.378 . S
C415 N416 1.315 . S
C415 H418 0.930 . S
N416 Co396 2.194 . S
N416 C411 1.328 . S
N416 C415 1.315 . S
H417 C411 0.929 . S
H418 C415 0.930 . S
H419 C407 0.929 . S
H420 C409 0.929 . S
O421 Co396 2.351 . S
O421 C424 1.244 . S
O422 Co396 2.155 . S
O422 C424 1.240 . S
O423 Co396 2.096 . S
O423 C404 1.247 . S
C424 O421 1.244 . S
C424 O422 1.240 . S
H425 C399 0.931 . S
H426 C408 0.931 . S
H427 C412 0.929 . S
H428 C414 0.930 . S
Co429 N433 2.148 . S
Co429 N439 2.128 . S
Co429 N449 2.194 . S
Co429 O454 2.351 . S
Co429 O455 2.155 . S
Co429 O456 2.096 . S
C430 N433 1.301 . S
C430 N434 1.328 . S
C430 H435 0.930 . S
C431 C432 1.333 . S
C431 N433 1.317 . S
C431 H436 0.930 . S
C432 C431 1.333 . S
C432 N434 1.350 . S
C432 H458 0.931 . S
N433 Co429 2.148 . S
N433 C430 1.301 . S
N433 C431 1.317 . S
N434 C430 1.328 . S
N434 C432 1.350 . S
H435 C430 0.930 . S
H436 C431 0.930 . S
C437 O438 1.224 . S
C437 O456 1.247 . S
O438 C437 1.224 . S
N439 Co429 2.128 . S
N439 C440 1.355 . S
N439 C442 1.311 . S
C440 N439 1.355 . S
C440 C441 1.363 . S
C440 H452 0.929 . S
C441 C440 1.363 . S
C441 N443 1.375 . S
C441 H459 0.931 . S
C442 N439 1.311 . S
C442 N443 1.347 . S
C442 H453 0.929 . S
N443 C441 1.375 . S
N443 C442 1.347 . S
C444 C447 1.365 . S
C444 N449 1.328 . S
C444 H450 0.929 . S
C445 C446 1.362 . S
C445 C448 1.378 . S
C445 H460 0.929 . S
C446 C445 1.362 . S
C446 C447 1.366 . S
C447 C444 1.365 . S
C447 C446 1.366 . S
C447 H461 0.930 . S
C448 C445 1.378 . S
C448 N449 1.315 . S
C448 H451 0.930 . S
N449 Co429 2.194 . S
N449 C444 1.328 . S
N449 C448 1.315 . S
H450 C444 0.929 . S
H451 C448 0.930 . S
H452 C440 0.929 . S
H453 C442 0.929 . S
O454 Co429 2.351 . S
O454 C457 1.244 . S
O455 Co429 2.155 . S
O455 C457 1.240 . S
O456 Co429 2.096 . S
O456 C437 1.247 . S
C457 O454 1.244 . S
C457 O455 1.240 . S
H458 C432 0.931 . S
H459 C441 0.931 . S
H460 C445 0.929 . S
H461 C447 0.930 . S
Co462 N466 2.148 . S
Co462 N472 2.128 . S
Co462 N482 2.194 . S
Co462 O487 2.351 . S
Co462 O488 2.155 . S
Co462 O489 2.096 . S
C463 N466 1.301 . S
C463 N467 1.328 . S
C463 H468 0.930 . S
C464 C465 1.333 . S
C464 N466 1.317 . S
C464 H469 0.930 . S
C465 C464 1.333 . S
C465 N467 1.350 . S
C465 H491 0.931 . S
N466 Co462 2.148 . S
N466 C463 1.301 . S
N466 C464 1.317 . S
N467 C463 1.328 . S
N467 C465 1.350 . S
H468 C463 0.930 . S
H469 C464 0.930 . S
C470 O471 1.224 . S
C470 O489 1.247 . S
O471 C470 1.224 . S
N472 Co462 2.128 . S
N472 C473 1.355 . S
N472 C475 1.311 . S
C473 N472 1.355 . S
C473 C474 1.363 . S
C473 H485 0.929 . S
C474 C473 1.363 . S
C474 N476 1.375 . S
C474 H492 0.931 . S
C475 N472 1.311 . S
C475 N476 1.347 . S
C475 H486 0.929 . S
N476 C474 1.375 . S
N476 C475 1.347 . S
C477 C480 1.365 . S
C477 N482 1.328 . S
C477 H483 0.929 . S
C478 C479 1.362 . S
C478 C481 1.378 . S
C478 H493 0.929 . S
C479 C478 1.362 . S
C479 C480 1.366 . S
C480 C477 1.365 . S
C480 C479 1.366 . S
C480 H494 0.930 . S
C481 C478 1.378 . S
C481 N482 1.315 . S
C481 H484 0.930 . S
N482 Co462 2.194 . S
N482 C477 1.328 . S
N482 C481 1.315 . S
H483 C477 0.929 . S
H484 C481 0.930 . S
H485 C473 0.929 . S
H486 C475 0.929 . S
O487 Co462 2.351 . S
O487 C490 1.244 . S
O488 Co462 2.155 . S
O488 C490 1.240 . S
O489 Co462 2.096 . S
O489 C470 1.247 . S
C490 O487 1.244 . S
C490 O488 1.240 . S
H491 C465 0.931 . S
H492 C474 0.931 . S
H493 C478 0.929 . S
H494 C480 0.930 . S
Co495 N499 2.148 . S
Co495 N505 2.128 1_554 S
Co495 N515 2.194 . S
Co495 O520 2.351 . S
Co495 O521 2.155 . S
Co495 O522 2.096 . S
C496 N499 1.301 . S
C496 N500 1.328 . S
C496 H501 0.930 . S
C497 C498 1.333 . S
C497 N499 1.317 . S
C497 H502 0.930 . S
C498 C497 1.333 . S
C498 N500 1.350 . S
C498 H524 0.931 . S
N499 Co495 2.148 . S
N499 C496 1.301 . S
N499 C497 1.317 . S
N500 C496 1.328 . S
N500 C498 1.350 . S
H501 C496 0.930 . S
H502 C497 0.930 . S
C503 O504 1.224 . S
C503 O522 1.247 . S
O504 C503 1.224 . S
N505 Co495 2.128 1_556 S
N505 C506 1.355 . S
N505 C508 1.311 . S
C506 N505 1.355 . S
C506 C507 1.363 . S
C506 H518 0.929 . S
C507 C506 1.363 . S
C507 N509 1.375 . S
C507 H525 0.931 . S
C508 N505 1.311 . S
C508 N509 1.347 . S
C508 H519 0.929 . S
N509 C507 1.375 . S
N509 C508 1.347 . S
C510 C513 1.365 . S
C510 N515 1.328 . S
C510 H516 0.929 . S
C511 C512 1.362 . S
C511 C514 1.378 . S
C511 H526 0.929 . S
C512 C511 1.362 . S
C512 C513 1.366 . S
C513 C510 1.365 . S
C513 C512 1.366 . S
C513 H527 0.930 . S
C514 C511 1.378 . S
C514 N515 1.315 . S
C514 H517 0.930 . S
N515 Co495 2.194 . S
N515 C510 1.328 . S
N515 C514 1.315 . S
H516 C510 0.929 . S
H517 C514 0.930 . S
H518 C506 0.929 . S
H519 C508 0.929 . S
O520 Co495 2.351 . S
O520 C523 1.244 . S
O521 Co495 2.155 . S
O521 C523 1.240 . S
O522 Co495 2.096 . S
O522 C503 1.247 . S
C523 O520 1.244 . S
C523 O521 1.240 . S
H524 C498 0.931 . S
H525 C507 0.931 . S
H526 C511 0.929 . S
H527 C513 0.930 . S
Co528 N532 2.148 . S
Co528 N538 2.128 1_554 S
Co528 N548 2.194 . S
Co528 O553 2.351 . S
Co528 O554 2.155 . S
Co528 O555 2.096 . S
C529 N532 1.301 . S
C529 N533 1.328 . S
C529 H534 0.930 . S
C530 C531 1.333 . S
C530 N532 1.317 . S
C530 H535 0.930 . S
C531 C530 1.333 . S
C531 N533 1.350 . S
C531 H557 0.931 . S
N532 Co528 2.148 . S
N532 C529 1.301 . S
N532 C530 1.317 . S
N533 C529 1.328 . S
N533 C531 1.350 . S
H534 C529 0.930 . S
H535 C530 0.930 . S
C536 O537 1.224 . S
C536 O555 1.247 . S
O537 C536 1.224 . S
N538 Co528 2.128 1_556 S
N538 C539 1.355 . S
N538 C541 1.311 . S
C539 N538 1.355 . S
C539 C540 1.363 . S
C539 H551 0.929 . S
C540 C539 1.363 . S
C540 N542 1.375 . S
C540 H558 0.931 . S
C541 N538 1.311 . S
C541 N542 1.347 . S
C541 H552 0.929 . S
N542 C540 1.375 . S
N542 C541 1.347 . S
C543 C546 1.365 . S
C543 N548 1.328 . S
C543 H549 0.929 . S
C544 C545 1.362 . S
C544 C547 1.378 . S
C544 H559 0.929 . S
C545 C544 1.362 . S
C545 C546 1.366 . S
C546 C543 1.365 . S
C546 C545 1.366 . S
C546 H560 0.930 . S
C547 C544 1.378 . S
C547 N548 1.315 . S
C547 H550 0.930 . S
N548 Co528 2.194 . S
N548 C543 1.328 . S
N548 C547 1.315 . S
H549 C543 0.929 . S
H550 C547 0.930 . S
H551 C539 0.929 . S
H552 C541 0.929 . S
O553 Co528 2.351 . S
O553 C556 1.244 . S
O554 Co528 2.155 . S
O554 C556 1.240 . S
O555 Co528 2.096 . S
O555 C536 1.247 . S
C556 O553 1.244 . S
C556 O554 1.240 . S
H557 C531 0.931 . S
H558 C540 0.931 . S
H559 C544 0.929 . S
H560 C546 0.930 . S
Co561 N565 2.148 . S
Co561 N571 2.128 1_554 S
Co561 N581 2.194 . S
Co561 O586 2.351 . S
Co561 O587 2.155 . S
Co561 O588 2.096 . S
C562 N565 1.301 . S
C562 N566 1.328 . S
C562 H567 0.930 . S
C563 C564 1.333 . S
C563 N565 1.317 . S
C563 H568 0.930 . S
C564 C563 1.333 . S
C564 N566 1.350 . S
C564 H590 0.931 . S
N565 Co561 2.148 . S
N565 C562 1.301 . S
N565 C563 1.317 . S
N566 C562 1.328 . S
N566 C564 1.350 . S
H567 C562 0.930 . S
H568 C563 0.930 . S
C569 O570 1.224 . S
C569 O588 1.247 . S
O570 C569 1.224 . S
N571 Co561 2.128 1_556 S
N571 C572 1.355 . S
N571 C574 1.311 . S
C572 N571 1.355 . S
C572 C573 1.363 . S
C572 H584 0.929 . S
C573 C572 1.363 . S
C573 N575 1.375 . S
C573 H591 0.931 . S
C574 N571 1.311 . S
C574 N575 1.347 . S
C574 H585 0.929 . S
N575 C573 1.375 . S
N575 C574 1.347 . S
C576 C579 1.365 . S
C576 N581 1.328 . S
C576 H582 0.929 . S
C577 C578 1.362 . S
C577 C580 1.378 . S
C577 H592 0.929 . S
C578 C577 1.362 . S
C578 C579 1.366 . S
C579 C576 1.365 . S
C579 C578 1.366 . S
C579 H593 0.930 . S
C580 C577 1.378 . S
C580 N581 1.315 . S
C580 H583 0.930 . S
N581 Co561 2.194 . S
N581 C576 1.328 . S
N581 C580 1.315 . S
H582 C576 0.929 . S
H583 C580 0.930 . S
H584 C572 0.929 . S
H585 C574 0.929 . S
O586 Co561 2.351 . S
O586 C589 1.244 . S
O587 Co561 2.155 . S
O587 C589 1.240 . S
O588 Co561 2.096 . S
O588 C569 1.247 . S
C589 O586 1.244 . S
C589 O587 1.240 . S
H590 C564 0.931 . S
H591 C573 0.931 . S
H592 C577 0.929 . S
H593 C579 0.930 . S
Co594 N598 2.148 . S
Co594 N604 2.128 1_554 S
Co594 N614 2.194 . S
Co594 O619 2.351 . S
Co594 O620 2.155 . S
Co594 O621 2.096 . S
C595 N598 1.301 . S
C595 N599 1.328 . S
C595 H600 0.930 . S
C596 C597 1.333 . S
C596 N598 1.317 . S
C596 H601 0.930 . S
C597 C596 1.333 . S
C597 N599 1.350 . S
C597 H623 0.931 . S
N598 Co594 2.148 . S
N598 C595 1.301 . S
N598 C596 1.317 . S
N599 C595 1.328 . S
N599 C597 1.350 . S
H600 C595 0.930 . S
H601 C596 0.930 . S
C602 O603 1.224 . S
C602 O621 1.247 . S
O603 C602 1.224 . S
N604 Co594 2.128 1_556 S
N604 C605 1.355 . S
N604 C607 1.311 . S
C605 N604 1.355 . S
C605 C606 1.363 . S
C605 H617 0.929 . S
C606 C605 1.363 . S
C606 N608 1.375 . S
C606 H624 0.931 . S
C607 N604 1.311 . S
C607 N608 1.347 . S
C607 H618 0.929 . S
N608 C606 1.375 . S
N608 C607 1.347 . S
C609 C612 1.365 . S
C609 N614 1.328 . S
C609 H615 0.929 . S
C610 C611 1.362 . S
C610 C613 1.378 . S
C610 H625 0.929 . S
C611 C610 1.362 . S
C611 C612 1.366 . S
C612 C609 1.365 . S
C612 C611 1.366 . S
C612 H626 0.930 . S
C613 C610 1.378 . S
C613 N614 1.315 . S
C613 H616 0.930 . S
N614 Co594 2.194 . S
N614 C609 1.328 . S
N614 C613 1.315 . S
H615 C609 0.929 . S
H616 C613 0.930 . S
H617 C605 0.929 . S
H618 C607 0.929 . S
O619 Co594 2.351 . S
O619 C622 1.244 . S
O620 Co594 2.155 . S
O620 C622 1.240 . S
O621 Co594 2.096 . S
O621 C602 1.247 . S
C622 O619 1.244 . S
C622 O620 1.240 . S
H623 C597 0.931 . S
H624 C606 0.931 . S
H625 C610 0.929 . S
H626 C612 0.930 . S
Co627 N631 2.148 . S
Co627 N637 2.128 1_554 S
Co627 N647 2.194 . S
Co627 O652 2.351 . S
Co627 O653 2.155 . S
Co627 O654 2.096 . S
C628 N631 1.301 . S
C628 N632 1.328 . S
C628 H633 0.930 . S
C629 C630 1.333 . S
C629 N631 1.317 . S
C629 H634 0.930 . S
C630 C629 1.333 . S
C630 N632 1.350 . S
C630 H656 0.931 . S
N631 Co627 2.148 . S
N631 C628 1.301 . S
N631 C629 1.317 . S
N632 C628 1.328 . S
N632 C630 1.350 . S
H633 C628 0.930 . S
H634 C629 0.930 . S
C635 O636 1.224 . S
C635 O654 1.247 . S
O636 C635 1.224 . S
N637 Co627 2.128 1_556 S
N637 C638 1.355 . S
N637 C640 1.311 . S
C638 N637 1.355 . S
C638 C639 1.363 . S
C638 H650 0.929 . S
C639 C638 1.363 . S
C639 N641 1.375 . S
C639 H657 0.931 . S
C640 N637 1.311 . S
C640 N641 1.347 . S
C640 H651 0.929 . S
N641 C639 1.375 . S
N641 C640 1.347 . S
C642 C645 1.365 . S
C642 N647 1.328 . S
C642 H648 0.929 . S
C643 C644 1.362 . S
C643 C646 1.378 . S
C643 H658 0.929 . S
C644 C643 1.362 . S
C644 C645 1.366 . S
C645 C642 1.365 . S
C645 C644 1.366 . S
C645 H659 0.930 . S
C646 C643 1.378 . S
C646 N647 1.315 . S
C646 H649 0.930 . S
N647 Co627 2.194 . S
N647 C642 1.328 . S
N647 C646 1.315 . S
H648 C642 0.929 . S
H649 C646 0.930 . S
H650 C638 0.929 . S
H651 C640 0.929 . S
O652 Co627 2.351 . S
O652 C655 1.244 . S
O653 Co627 2.155 . S
O653 C655 1.240 . S
O654 Co627 2.096 . S
O654 C635 1.247 . S
C655 O652 1.244 . S
C655 O653 1.240 . S
H656 C630 0.931 . S
H657 C639 0.931 . S
H658 C643 0.929 . S
H659 C645 0.930 . S
Co660 N664 2.148 . S
Co660 N670 2.128 1_554 S
Co660 N680 2.194 . S
Co660 O685 2.351 . S
Co660 O686 2.155 . S
Co660 O687 2.096 . S
C661 N664 1.301 . S
C661 N665 1.328 . S
C661 H666 0.930 . S
C662 C663 1.333 . S
C662 N664 1.317 . S
C662 H667 0.930 . S
C663 C662 1.333 . S
C663 N665 1.350 . S
C663 H689 0.931 . S
N664 Co660 2.148 . S
N664 C661 1.301 . S
N664 C662 1.317 . S
N665 C661 1.328 . S
N665 C663 1.350 . S
H666 C661 0.930 . S
H667 C662 0.930 . S
C668 O669 1.224 . S
C668 O687 1.247 . S
O669 C668 1.224 . S
N670 Co660 2.128 1_556 S
N670 C671 1.355 . S
N670 C673 1.311 . S
C671 N670 1.355 . S
C671 C672 1.363 . S
C671 H683 0.929 . S
C672 C671 1.363 . S
C672 N674 1.375 . S
C672 H690 0.931 . S
C673 N670 1.311 . S
C673 N674 1.347 . S
C673 H684 0.929 . S
N674 C672 1.375 . S
N674 C673 1.347 . S
C675 C678 1.365 . S
C675 N680 1.328 . S
C675 H681 0.929 . S
C676 C677 1.362 . S
C676 C679 1.378 . S
C676 H691 0.929 . S
C677 C676 1.362 . S
C677 C678 1.366 . S
C678 C675 1.365 . S
C678 C677 1.366 . S
C678 H692 0.930 . S
C679 C676 1.378 . S
C679 N680 1.315 . S
C679 H682 0.930 . S
N680 Co660 2.194 . S
N680 C675 1.328 . S
N680 C679 1.315 . S
H681 C675 0.929 . S
H682 C679 0.930 . S
H683 C671 0.929 . S
H684 C673 0.929 . S
O685 Co660 2.351 . S
O685 C688 1.244 . S
O686 Co660 2.155 . S
O686 C688 1.240 . S
O687 Co660 2.096 . S
O687 C668 1.247 . S
C688 O685 1.244 . S
C688 O686 1.240 . S
H689 C663 0.931 . S
H690 C672 0.931 . S
H691 C676 0.929 . S
H692 C678 0.930 . S
Co693 N697 2.148 . S
Co693 N703 2.128 . S
Co693 N713 2.194 . S
Co693 O718 2.351 . S
Co693 O719 2.155 . S
Co693 O720 2.096 . S
C694 N697 1.301 . S
C694 N698 1.328 . S
C694 H699 0.930 . S
C695 C696 1.333 . S
C695 N697 1.317 . S
C695 H700 0.930 . S
C696 C695 1.333 . S
C696 N698 1.350 . S
C696 H722 0.931 . S
N697 Co693 2.148 . S
N697 C694 1.301 . S
N697 C695 1.317 . S
N698 C694 1.328 . S
N698 C696 1.350 . S
H699 C694 0.930 . S
H700 C695 0.930 . S
C701 O702 1.224 . S
C701 O720 1.247 . S
O702 C701 1.224 . S
N703 Co693 2.128 . S
N703 C704 1.355 . S
N703 C706 1.311 . S
C704 N703 1.355 . S
C704 C705 1.363 . S
C704 H716 0.929 . S
C705 C704 1.363 . S
C705 N707 1.375 . S
C705 H723 0.931 . S
C706 N703 1.311 . S
C706 N707 1.347 . S
C706 H717 0.929 . S
N707 C705 1.375 . S
N707 C706 1.347 . S
C708 C711 1.365 . S
C708 N713 1.328 . S
C708 H714 0.929 . S
C709 C710 1.362 . S
C709 C712 1.378 . S
C709 H724 0.929 . S
C710 C709 1.362 . S
C710 C711 1.366 . S
C711 C708 1.365 . S
C711 C710 1.366 . S
C711 H725 0.930 . S
C712 C709 1.378 . S
C712 N713 1.315 . S
C712 H715 0.930 . S
N713 Co693 2.194 . S
N713 C708 1.328 . S
N713 C712 1.315 . S
H714 C708 0.929 . S
H715 C712 0.930 . S
H716 C704 0.929 . S
H717 C706 0.929 . S
O718 Co693 2.351 . S
O718 C721 1.244 . S
O719 Co693 2.155 . S
O719 C721 1.240 . S
O720 Co693 2.096 . S
O720 C701 1.247 . S
C721 O718 1.244 . S
C721 O719 1.240 . S
H722 C696 0.931 . S
H723 C705 0.931 . S
H724 C709 0.929 . S
H725 C711 0.930 . S
Co726 N730 2.148 . S
Co726 N736 2.128 . S
Co726 N746 2.194 . S
Co726 O751 2.351 . S
Co726 O752 2.155 . S
Co726 O753 2.096 . S
C727 N730 1.301 . S
C727 N731 1.328 . S
C727 H732 0.930 . S
C728 C729 1.333 . S
C728 N730 1.317 . S
C728 H733 0.930 . S
C729 C728 1.333 . S
C729 N731 1.350 . S
C729 H755 0.931 . S
N730 Co726 2.148 . S
N730 C727 1.301 . S
N730 C728 1.317 . S
N731 C727 1.328 . S
N731 C729 1.350 . S
H732 C727 0.930 . S
H733 C728 0.930 . S
C734 O735 1.224 . S
C734 O753 1.247 . S
O735 C734 1.224 . S
N736 Co726 2.128 . S
N736 C737 1.355 . S
N736 C739 1.311 . S
C737 N736 1.355 . S
C737 C738 1.363 . S
C737 H749 0.929 . S
C738 C737 1.363 . S
C738 N740 1.375 . S
C738 H756 0.931 . S
C739 N736 1.311 . S
C739 N740 1.347 . S
C739 H750 0.929 . S
N740 C738 1.375 . S
N740 C739 1.347 . S
C741 C744 1.365 . S
C741 N746 1.328 . S
C741 H747 0.929 . S
C742 C743 1.362 . S
C742 C745 1.378 . S
C742 H757 0.929 . S
C743 C742 1.362 . S
C743 C744 1.366 . S
C744 C741 1.365 . S
C744 C743 1.366 . S
C744 H758 0.930 . S
C745 C742 1.378 . S
C745 N746 1.315 . S
C745 H748 0.930 . S
N746 Co726 2.194 . S
N746 C741 1.328 . S
N746 C745 1.315 . S
H747 C741 0.929 . S
H748 C745 0.930 . S
H749 C737 0.929 . S
H750 C739 0.929 . S
O751 Co726 2.351 . S
O751 C754 1.244 . S
O752 Co726 2.155 . S
O752 C754 1.240 . S
O753 Co726 2.096 . S
O753 C734 1.247 . S
C754 O751 1.244 . S
C754 O752 1.240 . S
H755 C729 0.931 . S
H756 C738 0.931 . S
H757 C742 0.929 . S
H758 C744 0.930 . S
Co759 N763 2.148 . S
Co759 N769 2.128 . S
Co759 N779 2.194 . S
Co759 O784 2.351 . S
Co759 O785 2.155 . S
Co759 O786 2.096 . S
C760 N763 1.301 . S
C760 N764 1.328 . S
C760 H765 0.930 . S
C761 C762 1.333 . S
C761 N763 1.317 . S
C761 H766 0.930 . S
C762 C761 1.333 . S
C762 N764 1.350 . S
C762 H788 0.931 . S
N763 Co759 2.148 . S
N763 C760 1.301 . S
N763 C761 1.317 . S
N764 C760 1.328 . S
N764 C762 1.350 . S
H765 C760 0.930 . S
H766 C761 0.930 . S
C767 O768 1.224 . S
C767 O786 1.247 . S
O768 C767 1.224 . S
N769 Co759 2.128 . S
N769 C770 1.355 . S
N769 C772 1.311 . S
C770 N769 1.355 . S
C770 C771 1.363 . S
C770 H782 0.929 . S
C771 C770 1.363 . S
C771 N773 1.375 . S
C771 H789 0.931 . S
C772 N769 1.311 . S
C772 N773 1.347 . S
C772 H783 0.929 . S
N773 C771 1.375 . S
N773 C772 1.347 . S
C774 C777 1.365 . S
C774 N779 1.328 . S
C774 H780 0.929 . S
C775 C776 1.362 . S
C775 C778 1.378 . S
C775 H790 0.929 . S
C776 C775 1.362 . S
C776 C777 1.366 . S
C777 C774 1.365 . S
C777 C776 1.366 . S
C777 H791 0.930 . S
C778 C775 1.378 . S
C778 N779 1.315 . S
C778 H781 0.930 . S
N779 Co759 2.194 . S
N779 C774 1.328 . S
N779 C778 1.315 . S
H780 C774 0.929 . S
H781 C778 0.930 . S
H782 C770 0.929 . S
H783 C772 0.929 . S
O784 Co759 2.351 . S
O784 C787 1.244 . S
O785 Co759 2.155 . S
O785 C787 1.240 . S
O786 Co759 2.096 . S
O786 C767 1.247 . S
C787 O784 1.244 . S
C787 O785 1.240 . S
H788 C762 0.931 . S
H789 C771 0.931 . S
H790 C775 0.929 . S
H791 C777 0.930 . S
Co792 N796 2.148 . S
Co792 N802 2.128 1_556 S
Co792 N812 2.194 . S
Co792 O817 2.351 . S
Co792 O818 2.155 . S
Co792 O819 2.096 . S
C793 N796 1.301 . S
C793 N797 1.328 . S
C793 H798 0.930 . S
C794 C795 1.333 . S
C794 N796 1.317 . S
C794 H799 0.930 . S
C795 C794 1.333 . S
C795 N797 1.350 . S
C795 H821 0.931 . S
N796 Co792 2.148 . S
N796 C793 1.301 . S
N796 C794 1.317 . S
N797 C793 1.328 . S
N797 C795 1.350 . S
H798 C793 0.930 . S
H799 C794 0.930 . S
C800 O801 1.224 . S
C800 O819 1.247 . S
O801 C800 1.224 . S
N802 Co792 2.128 1_554 S
N802 C803 1.355 . S
N802 C805 1.311 . S
C803 N802 1.355 . S
C803 C804 1.363 . S
C803 H815 0.929 . S
C804 C803 1.363 . S
C804 N806 1.375 . S
C804 H822 0.931 . S
C805 N802 1.311 . S
C805 N806 1.347 . S
C805 H816 0.929 . S
N806 C804 1.375 . S
N806 C805 1.347 . S
C807 C810 1.365 . S
C807 N812 1.328 . S
C807 H813 0.929 . S
C808 C809 1.362 . S
C808 C811 1.378 . S
C808 H823 0.929 . S
C809 C808 1.362 . S
C809 C810 1.366 . S
C810 C807 1.365 . S
C810 C809 1.366 . S
C810 H824 0.930 . S
C811 C808 1.378 . S
C811 N812 1.315 . S
C811 H814 0.930 . S
N812 Co792 2.194 . S
N812 C807 1.328 . S
N812 C811 1.315 . S
H813 C807 0.929 . S
H814 C811 0.930 . S
H815 C803 0.929 . S
H816 C805 0.929 . S
O817 Co792 2.351 . S
O817 C820 1.244 . S
O818 Co792 2.155 . S
O818 C820 1.240 . S
O819 Co792 2.096 . S
O819 C800 1.247 . S
C820 O817 1.244 . S
C820 O818 1.240 . S
H821 C795 0.931 . S
H822 C804 0.931 . S
H823 C808 0.929 . S
H824 C810 0.930 . S
Co825 N829 2.148 . S
Co825 N835 2.128 1_556 S
Co825 N845 2.194 . S
Co825 O850 2.351 . S
Co825 O851 2.155 . S
Co825 O852 2.096 . S
C826 N829 1.301 . S
C826 N830 1.328 . S
C826 H831 0.930 . S
C827 C828 1.333 . S
C827 N829 1.317 . S
C827 H832 0.930 . S
C828 C827 1.333 . S
C828 N830 1.350 . S
C828 H854 0.931 . S
N829 Co825 2.148 . S
N829 C826 1.301 . S
N829 C827 1.317 . S
N830 C826 1.328 . S
N830 C828 1.350 . S
H831 C826 0.930 . S
H832 C827 0.930 . S
C833 O834 1.224 . S
C833 O852 1.247 . S
O834 C833 1.224 . S
N835 Co825 2.128 1_554 S
N835 C836 1.355 . S
N835 C838 1.311 . S
C836 N835 1.355 . S
C836 C837 1.363 . S
C836 H848 0.929 . S
C837 C836 1.363 . S
C837 N839 1.375 . S
C837 H855 0.931 . S
C838 N835 1.311 . S
C838 N839 1.347 . S
C838 H849 0.929 . S
N839 C837 1.375 . S
N839 C838 1.347 . S
C840 C843 1.365 . S
C840 N845 1.328 . S
C840 H846 0.929 . S
C841 C842 1.362 . S
C841 C844 1.378 . S
C841 H856 0.929 . S
C842 C841 1.362 . S
C842 C843 1.366 . S
C843 C840 1.365 . S
C843 C842 1.366 . S
C843 H857 0.930 . S
C844 C841 1.378 . S
C844 N845 1.315 . S
C844 H847 0.930 . S
N845 Co825 2.194 . S
N845 C840 1.328 . S
N845 C844 1.315 . S
H846 C840 0.929 . S
H847 C844 0.930 . S
H848 C836 0.929 . S
H849 C838 0.929 . S
O850 Co825 2.351 . S
O850 C853 1.244 . S
O851 Co825 2.155 . S
O851 C853 1.240 . S
O852 Co825 2.096 . S
O852 C833 1.247 . S
C853 O850 1.244 . S
C853 O851 1.240 . S
H854 C828 0.931 . S
H855 C837 0.931 . S
H856 C841 0.929 . S
H857 C843 0.930 . S
Co858 N862 2.148 . S
Co858 N868 2.128 1_556 S
Co858 N878 2.194 . S
Co858 O883 2.351 . S
Co858 O884 2.155 . S
Co858 O885 2.096 . S
C859 N862 1.301 . S
C859 N863 1.328 . S
C859 H864 0.930 . S
C860 C861 1.333 . S
C860 N862 1.317 . S
C860 H865 0.930 . S
C861 C860 1.333 . S
C861 N863 1.350 . S
C861 H887 0.931 . S
N862 Co858 2.148 . S
N862 C859 1.301 . S
N862 C860 1.317 . S
N863 C859 1.328 . S
N863 C861 1.350 . S
H864 C859 0.930 . S
H865 C860 0.930 . S
C866 O867 1.224 . S
C866 O885 1.247 . S
O867 C866 1.224 . S
N868 Co858 2.128 1_554 S
N868 C869 1.355 . S
N868 C871 1.311 . S
C869 N868 1.355 . S
C869 C870 1.363 . S
C869 H881 0.929 . S
C870 C869 1.363 . S
C870 N872 1.375 . S
C870 H888 0.931 . S
C871 N868 1.311 . S
C871 N872 1.347 . S
C871 H882 0.929 . S
N872 C870 1.375 . S
N872 C871 1.347 . S
C873 C876 1.365 . S
C873 N878 1.328 . S
C873 H879 0.929 . S
C874 C875 1.362 . S
C874 C877 1.378 . S
C874 H889 0.929 . S
C875 C874 1.362 . S
C875 C876 1.366 . S
C876 C873 1.365 . S
C876 C875 1.366 . S
C876 H890 0.930 . S
C877 C874 1.378 . S
C877 N878 1.315 . S
C877 H880 0.930 . S
N878 Co858 2.194 . S
N878 C873 1.328 . S
N878 C877 1.315 . S
H879 C873 0.929 . S
H880 C877 0.930 . S
H881 C869 0.929 . S
H882 C871 0.929 . S
O883 Co858 2.351 . S
O883 C886 1.244 . S
O884 Co858 2.155 . S
O884 C886 1.240 . S
O885 Co858 2.096 . S
O885 C866 1.247 . S
C886 O883 1.244 . S
C886 O884 1.240 . S
H887 C861 0.931 . S
H888 C870 0.931 . S
H889 C874 0.929 . S
H890 C876 0.930 . S
Co891 N895 2.148 . S
Co891 N901 2.128 . S
Co891 N911 2.194 . S
Co891 O916 2.351 . S
Co891 O917 2.155 . S
Co891 O918 2.096 . S
C892 N895 1.301 . S
C892 N896 1.328 . S
C892 H897 0.930 . S
C893 C894 1.333 . S
C893 N895 1.317 . S
C893 H898 0.930 . S
C894 C893 1.333 . S
C894 N896 1.350 . S
C894 H920 0.931 . S
N895 Co891 2.148 . S
N895 C892 1.301 . S
N895 C893 1.317 . S
N896 C892 1.328 . S
N896 C894 1.350 . S
H897 C892 0.930 . S
H898 C893 0.930 . S
C899 O900 1.224 . S
C899 O918 1.247 . S
O900 C899 1.224 . S
N901 Co891 2.128 . S
N901 C902 1.355 . S
N901 C904 1.311 . S
C902 N901 1.355 . S
C902 C903 1.363 . S
C902 H914 0.929 . S
C903 C902 1.363 . S
C903 N905 1.375 . S
C903 H921 0.931 . S
C904 N901 1.311 . S
C904 N905 1.347 . S
C904 H915 0.929 . S
N905 C903 1.375 . S
N905 C904 1.347 . S
C906 C909 1.365 . S
C906 N911 1.328 . S
C906 H912 0.929 . S
C907 C908 1.362 . S
C907 C910 1.378 . S
C907 H922 0.929 . S
C908 C907 1.362 . S
C908 C909 1.366 . S
C909 C906 1.365 . S
C909 C908 1.366 . S
C909 H923 0.930 . S
C910 C907 1.378 . S
C910 N911 1.315 . S
C910 H913 0.930 . S
N911 Co891 2.194 . S
N911 C906 1.328 . S
N911 C910 1.315 . S
H912 C906 0.929 . S
H913 C910 0.930 . S
H914 C902 0.929 . S
H915 C904 0.929 . S
O916 Co891 2.351 . S
O916 C919 1.244 . S
O917 Co891 2.155 . S
O917 C919 1.240 . S
O918 Co891 2.096 . S
O918 C899 1.247 . S
C919 O916 1.244 . S
C919 O917 1.240 . S
H920 C894 0.931 . S
H921 C903 0.931 . S
H922 C907 0.929 . S
H923 C909 0.930 . S
Co924 N928 2.148 . S
Co924 N934 2.128 . S
Co924 N944 2.194 . S
Co924 O949 2.351 . S
Co924 O950 2.155 . S
Co924 O951 2.096 . S
C925 N928 1.301 . S
C925 N929 1.328 . S
C925 H930 0.930 . S
C926 C927 1.333 . S
C926 N928 1.317 . S
C926 H931 0.930 . S
C927 C926 1.333 . S
C927 N929 1.350 . S
C927 H953 0.931 . S
N928 Co924 2.148 . S
N928 C925 1.301 . S
N928 C926 1.317 . S
N929 C925 1.328 . S
N929 C927 1.350 . S
H930 C925 0.930 . S
H931 C926 0.930 . S
C932 O933 1.224 . S
C932 O951 1.247 . S
O933 C932 1.224 . S
N934 Co924 2.128 . S
N934 C935 1.355 . S
N934 C937 1.311 . S
C935 N934 1.355 . S
C935 C936 1.363 . S
C935 H947 0.929 . S
C936 C935 1.363 . S
C936 N938 1.375 . S
C936 H954 0.931 . S
C937 N934 1.311 . S
C937 N938 1.347 . S
C937 H948 0.929 . S
N938 C936 1.375 . S
N938 C937 1.347 . S
C939 C942 1.365 . S
C939 N944 1.328 . S
C939 H945 0.929 . S
C940 C941 1.362 . S
C940 C943 1.378 . S
C940 H955 0.929 . S
C941 C940 1.362 . S
C941 C942 1.366 . S
C942 C939 1.365 . S
C942 C941 1.366 . S
C942 H956 0.930 . S
C943 C940 1.378 . S
C943 N944 1.315 . S
C943 H946 0.930 . S
N944 Co924 2.194 . S
N944 C939 1.328 . S
N944 C943 1.315 . S
H945 C939 0.929 . S
H946 C943 0.930 . S
H947 C935 0.929 . S
H948 C937 0.929 . S
O949 Co924 2.351 . S
O949 C952 1.244 . S
O950 Co924 2.155 . S
O950 C952 1.240 . S
O951 Co924 2.096 . S
O951 C932 1.247 . S
C952 O949 1.244 . S
C952 O950 1.240 . S
H953 C927 0.931 . S
H954 C936 0.931 . S
H955 C940 0.929 . S
H956 C942 0.930 . S
Co957 N961 2.148 . S
Co957 N967 2.128 . S
Co957 N977 2.194 . S
Co957 O982 2.351 . S
Co957 O983 2.155 . S
Co957 O984 2.096 . S
C958 N961 1.301 . S
C958 N962 1.328 . S
C958 H963 0.930 . S
C959 C960 1.333 . S
C959 N961 1.317 . S
C959 H964 0.930 . S
C960 C959 1.333 . S
C960 N962 1.350 . S
C960 H986 0.931 . S
N961 Co957 2.148 . S
N961 C958 1.301 . S
N961 C959 1.317 . S
N962 C958 1.328 . S
N962 C960 1.350 . S
H963 C958 0.930 . S
H964 C959 0.930 . S
C965 O966 1.224 . S
C965 O984 1.247 . S
O966 C965 1.224 . S
N967 Co957 2.128 . S
N967 C968 1.355 . S
N967 C970 1.311 . S
C968 N967 1.355 . S
C968 C969 1.363 . S
C968 H980 0.929 . S
C969 C968 1.363 . S
C969 N971 1.375 . S
C969 H987 0.931 . S
C970 N967 1.311 . S
C970 N971 1.347 . S
C970 H981 0.929 . S
N971 C969 1.375 . S
N971 C970 1.347 . S
C972 C975 1.365 . S
C972 N977 1.328 . S
C972 H978 0.929 . S
C973 C974 1.362 . S
C973 C976 1.378 . S
C973 H988 0.929 . S
C974 C973 1.362 . S
C974 C975 1.366 . S
C975 C972 1.365 . S
C975 C974 1.366 . S
C975 H989 0.930 . S
C976 C973 1.378 . S
C976 N977 1.315 . S
C976 H979 0.930 . S
N977 Co957 2.194 . S
N977 C972 1.328 . S
N977 C976 1.315 . S
H978 C972 0.929 . S
H979 C976 0.930 . S
H980 C968 0.929 . S
H981 C970 0.929 . S
O982 Co957 2.351 . S
O982 C985 1.244 . S
O983 Co957 2.155 . S
O983 C985 1.240 . S
O984 Co957 2.096 . S
O984 C965 1.247 . S
C985 O982 1.244 . S
C985 O983 1.240 . S
H986 C960 0.931 . S
H987 C969 0.931 . S
H988 C973 0.929 . S
H989 C975 0.930 . S
Co990 N994 2.148 . S
Co990 N1000 2.128 . S
Co990 N1010 2.194 . S
Co990 O1015 2.351 . S
Co990 O1016 2.155 . S
Co990 O1017 2.096 . S
C991 N994 1.301 . S
C991 N995 1.328 . S
C991 H996 0.930 . S
C992 C993 1.333 . S
C992 N994 1.317 . S
C992 H997 0.930 . S
C993 C992 1.333 . S
C993 N995 1.350 . S
C993 H1019 0.931 . S
N994 Co990 2.148 . S
N994 C991 1.301 . S
N994 C992 1.317 . S
N995 C991 1.328 . S
N995 C993 1.350 . S
H996 C991 0.930 . S
H997 C992 0.930 . S
C998 O999 1.224 . S
C998 O1017 1.247 . S
O999 C998 1.224 . S
N1000 Co990 2.128 . S
N1000 C1001 1.355 . S
N1000 C1003 1.311 . S
C1001 N1000 1.355 . S
C1001 C1002 1.363 . S
C1001 H1013 0.929 . S
C1002 C1001 1.363 . S
C1002 N1004 1.375 . S
C1002 H1020 0.931 . S
C1003 N1000 1.311 . S
C1003 N1004 1.347 . S
C1003 H1014 0.929 . S
N1004 C1002 1.375 . S
N1004 C1003 1.347 . S
C1005 C1008 1.365 . S
C1005 N1010 1.328 . S
C1005 H1011 0.929 . S
C1006 C1007 1.362 . S
C1006 C1009 1.378 . S
C1006 H1021 0.929 . S
C1007 C1006 1.362 . S
C1007 C1008 1.366 . S
C1008 C1005 1.365 . S
C1008 C1007 1.366 . S
C1008 H1022 0.930 . S
C1009 C1006 1.378 . S
C1009 N1010 1.315 . S
C1009 H1012 0.930 . S
N1010 Co990 2.194 . S
N1010 C1005 1.328 . S
N1010 C1009 1.315 . S
H1011 C1005 0.929 . S
H1012 C1009 0.930 . S
H1013 C1001 0.929 . S
H1014 C1003 0.929 . S
O1015 Co990 2.351 . S
O1015 C1018 1.244 . S
O1016 Co990 2.155 . S
O1016 C1018 1.240 . S
O1017 Co990 2.096 . S
O1017 C998 1.247 . S
C1018 O1015 1.244 . S
C1018 O1016 1.240 . S
H1019 C993 0.931 . S
H1020 C1002 0.931 . S
H1021 C1006 0.929 . S
H1022 C1008 0.930 . S
Co1023 N1027 2.148 . S
Co1023 N1033 2.128 . S
Co1023 N1043 2.194 . S
Co1023 O1048 2.351 . S
Co1023 O1049 2.155 . S
Co1023 O1050 2.096 . S
C1024 N1027 1.301 . S
C1024 N1028 1.328 . S
C1024 H1029 0.930 . S
C1025 C1026 1.333 . S
C1025 N1027 1.317 . S
C1025 H1030 0.930 . S
C1026 C1025 1.333 . S
C1026 N1028 1.350 . S
C1026 H1052 0.931 . S
N1027 Co1023 2.148 . S
N1027 C1024 1.301 . S
N1027 C1025 1.317 . S
N1028 C1024 1.328 . S
N1028 C1026 1.350 . S
H1029 C1024 0.930 . S
H1030 C1025 0.930 . S
C1031 O1032 1.224 . S
C1031 O1050 1.247 . S
O1032 C1031 1.224 . S
N1033 Co1023 2.128 . S
N1033 C1034 1.355 . S
N1033 C1036 1.311 . S
C1034 N1033 1.355 . S
C1034 C1035 1.363 . S
C1034 H1046 0.929 . S
C1035 C1034 1.363 . S
C1035 N1037 1.375 . S
C1035 H1053 0.931 . S
C1036 N1033 1.311 . S
C1036 N1037 1.347 . S
C1036 H1047 0.929 . S
N1037 C1035 1.375 . S
N1037 C1036 1.347 . S
C1038 C1041 1.365 . S
C1038 N1043 1.328 . S
C1038 H1044 0.929 . S
C1039 C1040 1.362 . S
C1039 C1042 1.378 . S
C1039 H1054 0.929 . S
C1040 C1039 1.362 . S
C1040 C1041 1.366 . S
C1041 C1038 1.365 . S
C1041 C1040 1.366 . S
C1041 H1055 0.930 . S
C1042 C1039 1.378 . S
C1042 N1043 1.315 . S
C1042 H1045 0.930 . S
N1043 Co1023 2.194 . S
N1043 C1038 1.328 . S
N1043 C1042 1.315 . S
H1044 C1038 0.929 . S
H1045 C1042 0.930 . S
H1046 C1034 0.929 . S
H1047 C1036 0.929 . S
O1048 Co1023 2.351 . S
O1048 C1051 1.244 . S
O1049 Co1023 2.155 . S
O1049 C1051 1.240 . S
O1050 Co1023 2.096 . S
O1050 C1031 1.247 . S
C1051 O1048 1.244 . S
C1051 O1049 1.240 . S
H1052 C1026 0.931 . S
H1053 C1035 0.931 . S
H1054 C1039 0.929 . S
H1055 C1041 0.930 . S
Co1056 N1060 2.148 . S
Co1056 N1066 2.128 . S
Co1056 N1076 2.194 . S
Co1056 O1081 2.351 . S
Co1056 O1082 2.155 . S
Co1056 O1083 2.096 . S
C1057 N1060 1.301 . S
C1057 N1061 1.328 . S
C1057 H1062 0.930 . S
C1058 C1059 1.333 . S
C1058 N1060 1.317 . S
C1058 H1063 0.930 . S
C1059 C1058 1.333 . S
C1059 N1061 1.350 . S
C1059 H1085 0.931 . S
N1060 Co1056 2.148 . S
N1060 C1057 1.301 . S
N1060 C1058 1.317 . S
N1061 C1057 1.328 . S
N1061 C1059 1.350 . S
H1062 C1057 0.930 . S
H1063 C1058 0.930 . S
C1064 O1065 1.224 . S
C1064 O1083 1.247 . S
O1065 C1064 1.224 . S
N1066 Co1056 2.128 . S
N1066 C1067 1.355 . S
N1066 C1069 1.311 . S
C1067 N1066 1.355 . S
C1067 C1068 1.363 . S
C1067 H1079 0.929 . S
C1068 C1067 1.363 . S
C1068 N1070 1.375 . S
C1068 H1086 0.931 . S
C1069 N1066 1.311 . S
C1069 N1070 1.347 . S
C1069 H1080 0.929 . S
N1070 C1068 1.375 . S
N1070 C1069 1.347 . S
C1071 C1074 1.365 . S
C1071 N1076 1.328 . S
C1071 H1077 0.929 . S
C1072 C1073 1.362 . S
C1072 C1075 1.378 . S
C1072 H1087 0.929 . S
C1073 C1072 1.362 . S
C1073 C1074 1.366 . S
C1074 C1071 1.365 . S
C1074 C1073 1.366 . S
C1074 H1088 0.930 . S
C1075 C1072 1.378 . S
C1075 N1076 1.315 . S
C1075 H1078 0.930 . S
N1076 Co1056 2.194 . S
N1076 C1071 1.328 . S
N1076 C1075 1.315 . S
H1077 C1071 0.929 . S
H1078 C1075 0.930 . S
H1079 C1067 0.929 . S
H1080 C1069 0.929 . S
O1081 Co1056 2.351 . S
O1081 C1084 1.244 . S
O1082 Co1056 2.155 . S
O1082 C1084 1.240 . S
O1083 Co1056 2.096 . S
O1083 C1064 1.247 . S
C1084 O1081 1.244 . S
C1084 O1082 1.240 . S
H1085 C1059 0.931 . S
H1086 C1068 0.931 . S
H1087 C1072 0.929 . S
H1088 C1074 0.930 . S
Co1089 N1093 2.148 . S
Co1089 N1099 2.128 1_556 S
Co1089 N1109 2.194 . S
Co1089 O1114 2.351 . S
Co1089 O1115 2.155 . S
Co1089 O1116 2.096 . S
C1090 N1093 1.301 . S
C1090 N1094 1.328 . S
C1090 H1095 0.930 . S
C1091 C1092 1.333 . S
C1091 N1093 1.317 . S
C1091 H1096 0.930 . S
C1092 C1091 1.333 . S
C1092 N1094 1.350 . S
C1092 H1118 0.931 . S
N1093 Co1089 2.148 . S
N1093 C1090 1.301 . S
N1093 C1091 1.317 . S
N1094 C1090 1.328 . S
N1094 C1092 1.350 . S
H1095 C1090 0.930 . S
H1096 C1091 0.930 . S
C1097 O1098 1.224 . S
C1097 O1116 1.247 . S
O1098 C1097 1.224 . S
N1099 Co1089 2.128 1_554 S
N1099 C1100 1.355 . S
N1099 C1102 1.311 . S
C1100 N1099 1.355 . S
C1100 C1101 1.363 . S
C1100 H1112 0.929 . S
C1101 C1100 1.363 . S
C1101 N1103 1.375 . S
C1101 H1119 0.931 . S
C1102 N1099 1.311 . S
C1102 N1103 1.347 . S
C1102 H1113 0.929 . S
N1103 C1101 1.375 . S
N1103 C1102 1.347 . S
C1104 C1107 1.365 . S
C1104 N1109 1.328 . S
C1104 H1110 0.929 . S
C1105 C1106 1.362 . S
C1105 C1108 1.378 . S
C1105 H1120 0.929 . S
C1106 C1105 1.362 . S
C1106 C1107 1.366 . S
C1107 C1104 1.365 . S
C1107 C1106 1.366 . S
C1107 H1121 0.930 . S
C1108 C1105 1.378 . S
C1108 N1109 1.315 . S
C1108 H1111 0.930 . S
N1109 Co1089 2.194 . S
N1109 C1104 1.328 . S
N1109 C1108 1.315 . S
H1110 C1104 0.929 . S
H1111 C1108 0.930 . S
H1112 C1100 0.929 . S
H1113 C1102 0.929 . S
O1114 Co1089 2.351 . S
O1114 C1117 1.244 . S
O1115 Co1089 2.155 . S
O1115 C1117 1.240 . S
O1116 Co1089 2.096 . S
O1116 C1097 1.247 . S
C1117 O1114 1.244 . S
C1117 O1115 1.240 . S
H1118 C1092 0.931 . S
H1119 C1101 0.931 . S
H1120 C1105 0.929 . S
H1121 C1107 0.930 . S
Co1122 N1126 2.148 . S
Co1122 N1132 2.128 1_556 S
Co1122 N1142 2.194 . S
Co1122 O1147 2.351 . S
Co1122 O1148 2.155 . S
Co1122 O1149 2.096 . S
C1123 N1126 1.301 . S
C1123 N1127 1.328 . S
C1123 H1128 0.930 . S
C1124 C1125 1.333 . S
C1124 N1126 1.317 . S
C1124 H1129 0.930 . S
C1125 C1124 1.333 . S
C1125 N1127 1.350 . S
C1125 H1151 0.931 . S
N1126 Co1122 2.148 . S
N1126 C1123 1.301 . S
N1126 C1124 1.317 . S
N1127 C1123 1.328 . S
N1127 C1125 1.350 . S
H1128 C1123 0.930 . S
H1129 C1124 0.930 . S
C1130 O1131 1.224 . S
C1130 O1149 1.247 . S
O1131 C1130 1.224 . S
N1132 Co1122 2.128 1_554 S
N1132 C1133 1.355 . S
N1132 C1135 1.311 . S
C1133 N1132 1.355 . S
C1133 C1134 1.363 . S
C1133 H1145 0.929 . S
C1134 C1133 1.363 . S
C1134 N1136 1.375 . S
C1134 H1152 0.931 . S
C1135 N1132 1.311 . S
C1135 N1136 1.347 . S
C1135 H1146 0.929 . S
N1136 C1134 1.375 . S
N1136 C1135 1.347 . S
C1137 C1140 1.365 . S
C1137 N1142 1.328 . S
C1137 H1143 0.929 . S
C1138 C1139 1.362 . S
C1138 C1141 1.378 . S
C1138 H1153 0.929 . S
C1139 C1138 1.362 . S
C1139 C1140 1.366 . S
C1140 C1137 1.365 . S
C1140 C1139 1.366 . S
C1140 H1154 0.930 . S
C1141 C1138 1.378 . S
C1141 N1142 1.315 . S
C1141 H1144 0.930 . S
N1142 Co1122 2.194 . S
N1142 C1137 1.328 . S
N1142 C1141 1.315 . S
H1143 C1137 0.929 . S
H1144 C1141 0.930 . S
H1145 C1133 0.929 . S
H1146 C1135 0.929 . S
O1147 Co1122 2.351 . S
O1147 C1150 1.244 . S
O1148 Co1122 2.155 . S
O1148 C1150 1.240 . S
O1149 Co1122 2.096 . S
O1149 C1130 1.247 . S
C1150 O1147 1.244 . S
C1150 O1148 1.240 . S
H1151 C1125 0.931 . S
H1152 C1134 0.931 . S
H1153 C1138 0.929 . S
H1154 C1140 0.930 . S
Co1155 N1159 2.148 . S
Co1155 N1165 2.128 1_556 S
Co1155 N1175 2.194 . S
Co1155 O1180 2.351 . S
Co1155 O1181 2.155 . S
Co1155 O1182 2.096 . S
C1156 N1159 1.301 . S
C1156 N1160 1.328 . S
C1156 H1161 0.930 . S
C1157 C1158 1.333 . S
C1157 N1159 1.317 . S
C1157 H1162 0.930 . S
C1158 C1157 1.333 . S
C1158 N1160 1.350 . S
C1158 H1184 0.931 . S
N1159 Co1155 2.148 . S
N1159 C1156 1.301 . S
N1159 C1157 1.317 . S
N1160 C1156 1.328 . S
N1160 C1158 1.350 . S
H1161 C1156 0.930 . S
H1162 C1157 0.930 . S
C1163 O1164 1.224 . S
C1163 O1182 1.247 . S
O1164 C1163 1.224 . S
N1165 Co1155 2.128 1_554 S
N1165 C1166 1.355 . S
N1165 C1168 1.311 . S
C1166 N1165 1.355 . S
C1166 C1167 1.363 . S
C1166 H1178 0.929 . S
C1167 C1166 1.363 . S
C1167 N1169 1.375 . S
C1167 H1185 0.931 . S
C1168 N1165 1.311 . S
C1168 N1169 1.347 . S
C1168 H1179 0.929 . S
N1169 C1167 1.375 . S
N1169 C1168 1.347 . S
C1170 C1173 1.365 . S
C1170 N1175 1.328 . S
C1170 H1176 0.929 . S
C1171 C1172 1.362 . S
C1171 C1174 1.378 . S
C1171 H1186 0.929 . S
C1172 C1171 1.362 . S
C1172 C1173 1.366 . S
C1173 C1170 1.365 . S
C1173 C1172 1.366 . S
C1173 H1187 0.930 . S
C1174 C1171 1.378 . S
C1174 N1175 1.315 . S
C1174 H1177 0.930 . S
N1175 Co1155 2.194 . S
N1175 C1170 1.328 . S
N1175 C1174 1.315 . S
H1176 C1170 0.929 . S
H1177 C1174 0.930 . S
H1178 C1166 0.929 . S
H1179 C1168 0.929 . S
O1180 Co1155 2.351 . S
O1180 C1183 1.244 . S
O1181 Co1155 2.155 . S
O1181 C1183 1.240 . S
O1182 Co1155 2.096 . S
O1182 C1163 1.247 . S
C1183 O1180 1.244 . S
C1183 O1181 1.240 . S
H1184 C1158 0.931 . S
H1185 C1167 0.931 . S
H1186 C1171 0.929 . S
H1187 C1173 0.930 . S
H1188 C1194 0.930 . S
H1189 C1197 0.930 . S
H1190 C1198 0.930 . S
H1191 C1199 0.930 . S
H1192 C1202 0.930 . S
H1193 C1203 0.930 . S
C1194 H1188 0.930 . S
C1194 C1195 1.355 . S
C1194 C1196 1.415 . S
C1195 C1194 1.355 . S
C1195 C1197 1.419 . S
C1196 C1194 1.415 . S
C1196 C1201 1.425 . S
C1196 C1203 1.409 . S
C1197 H1189 0.930 . S
C1197 C1195 1.419 . S
C1197 C1198 1.362 . S
C1198 H1190 0.930 . S
C1198 C1197 1.362 . S
C1198 C1201 1.409 . S
C1199 H1191 0.930 . S
C1199 C1200 1.355 . S
C1199 C1201 1.415 . S
C1200 C1199 1.355 . S
C1200 C1202 1.419 . S
C1201 C1196 1.425 . S
C1201 C1198 1.409 . S
C1201 C1199 1.415 . S
C1202 H1192 0.930 . S
C1202 C1200 1.419 . S
C1202 C1203 1.362 . S
C1203 H1193 0.930 . S
C1203 C1196 1.409 . S
C1203 C1202 1.362 . S
H1204 C1210 0.930 . S
H1205 C1213 0.930 . S
H1206 C1214 0.930 . S
H1207 C1215 0.930 . S
H1208 C1218 0.930 . S
H1209 C1219 0.930 . S
C1210 H1204 0.930 . S
C1210 C1211 1.355 . S
C1210 C1212 1.415 . S
C1211 C1210 1.355 . S
C1211 C1213 1.419 . S
C1212 C1210 1.415 . S
C1212 C1217 1.425 . S
C1212 C1219 1.409 . S
C1213 H1205 0.930 . S
C1213 C1211 1.419 . S
C1213 C1214 1.362 . S
C1214 H1206 0.930 . S
C1214 C1213 1.362 . S
C1214 C1217 1.409 . S
C1215 H1207 0.930 . S
C1215 C1216 1.355 . S
C1215 C1217 1.415 . S
C1216 C1215 1.355 . S
C1216 C1218 1.419 . S
C1217 C1212 1.425 . S
C1217 C1214 1.409 . S
C1217 C1215 1.415 . S
C1218 H1208 0.930 . S
C1218 C1216 1.419 . S
C1218 C1219 1.362 . S
C1219 H1209 0.930 . S
C1219 C1212 1.409 . S
C1219 C1218 1.362 . S
H1220 C1226 0.930 . S
H1221 C1229 0.930 . S
H1222 C1230 0.930 . S
H1223 C1231 0.930 . S
H1224 C1234 0.930 . S
H1225 C1235 0.930 . S
C1226 H1220 0.930 . S
C1226 C1227 1.355 . S
C1226 C1228 1.415 . S
C1227 C1226 1.355 . S
C1227 C1229 1.419 . S
C1228 C1226 1.415 . S
C1228 C1233 1.425 . S
C1228 C1235 1.409 . S
C1229 H1221 0.930 . S
C1229 C1227 1.419 . S
C1229 C1230 1.362 . S
C1230 H1222 0.930 . S
C1230 C1229 1.362 . S
C1230 C1233 1.409 . S
C1231 H1223 0.930 . S
C1231 C1232 1.355 . S
C1231 C1233 1.415 . S
C1232 C1231 1.355 . S
C1232 C1234 1.419 . S
C1233 C1228 1.425 . S
C1233 C1230 1.409 . S
C1233 C1231 1.415 . S
C1234 H1224 0.930 . S
C1234 C1232 1.419 . S
C1234 C1235 1.362 . S
C1235 H1225 0.930 . S
C1235 C1228 1.409 . S
C1235 C1234 1.362 . S
H1236 C1242 0.930 . S
H1237 C1245 0.930 . S
H1238 C1246 0.930 . S
H1239 C1247 0.930 . S
H1240 C1250 0.930 . S
H1241 C1251 0.930 . S
C1242 H1236 0.930 . S
C1242 C1243 1.355 . S
C1242 C1244 1.415 . S
C1243 C1242 1.355 . S
C1243 C1245 1.419 . S
C1244 C1242 1.415 . S
C1244 C1249 1.425 . S
C1244 C1251 1.409 . S
C1245 H1237 0.930 . S
C1245 C1243 1.419 . S
C1245 C1246 1.362 . S
C1246 H1238 0.930 . S
C1246 C1245 1.362 . S
C1246 C1249 1.409 . S
C1247 H1239 0.930 . S
C1247 C1248 1.355 . S
C1247 C1249 1.415 . S
C1248 C1247 1.355 . S
C1248 C1250 1.419 . S
C1249 C1244 1.425 . S
C1249 C1246 1.409 . S
C1249 C1247 1.415 . S
C1250 H1240 0.930 . S
C1250 C1248 1.419 . S
C1250 C1251 1.362 . S
C1251 H1241 0.930 . S
C1251 C1244 1.409 . S
C1251 C1250 1.362 . S
H1252 C1258 0.930 . S
H1253 C1261 0.930 . S
H1254 C1262 0.930 . S
H1255 C1263 0.930 . S
H1256 C1266 0.930 . S
H1257 C1267 0.930 . S
C1258 H1252 0.930 . S
C1258 C1259 1.355 . S
C1258 C1260 1.415 . S
C1259 C1258 1.355 . S
C1259 C1261 1.419 . S
C1260 C1258 1.415 . S
C1260 C1265 1.425 . S
C1260 C1267 1.409 . S
C1261 H1253 0.930 . S
C1261 C1259 1.419 . S
C1261 C1262 1.362 . S
C1262 H1254 0.930 . S
C1262 C1261 1.362 . S
C1262 C1265 1.409 . S
C1263 H1255 0.930 . S
C1263 C1264 1.355 . S
C1263 C1265 1.415 . S
C1264 C1263 1.355 . S
C1264 C1266 1.419 . S
C1265 C1260 1.425 . S
C1265 C1262 1.409 . S
C1265 C1263 1.415 . S
C1266 H1256 0.930 . S
C1266 C1264 1.419 . S
C1266 C1267 1.362 . S
C1267 H1257 0.930 . S
C1267 C1260 1.409 . S
C1267 C1266 1.362 . S
H1268 C1274 0.930 . S
H1269 C1277 0.930 . S
H1270 C1278 0.930 . S
H1271 C1279 0.930 . S
H1272 C1282 0.930 . S
H1273 C1283 0.930 . S
C1274 H1268 0.930 . S
C1274 C1275 1.355 . S
C1274 C1276 1.415 . S
C1275 C1274 1.355 . S
C1275 C1277 1.419 . S
C1276 C1274 1.415 . S
C1276 C1281 1.425 . S
C1276 C1283 1.409 . S
C1277 H1269 0.930 . S
C1277 C1275 1.419 . S
C1277 C1278 1.362 . S
C1278 H1270 0.930 . S
C1278 C1277 1.362 . S
C1278 C1281 1.409 . S
C1279 H1271 0.930 . S
C1279 C1280 1.355 . S
C1279 C1281 1.415 . S
C1280 C1279 1.355 . S
C1280 C1282 1.419 . S
C1281 C1276 1.425 . S
C1281 C1278 1.409 . S
C1281 C1279 1.415 . S
C1282 H1272 0.930 . S
C1282 C1280 1.419 . S
C1282 C1283 1.362 . S
C1283 H1273 0.930 . S
C1283 C1276 1.409 . S
C1283 C1282 1.362 . S
H1284 C1290 0.930 . S
H1285 C1293 0.930 . S
H1286 C1294 0.930 . S
H1287 C1295 0.930 . S
H1288 C1298 0.930 . S
H1289 C1299 0.930 . S
C1290 H1284 0.930 . S
C1290 C1291 1.355 . S
C1290 C1292 1.415 . S
C1291 C1290 1.355 . S
C1291 C1293 1.419 . S
C1292 C1290 1.415 . S
C1292 C1297 1.425 . S
C1292 C1299 1.409 . S
C1293 H1285 0.930 . S
C1293 C1291 1.419 . S
C1293 C1294 1.362 . S
C1294 H1286 0.930 . S
C1294 C1293 1.362 . S
C1294 C1297 1.409 . S
C1295 H1287 0.930 . S
C1295 C1296 1.355 . S
C1295 C1297 1.415 . S
C1296 C1295 1.355 . S
C1296 C1298 1.419 . S
C1297 C1292 1.425 . S
C1297 C1294 1.409 . S
C1297 C1295 1.415 . S
C1298 H1288 0.930 . S
C1298 C1296 1.419 . S
C1298 C1299 1.362 . S
C1299 H1289 0.930 . S
C1299 C1292 1.409 . S
C1299 C1298 1.362 . S
H1300 C1306 0.930 . S
H1301 C1309 0.930 . S
H1302 C1310 0.930 . S
H1303 C1311 0.930 . S
H1304 C1314 0.930 . S
H1305 C1315 0.930 . S
C1306 H1300 0.930 . S
C1306 C1307 1.355 . S
C1306 C1308 1.415 . S
C1307 C1306 1.355 . S
C1307 C1309 1.419 . S
C1308 C1306 1.415 . S
C1308 C1313 1.425 . S
C1308 C1315 1.409 . S
C1309 H1301 0.930 . S
C1309 C1307 1.419 . S
C1309 C1310 1.362 . S
C1310 H1302 0.930 . S
C1310 C1309 1.362 . S
C1310 C1313 1.409 . S
C1311 H1303 0.930 . S
C1311 C1312 1.355 . S
C1311 C1313 1.415 . S
C1312 C1311 1.355 . S
C1312 C1314 1.419 . S
C1313 C1308 1.425 . S
C1313 C1310 1.409 . S
C1313 C1311 1.415 . S
C1314 H1304 0.930 . S
C1314 C1312 1.419 . S
C1314 C1315 1.362 . S
C1315 H1305 0.930 . S
C1315 C1308 1.409 . S
C1315 C1314 1.362 . S
H1316 C1322 0.930 . S
H1317 C1325 0.930 . S
H1318 C1326 0.930 . S
H1319 C1327 0.930 . S
H1320 C1330 0.930 . S
H1321 C1331 0.930 . S
C1322 H1316 0.930 . S
C1322 C1323 1.355 . S
C1322 C1324 1.415 . S
C1323 C1322 1.355 . S
C1323 C1325 1.419 . S
C1324 C1322 1.415 . S
C1324 C1329 1.425 . S
C1324 C1331 1.409 . S
C1325 H1317 0.930 . S
C1325 C1323 1.419 . S
C1325 C1326 1.362 . S
C1326 H1318 0.930 . S
C1326 C1325 1.362 . S
C1326 C1329 1.409 . S
C1327 H1319 0.930 . S
C1327 C1328 1.355 . S
C1327 C1329 1.415 . S
C1328 C1327 1.355 . S
C1328 C1330 1.419 . S
C1329 C1324 1.425 . S
C1329 C1326 1.409 . S
C1329 C1327 1.415 . S
C1330 H1320 0.930 . S
C1330 C1328 1.419 . S
C1330 C1331 1.362 . S
C1331 H1321 0.930 . S
C1331 C1324 1.409 . S
C1331 C1330 1.362 . S
H1332 C1338 0.930 . S
H1333 C1341 0.930 . S
H1334 C1342 0.930 . S
H1335 C1343 0.930 . S
H1336 C1346 0.930 . S
H1337 C1347 0.930 . S
C1338 H1332 0.930 . S
C1338 C1339 1.355 . S
C1338 C1340 1.415 . S
C1339 C1338 1.355 . S
C1339 C1341 1.419 . S
C1340 C1338 1.415 . S
C1340 C1345 1.425 . S
C1340 C1347 1.409 . S
C1341 H1333 0.930 . S
C1341 C1339 1.419 . S
C1341 C1342 1.362 . S
C1342 H1334 0.930 . S
C1342 C1341 1.362 . S
C1342 C1345 1.409 . S
C1343 H1335 0.930 . S
C1343 C1344 1.355 . S
C1343 C1345 1.415 . S
C1344 C1343 1.355 . S
C1344 C1346 1.419 . S
C1345 C1340 1.425 . S
C1345 C1342 1.409 . S
C1345 C1343 1.415 . S
C1346 H1336 0.930 . S
C1346 C1344 1.419 . S
C1346 C1347 1.362 . S
C1347 H1337 0.930 . S
C1347 C1340 1.409 . S
C1347 C1346 1.362 . S
H1348 C1354 0.930 . S
H1349 C1357 0.930 . S
H1350 C1358 0.930 . S
H1351 C1359 0.930 . S
H1352 C1362 0.930 . S
H1353 C1363 0.930 . S
C1354 H1348 0.930 . S
C1354 C1355 1.355 . S
C1354 C1356 1.415 . S
C1355 C1354 1.355 . S
C1355 C1357 1.419 . S
C1356 C1354 1.415 . S
C1356 C1361 1.425 . S
C1356 C1363 1.409 . S
C1357 H1349 0.930 . S
C1357 C1355 1.419 . S
C1357 C1358 1.362 . S
C1358 H1350 0.930 . S
C1358 C1357 1.362 . S
C1358 C1361 1.409 . S
C1359 H1351 0.930 . S
C1359 C1360 1.355 . S
C1359 C1361 1.415 . S
C1360 C1359 1.355 . S
C1360 C1362 1.419 . S
C1361 C1356 1.425 . S
C1361 C1358 1.409 . S
C1361 C1359 1.415 . S
C1362 H1352 0.930 . S
C1362 C1360 1.419 . S
C1362 C1363 1.362 . S
C1363 H1353 0.930 . S
C1363 C1356 1.409 . S
C1363 C1362 1.362 . S
H1364 C1370 0.930 . S
H1365 C1373 0.930 . S
H1366 C1374 0.930 . S
H1367 C1375 0.930 . S
H1368 C1378 0.930 . S
H1369 C1379 0.930 . S
C1370 H1364 0.930 . S
C1370 C1371 1.355 . S
C1370 C1372 1.415 . S
C1371 C1370 1.355 . S
C1371 C1373 1.419 . S
C1372 C1370 1.415 . S
C1372 C1377 1.425 . S
C1372 C1379 1.409 . S
C1373 H1365 0.930 . S
C1373 C1371 1.419 . S
C1373 C1374 1.362 . S
C1374 H1366 0.930 . S
C1374 C1373 1.362 . S
C1374 C1377 1.409 . S
C1375 H1367 0.930 . S
C1375 C1376 1.355 . S
C1375 C1377 1.415 . S
C1376 C1375 1.355 . S
C1376 C1378 1.419 . S
C1377 C1372 1.425 . S
C1377 C1374 1.409 . S
C1377 C1375 1.415 . S
C1378 H1368 0.930 . S
C1378 C1376 1.419 . S
C1378 C1379 1.362 . S
C1379 H1369 0.930 . S
C1379 C1372 1.409 . S
C1379 C1378 1.362 . S
H1380 C1386 0.930 . S
H1381 C1389 0.930 . S
H1382 C1390 0.930 . S
H1383 C1391 0.930 . S
H1384 C1394 0.930 . S
H1385 C1395 0.930 . S
C1386 H1380 0.930 . S
C1386 C1387 1.355 . S
C1386 C1388 1.415 . S
C1387 C1386 1.355 . S
C1387 C1389 1.419 . S
C1388 C1386 1.415 . S
C1388 C1393 1.425 . S
C1388 C1395 1.409 . S
C1389 H1381 0.930 . S
C1389 C1387 1.419 . S
C1389 C1390 1.362 . S
C1390 H1382 0.930 . S
C1390 C1389 1.362 . S
C1390 C1393 1.409 . S
C1391 H1383 0.930 . S
C1391 C1392 1.355 . S
C1391 C1393 1.415 . S
C1392 C1391 1.355 . S
C1392 C1394 1.419 . S
C1393 C1388 1.425 . S
C1393 C1390 1.409 . S
C1393 C1391 1.415 . S
C1394 H1384 0.930 . S
C1394 C1392 1.419 . S
C1394 C1395 1.362 . S
C1395 H1385 0.930 . S
C1395 C1388 1.409 . S
C1395 C1394 1.362 . S
H1396 C1402 0.930 . S
H1397 C1405 0.930 . S
H1398 C1406 0.919 1_545 S
H1399 C1407 0.930 . S
H1400 C1410 0.930 . S
H1401 C1411 0.921 1_565 S
C1402 H1396 0.930 . S
C1402 C1403 1.355 . S
C1402 C1404 1.415 . S
C1403 C1402 1.355 . S
C1403 C1405 1.419 . S
C1404 C1402 1.415 . S
C1404 C1409 1.425 1_565 S
C1404 C1411 1.409 1_565 S
C1405 H1397 0.930 . S
C1405 C1403 1.419 . S
C1405 C1406 1.362 . S
C1406 H1398 0.919 1_565 S
C1406 C1405 1.362 . S
C1406 C1409 1.409 1_565 S
C1407 H1399 0.930 . S
C1407 C1408 1.355 . S
C1407 C1409 1.415 . S
C1408 C1407 1.355 . S
C1408 C1410 1.419 . S
C1409 C1404 1.425 1_545 S
C1409 C1406 1.409 1_545 S
C1409 C1407 1.415 . S
C1410 H1400 0.930 . S
C1410 C1408 1.419 . S
C1410 C1411 1.362 . S
C1411 H1401 0.921 1_545 S
C1411 C1404 1.409 1_545 S
C1411 C1410 1.362 . S
H1412 C1418 0.930 . S
H1413 C1421 0.930 . S
H1414 C1422 0.930 . S
H1415 C1423 0.930 . S
H1416 C1426 0.930 . S
H1417 C1427 0.930 . S
C1418 H1412 0.930 . S
C1418 C1419 1.355 . S
C1418 C1420 1.415 . S
C1419 C1418 1.355 . S
C1419 C1421 1.419 . S
C1420 C1418 1.415 . S
C1420 C1425 1.425 1_655 S
C1420 C1427 1.409 1_655 S
C1421 H1413 0.930 . S
C1421 C1419 1.419 . S
C1421 C1422 1.362 . S
C1422 H1414 0.930 . S
C1422 C1421 1.362 . S
C1422 C1425 1.409 1_655 S
C1423 H1415 0.930 . S
C1423 C1424 1.355 . S
C1423 C1425 1.415 . S
C1424 C1423 1.355 . S
C1424 C1426 1.419 . S
C1425 C1420 1.425 1_455 S
C1425 C1422 1.409 1_455 S
C1425 C1423 1.415 . S
C1426 H1416 0.930 . S
C1426 C1424 1.419 . S
C1426 C1427 1.362 . S
C1427 H1417 0.930 . S
C1427 C1420 1.409 1_455 S
C1427 C1426 1.362 . S
H1428 C1434 0.930 . S
H1429 C1437 0.930 . S
H1430 C1438 0.930 . S
H1431 C1439 0.930 . S
H1432 C1442 0.930 . S
H1433 C1443 0.930 . S
C1434 H1428 0.930 . S
C1434 C1435 1.355 . S
C1434 C1436 1.415 . S
C1435 C1434 1.355 . S
C1435 C1437 1.419 . S
C1436 C1434 1.415 . S
C1436 C1441 1.425 . S
C1436 C1443 1.409 . S
C1437 H1429 0.930 . S
C1437 C1435 1.419 . S
C1437 C1438 1.362 . S
C1438 H1430 0.930 . S
C1438 C1437 1.362 . S
C1438 C1441 1.409 . S
C1439 H1431 0.930 . S
C1439 C1440 1.355 . S
C1439 C1441 1.415 . S
C1440 C1439 1.355 . S
C1440 C1442 1.419 . S
C1441 C1436 1.425 . S
C1441 C1438 1.409 . S
C1441 C1439 1.415 . S
C1442 H1432 0.930 . S
C1442 C1440 1.419 . S
C1442 C1443 1.362 . S
C1443 H1433 0.930 . S
C1443 C1436 1.409 . S
C1443 C1442 1.362 . S
H1444 C1450 0.930 . S
H1445 C1453 0.930 . S
H1446 C1454 0.930 1_545 S
H1447 C1455 0.930 . S
H1448 C1458 0.930 . S
H1449 C1459 0.930 1_565 S
C1450 H1444 0.930 . S
C1450 C1451 1.355 . S
C1450 C1452 1.415 . S
C1451 C1450 1.355 . S
C1451 C1453 1.419 . S
C1452 C1450 1.415 . S
C1452 C1457 1.425 1_565 S
C1452 C1459 1.409 1_565 S
C1453 H1445 0.930 . S
C1453 C1451 1.419 . S
C1453 C1454 1.362 . S
C1454 H1446 0.930 1_565 S
C1454 C1453 1.362 . S
C1454 C1457 1.409 1_565 S
C1455 H1447 0.930 . S
C1455 C1456 1.355 . S
C1455 C1457 1.415 . S
C1456 C1455 1.355 . S
C1456 C1458 1.419 . S
C1457 C1452 1.425 1_545 S
C1457 C1454 1.409 1_545 S
C1457 C1455 1.415 . S
C1458 H1448 0.930 . S
C1458 C1456 1.419 . S
C1458 C1459 1.362 . S
C1459 H1449 0.930 1_545 S
C1459 C1452 1.409 1_545 S
C1459 C1458 1.362 . S
H1460 C1466 0.930 . S
H1461 C1469 0.930 . S
H1462 C1470 0.930 1_455 S
H1463 C1471 0.930 . S
H1464 C1474 0.930 . S
H1465 C1475 0.930 1_655 S
C1466 H1460 0.930 . S
C1466 C1467 1.355 . S
C1466 C1468 1.415 . S
C1467 C1466 1.355 . S
C1467 C1469 1.419 . S
C1468 C1466 1.415 . S
C1468 C1473 1.425 1_655 S
C1468 C1475 1.409 1_655 S
C1469 H1461 0.930 . S
C1469 C1467 1.419 . S
C1469 C1470 1.362 . S
C1470 H1462 0.930 1_655 S
C1470 C1469 1.362 . S
C1470 C1473 1.409 1_655 S
C1471 H1463 0.930 . S
C1471 C1472 1.355 . S
C1471 C1473 1.415 . S
C1472 C1471 1.355 . S
C1472 C1474 1.419 . S
C1473 C1468 1.425 1_455 S
C1473 C1470 1.409 1_455 S
C1473 C1471 1.415 . S
C1474 H1464 0.930 . S
C1474 C1472 1.419 . S
C1474 C1475 1.362 . S
C1475 H1465 0.930 1_455 S
C1475 C1468 1.409 1_455 S
C1475 C1474 1.362 . S
H1476 C1482 0.930 . S
H1477 C1485 0.930 . S
H1478 C1486 0.930 . S
H1479 C1487 0.930 . S
H1480 C1490 0.930 . S
H1481 C1491 0.930 . S
C1482 H1476 0.930 . S
C1482 C1483 1.355 . S
C1482 C1484 1.415 . S
C1483 C1482 1.355 . S
C1483 C1485 1.419 . S
C1484 C1482 1.415 . S
C1484 C1489 1.425 . S
C1484 C1491 1.409 . S
C1485 H1477 0.930 . S
C1485 C1483 1.419 . S
C1485 C1486 1.362 . S
C1486 H1478 0.930 . S
C1486 C1485 1.362 . S
C1486 C1489 1.409 . S
C1487 H1479 0.930 . S
C1487 C1488 1.355 . S
C1487 C1489 1.415 . S
C1488 C1487 1.355 . S
C1488 C1490 1.419 . S
C1489 C1484 1.425 . S
C1489 C1486 1.409 . S
C1489 C1487 1.415 . S
C1490 H1480 0.930 . S
C1490 C1488 1.419 . S
C1490 C1491 1.362 . S
C1491 H1481 0.930 . S
C1491 C1484 1.409 . S
C1491 C1490 1.362 . S
H1492 C1498 0.930 . S
H1493 C1501 0.930 . S
H1494 C1502 0.930 . S
H1495 C1503 0.930 . S
H1496 C1506 0.930 . S
H1497 C1507 0.930 . S
C1498 H1492 0.930 . S
C1498 C1499 1.355 . S
C1498 C1500 1.415 . S
C1499 C1498 1.355 . S
C1499 C1501 1.419 . S
C1500 C1498 1.415 . S
C1500 C1505 1.425 . S
C1500 C1507 1.409 . S
C1501 H1493 0.930 . S
C1501 C1499 1.419 . S
C1501 C1502 1.362 . S
C1502 H1494 0.930 . S
C1502 C1501 1.362 . S
C1502 C1505 1.409 . S
C1503 H1495 0.930 . S
C1503 C1504 1.355 . S
C1503 C1505 1.415 . S
C1504 C1503 1.355 . S
C1504 C1506 1.419 . S
C1505 C1500 1.425 . S
C1505 C1502 1.409 . S
C1505 C1503 1.415 . S
C1506 H1496 0.930 . S
C1506 C1504 1.419 . S
C1506 C1507 1.362 . S
C1507 H1497 0.930 . S
C1507 C1500 1.409 . S
C1507 C1506 1.362 . S
H1508 C1514 0.930 . S
H1509 C1517 0.930 . S
H1510 C1518 0.930 . S
H1511 C1519 0.930 . S
H1512 C1522 0.930 . S
H1513 C1523 0.930 . S
C1514 H1508 0.930 . S
C1514 C1515 1.355 . S
C1514 C1516 1.415 . S
C1515 C1514 1.355 . S
C1515 C1517 1.419 . S
C1516 C1514 1.415 . S
C1516 C1521 1.425 . S
C1516 C1523 1.409 . S
C1517 H1509 0.930 . S
C1517 C1515 1.419 . S
C1517 C1518 1.362 . S
C1518 H1510 0.930 . S
C1518 C1517 1.362 . S
C1518 C1521 1.409 . S
C1519 H1511 0.930 . S
C1519 C1520 1.355 . S
C1519 C1521 1.415 . S
C1520 C1519 1.355 . S
C1520 C1522 1.419 . S
C1521 C1516 1.425 . S
C1521 C1518 1.409 . S
C1521 C1519 1.415 . S
C1522 H1512 0.930 . S
C1522 C1520 1.419 . S
C1522 C1523 1.362 . S
C1523 H1513 0.930 . S
C1523 C1516 1.409 . S
C1523 C1522 1.362 . S
H1524 C1530 0.930 . S
H1525 C1533 0.930 . S
H1526 C1534 0.930 . S
H1527 C1535 0.930 . S
H1528 C1538 0.930 . S
H1529 C1539 0.930 . S
C1530 H1524 0.930 . S
C1530 C1531 1.355 . S
C1530 C1532 1.415 . S
C1531 C1530 1.355 . S
C1531 C1533 1.419 . S
C1532 C1530 1.415 . S
C1532 C1537 1.425 . S
C1532 C1539 1.409 . S
C1533 H1525 0.930 . S
C1533 C1531 1.419 . S
C1533 C1534 1.362 . S
C1534 H1526 0.930 . S
C1534 C1533 1.362 . S
C1534 C1537 1.409 . S
C1535 H1527 0.930 . S
C1535 C1536 1.355 . S
C1535 C1537 1.415 . S
C1536 C1535 1.355 . S
C1536 C1538 1.419 . S
C1537 C1532 1.425 . S
C1537 C1534 1.409 . S
C1537 C1535 1.415 . S
C1538 H1528 0.930 . S
C1538 C1536 1.419 . S
C1538 C1539 1.362 . S
C1539 H1529 0.930 . S
C1539 C1532 1.409 . S
C1539 C1538 1.362 . S
H1540 C1546 0.930 . S
H1541 C1549 0.930 . S
H1542 C1550 0.930 . S
H1543 C1551 0.930 . S
H1544 C1554 0.930 . S
H1545 C1555 0.930 . S
C1546 H1540 0.930 . S
C1546 C1547 1.355 . S
C1546 C1548 1.415 . S
C1547 C1546 1.355 . S
C1547 C1549 1.419 . S
C1548 C1546 1.415 . S
C1548 C1553 1.425 . S
C1548 C1555 1.409 . S
C1549 H1541 0.930 . S
C1549 C1547 1.419 . S
C1549 C1550 1.362 . S
C1550 H1542 0.930 . S
C1550 C1549 1.362 . S
C1550 C1553 1.409 . S
C1551 H1543 0.930 . S
C1551 C1552 1.355 . S
C1551 C1553 1.415 . S
C1552 C1551 1.355 . S
C1552 C1554 1.419 . S
C1553 C1548 1.425 . S
C1553 C1550 1.409 . S
C1553 C1551 1.415 . S
C1554 H1544 0.930 . S
C1554 C1552 1.419 . S
C1554 C1555 1.362 . S
C1555 H1545 0.930 . S
C1555 C1548 1.409 . S
C1555 C1554 1.362 . S
H1556 C1562 0.930 . S
H1557 C1565 0.930 . S
H1558 C1566 0.930 . S
H1559 C1567 0.930 . S
H1560 C1570 0.930 . S
H1561 C1571 0.930 . S
C1562 H1556 0.930 . S
C1562 C1563 1.355 . S
C1562 C1564 1.415 . S
C1563 C1562 1.355 . S
C1563 C1565 1.419 . S
C1564 C1562 1.415 . S
C1564 C1569 1.425 . S
C1564 C1571 1.409 . S
C1565 H1557 0.930 . S
C1565 C1563 1.419 . S
C1565 C1566 1.362 . S
C1566 H1558 0.930 . S
C1566 C1565 1.362 . S
C1566 C1569 1.409 . S
C1567 H1559 0.930 . S
C1567 C1568 1.355 . S
C1567 C1569 1.415 . S
C1568 C1567 1.355 . S
C1568 C1570 1.419 . S
C1569 C1564 1.425 . S
C1569 C1566 1.409 . S
C1569 C1567 1.415 . S
C1570 H1560 0.930 . S
C1570 C1568 1.419 . S
C1570 C1571 1.362 . S
C1571 H1561 0.930 . S
C1571 C1564 1.409 . S
C1571 C1570 1.362 . S
H1572 C1578 0.930 . S
H1573 C1581 0.930 . S
H1574 C1582 0.930 . S
H1575 C1583 0.930 . S
H1576 C1586 0.930 . S
H1577 C1587 0.930 . S
C1578 H1572 0.930 . S
C1578 C1579 1.355 . S
C1578 C1580 1.415 . S
C1579 C1578 1.355 . S
C1579 C1581 1.419 . S
C1580 C1578 1.415 . S
C1580 C1585 1.425 . S
C1580 C1587 1.409 . S
C1581 H1573 0.930 . S
C1581 C1579 1.419 . S
C1581 C1582 1.362 . S
C1582 H1574 0.930 . S
C1582 C1581 1.362 . S
C1582 C1585 1.409 . S
C1583 H1575 0.930 . S
C1583 C1584 1.355 . S
C1583 C1585 1.415 . S
C1584 C1583 1.355 . S
C1584 C1586 1.419 . S
C1585 C1580 1.425 . S
C1585 C1582 1.409 . S
C1585 C1583 1.415 . S
C1586 H1576 0.930 . S
C1586 C1584 1.419 . S
C1586 C1587 1.362 . S
C1587 H1577 0.930 . S
C1587 C1580 1.409 . S
C1587 C1586 1.362 . S
H1588 C1594 0.930 . S
H1589 C1597 0.930 . S
H1590 C1598 0.930 . S
H1591 C1599 0.930 . S
H1592 C1602 0.930 . S
H1593 C1603 0.930 . S
C1594 H1588 0.930 . S
C1594 C1595 1.355 . S
C1594 C1596 1.415 . S
C1595 C1594 1.355 . S
C1595 C1597 1.419 . S
C1596 C1594 1.415 . S
C1596 C1601 1.425 . S
C1596 C1603 1.409 . S
C1597 H1589 0.930 . S
C1597 C1595 1.419 . S
C1597 C1598 1.362 . S
C1598 H1590 0.930 . S
C1598 C1597 1.362 . S
C1598 C1601 1.409 . S
C1599 H1591 0.930 . S
C1599 C1600 1.355 . S
C1599 C1601 1.415 . S
C1600 C1599 1.355 . S
C1600 C1602 1.419 . S
C1601 C1596 1.425 . S
C1601 C1598 1.409 . S
C1601 C1599 1.415 . S
C1602 H1592 0.930 . S
C1602 C1600 1.419 . S
C1602 C1603 1.362 . S
C1603 H1593 0.930 . S
C1603 C1596 1.409 . S
C1603 C1602 1.362 . S
H1604 C1610 0.930 . S
H1605 C1613 0.930 . S
H1606 C1614 0.930 . S
H1607 C1615 0.930 . S
H1608 C1618 0.930 . S
H1609 C1619 0.930 . S
C1610 H1604 0.930 . S
C1610 C1611 1.355 . S
C1610 C1612 1.415 . S
C1611 C1610 1.355 . S
C1611 C1613 1.419 . S
C1612 C1610 1.415 . S
C1612 C1617 1.425 . S
C1612 C1619 1.409 . S
C1613 H1605 0.930 . S
C1613 C1611 1.419 . S
C1613 C1614 1.362 . S
C1614 H1606 0.930 . S
C1614 C1613 1.362 . S
C1614 C1617 1.409 . S
C1615 H1607 0.930 . S
C1615 C1616 1.355 . S
C1615 C1617 1.415 . S
C1616 C1615 1.355 . S
C1616 C1618 1.419 . S
C1617 C1612 1.425 . S
C1617 C1614 1.409 . S
C1617 C1615 1.415 . S
C1618 H1608 0.930 . S
C1618 C1616 1.419 . S
C1618 C1619 1.362 . S
C1619 H1609 0.930 . S
C1619 C1612 1.409 . S
C1619 C1618 1.362 . S
H1620 C1626 0.930 . S
H1621 C1629 0.930 . S
H1622 C1630 0.930 . S
H1623 C1631 0.930 . S
H1624 C1634 0.930 . S
H1625 C1635 0.930 . S
C1626 H1620 0.930 . S
C1626 C1627 1.355 . S
C1626 C1628 1.415 . S
C1627 C1626 1.355 . S
C1627 C1629 1.419 . S
C1628 C1626 1.415 . S
C1628 C1633 1.425 . S
C1628 C1635 1.409 . S
C1629 H1621 0.930 . S
C1629 C1627 1.419 . S
C1629 C1630 1.362 . S
C1630 H1622 0.930 . S
C1630 C1629 1.362 . S
C1630 C1633 1.409 . S
C1631 H1623 0.930 . S
C1631 C1632 1.355 . S
C1631 C1633 1.415 . S
C1632 C1631 1.355 . S
C1632 C1634 1.419 . S
C1633 C1628 1.425 . S
C1633 C1630 1.409 . S
C1633 C1631 1.415 . S
C1634 H1624 0.930 . S
C1634 C1632 1.419 . S
C1634 C1635 1.362 . S
C1635 H1625 0.930 . S
C1635 C1628 1.409 . S
C1635 C1634 1.362 . S
H1636 C1642 0.930 . S
H1637 C1645 0.930 . S
H1638 C1646 0.930 . S
H1639 C1647 0.930 . S
H1640 C1650 0.930 . S
H1641 C1651 0.930 . S
C1642 H1636 0.930 . S
C1642 C1643 1.355 . S
C1642 C1644 1.415 . S
C1643 C1642 1.355 . S
C1643 C1645 1.419 . S
C1644 C1642 1.415 . S
C1644 C1649 1.425 . S
C1644 C1651 1.409 . S
C1645 H1637 0.930 . S
C1645 C1643 1.419 . S
C1645 C1646 1.362 . S
C1646 H1638 0.930 . S
C1646 C1645 1.362 . S
C1646 C1649 1.409 . S
C1647 H1639 0.930 . S
C1647 C1648 1.355 . S
C1647 C1649 1.415 . S
C1648 C1647 1.355 . S
C1648 C1650 1.419 . S
C1649 C1644 1.425 . S
C1649 C1646 1.409 . S
C1649 C1647 1.415 . S
C1650 H1640 0.930 . S
C1650 C1648 1.419 . S
C1650 C1651 1.362 . S
C1651 H1641 0.930 . S
C1651 C1644 1.409 . S
C1651 C1650 1.362 . S
H1652 C1658 0.930 . S
H1653 C1661 0.930 . S
H1654 C1662 0.930 . S
H1655 C1663 0.930 . S
H1656 C1666 0.930 . S
H1657 C1667 0.930 . S
C1658 H1652 0.930 . S
C1658 C1659 1.355 . S
C1658 C1660 1.415 . S
C1659 C1658 1.355 . S
C1659 C1661 1.419 . S
C1660 C1658 1.415 . S
C1660 C1665 1.425 . S
C1660 C1667 1.409 . S
C1661 H1653 0.930 . S
C1661 C1659 1.419 . S
C1661 C1662 1.362 . S
C1662 H1654 0.930 . S
C1662 C1661 1.362 . S
C1662 C1665 1.409 . S
C1663 H1655 0.930 . S
C1663 C1664 1.355 . S
C1663 C1665 1.415 . S
C1664 C1663 1.355 . S
C1664 C1666 1.419 . S
C1665 C1660 1.425 . S
C1665 C1662 1.409 . S
C1665 C1663 1.415 . S
C1666 H1656 0.930 . S
C1666 C1664 1.419 . S
C1666 C1667 1.362 . S
C1667 H1657 0.930 . S
C1667 C1660 1.409 . S
C1667 C1666 1.362 . S
H1668 C1674 0.930 . S
H1669 C1677 0.930 . S
H1670 C1678 0.930 . S
H1671 C1679 0.930 . S
H1672 C1682 0.930 . S
H1673 C1683 0.930 . S
C1674 H1668 0.930 . S
C1674 C1675 1.355 1_554 S
C1674 C1676 1.415 . S
C1675 C1674 1.355 1_556 S
C1675 C1677 1.419 . S
C1676 C1674 1.415 . S
C1676 C1681 1.425 1_654 S
C1676 C1683 1.409 1_655 S
C1677 H1669 0.930 . S
C1677 C1675 1.419 . S
C1677 C1678 1.362 . S
C1678 H1670 0.930 . S
C1678 C1677 1.362 . S
C1678 C1681 1.409 1_655 S
C1679 H1671 0.930 . S
C1679 C1680 1.355 1_556 S
C1679 C1681 1.415 . S
C1680 C1679 1.355 1_554 S
C1680 C1682 1.419 . S
C1681 C1676 1.425 1_456 S
C1681 C1678 1.409 1_455 S
C1681 C1679 1.415 . S
C1682 H1672 0.930 . S
C1682 C1680 1.419 . S
C1682 C1683 1.362 . S
C1683 H1673 0.930 . S
C1683 C1676 1.409 1_455 S
C1683 C1682 1.362 . S
H1684 C1690 0.930 . S
H1685 C1693 0.930 . S
H1686 C1694 0.930 . S
H1687 C1695 0.930 . S
H1688 C1698 0.930 . S
H1689 C1699 0.930 . S
C1690 H1684 0.930 . S
C1690 C1691 1.355 . S
C1690 C1692 1.415 . S
C1691 C1690 1.355 . S
C1691 C1693 1.419 1_556 S
C1692 C1690 1.415 . S
C1692 C1697 1.425 1_556 S
C1692 C1699 1.409 . S
C1693 H1685 0.930 . S
C1693 C1691 1.419 1_554 S
C1693 C1694 1.362 . S
C1694 H1686 0.930 . S
C1694 C1693 1.362 . S
C1694 C1697 1.409 . S
C1695 H1687 0.930 . S
C1695 C1696 1.355 . S
C1695 C1697 1.415 . S
C1696 C1695 1.355 . S
C1696 C1698 1.419 1_554 S
C1697 C1692 1.425 1_554 S
C1697 C1694 1.409 . S
C1697 C1695 1.415 . S
C1698 H1688 0.930 . S
C1698 C1696 1.419 1_556 S
C1698 C1699 1.362 . S
C1699 H1689 0.930 . S
C1699 C1692 1.409 . S
C1699 C1698 1.362 . S
H1700 C1706 0.930 . S
H1701 C1709 0.930 . S
H1702 C1710 0.930 . S
H1703 C1711 0.930 . S
H1704 C1714 0.930 . S
H1705 C1715 0.930 . S
C1706 H1700 0.930 . S
C1706 C1707 1.355 . S
C1706 C1708 1.415 . S
C1707 C1706 1.355 . S
C1707 C1709 1.419 1_554 S
C1708 C1706 1.415 . S
C1708 C1713 1.425 1_564 S
C1708 C1715 1.409 1_565 S
C1709 H1701 0.930 . S
C1709 C1707 1.419 1_556 S
C1709 C1710 1.362 . S
C1710 H1702 0.930 . S
C1710 C1709 1.362 . S
C1710 C1713 1.409 1_565 S
C1711 H1703 0.930 . S
C1711 C1712 1.355 . S
C1711 C1713 1.415 . S
C1712 C1711 1.355 . S
C1712 C1714 1.419 1_556 S
C1713 C1708 1.425 1_546 S
C1713 C1710 1.409 1_545 S
C1713 C1711 1.415 . S
C1714 H1704 0.930 . S
C1714 C1712 1.419 1_554 S
C1714 C1715 1.362 . S
C1715 H1705 0.930 . S
C1715 C1708 1.409 1_545 S
C1715 C1714 1.362 . S
H1716 C1722 0.930 . S
H1717 C1725 0.930 . S
H1718 C1726 0.930 . S
H1719 C1727 0.930 . S
H1720 C1730 0.930 . S
H1721 C1731 0.930 . S
C1722 H1716 0.930 . S
C1722 C1723 1.355 . S
C1722 C1724 1.415 . S
C1723 C1722 1.355 . S
C1723 C1725 1.419 1_554 S
C1724 C1722 1.415 . S
C1724 C1729 1.425 1_564 S
C1724 C1731 1.409 1_565 S
C1725 H1717 0.930 . S
C1725 C1723 1.419 1_556 S
C1725 C1726 1.362 . S
C1726 H1718 0.930 . S
C1726 C1725 1.362 . S
C1726 C1729 1.409 1_565 S
C1727 H1719 0.930 . S
C1727 C1728 1.355 . S
C1727 C1729 1.415 . S
C1728 C1727 1.355 . S
C1728 C1730 1.419 1_556 S
C1729 C1724 1.425 1_546 S
C1729 C1726 1.409 1_545 S
C1729 C1727 1.415 . S
C1730 H1720 0.930 . S
C1730 C1728 1.419 1_554 S
C1730 C1731 1.362 . S
C1731 H1721 0.930 . S
C1731 C1724 1.409 1_545 S
C1731 C1730 1.362 . S
H1732 C1738 0.930 . S
H1733 C1741 0.930 . S
H1734 C1742 0.930 . S
H1735 C1743 0.930 . S
H1736 C1746 0.930 . S
H1737 C1747 0.930 . S
C1738 H1732 0.930 . S
C1738 C1739 1.355 1_554 S
C1738 C1740 1.415 . S
C1739 C1738 1.355 1_556 S
C1739 C1741 1.419 . S
C1740 C1738 1.415 . S
C1740 C1745 1.425 1_654 S
C1740 C1747 1.409 1_655 S
C1741 H1733 0.930 . S
C1741 C1739 1.419 . S
C1741 C1742 1.362 . S
C1742 H1734 0.930 . S
C1742 C1741 1.362 . S
C1742 C1745 1.409 1_655 S
C1743 H1735 0.930 . S
C1743 C1744 1.355 1_556 S
C1743 C1745 1.415 . S
C1744 C1743 1.355 1_554 S
C1744 C1746 1.419 . S
C1745 C1740 1.425 1_456 S
C1745 C1742 1.409 1_455 S
C1745 C1743 1.415 . S
C1746 H1736 0.930 . S
C1746 C1744 1.419 . S
C1746 C1747 1.362 . S
C1747 H1737 0.930 . S
C1747 C1740 1.409 1_455 S
C1747 C1746 1.362 . S
H1748 C1754 0.930 . S
H1749 C1757 0.930 . S
H1750 C1758 0.930 . S
H1751 C1759 0.930 . S
H1752 C1762 0.930 . S
H1753 C1763 0.930 . S
C1754 H1748 0.930 . S
C1754 C1755 1.355 . S
C1754 C1756 1.415 1_556 S
C1755 C1754 1.355 . S
C1755 C1757 1.419 . S
C1756 C1754 1.415 1_554 S
C1756 C1761 1.425 1_554 S
C1756 C1763 1.409 . S
C1757 H1749 0.930 . S
C1757 C1755 1.419 . S
C1757 C1758 1.362 . S
C1758 H1750 0.930 . S
C1758 C1757 1.362 . S
C1758 C1761 1.409 . S
C1759 H1751 0.930 . S
C1759 C1760 1.355 . S
C1759 C1761 1.415 1_554 S
C1760 C1759 1.355 . S
C1760 C1762 1.419 . S
C1761 C1756 1.425 1_556 S
C1761 C1758 1.409 . S
C1761 C1759 1.415 1_556 S
C1762 H1752 0.930 . S
C1762 C1760 1.419 . S
C1762 C1763 1.362 . S
C1763 H1753 0.930 . S
C1763 C1756 1.409 . S
C1763 C1762 1.362 . S
H1764 C1770 0.930 . S
H1765 C1773 0.930 . S
H1766 C1774 0.930 . S
H1767 C1775 0.930 . S
H1768 C1778 0.930 . S
H1769 C1779 0.930 . S
C1770 H1764 0.930 . S
C1770 C1771 1.355 . S
C1770 C1772 1.415 . S
C1771 C1770 1.355 . S
C1771 C1773 1.419 . S
C1772 C1770 1.415 . S
C1772 C1777 1.425 . S
C1772 C1779 1.409 . S
C1773 H1765 0.930 . S
C1773 C1771 1.419 . S
C1773 C1774 1.362 . S
C1774 H1766 0.930 . S
C1774 C1773 1.362 . S
C1774 C1777 1.409 . S
C1775 H1767 0.930 . S
C1775 C1776 1.355 . S
C1775 C1777 1.415 . S
C1776 C1775 1.355 . S
C1776 C1778 1.419 . S
C1777 C1772 1.425 . S
C1777 C1774 1.409 . S
C1777 C1775 1.415 . S
C1778 H1768 0.930 . S
C1778 C1776 1.419 . S
C1778 C1779 1.362 . S
C1779 H1769 0.930 . S
C1779 C1772 1.409 . S
C1779 C1778 1.362 . S
H1780 C1786 0.930 . S
H1781 C1789 0.930 . S
H1782 C1790 0.930 . S
H1783 C1791 0.930 . S
H1784 C1794 0.930 . S
H1785 C1795 0.930 . S
C1786 H1780 0.930 . S
C1786 C1787 1.355 . S
C1786 C1788 1.415 . S
C1787 C1786 1.355 . S
C1787 C1789 1.419 . S
C1788 C1786 1.415 . S
C1788 C1793 1.425 . S
C1788 C1795 1.409 . S
C1789 H1781 0.930 . S
C1789 C1787 1.419 . S
C1789 C1790 1.362 . S
C1790 H1782 0.930 . S
C1790 C1789 1.362 . S
C1790 C1793 1.409 . S
C1791 H1783 0.930 . S
C1791 C1792 1.355 . S
C1791 C1793 1.415 . S
C1792 C1791 1.355 . S
C1792 C1794 1.419 . S
C1793 C1788 1.425 . S
C1793 C1790 1.409 . S
C1793 C1791 1.415 . S
C1794 H1784 0.930 . S
C1794 C1792 1.419 . S
C1794 C1795 1.362 . S
C1795 H1785 0.930 . S
C1795 C1788 1.409 . S
C1795 C1794 1.362 . S
H1796 C1802 0.930 . S
H1797 C1805 0.930 . S
H1798 C1806 0.930 . S
H1799 C1807 0.930 . S
H1800 C1810 0.930 . S
H1801 C1811 0.930 . S
C1802 H1796 0.930 . S
C1802 C1803 1.355 . S
C1802 C1804 1.415 . S
C1803 C1802 1.355 . S
C1803 C1805 1.419 . S
C1804 C1802 1.415 . S
C1804 C1809 1.425 . S
C1804 C1811 1.409 . S
C1805 H1797 0.930 . S
C1805 C1803 1.419 . S
C1805 C1806 1.362 . S
C1806 H1798 0.930 . S
C1806 C1805 1.362 . S
C1806 C1809 1.409 . S
C1807 H1799 0.930 . S
C1807 C1808 1.355 . S
C1807 C1809 1.415 . S
C1808 C1807 1.355 . S
C1808 C1810 1.419 . S
C1809 C1804 1.425 . S
C1809 C1806 1.409 . S
C1809 C1807 1.415 . S
C1810 H1800 0.930 . S
C1810 C1808 1.419 . S
C1810 C1811 1.362 . S
C1811 H1801 0.930 . S
C1811 C1804 1.409 . S
C1811 C1810 1.362 . S
H1812 C1818 0.930 . S
H1813 C1821 0.930 . S
H1814 C1822 0.930 . S
H1815 C1823 0.930 . S
H1816 C1826 0.930 . S
H1817 C1827 0.930 . S
C1818 H1812 0.930 . S
C1818 C1819 1.355 . S
C1818 C1820 1.415 . S
C1819 C1818 1.355 . S
C1819 C1821 1.419 . S
C1820 C1818 1.415 . S
C1820 C1825 1.425 . S
C1820 C1827 1.409 . S
C1821 H1813 0.930 . S
C1821 C1819 1.419 . S
C1821 C1822 1.362 . S
C1822 H1814 0.930 . S
C1822 C1821 1.362 . S
C1822 C1825 1.409 . S
C1823 H1815 0.930 . S
C1823 C1824 1.355 . S
C1823 C1825 1.415 . S
C1824 C1823 1.355 . S
C1824 C1826 1.419 . S
C1825 C1820 1.425 . S
C1825 C1822 1.409 . S
C1825 C1823 1.415 . S
C1826 H1816 0.930 . S
C1826 C1824 1.419 . S
C1826 C1827 1.362 . S
C1827 H1817 0.930 . S
C1827 C1820 1.409 . S
C1827 C1826 1.362 . S
H1828 C1834 0.930 . S
H1829 C1837 0.930 . S
H1830 C1838 0.930 . S
H1831 C1839 0.930 . S
H1832 C1842 0.930 . S
H1833 C1843 0.930 . S
C1834 H1828 0.930 . S
C1834 C1835 1.355 . S
C1834 C1836 1.415 . S
C1835 C1834 1.355 . S
C1835 C1837 1.419 . S
C1836 C1834 1.415 . S
C1836 C1841 1.425 . S
C1836 C1843 1.409 . S
C1837 H1829 0.930 . S
C1837 C1835 1.419 . S
C1837 C1838 1.362 . S
C1838 H1830 0.930 . S
C1838 C1837 1.362 . S
C1838 C1841 1.409 . S
C1839 H1831 0.930 . S
C1839 C1840 1.355 . S
C1839 C1841 1.415 . S
C1840 C1839 1.355 . S
C1840 C1842 1.419 . S
C1841 C1836 1.425 . S
C1841 C1838 1.409 . S
C1841 C1839 1.415 . S
C1842 H1832 0.930 . S
C1842 C1840 1.419 . S
C1842 C1843 1.362 . S
C1843 H1833 0.930 . S
C1843 C1836 1.409 . S
C1843 C1842 1.362 . S
H1844 C1850 0.930 . S
H1845 C1853 0.930 . S
H1846 C1854 0.930 . S
H1847 C1855 0.930 . S
H1848 C1858 0.930 . S
H1849 C1859 0.930 . S
C1850 H1844 0.930 . S
C1850 C1851 1.355 . S
C1850 C1852 1.415 . S
C1851 C1850 1.355 . S
C1851 C1853 1.419 . S
C1852 C1850 1.415 . S
C1852 C1857 1.425 . S
C1852 C1859 1.409 . S
C1853 H1845 0.930 . S
C1853 C1851 1.419 . S
C1853 C1854 1.362 . S
C1854 H1846 0.930 . S
C1854 C1853 1.362 . S
C1854 C1857 1.409 . S
C1855 H1847 0.930 . S
C1855 C1856 1.355 . S
C1855 C1857 1.415 . S
C1856 C1855 1.355 . S
C1856 C1858 1.419 . S
C1857 C1852 1.425 . S
C1857 C1854 1.409 . S
C1857 C1855 1.415 . S
C1858 H1848 0.930 . S
C1858 C1856 1.419 . S
C1858 C1859 1.362 . S
C1859 H1849 0.930 . S
C1859 C1852 1.409 . S
C1859 C1858 1.362 . S
H1860 C1866 0.930 . S
H1861 C1869 0.930 . S
H1862 C1870 0.930 . S
H1863 C1871 0.930 . S
H1864 C1874 0.930 . S
H1865 C1875 0.930 . S
C1866 H1860 0.930 . S
C1866 C1867 1.355 . S
C1866 C1868 1.415 . S
C1867 C1866 1.355 . S
C1867 C1869 1.419 . S
C1868 C1866 1.415 . S
C1868 C1873 1.425 . S
C1868 C1875 1.409 . S
C1869 H1861 0.930 . S
C1869 C1867 1.419 . S
C1869 C1870 1.362 . S
C1870 H1862 0.930 . S
C1870 C1869 1.362 . S
C1870 C1873 1.409 . S
C1871 H1863 0.930 . S
C1871 C1872 1.355 . S
C1871 C1873 1.415 . S
C1872 C1871 1.355 . S
C1872 C1874 1.419 . S
C1873 C1868 1.425 . S
C1873 C1870 1.409 . S
C1873 C1871 1.415 . S
C1874 H1864 0.930 . S
C1874 C1872 1.419 . S
C1874 C1875 1.362 . S
C1875 H1865 0.930 . S
C1875 C1868 1.409 . S
C1875 C1874 1.362 . S
H1876 C1882 0.930 . S
H1877 C1885 0.930 . S
H1878 C1886 0.930 . S
H1879 C1887 0.930 . S
H1880 C1890 0.930 . S
H1881 C1891 0.930 . S
C1882 H1876 0.930 . S
C1882 C1883 1.355 . S
C1882 C1884 1.415 . S
C1883 C1882 1.355 . S
C1883 C1885 1.419 . S
C1884 C1882 1.415 . S
C1884 C1889 1.425 . S
C1884 C1891 1.409 . S
C1885 H1877 0.930 . S
C1885 C1883 1.419 . S
C1885 C1886 1.362 . S
C1886 H1878 0.930 . S
C1886 C1885 1.362 . S
C1886 C1889 1.409 . S
C1887 H1879 0.930 . S
C1887 C1888 1.355 . S
C1887 C1889 1.415 . S
C1888 C1887 1.355 . S
C1888 C1890 1.419 . S
C1889 C1884 1.425 . S
C1889 C1886 1.409 . S
C1889 C1887 1.415 . S
C1890 H1880 0.930 . S
C1890 C1888 1.419 . S
C1890 C1891 1.362 . S
C1891 H1881 0.930 . S
C1891 C1884 1.409 . S
C1891 C1890 1.362 . S
H1892 C1898 0.930 . S
H1893 C1901 0.930 . S
H1894 C1902 0.930 . S
H1895 C1903 0.930 . S
H1896 C1906 0.930 . S
H1897 C1907 0.930 . S
C1898 H1892 0.930 . S
C1898 C1899 1.355 . S
C1898 C1900 1.415 . S
C1899 C1898 1.355 . S
C1899 C1901 1.419 . S
C1900 C1898 1.415 . S
C1900 C1905 1.425 . S
C1900 C1907 1.409 . S
C1901 H1893 0.930 . S
C1901 C1899 1.419 . S
C1901 C1902 1.362 . S
C1902 H1894 0.930 . S
C1902 C1901 1.362 . S
C1902 C1905 1.409 . S
C1903 H1895 0.930 . S
C1903 C1904 1.355 . S
C1903 C1905 1.415 . S
C1904 C1903 1.355 . S
C1904 C1906 1.419 . S
C1905 C1900 1.425 . S
C1905 C1902 1.409 . S
C1905 C1903 1.415 . S
C1906 H1896 0.930 . S
C1906 C1904 1.419 . S
C1906 C1907 1.362 . S
C1907 H1897 0.930 . S
C1907 C1900 1.409 . S
C1907 C1906 1.362 . S
H1908 C1914 0.930 1_556 S
H1909 C1917 0.930 . S
H1910 C1918 0.930 . S
H1911 C1919 0.930 . S
H1912 C1922 0.930 1_556 S
H1913 C1923 0.930 . S
C1914 H1908 0.930 1_554 S
C1914 C1915 1.355 . S
C1914 C1916 1.415 . S
C1915 C1914 1.355 . S
C1915 C1917 1.419 . S
C1916 C1914 1.415 . S
C1916 C1921 1.425 . S
C1916 C1923 1.409 1_554 S
C1917 H1909 0.930 . S
C1917 C1915 1.419 . S
C1917 C1918 1.362 . S
C1918 H1910 0.930 . S
C1918 C1917 1.362 . S
C1918 C1921 1.409 . S
C1919 H1911 0.930 . S
C1919 C1920 1.355 . S
C1919 C1921 1.415 . S
C1920 C1919 1.355 . S
C1920 C1922 1.419 . S
C1921 C1916 1.425 . S
C1921 C1918 1.409 . S
C1921 C1919 1.415 . S
C1922 H1912 0.930 1_554 S
C1922 C1920 1.419 . S
C1922 C1923 1.362 1_554 S
C1923 H1913 0.930 . S
C1923 C1916 1.409 1_556 S
C1923 C1922 1.362 1_556 S
H1924 C1930 0.930 . S
H1925 C1933 0.930 1_556 S
H1926 C1934 0.930 1_556 S
H1927 C1935 0.930 . S
H1928 C1938 0.930 . S
H1929 C1939 0.930 . S
C1930 H1924 0.930 . S
C1930 C1931 1.355 . S
C1930 C1932 1.415 . S
C1931 C1930 1.355 . S
C1931 C1933 1.419 . S
C1932 C1930 1.415 . S
C1932 C1937 1.425 . S
C1932 C1939 1.409 . S
C1933 H1925 0.930 1_554 S
C1933 C1931 1.419 . S
C1933 C1934 1.362 . S
C1934 H1926 0.930 1_554 S
C1934 C1933 1.362 . S
C1934 C1937 1.409 . S
C1935 H1927 0.930 . S
C1935 C1936 1.355 . S
C1935 C1937 1.415 . S
C1936 C1935 1.355 . S
C1936 C1938 1.419 . S
C1937 C1932 1.425 . S
C1937 C1934 1.409 . S
C1937 C1935 1.415 . S
C1938 H1928 0.930 . S
C1938 C1936 1.419 . S
C1938 C1939 1.362 . S
C1939 H1929 0.930 . S
C1939 C1932 1.409 . S
C1939 C1938 1.362 . S
H1940 C1946 0.930 . S
H1941 C1949 0.930 1_556 S
H1942 C1950 0.930 1_556 S
H1943 C1951 0.930 . S
H1944 C1954 0.930 . S
H1945 C1955 0.930 . S
C1946 H1940 0.930 . S
C1946 C1947 1.355 . S
C1946 C1948 1.415 . S
C1947 C1946 1.355 . S
C1947 C1949 1.419 . S
C1948 C1946 1.415 . S
C1948 C1953 1.425 . S
C1948 C1955 1.409 . S
C1949 H1941 0.930 1_554 S
C1949 C1947 1.419 . S
C1949 C1950 1.362 . S
C1950 H1942 0.930 1_554 S
C1950 C1949 1.362 . S
C1950 C1953 1.409 . S
C1951 H1943 0.930 . S
C1951 C1952 1.355 . S
C1951 C1953 1.415 . S
C1952 C1951 1.355 . S
C1952 C1954 1.419 . S
C1953 C1948 1.425 . S
C1953 C1950 1.409 . S
C1953 C1951 1.415 . S
C1954 H1944 0.930 . S
C1954 C1952 1.419 . S
C1954 C1955 1.362 . S
C1955 H1945 0.930 . S
C1955 C1948 1.409 . S
C1955 C1954 1.362 . S
H1956 C1962 0.930 1_554 S
H1957 C1965 0.930 . S
H1958 C1966 0.930 . S
H1959 C1967 0.930 . S
H1960 C1970 0.930 1_554 S
H1961 C1971 0.930 . S
C1962 H1956 0.930 1_556 S
C1962 C1963 1.355 . S
C1962 C1964 1.415 . S
C1963 C1962 1.355 . S
C1963 C1965 1.419 . S
C1964 C1962 1.415 . S
C1964 C1969 1.425 . S
C1964 C1971 1.409 1_556 S
C1965 H1957 0.930 . S
C1965 C1963 1.419 . S
C1965 C1966 1.362 . S
C1966 H1958 0.930 . S
C1966 C1965 1.362 . S
C1966 C1969 1.409 . S
C1967 H1959 0.930 . S
C1967 C1968 1.355 . S
C1967 C1969 1.415 . S
C1968 C1967 1.355 . S
C1968 C1970 1.419 . S
C1969 C1964 1.425 . S
C1969 C1966 1.409 . S
C1969 C1967 1.415 . S
C1970 H1960 0.930 1_556 S
C1970 C1968 1.419 . S
C1970 C1971 1.362 1_556 S
C1971 H1961 0.930 . S
C1971 C1964 1.409 1_554 S
C1971 C1970 1.362 1_554 S
H1972 C1978 0.930 . S
H1973 C1981 0.930 . S
H1974 C1982 0.930 . S
H1975 C1983 0.930 . S
H1976 C1986 0.930 1_554 S
H1977 C1987 0.930 1_554 S
C1978 H1972 0.930 . S
C1978 C1979 1.355 . S
C1978 C1980 1.415 . S
C1979 C1978 1.355 . S
C1979 C1981 1.419 . S
C1980 C1978 1.415 . S
C1980 C1985 1.425 . S
C1980 C1987 1.409 . S
C1981 H1973 0.930 . S
C1981 C1979 1.419 . S
C1981 C1982 1.362 . S
C1982 H1974 0.930 . S
C1982 C1981 1.362 . S
C1982 C1985 1.409 . S
C1983 H1975 0.930 . S
C1983 C1984 1.355 . S
C1983 C1985 1.415 . S
C1984 C1983 1.355 . S
C1984 C1986 1.419 . S
C1985 C1980 1.425 . S
C1985 C1982 1.409 . S
C1985 C1983 1.415 . S
C1986 H1976 0.930 1_556 S
C1986 C1984 1.419 . S
C1986 C1987 1.362 . S
C1987 H1977 0.930 1_556 S
C1987 C1980 1.409 . S
C1987 C1986 1.362 . S
H1988 C1994 0.930 . S
H1989 C1997 0.930 . S
H1990 C1998 0.930 . S
H1991 C1999 0.930 . S
H1992 C2002 0.930 . S
H1993 C2003 0.930 . S
C1994 H1988 0.930 . S
C1994 C1995 1.355 . S
C1994 C1996 1.415 . S
C1995 C1994 1.355 . S
C1995 C1997 1.419 . S
C1996 C1994 1.415 . S
C1996 C2001 1.425 . S
C1996 C2003 1.409 . S
C1997 H1989 0.930 . S
C1997 C1995 1.419 . S
C1997 C1998 1.362 . S
C1998 H1990 0.930 . S
C1998 C1997 1.362 . S
C1998 C2001 1.409 . S
C1999 H1991 0.930 . S
C1999 C2000 1.355 . S
C1999 C2001 1.415 . S
C2000 C1999 1.355 . S
C2000 C2002 1.419 . S
C2001 C1996 1.425 . S
C2001 C1998 1.409 . S
C2001 C1999 1.415 . S
C2002 H1992 0.930 . S
C2002 C2000 1.419 . S
C2002 C2003 1.362 . S
C2003 H1993 0.930 . S
C2003 C1996 1.409 . S
C2003 C2002 1.362 . S
H2004 C2010 0.930 . S
H2005 C2013 0.930 . S
H2006 C2014 0.930 . S
H2007 C2015 0.930 . S
H2008 C2018 0.930 . S
H2009 C2019 0.930 . S
C2010 H2004 0.930 . S
C2010 C2011 1.355 . S
C2010 C2012 1.415 . S
C2011 C2010 1.355 . S
C2011 C2013 1.419 . S
C2012 C2010 1.415 . S
C2012 C2017 1.425 . S
C2012 C2019 1.409 . S
C2013 H2005 0.930 . S
C2013 C2011 1.419 . S
C2013 C2014 1.362 . S
C2014 H2006 0.930 . S
C2014 C2013 1.362 . S
C2014 C2017 1.409 . S
C2015 H2007 0.930 . S
C2015 C2016 1.355 . S
C2015 C2017 1.415 . S
C2016 C2015 1.355 . S
C2016 C2018 1.419 . S
C2017 C2012 1.425 . S
C2017 C2014 1.409 . S
C2017 C2015 1.415 . S
C2018 H2008 0.930 . S
C2018 C2016 1.419 . S
C2018 C2019 1.362 . S
C2019 H2009 0.930 . S
C2019 C2012 1.409 . S
C2019 C2018 1.362 . S
H2020 C2026 0.930 . S
H2021 C2029 0.930 . S
H2022 C2030 0.930 . S
H2023 C2031 0.930 . S
H2024 C2034 0.930 . S
H2025 C2035 0.930 . S
C2026 H2020 0.930 . S
C2026 C2027 1.355 . S
C2026 C2028 1.415 . S
C2027 C2026 1.355 . S
C2027 C2029 1.419 . S
C2028 C2026 1.415 . S
C2028 C2033 1.425 . S
C2028 C2035 1.409 . S
C2029 H2021 0.930 . S
C2029 C2027 1.419 . S
C2029 C2030 1.362 . S
C2030 H2022 0.930 . S
C2030 C2029 1.362 . S
C2030 C2033 1.409 . S
C2031 H2023 0.930 . S
C2031 C2032 1.355 . S
C2031 C2033 1.415 . S
C2032 C2031 1.355 . S
C2032 C2034 1.419 . S
C2033 C2028 1.425 . S
C2033 C2030 1.409 . S
C2033 C2031 1.415 . S
C2034 H2024 0.930 . S
C2034 C2032 1.419 . S
C2034 C2035 1.362 . S
C2035 H2025 0.930 . S
C2035 C2028 1.409 . S
C2035 C2034 1.362 . S
H2036 C2042 0.930 . S
H2037 C2045 0.930 . S
H2038 C2046 0.930 . S
H2039 C2047 0.930 . S
H2040 C2050 0.930 . S
H2041 C2051 0.930 . S
C2042 H2036 0.930 . S
C2042 C2043 1.355 . S
C2042 C2044 1.415 . S
C2043 C2042 1.355 . S
C2043 C2045 1.419 . S
C2044 C2042 1.415 . S
C2044 C2049 1.425 . S
C2044 C2051 1.409 . S
C2045 H2037 0.930 . S
C2045 C2043 1.419 . S
C2045 C2046 1.362 . S
C2046 H2038 0.930 . S
C2046 C2045 1.362 . S
C2046 C2049 1.409 . S
C2047 H2039 0.930 . S
C2047 C2048 1.355 . S
C2047 C2049 1.415 . S
C2048 C2047 1.355 . S
C2048 C2050 1.419 . S
C2049 C2044 1.425 . S
C2049 C2046 1.409 . S
C2049 C2047 1.415 . S
C2050 H2040 0.930 . S
C2050 C2048 1.419 . S
C2050 C2051 1.362 . S
C2051 H2041 0.930 . S
C2051 C2044 1.409 . S
C2051 C2050 1.362 . S
H2052 C2058 0.930 . S
H2053 C2061 0.930 . S
H2054 C2062 0.930 . S
H2055 C2063 0.930 . S
H2056 C2066 0.930 . S
H2057 C2067 0.930 . S
C2058 H2052 0.930 . S
C2058 C2059 1.355 . S
C2058 C2060 1.415 . S
C2059 C2058 1.355 . S
C2059 C2061 1.419 . S
C2060 C2058 1.415 . S
C2060 C2065 1.425 . S
C2060 C2067 1.409 . S
C2061 H2053 0.930 . S
C2061 C2059 1.419 . S
C2061 C2062 1.362 . S
C2062 H2054 0.930 . S
C2062 C2061 1.362 . S
C2062 C2065 1.409 . S
C2063 H2055 0.930 . S
C2063 C2064 1.355 . S
C2063 C2065 1.415 . S
C2064 C2063 1.355 . S
C2064 C2066 1.419 . S
C2065 C2060 1.425 . S
C2065 C2062 1.409 . S
C2065 C2063 1.415 . S
C2066 H2056 0.930 . S
C2066 C2064 1.419 . S
C2066 C2067 1.362 . S
C2067 H2057 0.930 . S
C2067 C2060 1.409 . S
C2067 C2066 1.362 . S
H2068 C2074 0.930 . S
H2069 C2077 0.930 . S
H2070 C2078 0.930 . S
H2071 C2079 0.930 . S
H2072 C2082 0.930 . S
H2073 C2083 0.930 . S
C2074 H2068 0.930 . S
C2074 C2075 1.355 . S
C2074 C2076 1.415 . S
C2075 C2074 1.355 . S
C2075 C2077 1.419 . S
C2076 C2074 1.415 . S
C2076 C2081 1.425 . S
C2076 C2083 1.409 . S
C2077 H2069 0.930 . S
C2077 C2075 1.419 . S
C2077 C2078 1.362 . S
C2078 H2070 0.930 . S
C2078 C2077 1.362 . S
C2078 C2081 1.409 . S
C2079 H2071 0.930 . S
C2079 C2080 1.355 . S
C2079 C2081 1.415 . S
C2080 C2079 1.355 . S
C2080 C2082 1.419 . S
C2081 C2076 1.425 . S
C2081 C2078 1.409 . S
C2081 C2079 1.415 . S
C2082 H2072 0.930 . S
C2082 C2080 1.419 . S
C2082 C2083 1.362 . S
C2083 H2073 0.930 . S
C2083 C2076 1.409 . S
C2083 C2082 1.362 . S
H2084 C2090 0.930 . S
H2085 C2093 0.930 . S
H2086 C2094 0.930 . S
H2087 C2095 0.930 . S
H2088 C2098 0.930 . S
H2089 C2099 0.930 . S
C2090 H2084 0.930 . S
C2090 C2091 1.355 . S
C2090 C2092 1.415 . S
C2091 C2090 1.355 . S
C2091 C2093 1.419 . S
C2092 C2090 1.415 . S
C2092 C2097 1.425 . S
C2092 C2099 1.409 . S
C2093 H2085 0.930 . S
C2093 C2091 1.419 . S
C2093 C2094 1.362 . S
C2094 H2086 0.930 . S
C2094 C2093 1.362 . S
C2094 C2097 1.409 . S
C2095 H2087 0.930 . S
C2095 C2096 1.355 . S
C2095 C2097 1.415 . S
C2096 C2095 1.355 . S
C2096 C2098 1.419 . S
C2097 C2092 1.425 . S
C2097 C2094 1.409 . S
C2097 C2095 1.415 . S
C2098 H2088 0.930 . S
C2098 C2096 1.419 . S
C2098 C2099 1.362 . S
C2099 H2089 0.930 . S
C2099 C2092 1.409 . S
C2099 C2098 1.362 . S
H2100 C2106 0.930 . S
H2101 C2109 0.930 . S
H2102 C2110 0.930 . S
H2103 C2111 0.930 . S
H2104 C2114 0.930 . S
H2105 C2115 0.930 . S
C2106 H2100 0.930 . S
C2106 C2107 1.355 . S
C2106 C2108 1.415 . S
C2107 C2106 1.355 . S
C2107 C2109 1.419 . S
C2108 C2106 1.415 . S
C2108 C2113 1.425 . S
C2108 C2115 1.409 . S
C2109 H2101 0.930 . S
C2109 C2107 1.419 . S
C2109 C2110 1.362 . S
C2110 H2102 0.930 . S
C2110 C2109 1.362 . S
C2110 C2113 1.409 . S
C2111 H2103 0.930 . S
C2111 C2112 1.355 . S
C2111 C2113 1.415 . S
C2112 C2111 1.355 . S
C2112 C2114 1.419 . S
C2113 C2108 1.425 . S
C2113 C2110 1.409 . S
C2113 C2111 1.415 . S
C2114 H2104 0.930 . S
C2114 C2112 1.419 . S
C2114 C2115 1.362 . S
C2115 H2105 0.930 . S
C2115 C2108 1.409 . S
C2115 C2114 1.362 . S
H2116 C2122 0.930 . S
H2117 C2125 0.930 . S
H2118 C2126 0.930 . S
H2119 C2127 0.930 . S
H2120 C2130 0.930 . S
H2121 C2131 0.930 . S
C2122 H2116 0.930 . S
C2122 C2123 1.355 . S
C2122 C2124 1.415 . S
C2123 C2122 1.355 . S
C2123 C2125 1.419 . S
C2124 C2122 1.415 . S
C2124 C2129 1.425 . S
C2124 C2131 1.409 . S
C2125 H2117 0.930 . S
C2125 C2123 1.419 . S
C2125 C2126 1.362 . S
C2126 H2118 0.930 . S
C2126 C2125 1.362 . S
C2126 C2129 1.409 . S
C2127 H2119 0.930 . S
C2127 C2128 1.355 . S
C2127 C2129 1.415 . S
C2128 C2127 1.355 . S
C2128 C2130 1.419 . S
C2129 C2124 1.425 . S
C2129 C2126 1.409 . S
C2129 C2127 1.415 . S
C2130 H2120 0.930 . S
C2130 C2128 1.419 . S
C2130 C2131 1.362 . S
C2131 H2121 0.930 . S
C2131 C2124 1.409 . S
C2131 C2130 1.362 . S
H2132 C2138 0.930 . S
H2133 C2141 0.930 . S
H2134 C2142 0.930 . S
H2135 C2143 0.930 . S
H2136 C2146 0.930 . S
H2137 C2147 0.930 . S
C2138 H2132 0.930 . S
C2138 C2139 1.355 . S
C2138 C2140 1.415 . S
C2139 C2138 1.355 . S
C2139 C2141 1.419 . S
C2140 C2138 1.415 . S
C2140 C2145 1.425 . S
C2140 C2147 1.409 . S
C2141 H2133 0.930 . S
C2141 C2139 1.419 . S
C2141 C2142 1.362 . S
C2142 H2134 0.930 . S
C2142 C2141 1.362 . S
C2142 C2145 1.409 . S
C2143 H2135 0.930 . S
C2143 C2144 1.355 . S
C2143 C2145 1.415 . S
C2144 C2143 1.355 . S
C2144 C2146 1.419 . S
C2145 C2140 1.425 . S
C2145 C2142 1.409 . S
C2145 C2143 1.415 . S
C2146 H2136 0.930 . S
C2146 C2144 1.419 . S
C2146 C2147 1.362 . S
C2147 H2137 0.930 . S
C2147 C2140 1.409 . S
C2147 C2146 1.362 . S
H2148 C2154 0.930 . S
H2149 C2157 0.930 . S
H2150 C2158 0.930 . S
H2151 C2159 0.930 . S
H2152 C2162 0.930 . S
H2153 C2163 0.930 . S
C2154 H2148 0.930 . S
C2154 C2155 1.355 . S
C2154 C2156 1.415 . S
C2155 C2154 1.355 . S
C2155 C2157 1.419 . S
C2156 C2154 1.415 . S
C2156 C2161 1.425 . S
C2156 C2163 1.409 . S
C2157 H2149 0.930 . S
C2157 C2155 1.419 . S
C2157 C2158 1.362 . S
C2158 H2150 0.930 . S
C2158 C2157 1.362 . S
C2158 C2161 1.409 . S
C2159 H2151 0.930 . S
C2159 C2160 1.355 . S
C2159 C2161 1.415 . S
C2160 C2159 1.355 . S
C2160 C2162 1.419 . S
C2161 C2156 1.425 . S
C2161 C2158 1.409 . S
C2161 C2159 1.415 . S
C2162 H2152 0.930 . S
C2162 C2160 1.419 . S
C2162 C2163 1.362 . S
C2163 H2153 0.930 . S
C2163 C2156 1.409 . S
C2163 C2162 1.362 . S
H2164 C2170 0.930 . S
H2165 C2173 0.930 . S
H2166 C2174 0.930 . S
H2167 C2175 0.930 . S
H2168 C2178 0.930 . S
H2169 C2179 0.930 . S
C2170 H2164 0.930 . S
C2170 C2171 1.355 . S
C2170 C2172 1.415 . S
C2171 C2170 1.355 . S
C2171 C2173 1.419 . S
C2172 C2170 1.415 . S
C2172 C2177 1.425 . S
C2172 C2179 1.409 . S
C2173 H2165 0.930 . S
C2173 C2171 1.419 . S
C2173 C2174 1.362 . S
C2174 H2166 0.930 . S
C2174 C2173 1.362 . S
C2174 C2177 1.409 . S
C2175 H2167 0.930 . S
C2175 C2176 1.355 . S
C2175 C2177 1.415 . S
C2176 C2175 1.355 . S
C2176 C2178 1.419 . S
C2177 C2172 1.425 . S
C2177 C2174 1.409 . S
C2177 C2175 1.415 . S
C2178 H2168 0.930 . S
C2178 C2176 1.419 . S
C2178 C2179 1.362 . S
C2179 H2169 0.930 . S
C2179 C2172 1.409 . S
C2179 C2178 1.362 . S
H2180 C2186 0.930 . S
H2181 C2189 0.930 . S
H2182 C2190 0.930 . S
H2183 C2191 0.930 . S
H2184 C2194 0.930 . S
H2185 C2195 0.930 . S
C2186 H2180 0.930 . S
C2186 C2187 1.355 . S
C2186 C2188 1.415 . S
C2187 C2186 1.355 . S
C2187 C2189 1.419 . S
C2188 C2186 1.415 . S
C2188 C2193 1.425 . S
C2188 C2195 1.409 . S
C2189 H2181 0.930 . S
C2189 C2187 1.419 . S
C2189 C2190 1.362 . S
C2190 H2182 0.930 . S
C2190 C2189 1.362 . S
C2190 C2193 1.409 . S
C2191 H2183 0.930 . S
C2191 C2192 1.355 . S
C2191 C2193 1.415 . S
C2192 C2191 1.355 . S
C2192 C2194 1.419 . S
C2193 C2188 1.425 . S
C2193 C2190 1.409 . S
C2193 C2191 1.415 . S
C2194 H2184 0.930 . S
C2194 C2192 1.419 . S
C2194 C2195 1.362 . S
C2195 H2185 0.930 . S
C2195 C2188 1.409 . S
C2195 C2194 1.362 . S
H2196 C2202 0.930 . S
H2197 C2205 0.930 . S
H2198 C2206 0.930 . S
H2199 C2207 0.930 . S
H2200 C2210 0.930 . S
H2201 C2211 0.930 . S
C2202 H2196 0.930 . S
C2202 C2203 1.355 . S
C2202 C2204 1.415 . S
C2203 C2202 1.355 . S
C2203 C2205 1.419 . S
C2204 C2202 1.415 . S
C2204 C2209 1.425 . S
C2204 C2211 1.409 . S
C2205 H2197 0.930 . S
C2205 C2203 1.419 . S
C2205 C2206 1.362 . S
C2206 H2198 0.930 . S
C2206 C2205 1.362 . S
C2206 C2209 1.409 . S
C2207 H2199 0.930 . S
C2207 C2208 1.355 . S
C2207 C2209 1.415 . S
C2208 C2207 1.355 . S
C2208 C2210 1.419 . S
C2209 C2204 1.425 . S
C2209 C2206 1.409 . S
C2209 C2207 1.415 . S
C2210 H2200 0.930 . S
C2210 C2208 1.419 . S
C2210 C2211 1.362 . S
C2211 H2201 0.930 . S
C2211 C2204 1.409 . S
C2211 C2210 1.362 . S
H2212 C2218 0.930 . S
H2213 C2221 0.930 . S
H2214 C2222 0.930 . S
H2215 C2223 0.930 . S
H2216 C2226 0.930 . S
H2217 C2227 0.930 . S
C2218 H2212 0.930 . S
C2218 C2219 1.355 . S
C2218 C2220 1.415 . S
C2219 C2218 1.355 . S
C2219 C2221 1.419 . S
C2220 C2218 1.415 . S
C2220 C2225 1.425 . S
C2220 C2227 1.409 . S
C2221 H2213 0.930 . S
C2221 C2219 1.419 . S
C2221 C2222 1.362 . S
C2222 H2214 0.930 . S
C2222 C2221 1.362 . S
C2222 C2225 1.409 . S
C2223 H2215 0.930 . S
C2223 C2224 1.355 . S
C2223 C2225 1.415 . S
C2224 C2223 1.355 . S
C2224 C2226 1.419 . S
C2225 C2220 1.425 . S
C2225 C2222 1.409 . S
C2225 C2223 1.415 . S
C2226 H2216 0.930 . S
C2226 C2224 1.419 . S
C2226 C2227 1.362 . S
C2227 H2217 0.930 . S
C2227 C2220 1.409 . S
C2227 C2226 1.362 . S
H2228 C2234 0.930 . S
H2229 C2237 0.930 . S
H2230 C2238 0.930 . S
H2231 C2239 0.930 . S
H2232 C2242 0.930 . S
H2233 C2243 0.930 . S
C2234 H2228 0.930 . S
C2234 C2235 1.355 . S
C2234 C2236 1.415 . S
C2235 C2234 1.355 . S
C2235 C2237 1.419 . S
C2236 C2234 1.415 . S
C2236 C2241 1.425 . S
C2236 C2243 1.409 . S
C2237 H2229 0.930 . S
C2237 C2235 1.419 . S
C2237 C2238 1.362 . S
C2238 H2230 0.930 . S
C2238 C2237 1.362 . S
C2238 C2241 1.409 . S
C2239 H2231 0.930 . S
C2239 C2240 1.355 . S
C2239 C2241 1.415 . S
C2240 C2239 1.355 . S
C2240 C2242 1.419 . S
C2241 C2236 1.425 . S
C2241 C2238 1.409 . S
C2241 C2239 1.415 . S
C2242 H2232 0.930 . S
C2242 C2240 1.419 . S
C2242 C2243 1.362 . S
C2243 H2233 0.930 . S
C2243 C2236 1.409 . S
C2243 C2242 1.362 . S
H2244 C2250 0.930 . S
H2245 C2253 0.930 . S
H2246 C2254 0.930 . S
H2247 C2255 0.930 . S
H2248 C2258 0.930 . S
H2249 C2259 0.930 . S
C2250 H2244 0.930 . S
C2250 C2251 1.355 . S
C2250 C2252 1.415 1_556 S
C2251 C2250 1.355 . S
C2251 C2253 1.419 . S
C2252 C2250 1.415 1_554 S
C2252 C2257 1.425 . S
C2252 C2259 1.409 . S
C2253 H2245 0.930 . S
C2253 C2251 1.419 . S
C2253 C2254 1.362 1_556 S
C2254 H2246 0.930 . S
C2254 C2253 1.362 1_554 S
C2254 C2257 1.409 . S
C2255 H2247 0.930 . S
C2255 C2256 1.355 . S
C2255 C2257 1.415 . S
C2256 C2255 1.355 . S
C2256 C2258 1.419 . S
C2257 C2252 1.425 . S
C2257 C2254 1.409 . S
C2257 C2255 1.415 . S
C2258 H2248 0.930 . S
C2258 C2256 1.419 . S
C2258 C2259 1.362 . S
C2259 H2249 0.930 . S
C2259 C2252 1.409 . S
C2259 C2258 1.362 . S
H2260 C2266 0.930 . S
H2261 C2269 0.930 . S
H2262 C2270 0.930 . S
H2263 C2271 0.930 . S
H2264 C2274 0.930 . S
H2265 C2275 0.930 . S
C2266 H2260 0.930 . S
C2266 C2267 1.355 . S
C2266 C2268 1.415 1_556 S
C2267 C2266 1.355 . S
C2267 C2269 1.419 . S
C2268 C2266 1.415 1_554 S
C2268 C2273 1.425 . S
C2268 C2275 1.409 . S
C2269 H2261 0.930 . S
C2269 C2267 1.419 . S
C2269 C2270 1.362 1_556 S
C2270 H2262 0.930 . S
C2270 C2269 1.362 1_554 S
C2270 C2273 1.409 . S
C2271 H2263 0.930 . S
C2271 C2272 1.355 . S
C2271 C2273 1.415 . S
C2272 C2271 1.355 . S
C2272 C2274 1.419 . S
C2273 C2268 1.425 . S
C2273 C2270 1.409 . S
C2273 C2271 1.415 . S
C2274 H2264 0.930 . S
C2274 C2272 1.419 . S
C2274 C2275 1.362 . S
C2275 H2265 0.930 . S
C2275 C2268 1.409 . S
C2275 C2274 1.362 . S
H2276 C2282 0.930 . S
H2277 C2285 0.930 . S
H2278 C2286 0.930 . S
H2279 C2287 0.930 . S
H2280 C2290 0.930 . S
H2281 C2291 0.930 . S
C2282 H2276 0.930 . S
C2282 C2283 1.355 . S
C2282 C2284 1.415 1_556 S
C2283 C2282 1.355 . S
C2283 C2285 1.419 . S
C2284 C2282 1.415 1_554 S
C2284 C2289 1.425 . S
C2284 C2291 1.409 . S
C2285 H2277 0.930 . S
C2285 C2283 1.419 . S
C2285 C2286 1.362 1_556 S
C2286 H2278 0.930 . S
C2286 C2285 1.362 1_554 S
C2286 C2289 1.409 . S
C2287 H2279 0.930 . S
C2287 C2288 1.355 . S
C2287 C2289 1.415 . S
C2288 C2287 1.355 . S
C2288 C2290 1.419 . S
C2289 C2284 1.425 . S
C2289 C2286 1.409 . S
C2289 C2287 1.415 . S
C2290 H2280 0.930 . S
C2290 C2288 1.419 . S
C2290 C2291 1.362 . S
C2291 H2281 0.930 . S
C2291 C2284 1.409 . S
C2291 C2290 1.362 . S
H2292 C2298 0.930 . S
H2293 C2301 0.930 . S
H2294 C2302 0.930 . S
H2295 C2303 0.930 . S
H2296 C2306 0.930 . S
H2297 C2307 0.930 . S
C2298 H2292 0.930 . S
C2298 C2299 1.355 . S
C2298 C2300 1.415 . S
C2299 C2298 1.355 . S
C2299 C2301 1.419 . S
C2300 C2298 1.415 . S
C2300 C2305 1.425 . S
C2300 C2307 1.409 . S
C2301 H2293 0.930 . S
C2301 C2299 1.419 . S
C2301 C2302 1.362 . S
C2302 H2294 0.930 . S
C2302 C2301 1.362 . S
C2302 C2305 1.409 . S
C2303 H2295 0.930 . S
C2303 C2304 1.355 . S
C2303 C2305 1.415 . S
C2304 C2303 1.355 . S
C2304 C2306 1.419 . S
C2305 C2300 1.425 . S
C2305 C2302 1.409 . S
C2305 C2303 1.415 . S
C2306 H2296 0.930 . S
C2306 C2304 1.419 . S
C2306 C2307 1.362 . S
C2307 H2297 0.930 . S
C2307 C2300 1.409 . S
C2307 C2306 1.362 . S
H2308 C2314 0.930 . S
H2309 C2317 0.930 . S
H2310 C2318 0.930 . S
H2311 C2319 0.930 . S
H2312 C2322 0.930 . S
H2313 C2323 0.930 . S
C2314 H2308 0.930 . S
C2314 C2315 1.355 . S
C2314 C2316 1.415 . S
C2315 C2314 1.355 . S
C2315 C2317 1.419 . S
C2316 C2314 1.415 . S
C2316 C2321 1.425 . S
C2316 C2323 1.409 . S
C2317 H2309 0.930 . S
C2317 C2315 1.419 . S
C2317 C2318 1.362 . S
C2318 H2310 0.930 . S
C2318 C2317 1.362 . S
C2318 C2321 1.409 . S
C2319 H2311 0.930 . S
C2319 C2320 1.355 . S
C2319 C2321 1.415 . S
C2320 C2319 1.355 . S
C2320 C2322 1.419 . S
C2321 C2316 1.425 . S
C2321 C2318 1.409 . S
C2321 C2319 1.415 . S
C2322 H2312 0.930 . S
C2322 C2320 1.419 . S
C2322 C2323 1.362 . S
C2323 H2313 0.930 . S
C2323 C2316 1.409 . S
C2323 C2322 1.362 . S
H2324 C2330 0.930 . S
H2325 C2333 0.930 . S
H2326 C2334 0.930 . S
H2327 C2335 0.930 . S
H2328 C2338 0.930 . S
H2329 C2339 0.930 . S
C2330 H2324 0.930 . S
C2330 C2331 1.355 . S
C2330 C2332 1.415 . S
C2331 C2330 1.355 . S
C2331 C2333 1.419 . S
C2332 C2330 1.415 . S
C2332 C2337 1.425 . S
C2332 C2339 1.409 . S
C2333 H2325 0.930 . S
C2333 C2331 1.419 . S
C2333 C2334 1.362 . S
C2334 H2326 0.930 . S
C2334 C2333 1.362 . S
C2334 C2337 1.409 . S
C2335 H2327 0.930 . S
C2335 C2336 1.355 . S
C2335 C2337 1.415 . S
C2336 C2335 1.355 . S
C2336 C2338 1.419 . S
C2337 C2332 1.425 . S
C2337 C2334 1.409 . S
C2337 C2335 1.415 . S
C2338 H2328 0.930 . S
C2338 C2336 1.419 . S
C2338 C2339 1.362 . S
C2339 H2329 0.930 . S
C2339 C2332 1.409 . S
C2339 C2338 1.362 . S
H2340 C2346 0.930 . S
H2341 C2349 0.930 . S
H2342 C2350 0.930 . S
H2343 C2351 0.930 . S
H2344 C2354 0.930 . S
H2345 C2355 0.930 . S
C2346 H2340 0.930 . S
C2346 C2347 1.355 . S
C2346 C2348 1.415 . S
C2347 C2346 1.355 . S
C2347 C2349 1.419 . S
C2348 C2346 1.415 . S
C2348 C2353 1.425 . S
C2348 C2355 1.409 . S
C2349 H2341 0.930 . S
C2349 C2347 1.419 . S
C2349 C2350 1.362 . S
C2350 H2342 0.930 . S
C2350 C2349 1.362 . S
C2350 C2353 1.409 . S
C2351 H2343 0.930 . S
C2351 C2352 1.355 . S
C2351 C2353 1.415 . S
C2352 C2351 1.355 . S
C2352 C2354 1.419 . S
C2353 C2348 1.425 . S
C2353 C2350 1.409 . S
C2353 C2351 1.415 . S
C2354 H2344 0.930 . S
C2354 C2352 1.419 . S
C2354 C2355 1.362 . S
C2355 H2345 0.930 . S
C2355 C2348 1.409 . S
C2355 C2354 1.362 . S
H2356 C2362 0.930 . S
H2357 C2365 0.930 . S
H2358 C2366 0.930 . S
H2359 C2367 0.930 . S
H2360 C2370 0.930 . S
H2361 C2371 0.930 . S
C2362 H2356 0.930 . S
C2362 C2363 1.355 . S
C2362 C2364 1.415 . S
C2363 C2362 1.355 . S
C2363 C2365 1.419 . S
C2364 C2362 1.415 . S
C2364 C2369 1.425 . S
C2364 C2371 1.409 . S
C2365 H2357 0.930 . S
C2365 C2363 1.419 . S
C2365 C2366 1.362 . S
C2366 H2358 0.930 . S
C2366 C2365 1.362 . S
C2366 C2369 1.409 . S
C2367 H2359 0.930 . S
C2367 C2368 1.355 . S
C2367 C2369 1.415 . S
C2368 C2367 1.355 . S
C2368 C2370 1.419 . S
C2369 C2364 1.425 . S
C2369 C2366 1.409 . S
C2369 C2367 1.415 . S
C2370 H2360 0.930 . S
C2370 C2368 1.419 . S
C2370 C2371 1.362 . S
C2371 H2361 0.930 . S
C2371 C2364 1.409 . S
C2371 C2370 1.362 . S
H2372 C2378 0.930 . S
H2373 C2381 0.930 . S
H2374 C2382 0.930 . S
H2375 C2383 0.930 . S
H2376 C2386 0.930 . S
H2377 C2387 0.930 . S
C2378 H2372 0.930 . S
C2378 C2379 1.355 . S
C2378 C2380 1.415 . S
C2379 C2378 1.355 . S
C2379 C2381 1.419 . S
C2380 C2378 1.415 . S
C2380 C2385 1.425 . S
C2380 C2387 1.409 . S
C2381 H2373 0.930 . S
C2381 C2379 1.419 . S
C2381 C2382 1.362 . S
C2382 H2374 0.930 . S
C2382 C2381 1.362 . S
C2382 C2385 1.409 . S
C2383 H2375 0.930 . S
C2383 C2384 1.355 . S
C2383 C2385 1.415 . S
C2384 C2383 1.355 . S
C2384 C2386 1.419 . S
C2385 C2380 1.425 . S
C2385 C2382 1.409 . S
C2385 C2383 1.415 . S
C2386 H2376 0.930 . S
C2386 C2384 1.419 . S
C2386 C2387 1.362 . S
C2387 H2377 0.930 . S
C2387 C2380 1.409 . S
C2387 C2386 1.362 . S
H2388 C2394 0.930 . S
H2389 C2397 0.930 . S
H2390 C2398 0.930 . S
H2391 C2399 0.930 . S
H2392 C2402 0.930 . S
H2393 C2403 0.930 . S
C2394 H2388 0.930 . S
C2394 C2395 1.355 . S
C2394 C2396 1.415 . S
C2395 C2394 1.355 . S
C2395 C2397 1.419 . S
C2396 C2394 1.415 . S
C2396 C2401 1.425 . S
C2396 C2403 1.409 . S
C2397 H2389 0.930 . S
C2397 C2395 1.419 . S
C2397 C2398 1.362 . S
C2398 H2390 0.930 . S
C2398 C2397 1.362 . S
C2398 C2401 1.409 . S
C2399 H2391 0.930 . S
C2399 C2400 1.355 . S
C2399 C2401 1.415 1_556 S
C2400 C2399 1.355 . S
C2400 C2402 1.419 . S
C2401 C2396 1.425 . S
C2401 C2398 1.409 . S
C2401 C2399 1.415 1_554 S
C2402 H2392 0.930 . S
C2402 C2400 1.419 . S
C2402 C2403 1.362 1_556 S
C2403 H2393 0.930 . S
C2403 C2396 1.409 . S
C2403 C2402 1.362 1_554 S
H2404 C2410 0.930 . S
H2405 C2413 0.930 . S
H2406 C2414 0.930 . S
H2407 C2415 0.930 . S
H2408 C2418 0.930 . S
H2409 C2419 0.930 . S
C2410 H2404 0.930 . S
C2410 C2411 1.355 . S
C2410 C2412 1.415 1_556 S
C2411 C2410 1.355 . S
C2411 C2413 1.419 . S
C2412 C2410 1.415 1_554 S
C2412 C2417 1.425 . S
C2412 C2419 1.409 . S
C2413 H2405 0.930 . S
C2413 C2411 1.419 . S
C2413 C2414 1.362 1_556 S
C2414 H2406 0.930 . S
C2414 C2413 1.362 1_554 S
C2414 C2417 1.409 . S
C2415 H2407 0.930 . S
C2415 C2416 1.355 . S
C2415 C2417 1.415 . S
C2416 C2415 1.355 . S
C2416 C2418 1.419 . S
C2417 C2412 1.425 . S
C2417 C2414 1.409 . S
C2417 C2415 1.415 . S
C2418 H2408 0.930 . S
C2418 C2416 1.419 . S
C2418 C2419 1.362 . S
C2419 H2409 0.930 . S
C2419 C2412 1.409 . S
C2419 C2418 1.362 . S
H2420 C2426 0.930 . S
H2421 C2429 0.930 . S
H2422 C2430 0.930 . S
H2423 C2431 0.930 . S
H2424 C2434 0.930 . S
H2425 C2435 0.930 . S
C2426 H2420 0.930 . S
C2426 C2427 1.355 . S
C2426 C2428 1.415 1_556 S
C2427 C2426 1.355 . S
C2427 C2429 1.419 . S
C2428 C2426 1.415 1_554 S
C2428 C2433 1.425 . S
C2428 C2435 1.409 . S
C2429 H2421 0.930 . S
C2429 C2427 1.419 . S
C2429 C2430 1.362 1_556 S
C2430 H2422 0.930 . S
C2430 C2429 1.362 1_554 S
C2430 C2433 1.409 . S
C2431 H2423 0.930 . S
C2431 C2432 1.355 . S
C2431 C2433 1.415 . S
C2432 C2431 1.355 . S
C2432 C2434 1.419 . S
C2433 C2428 1.425 . S
C2433 C2430 1.409 . S
C2433 C2431 1.415 . S
C2434 H2424 0.930 . S
C2434 C2432 1.419 . S
C2434 C2435 1.362 . S
C2435 H2425 0.930 . S
C2435 C2428 1.409 . S
C2435 C2434 1.362 . S
H2436 C2442 0.930 . S
H2437 C2445 0.930 . S
H2438 C2446 0.930 . S
H2439 C2447 0.930 . S
H2440 C2450 0.930 . S
H2441 C2451 0.930 . S
C2442 H2436 0.930 . S
C2442 C2443 1.355 . S
C2442 C2444 1.415 . S
C2443 C2442 1.355 . S
C2443 C2445 1.419 . S
C2444 C2442 1.415 . S
C2444 C2449 1.425 . S
C2444 C2451 1.409 . S
C2445 H2437 0.930 . S
C2445 C2443 1.419 . S
C2445 C2446 1.362 . S
C2446 H2438 0.930 . S
C2446 C2445 1.362 . S
C2446 C2449 1.409 . S
C2447 H2439 0.930 . S
C2447 C2448 1.355 . S
C2447 C2449 1.415 . S
C2448 C2447 1.355 . S
C2448 C2450 1.419 . S
C2449 C2444 1.425 . S
C2449 C2446 1.409 . S
C2449 C2447 1.415 . S
C2450 H2440 0.930 . S
C2450 C2448 1.419 . S
C2450 C2451 1.362 . S
C2451 H2441 0.930 . S
C2451 C2444 1.409 . S
C2451 C2450 1.362 . S
H2452 C2458 0.930 . S
H2453 C2461 0.930 . S
H2454 C2462 0.930 . S
H2455 C2463 0.930 . S
H2456 C2466 0.930 . S
H2457 C2467 0.930 . S
C2458 H2452 0.930 . S
C2458 C2459 1.355 . S
C2458 C2460 1.415 . S
C2459 C2458 1.355 . S
C2459 C2461 1.419 . S
C2460 C2458 1.415 . S
C2460 C2465 1.425 . S
C2460 C2467 1.409 . S
C2461 H2453 0.930 . S
C2461 C2459 1.419 . S
C2461 C2462 1.362 . S
C2462 H2454 0.930 . S
C2462 C2461 1.362 . S
C2462 C2465 1.409 . S
C2463 H2455 0.930 . S
C2463 C2464 1.355 . S
C2463 C2465 1.415 . S
C2464 C2463 1.355 . S
C2464 C2466 1.419 . S
C2465 C2460 1.425 . S
C2465 C2462 1.409 . S
C2465 C2463 1.415 . S
C2466 H2456 0.930 . S
C2466 C2464 1.419 . S
C2466 C2467 1.362 . S
C2467 H2457 0.930 . S
C2467 C2460 1.409 . S
C2467 C2466 1.362 . S
H2468 C2474 0.930 . S
H2469 C2477 0.930 . S
H2470 C2478 0.930 . S
H2471 C2479 0.930 . S
H2472 C2482 0.930 . S
H2473 C2483 0.930 . S
C2474 H2468 0.930 . S
C2474 C2475 1.355 . S
C2474 C2476 1.415 . S
C2475 C2474 1.355 . S
C2475 C2477 1.419 . S
C2476 C2474 1.415 . S
C2476 C2481 1.425 . S
C2476 C2483 1.409 . S
C2477 H2469 0.930 . S
C2477 C2475 1.419 . S
C2477 C2478 1.362 . S
C2478 H2470 0.930 . S
C2478 C2477 1.362 . S
C2478 C2481 1.409 . S
C2479 H2471 0.930 . S
C2479 C2480 1.355 . S
C2479 C2481 1.415 . S
C2480 C2479 1.355 . S
C2480 C2482 1.419 . S
C2481 C2476 1.425 . S
C2481 C2478 1.409 . S
C2481 C2479 1.415 . S
C2482 H2472 0.930 . S
C2482 C2480 1.419 . S
C2482 C2483 1.362 . S
C2483 H2473 0.930 . S
C2483 C2476 1.409 . S
C2483 C2482 1.362 . S
H2484 C2490 0.930 . S
H2485 C2493 0.930 . S
H2486 C2494 0.930 . S
H2487 C2495 0.930 . S
H2488 C2498 0.930 . S
H2489 C2499 0.930 . S
C2490 H2484 0.930 . S
C2490 C2491 1.355 . S
C2490 C2492 1.415 1_554 S
C2491 C2490 1.355 . S
C2491 C2493 1.419 . S
C2492 C2490 1.415 1_556 S
C2492 C2497 1.425 . S
C2492 C2499 1.409 . S
C2493 H2485 0.930 . S
C2493 C2491 1.419 . S
C2493 C2494 1.362 1_554 S
C2494 H2486 0.930 . S
C2494 C2493 1.362 1_556 S
C2494 C2497 1.409 . S
C2495 H2487 0.930 . S
C2495 C2496 1.355 . S
C2495 C2497 1.415 . S
C2496 C2495 1.355 . S
C2496 C2498 1.419 . S
C2497 C2492 1.425 . S
C2497 C2494 1.409 . S
C2497 C2495 1.415 . S
C2498 H2488 0.930 . S
C2498 C2496 1.419 . S
C2498 C2499 1.362 . S
C2499 H2489 0.930 . S
C2499 C2492 1.409 . S
C2499 C2498 1.362 . S
H2500 C2506 0.930 . S
H2501 C2509 0.930 . S
H2502 C2510 0.930 . S
H2503 C2511 0.930 . S
H2504 C2514 0.930 . S
H2505 C2515 0.930 . S
C2506 H2500 0.930 . S
C2506 C2507 1.355 . S
C2506 C2508 1.415 . S
C2507 C2506 1.355 . S
C2507 C2509 1.419 . S
C2508 C2506 1.415 . S
C2508 C2513 1.425 . S
C2508 C2515 1.409 . S
C2509 H2501 0.930 . S
C2509 C2507 1.419 . S
C2509 C2510 1.362 . S
C2510 H2502 0.930 . S
C2510 C2509 1.362 . S
C2510 C2513 1.409 . S
C2511 H2503 0.930 . S
C2511 C2512 1.355 . S
C2511 C2513 1.415 1_554 S
C2512 C2511 1.355 . S
C2512 C2514 1.419 . S
C2513 C2508 1.425 . S
C2513 C2510 1.409 . S
C2513 C2511 1.415 1_556 S
C2514 H2504 0.930 . S
C2514 C2512 1.419 . S
C2514 C2515 1.362 1_554 S
C2515 H2505 0.930 . S
C2515 C2508 1.409 . S
C2515 C2514 1.362 1_556 S
H2516 C2522 0.930 . S
H2517 C2525 0.930 . S
H2518 C2526 0.930 . S
H2519 C2527 0.930 . S
H2520 C2530 0.930 . S
H2521 C2531 0.930 . S
C2522 H2516 0.930 . S
C2522 C2523 1.355 . S
C2522 C2524 1.415 1_554 S
C2523 C2522 1.355 . S
C2523 C2525 1.419 . S
C2524 C2522 1.415 1_556 S
C2524 C2529 1.425 . S
C2524 C2531 1.409 . S
C2525 H2517 0.930 . S
C2525 C2523 1.419 . S
C2525 C2526 1.362 1_554 S
C2526 H2518 0.930 . S
C2526 C2525 1.362 1_556 S
C2526 C2529 1.409 . S
C2527 H2519 0.930 . S
C2527 C2528 1.355 . S
C2527 C2529 1.415 . S
C2528 C2527 1.355 . S
C2528 C2530 1.419 . S
C2529 C2524 1.425 . S
C2529 C2526 1.409 . S
C2529 C2527 1.415 . S
C2530 H2520 0.930 . S
C2530 C2528 1.419 . S
C2530 C2531 1.362 . S
C2531 H2521 0.930 . S
C2531 C2524 1.409 . S
C2531 C2530 1.362 . S
H2532 C2538 0.930 . S
H2533 C2541 0.930 . S
H2534 C2542 0.930 . S
H2535 C2543 0.930 . S
H2536 C2546 0.930 . S
H2537 C2547 0.930 . S
C2538 H2532 0.930 . S
C2538 C2539 1.355 . S
C2538 C2540 1.415 . S
C2539 C2538 1.355 . S
C2539 C2541 1.419 . S
C2540 C2538 1.415 . S
C2540 C2545 1.425 . S
C2540 C2547 1.409 . S
C2541 H2533 0.930 . S
C2541 C2539 1.419 . S
C2541 C2542 1.362 . S
C2542 H2534 0.930 . S
C2542 C2541 1.362 . S
C2542 C2545 1.409 . S
C2543 H2535 0.930 . S
C2543 C2544 1.355 . S
C2543 C2545 1.415 1_554 S
C2544 C2543 1.355 . S
C2544 C2546 1.419 . S
C2545 C2540 1.425 . S
C2545 C2542 1.409 . S
C2545 C2543 1.415 1_556 S
C2546 H2536 0.930 . S
C2546 C2544 1.419 . S
C2546 C2547 1.362 1_554 S
C2547 H2537 0.930 . S
C2547 C2540 1.409 . S
C2547 C2546 1.362 1_556 S
H2548 C2554 0.930 . S
H2549 C2557 0.930 . S
H2550 C2558 0.930 . S
H2551 C2559 0.930 . S
H2552 C2562 0.930 . S
H2553 C2563 0.930 . S
C2554 H2548 0.930 . S
C2554 C2555 1.355 . S
C2554 C2556 1.415 . S
C2555 C2554 1.355 . S
C2555 C2557 1.419 . S
C2556 C2554 1.415 . S
C2556 C2561 1.425 . S
C2556 C2563 1.409 . S
C2557 H2549 0.930 . S
C2557 C2555 1.419 . S
C2557 C2558 1.362 . S
C2558 H2550 0.930 . S
C2558 C2557 1.362 . S
C2558 C2561 1.409 . S
C2559 H2551 0.930 . S
C2559 C2560 1.355 . S
C2559 C2561 1.415 1_554 S
C2560 C2559 1.355 . S
C2560 C2562 1.419 . S
C2561 C2556 1.425 . S
C2561 C2558 1.409 . S
C2561 C2559 1.415 1_556 S
C2562 H2552 0.930 . S
C2562 C2560 1.419 . S
C2562 C2563 1.362 1_554 S
C2563 H2553 0.930 . S
C2563 C2556 1.409 . S
C2563 C2562 1.362 1_556 S
H2564 C2570 0.930 . S
H2565 C2573 0.930 . S
H2566 C2574 0.930 . S
H2567 C2575 0.930 . S
H2568 C2578 0.930 . S
H2569 C2579 0.930 . S
C2570 H2564 0.930 . S
C2570 C2571 1.355 . S
C2570 C2572 1.415 . S
C2571 C2570 1.355 . S
C2571 C2573 1.419 . S
C2572 C2570 1.415 . S
C2572 C2577 1.425 . S
C2572 C2579 1.409 . S
C2573 H2565 0.930 . S
C2573 C2571 1.419 . S
C2573 C2574 1.362 . S
C2574 H2566 0.930 . S
C2574 C2573 1.362 . S
C2574 C2577 1.409 . S
C2575 H2567 0.930 . S
C2575 C2576 1.355 . S
C2575 C2577 1.415 1_554 S
C2576 C2575 1.355 . S
C2576 C2578 1.419 . S
C2577 C2572 1.425 . S
C2577 C2574 1.409 . S
C2577 C2575 1.415 1_556 S
C2578 H2568 0.930 . S
C2578 C2576 1.419 . S
C2578 C2579 1.362 1_554 S
C2579 H2569 0.930 . S
C2579 C2572 1.409 . S
C2579 C2578 1.362 1_556 S
H2580 C2586 0.930 . S
H2581 C2589 0.930 . S
H2582 C2590 0.930 . S
H2583 C2591 0.930 . S
H2584 C2594 0.930 . S
H2585 C2595 0.930 . S
C2586 H2580 0.930 . S
C2586 C2587 1.355 . S
C2586 C2588 1.415 . S
C2587 C2586 1.355 . S
C2587 C2589 1.419 . S
C2588 C2586 1.415 . S
C2588 C2593 1.425 . S
C2588 C2595 1.409 . S
C2589 H2581 0.930 . S
C2589 C2587 1.419 . S
C2589 C2590 1.362 . S
C2590 H2582 0.930 . S
C2590 C2589 1.362 . S
C2590 C2593 1.409 . S
C2591 H2583 0.930 . S
C2591 C2592 1.355 . S
C2591 C2593 1.415 . S
C2592 C2591 1.355 . S
C2592 C2594 1.419 . S
C2593 C2588 1.425 . S
C2593 C2590 1.409 . S
C2593 C2591 1.415 . S
C2594 H2584 0.930 . S
C2594 C2592 1.419 . S
C2594 C2595 1.362 . S
C2595 H2585 0.930 . S
C2595 C2588 1.409 . S
C2595 C2594 1.362 . S
H2596 C2602 0.930 . S
H2597 C2605 0.930 . S
H2598 C2606 0.930 . S
H2599 C2607 0.930 . S
H2600 C2610 0.930 . S
H2601 C2611 0.930 . S
C2602 H2596 0.930 . S
C2602 C2603 1.355 . S
C2602 C2604 1.415 . S
C2603 C2602 1.355 . S
C2603 C2605 1.419 . S
C2604 C2602 1.415 . S
C2604 C2609 1.425 . S
C2604 C2611 1.409 . S
C2605 H2597 0.930 . S
C2605 C2603 1.419 . S
C2605 C2606 1.362 . S
C2606 H2598 0.930 . S
C2606 C2605 1.362 . S
C2606 C2609 1.409 . S
C2607 H2599 0.930 . S
C2607 C2608 1.355 . S
C2607 C2609 1.415 . S
C2608 C2607 1.355 . S
C2608 C2610 1.419 . S
C2609 C2604 1.425 . S
C2609 C2606 1.409 . S
C2609 C2607 1.415 . S
C2610 H2600 0.930 . S
C2610 C2608 1.419 . S
C2610 C2611 1.362 . S
C2611 H2601 0.930 . S
C2611 C2604 1.409 . S
C2611 C2610 1.362 . S
H2612 C2618 0.930 . S
H2613 C2621 0.930 . S
H2614 C2622 0.930 . S
H2615 C2623 0.930 . S
H2616 C2626 0.930 . S
H2617 C2627 0.930 . S
C2618 H2612 0.930 . S
C2618 C2619 1.355 . S
C2618 C2620 1.415 . S
C2619 C2618 1.355 . S
C2619 C2621 1.419 . S
C2620 C2618 1.415 . S
C2620 C2625 1.425 . S
C2620 C2627 1.409 . S
C2621 H2613 0.930 . S
C2621 C2619 1.419 . S
C2621 C2622 1.362 . S
C2622 H2614 0.930 . S
C2622 C2621 1.362 . S
C2622 C2625 1.409 . S
C2623 H2615 0.930 . S
C2623 C2624 1.355 . S
C2623 C2625 1.415 . S
C2624 C2623 1.355 . S
C2624 C2626 1.419 . S
C2625 C2620 1.425 . S
C2625 C2622 1.409 . S
C2625 C2623 1.415 . S
C2626 H2616 0.930 . S
C2626 C2624 1.419 . S
C2626 C2627 1.362 . S
C2627 H2617 0.930 . S
C2627 C2620 1.409 . S
C2627 C2626 1.362 . S
C1195 C28 0.961 . S
C1200 C523 1.010 . S
C1211 C556 0.962 . S
C1216 C61 1.007 . S
C1227 C589 0.975 . S
C1232 C94 0.994 . S
C1243 C820 0.966 . S
C1248 C127 1.003 . S
C1259 C160 0.965 . S
C1264 C853 1.005 . S
C1275 C886 0.961 . S
C1280 C193 1.008 . S
C1291 C1117 0.997 . S
C1296 C226 0.972 . S
C1307 C259 1.006 . S
C1312 C1150 0.963 . S
C1323 C1183 0.998 . S
C1328 C292 0.970 . S
C1339 C622 1.010 . S
C1344 C325 0.961 . S
C1355 C655 0.969 . S
C1360 C358 0.999 . S
C1371 C688 1.000 . S
C1376 C391 0.969 . S
C1387 C919 0.983 . S
C1392 C424 0.986 . S
C1403 C952 1.006 . S
C1408 C457 0.963 . S
C1419 C490 1.008 . S
C1424 C985 0.963 . S
C1435 C721 1.003 . S
C1440 C1018 0.967 . S
C1451 C1051 0.989 . S
C1456 C754 0.980 . S
C1467 C787 0.984 . S
C1472 C1084 0.985 . S
C1483 C965 1.562 . S
C1488 C8 1.545 . S
C1499 C41 1.557 . S
C1504 C899 1.550 . S
C1515 C932 1.569 . S
C1520 C74 1.538 . S
C1531 C437 1.549 . S
C1536 C107 1.559 . S
C1547 C470 1.560 . S
C1552 C140 1.547 . S
C1563 C404 1.546 . S
C1568 C173 1.560 . S
C1579 C206 1.565 . S
C1584 C767 1.543 . S
C1595 C701 1.553 . S
C1600 C239 1.554 . S
C1611 C272 1.552 . S
C1616 C734 1.555 . S
C1627 C1031 1.539 . S
C1632 C305 1.568 . S
C1643 C338 1.538 . S
C1648 C1064 1.569 . S
C1659 C371 1.564 . S
C1664 C998 1.543 . S
C1675 C833 1.538 . S
C1680 C503 1.569 . S
C1691 C866 1.546 . S
C1696 C536 1.562 . S
C1707 C569 1.548 . S
C1712 C800 1.560 . S
C1723 C602 1.538 . S
C1728 C1163 1.569 . S
C1739 C1097 1.544 . S
C1744 C635 1.563 . S
C1755 C1130 1.540 . S
C1760 C668 1.566 . S
C1771 C17 1.452 . S
C1776 C380 1.459 . S
C1787 C50 1.434 . S
C1792 C314 1.477 . S
C1803 C83 1.434 . S
C1808 C347 1.476 . S
C1819 C116 1.436 . S
C1824 C248 1.474 . S
C1835 C281 1.476 . S
C1840 C149 1.434 . S
C1851 C215 1.440 . S
C1856 C182 1.470 . S
C1867 C776 1.449 . S
C1872 C413 1.461 . S
C1883 C710 1.476 . S
C1888 C446 1.434 . S
C1899 C479 1.441 . S
C1904 C743 1.470 . S
C1915 C644 1.441 . S
C1920 C512 1.470 . S
C1931 C677 1.454 . S
C1936 C545 1.456 . S
C1947 C611 1.460 . S
C1952 C578 1.451 . S
C1963 C1172 1.441 . S
C1968 C809 1.470 . S
C1979 C842 1.443 . S
C1984 C1106 1.468 . S
C1995 C1139 1.443 . S
C2000 C875 1.467 . S
C2011 C1040 1.471 . S
C2016 C908 1.439 . S
C2027 C1073 1.476 . S
C2032 C941 1.434 . S
C2043 C1007 1.434 . S
C2048 C974 1.476 . S
C2059 N5 1.445 . S
C2064 N14 1.438 . S
C2075 N47 1.468 . S
C2080 N38 1.470 . S
C2091 N71 1.459 . S
C2096 N80 1.456 . S
C2107 N113 1.488 . S
C2112 N104 1.490 . S
C2123 N146 1.447 . S
C2128 N137 1.451 . S
C2139 N179 1.459 . S
C2144 N170 1.468 . S
C2155 N212 1.440 . S
C2160 N203 1.449 . S
C2171 N245 1.486 . S
C2176 N236 1.490 . S
C2187 N269 1.480 . S
C2192 N278 1.479 . S
C2203 N302 1.489 . S
C2208 N311 1.485 . S
C2219 N344 1.436 . S
C2224 N335 1.445 . S
C2235 N368 1.489 . S
C2240 N377 1.485 . S
C2251 N410 1.489 . S
C2256 N401 1.491 . S
C2267 N443 1.446 . S
C2272 N434 1.455 . S
C2283 N476 1.471 . S
C2288 N467 1.478 . S
C2299 N509 1.483 . S
C2304 N500 1.488 . S
C2315 N542 1.449 . S
C2320 N533 1.458 . S
C2331 N566 1.492 . S
C2336 N575 1.489 . S
C2347 N608 1.450 . S
C2352 N599 1.459 . S
C2363 N632 1.444 . S
C2368 N641 1.438 . S
C2379 N665 1.492 . S
C2384 N674 1.489 . S
C2395 N698 1.492 . S
C2400 N707 1.489 . S
C2411 N740 1.435 . S
C2416 N731 1.443 . S
C2427 N773 1.480 . S
C2432 N764 1.481 . S
C2443 N797 1.490 . S
C2448 N806 1.485 . S
C2459 N830 1.489 . S
C2464 N839 1.484 . S
C2475 N872 1.468 . S
C2480 N863 1.470 . S
C2491 N905 1.442 . S
C2496 N896 1.451 . S
C2507 N929 1.443 . S
C2512 N938 1.435 . S
C2523 N971 1.485 . S
C2528 N962 1.486 . S
C2539 N995 1.479 . S
C2544 N1004 1.472 . S
C2555 N1028 1.452 . S
C2560 N1037 1.448 . S
C2571 N1061 1.453 . S
C2576 N1070 1.449 . S
C2587 N1103 1.447 . S
C2592 N1094 1.451 . S
C2603 N1127 1.454 . S
C2608 N1136 1.450 . S
C2619 N1169 1.442 . S
C2624 N1160 1.451 . S
