# Generated by pormake.
# Topology usf, (4)-cn, num edge types: 1
# Building blocks:
#     Node 0, Type 0, BuildingBlock: ESEHIV_clean_sbu_0, # of connection points: 4
#     Node 1, Type 0, BuildingBlock: ESEHIV_clean_sbu_0, # of connection points: 4
#     Node 2, Type 0, BuildingBlock: ESEHIV_clean_sbu_0, # of connection points: 4
#     Node 3, Type 0, BuildingBlock: ESEHIV_clean_sbu_0, # of connection points: 4
#     Node 4, Type 0, BuildingBlock: ESEHIV_clean_sbu_0, # of connection points: 4
#     Node 5, Type 0, BuildingBlock: ESEHIV_clean_sbu_0, # of connection points: 4
#     Node 6, Type 0, BuildingBlock: ESEHIV_clean_sbu_0, # of connection points: 4
#     Node 7, Type 0, BuildingBlock: ESEHIV_clean_sbu_0, # of connection points: 4
#     Node 8, Type 0, BuildingBlock: ESEHIV_clean_sbu_0, # of connection points: 4
#     Node 9, Type 0, BuildingBlock: ESEHIV_clean_sbu_0, # of connection points: 4
#     Node 10, Type 0, BuildingBlock: ESEHIV_clean_sbu_0, # of connection points: 4
#     Node 11, Type 0, BuildingBlock: ESEHIV_clean_sbu_0, # of connection points: 4
#     Node 12, Type 0, BuildingBlock: ESEHIV_clean_sbu_0, # of connection points: 4
#     Node 13, Type 0, BuildingBlock: ESEHIV_clean_sbu_0, # of connection points: 4
#     Node 14, Type 0, BuildingBlock: ESEHIV_clean_sbu_0, # of connection points: 4
#     Node 15, Type 0, BuildingBlock: ESEHIV_clean_sbu_0, # of connection points: 4
#     Node 16, Type 0, BuildingBlock: ESEHIV_clean_sbu_0, # of connection points: 4
#     Node 17, Type 0, BuildingBlock: ESEHIV_clean_sbu_0, # of connection points: 4
#     Edge 18, Type (0, 0), BuildingBlock: KIFKEQ_clean_linker_1, # of connection points: 2
#     Edge 19, Type (0, 0), BuildingBlock: KIFKEQ_clean_linker_1, # of connection points: 2
#     Edge 20, Type (0, 0), BuildingBlock: KIFKEQ_clean_linker_1, # of connection points: 2
#     Edge 21, Type (0, 0), BuildingBlock: KIFKEQ_clean_linker_1, # of connection points: 2
#     Edge 22, Type (0, 0), BuildingBlock: KIFKEQ_clean_linker_1, # of connection points: 2
#     Edge 23, Type (0, 0), BuildingBlock: KIFKEQ_clean_linker_1, # of connection points: 2
#     Edge 24, Type (0, 0), BuildingBlock: KIFKEQ_clean_linker_1, # of connection points: 2
#     Edge 25, Type (0, 0), BuildingBlock: KIFKEQ_clean_linker_1, # of connection points: 2
#     Edge 26, Type (0, 0), BuildingBlock: KIFKEQ_clean_linker_1, # of connection points: 2
#     Edge 27, Type (0, 0), BuildingBlock: KIFKEQ_clean_linker_1, # of connection points: 2
#     Edge 28, Type (0, 0), BuildingBlock: KIFKEQ_clean_linker_1, # of connection points: 2
#     Edge 29, Type (0, 0), BuildingBlock: KIFKEQ_clean_linker_1, # of connection points: 2
#     Edge 30, Type (0, 0), BuildingBlock: KIFKEQ_clean_linker_1, # of connection points: 2
#     Edge 31, Type (0, 0), BuildingBlock: KIFKEQ_clean_linker_1, # of connection points: 2
#     Edge 32, Type (0, 0), BuildingBlock: KIFKEQ_clean_linker_1, # of connection points: 2
#     Edge 33, Type (0, 0), BuildingBlock: KIFKEQ_clean_linker_1, # of connection points: 2
#     Edge 34, Type (0, 0), BuildingBlock: KIFKEQ_clean_linker_1, # of connection points: 2
#     Edge 35, Type (0, 0), BuildingBlock: KIFKEQ_clean_linker_1, # of connection points: 2
#     Edge 36, Type (0, 0), BuildingBlock: KIFKEQ_clean_linker_1, # of connection points: 2
#     Edge 37, Type (0, 0), BuildingBlock: KIFKEQ_clean_linker_1, # of connection points: 2
#     Edge 38, Type (0, 0), BuildingBlock: KIFKEQ_clean_linker_1, # of connection points: 2
#     Edge 39, Type (0, 0), BuildingBlock: KIFKEQ_clean_linker_1, # of connection points: 2
#     Edge 40, Type (0, 0), BuildingBlock: KIFKEQ_clean_linker_1, # of connection points: 2
#     Edge 41, Type (0, 0), BuildingBlock: KIFKEQ_clean_linker_1, # of connection points: 2
#     Edge 42, Type (0, 0), BuildingBlock: KIFKEQ_clean_linker_1, # of connection points: 2
#     Edge 43, Type (0, 0), BuildingBlock: KIFKEQ_clean_linker_1, # of connection points: 2
#     Edge 44, Type (0, 0), BuildingBlock: KIFKEQ_clean_linker_1, # of connection points: 2
#     Edge 45, Type (0, 0), BuildingBlock: KIFKEQ_clean_linker_1, # of connection points: 2
#     Edge 46, Type (0, 0), BuildingBlock: KIFKEQ_clean_linker_1, # of connection points: 2
#     Edge 47, Type (0, 0), BuildingBlock: KIFKEQ_clean_linker_1, # of connection points: 2
#     Edge 48, Type (0, 0), BuildingBlock: KIFKEQ_clean_linker_1, # of connection points: 2
#     Edge 49, Type (0, 0), BuildingBlock: KIFKEQ_clean_linker_1, # of connection points: 2
#     Edge 50, Type (0, 0), BuildingBlock: KIFKEQ_clean_linker_1, # of connection points: 2
#     Edge 51, Type (0, 0), BuildingBlock: KIFKEQ_clean_linker_1, # of connection points: 2
#     Edge 52, Type (0, 0), BuildingBlock: KIFKEQ_clean_linker_1, # of connection points: 2
#     Edge 53, Type (0, 0), BuildingBlock: KIFKEQ_clean_linker_1, # of connection points: 2
# Relax obj value: 0.024
# Max RMSD: 0.177
# Mean RMSD: 0.118
data_MOF--net-usf--node1-ESEHIV_clean_sbu_0--edge1-KIFKEQ_clean_linker_1
_symmetry_space_group_name_H-M    P1
_symmetry_Int_Tables_number       1
_symmetry_cell_setting            triclinic
loop_
_symmetry_equiv_pos_as_xyz
'x, y, z'
_cell_length_a     46.952538
_cell_length_b     49.889726
_cell_length_c     33.700066
_cell_angle_alpha  90.316577
_cell_angle_beta   90.371079
_cell_angle_gamma 118.08046
loop_
_atom_site_label
_atom_site_type_symbol
_atom_site_fract_x
_atom_site_fract_y
_atom_site_fract_z
_atom_type_partial_charge
Cu0 Cu 0.05592 0.52206 0.03112 0.0
N1 N 0.03149 0.51106 0.98454 0.0
N2 N 0.02246 0.51036 0.9193 0.0
C3 C 0.04464 0.5164 0.94829 0.0
C4 C 0.99403 0.50051 0.93818 0.0
C5 C 0.99973 0.50119 0.97857 0.0
O6 O 0.09734 0.5239 1.01648 0.0
C7 C 0.03493 0.55778 0.07486 0.0
O8 O 1.01366 0.53087 0.08707 0.0
H9 H 0.07028 0.52548 0.94349 0.0
H10 H 0.98229 0.49626 1.00188 0.0
N11 N 0.03755 0.49264 0.07043 0.0
N12 N 0.02972 0.47392 0.13163 0.0
C13 C 0.0503 0.49534 0.10699 0.0
C14 C 1.00807 0.46823 0.07168 0.0
C15 C 1.00304 0.4568 0.10969 0.0
C16 C 0.09655 0.49807 1.01212 0.0
O17 O 0.0695 0.47341 0.01947 0.0
H18 H 0.0731 0.51422 0.11618 0.0
H19 H 0.99074 0.46048 0.04748 0.0
O20 O 0.05667 0.55994 0.05043 0.0
H21 H 0.97108 0.49477 0.92404 0.0
H22 H 0.98101 0.43831 0.12084 0.0
Cu23 Cu 0.4907 0.52773 1.01776 0.0
N24 N 0.45333 0.4901 0.02421 0.0
N25 N 0.42512 0.44159 0.04363 0.0
C26 C 0.45458 0.46476 0.03542 0.0
C27 C 0.40439 0.45287 0.03712 0.0
C28 C 0.42184 0.48277 0.02511 0.0
O29 O 0.51416 0.53302 0.07029 0.0
C30 C 0.48718 0.52103 0.93525 0.0
O31 O 0.45853 0.517 0.94572 0.0
H32 H 0.47706 0.464 0.03964 0.0
H33 H 0.41237 0.49835 1.01903 0.0
N34 N 0.48329 0.56155 1.01349 0.0
N35 N 0.49467 0.60918 0.99758 0.0
C36 C 0.50247 0.58655 0.99261 0.0
C37 C 0.46237 0.56851 0.03227 0.0
C38 C 0.46944 0.59793 0.02265 0.0
C39 C 0.49644 0.52857 0.10126 0.0
O40 O 0.46623 0.52226 0.09563 0.0
H41 H 0.52287 0.58861 0.97558 0.0
H42 H 0.44396 0.55371 0.05249 0.0
O43 O 0.50784 0.52581 0.96339 0.0
H44 H 0.37855 0.44063 0.04141 0.0
H45 H 0.45731 0.61025 0.03376 0.0
Cu46 Cu 0.50977 0.96236 0.03477 0.0
N47 N 0.51957 0.94611 0.99003 0.0
N48 N 0.51945 0.93243 0.92673 0.0
C49 C 0.50696 0.9441 0.95351 0.0
C50 C 0.54121 0.92729 0.94717 0.0
C51 C 0.54129 0.93585 0.98623 0.0
O52 O 0.47088 0.96586 0.02034 0.0
C53 C 0.55678 1.01198 0.08315 0.0
O54 O 0.53417 1.00299 0.1101 0.0
H55 H 0.4896 0.95191 0.9465 0.0
H56 H 0.55639 0.93502 1.01005 0.0
N57 N 0.49875 0.93517 0.07695 0.0
N58 N 0.48097 0.91464 0.13649 0.0
C59 C 0.48477 0.93685 0.11095 0.0
C60 C 0.50338 0.91067 0.08057 0.0
C61 C 0.49254 0.89801 0.11725 0.0
C62 C 0.44656 0.94052 1.01065 0.0
O63 O 0.44949 0.91566 1.0134 0.0
H64 H 0.47845 0.95466 0.11715 0.0
H65 H 0.51416 0.90269 0.05834 0.0
O66 O 0.54992 0.99942 0.04886 0.0
H67 H 0.55597 0.91799 0.93489 0.0
H68 H 0.49341 0.87822 0.1288 0.0
Cu69 Cu 0.48089 0.96021 0.53095 0.0
N70 N 0.45343 0.94252 0.48747 0.0
N71 N 0.43919 0.92663 0.42483 0.0
C72 C 0.46381 0.94168 0.45065 0.0
C73 C 0.41211 0.91797 0.44628 0.0
C74 C 0.421 0.9278 0.48502 0.0
O75 O 0.52271 0.96348 0.51492 0.0
C76 C 0.45487 0.99476 0.56553 0.0
O77 O 0.43271 0.96718 0.57434 0.0
H78 H 0.48909 0.95215 0.44302 0.0
H79 H 0.40499 0.92414 0.50968 0.0
N80 N 0.46733 0.93444 0.57467 0.0
N81 N 0.46639 0.91814 0.63652 0.0
C82 C 0.48106 0.94136 0.61098 0.0
C83 C 0.44311 0.90585 0.57709 0.0
C84 C 0.44243 0.89574 0.61525 0.0
C85 C 0.52225 0.93789 0.50914 0.0
O86 O 0.49518 0.91295 0.51541 0.0
H87 H 0.50115 0.96325 0.6185 0.0
H88 H 0.42728 0.89316 0.55276 0.0
O89 O 0.47943 0.99793 0.54575 0.0
H90 H 0.38767 0.90495 0.43508 0.0
H91 H 0.42586 0.87347 0.62622 0.0
Cu92 Cu 0.04103 0.55285 0.51692 0.0
N93 N 0.06297 0.56009 0.5655 0.0
N94 N 0.06968 0.55757 0.63086 0.0
C95 C 0.04839 0.54925 0.60037 0.0
C96 C 0.09891 0.57444 0.61451 0.0
C97 C 0.09468 0.57605 0.57421 0.0
O98 O 0.99877 0.51738 0.52648 0.0
C99 C 0.0692 0.61233 0.49004 0.0
O100 O 0.09427 0.6074 0.49213 0.0
H101 H 0.0226 0.53514 0.60314 0.0
H102 H 0.1135 0.58813 0.553 0.0
N103 N 0.06133 0.54153 0.47756 0.0
N104 N 0.06858 0.52406 0.41947 0.0
C105 C 0.04802 0.52905 0.44224 0.0
C106 C 0.09126 0.54425 0.47726 0.0
C107 C 0.0959 0.5337 0.44124 0.0
C108 C 1.0004 0.49281 0.53212 0.0
O109 O 0.02871 0.49365 0.52928 0.0
H110 H 0.02397 0.52442 0.43309 0.0
H111 H 0.10863 0.55344 0.50127 0.0
O112 O 0.04158 0.59079 0.49961 0.0
H113 H 0.12167 0.58523 0.63054 0.0
H114 H 0.11759 0.5331 0.4318 0.0
Cu115 Cu 0.51702 0.51425 0.51759 0.0
N116 N 0.51919 0.53509 0.46878 0.0
N117 N 0.52152 0.54462 0.40254 0.0
C118 C 0.51884 0.52445 0.43131 0.0
C119 C 0.52341 0.56879 0.42312 0.0
C120 C 0.52194 0.56291 0.46339 0.0
O121 O 0.48091 0.47331 0.50776 0.0
C122 C 0.58419 0.54259 0.52286 0.0
O123 O 0.5802 0.56427 0.50605 0.0
H124 H 0.51711 0.50239 0.42538 0.0
H125 H 0.52319 0.57813 0.48707 0.0
N126 N 0.50898 0.52993 0.56619 0.0
N127 N 0.50484 0.53684 0.6323 0.0
C128 C 0.51333 0.52247 0.60385 0.0
C129 C 0.49765 0.54995 0.57117 0.0
C130 C 0.49504 0.55415 0.61136 0.0
C131 C 0.4527 0.47115 0.50917 0.0
O132 O 0.45005 0.49513 0.5204 0.0
H133 H 0.52197 0.50629 0.61021 0.0
H134 H 0.49125 0.56053 0.54727 0.0
O135 O 0.55944 0.51683 0.52826 0.0
H136 H 0.52539 0.58937 0.41014 0.0
H137 H 0.48659 0.56907 0.62406 0.0
Cu138 Cu 0.74269 0.88305 0.36624 0.0
N139 N 0.7589 0.91001 0.32405 0.0
N140 N 0.76531 0.92406 0.26045 0.0
C141 C 0.74911 0.90154 0.28642 0.0
C142 C 0.78595 0.94792 0.28301 0.0
C143 C 0.78194 0.93916 0.3223 0.0
O144 O 0.74219 0.84528 0.34785 0.0
C145 C 0.70513 0.90738 0.39469 0.0
O146 O 0.73428 0.93068 0.39547 0.0
H147 H 0.73043 0.87901 0.27853 0.0
H148 H 0.79516 0.95293 0.34758 0.0
N149 N 0.76879 0.89569 0.41159 0.0
N150 N 0.78064 0.89701 0.4761 0.0
C151 C 0.75764 0.88461 0.4477 0.0
C152 C 0.80013 0.91585 0.41706 0.0
C153 C 0.80748 0.91685 0.45704 0.0
C154 C 0.76923 0.84922 0.33409 0.0
O155 O 0.79366 0.87684 0.33456 0.0
H156 H 0.73279 0.86808 0.453 0.0
H157 H 0.81649 0.92876 0.39376 0.0
O158 O 0.70179 0.88191 0.38161 0.0
H159 H 0.8033 0.96989 0.27201 0.0
H160 H 0.83079 0.93078 0.47086 0.0
Cu161 Cu 0.13481 0.87912 0.36788 0.0
N162 N 0.10665 0.86888 0.32452 0.0
N163 N 0.09212 0.8634 0.26053 0.0
C164 C 0.11673 0.8723 0.28683 0.0
C165 C 0.06529 0.8539 0.28273 0.0
C166 C 0.07434 0.85718 0.32232 0.0
O167 O 0.17547 0.91361 0.35051 0.0
C168 C 0.10935 0.82177 0.40039 0.0
O169 O 0.08547 0.82826 0.40458 0.0
H170 H 0.14192 0.8818 0.27901 0.0
H171 H 0.0585 0.85139 0.34757 0.0
N172 N 0.12087 0.89316 0.4111 0.0
N173 N 0.11983 0.90791 0.47346 0.0
C174 C 0.13474 0.89832 0.44726 0.0
C175 C 0.09634 0.89984 0.41426 0.0
C176 C 0.09552 0.90881 0.45291 0.0
C177 C 0.17207 0.936 0.33747 0.0
O178 O 0.14313 0.93395 0.33812 0.0
H179 H 0.15499 0.89439 0.45433 0.0
H180 H 0.08022 0.8983 0.39029 0.0
O181 O 0.13541 0.84159 0.38446 0.0
H182 H 0.0409 0.84496 0.27128 0.0
H183 H 0.07857 0.91567 0.46484 0.0
Cu184 Cu 0.18023 0.32324 0.3568 0.0
N185 N 0.19117 0.34784 0.3123 0.0
N186 N 0.19579 0.35878 0.24793 0.0
C187 C 0.19036 0.33741 0.27527 0.0
C188 C 0.20017 0.38376 0.2684 0.0
C189 C 0.19753 0.37698 0.30837 0.0
O190 O 0.14593 0.28389 0.3371 0.0
C191 C 0.24704 0.33701 0.36422 0.0
O192 O 0.24879 0.34403 0.3265 0.0
H193 H 0.18456 0.31415 0.26845 0.0
H194 H 0.19921 0.39193 0.33265 0.0
N195 N 0.16319 0.33843 0.39522 0.0
N196 N 0.14871 0.34644 0.45515 0.0
C197 C 0.16332 0.33334 0.4343 0.0
C198 C 0.14795 0.35537 0.39109 0.0
C199 C 0.13918 0.36057 0.42823 0.0
C200 C 0.11788 0.27014 0.35238 0.0
O201 O 0.11346 0.27818 0.38803 0.0
H202 H 0.1739 0.32019 0.44716 0.0
H203 H 0.14316 0.36302 0.36308 0.0
O204 O 0.21947 0.32493 0.38092 0.0
H205 H 0.2046 0.40515 0.2554 0.0
H206 H 0.1262 0.37311 0.43487 0.0
Cu207 Cu 0.20282 0.35067 0.84773 0.0
N208 N 0.17082 0.34079 0.80908 0.0
N209 N 0.1481 0.33694 0.7496 0.0
C210 C 0.17589 0.3453 0.76992 0.0
C211 C 0.12457 0.32654 0.77695 0.0
C212 C 0.13873 0.32917 0.81377 0.0
O213 O 0.23569 0.34107 0.82557 0.0
C214 C 0.2076 0.41027 0.85149 0.0
O215 O 0.19471 0.4042 0.81574 0.0
H216 H 0.19955 0.35472 0.75666 0.0
H217 H 0.12655 0.32353 0.84199 0.0
N218 N 0.18485 0.32708 0.89233 0.0
N219 N 0.17555 0.31705 0.95666 0.0
C220 C 0.19459 0.33705 0.92957 0.0
C221 C 0.15872 0.29966 0.89587 0.0
C222 C 0.15276 0.29348 0.93579 0.0
C223 C 0.25024 0.32973 0.84614 0.0
O224 O 0.24666 0.32821 0.88481 0.0
H225 H 0.21456 0.35914 0.93667 0.0
H226 H 0.1445 0.28562 0.87128 0.0
O227 O 0.21684 0.39232 0.86697 0.0
H228 H 0.09915 0.31841 0.77086 0.0
H229 H 0.13313 0.27348 0.94847 0.0
Cu230 Cu 0.68873 0.87075 0.86261 0.0
N231 N 0.70587 0.85729 0.82194 0.0
N232 N 0.72611 0.85455 0.7631 0.0
C233 C 0.71151 0.86751 0.78443 0.0
C234 C 0.7294 0.83511 0.78812 0.0
C235 C 0.71693 0.8369 0.8244 0.0
O236 O 0.68524 0.90618 0.84269 0.0
C237 C 0.65072 0.81742 0.90507 0.0
O238 O 0.6794 0.823 0.91816 0.0
H239 H 0.7051 0.88422 0.77309 0.0
H240 H 0.71665 0.82475 0.85099 0.0
N241 N 0.71839 0.88467 0.90487 0.0
N242 N 0.73976 0.89993 0.96541 0.0
C243 C 0.71297 0.89024 0.94245 0.0
C244 C 0.74961 0.89105 0.90403 0.0
C245 C 0.76289 0.90058 0.94129 0.0
C246 C 0.71223 0.92869 0.83338 0.0
O247 O 0.73849 0.92586 0.83785 0.0
H248 H 0.6898 0.88705 0.95273 0.0
H249 H 0.76181 0.88876 0.87813 0.0
O250 O 0.64848 0.83571 0.8803 0.0
H251 H 0.74082 0.82125 0.78112 0.0
H252 H 0.78738 0.90664 0.95022 0.0
Cu253 Cu 0.17 0.88819 0.86658 0.0
N254 N 0.17854 0.91475 0.82399 0.0
N255 N 0.17606 0.92999 0.76242 0.0
C256 C 0.16829 0.90605 0.78645 0.0
C257 C 0.19227 0.95482 0.78564 0.0
C258 C 0.19367 0.94534 0.82365 0.0
O259 O 0.13497 0.84869 0.8488 0.0
C260 C 0.23244 0.91367 0.89889 0.0
O261 O 0.22678 0.937 0.90141 0.0
H262 H 0.15512 0.88253 0.77702 0.0
H263 H 0.20418 0.95984 0.84933 0.0
N264 N 0.15417 0.90066 0.9095 0.0
N265 N 0.13516 0.9004 0.97027 0.0
C266 C 0.1455 0.88616 0.94432 0.0
C267 C 0.14901 0.92487 0.91306 0.0
C268 C 0.13739 0.92484 0.95052 0.0
C269 C 0.10873 0.84876 0.83848 0.0
O270 O 0.10718 0.8743 0.84178 0.0
H271 H 0.14675 0.86545 0.95009 0.0
H272 H 0.15345 0.94143 0.89018 0.0
O273 O 0.21042 0.88873 0.88422 0.0
H274 H 0.20148 0.97811 0.77617 0.0
H275 H 0.13163 0.94191 0.96228 0.0
Cu276 Cu 0.41367 0.21527 0.69062 0.0
N277 N 0.43522 0.24144 0.64903 0.0
N278 N 0.45214 0.25761 0.58761 0.0
C279 C 0.44248 0.23429 0.61326 0.0
C280 C 0.45169 0.28058 0.60852 0.0
C281 C 0.44121 0.27051 0.64629 0.0
O282 O 0.40823 0.1745 0.67839 0.0
C283 C 0.35817 0.21198 0.73157 0.0
O284 O 0.36186 0.19347 0.75609 0.0
H285 H 0.43876 0.21188 0.60534 0.0
H286 H 0.43648 0.28292 0.66949 0.0
N287 N 0.43943 0.22887 0.7362 0.0
N288 N 0.45443 0.23104 0.79974 0.0
C289 C 0.43384 0.21388 0.77071 0.0
C290 C 0.46485 0.25629 0.74324 0.0
C291 C 0.47416 0.25773 0.78242 0.0
C292 C 0.39721 0.15965 0.64606 0.0
O293 O 0.38314 0.16925 0.62009 0.0
H294 H 0.414 0.19134 0.77483 0.0
H295 H 0.47521 0.27434 0.72181 0.0
O296 O 0.37529 0.22041 0.70038 0.0
H297 H 0.45711 0.30264 0.59696 0.0
H298 H 0.49345 0.2772 0.79713 0.0
Cu299 Cu 0.8309 0.21102 0.68358 0.0
N300 N 0.79095 0.17661 0.69272 0.0
N301 N 0.75782 0.1303 0.71628 0.0
C302 C 0.7886 0.15257 0.71327 0.0
C303 C 0.73994 0.14071 0.69655 0.0
C304 C 0.76042 0.16939 0.68225 0.0
O305 O 0.85443 0.21477 0.7356 0.0
C306 C 0.82699 0.20415 0.60051 0.0
O307 O 0.80064 0.20551 0.61016 0.0
H308 H 0.80937 0.15135 0.72534 0.0
H309 H 0.75345 0.18382 0.66546 0.0
N310 N 0.82859 0.24742 0.6775 0.0
N311 N 0.84513 0.29537 0.65767 0.0
C312 C 0.85295 0.27272 0.6624 0.0
C313 C 0.80423 0.25413 0.68259 0.0
C314 C 0.81437 0.2837 0.67039 0.0
C315 C 0.84187 0.22071 0.7662 0.0
O316 O 0.81704 0.2256 0.76022 0.0
H317 H 0.87564 0.27392 0.6536 0.0
H318 H 0.78064 0.23853 0.69367 0.0
O319 O 0.84594 0.2054 0.62921 0.0
H320 H 0.71394 0.12868 0.69311 0.0
H321 H 0.8001 0.29554 0.67072 0.0
Cu322 Cu 0.85381 0.62158 0.69732 0.0
N323 N 0.84706 0.59755 0.74178 0.0
N324 N 0.83516 0.5838 0.80488 0.0
C325 C 0.84055 0.60522 0.77753 0.0
C326 C 0.83859 0.56172 0.78557 0.0
C327 C 0.84569 0.57018 0.74639 0.0
O328 O 0.8875 0.66249 0.71252 0.0
C329 C 0.80351 0.63129 0.6585 0.0
O330 O 0.82626 0.65718 0.64513 0.0
H331 H 0.83993 0.6263 0.78329 0.0
H332 H 0.84902 0.55708 0.72295 0.0
N333 N 0.86804 0.60794 0.65384 0.0
N334 N 0.87599 0.60171 0.58987 0.0
C335 C 0.86305 0.6133 0.61611 0.0
C336 C 0.88474 0.59222 0.65163 0.0
C337 C 0.88961 0.58825 0.61208 0.0
C338 C 0.91481 0.66409 0.7213 0.0
O339 O 0.91777 0.63926 0.71849 0.0
H340 H 0.84978 0.62524 0.60811 0.0
H341 H 0.89313 0.58449 0.67685 0.0
O342 O 0.81095 0.61584 0.68237 0.0
H343 H 0.83546 0.54073 0.79857 0.0
H344 H 0.9026 0.57685 0.60069 0.0
Cu345 Cu 0.85154 0.65502 0.19555 0.0
N346 N 0.82342 0.63714 0.15239 0.0
N347 N 0.80786 0.61982 0.09049 0.0
C348 C 0.83273 0.6378 0.11458 0.0
C349 C 0.78165 0.6079 0.11392 0.0
C350 C 0.79133 0.61858 0.1521 0.0
O351 O 0.89476 0.66287 0.17826 0.0
C352 C 0.81966 0.68473 0.22867 0.0
O353 O 0.79701 0.65634 0.23039 0.0
H354 H 0.85754 0.65054 0.10523 0.0
H355 H 0.77622 0.61207 0.17805 0.0
N356 N 0.84056 0.62761 0.23719 0.0
N357 N 0.84188 0.60968 0.29752 0.0
C358 C 0.85432 0.63411 0.27346 0.0
C359 C 0.81878 0.59801 0.23785 0.0
C360 C 0.81942 0.58692 0.27501 0.0
C361 C 0.89604 0.63961 0.16422 0.0
O362 O 0.86958 0.61338 0.16343 0.0
H363 H 0.87334 0.65641 0.28155 0.0
H364 H 0.80362 0.5853 0.21307 0.0
O365 O 0.84705 0.69027 0.21437 0.0
H366 H 0.75755 0.59143 0.1046 0.0
H367 H 0.80416 0.56388 0.28452 0.0
Cu368 Cu 0.38394 0.19052 0.1945 0.0
N369 N 0.41512 0.20434 0.23497 0.0
N370 N 0.43821 0.21928 0.29483 0.0
C371 C 0.41056 0.20874 0.27333 0.0
C372 C 0.46097 0.22152 0.26883 0.0
C373 C 0.44667 0.21232 0.232 0.0
O374 O 0.34588 0.15423 0.21399 0.0
C375 C 0.40265 0.24888 0.16842 0.0
O376 O 0.43036 0.24849 0.1714 0.0
H377 H 0.3873 0.20398 0.28515 0.0
H378 H 0.45859 0.21192 0.20482 0.0
N379 N 0.40037 0.17961 0.15045 0.0
N380 N 0.41649 0.17952 0.08816 0.0
C381 C 0.39974 0.18824 0.11284 0.0
C382 C 0.41791 0.16468 0.14959 0.0
C383 C 0.42782 0.16452 0.11124 0.0
C384 C 0.35072 0.13295 0.2281 0.0
O385 O 0.38036 0.13679 0.22916 0.0
H386 H 0.38771 0.20121 0.10405 0.0
H387 H 0.42432 0.1557 0.17526 0.0
O388 O 0.37701 0.2249 0.17787 0.0
H389 H 0.4863 0.2298 0.27566 0.0
H390 H 0.44336 0.15526 0.10158 0.0
Cu391 Cu 0.85269 0.18808 0.18246 0.0
N392 N 0.84958 0.20689 0.23126 0.0
N393 N 0.84732 0.21541 0.29738 0.0
C394 C 0.85218 0.19839 0.26904 0.0
C395 C 0.84172 0.23547 0.27625 0.0
C396 C 0.84311 0.23025 0.23611 0.0
O397 O 0.88947 0.18044 0.1933 0.0
C398 C 0.78715 0.15835 0.16838 0.0
O399 O 0.7934 0.18683 0.17207 0.0
H400 H 0.85673 0.17951 0.27556 0.0
H401 H 0.83906 0.24241 0.21215 0.0
N402 N 0.8607 0.21118 0.13413 0.0
N403 N 0.86555 0.22346 0.06852 0.0
C404 C 0.858 0.20102 0.09582 0.0
C405 C 0.87004 0.241 0.13073 0.0
C406 C 0.87299 0.24852 0.091 0.0
C407 C 0.91744 0.20352 0.19111 0.0
O408 O 0.91961 0.22902 0.17753 0.0
H409 H 0.85088 0.1776 0.08822 0.0
H410 H 0.87462 0.25642 0.15547 0.0
O411 O 0.8105 0.15217 0.17288 0.0
H412 H 0.83688 0.25291 0.28878 0.0
H413 H 0.87978 0.27098 0.07978 0.0
H414 H 1.01317 0.47949 0.38873 0.0
H415 H 0.11138 0.54283 0.3598 0.0
H416 H 1.00287 0.46156 0.31997 0.0
H417 H 0.10104 0.52636 0.29074 0.0
H418 H 0.08273 0.48194 0.17203 0.0
H419 H 0.09182 0.48916 0.24359 0.0
H420 H 0.99465 0.47636 0.25759 0.0
H421 H 0.98543 0.46744 0.18641 0.0
C422 C 0.03248 0.48962 0.36746 0.0
C423 C 0.06302 0.51254 0.37941 0.0
C424 C 0.02662 0.4795 0.32801 0.0
C425 C 0.05103 0.49253 0.29943 0.0
C426 C 0.08176 0.51521 0.3118 0.0
C427 C 0.08774 0.52487 0.35138 0.0
C428 C 0.06326 0.4801 0.19078 0.0
C429 C 0.03343 0.4741 0.17397 0.0
C430 C 0.06847 0.48455 0.23169 0.0
C431 C 0.04417 0.48385 0.25662 0.0
C432 C 1.01386 0.47667 0.2397 0.0
C433 C 1.00849 0.47159 0.19885 0.0
H434 H 0.49968 0.49235 0.35785 0.0
H435 H 0.54478 0.58984 0.34711 0.0
H436 H 0.49862 0.48739 0.28564 0.0
H437 H 0.54285 0.58487 0.27508 0.0
H438 H 0.55259 0.56947 0.14208 0.0
H439 H 0.56179 0.57283 0.21449 0.0
H440 H 0.47103 0.49153 0.22914 0.0
H441 H 0.46236 0.48822 0.1578 0.0
C442 C 0.50954 0.51282 0.34034 0.0
C443 C 0.52204 0.5415 0.35919 0.0
C444 C 0.50868 0.50998 0.2985 0.0
C445 C 0.52045 0.5357 0.27363 0.0
C446 C 0.53375 0.5644 0.29257 0.0
C447 C 0.53446 0.56724 0.33436 0.0
C448 C 0.53515 0.55187 0.16074 0.0
C449 C 0.50689 0.52836 0.14368 0.0
C450 C 0.54011 0.554 0.20254 0.0
C451 C 0.51712 0.53252 0.22854 0.0
C452 C 0.48967 0.5084 0.21089 0.0
C453 C 0.48463 0.50651 0.16955 0.0
H454 H 0.49246 0.88419 0.19599 0.0
H455 H 0.44453 0.93789 0.16989 0.0
H456 H 0.47815 0.88263 0.26528 0.0
H457 H 0.43185 0.93775 0.23968 0.0
H458 H 0.39523 0.91616 0.36589 0.0
H459 H 0.40125 0.90863 0.29535 0.0
H460 H 0.49601 0.91785 0.31921 0.0
H461 H 0.48933 0.92378 0.38935 0.0
C462 C 0.47865 0.89548 0.20477 0.0
C463 C 0.47008 0.9115 0.17707 0.0
C464 C 0.47076 0.89488 0.24477 0.0
C465 C 0.45425 0.91043 0.25828 0.0
C466 C 0.44446 0.92539 0.23039 0.0
C467 C 0.45218 0.92583 0.1903 0.0
C468 C 0.4171 0.9161 0.3561 0.0
C469 C 0.4419 0.92089 0.38334 0.0
C470 C 0.4207 0.91209 0.3156 0.0
C471 C 0.44916 0.91271 0.30149 0.0
C472 C 0.47359 0.91684 0.32893 0.0
C473 C 0.46996 0.92075 0.36925 0.0
H474 H 0.10899 0.553 0.68662 0.0
H475 H 1.01395 0.5446 0.66879 0.0
H476 H 0.09689 0.54019 0.75629 0.0
H477 H 1.00187 0.53193 0.73845 0.0
H478 H 0.9813 0.4823 0.85772 0.0
H479 H 0.99231 0.49262 0.78705 0.0
H480 H 0.0887 0.56269 0.81594 0.0
H481 H 0.07779 0.55241 0.88598 0.0
C482 C 0.08562 0.54866 0.6976 0.0
C483 C 0.0625 0.54991 0.67208 0.0
C484 C 0.07864 0.54128 0.73755 0.0
C485 C 0.04841 0.53508 0.75299 0.0
C486 C 0.0252 0.53611 0.72741 0.0
C487 C 0.03216 0.54343 0.68744 0.0
C488 C 1.00476 0.49996 0.8489 0.0
C489 C 0.0287 0.5163 0.87755 0.0
C490 C 1.01108 0.5059 0.80845 0.0
C491 C 0.04148 0.52836 0.79583 0.0
C492 C 0.06529 0.54479 0.82454 0.0
C493 C 0.05899 0.53884 0.86481 0.0
H494 H 0.46683 0.54654 0.685 0.0
H495 H 0.54229 0.52057 0.67952 0.0
H496 H 0.46615 0.54267 0.75674 0.0
H497 H 0.54127 0.51623 0.75243 0.0
H498 H 0.54559 0.54227 0.89271 0.0
H499 H 0.55203 0.54559 0.81973 0.0
H500 H 0.44858 0.50253 0.80515 0.0
H501 H 0.44222 0.49921 0.87627 0.0
C502 C 0.48351 0.54012 0.69895 0.0
C503 C 0.50463 0.53393 0.67566 0.0
C504 C 0.48292 0.53761 0.74054 0.0
C505 C 0.5035 0.52891 0.76111 0.0
C506 C 0.5251 0.52312 0.73806 0.0
C507 C 0.52546 0.52533 0.69602 0.0
C508 C 0.52427 0.53318 0.87386 0.0
C509 C 0.49336 0.52074 0.8911 0.0
C510 C 0.52793 0.53511 0.83185 0.0
C511 C 0.50083 0.52488 0.80594 0.0
C512 C 0.47018 0.51143 0.82351 0.0
C513 C 0.46655 0.5094 0.86485 0.0
H514 H 0.55768 0.93161 0.86705 0.0
H515 H 0.46309 0.92188 0.89147 0.0
H516 H 0.54475 0.92529 0.79623 0.0
H517 H 0.4507 0.91688 0.82087 0.0
H518 H 0.42673 0.88288 0.69446 0.0
H519 H 0.43981 0.88337 0.76456 0.0
H520 H 0.53697 0.95385 0.74315 0.0
H521 H 0.52432 0.95241 0.67283 0.0
C522 C 0.5341 0.92797 0.85739 0.0
C523 C 0.51153 0.92748 0.88498 0.0
C524 C 0.5268 0.92467 0.81675 0.0
C525 C 0.49673 0.92071 0.80282 0.0
C526 C 0.47396 0.91958 0.83052 0.0
C527 C 0.48125 0.92288 0.87105 0.0
C528 C 0.45101 0.89816 0.70452 0.0
C529 C 0.47438 0.91773 0.67788 0.0
C530 C 0.45843 0.89868 0.74485 0.0
C531 C 0.4894 0.91878 0.75956 0.0
C532 C 0.51296 0.93789 0.73281 0.0
C533 C 0.50555 0.93736 0.69249 0.0
H534 H 0.73388 0.81694 0.71097 0.0
H535 H 0.74313 0.90693 0.72322 0.0
H536 H 0.75106 0.82752 0.64212 0.0
H537 H 0.75919 0.91711 0.6541 0.0
H538 H 0.81278 0.93526 0.53722 0.0
H539 H 0.80269 0.92506 0.60809 0.0
H540 H 0.72821 0.83413 0.58024 0.0
H541 H 0.73897 0.84403 0.5099 0.0
C542 C 0.73971 0.83901 0.69908 0.0
C543 C 0.73687 0.86097 0.72259 0.0
C544 C 0.74931 0.845 0.65951 0.0
C545 C 0.7564 0.87314 0.64256 0.0
C546 C 0.7542 0.89532 0.66631 0.0
C547 C 0.74453 0.8893 0.70582 0.0
C548 C 0.79464 0.91298 0.54634 0.0
C549 C 0.77649 0.89056 0.51793 0.0
C550 C 0.78862 0.90722 0.58687 0.0
C551 C 0.76451 0.87883 0.59981 0.0
C552 C 0.74712 0.85615 0.57137 0.0
C553 C 0.75303 0.86195 0.53098 0.0
H554 H 0.12323 0.88628 0.72512 0.0
H555 H 0.20895 0.97154 0.70619 0.0
H556 H 0.10938 0.88349 0.65491 0.0
H557 H 0.19466 0.96914 0.63588 0.0
H558 H 0.179 0.92999 0.50744 0.0
H559 H 0.19214 0.93732 0.57806 0.0
H560 H 0.09208 0.9088 0.60435 0.0
H561 H 0.07883 0.9008 0.53352 0.0
C562 C 0.13914 0.90443 0.70595 0.0
C563 C 0.16737 0.929 0.72115 0.0
C564 C 0.13097 0.90303 0.66581 0.0
C565 C 0.15091 0.9261 0.63986 0.0
C566 C 0.17894 0.9509 0.65511 0.0
C567 C 0.18701 0.9524 0.69539 0.0
C568 C 0.15981 0.92527 0.52828 0.0
C569 C 0.12782 0.91455 0.51494 0.0
C570 C 0.1674 0.9298 0.56872 0.0
C571 C 0.14313 0.92354 0.59678 0.0
C572 C 0.11124 0.91353 0.58342 0.0
C573 C 0.10369 0.90921 0.54288 0.0
H574 H 0.15207 0.39118 0.50361 0.0
H575 H 0.1349 0.2983 0.50179 0.0
H576 H 0.14833 0.38963 0.57627 0.0
H577 H 0.13101 0.29662 0.57409 0.0
H578 H 0.09945 0.29784 0.70222 0.0
H579 H 0.09551 0.3005 0.62989 0.0
H580 H 0.18514 0.38438 0.63005 0.0
H581 H 0.18904 0.38163 0.70214 0.0
C582 C 0.14705 0.37037 0.51877 0.0
C583 C 0.14403 0.34495 0.49732 0.0
C584 C 0.14507 0.36951 0.56018 0.0
C585 C 0.13941 0.34301 0.58065 0.0
C586 C 0.13516 0.31725 0.55901 0.0
C587 C 0.13768 0.31829 0.51776 0.0
C588 C 0.11803 0.31697 0.68674 0.0
C589 C 0.14467 0.33938 0.70757 0.0
C590 C 0.11587 0.31843 0.64548 0.0
C591 C 0.14003 0.34265 0.62452 0.0
C592 C 0.16607 0.36561 0.64555 0.0
C593 C 0.16848 0.36387 0.68666 0.0
H594 H 0.73849 0.87281 0.21469 0.0
H595 H 0.78448 0.97087 0.20825 0.0
H596 H 0.73127 0.86928 0.14334 0.0
H597 H 0.77794 0.96706 0.13607 0.0
H598 H 0.79278 0.94055 1.00567 0.0
H599 H 0.79881 0.94827 0.07766 0.0
H600 H 0.69922 0.881 0.09218 0.0
H601 H 0.69333 0.87309 0.0204 0.0
C602 C 0.74679 0.89369 0.19834 0.0
C603 C 0.76177 0.92218 0.21771 0.0
C604 C 0.74268 0.89158 0.15723 0.0
C605 C 0.75376 0.91787 0.1342 0.0
C606 C 0.76924 0.94641 0.15317 0.0
C607 C 0.77306 0.94856 0.19453 0.0
C608 C 0.7722 0.92752 0.02429 0.0
C609 C 0.74263 0.90611 1.00745 0.0
C610 C 0.77556 0.93213 0.0654 0.0
C611 C 0.74953 0.91513 0.09047 0.0
C612 C 0.71977 0.89425 0.07355 0.0
C613 C 0.71631 0.8899 0.03246 0.0
H614 H 0.10435 0.92236 1.01873 0.0
H615 H 0.14289 0.85882 1.01508 0.0
H616 H 0.0913 0.91071 0.08819 0.0
H617 H 0.12802 0.846 0.08347 0.0
H618 H 0.13965 0.86226 0.21674 0.0
H619 H 0.14734 0.8695 0.14596 0.0
H620 H 0.05753 0.87333 0.1354 0.0
H621 H 0.05073 0.86772 0.20723 0.0
C622 C 0.10993 0.90581 0.03237 0.0
C623 C 0.12519 0.89195 1.01085 0.0
C624 C 0.10195 0.89879 0.07224 0.0
C625 C 0.1088 0.87756 0.09158 0.0
C626 C 0.12293 0.8629 0.06976 0.0
C627 C 0.13117 0.87009 0.0301 0.0
C628 C 0.1216 0.86486 0.19953 0.0
C629 C 0.09478 0.86483 0.21789 0.0
C630 C 0.12577 0.86856 0.15867 0.0
C631 C 0.10306 0.872 0.13484 0.0
C632 C 0.0757 0.87111 0.15295 0.0
C633 C 0.0716 0.86754 0.19406 0.0
H634 H 0.12704 0.30362 1.00834 0.0
H635 H 0.23039 0.34124 0.9999 0.0
H636 H 0.13255 0.31503 0.07988 0.0
H637 H 0.23592 0.35217 0.0713 0.0
H638 H 0.22051 0.32827 0.20715 0.0
H639 H 0.21543 0.31754 0.13569 0.0
H640 H 0.16209 0.36768 0.12221 0.0
H641 H 0.16773 0.37885 0.19382 0.0
C642 C 0.15082 0.31395 0.02197 0.0
C643 C 0.17831 0.32154 0.99889 0.0
C644 C 0.15401 0.32073 0.06261 0.0
C645 C 0.18467 0.33457 0.08081 0.0
C646 C 0.21205 0.34147 0.05787 0.0
C647 C 0.20891 0.33529 1.01719 0.0
C648 C 0.20792 0.33712 0.18877 0.0
C649 C 0.19459 0.35442 0.20571 0.0
C650 C 0.20506 0.33105 0.14806 0.0
C651 C 0.18823 0.34166 0.12372 0.0
C652 C 0.17498 0.3591 0.14056 0.0
C653 C 0.17846 0.36572 0.18124 0.0
H654 H 0.41489 0.22612 0.04857 0.0
H655 H 0.43333 0.14961 0.03322 0.0
H656 H 0.42575 0.2382 0.97884 0.0
H657 H 0.44583 0.16269 0.96372 0.0
H658 H 0.42809 0.1748 0.83206 0.0
H659 H 0.41962 0.16232 0.9021 0.0
H660 H 0.46924 0.25791 0.93239 0.0
H661 H 0.47626 0.27043 0.86233 0.0
C662 C 0.42118 0.21178 0.03041 0.0
C663 C 0.42304 0.18674 0.04668 0.0
C664 C 0.42793 0.21903 0.99042 0.0
C665 C 0.43686 0.20153 0.96565 0.0
C666 C 0.43877 0.17651 0.98186 0.0
C667 C 0.43191 0.16919 0.02187 0.0
C668 C 0.4371 0.19319 0.85359 0.0
C669 C 0.45256 0.22366 0.84133 0.0
C670 C 0.43256 0.18601 0.89386 0.0
C671 C 0.44352 0.20911 0.92293 0.0
C672 C 0.45999 0.23955 0.91076 0.0
C673 C 0.46442 0.24673 0.87049 0.0
H674 H 0.8498 0.2633 0.82136 0.0
H675 H 0.85638 0.18048 0.80872 0.0
H676 H 0.85708 0.26275 0.89274 0.0
H677 H 0.86382 0.17976 0.8813 0.0
H678 H 0.83642 0.17322 1.01893 0.0
H679 H 0.83489 0.17224 0.94598 0.0
H680 H 0.89419 0.2695 0.9451 0.0
H681 H 0.89593 0.27054 1.01691 0.0
C682 C 0.85367 0.24527 0.83376 0.0
C683 C 0.85323 0.22237 0.80867 0.0
C684 C 0.85781 0.24489 0.87511 0.0
C685 C 0.86118 0.22125 0.89369 0.0
C686 C 0.86119 0.19836 0.86858 0.0
C687 C 0.85749 0.19902 0.8267 0.0
C688 C 0.84938 0.19441 1.0033 0.0
C689 C 0.86582 0.22202 0.02485 0.0
C690 C 0.84857 0.19384 0.96111 0.0
C691 C 0.86404 0.22085 0.93885 0.0
C692 C 0.88123 0.24819 0.96053 0.0
C693 C 0.88216 0.24876 1.00234 0.0
H694 H 0.85922 0.62021 0.0539 0.0
H695 H 0.76072 0.60194 0.03426 0.0
H696 H 0.86294 0.60815 0.98481 0.0
H697 H 0.76419 0.58909 0.96492 0.0
H698 H 0.80192 0.61081 0.83545 0.0
H699 H 0.79322 0.61701 0.90531 0.0
H700 H 0.84155 0.56484 0.93753 0.0
H701 H 0.85094 0.55928 0.86733 0.0
C702 C 0.83835 0.61367 0.03484 0.0
C703 C 0.80975 0.6123 0.04957 0.0
C704 C 0.84035 0.60633 0.99532 0.0
C705 C 0.81383 0.59755 0.96945 0.0
C706 C 0.78509 0.59594 0.98414 0.0
C707 C 0.78303 0.60312 0.02385 0.0
C708 C 0.81069 0.60067 0.85743 0.0
C709 C 0.82749 0.58489 0.84595 0.0
C710 C 0.80536 0.60391 0.89744 0.0
C711 C 0.81684 0.59155 0.92692 0.0
C712 C 0.83274 0.57491 0.91544 0.0
C713 C 0.83788 0.57149 0.87531 0.0
H714 H 0.48522 0.22075 0.34358 0.0
H715 H 0.40128 0.23496 0.34127 0.0
H716 H 0.49267 0.23349 0.41404 0.0
H717 H 0.40788 0.24634 0.41199 0.0
H718 H 0.44285 0.29131 0.53084 0.0
H719 H 0.44264 0.2844 0.4594 0.0
H720 H 0.46705 0.21184 0.47629 0.0
H721 H 0.46874 0.21968 0.54779 0.0
C722 C 0.46841 0.22668 0.35798 0.0
C723 C 0.44261 0.22678 0.33661 0.0
C724 C 0.4725 0.23368 0.39852 0.0
C725 C 0.4509 0.24096 0.41869 0.0
C726 C 0.42524 0.24125 0.39729 0.0
C727 C 0.42117 0.23428 0.35677 0.0
C728 C 0.44892 0.27435 0.51945 0.0
C729 C 0.45559 0.2559 0.54527 0.0
C730 C 0.44835 0.27011 0.47839 0.0
C731 C 0.45439 0.2473 0.4621 0.0
C732 C 0.4624 0.22971 0.48779 0.0
C733 C 0.46305 0.234 0.52887 0.0
H734 H 0.87794 0.19198 0.34539 0.0
H735 H 0.81447 0.2323 0.34953 0.0
H736 H 0.87594 0.18802 0.4184 0.0
H737 H 0.81287 0.22877 0.42127 0.0
H738 H 0.78254 0.18737 0.54112 0.0
H739 H 0.78925 0.18909 0.47006 0.0
H740 H 0.89085 0.21818 0.48568 0.0
H741 H 0.88404 0.21649 0.55863 0.0
C742 C 0.86354 0.19998 0.3616 0.0
C743 C 0.84637 0.2125 0.34081 0.0
C744 C 0.86264 0.19796 0.40371 0.0
C745 C 0.84408 0.2079 0.42641 0.0
C746 C 0.82717 0.22047 0.4054 0.0
C747 C 0.82833 0.22277 0.36376 0.0
C748 C 0.80652 0.1941 0.52996 0.0
C749 C 0.83276 0.20209 0.55651 0.0
C750 C 0.81037 0.19522 0.48863 0.0
C751 C 0.84071 0.20436 0.47133 0.0
C752 C 0.86702 0.21107 0.49756 0.0
C753 C 0.86314 0.21006 0.53957 0.0
H754 H 0.86972 0.64456 0.54739 0.0
H755 H 0.88014 0.56337 0.53522 0.0
H756 H 0.86342 0.64583 0.47629 0.0
H757 H 0.8756 0.5656 0.46314 0.0
H758 H 0.82418 0.55923 0.34311 0.0
H759 H 0.83527 0.55771 0.41321 0.0
H760 H 0.8916 0.65551 0.41578 0.0
H761 H 0.87911 0.65738 0.34663 0.0
C762 C 0.87078 0.62698 0.52955 0.0
C763 C 0.87499 0.6036 0.54722 0.0
C764 C 0.86768 0.62799 0.48854 0.0
C765 C 0.86904 0.60584 0.46386 0.0
C766 C 0.87406 0.58283 0.48133 0.0
C767 C 0.87703 0.58173 0.5226 0.0
C768 C 0.83874 0.58051 0.35843 0.0
C769 C 0.85026 0.60847 0.33867 0.0
C770 C 0.8455 0.57955 0.39873 0.0
C771 C 0.86414 0.6065 0.42029 0.0
C772 C 0.87663 0.63432 0.40031 0.0
C773 C 0.86966 0.63533 0.36021 0.0
H774 H 0.14128 0.53304 0.95637 0.0
H775 H 0.11175 0.45347 0.02874 0.0
H776 H 0.17756 0.51915 0.91959 0.0
H777 H 0.14727 0.43948 0.99237 0.0
H778 H 0.21862 0.42066 0.93177 0.0
H779 H 0.20088 0.44947 0.97451 0.0
H780 H 0.16827 0.47886 0.8715 0.0
H781 H 0.1866 0.45068 0.82879 0.0
C782 C 0.14326 0.51313 0.96517 0.0
C783 C 0.12365 0.49433 0.9954 0.0
C784 C 0.16375 0.50496 0.94387 0.0
C785 C 0.16531 0.47805 0.95278 0.0
C786 C 0.14717 0.46051 0.98481 0.0
C787 C 0.12658 0.46846 1.00563 0.0
C788 C 0.2085 0.43393 0.91811 0.0
C789 C 0.20371 0.43296 0.87676 0.0
C790 C 0.19806 0.45031 0.9427 0.0
C791 C 0.18259 0.46616 0.92661 0.0
C792 C 0.18018 0.46712 0.88507 0.0
C793 C 0.19058 0.45074 0.86049 0.0
H794 H 0.59642 0.7783 0.86252 0.0
H795 H 0.64165 0.79257 0.97802 0.0
H796 H 0.55446 0.72796 0.8835 0.0
H797 H 0.5997 0.74302 0.99914 0.0
H798 H 0.50505 0.6615 0.0345 0.0
H799 H 0.53846 0.71343 1.01122 0.0
H800 H 0.55719 0.67824 0.90288 0.0
H801 H 0.524 0.62628 0.92637 0.0
C802 C 0.59693 0.77102 0.89261 0.0
C803 C 0.62227 0.78938 0.91865 0.0
C804 C 0.57311 0.74215 0.90453 0.0
C805 C 0.57377 0.73149 0.943 0.0
C806 C 0.5983 0.75059 0.96946 0.0
C807 C 0.62239 0.77897 0.95731 0.0
C808 C 0.51587 0.66484 1.00548 0.0
C809 C 0.51199 0.63975 0.98238 0.0
C810 C 0.53514 0.69458 0.99221 0.0
C811 C 0.55048 0.69997 0.95519 0.0
C812 C 0.5455 0.67487 0.93138 0.0
C813 C 0.52673 0.64513 0.94497 0.0
H814 H 0.28798 0.96644 0.91092 0.0
H815 H 0.24866 0.86927 0.92055 0.0
H816 H 0.33953 0.97366 0.93669 0.0
H817 H 0.29994 0.87639 0.94841 0.0
H818 H 0.4034 0.89532 0.9634 0.0
H819 H 0.35296 0.88909 0.93559 0.0
H820 H 0.36897 0.97318 0.99199 0.0
H821 H 0.42076 0.98005 1.01832 0.0
C822 C 0.29029 0.94652 0.91881 0.0
C823 C 0.26409 0.91722 0.91352 0.0
C824 C 0.31995 0.95071 0.93404 0.0
C825 C 0.32434 0.92574 0.94509 0.0
C826 C 0.298 0.89632 0.93971 0.0
C827 C 0.26839 0.89212 0.92384 0.0
C828 C 0.39624 0.91257 0.96993 0.0
C829 C 0.41616 0.93816 0.99334 0.0
C830 C 0.36697 0.90884 0.95413 0.0
C831 C 0.35622 0.93034 0.96166 0.0
C832 C 0.37636 0.95619 0.98492 0.0
C833 C 0.40608 0.96017 1.00028 0.0
H834 H 0.41996 0.99646 0.62833 0.0
H835 H 0.47808 0.05184 0.5325 0.0
H836 H 0.40702 0.03647 0.648 0.0
H837 H 0.46469 0.09217 0.55213 0.0
H838 H 0.39648 0.13631 0.57198 0.0
H839 H 0.41341 0.09856 0.55315 0.0
H840 H 0.43372 0.08969 0.67601 0.0
H841 H 0.41711 0.12767 0.6949 0.0
C842 C 0.4302 0.01734 0.61156 0.0
C843 C 0.45008 0.0209 0.57877 0.0
C844 C 0.42284 0.04035 0.623 0.0
C845 C 0.43469 0.06752 0.60162 0.0
C846 C 0.45497 0.07139 0.56906 0.0
C847 C 0.46287 0.04844 0.558 0.0
C848 C 0.4043 0.12615 0.59508 0.0
C849 C 0.40513 0.1349 0.63506 0.0
C850 C 0.41439 0.10477 0.58417 0.0
C851 C 0.4251 0.09119 0.613 0.0
C852 C 0.42551 0.09962 0.65304 0.0
C853 C 0.41592 0.12136 0.66389 0.0
H854 H 0.91052 0.32543 0.65538 0.0
H855 H 0.82588 0.33333 0.62181 0.0
H856 H 0.94455 0.3732 0.62309 0.0
H857 H 0.86038 0.38179 0.58956 0.0
H858 H 0.94474 0.48395 0.571 0.0
H859 H 0.90471 0.43653 0.60182 0.0
H860 H 0.95417 0.38958 0.55371 0.0
H861 H 0.99369 0.43629 0.52365 0.0
C862 C 0.89905 0.3372 0.64094 0.0
C863 C 0.86526 0.32502 0.64077 0.0
C864 C 0.91866 0.36475 0.6224 0.0
C865 C 0.90521 0.38117 0.6031 0.0
C866 C 0.87153 0.36975 0.60416 0.0
C867 C 0.85176 0.34195 0.6227 0.0
C868 C 0.94656 0.46331 0.56645 0.0
C869 C 0.97261 0.46399 0.54523 0.0
C870 C 0.92373 0.43618 0.58417 0.0
C871 C 0.92666 0.40938 0.58099 0.0
C872 C 0.95163 0.40991 0.55773 0.0
C873 C 0.97423 0.43675 0.54024 0.0
H874 H 0.77625 0.65885 0.61302 0.0
H875 H 0.75541 0.5725 0.66428 0.0
H876 H 0.72341 0.63547 0.58069 0.0
H877 H 0.70321 0.54872 0.63053 0.0
H878 H 0.59835 0.52109 0.59114 0.0
H879 H 0.65052 0.54224 0.62572 0.0
H880 H 0.6948 0.60358 0.5282 0.0
H881 H 0.64257 0.58341 0.49502 0.0
C882 C 0.76039 0.63486 0.61742 0.0
C883 C 0.77021 0.61766 0.64133 0.0
C884 C 0.7301 0.62125 0.59845 0.0
C885 C 0.70886 0.5899 0.60229 0.0
C886 C 0.7185 0.57288 0.62697 0.0
C887 C 0.74864 0.58658 0.64634 0.0
C888 C 0.61943 0.53866 0.57686 0.0
C889 C 0.61635 0.55055 0.54034 0.0
C890 C 0.64943 0.55095 0.59673 0.0
C891 C 0.67712 0.57517 0.58029 0.0
C892 C 0.67408 0.58572 0.54264 0.0
C893 C 0.64413 0.57382 0.52321 0.0
H894 H 0.95743 0.66445 0.19618 0.0
H895 H 0.90043 0.616 0.09395 0.0
H896 H 1.00175 0.65526 0.17289 0.0
H897 H 0.94442 0.60756 0.07023 0.0
H898 H 0.0283 0.5989 0.02738 0.0
H899 H 1.00227 0.62969 0.04653 0.0
H900 H 1.00215 0.60419 0.16873 0.0
H901 H 0.02749 0.57325 0.14943 0.0
C902 C 0.95487 0.65289 0.16805 0.0
C903 C 0.92558 0.64103 0.14676 0.0
C904 C 0.9801 0.64747 0.1548 0.0
C905 C 0.97667 0.63071 0.11961 0.0
C906 C 0.94816 0.6209 0.09707 0.0
C907 C 0.92285 0.62566 0.11074 0.0
C908 C 0.02402 0.60106 0.0585 0.0
C909 C 0.03011 0.58391 0.08699 0.0
C910 C 1.00882 0.61841 0.06946 0.0
C911 C 0.99993 0.61926 0.10917 0.0
C912 C 1.00891 0.60436 0.13803 0.0
C913 C 0.02347 0.58661 0.12698 0.0
H914 H 0.45447 0.30409 0.15826 0.0
H915 H 0.35095 0.2569 0.1419 0.0
H916 H 0.45702 0.34889 0.12771 0.0
H917 H 0.35362 0.30241 0.11026 0.0
H918 H 0.37495 0.40437 0.09064 0.0
H919 H 0.36656 0.35673 0.12109 0.0
H920 H 0.4512 0.36415 0.06187 0.0
H921 H 0.45957 0.41144 0.03186 0.0
C922 C 0.43211 0.3032 0.14809 0.0
C923 C 0.4025 0.27662 0.15231 0.0
C924 C 0.43364 0.329 0.13022 0.0
C925 C 0.40565 0.32924 0.11569 0.0
C926 C 0.37571 0.30305 0.12106 0.0
C927 C 0.37415 0.27696 0.13916 0.0
C928 C 0.39152 0.39563 0.08375 0.0
C929 C 0.41827 0.41212 0.05917 0.0
C930 C 0.38668 0.36826 0.10123 0.0
C931 C 0.40848 0.35675 0.09456 0.0
C932 C 0.43436 0.37265 0.06863 0.0
C933 C 0.4392 0.39987 0.05133 0.0
H934 H 0.73264 0.16392 0.17506 0.0
H935 H 0.76542 0.10045 0.13666 0.0
H936 H 0.67808 0.12884 0.15374 0.0
H937 H 0.71 0.06479 0.11521 0.0
H938 H 0.61276 0.02653 0.04204 0.0
H939 H 0.66849 0.06012 0.06352 0.0
H940 H 0.63339 0.07994 0.17198 0.0
H941 H 0.57804 0.04674 0.15061 0.0
C942 C 0.72819 0.1423 0.16228 0.0
C943 C 0.75358 0.13506 0.1577 0.0
C944 C 0.69671 0.12206 0.15016 0.0
C945 C 0.68946 0.09389 0.13273 0.0
C946 C 0.71475 0.0864 0.12824 0.0
C947 C 0.74645 0.10668 0.14086 0.0
C948 C 0.61694 0.03828 0.07031 0.0
C949 C 0.59075 0.03403 0.09441 0.0
C950 C 0.64894 0.05727 0.08283 0.0
C951 C 0.65555 0.07276 0.11955 0.0
C952 C 0.62931 0.06866 0.14337 0.0
C953 C 0.59746 0.04954 0.13108 0.0
H954 H 0.53025 0.88742 0.50923 0.0
H955 H 0.5774 0.9812 0.47297 0.0
H956 H 0.57343 0.88014 0.48081 0.0
H957 H 0.62061 0.9737 0.44313 0.0
H958 H 0.70856 0.9579 0.43038 0.0
H959 H 0.66544 0.96583 0.4575 0.0
H960 H 0.59601 0.87505 0.42059 0.0
H961 H 0.63978 0.86674 0.39438 0.0
C962 C 0.54987 0.90658 0.49503 0.0
C963 C 0.5503 0.93497 0.49349 0.0
C964 C 0.5746 0.90226 0.47829 0.0
C965 C 0.60057 0.92614 0.45914 0.0
C966 C 0.60124 0.95476 0.45794 0.0
C967 C 0.57645 0.95914 0.47504 0.0
C968 C 0.68411 0.93952 0.42788 0.0
C969 C 0.67776 0.91156 0.41018 0.0
C970 C 0.65921 0.94423 0.44328 0.0
C971 C 0.627 0.92121 0.44135 0.0
C972 C 0.62053 0.89326 0.42324 0.0
C973 C 0.6456 0.88846 0.40796 0.0
H974 H 0.0237 0.63069 0.47054 0.0
H975 H 0.12654 0.66317 0.4795 0.0
H976 H 0.03363 0.68076 0.44738 0.0
H977 H 0.13644 0.71302 0.45795 0.0
H978 H 0.14624 0.79323 0.38402 0.0
H979 H 0.13563 0.74226 0.40391 0.0
H980 H 0.0514 0.73138 0.46785 0.0
H981 H 0.06137 0.78144 0.44692 0.0
C982 C 0.04837 0.64851 0.46786 0.0
C983 C 0.07422 0.64274 0.47687 0.0
C984 C 0.05416 0.67735 0.45472 0.0
C985 C 0.08597 0.70124 0.45057 0.0
C986 C 0.11167 0.6953 0.45986 0.0
C987 C 0.1059 0.66657 0.47263 0.0
C988 C 0.12554 0.77993 0.40239 0.0
C989 C 0.10469 0.79152 0.41372 0.0
C990 C 0.11942 0.75066 0.41397 0.0
C991 C 0.09244 0.73233 0.43748 0.0
C992 C 0.07195 0.74427 0.44909 0.0
C993 C 0.0779 0.77327 0.4373 0.0
H994 H 0.30919 0.36268 0.3374 0.0
H995 H 0.25416 0.33777 0.44551 0.0
H996 H 0.35894 0.3892 0.37593 0.0
H997 H 0.30415 0.3639 0.48422 0.0
H998 H 0.39056 0.45455 0.52797 0.0
H999 H 0.34164 0.41661 0.49576 0.0
H1000 H 0.39835 0.38851 0.42283 0.0
H1001 H 0.44784 0.42719 0.45518 0.0
C1002 C 0.30769 0.36227 0.36947 0.0
C1003 C 0.27746 0.34826 0.38822 0.0
C1004 C 0.33639 0.3774 0.39166 0.0
C1005 C 0.33576 0.37908 0.43332 0.0
C1006 C 0.30564 0.36356 0.45218 0.0
C1007 C 0.2769 0.34833 0.42996 0.0
C1008 C 0.39267 0.43994 0.50557 0.0
C1009 C 0.42322 0.44405 0.49411 0.0
C1010 C 0.36445 0.41794 0.48717 0.0
C1011 C 0.3658 0.39942 0.45642 0.0
C1012 C 0.39632 0.40255 0.44611 0.0
C1013 C 0.42471 0.42451 0.46491 0.0
H1014 H 0.76058 0.67991 0.2441 0.0
H1015 H 0.86198 0.74471 0.24631 0.0
H1016 H 0.74742 0.71861 0.26829 0.0
H1017 H 0.849 0.78343 0.27238 0.0
H1018 H 0.81569 0.8546 0.28261 0.0
H1019 H 0.8274 0.81548 0.25675 0.0
H1020 H 0.74732 0.74784 0.32259 0.0
H1021 H 0.73477 0.78735 0.34718 0.0
C1022 C 0.78019 0.70246 0.25005 0.0
C1023 C 0.81242 0.70916 0.24312 0.0
C1024 C 0.77259 0.72471 0.26433 0.0
C1025 C 0.79699 0.75439 0.27262 0.0
C1026 C 0.82934 0.76107 0.26578 0.0
C1027 C 0.83692 0.73881 0.25097 0.0
C1028 C 0.80042 0.83134 0.29152 0.0
C1029 C 0.7743 0.82416 0.31714 0.0
C1030 C 0.80738 0.80882 0.27689 0.0
C1031 C 0.78872 0.77828 0.28777 0.0
C1032 C 0.76217 0.77097 0.31303 0.0
C1033 C 0.75491 0.79362 0.32732 0.0
H1034 H 0.28873 0.12004 0.24848 0.0
H1035 H 0.35261 0.08014 0.24229 0.0
H1036 H 0.24666 0.07281 0.27586 0.0
H1037 H 0.31046 0.03272 0.26773 0.0
H1038 H 0.23797 0.95893 0.34834 0.0
H1039 H 0.2809 1.00673 0.32297 0.0
H1040 H 0.20943 0.02286 0.26131 0.0
H1041 H 0.16705 0.97627 0.28798 0.0
C1042 C 0.29367 0.1011 0.25253 0.0
C1043 C 0.3241 0.104 0.24319 0.0
C1044 C 0.26948 0.07383 0.2681 0.0
C1045 C 0.27489 0.04856 0.27422 0.0
C1046 C 0.30533 0.05159 0.2644 0.0
C1047 C 0.32954 0.07888 0.24938 0.0
C1048 C 0.23158 0.97273 0.32929 0.0
C1049 C 0.19905 0.9638 0.32048 0.0
C1050 C 0.25619 1.00017 0.31453 0.0
C1051 C 0.24888 0.01915 0.29013 0.0
C1052 C 0.21626 1.0096 0.28074 0.0
C1053 C 0.19182 0.98255 0.29585 0.0
H1054 H 0.11514 0.25878 0.27198 0.0
H1055 H 0.05496 0.23795 0.37554 0.0
H1056 H 0.06692 0.23531 0.22976 0.0
H1057 H 1.00694 0.21521 0.33343 0.0
H1058 H 0.92195 0.16761 0.25037 0.0
H1059 H 0.97084 0.17641 0.28739 0.0
H1060 H 0.02805 0.25111 0.2101 0.0
H1061 H 0.97972 0.24201 0.17322 0.0
C1062 C 0.09168 0.24866 0.28588 0.0
C1063 C 0.08908 0.25058 0.32726 0.0
C1064 C 0.06394 0.2354 0.26159 0.0
C1065 C 0.03284 0.22367 0.27799 0.0
C1066 C 0.03031 0.22375 0.31957 0.0
C1067 C 0.058 0.23701 0.34382 0.0
C1068 C 0.94512 0.18531 0.24068 0.0
C1069 C 0.94688 0.20414 0.20888 0.0
C1070 C 0.97315 0.19061 0.26216 0.0
C1071 C 1.00357 0.21467 0.25205 0.0
C1072 C 1.00532 0.23218 0.21868 0.0
C1073 C 0.97744 0.22705 0.19756 0.0
H1074 H 0.35381 0.25941 0.69563 0.0
H1075 H 0.31896 0.1995 0.79608 0.0
H1076 H 0.3282 0.28862 0.72143 0.0
H1077 H 0.29291 0.2282 0.82134 0.0
H1078 H 0.28504 0.30546 0.8821 0.0
H1079 H 0.30918 0.27667 0.85209 0.0
H1080 H 0.27812 0.28972 0.7362 0.0
H1081 H 0.25433 0.31922 0.76638 0.0
C1082 C 0.3402 0.25209 0.72282 0.0
C1083 C 0.33867 0.22711 0.74383 0.0
C1084 C 0.32547 0.26888 0.73765 0.0
C1085 C 0.30884 0.26117 0.77389 0.0
C1086 C 0.30615 0.23537 0.79388 0.0
C1087 C 0.32087 0.21865 0.77913 0.0
C1088 C 0.28351 0.30246 0.85017 0.0
C1089 C 0.26761 0.31471 0.82677 0.0
C1090 C 0.29713 0.28561 0.83292 0.0
C1091 C 0.29526 0.28033 0.79167 0.0
C1092 C 0.28019 0.29334 0.76803 0.0
C1093 C 0.26651 0.31029 0.78536 0.0
H1094 H 0.78564 0.11912 0.78011 0.0
H1095 H 0.7054 0.07611 0.69813 0.0
H1096 H 0.77116 0.07026 0.81017 0.0
H1097 H 0.69087 0.0267 0.72826 0.0
H1098 H 0.66439 0.94495 0.81591 0.0
H1099 H 0.67212 0.99388 0.78947 0.0
H1100 H 0.77507 0.02614 0.78728 0.0
H1101 H 0.76762 0.97845 0.81362 0.0
C1102 C 0.76491 0.09919 0.76839 0.0
C1103 C 0.74709 0.10154 0.73616 0.0
C1104 C 0.75653 0.0711 0.7857 0.0
C1105 C 0.73014 0.04436 0.77123 0.0
C1106 C 0.71127 0.04681 0.74023 0.0
C1107 C 0.71964 0.07512 0.72291 0.0
C1108 C 0.68861 0.96261 0.80985 0.0
C1109 C 0.71534 0.95771 0.81723 0.0
C1110 C 0.69304 0.99056 0.79456 0.0
C1111 C 0.72429 1.01417 0.78673 0.0
C1112 C 0.75073 1.00889 0.79376 0.0
C1113 C 0.74635 0.98124 0.80873 0.0
H1114 H 0.09662 0.78894 0.83767 0.0
H1115 H 0.05692 0.84709 0.79959 0.0
H1116 H 0.04941 0.74497 0.80979 0.0
H1117 H 1.0107 0.80374 0.77048 0.0
H1118 H 0.91589 0.71561 0.75362 0.0
H1119 H 0.96234 0.75964 0.78293 0.0
H1120 H 0.02399 0.72061 0.7505 0.0
H1121 H 0.97766 0.67653 0.72293 0.0
C1122 C 0.07797 0.79238 0.82311 0.0
C1123 C 0.08061 0.82157 0.82108 0.0
C1124 C 0.05088 0.76718 0.80685 0.0
C1125 C 0.0259 0.77056 0.78769 0.0
C1126 C 0.02886 0.79989 0.78555 0.0
C1127 C 0.05566 0.82492 0.80212 0.0
C1128 C 0.93943 0.71663 0.75258 0.0
C1129 C 0.94295 0.69246 0.73604 0.0
C1130 C 0.96619 0.74191 0.76934 0.0
C1131 C 0.99719 0.74381 0.76956 0.0
C1132 C 1.0006 0.71986 0.75199 0.0
C1133 C 0.97392 0.69458 0.73574 0.0
loop_
_geom_bond_atom_site_label_1
_geom_bond_atom_site_label_2
_geom_bond_distance
_geom_bond_site_symmetry_2
_ccdc_geom_bond_type
Cu0 N1 1.999 1_554 S
Cu0 O6 1.974 1_554 S
Cu0 N11 1.985 . S
Cu0 O20 1.959 . S
N1 Cu0 1.999 1_556 S
N1 C3 1.263 . S
N1 C5 1.389 . S
N2 C3 1.358 . S
N2 C4 1.400 . S
C3 N1 1.263 . S
C3 N2 1.358 . S
C3 H9 0.930 . S
C4 N2 1.400 . S
C4 C5 1.351 . S
C4 H21 0.930 . S
C5 N1 1.389 . S
C5 C4 1.351 . S
C5 H10 0.930 . S
O6 Cu0 1.974 1_556 S
O6 C16 1.282 . S
C7 O8 1.261 . S
C7 O20 1.251 1_655 S
O8 C7 1.261 . S
H9 C3 0.930 . S
H10 C5 0.930 . S
N11 Cu0 1.985 . S
N11 C13 1.335 . S
N11 C14 1.390 . S
N12 C13 1.345 . S
N12 C15 1.336 . S
C13 N11 1.335 . S
C13 N12 1.345 . S
C13 H18 0.930 . S
C14 N11 1.390 . S
C14 C15 1.346 . S
C14 H19 0.930 . S
C15 N12 1.336 . S
C15 C14 1.346 . S
C15 H22 0.929 . S
C16 O6 1.282 . S
C16 O17 1.216 . S
O17 C16 1.216 . S
H18 C13 0.930 . S
H19 C14 0.930 . S
O20 Cu0 1.959 . S
O20 C7 1.251 1_455 S
H21 C4 0.930 . S
H22 C15 0.929 . S
Cu23 N24 1.999 . S
Cu23 O29 1.974 . S
Cu23 N34 1.985 . S
Cu23 O43 1.959 1_554 S
N24 Cu23 1.999 . S
N24 C26 1.263 . S
N24 C28 1.389 1_554 S
N25 C26 1.358 . S
N25 C27 1.400 . S
C26 N24 1.263 . S
C26 N25 1.358 . S
C26 H32 0.930 . S
C27 N25 1.400 . S
C27 C28 1.351 1_554 S
C27 H44 0.930 1_554 S
C28 N24 1.389 1_556 S
C28 C27 1.351 1_556 S
C28 H33 0.930 . S
O29 Cu23 1.974 . S
O29 C39 1.282 . S
C30 O31 1.261 . S
C30 O43 1.251 . S
O31 C30 1.261 . S
H32 C26 0.930 . S
H33 C28 0.930 . S
N34 Cu23 1.985 . S
N34 C36 1.335 1_554 S
N34 C37 1.390 . S
N35 C36 1.345 . S
N35 C38 1.336 1_556 S
C36 N34 1.335 1_556 S
C36 N35 1.345 . S
C36 H41 0.930 . S
C37 N34 1.390 . S
C37 C38 1.346 . S
C37 H42 0.930 . S
C38 N35 1.336 1_554 S
C38 C37 1.346 . S
C38 H45 0.929 . S
C39 O29 1.282 . S
C39 O40 1.216 . S
O40 C39 1.216 . S
H41 C36 0.930 . S
H42 C37 0.930 . S
O43 Cu23 1.959 1_556 S
O43 C30 1.251 . S
H44 C27 0.930 1_556 S
H45 C38 0.929 . S
Cu46 N47 1.999 1_554 S
Cu46 O52 1.974 1_544 S
Cu46 N57 1.985 . S
Cu46 O66 1.959 . S
N47 Cu46 1.999 1_556 S
N47 C49 1.263 . S
N47 C51 1.389 . S
N48 C49 1.358 . S
N48 C50 1.400 . S
C49 N47 1.263 . S
C49 N48 1.358 . S
C49 H55 0.930 . S
C50 N48 1.400 . S
C50 C51 1.351 . S
C50 H67 0.930 . S
C51 N47 1.389 . S
C51 C50 1.351 . S
C51 H56 0.930 . S
O52 Cu46 1.974 1_566 S
O52 C62 1.282 . S
C53 O54 1.261 . S
C53 O66 1.251 . S
O54 C53 1.261 . S
H55 C49 0.930 . S
H56 C51 0.930 . S
N57 Cu46 1.985 . S
N57 C59 1.335 . S
N57 C60 1.390 1_545 S
N58 C59 1.345 . S
N58 C61 1.350 1_545 S
C59 N57 1.335 . S
C59 N58 1.345 . S
C59 H64 0.930 . S
C60 N57 1.390 1_565 S
C60 C61 1.348 . S
C60 H65 0.930 . S
C61 N58 1.350 1_565 S
C61 C60 1.348 . S
C61 H68 0.918 . S
C62 O52 1.282 . S
C62 O63 1.216 1_565 S
O63 C62 1.216 1_545 S
H64 C59 0.930 . S
H65 C60 0.930 . S
O66 Cu46 1.959 . S
O66 C53 1.251 . S
H67 C50 0.930 . S
H68 C61 0.918 . S
Cu69 N70 1.999 . S
Cu69 O75 1.974 . S
Cu69 N80 1.985 . S
Cu69 O89 1.959 . S
N70 Cu69 1.999 . S
N70 C72 1.263 . S
N70 C74 1.389 . S
N71 C72 1.358 . S
N71 C73 1.400 . S
C72 N70 1.263 . S
C72 N71 1.358 . S
C72 H78 0.959 . S
C73 N71 1.400 . S
C73 C74 1.351 . S
C73 H90 0.930 . S
C74 N70 1.389 . S
C74 C73 1.351 . S
C74 H79 0.930 . S
O75 Cu69 1.974 . S
O75 C85 1.282 1_545 S
C76 O77 1.261 . S
C76 O89 1.251 . S
O77 C76 1.261 . S
H78 C72 0.959 . S
H79 C74 0.930 . S
N80 Cu69 1.985 . S
N80 C82 1.335 . S
N80 C83 1.390 1_545 S
N81 C82 1.345 . S
N81 C84 1.336 1_545 S
C82 N80 1.335 . S
C82 N81 1.345 . S
C82 H87 0.930 . S
C83 N80 1.390 1_565 S
C83 C84 1.346 . S
C83 H88 0.930 . S
C84 N81 1.336 1_565 S
C84 C83 1.346 . S
C84 H91 0.929 . S
C85 O75 1.282 1_565 S
C85 O86 1.216 . S
O86 C85 1.216 . S
H87 C82 0.930 . S
H88 C83 0.930 . S
O89 Cu69 1.959 . S
O89 C76 1.251 . S
H90 C73 0.930 . S
H91 C84 0.929 . S
Cu92 N93 1.999 . S
Cu92 O98 1.974 . S
Cu92 N103 1.985 . S
Cu92 O112 1.959 1_655 S
N93 Cu92 1.999 . S
N93 C95 1.263 . S
N93 C97 1.389 . S
N94 C95 1.358 . S
N94 C96 1.400 . S
C95 N93 1.263 . S
C95 N94 1.358 . S
C95 H101 0.930 1_655 S
C96 N94 1.400 . S
C96 C97 1.351 . S
C96 H113 0.930 . S
C97 N93 1.389 . S
C97 C96 1.351 . S
C97 H102 0.930 . S
O98 Cu92 1.974 . S
O98 C108 1.282 . S
C99 O100 1.261 . S
C99 O112 1.251 . S
O100 C99 1.261 . S
H101 C95 0.930 1_455 S
H102 C97 0.930 . S
N103 Cu92 1.985 . S
N103 C105 1.335 . S
N103 C106 1.390 . S
N104 C105 1.345 . S
N104 C107 1.336 . S
C105 N103 1.335 . S
C105 N104 1.345 . S
C105 H110 0.930 . S
C106 N103 1.390 . S
C106 C107 1.346 . S
C106 H111 0.930 . S
C107 N104 1.336 . S
C107 C106 1.346 . S
C107 H114 0.929 . S
C108 O98 1.282 . S
C108 O109 1.216 1_655 S
O109 C108 1.216 1_455 S
H110 C105 0.930 . S
H111 C106 0.930 . S
O112 Cu92 1.959 1_455 S
O112 C99 1.251 . S
H113 C96 0.930 . S
H114 C107 0.929 . S
Cu115 N116 1.999 . S
Cu115 O121 1.974 . S
Cu115 N126 1.985 . S
Cu115 O135 1.959 . S
N116 Cu115 1.999 . S
N116 C118 1.263 . S
N116 C120 1.389 . S
N117 C118 1.358 . S
N117 C119 1.400 . S
C118 N116 1.263 . S
C118 N117 1.358 . S
C118 H124 0.930 . S
C119 N117 1.400 . S
C119 C120 1.351 . S
C119 H136 0.930 . S
C120 N116 1.389 . S
C120 C119 1.351 . S
C120 H125 0.930 . S
O121 Cu115 1.974 . S
O121 C131 1.282 . S
C122 O123 1.261 . S
C122 O135 1.251 . S
O123 C122 1.261 . S
H124 C118 0.930 . S
H125 C120 0.930 . S
N126 Cu115 1.985 . S
N126 C128 1.335 . S
N126 C129 1.390 . S
N127 C128 1.345 . S
N127 C130 1.336 . S
C128 N126 1.335 . S
C128 N127 1.345 . S
C128 H133 0.930 . S
C129 N126 1.390 . S
C129 C130 1.346 . S
C129 H134 0.930 . S
C130 N127 1.336 . S
C130 C129 1.346 . S
C130 H137 0.929 . S
C131 O121 1.282 . S
C131 O132 1.216 . S
O132 C131 1.216 . S
H133 C128 0.930 . S
H134 C129 0.930 . S
O135 Cu115 1.959 . S
O135 C122 1.251 . S
H136 C119 0.930 . S
H137 C130 0.929 . S
Cu138 N139 1.999 . S
Cu138 O144 1.974 . S
Cu138 N149 1.985 . S
Cu138 O158 1.959 . S
N139 Cu138 1.999 . S
N139 C141 1.263 . S
N139 C143 1.389 . S
N140 C141 1.358 . S
N140 C142 1.400 . S
C141 N139 1.263 . S
C141 N140 1.358 . S
C141 H147 0.930 . S
C142 N140 1.400 . S
C142 C143 1.351 . S
C142 H159 0.930 . S
C143 N139 1.389 . S
C143 C142 1.351 . S
C143 H148 0.930 . S
O144 Cu138 1.974 . S
O144 C154 1.282 . S
C145 O146 1.261 . S
C145 O158 1.251 . S
O146 C145 1.261 . S
H147 C141 0.930 . S
H148 C143 0.930 . S
N149 Cu138 1.985 . S
N149 C151 1.335 . S
N149 C152 1.390 . S
N150 C151 1.345 . S
N150 C153 1.336 . S
C151 N149 1.335 . S
C151 N150 1.345 . S
C151 H156 0.930 . S
C152 N149 1.390 . S
C152 C153 1.346 . S
C152 H157 0.930 . S
C153 N150 1.336 . S
C153 C152 1.346 . S
C153 H160 0.929 . S
C154 O144 1.282 . S
C154 O155 1.216 . S
O155 C154 1.216 . S
H156 C151 0.930 . S
H157 C152 0.930 . S
O158 Cu138 1.959 . S
O158 C145 1.251 . S
H159 C142 0.930 . S
H160 C153 0.929 . S
Cu161 N162 1.999 . S
Cu161 O167 1.974 . S
Cu161 N172 1.985 . S
Cu161 O181 1.959 . S
N162 Cu161 1.999 . S
N162 C164 1.263 . S
N162 C166 1.389 . S
N163 C164 1.358 . S
N163 C165 1.400 . S
C164 N162 1.263 . S
C164 N163 1.358 . S
C164 H170 0.930 . S
C165 N163 1.400 . S
C165 C166 1.351 . S
C165 H182 0.930 . S
C166 N162 1.389 . S
C166 C165 1.351 . S
C166 H171 0.930 . S
O167 Cu161 1.974 . S
O167 C177 1.282 . S
C168 O169 1.261 . S
C168 O181 1.251 . S
O169 C168 1.261 . S
H170 C164 0.930 . S
H171 C166 0.930 . S
N172 Cu161 1.985 . S
N172 C174 1.335 . S
N172 C175 1.390 . S
N173 C174 1.345 . S
N173 C176 1.336 . S
C174 N172 1.335 . S
C174 N173 1.345 . S
C174 H179 0.930 . S
C175 N172 1.390 . S
C175 C176 1.346 . S
C175 H180 0.930 . S
C176 N173 1.336 . S
C176 C175 1.346 . S
C176 H183 0.929 . S
C177 O167 1.282 . S
C177 O178 1.216 . S
O178 C177 1.216 . S
H179 C174 0.930 . S
H180 C175 0.930 . S
O181 Cu161 1.959 . S
O181 C168 1.251 . S
H182 C165 0.930 . S
H183 C176 0.929 . S
Cu184 N185 1.999 . S
Cu184 O190 1.974 . S
Cu184 N195 1.985 . S
Cu184 O204 1.959 . S
N185 Cu184 1.999 . S
N185 C187 1.263 . S
N185 C189 1.389 . S
N186 C187 1.358 . S
N186 C188 1.400 . S
C187 N185 1.263 . S
C187 N186 1.358 . S
C187 H193 0.930 . S
C188 N186 1.400 . S
C188 C189 1.351 . S
C188 H205 0.930 . S
C189 N185 1.389 . S
C189 C188 1.351 . S
C189 H194 0.930 . S
O190 Cu184 1.974 . S
O190 C200 1.282 . S
C191 O192 1.261 . S
C191 O204 1.251 . S
O192 C191 1.261 . S
H193 C187 0.930 . S
H194 C189 0.930 . S
N195 Cu184 1.985 . S
N195 C197 1.335 . S
N195 C198 1.390 . S
N196 C197 1.345 . S
N196 C199 1.336 . S
C197 N195 1.335 . S
C197 N196 1.345 . S
C197 H202 0.930 . S
C198 N195 1.390 . S
C198 C199 1.346 . S
C198 H203 0.930 . S
C199 N196 1.336 . S
C199 C198 1.346 . S
C199 H206 0.929 . S
C200 O190 1.282 . S
C200 O201 1.216 . S
O201 C200 1.216 . S
H202 C197 0.930 . S
H203 C198 0.930 . S
O204 Cu184 1.959 . S
O204 C191 1.251 . S
H205 C188 0.930 . S
H206 C199 0.929 . S
Cu207 N208 1.999 . S
Cu207 O213 1.974 . S
Cu207 N218 1.985 . S
Cu207 O227 1.959 . S
N208 Cu207 1.999 . S
N208 C210 1.263 . S
N208 C212 1.389 . S
N209 C210 1.358 . S
N209 C211 1.400 . S
C210 N208 1.263 . S
C210 N209 1.358 . S
C210 H216 0.930 . S
C211 N209 1.400 . S
C211 C212 1.351 . S
C211 H228 0.930 . S
C212 N208 1.389 . S
C212 C211 1.351 . S
C212 H217 0.930 . S
O213 Cu207 1.974 . S
O213 C223 1.282 . S
C214 O215 1.261 . S
C214 O227 1.251 . S
O215 C214 1.261 . S
H216 C210 0.930 . S
H217 C212 0.930 . S
N218 Cu207 1.985 . S
N218 C220 1.335 . S
N218 C221 1.390 . S
N219 C220 1.345 . S
N219 C222 1.336 . S
C220 N218 1.335 . S
C220 N219 1.345 . S
C220 H225 0.930 . S
C221 N218 1.390 . S
C221 C222 1.346 . S
C221 H226 0.930 . S
C222 N219 1.336 . S
C222 C221 1.346 . S
C222 H229 0.929 . S
C223 O213 1.282 . S
C223 O224 1.216 . S
O224 C223 1.216 . S
H225 C220 0.930 . S
H226 C221 0.930 . S
O227 Cu207 1.959 . S
O227 C214 1.251 . S
H228 C211 0.930 . S
H229 C222 0.929 . S
Cu230 N231 1.999 . S
Cu230 O236 1.974 . S
Cu230 N241 1.985 . S
Cu230 O250 1.959 . S
N231 Cu230 1.999 . S
N231 C233 1.263 . S
N231 C235 1.389 . S
N232 C233 1.358 . S
N232 C234 1.400 . S
C233 N231 1.263 . S
C233 N232 1.358 . S
C233 H239 0.930 . S
C234 N232 1.400 . S
C234 C235 1.351 . S
C234 H251 0.930 . S
C235 N231 1.389 . S
C235 C234 1.351 . S
C235 H240 0.930 . S
O236 Cu230 1.974 . S
O236 C246 1.282 . S
C237 O238 1.261 . S
C237 O250 1.251 . S
O238 C237 1.261 . S
H239 C233 0.930 . S
H240 C235 0.930 . S
N241 Cu230 1.985 . S
N241 C243 1.335 . S
N241 C244 1.390 . S
N242 C243 1.345 . S
N242 C245 1.336 . S
C243 N241 1.335 . S
C243 N242 1.345 . S
C243 H248 0.930 . S
C244 N241 1.390 . S
C244 C245 1.346 . S
C244 H249 0.930 . S
C245 N242 1.336 . S
C245 C244 1.346 . S
C245 H252 0.929 . S
C246 O236 1.282 . S
C246 O247 1.216 . S
O247 C246 1.216 . S
H248 C243 0.930 . S
H249 C244 0.930 . S
O250 Cu230 1.959 . S
O250 C237 1.251 . S
H251 C234 0.930 . S
H252 C245 0.929 . S
Cu253 N254 1.999 . S
Cu253 O259 1.974 . S
Cu253 N264 1.985 . S
Cu253 O273 1.959 . S
N254 Cu253 1.999 . S
N254 C256 1.263 . S
N254 C258 1.389 . S
N255 C256 1.358 . S
N255 C257 1.400 . S
C256 N254 1.263 . S
C256 N255 1.358 . S
C256 H262 0.930 . S
C257 N255 1.400 . S
C257 C258 1.351 . S
C257 H274 0.930 . S
C258 N254 1.389 . S
C258 C257 1.351 . S
C258 H263 0.930 . S
O259 Cu253 1.974 . S
O259 C269 1.282 . S
C260 O261 1.261 . S
C260 O273 1.251 . S
O261 C260 1.261 . S
H262 C256 0.930 . S
H263 C258 0.930 . S
N264 Cu253 1.985 . S
N264 C266 1.335 . S
N264 C267 1.390 . S
N265 C266 1.345 . S
N265 C268 1.336 . S
C266 N264 1.335 . S
C266 N265 1.345 . S
C266 H271 0.930 . S
C267 N264 1.390 . S
C267 C268 1.346 . S
C267 H272 0.930 . S
C268 N265 1.336 . S
C268 C267 1.346 . S
C268 H275 0.929 . S
C269 O259 1.282 . S
C269 O270 1.216 . S
O270 C269 1.216 . S
H271 C266 0.930 . S
H272 C267 0.930 . S
O273 Cu253 1.959 . S
O273 C260 1.251 . S
H274 C257 0.930 . S
H275 C268 0.929 . S
Cu276 N277 1.999 . S
Cu276 O282 1.974 . S
Cu276 N287 1.985 . S
Cu276 O296 1.959 . S
N277 Cu276 1.999 . S
N277 C279 1.263 . S
N277 C281 1.389 . S
N278 C279 1.358 . S
N278 C280 1.400 . S
C279 N277 1.263 . S
C279 N278 1.358 . S
C279 H285 0.930 . S
C280 N278 1.400 . S
C280 C281 1.351 . S
C280 H297 0.930 . S
C281 N277 1.389 . S
C281 C280 1.351 . S
C281 H286 0.930 . S
O282 Cu276 1.974 . S
O282 C292 1.282 . S
C283 O284 1.261 . S
C283 O296 1.251 . S
O284 C283 1.261 . S
H285 C279 0.930 . S
H286 C281 0.930 . S
N287 Cu276 1.985 . S
N287 C289 1.335 . S
N287 C290 1.390 . S
N288 C289 1.345 . S
N288 C291 1.336 . S
C289 N287 1.335 . S
C289 N288 1.345 . S
C289 H294 0.930 . S
C290 N287 1.390 . S
C290 C291 1.346 . S
C290 H295 0.930 . S
C291 N288 1.336 . S
C291 C290 1.346 . S
C291 H298 0.929 . S
C292 O282 1.282 . S
C292 O293 1.216 . S
O293 C292 1.216 . S
H294 C289 0.930 . S
H295 C290 0.930 . S
O296 Cu276 1.959 . S
O296 C283 1.251 . S
H297 C280 0.930 . S
H298 C291 0.929 . S
Cu299 N300 1.999 . S
Cu299 O305 1.974 . S
Cu299 N310 1.985 . S
Cu299 O319 1.959 . S
N300 Cu299 1.999 . S
N300 C302 1.263 . S
N300 C304 1.389 . S
N301 C302 1.358 . S
N301 C303 1.400 . S
C302 N300 1.263 . S
C302 N301 1.358 . S
C302 H308 0.930 . S
C303 N301 1.400 . S
C303 C304 1.351 . S
C303 H320 0.930 . S
C304 N300 1.389 . S
C304 C303 1.351 . S
C304 H309 0.930 . S
O305 Cu299 1.974 . S
O305 C315 1.282 . S
C306 O307 1.261 . S
C306 O319 1.251 . S
O307 C306 1.261 . S
H308 C302 0.930 . S
H309 C304 0.930 . S
N310 Cu299 1.985 . S
N310 C312 1.335 . S
N310 C313 1.390 . S
N311 C312 1.345 . S
N311 C314 1.336 . S
C312 N310 1.335 . S
C312 N311 1.345 . S
C312 H317 0.930 . S
C313 N310 1.390 . S
C313 C314 1.346 . S
C313 H318 0.930 . S
C314 N311 1.336 . S
C314 C313 1.346 . S
C314 H321 0.929 . S
C315 O305 1.282 . S
C315 O316 1.216 . S
O316 C315 1.216 . S
H317 C312 0.930 . S
H318 C313 0.930 . S
O319 Cu299 1.959 . S
O319 C306 1.251 . S
H320 C303 0.930 . S
H321 C314 0.929 . S
Cu322 N323 1.999 . S
Cu322 O328 1.974 . S
Cu322 N333 1.985 . S
Cu322 O342 1.959 . S
N323 Cu322 1.999 . S
N323 C325 1.263 . S
N323 C327 1.389 . S
N324 C325 1.358 . S
N324 C326 1.400 . S
C325 N323 1.263 . S
C325 N324 1.358 . S
C325 H331 0.930 . S
C326 N324 1.400 . S
C326 C327 1.351 . S
C326 H343 0.930 . S
C327 N323 1.389 . S
C327 C326 1.351 . S
C327 H332 0.930 . S
O328 Cu322 1.974 . S
O328 C338 1.282 . S
C329 O330 1.261 . S
C329 O342 1.251 . S
O330 C329 1.261 . S
H331 C325 0.930 . S
H332 C327 0.930 . S
N333 Cu322 1.985 . S
N333 C335 1.335 . S
N333 C336 1.390 . S
N334 C335 1.345 . S
N334 C337 1.336 . S
C335 N333 1.335 . S
C335 N334 1.345 . S
C335 H340 0.930 . S
C336 N333 1.390 . S
C336 C337 1.346 . S
C336 H341 0.930 . S
C337 N334 1.336 . S
C337 C336 1.346 . S
C337 H344 0.929 . S
C338 O328 1.282 . S
C338 O339 1.216 . S
O339 C338 1.216 . S
H340 C335 0.930 . S
H341 C336 0.930 . S
O342 Cu322 1.959 . S
O342 C329 1.251 . S
H343 C326 0.930 . S
H344 C337 0.929 . S
Cu345 N346 1.999 . S
Cu345 O351 1.974 . S
Cu345 N356 1.985 . S
Cu345 O365 1.959 . S
N346 Cu345 1.999 . S
N346 C348 1.263 . S
N346 C350 1.389 . S
N347 C348 1.358 . S
N347 C349 1.400 . S
C348 N346 1.263 . S
C348 N347 1.358 . S
C348 H354 0.930 . S
C349 N347 1.400 . S
C349 C350 1.351 . S
C349 H366 0.930 . S
C350 N346 1.389 . S
C350 C349 1.351 . S
C350 H355 0.930 . S
O351 Cu345 1.974 . S
O351 C361 1.282 . S
C352 O353 1.261 . S
C352 O365 1.251 . S
O353 C352 1.261 . S
H354 C348 0.930 . S
H355 C350 0.930 . S
N356 Cu345 1.985 . S
N356 C358 1.335 . S
N356 C359 1.390 . S
N357 C358 1.345 . S
N357 C360 1.336 . S
C358 N356 1.335 . S
C358 N357 1.345 . S
C358 H363 0.930 . S
C359 N356 1.390 . S
C359 C360 1.346 . S
C359 H364 0.930 . S
C360 N357 1.336 . S
C360 C359 1.346 . S
C360 H367 0.929 . S
C361 O351 1.282 . S
C361 O362 1.216 . S
O362 C361 1.216 . S
H363 C358 0.930 . S
H364 C359 0.930 . S
O365 Cu345 1.959 . S
O365 C352 1.251 . S
H366 C349 0.930 . S
H367 C360 0.929 . S
Cu368 N369 1.999 . S
Cu368 O374 1.974 . S
Cu368 N379 1.985 . S
Cu368 O388 1.959 . S
N369 Cu368 1.999 . S
N369 C371 1.263 . S
N369 C373 1.389 . S
N370 C371 1.358 . S
N370 C372 1.400 . S
C371 N369 1.263 . S
C371 N370 1.358 . S
C371 H377 0.930 . S
C372 N370 1.400 . S
C372 C373 1.351 . S
C372 H389 0.930 . S
C373 N369 1.389 . S
C373 C372 1.351 . S
C373 H378 0.930 . S
O374 Cu368 1.974 . S
O374 C384 1.282 . S
C375 O376 1.261 . S
C375 O388 1.251 . S
O376 C375 1.261 . S
H377 C371 0.930 . S
H378 C373 0.930 . S
N379 Cu368 1.985 . S
N379 C381 1.335 . S
N379 C382 1.390 . S
N380 C381 1.345 . S
N380 C383 1.336 . S
C381 N379 1.335 . S
C381 N380 1.345 . S
C381 H386 0.930 . S
C382 N379 1.390 . S
C382 C383 1.346 . S
C382 H387 0.930 . S
C383 N380 1.336 . S
C383 C382 1.346 . S
C383 H390 0.929 . S
C384 O374 1.282 . S
C384 O385 1.216 . S
O385 C384 1.216 . S
H386 C381 0.930 . S
H387 C382 0.930 . S
O388 Cu368 1.959 . S
O388 C375 1.251 . S
H389 C372 0.930 . S
H390 C383 0.929 . S
Cu391 N392 1.999 . S
Cu391 O397 1.974 . S
Cu391 N402 1.985 . S
Cu391 O411 1.959 . S
N392 Cu391 1.999 . S
N392 C394 1.263 . S
N392 C396 1.389 . S
N393 C394 1.358 . S
N393 C395 1.400 . S
C394 N392 1.263 . S
C394 N393 1.358 . S
C394 H400 0.930 . S
C395 N393 1.400 . S
C395 C396 1.351 . S
C395 H412 0.930 . S
C396 N392 1.389 . S
C396 C395 1.351 . S
C396 H401 0.930 . S
O397 Cu391 1.974 . S
O397 C407 1.282 . S
C398 O399 1.261 . S
C398 O411 1.251 . S
O399 C398 1.261 . S
H400 C394 0.930 . S
H401 C396 0.930 . S
N402 Cu391 1.985 . S
N402 C404 1.335 . S
N402 C405 1.390 . S
N403 C404 1.345 . S
N403 C406 1.336 . S
C404 N402 1.335 . S
C404 N403 1.345 . S
C404 H409 0.930 . S
C405 N402 1.390 . S
C405 C406 1.346 . S
C405 H410 0.930 . S
C406 N403 1.336 . S
C406 C405 1.346 . S
C406 H413 0.929 . S
C407 O397 1.282 . S
C407 O408 1.216 . S
O408 C407 1.216 . S
H409 C404 0.930 . S
H410 C405 0.930 . S
O411 Cu391 1.959 . S
O411 C398 1.251 . S
H412 C395 0.930 . S
H413 C406 0.929 . S
H414 C422 0.950 . S
H415 C427 0.950 . S
H416 C424 0.950 . S
H417 C426 0.950 . S
H418 C428 0.950 . S
H419 C430 0.950 . S
H420 C432 0.950 . S
H421 C433 0.950 . S
C422 H414 0.950 . S
C422 C423 1.386 . S
C422 C424 1.391 . S
C423 C422 1.386 . S
C423 C427 1.393 1_655 S
C424 H416 0.950 . S
C424 C422 1.391 . S
C424 C425 1.400 1_655 S
C425 C424 1.400 1_455 S
C425 C426 1.398 . S
C425 C431 1.491 . S
C426 H417 0.950 . S
C426 C425 1.398 . S
C426 C427 1.391 . S
C427 H415 0.950 . S
C427 C423 1.393 1_455 S
C427 C426 1.391 . S
C428 H418 0.950 . S
C428 C429 1.386 . S
C428 C430 1.391 . S
C429 C428 1.386 . S
C429 C433 1.393 1_455 S
C430 H419 0.950 . S
C430 C428 1.391 . S
C430 C431 1.400 . S
C431 C425 1.491 . S
C431 C430 1.400 . S
C431 C432 1.398 1_455 S
C432 H420 0.950 . S
C432 C431 1.398 1_655 S
C432 C433 1.391 . S
C433 H421 0.950 . S
C433 C429 1.393 1_655 S
C433 C432 1.391 . S
H434 C442 0.950 . S
H435 C447 0.950 . S
H436 C444 0.950 . S
H437 C446 0.950 . S
H438 C448 0.950 . S
H439 C450 0.950 . S
H440 C452 0.950 . S
H441 C453 0.950 . S
C442 H434 0.950 . S
C442 C443 1.386 . S
C442 C444 1.391 . S
C443 C442 1.386 . S
C443 C447 1.393 . S
C444 H436 0.950 . S
C444 C442 1.391 . S
C444 C445 1.400 . S
C445 C444 1.400 . S
C445 C446 1.398 . S
C445 C451 1.491 . S
C446 H437 0.950 . S
C446 C445 1.398 . S
C446 C447 1.391 . S
C447 H435 0.950 . S
C447 C443 1.393 . S
C447 C446 1.391 . S
C448 H438 0.950 . S
C448 C449 1.386 . S
C448 C450 1.391 . S
C449 C448 1.386 . S
C449 C453 1.393 . S
C450 H439 0.950 . S
C450 C448 1.391 . S
C450 C451 1.400 . S
C451 C445 1.491 . S
C451 C450 1.400 . S
C451 C452 1.398 . S
C452 H440 0.950 . S
C452 C451 1.398 . S
C452 C453 1.391 . S
C453 H441 0.950 . S
C453 C449 1.393 . S
C453 C452 1.391 . S
H454 C462 0.920 1_565 S
H455 C467 0.950 . S
H456 C464 0.939 1_565 S
H457 C466 0.950 . S
H458 C468 0.950 . S
H459 C470 0.950 . S
H460 C472 0.950 . S
H461 C473 0.950 . S
C462 H454 0.920 1_545 S
C462 C463 1.412 . S
C462 C464 1.396 . S
C463 C462 1.412 . S
C463 C467 1.393 . S
C464 H456 0.939 1_545 S
C464 C462 1.396 . S
C464 C465 1.400 . S
C465 C464 1.400 . S
C465 C466 1.398 . S
C465 C471 1.491 . S
C466 H457 0.950 . S
C466 C465 1.398 . S
C466 C467 1.391 . S
C467 H455 0.950 . S
C467 C463 1.393 . S
C467 C466 1.391 . S
C468 H458 0.950 . S
C468 C469 1.386 . S
C468 C470 1.391 . S
C469 C468 1.386 . S
C469 C473 1.393 . S
C470 H459 0.950 . S
C470 C468 1.391 . S
C470 C471 1.400 . S
C471 C465 1.491 . S
C471 C470 1.400 . S
C471 C472 1.398 . S
C472 H460 0.950 . S
C472 C471 1.398 . S
C472 C473 1.391 . S
C473 H461 0.950 . S
C473 C469 1.393 . S
C473 C472 1.391 . S
H474 C482 0.950 . S
H475 C487 0.950 . S
H476 C484 0.950 . S
H477 C486 0.950 . S
H478 C488 0.950 . S
H479 C490 0.950 . S
H480 C492 0.950 . S
H481 C493 0.950 . S
C482 H474 0.950 . S
C482 C483 1.386 . S
C482 C484 1.391 . S
C483 C482 1.386 . S
C483 C487 1.393 1_455 S
C484 H476 0.950 . S
C484 C482 1.391 . S
C484 C485 1.400 . S
C485 C484 1.400 . S
C485 C486 1.398 1_455 S
C485 C491 1.491 . S
C486 H477 0.950 . S
C486 C485 1.398 1_655 S
C486 C487 1.391 . S
C487 H475 0.950 . S
C487 C483 1.393 1_655 S
C487 C486 1.391 . S
C488 H478 0.950 . S
C488 C489 1.386 1_655 S
C488 C490 1.391 . S
C489 C488 1.386 1_455 S
C489 C493 1.393 . S
C490 H479 0.950 . S
C490 C488 1.391 . S
C490 C491 1.400 1_655 S
C491 C485 1.491 . S
C491 C490 1.400 1_455 S
C491 C492 1.398 . S
C492 H480 0.950 . S
C492 C491 1.398 . S
C492 C493 1.391 . S
C493 H481 0.950 . S
C493 C489 1.393 . S
C493 C492 1.391 . S
H494 C502 0.950 . S
H495 C507 0.950 . S
H496 C504 0.950 . S
H497 C506 0.950 . S
H498 C508 0.950 . S
H499 C510 0.950 . S
H500 C512 0.950 . S
H501 C513 0.950 . S
C502 H494 0.950 . S
C502 C503 1.386 . S
C502 C504 1.391 . S
C503 C502 1.386 . S
C503 C507 1.393 . S
C504 H496 0.950 . S
C504 C502 1.391 . S
C504 C505 1.400 . S
C505 C504 1.400 . S
C505 C506 1.398 . S
C505 C511 1.491 . S
C506 H497 0.950 . S
C506 C505 1.398 . S
C506 C507 1.391 . S
C507 H495 0.950 . S
C507 C503 1.393 . S
C507 C506 1.391 . S
C508 H498 0.950 . S
C508 C509 1.386 . S
C508 C510 1.391 . S
C509 C508 1.386 . S
C509 C513 1.393 . S
C510 H499 0.950 . S
C510 C508 1.391 . S
C510 C511 1.400 . S
C511 C505 1.491 . S
C511 C510 1.400 . S
C511 C512 1.398 . S
C512 H500 0.950 . S
C512 C511 1.398 . S
C512 C513 1.391 . S
C513 H501 0.950 . S
C513 C509 1.393 . S
C513 C512 1.391 . S
H514 C522 0.950 . S
H515 C527 0.950 . S
H516 C524 0.950 . S
H517 C526 0.950 . S
H518 C528 0.950 . S
H519 C530 0.950 . S
H520 C532 0.950 . S
H521 C533 0.950 . S
C522 H514 0.950 . S
C522 C523 1.386 . S
C522 C524 1.391 . S
C523 C522 1.386 . S
C523 C527 1.393 1_545 S
C524 H516 0.950 . S
C524 C522 1.391 . S
C524 C525 1.400 . S
C525 C524 1.400 . S
C525 C526 1.398 1_545 S
C525 C531 1.491 . S
C526 H517 0.950 . S
C526 C525 1.398 1_565 S
C526 C527 1.391 . S
C527 H515 0.950 . S
C527 C523 1.393 1_565 S
C527 C526 1.391 . S
C528 H518 0.950 . S
C528 C529 1.386 1_565 S
C528 C530 1.391 . S
C529 C528 1.386 1_545 S
C529 C533 1.393 . S
C530 H519 0.950 . S
C530 C528 1.391 . S
C530 C531 1.400 1_565 S
C531 C525 1.491 . S
C531 C530 1.400 1_545 S
C531 C532 1.398 . S
C532 H520 0.950 . S
C532 C531 1.398 . S
C532 C533 1.391 . S
C533 H521 0.950 . S
C533 C529 1.393 . S
C533 C532 1.391 . S
H534 C542 0.950 . S
H535 C547 0.950 . S
H536 C544 0.950 . S
H537 C546 0.950 . S
H538 C548 0.950 . S
H539 C550 0.950 . S
H540 C552 0.950 . S
H541 C553 0.950 . S
C542 H534 0.950 . S
C542 C543 1.386 . S
C542 C544 1.391 . S
C543 C542 1.386 . S
C543 C547 1.393 . S
C544 H536 0.950 . S
C544 C542 1.391 . S
C544 C545 1.400 . S
C545 C544 1.400 . S
C545 C546 1.398 . S
C545 C551 1.491 . S
C546 H537 0.950 . S
C546 C545 1.398 . S
C546 C547 1.391 . S
C547 H535 0.950 . S
C547 C543 1.393 . S
C547 C546 1.391 . S
C548 H538 0.950 . S
C548 C549 1.386 . S
C548 C550 1.391 . S
C549 C548 1.386 . S
C549 C553 1.393 . S
C550 H539 0.950 . S
C550 C548 1.391 . S
C550 C551 1.400 . S
C551 C545 1.491 . S
C551 C550 1.400 . S
C551 C552 1.398 . S
C552 H540 0.950 . S
C552 C551 1.398 . S
C552 C553 1.391 . S
C553 H541 0.950 . S
C553 C549 1.393 . S
C553 C552 1.391 . S
H554 C562 0.950 . S
H555 C567 0.950 . S
H556 C564 0.950 . S
H557 C566 0.950 . S
H558 C568 0.950 . S
H559 C570 0.950 . S
H560 C572 0.950 . S
H561 C573 0.950 . S
C562 H554 0.950 . S
C562 C563 1.386 . S
C562 C564 1.391 . S
C563 C562 1.386 . S
C563 C567 1.393 . S
C564 H556 0.950 . S
C564 C562 1.391 . S
C564 C565 1.400 . S
C565 C564 1.400 . S
C565 C566 1.398 . S
C565 C571 1.491 . S
C566 H557 0.950 . S
C566 C565 1.398 . S
C566 C567 1.391 . S
C567 H555 0.950 . S
C567 C563 1.393 . S
C567 C566 1.391 . S
C568 H558 0.950 . S
C568 C569 1.386 . S
C568 C570 1.391 . S
C569 C568 1.386 . S
C569 C573 1.393 . S
C570 H559 0.950 . S
C570 C568 1.391 . S
C570 C571 1.400 . S
C571 C565 1.491 . S
C571 C570 1.400 . S
C571 C572 1.398 . S
C572 H560 0.950 . S
C572 C571 1.398 . S
C572 C573 1.391 . S
C573 H561 0.950 . S
C573 C569 1.393 . S
C573 C572 1.391 . S
H574 C582 0.950 . S
H575 C587 0.950 . S
H576 C584 0.950 . S
H577 C586 0.950 . S
H578 C588 0.950 . S
H579 C590 0.950 . S
H580 C592 0.950 . S
H581 C593 0.950 . S
C582 H574 0.950 . S
C582 C583 1.386 . S
C582 C584 1.391 . S
C583 C582 1.386 . S
C583 C587 1.393 . S
C584 H576 0.950 . S
C584 C582 1.391 . S
C584 C585 1.400 . S
C585 C584 1.400 . S
C585 C586 1.398 . S
C585 C591 1.491 . S
C586 H577 0.950 . S
C586 C585 1.398 . S
C586 C587 1.391 . S
C587 H575 0.950 . S
C587 C583 1.393 . S
C587 C586 1.391 . S
C588 H578 0.950 . S
C588 C589 1.386 . S
C588 C590 1.391 . S
C589 C588 1.386 . S
C589 C593 1.393 . S
C590 H579 0.950 . S
C590 C588 1.391 . S
C590 C591 1.400 . S
C591 C585 1.491 . S
C591 C590 1.400 . S
C591 C592 1.398 . S
C592 H580 0.950 . S
C592 C591 1.398 . S
C592 C593 1.391 . S
C593 H581 0.950 . S
C593 C589 1.393 . S
C593 C592 1.391 . S
H594 C602 0.950 . S
H595 C607 0.950 . S
H596 C604 0.950 . S
H597 C606 0.950 . S
H598 C608 0.950 1_556 S
H599 C610 0.950 . S
H600 C612 0.950 . S
H601 C613 0.950 1_556 S
C602 H594 0.950 . S
C602 C603 1.386 . S
C602 C604 1.391 . S
C603 C602 1.386 . S
C603 C607 1.393 . S
C604 H596 0.950 . S
C604 C602 1.391 . S
C604 C605 1.400 . S
C605 C604 1.400 . S
C605 C606 1.398 . S
C605 C611 1.491 . S
C606 H597 0.950 . S
C606 C605 1.398 . S
C606 C607 1.391 . S
C607 H595 0.950 . S
C607 C603 1.393 . S
C607 C606 1.391 . S
C608 H598 0.950 1_554 S
C608 C609 1.386 1_554 S
C608 C610 1.391 . S
C609 C608 1.386 1_556 S
C609 C613 1.393 1_556 S
C610 H599 0.950 . S
C610 C608 1.391 . S
C610 C611 1.400 . S
C611 C605 1.491 . S
C611 C610 1.400 . S
C611 C612 1.398 . S
C612 H600 0.950 . S
C612 C611 1.398 . S
C612 C613 1.391 . S
C613 H601 0.950 1_554 S
C613 C609 1.393 1_554 S
C613 C612 1.391 . S
H614 C622 0.960 . S
H615 C627 0.950 1_556 S
H616 C624 0.950 . S
H617 C626 0.950 . S
H618 C628 0.950 . S
H619 C630 0.950 . S
H620 C632 0.950 . S
H621 C633 0.950 . S
C622 H614 0.960 . S
C622 C623 1.386 1_554 S
C622 C624 1.391 . S
C623 C622 1.386 1_556 S
C623 C627 1.393 1_556 S
C624 H616 0.950 . S
C624 C622 1.391 . S
C624 C625 1.400 . S
C625 C624 1.400 . S
C625 C626 1.398 . S
C625 C631 1.491 . S
C626 H617 0.950 . S
C626 C625 1.398 . S
C626 C627 1.391 . S
C627 H615 0.950 1_554 S
C627 C623 1.393 1_554 S
C627 C626 1.391 . S
C628 H618 0.950 . S
C628 C629 1.386 . S
C628 C630 1.391 . S
C629 C628 1.386 . S
C629 C633 1.393 . S
C630 H619 0.950 . S
C630 C628 1.391 . S
C630 C631 1.400 . S
C631 C625 1.491 . S
C631 C630 1.400 . S
C631 C632 1.398 . S
C632 H620 0.950 . S
C632 C631 1.398 . S
C632 C633 1.391 . S
C633 H621 0.950 . S
C633 C629 1.393 . S
C633 C632 1.391 . S
H634 C642 0.950 1_556 S
H635 C647 0.950 1_556 S
H636 C644 0.950 . S
H637 C646 0.950 . S
H638 C648 0.950 . S
H639 C650 0.950 . S
H640 C652 0.950 . S
H641 C653 0.950 . S
C642 H634 0.950 1_554 S
C642 C643 1.386 1_554 S
C642 C644 1.391 . S
C643 C642 1.386 1_556 S
C643 C647 1.393 1_556 S
C644 H636 0.950 . S
C644 C642 1.391 . S
C644 C645 1.400 . S
C645 C644 1.400 . S
C645 C646 1.398 . S
C645 C651 1.491 . S
C646 H637 0.950 . S
C646 C645 1.398 . S
C646 C647 1.391 . S
C647 H635 0.950 1_554 S
C647 C643 1.393 1_554 S
C647 C646 1.391 . S
C648 H638 0.950 . S
C648 C649 1.386 . S
C648 C650 1.391 . S
C649 C648 1.386 . S
C649 C653 1.393 . S
C650 H639 0.950 . S
C650 C648 1.391 . S
C650 C651 1.400 . S
C651 C645 1.491 . S
C651 C650 1.400 . S
C651 C652 1.398 . S
C652 H640 0.950 . S
C652 C651 1.398 . S
C652 C653 1.391 . S
C653 H641 0.950 . S
C653 C649 1.393 . S
C653 C652 1.391 . S
H654 C662 0.950 . S
H655 C667 0.950 . S
H656 C664 0.950 . S
H657 C666 0.950 . S
H658 C668 0.950 . S
H659 C670 0.950 . S
H660 C672 0.950 . S
H661 C673 0.950 . S
C662 H654 0.950 . S
C662 C663 1.386 . S
C662 C664 1.391 1_554 S
C663 C662 1.386 . S
C663 C667 1.393 . S
C664 H656 0.950 . S
C664 C662 1.391 1_556 S
C664 C665 1.400 . S
C665 C664 1.400 . S
C665 C666 1.398 . S
C665 C671 1.491 . S
C666 H657 0.950 . S
C666 C665 1.398 . S
C666 C667 1.391 1_556 S
C667 H655 0.950 . S
C667 C663 1.393 . S
C667 C666 1.391 1_554 S
C668 H658 0.950 . S
C668 C669 1.386 . S
C668 C670 1.391 . S
C669 C668 1.386 . S
C669 C673 1.393 . S
C670 H659 0.950 . S
C670 C668 1.391 . S
C670 C671 1.400 . S
C671 C665 1.491 . S
C671 C670 1.400 . S
C671 C672 1.398 . S
C672 H660 0.950 . S
C672 C671 1.398 . S
C672 C673 1.391 . S
C673 H661 0.950 . S
C673 C669 1.393 . S
C673 C672 1.391 . S
H674 C682 0.950 . S
H675 C687 0.950 . S
H676 C684 0.950 . S
H677 C686 0.950 . S
H678 C688 0.950 . S
H679 C690 0.950 . S
H680 C692 0.950 . S
H681 C693 0.950 1_554 S
C682 H674 0.950 . S
C682 C683 1.386 . S
C682 C684 1.391 . S
C683 C682 1.386 . S
C683 C687 1.393 . S
C684 H676 0.950 . S
C684 C682 1.391 . S
C684 C685 1.400 . S
C685 C684 1.400 . S
C685 C686 1.398 . S
C685 C691 1.491 . S
C686 H677 0.950 . S
C686 C685 1.398 . S
C686 C687 1.391 . S
C687 H675 0.950 . S
C687 C683 1.393 . S
C687 C686 1.391 . S
C688 H678 0.950 . S
C688 C689 1.386 1_556 S
C688 C690 1.391 . S
C689 C688 1.386 1_554 S
C689 C693 1.393 1_554 S
C690 H679 0.950 . S
C690 C688 1.391 . S
C690 C691 1.400 . S
C691 C685 1.491 . S
C691 C690 1.400 . S
C691 C692 1.398 . S
C692 H680 0.950 . S
C692 C691 1.398 . S
C692 C693 1.391 . S
C693 H681 0.950 1_556 S
C693 C689 1.393 1_556 S
C693 C692 1.391 . S
H694 C702 0.950 . S
H695 C707 0.955 . S
H696 C704 0.950 . S
H697 C706 0.950 . S
H698 C708 0.950 . S
H699 C710 0.950 . S
H700 C712 0.950 . S
H701 C713 0.950 . S
C702 H694 0.950 . S
C702 C703 1.386 . S
C702 C704 1.391 1_554 S
C703 C702 1.386 . S
C703 C707 1.399 . S
C704 H696 0.950 . S
C704 C702 1.391 1_556 S
C704 C705 1.400 . S
C705 C704 1.400 . S
C705 C706 1.398 . S
C705 C711 1.491 . S
C706 H697 0.950 . S
C706 C705 1.398 . S
C706 C707 1.379 1_556 S
C707 H695 0.955 . S
C707 C703 1.399 . S
C707 C706 1.379 1_554 S
C708 H698 0.950 . S
C708 C709 1.386 . S
C708 C710 1.391 . S
C709 C708 1.386 . S
C709 C713 1.393 . S
C710 H699 0.950 . S
C710 C708 1.391 . S
C710 C711 1.400 . S
C711 C705 1.491 . S
C711 C710 1.400 . S
C711 C712 1.398 . S
C712 H700 0.950 . S
C712 C711 1.398 . S
C712 C713 1.391 . S
C713 H701 0.950 . S
C713 C709 1.393 . S
C713 C712 1.391 . S
H714 C722 0.950 . S
H715 C727 0.950 . S
H716 C724 0.950 . S
H717 C726 0.950 . S
H718 C728 0.950 . S
H719 C730 0.950 . S
H720 C732 0.950 . S
H721 C733 0.950 . S
C722 H714 0.950 . S
C722 C723 1.386 . S
C722 C724 1.391 . S
C723 C722 1.386 . S
C723 C727 1.393 . S
C724 H716 0.950 . S
C724 C722 1.391 . S
C724 C725 1.400 . S
C725 C724 1.400 . S
C725 C726 1.398 . S
C725 C731 1.491 . S
C726 H717 0.950 . S
C726 C725 1.398 . S
C726 C727 1.391 . S
C727 H715 0.950 . S
C727 C723 1.393 . S
C727 C726 1.391 . S
C728 H718 0.950 . S
C728 C729 1.386 . S
C728 C730 1.391 . S
C729 C728 1.386 . S
C729 C733 1.393 . S
C730 H719 0.950 . S
C730 C728 1.391 . S
C730 C731 1.400 . S
C731 C725 1.491 . S
C731 C730 1.400 . S
C731 C732 1.398 . S
C732 H720 0.950 . S
C732 C731 1.398 . S
C732 C733 1.391 . S
C733 H721 0.950 . S
C733 C729 1.393 . S
C733 C732 1.391 . S
H734 C742 0.950 . S
H735 C747 0.950 . S
H736 C744 0.950 . S
H737 C746 0.950 . S
H738 C748 0.950 . S
H739 C750 0.950 . S
H740 C752 0.950 . S
H741 C753 0.950 . S
C742 H734 0.950 . S
C742 C743 1.386 . S
C742 C744 1.391 . S
C743 C742 1.386 . S
C743 C747 1.393 . S
C744 H736 0.950 . S
C744 C742 1.391 . S
C744 C745 1.400 . S
C745 C744 1.400 . S
C745 C746 1.398 . S
C745 C751 1.491 . S
C746 H737 0.950 . S
C746 C745 1.398 . S
C746 C747 1.391 . S
C747 H735 0.950 . S
C747 C743 1.393 . S
C747 C746 1.391 . S
C748 H738 0.950 . S
C748 C749 1.386 . S
C748 C750 1.391 . S
C749 C748 1.386 . S
C749 C753 1.393 . S
C750 H739 0.950 . S
C750 C748 1.391 . S
C750 C751 1.400 . S
C751 C745 1.491 . S
C751 C750 1.400 . S
C751 C752 1.398 . S
C752 H740 0.950 . S
C752 C751 1.398 . S
C752 C753 1.391 . S
C753 H741 0.950 . S
C753 C749 1.393 . S
C753 C752 1.391 . S
H754 C762 0.950 . S
H755 C767 0.950 . S
H756 C764 0.950 . S
H757 C766 0.950 . S
H758 C768 0.950 . S
H759 C770 0.950 . S
H760 C772 0.950 . S
H761 C773 0.950 . S
C762 H754 0.950 . S
C762 C763 1.386 . S
C762 C764 1.391 . S
C763 C762 1.386 . S
C763 C767 1.393 . S
C764 H756 0.950 . S
C764 C762 1.391 . S
C764 C765 1.400 . S
C765 C764 1.400 . S
C765 C766 1.398 . S
C765 C771 1.491 . S
C766 H757 0.950 . S
C766 C765 1.398 . S
C766 C767 1.391 . S
C767 H755 0.950 . S
C767 C763 1.393 . S
C767 C766 1.391 . S
C768 H758 0.950 . S
C768 C769 1.386 . S
C768 C770 1.391 . S
C769 C768 1.386 . S
C769 C773 1.393 . S
C770 H759 0.950 . S
C770 C768 1.391 . S
C770 C771 1.400 . S
C771 C765 1.491 . S
C771 C770 1.400 . S
C771 C772 1.398 . S
C772 H760 0.950 . S
C772 C771 1.398 . S
C772 C773 1.391 . S
C773 H761 0.950 . S
C773 C769 1.393 . S
C773 C772 1.391 . S
H774 C782 0.950 . S
H775 C787 0.950 1_554 S
H776 C784 0.950 . S
H777 C786 0.950 . S
H778 C788 0.950 . S
H779 C790 0.950 . S
H780 C792 0.950 . S
H781 C793 0.950 . S
C782 H774 0.950 . S
C782 C783 1.386 . S
C782 C784 1.391 . S
C783 C782 1.386 . S
C783 C787 1.393 . S
C784 H776 0.950 . S
C784 C782 1.391 . S
C784 C785 1.400 . S
C785 C784 1.400 . S
C785 C786 1.398 . S
C785 C791 1.491 . S
C786 H777 0.950 . S
C786 C785 1.398 . S
C786 C787 1.391 . S
C787 H775 0.950 1_556 S
C787 C783 1.393 . S
C787 C786 1.391 . S
C788 H778 0.950 . S
C788 C789 1.386 . S
C788 C790 1.391 . S
C789 C788 1.386 . S
C789 C793 1.393 . S
C790 H779 0.950 . S
C790 C788 1.391 . S
C790 C791 1.400 . S
C791 C785 1.491 . S
C791 C790 1.400 . S
C791 C792 1.398 . S
C792 H780 0.950 . S
C792 C791 1.398 . S
C792 C793 1.391 . S
C793 H781 0.950 . S
C793 C789 1.393 . S
C793 C792 1.391 . S
H794 C802 0.950 . S
H795 C807 0.950 . S
H796 C804 0.950 . S
H797 C806 0.950 . S
H798 C808 0.950 . S
H799 C810 0.950 . S
H800 C812 0.950 . S
H801 C813 0.950 . S
C802 H794 0.950 . S
C802 C803 1.386 . S
C802 C804 1.391 . S
C803 C802 1.386 . S
C803 C807 1.393 . S
C804 H796 0.950 . S
C804 C802 1.391 . S
C804 C805 1.400 . S
C805 C804 1.400 . S
C805 C806 1.398 . S
C805 C811 1.491 . S
C806 H797 0.950 . S
C806 C805 1.398 . S
C806 C807 1.391 . S
C807 H795 0.950 . S
C807 C803 1.393 . S
C807 C806 1.391 . S
C808 H798 0.950 . S
C808 C809 1.386 . S
C808 C810 1.391 . S
C809 C808 1.386 . S
C809 C813 1.393 . S
C810 H799 0.950 . S
C810 C808 1.391 . S
C810 C811 1.400 . S
C811 C805 1.491 . S
C811 C810 1.400 . S
C811 C812 1.398 . S
C812 H800 0.950 . S
C812 C811 1.398 . S
C812 C813 1.391 . S
C813 H801 0.950 . S
C813 C809 1.393 . S
C813 C812 1.391 . S
H814 C822 0.950 . S
H815 C827 0.950 . S
H816 C824 0.950 . S
H817 C826 0.950 . S
H818 C828 0.950 . S
H819 C830 0.950 . S
H820 C832 0.950 . S
H821 C833 0.950 1_545 S
C822 H814 0.950 . S
C822 C823 1.386 . S
C822 C824 1.391 . S
C823 C822 1.386 . S
C823 C827 1.393 . S
C824 H816 0.950 . S
C824 C822 1.391 . S
C824 C825 1.400 . S
C825 C824 1.400 . S
C825 C826 1.398 . S
C825 C831 1.491 . S
C826 H817 0.950 . S
C826 C825 1.398 . S
C826 C827 1.391 . S
C827 H815 0.950 . S
C827 C823 1.393 . S
C827 C826 1.391 . S
C828 H818 0.950 . S
C828 C829 1.386 . S
C828 C830 1.391 . S
C829 C828 1.386 . S
C829 C833 1.393 . S
C830 H819 0.950 . S
C830 C828 1.391 . S
C830 C831 1.400 . S
C831 C825 1.491 . S
C831 C830 1.400 . S
C831 C832 1.398 . S
C832 H820 0.950 . S
C832 C831 1.398 . S
C832 C833 1.391 . S
C833 H821 0.950 1_565 S
C833 C829 1.393 . S
C833 C832 1.391 . S
H834 C842 0.950 . S
H835 C847 0.950 . S
H836 C844 0.950 . S
H837 C846 0.950 . S
H838 C848 0.950 . S
H839 C850 0.950 . S
H840 C852 0.950 . S
H841 C853 0.950 . S
C842 H834 0.950 . S
C842 C843 1.386 . S
C842 C844 1.391 . S
C843 C842 1.386 . S
C843 C847 1.393 . S
C844 H836 0.950 . S
C844 C842 1.391 . S
C844 C845 1.400 . S
C845 C844 1.400 . S
C845 C846 1.398 . S
C845 C851 1.491 . S
C846 H837 0.950 . S
C846 C845 1.398 . S
C846 C847 1.391 . S
C847 H835 0.950 . S
C847 C843 1.393 . S
C847 C846 1.391 . S
C848 H838 0.950 . S
C848 C849 1.386 . S
C848 C850 1.391 . S
C849 C848 1.386 . S
C849 C853 1.393 . S
C850 H839 0.950 . S
C850 C848 1.391 . S
C850 C851 1.400 . S
C851 C845 1.491 . S
C851 C850 1.400 . S
C851 C852 1.398 . S
C852 H840 0.950 . S
C852 C851 1.398 . S
C852 C853 1.391 . S
C853 H841 0.950 . S
C853 C849 1.393 . S
C853 C852 1.391 . S
H854 C862 0.950 . S
H855 C867 0.950 . S
H856 C864 0.950 . S
H857 C866 0.950 . S
H858 C868 0.950 1_455 S
H859 C870 0.950 . S
H860 C872 0.950 . S
H861 C873 0.950 . S
C862 H854 0.950 . S
C862 C863 1.386 . S
C862 C864 1.391 . S
C863 C862 1.386 . S
C863 C867 1.393 . S
C864 H856 0.950 . S
C864 C862 1.391 . S
C864 C865 1.400 . S
C865 C864 1.400 . S
C865 C866 1.398 . S
C865 C871 1.491 . S
C866 H857 0.950 . S
C866 C865 1.398 . S
C866 C867 1.391 . S
C867 H855 0.950 . S
C867 C863 1.393 . S
C867 C866 1.391 . S
C868 H858 0.950 1_655 S
C868 C869 1.386 . S
C868 C870 1.391 . S
C869 C868 1.386 . S
C869 C873 1.393 . S
C870 H859 0.950 . S
C870 C868 1.391 . S
C870 C871 1.400 . S
C871 C865 1.491 . S
C871 C870 1.400 . S
C871 C872 1.398 . S
C872 H860 0.950 . S
C872 C871 1.398 . S
C872 C873 1.391 . S
C873 H861 0.950 . S
C873 C869 1.393 . S
C873 C872 1.391 . S
H874 C882 0.950 . S
H875 C887 0.950 . S
H876 C884 0.950 . S
H877 C886 0.950 . S
H878 C888 0.950 . S
H879 C890 0.950 . S
H880 C892 0.950 . S
H881 C893 0.950 . S
C882 H874 0.950 . S
C882 C883 1.386 . S
C882 C884 1.391 . S
C883 C882 1.386 . S
C883 C887 1.393 . S
C884 H876 0.950 . S
C884 C882 1.391 . S
C884 C885 1.400 . S
C885 C884 1.400 . S
C885 C886 1.398 . S
C885 C891 1.491 . S
C886 H877 0.950 . S
C886 C885 1.398 . S
C886 C887 1.391 . S
C887 H875 0.950 . S
C887 C883 1.393 . S
C887 C886 1.391 . S
C888 H878 0.950 . S
C888 C889 1.386 . S
C888 C890 1.391 . S
C889 C888 1.386 . S
C889 C893 1.393 . S
C890 H879 0.950 . S
C890 C888 1.391 . S
C890 C891 1.400 . S
C891 C885 1.491 . S
C891 C890 1.400 . S
C891 C892 1.398 . S
C892 H880 0.950 . S
C892 C891 1.398 . S
C892 C893 1.391 . S
C893 H881 0.950 . S
C893 C889 1.393 . S
C893 C892 1.391 . S
H894 C902 0.950 . S
H895 C907 0.950 . S
H896 C904 0.950 . S
H897 C906 0.950 . S
H898 C908 0.950 1_556 S
H899 C910 0.950 . S
H900 C912 0.950 . S
H901 C913 0.950 . S
C902 H894 0.950 . S
C902 C903 1.386 . S
C902 C904 1.391 . S
C903 C902 1.386 . S
C903 C907 1.393 . S
C904 H896 0.950 . S
C904 C902 1.391 . S
C904 C905 1.400 . S
C905 C904 1.400 . S
C905 C906 1.398 . S
C905 C911 1.491 . S
C906 H897 0.950 . S
C906 C905 1.398 . S
C906 C907 1.391 . S
C907 H895 0.950 . S
C907 C903 1.393 . S
C907 C906 1.391 . S
C908 H898 0.950 1_554 S
C908 C909 1.386 . S
C908 C910 1.391 . S
C909 C908 1.386 . S
C909 C913 1.393 . S
C910 H899 0.950 . S
C910 C908 1.391 . S
C910 C911 1.400 . S
C911 C905 1.491 . S
C911 C910 1.400 . S
C911 C912 1.398 . S
C912 H900 0.950 . S
C912 C911 1.398 . S
C912 C913 1.391 . S
C913 H901 0.950 . S
C913 C909 1.393 . S
C913 C912 1.391 . S
H914 C922 0.950 . S
H915 C927 0.950 . S
H916 C924 0.950 . S
H917 C926 0.950 . S
H918 C928 0.950 . S
H919 C930 0.950 . S
H920 C932 0.950 . S
H921 C933 0.950 . S
C922 H914 0.950 . S
C922 C923 1.386 . S
C922 C924 1.391 . S
C923 C922 1.386 . S
C923 C927 1.393 . S
C924 H916 0.950 . S
C924 C922 1.391 . S
C924 C925 1.400 . S
C925 C924 1.400 . S
C925 C926 1.398 . S
C925 C931 1.491 . S
C926 H917 0.950 . S
C926 C925 1.398 . S
C926 C927 1.391 . S
C927 H915 0.950 . S
C927 C923 1.393 . S
C927 C926 1.391 . S
C928 H918 0.950 . S
C928 C929 1.386 . S
C928 C930 1.391 . S
C929 C928 1.386 . S
C929 C933 1.393 . S
C930 H919 0.950 . S
C930 C928 1.391 . S
C930 C931 1.400 . S
C931 C925 1.491 . S
C931 C930 1.400 . S
C931 C932 1.398 . S
C932 H920 0.950 . S
C932 C931 1.398 . S
C932 C933 1.391 . S
C933 H921 0.950 . S
C933 C929 1.393 . S
C933 C932 1.391 . S
H934 C942 0.950 . S
H935 C947 0.950 . S
H936 C944 0.950 . S
H937 C946 0.950 . S
H938 C948 0.950 . S
H939 C950 0.950 . S
H940 C952 0.950 . S
H941 C953 0.950 . S
C942 H934 0.950 . S
C942 C943 1.386 . S
C942 C944 1.391 . S
C943 C942 1.386 . S
C943 C947 1.393 . S
C944 H936 0.950 . S
C944 C942 1.391 . S
C944 C945 1.400 . S
C945 C944 1.400 . S
C945 C946 1.398 . S
C945 C951 1.491 . S
C946 H937 0.950 . S
C946 C945 1.398 . S
C946 C947 1.391 . S
C947 H935 0.950 . S
C947 C943 1.393 . S
C947 C946 1.391 . S
C948 H938 0.950 . S
C948 C949 1.386 . S
C948 C950 1.391 . S
C949 C948 1.386 . S
C949 C953 1.393 . S
C950 H939 0.950 . S
C950 C948 1.391 . S
C950 C951 1.400 . S
C951 C945 1.491 . S
C951 C950 1.400 . S
C951 C952 1.398 . S
C952 H940 0.950 . S
C952 C951 1.398 . S
C952 C953 1.391 . S
C953 H941 0.950 . S
C953 C949 1.393 . S
C953 C952 1.391 . S
H954 C962 0.950 . S
H955 C967 0.950 . S
H956 C964 0.950 . S
H957 C966 0.950 . S
H958 C968 0.950 . S
H959 C970 0.950 . S
H960 C972 0.950 . S
H961 C973 0.950 . S
C962 H954 0.950 . S
C962 C963 1.386 . S
C962 C964 1.391 . S
C963 C962 1.386 . S
C963 C967 1.393 . S
C964 H956 0.950 . S
C964 C962 1.391 . S
C964 C965 1.400 . S
C965 C964 1.400 . S
C965 C966 1.398 . S
C965 C971 1.491 . S
C966 H957 0.950 . S
C966 C965 1.398 . S
C966 C967 1.391 . S
C967 H955 0.950 . S
C967 C963 1.393 . S
C967 C966 1.391 . S
C968 H958 0.950 . S
C968 C969 1.386 . S
C968 C970 1.391 . S
C969 C968 1.386 . S
C969 C973 1.393 . S
C970 H959 0.950 . S
C970 C968 1.391 . S
C970 C971 1.400 . S
C971 C965 1.491 . S
C971 C970 1.400 . S
C971 C972 1.398 . S
C972 H960 0.950 . S
C972 C971 1.398 . S
C972 C973 1.391 . S
C973 H961 0.950 . S
C973 C969 1.393 . S
C973 C972 1.391 . S
H974 C982 0.950 . S
H975 C987 0.950 . S
H976 C984 0.950 . S
H977 C986 0.950 . S
H978 C988 0.950 . S
H979 C990 0.950 . S
H980 C992 0.950 . S
H981 C993 0.950 . S
C982 H974 0.950 . S
C982 C983 1.386 . S
C982 C984 1.391 . S
C983 C982 1.386 . S
C983 C987 1.393 . S
C984 H976 0.950 . S
C984 C982 1.391 . S
C984 C985 1.400 . S
C985 C984 1.400 . S
C985 C986 1.398 . S
C985 C991 1.491 . S
C986 H977 0.950 . S
C986 C985 1.398 . S
C986 C987 1.391 . S
C987 H975 0.950 . S
C987 C983 1.393 . S
C987 C986 1.391 . S
C988 H978 0.950 . S
C988 C989 1.386 . S
C988 C990 1.391 . S
C989 C988 1.386 . S
C989 C993 1.393 . S
C990 H979 0.950 . S
C990 C988 1.391 . S
C990 C991 1.400 . S
C991 C985 1.491 . S
C991 C990 1.400 . S
C991 C992 1.398 . S
C992 H980 0.950 . S
C992 C991 1.398 . S
C992 C993 1.391 . S
C993 H981 0.950 . S
C993 C989 1.393 . S
C993 C992 1.391 . S
H994 C1002 0.950 . S
H995 C1007 0.950 . S
H996 C1004 0.950 . S
H997 C1006 0.950 . S
H998 C1008 0.950 . S
H999 C1010 0.950 . S
H1000 C1012 0.950 . S
H1001 C1013 0.950 . S
C1002 H994 0.950 . S
C1002 C1003 1.386 . S
C1002 C1004 1.391 . S
C1003 C1002 1.386 . S
C1003 C1007 1.393 . S
C1004 H996 0.950 . S
C1004 C1002 1.391 . S
C1004 C1005 1.400 . S
C1005 C1004 1.400 . S
C1005 C1006 1.398 . S
C1005 C1011 1.491 . S
C1006 H997 0.950 . S
C1006 C1005 1.398 . S
C1006 C1007 1.391 . S
C1007 H995 0.950 . S
C1007 C1003 1.393 . S
C1007 C1006 1.391 . S
C1008 H998 0.950 . S
C1008 C1009 1.386 . S
C1008 C1010 1.391 . S
C1009 C1008 1.386 . S
C1009 C1013 1.393 . S
C1010 H999 0.950 . S
C1010 C1008 1.391 . S
C1010 C1011 1.400 . S
C1011 C1005 1.491 . S
C1011 C1010 1.400 . S
C1011 C1012 1.398 . S
C1012 H1000 0.950 . S
C1012 C1011 1.398 . S
C1012 C1013 1.391 . S
C1013 H1001 0.950 . S
C1013 C1009 1.393 . S
C1013 C1012 1.391 . S
H1014 C1022 0.950 . S
H1015 C1027 0.950 . S
H1016 C1024 0.950 . S
H1017 C1026 0.950 . S
H1018 C1028 0.950 . S
H1019 C1030 0.950 . S
H1020 C1032 0.950 . S
H1021 C1033 0.950 . S
C1022 H1014 0.950 . S
C1022 C1023 1.386 . S
C1022 C1024 1.391 . S
C1023 C1022 1.386 . S
C1023 C1027 1.393 . S
C1024 H1016 0.950 . S
C1024 C1022 1.391 . S
C1024 C1025 1.400 . S
C1025 C1024 1.400 . S
C1025 C1026 1.398 . S
C1025 C1031 1.491 . S
C1026 H1017 0.950 . S
C1026 C1025 1.398 . S
C1026 C1027 1.391 . S
C1027 H1015 0.950 . S
C1027 C1023 1.393 . S
C1027 C1026 1.391 . S
C1028 H1018 0.950 . S
C1028 C1029 1.386 . S
C1028 C1030 1.391 . S
C1029 C1028 1.386 . S
C1029 C1033 1.393 . S
C1030 H1019 0.950 . S
C1030 C1028 1.391 . S
C1030 C1031 1.400 . S
C1031 C1025 1.491 . S
C1031 C1030 1.400 . S
C1031 C1032 1.398 . S
C1032 H1020 0.950 . S
C1032 C1031 1.398 . S
C1032 C1033 1.391 . S
C1033 H1021 0.950 . S
C1033 C1029 1.393 . S
C1033 C1032 1.391 . S
H1034 C1042 0.950 . S
H1035 C1047 0.950 . S
H1036 C1044 0.950 1_565 S
H1037 C1046 0.950 . S
H1038 C1048 0.950 . S
H1039 C1050 0.950 . S
H1040 C1052 0.950 . S
H1041 C1053 0.950 . S
C1042 H1034 0.950 . S
C1042 C1043 1.386 . S
C1042 C1044 1.391 . S
C1043 C1042 1.386 . S
C1043 C1047 1.393 . S
C1044 H1036 0.950 1_545 S
C1044 C1042 1.391 . S
C1044 C1045 1.383 1_545 S
C1045 C1044 1.383 1_565 S
C1045 C1046 1.391 1_565 S
C1045 C1051 1.515 . S
C1046 H1037 0.950 . S
C1046 C1045 1.391 1_545 S
C1046 C1047 1.391 . S
C1047 H1035 0.950 . S
C1047 C1043 1.393 . S
C1047 C1046 1.391 . S
C1048 H1038 0.950 . S
C1048 C1049 1.386 . S
C1048 C1050 1.391 . S
C1049 C1048 1.386 . S
C1049 C1053 1.393 . S
C1050 H1039 0.950 . S
C1050 C1048 1.391 . S
C1050 C1051 1.400 . S
C1051 C1045 1.515 . S
C1051 C1050 1.400 . S
C1051 C1052 1.398 . S
C1052 H1040 0.950 . S
C1052 C1051 1.398 . S
C1052 C1053 1.391 . S
C1053 H1041 0.950 . S
C1053 C1049 1.393 . S
C1053 C1052 1.391 . S
H1054 C1062 0.950 . S
H1055 C1067 0.950 . S
H1056 C1064 0.950 . S
H1057 C1066 0.950 . S
H1058 C1068 0.950 . S
H1059 C1070 0.950 . S
H1060 C1072 0.950 . S
H1061 C1073 0.950 . S
C1062 H1054 0.950 . S
C1062 C1063 1.386 . S
C1062 C1064 1.391 . S
C1063 C1062 1.386 . S
C1063 C1067 1.393 . S
C1064 H1056 0.950 . S
C1064 C1062 1.391 . S
C1064 C1065 1.400 . S
C1065 C1064 1.400 . S
C1065 C1066 1.398 . S
C1065 C1071 1.491 1_455 S
C1066 H1057 0.950 . S
C1066 C1065 1.398 . S
C1066 C1067 1.391 . S
C1067 H1055 0.950 . S
C1067 C1063 1.393 . S
C1067 C1066 1.391 . S
C1068 H1058 0.950 . S
C1068 C1069 1.386 . S
C1068 C1070 1.391 . S
C1069 C1068 1.386 . S
C1069 C1073 1.393 . S
C1070 H1059 0.950 . S
C1070 C1068 1.391 . S
C1070 C1071 1.400 . S
C1071 C1065 1.491 1_655 S
C1071 C1070 1.400 . S
C1071 C1072 1.398 . S
C1072 H1060 0.950 . S
C1072 C1071 1.398 . S
C1072 C1073 1.391 . S
C1073 H1061 0.950 . S
C1073 C1069 1.393 . S
C1073 C1072 1.391 . S
H1074 C1082 0.950 . S
H1075 C1087 0.950 . S
H1076 C1084 0.950 . S
H1077 C1086 0.950 . S
H1078 C1088 0.950 . S
H1079 C1090 0.950 . S
H1080 C1092 0.950 . S
H1081 C1093 0.950 . S
C1082 H1074 0.950 . S
C1082 C1083 1.386 . S
C1082 C1084 1.391 . S
C1083 C1082 1.386 . S
C1083 C1087 1.393 . S
C1084 H1076 0.950 . S
C1084 C1082 1.391 . S
C1084 C1085 1.400 . S
C1085 C1084 1.400 . S
C1085 C1086 1.398 . S
C1085 C1091 1.491 . S
C1086 H1077 0.950 . S
C1086 C1085 1.398 . S
C1086 C1087 1.391 . S
C1087 H1075 0.950 . S
C1087 C1083 1.393 . S
C1087 C1086 1.391 . S
C1088 H1078 0.950 . S
C1088 C1089 1.386 . S
C1088 C1090 1.391 . S
C1089 C1088 1.386 . S
C1089 C1093 1.393 . S
C1090 H1079 0.950 . S
C1090 C1088 1.391 . S
C1090 C1091 1.400 . S
C1091 C1085 1.491 . S
C1091 C1090 1.400 . S
C1091 C1092 1.398 . S
C1092 H1080 0.950 . S
C1092 C1091 1.398 . S
C1092 C1093 1.391 . S
C1093 H1081 0.950 . S
C1093 C1089 1.393 . S
C1093 C1092 1.391 . S
H1094 C1102 0.950 . S
H1095 C1107 0.950 . S
H1096 C1104 0.950 1_565 S
H1097 C1106 0.950 . S
H1098 C1108 0.950 . S
H1099 C1110 0.950 . S
H1100 C1112 0.950 . S
H1101 C1113 0.950 . S
C1102 H1094 0.950 . S
C1102 C1103 1.386 . S
C1102 C1104 1.391 . S
C1103 C1102 1.386 . S
C1103 C1107 1.393 . S
C1104 H1096 0.950 1_545 S
C1104 C1102 1.391 . S
C1104 C1105 1.405 1_545 S
C1105 C1104 1.405 1_565 S
C1105 C1106 1.370 1_565 S
C1105 C1111 1.514 . S
C1106 H1097 0.950 . S
C1106 C1105 1.370 1_545 S
C1106 C1107 1.391 . S
C1107 H1095 0.950 . S
C1107 C1103 1.393 . S
C1107 C1106 1.391 . S
C1108 H1098 0.950 . S
C1108 C1109 1.386 . S
C1108 C1110 1.391 . S
C1109 C1108 1.386 . S
C1109 C1113 1.393 . S
C1110 H1099 0.950 . S
C1110 C1108 1.391 . S
C1110 C1111 1.400 . S
C1111 C1105 1.514 . S
C1111 C1110 1.400 . S
C1111 C1112 1.398 . S
C1112 H1100 0.950 . S
C1112 C1111 1.398 . S
C1112 C1113 1.391 . S
C1113 H1101 0.950 . S
C1113 C1109 1.393 . S
C1113 C1112 1.391 . S
H1114 C1122 0.950 . S
H1115 C1127 0.950 . S
H1116 C1124 0.950 . S
H1117 C1126 0.950 . S
H1118 C1128 0.950 . S
H1119 C1130 0.950 . S
H1120 C1132 0.950 1_455 S
H1121 C1133 0.950 . S
C1122 H1114 0.950 . S
C1122 C1123 1.386 . S
C1122 C1124 1.391 . S
C1123 C1122 1.386 . S
C1123 C1127 1.393 . S
C1124 H1116 0.950 . S
C1124 C1122 1.391 . S
C1124 C1125 1.400 . S
C1125 C1124 1.400 . S
C1125 C1126 1.398 . S
C1125 C1131 1.491 1_455 S
C1126 H1117 0.950 . S
C1126 C1125 1.398 . S
C1126 C1127 1.391 . S
C1127 H1115 0.950 . S
C1127 C1123 1.393 . S
C1127 C1126 1.391 . S
C1128 H1118 0.950 . S
C1128 C1129 1.386 . S
C1128 C1130 1.391 . S
C1129 C1128 1.386 . S
C1129 C1133 1.393 . S
C1130 H1119 0.950 . S
C1130 C1128 1.391 . S
C1130 C1131 1.400 . S
C1131 C1125 1.491 1_655 S
C1131 C1130 1.400 . S
C1131 C1132 1.398 . S
C1132 H1120 0.950 1_655 S
C1132 C1131 1.398 . S
C1132 C1133 1.391 . S
C1133 H1121 0.950 . S
C1133 C1129 1.393 . S
C1133 C1132 1.391 . S
C423 N104 1.178 . S
C429 N12 1.157 . S
C443 N117 1.855 . S
C449 C39 1.873 . S
C463 N58 1.149 . S
C469 N71 1.161 . S
C483 N94 1.170 1_455 S
C489 N2 1.194 . S
C503 N127 1.838 . S
C509 C30 1.876 . S
C523 N48 1.144 . S
C529 N81 1.170 . S
C543 N232 1.169 . S
C549 N150 1.165 . S
C563 N255 1.174 . S
C569 N173 1.175 . S
C583 N196 1.139 . S
C589 N209 1.156 . S
C603 N140 1.139 . S
C609 N242 1.122 . S
C623 N265 1.155 . S
C629 N163 1.132 . S
C643 N219 1.148 . S
C649 N186 1.156 . S
C663 N380 1.171 . S
C669 N288 1.176 . S
C683 C315 1.874 . S
C689 N403 1.838 . S
C703 N347 1.158 . S
C709 N324 1.160 . S
C723 N370 1.154 . S
C729 N278 1.171 . S
C743 N393 1.865 . S
C749 C306 1.889 . S
C763 N334 1.115 . S
C769 N357 1.129 . S
C783 C16 1.489 . S
C789 C214 1.492 . S
C803 C237 1.564 . S
C809 N35 1.521 . S
C823 C260 1.529 . S
C829 C62 1.532 . S
C843 C76 1.575 . S
C849 C292 1.580 . S
C863 N311 1.475 . S
C869 C108 1.494 . S
C883 C329 1.563 . S
C889 C122 1.563 . S
C903 C361 1.488 . S
C909 C7 1.498 . S
C923 C375 1.590 . S
C929 N25 1.597 . S
C943 C398 1.520 . S
C949 C53 1.518 . S
C963 C85 1.515 . S
C969 C145 1.540 . S
C983 C99 1.534 . S
C989 C168 1.532 . S
C1003 C191 1.550 . S
C1009 C131 1.532 . S
C1023 C352 1.533 . S
C1029 C154 1.533 . S
C1043 C384 1.538 . S
C1049 C177 1.572 . S
C1063 C200 1.525 . S
C1069 C407 1.507 . S
C1083 C283 1.566 . S
C1089 C223 1.556 . S
C1103 N301 1.492 . S
C1109 C246 1.499 . S
C1123 C269 1.545 . S
C1129 C338 1.561 . S
