# Generated by pormake.
# Topology mdf, (4)-cn, num edge types: 1
# Building blocks:
#     Node 0, Type 0, BuildingBlock: ICAMEG_clean_sbu_1, # of connection points: 4
#     Node 1, Type 0, BuildingBlock: ICAMEG_clean_sbu_1, # of connection points: 4
#     Node 2, Type 0, BuildingBlock: ICAMEG_clean_sbu_1, # of connection points: 4
#     Node 3, Type 0, BuildingBlock: ICAMEG_clean_sbu_1, # of connection points: 4
#     Node 4, Type 0, BuildingBlock: ICAMEG_clean_sbu_1, # of connection points: 4
#     Node 5, Type 0, BuildingBlock: ICAMEG_clean_sbu_1, # of connection points: 4
#     Node 6, Type 0, BuildingBlock: ICAMEG_clean_sbu_1, # of connection points: 4
#     Node 7, Type 0, BuildingBlock: ICAMEG_clean_sbu_1, # of connection points: 4
#     Edge 8, Type (0, 0), BuildingBlock: TEMPAE_clean_linker_10, # of connection points: 2
#     Edge 9, Type (0, 0), BuildingBlock: TEMPAE_clean_linker_10, # of connection points: 2
#     Edge 10, Type (0, 0), BuildingBlock: TEMPAE_clean_linker_10, # of connection points: 2
#     Edge 11, Type (0, 0), BuildingBlock: TEMPAE_clean_linker_10, # of connection points: 2
#     Edge 12, Type (0, 0), BuildingBlock: TEMPAE_clean_linker_10, # of connection points: 2
#     Edge 13, Type (0, 0), BuildingBlock: TEMPAE_clean_linker_10, # of connection points: 2
#     Edge 14, Type (0, 0), BuildingBlock: TEMPAE_clean_linker_10, # of connection points: 2
#     Edge 15, Type (0, 0), BuildingBlock: TEMPAE_clean_linker_10, # of connection points: 2
#     Edge 16, Type (0, 0), BuildingBlock: TEMPAE_clean_linker_10, # of connection points: 2
#     Edge 17, Type (0, 0), BuildingBlock: TEMPAE_clean_linker_10, # of connection points: 2
#     Edge 18, Type (0, 0), BuildingBlock: TEMPAE_clean_linker_10, # of connection points: 2
#     Edge 19, Type (0, 0), BuildingBlock: TEMPAE_clean_linker_10, # of connection points: 2
#     Edge 20, Type (0, 0), BuildingBlock: TEMPAE_clean_linker_10, # of connection points: 2
#     Edge 21, Type (0, 0), BuildingBlock: TEMPAE_clean_linker_10, # of connection points: 2
#     Edge 22, Type (0, 0), BuildingBlock: TEMPAE_clean_linker_10, # of connection points: 2
#     Edge 23, Type (0, 0), BuildingBlock: TEMPAE_clean_linker_10, # of connection points: 2
# Relax obj value: 0.008
# Max RMSD: 0.050
# Mean RMSD: 0.050
data_MOF--net-mdf--node1-ICAMEG_clean_sbu_1--edge1-TEMPAE_clean_linker_10
_symmetry_space_group_name_H-M    P1
_symmetry_Int_Tables_number       1
_symmetry_cell_setting            triclinic
loop_
_symmetry_equiv_pos_as_xyz
'x, y, z'
_cell_length_a     42.158237
_cell_length_b     42.144846
_cell_length_c     11.383364
_cell_angle_alpha  90.138635
_cell_angle_beta   89.969641
_cell_angle_gamma 89.939384
loop_
_atom_site_label
_atom_site_type_symbol
_atom_site_fract_x
_atom_site_fract_y
_atom_site_fract_z
_atom_type_partial_charge
Co0 Co 0.23921 0.49972 0.53342 0.0
Co1 Co 0.2705 0.49833 0.25269 0.0
O2 O 0.25618 0.52145 0.39361 0.0
C3 C 0.17808 0.53314 0.56985 0.0
O4 O 0.16419 0.50549 0.55684 0.0
C5 C 0.30587 0.55931 0.24027 0.0
O6 O 0.28084 0.57381 0.2835 0.0
O7 O 0.29833 0.47169 0.35145 0.0
O8 O 0.27049 0.46399 0.51693 0.0
H9 H 0.25937 0.43418 0.87966 0.0
H10 H 0.25889 0.56705 0.55246 0.0
O11 O 0.208 0.53556 0.55521 0.0
H12 H 0.32144 0.51042 0.85197 0.0
H13 H 0.19154 0.49481 0.9395 0.0
H14 H 0.22151 0.43326 0.58772 0.0
H15 H 0.28469 0.48121 0.72216 0.0
H16 H 0.21842 0.52076 0.77275 0.0
O17 O 0.30624 0.52918 0.23125 0.0
H18 H 0.23966 0.46527 0.04925 0.0
H19 H 0.33415 0.48017 0.16516 0.0
H20 H 0.19497 0.40632 0.75287 0.0
H21 H 0.29506 0.59718 0.68133 0.0
H22 H 0.1795 0.43726 0.9299 0.0
H23 H 0.32609 0.56883 0.83356 0.0
O24 O 0.2085 0.47622 0.43375 0.0
H25 H 0.24486 0.56492 0.89796 0.0
H26 H 0.20443 0.5231 0.27302 0.0
H27 H 0.16949 0.55566 0.14893 0.0
H28 H 0.18963 0.57654 0.95957 0.0
H29 H 0.27881 0.5315 0.02337 0.0
H30 H 0.35473 0.45007 -0.00427 0.0
H31 H 0.31718 0.42694 0.85137 0.0
O32 O 0.23557 0.46635 0.26815 0.0
C33 C 0.29379 0.45771 0.44898 0.0
C34 C 0.27585 0.44444 0.94161 0.0
C35 C 0.32943 0.45331 0.00665 0.0
N36 N 0.28569 0.47494 0.11625 0.0
C37 C 0.26486 0.46198 0.03778 0.0
C38 C 0.3176 0.47054 0.10206 0.0
C39 C 0.30835 0.44026 0.92587 0.0
C40 C 0.27251 0.55454 0.61811 0.0
N41 N 0.26943 0.52246 0.63064 0.0
C42 C 0.29299 0.57171 0.69062 0.0
C43 C 0.31054 0.55578 0.77573 0.0
C44 C 0.30783 0.52297 0.7863 0.0
C45 C 0.28707 0.50658 0.71236 0.0
C46 C 0.19817 0.48112 0.86283 0.0
C47 C 0.21528 0.4468 0.66512 0.0
C48 C 0.21358 0.49564 0.76854 0.0
N49 N 0.22159 0.47858 0.6706 0.0
C50 C 0.20006 0.43144 0.75806 0.0
C51 C 0.19136 0.44881 0.85731 0.0
C52 C 0.21198 0.46176 0.33623 0.0
C53 C 0.23576 0.5556 0.97978 0.0
C54 C 0.21328 0.53169 0.19014 0.0
C55 C 0.19344 0.55038 0.12058 0.0
C56 C 0.20479 0.56225 0.01454 0.0
N57 N 0.24344 0.52465 0.15446 0.0
C58 C 0.25481 0.53658 0.05102 0.0
Co59 Co 0.49986 0.75984 0.49187 0.0
Co60 Co 0.5104 0.74393 0.77895 0.0
O61 O 0.48253 0.75224 0.64652 0.0
C62 C 0.45874 0.81838 0.49822 0.0
O63 O 0.4752 0.83025 0.58579 0.0
C64 C 0.46117 0.69424 0.79016 0.0
O65 O 0.46394 0.69151 0.67584 0.0
O66 O 0.52944 0.70728 0.69654 0.0
O67 O 0.53581 0.72902 0.51867 0.0
H68 H 0.61464 0.71861 0.97016 0.0
H69 H 0.43102 0.74598 0.50129 0.0
O70 O 0.46465 0.79065 0.45934 0.0
H71 H 0.47922 0.65268 0.31131 0.0
H72 H 0.48939 0.80257 0.09468 0.0
H73 H 0.56481 0.76891 0.39792 0.0
H74 H 0.51189 0.69859 0.36328 0.0
H75 H 0.47139 0.77116 0.25895 0.0
O76 O 0.47763 0.71453 0.84657 0.0
H77 H 0.57964 0.73375 0.807 0.0
H78 H 0.49977 0.73264 0.03463 0.0
H79 H 0.58508 0.79692 0.22387 0.0
H80 H 0.39715 0.70117 0.44439 0.0
H81 H 0.54727 0.81616 0.07389 0.0
H82 H 0.42118 0.65362 0.3527 0.0
O83 O 0.52624 0.79491 0.55255 0.0
H84 H 0.41765 0.8112 0.89524 0.0
H85 H 0.53422 0.80647 0.87364 0.0
H86 H 0.50813 0.8574 0.91439 0.0
H87 H 0.44935 0.86008 0.92536 0.0
H88 H 0.44441 0.76144 0.84245 0.0
H89 H 0.53386 0.71508 0.19758 0.0
H90 H 0.59164 0.70866 0.16766 0.0
O91 O 0.54482 0.77215 0.71451 0.0
C92 C 0.54169 0.7075 0.59449 0.0
C93 C 0.58948 0.72178 0.98529 0.0
C94 C 0.54409 0.71971 0.11283 0.0
N95 N 0.5377 0.73507 0.91176 0.0
C96 C 0.56952 0.73089 0.8935 0.0
C97 C 0.52492 0.72964 0.01992 0.0
C98 C 0.57658 0.71608 0.09575 0.0
C99 C 0.44161 0.72622 0.45511 0.0
N100 N 0.4735 0.72555 0.43263 0.0
C101 C 0.42227 0.70064 0.42475 0.0
C102 C 0.43579 0.67397 0.37274 0.0
C103 C 0.46824 0.67346 0.34944 0.0
C104 C 0.48675 0.69969 0.37924 0.0
C105 C 0.5067 0.79433 0.15654 0.0
C106 C 0.54857 0.77483 0.32793 0.0
C107 C 0.49635 0.77654 0.25133 0.0
N108 N 0.51685 0.76872 0.33883 0.0
C109 C 0.56011 0.7913 0.23079 0.0
C110 C 0.53881 0.80192 0.14617 0.0
C111 C 0.54603 0.79362 0.63609 0.0
C112 C 0.44328 0.81031 0.89075 0.0
C113 C 0.50867 0.80725 0.876 0.0
C114 C 0.494 0.83631 0.90012 0.0
C115 C 0.46106 0.83777 0.9073 0.0
N116 N 0.49108 0.78055 0.85527 0.0
C117 C 0.45872 0.78188 0.86344 0.0
Co118 Co 0.23975 0.0074 0.72522 0.0
Co119 Co 0.25638 0.99622 0.01117 0.0
O120 O 0.24789 0.97907 0.85657 0.0
C121 C 0.18997 0.95839 0.70962 0.0
O122 O 0.18743 0.95997 0.82429 0.0
C123 C 0.31438 0.95477 0.00197 0.0
O124 O 0.32548 0.97085 0.91225 0.0
O125 O 0.29173 0.02213 0.94929 0.0
O126 O 0.26805 0.04134 0.79048 0.0
H127 H 0.29542 0.08093 0.27877 0.0
H128 H 0.2569 0.94135 0.66089 0.0
O129 O 0.21019 0.97528 0.65526 0.0
H130 H 0.35306 0.00474 0.58989 0.0
H131 H 0.21385 0.03271 0.30538 0.0
H132 H 0.22892 0.07661 0.70146 0.0
H133 H 0.3021 0.03102 0.62907 0.0
H134 H 0.22997 0.9978 0.46817 0.0
O135 O 0.28681 0.96058 0.04247 0.0
H136 H 0.26696 0.06104 0.10479 0.0
H137 H 0.26778 0.96762 0.24362 0.0
H138 H 0.21478 0.11232 0.53923 0.0
H139 H 0.3066 0.91437 0.60885 0.0
H140 H 0.20678 0.09021 0.33902 0.0
H141 H 0.35559 0.94591 0.57935 0.0
O142 O 0.20339 0.02664 0.80917 0.0
H143 H 0.195 0.89504 0.05595 0.0
H144 H 0.19638 0.00942 0.1448 0.0
H145 H 0.14977 0.97796 0.1977 0.0
H146 H 0.14844 0.92033 0.15065 0.0
H147 H 0.24085 0.92772 0.00026 0.0
H148 H 0.29952 0.98518 0.40792 0.0
H149 H 0.31411 0.04286 0.4287 0.0
O150 O 0.22598 0.0325 0.98582 0.0
C151 C 0.29013 0.04204 0.86638 0.0
C152 C 0.28938 0.05604 0.27186 0.0
C153 C 0.29154 0.00261 0.34612 0.0
N154 N 0.26601 0.0131 0.16389 0.0
C155 C 0.27267 0.04473 0.17474 0.0
C156 C 0.27355 0.99251 0.25132 0.0
C157 C 0.29967 0.03461 0.35648 0.0
C158 C 0.2774 0.95558 0.64006 0.0
N159 N 0.27617 0.98795 0.6481 0.0
C160 C 0.30579 0.94002 0.61326 0.0
C161 C 0.33331 0.95771 0.59714 0.0
C162 C 0.33194 0.99067 0.604 0.0
C163 C 0.30288 0.00546 0.62719 0.0
C164 C 0.2176 0.04248 0.3915 0.0
C165 C 0.22667 0.06689 0.61397 0.0
C166 C 0.22674 0.02288 0.48418 0.0
N167 N 0.23118 0.03518 0.59382 0.0
C168 C 0.21821 0.08725 0.52268 0.0
C169 C 0.21361 0.07486 0.41063 0.0
C170 C 0.20418 0.03886 0.91152 0.0
C171 C 0.19537 0.92007 0.07739 0.0
C172 C 0.19666 0.98432 0.12739 0.0
C173 C 0.16999 0.96653 0.15735 0.0
C174 C 0.16929 0.93425 0.13118 0.0
N175 N 0.22185 0.97051 0.07169 0.0
C176 C 0.22151 0.93869 0.04757 0.0
Co177 Co 0.98986 0.77146 0.25468 0.0
Co178 Co 0.99474 0.7456 0.97177 0.0
O179 O 0.0156 0.75802 0.11908 0.0
C180 C 0.04355 0.81791 0.24365 0.0
O181 O 0.04611 0.81369 0.1298 0.0
C182 C 0.04233 0.69294 -0.00106 0.0
O183 O 0.03249 0.68779 0.10672 0.0
O184 O 0.97147 0.71218 0.05743 0.0
O185 O 0.95524 0.74048 0.21302 0.0
H186 H 0.91992 0.7531 0.62274 0.0
H187 H 0.05629 0.75146 0.29471 0.0
O188 O 0.02313 0.80265 0.30319 0.0
H189 H 0.99081 0.67496 0.5131 0.0
H190 H 0.9716 0.82093 0.65101 0.0
H191 H 0.92125 0.78362 0.28684 0.0
H192 H 0.96605 0.72093 0.41516 0.0
H193 H 0.00307 0.79198 0.50273 0.0
O194 O 0.02989 0.71485 0.93756 0.0
H195 H 0.95111 0.77481 0.78448 0.0
H196 H 0.98797 0.68315 0.85807 0.0
H197 H 0.88874 0.80985 0.43794 0.0
H198 H 0.08212 0.70718 0.39897 0.0
H199 H 0.91417 0.8295 0.62094 0.0
H200 H 0.04898 0.6682 0.5074 0.0
O201 O 0.97005 0.80464 0.15823 0.0
H202 H 0.09603 0.79772 0.8364 0.0
H203 H 0.98043 0.8106 0.85772 0.0
H204 H 0.01222 0.85222 0.7714 0.0
H205 H 0.07058 0.84626 0.75892 0.0
H206 H 0.06392 0.75689 0.92768 0.0
H207 H 0.95697 0.6608 0.69682 0.0
H208 H 0.92259 0.6958 0.57677 0.0
O209 O 0.95805 0.7758 -5e-05 0.0
C210 C 0.95414 0.71589 0.14771 0.0
C211 C 0.93573 0.73791 0.67184 0.0
C212 C 0.9563 0.68608 0.71364 0.0
N213 N 0.97366 0.73108 0.82801 0.0
C214 C 0.95412 0.75024 0.76339 0.0
C215 C 0.97448 0.6992 0.8039 0.0
C216 C 0.93693 0.70566 0.64674 0.0
C217 C 0.04191 0.73531 0.34545 0.0
N218 N 0.00972 0.73891 0.34948 0.0
C219 C 0.05664 0.71011 0.40342 0.0
C220 C 0.03811 0.6883 0.46438 0.0
C221 C 0.00535 0.69221 0.46837 0.0
C222 C 0.9915 0.71809 0.41174 0.0
C223 C 0.96036 0.81202 0.57281 0.0
C224 C 0.93232 0.79065 0.36838 0.0
C225 C 0.97802 0.79574 0.48801 0.0
N226 N 0.9641 0.78599 0.38578 0.0
C227 C 0.9138 0.80598 0.45297 0.0
C228 C 0.92807 0.81708 0.55532 0.0
C229 C 0.95403 0.80016 0.06548 0.0
C230 C 0.07047 0.80015 0.83802 0.0
C231 C 0.00538 0.80631 0.85043 0.0
C232 C 0.02353 0.8307 0.80179 0.0
C233 C 0.05624 0.82742 0.79475 0.0
N234 N 0.01916 0.77891 0.89049 0.0
C235 C 0.05164 0.77642 0.88736 0.0
Co236 Co 0.73407 0.00456 0.97037 0.0
Co237 Co 0.76083 0.00714 0.68693 0.0
O238 O 0.74868 0.02874 0.83356 0.0
C239 C 0.67314 0.03773 0.02327 0.0
O240 O 0.65847 0.01088 0.00177 0.0
C241 C 0.81849 0.04987 0.70231 0.0
O242 O 0.82826 0.03586 0.79867 0.0
O243 O 0.79278 0.98205 0.7736 0.0
O244 O 0.7656 0.96958 0.93681 0.0
H245 H 0.75036 0.93525 0.32953 0.0
H246 H 0.75331 0.07149 0.00415 0.0
O247 O 0.70311 0.03975 0.00833 0.0
H248 H 0.82444 0.00955 0.259 0.0
H249 H 0.68297 0.99039 0.36578 0.0
H250 H 0.72035 0.93669 0.00799 0.0
H251 H 0.78302 0.98273 0.14163 0.0
H252 H 0.71352 0.02003 0.21725 0.0
O253 O 0.79274 0.04133 0.65319 0.0
H254 H 0.72989 0.9671 0.49226 0.0
H255 H 0.82342 0.99579 0.57972 0.0
H256 H 0.69244 0.90592 0.15945 0.0
H257 H 0.79309 0.09921 0.12559 0.0
H258 H 0.67277 0.93308 0.33924 0.0
H259 H 0.82884 0.06794 0.25452 0.0
O260 O 0.7018 0.98327 0.87229 0.0
H261 H 0.7115 0.11071 0.56311 0.0
H262 H 0.69493 0.99551 0.5753 0.0
H263 H 0.65374 0.02929 0.49612 0.0
H264 H 0.66156 0.08749 0.48889 0.0
H265 H 0.7519 0.07667 0.64666 0.0
H266 H 0.84459 0.96413 0.41762 0.0
H267 H 0.80797 0.93354 0.29 0.0
O268 O 0.72991 0.97145 0.7126 0.0
C269 C 0.78913 0.96581 0.86695 0.0
C270 C 0.76631 0.94942 0.38204 0.0
C271 C 0.81922 0.96536 0.43178 0.0
N272 N 0.77484 0.98561 0.54308 0.0
C273 C 0.75474 0.96817 0.47419 0.0
C274 C 0.80685 0.98396 0.52254 0.0
C275 C 0.79874 0.94814 0.36056 0.0
C276 C 0.76846 0.05782 0.06152 0.0
N277 N 0.76561 0.02555 0.06682 0.0
C278 C 0.79105 0.07364 0.12952 0.0
C279 C 0.81113 0.05614 0.20172 0.0
C280 C 0.80846 0.02324 0.20505 0.0
C281 C 0.78522 0.00824 0.13751 0.0
C282 C 0.69191 0.97839 0.28916 0.0
C283 C 0.71316 0.94847 0.08808 0.0
C284 C 0.7091 0.995 0.20435 0.0
N285 N 0.71852 0.98023 0.10326 0.0
C286 C 0.69694 0.93095 0.17289 0.0
C287 C 0.68588 0.94618 0.27349 0.0
C288 C 0.70608 0.96715 0.77953 0.0
C289 C 0.70829 0.08523 0.56211 0.0
C290 C 0.7001 0.02032 0.5689 0.0
C291 C 0.67592 0.03962 0.52488 0.0
C292 C 0.68022 0.07223 0.5208 0.0
N293 N 0.72835 0.03287 0.60652 0.0
C294 C 0.73181 0.06528 0.60655 0.0
Co295 Co 0.01307 0.26483 0.93138 0.0
Co296 Co 0.00227 0.24923 0.21838 0.0
O297 O 0.98482 0.25775 0.06418 0.0
C298 C 0.96515 0.31585 0.91639 0.0
O299 O 0.96707 0.31857 0.03093 0.0
C300 C 0.95874 0.19274 0.2129 0.0
O301 O 0.97388 0.18121 0.1214 0.0
O302 O 0.02677 0.2128 0.15616 0.0
O303 O 0.04638 0.23561 -0.00367 0.0
H304 H 0.08651 0.20799 0.48272 0.0
H305 H 0.94659 0.24914 0.8706 0.0
O306 O 0.9815 0.29512 0.86176 0.0
H307 H 0.00776 0.15165 0.79347 0.0
H308 H 0.03877 0.2914 0.5124 0.0
H309 H 0.0826 0.27289 0.90569 0.0
H310 H 0.03517 0.20187 0.83454 0.0
H311 H 0.00354 0.27574 0.67472 0.0
O312 O 0.96569 0.22009 0.25313 0.0
H313 H 0.06707 0.23691 0.30928 0.0
H314 H 0.97408 0.23931 0.45243 0.0
H315 H 0.11856 0.2863 0.74342 0.0
H316 H 0.91847 0.20018 0.81771 0.0
H317 H 0.09653 0.29612 0.54445 0.0
H318 H 0.9489 0.15056 0.78428 0.0
O319 O 0.03319 0.30086 0.01346 0.0
H320 H 0.90344 0.31439 0.26956 0.0
H321 H 0.01806 0.30907 0.34925 0.0
H322 H 0.98826 0.35655 0.40731 0.0
H323 H 0.93068 0.35996 0.36355 0.0
H324 H 0.93433 0.26737 0.2112 0.0
H325 H 0.99094 0.20686 0.61531 0.0
H326 H 0.04821 0.19059 0.63432 0.0
O327 O 0.03951 0.27836 0.18975 0.0
C328 C 0.04656 0.21359 0.07247 0.0
C329 C 0.0618 0.2148 0.47675 0.0
C330 C 0.00849 0.21428 0.55299 0.0
N331 N 0.01935 0.23945 0.37046 0.0
C332 C 0.05077 0.23179 0.37999 0.0
C333 C 0.99876 0.23264 0.45883 0.0
C334 C 0.04025 0.20519 0.56222 0.0
C335 C 0.96032 0.22833 0.84856 0.0
N336 N 0.99271 0.22879 0.85543 0.0
C337 C 0.94412 0.20038 0.82111 0.0
C338 C 0.96119 0.1725 0.80289 0.0
C339 C 0.99418 0.17306 0.80898 0.0
C340 C 0.00961 0.20169 0.83328 0.0
C341 C 0.04852 0.28685 0.59779 0.0
C342 C 0.07284 0.27575 0.81865 0.0
C343 C 0.02872 0.27795 0.69032 0.0
N344 N 0.04097 0.2725 0.79922 0.0
C345 C 0.09338 0.28387 0.72735 0.0
C346 C 0.08103 0.28951 0.61607 0.0
C347 C 0.04593 0.29992 0.11462 0.0
C348 C 0.92853 0.31313 0.28916 0.0
C349 C 0.99289 0.30962 0.33417 0.0
C350 C 0.97609 0.33681 0.36655 0.0
C351 C 0.94377 0.33864 0.3426 0.0
N352 N 0.978 0.2849 0.27942 0.0
C353 C 0.94613 0.28635 0.25768 0.0
Co354 Co 0.74294 0.50355 0.23941 0.0
Co355 Co 0.76469 0.50654 0.53164 0.0
O356 O 0.75544 0.48291 0.38672 0.0
C357 C 0.67773 0.47616 0.20979 0.0
O358 O 0.66545 0.50464 0.21908 0.0
C359 C 0.82308 0.46752 0.48414 0.0
O360 O 0.81643 0.46633 0.37165 0.0
O361 O 0.7889 0.53961 0.4462 0.0
O362 O 0.77908 0.53382 0.25426 0.0
H363 H 0.7677 0.60655 0.7693 0.0
H364 H 0.75157 0.43346 0.24307 0.0
O365 O 0.70747 0.47202 0.22278 0.0
H366 H 0.83014 0.47343 0.95913 0.0
H367 H 0.68197 0.51376 0.86332 0.0
H368 H 0.74424 0.57025 0.16029 0.0
H369 H 0.79357 0.51033 0.06344 0.0
H370 H 0.71305 0.48335 0.00908 0.0
O371 O 0.80536 0.48274 0.55511 0.0
H372 H 0.75347 0.57296 0.60214 0.0
H373 H 0.79846 0.49361 0.76114 0.0
H374 H 0.72016 0.6001 -0.00083 0.0
H375 H 0.78689 0.39572 0.1414 0.0
H376 H 0.68759 0.57172 0.85115 0.0
H377 H 0.82672 0.41577 -0.00076 0.0
O378 O 0.71426 0.53384 0.32184 0.0
H379 H 0.73998 0.39371 0.63839 0.0
H380 H 0.71048 0.5057 0.6991 0.0
H381 H 0.67934 0.46305 0.79745 0.0
H382 H 0.69454 0.40706 0.76765 0.0
H383 H 0.76896 0.43633 0.53867 0.0
H384 H 0.82014 0.52912 0.914 0.0
H385 H 0.80133 0.58474 0.92732 0.0
O386 O 0.72445 0.531 0.51381 0.0
C387 C 0.79383 0.54675 0.33933 0.0
C388 C 0.77449 0.58178 0.7683 0.0
C389 C 0.80319 0.53798 0.85115 0.0
N390 N 0.77351 0.53067 0.67367 0.0
C391 C 0.76556 0.56219 0.67534 0.0
C392 C 0.79162 0.51831 0.76191 0.0
C393 C 0.79356 0.56954 0.85656 0.0
C394 C 0.76832 0.44232 0.17921 0.0
N395 N 0.77025 0.4741 0.15631 0.0
C396 C 0.78842 0.42083 0.12258 0.0
C397 C 0.81076 0.43208 0.04271 0.0
C398 C 0.81267 0.4645 0.02032 0.0
C399 C 0.79205 0.48524 0.07856 0.0
C400 C 0.69775 0.52578 0.92286 0.0
C401 C 0.73274 0.55719 0.09073 0.0
C402 C 0.71457 0.50892 0.00816 0.0
N403 N 0.73038 0.52477 0.09488 0.0
C404 C 0.7184 0.57449 0.00095 0.0
C405 C 0.70024 0.55862 0.91779 0.0
C406 C 0.70854 0.54159 0.42764 0.0
C407 C 0.7335 0.41824 0.65362 0.0
C408 C 0.71717 0.48122 0.68774 0.0
C409 C 0.69959 0.45734 0.74307 0.0
C410 C 0.70802 0.42572 0.7262 0.0
N411 N 0.74214 0.47372 0.61694 0.0
C412 C 0.75014 0.44263 0.59853 0.0
Co413 Co 0.49672 0.25978 0.81829 0.0
Co414 Co 0.49623 0.2388 0.5309 0.0
O415 O 0.51953 0.24848 0.67517 0.0
C416 C 0.54286 0.31274 0.79893 0.0
O417 O 0.53317 0.31734 0.69075 0.0
C418 C 0.54419 0.18614 0.53113 0.0
O419 O 0.53395 0.17699 0.63462 0.0
O420 O 0.4745 0.20342 0.61229 0.0
O421 O 0.46221 0.22846 0.78081 0.0
H422 H 0.41361 0.25015 0.20837 0.0
H423 H 0.56352 0.23839 0.82814 0.0
O424 O 0.5312 0.29034 0.85992 0.0
H425 H 0.50418 0.16382 0.0784 0.0
H426 H 0.4877 0.31147 0.21031 0.0
H427 H 0.42881 0.26989 0.87184 0.0
H428 H 0.47712 0.20953 0.98684 0.0
H429 H 0.51499 0.27914 0.06208 0.0
O430 O 0.53193 0.21018 0.481 0.0
H431 H 0.44656 0.26958 0.36845 0.0
H432 H 0.49162 0.17954 0.39188 0.0
H433 H 0.40017 0.29939 0.02535 0.0
H434 H 0.59149 0.19315 0.91862 0.0
H435 H 0.42994 0.32145 0.19526 0.0
H436 H 0.56149 0.15521 0.04287 0.0
O437 O 0.47416 0.29381 0.73419 0.0
H438 H 0.594 0.30076 0.42542 0.0
H439 H 0.47765 0.30465 0.4348 0.0
H440 H 0.50699 0.35185 0.3832 0.0
H441 H 0.56564 0.35078 0.37932 0.0
H442 H 0.56422 0.25415 0.48445 0.0
H443 H 0.46062 0.1604 0.22568 0.0
H444 H 0.4213 0.19578 0.13106 0.0
O445 O 0.45922 0.26685 0.57574 0.0
C446 C 0.45915 0.20528 0.70884 0.0
C447 C 0.43195 0.23516 0.24459 0.0
C448 C 0.45811 0.18474 0.25474 0.0
N449 N 0.47338 0.22687 0.38714 0.0
C450 C 0.45108 0.24611 0.33644 0.0
C451 C 0.47631 0.19619 0.34806 0.0
C452 C 0.4359 0.20448 0.20226 0.0
C453 C 0.55051 0.2223 0.8841 0.0
N454 N 0.51877 0.22653 0.90228 0.0
C455 C 0.56642 0.19667 0.93463 0.0
C456 C 0.54961 0.17543 0.0046 0.0
C457 C 0.51739 0.18028 0.02461 0.0
C458 C 0.50225 0.20617 0.97265 0.0
C459 C 0.4744 0.30135 0.13929 0.0
C460 C 0.44165 0.27765 0.94876 0.0
C461 C 0.48978 0.28321 0.05401 0.0
N462 N 0.47365 0.27276 0.9576 0.0
C463 C 0.42535 0.29497 0.03431 0.0
C464 C 0.44203 0.30737 0.12934 0.0
C465 C 0.45591 0.28998 0.64709 0.0
C466 C 0.56833 0.3014 0.42495 0.0
C467 C 0.50292 0.30254 0.43092 0.0
C468 C 0.51962 0.33007 0.40205 0.0
C469 C 0.5525 0.32945 0.39921 0.0
N470 N 0.51834 0.2748 0.45732 0.0
C471 C 0.55091 0.27447 0.45537 0.0
C472 C 0.44996 0.65712 0.95437 0.0
C473 C 0.43942 0.67319 0.85429 0.0
C474 C 0.4297 0.63653 0.01555 0.0
C475 C 0.39773 0.63332 0.97929 0.0
C476 C 0.3871 0.64946 0.87747 0.0
C477 C 0.40832 0.66875 0.81476 0.0
C478 C 0.44275 0.61763 0.11695 0.0
C479 C 0.35347 0.64606 0.83383 0.0
C480 C 0.34973 0.56345 0.09308 0.0
C481 C 0.33107 0.57782 0.18068 0.0
C482 C 0.37144 0.58114 0.02657 0.0
C483 C 0.37519 0.61391 0.04996 0.0
C484 C 0.35716 0.62836 0.14074 0.0
C485 C 0.33502 0.61023 0.204 0.0
C486 C 0.38986 0.56478 0.92993 0.0
C487 C 0.36068 0.66319 0.16911 0.0
H488 H 0.47432 0.66007 0.98297 0.0
H489 H 0.40041 0.681 0.73637 0.0
H490 H 0.42709 0.61974 0.1947 0.0
H491 H 0.44354 0.59216 0.09279 0.0
H492 H 0.46718 0.625 0.14055 0.0
H493 H 0.34819 0.66239 0.75989 0.0
H494 H 0.34961 0.62137 0.80329 0.0
H495 H 0.33634 0.65072 0.90588 0.0
H496 H 0.3466 0.53848 0.0733 0.0
H497 H 0.32067 0.62148 0.27129 0.0
H498 H 0.41518 0.56299 0.95509 0.0
H499 H 0.38867 0.57868 0.84739 0.0
H500 H 0.3809 0.54046 0.91212 0.0
H501 H 0.34803 0.66991 0.25115 0.0
H502 H 0.35096 0.67749 0.09572 0.0
H503 H 0.38609 0.66952 0.17852 0.0
C504 C 0.41926 0.82513 0.33658 0.0
C505 C 0.43574 0.83824 0.43237 0.0
C506 C 0.39997 0.8439 0.26459 0.0
C507 C 0.39638 0.87657 0.28996 0.0
C508 C 0.41237 0.88993 0.38775 0.0
C509 C 0.43198 0.87062 0.45761 0.0
C510 C 0.38398 0.82891 0.1595 0.0
C511 C 0.40984 0.92482 0.41635 0.0
C512 C 0.36766 0.93048 0.04363 0.0
C513 C 0.3352 0.93296 0.06915 0.0
C514 C 0.38796 0.91232 0.1149 0.0
C515 C 0.37551 0.89642 0.21431 0.0
C516 C 0.34278 0.89876 0.24018 0.0
C517 C 0.32302 0.91668 0.16686 0.0
C518 C 0.42288 0.91124 0.08597 0.0
C519 C 0.32874 0.88282 0.34691 0.0
H520 H 0.4219 0.80015 0.31593 0.0
H521 H 0.44486 0.88108 0.5304 0.0
H522 H 0.35786 0.83117 0.16787 0.0
H523 H 0.3911 0.84155 0.07821 0.0
H524 H 0.39007 0.80339 0.14943 0.0
H525 H 0.42613 0.93821 0.35816 0.0
H526 H 0.38549 0.93389 0.40088 0.0
H527 H 0.41658 0.92983 0.50889 0.0
H528 H 0.37742 0.94331 0.96954 0.0
H529 H 0.298 0.91841 0.18784 0.0
H530 H 0.43304 0.88739 0.1027 0.0
H531 H 0.43558 0.92838 0.14311 0.0
H532 H 0.42747 0.91778 0.99301 0.0
H533 H 0.33183 0.85674 0.33994 0.0
H534 H 0.30308 0.88812 0.35775 0.0
H535 H 0.34143 0.89075 0.42719 0.0
C536 C 0.05324 0.85645 0.40505 0.0
C537 C 0.06467 0.84005 0.30646 0.0
C538 C 0.07312 0.87627 0.47106 0.0
C539 C 0.10542 0.87929 0.43887 0.0
C540 C 0.11709 0.86274 0.33909 0.0
C541 C 0.09642 0.84357 0.27314 0.0
C542 C 0.05926 0.8941 0.57435 0.0
C543 C 0.15163 0.86398 0.30435 0.0
C544 C 0.15151 0.95094 0.54718 0.0
C545 C 0.16827 0.93816 0.64201 0.0
C546 C 0.13028 0.93222 0.4824 0.0
C547 C 0.12694 0.89965 0.50992 0.0
C548 C 0.14406 0.88664 0.60558 0.0
C549 C 0.1642 0.90625 0.67184 0.0
C550 C 0.11092 0.94746 0.38639 0.0
C551 C 0.14156 0.85195 0.63687 0.0
H552 H 0.02857 0.8539 0.43039 0.0
H553 H 0.10538 0.83045 0.19805 0.0
H554 H 0.05409 0.91884 0.54765 0.0
H555 H 0.0367 0.88329 0.60481 0.0
H556 H 0.07608 0.89508 0.64914 0.0
H557 H 0.15488 0.85858 0.20952 0.0
H558 H 0.1624 0.88741 0.32371 0.0
H559 H 0.16485 0.84587 0.3553 0.0
H560 H 0.15447 0.97582 0.52559 0.0
H561 H 0.17737 0.89649 0.74519 0.0
H562 H 0.08552 0.94736 0.41147 0.0
H563 H 0.11303 0.93369 0.30372 0.0
H564 H 0.11805 0.97242 0.37022 0.0
H565 H 0.1166 0.84377 0.63327 0.0
H566 H 0.15122 0.84696 0.72573 0.0
H567 H 0.15519 0.83778 0.57186 0.0
C568 C 0.07735 0.67912 0.82883 0.0
C569 C 0.06616 0.67189 0.94205 0.0
C570 C 0.09766 0.65841 0.76809 0.0
C571 C 0.10705 0.62962 0.82127 0.0
C572 C 0.09693 0.62272 0.9373 0.0
C573 C 0.07661 0.64396 -0.00359 0.0
C574 C 0.10834 0.66694 0.6455 0.0
C575 C 0.10705 0.59256 -0.00207 0.0
C576 C 0.1269 0.55933 0.62442 0.0
C577 C 0.16015 0.55962 0.62461 0.0
C578 C 0.10944 0.58227 0.68656 0.0
C579 C 0.12559 0.60581 0.7524 0.0
C580 C 0.15918 0.60661 0.75131 0.0
C581 C 0.17606 0.58365 0.68667 0.0
C582 C 0.07365 0.58114 0.68259 0.0
C583 C 0.17733 0.63138 0.81976 0.0
H584 H 0.06975 0.7008 0.78615 0.0
H585 H 0.06828 0.63825 0.08394 0.0
H586 H 0.13459 0.66746 0.64102 0.0
H587 H 0.10022 0.64859 0.58227 0.0
H588 H 0.0992 0.69042 0.61715 0.0
H589 H 0.09828 0.59127 0.08984 0.0
H590 H 0.098 0.57169 0.94877 0.0
H591 H 0.13329 0.59087 -0.00126 0.0
H592 H 0.11447 0.54091 0.57642 0.0
H593 H 0.20177 0.58389 0.68829 0.0
H594 H 0.06419 0.60408 0.65008 0.0
H595 H 0.06408 0.57754 0.77238 0.0
H596 H 0.06472 0.56181 0.62496 0.0
H597 H 0.17371 0.65502 0.77943 0.0
H598 H 0.2032 0.62635 0.82176 0.0
H599 H 0.16845 0.6328 0.91143 0.0
C600 C 0.82617 0.09083 0.54635 0.0
C601 C 0.83894 0.0729 0.63893 0.0
C602 C 0.84532 0.11063 0.4774 0.0
C603 C 0.87823 0.11253 0.50065 0.0
C604 C 0.89125 0.09499 0.59536 0.0
C605 C 0.87144 0.07542 0.66349 0.0
C606 C 0.83029 0.12944 0.3792 0.0
C607 C 0.92628 0.09585 0.62256 0.0
C608 C 0.93195 0.14052 0.25201 0.0
C609 C 0.93651 0.17255 0.28125 0.0
C610 C 0.91327 0.12064 0.32307 0.0
C611 C 0.89877 0.13305 0.42576 0.0
C612 C 0.90322 0.16534 0.45548 0.0
C613 C 0.92175 0.18471 0.38258 0.0
C614 C 0.90935 0.08625 0.28901 0.0
C615 C 0.88879 0.17934 0.56547 0.0
H616 H 0.80109 0.08918 0.52655 0.0
H617 H 0.88162 0.06139 0.73373 0.0
H618 H 0.83199 0.15515 0.39915 0.0
H619 H 0.84314 0.12526 0.29547 0.0
H620 H 0.8049 0.12331 0.36625 0.0
H621 H 0.93879 0.07899 0.56354 0.0
H622 H 0.93646 0.11975 0.60755 0.0
H623 H 0.93113 0.08871 0.71471 0.0
H624 H 0.94342 0.1308 0.17465 0.0
H625 H 0.92505 0.20939 0.40643 0.0
H626 H 0.88384 0.08074 0.27747 0.0
H627 H 0.91841 0.0708 0.36032 0.0
H628 H 0.92206 0.08024 0.20637 0.0
H629 H 0.86254 0.1786 0.55938 0.0
H630 H 0.89625 0.2043 0.58042 0.0
H631 H 0.89574 0.16503 0.64303 0.0
C632 C 0.91302 0.34148 0.87767 0.0
C633 C 0.94512 0.33788 0.84951 0.0
C634 C 0.89366 0.36232 0.81352 0.0
C635 C 0.90712 0.38074 0.72219 0.0
C636 C 0.93976 0.37746 0.69514 0.0
C637 C 0.95825 0.35553 0.75763 0.0
C638 C 0.85869 0.36381 0.84147 0.0
C639 C 0.95528 0.39766 0.60223 0.0
C640 C 0.85223 0.416 0.49106 0.0
C641 C 0.8476 0.44671 0.53508 0.0
C642 C 0.87151 0.39417 0.55103 0.0
C643 C 0.88721 0.40367 0.65549 0.0
C644 C 0.88323 0.435 0.69826 0.0
C645 C 0.86322 0.45602 0.63816 0.0
C646 C 0.87293 0.36043 0.50652 0.0
C647 C 0.89889 0.44587 0.81063 0.0
H648 H 0.90293 0.32744 0.9481 0.0
H649 H 0.98322 0.35278 0.73689 0.0
H650 H 0.84957 0.38844 0.8364 0.0
H651 H 0.84557 0.34951 0.77553 0.0
H652 H 0.85339 0.35414 0.93004 0.0
H653 H 0.98028 0.3906 0.58562 0.0
H654 H 0.9418 0.39624 0.51883 0.0
H655 H 0.95495 0.42286 0.63069 0.0
H656 H 0.83935 0.40842 0.41346 0.0
H657 H 0.85925 0.47965 0.67318 0.0
H658 H 0.85348 0.3467 0.54797 0.0
H659 H 0.89561 0.34859 0.52892 0.0
H660 H 0.86946 0.35942 0.40983 0.0
H661 H 0.88907 0.4323 0.88576 0.0
H662 H 0.89511 0.47157 0.82768 0.0
H663 H 0.92476 0.44111 0.80726 0.0
C664 C 0.67404 0.42447 0.10273 0.0
C665 C 0.65875 0.45018 0.15756 0.0
C666 C 0.65681 0.40142 0.04097 0.0
C667 C 0.62335 0.40367 0.03612 0.0
C668 C 0.60768 0.42899 0.09434 0.0
C669 C 0.6256 0.45215 0.15333 0.0
C670 C 0.67456 0.37469 0.98146 0.0
C671 C 0.57196 0.4316 0.0942 0.0
C672 C 0.5764 0.36195 0.79599 0.0
C673 C 0.56552 0.33491 0.8552 0.0
C674 C 0.59595 0.38419 0.85291 0.0
C675 C 0.60457 0.37934 0.97182 0.0
C676 C 0.59459 0.35157 0.03043 0.0
C677 C 0.57526 0.3297 0.97152 0.0
C678 C 0.60718 0.41301 0.78637 0.0
C679 C 0.60391 0.34518 0.15611 0.0
H680 H 0.69969 0.4228 0.10478 0.0
H681 H 0.61365 0.47188 0.1957 0.0
H682 H 0.67278 0.35297 0.03579 0.0
H683 H 0.66427 0.36918 0.89408 0.0
H684 H 0.70013 0.38031 0.97029 0.0
H685 H 0.56338 0.45234 0.14568 0.0
H686 H 0.56317 0.43379 0.00273 0.0
H687 H 0.56141 0.40973 0.13171 0.0
H688 H 0.56925 0.36603 0.70583 0.0
H689 H 0.56736 0.30869 0.01776 0.0
H690 H 0.63341 0.4147 0.79102 0.0
H691 H 0.59738 0.43482 0.82747 0.0
H692 H 0.59994 0.41242 0.69257 0.0
H693 H 0.63001 0.3426 0.16269 0.0
H694 H 0.59283 0.32323 0.19075 0.0
H695 H 0.59702 0.36555 0.2125 0.0
C696 C 0.67283 0.08565 0.15417 0.0
C697 C 0.65605 0.06336 0.08689 0.0
C698 C 0.65697 0.10722 0.22815 0.0
C699 C 0.62331 0.10699 0.23321 0.0
C700 C 0.60626 0.08581 0.15946 0.0
C701 C 0.62283 0.06394 0.08908 0.0
C702 C 0.67687 0.12982 0.3001 0.0
C703 C 0.57045 0.08524 0.15676 0.0
C704 C 0.57261 0.13481 0.49194 0.0
C705 C 0.56728 0.16668 0.46367 0.0
C706 C 0.59147 0.11529 0.41978 0.0
C707 C 0.60568 0.12805 0.31679 0.0
C708 C 0.60134 0.16066 0.29078 0.0
C709 C 0.58225 0.17946 0.36438 0.0
C710 C 0.59477 0.08086 0.45426 0.0
C711 C 0.6165 0.17614 0.18523 0.0
H712 H 0.69855 0.08551 0.15286 0.0
H713 H 0.60964 0.04697 0.03666 0.0
H714 H 0.68417 0.14996 0.24372 0.0
H715 H 0.66418 0.13934 0.37796 0.0
H716 H 0.69903 0.11806 0.32991 0.0
H717 H 0.56176 0.06868 0.22513 0.0
H718 H 0.56006 0.10898 0.17435 0.0
H719 H 0.56154 0.07664 0.07053 0.0
H720 H 0.56111 0.12465 0.56831 0.0
H721 H 0.57864 0.20424 0.34266 0.0
H722 H 0.60171 0.07918 0.54817 0.0
H723 H 0.61228 0.06754 0.40087 0.0
H724 H 0.57135 0.06905 0.44573 0.0
H725 H 0.60291 0.19734 0.15665 0.0
H726 H 0.61873 0.15954 0.10987 0.0
H727 H 0.64056 0.18442 0.20959 0.0
C728 C 0.34527 0.42903 0.42209 0.0
C729 C 0.31669 0.43273 0.4841 0.0
C730 C 0.36718 0.40544 0.45275 0.0
C731 C 0.3603 0.38477 0.54712 0.0
C732 C 0.33153 0.38825 0.61011 0.0
C733 C 0.31015 0.41235 0.57843 0.0
C734 C 0.39776 0.40269 0.38413 0.0
C735 C 0.32325 0.36637 0.71036 0.0
C736 C 0.40589 0.30705 0.54657 0.0
C737 C 0.43043 0.31355 0.62623 0.0
C738 C 0.3824 0.3297 0.5223 0.0
C739 C 0.38342 0.35958 0.57929 0.0
C740 C 0.4076 0.366 0.6622 0.0
C741 C 0.43077 0.34288 0.68489 0.0
C742 C 0.35686 0.32188 0.43394 0.0
C743 C 0.40956 0.39765 0.72432 0.0
H744 H 0.3507 0.44473 0.34957 0.0
H745 H 0.28814 0.41497 0.62682 0.0
H746 H 0.41832 0.40532 0.44418 0.0
H747 H 0.39953 0.37885 0.34309 0.0
H748 H 0.39965 0.42086 0.31393 0.0
H749 H 0.29957 0.37172 0.74855 0.0
H750 H 0.32344 0.34137 0.67959 0.0
H751 H 0.34132 0.36842 0.78077 0.0
H752 H 0.405 0.28421 0.50284 0.0
H753 H 0.44956 0.3481 0.74694 0.0
H754 H 0.33308 0.3259 0.4731 0.0
H755 H 0.35833 0.29694 0.40261 0.0
H756 H 0.35895 0.33783 0.35692 0.0
H757 H 0.41377 0.41672 0.65912 0.0
H758 H 0.4289 0.39832 0.79052 0.0
H759 H 0.38679 0.40306 0.76896 0.0
C760 C 0.68872 0.92054 0.65776 0.0
C761 C 0.68256 0.94232 0.74852 0.0
C762 C 0.6671 0.89627 0.63069 0.0
C763 C 0.6386 0.89373 0.69583 0.0
C764 C 0.63195 0.91596 0.78595 0.0
C765 C 0.65404 0.93985 0.81151 0.0
C766 C 0.67513 0.87291 0.53438 0.0
C767 C 0.60165 0.91426 0.8566 0.0
C768 C 0.56903 0.84611 0.57743 0.0
C769 C 0.57087 0.81838 0.64522 0.0
C770 C 0.5913 0.8706 0.59108 0.0
C771 C 0.6162 0.86713 0.6735 0.0
C772 C 0.61876 0.83881 0.73942 0.0
C773 C 0.59599 0.81488 0.72497 0.0
C774 C 0.5876 0.9006 0.52009 0.0
C775 C 0.64519 0.83404 0.82718 0.0
H776 H 0.71077 0.92199 0.6092 0.0
H777 H 0.64894 0.9565 0.8816 0.0
H778 H 0.67785 0.84884 0.57234 0.0
H779 H 0.65558 0.87173 0.46936 0.0
H780 H 0.69739 0.87923 0.48767 0.0
H781 H 0.59935 0.93429 0.91969 0.0
H782 H 0.58083 0.91446 0.79704 0.0
H783 H 0.60089 0.8917 0.90651 0.0
H784 H 0.54969 0.84907 0.51569 0.0
H785 H 0.59777 0.79349 0.77721 0.0
H786 H 0.60993 0.90602 0.47262 0.0
H787 H 0.58271 0.92087 0.57983 0.0
H788 H 0.568 0.89889 0.45519 0.0
H789 H 0.64495 0.80988 0.86606 0.0
H790 H 0.64298 0.85166 0.89927 0.0
H791 H 0.66852 0.83795 0.78446 0.0
C792 C 0.09472 0.19064 0.97665 0.0
C793 C 0.07017 0.18776 0.05931 0.0
C794 C 0.11629 0.16589 0.9573 0.0
C795 C 0.11321 0.13738 0.02165 0.0
C796 C 0.08885 0.13441 0.10658 0.0
C797 C 0.06765 0.15971 0.1248 0.0
C798 C 0.14237 0.17025 0.8677 0.0
C799 C 0.08488 0.10432 0.17666 0.0
C800 C 0.15159 0.06521 0.88066 0.0
C801 C 0.18007 0.06292 0.94364 0.0
C802 C 0.12909 0.08866 0.90805 0.0
C803 C 0.13555 0.11076 -0.00115 0.0
C804 C 0.16418 0.10847 0.06314 0.0
C805 C 0.18585 0.08425 0.03607 0.0
C806 C 0.09865 0.09017 0.83838 0.0
C807 C 0.17223 0.13183 0.15945 0.0
H808 H 0.09703 0.21226 0.92604 0.0
H809 H 0.04873 0.15724 0.18866 0.0
H810 H 0.16584 0.16671 0.90985 0.0
H811 H 0.14011 0.15219 0.79716 0.0
H812 H 0.14188 0.19416 0.8269 0.0
H813 H 0.06459 0.10568 0.23878 0.0
H814 H 0.0811 0.08394 0.11639 0.0
H815 H 0.1068 0.09939 0.22732 0.0
H816 H 0.14685 0.04863 0.80986 0.0
H817 H 0.20777 0.08264 0.08542 0.0
H818 H 0.09772 0.11265 0.78795 0.0
H819 H 0.07794 0.09006 0.89861 0.0
H820 H 0.09632 0.07002 0.77588 0.0
H821 H 0.19758 0.13041 0.18543 0.0
H822 H 0.15743 0.1268 0.23781 0.0
H823 H 0.16709 0.15651 0.13154 0.0
C824 C 0.89952 0.69858 0.19762 0.0
C825 C 0.93135 0.69093 0.17756 0.0
C826 C 0.87742 0.67483 0.22457 0.0
C827 C 0.88782 0.64304 0.23657 0.0
C828 C 0.92024 0.63545 0.2195 0.0
C829 C 0.94157 0.65948 0.18794 0.0
C830 C 0.84286 0.6836 0.23731 0.0
C831 C 0.93223 0.60189 0.23263 0.0
C832 C 0.83329 0.58769 0.40447 0.0
C833 C 0.81821 0.57112 0.31298 0.0
C834 C 0.85639 0.61077 0.38088 0.0
C835 C 0.86456 0.61757 0.26302 0.0
C836 C 0.85002 0.60048 0.17038 0.0
C837 C 0.82687 0.57766 0.19646 0.0
C838 C 0.87213 0.62784 0.4821 0.0
C839 C 0.85808 0.60657 0.04307 0.0
H840 H 0.89181 0.72303 0.18907 0.0
H841 H 0.96637 0.65384 0.17342 0.0
H842 H 0.82861 0.67029 0.17166 0.0
H843 H 0.8341 0.67678 0.32559 0.0
H844 H 0.83865 0.70939 0.22471 0.0
H845 H 0.95844 0.60033 0.22443 0.0
H846 H 0.92512 0.59224 0.31937 0.0
H847 H 0.92135 0.58657 0.16423 0.0
H848 H 0.82699 0.58275 0.49493 0.0
H849 H 0.81562 0.56489 0.1251 0.0
H850 H 0.86678 0.65358 0.47771 0.0
H851 H 0.89828 0.62519 0.476 0.0
H852 H 0.86417 0.61876 0.56879 0.0
H853 H 0.84137 0.62454 0.00772 0.0
H854 H 0.85561 0.58456 0.99006 0.0
H855 H 0.88251 0.61564 0.03079 0.0
C856 C 0.31083 0.09152 0.77443 0.0
C857 C 0.31518 0.06634 0.85325 0.0
C858 C 0.33485 0.11375 0.75444 0.0
C859 C 0.3641 0.11068 0.81419 0.0
C860 C 0.3686 0.08561 0.89509 0.0
C861 C 0.34399 0.06376 0.91413 0.0
C862 C 0.32896 0.14047 0.66885 0.0
C863 C 0.39958 0.08155 0.95978 0.0
C864 C 0.43384 0.1524 0.67119 0.0
C865 C 0.43567 0.18038 0.7378 0.0
C866 C 0.41126 0.12901 0.69746 0.0
C867 C 0.38981 0.13393 0.79156 0.0
C868 C 0.39174 0.16193 0.85982 0.0
C869 C 0.41481 0.18467 0.83283 0.0
C870 C 0.40999 0.09928 0.6233 0.0
C871 C 0.36906 0.16818 0.9601 0.0
H872 H 0.28861 0.09383 0.72738 0.0
H873 H 0.34759 0.04428 0.97472 0.0
H874 H 0.33237 0.16366 0.71336 0.0
H875 H 0.34631 0.13919 0.5957 0.0
H876 H 0.30465 0.13978 0.63122 0.0
H877 H 0.39921 0.0609 0.02027 0.0
H878 H 0.41919 0.07824 0.89582 0.0
H879 H 0.40498 0.10323 0.01142 0.0
H880 H 0.45001 0.14876 0.5983 0.0
H881 H 0.41607 0.20612 0.88532 0.0
H882 H 0.38705 0.09817 0.57578 0.0
H883 H 0.41138 0.07797 0.68015 0.0
H884 H 0.42953 0.09822 0.55788 0.0
H885 H 0.37233 0.19212 -0.00073 0.0
H886 H 0.37261 0.15018 0.0298 0.0
H887 H 0.34417 0.16607 0.9294 0.0
C888 C 0.80783 0.91945 0.98639 0.0
C889 C 0.81297 0.94096 0.89432 0.0
C890 C 0.83015 0.89576 0.01258 0.0
C891 C 0.8585 0.89373 0.94615 0.0
C892 C 0.86388 0.91536 0.85335 0.0
C893 C 0.84101 0.93859 0.8282 0.0
C894 C 0.82344 0.87296 0.11166 0.0
C895 C 0.89404 0.91427 0.78168 0.0
C896 C 0.92941 0.85384 0.08892 0.0
C897 C 0.92968 0.82404 0.03348 0.0
C898 C 0.90649 0.87673 0.06081 0.0
C899 C 0.883 0.86961 0.97601 0.0
C900 C 0.88307 0.8396 0.91972 0.0
C901 C 0.90646 0.8172 0.94887 0.0
C902 C 0.90753 0.90864 0.12148 0.0
C903 C 0.85823 0.83103 0.82958 0.0
H904 H 0.78625 0.921 0.03796 0.0
H905 H 0.84533 0.95513 0.75722 0.0
H906 H 0.82489 0.84815 0.07921 0.0
H907 H 0.8416 0.87569 0.18141 0.0
H908 H 0.79966 0.87683 0.15136 0.0
H909 H 0.89442 0.93256 0.71157 0.0
H910 H 0.91482 0.918 0.83985 0.0
H911 H 0.89685 0.89058 0.7403 0.0
H912 H 0.9473 0.85943 0.15406 0.0
H913 H 0.90625 0.79415 0.90653 0.0
H914 H 0.88512 0.9128 0.17023 0.0
H915 H 0.90972 0.9278 0.05527 0.0
H916 H 0.92764 0.91058 0.1841 0.0
H917 H 0.8343 0.83241 0.86988 0.0
H918 H 0.86174 0.80678 0.79323 0.0
H919 H 0.85876 0.84822 0.756 0.0
C920 C 0.07156 0.35277 0.08338 0.0
C921 C 0.0702 0.32395 0.1446 0.0
C922 C 0.09437 0.37581 0.11141 0.0
C923 C 0.11678 0.36957 0.20104 0.0
C924 C 0.11584 0.34031 0.26187 0.0
C925 C 0.09228 0.31805 0.23409 0.0
C926 C 0.09424 0.40699 0.04627 0.0
C927 C 0.13966 0.33251 0.35661 0.0
C928 C 0.19313 0.41739 0.2069 0.0
C929 C 0.18731 0.43872 0.29941 0.0
C930 C 0.17034 0.39487 0.17343 0.0
C931 C 0.14086 0.39387 0.23294 0.0
C932 C 0.1346 0.41566 0.32485 0.0
C933 C 0.15798 0.43762 0.35759 0.0
C934 C 0.17809 0.37169 0.07614 0.0
C935 C 0.10321 0.41573 0.38892 0.0
H936 H 0.05443 0.35756 0.01464 0.0
H937 H 0.09147 0.29578 0.28148 0.0
H938 H 0.09098 0.42685 0.10934 0.0
H939 H 0.11737 0.41069 0.00191 0.0
H940 H 0.07512 0.40818 0.97929 0.0
H941 H 0.13528 0.34774 0.43459 0.0
H942 H 0.13828 0.3073 0.38432 0.0
H943 H 0.16412 0.33742 0.32561 0.0
H944 H 0.21577 0.41784 0.16186 0.0
H945 H 0.15315 0.454 0.42877 0.0
H946 H 0.1601 0.37328 0.00536 0.0
H947 H 0.17738 0.3471 0.11075 0.0
H948 H 0.20187 0.37601 0.03725 0.0
H949 H 0.08344 0.41811 0.32522 0.0
H950 H 0.10148 0.4353 0.45417 0.0
H951 H 0.09992 0.39287 0.4354 0.0
C952 C 0.59239 0.69058 0.50126 0.0
C953 C 0.56505 0.68277 0.56475 0.0
C954 C 0.61576 0.66767 0.47805 0.0
C955 C 0.61095 0.63597 0.51509 0.0
C956 C 0.58284 0.62782 0.57613 0.0
C957 C 0.56047 0.65149 0.60222 0.0
C958 C 0.64611 0.67767 0.41823 0.0
C959 C 0.57647 0.59415 0.61431 0.0
C960 C 0.66104 0.57312 0.36315 0.0
C961 C 0.68294 0.56507 0.45112 0.0
C962 C 0.63688 0.59538 0.38407 0.0
C963 C 0.63576 0.61154 0.49309 0.0
C964 C 0.6584 0.60437 0.58099 0.0
C965 C 0.68099 0.58052 0.56033 0.0
C966 C 0.61243 0.6014 0.28973 0.0
C967 C 0.659 0.62176 0.69719 0.0
H968 H 0.59603 0.71491 0.47346 0.0
H969 H 0.53916 0.64548 0.65065 0.0
H970 H 0.66659 0.6725 0.47643 0.0
H971 H 0.64964 0.66392 0.33613 0.0
H972 H 0.64628 0.70335 0.3964 0.0
H973 H 0.55209 0.59114 0.64966 0.0
H974 H 0.57976 0.57761 0.53922 0.0
H975 H 0.59363 0.58724 0.68345 0.0
H976 H 0.66254 0.56196 0.27772 0.0
H977 H 0.69762 0.57461 0.62931 0.0
H978 H 0.61419 0.62621 0.25831 0.0
H979 H 0.58822 0.59825 0.3263 0.0
H980 H 0.61532 0.58523 0.21322 0.0
H981 H 0.68299 0.62108 0.73742 0.0
H982 H 0.64221 0.61023 0.75875 0.0
H983 H 0.65184 0.64696 0.68758 0.0
loop_
_geom_bond_atom_site_label_1
_geom_bond_atom_site_label_2
_geom_bond_distance
_geom_bond_site_symmetry_2
_ccdc_geom_bond_type
Co0 O2 2.143 . S
Co0 O8 2.074 . S
Co0 O11 2.093 . S
Co0 O24 2.097 . S
Co0 N41 2.151 . S
Co0 N49 2.214 . S
Co1 O2 2.160 . S
Co1 O7 2.058 . S
Co1 O17 2.057 . S
Co1 O32 2.037 . S
Co1 N36 2.145 . S
Co1 N57 2.257 . S
O2 Co0 2.143 . S
O2 Co1 2.160 . S
C3 O4 1.278 . S
C3 O11 1.224 . S
O4 C3 1.278 . S
C5 O6 1.245 . S
C5 O17 1.232 . S
O6 C5 1.245 . S
O7 Co1 2.058 . S
O7 C33 1.269 . S
O8 Co0 2.074 . S
O8 C33 1.257 . S
H9 C34 0.930 . S
H10 C40 0.930 . S
O11 Co0 2.093 . S
O11 C3 1.224 . S
H12 C44 0.929 . S
H13 C46 0.930 . S
H14 C47 0.930 . S
H15 C45 0.929 . S
H16 C48 0.928 . S
O17 Co1 2.057 . S
O17 C5 1.232 . S
H18 C37 0.929 . S
H19 C38 0.929 . S
H20 C50 0.931 . S
H21 C42 0.929 . S
H22 C51 0.930 . S
H23 C43 0.931 . S
O24 Co0 2.097 . S
O24 C52 1.214 . S
H25 C53 0.929 . S
H26 C54 0.929 . S
H27 C55 0.930 1_556 S
H28 C56 0.929 1_556 S
H29 C58 0.930 . S
H30 C35 0.930 . S
H31 C39 0.930 . S
O32 Co1 2.037 . S
O32 C52 1.234 . S
C33 O7 1.269 . S
C33 O8 1.257 . S
C34 H9 0.930 . S
C34 C37 1.388 1_556 S
C34 C39 1.418 . S
C35 H30 0.930 . S
C35 C38 1.404 . S
C35 C39 1.353 . S
N36 Co1 2.145 . S
N36 C37 1.397 . S
N36 C38 1.334 1_554 S
C37 H18 0.929 . S
C37 C34 1.388 1_554 S
C37 N36 1.397 . S
C38 H19 0.929 . S
C38 C35 1.404 . S
C38 N36 1.334 1_556 S
C39 H31 0.930 . S
C39 C34 1.418 . S
C39 C35 1.353 . S
C40 H10 0.930 . S
C40 N41 1.330 . S
C40 C42 1.446 . S
N41 Co0 2.151 . S
N41 C40 1.330 . S
N41 C45 1.418 . S
C42 H21 0.929 . S
C42 C40 1.446 . S
C42 C43 1.332 . S
C43 H23 0.931 . S
C43 C42 1.332 . S
C43 C44 1.267 . S
C44 H12 0.929 . S
C44 C43 1.267 . S
C44 C45 1.251 . S
C45 H15 0.929 . S
C45 N41 1.418 . S
C45 C44 1.251 . S
C46 H13 0.930 . S
C46 C48 1.406 . S
C46 C51 1.261 . S
C47 H14 0.930 . S
C47 N49 1.325 . S
C47 C50 1.357 . S
C48 H16 0.928 . S
C48 C46 1.406 . S
C48 N49 1.261 . S
N49 Co0 2.214 . S
N49 C47 1.325 . S
N49 C48 1.261 . S
C50 H20 0.931 . S
C50 C47 1.357 . S
C50 C51 1.312 . S
C51 H22 0.930 . S
C51 C46 1.261 . S
C51 C50 1.312 . S
C52 O24 1.214 . S
C52 O32 1.234 . S
C53 H25 0.929 . S
C53 C56 1.391 . S
C53 C58 1.391 . S
C54 H26 0.929 . S
C54 C55 1.390 . S
C54 N57 1.391 . S
C55 H27 0.930 1_554 S
C55 C54 1.390 . S
C55 C56 1.392 . S
C56 H28 0.929 1_554 S
C56 C53 1.391 . S
C56 C55 1.392 . S
N57 Co1 2.257 . S
N57 C54 1.391 . S
N57 C58 1.388 . S
C58 H29 0.930 . S
C58 C53 1.391 . S
C58 N57 1.388 . S
Co59 O61 2.143 . S
Co59 O67 2.074 . S
Co59 O70 2.093 . S
Co59 O83 2.097 . S
Co59 N100 2.151 . S
Co59 N108 2.214 . S
Co60 O61 2.160 . S
Co60 O66 2.058 . S
Co60 O76 2.057 . S
Co60 O91 2.037 . S
Co60 N95 2.145 . S
Co60 N116 2.257 . S
O61 Co59 2.143 . S
O61 Co60 2.160 . S
C62 O63 1.278 . S
C62 O70 1.224 . S
O63 C62 1.278 . S
C64 O65 1.245 . S
C64 O76 1.232 . S
O65 C64 1.245 . S
O66 Co60 2.058 . S
O66 C92 1.269 . S
O67 Co59 2.074 . S
O67 C92 1.257 . S
H68 C93 0.930 . S
H69 C99 0.930 . S
O70 Co59 2.093 . S
O70 C62 1.224 . S
H71 C103 0.929 . S
H72 C105 0.930 . S
H73 C106 0.930 . S
H74 C104 0.929 . S
H75 C107 0.928 . S
O76 Co60 2.057 . S
O76 C64 1.232 . S
H77 C96 0.929 . S
H78 C97 0.929 . S
H79 C109 0.931 . S
H80 C101 0.929 . S
H81 C110 0.930 . S
H82 C102 0.931 . S
O83 Co59 2.097 . S
O83 C111 1.214 . S
H84 C112 0.929 . S
H85 C113 0.929 . S
H86 C114 0.930 1_554 S
H87 C115 0.929 1_554 S
H88 C117 0.930 . S
H89 C94 0.930 . S
H90 C98 0.930 . S
O91 Co60 2.037 . S
O91 C111 1.234 . S
C92 O66 1.269 . S
C92 O67 1.257 . S
C93 H68 0.930 . S
C93 C96 1.388 1_554 S
C93 C98 1.418 . S
C94 H89 0.930 . S
C94 C97 1.404 . S
C94 C98 1.353 . S
N95 Co60 2.145 . S
N95 C96 1.397 . S
N95 C97 1.334 1_556 S
C96 H77 0.929 . S
C96 C93 1.388 1_556 S
C96 N95 1.397 . S
C97 H78 0.929 . S
C97 C94 1.404 . S
C97 N95 1.334 1_554 S
C98 H90 0.930 . S
C98 C93 1.418 . S
C98 C94 1.353 . S
C99 H69 0.930 . S
C99 N100 1.330 . S
C99 C101 1.446 . S
N100 Co59 2.151 . S
N100 C99 1.330 . S
N100 C104 1.418 . S
C101 H80 0.929 . S
C101 C99 1.446 . S
C101 C102 1.332 . S
C102 H82 0.931 . S
C102 C101 1.332 . S
C102 C103 1.267 . S
C103 H71 0.929 . S
C103 C102 1.267 . S
C103 C104 1.251 . S
C104 H74 0.929 . S
C104 N100 1.418 . S
C104 C103 1.251 . S
C105 H72 0.930 . S
C105 C107 1.406 . S
C105 C110 1.261 . S
C106 H73 0.930 . S
C106 N108 1.325 . S
C106 C109 1.357 . S
C107 H75 0.928 . S
C107 C105 1.406 . S
C107 N108 1.261 . S
N108 Co59 2.214 . S
N108 C106 1.325 . S
N108 C107 1.261 . S
C109 H79 0.931 . S
C109 C106 1.357 . S
C109 C110 1.312 . S
C110 H81 0.930 . S
C110 C105 1.261 . S
C110 C109 1.312 . S
C111 O83 1.214 . S
C111 O91 1.234 . S
C112 H84 0.929 . S
C112 C115 1.391 . S
C112 C117 1.391 . S
C113 H85 0.929 . S
C113 C114 1.390 . S
C113 N116 1.391 . S
C114 H86 0.930 1_556 S
C114 C113 1.390 . S
C114 C115 1.392 . S
C115 H87 0.929 1_556 S
C115 C112 1.391 . S
C115 C114 1.392 . S
N116 Co60 2.257 . S
N116 C113 1.391 . S
N116 C117 1.388 . S
C117 H88 0.930 . S
C117 C112 1.391 . S
C117 N116 1.388 . S
Co118 O120 2.143 1_545 S
Co118 O126 2.074 . S
Co118 O129 2.093 1_545 S
Co118 O142 2.097 . S
Co118 N159 2.151 1_545 S
Co118 N167 2.214 . S
Co119 O120 2.160 1_544 S
Co119 O125 2.058 1_554 S
Co119 O135 2.057 1_545 S
Co119 O150 2.037 1_554 S
Co119 N154 2.145 . S
Co119 N175 2.257 1_545 S
O120 Co118 2.143 1_565 S
O120 Co119 2.160 1_566 S
C121 O122 1.278 . S
C121 O129 1.224 . S
O122 C121 1.278 . S
C123 O124 1.245 1_554 S
C123 O135 1.232 . S
O124 C123 1.245 1_556 S
O125 Co119 2.058 1_556 S
O125 C151 1.269 . S
O126 Co118 2.074 . S
O126 C151 1.257 . S
H127 C152 0.930 . S
H128 C158 0.930 . S
O129 Co118 2.093 1_565 S
O129 C121 1.224 . S
H130 C162 0.909 1_545 S
H131 C164 0.930 . S
H132 C165 0.930 . S
H133 C163 0.929 . S
H134 C166 0.928 . S
O135 Co119 2.057 1_565 S
O135 C123 1.232 . S
H136 C155 0.929 . S
H137 C156 0.929 1_565 S
H138 C168 0.931 . S
H139 C160 0.929 . S
H140 C169 0.930 . S
H141 C161 0.931 . S
O142 Co118 2.097 . S
O142 C170 1.214 . S
H143 C171 0.929 . S
H144 C172 0.929 1_545 S
H145 C173 0.930 . S
H146 C174 0.929 . S
H147 C176 0.930 . S
H148 C153 0.930 . S
H149 C157 0.930 . S
O150 Co119 2.037 1_556 S
O150 C170 1.234 . S
C151 O125 1.269 . S
C151 O126 1.257 . S
C152 H127 0.930 . S
C152 C155 1.388 . S
C152 C157 1.418 . S
C153 H148 0.930 . S
C153 C156 1.404 . S
C153 C157 1.353 . S
N154 Co119 2.145 . S
N154 C155 1.397 . S
N154 C156 1.334 . S
C155 H136 0.929 . S
C155 C152 1.388 . S
C155 N154 1.397 . S
C156 H137 0.929 1_545 S
C156 C153 1.404 . S
C156 N154 1.334 . S
C157 H149 0.930 . S
C157 C152 1.418 . S
C157 C153 1.353 . S
C158 H128 0.930 . S
C158 N159 1.330 . S
C158 C160 1.446 . S
N159 Co118 2.151 1_565 S
N159 C158 1.330 . S
N159 C163 1.418 1_565 S
C160 H139 0.929 . S
C160 C158 1.446 . S
C160 C161 1.332 . S
C161 H141 0.931 . S
C161 C160 1.332 . S
C161 C162 1.267 . S
C162 H130 0.909 1_565 S
C162 C161 1.267 . S
C162 C163 1.251 1_565 S
C163 H133 0.929 . S
C163 N159 1.418 1_545 S
C163 C162 1.251 1_545 S
C164 H131 0.930 . S
C164 C166 1.406 . S
C164 C169 1.261 . S
C165 H132 0.930 . S
C165 N167 1.325 . S
C165 C168 1.357 . S
C166 H134 0.928 . S
C166 C164 1.406 . S
C166 N167 1.261 . S
N167 Co118 2.214 . S
N167 C165 1.325 . S
N167 C166 1.261 . S
C168 H138 0.931 . S
C168 C165 1.357 . S
C168 C169 1.312 . S
C169 H140 0.930 . S
C169 C164 1.261 . S
C169 C168 1.312 . S
C170 O142 1.214 . S
C170 O150 1.234 . S
C171 H143 0.929 . S
C171 C174 1.391 . S
C171 C176 1.391 . S
C172 H144 0.929 1_565 S
C172 C173 1.390 . S
C172 N175 1.391 . S
C173 H145 0.930 . S
C173 C172 1.390 . S
C173 C174 1.392 . S
C174 H146 0.929 . S
C174 C171 1.391 . S
C174 C173 1.392 . S
N175 Co119 2.257 1_565 S
N175 C172 1.391 . S
N175 C176 1.388 . S
C176 H147 0.930 . S
C176 C171 1.391 . S
C176 N175 1.388 . S
Co177 O179 2.143 1_655 S
Co177 O185 2.074 . S
Co177 O188 2.093 1_655 S
Co177 O201 2.097 . S
Co177 N218 2.151 1_655 S
Co177 N226 2.214 . S
Co178 O179 2.160 1_656 S
Co178 O184 2.058 1_556 S
Co178 O194 2.057 1_655 S
Co178 O209 2.037 1_556 S
Co178 N213 2.145 . S
Co178 N234 2.257 1_655 S
O179 Co177 2.143 1_455 S
O179 Co178 2.160 1_454 S
C180 O181 1.278 . S
C180 O188 1.224 . S
O181 C180 1.278 . S
C182 O183 1.245 1_556 S
C182 O194 1.232 . S
O183 C182 1.245 1_554 S
O184 Co178 2.058 1_554 S
O184 C210 1.269 . S
O185 Co177 2.074 . S
O185 C210 1.257 . S
H186 C211 0.930 . S
H187 C217 0.930 . S
O188 Co177 2.093 1_455 S
O188 C180 1.224 . S
H189 C221 0.909 1_655 S
H190 C223 0.930 . S
H191 C224 0.930 . S
H192 C222 0.929 . S
H193 C225 0.928 . S
O194 Co178 2.057 1_455 S
O194 C182 1.232 . S
H195 C214 0.929 . S
H196 C215 0.929 1_455 S
H197 C227 0.931 . S
H198 C219 0.929 . S
H199 C228 0.930 . S
H200 C220 0.931 . S
O201 Co177 2.097 . S
O201 C229 1.214 . S
H202 C230 0.929 . S
H203 C231 0.929 1_655 S
H204 C232 0.930 . S
H205 C233 0.929 . S
H206 C235 0.930 . S
H207 C212 0.930 . S
H208 C216 0.930 . S
O209 Co178 2.037 1_554 S
O209 C229 1.234 . S
C210 O184 1.269 . S
C210 O185 1.257 . S
C211 H186 0.930 . S
C211 C214 1.388 . S
C211 C216 1.418 . S
C212 H207 0.930 . S
C212 C215 1.404 . S
C212 C216 1.353 . S
N213 Co178 2.145 . S
N213 C214 1.397 . S
N213 C215 1.334 . S
C214 H195 0.929 . S
C214 C211 1.388 . S
C214 N213 1.397 . S
C215 H196 0.929 1_655 S
C215 C212 1.404 . S
C215 N213 1.334 . S
C216 H208 0.930 . S
C216 C211 1.418 . S
C216 C212 1.353 . S
C217 H187 0.930 . S
C217 N218 1.330 . S
C217 C219 1.446 . S
N218 Co177 2.151 1_455 S
N218 C217 1.330 . S
N218 C222 1.418 1_455 S
C219 H198 0.929 . S
C219 C217 1.446 . S
C219 C220 1.332 . S
C220 H200 0.931 . S
C220 C219 1.332 . S
C220 C221 1.267 . S
C221 H189 0.909 1_455 S
C221 C220 1.267 . S
C221 C222 1.251 1_455 S
C222 H192 0.929 . S
C222 N218 1.418 1_655 S
C222 C221 1.251 1_655 S
C223 H190 0.930 . S
C223 C225 1.406 . S
C223 C228 1.261 . S
C224 H191 0.930 . S
C224 N226 1.325 . S
C224 C227 1.357 . S
C225 H193 0.928 . S
C225 C223 1.406 . S
C225 N226 1.261 . S
N226 Co177 2.214 . S
N226 C224 1.325 . S
N226 C225 1.261 . S
C227 H197 0.931 . S
C227 C224 1.357 . S
C227 C228 1.312 . S
C228 H199 0.930 . S
C228 C223 1.261 . S
C228 C227 1.312 . S
C229 O201 1.214 . S
C229 O209 1.234 . S
C230 H202 0.929 . S
C230 C233 1.391 . S
C230 C235 1.391 . S
C231 H203 0.929 1_455 S
C231 C232 1.390 . S
C231 N234 1.391 . S
C232 H204 0.930 . S
C232 C231 1.390 . S
C232 C233 1.392 . S
C233 H205 0.929 . S
C233 C230 1.391 . S
C233 C232 1.392 . S
N234 Co178 2.257 1_455 S
N234 C231 1.391 . S
N234 C235 1.388 . S
C235 H206 0.930 . S
C235 C230 1.391 . S
C235 N234 1.388 . S
Co236 O238 2.143 1_564 S
Co236 O244 2.074 1_554 S
Co236 O247 2.093 1_565 S
Co236 O260 2.097 1_554 S
Co236 N277 2.151 1_565 S
Co236 N285 2.214 . S
Co237 O238 2.160 1_565 S
Co237 O243 2.058 . S
Co237 O253 2.057 1_565 S
Co237 O268 2.037 . S
Co237 N272 2.145 . S
Co237 N293 2.257 1_565 S
O238 Co236 2.143 1_546 S
O238 Co237 2.160 1_545 S
C239 O240 1.278 1_554 S
C239 O247 1.224 . S
O240 C239 1.278 1_556 S
C241 O242 1.245 . S
C241 O253 1.232 . S
O242 C241 1.245 . S
O243 Co237 2.058 . S
O243 C269 1.269 . S
O244 Co236 2.074 1_556 S
O244 C269 1.257 . S
H245 C270 0.930 . S
H246 C276 0.930 . S
O247 Co236 2.093 1_545 S
O247 C239 1.224 . S
H248 C280 0.910 1_565 S
H249 C282 0.930 . S
H250 C283 0.930 . S
H251 C281 0.929 . S
H252 C284 0.928 . S
O253 Co237 2.057 1_545 S
O253 C241 1.232 . S
H254 C273 0.929 . S
H255 C274 0.929 1_545 S
H256 C286 0.931 . S
H257 C278 0.929 . S
H258 C287 0.930 . S
H259 C279 0.931 . S
O260 Co236 2.097 1_556 S
O260 C288 1.214 . S
H261 C289 0.929 . S
H262 C290 0.929 1_565 S
H263 C291 0.930 . S
H264 C292 0.929 . S
H265 C294 0.930 . S
H266 C271 0.930 . S
H267 C275 0.930 . S
O268 Co237 2.037 . S
O268 C288 1.234 . S
C269 O243 1.269 . S
C269 O244 1.257 . S
C270 H245 0.930 . S
C270 C273 1.388 . S
C270 C275 1.418 . S
C271 H266 0.930 . S
C271 C274 1.404 . S
C271 C275 1.353 . S
N272 Co237 2.145 . S
N272 C273 1.397 . S
N272 C274 1.334 . S
C273 H254 0.929 . S
C273 C270 1.388 . S
C273 N272 1.397 . S
C274 H255 0.929 1_565 S
C274 C271 1.404 . S
C274 N272 1.334 . S
C275 H267 0.930 . S
C275 C270 1.418 . S
C275 C271 1.353 . S
C276 H246 0.930 . S
C276 N277 1.330 . S
C276 C278 1.446 . S
N277 Co236 2.151 1_545 S
N277 C276 1.330 . S
N277 C281 1.418 1_545 S
C278 H257 0.929 . S
C278 C276 1.446 . S
C278 C279 1.332 . S
C279 H259 0.931 . S
C279 C278 1.332 . S
C279 C280 1.267 . S
C280 H248 0.910 1_545 S
C280 C279 1.267 . S
C280 C281 1.251 1_545 S
C281 H251 0.929 . S
C281 N277 1.418 1_565 S
C281 C280 1.251 1_565 S
C282 H249 0.930 . S
C282 C284 1.406 . S
C282 C287 1.261 . S
C283 H250 0.930 . S
C283 N285 1.325 . S
C283 C286 1.357 . S
C284 H252 0.928 . S
C284 C282 1.406 . S
C284 N285 1.261 . S
N285 Co236 2.214 . S
N285 C283 1.325 . S
N285 C284 1.261 . S
C286 H256 0.931 . S
C286 C283 1.357 . S
C286 C287 1.312 . S
C287 H258 0.930 . S
C287 C282 1.261 . S
C287 C286 1.312 . S
C288 O260 1.214 . S
C288 O268 1.234 . S
C289 H261 0.929 . S
C289 C292 1.391 . S
C289 C294 1.391 . S
C290 H262 0.929 1_545 S
C290 C291 1.390 . S
C290 N293 1.391 . S
C291 H263 0.930 . S
C291 C290 1.390 . S
C291 C292 1.392 . S
C292 H264 0.929 . S
C292 C289 1.391 . S
C292 C291 1.392 . S
N293 Co237 2.257 1_545 S
N293 C290 1.391 . S
N293 C294 1.388 . S
C294 H265 0.930 . S
C294 C289 1.391 . S
C294 N293 1.388 . S
Co295 O297 2.143 1_456 S
Co295 O303 2.074 1_556 S
Co295 O306 2.093 1_455 S
Co295 O319 2.097 1_556 S
Co295 N336 2.151 1_455 S
Co295 N344 2.214 . S
Co296 O297 2.160 1_455 S
Co296 O302 2.058 . S
Co296 O312 2.057 1_455 S
Co296 O327 2.037 . S
Co296 N331 2.145 . S
Co296 N352 2.257 1_455 S
O297 Co295 2.143 1_654 S
O297 Co296 2.160 1_655 S
C298 O299 1.278 1_556 S
C298 O306 1.224 . S
O299 C298 1.278 1_554 S
C300 O301 1.245 . S
C300 O312 1.232 . S
O301 C300 1.245 . S
O302 Co296 2.058 . S
O302 C328 1.269 . S
O303 Co295 2.074 1_554 S
O303 C328 1.257 . S
H304 C329 0.930 . S
H305 C335 0.930 . S
O306 Co295 2.093 1_655 S
O306 C298 1.224 . S
H307 C339 0.910 1_455 S
H308 C341 0.930 . S
H309 C342 0.930 . S
H310 C340 0.929 . S
H311 C343 0.928 . S
O312 Co296 2.057 1_655 S
O312 C300 1.232 . S
H313 C332 0.929 . S
H314 C333 0.929 1_655 S
H315 C345 0.931 . S
H316 C337 0.929 . S
H317 C346 0.930 . S
H318 C338 0.931 . S
O319 Co295 2.097 1_554 S
O319 C347 1.214 . S
H320 C348 0.929 . S
H321 C349 0.929 1_455 S
H322 C350 0.930 . S
H323 C351 0.929 . S
H324 C353 0.930 . S
H325 C330 0.930 . S
H326 C334 0.930 . S
O327 Co296 2.037 . S
O327 C347 1.234 . S
C328 O302 1.269 . S
C328 O303 1.257 . S
C329 H304 0.930 . S
C329 C332 1.388 . S
C329 C334 1.418 . S
C330 H325 0.930 . S
C330 C333 1.404 . S
C330 C334 1.353 . S
N331 Co296 2.145 . S
N331 C332 1.397 . S
N331 C333 1.334 . S
C332 H313 0.929 . S
C332 C329 1.388 . S
C332 N331 1.397 . S
C333 H314 0.929 1_455 S
C333 C330 1.404 . S
C333 N331 1.334 . S
C334 H326 0.930 . S
C334 C329 1.418 . S
C334 C330 1.353 . S
C335 H305 0.930 . S
C335 N336 1.330 . S
C335 C337 1.446 . S
N336 Co295 2.151 1_655 S
N336 C335 1.330 . S
N336 C340 1.418 1_655 S
C337 H316 0.929 . S
C337 C335 1.446 . S
C337 C338 1.332 . S
C338 H318 0.931 . S
C338 C337 1.332 . S
C338 C339 1.267 . S
C339 H307 0.910 1_655 S
C339 C338 1.267 . S
C339 C340 1.251 1_655 S
C340 H310 0.929 . S
C340 N336 1.418 1_455 S
C340 C339 1.251 1_455 S
C341 H308 0.930 . S
C341 C343 1.406 . S
C341 C346 1.261 . S
C342 H309 0.930 . S
C342 N344 1.325 . S
C342 C345 1.357 . S
C343 H311 0.928 . S
C343 C341 1.406 . S
C343 N344 1.261 . S
N344 Co295 2.214 . S
N344 C342 1.325 . S
N344 C343 1.261 . S
C345 H315 0.931 . S
C345 C342 1.357 . S
C345 C346 1.312 . S
C346 H317 0.930 . S
C346 C341 1.261 . S
C346 C345 1.312 . S
C347 O319 1.214 . S
C347 O327 1.234 . S
C348 H320 0.929 . S
C348 C351 1.391 . S
C348 C353 1.391 . S
C349 H321 0.929 1_655 S
C349 C350 1.390 . S
C349 N352 1.391 . S
C350 H322 0.930 . S
C350 C349 1.390 . S
C350 C351 1.392 . S
C351 H323 0.929 . S
C351 C348 1.391 . S
C351 C350 1.392 . S
N352 Co296 2.257 1_655 S
N352 C349 1.391 . S
N352 C353 1.388 . S
C353 H324 0.930 . S
C353 C348 1.391 . S
C353 N352 1.388 . S
Co354 O356 2.143 . S
Co354 O362 2.074 . S
Co354 O365 2.093 . S
Co354 O378 2.097 . S
Co354 N395 2.151 . S
Co354 N403 2.214 . S
Co355 O356 2.160 . S
Co355 O361 2.058 . S
Co355 O371 2.057 . S
Co355 O386 2.037 . S
Co355 N390 2.145 . S
Co355 N411 2.257 . S
O356 Co354 2.143 . S
O356 Co355 2.160 . S
C357 O358 1.278 . S
C357 O365 1.224 . S
O358 C357 1.278 . S
C359 O360 1.245 . S
C359 O371 1.232 . S
O360 C359 1.245 . S
O361 Co355 2.058 . S
O361 C387 1.269 . S
O362 Co354 2.074 . S
O362 C387 1.257 . S
H363 C388 0.930 . S
H364 C394 0.930 . S
O365 Co354 2.093 . S
O365 C357 1.224 . S
H366 C398 0.929 . S
H367 C400 0.930 . S
H368 C401 0.930 . S
H369 C399 0.929 . S
H370 C402 0.928 . S
O371 Co355 2.057 . S
O371 C359 1.232 . S
H372 C391 0.929 . S
H373 C392 0.929 . S
H374 C404 0.931 . S
H375 C396 0.929 . S
H376 C405 0.930 . S
H377 C397 0.931 . S
O378 Co354 2.097 . S
O378 C406 1.214 . S
H379 C407 0.929 . S
H380 C408 0.929 . S
H381 C409 0.930 . S
H382 C410 0.929 . S
H383 C412 0.930 . S
H384 C389 0.930 . S
H385 C393 0.930 . S
O386 Co355 2.037 . S
O386 C406 1.234 . S
C387 O361 1.269 . S
C387 O362 1.257 . S
C388 H363 0.930 . S
C388 C391 1.388 . S
C388 C393 1.418 . S
C389 H384 0.930 . S
C389 C392 1.404 . S
C389 C393 1.353 . S
N390 Co355 2.145 . S
N390 C391 1.397 . S
N390 C392 1.334 . S
C391 H372 0.929 . S
C391 C388 1.388 . S
C391 N390 1.397 . S
C392 H373 0.929 . S
C392 C389 1.404 . S
C392 N390 1.334 . S
C393 H385 0.930 . S
C393 C388 1.418 . S
C393 C389 1.353 . S
C394 H364 0.930 . S
C394 N395 1.330 . S
C394 C396 1.446 1_554 S
N395 Co354 2.151 . S
N395 C394 1.330 . S
N395 C399 1.418 . S
C396 H375 0.929 . S
C396 C394 1.446 1_556 S
C396 C397 1.332 . S
C397 H377 0.931 . S
C397 C396 1.332 . S
C397 C398 1.267 . S
C398 H366 0.929 . S
C398 C397 1.267 . S
C398 C399 1.251 1_556 S
C399 H369 0.929 . S
C399 N395 1.418 . S
C399 C398 1.251 1_554 S
C400 H367 0.930 . S
C400 C402 1.406 . S
C400 C405 1.261 . S
C401 H368 0.930 . S
C401 N403 1.325 . S
C401 C404 1.357 . S
C402 H370 0.928 . S
C402 C400 1.406 . S
C402 N403 1.261 1_556 S
N403 Co354 2.214 . S
N403 C401 1.325 . S
N403 C402 1.261 1_554 S
C404 H374 0.931 . S
C404 C401 1.357 . S
C404 C405 1.312 1_554 S
C405 H376 0.930 . S
C405 C400 1.261 . S
C405 C404 1.312 1_556 S
C406 O378 1.214 . S
C406 O386 1.234 . S
C407 H379 0.929 . S
C407 C410 1.391 . S
C407 C412 1.391 . S
C408 H380 0.929 . S
C408 C409 1.390 . S
C408 N411 1.391 . S
C409 H381 0.930 . S
C409 C408 1.390 . S
C409 C410 1.392 . S
C410 H382 0.929 . S
C410 C407 1.391 . S
C410 C409 1.392 . S
N411 Co355 2.257 . S
N411 C408 1.391 . S
N411 C412 1.388 . S
C412 H383 0.930 . S
C412 C407 1.391 . S
C412 N411 1.388 . S
Co413 O415 2.143 . S
Co413 O421 2.074 . S
Co413 O424 2.093 . S
Co413 O437 2.097 . S
Co413 N454 2.151 . S
Co413 N462 2.214 . S
Co414 O415 2.160 . S
Co414 O420 2.058 . S
Co414 O430 2.057 . S
Co414 O445 2.037 . S
Co414 N449 2.145 . S
Co414 N470 2.257 . S
O415 Co413 2.143 . S
O415 Co414 2.160 . S
C416 O417 1.278 . S
C416 O424 1.224 . S
O417 C416 1.278 . S
C418 O419 1.245 . S
C418 O430 1.232 . S
O419 C418 1.245 . S
O420 Co414 2.058 . S
O420 C446 1.269 . S
O421 Co413 2.074 . S
O421 C446 1.257 . S
H422 C447 0.930 . S
H423 C453 0.930 . S
O424 Co413 2.093 . S
O424 C416 1.224 . S
H425 C457 0.929 . S
H426 C459 0.930 . S
H427 C460 0.930 . S
H428 C458 0.929 . S
H429 C461 0.928 . S
O430 Co414 2.057 . S
O430 C418 1.232 . S
H431 C450 0.929 . S
H432 C451 0.929 . S
H433 C463 0.931 . S
H434 C455 0.929 . S
H435 C464 0.930 . S
H436 C456 0.931 . S
O437 Co413 2.097 . S
O437 C465 1.214 . S
H438 C466 0.929 . S
H439 C467 0.929 . S
H440 C468 0.930 . S
H441 C469 0.929 . S
H442 C471 0.930 . S
H443 C448 0.930 . S
H444 C452 0.930 . S
O445 Co414 2.037 . S
O445 C465 1.234 . S
C446 O420 1.269 . S
C446 O421 1.257 . S
C447 H422 0.930 . S
C447 C450 1.388 . S
C447 C452 1.418 . S
C448 H443 0.930 . S
C448 C451 1.404 . S
C448 C452 1.353 . S
N449 Co414 2.145 . S
N449 C450 1.397 . S
N449 C451 1.334 . S
C450 H431 0.929 . S
C450 C447 1.388 . S
C450 N449 1.397 . S
C451 H432 0.929 . S
C451 C448 1.404 . S
C451 N449 1.334 . S
C452 H444 0.930 . S
C452 C447 1.418 . S
C452 C448 1.353 . S
C453 H423 0.930 . S
C453 N454 1.330 . S
C453 C455 1.446 1_556 S
N454 Co413 2.151 . S
N454 C453 1.330 . S
N454 C458 1.418 . S
C455 H434 0.929 . S
C455 C453 1.446 1_554 S
C455 C456 1.332 . S
C456 H436 0.931 . S
C456 C455 1.332 . S
C456 C457 1.267 . S
C457 H425 0.929 . S
C457 C456 1.267 . S
C457 C458 1.251 1_554 S
C458 H428 0.929 . S
C458 N454 1.418 . S
C458 C457 1.251 1_556 S
C459 H426 0.930 . S
C459 C461 1.406 . S
C459 C464 1.261 . S
C460 H427 0.930 . S
C460 N462 1.325 . S
C460 C463 1.357 . S
C461 H429 0.928 . S
C461 C459 1.406 . S
C461 N462 1.261 1_554 S
N462 Co413 2.214 . S
N462 C460 1.325 . S
N462 C461 1.261 1_556 S
C463 H433 0.931 . S
C463 C460 1.357 . S
C463 C464 1.312 1_556 S
C464 H435 0.930 . S
C464 C459 1.261 . S
C464 C463 1.312 1_554 S
C465 O437 1.214 . S
C465 O445 1.234 . S
C466 H438 0.929 . S
C466 C469 1.391 . S
C466 C471 1.391 . S
C467 H439 0.929 . S
C467 C468 1.390 . S
C467 N470 1.391 . S
C468 H440 0.930 . S
C468 C467 1.390 . S
C468 C469 1.392 . S
C469 H441 0.929 . S
C469 C466 1.391 . S
C469 C468 1.392 . S
N470 Co414 2.257 . S
N470 C467 1.391 . S
N470 C471 1.388 . S
C471 H442 0.930 . S
C471 C466 1.391 . S
C471 N470 1.388 . S
C472 C473 1.391 . S
C472 C474 1.394 1_556 S
C472 H488 0.931 . S
C473 C472 1.391 . S
C473 C477 1.376 . S
C474 C472 1.394 1_554 S
C474 C475 1.369 1_554 S
C474 C478 1.531 . S
C475 C474 1.369 1_556 S
C475 C476 1.410 . S
C475 C483 1.503 1_556 S
C476 C475 1.410 . S
C476 C477 1.392 . S
C476 C479 1.511 . S
C477 C473 1.376 . S
C477 C476 1.392 . S
C477 H489 0.929 . S
C478 C474 1.531 . S
C478 H490 0.960 . S
C478 H491 0.962 . S
C478 H492 0.960 . S
C479 C476 1.511 . S
C479 H493 0.961 . S
C479 H494 0.961 . S
C479 H495 0.961 . S
C480 C481 1.370 . S
C480 C482 1.363 . S
C480 H496 0.931 . S
C481 C480 1.370 . S
C481 C485 1.408 . S
C482 C480 1.363 . S
C482 C483 1.370 . S
C482 C486 1.524 1_554 S
C483 C475 1.503 1_554 S
C483 C482 1.370 . S
C483 C484 1.403 . S
C484 C483 1.403 . S
C484 C485 1.404 . S
C484 C487 1.539 . S
C485 C481 1.408 . S
C485 C484 1.404 . S
C485 H497 0.930 . S
C486 C482 1.524 1_556 S
C486 H498 0.956 . S
C486 H499 0.961 . S
C486 H500 0.961 . S
C487 C484 1.539 . S
C487 H501 0.958 . S
C487 H502 0.961 . S
C487 H503 0.960 . S
H488 C472 0.931 . S
H489 C477 0.929 . S
H490 C478 0.960 . S
H491 C478 0.962 . S
H492 C478 0.960 . S
H493 C479 0.961 . S
H494 C479 0.961 . S
H495 C479 0.961 . S
H496 C480 0.931 . S
H497 C485 0.930 . S
H498 C486 0.956 . S
H499 C486 0.961 . S
H500 C486 0.961 . S
H501 C487 0.958 . S
H502 C487 0.961 . S
H503 C487 0.960 . S
C504 C505 1.391 . S
C504 C506 1.394 . S
C504 H520 0.931 . S
C505 C504 1.391 . S
C505 C509 1.376 . S
C506 C504 1.394 . S
C506 C507 1.369 . S
C506 C510 1.531 . S
C507 C506 1.369 . S
C507 C508 1.410 . S
C507 C515 1.503 . S
C508 C507 1.410 . S
C508 C509 1.392 . S
C508 C511 1.511 . S
C509 C505 1.376 . S
C509 C508 1.392 . S
C509 H521 0.929 . S
C510 C506 1.531 . S
C510 H522 0.960 . S
C510 H523 0.962 . S
C510 H524 0.960 . S
C511 C508 1.511 . S
C511 H525 0.961 . S
C511 H526 0.961 . S
C511 H527 0.961 . S
C512 C513 1.370 . S
C512 C514 1.363 . S
C512 H528 0.931 1_554 S
C513 C512 1.370 . S
C513 C517 1.408 . S
C514 C512 1.363 . S
C514 C515 1.370 . S
C514 C518 1.524 . S
C515 C507 1.503 . S
C515 C514 1.370 . S
C515 C516 1.403 . S
C516 C515 1.403 . S
C516 C517 1.404 . S
C516 C519 1.539 . S
C517 C513 1.408 . S
C517 C516 1.404 . S
C517 H529 0.930 . S
C518 C514 1.524 . S
C518 H530 0.956 . S
C518 H531 0.961 . S
C518 H532 0.961 . S
C519 C516 1.539 . S
C519 H533 0.958 . S
C519 H534 0.961 . S
C519 H535 0.960 . S
H520 C504 0.931 . S
H521 C509 0.929 . S
H522 C510 0.960 . S
H523 C510 0.962 . S
H524 C510 0.960 . S
H525 C511 0.961 . S
H526 C511 0.961 . S
H527 C511 0.961 . S
H528 C512 0.931 1_556 S
H529 C517 0.930 . S
H530 C518 0.956 . S
H531 C518 0.961 . S
H532 C518 0.961 . S
H533 C519 0.958 . S
H534 C519 0.961 . S
H535 C519 0.960 . S
C536 C537 1.391 . S
C536 C538 1.394 . S
C536 H552 0.931 . S
C537 C536 1.391 . S
C537 C541 1.376 . S
C538 C536 1.394 . S
C538 C539 1.369 . S
C538 C542 1.531 . S
C539 C538 1.369 . S
C539 C540 1.410 . S
C539 C547 1.503 . S
C540 C539 1.410 . S
C540 C541 1.392 . S
C540 C543 1.511 . S
C541 C537 1.376 . S
C541 C540 1.392 . S
C541 H553 0.929 . S
C542 C538 1.531 . S
C542 H554 0.960 . S
C542 H555 0.962 . S
C542 H556 0.960 . S
C543 C540 1.511 . S
C543 H557 0.961 . S
C543 H558 0.961 . S
C543 H559 0.961 . S
C544 C545 1.370 . S
C544 C546 1.363 . S
C544 H560 0.931 . S
C545 C544 1.370 . S
C545 C549 1.408 . S
C546 C544 1.363 . S
C546 C547 1.370 . S
C546 C550 1.524 . S
C547 C539 1.503 . S
C547 C546 1.370 . S
C547 C548 1.403 . S
C548 C547 1.403 . S
C548 C549 1.404 . S
C548 C551 1.539 . S
C549 C545 1.408 . S
C549 C548 1.404 . S
C549 H561 0.930 . S
C550 C546 1.524 . S
C550 H562 0.956 . S
C550 H563 0.961 . S
C550 H564 0.961 . S
C551 C548 1.539 . S
C551 H565 0.958 . S
C551 H566 0.961 . S
C551 H567 0.960 . S
H552 C536 0.931 . S
H553 C541 0.929 . S
H554 C542 0.960 . S
H555 C542 0.962 . S
H556 C542 0.960 . S
H557 C543 0.961 . S
H558 C543 0.961 . S
H559 C543 0.961 . S
H560 C544 0.931 . S
H561 C549 0.930 . S
H562 C550 0.956 . S
H563 C550 0.961 . S
H564 C550 0.961 . S
H565 C551 0.958 . S
H566 C551 0.961 . S
H567 C551 0.960 . S
C568 C569 1.391 . S
C568 C570 1.394 . S
C568 H584 0.931 . S
C569 C568 1.391 . S
C569 C573 1.376 . S
C570 C568 1.394 . S
C570 C571 1.369 . S
C570 C574 1.531 . S
C571 C570 1.369 . S
C571 C572 1.410 . S
C571 C579 1.503 . S
C572 C571 1.410 . S
C572 C573 1.392 . S
C572 C575 1.511 . S
C573 C569 1.376 . S
C573 C572 1.392 . S
C573 H585 0.929 1_556 S
C574 C570 1.531 . S
C574 H586 0.960 . S
C574 H587 0.962 . S
C574 H588 0.960 . S
C575 C572 1.511 . S
C575 H589 0.961 1_556 S
C575 H590 0.961 . S
C575 H591 0.961 1_556 S
C576 C577 1.370 . S
C576 C578 1.363 . S
C576 H592 0.931 . S
C577 C576 1.370 . S
C577 C581 1.408 . S
C578 C576 1.363 . S
C578 C579 1.370 . S
C578 C582 1.524 . S
C579 C571 1.503 . S
C579 C578 1.370 . S
C579 C580 1.403 . S
C580 C579 1.403 . S
C580 C581 1.404 . S
C580 C583 1.539 . S
C581 C577 1.408 . S
C581 C580 1.404 . S
C581 H593 0.930 . S
C582 C578 1.524 . S
C582 H594 0.956 . S
C582 H595 0.961 . S
C582 H596 0.961 . S
C583 C580 1.539 . S
C583 H597 0.958 . S
C583 H598 0.961 . S
C583 H599 0.960 . S
H584 C568 0.931 . S
H585 C573 0.929 1_554 S
H586 C574 0.960 . S
H587 C574 0.962 . S
H588 C574 0.960 . S
H589 C575 0.961 1_554 S
H590 C575 0.961 . S
H591 C575 0.961 1_554 S
H592 C576 0.931 . S
H593 C581 0.930 . S
H594 C582 0.956 . S
H595 C582 0.961 . S
H596 C582 0.961 . S
H597 C583 0.958 . S
H598 C583 0.961 . S
H599 C583 0.960 . S
C600 C601 1.391 . S
C600 C602 1.394 . S
C600 H616 0.931 . S
C601 C600 1.391 . S
C601 C605 1.376 . S
C602 C600 1.394 . S
C602 C603 1.369 . S
C602 C606 1.531 . S
C603 C602 1.369 . S
C603 C604 1.410 . S
C603 C611 1.503 . S
C604 C603 1.410 . S
C604 C605 1.392 . S
C604 C607 1.511 . S
C605 C601 1.376 . S
C605 C604 1.392 . S
C605 H617 0.929 . S
C606 C602 1.531 . S
C606 H618 0.960 . S
C606 H619 0.962 . S
C606 H620 0.960 . S
C607 C604 1.511 . S
C607 H621 0.961 . S
C607 H622 0.961 . S
C607 H623 0.961 . S
C608 C609 1.370 . S
C608 C610 1.363 . S
C608 H624 0.931 . S
C609 C608 1.370 . S
C609 C613 1.408 . S
C610 C608 1.363 . S
C610 C611 1.370 . S
C610 C614 1.524 . S
C611 C603 1.503 . S
C611 C610 1.370 . S
C611 C612 1.403 . S
C612 C611 1.403 . S
C612 C613 1.404 . S
C612 C615 1.539 . S
C613 C609 1.408 . S
C613 C612 1.404 . S
C613 H625 0.930 . S
C614 C610 1.524 . S
C614 H626 0.956 . S
C614 H627 0.961 . S
C614 H628 0.961 . S
C615 C612 1.539 . S
C615 H629 0.958 . S
C615 H630 0.961 . S
C615 H631 0.960 . S
H616 C600 0.931 . S
H617 C605 0.929 . S
H618 C606 0.960 . S
H619 C606 0.962 . S
H620 C606 0.960 . S
H621 C607 0.961 . S
H622 C607 0.961 . S
H623 C607 0.961 . S
H624 C608 0.931 . S
H625 C613 0.930 . S
H626 C614 0.956 . S
H627 C614 0.961 . S
H628 C614 0.961 . S
H629 C615 0.958 . S
H630 C615 0.961 . S
H631 C615 0.960 . S
C632 C633 1.391 . S
C632 C634 1.394 . S
C632 H648 0.931 . S
C633 C632 1.391 . S
C633 C637 1.376 . S
C634 C632 1.394 . S
C634 C635 1.369 . S
C634 C638 1.531 . S
C635 C634 1.369 . S
C635 C636 1.410 . S
C635 C643 1.503 . S
C636 C635 1.410 . S
C636 C637 1.392 . S
C636 C639 1.511 . S
C637 C633 1.376 . S
C637 C636 1.392 . S
C637 H649 0.929 . S
C638 C634 1.531 . S
C638 H650 0.960 . S
C638 H651 0.962 . S
C638 H652 0.960 . S
C639 C636 1.511 . S
C639 H653 0.961 . S
C639 H654 0.961 . S
C639 H655 0.961 . S
C640 C641 1.370 . S
C640 C642 1.363 . S
C640 H656 0.931 . S
C641 C640 1.370 . S
C641 C645 1.408 . S
C642 C640 1.363 . S
C642 C643 1.370 . S
C642 C646 1.524 . S
C643 C635 1.503 . S
C643 C642 1.370 . S
C643 C644 1.403 . S
C644 C643 1.403 . S
C644 C645 1.404 . S
C644 C647 1.539 . S
C645 C641 1.408 . S
C645 C644 1.404 . S
C645 H657 0.930 . S
C646 C642 1.524 . S
C646 H658 0.956 . S
C646 H659 0.961 . S
C646 H660 0.961 . S
C647 C644 1.539 . S
C647 H661 0.958 . S
C647 H662 0.961 . S
C647 H663 0.960 . S
H648 C632 0.931 . S
H649 C637 0.929 . S
H650 C638 0.960 . S
H651 C638 0.962 . S
H652 C638 0.960 . S
H653 C639 0.961 . S
H654 C639 0.961 . S
H655 C639 0.961 . S
H656 C640 0.931 . S
H657 C645 0.930 . S
H658 C646 0.956 . S
H659 C646 0.961 . S
H660 C646 0.961 . S
H661 C647 0.958 . S
H662 C647 0.961 . S
H663 C647 0.960 . S
C664 C665 1.391 . S
C664 C666 1.394 . S
C664 H680 0.931 . S
C665 C664 1.391 . S
C665 C669 1.376 . S
C666 C664 1.394 . S
C666 C667 1.369 . S
C666 C670 1.531 1_554 S
C667 C666 1.369 . S
C667 C668 1.410 . S
C667 C675 1.503 1_554 S
C668 C667 1.410 . S
C668 C669 1.392 . S
C668 C671 1.511 . S
C669 C665 1.376 . S
C669 C668 1.392 . S
C669 H681 0.929 . S
C670 C666 1.531 1_556 S
C670 H682 0.960 . S
C670 H683 0.962 . S
C670 H684 0.960 1_556 S
C671 C668 1.511 . S
C671 H685 0.961 . S
C671 H686 0.961 . S
C671 H687 0.961 . S
C672 C673 1.370 . S
C672 C674 1.363 . S
C672 H688 0.931 . S
C673 C672 1.370 . S
C673 C677 1.408 . S
C674 C672 1.363 . S
C674 C675 1.370 . S
C674 C678 1.524 . S
C675 C667 1.503 1_556 S
C675 C674 1.370 . S
C675 C676 1.403 1_556 S
C676 C675 1.403 1_554 S
C676 C677 1.404 1_554 S
C676 C679 1.539 . S
C677 C673 1.408 . S
C677 C676 1.404 1_556 S
C677 H689 0.929 . S
C678 C674 1.524 . S
C678 H690 0.956 . S
C678 H691 0.961 . S
C678 H692 0.961 . S
C679 C676 1.539 . S
C679 H693 0.958 . S
C679 H694 0.961 . S
C679 H695 0.960 . S
H680 C664 0.931 . S
H681 C669 0.929 . S
H682 C670 0.960 . S
H683 C670 0.962 . S
H684 C670 0.960 1_554 S
H685 C671 0.961 . S
H686 C671 0.961 . S
H687 C671 0.961 . S
H688 C672 0.931 . S
H689 C677 0.929 . S
H690 C678 0.956 . S
H691 C678 0.961 . S
H692 C678 0.961 . S
H693 C679 0.958 . S
H694 C679 0.961 . S
H695 C679 0.960 . S
C696 C697 1.391 . S
C696 C698 1.394 . S
C696 H712 0.931 . S
C697 C696 1.391 . S
C697 C701 1.376 . S
C698 C696 1.394 . S
C698 C699 1.369 . S
C698 C702 1.531 . S
C699 C698 1.369 . S
C699 C700 1.410 . S
C699 C707 1.503 . S
C700 C699 1.410 . S
C700 C701 1.392 . S
C700 C703 1.511 . S
C701 C697 1.376 . S
C701 C700 1.392 . S
C701 H713 0.929 . S
C702 C698 1.531 . S
C702 H714 0.960 . S
C702 H715 0.962 . S
C702 H716 0.960 . S
C703 C700 1.511 . S
C703 H717 0.961 . S
C703 H718 0.961 . S
C703 H719 0.961 . S
C704 C705 1.370 . S
C704 C706 1.363 . S
C704 H720 0.931 . S
C705 C704 1.370 . S
C705 C709 1.408 . S
C706 C704 1.363 . S
C706 C707 1.370 . S
C706 C710 1.524 . S
C707 C699 1.503 . S
C707 C706 1.370 . S
C707 C708 1.403 . S
C708 C707 1.403 . S
C708 C709 1.404 . S
C708 C711 1.539 . S
C709 C705 1.408 . S
C709 C708 1.404 . S
C709 H721 0.930 . S
C710 C706 1.524 . S
C710 H722 0.956 . S
C710 H723 0.961 . S
C710 H724 0.961 . S
C711 C708 1.539 . S
C711 H725 0.958 . S
C711 H726 0.961 . S
C711 H727 0.960 . S
H712 C696 0.931 . S
H713 C701 0.929 . S
H714 C702 0.960 . S
H715 C702 0.962 . S
H716 C702 0.960 . S
H717 C703 0.961 . S
H718 C703 0.961 . S
H719 C703 0.961 . S
H720 C704 0.931 . S
H721 C709 0.930 . S
H722 C710 0.956 . S
H723 C710 0.961 . S
H724 C710 0.961 . S
H725 C711 0.958 . S
H726 C711 0.961 . S
H727 C711 0.960 . S
C728 C729 1.391 . S
C728 C730 1.394 . S
C728 H744 0.931 . S
C729 C728 1.391 . S
C729 C733 1.376 . S
C730 C728 1.394 . S
C730 C731 1.369 . S
C730 C734 1.531 . S
C731 C730 1.369 . S
C731 C732 1.410 . S
C731 C739 1.503 . S
C732 C731 1.410 . S
C732 C733 1.392 . S
C732 C735 1.511 . S
C733 C729 1.376 . S
C733 C732 1.392 . S
C733 H745 0.929 . S
C734 C730 1.531 . S
C734 H746 0.960 . S
C734 H747 0.962 . S
C734 H748 0.960 . S
C735 C732 1.511 . S
C735 H749 0.961 . S
C735 H750 0.961 . S
C735 H751 0.961 . S
C736 C737 1.370 . S
C736 C738 1.363 . S
C736 H752 0.931 . S
C737 C736 1.370 . S
C737 C741 1.408 . S
C738 C736 1.363 . S
C738 C739 1.370 . S
C738 C742 1.524 . S
C739 C731 1.503 . S
C739 C738 1.370 . S
C739 C740 1.403 . S
C740 C739 1.403 . S
C740 C741 1.404 . S
C740 C743 1.539 . S
C741 C737 1.408 . S
C741 C740 1.404 . S
C741 H753 0.930 . S
C742 C738 1.524 . S
C742 H754 0.956 . S
C742 H755 0.961 . S
C742 H756 0.961 . S
C743 C740 1.539 . S
C743 H757 0.958 . S
C743 H758 0.961 . S
C743 H759 0.960 . S
H744 C728 0.931 . S
H745 C733 0.929 . S
H746 C734 0.960 . S
H747 C734 0.962 . S
H748 C734 0.960 . S
H749 C735 0.961 . S
H750 C735 0.961 . S
H751 C735 0.961 . S
H752 C736 0.931 . S
H753 C741 0.930 . S
H754 C742 0.956 . S
H755 C742 0.961 . S
H756 C742 0.961 . S
H757 C743 0.958 . S
H758 C743 0.961 . S
H759 C743 0.960 . S
C760 C761 1.391 . S
C760 C762 1.394 . S
C760 H776 0.931 . S
C761 C760 1.391 . S
C761 C765 1.376 . S
C762 C760 1.394 . S
C762 C763 1.369 . S
C762 C766 1.531 . S
C763 C762 1.369 . S
C763 C764 1.410 . S
C763 C771 1.503 . S
C764 C763 1.410 . S
C764 C765 1.392 . S
C764 C767 1.511 . S
C765 C761 1.376 . S
C765 C764 1.392 . S
C765 H777 0.929 . S
C766 C762 1.531 . S
C766 H778 0.960 . S
C766 H779 0.962 . S
C766 H780 0.960 . S
C767 C764 1.511 . S
C767 H781 0.961 . S
C767 H782 0.961 . S
C767 H783 0.961 . S
C768 C769 1.370 . S
C768 C770 1.363 . S
C768 H784 0.931 . S
C769 C768 1.370 . S
C769 C773 1.408 . S
C770 C768 1.363 . S
C770 C771 1.370 . S
C770 C774 1.524 . S
C771 C763 1.503 . S
C771 C770 1.370 . S
C771 C772 1.403 . S
C772 C771 1.403 . S
C772 C773 1.404 . S
C772 C775 1.539 . S
C773 C769 1.408 . S
C773 C772 1.404 . S
C773 H785 0.930 . S
C774 C770 1.524 . S
C774 H786 0.956 . S
C774 H787 0.961 . S
C774 H788 0.961 . S
C775 C772 1.539 . S
C775 H789 0.958 1_556 S
C775 H790 0.961 1_556 S
C775 H791 0.960 . S
H776 C760 0.931 . S
H777 C765 0.929 . S
H778 C766 0.960 . S
H779 C766 0.962 . S
H780 C766 0.960 . S
H781 C767 0.961 . S
H782 C767 0.961 . S
H783 C767 0.961 . S
H784 C768 0.931 . S
H785 C773 0.930 . S
H786 C774 0.956 . S
H787 C774 0.961 . S
H788 C774 0.961 . S
H789 C775 0.958 1_554 S
H790 C775 0.961 1_554 S
H791 C775 0.960 . S
C792 C793 1.391 . S
C792 C794 1.394 1_554 S
C792 H808 0.931 1_554 S
C793 C792 1.391 . S
C793 C797 1.376 . S
C794 C792 1.394 1_556 S
C794 C795 1.369 1_556 S
C794 C798 1.531 . S
C795 C794 1.369 1_554 S
C795 C796 1.410 . S
C795 C803 1.503 . S
C796 C795 1.410 . S
C796 C797 1.392 . S
C796 C799 1.511 . S
C797 C793 1.376 . S
C797 C796 1.392 . S
C797 H809 0.929 . S
C798 C794 1.531 . S
C798 H810 0.960 . S
C798 H811 0.962 . S
C798 H812 0.960 . S
C799 C796 1.511 . S
C799 H813 0.961 . S
C799 H814 0.961 . S
C799 H815 0.961 . S
C800 C801 1.370 . S
C800 C802 1.363 . S
C800 H816 0.931 . S
C801 C800 1.370 . S
C801 C805 1.408 1_556 S
C802 C800 1.363 . S
C802 C803 1.370 1_556 S
C802 C806 1.524 . S
C803 C795 1.503 . S
C803 C802 1.370 1_554 S
C803 C804 1.403 . S
C804 C803 1.403 . S
C804 C805 1.404 . S
C804 C807 1.539 . S
C805 C801 1.408 1_554 S
C805 C804 1.404 . S
C805 H817 0.930 . S
C806 C802 1.524 . S
C806 H818 0.956 . S
C806 H819 0.961 . S
C806 H820 0.961 . S
C807 C804 1.539 . S
C807 H821 0.958 . S
C807 H822 0.961 . S
C807 H823 0.960 . S
H808 C792 0.931 1_556 S
H809 C797 0.929 . S
H810 C798 0.960 . S
H811 C798 0.962 . S
H812 C798 0.960 . S
H813 C799 0.961 . S
H814 C799 0.961 . S
H815 C799 0.961 . S
H816 C800 0.931 . S
H817 C805 0.930 . S
H818 C806 0.956 . S
H819 C806 0.961 . S
H820 C806 0.961 . S
H821 C807 0.958 . S
H822 C807 0.961 . S
H823 C807 0.960 . S
C824 C825 1.391 . S
C824 C826 1.394 . S
C824 H840 0.931 . S
C825 C824 1.391 . S
C825 C829 1.376 . S
C826 C824 1.394 . S
C826 C827 1.369 . S
C826 C830 1.531 . S
C827 C826 1.369 . S
C827 C828 1.410 . S
C827 C835 1.503 . S
C828 C827 1.410 . S
C828 C829 1.392 . S
C828 C831 1.511 . S
C829 C825 1.376 . S
C829 C828 1.392 . S
C829 H841 0.929 . S
C830 C826 1.531 . S
C830 H842 0.960 . S
C830 H843 0.962 . S
C830 H844 0.960 1_554 S
C831 C828 1.511 . S
C831 H845 0.961 . S
C831 H846 0.961 . S
C831 H847 0.961 . S
C832 C833 1.370 . S
C832 C834 1.363 . S
C832 H848 0.931 . S
C833 C832 1.370 . S
C833 C837 1.408 . S
C834 C832 1.363 . S
C834 C835 1.370 . S
C834 C838 1.524 . S
C835 C827 1.503 . S
C835 C834 1.370 . S
C835 C836 1.403 . S
C836 C835 1.403 . S
C836 C837 1.404 . S
C836 C839 1.539 . S
C837 C833 1.408 . S
C837 C836 1.404 . S
C837 H849 0.930 . S
C838 C834 1.524 . S
C838 H850 0.956 . S
C838 H851 0.961 . S
C838 H852 0.961 . S
C839 C836 1.539 . S
C839 H853 0.958 . S
C839 H854 0.961 . S
C839 H855 0.960 . S
H840 C824 0.931 . S
H841 C829 0.929 . S
H842 C830 0.960 . S
H843 C830 0.962 . S
H844 C830 0.960 1_556 S
H845 C831 0.961 . S
H846 C831 0.961 . S
H847 C831 0.961 . S
H848 C832 0.931 . S
H849 C837 0.930 . S
H850 C838 0.956 . S
H851 C838 0.961 . S
H852 C838 0.961 . S
H853 C839 0.958 . S
H854 C839 0.961 . S
H855 C839 0.960 . S
C856 C857 1.391 . S
C856 C858 1.394 . S
C856 H872 0.931 . S
C857 C856 1.391 . S
C857 C861 1.376 . S
C858 C856 1.394 . S
C858 C859 1.369 . S
C858 C862 1.531 . S
C859 C858 1.369 . S
C859 C860 1.410 . S
C859 C867 1.503 . S
C860 C859 1.410 . S
C860 C861 1.392 . S
C860 C863 1.511 . S
C861 C857 1.376 . S
C861 C860 1.392 . S
C861 H873 0.929 . S
C862 C858 1.531 . S
C862 H874 0.960 . S
C862 H875 0.962 . S
C862 H876 0.960 . S
C863 C860 1.511 . S
C863 H877 0.961 . S
C863 H878 0.961 . S
C863 H879 0.961 . S
C864 C865 1.370 . S
C864 C866 1.363 . S
C864 H880 0.931 . S
C865 C864 1.370 . S
C865 C869 1.408 . S
C866 C864 1.363 . S
C866 C867 1.370 . S
C866 C870 1.524 . S
C867 C859 1.503 . S
C867 C866 1.370 . S
C867 C868 1.403 . S
C868 C867 1.403 . S
C868 C869 1.404 . S
C868 C871 1.539 . S
C869 C865 1.408 . S
C869 C868 1.404 . S
C869 H881 0.930 . S
C870 C866 1.524 . S
C870 H882 0.956 . S
C870 H883 0.961 . S
C870 H884 0.961 . S
C871 C868 1.539 . S
C871 H885 0.958 . S
C871 H886 0.961 1_556 S
C871 H887 0.960 . S
H872 C856 0.931 . S
H873 C861 0.929 . S
H874 C862 0.960 . S
H875 C862 0.962 . S
H876 C862 0.960 . S
H877 C863 0.961 . S
H878 C863 0.961 . S
H879 C863 0.961 . S
H880 C864 0.931 . S
H881 C869 0.930 . S
H882 C870 0.956 . S
H883 C870 0.961 . S
H884 C870 0.961 . S
H885 C871 0.958 . S
H886 C871 0.961 1_554 S
H887 C871 0.960 . S
C888 C889 1.391 1_554 S
C888 C890 1.394 . S
C888 H904 0.931 . S
C889 C888 1.391 1_556 S
C889 C893 1.376 . S
C890 C888 1.394 . S
C890 C891 1.369 1_554 S
C890 C894 1.531 . S
C891 C890 1.369 1_556 S
C891 C892 1.410 . S
C891 C899 1.503 1_556 S
C892 C891 1.410 . S
C892 C893 1.392 . S
C892 C895 1.511 . S
C893 C889 1.376 . S
C893 C892 1.392 . S
C893 H905 0.929 . S
C894 C890 1.531 . S
C894 H906 0.960 . S
C894 H907 0.962 . S
C894 H908 0.960 . S
C895 C892 1.511 . S
C895 H909 0.961 . S
C895 H910 0.961 . S
C895 H911 0.961 . S
C896 C897 1.370 . S
C896 C898 1.363 . S
C896 H912 0.931 . S
C897 C896 1.370 . S
C897 C901 1.408 . S
C898 C896 1.363 . S
C898 C899 1.370 . S
C898 C902 1.524 . S
C899 C891 1.503 1_554 S
C899 C898 1.370 . S
C899 C900 1.403 . S
C900 C899 1.403 . S
C900 C901 1.404 . S
C900 C903 1.539 1_554 S
C901 C897 1.408 . S
C901 C900 1.404 . S
C901 H913 0.930 . S
C902 C898 1.524 . S
C902 H914 0.956 . S
C902 H915 0.961 1_554 S
C902 H916 0.961 . S
C903 C900 1.539 1_556 S
C903 H917 0.958 1_556 S
C903 H918 0.961 . S
C903 H919 0.960 . S
H904 C888 0.931 . S
H905 C893 0.929 . S
H906 C894 0.960 . S
H907 C894 0.962 . S
H908 C894 0.960 . S
H909 C895 0.961 . S
H910 C895 0.961 . S
H911 C895 0.961 . S
H912 C896 0.931 . S
H913 C901 0.930 . S
H914 C902 0.956 . S
H915 C902 0.961 1_556 S
H916 C902 0.961 . S
H917 C903 0.958 1_554 S
H918 C903 0.961 . S
H919 C903 0.960 . S
C920 C921 1.391 . S
C920 C922 1.394 . S
C920 H936 0.931 . S
C921 C920 1.391 . S
C921 C925 1.376 . S
C922 C920 1.394 . S
C922 C923 1.369 . S
C922 C926 1.531 . S
C923 C922 1.369 . S
C923 C924 1.410 . S
C923 C931 1.503 . S
C924 C923 1.410 . S
C924 C925 1.392 . S
C924 C927 1.511 . S
C925 C921 1.376 . S
C925 C924 1.392 . S
C925 H937 0.929 . S
C926 C922 1.531 . S
C926 H938 0.960 . S
C926 H939 0.962 . S
C926 H940 0.960 1_554 S
C927 C924 1.511 . S
C927 H941 0.961 . S
C927 H942 0.961 . S
C927 H943 0.961 . S
C928 C929 1.370 . S
C928 C930 1.363 . S
C928 H944 0.931 . S
C929 C928 1.370 . S
C929 C933 1.408 . S
C930 C928 1.363 . S
C930 C931 1.370 . S
C930 C934 1.524 . S
C931 C923 1.503 . S
C931 C930 1.370 . S
C931 C932 1.403 . S
C932 C931 1.403 . S
C932 C933 1.404 . S
C932 C935 1.539 . S
C933 C929 1.408 . S
C933 C932 1.404 . S
C933 H945 0.930 . S
C934 C930 1.524 . S
C934 H946 0.956 . S
C934 H947 0.961 . S
C934 H948 0.961 . S
C935 C932 1.539 . S
C935 H949 0.958 . S
C935 H950 0.961 . S
C935 H951 0.960 . S
H936 C920 0.931 . S
H937 C925 0.929 . S
H938 C926 0.960 . S
H939 C926 0.962 . S
H940 C926 0.960 1_556 S
H941 C927 0.961 . S
H942 C927 0.961 . S
H943 C927 0.961 . S
H944 C928 0.931 . S
H945 C933 0.930 . S
H946 C934 0.956 . S
H947 C934 0.961 . S
H948 C934 0.961 . S
H949 C935 0.958 . S
H950 C935 0.961 . S
H951 C935 0.960 . S
C952 C953 1.391 . S
C952 C954 1.394 . S
C952 H968 0.931 . S
C953 C952 1.391 . S
C953 C957 1.376 . S
C954 C952 1.394 . S
C954 C955 1.369 . S
C954 C958 1.531 . S
C955 C954 1.369 . S
C955 C956 1.410 . S
C955 C963 1.503 . S
C956 C955 1.410 . S
C956 C957 1.392 . S
C956 C959 1.511 . S
C957 C953 1.376 . S
C957 C956 1.392 . S
C957 H969 0.929 . S
C958 C954 1.531 . S
C958 H970 0.960 . S
C958 H971 0.962 . S
C958 H972 0.960 . S
C959 C956 1.511 . S
C959 H973 0.961 . S
C959 H974 0.961 . S
C959 H975 0.961 . S
C960 C961 1.370 . S
C960 C962 1.363 . S
C960 H976 0.931 . S
C961 C960 1.370 . S
C961 C965 1.408 . S
C962 C960 1.363 . S
C962 C963 1.370 . S
C962 C966 1.524 . S
C963 C955 1.503 . S
C963 C962 1.370 . S
C963 C964 1.403 . S
C964 C963 1.403 . S
C964 C965 1.404 . S
C964 C967 1.539 . S
C965 C961 1.408 . S
C965 C964 1.404 . S
C965 H977 0.930 . S
C966 C962 1.524 . S
C966 H978 0.956 . S
C966 H979 0.961 . S
C966 H980 0.961 . S
C967 C964 1.539 . S
C967 H981 0.958 . S
C967 H982 0.961 . S
C967 H983 0.960 . S
H968 C952 0.931 . S
H969 C957 0.929 . S
H970 C958 0.960 . S
H971 C958 0.962 . S
H972 C958 0.960 . S
H973 C959 0.961 . S
H974 C959 0.961 . S
H975 C959 0.961 . S
H976 C960 0.931 . S
H977 C965 0.930 . S
H978 C966 0.956 . S
H979 C966 0.961 . S
H980 C966 0.961 . S
H981 C967 0.958 . S
H982 C967 0.961 . S
H983 C967 0.960 . S
C473 C64 1.506 . S
C481 C5 1.506 . S
C505 C62 1.503 . S
C513 C123 1.508 . S
C537 C180 1.509 . S
C545 C121 1.505 . S
C569 C182 1.508 . S
C577 C3 1.502 . S
C601 C241 1.505 . S
C609 C300 1.506 . S
C633 C298 1.490 . S
C641 C359 1.506 . S
C665 C357 1.500 . S
C673 C416 1.500 . S
C697 C239 1.500 . S
C705 C418 1.508 . S
C729 C33 1.513 . S
C737 C465 1.514 . S
C761 C288 1.505 . S
C769 C111 1.508 . S
C793 C328 1.509 . S
C801 C170 1.513 . S
C825 C210 1.513 . S
C833 C387 1.519 . S
C857 C151 1.513 . S
C865 C446 1.520 . S
C889 C269 1.511 . S
C897 C229 1.515 . S
C921 C347 1.498 . S
C929 C52 1.505 . S
C953 C92 1.508 . S
C961 C406 1.513 . S
