# Generated by pormake.
# Topology nfa, (4)-cn, num edge types: 1
# Building blocks:
#     Node 0, Type 0, BuildingBlock: KOZSID_clean_sbu_0, # of connection points: 4
#     Node 1, Type 0, BuildingBlock: KOZSID_clean_sbu_0, # of connection points: 4
#     Node 2, Type 0, BuildingBlock: KOZSID_clean_sbu_0, # of connection points: 4
#     Node 3, Type 0, BuildingBlock: KOZSID_clean_sbu_0, # of connection points: 4
#     Node 4, Type 0, BuildingBlock: KOZSID_clean_sbu_0, # of connection points: 4
#     Node 5, Type 0, BuildingBlock: KOZSID_clean_sbu_0, # of connection points: 4
#     Node 6, Type 0, BuildingBlock: KOZSID_clean_sbu_0, # of connection points: 4
#     Node 7, Type 0, BuildingBlock: KOZSID_clean_sbu_0, # of connection points: 4
#     Node 8, Type 0, BuildingBlock: KOZSID_clean_sbu_0, # of connection points: 4
#     Node 9, Type 0, BuildingBlock: KOZSID_clean_sbu_0, # of connection points: 4
#     Node 10, Type 0, BuildingBlock: KOZSID_clean_sbu_0, # of connection points: 4
#     Node 11, Type 0, BuildingBlock: KOZSID_clean_sbu_0, # of connection points: 4
#     Node 12, Type 0, BuildingBlock: KOZSID_clean_sbu_0, # of connection points: 4
#     Node 13, Type 0, BuildingBlock: KOZSID_clean_sbu_0, # of connection points: 4
#     Node 14, Type 0, BuildingBlock: KOZSID_clean_sbu_0, # of connection points: 4
#     Node 15, Type 0, BuildingBlock: KOZSID_clean_sbu_0, # of connection points: 4
#     Node 16, Type 0, BuildingBlock: KOZSID_clean_sbu_0, # of connection points: 4
#     Node 17, Type 0, BuildingBlock: KOZSID_clean_sbu_0, # of connection points: 4
#     Node 18, Type 0, BuildingBlock: KOZSID_clean_sbu_0, # of connection points: 4
#     Node 19, Type 0, BuildingBlock: KOZSID_clean_sbu_0, # of connection points: 4
#     Node 20, Type 0, BuildingBlock: KOZSID_clean_sbu_0, # of connection points: 4
#     Node 21, Type 0, BuildingBlock: KOZSID_clean_sbu_0, # of connection points: 4
#     Node 22, Type 0, BuildingBlock: KOZSID_clean_sbu_0, # of connection points: 4
#     Node 23, Type 0, BuildingBlock: KOZSID_clean_sbu_0, # of connection points: 4
#     Edge 24, Type (0, 0), BuildingBlock: XUDNAN_clean_linker_2, # of connection points: 2
#     Edge 25, Type (0, 0), BuildingBlock: XUDNAN_clean_linker_2, # of connection points: 2
#     Edge 26, Type (0, 0), BuildingBlock: XUDNAN_clean_linker_2, # of connection points: 2
#     Edge 27, Type (0, 0), BuildingBlock: XUDNAN_clean_linker_2, # of connection points: 2
#     Edge 28, Type (0, 0), BuildingBlock: XUDNAN_clean_linker_2, # of connection points: 2
#     Edge 29, Type (0, 0), BuildingBlock: XUDNAN_clean_linker_2, # of connection points: 2
#     Edge 30, Type (0, 0), BuildingBlock: XUDNAN_clean_linker_2, # of connection points: 2
#     Edge 31, Type (0, 0), BuildingBlock: XUDNAN_clean_linker_2, # of connection points: 2
#     Edge 32, Type (0, 0), BuildingBlock: XUDNAN_clean_linker_2, # of connection points: 2
#     Edge 33, Type (0, 0), BuildingBlock: XUDNAN_clean_linker_2, # of connection points: 2
#     Edge 34, Type (0, 0), BuildingBlock: XUDNAN_clean_linker_2, # of connection points: 2
#     Edge 35, Type (0, 0), BuildingBlock: XUDNAN_clean_linker_2, # of connection points: 2
#     Edge 36, Type (0, 0), BuildingBlock: XUDNAN_clean_linker_2, # of connection points: 2
#     Edge 37, Type (0, 0), BuildingBlock: XUDNAN_clean_linker_2, # of connection points: 2
#     Edge 38, Type (0, 0), BuildingBlock: XUDNAN_clean_linker_2, # of connection points: 2
#     Edge 39, Type (0, 0), BuildingBlock: XUDNAN_clean_linker_2, # of connection points: 2
#     Edge 40, Type (0, 0), BuildingBlock: XUDNAN_clean_linker_2, # of connection points: 2
#     Edge 41, Type (0, 0), BuildingBlock: XUDNAN_clean_linker_2, # of connection points: 2
#     Edge 42, Type (0, 0), BuildingBlock: XUDNAN_clean_linker_2, # of connection points: 2
#     Edge 43, Type (0, 0), BuildingBlock: XUDNAN_clean_linker_2, # of connection points: 2
#     Edge 44, Type (0, 0), BuildingBlock: XUDNAN_clean_linker_2, # of connection points: 2
#     Edge 45, Type (0, 0), BuildingBlock: XUDNAN_clean_linker_2, # of connection points: 2
#     Edge 46, Type (0, 0), BuildingBlock: XUDNAN_clean_linker_2, # of connection points: 2
#     Edge 47, Type (0, 0), BuildingBlock: XUDNAN_clean_linker_2, # of connection points: 2
#     Edge 48, Type (0, 0), BuildingBlock: XUDNAN_clean_linker_2, # of connection points: 2
#     Edge 49, Type (0, 0), BuildingBlock: XUDNAN_clean_linker_2, # of connection points: 2
#     Edge 50, Type (0, 0), BuildingBlock: XUDNAN_clean_linker_2, # of connection points: 2
#     Edge 51, Type (0, 0), BuildingBlock: XUDNAN_clean_linker_2, # of connection points: 2
#     Edge 52, Type (0, 0), BuildingBlock: XUDNAN_clean_linker_2, # of connection points: 2
#     Edge 53, Type (0, 0), BuildingBlock: XUDNAN_clean_linker_2, # of connection points: 2
#     Edge 54, Type (0, 0), BuildingBlock: XUDNAN_clean_linker_2, # of connection points: 2
#     Edge 55, Type (0, 0), BuildingBlock: XUDNAN_clean_linker_2, # of connection points: 2
#     Edge 56, Type (0, 0), BuildingBlock: XUDNAN_clean_linker_2, # of connection points: 2
#     Edge 57, Type (0, 0), BuildingBlock: XUDNAN_clean_linker_2, # of connection points: 2
#     Edge 58, Type (0, 0), BuildingBlock: XUDNAN_clean_linker_2, # of connection points: 2
#     Edge 59, Type (0, 0), BuildingBlock: XUDNAN_clean_linker_2, # of connection points: 2
#     Edge 60, Type (0, 0), BuildingBlock: XUDNAN_clean_linker_2, # of connection points: 2
#     Edge 61, Type (0, 0), BuildingBlock: XUDNAN_clean_linker_2, # of connection points: 2
#     Edge 62, Type (0, 0), BuildingBlock: XUDNAN_clean_linker_2, # of connection points: 2
#     Edge 63, Type (0, 0), BuildingBlock: XUDNAN_clean_linker_2, # of connection points: 2
#     Edge 64, Type (0, 0), BuildingBlock: XUDNAN_clean_linker_2, # of connection points: 2
#     Edge 65, Type (0, 0), BuildingBlock: XUDNAN_clean_linker_2, # of connection points: 2
#     Edge 66, Type (0, 0), BuildingBlock: XUDNAN_clean_linker_2, # of connection points: 2
#     Edge 67, Type (0, 0), BuildingBlock: XUDNAN_clean_linker_2, # of connection points: 2
#     Edge 68, Type (0, 0), BuildingBlock: XUDNAN_clean_linker_2, # of connection points: 2
#     Edge 69, Type (0, 0), BuildingBlock: XUDNAN_clean_linker_2, # of connection points: 2
#     Edge 70, Type (0, 0), BuildingBlock: XUDNAN_clean_linker_2, # of connection points: 2
#     Edge 71, Type (0, 0), BuildingBlock: XUDNAN_clean_linker_2, # of connection points: 2
# Relax obj value: 0.045
# Max RMSD: 0.140
# Mean RMSD: 0.108
data_MOF--net-nfa--node1-KOZSID_clean_sbu_0--edge1-XUDNAN_clean_linker_2
_symmetry_space_group_name_H-M    P1
_symmetry_Int_Tables_number       1
_symmetry_cell_setting            triclinic
loop_
_symmetry_equiv_pos_as_xyz
'x, y, z'
_cell_length_a     49.257005
_cell_length_b     50.317546
_cell_length_c     51.158793
_cell_angle_alpha  89.051433
_cell_angle_beta   87.864655
_cell_angle_gamma 86.9442
loop_
_atom_site_label
_atom_site_type_symbol
_atom_site_fract_x
_atom_site_fract_y
_atom_site_fract_z
_atom_type_partial_charge
C0 C 0.06383 0.37601 0.37932 0.0
C1 C 0.03711 0.38539 0.38395 0.0
C2 C 0.03783 0.4122 0.38825 0.0
C3 C 0.06483 0.4177 0.38587 0.0
N4 N 0.08107 0.39605 0.3803 0.0
Co5 Co 0.12124 0.39506 0.3751 0.0
N6 N 0.1238 0.42935 0.3935 0.0
C7 C 0.10291 0.44723 0.39831 0.0
C8 C 0.11066 0.46982 0.41 0.0
C9 C 0.13824 0.46623 0.41227 0.0
C10 C 0.14583 0.44155 0.40173 0.0
N11 N 0.16154 0.39388 0.36976 0.0
C12 C 0.18039 0.40894 0.38015 0.0
C13 C 0.20632 0.40183 0.37013 0.0
C14 C 0.20349 0.38215 0.35243 0.0
C15 C 0.17613 0.37825 0.35268 0.0
N16 N 0.11832 0.36093 0.35657 0.0
C17 C 0.13761 0.34908 0.34077 0.0
C18 C 0.13074 0.32458 0.33259 0.0
C19 C 0.10558 0.32077 0.34393 0.0
C20 C 0.09821 0.34347 0.35817 0.0
N21 N 0.11734 0.4149 0.34203 0.0
C22 C 0.1071 0.44836 0.29882 0.0
C23 C 0.12897 0.45232 0.31472 0.0
C24 C 0.13369 0.43547 0.33613 0.0
C25 C 0.09132 0.42639 0.30415 0.0
C26 C 0.09697 0.40974 0.32568 0.0
N27 N 0.12473 0.3754 0.4082 0.0
C28 C 0.14039 0.33618 0.43193 0.0
C29 C 0.12317 0.34323 0.45345 0.0
C30 C 0.10777 0.36742 0.4522 0.0
C31 C 0.10894 0.38321 0.42953 0.0
C32 C 0.14094 0.35256 0.40958 0.0
H33 H 0.09619 0.40126 0.42893 0.0
H34 H 0.15382 0.34628 0.3931 0.0
H35 H 0.14999 0.43991 0.34844 0.0
H36 H 0.08423 0.39324 0.32964 0.0
C37 C 0.07611 0.44116 0.39355 0.0
C38 C 0.072 0.34838 0.37259 0.0
C39 C 0.17431 0.43226 0.39669 0.0
C40 C 0.16384 0.35842 0.33922 0.0
H41 H 0.01903 0.37405 0.38423 0.0
H42 H 0.02082 0.42575 0.39367 0.0
H43 H 0.09782 0.48686 0.41618 0.0
H44 H 0.1514 0.48056 0.41991 0.0
H45 H 0.22521 0.41056 0.37454 0.0
H46 H 0.2195 0.37179 0.34094 0.0
H47 H 0.14331 0.31032 0.3213 0.0
H48 H 0.09456 0.30291 0.34234 0.0
H49 H 0.1416 0.46912 0.31148 0.0
H50 H 0.07446 0.42237 0.29207 0.0
H51 H 0.15314 0.31797 0.43217 0.0
H52 H 0.09403 0.3737 0.4682 0.0
C53 C 0.90077 0.80529 0.60942 0.0
C54 C 0.89573 0.77955 0.61783 0.0
C55 C 0.87142 0.78094 0.6315 0.0
C56 C 0.86282 0.80725 0.63043 0.0
N57 N 0.8801 0.82279 0.61678 0.0
Co58 Co 0.87467 0.86201 0.60941 0.0
N59 N 0.83823 0.86378 0.62846 0.0
C60 C 0.82649 0.84374 0.64182 0.0
C61 C 0.80056 0.85028 0.65106 0.0
C62 C 0.7952 0.87586 0.64273 0.0
C63 C 0.81835 0.88359 0.62897 0.0
N64 N 0.86905 0.90115 0.60172 0.0
C65 C 0.84666 0.9176 0.60571 0.0
C66 C 0.85114 0.94343 0.59726 0.0
C67 C 0.87692 0.94305 0.58655 0.0
C68 C 0.88671 0.9172 0.58926 0.0
N69 N 0.91105 0.86048 0.59034 0.0
C70 C 0.92386 0.88122 0.5792 0.0
C71 C 0.94923 0.87443 0.56879 0.0
C72 C 0.95294 0.84778 0.57352 0.0
C73 C 0.92936 0.83968 0.58638 0.0
N74 N 0.85676 0.85431 0.57665 0.0
C75 C 0.82958 0.84538 0.53035 0.0
C76 C 0.84919 0.86447 0.53119 0.0
C77 C 0.86268 0.86826 0.55417 0.0
C78 C 0.82427 0.8305 0.55314 0.0
C79 C 0.83776 0.83546 0.57595 0.0
N80 N 0.89292 0.86958 0.64238 0.0
C81 C 0.92674 0.8929 0.66464 0.0
C82 C 0.92434 0.8762 0.68647 0.0
C83 C 0.90511 0.85683 0.68647 0.0
C84 C 0.88941 0.85417 0.66452 0.0
C85 C 0.91104 0.88928 0.64307 0.0
H86 H 0.87495 0.83923 0.66584 0.0
H87 H 0.91456 0.90239 0.62709 0.0
H88 H 0.87752 0.88292 0.55343 0.0
H89 H 0.8323 0.824 0.59286 0.0
C90 C 0.83855 0.818 0.64186 0.0
C91 C 0.92559 0.81213 0.59479 0.0
C92 C 0.82014 0.90924 0.61532 0.0
C93 C 0.91175 0.90697 0.57908 0.0
H94 H 0.90828 0.76154 0.61449 0.0
H95 H 0.86117 0.76469 0.64099 0.0
H96 H 0.7866 0.83744 0.66126 0.0
H97 H 0.77599 0.887 0.64564 0.0
H98 H 0.83686 0.96054 0.59793 0.0
H99 H 0.88698 0.95945 0.57711 0.0
H100 H 0.96347 0.88738 0.55917 0.0
H101 H 0.97117 0.83581 0.56831 0.0
H102 H 0.85381 0.87707 0.51445 0.0
H103 H 0.80966 0.81516 0.55358 0.0
H104 H 0.94144 0.90821 0.66375 0.0
H105 H 0.90222 0.84378 0.70329 0.0
C106 C 0.42306 0.64301 0.88475 0.0
C107 C 0.45115 0.63975 0.88607 0.0
C108 C 0.45638 0.6172 0.90064 0.0
C109 C 0.4313 0.60808 0.9074 0.0
N110 N 0.41043 0.62304 0.89738 0.0
Co111 Co 0.3706 0.61849 0.90384 0.0
N112 N 0.37797 0.58755 0.92802 0.0
C113 C 0.40238 0.57747 0.93578 0.0
C114 C 0.40076 0.55453 0.95055 0.0
C115 C 0.37378 0.5493 0.95161 0.0
C116 C 0.36061 0.56947 0.93747 0.0
N117 N 0.33073 0.61394 0.91043 0.0
C118 C 0.31825 0.59371 0.92275 0.0
C119 C 0.29013 0.59726 0.92218 0.0
C120 C 0.28473 0.62015 0.90816 0.0
C121 C 0.30973 0.6292 0.90102 0.0
N122 N 0.36302 0.64931 0.87955 0.0
C123 C 0.33848 0.6594 0.87203 0.0
C124 C 0.34 0.68171 0.85636 0.0
C125 C 0.36705 0.68649 0.85432 0.0
C126 C 0.3804 0.66674 0.86892 0.0
N127 N 0.37061 0.59338 0.87386 0.0
C128 C 0.36919 0.55664 0.83228 0.0
C129 C 0.34806 0.57592 0.83695 0.0
C130 C 0.34931 0.594 0.85733 0.0
C131 C 0.39115 0.55623 0.84897 0.0
C132 C 0.39138 0.57448 0.86949 0.0
N133 N 0.3707 0.64382 0.9337 0.0
C134 C 0.35081 0.68275 0.956 0.0
C135 C 0.37295 0.68375 0.9723 0.0
C136 C 0.39346 0.66344 0.96956 0.0
C137 C 0.39179 0.64373 0.95053 0.0
C138 C 0.35026 0.66317 0.93699 0.0
H139 H 0.40811 0.62893 0.94946 0.0
H140 H 0.33321 0.66452 0.92486 0.0
H141 H 0.33257 0.60815 0.85947 0.0
H142 H 0.4084 0.57265 0.8818 0.0
C143 C 0.4265 0.58744 0.92537 0.0
C144 C 0.40909 0.66695 0.87446 0.0
C145 C 0.33234 0.56884 0.93055 0.0
C146 C 0.31436 0.64971 0.88283 0.0
H147 H 0.46626 0.65293 0.87844 0.0
H148 H 0.47601 0.60927 0.9068 0.0
H149 H 0.4174 0.54207 0.95803 0.0
H150 H 0.3649 0.5319 0.96039 0.0
H151 H 0.27507 0.58397 0.92966 0.0
H152 H 0.265 0.62823 0.90239 0.0
H153 H 0.32333 0.69394 0.84863 0.0
H154 H 0.37592 0.70326 0.84433 0.0
H155 H 0.33025 0.57703 0.82513 0.0
H156 H 0.40824 0.542 0.84625 0.0
H157 H 0.33375 0.69717 0.95763 0.0
H158 H 0.41114 0.66298 0.98152 0.0
C159 C 0.60209 0.18577 0.12232 0.0
C160 C 0.61007 0.21129 0.12697 0.0
C161 C 0.63151 0.20863 0.1431 0.0
C162 C 0.63557 0.18176 0.1472 0.0
N163 N 0.61813 0.16707 0.13451 0.0
Co164 Co 0.61733 0.12731 0.13455 0.0
N165 N 0.64992 0.12342 0.15694 0.0
C166 C 0.663 0.14306 0.16802 0.0
C167 C 0.68643 0.13426 0.17982 0.0
C168 C 0.68893 0.10756 0.17523 0.0
C169 C 0.66669 0.10161 0.16098 0.0
N170 N 0.61677 0.08761 0.13456 0.0
C171 C 0.63636 0.06939 0.14172 0.0
C172 C 0.62925 0.04363 0.13722 0.0
C173 C 0.60451 0.04574 0.12591 0.0
C174 C 0.59807 0.07257 0.12423 0.0
N175 N 0.585 0.13094 0.11187 0.0
C176 C 0.57046 0.11097 0.10318 0.0
C177 C 0.54883 0.11956 0.08866 0.0
C178 C 0.54949 0.14662 0.08805 0.0
C179 C 0.57174 0.15305 0.10217 0.0
N180 N 0.64216 0.12591 0.10282 0.0
C181 C 0.68004 0.12017 0.05986 0.0
C182 C 0.65587 0.10661 0.06096 0.0
C183 C 0.63738 0.10978 0.08235 0.0
C184 C 0.68429 0.13741 0.08034 0.0
C185 C 0.66528 0.13999 0.10139 0.0
N186 N 0.59225 0.12872 0.1666 0.0
C187 C 0.55035 0.11689 0.18975 0.0
C188 C 0.55475 0.13395 0.21028 0.0
C189 C 0.5788 0.14763 0.20888 0.0
C190 C 0.597 0.14472 0.18723 0.0
C191 C 0.5691 0.1146 0.16841 0.0
H192 H 0.61461 0.15595 0.18764 0.0
H193 H 0.56402 0.10155 0.15348 0.0
H194 H 0.61955 0.09857 0.08225 0.0
H195 H 0.66997 0.15307 0.11662 0.0
C196 C 0.65577 0.16975 0.16261 0.0
C197 C 0.57882 0.18042 0.10668 0.0
C198 C 0.66339 0.07588 0.14916 0.0
C199 C 0.57724 0.08433 0.10948 0.0
H200 H 0.60123 0.22995 0.11958 0.0
H201 H 0.64282 0.22439 0.15087 0.0
H202 H 0.7011 0.14616 0.1888 0.0
H203 H 0.70596 0.09447 0.18061 0.0
H204 H 0.64154 0.02544 0.14027 0.0
H205 H 0.59355 0.02975 0.11808 0.0
H206 H 0.53408 0.1076 0.07988 0.0
H207 H 0.53488 0.16003 0.07861 0.0
H208 H 0.65123 0.09339 0.04543 0.0
H209 H 0.70265 0.14831 0.08063 0.0
H210 H 0.53207 0.10585 0.18965 0.0
H211 H 0.58368 0.16068 0.22445 0.0
C212 C 0.11241 0.61308 0.16713 0.0
C213 C 0.11844 0.62263 0.19141 0.0
C214 C 0.13426 0.64382 0.18682 0.0
C215 C 0.13689 0.64609 0.1601 0.0
N216 N 0.12339 0.62777 0.14737 0.0
Co217 Co 0.12196 0.62353 0.10855 0.0
N218 N 0.14782 0.65236 0.10189 0.0
C219 C 0.16145 0.66533 0.11979 0.0
C220 C 0.17866 0.68335 0.10891 0.0
C221 C 0.17503 0.68241 0.08259 0.0
C222 C 0.15533 0.66419 0.07903 0.0
N223 N 0.11977 0.62032 0.0696 0.0
C224 C 0.12614 0.63832 0.05047 0.0
C225 C 0.11628 0.63113 0.02659 0.0
C226 C 0.10362 0.60796 0.03074 0.0
C227 C 0.10577 0.60246 0.05684 0.0
N228 N 0.09678 0.59392 0.11522 0.0
C229 C 0.08606 0.57875 0.09706 0.0
C230 C 0.07124 0.55859 0.10737 0.0
C231 C 0.07305 0.56058 0.13376 0.0
C232 C 0.08884 0.58208 0.13802 0.0
N233 N 0.09079 0.65009 0.10782 0.0
C234 C 0.04788 0.68916 0.10372 0.0
C235 C 0.04561 0.66356 0.09408 0.0
C236 C 0.06715 0.64451 0.09626 0.0
C237 C 0.07187 0.69463 0.11588 0.0
C238 C 0.09278 0.67496 0.11785 0.0
N239 N 0.15328 0.59682 0.10953 0.0
C240 C 0.17382 0.553 0.09997 0.0
C241 C 0.19374 0.55619 0.11827 0.0
C242 C 0.19415 0.58063 0.13059 0.0
C243 C 0.17406 0.60038 0.12597 0.0
C244 C 0.15393 0.57354 0.09583 0.0
H245 H 0.1755 0.61806 0.13663 0.0
H246 H 0.13897 0.56988 0.08199 0.0
H247 H 0.06436 0.62549 0.08816 0.0
H248 H 0.11057 0.6805 0.12717 0.0
C249 C 0.1548 0.66266 0.14655 0.0
C250 C 0.0974 0.58923 0.16386 0.0
C251 C 0.14044 0.66271 0.0549 0.0
C252 C 0.09079 0.58363 0.07046 0.0
H253 H 0.11267 0.61457 0.21044 0.0
H254 H 0.14376 0.6554 0.20124 0.0
H255 H 0.19097 0.69681 0.11899 0.0
H256 H 0.18404 0.69529 0.06789 0.0
H257 H 0.11647 0.64165 0.00814 0.0
H258 H 0.09223 0.59756 0.01678 0.0
H259 H 0.06097 0.54376 0.09692 0.0
H260 H 0.0644 0.54716 0.14813 0.0
H261 H 0.02729 0.65812 0.08488 0.0
H262 H 0.07489 0.71422 0.12337 0.0
H263 H 0.17299 0.53449 0.08959 0.0
H264 H 0.20976 0.58446 0.14421 0.0
C265 C 0.67093 0.88871 0.41722 0.0
C266 C 0.67398 0.89703 0.44275 0.0
C267 C 0.65743 0.91946 0.44626 0.0
C268 C 0.64527 0.92388 0.42286 0.0
N269 N 0.65274 0.90527 0.40489 0.0
Co270 Co 0.64233 0.90669 0.36778 0.0
N271 N 0.61178 0.93295 0.37555 0.0
C272 C 0.60852 0.9486 0.39654 0.0
C273 C 0.58428 0.96353 0.39679 0.0
C274 C 0.57159 0.95663 0.37457 0.0
C275 C 0.58895 0.93792 0.3621 0.0
N276 N 0.63208 0.90876 0.33081 0.0
C277 C 0.60777 0.91635 0.32112 0.0
C278 C 0.60821 0.91411 0.29414 0.0
C279 C 0.63393 0.90439 0.28686 0.0
C280 C 0.6476 0.90133 0.30976 0.0
N281 N 0.67242 0.88008 0.35966 0.0
C282 C 0.68259 0.8737 0.33559 0.0
C283 C 0.70171 0.85289 0.33593 0.0
C284 C 0.70415 0.84616 0.36181 0.0
C285 C 0.68673 0.86371 0.37597 0.0
N286 N 0.6175 0.8778 0.37432 0.0
C287 C 0.58029 0.83774 0.38334 0.0
C288 C 0.59782 0.8374 0.36107 0.0
C289 C 0.61625 0.85752 0.35697 0.0
C290 C 0.58176 0.85881 0.40079 0.0
C291 C 0.60045 0.87842 0.39602 0.0
N292 N 0.66707 0.93579 0.36145 0.0
C293 C 0.70953 0.95551 0.36963 0.0
C294 C 0.69975 0.98 0.3594 0.0
C295 C 0.67381 0.98145 0.34885 0.0
C296 C 0.65799 0.95908 0.34973 0.0
C297 C 0.69291 0.93379 0.37057 0.0
H298 H 0.63799 0.9609 0.34174 0.0
H299 H 0.70075 0.91569 0.37963 0.0
H300 H 0.62942 0.85667 0.33968 0.0
H301 H 0.60088 0.89431 0.40984 0.0
C302 C 0.62528 0.94402 0.41778 0.0
C303 C 0.68835 0.86758 0.40435 0.0
C304 C 0.58415 0.92544 0.33727 0.0
C305 C 0.67125 0.8852 0.31308 0.0
H306 H 0.68747 0.8887 0.45726 0.0
H307 H 0.65471 0.93122 0.46379 0.0
H308 H 0.57602 0.97655 0.41208 0.0
H309 H 0.5518 0.96417 0.36849 0.0
H310 H 0.59152 0.91831 0.28127 0.0
H311 H 0.64103 0.89831 0.26748 0.0
H312 H 0.71228 0.84342 0.31936 0.0
H313 H 0.71816 0.83093 0.36948 0.0
H314 H 0.5977 0.82149 0.34709 0.0
H315 H 0.56836 0.86039 0.41802 0.0
H316 H 0.7294 0.95345 0.37806 0.0
H317 H 0.6656 0.9999 0.34037 0.0
C318 C 0.37254 0.38647 0.70597 0.0
C319 C 0.36035 0.37845 0.72945 0.0
C320 C 0.34871 0.35503 0.72478 0.0
C321 C 0.35429 0.35014 0.69878 0.0
N322 N 0.36951 0.36862 0.68671 0.0
Co323 Co 0.37897 0.37138 0.64819 0.0
N324 N 0.3569 0.34027 0.64011 0.0
C325 C 0.34274 0.32541 0.65759 0.0
C326 C 0.33017 0.30494 0.64655 0.0
C327 C 0.33712 0.30644 0.62051 0.0
C328 C 0.35382 0.32771 0.61714 0.0
N329 N 0.38811 0.37462 0.60971 0.0
C330 C 0.38244 0.35871 0.58959 0.0
C331 C 0.39475 0.36718 0.56624 0.0
C332 C 0.40842 0.38914 0.57171 0.0
C333 C 0.40404 0.39279 0.59801 0.0
N334 N 0.40121 0.40226 0.65636 0.0
C335 C 0.41695 0.41609 0.6394 0.0
C336 C 0.42861 0.43713 0.65047 0.0
C337 C 0.4191 0.43723 0.67588 0.0
C338 C 0.40202 0.41625 0.67873 0.0
N339 N 0.41131 0.34617 0.65206 0.0
C340 C 0.45347 0.30572 0.64919 0.0
C341 C 0.45668 0.33071 0.63741 0.0
C342 C 0.4356 0.35046 0.63913 0.0
C343 C 0.42956 0.30219 0.66416 0.0
C344 C 0.40917 0.32259 0.6656 0.0
N345 N 0.34669 0.39635 0.64439 0.0
C346 C 0.3276 0.44068 0.63487 0.0
C347 C 0.30351 0.4352 0.64876 0.0
C348 C 0.30063 0.40938 0.65846 0.0
C349 C 0.32215 0.3904 0.65586 0.0
C350 C 0.34883 0.421 0.63284 0.0
H351 H 0.31877 0.37132 0.66421 0.0
H352 H 0.36713 0.4264 0.62273 0.0
H353 H 0.43922 0.36874 0.62923 0.0
H354 H 0.39149 0.31836 0.6771 0.0
C355 C 0.34231 0.33075 0.6844 0.0
C356 C 0.38489 0.41211 0.70219 0.0
C357 C 0.36686 0.33464 0.59188 0.0
C358 C 0.41703 0.41124 0.61262 0.0
H359 H 0.35895 0.38898 0.74775 0.0
H360 H 0.33615 0.34383 0.73832 0.0
H361 H 0.31781 0.29037 0.65633 0.0
H362 H 0.33093 0.29307 0.60576 0.0
H363 H 0.39482 0.35799 0.54728 0.0
H364 H 0.42112 0.40035 0.55833 0.0
H365 H 0.44111 0.45167 0.64083 0.0
H366 H 0.42306 0.45188 0.69032 0.0
H367 H 0.4752 0.33498 0.62642 0.0
H368 H 0.4259 0.28339 0.67391 0.0
H369 H 0.33056 0.46035 0.62669 0.0
H370 H 0.28199 0.40398 0.66863 0.0
C371 C 0.85466 0.11373 0.92873 0.0
C372 C 0.86164 0.10573 0.95379 0.0
C373 C 0.8883 0.09681 0.95218 0.0
C374 C 0.8961 0.09999 0.92636 0.0
N375 N 0.87616 0.11076 0.91141 0.0
Co376 Co 0.87876 0.11815 0.8727 0.0
N377 N 0.91662 0.10123 0.86952 0.0
C378 C 0.93086 0.0895 0.88909 0.0
C379 C 0.95652 0.08021 0.88144 0.0
C380 C 0.95893 0.0864 0.85543 0.0
C381 C 0.93442 0.09907 0.84856 0.0
N382 N 0.88177 0.12645 0.8341 0.0
C383 C 0.90301 0.12256 0.81652 0.0
C384 C 0.89648 0.13231 0.79186 0.0
C385 C 0.87054 0.14319 0.79399 0.0
C386 C 0.86261 0.13944 0.81968 0.0
N387 N 0.84048 0.13414 0.87574 0.0
C388 C 0.82577 0.14502 0.85609 0.0
C389 C 0.79949 0.15253 0.86352 0.0
C390 C 0.79702 0.14553 0.88936 0.0
C391 C 0.82208 0.13421 0.89627 0.0
N392 N 0.8938 0.15308 0.87929 0.0
C393 C 0.92219 0.19995 0.87831 0.0
C394 C 0.89718 0.19921 0.86653 0.0
C395 C 0.88323 0.17581 0.86755 0.0
C396 C 0.93132 0.17783 0.89296 0.0
C397 C 0.91677 0.15479 0.89334 0.0
N398 N 0.8637 0.08332 0.86599 0.0
C399 C 0.83202 0.05758 0.84359 0.0
C400 C 0.83627 0.03631 0.86102 0.0
C401 C 0.85551 0.0383 0.8801 0.0
C402 C 0.86928 0.0617 0.88194 0.0
C403 C 0.84579 0.08076 0.84644 0.0
H404 H 0.88387 0.06207 0.89678 0.0
H405 H 0.84099 0.09656 0.83306 0.0
H406 H 0.86457 0.17634 0.85772 0.0
H407 H 0.92522 0.1383 0.90411 0.0
C408 C 0.92064 0.08992 0.91494 0.0
C409 C 0.827 0.1226 0.92216 0.0
C410 C 0.92958 0.10964 0.82214 0.0
C411 C 0.83706 0.14718 0.83071 0.0
H412 H 0.84852 0.10558 0.97124 0.0
H413 H 0.90019 0.08792 0.96773 0.0
H414 H 0.97201 0.07092 0.89354 0.0
H415 H 0.97702 0.08262 0.84313 0.0
H416 H 0.90913 0.13166 0.77412 0.0
H417 H 0.85882 0.15268 0.77861 0.0
H418 H 0.78378 0.16141 0.85141 0.0
H419 H 0.77867 0.14793 0.90159 0.0
H420 H 0.88892 0.21626 0.85567 0.0
H421 H 0.95048 0.17764 0.90272 0.0
H422 H 0.81726 0.05679 0.82847 0.0
H423 H 0.85973 0.02197 0.89368 0.0
C424 C 0.30879 0.10704 0.42487 0.0
C425 C 0.2819 0.11517 0.42057 0.0
C426 C 0.28241 0.13466 0.40164 0.0
C427 C 0.30942 0.13717 0.39519 0.0
N428 N 0.32607 0.12007 0.40843 0.0
Co429 Co 0.3666 0.11782 0.40482 0.0
N430 N 0.36664 0.14004 0.37222 0.0
C431 C 0.34553 0.15529 0.36346 0.0
C432 C 0.35122 0.16757 0.33987 0.0
C433 C 0.37759 0.15954 0.33334 0.0
C434 C 0.38659 0.14285 0.35345 0.0
N435 N 0.40705 0.11607 0.40126 0.0
C436 C 0.42365 0.12107 0.38017 0.0
C437 C 0.4508 0.11722 0.38632 0.0
C438 C 0.45113 0.10944 0.41211 0.0
C439 C 0.42428 0.10904 0.42027 0.0
N440 N 0.36684 0.09529 0.43734 0.0
C441 C 0.38874 0.08972 0.4519 0.0
C442 C 0.38303 0.07508 0.47406 0.0
C443 C 0.35569 0.07161 0.47386 0.0
C444 C 0.34613 0.08435 0.45144 0.0
N445 N 0.36572 0.08575 0.38338 0.0
C446 C 0.36829 0.04188 0.34932 0.0
C447 C 0.3864 0.04341 0.36981 0.0
C448 C 0.38451 0.0651 0.38671 0.0
C449 C 0.34843 0.06282 0.34685 0.0
C450 C 0.34765 0.08451 0.36382 0.0
N451 N 0.36762 0.15006 0.42625 0.0
C452 C 0.35321 0.1745 0.46507 0.0
C453 C 0.36875 0.19579 0.45711 0.0
C454 C 0.3838 0.19381 0.43335 0.0
C455 C 0.38328 0.17065 0.41841 0.0
C456 C 0.35262 0.15212 0.4493 0.0
H457 H 0.39548 0.16948 0.40048 0.0
H458 H 0.33977 0.13664 0.4559 0.0
H459 H 0.39881 0.06543 0.4021 0.0
H460 H 0.33262 0.10048 0.36077 0.0
C461 C 0.31966 0.15351 0.37521 0.0
C462 C 0.31693 0.08934 0.44675 0.0
C463 C 0.41448 0.13097 0.35465 0.0
C464 C 0.41454 0.09738 0.44349 0.0
H465 H 0.26381 0.10829 0.4306 0.0
H466 H 0.26511 0.14553 0.39341 0.0
H467 H 0.33744 0.17978 0.32815 0.0
H468 H 0.38876 0.16515 0.31567 0.0
H469 H 0.46849 0.11967 0.37349 0.0
H470 H 0.46881 0.10355 0.42319 0.0
H471 H 0.39701 0.06803 0.48879 0.0
H472 H 0.34401 0.06187 0.48919 0.0
H473 H 0.40253 0.02831 0.37264 0.0
H474 H 0.33344 0.06266 0.33194 0.0
H475 H 0.34098 0.1754 0.48312 0.0
H476 H 0.39605 0.20994 0.42648 0.0
C477 C 0.18003 0.10604 0.61182 0.0
C478 C 0.20534 0.11515 0.6172 0.0
C479 C 0.20111 0.13381 0.63632 0.0
C480 C 0.1736 0.13494 0.64179 0.0
N481 N 0.16026 0.11771 0.62771 0.0
Co482 Co 0.12017 0.11391 0.62949 0.0
N483 N 0.11553 0.1337 0.66286 0.0
C484 C 0.13368 0.14935 0.67289 0.0
C485 C 0.12544 0.15891 0.69708 0.0
C486 C 0.1006 0.14852 0.70261 0.0
C487 C 0.09499 0.13327 0.68133 0.0
N488 N 0.08015 0.11073 0.63119 0.0
C489 C 0.06245 0.1127 0.65206 0.0
C490 C 0.03613 0.10874 0.64484 0.0
C491 C 0.03759 0.10385 0.61848 0.0
C492 C 0.06462 0.1052 0.61114 0.0
N493 N 0.1244 0.09379 0.59625 0.0
C494 C 0.10401 0.08908 0.58035 0.0
C495 C 0.11271 0.07611 0.55798 0.0
C496 C 0.14036 0.07284 0.55956 0.0
C497 C 0.14712 0.08404 0.58296 0.0
N498 N 0.12481 0.08077 0.64977 0.0
C499 C 0.12479 0.03737 0.68509 0.0
C500 C 0.10767 0.0387 0.66367 0.0
C501 C 0.10839 0.06022 0.64603 0.0
C502 C 0.14311 0.0576 0.68724 0.0
C503 C 0.14253 0.07915 0.66972 0.0
N504 N 0.11547 0.14731 0.60941 0.0
C505 C 0.12963 0.17548 0.57348 0.0
C506 C 0.1103 0.19549 0.58113 0.0
C507 C 0.09342 0.19081 0.60326 0.0
C508 C 0.09624 0.16655 0.61703 0.0
C509 C 0.13189 0.15175 0.5878 0.0
H510 H 0.08297 0.16341 0.63394 0.0
H511 H 0.14728 0.13718 0.58136 0.0
H512 H 0.09473 0.0608 0.63003 0.0
H513 H 0.15581 0.09496 0.67299 0.0
C514 C 0.16011 0.14961 0.66189 0.0
C515 C 0.17535 0.08878 0.58957 0.0
C516 C 0.06991 0.11908 0.67862 0.0
C517 C 0.07685 0.09568 0.58779 0.0
H518 H 0.22478 0.10943 0.60782 0.0
H519 H 0.21635 0.14495 0.64537 0.0
H520 H 0.13685 0.17063 0.70993 0.0
H521 H 0.0884 0.1515 0.72042 0.0
H522 H 0.01793 0.10903 0.65738 0.0
H523 H 0.02116 0.0984 0.6065 0.0
H524 H 0.10045 0.06994 0.54227 0.0
H525 H 0.15401 0.06428 0.54454 0.0
H526 H 0.09299 0.02385 0.66089 0.0
H527 H 0.15761 0.05725 0.70264 0.0
H528 H 0.14346 0.17832 0.55683 0.0
H529 H 0.07806 0.20567 0.60979 0.0
C530 C 0.1252 0.92057 0.86293 0.0
C531 C 0.11174 0.94444 0.86997 0.0
C532 C 0.0991 0.94009 0.89375 0.0
C533 C 0.10537 0.91388 0.8998 0.0
N534 N 0.122 0.90144 0.88166 0.0
Co535 Co 0.1332 0.86248 0.88049 0.0
N536 N 0.1094 0.8546 0.91191 0.0
C537 C 0.09279 0.87208 0.92556 0.0
C538 C 0.0779 0.86045 0.94535 0.0
C539 C 0.08627 0.83416 0.9449 0.0
C540 C 0.10634 0.83137 0.92516 0.0
N541 N 0.14437 0.82349 0.87927 0.0
C542 C 0.14116 0.80416 0.8979 0.0
C543 C 0.15662 0.78111 0.89136 0.0
C544 C 0.16927 0.78577 0.86775 0.0
C545 C 0.16166 0.81149 0.86134 0.0
N546 N 0.15696 0.87048 0.84903 0.0
C547 C 0.17382 0.85325 0.83545 0.0
C548 C 0.18627 0.86442 0.81384 0.0
C549 C 0.17597 0.89013 0.81306 0.0
C550 C 0.15769 0.89299 0.83425 0.0
N551 N 0.16366 0.86776 0.90391 0.0
C552 C 0.20315 0.8653 0.94226 0.0
C553 C 0.2085 0.85361 0.91796 0.0
C554 C 0.18875 0.85537 0.89909 0.0
C555 C 0.17872 0.88028 0.94622 0.0
C556 C 0.15944 0.88135 0.92684 0.0
N557 N 0.10271 0.85727 0.85719 0.0
C558 C 0.08685 0.84678 0.81454 0.0
C559 C 0.06236 0.86129 0.81988 0.0
C560 C 0.05738 0.87134 0.84486 0.0
C561 C 0.07753 0.86893 0.8631 0.0
C562 C 0.10669 0.84489 0.83354 0.0
H563 H 0.0726 0.87792 0.88136 0.0
H564 H 0.12548 0.83441 0.82833 0.0
H565 H 0.19391 0.84561 0.88119 0.0
H566 H 0.14087 0.89235 0.93133 0.0
C567 C 0.09212 0.89937 0.91958 0.0
C568 C 0.13871 0.91598 0.83742 0.0
C569 C 0.12471 0.80758 0.92237 0.0
C570 C 0.17471 0.82615 0.84164 0.0
H571 H 0.11 0.96271 0.85861 0.0
H572 H 0.08527 0.95383 0.90437 0.0
H573 H 0.06332 0.87006 0.95896 0.0
H574 H 0.0795 0.81902 0.95856 0.0
H575 H 0.16018 0.76313 0.90271 0.0
H576 H 0.18417 0.7727 0.8576 0.0
H577 H 0.19981 0.8546 0.79944 0.0
H578 H 0.18002 0.90466 0.79776 0.0
H579 H 0.22757 0.84249 0.91376 0.0
H580 H 0.17383 0.88996 0.96469 0.0
H581 H 0.09124 0.83827 0.79543 0.0
H582 H 0.03828 0.88203 0.85 0.0
C583 C 0.38099 0.91806 0.18028 0.0
C584 C 0.39181 0.94244 0.17429 0.0
C585 C 0.40577 0.93963 0.15087 0.0
C586 C 0.40297 0.91376 0.14397 0.0
N587 N 0.38726 0.90004 0.16113 0.0
Co588 Co 0.38231 0.86061 0.16115 0.0
N589 N 0.4064 0.85549 0.12895 0.0
C590 C 0.41932 0.87453 0.11519 0.0
C591 C 0.43206 0.86555 0.09247 0.0
C592 C 0.42601 0.83945 0.09112 0.0
C593 C 0.40984 0.83406 0.11315 0.0
N594 N 0.37829 0.82109 0.1618 0.0
C595 C 0.38477 0.80283 0.14295 0.0
C596 C 0.37635 0.77785 0.15038 0.0
C597 C 0.36358 0.78057 0.17443 0.0
C598 C 0.36478 0.80696 0.18033 0.0
N599 N 0.3573 0.8658 0.19261 0.0
C600 C 0.34321 0.84692 0.20537 0.0
C601 C 0.32853 0.85625 0.22693 0.0
C602 C 0.33426 0.88244 0.22845 0.0
C603 C 0.35237 0.88752 0.20778 0.0
N604 N 0.35099 0.86525 0.13802 0.0
C605 C 0.31406 0.86253 0.09788 0.0
C606 C 0.31174 0.84642 0.12022 0.0
C607 C 0.33 0.84846 0.14019 0.0
C608 C 0.3334 0.88183 0.0971 0.0
C609 C 0.35151 0.88291 0.11734 0.0
N610 N 0.41368 0.85628 0.18432 0.0
C611 C 0.42738 0.85348 0.22917 0.0
C612 C 0.4483 0.87045 0.22319 0.0
C613 C 0.45431 0.87644 0.19698 0.0
C614 C 0.4372 0.86854 0.17784 0.0
C615 C 0.4105 0.84634 0.20932 0.0
H616 H 0.44233 0.87434 0.15826 0.0
H617 H 0.39387 0.83447 0.21497 0.0
H618 H 0.32752 0.83538 0.1566 0.0
H619 H 0.36655 0.89731 0.1152 0.0
C620 C 0.41713 0.90105 0.12308 0.0
C621 C 0.36692 0.91209 0.20527 0.0
C622 C 0.39602 0.8092 0.11685 0.0
C623 C 0.34825 0.82 0.1995 0.0
H624 H 0.39093 0.96013 0.18603 0.0
H625 H 0.41789 0.95426 0.14086 0.0
H626 H 0.44318 0.87698 0.07795 0.0
H627 H 0.43164 0.82618 0.07514 0.0
H628 H 0.37774 0.75985 0.13909 0.0
H629 H 0.35259 0.7656 0.18521 0.0
H630 H 0.31671 0.84491 0.24099 0.0
H631 H 0.32732 0.89586 0.24392 0.0
H632 H 0.29642 0.83176 0.12193 0.0
H633 H 0.3356 0.89499 0.08027 0.0
H634 H 0.42276 0.84752 0.24922 0.0
H635 H 0.47131 0.88841 0.19143 0.0
C636 C 0.34616 0.39807 0.14355 0.0
C637 C 0.32574 0.39029 0.16107 0.0
C638 C 0.32973 0.36351 0.16479 0.0
C639 C 0.35213 0.35642 0.14931 0.0
N640 N 0.36306 0.37714 0.13629 0.0
Co641 Co 0.39449 0.37547 0.11013 0.0
N642 N 0.39733 0.33568 0.11224 0.0
C643 C 0.38094 0.31968 0.12634 0.0
C644 C 0.38779 0.29309 0.12365 0.0
C645 C 0.41021 0.29204 0.10716 0.0
C646 C 0.41587 0.31819 0.10096 0.0
N647 N 0.42628 0.37382 0.08427 0.0
C648 C 0.44285 0.35274 0.07665 0.0
C649 C 0.46399 0.36058 0.06002 0.0
C650 C 0.46075 0.38753 0.05712 0.0
C651 C 0.43807 0.39466 0.07221 0.0
N652 N 0.39121 0.41531 0.10758 0.0
C653 C 0.40712 0.43136 0.09295 0.0
C654 C 0.39883 0.45777 0.09405 0.0
C655 C 0.37584 0.4586 0.10981 0.0
C656 C 0.37141 0.43252 0.11733 0.0
N657 N 0.42047 0.37715 0.13915 0.0
C658 C 0.45863 0.37929 0.17936 0.0
C659 C 0.46058 0.39511 0.15667 0.0
C660 C 0.44144 0.39398 0.13732 0.0
C661 C 0.43718 0.36203 0.1813 0.0
C662 C 0.4186 0.36119 0.16111 0.0
N663 N 0.36854 0.37398 0.08118 0.0
C664 C 0.35344 0.39008 0.03898 0.0
C665 C 0.32895 0.37735 0.04222 0.0
C666 C 0.32529 0.36177 0.0649 0.0
C667 C 0.34524 0.36023 0.08387 0.0
C668 C 0.37263 0.38824 0.05845 0.0
H669 H 0.34109 0.34827 0.10081 0.0
H670 H 0.39041 0.399 0.05481 0.0
H671 H 0.44424 0.40688 0.12093 0.0
H672 H 0.4029 0.34747 0.16369 0.0
C673 C 0.36077 0.33025 0.14358 0.0
C674 C 0.34736 0.42495 0.13256 0.0
C675 C 0.44021 0.3254 0.08597 0.0
C676 C 0.42841 0.42085 0.07683 0.0
H677 H 0.30888 0.40233 0.16943 0.0
H678 H 0.31683 0.35052 0.17613 0.0
H679 H 0.37821 0.2765 0.13324 0.0
H680 H 0.42167 0.2741 0.10109 0.0
H681 H 0.48057 0.34833 0.05145 0.0
H682 H 0.47394 0.4005 0.04609 0.0
H683 H 0.40782 0.47432 0.08381 0.0
H684 H 0.36327 0.47628 0.11458 0.0
H685 H 0.47705 0.40834 0.15349 0.0
H686 H 0.43439 0.34941 0.19843 0.0
H687 H 0.35788 0.4017 0.02149 0.0
H688 H 0.30678 0.3514 0.06849 0.0
C689 C 0.92235 0.86809 0.09845 0.0
C690 C 0.94471 0.87066 0.08144 0.0
C691 C 0.94191 0.89539 0.0702 0.0
C692 C 0.9181 0.90641 0.08095 0.0
N693 N 0.90583 0.8905 0.09884 0.0
Co694 Co 0.86971 0.89772 0.11755 0.0
N695 N 0.86394 0.93272 0.09876 0.0
C696 C 0.88226 0.94482 0.08291 0.0
C697 C 0.87357 0.96973 0.07457 0.0
C698 C 0.84821 0.97389 0.08584 0.0
C699 C 0.8427 0.95101 0.10024 0.0
N700 N 0.83283 0.90405 0.13501 0.0
C701 C 0.81352 0.92382 0.13129 0.0
C702 C 0.78967 0.91912 0.14565 0.0
C703 C 0.79439 0.89606 0.15948 0.0
C704 C 0.82052 0.88772 0.15249 0.0
N705 N 0.87612 0.86333 0.13724 0.0
C706 C 0.86026 0.85359 0.15689 0.0
C707 C 0.86965 0.82932 0.16637 0.0
C708 C 0.89275 0.82304 0.15173 0.0
C709 C 0.89616 0.84399 0.13411 0.0
N710 N 0.88695 0.91672 0.14591 0.0
C711 C 0.90664 0.94998 0.18382 0.0
C712 C 0.8845 0.93448 0.18964 0.0
C713 C 0.87528 0.91786 0.17067 0.0
C714 C 0.91991 0.94723 0.15941 0.0
C715 C 0.90986 0.9306 0.14094 0.0
N716 N 0.8526 0.87905 0.08937 0.0
C717 C 0.82629 0.84323 0.07514 0.0
C718 C 0.83248 0.84952 0.04899 0.0
C719 C 0.84784 0.87158 0.04337 0.0
C720 C 0.8575 0.88608 0.06372 0.0
C721 C 0.83652 0.85816 0.09492 0.0
H722 H 0.86944 0.90253 0.05831 0.0
H723 H 0.83179 0.85204 0.11456 0.0
H724 H 0.85831 0.90663 0.17645 0.0
H725 H 0.92072 0.93001 0.12264 0.0
C726 C 0.90672 0.93164 0.07488 0.0
C727 C 0.91751 0.84387 0.11355 0.0
C728 C 0.81712 0.94768 0.11507 0.0
C729 C 0.83447 0.86525 0.1627 0.0
H730 H 0.96121 0.85606 0.0774 0.0
H731 H 0.95542 0.90415 0.0557 0.0
H732 H 0.88431 0.98319 0.06167 0.0
H733 H 0.83532 0.99181 0.08369 0.0
H734 H 0.7708 0.93115 0.1463 0.0
H735 H 0.78047 0.88656 0.17309 0.0
H736 H 0.85997 0.81692 0.18107 0.0
H737 H 0.90497 0.80462 0.15322 0.0
H738 H 0.87402 0.93549 0.20863 0.0
H739 H 0.93727 0.95878 0.15408 0.0
H740 H 0.8146 0.82617 0.08038 0.0
H741 H 0.85279 0.87735 0.02333 0.0
C742 C 0.15569 0.60003 0.66233 0.0
C743 C 0.17462 0.60764 0.67981 0.0
C744 C 0.17237 0.63476 0.68066 0.0
C745 C 0.15235 0.64215 0.66369 0.0
N746 N 0.14115 0.62132 0.65254 0.0
Co747 Co 0.11321 0.62282 0.62485 0.0
N748 N 0.1135 0.66262 0.62244 0.0
C749 C 0.12924 0.67861 0.63571 0.0
C750 C 0.12406 0.7052 0.63062 0.0
C751 C 0.10337 0.7063 0.61356 0.0
C752 C 0.09702 0.68021 0.60934 0.0
N753 N 0.08512 0.62434 0.59732 0.0
C754 C 0.07106 0.64565 0.58694 0.0
C755 C 0.05159 0.63787 0.57008 0.0
C756 C 0.05318 0.61073 0.57005 0.0
C757 C 0.07329 0.60347 0.58692 0.0
N758 N 0.1132 0.58302 0.62709 0.0
C759 C 0.09752 0.56696 0.6139 0.0
C760 C 0.1036 0.54036 0.61812 0.0
C761 C 0.12495 0.53935 0.63443 0.0
C762 C 0.13066 0.56551 0.63914 0.0
N763 N 0.08345 0.62626 0.65202 0.0
C764 C 0.0366 0.64082 0.68253 0.0
C765 C 0.03662 0.61964 0.66525 0.0
C766 C 0.06024 0.61259 0.6504 0.0
C767 C 0.06105 0.65277 0.68614 0.0
C768 C 0.08411 0.64504 0.67103 0.0
N769 N 0.14278 0.61964 0.59759 0.0
C770 C 0.16257 0.59969 0.55814 0.0
C771 C 0.18629 0.61337 0.56055 0.0
C772 C 0.18774 0.63025 0.58179 0.0
C773 C 0.16589 0.63327 0.59969 0.0
C774 C 0.14125 0.60304 0.57679 0.0
H775 H 0.16838 0.64655 0.61523 0.0
H776 H 0.12381 0.59191 0.57405 0.0
H777 H 0.05889 0.59678 0.63701 0.0
H778 H 0.10188 0.65534 0.67437 0.0
C779 C 0.14652 0.66825 0.65489 0.0
C780 C 0.15398 0.57275 0.65365 0.0
C781 C 0.07392 0.67327 0.59428 0.0
C782 C 0.07958 0.57739 0.59539 0.0
H783 H 0.18944 0.59504 0.68991 0.0
H784 H 0.18504 0.64761 0.6911 0.0
H785 H 0.13334 0.72183 0.63924 0.0
H786 H 0.09335 0.72428 0.60587 0.0
H787 H 0.03692 0.65034 0.55968 0.0
H788 H 0.04026 0.59784 0.55996 0.0
H789 H 0.09456 0.52371 0.60929 0.0
H790 H 0.13583 0.52145 0.64124 0.0
H791 H 0.01821 0.60939 0.66226 0.0
H792 H 0.06226 0.66855 0.70015 0.0
H793 H 0.16025 0.58665 0.54183 0.0
H794 H 0.20582 0.64095 0.58491 0.0
C795 C 0.64055 0.80921 0.928 0.0
C796 C 0.65852 0.78705 0.92979 0.0
C797 C 0.66773 0.78132 0.90491 0.0
C798 C 0.65553 0.80062 0.88947 0.0
N799 N 0.63964 0.8187 0.90308 0.0
Co800 Co 0.62066 0.8517 0.8888 0.0
N801 N 0.63113 0.84156 0.85182 0.0
C802 C 0.6452 0.81909 0.84393 0.0
C803 C 0.64883 0.81744 0.81729 0.0
C804 C 0.63632 0.84017 0.80756 0.0
C805 C 0.62584 0.85447 0.82893 0.0
N806 N 0.60253 0.88527 0.87462 0.0
C807 C 0.6009 0.89451 0.84969 0.0
C808 C 0.58784 0.91967 0.84859 0.0
C809 C 0.581 0.92656 0.8737 0.0
C810 C 0.59033 0.90541 0.88861 0.0
N811 N 0.60914 0.8611 0.92573 0.0
C812 C 0.59424 0.88319 0.93341 0.0
C813 C 0.58429 0.88193 0.95864 0.0
C814 C 0.59295 0.85748 0.96765 0.0
C815 C 0.6087 0.84532 0.94759 0.0
N816 N 0.65476 0.87083 0.89113 0.0
C817 C 0.7001 0.90221 0.88427 0.0
C818 C 0.67726 0.91136 0.89918 0.0
C819 C 0.655 0.89529 0.90256 0.0
C820 C 0.7009 0.87626 0.87514 0.0
C821 C 0.67831 0.86104 0.87888 0.0
N822 N 0.58674 0.83279 0.88616 0.0
C823 C 0.53782 0.83196 0.89094 0.0
C824 C 0.53874 0.80517 0.88403 0.0
C825 C 0.5641 0.79258 0.87789 0.0
C826 C 0.58762 0.80666 0.87897 0.0
C827 C 0.56189 0.84529 0.89187 0.0
H828 H 0.60633 0.79592 0.8742 0.0
H829 H 0.55994 0.86566 0.89743 0.0
H830 H 0.63792 0.90344 0.91367 0.0
H831 H 0.68022 0.8418 0.87073 0.0
C832 C 0.65657 0.80103 0.86209 0.0
C833 C 0.62259 0.81874 0.94979 0.0
C834 C 0.61153 0.88044 0.82653 0.0
C835 C 0.58667 0.90322 0.91562 0.0
H836 H 0.66353 0.77545 0.94711 0.0
H837 H 0.68096 0.76455 0.89874 0.0
H838 H 0.65979 0.80183 0.80628 0.0
H839 H 0.63533 0.84581 0.78709 0.0
H840 H 0.58371 0.93185 0.83141 0.0
H841 H 0.57034 0.94474 0.88029 0.0
H842 H 0.57073 0.89633 0.96872 0.0
H843 H 0.5869 0.84952 0.98655 0.0
H844 H 0.676 0.93123 0.90711 0.0
H845 H 0.71862 0.86795 0.86434 0.0
H846 H 0.51863 0.84266 0.89555 0.0
H847 H 0.56595 0.77173 0.87283 0.0
C848 C 0.94428 0.17988 0.38359 0.0
C849 C 0.96634 0.17262 0.39878 0.0
C850 C 0.961 0.14876 0.41038 0.0
C851 C 0.93619 0.14271 0.40154 0.0
N852 N 0.92563 0.16089 0.38441 0.0
Co853 Co 0.88922 0.16044 0.36801 0.0
N854 N 0.88014 0.12656 0.387 0.0
C855 C 0.89658 0.11184 0.40289 0.0
C856 C 0.88534 0.08922 0.4126 0.0
C857 C 0.86033 0.08922 0.40201 0.0
C858 C 0.85777 0.11189 0.38625 0.0
N859 N 0.85231 0.16069 0.35248 0.0
C860 C 0.83234 0.14311 0.35523 0.0
C861 C 0.81033 0.15063 0.34002 0.0
C862 C 0.81645 0.17378 0.32751 0.0
C863 C 0.84178 0.17906 0.33555 0.0
N864 N 0.89875 0.1938 0.34832 0.0
C865 C 0.8835 0.20696 0.33032 0.0
C866 C 0.89414 0.23012 0.32133 0.0
C867 C 0.91741 0.23214 0.33459 0.0
C868 C 0.91989 0.2098 0.35086 0.0
N869 N 0.90498 0.13859 0.33862 0.0
C870 C 0.91992 0.10117 0.29983 0.0
C871 C 0.90171 0.12262 0.29462 0.0
C872 C 0.89491 0.14123 0.31403 0.0
C873 C 0.93226 0.09996 0.3239 0.0
C874 C 0.9246 0.11877 0.34285 0.0
N875 N 0.87367 0.18206 0.39735 0.0
C876 C 0.855 0.22441 0.41304 0.0
C877 C 0.86273 0.2177 0.4384 0.0
C878 C 0.8734 0.19192 0.44329 0.0
C879 C 0.87852 0.17447 0.42264 0.0
C880 C 0.86039 0.20624 0.39293 0.0
H881 H 0.88753 0.1554 0.42746 0.0
H882 H 0.85481 0.21262 0.37378 0.0
H883 H 0.88085 0.15705 0.30888 0.0
H884 H 0.93419 0.11615 0.361 0.0
C885 C 0.92206 0.12034 0.40915 0.0
C886 C 0.9416 0.20546 0.36957 0.0
C887 C 0.83367 0.11857 0.37104 0.0
C888 C 0.85727 0.19958 0.32561 0.0
H889 H 0.98423 0.18368 0.40158 0.0
H890 H 0.97349 0.13742 0.42401 0.0
H891 H 0.89422 0.07455 0.42591 0.0
H892 H 0.84567 0.07419 0.40555 0.0
H893 H 0.792 0.14015 0.3376 0.0
H894 H 0.80428 0.18495 0.31349 0.0
H895 H 0.88513 0.24471 0.308 0.0
H896 H 0.93023 0.24889 0.33313 0.0
H897 H 0.89224 0.12467 0.27586 0.0
H898 H 0.94669 0.08377 0.32869 0.0
H899 H 0.84628 0.24407 0.40839 0.0
H900 H 0.87876 0.18552 0.46284 0.0
C901 C 0.56016 0.11622 0.63136 0.0
C902 C 0.53486 0.1146 0.6207 0.0
C903 C 0.53688 0.09328 0.60442 0.0
C904 C 0.5632 0.0832 0.60614 0.0
N905 N 0.57784 0.09626 0.62318 0.0
Co906 Co 0.61763 0.09058 0.62971 0.0
N907 N 0.62251 0.06313 0.60161 0.0
C908 C 0.60292 0.05457 0.58636 0.0
C909 C 0.61159 0.03383 0.57063 0.0
C910 C 0.63813 0.02848 0.57642 0.0
C911 C 0.64438 0.04658 0.59525 0.0
N912 N 0.65742 0.08518 0.6362 0.0
C913 C 0.67632 0.06752 0.62564 0.0
C914 C 0.70186 0.0707 0.63547 0.0
C915 C 0.69871 0.0902 0.65369 0.0
C916 C 0.67166 0.09806 0.65374 0.0
N917 N 0.61266 0.11802 0.65778 0.0
C918 C 0.63163 0.12576 0.67409 0.0
C919 C 0.62273 0.14659 0.6897 0.0
C920 C 0.59683 0.15311 0.68234 0.0
C921 C 0.59142 0.13573 0.66266 0.0
N922 N 0.61004 0.06173 0.65567 0.0
C923 C 0.60352 0.01758 0.68983 0.0
C924 C 0.6196 0.03841 0.69638 0.0
C925 C 0.62259 0.06005 0.67917 0.0
C926 C 0.59015 0.01976 0.66622 0.0
C927 C 0.59339 0.04187 0.64983 0.0
N928 N 0.62504 0.11933 0.60383 0.0
C929 C 0.64238 0.16255 0.59402 0.0
C930 C 0.6274 0.165 0.57134 0.0
C931 C 0.61272 0.14335 0.56434 0.0
C932 C 0.61204 0.12082 0.5806 0.0
C933 C 0.64102 0.1397 0.60979 0.0
H934 H 0.60002 0.10527 0.57445 0.0
H935 H 0.65238 0.1393 0.62713 0.0
H936 H 0.63543 0.07497 0.68518 0.0
H937 H 0.58256 0.04206 0.6323 0.0
C938 C 0.57586 0.06435 0.58931 0.0
C939 C 0.56731 0.13854 0.64701 0.0
C940 C 0.67074 0.0463 0.6077 0.0
C941 C 0.65872 0.11625 0.6711 0.0
H942 H 0.51731 0.12828 0.6234 0.0
H943 H 0.52157 0.08703 0.59154 0.0
H944 H 0.59963 0.02298 0.55751 0.0
H945 H 0.6509 0.01231 0.56832 0.0
H946 H 0.72068 0.05952 0.63057 0.0
H947 H 0.71415 0.09725 0.66599 0.0
H948 H 0.63437 0.15708 0.70339 0.0
H949 H 0.58403 0.16968 0.68965 0.0
H950 H 0.6299 0.03814 0.71473 0.0
H951 H 0.57762 0.0042 0.65994 0.0
H952 H 0.65483 0.17837 0.59988 0.0
H953 H 0.6008 0.14411 0.54695 0.0
C954 C 0.15645 0.38577 0.91939 0.0
C955 C 0.14867 0.39897 0.94227 0.0
C956 C 0.12606 0.41469 0.93685 0.0
C957 C 0.12136 0.41016 0.91109 0.0
N958 N 0.13904 0.39179 0.89998 0.0
Co959 Co 0.14174 0.38142 0.86226 0.0
N960 N 0.11101 0.40735 0.85309 0.0
C961 C 0.09651 0.42389 0.8696 0.0
C962 C 0.0749 0.43731 0.85828 0.0
C963 C 0.07505 0.42818 0.83329 0.0
C964 C 0.09689 0.40972 0.83079 0.0
N965 N 0.14498 0.37165 0.82439 0.0
C966 C 0.12788 0.3779 0.80477 0.0
C967 C 0.13656 0.36573 0.78161 0.0
C968 C 0.15956 0.35053 0.787 0.0
C969 C 0.16362 0.35436 0.81303 0.0
N970 N 0.17191 0.35493 0.87154 0.0
C971 C 0.18541 0.33744 0.85527 0.0
C972 C 0.20643 0.32325 0.86678 0.0
C973 C 0.20684 0.33274 0.89162 0.0
C974 C 0.18592 0.35222 0.89388 0.0
N975 N 0.11477 0.35397 0.86848 0.0
C976 C 0.07152 0.31999 0.86869 0.0
C977 C 0.09559 0.31367 0.85447 0.0
C978 C 0.11704 0.33058 0.85504 0.0
C979 C 0.07015 0.3423 0.88453 0.0
C980 C 0.09192 0.35896 0.88413 0.0
N981 N 0.16877 0.40885 0.85621 0.0
C982 C 0.21605 0.41824 0.84919 0.0
C983 C 0.21173 0.44254 0.86187 0.0
C984 C 0.18498 0.45099 0.86885 0.0
C985 C 0.16391 0.43401 0.86569 0.0
C986 C 0.19431 0.40204 0.84616 0.0
H987 H 0.14412 0.44117 0.87221 0.0
H988 H 0.19899 0.38347 0.83693 0.0
H989 H 0.13482 0.32483 0.84363 0.0
H990 H 0.08931 0.37626 0.89582 0.0
C991 C 0.10214 0.42441 0.89618 0.0
C992 C 0.18192 0.36977 0.91632 0.0
C993 C 0.1019 0.39303 0.80788 0.0
C994 C 0.18131 0.33853 0.82831 0.0
H995 H 0.15907 0.39819 0.96056 0.0
H996 H 0.11521 0.42876 0.94976 0.0
H997 H 0.05996 0.45102 0.86752 0.0
H998 H 0.06007 0.4336 0.81894 0.0
H999 H 0.12645 0.36667 0.76317 0.0
H1000 H 0.17081 0.33685 0.77397 0.0
H1001 H 0.22104 0.30916 0.85761 0.0
H1002 H 0.22181 0.32697 0.90586 0.0
H1003 H 0.09761 0.29609 0.84245 0.0
H1004 H 0.05186 0.34762 0.89611 0.0
H1005 H 0.23628 0.41094 0.8429 0.0
H1006 H 0.18037 0.47026 0.87756 0.0
C1007 C 0.36904 0.62303 0.43953 0.0
C1008 C 0.38044 0.61353 0.46242 0.0
C1009 C 0.40693 0.60553 0.4559 0.0
C1010 C 0.41008 0.61066 0.42948 0.0
N1011 N 0.38728 0.62152 0.41923 0.0
Co1012 Co 0.38142 0.63071 0.38208 0.0
N1013 N 0.41252 0.60665 0.37045 0.0
C1014 C 0.43232 0.5963 0.38571 0.0
C1015 C 0.45101 0.57998 0.37234 0.0
C1016 C 0.4428 0.58053 0.34704 0.0
C1017 C 0.41962 0.59752 0.34628 0.0
N1018 N 0.37536 0.6403 0.34496 0.0
C1019 C 0.38612 0.62902 0.32279 0.0
C1020 C 0.37747 0.64341 0.30086 0.0
C1021 C 0.36119 0.66447 0.30972 0.0
C1022 C 0.36075 0.66195 0.33642 0.0
N1023 N 0.35049 0.65474 0.39407 0.0
C1024 C 0.33879 0.67511 0.38055 0.0
C1025 C 0.3166 0.68682 0.39374 0.0
C1026 C 0.31423 0.6728 0.41689 0.0
C1027 C 0.33536 0.65339 0.41655 0.0
N1028 N 0.40616 0.65999 0.38426 0.0
C1029 C 0.44372 0.69975 0.3895 0.0
C1030 C 0.42261 0.69628 0.40831 0.0
C1031 C 0.40425 0.67634 0.4054 0.0
C1032 C 0.44493 0.68329 0.36757 0.0
C1033 C 0.42599 0.66372 0.36528 0.0
N1034 N 0.35672 0.60137 0.38034 0.0
C1035 C 0.31188 0.58604 0.37358 0.0
C1036 C 0.31848 0.56191 0.38661 0.0
C1037 C 0.34519 0.55741 0.39481 0.0
C1038 C 0.3639 0.57723 0.39146 0.0
C1039 C 0.33129 0.60546 0.3706 0.0
H1040 H 0.38386 0.57338 0.399 0.0
H1041 H 0.32534 0.62423 0.36145 0.0
H1042 H 0.3887 0.6739 0.42054 0.0
H1043 H 0.42784 0.65128 0.34834 0.0
C1044 C 0.43083 0.59968 0.41292 0.0
C1045 C 0.34112 0.63383 0.43739 0.0
C1046 C 0.40764 0.60757 0.32186 0.0
C1047 C 0.34488 0.678 0.35381 0.0
H1048 H 0.37048 0.61209 0.48157 0.0
H1049 H 0.42146 0.59546 0.46853 0.0
H1050 H 0.4683 0.5687 0.3801 0.0
H1051 H 0.45326 0.57037 0.3308 0.0
H1052 H 0.38307 0.63984 0.28055 0.0
H1053 H 0.35087 0.67975 0.29805 0.0
H1054 H 0.30261 0.70237 0.38661 0.0
H1055 H 0.29835 0.67623 0.43176 0.0
H1056 H 0.42026 0.7088 0.42533 0.0
H1057 H 0.46086 0.6849 0.35255 0.0
H1058 H 0.29154 0.59042 0.3668 0.0
H1059 H 0.35149 0.53888 0.40444 0.0
C1060 C 0.80747 0.61689 0.88391 0.0
C1061 C 0.77974 0.61393 0.88231 0.0
C1062 C 0.7721 0.62609 0.85947 0.0
C1063 C 0.79547 0.63583 0.84857 0.0
N1064 N 0.81776 0.62981 0.86265 0.0
Co1065 Co 0.85531 0.64262 0.8562 0.0
N1066 N 0.84331 0.66469 0.82535 0.0
C1067 C 0.81808 0.66721 0.8157 0.0
C1068 C 0.81686 0.68196 0.79293 0.0
C1069 C 0.84299 0.68865 0.78735 0.0
C1070 C 0.85857 0.67762 0.80718 0.0
N1071 N 0.89268 0.65583 0.85031 0.0
C1072 C 0.90262 0.67074 0.83034 0.0
C1073 C 0.92998 0.67501 0.8329 0.0
C1074 C 0.9378 0.66163 0.85505 0.0
C1075 C 0.91482 0.65006 0.86468 0.0
N1076 N 0.86741 0.62019 0.8867 0.0
C1077 C 0.89293 0.61628 0.89542 0.0
C1078 C 0.89422 0.60097 0.91784 0.0
C1079 C 0.86789 0.59544 0.92415 0.0
C1080 C 0.85213 0.60776 0.90513 0.0
N1081 N 0.86492 0.61264 0.83223 0.0
C1082 C 0.88065 0.575 0.79364 0.0
C1083 C 0.89866 0.58158 0.81264 0.0
C1084 C 0.89038 0.60016 0.8317 0.0
C1085 C 0.8543 0.58671 0.79499 0.0
C1086 C 0.84694 0.60525 0.81426 0.0
N1087 N 0.84585 0.67269 0.87992 0.0
C1088 C 0.85643 0.69925 0.91668 0.0
C1089 C 0.83198 0.71435 0.91467 0.0
C1090 C 0.81454 0.70829 0.895 0.0
C1091 C 0.8219 0.68762 0.87785 0.0
C1092 C 0.86286 0.67864 0.89931 0.0
H1093 H 0.80785 0.68403 0.86318 0.0
H1094 H 0.88154 0.66758 0.9022 0.0
H1095 H 0.90517 0.6045 0.84541 0.0
H1096 H 0.82672 0.61364 0.81385 0.0
C1097 C 0.79663 0.65335 0.82705 0.0
C1098 C 0.82265 0.61026 0.9072 0.0
C1099 C 0.88803 0.6778 0.80684 0.0
C1100 C 0.91415 0.63107 0.88499 0.0
H1101 H 0.7662 0.60512 0.89672 0.0
H1102 H 0.75165 0.62896 0.85251 0.0
H1103 H 0.79933 0.6862 0.78111 0.0
H1104 H 0.85005 0.6995 0.77019 0.0
H1105 H 0.9432 0.68543 0.81933 0.0
H1106 H 0.95814 0.65929 0.86237 0.0
H1107 H 0.91189 0.59611 0.92931 0.0
H1108 H 0.86081 0.58499 0.94156 0.0
H1109 H 0.9193 0.57298 0.81247 0.0
H1110 H 0.83929 0.58165 0.7812 0.0
H1111 H 0.87038 0.70297 0.93192 0.0
H1112 H 0.79545 0.71964 0.89264 0.0
C1113 C 0.62472 0.55641 0.12524 0.0
C1114 C 0.61802 0.53292 0.11385 0.0
C1115 C 0.60393 0.54 0.09208 0.0
C1116 C 0.603 0.5673 0.09133 0.0
N1117 N 0.61567 0.57806 0.11131 0.0
Co1118 Co 0.61962 0.61699 0.11736 0.0
N1119 N 0.59728 0.62747 0.08657 0.0
C1120 C 0.58296 0.61106 0.07238 0.0
C1121 C 0.5674 0.62411 0.05406 0.0
C1122 C 0.57232 0.65039 0.05651 0.0
C1123 C 0.5912 0.65184 0.07589 0.0
N1124 N 0.62539 0.65575 0.1222 0.0
C1125 C 0.62104 0.67663 0.10544 0.0
C1126 C 0.63435 0.69875 0.11328 0.0
C1127 C 0.64604 0.69213 0.13631 0.0
C1128 C 0.64025 0.66618 0.14085 0.0
N1129 N 0.64049 0.60671 0.14919 0.0
C1130 C 0.65038 0.62341 0.16647 0.0
C1131 C 0.66197 0.61086 0.18756 0.0
C1132 C 0.65898 0.58447 0.18377 0.0
C1133 C 0.64579 0.5825 0.16038 0.0
N1134 N 0.65316 0.61492 0.09488 0.0
C1135 C 0.6997 0.61502 0.06133 0.0
C1136 C 0.7008 0.62283 0.08735 0.0
C1137 C 0.67746 0.62252 0.10374 0.0
C1138 C 0.67508 0.60658 0.05264 0.0
C1139 C 0.65232 0.6066 0.06959 0.0
N1140 N 0.58581 0.61894 0.13986 0.0
C1141 C 0.55868 0.6374 0.17632 0.0
C1142 C 0.53895 0.61869 0.17343 0.0
C1143 C 0.54298 0.60062 0.15308 0.0
C1144 C 0.56594 0.60138 0.13653 0.0
C1145 C 0.58186 0.63707 0.15956 0.0
H1146 H 0.56712 0.5871 0.12146 0.0
H1147 H 0.59636 0.65152 0.16308 0.0
H1148 H 0.6794 0.6288 0.12339 0.0
H1149 H 0.6341 0.60022 0.06165 0.0
C1150 C 0.58716 0.58341 0.07461 0.0
C1151 C 0.63841 0.55722 0.14994 0.0
C1152 C 0.60409 0.67642 0.08235 0.0
C1153 C 0.65025 0.6506 0.16138 0.0
H1154 H 0.6222 0.51281 0.12101 0.0
H1155 H 0.5945 0.52685 0.079 0.0
H1156 H 0.55468 0.61548 0.03999 0.0
H1157 H 0.56353 0.66651 0.04481 0.0
H1158 H 0.63631 0.71768 0.10335 0.0
H1159 H 0.65838 0.70439 0.14776 0.0
H1160 H 0.67163 0.61981 0.20366 0.0
H1161 H 0.66568 0.56849 0.19683 0.0
H1162 H 0.71955 0.6292 0.09505 0.0
H1163 H 0.67306 0.60068 0.03257 0.0
H1164 H 0.55642 0.65223 0.19144 0.0
H1165 H 0.52886 0.58529 0.15009 0.0
C1166 C 0.69607 0.36656 0.38747 0.0
C1167 C 0.72044 0.3518 0.38345 0.0
C1168 C 0.71629 0.33398 0.36435 0.0
C1169 C 0.68976 0.33885 0.35773 0.0
N1170 N 0.67676 0.35897 0.37122 0.0
Co1171 Co 0.63752 0.37158 0.36859 0.0
N1172 N 0.63128 0.34513 0.34066 0.0
C1173 C 0.64955 0.32655 0.33082 0.0
C1174 C 0.64044 0.31336 0.30989 0.0
C1175 C 0.61513 0.32467 0.3056 0.0
C1176 C 0.61017 0.3441 0.32434 0.0
N1177 N 0.5983 0.38393 0.36621 0.0
C1178 C 0.58 0.37823 0.34825 0.0
C1179 C 0.55507 0.39173 0.35303 0.0
C1180 C 0.55804 0.40733 0.37422 0.0
C1181 C 0.58446 0.40233 0.38119 0.0
N1182 N 0.64371 0.39847 0.39603 0.0
C1183 C 0.62502 0.41645 0.4063 0.0
C1184 C 0.63481 0.43175 0.42536 0.0
C1185 C 0.66129 0.42294 0.4276 0.0
C1186 C 0.66623 0.40271 0.40962 0.0
N1187 N 0.6472 0.39755 0.34067 0.0
C1188 C 0.65446 0.43092 0.29644 0.0
C1189 C 0.63796 0.43938 0.31791 0.0
C1190 C 0.63475 0.42254 0.33974 0.0
C1191 C 0.66832 0.40603 0.29821 0.0
C1192 C 0.66466 0.38998 0.32038 0.0
N1193 N 0.62781 0.34534 0.39656 0.0
C1194 C 0.60831 0.33563 0.43961 0.0
C1195 C 0.62082 0.31002 0.43956 0.0
C1196 C 0.63554 0.30196 0.41693 0.0
C1197 C 0.63843 0.31961 0.39581 0.0
C1198 C 0.61203 0.35277 0.41812 0.0
H1199 H 0.65 0.31208 0.37941 0.0
H1200 H 0.60236 0.37208 0.41973 0.0
H1201 H 0.6216 0.42983 0.35539 0.0
H1202 H 0.6755 0.37112 0.32027 0.0
C1203 C 0.6763 0.32457 0.33933 0.0
C1204 C 0.69228 0.38738 0.4071 0.0
C1205 C 0.58617 0.36253 0.32484 0.0
C1206 C 0.59791 0.41719 0.39902 0.0
H1207 H 0.73921 0.35355 0.39349 0.0
H1208 H 0.7308 0.31901 0.35647 0.0
H1209 H 0.65153 0.29843 0.29812 0.0
H1210 H 0.60237 0.31989 0.28978 0.0
H1211 H 0.5371 0.39136 0.34151 0.0
H1212 H 0.54323 0.42179 0.3825 0.0
H1213 H 0.62377 0.44695 0.43683 0.0
H1214 H 0.67517 0.43017 0.44142 0.0
H1215 H 0.62736 0.45879 0.31785 0.0
H1216 H 0.68129 0.3984 0.28219 0.0
H1217 H 0.59592 0.34266 0.45627 0.0
H1218 H 0.64572 0.28239 0.41569 0.0
C1219 C 0.89998 0.4571 0.62031 0.0
C1220 C 0.91502 0.4781 0.61131 0.0
C1221 C 0.9308 0.46875 0.59056 0.0
C1222 C 0.9245 0.44267 0.5882 0.0
N1223 N 0.90502 0.4351 0.60569 0.0
Co1224 Co 0.8918 0.39845 0.61176 0.0
N1225 N 0.91857 0.38327 0.58484 0.0
C1226 C 0.93765 0.39628 0.57077 0.0
C1227 C 0.95118 0.38083 0.55211 0.0
C1228 C 0.93944 0.35684 0.55383 0.0
C1229 C 0.91943 0.35908 0.57359 0.0
N1230 N 0.87866 0.36187 0.61797 0.0
C1231 C 0.88403 0.33979 0.60364 0.0
C1232 C 0.86951 0.31858 0.61304 0.0
C1233 C 0.85362 0.32794 0.63371 0.0
C1234 C 0.8594 0.3542 0.63564 0.0
N1235 N 0.86497 0.41356 0.63857 0.0
C1236 C 0.84579 0.4006 0.65256 0.0
C1237 C 0.83174 0.41625 0.67074 0.0
C1238 C 0.84322 0.44037 0.66876 0.0
C1239 C 0.86362 0.43792 0.64941 0.0
N1240 N 0.86463 0.40441 0.58389 0.0
C1241 C 0.82815 0.40764 0.54217 0.0
C1242 C 0.82017 0.39768 0.56682 0.0
C1243 C 0.83851 0.39638 0.58723 0.0
C1244 C 0.8545 0.41658 0.5391 0.0
C1245 C 0.87213 0.41492 0.55997 0.0
N1246 N 0.91902 0.39236 0.63956 0.0
C1247 C 0.93028 0.3782 0.68359 0.0
C1248 C 0.95696 0.38615 0.67987 0.0
C1249 C 0.96428 0.39715 0.65552 0.0
C1250 C 0.94527 0.3999 0.63582 0.0
C1251 C 0.91183 0.38152 0.66344 0.0
H1252 H 0.95229 0.40834 0.61778 0.0
H1253 H 0.89176 0.37544 0.66777 0.0
H1254 H 0.83123 0.38833 0.60541 0.0
H1255 H 0.89196 0.42177 0.55607 0.0
C1256 C 0.93931 0.42388 0.57273 0.0
C1257 C 0.8836 0.45778 0.64449 0.0
C1258 C 0.89938 0.33931 0.57888 0.0
C1259 C 0.84434 0.37298 0.65089 0.0
H1260 H 0.91555 0.49763 0.61978 0.0
H1261 H 0.94636 0.47917 0.57971 0.0
H1262 H 0.9664 0.38687 0.53773 0.0
H1263 H 0.94405 0.34016 0.54106 0.0
H1264 H 0.86921 0.29897 0.60469 0.0
H1265 H 0.83829 0.31739 0.64475 0.0
H1266 H 0.81632 0.41032 0.68497 0.0
H1267 H 0.83834 0.45733 0.68113 0.0
H1268 H 0.79985 0.39091 0.57042 0.0
H1269 H 0.86186 0.42435 0.52044 0.0
H1270 H 0.92342 0.36983 0.70217 0.0
H1271 H 0.98477 0.4033 0.65146 0.0
H1272 H 0.122 0.28865 0.45394 0.0
H1273 H 0.11783 0.35661 0.50541 0.0
H1274 H 0.11144 0.32651 0.54352 0.0
H1275 H 0.07219 0.25085 0.48903 0.0
H1276 H 0.09031 0.21928 0.48338 0.0
H1277 H 0.09383 0.24624 0.46009 0.0
H1278 H 0.14619 0.24262 0.46433 0.0
H1279 H 0.14284 0.21554 0.48747 0.0
H1280 H 0.16031 0.24451 0.49621 0.0
H1281 H 0.10605 0.28864 0.57624 0.0
H1282 H 0.10459 0.24598 0.60088 0.0
H1283 H 0.1128 0.2031 0.52787 0.0
C1284 C 0.12005 0.29725 0.47322 0.0
C1285 C 0.12041 0.32507 0.4766 0.0
C1286 C 0.11729 0.33543 0.50222 0.0
C1287 C 0.11372 0.31848 0.52402 0.0
C1288 C 0.11332 0.29119 0.51994 0.0
C1289 C 0.11654 0.28065 0.49517 0.0
C1290 C 0.11587 0.25059 0.49608 0.0
C1291 C 0.0916 0.2412 0.48127 0.0
C1292 C 0.14291 0.23756 0.4854 0.0
C1293 C 0.11211 0.24583 0.52525 0.0
C1294 C 0.11043 0.26948 0.5387 0.0
C1295 C 0.10725 0.27 0.5659 0.0
C1296 C 0.10626 0.24569 0.57972 0.0
C1297 C 0.10862 0.2212 0.56634 0.0
C1298 C 0.11119 0.22146 0.53871 0.0
H1299 H 0.954 0.83636 0.7114 0.0
H1300 H 0.93635 0.92179 0.71054 0.0
H1301 H 0.97056 0.92692 0.74388 0.0
H1302 H 0.96518 0.82959 0.78154 0.0
H1303 H 0.99246 0.80454 0.77724 0.0
H1304 H 0.9657 0.80748 0.75413 0.0
H1305 H 0.0017 0.81258 0.71641 0.0
H1306 H 0.02855 0.81005 0.73942 0.0
H1307 H 0.02542 0.83856 0.71773 0.0
H1308 H 0.00725 0.92325 0.7756 0.0
H1309 H 0.043 0.9107 0.80665 0.0
H1310 H 0.0376 0.82756 0.78736 0.0
C1311 C 0.95701 0.85605 0.71865 0.0
C1312 C 0.94257 0.87872 0.70849 0.0
C1313 C 0.94735 0.90424 0.71802 0.0
C1314 C 0.9667 0.90733 0.73691 0.0
C1315 C 0.98108 0.8847 0.74603 0.0
C1316 C 0.97639 0.85952 0.73745 0.0
C1317 C 0.99509 0.83862 0.75024 0.0
C1318 C 0.97862 0.8189 0.76677 0.0
C1319 C 0.01379 0.8241 0.72972 0.0
C1320 C 0.01102 0.85605 0.7673 0.0
C1321 C 0.00255 0.88256 0.76446 0.0
C1322 C 0.01397 0.90257 0.77814 0.0
C1323 C 0.0342 0.89527 0.79569 0.0
C1324 C 0.04279 0.86821 0.7994 0.0
C1325 C 0.03141 0.84838 0.7847 0.0
H1326 H 0.41202 0.75695 0.10432 0.0
H1327 H 0.36578 0.82663 0.07612 0.0
H1328 H 0.35581 0.80264 0.03606 0.0
H1329 H 0.44082 0.73501 0.04244 0.0
H1330 H 0.43753 0.70006 0.04935 0.0
H1331 H 0.44146 0.72268 0.07571 0.0
H1332 H 0.39703 0.70729 0.09848 0.0
H1333 H 0.3931 0.68444 0.07231 0.0
H1334 H 0.36608 0.70874 0.08066 0.0
H1335 H 0.35281 0.77193 0.99824 0.0
H1336 H 0.35299 0.73568 0.96679 0.0
H1337 H 0.39731 0.68356 0.02091 0.0
C1338 C 0.39946 0.76695 0.08986 0.0
C1339 C 0.38943 0.79362 0.0934 0.0
C1340 C 0.3736 0.80624 0.07377 0.0
C1341 C 0.36788 0.79277 0.05097 0.0
C1342 C 0.378 0.76652 0.04805 0.0
C1343 C 0.39317 0.75359 0.06707 0.0
C1344 C 0.40096 0.72507 0.05923 0.0
C1345 C 0.43204 0.72044 0.05652 0.0
C1346 C 0.38855 0.70521 0.07883 0.0
C1347 C 0.38795 0.72406 0.03278 0.0
C1348 C 0.37508 0.74831 0.02669 0.0
C1349 C 0.36237 0.75269 0.00305 0.0
C1350 C 0.36237 0.7317 0.98533 0.0
C1351 C 0.37452 0.70616 0.99131 0.0
C1352 C 0.38776 0.70259 0.01544 0.0
H1353 H 0.44035 0.09558 0.31999 0.0
H1354 H 0.43581 0.1785 0.34195 0.0
H1355 H 0.47076 0.18817 0.30755 0.0
H1356 H 0.51298 0.09039 0.30629 0.0
H1357 H 0.51101 0.06878 0.27876 0.0
H1358 H 0.48539 0.06838 0.30482 0.0
H1359 H 0.44784 0.07816 0.27138 0.0
H1360 H 0.47333 0.07858 0.2452 0.0
H1361 H 0.44972 0.10685 0.24995 0.0
H1362 H 0.50623 0.18888 0.27096 0.0
H1363 H 0.53977 0.18091 0.23467 0.0
H1364 H 0.52244 0.09716 0.23603 0.0
C1365 C 0.4467 0.11576 0.31735 0.0
C1366 C 0.43516 0.13645 0.3333 0.0
C1367 C 0.44415 0.16254 0.32964 0.0
C1368 C 0.46403 0.16816 0.31021 0.0
C1369 C 0.4749 0.14743 0.29462 0.0
C1370 C 0.4666 0.12173 0.29793 0.0
C1371 C 0.4818 0.10315 0.27857 0.0
C1372 C 0.49881 0.08139 0.29297 0.0
C1373 C 0.46199 0.09097 0.26019 0.0
C1374 C 0.49991 0.12241 0.2639 0.0
C1375 C 0.49558 0.14782 0.27355 0.0
C1376 C 0.50987 0.16903 0.26333 0.0
C1377 C 0.5291 0.16423 0.24277 0.0
C1378 C 0.53414 0.13836 0.23242 0.0
C1379 C 0.5191 0.11722 0.24323 0.0
H1380 H 0.12351 0.75213 0.9248 0.0
H1381 H 0.13301 0.82114 0.97287 0.0
H1382 H 0.13356 0.79205 0.0122 0.0
H1383 H 0.09091 0.7086 0.96711 0.0
H1384 H 0.11252 0.67943 0.95983 0.0
H1385 H 0.10821 0.70548 0.93554 0.0
H1386 H 0.16034 0.71031 0.93163 0.0
H1387 H 0.16487 0.68366 0.95527 0.0
H1388 H 0.17885 0.71541 0.96072 0.0
H1389 H 0.12528 0.75496 0.04619 0.0
H1390 H 0.12694 0.71302 0.07185 0.0
H1391 H 0.14686 0.66939 1.0005 0.0
C1392 C 0.1271 0.76121 0.94326 0.0
C1393 C 0.12814 0.78913 0.94551 0.0
C1394 C 0.13142 0.79992 0.9706 0.0
C1395 C 0.13184 0.78358 0.99306 0.0
C1396 C 0.13096 0.75622 0.98997 0.0
C1397 C 0.13049 0.74504 0.96556 0.0
C1398 C 0.1346 0.715 0.96728 0.0
C1399 C 0.1101 0.70134 0.95681 0.0
C1400 C 0.16126 0.70553 0.95288 0.0
C1401 C 0.1363 0.71107 0.99661 0.0
C1402 C 0.13268 0.73501 0.00937 0.0
C1403 C 0.12936 0.73616 0.03645 0.0
C1404 C 0.13044 0.7122 0.05084 0.0
C1405 C 0.13667 0.68748 0.03839 0.0
C1406 C 0.14033 0.68726 0.01083 0.0
H1407 H 0.55553 0.88148 0.33318 0.0
H1408 H 0.55317 0.96604 0.31601 0.0
H1409 H 0.51238 0.96175 0.28986 0.0
H1410 H 0.54234 0.86028 0.27388 0.0
H1411 H 0.52044 0.8339 0.2834 0.0
H1412 H 0.54502 0.84436 0.3056 0.0
H1413 H 0.50697 0.85267 0.34062 0.0
H1414 H 0.48114 0.84373 0.31868 0.0
H1415 H 0.47861 0.87566 0.3341 0.0
H1416 H 0.47832 0.94714 0.25951 0.0
H1417 H 0.45198 0.92356 0.22789 0.0
H1418 H 0.47577 0.84806 0.26461 0.0
C1419 C 0.54555 0.89916 0.32479 0.0
C1420 C 0.55675 0.92418 0.32692 0.0
C1421 C 0.54417 0.94692 0.31505 0.0
C1422 C 0.52113 0.9446 0.30017 0.0
C1423 C 0.51095 0.91945 0.29768 0.0
C1424 C 0.52245 0.89716 0.31003 0.0
C1425 C 0.50936 0.8721 0.30203 0.0
C1426 C 0.53056 0.85147 0.29053 0.0
C1427 C 0.49308 0.86033 0.32526 0.0
C1428 C 0.4905 0.88345 0.28146 0.0
C1429 C 0.49116 0.9109 0.27985 0.0
C1430 C 0.47722 0.92574 0.26092 0.0
C1431 C 0.46257 0.91219 0.24293 0.0
C1432 C 0.4621 0.88409 0.24387 0.0
C1433 C 0.47566 0.86959 0.26376 0.0
H1434 H 0.38393 0.28191 0.58612 0.0
H1435 H 0.34352 0.34808 0.54537 0.0
H1436 H 0.34151 0.32048 0.50591 0.0
H1437 H 0.4236 0.25442 0.53191 0.0
H1438 H 0.41869 0.22024 0.54114 0.0
H1439 H 0.41784 0.2454 0.56584 0.0
H1440 H 0.36995 0.23202 0.58205 0.0
H1441 H 0.37075 0.20665 0.55755 0.0
H1442 H 0.34306 0.23153 0.55914 0.0
H1443 H 0.3461 0.28614 0.47006 0.0
H1444 H 0.3511 0.24593 0.44257 0.0
H1445 H 0.38431 0.20064 0.50782 0.0
C1446 C 0.37458 0.29049 0.56888 0.0
C1447 C 0.36434 0.31731 0.56858 0.0
C1448 C 0.35191 0.32775 0.54581 0.0
C1449 C 0.35069 0.31222 0.52334 0.0
C1450 C 0.3614 0.28599 0.5241 0.0
C1451 C 0.3726 0.27502 0.54646 0.0
C1452 C 0.38136 0.24592 0.54254 0.0
C1453 C 0.4122 0.24123 0.54553 0.0
C1454 C 0.36532 0.22797 0.56144 0.0
C1455 C 0.37359 0.24229 0.51441 0.0
C1456 C 0.36248 0.26578 0.50401 0.0
C1457 C 0.35454 0.2676 0.4781 0.0
C1458 C 0.35759 0.24475 0.46257 0.0
C1459 C 0.36804 0.22028 0.47309 0.0
C1460 C 0.37618 0.21912 0.49934 0.0
H1461 H 0.03947 0.15386 0.71118 0.0
H1462 H 0.05684 0.07009 0.69615 0.0
H1463 H 0.0232 0.05846 0.73113 0.0
H1464 H 0.03059 0.147 0.78253 0.0
H1465 H 0.00346 0.17245 0.78467 0.0
H1466 H 0.02936 0.17403 0.75895 0.0
H1467 H 0.99212 0.17611 0.72444 0.0
H1468 H 0.96613 0.17428 0.75004 0.0
H1469 H 0.96812 0.15029 0.72417 0.0
H1470 H 0.98613 0.05601 0.76653 0.0
H1471 H 0.94999 0.06285 0.80112 0.0
H1472 H 0.95757 0.14811 0.7948 0.0
C1473 C 0.03661 0.13308 0.71573 0.0
C1474 C 0.05118 0.11278 0.70134 0.0
C1475 C 0.04615 0.08586 0.70718 0.0
C1476 C 0.02705 0.07911 0.72697 0.0
C1477 C 0.013 0.09953 0.74082 0.0
C1478 C 0.01767 0.12598 0.7356 0.0
C1479 C 0.99956 0.14405 0.75322 0.0
C1480 C 0.01677 0.16034 0.77089 0.0
C1481 C 0.98035 0.16225 0.73699 0.0
C1482 C 0.9839 0.12366 0.76904 0.0
C1483 C 0.99191 0.0981 0.76146 0.0
C1484 C 0.97991 0.07594 0.77275 0.0
C1485 C 0.95941 0.07998 0.79236 0.0
C1486 C 0.95115 0.10593 0.80076 0.0
C1487 C 0.96358 0.12803 0.78883 0.0
H1488 H 0.22396 0.52178 0.08558 0.0
H1489 H 0.20877 0.54154 0.1673 0.0
H1490 H 0.24581 0.5096 0.17975 0.0
H1491 H 0.2408 0.44998 0.09757 0.0
H1492 H 0.26674 0.44833 0.07176 0.0
H1493 H 0.23784 0.47164 0.06927 0.0
H1494 H 0.27044 0.51016 0.06282 0.0
H1495 H 0.29937 0.487 0.06563 0.0
H1496 H 0.29531 0.51517 0.087 0.0
H1497 H 0.28718 0.47944 0.18316 0.0
H1498 H 0.32757 0.4483 0.1776 0.0
H1499 H 0.31468 0.44546 0.09439 0.0
C1500 C 0.2281 0.51894 0.10611 0.0
C1501 C 0.21376 0.53443 0.12544 0.0
C1502 C 0.21989 0.5303 0.15211 0.0
C1503 C 0.2408 0.51211 0.15941 0.0
C1504 C 0.2552 0.49787 0.13987 0.0
C1505 C 0.24889 0.50064 0.11381 0.0
C1506 C 0.26803 0.48311 0.09677 0.0
C1507 C 0.25242 0.46201 0.08303 0.0
C1508 C 0.28424 0.49987 0.07688 0.0
C1509 C 0.28628 0.47055 0.1173 0.0
C1510 C 0.27856 0.47946 0.14201 0.0
C1511 C 0.29312 0.47185 0.164 0.0
C1512 C 0.31596 0.45427 0.16071 0.0
C1513 C 0.32364 0.44422 0.13574 0.0
C1514 C 0.3088 0.45265 0.11374 0.0
H1515 H 0.80719 0.01402 0.90133 0.0
H1516 H 0.82683 0.00688 0.81832 0.0
H1517 H 0.79531 0.97041 0.81585 0.0
H1518 H 0.79923 0.94295 0.9155 0.0
H1519 H 0.77099 0.94937 0.93836 0.0
H1520 H 0.79686 0.97323 0.93399 0.0
H1521 H 0.75983 0.0099 0.92328 0.0
H1522 H 0.73388 0.98614 0.92736 0.0
H1523 H 0.73714 0.00487 0.89717 0.0
H1524 H 0.76035 0.93683 0.82185 0.0
H1525 H 0.7237 0.90769 0.83574 0.0
H1526 H 0.72588 0.93695 0.91495 0.0
C1527 C 0.80527 0.00431 0.8828 0.0
C1528 C 0.81954 0.01292 0.86003 0.0
C1529 C 0.81605 1.00038 0.83593 0.0
C1530 C 0.79829 0.9797 0.83439 0.0
C1531 C 0.78414 0.97197 0.8571 0.0
C1532 C 0.78742 0.98382 0.88087 0.0
C1533 C 0.76858 0.97277 0.90198 0.0
C1534 C 0.78489 0.95874 0.92374 0.0
C1535 C 0.74868 0.99473 0.91309 0.0
C1536 C 0.754 0.95304 0.88627 0.0
C1537 C 0.76349 0.95279 0.86049 0.0
C1538 C 0.75294 0.93661 0.84203 0.0
C1539 C 0.73222 0.92007 0.85014 0.0
C1540 C 0.72218 0.91987 0.87648 0.0
C1541 C 0.73317 0.93671 0.89472 0.0
H1542 H 0.83238 0.06697 0.35396 0.0
H1543 H 0.78216 0.13032 0.39041 0.0
H1544 H 0.74229 0.10236 0.39005 0.0
H1545 H 0.7824 0.04287 0.3123 0.0
H1546 H 0.79259 0.00821 0.31687 0.0
H1547 H 0.81711 0.03324 0.31962 0.0
H1548 H 0.82825 0.01575 0.36609 0.0
H1549 H 0.80392 0.99052 0.36343 0.0
H1550 H 0.80113 0.0131 0.3905 0.0
H1551 H 0.70759 0.06822 0.38416 0.0
H1552 H 0.68124 0.02865 0.37734 0.0
H1553 H 0.75429 0.98599 0.34712 0.0
C1554 C 0.81297 0.07479 0.36199 0.0
C1555 C 0.81017 0.10086 0.37203 0.0
C1556 C 0.78457 0.11047 0.38247 0.0
C1557 C 0.76187 0.09475 0.38231 0.0
C1558 C 0.76518 0.06925 0.37198 0.0
C1559 C 0.79016 0.05914 0.36237 0.0
C1560 C 0.7883 0.03077 0.35317 0.0
C1561 C 0.79553 0.02866 0.32374 0.0
C1562 C 0.80648 0.01139 0.36926 0.0
C1563 C 0.75833 0.02658 0.35893 0.0
C1564 C 0.74535 0.04916 0.36952 0.0
C1565 C 0.71757 0.05039 0.37599 0.0
C1566 C 0.70272 0.02787 0.37187 0.0
C1567 C 0.71564 0.00424 0.36165 0.0
C1568 C 0.74386 0.00372 0.35507 0.0
H1569 H 0.70306 0.04853 0.17696 0.0
H1570 H 0.67639 0.06521 0.09833 0.0
H1571 H 0.71404 0.03566 0.08049 0.0
H1572 H 0.77657 0.04742 0.15939 0.0
H1573 H 0.78463 0.02123 0.18275 0.0
H1574 H 0.75601 0.04435 0.18907 0.0
H1575 H 0.72444 0.00489 0.19483 0.0
H1576 H 0.75288 0.9817 0.18829 0.0
H1577 H 0.72313 0.98123 0.16887 0.0
H1578 H 0.75176 0.00098 0.07186 0.0
H1579 H 0.78948 0.96638 0.07269 0.0
H1580 H 0.79489 0.97635 0.15627 0.0
C1581 C 0.70569 0.04657 0.15597 0.0
C1582 C 0.68723 0.05947 0.13891 0.0
C1583 C 0.69056 0.0556 0.11161 0.0
C1584 C 0.71184 0.0389 0.10134 0.0
C1585 C 0.72979 0.02647 0.11867 0.0
C1586 C 0.7272 0.0304 0.14536 0.0
C1587 C 0.74911 0.01448 0.15971 0.0
C1588 C 0.76768 0.03298 0.17354 0.0
C1589 C 0.73663 0.99439 0.17906 0.0
C1590 C 0.76402 0.00055 0.13698 0.0
C1591 C 0.75243 0.00756 0.11349 0.0
C1592 C 0.76137 0.99573 0.09005 0.0
C1593 C 0.78273 0.97617 0.09067 0.0
C1594 C 0.79508 0.96903 0.11447 0.0
C1595 C 0.78583 0.98167 0.13781 0.0
H1596 H 0.19194 0.5525 0.61812 0.0
H1597 H 0.16565 0.54745 0.6997 0.0
H1598 H 0.20244 0.51298 0.70758 0.0
H1599 H 0.20814 0.483 0.60978 0.0
H1600 H 0.23747 0.48755 0.58835 0.0
H1601 H 0.20989 0.51252 0.58946 0.0
H1602 H 0.24346 0.54826 0.60032 0.0
H1603 H 0.27121 0.52343 0.59931 0.0
H1604 H 0.26472 0.54327 0.6281 0.0
H1605 H 0.24081 0.4785 0.70621 0.0
H1606 H 0.27825 0.4454 0.69594 0.0
H1607 H 0.28014 0.47246 0.61495 0.0
C1608 C 0.1942 0.54416 0.63763 0.0
C1609 C 0.17638 0.55259 0.65847 0.0
C1610 C 0.17944 0.54126 0.68369 0.0
C1611 C 0.2002 0.52176 0.68827 0.0
C1612 C 0.21759 0.51387 0.66736 0.0
C1613 C 0.21485 0.52468 0.64252 0.0
C1614 C 0.23584 0.51215 0.62336 0.0
C1615 C 0.222 0.49796 0.60145 0.0
C1616 C 0.25494 0.53303 0.61212 0.0
C1617 C 0.25067 0.49241 0.64126 0.0
C1618 C 0.23981 0.49384 0.66655 0.0
C1619 C 0.24951 0.47721 0.68651 0.0
C1620 C 0.27067 0.45839 0.68045 0.0
C1621 C 0.28197 0.45626 0.65463 0.0
C1622 C 0.27203 0.47378 0.63487 0.0
H1623 H 0.19486 0.46818 0.36145 0.0
H1624 H 0.20292 0.43826 0.44076 0.0
H1625 H 0.24005 0.46879 0.44712 0.0
H1626 H 0.26597 0.47498 0.3468 0.0
H1627 H 0.2611 0.50515 0.32768 0.0
H1628 H 0.23488 0.4815 0.32974 0.0
H1629 H 0.20011 0.51837 0.34636 0.0
H1630 H 0.2262 0.54218 0.34435 0.0
H1631 H 0.20739 0.53711 0.37477 0.0
H1632 H 0.27696 0.50182 0.44425 0.0
H1633 H 0.31064 0.53507 0.43297 0.0
H1634 H 0.27866 0.54406 0.35523 0.0
C1635 C 0.20448 0.46823 0.38015 0.0
C1636 C 0.19625 0.45097 0.4007 0.0
C1637 C 0.20909 0.4514 0.4249 0.0
C1638 C 0.23012 0.46864 0.42861 0.0
C1639 C 0.23794 0.48538 0.40792 0.0
C1640 C 0.22546 0.48537 0.38417 0.0
C1641 C 0.23789 0.50512 0.36504 0.0
C1642 C 0.25072 0.49083 0.34089 0.0
C1643 C 0.21663 0.52699 0.35717 0.0
C1644 C 0.25946 0.51617 0.38165 0.0
C1645 C 0.25911 0.50448 0.40631 0.0
C1646 C 0.27739 0.51106 0.425 0.0
C1647 C 0.29659 0.5299 0.41832 0.0
C1648 C 0.29752 0.54215 0.39314 0.0
C1649 C 0.27843 0.53524 0.37468 0.0
H1650 H 0.28854 0.54196 0.94919 0.0
H1651 H 0.35322 0.53999 0.8896 0.0
H1652 H 0.33116 0.50464 0.86666 0.0
H1653 H 0.27548 0.46894 0.94808 0.0
H1654 H 0.23937 0.47587 0.95317 0.0
H1655 H 0.26308 0.49749 0.96668 0.0
H1656 H 0.23885 0.53753 0.94287 0.0
H1657 H 0.21578 0.51583 0.92864 0.0
H1658 H 0.2361 0.53687 0.90785 0.0
H1659 H 0.29839 0.47511 0.84687 0.0
H1660 H 0.25949 0.45012 0.83362 0.0
H1661 H 0.21667 0.47013 0.90703 0.0
C1662 C 0.2983 0.53351 0.93168 0.0
C1663 C 0.3223 0.54378 0.9208 0.0
C1664 C 0.33472 0.53238 0.89798 0.0
C1665 C 0.32233 0.51231 0.8849 0.0
C1666 C 0.29777 0.5036 0.89528 0.0
C1667 C 0.28615 0.51343 0.91845 0.0
C1668 C 0.2587 0.50217 0.92439 0.0
C1669 C 0.2592 0.48509 0.94957 0.0
C1670 C 0.23603 0.52443 0.92602 0.0
C1671 C 0.25628 0.48527 0.90049 0.0
C1672 C 0.27907 0.48621 0.88402 0.0
C1673 C 0.28067 0.47368 0.85988 0.0
C1674 C 0.25847 0.45955 0.85252 0.0
C1675 C 0.23498 0.45811 0.86925 0.0
C1676 C 0.23412 0.47107 0.8936 0.0
H1677 H 0.61247 0.76527 0.95096 0.0
H1678 H 0.6262 0.83076 0.0021 0.0
H1679 H 0.61359 0.80302 0.0404 0.0
H1680 H 0.56442 0.72761 0.98796 0.0
H1681 H 0.58253 0.69591 0.98304 0.0
H1682 H 0.58557 0.72212 0.95882 0.0
H1683 H 0.63804 0.71918 0.96214 0.0
H1684 H 0.63518 0.69256 0.98587 0.0
H1685 H 0.6527 0.72179 0.9937 0.0
H1686 H 0.59249 0.76874 0.07201 0.0
H1687 H 0.58808 0.72715 0.09782 0.0
H1688 H 0.60984 0.68116 0.02844 0.0
C1689 C 0.61277 0.7739 0.97019 0.0
C1690 C 0.618 0.80106 0.9733 0.0
C1691 C 0.61971 0.81088 0.99897 0.0
C1692 C 0.61288 0.79517 0.02088 0.0
C1693 C 0.6068 0.76887 0.01696 0.0
C1694 C 0.60877 0.7578 0.99242 0.0
C1695 C 0.60823 0.72771 0.99418 0.0
C1696 C 0.58372 0.71776 0.98016 0.0
C1697 C 0.63514 0.71453 0.98334 0.0
C1698 C 0.605 0.72376 0.02356 0.0
C1699 C 0.60251 0.7479 0.03607 0.0
C1700 C 0.5959 0.74964 0.06268 0.0
C1701 C 0.59359 0.72594 0.07717 0.0
C1702 C 0.60042 0.70097 0.06556 0.0
C1703 C 0.60528 0.69992 0.03813 0.0
H1704 H 0.55276 0.32998 0.29868 0.0
H1705 H 0.58303 0.40932 0.29788 0.0
H1706 H 0.55373 0.42212 0.26102 0.0
H1707 H 0.54914 0.32521 0.22699 0.0
H1708 H 0.51868 0.30685 0.22891 0.0
H1709 H 0.5425 0.30377 0.25482 0.0
H1710 H 0.50383 0.31735 0.28842 0.0
H1711 H 0.47996 0.32078 0.26259 0.0
H1712 H 0.48435 0.34833 0.28384 0.0
H1713 H 0.51887 0.4273 0.22677 0.0
H1714 H 0.48409 0.42378 0.19411 0.0
H1715 H 0.4785 0.33979 0.21376 0.0
C1716 C 0.55358 0.34984 0.29032 0.0
C1717 C 0.57033 0.36865 0.30091 0.0
C1718 C 0.57042 0.39465 0.28991 0.0
C1719 C 0.55381 0.40208 0.26905 0.0
C1720 C 0.53731 0.38322 0.2592 0.0
C1721 C 0.53732 0.35751 0.26915 0.0
C1722 C 0.51765 0.34119 0.25474 0.0
C1723 C 0.5329 0.31787 0.24052 0.0
C1724 C 0.49511 0.33133 0.27352 0.0
C1725 C 0.50633 0.36185 0.23543 0.0
C1726 C 0.51789 0.38596 0.23854 0.0
C1727 C 0.5101 0.40836 0.22378 0.0
C1728 C 0.49036 0.40604 0.20502 0.0
C1729 C 0.47869 0.38134 0.20061 0.0
C1730 C 0.48679 0.35902 0.2164 0.0
H1731 H 0.92428 0.29625 0.55433 0.0
H1732 H 0.85133 0.34822 0.55526 0.0
H1733 H 0.83316 0.32268 0.51945 0.0
H1734 H 0.92966 0.28841 0.48403 0.0
H1735 H 0.94186 0.25407 0.48615 0.0
H1736 H 0.94884 0.27671 0.51166 0.0
H1737 H 0.92675 0.24532 0.54608 0.0
H1738 H 0.91953 0.22268 0.52067 0.0
H1739 H 0.89238 0.23583 0.54211 0.0
H1740 H 0.8232 0.29109 0.48359 0.0
H1741 H 0.82236 0.2561 0.45017 0.0
H1742 H 0.90234 0.22558 0.47271 0.0
C1743 C 0.90461 0.30227 0.54675 0.0
C1744 C 0.88917 0.32418 0.55713 0.0
C1745 C 0.86335 0.33147 0.54724 0.0
C1746 C 0.85293 0.3171 0.527 0.0
C1747 C 0.86867 0.29552 0.51704 0.0
C1748 C 0.89399 0.28818 0.52652 0.0
C1749 C 0.90684 0.26426 0.51244 0.0
C1750 C 0.93337 0.27129 0.49769 0.0
C1751 C 0.91164 0.24063 0.53146 0.0
C1752 C 0.88473 0.25914 0.49374 0.0
C1753 C 0.86289 0.27737 0.4966 0.0
C1754 C 0.84018 0.27667 0.48118 0.0
C1755 C 0.8399 0.25682 0.46224 0.0
C1756 C 0.86214 0.23798 0.45906 0.0
C1757 C 0.88475 0.23931 0.47507 0.0
H1758 H 0.90787 0.63496 0.77989 0.0
H1759 H 0.9048 0.72106 0.77926 0.0
H1760 H 0.93898 0.72078 0.74241 0.0
H1761 H 0.97588 0.62579 0.77238 0.0
H1762 H 0.97682 0.59725 0.75146 0.0
H1763 H 0.94798 0.60394 0.77336 0.0
H1764 H 0.91539 0.60471 0.73485 0.0
H1765 H 0.94403 0.5971 0.7128 0.0
H1766 H 0.92166 0.62591 0.70679 0.0
H1767 H 0.97842 0.71103 0.71181 0.0
H1768 H 0.0193 0.69281 0.68768 0.0
H1769 H 0.99704 0.6126 0.70804 0.0
C1770 C 0.91369 0.65366 0.77112 0.0
C1771 C 0.90365 0.67806 0.78172 0.0
C1772 C 0.91208 0.70231 0.77077 0.0
C1773 C 0.93142 0.70226 0.74997 0.0
C1774 C 0.94178 0.67779 0.74044 0.0
C1775 C 0.93293 0.6539 0.7504 0.0
C1776 C 0.94942 0.63039 0.73882 0.0
C1777 C 0.96335 0.61337 0.76029 0.0
C1778 C 0.93157 0.61354 0.72232 0.0
C1779 C 0.96988 0.64482 0.72181 0.0
C1780 C 0.96483 0.67211 0.72274 0.0
C1781 C 0.98228 0.68971 0.71051 0.0
C1782 C 0.00556 0.67918 0.69708 0.0
C1783 C 0.01122 0.65132 0.69595 0.0
C1784 C 0.9929 0.63396 0.70818 0.0
H1785 H 0.61871 0.25527 0.44164 0.0
H1786 H 0.62094 0.32439 0.49118 0.0
H1787 H 0.62143 0.295 0.53016 0.0
H1788 H 0.57721 0.21551 0.48502 0.0
H1789 H 0.59607 0.18481 0.4772 0.0
H1790 H 0.59387 0.21141 0.45325 0.0
H1791 H 0.64651 0.21075 0.44898 0.0
H1792 H 0.64887 0.18419 0.47293 0.0
H1793 H 0.66581 0.2145 0.47782 0.0
H1794 H 0.62294 0.25798 0.56381 0.0
H1795 H 0.62554 0.21609 0.58952 0.0
H1796 H 0.62597 0.17116 0.51771 0.0
C1797 C 0.61936 0.26434 0.46062 0.0
C1798 C 0.6196 0.29229 0.46318 0.0
C1799 C 0.62012 0.30315 0.48857 0.0
C1800 C 0.62065 0.28659 0.51089 0.0
C1801 C 0.6208 0.25917 0.50756 0.0
C1802 C 0.62021 0.24811 0.48307 0.0
C1803 C 0.62155 0.21799 0.48479 0.0
C1804 C 0.59563 0.20678 0.47445 0.0
C1805 C 0.64721 0.20617 0.47027 0.0
C1806 C 0.62314 0.21383 0.51407 0.0
C1807 C 0.62251 0.23783 0.52687 0.0
C1808 C 0.62361 0.23906 0.55398 0.0
C1809 C 0.62535 0.21512 0.5684 0.0
C1810 C 0.62623 0.19022 0.5557 0.0
C1811 C 0.62512 0.18976 0.52812 0.0
H1812 H 0.07974 0.42498 0.76895 0.0
H1813 H 0.07335 0.34851 0.80804 0.0
H1814 H 0.03529 0.3384 0.78002 0.0
H1815 H 0.0075 0.43882 0.76116 0.0
H1816 H 0.01168 0.45427 0.72934 0.0
H1817 H 0.03817 0.45546 0.75258 0.0
H1818 H 0.07289 0.43417 0.71876 0.0
H1819 H 0.04652 0.4329 0.69542 0.0
H1820 H 0.06598 0.40295 0.70424 0.0
H1821 H 0.99782 0.33687 0.74782 0.0
H1822 H 0.96447 0.34326 0.71312 0.0
H1823 H 0.9951 0.4209 0.69453 0.0
C1824 C 0.07019 0.40618 0.77153 0.0
C1825 C 0.07918 0.38748 0.79065 0.0
C1826 C 0.06652 0.36299 0.79349 0.0
C1827 C 0.04495 0.35715 0.7777 0.0
C1828 C 0.03638 0.37602 0.75905 0.0
C1829 C 0.04863 0.40002 0.75583 0.0
C1830 C 0.03565 0.4167 0.73418 0.0
C1831 C 0.02247 0.44286 0.74496 0.0
C1832 C 0.0565 0.42198 0.71183 0.0
C1833 C 0.01429 0.39831 0.72564 0.0
C1834 C 0.01497 0.37502 0.74034 0.0
C1835 C 0.99709 0.35506 0.73622 0.0
C1836 C 0.97809 0.35894 0.71653 0.0
C1837 C 0.97705 0.38257 0.70102 0.0
C1838 C 0.9955 0.40247 0.70579 0.0
H1839 H 0.86512 0.75217 0.93058 0.0
H1840 H 0.78309 0.72536 0.94067 0.0
H1841 H 0.77262 0.75999 0.97391 0.0
H1842 H 0.87541 0.76304 0.9967 0.0
H1843 H 0.89487 0.79207 0.9911 0.0
H1844 H 0.89478 0.76705 0.96641 0.0
H1845 H 0.87845 0.80283 0.9326 0.0
H1846 H 0.87848 0.82801 0.95724 0.0
H1847 H 0.84802 0.8233 0.93979 0.0
H1848 H 0.77284 0.79472 0.0091 0.0
H1849 H 0.78341 0.82742 0.04245 0.0
H1850 H 0.86522 0.83095 0.00864 0.0
C1851 C 0.84488 0.75373 0.93964 0.0
C1852 C 0.82489 0.73617 0.93312 0.0
C1853 C 0.79858 0.73888 0.94523 0.0
C1854 C 0.79249 0.75841 0.96414 0.0
C1855 C 0.81287 0.77514 0.97043 0.0
C1856 C 0.83847 0.77309 0.95838 0.0
C1857 C 0.85724 0.79249 0.96946 0.0
C1858 C 0.88203 0.77778 0.98165 0.0
C1859 C 0.86606 0.81287 0.94852 0.0
C1860 C 0.83844 0.80537 0.99011 0.0
C1861 C 0.81288 0.79526 0.99034 0.0
C1862 C 0.79266 0.80305 0.00887 0.0
C1863 C 0.79885 0.82149 0.02776 0.0
C1864 C 0.82501 0.83188 0.02787 0.0
C1865 C 0.84484 0.82386 0.0086 0.0
H1866 H 0.45893 0.62357 0.31202 0.0
H1867 H 0.39289 0.58596 0.27601 0.0
H1868 H 0.41857 0.58649 0.2333 0.0
H1869 H 0.47781 0.66575 0.25976 0.0
H1870 H 0.51391 0.66124 0.26417 0.0
H1871 H 0.49045 0.65779 0.29172 0.0
H1872 H 0.511 0.61027 0.30133 0.0
H1873 H 0.53492 0.61379 0.27416 0.0
H1874 H 0.51321 0.58603 0.27568 0.0
H1875 H 0.44995 0.59503 0.19429 0.0
H1876 H 0.48752 0.60349 0.16281 0.0
H1877 H 0.53542 0.63023 0.22612 0.0
C1878 C 0.45017 0.61491 0.29524 0.0
C1879 C 0.4241 0.60454 0.2971 0.0
C1880 C 0.41297 0.59378 0.27477 0.0
C1881 C 0.4273 0.59417 0.25055 0.0
C1882 C 0.45286 0.60494 0.24931 0.0
C1883 C 0.46445 0.61449 0.2712 0.0
C1884 C 0.49255 0.62414 0.2649 0.0
C1885 C 0.49373 0.654 0.27047 0.0
C1886 C 0.5142 0.60756 0.2799 0.0
C1887 C 0.49488 0.61886 0.23588 0.0
C1888 C 0.47161 0.6082 0.22721 0.0
C1889 C 0.46854 0.60274 0.20097 0.0
C1890 C 0.49018 0.60747 0.18325 0.0
C1891 C 0.51494 0.61695 0.1919 0.0
C1892 C 0.51694 0.6231 0.21861 0.0
H1893 H 0.78276 0.9344 0.64949 0.0
H1894 H 0.80286 0.92335 0.56705 0.0
H1895 H 0.76585 0.95624 0.55575 0.0
H1896 H 0.70781 0.94094 0.64156 0.0
H1897 H 0.70299 0.96513 0.66714 0.0
H1898 H 0.73038 0.93998 0.66855 0.0
H1899 H 0.76475 0.97686 0.67225 0.0
H1900 H 0.73755 0.00209 0.67048 0.0
H1901 H 0.76611 0.00268 0.64745 0.0
H1902 H 0.73108 0.99463 0.5539 0.0
H1903 H 0.69605 0.03114 0.56122 0.0
H1904 H 0.69376 0.01265 0.64427 0.0
C1905 C 0.77874 0.9383 0.62908 0.0
C1906 C 0.7954 0.92619 0.60908 0.0
C1907 C 0.79014 0.93237 0.58259 0.0
C1908 C 0.76924 0.95102 0.57602 0.0
C1909 C 0.75338 0.96288 0.59617 0.0
C1910 C 0.75741 0.95631 0.62215 0.0
C1911 C 0.73742 0.97202 0.63999 0.0
C1912 C 0.71853 0.95341 0.6552 0.0
C1913 C 0.75236 0.98944 0.65864 0.0
C1914 C 0.72204 0.98888 0.62002 0.0
C1915 C 0.73181 0.98355 0.59488 0.0
C1916 C 0.72263 0.99839 0.57339 0.0
C1917 C 0.7027 0.019 0.57769 0.0
C1918 C 0.6916 0.02406 0.60314 0.0
C1919 C 0.70146 0.00874 0.62452 0.0
H1920 H 0.13602 0.55662 0.18639 0.0
H1921 H 0.04998 0.57948 0.19072 0.0
H1922 H 0.04272 0.54479 0.22493 0.0
H1923 H 0.12984 0.48685 0.1943 0.0
H1924 H 0.15909 0.48158 0.21427 0.0
H1925 H 0.15766 0.50867 0.19083 0.0
H1926 H 0.16519 0.54221 0.22735 0.0
H1927 H 0.16704 0.51523 0.25091 0.0
H1928 H 0.14289 0.543 0.25612 0.0
H1929 H 0.04479 0.50639 0.25712 0.0
H1930 H 0.05647 0.46988 0.28829 0.0
H1931 H 0.14145 0.47242 0.26323 0.0
C1932 C 0.11577 0.55444 0.1949 0.0
C1933 C 0.09347 0.57046 0.18616 0.0
C1934 C 0.06719 0.56724 0.19739 0.0
C1935 C 0.06292 0.54758 0.21666 0.0
C1936 C 0.08524 0.53158 0.22449 0.0
C1937 C 0.11121 0.53503 0.21422 0.0
C1938 C 0.13171 0.51532 0.22612 0.0
C1939 C 0.14537 0.49703 0.20512 0.0
C1940 C 0.15295 0.52981 0.24102 0.0
C1941 C 0.11322 0.50016 0.24463 0.0
C1942 C 0.08647 0.50972 0.24325 0.0
C1943 C 0.06567 0.49877 0.25842 0.0
C1944 C 0.07246 0.47788 0.27588 0.0
C1945 C 0.09984 0.46828 0.27815 0.0
C1946 C 0.12036 0.47944 0.26204 0.0
H1947 H 0.77619 0.83182 0.52678 0.0
H1948 H 0.84735 0.85182 0.47905 0.0
H1949 H 0.81952 0.8544 0.44019 0.0
H1950 H 0.74684 0.78997 0.47466 0.0
H1951 H 0.71259 0.80061 0.4848 0.0
H1952 H 0.73877 0.79729 0.50853 0.0
H1953 H 0.72789 0.84615 0.5223 0.0
H1954 H 0.702 0.84974 0.49846 0.0
H1955 H 0.7292 0.87234 0.49786 0.0
H1956 H 0.78269 0.86555 0.40986 0.0
H1957 H 0.74021 0.87666 0.38745 0.0
H1958 H 0.69411 0.84018 0.45103 0.0
C1959 C 0.78633 0.8357 0.5081 0.0
C1960 C 0.81399 0.84219 0.50629 0.0
C1961 C 0.82605 0.84767 0.4813 0.0
C1962 C 0.81049 0.84883 0.45896 0.0
C1963 C 0.78313 0.84343 0.46167 0.0
C1964 C 0.77129 0.83611 0.48541 0.0
C1965 C 0.7411 0.83254 0.48307 0.0
C1966 C 0.73444 0.80336 0.48805 0.0
C1967 C 0.72407 0.85131 0.50151 0.0
C1968 C 0.73761 0.8405 0.45466 0.0
C1969 C 0.76214 0.84689 0.44279 0.0
C1970 C 0.76355 0.85932 0.41833 0.0
C1971 C 0.73929 0.86548 0.40571 0.0
C1972 C 0.71398 0.85834 0.41708 0.0
C1973 C 0.71329 0.84505 0.44158 0.0
H1974 H 0.38905 0.50374 0.82945 0.0
H1975 H 0.34767 0.56621 0.78393 0.0
H1976 H 0.34479 0.53527 0.74759 0.0
H1977 H 0.42999 0.47661 0.77536 0.0
H1978 H 0.42828 0.44258 0.7866 0.0
H1979 H 0.42584 0.46919 0.80983 0.0
H1980 H 0.37997 0.45242 0.82808 0.0
H1981 H 0.38214 0.42588 0.80473 0.0
H1982 H 0.35265 0.44868 0.80616 0.0
H1983 H 0.34663 0.49791 0.71556 0.0
H1984 H 0.35578 0.45735 0.68928 0.0
H1985 H 0.39823 0.4194 0.75374 0.0
C1986 C 0.37953 0.51106 0.81183 0.0
C1987 C 0.36825 0.53759 0.81 0.0
C1988 C 0.35584 0.54597 0.78641 0.0
C1989 C 0.35424 0.52853 0.76545 0.0
C1990 C 0.36533 0.50261 0.76802 0.0
C1991 C 0.37795 0.49391 0.79049 0.0
C1992 C 0.38905 0.46525 0.78771 0.0
C1993 C 0.42014 0.4633 0.79001 0.0
C1994 C 0.37512 0.44698 0.80787 0.0
C1995 C 0.38095 0.45936 0.76008 0.0
C1996 C 0.36699 0.48115 0.74923 0.0
C1997 C 0.35751 0.48074 0.72389 0.0
C1998 C 0.36274 0.45764 0.70911 0.0
C1999 C 0.37742 0.43522 0.71957 0.0
C2000 C 0.38654 0.4361 0.74545 0.0
H2001 H 0.79758 0.15838 0.95391 0.0
H2002 H 0.80491 0.07515 0.9332 0.0
H2003 H 0.76781 0.06548 0.9655 0.0
H2004 H 0.78496 0.14786 0.02285 0.0
H2005 H 0.76086 0.1759 0.02653 0.0
H2006 H 0.78729 0.17639 0.00126 0.0
H2007 H 0.75107 0.18526 0.9663 0.0
H2008 H 0.72452 0.1849 0.99148 0.0
H2009 H 0.72387 0.1629 0.96408 0.0
H2010 H 0.73047 0.06482 1.00081 0.0
H2011 H 0.69588 0.07293 0.03629 0.0
H2012 H 0.71223 0.15689 0.03428 0.0
C2013 C 0.79112 0.13821 0.95612 0.0
C2014 C 0.80384 0.11747 0.941 0.0
C2015 C 0.79522 0.09124 0.94454 0.0
C2016 C 0.77421 0.08561 0.96284 0.0
C2017 C 0.76206 0.10644 0.97756 0.0
C2018 C 0.77017 0.13223 0.97441 0.0
C2019 C 0.75405 0.15085 0.99304 0.0
C2020 C 0.77292 0.16349 0.01205 0.0
C2021 C 0.73739 0.17224 0.97781 0.0
C2022 C 0.73568 0.13154 0.00721 0.0
C2023 C 0.7406 0.10604 0.99792 0.0
C2024 C 0.72634 0.08476 0.00808 0.0
C2025 C 0.70653 0.08962 0.02817 0.0
C2026 C 0.70097 0.1156 0.03809 0.0
C2027 C 0.71595 0.13676 0.02735 0.0
H2028 H 0.28644 0.12492 0.47747 0.0
H2029 H 0.30123 0.04047 0.46455 0.0
H2030 H 0.26775 0.03074 0.5005 0.0
H2031 H 0.27719 0.12204 0.54748 0.0
H2032 H 0.25022 0.1477 0.54866 0.0
H2033 H 0.2758 0.14779 0.52256 0.0
H2034 H 0.23832 0.14794 0.48833 0.0
H2035 H 0.21263 0.14804 0.51433 0.0
H2036 H 0.21393 0.12245 0.49 0.0
H2037 H 0.23244 0.03062 0.53865 0.0
H2038 H 0.19709 0.04012 0.57364 0.0
H2039 H 0.2036 0.12468 0.55957 0.0
C2040 C 0.28248 0.10438 0.48215 0.0
C2041 C 0.29634 0.08338 0.46818 0.0
C2042 C 0.2908 0.05679 0.47499 0.0
C2043 C 0.27185 0.05113 0.49539 0.0
C2044 C 0.25841 0.07232 0.5087 0.0
C2045 C 0.26336 0.09844 0.50216 0.0
C2046 C 0.24571 0.11764 0.51888 0.0
C2047 C 0.26329 0.1348 0.53537 0.0
C2048 C 0.22651 0.13504 0.50187 0.0
C2049 C 0.23007 0.09834 0.53597 0.0
C2050 C 0.23781 0.07226 0.52998 0.0
C2051 C 0.22627 0.05098 0.54342 0.0
C2052 C 0.20627 0.05651 0.56328 0.0
C2053 C 0.19783 0.08306 0.56948 0.0
C2054 C 0.20992 0.10417 0.55549 0.0
H2055 H 0.1361 0.03942 0.73768 0.0
H2056 H 0.10991 0.9855 0.67911 0.0
H2057 H 0.1062 0.95044 0.71291 0.0
H2058 H 0.17982 0.99057 0.76864 0.0
H2059 H 0.17317 0.00378 0.80092 0.0
H2060 H 0.17088 0.02551 0.7727 0.0
H2061 H 0.12154 0.04041 0.78738 0.0
H2062 H 0.12356 0.01842 0.8155 0.0
H2063 H 0.09666 0.01572 0.79291 0.0
H2064 H 0.10595 0.92073 0.7531 0.0
H2065 H 0.11435 0.89738 0.79522 0.0
H2066 H 0.14603 0.96883 0.82579 0.0
C2067 C 0.12988 0.02025 0.73161 0.0
C2068 C 0.12309 0.01565 0.70541 0.0
C2069 C 0.11457 0.99012 0.69897 0.0
C2070 C 0.11253 0.96988 0.71807 0.0
C2071 C 0.11945 0.97522 0.74354 0.0
C2072 C 0.12838 0.99965 0.75022 0.0
C2073 C 0.13662 0.99969 0.77848 0.0
C2074 C 0.16692 0.0052 0.78028 0.0
C2075 C 0.11851 0.01975 0.79451 0.0
C2076 C 0.13118 0.97134 0.7866 0.0
C2077 C 0.12074 0.95772 0.76631 0.0
C2078 C 0.11415 0.93121 0.76908 0.0
C2079 C 0.11892 0.91814 0.79302 0.0
C2080 C 0.13048 0.93146 0.81373 0.0
C2081 C 0.13655 0.95843 0.81048 0.0
H2082 H 0.28504 0.89939 0.06844 0.0
H2083 H 0.3075 0.81506 0.07495 0.0
H2084 H 0.28266 0.80686 0.03506 0.0
H2085 H 0.21724 0.89172 0.04642 0.0
H2086 H 0.21783 0.92002 0.02437 0.0
H2087 H 0.23771 0.91927 0.05324 0.0
H2088 H 0.28116 0.92685 0.02452 0.0
H2089 H 0.26144 0.92749 0.99555 0.0
H2090 H 0.29049 0.90439 0.9982 0.0
H2091 H 0.25612 0.80788 0.9944 0.0
H2092 H 0.22702 0.81756 0.95682 0.0
H2093 H 0.22096 0.90118 0.97695 0.0
C2094 C 0.28464 0.87923 0.06142 0.0
C2095 C 0.29799 0.85781 0.07475 0.0
C2096 C 0.29702 0.83165 0.06516 0.0
C2097 C 0.28316 0.82684 0.04245 0.0
C2098 C 0.27024 0.84839 0.02972 0.0
C2099 C 0.27063 0.87403 0.03894 0.0
C2100 C 0.25457 0.89353 0.02183 0.0
C2101 C 0.2304 0.90691 0.0374 0.0
C2102 C 0.27302 0.91429 0.00928 0.0
C2103 C 0.24507 0.87482 0.00159 0.0
C2104 C 0.25456 0.84892 0.0064 0.0
C2105 C 0.24859 0.82808 0.99039 0.0
C2106 C 0.23223 0.8338 0.96901 0.0
C2107 C 0.2219 0.86013 0.96393 0.0
C2108 C 0.22852 0.88087 0.98044 0.0
H2109 H 0.35366 0.04065 0.29713 0.0
H2110 H 0.38699 0.98989 0.35905 0.0
H2111 H 0.39227 0.95272 0.32853 0.0
H2112 H 0.3136 0.98987 0.27075 0.0
H2113 H 0.31858 0.00108 0.23736 0.0
H2114 H 0.31897 0.02444 0.26362 0.0
H2115 H 0.36665 0.03821 0.24717 0.0
H2116 H 0.36652 0.0147 0.221 0.0
H2117 H 0.39397 0.01311 0.24339 0.0
H2118 H 0.39489 0.92071 0.29097 0.0
H2119 H 0.39038 0.89551 0.25041 0.0
H2120 H 0.3507 0.96496 0.21428 0.0
C2121 C 0.36178 0.02174 0.30458 0.0
C2122 C 0.37031 0.0188 0.33078 0.0
C2123 C 0.38107 0.9934 0.3391 0.0
C2124 C 0.38397 0.97189 0.32188 0.0
C2125 C 0.37559 0.97565 0.29633 0.0
C2126 C 0.36431 0.99982 0.28779 0.0
C2127 C 0.35577 0.99816 0.25963 0.0
C2128 C 0.32489 0.00372 0.25774 0.0
C2129 C 0.37168 0.01718 0.24175 0.0
C2130 C 0.36396 0.96929 0.25373 0.0
C2131 C 0.37575 0.9568 0.27507 0.0
C2132 C 0.38552 0.93028 0.27422 0.0
C2133 C 0.38291 0.91612 0.2511 0.0
C2134 C 0.37047 0.92831 0.22911 0.0
C2135 C 0.36074 0.95525 0.2306 0.0
H2136 H 0.54787 0.21501 0.13714 0.0
H2137 H 0.56882 0.1961 0.05636 0.0
H2138 H 0.53655 0.23242 0.04169 0.0
H2139 H 0.47769 0.23068 0.12982 0.0
H2140 H 0.4758 0.25789 0.1524 0.0
H2141 H 0.50088 0.23089 0.15626 0.0
H2142 H 0.53916 0.26438 0.15466 0.0
H2143 H 0.51416 0.2915 0.15088 0.0
H2144 H 0.54203 0.28714 0.12724 0.0
H2145 H 0.49926 0.26847 0.03634 0.0
H2146 H 0.46216 0.30365 0.04062 0.0
H2147 H 0.46885 0.30119 0.12482 0.0
C2148 C 0.54578 0.21879 0.11639 0.0
C2149 C 0.56053 0.2029 0.09777 0.0
C2150 C 0.55745 0.20816 0.07077 0.0
C2151 C 0.53927 0.22868 0.06235 0.0
C2152 C 0.52481 0.24393 0.08123 0.0
C2153 C 0.52814 0.23944 0.10769 0.0
C2154 C 0.51022 0.25859 0.12403 0.0
C2155 C 0.48995 0.24361 0.14166 0.0
C2156 C 0.52743 0.27646 0.14015 0.0
C2157 C 0.49591 0.27429 0.10266 0.0
C2158 C 0.50446 0.26548 0.0781 0.0
C2159 C 0.49281 0.27591 0.05543 0.0
C2160 C 0.4719 0.29586 0.05799 0.0
C2161 C 0.4633 0.30537 0.08296 0.0
C2162 C 0.47554 0.2945 0.10549 0.0
H2163 H 0.95262 0.22589 0.91289 0.0
H2164 H 0.93312 0.22305 0.83097 0.0
H2165 H 0.96749 0.2557 0.82012 0.0
H2166 H 0.96654 0.29775 0.9131 0.0
H2167 H 0.99407 0.29242 0.93517 0.0
H2168 H 0.96588 0.27096 0.93692 0.0
H2169 H 0.99947 0.22988 0.9312 0.0
H2170 H 0.02771 0.25118 0.92913 0.0
H2171 H 0.02276 0.22835 0.90316 0.0
H2172 H 0.00745 0.28369 0.81723 0.0
H2173 H 0.04817 0.3092 0.82318 0.0
H2174 H 0.04099 0.2957 0.90701 0.0
C2175 C 0.95527 0.23258 0.89277 0.0
C2176 C 0.9401 0.22217 0.87279 0.0
C2177 C 0.94417 0.23119 0.84664 0.0
C2178 C 0.96375 0.24959 0.84025 0.0
C2179 C 0.97883 0.25897 0.86029 0.0
C2180 C 0.97457 0.25116 0.88608 0.0
C2181 C 0.99438 0.26349 0.90365 0.0
C2182 C 0.97931 0.28227 0.92337 0.0
C2183 C 0.01213 0.24193 0.9176 0.0
C2184 C 0.01092 0.27879 0.88358 0.0
C2185 C 0.00159 0.27586 0.85869 0.0
C2186 C 0.01467 0.28656 0.83665 0.0
C2187 C 0.03781 0.30084 0.84018 0.0
C2188 C 0.0474 0.30445 0.86553 0.0
C2189 C 0.03372 0.29344 0.88749 0.0
H2190 H 0.03065 0.72801 0.13876 0.0
H2191 H 0.01508 0.69822 0.06182 0.0
H2192 H 0.97907 0.73369 0.05655 0.0
H2193 H 0.96141 0.74778 0.15748 0.0
H2194 H 0.97045 0.77737 0.17376 0.0
H2195 H 0.99411 0.74884 0.17203 0.0
H2196 H 0.03076 0.77807 0.15046 0.0
H2197 H 0.00725 0.80669 0.15217 0.0
H2198 H 0.02308 0.79702 0.12119 0.0
H2199 H 0.9453 0.77313 0.05926 0.0
H2200 H 0.91674 0.81391 0.06987 0.0
H2201 H 0.95604 0.81895 0.14382 0.0
C2202 C 0.01982 0.72895 0.12071 0.0
C2203 C 0.0257 0.71015 0.10076 0.0
C2204 C 0.01068 0.71202 0.07762 0.0
C2205 C 0.99029 0.73222 0.07435 0.0
C2206 C 0.9852 0.75049 0.09434 0.0
C2207 C 0.99957 0.74907 0.11704 0.0
C2208 C 0.99067 0.77154 0.13527 0.0
C2209 C 0.97843 0.76073 0.16116 0.0
C2210 C 0.01435 0.78938 0.14004 0.0
C2211 C 0.96912 0.78592 0.11922 0.0
C2212 C 0.96614 0.77339 0.09572 0.0
C2213 C 0.94743 0.78306 0.07761 0.0
C2214 C 0.93135 0.80613 0.08374 0.0
C2215 C 0.9342 0.81916 0.10767 0.0
C2216 C 0.95341 0.80904 0.12552 0.0
H2217 H 0.47037 0.73075 0.35211 0.0
H2218 H 0.46553 0.71363 0.43565 0.0
H2219 H 0.49968 0.74644 0.44265 0.0
H2220 H 0.54383 0.73803 0.3491 0.0
H2221 H 0.54225 0.76429 0.32472 0.0
H2222 H 0.5171 0.73951 0.3259 0.0
H2223 H 0.47827 0.7765 0.33018 0.0
H2224 H 0.50385 0.80072 0.32784 0.0
H2225 H 0.47974 0.80108 0.3553 0.0
H2226 H 0.53426 0.78095 0.44104 0.0
H2227 H 0.56692 0.8153 0.43095 0.0
H2228 H 0.55016 0.81068 0.34841 0.0
C2229 C 0.47659 0.7337 0.37188 0.0
C2230 C 0.46477 0.71964 0.39335 0.0
C2231 C 0.47356 0.72445 0.41887 0.0
C2232 C 0.49322 0.74293 0.42307 0.0
C2233 C 0.50426 0.75645 0.40157 0.0
C2234 C 0.49639 0.75205 0.37645 0.0
C2235 C 0.51179 0.76918 0.3568 0.0
C2236 C 0.52981 0.7517 0.33802 0.0
C2237 C 0.4922 0.788 0.34167 0.0
C2238 C 0.52894 0.78441 0.37491 0.0
C2239 C 0.52442 0.77648 0.40062 0.0
C2240 C 0.53786 0.78743 0.42099 0.0
C2241 C 0.55626 0.80716 0.41504 0.0
C2242 C 0.56106 0.8161 0.3889 0.0
C2243 C 0.54722 0.80428 0.36858 0.0
H2244 H 0.03986 0.69945 0.62957 0.0
H2245 H 0.05976 0.69395 0.54658 0.0
H2246 H 0.02305 0.72814 0.53741 0.0
H2247 H 0.96633 0.71046 0.62439 0.0
H2248 H 0.96385 0.7332 0.65134 0.0
H2249 H 0.99036 0.70713 0.65 0.0
H2250 H 0.02592 0.74325 0.65426 0.0
H2251 H 0.99923 0.76913 0.65442 0.0
H2252 H 0.02692 0.77002 0.63042 0.0
H2253 H 0.98297 0.76164 0.53748 0.0
H2254 H 0.94541 0.79527 0.54695 0.0
H2255 H 0.95473 0.78185 0.63009 0.0
C2256 C 0.03635 0.70551 0.6095 0.0
C2257 C 0.05214 0.69393 0.58866 0.0
C2258 C 0.04743 0.7024 0.56266 0.0
C2259 C 0.02671 0.72175 0.55733 0.0
C2260 C 0.01125 0.73265 0.5783 0.0
C2261 C 0.01601 0.72502 0.60389 0.0
C2262 C 0.99713 0.74044 0.62291 0.0
C2263 C 0.9783 0.7217 0.63806 0.0
C2264 C 0.01327 0.75668 0.6416 0.0
C2265 C 0.9813 0.75823 0.60408 0.0
C2266 C 0.98934 0.75304 0.57841 0.0
C2267 C 0.97672 0.7661 0.55751 0.0
C2268 C 0.95549 0.7851 0.56302 0.0
C2269 C 0.9475 0.79122 0.58918 0.0
C2270 C 0.9606 0.77758 0.60992 0.0
H2271 H 0.04902 0.31673 0.33643 0.0
H2272 H 0.04928 0.33287 0.41935 0.0
H2273 H 0.01539 0.29873 0.42786 0.0
H2274 H 0.97939 0.30284 0.3319 0.0
H2275 H 0.98555 0.27575 0.30947 0.0
H2276 H 0.00881 0.30217 0.30982 0.0
H2277 H 0.04887 0.26783 0.31771 0.0
H2278 H 0.02578 0.24127 0.3171 0.0
H2279 H 0.04664 0.24474 0.34493 0.0
H2280 H 0.97966 0.26393 0.42669 0.0
H2281 H 0.94846 0.22874 0.41659 0.0
H2282 H 0.97704 0.23072 0.33547 0.0
C2283 C 0.04253 0.31259 0.35646 0.0
C2284 C 0.0523 0.327 0.37736 0.0
C2285 C 0.04225 0.32184 0.40313 0.0
C2286 C 0.02302 0.30251 0.40812 0.0
C2287 C 0.01425 0.28825 0.38712 0.0
C2288 C 0.02402 0.29278 0.36185 0.0
C2289 C 0.01218 0.27406 0.34287 0.0
C2290 C 0.99549 0.28964 0.3223 0.0
C2291 C 0.03471 0.25589 0.32989 0.0
C2292 C 0.99399 0.25844 0.36132 0.0
C2293 C 0.9951 0.26721 0.38671 0.0
C2294 C 0.97895 0.25671 0.40693 0.0
C2295 C 0.96132 0.23673 0.40104 0.0
C2296 C 0.96026 0.22708 0.37526 0.0
C2297 C 0.97718 0.2379 0.3553 0.0
H2298 H 0.44951 0.68671 0.84309 0.0
H2299 H 0.39754 0.70414 0.91145 0.0
H2300 H 0.42212 0.74491 0.91875 0.0
H2301 H 0.50938 0.70371 0.87023 0.0
H2302 H 0.5242 0.718 0.84084 0.0
H2303 H 0.49993 0.69274 0.83861 0.0
H2304 H 0.46978 0.72422 0.80982 0.0
H2305 H 0.4941 0.74958 0.81177 0.0
H2306 H 0.45898 0.75684 0.82153 0.0
H2307 H 0.45565 0.78037 0.92142 0.0
H2308 H 0.49553 0.80809 0.91945 0.0
H2309 H 0.52561 0.76762 0.84901 0.0
C2310 C 0.44303 0.69957 0.85917 0.0
C2311 C 0.42174 0.69271 0.87667 0.0
C2312 C 0.41376 0.70949 0.89779 0.0
C2313 C 0.42757 0.73257 0.90204 0.0
C2314 C 0.4491 0.73851 0.88484 0.0
C2315 C 0.45669 0.72258 0.86373 0.0
C2316 C 0.48198 0.73202 0.84957 0.0
C2317 C 0.50524 0.71033 0.84985 0.0
C2318 C 0.47583 0.74122 0.82151 0.0
C2319 C 0.48791 0.75526 0.86645 0.0
C2320 C 0.46854 0.75889 0.88649 0.0
C2321 C 0.47068 0.77807 0.90553 0.0
C2322 C 0.49335 0.79379 0.90419 0.0
C2323 C 0.51366 0.79012 0.88401 0.0
C2324 C 0.51053 0.77085 0.86473 0.0
H2325 H 0.64762 0.91087 0.79985 0.0
H2326 H 0.56697 0.88114 0.79689 0.0
H2327 H 0.55715 0.91099 0.75901 0.0
H2328 H 0.62934 0.97647 0.78819 0.0
H2329 H 0.65864 0.98437 0.76794 0.0
H2330 H 0.66125 0.95774 0.79176 0.0
H2331 H 0.6783 0.92467 0.75575 0.0
H2332 H 0.67632 0.95131 0.73179 0.0
H2333 H 0.65859 0.92144 0.72708 0.0
H2334 H 0.55383 0.94851 0.72658 0.0
H2335 H 0.55829 0.98839 0.69864 0.0
H2336 H 0.64218 0.99279 0.72105 0.0
C2337 C 0.62837 0.90998 0.79041 0.0
C2338 C 0.60815 0.89352 0.80064 0.0
C2339 C 0.58277 0.89333 0.78873 0.0
C2340 C 0.57703 0.91027 0.76739 0.0
C2341 C 0.59704 0.92705 0.75823 0.0
C2342 C 0.6224 0.92671 0.76902 0.0
C2343 C 0.63952 0.94809 0.75676 0.0
C2344 C 0.64765 0.96783 0.7774 0.0
C2345 C 0.66467 0.93563 0.74196 0.0
C2346 C 0.61951 0.96109 0.73807 0.0
C2347 C 0.5952 0.94857 0.73915 0.0
C2348 C 0.57301 0.95806 0.72503 0.0
C2349 C 0.57581 0.98075 0.7091 0.0
C2350 C 0.60071 0.99372 0.70723 0.0
C2351 C 0.6228 0.98357 0.722 0.0
H2352 H 0.20692 0.33655 0.9528 0.0
H2353 H 0.20838 0.41557 0.91797 0.0
H2354 H 0.24567 0.42621 0.94653 0.0
H2355 H 0.22038 0.35483 0.01848 0.0
H2356 H 0.24207 0.32569 0.02509 0.0
H2357 H 0.21556 0.32417 0.00192 0.0
H2358 H 0.25099 0.30767 0.96632 0.0
H2359 H 0.27759 0.30895 0.98944 0.0
H2360 H 0.28019 0.32689 0.95873 0.0
H2361 H 0.28134 0.42886 0.98004 0.0
H2362 H 0.31535 0.42263 0.01389 0.0
H2363 H 0.29301 0.3408 0.02572 0.0
C2364 C 0.21533 0.35598 0.95112 0.0
C2365 C 0.20502 0.37525 0.93313 0.0
C2366 C 0.21614 0.4006 0.93163 0.0
C2367 C 0.23723 0.40681 0.9478 0.0
C2368 C 0.24697 0.38744 0.96541 0.0
C2369 C 0.23658 0.36246 0.96705 0.0
C2370 C 0.25105 0.3452 0.98742 0.0
C2371 C 0.23107 0.33699 0.00954 0.0
C2372 C 0.26584 0.32073 0.97472 0.0
C2373 C 0.2711 0.36441 0.99706 0.0
C2374 C 0.26824 0.38869 0.98417 0.0
C2375 C 0.28403 0.40981 0.98998 0.0
C2376 C 0.3035 0.40596 0.00918 0.0
C2377 C 0.30741 0.38105 0.02235 0.0
C2378 C 0.29066 0.36011 0.01621 0.0
H2379 H 0.881 0.0754 0.2756 0.0
H2380 H 0.96833 0.07633 0.28334 0.0
H2381 H 0.97469 0.03683 0.25504 0.0
H2382 H 0.8772 0.00504 0.27845 0.0
H2383 H 0.85083 0.00424 0.25501 0.0
H2384 H 0.8533 0.03315 0.27489 0.0
H2385 H 0.85633 0.06309 0.23326 0.0
H2386 H 0.8535 0.03433 0.21326 0.0
H2387 H 0.88196 0.05513 0.20811 0.0
H2388 H 0.97118 0.99724 0.22584 0.0
H2389 H 0.95813 0.96072 0.1978 0.0
H2390 H 0.87305 0.98564 0.21051 0.0
C2391 C 0.90149 0.06757 0.27094 0.0
C2392 C 0.92423 0.07898 0.28133 0.0
C2393 C 0.95069 0.06781 0.27544 0.0
C2394 C 0.95447 0.04544 0.25944 0.0
C2395 C 0.93154 0.03445 0.24977 0.0
C2396 C 0.90558 0.04517 0.2553 0.0
C2397 C 0.88426 0.02933 0.24306 0.0
C2398 C 0.86529 0.01722 0.26411 0.0
C2399 C 0.86807 0.04649 0.22324 0.0
C2400 C 0.90229 0.00808 0.2296 0.0
C2401 C 0.92949 0.01135 0.23364 0.0
C2402 C 0.94995 0.99443 0.22259 0.0
C2403 C 0.94238 0.97382 0.2067 0.0
C2404 C 0.91461 0.97029 0.20221 0.0
C2405 C 0.8944 0.98755 0.21403 0.0
H2406 H 0.21931 0.65217 0.54224 0.0
H2407 H 0.20555 0.56813 0.53473 0.0
H2408 H 0.24431 0.56385 0.5027 0.0
H2409 H 0.23896 0.66549 0.4762 0.0
H2410 H 0.26476 0.68778 0.48422 0.0
H2411 H 0.2356 0.68419 0.50602 0.0
H2412 H 0.26738 0.67164 0.54411 0.0
H2413 H 0.29666 0.67525 0.52244 0.0
H2414 H 0.29249 0.64445 0.54028 0.0
H2415 H 0.28446 0.56925 0.47083 0.0
H2416 H 0.32261 0.58413 0.44212 0.0
H2417 H 0.31179 0.66327 0.47407 0.0
C2418 C 0.22456 0.63273 0.53421 0.0
C2419 C 0.20933 0.61049 0.54107 0.0
C2420 C 0.21663 0.58557 0.52951 0.0
C2421 C 0.23875 0.58289 0.51147 0.0
C2422 C 0.25345 0.60523 0.50542 0.0
C2423 C 0.24669 0.62962 0.51657 0.0
C2424 C 0.26576 0.65056 0.5071 0.0
C2425 C 0.25034 0.67334 0.49252 0.0
C2426 C 0.28151 0.66108 0.52984 0.0
C2427 C 0.28424 0.63424 0.48865 0.0
C2428 C 0.27681 0.60815 0.48781 0.0
C2429 C 0.29048 0.5896 0.47143 0.0
C2430 C 0.31203 0.59814 0.45525 0.0
C2431 C 0.31948 0.62487 0.45564 0.0
C2432 C 0.30591 0.64289 0.47301 0.0
H2433 H 0.71704 0.57937 0.0235 0.0
H2434 H 0.7356 0.65479 0.05682 0.0
H2435 H 0.77204 0.65985 0.0229 0.0
H2436 H 0.78707 0.55797 0.00256 0.0
H2437 H 0.77621 0.54363 0.97289 0.0
H2438 H 0.75396 0.54444 0.00167 0.0
H2439 H 0.71626 0.56918 0.97517 0.0
H2440 H 0.73841 0.56862 0.94639 0.0
H2441 H 0.72353 0.59985 0.95823 0.0
H2442 H 0.803 0.65897 0.98277 0.0
H2443 H 0.82706 0.65143 0.93995 0.0
H2444 H 0.78803 0.57693 0.93271 0.0
C2445 C 0.72896 0.59682 0.02386 0.0
C2446 C 0.72352 0.61666 0.04286 0.0
C2447 C 0.73969 0.63912 0.04273 0.0
C2448 C 0.76033 0.64223 0.02346 0.0
C2449 C 0.76464 0.62262 0.00462 0.0
C2450 C 0.74954 0.60025 0.00479 0.0
C2451 C 0.75701 0.58291 0.98143 0.0
C2452 C 0.7693 0.55562 0.99017 0.0
C2453 C 0.73233 0.57999 0.9643 0.0
C2454 C 0.77819 0.59936 0.96771 0.0
C2455 C 0.78246 0.6221 0.9815 0.0
C2456 C 0.8001 0.64106 0.97201 0.0
C2457 C 0.81361 0.63668 0.94776 0.0
C2458 C 0.80921 0.61367 0.93333 0.0
C2459 C 0.79161 0.59465 0.94354 0.0
H2460 H 0.61441 0.46251 0.27322 0.0
H2461 H 0.69986 0.43692 0.26444 0.0
H2462 H 0.70325 0.46231 0.22298 0.0
H2463 H 0.59872 0.46261 0.20465 0.0
H2464 H 0.5768 0.49241 0.20668 0.0
H2465 H 0.58036 0.4707 0.23486 0.0
H2466 H 0.59494 0.51008 0.26228 0.0
H2467 H 0.591 0.53191 0.2343 0.0
H2468 H 0.62294 0.5292 0.25049 0.0
H2469 H 0.6981 0.49177 0.18341 0.0
H2470 H 0.68556 0.52678 0.15071 0.0
H2471 H 0.60425 0.53451 0.18578 0.0
C2472 C 0.63391 0.46235 0.26273 0.0
C2473 C 0.6568 0.44741 0.27208 0.0
C2474 C 0.68185 0.44767 0.25749 0.0
C2475 C 0.68402 0.4621 0.23391 0.0
C2476 C 0.66101 0.47631 0.22514 0.0
C2477 C 0.63651 0.47682 0.23923 0.0
C2478 C 0.61532 0.49499 0.22625 0.0
C2479 C 0.59138 0.47923 0.2176 0.0
C2480 C 0.60548 0.5179 0.24441 0.0
C2481 C 0.63188 0.50494 0.20289 0.0
C2482 C 0.65809 0.4936 0.20241 0.0
C2483 C 0.67757 0.50057 0.18339 0.0
C2484 C 0.6703 0.52025 0.16485 0.0
C2485 C 0.6439 0.53268 0.16563 0.0
C2486 C 0.62433 0.52464 0.18453 0.0
H2487 H 0.79206 0.37046 0.52784 0.0
H2488 H 0.82138 0.44784 0.50579 0.0
H2489 H 0.79142 0.44999 0.46819 0.0
H2490 H 0.78607 0.34659 0.46207 0.0
H2491 H 0.75536 0.32962 0.46958 0.0
H2492 H 0.77948 0.33374 0.49465 0.0
H2493 H 0.7416 0.35677 0.52411 0.0
H2494 H 0.71735 0.3526 0.49919 0.0
H2495 H 0.72217 0.38527 0.5116 0.0
H2496 H 0.75794 0.44428 0.43314 0.0
H2497 H 0.72206 0.43142 0.40383 0.0
H2498 H 0.71348 0.35822 0.44839 0.0
C2499 C 0.79203 0.38796 0.51523 0.0
C2500 C 0.80929 0.40895 0.51983 0.0
C2501 C 0.80876 0.43131 0.50257 0.0
C2502 C 0.7917 0.43278 0.48116 0.0
C2503 C 0.77514 0.41173 0.4771 0.0
C2504 C 0.77508 0.38976 0.49366 0.0
C2505 C 0.75505 0.37001 0.48494 0.0
C2506 C 0.76988 0.34342 0.47736 0.0
C2507 C 0.73272 0.36593 0.50623 0.0
C2508 C 0.74364 0.38449 0.46111 0.0
C2509 C 0.75569 0.40846 0.45688 0.0
C2510 C 0.7484 0.42555 0.43625 0.0
C2511 C 0.72809 0.41812 0.41969 0.0
C2512 C 0.71516 0.39391 0.42389 0.0
C2513 C 0.72322 0.37679 0.44474 0.0
H2514 H 0.86758 0.57835 0.74209 0.0
H2515 H 0.91213 0.52848 0.79768 0.0
H2516 H 0.92283 0.49533 0.76324 0.0
H2517 H 0.8358 0.52764 0.71272 0.0
H2518 H 0.8375 0.5417 0.6801 0.0
H2519 H 0.83693 0.56315 0.70789 0.0
H2520 H 0.88181 0.58304 0.69069 0.0
H2521 H 0.88255 0.56161 0.66274 0.0
H2522 H 0.91125 0.56118 0.68362 0.0
H2523 H 0.92387 0.46535 0.72455 0.0
H2524 H 0.91491 0.44083 0.68443 0.0
H2525 H 0.86907 0.5098 0.65447 0.0
C2526 C 0.87977 0.56055 0.74701 0.0
C2527 C 0.88899 0.556 0.7726 0.0
C2528 C 0.90515 0.53259 0.77813 0.0
C2529 C 0.9113 0.51362 0.75871 0.0
C2530 C 0.90134 0.51851 0.73384 0.0
C2531 C 0.88605 0.54148 0.72791 0.0
C2532 C 0.876 0.54111 0.70034 0.0
C2533 C 0.84471 0.54353 0.70028 0.0
C2534 C 0.88866 0.56303 0.68334 0.0
C2535 C 0.88694 0.51376 0.69204 0.0
C2536 C 0.90194 0.50123 0.71147 0.0
C2537 C 0.91259 0.47513 0.70903 0.0
C2538 C 0.90741 0.46137 0.68632 0.0
C2539 C 0.89167 0.47375 0.66656 0.0
C2540 C 0.88163 0.5003 0.66924 0.0
H2541 H 0.53322 0.16658 0.68164 0.0
H2542 H 0.56946 0.16967 0.60327 0.0
H2543 H 0.5457 0.21362 0.59564 0.0
H2544 H 0.46827 0.19646 0.6664 0.0
H2545 H 0.46399 0.21502 0.69624 0.0
H2546 H 0.48437 0.18422 0.69563 0.0
H2547 H 0.52524 0.20839 0.71265 0.0
H2548 H 0.50496 0.23928 0.71335 0.0
H2549 H 0.53701 0.2372 0.69511 0.0
H2550 H 0.51653 0.25626 0.59616 0.0
H2551 H 0.48441 0.29462 0.60448 0.0
H2552 H 0.46882 0.26499 0.68361 0.0
C2553 C 0.53625 0.17673 0.66301 0.0
C2554 C 0.55322 0.16506 0.64305 0.0
C2555 C 0.55654 0.17852 0.61874 0.0
C2556 C 0.54319 0.20342 0.6143 0.0
C2557 C 0.52663 0.21455 0.63441 0.0
C2558 C 0.52318 0.20169 0.65832 0.0
C2559 C 0.504 0.21786 0.67651 0.0
C2560 C 0.47866 0.20247 0.68413 0.0
C2561 C 0.51869 0.22618 0.70084 0.0
C2562 C 0.49693 0.24165 0.65902 0.0
C2563 C 0.51023 0.23936 0.63485 0.0
C2564 C 0.50627 0.25844 0.61514 0.0
C2565 C 0.48809 0.28033 0.62018 0.0
C2566 C 0.47409 0.28318 0.64482 0.0
C2567 C 0.47892 0.26352 0.66449 0.0
loop_
_geom_bond_atom_site_label_1
_geom_bond_atom_site_label_2
_geom_bond_distance
_geom_bond_site_symmetry_2
_ccdc_geom_bond_type
C0 C1 1.443 . S
C0 N4 1.376 . S
C0 C38 1.389 . S
C1 C0 1.443 . S
C1 C2 1.340 . S
C1 H41 0.951 . S
C2 C1 1.340 . S
C2 C3 1.439 . S
C2 H42 0.950 . S
C3 C2 1.439 . S
C3 N4 1.374 . S
C3 C37 1.395 . S
N4 C0 1.376 . S
N4 C3 1.374 . S
N4 Co5 2.008 . S
Co5 N4 2.008 . S
Co5 N6 1.995 . S
Co5 N11 2.008 . S
Co5 N16 1.995 . S
Co5 N21 2.282 . S
Co5 N27 2.282 . S
N6 Co5 1.995 . S
N6 C7 1.376 . S
N6 C10 1.383 . S
C7 N6 1.376 . S
C7 C8 1.446 . S
C7 C37 1.391 . S
C8 C7 1.446 . S
C8 C9 1.339 . S
C8 H43 0.949 . S
C9 C8 1.339 . S
C9 C10 1.439 . S
C9 H44 0.950 . S
C10 N6 1.383 . S
C10 C9 1.439 . S
C10 C39 1.392 . S
N11 Co5 2.008 . S
N11 C12 1.376 . S
N11 C15 1.374 . S
C12 N11 1.376 . S
C12 C13 1.443 . S
C12 C39 1.389 . S
C13 C12 1.443 . S
C13 C14 1.340 . S
C13 H45 0.951 . S
C14 C13 1.340 . S
C14 C15 1.439 . S
C14 H46 0.950 . S
C15 N11 1.374 . S
C15 C14 1.439 . S
C15 C40 1.395 . S
N16 Co5 1.995 . S
N16 C17 1.376 . S
N16 C20 1.383 . S
C17 N16 1.376 . S
C17 C18 1.446 . S
C17 C40 1.391 . S
C18 C17 1.446 . S
C18 C19 1.339 . S
C18 H47 0.949 . S
C19 C18 1.339 . S
C19 C20 1.439 . S
C19 H48 0.950 . S
C20 N16 1.383 . S
C20 C19 1.439 . S
C20 C38 1.392 . S
N21 Co5 2.282 . S
N21 C24 1.332 . S
N21 C26 1.332 . S
C22 C23 1.386 . S
C22 C25 1.388 . S
C23 C22 1.386 . S
C23 C24 1.382 . S
C23 H49 0.950 . S
C24 N21 1.332 . S
C24 C23 1.382 . S
C24 H35 0.952 . S
C25 C22 1.388 . S
C25 C26 1.382 . S
C25 H50 0.950 . S
C26 N21 1.332 . S
C26 C25 1.382 . S
C26 H36 0.948 . S
N27 Co5 2.282 . S
N27 C31 1.332 . S
N27 C32 1.332 . S
C28 C29 1.388 . S
C28 C32 1.382 . S
C28 H51 0.950 . S
C29 C28 1.388 . S
C29 C30 1.386 . S
C30 C29 1.386 . S
C30 C31 1.382 . S
C30 H52 0.950 . S
C31 N27 1.332 . S
C31 C30 1.382 . S
C31 H33 0.952 . S
C32 N27 1.332 . S
C32 C28 1.382 . S
C32 H34 0.948 . S
H33 C31 0.952 . S
H34 C32 0.948 . S
H35 C24 0.952 . S
H36 C26 0.948 . S
C37 C3 1.395 . S
C37 C7 1.391 . S
C38 C0 1.389 . S
C38 C20 1.392 . S
C39 C10 1.392 . S
C39 C12 1.389 . S
C40 C15 1.395 . S
C40 C17 1.391 . S
H41 C1 0.951 . S
H42 C2 0.950 . S
H43 C8 0.949 . S
H44 C9 0.950 . S
H45 C13 0.951 . S
H46 C14 0.950 . S
H47 C18 0.949 . S
H48 C19 0.950 . S
H49 C23 0.950 . S
H50 C25 0.950 . S
H51 C28 0.950 . S
H52 C30 0.950 . S
C53 C54 1.443 . S
C53 N57 1.376 . S
C53 C91 1.389 . S
C54 C53 1.443 . S
C54 C55 1.340 . S
C54 H94 0.951 . S
C55 C54 1.340 . S
C55 C56 1.439 . S
C55 H95 0.950 . S
C56 C55 1.439 . S
C56 N57 1.374 . S
C56 C90 1.395 . S
N57 C53 1.376 . S
N57 C56 1.374 . S
N57 Co58 2.008 . S
Co58 N57 2.008 . S
Co58 N59 1.995 . S
Co58 N64 2.008 . S
Co58 N69 1.995 . S
Co58 N74 2.282 . S
Co58 N80 2.282 . S
N59 Co58 1.995 . S
N59 C60 1.376 . S
N59 C63 1.383 . S
C60 N59 1.376 . S
C60 C61 1.446 . S
C60 C90 1.391 . S
C61 C60 1.446 . S
C61 C62 1.339 . S
C61 H96 0.949 . S
C62 C61 1.339 . S
C62 C63 1.439 . S
C62 H97 0.950 . S
C63 N59 1.383 . S
C63 C62 1.439 . S
C63 C92 1.392 . S
N64 Co58 2.008 . S
N64 C65 1.376 . S
N64 C68 1.374 . S
C65 N64 1.376 . S
C65 C66 1.443 . S
C65 C92 1.389 . S
C66 C65 1.443 . S
C66 C67 1.340 . S
C66 H98 0.951 . S
C67 C66 1.340 . S
C67 C68 1.439 . S
C67 H99 0.950 . S
C68 N64 1.374 . S
C68 C67 1.439 . S
C68 C93 1.395 . S
N69 Co58 1.995 . S
N69 C70 1.376 . S
N69 C73 1.383 . S
C70 N69 1.376 . S
C70 C71 1.446 . S
C70 C93 1.391 . S
C71 C70 1.446 . S
C71 C72 1.339 . S
C71 H100 0.949 . S
C72 C71 1.339 . S
C72 C73 1.439 . S
C72 H101 0.950 . S
C73 N69 1.383 . S
C73 C72 1.439 . S
C73 C91 1.392 . S
N74 Co58 2.282 . S
N74 C77 1.332 . S
N74 C79 1.332 . S
C75 C76 1.386 . S
C75 C78 1.388 . S
C76 C75 1.386 . S
C76 C77 1.382 . S
C76 H102 0.950 . S
C77 N74 1.332 . S
C77 C76 1.382 . S
C77 H88 0.952 . S
C78 C75 1.388 . S
C78 C79 1.382 . S
C78 H103 0.950 . S
C79 N74 1.332 . S
C79 C78 1.382 . S
C79 H89 0.948 . S
N80 Co58 2.282 . S
N80 C84 1.332 . S
N80 C85 1.332 . S
C81 C82 1.388 . S
C81 C85 1.382 . S
C81 H104 0.950 . S
C82 C81 1.388 . S
C82 C83 1.386 . S
C83 C82 1.386 . S
C83 C84 1.382 . S
C83 H105 0.950 . S
C84 N80 1.332 . S
C84 C83 1.382 . S
C84 H86 0.952 . S
C85 N80 1.332 . S
C85 C81 1.382 . S
C85 H87 0.948 . S
H86 C84 0.952 . S
H87 C85 0.948 . S
H88 C77 0.952 . S
H89 C79 0.948 . S
C90 C56 1.395 . S
C90 C60 1.391 . S
C91 C53 1.389 . S
C91 C73 1.392 . S
C92 C63 1.392 . S
C92 C65 1.389 . S
C93 C68 1.395 . S
C93 C70 1.391 . S
H94 C54 0.951 . S
H95 C55 0.950 . S
H96 C61 0.949 . S
H97 C62 0.950 . S
H98 C66 0.951 . S
H99 C67 0.950 . S
H100 C71 0.949 . S
H101 C72 0.950 . S
H102 C76 0.950 . S
H103 C78 0.950 . S
H104 C81 0.950 . S
H105 C83 0.950 . S
C106 C107 1.443 . S
C106 N110 1.376 . S
C106 C144 1.389 . S
C107 C106 1.443 . S
C107 C108 1.340 . S
C107 H147 0.951 . S
C108 C107 1.340 . S
C108 C109 1.439 . S
C108 H148 0.950 . S
C109 C108 1.439 . S
C109 N110 1.374 . S
C109 C143 1.395 . S
N110 C106 1.376 . S
N110 C109 1.374 . S
N110 Co111 2.008 . S
Co111 N110 2.008 . S
Co111 N112 1.995 . S
Co111 N117 2.008 . S
Co111 N122 1.995 . S
Co111 N127 2.282 . S
Co111 N133 2.282 . S
N112 Co111 1.995 . S
N112 C113 1.376 . S
N112 C116 1.383 . S
C113 N112 1.376 . S
C113 C114 1.446 . S
C113 C143 1.391 . S
C114 C113 1.446 . S
C114 C115 1.339 . S
C114 H149 0.949 . S
C115 C114 1.339 . S
C115 C116 1.439 . S
C115 H150 0.950 . S
C116 N112 1.383 . S
C116 C115 1.439 . S
C116 C145 1.392 . S
N117 Co111 2.008 . S
N117 C118 1.376 . S
N117 C121 1.374 . S
C118 N117 1.376 . S
C118 C119 1.443 . S
C118 C145 1.389 . S
C119 C118 1.443 . S
C119 C120 1.340 . S
C119 H151 0.951 . S
C120 C119 1.340 . S
C120 C121 1.439 . S
C120 H152 0.950 . S
C121 N117 1.374 . S
C121 C120 1.439 . S
C121 C146 1.395 . S
N122 Co111 1.995 . S
N122 C123 1.376 . S
N122 C126 1.383 . S
C123 N122 1.376 . S
C123 C124 1.446 . S
C123 C146 1.391 . S
C124 C123 1.446 . S
C124 C125 1.339 . S
C124 H153 0.949 . S
C125 C124 1.339 . S
C125 C126 1.439 . S
C125 H154 0.950 . S
C126 N122 1.383 . S
C126 C125 1.439 . S
C126 C144 1.392 . S
N127 Co111 2.282 . S
N127 C130 1.332 . S
N127 C132 1.332 . S
C128 C129 1.386 . S
C128 C131 1.388 . S
C129 C128 1.386 . S
C129 C130 1.382 . S
C129 H155 0.950 . S
C130 N127 1.332 . S
C130 C129 1.382 . S
C130 H141 0.952 . S
C131 C128 1.388 . S
C131 C132 1.382 . S
C131 H156 0.950 . S
C132 N127 1.332 . S
C132 C131 1.382 . S
C132 H142 0.948 . S
N133 Co111 2.282 . S
N133 C137 1.332 . S
N133 C138 1.332 . S
C134 C135 1.388 . S
C134 C138 1.382 . S
C134 H157 0.950 . S
C135 C134 1.388 . S
C135 C136 1.386 . S
C136 C135 1.386 . S
C136 C137 1.382 . S
C136 H158 0.950 . S
C137 N133 1.332 . S
C137 C136 1.382 . S
C137 H139 0.952 . S
C138 N133 1.332 . S
C138 C134 1.382 . S
C138 H140 0.948 . S
H139 C137 0.952 . S
H140 C138 0.948 . S
H141 C130 0.952 . S
H142 C132 0.948 . S
C143 C109 1.395 . S
C143 C113 1.391 . S
C144 C106 1.389 . S
C144 C126 1.392 . S
C145 C116 1.392 . S
C145 C118 1.389 . S
C146 C121 1.395 . S
C146 C123 1.391 . S
H147 C107 0.951 . S
H148 C108 0.950 . S
H149 C114 0.949 . S
H150 C115 0.950 . S
H151 C119 0.951 . S
H152 C120 0.950 . S
H153 C124 0.949 . S
H154 C125 0.950 . S
H155 C129 0.950 . S
H156 C131 0.950 . S
H157 C134 0.950 . S
H158 C136 0.950 . S
C159 C160 1.443 . S
C159 N163 1.376 . S
C159 C197 1.389 . S
C160 C159 1.443 . S
C160 C161 1.340 . S
C160 H200 0.951 . S
C161 C160 1.340 . S
C161 C162 1.439 . S
C161 H201 0.950 . S
C162 C161 1.439 . S
C162 N163 1.374 . S
C162 C196 1.395 . S
N163 C159 1.376 . S
N163 C162 1.374 . S
N163 Co164 2.008 . S
Co164 N163 2.008 . S
Co164 N165 1.995 . S
Co164 N170 2.008 . S
Co164 N175 1.995 . S
Co164 N180 2.282 . S
Co164 N186 2.282 . S
N165 Co164 1.995 . S
N165 C166 1.376 . S
N165 C169 1.383 . S
C166 N165 1.376 . S
C166 C167 1.446 . S
C166 C196 1.391 . S
C167 C166 1.446 . S
C167 C168 1.339 . S
C167 H202 0.949 . S
C168 C167 1.339 . S
C168 C169 1.439 . S
C168 H203 0.950 . S
C169 N165 1.383 . S
C169 C168 1.439 . S
C169 C198 1.392 . S
N170 Co164 2.008 . S
N170 C171 1.376 . S
N170 C174 1.374 . S
C171 N170 1.376 . S
C171 C172 1.443 . S
C171 C198 1.389 . S
C172 C171 1.443 . S
C172 C173 1.340 . S
C172 H204 0.951 . S
C173 C172 1.340 . S
C173 C174 1.439 . S
C173 H205 0.950 . S
C174 N170 1.374 . S
C174 C173 1.439 . S
C174 C199 1.395 . S
N175 Co164 1.995 . S
N175 C176 1.376 . S
N175 C179 1.383 . S
C176 N175 1.376 . S
C176 C177 1.446 . S
C176 C199 1.391 . S
C177 C176 1.446 . S
C177 C178 1.339 . S
C177 H206 0.949 . S
C178 C177 1.339 . S
C178 C179 1.439 . S
C178 H207 0.950 . S
C179 N175 1.383 . S
C179 C178 1.439 . S
C179 C197 1.392 . S
N180 Co164 2.282 . S
N180 C183 1.332 . S
N180 C185 1.332 . S
C181 C182 1.386 . S
C181 C184 1.388 . S
C182 C181 1.386 . S
C182 C183 1.382 . S
C182 H208 0.950 . S
C183 N180 1.332 . S
C183 C182 1.382 . S
C183 H194 0.952 . S
C184 C181 1.388 . S
C184 C185 1.382 . S
C184 H209 0.950 . S
C185 N180 1.332 . S
C185 C184 1.382 . S
C185 H195 0.948 . S
N186 Co164 2.282 . S
N186 C190 1.332 . S
N186 C191 1.332 . S
C187 C188 1.388 . S
C187 C191 1.382 . S
C187 H210 0.950 . S
C188 C187 1.388 . S
C188 C189 1.386 . S
C189 C188 1.386 . S
C189 C190 1.382 . S
C189 H211 0.950 . S
C190 N186 1.332 . S
C190 C189 1.382 . S
C190 H192 0.952 . S
C191 N186 1.332 . S
C191 C187 1.382 . S
C191 H193 0.948 . S
H192 C190 0.952 . S
H193 C191 0.948 . S
H194 C183 0.952 . S
H195 C185 0.948 . S
C196 C162 1.395 . S
C196 C166 1.391 . S
C197 C159 1.389 . S
C197 C179 1.392 . S
C198 C169 1.392 . S
C198 C171 1.389 . S
C199 C174 1.395 . S
C199 C176 1.391 . S
H200 C160 0.951 . S
H201 C161 0.950 . S
H202 C167 0.949 . S
H203 C168 0.950 . S
H204 C172 0.951 . S
H205 C173 0.950 . S
H206 C177 0.949 . S
H207 C178 0.950 . S
H208 C182 0.950 . S
H209 C184 0.950 . S
H210 C187 0.950 . S
H211 C189 0.950 . S
C212 C213 1.443 . S
C212 N216 1.376 . S
C212 C250 1.389 . S
C213 C212 1.443 . S
C213 C214 1.340 . S
C213 H253 0.951 . S
C214 C213 1.340 . S
C214 C215 1.439 . S
C214 H254 0.950 . S
C215 C214 1.439 . S
C215 N216 1.374 . S
C215 C249 1.395 . S
N216 C212 1.376 . S
N216 C215 1.374 . S
N216 Co217 2.008 . S
Co217 N216 2.008 . S
Co217 N218 1.995 . S
Co217 N223 2.008 . S
Co217 N228 1.995 . S
Co217 N233 2.282 . S
Co217 N239 2.282 . S
N218 Co217 1.995 . S
N218 C219 1.376 . S
N218 C222 1.383 . S
C219 N218 1.376 . S
C219 C220 1.446 . S
C219 C249 1.391 . S
C220 C219 1.446 . S
C220 C221 1.339 . S
C220 H255 0.949 . S
C221 C220 1.339 . S
C221 C222 1.439 . S
C221 H256 0.950 . S
C222 N218 1.383 . S
C222 C221 1.439 . S
C222 C251 1.392 . S
N223 Co217 2.008 . S
N223 C224 1.376 . S
N223 C227 1.374 . S
C224 N223 1.376 . S
C224 C225 1.443 . S
C224 C251 1.389 . S
C225 C224 1.443 . S
C225 C226 1.340 . S
C225 H257 0.951 . S
C226 C225 1.340 . S
C226 C227 1.439 . S
C226 H258 0.950 . S
C227 N223 1.374 . S
C227 C226 1.439 . S
C227 C252 1.395 . S
N228 Co217 1.995 . S
N228 C229 1.376 . S
N228 C232 1.383 . S
C229 N228 1.376 . S
C229 C230 1.446 . S
C229 C252 1.391 . S
C230 C229 1.446 . S
C230 C231 1.339 . S
C230 H259 0.949 . S
C231 C230 1.339 . S
C231 C232 1.439 . S
C231 H260 0.950 . S
C232 N228 1.383 . S
C232 C231 1.439 . S
C232 C250 1.392 . S
N233 Co217 2.282 . S
N233 C236 1.332 . S
N233 C238 1.332 . S
C234 C235 1.386 . S
C234 C237 1.388 . S
C235 C234 1.386 . S
C235 C236 1.382 . S
C235 H261 0.950 . S
C236 N233 1.332 . S
C236 C235 1.382 . S
C236 H247 0.952 . S
C237 C234 1.388 . S
C237 C238 1.382 . S
C237 H262 0.950 . S
C238 N233 1.332 . S
C238 C237 1.382 . S
C238 H248 0.948 . S
N239 Co217 2.282 . S
N239 C243 1.332 . S
N239 C244 1.332 . S
C240 C241 1.388 . S
C240 C244 1.382 . S
C240 H263 0.950 . S
C241 C240 1.388 . S
C241 C242 1.386 . S
C242 C241 1.386 . S
C242 C243 1.382 . S
C242 H264 0.950 . S
C243 N239 1.332 . S
C243 C242 1.382 . S
C243 H245 0.952 . S
C244 N239 1.332 . S
C244 C240 1.382 . S
C244 H246 0.948 . S
H245 C243 0.952 . S
H246 C244 0.948 . S
H247 C236 0.952 . S
H248 C238 0.948 . S
C249 C215 1.395 . S
C249 C219 1.391 . S
C250 C212 1.389 . S
C250 C232 1.392 . S
C251 C222 1.392 . S
C251 C224 1.389 . S
C252 C227 1.395 . S
C252 C229 1.391 . S
H253 C213 0.951 . S
H254 C214 0.950 . S
H255 C220 0.949 . S
H256 C221 0.950 . S
H257 C225 0.951 . S
H258 C226 0.950 . S
H259 C230 0.949 . S
H260 C231 0.950 . S
H261 C235 0.950 . S
H262 C237 0.950 . S
H263 C240 0.950 . S
H264 C242 0.950 . S
C265 C266 1.443 . S
C265 N269 1.376 . S
C265 C303 1.389 . S
C266 C265 1.443 . S
C266 C267 1.340 . S
C266 H306 0.951 . S
C267 C266 1.340 . S
C267 C268 1.439 . S
C267 H307 0.950 . S
C268 C267 1.439 . S
C268 N269 1.374 . S
C268 C302 1.395 . S
N269 C265 1.376 . S
N269 C268 1.374 . S
N269 Co270 2.008 . S
Co270 N269 2.008 . S
Co270 N271 1.995 . S
Co270 N276 2.008 . S
Co270 N281 1.995 . S
Co270 N286 2.282 . S
Co270 N292 2.282 . S
N271 Co270 1.995 . S
N271 C272 1.376 . S
N271 C275 1.383 . S
C272 N271 1.376 . S
C272 C273 1.446 . S
C272 C302 1.391 . S
C273 C272 1.446 . S
C273 C274 1.339 . S
C273 H308 0.949 . S
C274 C273 1.339 . S
C274 C275 1.439 . S
C274 H309 0.950 . S
C275 N271 1.383 . S
C275 C274 1.439 . S
C275 C304 1.392 . S
N276 Co270 2.008 . S
N276 C277 1.376 . S
N276 C280 1.374 . S
C277 N276 1.376 . S
C277 C278 1.443 . S
C277 C304 1.389 . S
C278 C277 1.443 . S
C278 C279 1.340 . S
C278 H310 0.951 . S
C279 C278 1.340 . S
C279 C280 1.439 . S
C279 H311 0.950 . S
C280 N276 1.374 . S
C280 C279 1.439 . S
C280 C305 1.395 . S
N281 Co270 1.995 . S
N281 C282 1.376 . S
N281 C285 1.383 . S
C282 N281 1.376 . S
C282 C283 1.446 . S
C282 C305 1.391 . S
C283 C282 1.446 . S
C283 C284 1.339 . S
C283 H312 0.949 . S
C284 C283 1.339 . S
C284 C285 1.439 . S
C284 H313 0.950 . S
C285 N281 1.383 . S
C285 C284 1.439 . S
C285 C303 1.392 . S
N286 Co270 2.282 . S
N286 C289 1.332 . S
N286 C291 1.332 . S
C287 C288 1.386 . S
C287 C290 1.388 . S
C288 C287 1.386 . S
C288 C289 1.382 . S
C288 H314 0.950 . S
C289 N286 1.332 . S
C289 C288 1.382 . S
C289 H300 0.952 . S
C290 C287 1.388 . S
C290 C291 1.382 . S
C290 H315 0.950 . S
C291 N286 1.332 . S
C291 C290 1.382 . S
C291 H301 0.948 . S
N292 Co270 2.282 . S
N292 C296 1.332 . S
N292 C297 1.332 . S
C293 C294 1.388 . S
C293 C297 1.382 . S
C293 H316 0.950 . S
C294 C293 1.388 . S
C294 C295 1.386 . S
C295 C294 1.386 . S
C295 C296 1.382 . S
C295 H317 0.950 . S
C296 N292 1.332 . S
C296 C295 1.382 . S
C296 H298 0.952 . S
C297 N292 1.332 . S
C297 C293 1.382 . S
C297 H299 0.948 . S
H298 C296 0.952 . S
H299 C297 0.948 . S
H300 C289 0.952 . S
H301 C291 0.948 . S
C302 C268 1.395 . S
C302 C272 1.391 . S
C303 C265 1.389 . S
C303 C285 1.392 . S
C304 C275 1.392 . S
C304 C277 1.389 . S
C305 C280 1.395 . S
C305 C282 1.391 . S
H306 C266 0.951 . S
H307 C267 0.950 . S
H308 C273 0.949 . S
H309 C274 0.950 . S
H310 C278 0.951 . S
H311 C279 0.950 . S
H312 C283 0.949 . S
H313 C284 0.950 . S
H314 C288 0.950 . S
H315 C290 0.950 . S
H316 C293 0.950 . S
H317 C295 0.950 . S
C318 C319 1.443 . S
C318 N322 1.376 . S
C318 C356 1.389 . S
C319 C318 1.443 . S
C319 C320 1.340 . S
C319 H359 0.951 . S
C320 C319 1.340 . S
C320 C321 1.439 . S
C320 H360 0.950 . S
C321 C320 1.439 . S
C321 N322 1.374 . S
C321 C355 1.395 . S
N322 C318 1.376 . S
N322 C321 1.374 . S
N322 Co323 2.008 . S
Co323 N322 2.008 . S
Co323 N324 1.995 . S
Co323 N329 2.008 . S
Co323 N334 1.995 . S
Co323 N339 2.282 . S
Co323 N345 2.282 . S
N324 Co323 1.995 . S
N324 C325 1.376 . S
N324 C328 1.383 . S
C325 N324 1.376 . S
C325 C326 1.446 . S
C325 C355 1.391 . S
C326 C325 1.446 . S
C326 C327 1.339 . S
C326 H361 0.949 . S
C327 C326 1.339 . S
C327 C328 1.439 . S
C327 H362 0.950 . S
C328 N324 1.383 . S
C328 C327 1.439 . S
C328 C357 1.392 . S
N329 Co323 2.008 . S
N329 C330 1.376 . S
N329 C333 1.374 . S
C330 N329 1.376 . S
C330 C331 1.443 . S
C330 C357 1.389 . S
C331 C330 1.443 . S
C331 C332 1.340 . S
C331 H363 0.951 . S
C332 C331 1.340 . S
C332 C333 1.439 . S
C332 H364 0.950 . S
C333 N329 1.374 . S
C333 C332 1.439 . S
C333 C358 1.395 . S
N334 Co323 1.995 . S
N334 C335 1.376 . S
N334 C338 1.383 . S
C335 N334 1.376 . S
C335 C336 1.446 . S
C335 C358 1.391 . S
C336 C335 1.446 . S
C336 C337 1.339 . S
C336 H365 0.949 . S
C337 C336 1.339 . S
C337 C338 1.439 . S
C337 H366 0.950 . S
C338 N334 1.383 . S
C338 C337 1.439 . S
C338 C356 1.392 . S
N339 Co323 2.282 . S
N339 C342 1.332 . S
N339 C344 1.332 . S
C340 C341 1.386 . S
C340 C343 1.388 . S
C341 C340 1.386 . S
C341 C342 1.382 . S
C341 H367 0.950 . S
C342 N339 1.332 . S
C342 C341 1.382 . S
C342 H353 0.952 . S
C343 C340 1.388 . S
C343 C344 1.382 . S
C343 H368 0.950 . S
C344 N339 1.332 . S
C344 C343 1.382 . S
C344 H354 0.948 . S
N345 Co323 2.282 . S
N345 C349 1.332 . S
N345 C350 1.332 . S
C346 C347 1.388 . S
C346 C350 1.382 . S
C346 H369 0.950 . S
C347 C346 1.388 . S
C347 C348 1.386 . S
C348 C347 1.386 . S
C348 C349 1.382 . S
C348 H370 0.950 . S
C349 N345 1.332 . S
C349 C348 1.382 . S
C349 H351 0.952 . S
C350 N345 1.332 . S
C350 C346 1.382 . S
C350 H352 0.948 . S
H351 C349 0.952 . S
H352 C350 0.948 . S
H353 C342 0.952 . S
H354 C344 0.948 . S
C355 C321 1.395 . S
C355 C325 1.391 . S
C356 C318 1.389 . S
C356 C338 1.392 . S
C357 C328 1.392 . S
C357 C330 1.389 . S
C358 C333 1.395 . S
C358 C335 1.391 . S
H359 C319 0.951 . S
H360 C320 0.950 . S
H361 C326 0.949 . S
H362 C327 0.950 . S
H363 C331 0.951 . S
H364 C332 0.950 . S
H365 C336 0.949 . S
H366 C337 0.950 . S
H367 C341 0.950 . S
H368 C343 0.950 . S
H369 C346 0.950 . S
H370 C348 0.950 . S
C371 C372 1.443 . S
C371 N375 1.376 . S
C371 C409 1.389 . S
C372 C371 1.443 . S
C372 C373 1.340 . S
C372 H412 0.951 . S
C373 C372 1.340 . S
C373 C374 1.439 . S
C373 H413 0.950 . S
C374 C373 1.439 . S
C374 N375 1.374 . S
C374 C408 1.395 . S
N375 C371 1.376 . S
N375 C374 1.374 . S
N375 Co376 2.008 . S
Co376 N375 2.008 . S
Co376 N377 1.995 . S
Co376 N382 2.008 . S
Co376 N387 1.995 . S
Co376 N392 2.282 . S
Co376 N398 2.282 . S
N377 Co376 1.995 . S
N377 C378 1.376 . S
N377 C381 1.383 . S
C378 N377 1.376 . S
C378 C379 1.446 . S
C378 C408 1.391 . S
C379 C378 1.446 . S
C379 C380 1.339 . S
C379 H414 0.949 . S
C380 C379 1.339 . S
C380 C381 1.439 . S
C380 H415 0.950 . S
C381 N377 1.383 . S
C381 C380 1.439 . S
C381 C410 1.392 . S
N382 Co376 2.008 . S
N382 C383 1.376 . S
N382 C386 1.374 . S
C383 N382 1.376 . S
C383 C384 1.443 . S
C383 C410 1.389 . S
C384 C383 1.443 . S
C384 C385 1.340 . S
C384 H416 0.951 . S
C385 C384 1.340 . S
C385 C386 1.439 . S
C385 H417 0.950 . S
C386 N382 1.374 . S
C386 C385 1.439 . S
C386 C411 1.395 . S
N387 Co376 1.995 . S
N387 C388 1.376 . S
N387 C391 1.383 . S
C388 N387 1.376 . S
C388 C389 1.446 . S
C388 C411 1.391 . S
C389 C388 1.446 . S
C389 C390 1.339 . S
C389 H418 0.949 . S
C390 C389 1.339 . S
C390 C391 1.439 . S
C390 H419 0.950 . S
C391 N387 1.383 . S
C391 C390 1.439 . S
C391 C409 1.392 . S
N392 Co376 2.282 . S
N392 C395 1.332 . S
N392 C397 1.332 . S
C393 C394 1.386 . S
C393 C396 1.388 . S
C394 C393 1.386 . S
C394 C395 1.382 . S
C394 H420 0.950 . S
C395 N392 1.332 . S
C395 C394 1.382 . S
C395 H406 0.952 . S
C396 C393 1.388 . S
C396 C397 1.382 . S
C396 H421 0.950 . S
C397 N392 1.332 . S
C397 C396 1.382 . S
C397 H407 0.948 . S
N398 Co376 2.282 . S
N398 C402 1.332 . S
N398 C403 1.332 . S
C399 C400 1.388 . S
C399 C403 1.382 . S
C399 H422 0.950 . S
C400 C399 1.388 . S
C400 C401 1.386 . S
C401 C400 1.386 . S
C401 C402 1.382 . S
C401 H423 0.950 . S
C402 N398 1.332 . S
C402 C401 1.382 . S
C402 H404 0.952 . S
C403 N398 1.332 . S
C403 C399 1.382 . S
C403 H405 0.948 . S
H404 C402 0.952 . S
H405 C403 0.948 . S
H406 C395 0.952 . S
H407 C397 0.948 . S
C408 C374 1.395 . S
C408 C378 1.391 . S
C409 C371 1.389 . S
C409 C391 1.392 . S
C410 C381 1.392 . S
C410 C383 1.389 . S
C411 C386 1.395 . S
C411 C388 1.391 . S
H412 C372 0.951 . S
H413 C373 0.950 . S
H414 C379 0.949 . S
H415 C380 0.950 . S
H416 C384 0.951 . S
H417 C385 0.950 . S
H418 C389 0.949 . S
H419 C390 0.950 . S
H420 C394 0.950 . S
H421 C396 0.950 . S
H422 C399 0.950 . S
H423 C401 0.950 . S
C424 C425 1.443 . S
C424 N428 1.376 . S
C424 C462 1.389 . S
C425 C424 1.443 . S
C425 C426 1.340 . S
C425 H465 0.951 . S
C426 C425 1.340 . S
C426 C427 1.439 . S
C426 H466 0.950 . S
C427 C426 1.439 . S
C427 N428 1.374 . S
C427 C461 1.395 . S
N428 C424 1.376 . S
N428 C427 1.374 . S
N428 Co429 2.008 . S
Co429 N428 2.008 . S
Co429 N430 1.995 . S
Co429 N435 2.008 . S
Co429 N440 1.995 . S
Co429 N445 2.282 . S
Co429 N451 2.282 . S
N430 Co429 1.995 . S
N430 C431 1.376 . S
N430 C434 1.383 . S
C431 N430 1.376 . S
C431 C432 1.446 . S
C431 C461 1.391 . S
C432 C431 1.446 . S
C432 C433 1.339 . S
C432 H467 0.949 . S
C433 C432 1.339 . S
C433 C434 1.439 . S
C433 H468 0.950 . S
C434 N430 1.383 . S
C434 C433 1.439 . S
C434 C463 1.392 . S
N435 Co429 2.008 . S
N435 C436 1.376 . S
N435 C439 1.374 . S
C436 N435 1.376 . S
C436 C437 1.443 . S
C436 C463 1.389 . S
C437 C436 1.443 . S
C437 C438 1.340 . S
C437 H469 0.951 . S
C438 C437 1.340 . S
C438 C439 1.439 . S
C438 H470 0.950 . S
C439 N435 1.374 . S
C439 C438 1.439 . S
C439 C464 1.395 . S
N440 Co429 1.995 . S
N440 C441 1.376 . S
N440 C444 1.383 . S
C441 N440 1.376 . S
C441 C442 1.446 . S
C441 C464 1.391 . S
C442 C441 1.446 . S
C442 C443 1.339 . S
C442 H471 0.949 . S
C443 C442 1.339 . S
C443 C444 1.439 . S
C443 H472 0.950 . S
C444 N440 1.383 . S
C444 C443 1.439 . S
C444 C462 1.392 . S
N445 Co429 2.282 . S
N445 C448 1.332 . S
N445 C450 1.332 . S
C446 C447 1.386 . S
C446 C449 1.388 . S
C447 C446 1.386 . S
C447 C448 1.382 . S
C447 H473 0.950 . S
C448 N445 1.332 . S
C448 C447 1.382 . S
C448 H459 0.952 . S
C449 C446 1.388 . S
C449 C450 1.382 . S
C449 H474 0.950 . S
C450 N445 1.332 . S
C450 C449 1.382 . S
C450 H460 0.948 . S
N451 Co429 2.282 . S
N451 C455 1.332 . S
N451 C456 1.332 . S
C452 C453 1.388 . S
C452 C456 1.382 . S
C452 H475 0.950 . S
C453 C452 1.388 . S
C453 C454 1.386 . S
C454 C453 1.386 . S
C454 C455 1.382 . S
C454 H476 0.950 . S
C455 N451 1.332 . S
C455 C454 1.382 . S
C455 H457 0.952 . S
C456 N451 1.332 . S
C456 C452 1.382 . S
C456 H458 0.948 . S
H457 C455 0.952 . S
H458 C456 0.948 . S
H459 C448 0.952 . S
H460 C450 0.948 . S
C461 C427 1.395 . S
C461 C431 1.391 . S
C462 C424 1.389 . S
C462 C444 1.392 . S
C463 C434 1.392 . S
C463 C436 1.389 . S
C464 C439 1.395 . S
C464 C441 1.391 . S
H465 C425 0.951 . S
H466 C426 0.950 . S
H467 C432 0.949 . S
H468 C433 0.950 . S
H469 C437 0.951 . S
H470 C438 0.950 . S
H471 C442 0.949 . S
H472 C443 0.950 . S
H473 C447 0.950 . S
H474 C449 0.950 . S
H475 C452 0.950 . S
H476 C454 0.950 . S
C477 C478 1.443 . S
C477 N481 1.376 . S
C477 C515 1.389 . S
C478 C477 1.443 . S
C478 C479 1.340 . S
C478 H518 0.951 . S
C479 C478 1.340 . S
C479 C480 1.439 . S
C479 H519 0.950 . S
C480 C479 1.439 . S
C480 N481 1.374 . S
C480 C514 1.395 . S
N481 C477 1.376 . S
N481 C480 1.374 . S
N481 Co482 2.008 . S
Co482 N481 2.008 . S
Co482 N483 1.995 . S
Co482 N488 2.008 . S
Co482 N493 1.995 . S
Co482 N498 2.282 . S
Co482 N504 2.282 . S
N483 Co482 1.995 . S
N483 C484 1.376 . S
N483 C487 1.383 . S
C484 N483 1.376 . S
C484 C485 1.446 . S
C484 C514 1.391 . S
C485 C484 1.446 . S
C485 C486 1.339 . S
C485 H520 0.949 . S
C486 C485 1.339 . S
C486 C487 1.439 . S
C486 H521 0.950 . S
C487 N483 1.383 . S
C487 C486 1.439 . S
C487 C516 1.392 . S
N488 Co482 2.008 . S
N488 C489 1.376 . S
N488 C492 1.374 . S
C489 N488 1.376 . S
C489 C490 1.443 . S
C489 C516 1.389 . S
C490 C489 1.443 . S
C490 C491 1.340 . S
C490 H522 0.951 . S
C491 C490 1.340 . S
C491 C492 1.439 . S
C491 H523 0.950 . S
C492 N488 1.374 . S
C492 C491 1.439 . S
C492 C517 1.395 . S
N493 Co482 1.995 . S
N493 C494 1.376 . S
N493 C497 1.383 . S
C494 N493 1.376 . S
C494 C495 1.446 . S
C494 C517 1.391 . S
C495 C494 1.446 . S
C495 C496 1.339 . S
C495 H524 0.949 . S
C496 C495 1.339 . S
C496 C497 1.439 . S
C496 H525 0.950 . S
C497 N493 1.383 . S
C497 C496 1.439 . S
C497 C515 1.392 . S
N498 Co482 2.282 . S
N498 C501 1.332 . S
N498 C503 1.332 . S
C499 C500 1.386 . S
C499 C502 1.388 . S
C500 C499 1.386 . S
C500 C501 1.382 . S
C500 H526 0.950 . S
C501 N498 1.332 . S
C501 C500 1.382 . S
C501 H512 0.952 . S
C502 C499 1.388 . S
C502 C503 1.382 . S
C502 H527 0.950 . S
C503 N498 1.332 . S
C503 C502 1.382 . S
C503 H513 0.948 . S
N504 Co482 2.282 . S
N504 C508 1.332 . S
N504 C509 1.332 . S
C505 C506 1.388 . S
C505 C509 1.382 . S
C505 H528 0.950 . S
C506 C505 1.388 . S
C506 C507 1.386 . S
C507 C506 1.386 . S
C507 C508 1.382 . S
C507 H529 0.950 . S
C508 N504 1.332 . S
C508 C507 1.382 . S
C508 H510 0.952 . S
C509 N504 1.332 . S
C509 C505 1.382 . S
C509 H511 0.948 . S
H510 C508 0.952 . S
H511 C509 0.948 . S
H512 C501 0.952 . S
H513 C503 0.948 . S
C514 C480 1.395 . S
C514 C484 1.391 . S
C515 C477 1.389 . S
C515 C497 1.392 . S
C516 C487 1.392 . S
C516 C489 1.389 . S
C517 C492 1.395 . S
C517 C494 1.391 . S
H518 C478 0.951 . S
H519 C479 0.950 . S
H520 C485 0.949 . S
H521 C486 0.950 . S
H522 C490 0.951 . S
H523 C491 0.950 . S
H524 C495 0.949 . S
H525 C496 0.950 . S
H526 C500 0.950 . S
H527 C502 0.950 . S
H528 C505 0.950 . S
H529 C507 0.950 . S
C530 C531 1.443 . S
C530 N534 1.376 . S
C530 C568 1.389 . S
C531 C530 1.443 . S
C531 C532 1.340 . S
C531 H571 0.951 . S
C532 C531 1.340 . S
C532 C533 1.439 . S
C532 H572 0.950 . S
C533 C532 1.439 . S
C533 N534 1.374 . S
C533 C567 1.395 . S
N534 C530 1.376 . S
N534 C533 1.374 . S
N534 Co535 2.008 . S
Co535 N534 2.008 . S
Co535 N536 1.995 . S
Co535 N541 2.008 . S
Co535 N546 1.995 . S
Co535 N551 2.282 . S
Co535 N557 2.282 . S
N536 Co535 1.995 . S
N536 C537 1.376 . S
N536 C540 1.383 . S
C537 N536 1.376 . S
C537 C538 1.446 . S
C537 C567 1.391 . S
C538 C537 1.446 . S
C538 C539 1.339 . S
C538 H573 0.949 . S
C539 C538 1.339 . S
C539 C540 1.439 . S
C539 H574 0.950 . S
C540 N536 1.383 . S
C540 C539 1.439 . S
C540 C569 1.392 . S
N541 Co535 2.008 . S
N541 C542 1.376 . S
N541 C545 1.374 . S
C542 N541 1.376 . S
C542 C543 1.443 . S
C542 C569 1.389 . S
C543 C542 1.443 . S
C543 C544 1.340 . S
C543 H575 0.951 . S
C544 C543 1.340 . S
C544 C545 1.439 . S
C544 H576 0.950 . S
C545 N541 1.374 . S
C545 C544 1.439 . S
C545 C570 1.395 . S
N546 Co535 1.995 . S
N546 C547 1.376 . S
N546 C550 1.383 . S
C547 N546 1.376 . S
C547 C548 1.446 . S
C547 C570 1.391 . S
C548 C547 1.446 . S
C548 C549 1.339 . S
C548 H577 0.949 . S
C549 C548 1.339 . S
C549 C550 1.439 . S
C549 H578 0.950 . S
C550 N546 1.383 . S
C550 C549 1.439 . S
C550 C568 1.392 . S
N551 Co535 2.282 . S
N551 C554 1.332 . S
N551 C556 1.332 . S
C552 C553 1.386 . S
C552 C555 1.388 . S
C553 C552 1.386 . S
C553 C554 1.382 . S
C553 H579 0.950 . S
C554 N551 1.332 . S
C554 C553 1.382 . S
C554 H565 0.952 . S
C555 C552 1.388 . S
C555 C556 1.382 . S
C555 H580 0.950 . S
C556 N551 1.332 . S
C556 C555 1.382 . S
C556 H566 0.948 . S
N557 Co535 2.282 . S
N557 C561 1.332 . S
N557 C562 1.332 . S
C558 C559 1.388 . S
C558 C562 1.382 . S
C558 H581 0.950 . S
C559 C558 1.388 . S
C559 C560 1.386 . S
C560 C559 1.386 . S
C560 C561 1.382 . S
C560 H582 0.950 . S
C561 N557 1.332 . S
C561 C560 1.382 . S
C561 H563 0.952 . S
C562 N557 1.332 . S
C562 C558 1.382 . S
C562 H564 0.948 . S
H563 C561 0.952 . S
H564 C562 0.948 . S
H565 C554 0.952 . S
H566 C556 0.948 . S
C567 C533 1.395 . S
C567 C537 1.391 . S
C568 C530 1.389 . S
C568 C550 1.392 . S
C569 C540 1.392 . S
C569 C542 1.389 . S
C570 C545 1.395 . S
C570 C547 1.391 . S
H571 C531 0.951 . S
H572 C532 0.950 . S
H573 C538 0.949 . S
H574 C539 0.950 . S
H575 C543 0.951 . S
H576 C544 0.950 . S
H577 C548 0.949 . S
H578 C549 0.950 . S
H579 C553 0.950 . S
H580 C555 0.950 . S
H581 C558 0.950 . S
H582 C560 0.950 . S
C583 C584 1.443 . S
C583 N587 1.376 . S
C583 C621 1.389 . S
C584 C583 1.443 . S
C584 C585 1.340 . S
C584 H624 0.951 . S
C585 C584 1.340 . S
C585 C586 1.439 . S
C585 H625 0.950 . S
C586 C585 1.439 . S
C586 N587 1.374 . S
C586 C620 1.395 . S
N587 C583 1.376 . S
N587 C586 1.374 . S
N587 Co588 2.008 . S
Co588 N587 2.008 . S
Co588 N589 1.995 . S
Co588 N594 2.008 . S
Co588 N599 1.995 . S
Co588 N604 2.282 . S
Co588 N610 2.282 . S
N589 Co588 1.995 . S
N589 C590 1.376 . S
N589 C593 1.383 . S
C590 N589 1.376 . S
C590 C591 1.446 . S
C590 C620 1.391 . S
C591 C590 1.446 . S
C591 C592 1.339 . S
C591 H626 0.949 . S
C592 C591 1.339 . S
C592 C593 1.439 . S
C592 H627 0.950 . S
C593 N589 1.383 . S
C593 C592 1.439 . S
C593 C622 1.392 . S
N594 Co588 2.008 . S
N594 C595 1.376 . S
N594 C598 1.374 . S
C595 N594 1.376 . S
C595 C596 1.443 . S
C595 C622 1.389 . S
C596 C595 1.443 . S
C596 C597 1.340 . S
C596 H628 0.951 . S
C597 C596 1.340 . S
C597 C598 1.439 . S
C597 H629 0.950 . S
C598 N594 1.374 . S
C598 C597 1.439 . S
C598 C623 1.395 . S
N599 Co588 1.995 . S
N599 C600 1.376 . S
N599 C603 1.383 . S
C600 N599 1.376 . S
C600 C601 1.446 . S
C600 C623 1.391 . S
C601 C600 1.446 . S
C601 C602 1.339 . S
C601 H630 0.949 . S
C602 C601 1.339 . S
C602 C603 1.439 . S
C602 H631 0.950 . S
C603 N599 1.383 . S
C603 C602 1.439 . S
C603 C621 1.392 . S
N604 Co588 2.282 . S
N604 C607 1.332 . S
N604 C609 1.332 . S
C605 C606 1.386 . S
C605 C608 1.388 . S
C606 C605 1.386 . S
C606 C607 1.382 . S
C606 H632 0.950 . S
C607 N604 1.332 . S
C607 C606 1.382 . S
C607 H618 0.952 . S
C608 C605 1.388 . S
C608 C609 1.382 . S
C608 H633 0.950 . S
C609 N604 1.332 . S
C609 C608 1.382 . S
C609 H619 0.948 . S
N610 Co588 2.282 . S
N610 C614 1.332 . S
N610 C615 1.332 . S
C611 C612 1.388 . S
C611 C615 1.382 . S
C611 H634 0.950 . S
C612 C611 1.388 . S
C612 C613 1.386 . S
C613 C612 1.386 . S
C613 C614 1.382 . S
C613 H635 0.950 . S
C614 N610 1.332 . S
C614 C613 1.382 . S
C614 H616 0.952 . S
C615 N610 1.332 . S
C615 C611 1.382 . S
C615 H617 0.948 . S
H616 C614 0.952 . S
H617 C615 0.948 . S
H618 C607 0.952 . S
H619 C609 0.948 . S
C620 C586 1.395 . S
C620 C590 1.391 . S
C621 C583 1.389 . S
C621 C603 1.392 . S
C622 C593 1.392 . S
C622 C595 1.389 . S
C623 C598 1.395 . S
C623 C600 1.391 . S
H624 C584 0.951 . S
H625 C585 0.950 . S
H626 C591 0.949 . S
H627 C592 0.950 . S
H628 C596 0.951 . S
H629 C597 0.950 . S
H630 C601 0.949 . S
H631 C602 0.950 . S
H632 C606 0.950 . S
H633 C608 0.950 . S
H634 C611 0.950 . S
H635 C613 0.950 . S
C636 C637 1.443 . S
C636 N640 1.376 . S
C636 C674 1.389 . S
C637 C636 1.443 . S
C637 C638 1.340 . S
C637 H677 0.951 . S
C638 C637 1.340 . S
C638 C639 1.439 . S
C638 H678 0.950 . S
C639 C638 1.439 . S
C639 N640 1.374 . S
C639 C673 1.395 . S
N640 C636 1.376 . S
N640 C639 1.374 . S
N640 Co641 2.008 . S
Co641 N640 2.008 . S
Co641 N642 1.995 . S
Co641 N647 2.008 . S
Co641 N652 1.995 . S
Co641 N657 2.282 . S
Co641 N663 2.282 . S
N642 Co641 1.995 . S
N642 C643 1.376 . S
N642 C646 1.383 . S
C643 N642 1.376 . S
C643 C644 1.446 . S
C643 C673 1.391 . S
C644 C643 1.446 . S
C644 C645 1.339 . S
C644 H679 0.949 . S
C645 C644 1.339 . S
C645 C646 1.439 . S
C645 H680 0.950 . S
C646 N642 1.383 . S
C646 C645 1.439 . S
C646 C675 1.392 . S
N647 Co641 2.008 . S
N647 C648 1.376 . S
N647 C651 1.374 . S
C648 N647 1.376 . S
C648 C649 1.443 . S
C648 C675 1.389 . S
C649 C648 1.443 . S
C649 C650 1.340 . S
C649 H681 0.951 . S
C650 C649 1.340 . S
C650 C651 1.439 . S
C650 H682 0.950 . S
C651 N647 1.374 . S
C651 C650 1.439 . S
C651 C676 1.395 . S
N652 Co641 1.995 . S
N652 C653 1.376 . S
N652 C656 1.383 . S
C653 N652 1.376 . S
C653 C654 1.446 . S
C653 C676 1.391 . S
C654 C653 1.446 . S
C654 C655 1.339 . S
C654 H683 0.949 . S
C655 C654 1.339 . S
C655 C656 1.439 . S
C655 H684 0.950 . S
C656 N652 1.383 . S
C656 C655 1.439 . S
C656 C674 1.392 . S
N657 Co641 2.282 . S
N657 C660 1.332 . S
N657 C662 1.332 . S
C658 C659 1.386 . S
C658 C661 1.388 . S
C659 C658 1.386 . S
C659 C660 1.382 . S
C659 H685 0.950 . S
C660 N657 1.332 . S
C660 C659 1.382 . S
C660 H671 0.952 . S
C661 C658 1.388 . S
C661 C662 1.382 . S
C661 H686 0.950 . S
C662 N657 1.332 . S
C662 C661 1.382 . S
C662 H672 0.948 . S
N663 Co641 2.282 . S
N663 C667 1.332 . S
N663 C668 1.332 . S
C664 C665 1.388 . S
C664 C668 1.382 . S
C664 H687 0.950 . S
C665 C664 1.388 . S
C665 C666 1.386 . S
C666 C665 1.386 . S
C666 C667 1.382 . S
C666 H688 0.950 . S
C667 N663 1.332 . S
C667 C666 1.382 . S
C667 H669 0.952 . S
C668 N663 1.332 . S
C668 C664 1.382 . S
C668 H670 0.948 . S
H669 C667 0.952 . S
H670 C668 0.948 . S
H671 C660 0.952 . S
H672 C662 0.948 . S
C673 C639 1.395 . S
C673 C643 1.391 . S
C674 C636 1.389 . S
C674 C656 1.392 . S
C675 C646 1.392 . S
C675 C648 1.389 . S
C676 C651 1.395 . S
C676 C653 1.391 . S
H677 C637 0.951 . S
H678 C638 0.950 . S
H679 C644 0.949 . S
H680 C645 0.950 . S
H681 C649 0.951 . S
H682 C650 0.950 . S
H683 C654 0.949 . S
H684 C655 0.950 . S
H685 C659 0.950 . S
H686 C661 0.950 . S
H687 C664 0.950 . S
H688 C666 0.950 . S
C689 C690 1.443 . S
C689 N693 1.376 . S
C689 C727 1.389 . S
C690 C689 1.443 . S
C690 C691 1.340 . S
C690 H730 0.951 . S
C691 C690 1.340 . S
C691 C692 1.439 . S
C691 H731 0.950 . S
C692 C691 1.439 . S
C692 N693 1.374 . S
C692 C726 1.395 . S
N693 C689 1.376 . S
N693 C692 1.374 . S
N693 Co694 2.008 . S
Co694 N693 2.008 . S
Co694 N695 1.995 . S
Co694 N700 2.008 . S
Co694 N705 1.995 . S
Co694 N710 2.282 . S
Co694 N716 2.282 . S
N695 Co694 1.995 . S
N695 C696 1.376 . S
N695 C699 1.383 . S
C696 N695 1.376 . S
C696 C697 1.446 . S
C696 C726 1.391 . S
C697 C696 1.446 . S
C697 C698 1.339 . S
C697 H732 0.949 . S
C698 C697 1.339 . S
C698 C699 1.439 . S
C698 H733 0.950 . S
C699 N695 1.383 . S
C699 C698 1.439 . S
C699 C728 1.392 . S
N700 Co694 2.008 . S
N700 C701 1.376 . S
N700 C704 1.374 . S
C701 N700 1.376 . S
C701 C702 1.443 . S
C701 C728 1.389 . S
C702 C701 1.443 . S
C702 C703 1.340 . S
C702 H734 0.951 . S
C703 C702 1.340 . S
C703 C704 1.439 . S
C703 H735 0.950 . S
C704 N700 1.374 . S
C704 C703 1.439 . S
C704 C729 1.395 . S
N705 Co694 1.995 . S
N705 C706 1.376 . S
N705 C709 1.383 . S
C706 N705 1.376 . S
C706 C707 1.446 . S
C706 C729 1.391 . S
C707 C706 1.446 . S
C707 C708 1.339 . S
C707 H736 0.949 . S
C708 C707 1.339 . S
C708 C709 1.439 . S
C708 H737 0.950 . S
C709 N705 1.383 . S
C709 C708 1.439 . S
C709 C727 1.392 . S
N710 Co694 2.282 . S
N710 C713 1.332 . S
N710 C715 1.332 . S
C711 C712 1.386 . S
C711 C714 1.388 . S
C712 C711 1.386 . S
C712 C713 1.382 . S
C712 H738 0.950 . S
C713 N710 1.332 . S
C713 C712 1.382 . S
C713 H724 0.952 . S
C714 C711 1.388 . S
C714 C715 1.382 . S
C714 H739 0.950 . S
C715 N710 1.332 . S
C715 C714 1.382 . S
C715 H725 0.948 . S
N716 Co694 2.282 . S
N716 C720 1.332 . S
N716 C721 1.332 . S
C717 C718 1.388 . S
C717 C721 1.382 . S
C717 H740 0.950 . S
C718 C717 1.388 . S
C718 C719 1.386 . S
C719 C718 1.386 . S
C719 C720 1.382 . S
C719 H741 0.950 . S
C720 N716 1.332 . S
C720 C719 1.382 . S
C720 H722 0.952 . S
C721 N716 1.332 . S
C721 C717 1.382 . S
C721 H723 0.948 . S
H722 C720 0.952 . S
H723 C721 0.948 . S
H724 C713 0.952 . S
H725 C715 0.948 . S
C726 C692 1.395 . S
C726 C696 1.391 . S
C727 C689 1.389 . S
C727 C709 1.392 . S
C728 C699 1.392 . S
C728 C701 1.389 . S
C729 C704 1.395 . S
C729 C706 1.391 . S
H730 C690 0.951 . S
H731 C691 0.950 . S
H732 C697 0.949 . S
H733 C698 0.950 . S
H734 C702 0.951 . S
H735 C703 0.950 . S
H736 C707 0.949 . S
H737 C708 0.950 . S
H738 C712 0.950 . S
H739 C714 0.950 . S
H740 C717 0.950 . S
H741 C719 0.950 . S
C742 C743 1.443 . S
C742 N746 1.376 . S
C742 C780 1.389 . S
C743 C742 1.443 . S
C743 C744 1.340 . S
C743 H783 0.951 . S
C744 C743 1.340 . S
C744 C745 1.439 . S
C744 H784 0.950 . S
C745 C744 1.439 . S
C745 N746 1.374 . S
C745 C779 1.395 . S
N746 C742 1.376 . S
N746 C745 1.374 . S
N746 Co747 2.008 . S
Co747 N746 2.008 . S
Co747 N748 1.995 . S
Co747 N753 2.008 . S
Co747 N758 1.995 . S
Co747 N763 2.282 . S
Co747 N769 2.282 . S
N748 Co747 1.995 . S
N748 C749 1.376 . S
N748 C752 1.383 . S
C749 N748 1.376 . S
C749 C750 1.446 . S
C749 C779 1.391 . S
C750 C749 1.446 . S
C750 C751 1.339 . S
C750 H785 0.949 . S
C751 C750 1.339 . S
C751 C752 1.439 . S
C751 H786 0.950 . S
C752 N748 1.383 . S
C752 C751 1.439 . S
C752 C781 1.392 . S
N753 Co747 2.008 . S
N753 C754 1.376 . S
N753 C757 1.374 . S
C754 N753 1.376 . S
C754 C755 1.443 . S
C754 C781 1.389 . S
C755 C754 1.443 . S
C755 C756 1.340 . S
C755 H787 0.951 . S
C756 C755 1.340 . S
C756 C757 1.439 . S
C756 H788 0.950 . S
C757 N753 1.374 . S
C757 C756 1.439 . S
C757 C782 1.395 . S
N758 Co747 1.995 . S
N758 C759 1.376 . S
N758 C762 1.383 . S
C759 N758 1.376 . S
C759 C760 1.446 . S
C759 C782 1.391 . S
C760 C759 1.446 . S
C760 C761 1.339 . S
C760 H789 0.949 . S
C761 C760 1.339 . S
C761 C762 1.439 . S
C761 H790 0.950 . S
C762 N758 1.383 . S
C762 C761 1.439 . S
C762 C780 1.392 . S
N763 Co747 2.282 . S
N763 C766 1.332 . S
N763 C768 1.332 . S
C764 C765 1.386 . S
C764 C767 1.388 . S
C765 C764 1.386 . S
C765 C766 1.382 . S
C765 H791 0.950 . S
C766 N763 1.332 . S
C766 C765 1.382 . S
C766 H777 0.952 . S
C767 C764 1.388 . S
C767 C768 1.382 . S
C767 H792 0.950 . S
C768 N763 1.332 . S
C768 C767 1.382 . S
C768 H778 0.948 . S
N769 Co747 2.282 . S
N769 C773 1.332 . S
N769 C774 1.332 . S
C770 C771 1.388 . S
C770 C774 1.382 . S
C770 H793 0.950 . S
C771 C770 1.388 . S
C771 C772 1.386 . S
C772 C771 1.386 . S
C772 C773 1.382 . S
C772 H794 0.950 . S
C773 N769 1.332 . S
C773 C772 1.382 . S
C773 H775 0.952 . S
C774 N769 1.332 . S
C774 C770 1.382 . S
C774 H776 0.948 . S
H775 C773 0.952 . S
H776 C774 0.948 . S
H777 C766 0.952 . S
H778 C768 0.948 . S
C779 C745 1.395 . S
C779 C749 1.391 . S
C780 C742 1.389 . S
C780 C762 1.392 . S
C781 C752 1.392 . S
C781 C754 1.389 . S
C782 C757 1.395 . S
C782 C759 1.391 . S
H783 C743 0.951 . S
H784 C744 0.950 . S
H785 C750 0.949 . S
H786 C751 0.950 . S
H787 C755 0.951 . S
H788 C756 0.950 . S
H789 C760 0.949 . S
H790 C761 0.950 . S
H791 C765 0.950 . S
H792 C767 0.950 . S
H793 C770 0.950 . S
H794 C772 0.950 . S
C795 C796 1.443 . S
C795 N799 1.376 . S
C795 C833 1.389 . S
C796 C795 1.443 . S
C796 C797 1.340 . S
C796 H836 0.951 . S
C797 C796 1.340 . S
C797 C798 1.439 . S
C797 H837 0.950 . S
C798 C797 1.439 . S
C798 N799 1.374 . S
C798 C832 1.395 . S
N799 C795 1.376 . S
N799 C798 1.374 . S
N799 Co800 2.008 . S
Co800 N799 2.008 . S
Co800 N801 1.995 . S
Co800 N806 2.008 . S
Co800 N811 1.995 . S
Co800 N816 2.282 . S
Co800 N822 2.282 . S
N801 Co800 1.995 . S
N801 C802 1.376 . S
N801 C805 1.383 . S
C802 N801 1.376 . S
C802 C803 1.446 . S
C802 C832 1.391 . S
C803 C802 1.446 . S
C803 C804 1.339 . S
C803 H838 0.949 . S
C804 C803 1.339 . S
C804 C805 1.439 . S
C804 H839 0.950 . S
C805 N801 1.383 . S
C805 C804 1.439 . S
C805 C834 1.392 . S
N806 Co800 2.008 . S
N806 C807 1.376 . S
N806 C810 1.374 . S
C807 N806 1.376 . S
C807 C808 1.443 . S
C807 C834 1.389 . S
C808 C807 1.443 . S
C808 C809 1.340 . S
C808 H840 0.951 . S
C809 C808 1.340 . S
C809 C810 1.439 . S
C809 H841 0.950 . S
C810 N806 1.374 . S
C810 C809 1.439 . S
C810 C835 1.395 . S
N811 Co800 1.995 . S
N811 C812 1.376 . S
N811 C815 1.383 . S
C812 N811 1.376 . S
C812 C813 1.446 . S
C812 C835 1.391 . S
C813 C812 1.446 . S
C813 C814 1.339 . S
C813 H842 0.949 . S
C814 C813 1.339 . S
C814 C815 1.439 . S
C814 H843 0.950 . S
C815 N811 1.383 . S
C815 C814 1.439 . S
C815 C833 1.392 . S
N816 Co800 2.282 . S
N816 C819 1.332 . S
N816 C821 1.332 . S
C817 C818 1.386 . S
C817 C820 1.388 . S
C818 C817 1.386 . S
C818 C819 1.382 . S
C818 H844 0.950 . S
C819 N816 1.332 . S
C819 C818 1.382 . S
C819 H830 0.952 . S
C820 C817 1.388 . S
C820 C821 1.382 . S
C820 H845 0.950 . S
C821 N816 1.332 . S
C821 C820 1.382 . S
C821 H831 0.948 . S
N822 Co800 2.282 . S
N822 C826 1.332 . S
N822 C827 1.332 . S
C823 C824 1.388 . S
C823 C827 1.382 . S
C823 H846 0.950 . S
C824 C823 1.388 . S
C824 C825 1.386 . S
C825 C824 1.386 . S
C825 C826 1.382 . S
C825 H847 0.950 . S
C826 N822 1.332 . S
C826 C825 1.382 . S
C826 H828 0.952 . S
C827 N822 1.332 . S
C827 C823 1.382 . S
C827 H829 0.948 . S
H828 C826 0.952 . S
H829 C827 0.948 . S
H830 C819 0.952 . S
H831 C821 0.948 . S
C832 C798 1.395 . S
C832 C802 1.391 . S
C833 C795 1.389 . S
C833 C815 1.392 . S
C834 C805 1.392 . S
C834 C807 1.389 . S
C835 C810 1.395 . S
C835 C812 1.391 . S
H836 C796 0.951 . S
H837 C797 0.950 . S
H838 C803 0.949 . S
H839 C804 0.950 . S
H840 C808 0.951 . S
H841 C809 0.950 . S
H842 C813 0.949 . S
H843 C814 0.950 . S
H844 C818 0.950 . S
H845 C820 0.950 . S
H846 C823 0.950 . S
H847 C825 0.950 . S
C848 C849 1.443 . S
C848 N852 1.376 . S
C848 C886 1.389 . S
C849 C848 1.443 . S
C849 C850 1.340 . S
C849 H889 0.951 . S
C850 C849 1.340 . S
C850 C851 1.439 . S
C850 H890 0.950 . S
C851 C850 1.439 . S
C851 N852 1.374 . S
C851 C885 1.395 . S
N852 C848 1.376 . S
N852 C851 1.374 . S
N852 Co853 2.008 . S
Co853 N852 2.008 . S
Co853 N854 1.995 . S
Co853 N859 2.008 . S
Co853 N864 1.995 . S
Co853 N869 2.282 . S
Co853 N875 2.282 . S
N854 Co853 1.995 . S
N854 C855 1.376 . S
N854 C858 1.383 . S
C855 N854 1.376 . S
C855 C856 1.446 . S
C855 C885 1.391 . S
C856 C855 1.446 . S
C856 C857 1.339 . S
C856 H891 0.949 . S
C857 C856 1.339 . S
C857 C858 1.439 . S
C857 H892 0.950 . S
C858 N854 1.383 . S
C858 C857 1.439 . S
C858 C887 1.392 . S
N859 Co853 2.008 . S
N859 C860 1.376 . S
N859 C863 1.374 . S
C860 N859 1.376 . S
C860 C861 1.443 . S
C860 C887 1.389 . S
C861 C860 1.443 . S
C861 C862 1.340 . S
C861 H893 0.951 . S
C862 C861 1.340 . S
C862 C863 1.439 . S
C862 H894 0.950 . S
C863 N859 1.374 . S
C863 C862 1.439 . S
C863 C888 1.395 . S
N864 Co853 1.995 . S
N864 C865 1.376 . S
N864 C868 1.383 . S
C865 N864 1.376 . S
C865 C866 1.446 . S
C865 C888 1.391 . S
C866 C865 1.446 . S
C866 C867 1.339 . S
C866 H895 0.949 . S
C867 C866 1.339 . S
C867 C868 1.439 . S
C867 H896 0.950 . S
C868 N864 1.383 . S
C868 C867 1.439 . S
C868 C886 1.392 . S
N869 Co853 2.282 . S
N869 C872 1.332 . S
N869 C874 1.332 . S
C870 C871 1.386 . S
C870 C873 1.388 . S
C871 C870 1.386 . S
C871 C872 1.382 . S
C871 H897 0.950 . S
C872 N869 1.332 . S
C872 C871 1.382 . S
C872 H883 0.952 . S
C873 C870 1.388 . S
C873 C874 1.382 . S
C873 H898 0.950 . S
C874 N869 1.332 . S
C874 C873 1.382 . S
C874 H884 0.948 . S
N875 Co853 2.282 . S
N875 C879 1.332 . S
N875 C880 1.332 . S
C876 C877 1.388 . S
C876 C880 1.382 . S
C876 H899 0.950 . S
C877 C876 1.388 . S
C877 C878 1.386 . S
C878 C877 1.386 . S
C878 C879 1.382 . S
C878 H900 0.950 . S
C879 N875 1.332 . S
C879 C878 1.382 . S
C879 H881 0.952 . S
C880 N875 1.332 . S
C880 C876 1.382 . S
C880 H882 0.948 . S
H881 C879 0.952 . S
H882 C880 0.948 . S
H883 C872 0.952 . S
H884 C874 0.948 . S
C885 C851 1.395 . S
C885 C855 1.391 . S
C886 C848 1.389 . S
C886 C868 1.392 . S
C887 C858 1.392 . S
C887 C860 1.389 . S
C888 C863 1.395 . S
C888 C865 1.391 . S
H889 C849 0.951 . S
H890 C850 0.950 . S
H891 C856 0.949 . S
H892 C857 0.950 . S
H893 C861 0.951 . S
H894 C862 0.950 . S
H895 C866 0.949 . S
H896 C867 0.950 . S
H897 C871 0.950 . S
H898 C873 0.950 . S
H899 C876 0.950 . S
H900 C878 0.950 . S
C901 C902 1.443 . S
C901 N905 1.376 . S
C901 C939 1.389 . S
C902 C901 1.443 . S
C902 C903 1.340 . S
C902 H942 0.951 . S
C903 C902 1.340 . S
C903 C904 1.439 . S
C903 H943 0.950 . S
C904 C903 1.439 . S
C904 N905 1.374 . S
C904 C938 1.395 . S
N905 C901 1.376 . S
N905 C904 1.374 . S
N905 Co906 2.008 . S
Co906 N905 2.008 . S
Co906 N907 1.995 . S
Co906 N912 2.008 . S
Co906 N917 1.995 . S
Co906 N922 2.282 . S
Co906 N928 2.282 . S
N907 Co906 1.995 . S
N907 C908 1.376 . S
N907 C911 1.383 . S
C908 N907 1.376 . S
C908 C909 1.446 . S
C908 C938 1.391 . S
C909 C908 1.446 . S
C909 C910 1.339 . S
C909 H944 0.949 . S
C910 C909 1.339 . S
C910 C911 1.439 . S
C910 H945 0.950 . S
C911 N907 1.383 . S
C911 C910 1.439 . S
C911 C940 1.392 . S
N912 Co906 2.008 . S
N912 C913 1.376 . S
N912 C916 1.374 . S
C913 N912 1.376 . S
C913 C914 1.443 . S
C913 C940 1.389 . S
C914 C913 1.443 . S
C914 C915 1.340 . S
C914 H946 0.951 . S
C915 C914 1.340 . S
C915 C916 1.439 . S
C915 H947 0.950 . S
C916 N912 1.374 . S
C916 C915 1.439 . S
C916 C941 1.395 . S
N917 Co906 1.995 . S
N917 C918 1.376 . S
N917 C921 1.383 . S
C918 N917 1.376 . S
C918 C919 1.446 . S
C918 C941 1.391 . S
C919 C918 1.446 . S
C919 C920 1.339 . S
C919 H948 0.949 . S
C920 C919 1.339 . S
C920 C921 1.439 . S
C920 H949 0.950 . S
C921 N917 1.383 . S
C921 C920 1.439 . S
C921 C939 1.392 . S
N922 Co906 2.282 . S
N922 C925 1.332 . S
N922 C927 1.332 . S
C923 C924 1.386 . S
C923 C926 1.388 . S
C924 C923 1.386 . S
C924 C925 1.382 . S
C924 H950 0.950 . S
C925 N922 1.332 . S
C925 C924 1.382 . S
C925 H936 0.952 . S
C926 C923 1.388 . S
C926 C927 1.382 . S
C926 H951 0.950 . S
C927 N922 1.332 . S
C927 C926 1.382 . S
C927 H937 0.948 . S
N928 Co906 2.282 . S
N928 C932 1.332 . S
N928 C933 1.332 . S
C929 C930 1.388 . S
C929 C933 1.382 . S
C929 H952 0.950 . S
C930 C929 1.388 . S
C930 C931 1.386 . S
C931 C930 1.386 . S
C931 C932 1.382 . S
C931 H953 0.950 . S
C932 N928 1.332 . S
C932 C931 1.382 . S
C932 H934 0.952 . S
C933 N928 1.332 . S
C933 C929 1.382 . S
C933 H935 0.948 . S
H934 C932 0.952 . S
H935 C933 0.948 . S
H936 C925 0.952 . S
H937 C927 0.948 . S
C938 C904 1.395 . S
C938 C908 1.391 . S
C939 C901 1.389 . S
C939 C921 1.392 . S
C940 C911 1.392 . S
C940 C913 1.389 . S
C941 C916 1.395 . S
C941 C918 1.391 . S
H942 C902 0.951 . S
H943 C903 0.950 . S
H944 C909 0.949 . S
H945 C910 0.950 . S
H946 C914 0.951 . S
H947 C915 0.950 . S
H948 C919 0.949 . S
H949 C920 0.950 . S
H950 C924 0.950 . S
H951 C926 0.950 . S
H952 C929 0.950 . S
H953 C931 0.950 . S
C954 C955 1.443 . S
C954 N958 1.376 . S
C954 C992 1.389 . S
C955 C954 1.443 . S
C955 C956 1.340 . S
C955 H995 0.951 . S
C956 C955 1.340 . S
C956 C957 1.439 . S
C956 H996 0.950 . S
C957 C956 1.439 . S
C957 N958 1.374 . S
C957 C991 1.395 . S
N958 C954 1.376 . S
N958 C957 1.374 . S
N958 Co959 2.008 . S
Co959 N958 2.008 . S
Co959 N960 1.995 . S
Co959 N965 2.008 . S
Co959 N970 1.995 . S
Co959 N975 2.282 . S
Co959 N981 2.282 . S
N960 Co959 1.995 . S
N960 C961 1.376 . S
N960 C964 1.383 . S
C961 N960 1.376 . S
C961 C962 1.446 . S
C961 C991 1.391 . S
C962 C961 1.446 . S
C962 C963 1.339 . S
C962 H997 0.949 . S
C963 C962 1.339 . S
C963 C964 1.439 . S
C963 H998 0.950 . S
C964 N960 1.383 . S
C964 C963 1.439 . S
C964 C993 1.392 . S
N965 Co959 2.008 . S
N965 C966 1.376 . S
N965 C969 1.374 . S
C966 N965 1.376 . S
C966 C967 1.443 . S
C966 C993 1.389 . S
C967 C966 1.443 . S
C967 C968 1.340 . S
C967 H999 0.951 . S
C968 C967 1.340 . S
C968 C969 1.439 . S
C968 H1000 0.950 . S
C969 N965 1.374 . S
C969 C968 1.439 . S
C969 C994 1.395 . S
N970 Co959 1.995 . S
N970 C971 1.376 . S
N970 C974 1.383 . S
C971 N970 1.376 . S
C971 C972 1.446 . S
C971 C994 1.391 . S
C972 C971 1.446 . S
C972 C973 1.339 . S
C972 H1001 0.949 . S
C973 C972 1.339 . S
C973 C974 1.439 . S
C973 H1002 0.950 . S
C974 N970 1.383 . S
C974 C973 1.439 . S
C974 C992 1.392 . S
N975 Co959 2.282 . S
N975 C978 1.332 . S
N975 C980 1.332 . S
C976 C977 1.386 . S
C976 C979 1.388 . S
C977 C976 1.386 . S
C977 C978 1.382 . S
C977 H1003 0.950 . S
C978 N975 1.332 . S
C978 C977 1.382 . S
C978 H989 0.952 . S
C979 C976 1.388 . S
C979 C980 1.382 . S
C979 H1004 0.950 . S
C980 N975 1.332 . S
C980 C979 1.382 . S
C980 H990 0.948 . S
N981 Co959 2.282 . S
N981 C985 1.332 . S
N981 C986 1.332 . S
C982 C983 1.388 . S
C982 C986 1.382 . S
C982 H1005 0.950 . S
C983 C982 1.388 . S
C983 C984 1.386 . S
C984 C983 1.386 . S
C984 C985 1.382 . S
C984 H1006 0.950 . S
C985 N981 1.332 . S
C985 C984 1.382 . S
C985 H987 0.952 . S
C986 N981 1.332 . S
C986 C982 1.382 . S
C986 H988 0.948 . S
H987 C985 0.952 . S
H988 C986 0.948 . S
H989 C978 0.952 . S
H990 C980 0.948 . S
C991 C957 1.395 . S
C991 C961 1.391 . S
C992 C954 1.389 . S
C992 C974 1.392 . S
C993 C964 1.392 . S
C993 C966 1.389 . S
C994 C969 1.395 . S
C994 C971 1.391 . S
H995 C955 0.951 . S
H996 C956 0.950 . S
H997 C962 0.949 . S
H998 C963 0.950 . S
H999 C967 0.951 . S
H1000 C968 0.950 . S
H1001 C972 0.949 . S
H1002 C973 0.950 . S
H1003 C977 0.950 . S
H1004 C979 0.950 . S
H1005 C982 0.950 . S
H1006 C984 0.950 . S
C1007 C1008 1.443 . S
C1007 N1011 1.376 . S
C1007 C1045 1.389 . S
C1008 C1007 1.443 . S
C1008 C1009 1.340 . S
C1008 H1048 0.951 . S
C1009 C1008 1.340 . S
C1009 C1010 1.439 . S
C1009 H1049 0.950 . S
C1010 C1009 1.439 . S
C1010 N1011 1.374 . S
C1010 C1044 1.395 . S
N1011 C1007 1.376 . S
N1011 C1010 1.374 . S
N1011 Co1012 2.008 . S
Co1012 N1011 2.008 . S
Co1012 N1013 1.995 . S
Co1012 N1018 2.008 . S
Co1012 N1023 1.995 . S
Co1012 N1028 2.282 . S
Co1012 N1034 2.282 . S
N1013 Co1012 1.995 . S
N1013 C1014 1.376 . S
N1013 C1017 1.383 . S
C1014 N1013 1.376 . S
C1014 C1015 1.446 . S
C1014 C1044 1.391 . S
C1015 C1014 1.446 . S
C1015 C1016 1.339 . S
C1015 H1050 0.949 . S
C1016 C1015 1.339 . S
C1016 C1017 1.439 . S
C1016 H1051 0.950 . S
C1017 N1013 1.383 . S
C1017 C1016 1.439 . S
C1017 C1046 1.392 . S
N1018 Co1012 2.008 . S
N1018 C1019 1.376 . S
N1018 C1022 1.374 . S
C1019 N1018 1.376 . S
C1019 C1020 1.443 . S
C1019 C1046 1.389 . S
C1020 C1019 1.443 . S
C1020 C1021 1.340 . S
C1020 H1052 0.951 . S
C1021 C1020 1.340 . S
C1021 C1022 1.439 . S
C1021 H1053 0.950 . S
C1022 N1018 1.374 . S
C1022 C1021 1.439 . S
C1022 C1047 1.395 . S
N1023 Co1012 1.995 . S
N1023 C1024 1.376 . S
N1023 C1027 1.383 . S
C1024 N1023 1.376 . S
C1024 C1025 1.446 . S
C1024 C1047 1.391 . S
C1025 C1024 1.446 . S
C1025 C1026 1.339 . S
C1025 H1054 0.949 . S
C1026 C1025 1.339 . S
C1026 C1027 1.439 . S
C1026 H1055 0.950 . S
C1027 N1023 1.383 . S
C1027 C1026 1.439 . S
C1027 C1045 1.392 . S
N1028 Co1012 2.282 . S
N1028 C1031 1.332 . S
N1028 C1033 1.332 . S
C1029 C1030 1.386 . S
C1029 C1032 1.388 . S
C1030 C1029 1.386 . S
C1030 C1031 1.382 . S
C1030 H1056 0.950 . S
C1031 N1028 1.332 . S
C1031 C1030 1.382 . S
C1031 H1042 0.952 . S
C1032 C1029 1.388 . S
C1032 C1033 1.382 . S
C1032 H1057 0.950 . S
C1033 N1028 1.332 . S
C1033 C1032 1.382 . S
C1033 H1043 0.948 . S
N1034 Co1012 2.282 . S
N1034 C1038 1.332 . S
N1034 C1039 1.332 . S
C1035 C1036 1.388 . S
C1035 C1039 1.382 . S
C1035 H1058 0.950 . S
C1036 C1035 1.388 . S
C1036 C1037 1.386 . S
C1037 C1036 1.386 . S
C1037 C1038 1.382 . S
C1037 H1059 0.950 . S
C1038 N1034 1.332 . S
C1038 C1037 1.382 . S
C1038 H1040 0.952 . S
C1039 N1034 1.332 . S
C1039 C1035 1.382 . S
C1039 H1041 0.948 . S
H1040 C1038 0.952 . S
H1041 C1039 0.948 . S
H1042 C1031 0.952 . S
H1043 C1033 0.948 . S
C1044 C1010 1.395 . S
C1044 C1014 1.391 . S
C1045 C1007 1.389 . S
C1045 C1027 1.392 . S
C1046 C1017 1.392 . S
C1046 C1019 1.389 . S
C1047 C1022 1.395 . S
C1047 C1024 1.391 . S
H1048 C1008 0.951 . S
H1049 C1009 0.950 . S
H1050 C1015 0.949 . S
H1051 C1016 0.950 . S
H1052 C1020 0.951 . S
H1053 C1021 0.950 . S
H1054 C1025 0.949 . S
H1055 C1026 0.950 . S
H1056 C1030 0.950 . S
H1057 C1032 0.950 . S
H1058 C1035 0.950 . S
H1059 C1037 0.950 . S
C1060 C1061 1.443 . S
C1060 N1064 1.376 . S
C1060 C1098 1.389 . S
C1061 C1060 1.443 . S
C1061 C1062 1.340 . S
C1061 H1101 0.951 . S
C1062 C1061 1.340 . S
C1062 C1063 1.439 . S
C1062 H1102 0.950 . S
C1063 C1062 1.439 . S
C1063 N1064 1.374 . S
C1063 C1097 1.395 . S
N1064 C1060 1.376 . S
N1064 C1063 1.374 . S
N1064 Co1065 2.008 . S
Co1065 N1064 2.008 . S
Co1065 N1066 1.995 . S
Co1065 N1071 2.008 . S
Co1065 N1076 1.995 . S
Co1065 N1081 2.282 . S
Co1065 N1087 2.282 . S
N1066 Co1065 1.995 . S
N1066 C1067 1.376 . S
N1066 C1070 1.383 . S
C1067 N1066 1.376 . S
C1067 C1068 1.446 . S
C1067 C1097 1.391 . S
C1068 C1067 1.446 . S
C1068 C1069 1.339 . S
C1068 H1103 0.949 . S
C1069 C1068 1.339 . S
C1069 C1070 1.439 . S
C1069 H1104 0.950 . S
C1070 N1066 1.383 . S
C1070 C1069 1.439 . S
C1070 C1099 1.392 . S
N1071 Co1065 2.008 . S
N1071 C1072 1.376 . S
N1071 C1075 1.374 . S
C1072 N1071 1.376 . S
C1072 C1073 1.443 . S
C1072 C1099 1.389 . S
C1073 C1072 1.443 . S
C1073 C1074 1.340 . S
C1073 H1105 0.951 . S
C1074 C1073 1.340 . S
C1074 C1075 1.439 . S
C1074 H1106 0.950 . S
C1075 N1071 1.374 . S
C1075 C1074 1.439 . S
C1075 C1100 1.395 . S
N1076 Co1065 1.995 . S
N1076 C1077 1.376 . S
N1076 C1080 1.383 . S
C1077 N1076 1.376 . S
C1077 C1078 1.446 . S
C1077 C1100 1.391 . S
C1078 C1077 1.446 . S
C1078 C1079 1.339 . S
C1078 H1107 0.949 . S
C1079 C1078 1.339 . S
C1079 C1080 1.439 . S
C1079 H1108 0.950 . S
C1080 N1076 1.383 . S
C1080 C1079 1.439 . S
C1080 C1098 1.392 . S
N1081 Co1065 2.282 . S
N1081 C1084 1.332 . S
N1081 C1086 1.332 . S
C1082 C1083 1.386 . S
C1082 C1085 1.388 . S
C1083 C1082 1.386 . S
C1083 C1084 1.382 . S
C1083 H1109 0.950 . S
C1084 N1081 1.332 . S
C1084 C1083 1.382 . S
C1084 H1095 0.952 . S
C1085 C1082 1.388 . S
C1085 C1086 1.382 . S
C1085 H1110 0.950 . S
C1086 N1081 1.332 . S
C1086 C1085 1.382 . S
C1086 H1096 0.948 . S
N1087 Co1065 2.282 . S
N1087 C1091 1.332 . S
N1087 C1092 1.332 . S
C1088 C1089 1.388 . S
C1088 C1092 1.382 . S
C1088 H1111 0.950 . S
C1089 C1088 1.388 . S
C1089 C1090 1.386 . S
C1090 C1089 1.386 . S
C1090 C1091 1.382 . S
C1090 H1112 0.950 . S
C1091 N1087 1.332 . S
C1091 C1090 1.382 . S
C1091 H1093 0.952 . S
C1092 N1087 1.332 . S
C1092 C1088 1.382 . S
C1092 H1094 0.948 . S
H1093 C1091 0.952 . S
H1094 C1092 0.948 . S
H1095 C1084 0.952 . S
H1096 C1086 0.948 . S
C1097 C1063 1.395 . S
C1097 C1067 1.391 . S
C1098 C1060 1.389 . S
C1098 C1080 1.392 . S
C1099 C1070 1.392 . S
C1099 C1072 1.389 . S
C1100 C1075 1.395 . S
C1100 C1077 1.391 . S
H1101 C1061 0.951 . S
H1102 C1062 0.950 . S
H1103 C1068 0.949 . S
H1104 C1069 0.950 . S
H1105 C1073 0.951 . S
H1106 C1074 0.950 . S
H1107 C1078 0.949 . S
H1108 C1079 0.950 . S
H1109 C1083 0.950 . S
H1110 C1085 0.950 . S
H1111 C1088 0.950 . S
H1112 C1090 0.950 . S
C1113 C1114 1.443 . S
C1113 N1117 1.376 . S
C1113 C1151 1.389 . S
C1114 C1113 1.443 . S
C1114 C1115 1.340 . S
C1114 H1154 0.951 . S
C1115 C1114 1.340 . S
C1115 C1116 1.439 . S
C1115 H1155 0.950 . S
C1116 C1115 1.439 . S
C1116 N1117 1.374 . S
C1116 C1150 1.395 . S
N1117 C1113 1.376 . S
N1117 C1116 1.374 . S
N1117 Co1118 2.008 . S
Co1118 N1117 2.008 . S
Co1118 N1119 1.995 . S
Co1118 N1124 2.008 . S
Co1118 N1129 1.995 . S
Co1118 N1134 2.282 . S
Co1118 N1140 2.282 . S
N1119 Co1118 1.995 . S
N1119 C1120 1.376 . S
N1119 C1123 1.383 . S
C1120 N1119 1.376 . S
C1120 C1121 1.446 . S
C1120 C1150 1.391 . S
C1121 C1120 1.446 . S
C1121 C1122 1.339 . S
C1121 H1156 0.949 . S
C1122 C1121 1.339 . S
C1122 C1123 1.439 . S
C1122 H1157 0.950 . S
C1123 N1119 1.383 . S
C1123 C1122 1.439 . S
C1123 C1152 1.392 . S
N1124 Co1118 2.008 . S
N1124 C1125 1.376 . S
N1124 C1128 1.374 . S
C1125 N1124 1.376 . S
C1125 C1126 1.443 . S
C1125 C1152 1.389 . S
C1126 C1125 1.443 . S
C1126 C1127 1.340 . S
C1126 H1158 0.951 . S
C1127 C1126 1.340 . S
C1127 C1128 1.439 . S
C1127 H1159 0.950 . S
C1128 N1124 1.374 . S
C1128 C1127 1.439 . S
C1128 C1153 1.395 . S
N1129 Co1118 1.995 . S
N1129 C1130 1.376 . S
N1129 C1133 1.383 . S
C1130 N1129 1.376 . S
C1130 C1131 1.446 . S
C1130 C1153 1.391 . S
C1131 C1130 1.446 . S
C1131 C1132 1.339 . S
C1131 H1160 0.949 . S
C1132 C1131 1.339 . S
C1132 C1133 1.439 . S
C1132 H1161 0.950 . S
C1133 N1129 1.383 . S
C1133 C1132 1.439 . S
C1133 C1151 1.392 . S
N1134 Co1118 2.282 . S
N1134 C1137 1.332 . S
N1134 C1139 1.332 . S
C1135 C1136 1.386 . S
C1135 C1138 1.388 . S
C1136 C1135 1.386 . S
C1136 C1137 1.382 . S
C1136 H1162 0.950 . S
C1137 N1134 1.332 . S
C1137 C1136 1.382 . S
C1137 H1148 0.952 . S
C1138 C1135 1.388 . S
C1138 C1139 1.382 . S
C1138 H1163 0.950 . S
C1139 N1134 1.332 . S
C1139 C1138 1.382 . S
C1139 H1149 0.948 . S
N1140 Co1118 2.282 . S
N1140 C1144 1.332 . S
N1140 C1145 1.332 . S
C1141 C1142 1.388 . S
C1141 C1145 1.382 . S
C1141 H1164 0.950 . S
C1142 C1141 1.388 . S
C1142 C1143 1.386 . S
C1143 C1142 1.386 . S
C1143 C1144 1.382 . S
C1143 H1165 0.950 . S
C1144 N1140 1.332 . S
C1144 C1143 1.382 . S
C1144 H1146 0.952 . S
C1145 N1140 1.332 . S
C1145 C1141 1.382 . S
C1145 H1147 0.948 . S
H1146 C1144 0.952 . S
H1147 C1145 0.948 . S
H1148 C1137 0.952 . S
H1149 C1139 0.948 . S
C1150 C1116 1.395 . S
C1150 C1120 1.391 . S
C1151 C1113 1.389 . S
C1151 C1133 1.392 . S
C1152 C1123 1.392 . S
C1152 C1125 1.389 . S
C1153 C1128 1.395 . S
C1153 C1130 1.391 . S
H1154 C1114 0.951 . S
H1155 C1115 0.950 . S
H1156 C1121 0.949 . S
H1157 C1122 0.950 . S
H1158 C1126 0.951 . S
H1159 C1127 0.950 . S
H1160 C1131 0.949 . S
H1161 C1132 0.950 . S
H1162 C1136 0.950 . S
H1163 C1138 0.950 . S
H1164 C1141 0.950 . S
H1165 C1143 0.950 . S
C1166 C1167 1.443 . S
C1166 N1170 1.376 . S
C1166 C1204 1.389 . S
C1167 C1166 1.443 . S
C1167 C1168 1.340 . S
C1167 H1207 0.951 . S
C1168 C1167 1.340 . S
C1168 C1169 1.439 . S
C1168 H1208 0.950 . S
C1169 C1168 1.439 . S
C1169 N1170 1.374 . S
C1169 C1203 1.395 . S
N1170 C1166 1.376 . S
N1170 C1169 1.374 . S
N1170 Co1171 2.008 . S
Co1171 N1170 2.008 . S
Co1171 N1172 1.995 . S
Co1171 N1177 2.008 . S
Co1171 N1182 1.995 . S
Co1171 N1187 2.282 . S
Co1171 N1193 2.282 . S
N1172 Co1171 1.995 . S
N1172 C1173 1.376 . S
N1172 C1176 1.383 . S
C1173 N1172 1.376 . S
C1173 C1174 1.446 . S
C1173 C1203 1.391 . S
C1174 C1173 1.446 . S
C1174 C1175 1.339 . S
C1174 H1209 0.949 . S
C1175 C1174 1.339 . S
C1175 C1176 1.439 . S
C1175 H1210 0.950 . S
C1176 N1172 1.383 . S
C1176 C1175 1.439 . S
C1176 C1205 1.392 . S
N1177 Co1171 2.008 . S
N1177 C1178 1.376 . S
N1177 C1181 1.374 . S
C1178 N1177 1.376 . S
C1178 C1179 1.443 . S
C1178 C1205 1.389 . S
C1179 C1178 1.443 . S
C1179 C1180 1.340 . S
C1179 H1211 0.951 . S
C1180 C1179 1.340 . S
C1180 C1181 1.439 . S
C1180 H1212 0.950 . S
C1181 N1177 1.374 . S
C1181 C1180 1.439 . S
C1181 C1206 1.395 . S
N1182 Co1171 1.995 . S
N1182 C1183 1.376 . S
N1182 C1186 1.383 . S
C1183 N1182 1.376 . S
C1183 C1184 1.446 . S
C1183 C1206 1.391 . S
C1184 C1183 1.446 . S
C1184 C1185 1.339 . S
C1184 H1213 0.949 . S
C1185 C1184 1.339 . S
C1185 C1186 1.439 . S
C1185 H1214 0.950 . S
C1186 N1182 1.383 . S
C1186 C1185 1.439 . S
C1186 C1204 1.392 . S
N1187 Co1171 2.282 . S
N1187 C1190 1.332 . S
N1187 C1192 1.332 . S
C1188 C1189 1.386 . S
C1188 C1191 1.388 . S
C1189 C1188 1.386 . S
C1189 C1190 1.382 . S
C1189 H1215 0.950 . S
C1190 N1187 1.332 . S
C1190 C1189 1.382 . S
C1190 H1201 0.952 . S
C1191 C1188 1.388 . S
C1191 C1192 1.382 . S
C1191 H1216 0.950 . S
C1192 N1187 1.332 . S
C1192 C1191 1.382 . S
C1192 H1202 0.948 . S
N1193 Co1171 2.282 . S
N1193 C1197 1.332 . S
N1193 C1198 1.332 . S
C1194 C1195 1.388 . S
C1194 C1198 1.382 . S
C1194 H1217 0.950 . S
C1195 C1194 1.388 . S
C1195 C1196 1.386 . S
C1196 C1195 1.386 . S
C1196 C1197 1.382 . S
C1196 H1218 0.950 . S
C1197 N1193 1.332 . S
C1197 C1196 1.382 . S
C1197 H1199 0.952 . S
C1198 N1193 1.332 . S
C1198 C1194 1.382 . S
C1198 H1200 0.948 . S
H1199 C1197 0.952 . S
H1200 C1198 0.948 . S
H1201 C1190 0.952 . S
H1202 C1192 0.948 . S
C1203 C1169 1.395 . S
C1203 C1173 1.391 . S
C1204 C1166 1.389 . S
C1204 C1186 1.392 . S
C1205 C1176 1.392 . S
C1205 C1178 1.389 . S
C1206 C1181 1.395 . S
C1206 C1183 1.391 . S
H1207 C1167 0.951 . S
H1208 C1168 0.950 . S
H1209 C1174 0.949 . S
H1210 C1175 0.950 . S
H1211 C1179 0.951 . S
H1212 C1180 0.950 . S
H1213 C1184 0.949 . S
H1214 C1185 0.950 . S
H1215 C1189 0.950 . S
H1216 C1191 0.950 . S
H1217 C1194 0.950 . S
H1218 C1196 0.950 . S
C1219 C1220 1.443 . S
C1219 N1223 1.376 . S
C1219 C1257 1.389 . S
C1220 C1219 1.443 . S
C1220 C1221 1.340 . S
C1220 H1260 0.951 . S
C1221 C1220 1.340 . S
C1221 C1222 1.439 . S
C1221 H1261 0.950 . S
C1222 C1221 1.439 . S
C1222 N1223 1.374 . S
C1222 C1256 1.395 . S
N1223 C1219 1.376 . S
N1223 C1222 1.374 . S
N1223 Co1224 2.008 . S
Co1224 N1223 2.008 . S
Co1224 N1225 1.995 . S
Co1224 N1230 2.008 . S
Co1224 N1235 1.995 . S
Co1224 N1240 2.282 . S
Co1224 N1246 2.282 . S
N1225 Co1224 1.995 . S
N1225 C1226 1.376 . S
N1225 C1229 1.383 . S
C1226 N1225 1.376 . S
C1226 C1227 1.446 . S
C1226 C1256 1.391 . S
C1227 C1226 1.446 . S
C1227 C1228 1.339 . S
C1227 H1262 0.949 . S
C1228 C1227 1.339 . S
C1228 C1229 1.439 . S
C1228 H1263 0.950 . S
C1229 N1225 1.383 . S
C1229 C1228 1.439 . S
C1229 C1258 1.392 . S
N1230 Co1224 2.008 . S
N1230 C1231 1.376 . S
N1230 C1234 1.374 . S
C1231 N1230 1.376 . S
C1231 C1232 1.443 . S
C1231 C1258 1.389 . S
C1232 C1231 1.443 . S
C1232 C1233 1.340 . S
C1232 H1264 0.951 . S
C1233 C1232 1.340 . S
C1233 C1234 1.439 . S
C1233 H1265 0.950 . S
C1234 N1230 1.374 . S
C1234 C1233 1.439 . S
C1234 C1259 1.395 . S
N1235 Co1224 1.995 . S
N1235 C1236 1.376 . S
N1235 C1239 1.383 . S
C1236 N1235 1.376 . S
C1236 C1237 1.446 . S
C1236 C1259 1.391 . S
C1237 C1236 1.446 . S
C1237 C1238 1.339 . S
C1237 H1266 0.949 . S
C1238 C1237 1.339 . S
C1238 C1239 1.439 . S
C1238 H1267 0.950 . S
C1239 N1235 1.383 . S
C1239 C1238 1.439 . S
C1239 C1257 1.392 . S
N1240 Co1224 2.282 . S
N1240 C1243 1.332 . S
N1240 C1245 1.332 . S
C1241 C1242 1.386 . S
C1241 C1244 1.388 . S
C1242 C1241 1.386 . S
C1242 C1243 1.382 . S
C1242 H1268 0.950 . S
C1243 N1240 1.332 . S
C1243 C1242 1.382 . S
C1243 H1254 0.952 . S
C1244 C1241 1.388 . S
C1244 C1245 1.382 . S
C1244 H1269 0.950 . S
C1245 N1240 1.332 . S
C1245 C1244 1.382 . S
C1245 H1255 0.948 . S
N1246 Co1224 2.282 . S
N1246 C1250 1.332 . S
N1246 C1251 1.332 . S
C1247 C1248 1.388 . S
C1247 C1251 1.382 . S
C1247 H1270 0.950 . S
C1248 C1247 1.388 . S
C1248 C1249 1.386 . S
C1249 C1248 1.386 . S
C1249 C1250 1.382 . S
C1249 H1271 0.950 . S
C1250 N1246 1.332 . S
C1250 C1249 1.382 . S
C1250 H1252 0.952 . S
C1251 N1246 1.332 . S
C1251 C1247 1.382 . S
C1251 H1253 0.948 . S
H1252 C1250 0.952 . S
H1253 C1251 0.948 . S
H1254 C1243 0.952 . S
H1255 C1245 0.948 . S
C1256 C1222 1.395 . S
C1256 C1226 1.391 . S
C1257 C1219 1.389 . S
C1257 C1239 1.392 . S
C1258 C1229 1.392 . S
C1258 C1231 1.389 . S
C1259 C1234 1.395 . S
C1259 C1236 1.391 . S
H1260 C1220 0.951 . S
H1261 C1221 0.950 . S
H1262 C1227 0.949 . S
H1263 C1228 0.950 . S
H1264 C1232 0.951 . S
H1265 C1233 0.950 . S
H1266 C1237 0.949 . S
H1267 C1238 0.950 . S
H1268 C1242 0.950 . S
H1269 C1244 0.950 . S
H1270 C1247 0.950 . S
H1271 C1249 0.950 . S
H1272 C1284 0.930 . S
H1273 C1286 0.930 . S
H1274 C1287 0.930 . S
H1275 C1291 0.959 . S
H1276 C1291 0.959 . S
H1277 C1291 0.961 . S
H1278 C1292 0.960 . S
H1279 C1292 0.961 . S
H1280 C1292 0.959 . S
H1281 C1295 0.929 . S
H1282 C1296 0.931 . S
H1283 C1298 0.930 . S
C1284 H1272 0.930 . S
C1284 C1285 1.399 . S
C1284 C1289 1.399 . S
C1285 C1284 1.399 . S
C1285 C1286 1.376 . S
C1286 H1273 0.930 . S
C1286 C1285 1.376 . S
C1286 C1287 1.388 . S
C1287 H1274 0.930 . S
C1287 C1286 1.388 . S
C1287 C1288 1.390 . S
C1288 C1287 1.390 . S
C1288 C1289 1.394 . S
C1288 C1294 1.465 . S
C1289 C1284 1.399 . S
C1289 C1288 1.394 . S
C1289 C1290 1.516 . S
C1290 C1289 1.516 . S
C1290 C1291 1.502 . S
C1290 C1292 1.561 . S
C1290 C1293 1.526 . S
C1291 H1275 0.959 . S
C1291 H1276 0.959 . S
C1291 H1277 0.961 . S
C1291 C1290 1.502 . S
C1292 H1278 0.960 . S
C1292 H1279 0.961 . S
C1292 H1280 0.959 . S
C1292 C1290 1.561 . S
C1293 C1290 1.526 . S
C1293 C1294 1.396 . S
C1293 C1298 1.390 . S
C1294 C1288 1.465 . S
C1294 C1293 1.396 . S
C1294 C1295 1.399 . S
C1295 H1281 0.929 . S
C1295 C1294 1.399 . S
C1295 C1296 1.385 . S
C1296 H1282 0.931 . S
C1296 C1295 1.385 . S
C1296 C1297 1.389 . S
C1297 C1296 1.389 . S
C1297 C1298 1.387 . S
C1298 H1283 0.930 . S
C1298 C1293 1.390 . S
C1298 C1297 1.387 . S
H1299 C1311 0.930 . S
H1300 C1313 0.930 . S
H1301 C1314 0.930 . S
H1302 C1318 0.959 . S
H1303 C1318 0.959 . S
H1304 C1318 0.961 . S
H1305 C1319 0.960 1_655 S
H1306 C1319 0.961 . S
H1307 C1319 0.959 . S
H1308 C1322 0.929 . S
H1309 C1323 0.931 . S
H1310 C1325 0.930 . S
C1311 H1299 0.930 . S
C1311 C1312 1.399 . S
C1311 C1316 1.399 . S
C1312 C1311 1.399 . S
C1312 C1313 1.376 . S
C1313 H1300 0.930 . S
C1313 C1312 1.376 . S
C1313 C1314 1.388 . S
C1314 H1301 0.930 . S
C1314 C1313 1.388 . S
C1314 C1315 1.390 . S
C1315 C1314 1.390 . S
C1315 C1316 1.394 . S
C1315 C1321 1.465 1_655 S
C1316 C1311 1.399 . S
C1316 C1315 1.394 . S
C1316 C1317 1.516 . S
C1317 C1316 1.516 . S
C1317 C1318 1.502 . S
C1317 C1319 1.561 1_655 S
C1317 C1320 1.526 1_655 S
C1318 H1302 0.959 . S
C1318 H1303 0.959 . S
C1318 H1304 0.961 . S
C1318 C1317 1.502 . S
C1319 H1305 0.960 1_455 S
C1319 H1306 0.961 . S
C1319 H1307 0.959 . S
C1319 C1317 1.561 1_455 S
C1320 C1317 1.526 1_455 S
C1320 C1321 1.396 . S
C1320 C1325 1.390 . S
C1321 C1315 1.465 1_455 S
C1321 C1320 1.396 . S
C1321 C1322 1.399 . S
C1322 H1308 0.929 . S
C1322 C1321 1.399 . S
C1322 C1323 1.385 . S
C1323 H1309 0.931 . S
C1323 C1322 1.385 . S
C1323 C1324 1.389 . S
C1324 C1323 1.389 . S
C1324 C1325 1.387 . S
C1325 H1310 0.930 . S
C1325 C1320 1.390 . S
C1325 C1324 1.387 . S
H1326 C1338 0.930 . S
H1327 C1340 0.930 . S
H1328 C1341 0.930 . S
H1329 C1345 0.959 . S
H1330 C1345 0.959 . S
H1331 C1345 0.961 . S
H1332 C1346 0.960 . S
H1333 C1346 0.961 . S
H1334 C1346 0.959 . S
H1335 C1349 0.929 . S
H1336 C1350 0.931 . S
H1337 C1352 0.930 . S
C1338 H1326 0.930 . S
C1338 C1339 1.399 . S
C1338 C1343 1.399 . S
C1339 C1338 1.399 . S
C1339 C1340 1.376 . S
C1340 H1327 0.930 . S
C1340 C1339 1.376 . S
C1340 C1341 1.388 . S
C1341 H1328 0.930 . S
C1341 C1340 1.388 . S
C1341 C1342 1.390 . S
C1342 C1341 1.390 . S
C1342 C1343 1.394 . S
C1342 C1348 1.465 . S
C1343 C1338 1.399 . S
C1343 C1342 1.394 . S
C1343 C1344 1.516 . S
C1344 C1343 1.516 . S
C1344 C1345 1.502 . S
C1344 C1346 1.561 . S
C1344 C1347 1.526 . S
C1345 H1329 0.959 . S
C1345 H1330 0.959 . S
C1345 H1331 0.961 . S
C1345 C1344 1.502 . S
C1346 H1332 0.960 . S
C1346 H1333 0.961 . S
C1346 H1334 0.959 . S
C1346 C1344 1.561 . S
C1347 C1344 1.526 . S
C1347 C1348 1.396 . S
C1347 C1352 1.390 . S
C1348 C1342 1.465 . S
C1348 C1347 1.396 . S
C1348 C1349 1.399 1_554 S
C1349 H1335 0.929 . S
C1349 C1348 1.399 1_556 S
C1349 C1350 1.385 . S
C1350 H1336 0.931 . S
C1350 C1349 1.385 . S
C1350 C1351 1.389 . S
C1351 C1350 1.389 . S
C1351 C1352 1.387 1_556 S
C1352 H1337 0.930 . S
C1352 C1347 1.390 . S
C1352 C1351 1.387 1_554 S
H1353 C1365 0.930 . S
H1354 C1367 0.930 . S
H1355 C1368 0.930 . S
H1356 C1372 0.959 . S
H1357 C1372 0.959 . S
H1358 C1372 0.961 . S
H1359 C1373 0.960 . S
H1360 C1373 0.961 . S
H1361 C1373 0.959 . S
H1362 C1376 0.929 . S
H1363 C1377 0.931 . S
H1364 C1379 0.930 . S
C1365 H1353 0.930 . S
C1365 C1366 1.399 . S
C1365 C1370 1.399 . S
C1366 C1365 1.399 . S
C1366 C1367 1.376 . S
C1367 H1354 0.930 . S
C1367 C1366 1.376 . S
C1367 C1368 1.388 . S
C1368 H1355 0.930 . S
C1368 C1367 1.388 . S
C1368 C1369 1.390 . S
C1369 C1368 1.390 . S
C1369 C1370 1.394 . S
C1369 C1375 1.465 . S
C1370 C1365 1.399 . S
C1370 C1369 1.394 . S
C1370 C1371 1.516 . S
C1371 C1370 1.516 . S
C1371 C1372 1.502 . S
C1371 C1373 1.561 . S
C1371 C1374 1.526 . S
C1372 H1356 0.959 . S
C1372 H1357 0.959 . S
C1372 H1358 0.961 . S
C1372 C1371 1.502 . S
C1373 H1359 0.960 . S
C1373 H1360 0.961 . S
C1373 H1361 0.959 . S
C1373 C1371 1.561 . S
C1374 C1371 1.526 . S
C1374 C1375 1.396 . S
C1374 C1379 1.390 . S
C1375 C1369 1.465 . S
C1375 C1374 1.396 . S
C1375 C1376 1.399 . S
C1376 H1362 0.929 . S
C1376 C1375 1.399 . S
C1376 C1377 1.385 . S
C1377 H1363 0.931 . S
C1377 C1376 1.385 . S
C1377 C1378 1.389 . S
C1378 C1377 1.389 . S
C1378 C1379 1.387 . S
C1379 H1364 0.930 . S
C1379 C1374 1.390 . S
C1379 C1378 1.387 . S
H1380 C1392 0.930 . S
H1381 C1394 0.930 . S
H1382 C1395 0.930 1_554 S
H1383 C1399 0.959 . S
H1384 C1399 0.959 . S
H1385 C1399 0.961 . S
H1386 C1400 0.960 . S
H1387 C1400 0.961 . S
H1388 C1400 0.959 . S
H1389 C1403 0.929 . S
H1390 C1404 0.931 . S
H1391 C1406 0.930 . S
C1392 H1380 0.930 . S
C1392 C1393 1.399 . S
C1392 C1397 1.399 . S
C1393 C1392 1.399 . S
C1393 C1394 1.376 . S
C1394 H1381 0.930 . S
C1394 C1393 1.376 . S
C1394 C1395 1.388 . S
C1395 H1382 0.930 1_556 S
C1395 C1394 1.388 . S
C1395 C1396 1.390 . S
C1396 C1395 1.390 . S
C1396 C1397 1.394 . S
C1396 C1402 1.465 1_556 S
C1397 C1392 1.399 . S
C1397 C1396 1.394 . S
C1397 C1398 1.516 . S
C1398 C1397 1.516 . S
C1398 C1399 1.502 . S
C1398 C1400 1.561 . S
C1398 C1401 1.526 1_556 S
C1399 H1383 0.959 . S
C1399 H1384 0.959 . S
C1399 H1385 0.961 . S
C1399 C1398 1.502 . S
C1400 H1386 0.960 . S
C1400 H1387 0.961 . S
C1400 H1388 0.959 . S
C1400 C1398 1.561 . S
C1401 C1398 1.526 1_554 S
C1401 C1402 1.396 . S
C1401 C1406 1.390 . S
C1402 C1396 1.465 1_554 S
C1402 C1401 1.396 . S
C1402 C1403 1.399 . S
C1403 H1389 0.929 . S
C1403 C1402 1.399 . S
C1403 C1404 1.385 . S
C1404 H1390 0.931 . S
C1404 C1403 1.385 . S
C1404 C1405 1.389 . S
C1405 C1404 1.389 . S
C1405 C1406 1.387 . S
C1406 H1391 0.930 . S
C1406 C1401 1.390 . S
C1406 C1405 1.387 . S
H1407 C1419 0.930 . S
H1408 C1421 0.930 . S
H1409 C1422 0.930 . S
H1410 C1426 0.959 . S
H1411 C1426 0.959 . S
H1412 C1426 0.961 . S
H1413 C1427 0.960 . S
H1414 C1427 0.961 . S
H1415 C1427 0.959 . S
H1416 C1430 0.929 . S
H1417 C1431 0.931 . S
H1418 C1433 0.930 . S
C1419 H1407 0.930 . S
C1419 C1420 1.399 . S
C1419 C1424 1.399 . S
C1420 C1419 1.399 . S
C1420 C1421 1.376 . S
C1421 H1408 0.930 . S
C1421 C1420 1.376 . S
C1421 C1422 1.388 . S
C1422 H1409 0.930 . S
C1422 C1421 1.388 . S
C1422 C1423 1.390 . S
C1423 C1422 1.390 . S
C1423 C1424 1.394 . S
C1423 C1429 1.465 . S
C1424 C1419 1.399 . S
C1424 C1423 1.394 . S
C1424 C1425 1.516 . S
C1425 C1424 1.516 . S
C1425 C1426 1.502 . S
C1425 C1427 1.561 . S
C1425 C1428 1.526 . S
C1426 H1410 0.959 . S
C1426 H1411 0.959 . S
C1426 H1412 0.961 . S
C1426 C1425 1.502 . S
C1427 H1413 0.960 . S
C1427 H1414 0.961 . S
C1427 H1415 0.959 . S
C1427 C1425 1.561 . S
C1428 C1425 1.526 . S
C1428 C1429 1.396 . S
C1428 C1433 1.390 . S
C1429 C1423 1.465 . S
C1429 C1428 1.396 . S
C1429 C1430 1.399 . S
C1430 H1416 0.929 . S
C1430 C1429 1.399 . S
C1430 C1431 1.385 . S
C1431 H1417 0.931 . S
C1431 C1430 1.385 . S
C1431 C1432 1.389 . S
C1432 C1431 1.389 . S
C1432 C1433 1.387 . S
C1433 H1418 0.930 . S
C1433 C1428 1.390 . S
C1433 C1432 1.387 . S
H1434 C1446 0.930 . S
H1435 C1448 0.930 . S
H1436 C1449 0.930 . S
H1437 C1453 0.959 . S
H1438 C1453 0.959 . S
H1439 C1453 0.961 . S
H1440 C1454 0.960 . S
H1441 C1454 0.961 . S
H1442 C1454 0.959 . S
H1443 C1457 0.929 . S
H1444 C1458 0.931 . S
H1445 C1460 0.930 . S
C1446 H1434 0.930 . S
C1446 C1447 1.399 . S
C1446 C1451 1.399 . S
C1447 C1446 1.399 . S
C1447 C1448 1.376 . S
C1448 H1435 0.930 . S
C1448 C1447 1.376 . S
C1448 C1449 1.388 . S
C1449 H1436 0.930 . S
C1449 C1448 1.388 . S
C1449 C1450 1.390 . S
C1450 C1449 1.390 . S
C1450 C1451 1.394 . S
C1450 C1456 1.465 . S
C1451 C1446 1.399 . S
C1451 C1450 1.394 . S
C1451 C1452 1.516 . S
C1452 C1451 1.516 . S
C1452 C1453 1.502 . S
C1452 C1454 1.561 . S
C1452 C1455 1.526 . S
C1453 H1437 0.959 . S
C1453 H1438 0.959 . S
C1453 H1439 0.961 . S
C1453 C1452 1.502 . S
C1454 H1440 0.960 . S
C1454 H1441 0.961 . S
C1454 H1442 0.959 . S
C1454 C1452 1.561 . S
C1455 C1452 1.526 . S
C1455 C1456 1.396 . S
C1455 C1460 1.390 . S
C1456 C1450 1.465 . S
C1456 C1455 1.396 . S
C1456 C1457 1.399 . S
C1457 H1443 0.929 . S
C1457 C1456 1.399 . S
C1457 C1458 1.385 . S
C1458 H1444 0.931 . S
C1458 C1457 1.385 . S
C1458 C1459 1.389 . S
C1459 C1458 1.389 . S
C1459 C1460 1.387 . S
C1460 H1445 0.930 . S
C1460 C1455 1.390 . S
C1460 C1459 1.387 . S
H1461 C1473 0.930 . S
H1462 C1475 0.930 . S
H1463 C1476 0.930 . S
H1464 C1480 0.959 . S
H1465 C1480 0.959 1_655 S
H1466 C1480 0.961 . S
H1467 C1481 0.960 . S
H1468 C1481 0.961 . S
H1469 C1481 0.959 . S
H1470 C1484 0.929 . S
H1471 C1485 0.931 . S
H1472 C1487 0.930 . S
C1473 H1461 0.930 . S
C1473 C1474 1.399 . S
C1473 C1478 1.399 . S
C1474 C1473 1.399 . S
C1474 C1475 1.376 . S
C1475 H1462 0.930 . S
C1475 C1474 1.376 . S
C1475 C1476 1.388 . S
C1476 H1463 0.930 . S
C1476 C1475 1.388 . S
C1476 C1477 1.390 . S
C1477 C1476 1.390 . S
C1477 C1478 1.394 . S
C1477 C1483 1.465 1_455 S
C1478 C1473 1.399 . S
C1478 C1477 1.394 . S
C1478 C1479 1.497 1_455 S
C1479 C1478 1.497 1_655 S
C1479 C1480 1.486 1_655 S
C1479 C1481 1.583 . S
C1479 C1482 1.542 . S
C1480 H1464 0.959 . S
C1480 H1465 0.959 1_455 S
C1480 H1466 0.961 . S
C1480 C1479 1.486 1_455 S
C1481 H1467 0.960 . S
C1481 H1468 0.961 . S
C1481 H1469 0.959 . S
C1481 C1479 1.583 . S
C1482 C1479 1.542 . S
C1482 C1483 1.396 . S
C1482 C1487 1.390 . S
C1483 C1477 1.465 1_655 S
C1483 C1482 1.396 . S
C1483 C1484 1.399 . S
C1484 H1470 0.929 . S
C1484 C1483 1.399 . S
C1484 C1485 1.385 . S
C1485 H1471 0.931 . S
C1485 C1484 1.385 . S
C1485 C1486 1.389 . S
C1486 C1485 1.389 . S
C1486 C1487 1.387 . S
C1487 H1472 0.930 . S
C1487 C1482 1.390 . S
C1487 C1486 1.387 . S
H1488 C1500 0.930 . S
H1489 C1502 0.930 . S
H1490 C1503 0.930 . S
H1491 C1507 0.959 . S
H1492 C1507 0.959 . S
H1493 C1507 0.961 . S
H1494 C1508 0.960 . S
H1495 C1508 0.961 . S
H1496 C1508 0.959 . S
H1497 C1511 0.929 . S
H1498 C1512 0.931 . S
H1499 C1514 0.930 . S
C1500 H1488 0.930 . S
C1500 C1501 1.399 . S
C1500 C1505 1.399 . S
C1501 C1500 1.399 . S
C1501 C1502 1.376 . S
C1502 H1489 0.930 . S
C1502 C1501 1.376 . S
C1502 C1503 1.388 . S
C1503 H1490 0.930 . S
C1503 C1502 1.388 . S
C1503 C1504 1.390 . S
C1504 C1503 1.390 . S
C1504 C1505 1.394 . S
C1504 C1510 1.465 . S
C1505 C1500 1.399 . S
C1505 C1504 1.394 . S
C1505 C1506 1.516 . S
C1506 C1505 1.516 . S
C1506 C1507 1.502 . S
C1506 C1508 1.561 . S
C1506 C1509 1.526 . S
C1507 H1491 0.959 . S
C1507 H1492 0.959 . S
C1507 H1493 0.961 . S
C1507 C1506 1.502 . S
C1508 H1494 0.960 . S
C1508 H1495 0.961 . S
C1508 H1496 0.959 . S
C1508 C1506 1.561 . S
C1509 C1506 1.526 . S
C1509 C1510 1.396 . S
C1509 C1514 1.390 . S
C1510 C1504 1.465 . S
C1510 C1509 1.396 . S
C1510 C1511 1.399 . S
C1511 H1497 0.929 . S
C1511 C1510 1.399 . S
C1511 C1512 1.385 . S
C1512 H1498 0.931 . S
C1512 C1511 1.385 . S
C1512 C1513 1.389 . S
C1513 C1512 1.389 . S
C1513 C1514 1.387 . S
C1514 H1499 0.930 . S
C1514 C1509 1.390 . S
C1514 C1513 1.387 . S
H1515 C1527 0.930 . S
H1516 C1529 0.930 . S
H1517 C1530 0.930 1_565 S
H1518 C1534 0.959 . S
H1519 C1534 0.959 . S
H1520 C1534 0.961 . S
H1521 C1535 0.960 . S
H1522 C1535 0.961 . S
H1523 C1535 0.959 . S
H1524 C1538 0.929 . S
H1525 C1539 0.931 . S
H1526 C1541 0.930 . S
C1527 H1515 0.930 . S
C1527 C1528 1.399 . S
C1527 C1532 1.399 . S
C1528 C1527 1.399 . S
C1528 C1529 1.376 . S
C1529 H1516 0.930 . S
C1529 C1528 1.376 . S
C1529 C1530 1.388 . S
C1530 H1517 0.930 1_545 S
C1530 C1529 1.388 . S
C1530 C1531 1.390 1_545 S
C1531 C1530 1.390 1_565 S
C1531 C1532 1.394 1_565 S
C1531 C1537 1.465 . S
C1532 C1527 1.399 . S
C1532 C1531 1.394 1_545 S
C1532 C1533 1.516 1_545 S
C1533 C1532 1.516 1_565 S
C1533 C1534 1.502 . S
C1533 C1535 1.561 1_565 S
C1533 C1536 1.526 . S
C1534 H1518 0.959 . S
C1534 H1519 0.959 . S
C1534 H1520 0.961 . S
C1534 C1533 1.502 . S
C1535 H1521 0.960 . S
C1535 H1522 0.961 . S
C1535 H1523 0.959 . S
C1535 C1533 1.561 1_545 S
C1536 C1533 1.526 . S
C1536 C1537 1.396 . S
C1536 C1541 1.390 . S
C1537 C1531 1.465 . S
C1537 C1536 1.396 . S
C1537 C1538 1.399 . S
C1538 H1524 0.929 . S
C1538 C1537 1.399 . S
C1538 C1539 1.385 . S
C1539 H1525 0.931 . S
C1539 C1538 1.385 . S
C1539 C1540 1.389 . S
C1540 C1539 1.389 . S
C1540 C1541 1.387 . S
C1541 H1526 0.930 . S
C1541 C1536 1.390 . S
C1541 C1540 1.387 . S
H1542 C1554 0.930 . S
H1543 C1556 0.930 . S
H1544 C1557 0.930 . S
H1545 C1561 0.959 . S
H1546 C1561 0.959 1_565 S
H1547 C1561 0.961 . S
H1548 C1562 0.960 1_545 S
H1549 C1562 0.961 . S
H1550 C1562 0.963 . S
H1551 C1565 0.929 . S
H1552 C1566 0.931 . S
H1553 C1568 0.930 . S
C1554 H1542 0.930 . S
C1554 C1555 1.399 . S
C1554 C1559 1.399 . S
C1555 C1554 1.399 . S
C1555 C1556 1.376 . S
C1556 H1543 0.930 . S
C1556 C1555 1.376 . S
C1556 C1557 1.388 . S
C1557 H1544 0.930 . S
C1557 C1556 1.388 . S
C1557 C1558 1.390 . S
C1558 C1557 1.390 . S
C1558 C1559 1.394 . S
C1558 C1564 1.465 . S
C1559 C1554 1.399 . S
C1559 C1558 1.394 . S
C1559 C1560 1.516 . S
C1560 C1559 1.516 . S
C1560 C1561 1.502 . S
C1560 C1562 1.561 1_545 S
C1560 C1563 1.526 . S
C1561 H1545 0.959 . S
C1561 H1546 0.959 1_545 S
C1561 H1547 0.961 . S
C1561 C1560 1.502 . S
C1562 H1548 0.960 1_565 S
C1562 H1549 0.961 . S
C1562 H1550 0.963 . S
C1562 C1560 1.561 1_565 S
C1563 C1560 1.526 . S
C1563 C1564 1.396 . S
C1563 C1568 1.390 1_545 S
C1564 C1558 1.465 . S
C1564 C1563 1.396 . S
C1564 C1565 1.399 . S
C1565 H1551 0.929 . S
C1565 C1564 1.399 . S
C1565 C1566 1.385 . S
C1566 H1552 0.931 . S
C1566 C1565 1.385 . S
C1566 C1567 1.389 1_545 S
C1567 C1566 1.389 1_565 S
C1567 C1568 1.387 . S
C1568 H1553 0.930 . S
C1568 C1563 1.390 1_565 S
C1568 C1567 1.387 . S
H1569 C1581 0.930 . S
H1570 C1583 0.930 . S
H1571 C1584 0.930 . S
H1572 C1588 0.959 . S
H1573 C1588 0.959 . S
H1574 C1588 0.961 . S
H1575 C1589 0.960 . S
H1576 C1589 0.956 1_565 S
H1577 C1589 0.959 1_565 S
H1578 C1592 0.929 . S
H1579 C1593 0.931 . S
H1580 C1595 0.930 . S
C1581 H1569 0.930 . S
C1581 C1582 1.399 . S
C1581 C1586 1.399 . S
C1582 C1581 1.399 . S
C1582 C1583 1.376 . S
C1583 H1570 0.930 . S
C1583 C1582 1.376 . S
C1583 C1584 1.388 . S
C1584 H1571 0.930 . S
C1584 C1583 1.388 . S
C1584 C1585 1.390 . S
C1585 C1584 1.390 . S
C1585 C1586 1.394 . S
C1585 C1591 1.438 1_545 S
C1586 C1581 1.399 . S
C1586 C1585 1.394 . S
C1586 C1587 1.516 . S
C1587 C1586 1.516 . S
C1587 C1588 1.502 . S
C1587 C1589 1.561 . S
C1587 C1590 1.526 . S
C1588 H1572 0.959 . S
C1588 H1573 0.959 . S
C1588 H1574 0.961 . S
C1588 C1587 1.502 . S
C1589 H1575 0.960 . S
C1589 H1576 0.956 1_545 S
C1589 H1577 0.959 1_545 S
C1589 C1587 1.561 . S
C1590 C1587 1.526 . S
C1590 C1591 1.393 1_545 S
C1590 C1595 1.389 1_545 S
C1591 C1585 1.438 1_565 S
C1591 C1590 1.393 1_565 S
C1591 C1592 1.427 . S
C1592 H1578 0.929 . S
C1592 C1591 1.427 . S
C1592 C1593 1.385 . S
C1593 H1579 0.931 . S
C1593 C1592 1.385 . S
C1593 C1594 1.389 . S
C1594 C1593 1.389 . S
C1594 C1595 1.387 . S
C1595 H1580 0.930 . S
C1595 C1590 1.389 1_565 S
C1595 C1594 1.387 . S
H1596 C1608 0.930 . S
H1597 C1610 0.930 . S
H1598 C1611 0.930 . S
H1599 C1615 0.959 . S
H1600 C1615 0.959 . S
H1601 C1615 0.961 . S
H1602 C1616 0.960 . S
H1603 C1616 0.961 . S
H1604 C1616 0.959 . S
H1605 C1619 0.929 . S
H1606 C1620 0.931 . S
H1607 C1622 0.930 . S
C1608 H1596 0.930 . S
C1608 C1609 1.399 . S
C1608 C1613 1.399 . S
C1609 C1608 1.399 . S
C1609 C1610 1.376 . S
C1610 H1597 0.930 . S
C1610 C1609 1.376 . S
C1610 C1611 1.388 . S
C1611 H1598 0.930 . S
C1611 C1610 1.388 . S
C1611 C1612 1.390 . S
C1612 C1611 1.390 . S
C1612 C1613 1.394 . S
C1612 C1618 1.465 . S
C1613 C1608 1.399 . S
C1613 C1612 1.394 . S
C1613 C1614 1.516 . S
C1614 C1613 1.516 . S
C1614 C1615 1.502 . S
C1614 C1616 1.561 . S
C1614 C1617 1.526 . S
C1615 H1599 0.959 . S
C1615 H1600 0.959 . S
C1615 H1601 0.961 . S
C1615 C1614 1.502 . S
C1616 H1602 0.960 . S
C1616 H1603 0.961 . S
C1616 H1604 0.959 . S
C1616 C1614 1.561 . S
C1617 C1614 1.526 . S
C1617 C1618 1.396 . S
C1617 C1622 1.390 . S
C1618 C1612 1.465 . S
C1618 C1617 1.396 . S
C1618 C1619 1.399 . S
C1619 H1605 0.929 . S
C1619 C1618 1.399 . S
C1619 C1620 1.385 . S
C1620 H1606 0.931 . S
C1620 C1619 1.385 . S
C1620 C1621 1.389 . S
C1621 C1620 1.389 . S
C1621 C1622 1.387 . S
C1622 H1607 0.930 . S
C1622 C1617 1.390 . S
C1622 C1621 1.387 . S
H1623 C1635 0.930 . S
H1624 C1637 0.930 . S
H1625 C1638 0.930 . S
H1626 C1642 0.959 . S
H1627 C1642 0.959 . S
H1628 C1642 0.961 . S
H1629 C1643 0.960 . S
H1630 C1643 0.961 . S
H1631 C1643 0.959 . S
H1632 C1646 0.929 . S
H1633 C1647 0.931 . S
H1634 C1649 0.930 . S
C1635 H1623 0.930 . S
C1635 C1636 1.399 . S
C1635 C1640 1.399 . S
C1636 C1635 1.399 . S
C1636 C1637 1.376 . S
C1637 H1624 0.930 . S
C1637 C1636 1.376 . S
C1637 C1638 1.388 . S
C1638 H1625 0.930 . S
C1638 C1637 1.388 . S
C1638 C1639 1.390 . S
C1639 C1638 1.390 . S
C1639 C1640 1.394 . S
C1639 C1645 1.465 . S
C1640 C1635 1.399 . S
C1640 C1639 1.394 . S
C1640 C1641 1.516 . S
C1641 C1640 1.516 . S
C1641 C1642 1.502 . S
C1641 C1643 1.561 . S
C1641 C1644 1.526 . S
C1642 H1626 0.959 . S
C1642 H1627 0.959 . S
C1642 H1628 0.961 . S
C1642 C1641 1.502 . S
C1643 H1629 0.960 . S
C1643 H1630 0.961 . S
C1643 H1631 0.959 . S
C1643 C1641 1.561 . S
C1644 C1641 1.526 . S
C1644 C1645 1.396 . S
C1644 C1649 1.390 . S
C1645 C1639 1.465 . S
C1645 C1644 1.396 . S
C1645 C1646 1.399 . S
C1646 H1632 0.929 . S
C1646 C1645 1.399 . S
C1646 C1647 1.385 . S
C1647 H1633 0.931 . S
C1647 C1646 1.385 . S
C1647 C1648 1.389 . S
C1648 C1647 1.389 . S
C1648 C1649 1.387 . S
C1649 H1634 0.930 . S
C1649 C1644 1.390 . S
C1649 C1648 1.387 . S
H1650 C1662 0.930 . S
H1651 C1664 0.930 . S
H1652 C1665 0.930 . S
H1653 C1669 0.959 . S
H1654 C1669 0.959 . S
H1655 C1669 0.961 . S
H1656 C1670 0.960 . S
H1657 C1670 0.961 . S
H1658 C1670 0.959 . S
H1659 C1673 0.929 . S
H1660 C1674 0.931 . S
H1661 C1676 0.930 . S
C1662 H1650 0.930 . S
C1662 C1663 1.399 . S
C1662 C1667 1.399 . S
C1663 C1662 1.399 . S
C1663 C1664 1.376 . S
C1664 H1651 0.930 . S
C1664 C1663 1.376 . S
C1664 C1665 1.388 . S
C1665 H1652 0.930 . S
C1665 C1664 1.388 . S
C1665 C1666 1.390 . S
C1666 C1665 1.390 . S
C1666 C1667 1.394 . S
C1666 C1672 1.465 . S
C1667 C1662 1.399 . S
C1667 C1666 1.394 . S
C1667 C1668 1.516 . S
C1668 C1667 1.516 . S
C1668 C1669 1.502 . S
C1668 C1670 1.561 . S
C1668 C1671 1.526 . S
C1669 H1653 0.959 . S
C1669 H1654 0.959 . S
C1669 H1655 0.961 . S
C1669 C1668 1.502 . S
C1670 H1656 0.960 . S
C1670 H1657 0.961 . S
C1670 H1658 0.959 . S
C1670 C1668 1.561 . S
C1671 C1668 1.526 . S
C1671 C1672 1.396 . S
C1671 C1676 1.390 . S
C1672 C1666 1.465 . S
C1672 C1671 1.396 . S
C1672 C1673 1.399 . S
C1673 H1659 0.929 . S
C1673 C1672 1.399 . S
C1673 C1674 1.385 . S
C1674 H1660 0.931 . S
C1674 C1673 1.385 . S
C1674 C1675 1.389 . S
C1675 C1674 1.389 . S
C1675 C1676 1.387 . S
C1676 H1661 0.930 . S
C1676 C1671 1.390 . S
C1676 C1675 1.387 . S
H1677 C1689 0.930 . S
H1678 C1691 0.930 . S
H1679 C1692 0.915 1_554 S
H1680 C1696 0.959 . S
H1681 C1696 0.959 . S
H1682 C1696 0.961 . S
H1683 C1697 0.960 . S
H1684 C1697 0.961 . S
H1685 C1697 0.959 . S
H1686 C1700 0.929 . S
H1687 C1701 0.931 . S
H1688 C1703 0.930 . S
C1689 H1677 0.930 . S
C1689 C1690 1.399 . S
C1689 C1694 1.399 . S
C1690 C1689 1.399 . S
C1690 C1691 1.376 . S
C1691 H1678 0.930 . S
C1691 C1690 1.376 . S
C1691 C1692 1.403 . S
C1692 H1679 0.915 1_556 S
C1692 C1691 1.403 . S
C1692 C1693 1.391 . S
C1693 C1692 1.391 . S
C1693 C1694 1.394 . S
C1693 C1699 1.465 1_556 S
C1694 C1689 1.399 . S
C1694 C1693 1.394 . S
C1694 C1695 1.516 . S
C1695 C1694 1.516 . S
C1695 C1696 1.502 . S
C1695 C1697 1.561 . S
C1695 C1698 1.526 1_556 S
C1696 H1680 0.959 . S
C1696 H1681 0.959 . S
C1696 H1682 0.961 . S
C1696 C1695 1.502 . S
C1697 H1683 0.960 . S
C1697 H1684 0.961 . S
C1697 H1685 0.959 . S
C1697 C1695 1.561 . S
C1698 C1695 1.526 1_554 S
C1698 C1699 1.396 . S
C1698 C1703 1.390 . S
C1699 C1693 1.465 1_554 S
C1699 C1698 1.396 . S
C1699 C1700 1.399 . S
C1700 H1686 0.929 . S
C1700 C1699 1.399 . S
C1700 C1701 1.385 . S
C1701 H1687 0.931 . S
C1701 C1700 1.385 . S
C1701 C1702 1.389 . S
C1702 C1701 1.389 . S
C1702 C1703 1.387 . S
C1703 H1688 0.930 . S
C1703 C1698 1.390 . S
C1703 C1702 1.387 . S
H1704 C1716 0.930 . S
H1705 C1718 0.930 . S
H1706 C1719 0.930 . S
H1707 C1723 0.959 . S
H1708 C1723 0.959 . S
H1709 C1723 0.961 . S
H1710 C1724 0.960 . S
H1711 C1724 0.961 . S
H1712 C1724 0.959 . S
H1713 C1727 0.929 . S
H1714 C1728 0.931 . S
H1715 C1730 0.930 . S
C1716 H1704 0.930 . S
C1716 C1717 1.399 . S
C1716 C1721 1.399 . S
C1717 C1716 1.399 . S
C1717 C1718 1.376 . S
C1718 H1705 0.930 . S
C1718 C1717 1.376 . S
C1718 C1719 1.388 . S
C1719 H1706 0.930 . S
C1719 C1718 1.388 . S
C1719 C1720 1.390 . S
C1720 C1719 1.390 . S
C1720 C1721 1.394 . S
C1720 C1726 1.465 . S
C1721 C1716 1.399 . S
C1721 C1720 1.394 . S
C1721 C1722 1.516 . S
C1722 C1721 1.516 . S
C1722 C1723 1.502 . S
C1722 C1724 1.561 . S
C1722 C1725 1.526 . S
C1723 H1707 0.959 . S
C1723 H1708 0.959 . S
C1723 H1709 0.961 . S
C1723 C1722 1.502 . S
C1724 H1710 0.960 . S
C1724 H1711 0.961 . S
C1724 H1712 0.959 . S
C1724 C1722 1.561 . S
C1725 C1722 1.526 . S
C1725 C1726 1.396 . S
C1725 C1730 1.390 . S
C1726 C1720 1.465 . S
C1726 C1725 1.396 . S
C1726 C1727 1.399 . S
C1727 H1713 0.929 . S
C1727 C1726 1.399 . S
C1727 C1728 1.385 . S
C1728 H1714 0.931 . S
C1728 C1727 1.385 . S
C1728 C1729 1.389 . S
C1729 C1728 1.389 . S
C1729 C1730 1.387 . S
C1730 H1715 0.930 . S
C1730 C1725 1.390 . S
C1730 C1729 1.387 . S
H1731 C1743 0.930 . S
H1732 C1745 0.930 . S
H1733 C1746 0.930 . S
H1734 C1750 0.959 . S
H1735 C1750 0.959 . S
H1736 C1750 0.961 . S
H1737 C1751 0.960 . S
H1738 C1751 0.961 . S
H1739 C1751 0.959 . S
H1740 C1754 0.929 . S
H1741 C1755 0.931 . S
H1742 C1757 0.930 . S
C1743 H1731 0.930 . S
C1743 C1744 1.399 . S
C1743 C1748 1.399 . S
C1744 C1743 1.399 . S
C1744 C1745 1.376 . S
C1745 H1732 0.930 . S
C1745 C1744 1.376 . S
C1745 C1746 1.388 . S
C1746 H1733 0.930 . S
C1746 C1745 1.388 . S
C1746 C1747 1.390 . S
C1747 C1746 1.390 . S
C1747 C1748 1.394 . S
C1747 C1753 1.465 . S
C1748 C1743 1.399 . S
C1748 C1747 1.394 . S
C1748 C1749 1.516 . S
C1749 C1748 1.516 . S
C1749 C1750 1.502 . S
C1749 C1751 1.561 . S
C1749 C1752 1.526 . S
C1750 H1734 0.959 . S
C1750 H1735 0.959 . S
C1750 H1736 0.961 . S
C1750 C1749 1.502 . S
C1751 H1737 0.960 . S
C1751 H1738 0.961 . S
C1751 H1739 0.959 . S
C1751 C1749 1.561 . S
C1752 C1749 1.526 . S
C1752 C1753 1.396 . S
C1752 C1757 1.390 . S
C1753 C1747 1.465 . S
C1753 C1752 1.396 . S
C1753 C1754 1.399 . S
C1754 H1740 0.929 . S
C1754 C1753 1.399 . S
C1754 C1755 1.385 . S
C1755 H1741 0.931 . S
C1755 C1754 1.385 . S
C1755 C1756 1.389 . S
C1756 C1755 1.389 . S
C1756 C1757 1.387 . S
C1757 H1742 0.930 . S
C1757 C1752 1.390 . S
C1757 C1756 1.387 . S
H1758 C1770 0.930 . S
H1759 C1772 0.930 . S
H1760 C1773 0.930 . S
H1761 C1777 0.959 . S
H1762 C1777 0.959 . S
H1763 C1777 0.961 . S
H1764 C1778 0.960 . S
H1765 C1778 0.961 . S
H1766 C1778 0.959 . S
H1767 C1781 0.929 . S
H1768 C1782 0.931 . S
H1769 C1784 0.930 . S
C1770 H1758 0.930 . S
C1770 C1771 1.399 . S
C1770 C1775 1.399 . S
C1771 C1770 1.399 . S
C1771 C1772 1.376 . S
C1772 H1759 0.930 . S
C1772 C1771 1.376 . S
C1772 C1773 1.388 . S
C1773 H1760 0.930 . S
C1773 C1772 1.388 . S
C1773 C1774 1.390 . S
C1774 C1773 1.390 . S
C1774 C1775 1.394 . S
C1774 C1780 1.465 . S
C1775 C1770 1.399 . S
C1775 C1774 1.394 . S
C1775 C1776 1.516 . S
C1776 C1775 1.516 . S
C1776 C1777 1.502 . S
C1776 C1778 1.561 . S
C1776 C1779 1.526 . S
C1777 H1761 0.959 . S
C1777 H1762 0.959 . S
C1777 H1763 0.961 . S
C1777 C1776 1.502 . S
C1778 H1764 0.960 . S
C1778 H1765 0.961 . S
C1778 H1766 0.959 . S
C1778 C1776 1.561 . S
C1779 C1776 1.526 . S
C1779 C1780 1.396 . S
C1779 C1784 1.390 1_655 S
C1780 C1774 1.465 . S
C1780 C1779 1.396 . S
C1780 C1781 1.399 . S
C1781 H1767 0.929 . S
C1781 C1780 1.399 . S
C1781 C1782 1.385 1_655 S
C1782 H1768 0.931 . S
C1782 C1781 1.385 1_455 S
C1782 C1783 1.389 . S
C1783 C1782 1.389 . S
C1783 C1784 1.387 . S
C1784 H1769 0.930 . S
C1784 C1779 1.390 1_455 S
C1784 C1783 1.387 . S
H1785 C1797 0.930 . S
H1786 C1799 0.930 . S
H1787 C1800 0.930 . S
H1788 C1804 0.959 . S
H1789 C1804 0.959 . S
H1790 C1804 0.961 . S
H1791 C1805 0.960 . S
H1792 C1805 0.961 . S
H1793 C1805 0.959 . S
H1794 C1808 0.929 . S
H1795 C1809 0.931 . S
H1796 C1811 0.930 . S
C1797 H1785 0.930 . S
C1797 C1798 1.399 . S
C1797 C1802 1.399 . S
C1798 C1797 1.399 . S
C1798 C1799 1.376 . S
C1799 H1786 0.930 . S
C1799 C1798 1.376 . S
C1799 C1800 1.388 . S
C1800 H1787 0.930 . S
C1800 C1799 1.388 . S
C1800 C1801 1.390 . S
C1801 C1800 1.390 . S
C1801 C1802 1.394 . S
C1801 C1807 1.465 . S
C1802 C1797 1.399 . S
C1802 C1801 1.394 . S
C1802 C1803 1.516 . S
C1803 C1802 1.516 . S
C1803 C1804 1.502 . S
C1803 C1805 1.561 . S
C1803 C1806 1.526 . S
C1804 H1788 0.959 . S
C1804 H1789 0.959 . S
C1804 H1790 0.961 . S
C1804 C1803 1.502 . S
C1805 H1791 0.960 . S
C1805 H1792 0.961 . S
C1805 H1793 0.959 . S
C1805 C1803 1.561 . S
C1806 C1803 1.526 . S
C1806 C1807 1.396 . S
C1806 C1811 1.390 . S
C1807 C1801 1.465 . S
C1807 C1806 1.396 . S
C1807 C1808 1.399 . S
C1808 H1794 0.929 . S
C1808 C1807 1.399 . S
C1808 C1809 1.385 . S
C1809 H1795 0.931 . S
C1809 C1808 1.385 . S
C1809 C1810 1.389 . S
C1810 C1809 1.389 . S
C1810 C1811 1.387 . S
C1811 H1796 0.930 . S
C1811 C1806 1.390 . S
C1811 C1810 1.387 . S
H1812 C1824 0.930 . S
H1813 C1826 0.930 . S
H1814 C1827 0.930 . S
H1815 C1831 0.986 . S
H1816 C1831 0.984 . S
H1817 C1831 0.940 1_455 S
H1818 C1832 0.960 . S
H1819 C1832 0.961 . S
H1820 C1832 0.959 . S
H1821 C1835 0.929 . S
H1822 C1836 0.931 . S
H1823 C1838 0.930 . S
C1824 H1812 0.930 . S
C1824 C1825 1.399 . S
C1824 C1829 1.399 . S
C1825 C1824 1.399 . S
C1825 C1826 1.376 . S
C1826 H1813 0.930 . S
C1826 C1825 1.376 . S
C1826 C1827 1.388 . S
C1827 H1814 0.930 . S
C1827 C1826 1.388 . S
C1827 C1828 1.390 . S
C1828 C1827 1.390 . S
C1828 C1829 1.394 . S
C1828 C1834 1.465 . S
C1829 C1824 1.399 . S
C1829 C1828 1.394 . S
C1829 C1830 1.516 . S
C1830 C1829 1.516 . S
C1830 C1831 1.474 1_455 S
C1830 C1832 1.561 . S
C1830 C1833 1.526 . S
C1831 H1815 0.986 . S
C1831 H1816 0.984 . S
C1831 H1817 0.940 1_655 S
C1831 C1830 1.474 1_655 S
C1832 H1818 0.960 . S
C1832 H1819 0.961 . S
C1832 H1820 0.959 . S
C1832 C1830 1.561 . S
C1833 C1830 1.526 . S
C1833 C1834 1.396 . S
C1833 C1838 1.390 1_455 S
C1834 C1828 1.465 . S
C1834 C1833 1.396 . S
C1834 C1835 1.399 . S
C1835 H1821 0.929 . S
C1835 C1834 1.399 . S
C1835 C1836 1.385 1_455 S
C1836 H1822 0.931 . S
C1836 C1835 1.385 1_655 S
C1836 C1837 1.389 . S
C1837 C1836 1.389 . S
C1837 C1838 1.387 . S
C1838 H1823 0.930 . S
C1838 C1833 1.390 1_655 S
C1838 C1837 1.387 . S
H1839 C1851 0.930 . S
H1840 C1853 0.930 . S
H1841 C1854 0.930 . S
H1842 C1858 0.959 . S
H1843 C1858 0.959 . S
H1844 C1858 0.961 . S
H1845 C1859 0.960 . S
H1846 C1859 0.961 . S
H1847 C1859 0.959 . S
H1848 C1862 0.929 . S
H1849 C1863 0.931 . S
H1850 C1865 0.930 . S
C1851 H1839 0.930 . S
C1851 C1852 1.399 . S
C1851 C1856 1.399 . S
C1852 C1851 1.399 . S
C1852 C1853 1.376 . S
C1853 H1840 0.930 . S
C1853 C1852 1.376 . S
C1853 C1854 1.388 . S
C1854 H1841 0.930 . S
C1854 C1853 1.388 . S
C1854 C1855 1.390 . S
C1855 C1854 1.390 . S
C1855 C1856 1.394 . S
C1855 C1861 1.487 . S
C1856 C1851 1.399 . S
C1856 C1855 1.394 . S
C1856 C1857 1.516 . S
C1857 C1856 1.516 . S
C1857 C1858 1.502 . S
C1857 C1859 1.561 . S
C1857 C1860 1.526 . S
C1858 H1842 0.959 . S
C1858 H1843 0.959 . S
C1858 H1844 0.961 . S
C1858 C1857 1.502 . S
C1859 H1845 0.960 . S
C1859 H1846 0.961 . S
C1859 H1847 0.959 . S
C1859 C1857 1.561 . S
C1860 C1857 1.526 . S
C1860 C1861 1.405 . S
C1860 C1865 1.390 1_556 S
C1861 C1855 1.487 . S
C1861 C1860 1.405 . S
C1861 C1862 1.373 1_556 S
C1862 H1848 0.929 . S
C1862 C1861 1.373 1_554 S
C1862 C1863 1.385 . S
C1863 H1849 0.931 . S
C1863 C1862 1.385 . S
C1863 C1864 1.389 . S
C1864 C1863 1.389 . S
C1864 C1865 1.387 . S
C1865 H1850 0.930 . S
C1865 C1860 1.390 1_554 S
C1865 C1864 1.387 . S
H1866 C1878 0.930 . S
H1867 C1880 0.930 . S
H1868 C1881 0.930 . S
H1869 C1885 0.959 . S
H1870 C1885 0.959 . S
H1871 C1885 0.961 . S
H1872 C1886 0.960 . S
H1873 C1886 0.961 . S
H1874 C1886 0.959 . S
H1875 C1889 0.929 . S
H1876 C1890 0.931 . S
H1877 C1892 0.930 . S
C1878 H1866 0.930 . S
C1878 C1879 1.399 . S
C1878 C1883 1.399 . S
C1879 C1878 1.399 . S
C1879 C1880 1.376 . S
C1880 H1867 0.930 . S
C1880 C1879 1.376 . S
C1880 C1881 1.388 . S
C1881 H1868 0.930 . S
C1881 C1880 1.388 . S
C1881 C1882 1.390 . S
C1882 C1881 1.390 . S
C1882 C1883 1.394 . S
C1882 C1888 1.465 . S
C1883 C1878 1.399 . S
C1883 C1882 1.394 . S
C1883 C1884 1.516 . S
C1884 C1883 1.516 . S
C1884 C1885 1.502 . S
C1884 C1886 1.561 . S
C1884 C1887 1.526 . S
C1885 H1869 0.959 . S
C1885 H1870 0.959 . S
C1885 H1871 0.961 . S
C1885 C1884 1.502 . S
C1886 H1872 0.960 . S
C1886 H1873 0.961 . S
C1886 H1874 0.959 . S
C1886 C1884 1.561 . S
C1887 C1884 1.526 . S
C1887 C1888 1.396 . S
C1887 C1892 1.390 . S
C1888 C1882 1.465 . S
C1888 C1887 1.396 . S
C1888 C1889 1.399 . S
C1889 H1875 0.929 . S
C1889 C1888 1.399 . S
C1889 C1890 1.385 . S
C1890 H1876 0.931 . S
C1890 C1889 1.385 . S
C1890 C1891 1.389 . S
C1891 C1890 1.389 . S
C1891 C1892 1.387 . S
C1892 H1877 0.930 . S
C1892 C1887 1.390 . S
C1892 C1891 1.387 . S
H1893 C1905 0.930 . S
H1894 C1907 0.930 . S
H1895 C1908 0.930 . S
H1896 C1912 0.959 . S
H1897 C1912 0.959 . S
H1898 C1912 0.961 . S
H1899 C1913 0.960 . S
H1900 C1913 0.961 . S
H1901 C1913 0.960 1_545 S
H1902 C1916 0.929 . S
H1903 C1917 0.931 . S
H1904 C1919 0.930 . S
C1905 H1893 0.930 . S
C1905 C1906 1.399 . S
C1905 C1910 1.399 . S
C1906 C1905 1.399 . S
C1906 C1907 1.376 . S
C1907 H1894 0.930 . S
C1907 C1906 1.376 . S
C1907 C1908 1.388 . S
C1908 H1895 0.930 . S
C1908 C1907 1.388 . S
C1908 C1909 1.390 . S
C1909 C1908 1.390 . S
C1909 C1910 1.394 . S
C1909 C1915 1.465 . S
C1910 C1905 1.399 . S
C1910 C1909 1.394 . S
C1910 C1911 1.516 . S
C1911 C1910 1.516 . S
C1911 C1912 1.502 . S
C1911 C1913 1.561 . S
C1911 C1914 1.526 . S
C1912 H1896 0.959 . S
C1912 H1897 0.959 . S
C1912 H1898 0.961 . S
C1912 C1911 1.502 . S
C1913 H1899 0.960 . S
C1913 H1900 0.961 . S
C1913 H1901 0.960 1_565 S
C1913 C1911 1.561 . S
C1914 C1911 1.526 . S
C1914 C1915 1.396 . S
C1914 C1919 1.390 1_565 S
C1915 C1909 1.465 . S
C1915 C1914 1.396 . S
C1915 C1916 1.399 1_565 S
C1916 H1902 0.929 . S
C1916 C1915 1.399 1_545 S
C1916 C1917 1.385 . S
C1917 H1903 0.931 . S
C1917 C1916 1.385 . S
C1917 C1918 1.389 . S
C1918 C1917 1.389 . S
C1918 C1919 1.387 . S
C1919 H1904 0.930 . S
C1919 C1914 1.390 1_545 S
C1919 C1918 1.387 . S
H1920 C1932 0.930 . S
H1921 C1934 0.930 . S
H1922 C1935 0.930 . S
H1923 C1939 0.959 . S
H1924 C1939 0.959 . S
H1925 C1939 0.961 . S
H1926 C1940 0.960 . S
H1927 C1940 0.961 . S
H1928 C1940 0.959 . S
H1929 C1943 0.929 . S
H1930 C1944 0.931 . S
H1931 C1946 0.930 . S
C1932 H1920 0.930 . S
C1932 C1933 1.399 . S
C1932 C1937 1.399 . S
C1933 C1932 1.399 . S
C1933 C1934 1.376 . S
C1934 H1921 0.930 . S
C1934 C1933 1.376 . S
C1934 C1935 1.388 . S
C1935 H1922 0.930 . S
C1935 C1934 1.388 . S
C1935 C1936 1.390 . S
C1936 C1935 1.390 . S
C1936 C1937 1.394 . S
C1936 C1942 1.465 . S
C1937 C1932 1.399 . S
C1937 C1936 1.394 . S
C1937 C1938 1.516 . S
C1938 C1937 1.516 . S
C1938 C1939 1.502 . S
C1938 C1940 1.561 . S
C1938 C1941 1.526 . S
C1939 H1923 0.959 . S
C1939 H1924 0.959 . S
C1939 H1925 0.961 . S
C1939 C1938 1.502 . S
C1940 H1926 0.960 . S
C1940 H1927 0.961 . S
C1940 H1928 0.959 . S
C1940 C1938 1.561 . S
C1941 C1938 1.526 . S
C1941 C1942 1.396 . S
C1941 C1946 1.390 . S
C1942 C1936 1.465 . S
C1942 C1941 1.396 . S
C1942 C1943 1.399 . S
C1943 H1929 0.929 . S
C1943 C1942 1.399 . S
C1943 C1944 1.385 . S
C1944 H1930 0.931 . S
C1944 C1943 1.385 . S
C1944 C1945 1.389 . S
C1945 C1944 1.389 . S
C1945 C1946 1.387 . S
C1946 H1931 0.930 . S
C1946 C1941 1.390 . S
C1946 C1945 1.387 . S
H1947 C1959 0.930 . S
H1948 C1961 0.930 . S
H1949 C1962 0.930 . S
H1950 C1966 0.959 . S
H1951 C1966 0.959 . S
H1952 C1966 0.961 . S
H1953 C1967 0.960 . S
H1954 C1967 0.961 . S
H1955 C1967 0.959 . S
H1956 C1970 0.929 . S
H1957 C1971 0.931 . S
H1958 C1973 0.930 . S
C1959 H1947 0.930 . S
C1959 C1960 1.399 . S
C1959 C1964 1.399 . S
C1960 C1959 1.399 . S
C1960 C1961 1.376 . S
C1961 H1948 0.930 . S
C1961 C1960 1.376 . S
C1961 C1962 1.388 . S
C1962 H1949 0.930 . S
C1962 C1961 1.388 . S
C1962 C1963 1.390 . S
C1963 C1962 1.390 . S
C1963 C1964 1.394 . S
C1963 C1969 1.465 . S
C1964 C1959 1.399 . S
C1964 C1963 1.394 . S
C1964 C1965 1.516 . S
C1965 C1964 1.516 . S
C1965 C1966 1.502 . S
C1965 C1967 1.561 . S
C1965 C1968 1.526 . S
C1966 H1950 0.959 . S
C1966 H1951 0.959 . S
C1966 H1952 0.961 . S
C1966 C1965 1.502 . S
C1967 H1953 0.960 . S
C1967 H1954 0.961 . S
C1967 H1955 0.959 . S
C1967 C1965 1.561 . S
C1968 C1965 1.526 . S
C1968 C1969 1.396 . S
C1968 C1973 1.390 . S
C1969 C1963 1.465 . S
C1969 C1968 1.396 . S
C1969 C1970 1.399 . S
C1970 H1956 0.929 . S
C1970 C1969 1.399 . S
C1970 C1971 1.385 . S
C1971 H1957 0.931 . S
C1971 C1970 1.385 . S
C1971 C1972 1.389 . S
C1972 C1971 1.389 . S
C1972 C1973 1.387 . S
C1973 H1958 0.930 . S
C1973 C1968 1.390 . S
C1973 C1972 1.387 . S
H1974 C1986 0.930 . S
H1975 C1988 0.930 . S
H1976 C1989 0.930 . S
H1977 C1993 0.959 . S
H1978 C1993 0.959 . S
H1979 C1993 0.961 . S
H1980 C1994 0.960 . S
H1981 C1994 0.961 . S
H1982 C1994 0.959 . S
H1983 C1997 0.929 . S
H1984 C1998 0.931 . S
H1985 C2000 0.930 . S
C1986 H1974 0.930 . S
C1986 C1987 1.399 . S
C1986 C1991 1.399 . S
C1987 C1986 1.399 . S
C1987 C1988 1.376 . S
C1988 H1975 0.930 . S
C1988 C1987 1.376 . S
C1988 C1989 1.388 . S
C1989 H1976 0.930 . S
C1989 C1988 1.388 . S
C1989 C1990 1.390 . S
C1990 C1989 1.390 . S
C1990 C1991 1.394 . S
C1990 C1996 1.465 . S
C1991 C1986 1.399 . S
C1991 C1990 1.394 . S
C1991 C1992 1.516 . S
C1992 C1991 1.516 . S
C1992 C1993 1.502 . S
C1992 C1994 1.561 . S
C1992 C1995 1.526 . S
C1993 H1977 0.959 . S
C1993 H1978 0.959 . S
C1993 H1979 0.961 . S
C1993 C1992 1.502 . S
C1994 H1980 0.960 . S
C1994 H1981 0.961 . S
C1994 H1982 0.959 . S
C1994 C1992 1.561 . S
C1995 C1992 1.526 . S
C1995 C1996 1.396 . S
C1995 C2000 1.390 . S
C1996 C1990 1.465 . S
C1996 C1995 1.396 . S
C1996 C1997 1.399 . S
C1997 H1983 0.929 . S
C1997 C1996 1.399 . S
C1997 C1998 1.385 . S
C1998 H1984 0.931 . S
C1998 C1997 1.385 . S
C1998 C1999 1.389 . S
C1999 C1998 1.389 . S
C1999 C2000 1.387 . S
C2000 H1985 0.930 . S
C2000 C1995 1.390 . S
C2000 C1999 1.387 . S
H2001 C2013 0.930 . S
H2002 C2015 0.930 . S
H2003 C2016 0.930 . S
H2004 C2020 0.959 . S
H2005 C2020 0.959 . S
H2006 C2020 0.961 . S
H2007 C2021 0.960 . S
H2008 C2021 0.961 . S
H2009 C2021 0.959 . S
H2010 C2024 0.929 . S
H2011 C2025 0.931 . S
H2012 C2027 0.930 . S
C2013 H2001 0.930 . S
C2013 C2014 1.399 . S
C2013 C2018 1.399 . S
C2014 C2013 1.399 . S
C2014 C2015 1.376 . S
C2015 H2002 0.930 . S
C2015 C2014 1.376 . S
C2015 C2016 1.388 . S
C2016 H2003 0.930 . S
C2016 C2015 1.388 . S
C2016 C2017 1.390 . S
C2017 C2016 1.390 . S
C2017 C2018 1.394 . S
C2017 C2023 1.465 . S
C2018 C2013 1.399 . S
C2018 C2017 1.394 . S
C2018 C2019 1.516 . S
C2019 C2018 1.516 . S
C2019 C2020 1.502 1_556 S
C2019 C2021 1.561 . S
C2019 C2022 1.526 1_556 S
C2020 H2004 0.959 . S
C2020 H2005 0.959 . S
C2020 H2006 0.961 . S
C2020 C2019 1.502 1_554 S
C2021 H2007 0.960 . S
C2021 H2008 0.961 . S
C2021 H2009 0.959 . S
C2021 C2019 1.561 . S
C2022 C2019 1.526 1_554 S
C2022 C2023 1.396 1_554 S
C2022 C2027 1.390 . S
C2023 C2017 1.465 . S
C2023 C2022 1.396 1_556 S
C2023 C2024 1.399 . S
C2024 H2010 0.929 . S
C2024 C2023 1.399 . S
C2024 C2025 1.385 1_556 S
C2025 H2011 0.931 . S
C2025 C2024 1.385 1_554 S
C2025 C2026 1.389 . S
C2026 C2025 1.389 . S
C2026 C2027 1.387 . S
C2027 H2012 0.930 . S
C2027 C2022 1.390 . S
C2027 C2026 1.387 . S
H2028 C2040 0.930 . S
H2029 C2042 0.930 . S
H2030 C2043 0.930 . S
H2031 C2047 0.959 . S
H2032 C2047 0.959 . S
H2033 C2047 0.961 . S
H2034 C2048 0.960 . S
H2035 C2048 0.961 . S
H2036 C2048 0.959 . S
H2037 C2051 0.929 . S
H2038 C2052 0.931 . S
H2039 C2054 0.930 . S
C2040 H2028 0.930 . S
C2040 C2041 1.399 . S
C2040 C2045 1.399 . S
C2041 C2040 1.399 . S
C2041 C2042 1.376 . S
C2042 H2029 0.930 . S
C2042 C2041 1.376 . S
C2042 C2043 1.388 . S
C2043 H2030 0.930 . S
C2043 C2042 1.388 . S
C2043 C2044 1.390 . S
C2044 C2043 1.390 . S
C2044 C2045 1.394 . S
C2044 C2050 1.465 . S
C2045 C2040 1.399 . S
C2045 C2044 1.394 . S
C2045 C2046 1.516 . S
C2046 C2045 1.516 . S
C2046 C2047 1.502 . S
C2046 C2048 1.561 . S
C2046 C2049 1.526 . S
C2047 H2031 0.959 . S
C2047 H2032 0.959 . S
C2047 H2033 0.961 . S
C2047 C2046 1.502 . S
C2048 H2034 0.960 . S
C2048 H2035 0.961 . S
C2048 H2036 0.959 . S
C2048 C2046 1.561 . S
C2049 C2046 1.526 . S
C2049 C2050 1.396 . S
C2049 C2054 1.390 . S
C2050 C2044 1.465 . S
C2050 C2049 1.396 . S
C2050 C2051 1.399 . S
C2051 H2037 0.929 . S
C2051 C2050 1.399 . S
C2051 C2052 1.385 . S
C2052 H2038 0.931 . S
C2052 C2051 1.385 . S
C2052 C2053 1.389 . S
C2053 C2052 1.389 . S
C2053 C2054 1.387 . S
C2054 H2039 0.930 . S
C2054 C2049 1.390 . S
C2054 C2053 1.387 . S
H2055 C2067 0.930 . S
H2056 C2069 0.930 . S
H2057 C2070 0.930 . S
H2058 C2074 0.959 1_565 S
H2059 C2074 0.959 . S
H2060 C2074 0.961 . S
H2061 C2075 0.960 . S
H2062 C2075 0.961 . S
H2063 C2075 0.959 . S
H2064 C2078 0.929 . S
H2065 C2079 0.931 . S
H2066 C2081 0.930 . S
C2067 H2055 0.930 . S
C2067 C2068 1.399 . S
C2067 C2072 1.399 1_545 S
C2068 C2067 1.399 . S
C2068 C2069 1.376 1_545 S
C2069 H2056 0.930 . S
C2069 C2068 1.376 1_565 S
C2069 C2070 1.388 . S
C2070 H2057 0.930 . S
C2070 C2069 1.388 . S
C2070 C2071 1.390 . S
C2071 C2070 1.390 . S
C2071 C2072 1.394 . S
C2071 C2077 1.465 . S
C2072 C2067 1.399 1_565 S
C2072 C2071 1.394 . S
C2072 C2073 1.516 . S
C2073 C2072 1.516 . S
C2073 C2074 1.502 1_565 S
C2073 C2075 1.561 1_565 S
C2073 C2076 1.526 . S
C2074 H2058 0.959 1_545 S
C2074 H2059 0.959 . S
C2074 H2060 0.961 . S
C2074 C2073 1.502 1_545 S
C2075 H2061 0.960 . S
C2075 H2062 0.961 . S
C2075 H2063 0.959 . S
C2075 C2073 1.561 1_545 S
C2076 C2073 1.526 . S
C2076 C2077 1.396 . S
C2076 C2081 1.390 . S
C2077 C2071 1.465 . S
C2077 C2076 1.396 . S
C2077 C2078 1.399 . S
C2078 H2064 0.929 . S
C2078 C2077 1.399 . S
C2078 C2079 1.385 . S
C2079 H2065 0.931 . S
C2079 C2078 1.385 . S
C2079 C2080 1.389 . S
C2080 C2079 1.389 . S
C2080 C2081 1.387 . S
C2081 H2066 0.930 . S
C2081 C2076 1.390 . S
C2081 C2080 1.387 . S
H2082 C2094 0.930 . S
H2083 C2096 0.930 . S
H2084 C2097 0.930 . S
H2085 C2101 0.959 . S
H2086 C2101 0.959 . S
H2087 C2101 0.961 . S
H2088 C2102 0.960 1_554 S
H2089 C2102 0.961 . S
H2090 C2102 0.959 . S
H2091 C2105 0.929 . S
H2092 C2106 0.931 . S
H2093 C2108 0.930 . S
C2094 H2082 0.930 . S
C2094 C2095 1.399 . S
C2094 C2099 1.399 . S
C2095 C2094 1.399 . S
C2095 C2096 1.376 . S
C2096 H2083 0.930 . S
C2096 C2095 1.376 . S
C2096 C2097 1.388 . S
C2097 H2084 0.930 . S
C2097 C2096 1.388 . S
C2097 C2098 1.390 . S
C2098 C2097 1.390 . S
C2098 C2099 1.394 . S
C2098 C2104 1.465 . S
C2099 C2094 1.399 . S
C2099 C2098 1.394 . S
C2099 C2100 1.516 . S
C2100 C2099 1.516 . S
C2100 C2101 1.502 . S
C2100 C2102 1.561 1_554 S
C2100 C2103 1.526 1_554 S
C2101 H2085 0.959 . S
C2101 H2086 0.959 . S
C2101 H2087 0.961 . S
C2101 C2100 1.502 . S
C2102 H2088 0.960 1_556 S
C2102 H2089 0.961 . S
C2102 H2090 0.959 . S
C2102 C2100 1.561 1_556 S
C2103 C2100 1.526 1_556 S
C2103 C2104 1.396 1_556 S
C2103 C2108 1.390 . S
C2104 C2098 1.465 . S
C2104 C2103 1.396 1_554 S
C2104 C2105 1.399 1_554 S
C2105 H2091 0.929 . S
C2105 C2104 1.399 1_556 S
C2105 C2106 1.385 . S
C2106 H2092 0.931 . S
C2106 C2105 1.385 . S
C2106 C2107 1.389 . S
C2107 C2106 1.389 . S
C2107 C2108 1.387 . S
C2108 H2093 0.930 . S
C2108 C2103 1.390 . S
C2108 C2107 1.387 . S
H2109 C2121 0.930 . S
H2110 C2123 0.930 . S
H2111 C2124 0.930 . S
H2112 C2128 0.979 . S
H2113 C2128 0.959 . S
H2114 C2128 0.961 . S
H2115 C2129 0.960 . S
H2116 C2129 0.961 . S
H2117 C2129 0.959 . S
H2118 C2132 0.929 . S
H2119 C2133 0.931 . S
H2120 C2135 0.930 . S
C2121 H2109 0.930 . S
C2121 C2122 1.399 . S
C2121 C2126 1.399 . S
C2122 C2121 1.399 . S
C2122 C2123 1.376 1_545 S
C2123 H2110 0.930 . S
C2123 C2122 1.376 1_565 S
C2123 C2124 1.388 . S
C2124 H2111 0.930 . S
C2124 C2123 1.388 . S
C2124 C2125 1.390 . S
C2125 C2124 1.390 . S
C2125 C2126 1.394 1_565 S
C2125 C2131 1.465 . S
C2126 C2121 1.399 . S
C2126 C2125 1.394 1_545 S
C2126 C2127 1.516 . S
C2127 C2126 1.516 . S
C2127 C2128 1.502 . S
C2127 C2129 1.561 . S
C2127 C2130 1.526 1_545 S
C2128 H2112 0.979 . S
C2128 H2113 0.959 . S
C2128 H2114 0.961 . S
C2128 C2127 1.502 . S
C2129 H2115 0.960 . S
C2129 H2116 0.961 . S
C2129 H2117 0.959 . S
C2129 C2127 1.561 . S
C2130 C2127 1.526 1_565 S
C2130 C2131 1.396 . S
C2130 C2135 1.390 . S
C2131 C2125 1.465 . S
C2131 C2130 1.396 . S
C2131 C2132 1.399 . S
C2132 H2118 0.929 . S
C2132 C2131 1.399 . S
C2132 C2133 1.385 . S
C2133 H2119 0.931 . S
C2133 C2132 1.385 . S
C2133 C2134 1.389 . S
C2134 C2133 1.389 . S
C2134 C2135 1.387 . S
C2135 H2120 0.930 . S
C2135 C2130 1.390 . S
C2135 C2134 1.387 . S
H2136 C2148 0.930 . S
H2137 C2150 0.930 . S
H2138 C2151 0.930 . S
H2139 C2155 0.959 . S
H2140 C2155 0.959 . S
H2141 C2155 0.961 . S
H2142 C2156 0.960 . S
H2143 C2156 0.961 . S
H2144 C2156 0.959 . S
H2145 C2159 0.929 . S
H2146 C2160 0.931 . S
H2147 C2162 0.930 . S
C2148 H2136 0.930 . S
C2148 C2149 1.399 . S
C2148 C2153 1.399 . S
C2149 C2148 1.399 . S
C2149 C2150 1.376 . S
C2150 H2137 0.930 . S
C2150 C2149 1.376 . S
C2150 C2151 1.388 . S
C2151 H2138 0.930 . S
C2151 C2150 1.388 . S
C2151 C2152 1.390 . S
C2152 C2151 1.390 . S
C2152 C2153 1.394 . S
C2152 C2158 1.465 . S
C2153 C2148 1.399 . S
C2153 C2152 1.394 . S
C2153 C2154 1.516 . S
C2154 C2153 1.516 . S
C2154 C2155 1.502 . S
C2154 C2156 1.561 . S
C2154 C2157 1.526 . S
C2155 H2139 0.959 . S
C2155 H2140 0.959 . S
C2155 H2141 0.961 . S
C2155 C2154 1.502 . S
C2156 H2142 0.960 . S
C2156 H2143 0.961 . S
C2156 H2144 0.959 . S
C2156 C2154 1.561 . S
C2157 C2154 1.526 . S
C2157 C2158 1.396 . S
C2157 C2162 1.390 . S
C2158 C2152 1.465 . S
C2158 C2157 1.396 . S
C2158 C2159 1.399 . S
C2159 H2145 0.929 . S
C2159 C2158 1.399 . S
C2159 C2160 1.385 . S
C2160 H2146 0.931 . S
C2160 C2159 1.385 . S
C2160 C2161 1.389 . S
C2161 C2160 1.389 . S
C2161 C2162 1.387 . S
C2162 H2147 0.930 . S
C2162 C2157 1.390 . S
C2162 C2161 1.387 . S
H2163 C2175 0.930 . S
H2164 C2177 0.930 . S
H2165 C2178 0.930 1_455 S
H2166 C2182 0.959 . S
H2167 C2182 0.959 . S
H2168 C2182 0.961 . S
H2169 C2183 0.963 . S
H2170 C2183 0.961 . S
H2171 C2183 0.959 . S
H2172 C2186 0.929 . S
H2173 C2187 0.931 . S
H2174 C2189 0.930 . S
C2175 H2163 0.930 . S
C2175 C2176 1.399 . S
C2175 C2180 1.399 . S
C2176 C2175 1.399 . S
C2176 C2177 1.376 . S
C2177 H2164 0.930 . S
C2177 C2176 1.376 . S
C2177 C2178 1.388 . S
C2178 H2165 0.930 1_655 S
C2178 C2177 1.388 . S
C2178 C2179 1.390 1_655 S
C2179 C2178 1.390 1_455 S
C2179 C2180 1.394 1_455 S
C2179 C2185 1.465 . S
C2180 C2175 1.399 . S
C2180 C2179 1.394 1_655 S
C2180 C2181 1.517 1_655 S
C2181 C2180 1.517 1_455 S
C2181 C2182 1.503 1_455 S
C2181 C2183 1.560 . S
C2181 C2184 1.524 . S
C2182 H2166 0.959 . S
C2182 H2167 0.959 . S
C2182 H2168 0.961 . S
C2182 C2181 1.503 1_655 S
C2183 H2169 0.963 . S
C2183 H2170 0.961 . S
C2183 H2171 0.959 . S
C2183 C2181 1.560 . S
C2184 C2181 1.524 . S
C2184 C2185 1.396 . S
C2184 C2189 1.390 . S
C2185 C2179 1.465 . S
C2185 C2184 1.396 . S
C2185 C2186 1.399 . S
C2186 H2172 0.929 . S
C2186 C2185 1.399 . S
C2186 C2187 1.385 . S
C2187 H2173 0.931 . S
C2187 C2186 1.385 . S
C2187 C2188 1.389 . S
C2188 C2187 1.389 . S
C2188 C2189 1.387 . S
C2189 H2174 0.930 . S
C2189 C2184 1.390 . S
C2189 C2188 1.387 . S
H2190 C2202 0.930 . S
H2191 C2204 0.930 . S
H2192 C2205 0.930 . S
H2193 C2209 0.959 . S
H2194 C2209 0.959 . S
H2195 C2209 0.961 . S
H2196 C2210 0.960 1_455 S
H2197 C2210 0.961 . S
H2198 C2210 0.959 1_455 S
H2199 C2213 0.929 . S
H2200 C2214 0.931 . S
H2201 C2216 0.930 . S
C2202 H2190 0.930 . S
C2202 C2203 1.399 . S
C2202 C2207 1.399 1_455 S
C2203 C2202 1.399 . S
C2203 C2204 1.376 . S
C2204 H2191 0.930 . S
C2204 C2203 1.376 . S
C2204 C2205 1.388 . S
C2205 H2192 0.930 . S
C2205 C2204 1.388 . S
C2205 C2206 1.390 1_455 S
C2206 C2205 1.390 1_655 S
C2206 C2207 1.394 . S
C2206 C2212 1.465 . S
C2207 C2202 1.399 1_655 S
C2207 C2206 1.394 . S
C2207 C2208 1.516 . S
C2208 C2207 1.516 . S
C2208 C2209 1.502 . S
C2208 C2210 1.561 . S
C2208 C2211 1.526 . S
C2209 H2193 0.959 . S
C2209 H2194 0.959 . S
C2209 H2195 0.961 . S
C2209 C2208 1.502 . S
C2210 H2196 0.960 1_655 S
C2210 H2197 0.961 . S
C2210 H2198 0.959 1_655 S
C2210 C2208 1.561 . S
C2211 C2208 1.526 . S
C2211 C2212 1.396 . S
C2211 C2216 1.390 . S
C2212 C2206 1.465 . S
C2212 C2211 1.396 . S
C2212 C2213 1.399 . S
C2213 H2199 0.929 . S
C2213 C2212 1.399 . S
C2213 C2214 1.385 . S
C2214 H2200 0.931 . S
C2214 C2213 1.385 . S
C2214 C2215 1.389 . S
C2215 C2214 1.389 . S
C2215 C2216 1.387 . S
C2216 H2201 0.930 . S
C2216 C2211 1.390 . S
C2216 C2215 1.387 . S
H2217 C2229 0.930 . S
H2218 C2231 0.930 . S
H2219 C2232 0.930 . S
H2220 C2236 0.959 . S
H2221 C2236 0.959 . S
H2222 C2236 0.961 . S
H2223 C2237 0.960 . S
H2224 C2237 0.961 . S
H2225 C2237 0.959 . S
H2226 C2240 0.929 . S
H2227 C2241 0.931 . S
H2228 C2243 0.930 . S
C2229 H2217 0.930 . S
C2229 C2230 1.399 . S
C2229 C2234 1.399 . S
C2230 C2229 1.399 . S
C2230 C2231 1.376 . S
C2231 H2218 0.930 . S
C2231 C2230 1.376 . S
C2231 C2232 1.388 . S
C2232 H2219 0.930 . S
C2232 C2231 1.388 . S
C2232 C2233 1.390 . S
C2233 C2232 1.390 . S
C2233 C2234 1.394 . S
C2233 C2239 1.465 . S
C2234 C2229 1.399 . S
C2234 C2233 1.394 . S
C2234 C2235 1.516 . S
C2235 C2234 1.516 . S
C2235 C2236 1.502 . S
C2235 C2237 1.561 . S
C2235 C2238 1.526 . S
C2236 H2220 0.959 . S
C2236 H2221 0.959 . S
C2236 H2222 0.961 . S
C2236 C2235 1.502 . S
C2237 H2223 0.960 . S
C2237 H2224 0.961 . S
C2237 H2225 0.959 . S
C2237 C2235 1.561 . S
C2238 C2235 1.526 . S
C2238 C2239 1.396 . S
C2238 C2243 1.390 . S
C2239 C2233 1.465 . S
C2239 C2238 1.396 . S
C2239 C2240 1.399 . S
C2240 H2226 0.929 . S
C2240 C2239 1.399 . S
C2240 C2241 1.385 . S
C2241 H2227 0.931 . S
C2241 C2240 1.385 . S
C2241 C2242 1.389 . S
C2242 C2241 1.389 . S
C2242 C2243 1.387 . S
C2243 H2228 0.930 . S
C2243 C2238 1.390 . S
C2243 C2242 1.387 . S
H2244 C2256 0.930 . S
H2245 C2258 0.930 . S
H2246 C2259 0.930 . S
H2247 C2263 0.959 . S
H2248 C2263 0.959 . S
H2249 C2263 0.961 . S
H2250 C2264 0.960 1_455 S
H2251 C2264 0.961 . S
H2252 C2264 0.959 1_455 S
H2253 C2267 0.929 . S
H2254 C2268 0.931 . S
H2255 C2270 0.930 . S
C2256 H2244 0.930 . S
C2256 C2257 1.399 . S
C2256 C2261 1.399 . S
C2257 C2256 1.399 . S
C2257 C2258 1.376 . S
C2258 H2245 0.930 . S
C2258 C2257 1.376 . S
C2258 C2259 1.388 . S
C2259 H2246 0.930 . S
C2259 C2258 1.388 . S
C2259 C2260 1.390 . S
C2260 C2259 1.390 . S
C2260 C2261 1.394 . S
C2260 C2266 1.465 1_455 S
C2261 C2256 1.399 . S
C2261 C2260 1.394 . S
C2261 C2262 1.516 1_455 S
C2262 C2261 1.516 1_655 S
C2262 C2263 1.502 . S
C2262 C2264 1.561 . S
C2262 C2265 1.526 . S
C2263 H2247 0.959 . S
C2263 H2248 0.959 . S
C2263 H2249 0.961 . S
C2263 C2262 1.502 . S
C2264 H2250 0.960 1_655 S
C2264 H2251 0.961 . S
C2264 H2252 0.959 1_655 S
C2264 C2262 1.561 . S
C2265 C2262 1.526 . S
C2265 C2266 1.396 . S
C2265 C2270 1.390 . S
C2266 C2260 1.465 1_655 S
C2266 C2265 1.396 . S
C2266 C2267 1.399 . S
C2267 H2253 0.929 . S
C2267 C2266 1.399 . S
C2267 C2268 1.385 . S
C2268 H2254 0.931 . S
C2268 C2267 1.385 . S
C2268 C2269 1.389 . S
C2269 C2268 1.389 . S
C2269 C2270 1.387 . S
C2270 H2255 0.930 . S
C2270 C2265 1.390 . S
C2270 C2269 1.387 . S
H2271 C2283 0.930 . S
H2272 C2285 0.930 . S
H2273 C2286 0.930 . S
H2274 C2290 0.959 . S
H2275 C2290 0.959 . S
H2276 C2290 0.961 . S
H2277 C2291 0.960 . S
H2278 C2291 0.961 . S
H2279 C2291 0.959 . S
H2280 C2294 0.929 . S
H2281 C2295 0.931 . S
H2282 C2297 0.930 . S
C2283 H2271 0.930 . S
C2283 C2284 1.399 . S
C2283 C2288 1.399 . S
C2284 C2283 1.399 . S
C2284 C2285 1.376 . S
C2285 H2272 0.930 . S
C2285 C2284 1.376 . S
C2285 C2286 1.388 . S
C2286 H2273 0.930 . S
C2286 C2285 1.388 . S
C2286 C2287 1.390 . S
C2287 C2286 1.390 . S
C2287 C2288 1.394 . S
C2287 C2293 1.465 1_455 S
C2288 C2283 1.399 . S
C2288 C2287 1.394 . S
C2288 C2289 1.516 1_455 S
C2289 C2288 1.516 1_655 S
C2289 C2290 1.502 . S
C2289 C2291 1.561 1_655 S
C2289 C2292 1.526 . S
C2290 H2274 0.959 . S
C2290 H2275 0.959 . S
C2290 H2276 0.961 . S
C2290 C2289 1.502 . S
C2291 H2277 0.960 . S
C2291 H2278 0.961 . S
C2291 H2279 0.959 . S
C2291 C2289 1.561 1_455 S
C2292 C2289 1.526 . S
C2292 C2293 1.396 . S
C2292 C2297 1.390 . S
C2293 C2287 1.465 1_655 S
C2293 C2292 1.396 . S
C2293 C2294 1.399 . S
C2294 H2280 0.929 . S
C2294 C2293 1.399 . S
C2294 C2295 1.385 . S
C2295 H2281 0.931 . S
C2295 C2294 1.385 . S
C2295 C2296 1.389 . S
C2296 C2295 1.389 . S
C2296 C2297 1.387 . S
C2297 H2282 0.930 . S
C2297 C2292 1.390 . S
C2297 C2296 1.387 . S
H2298 C2310 0.930 . S
H2299 C2312 0.930 . S
H2300 C2313 0.930 . S
H2301 C2317 0.959 . S
H2302 C2317 0.959 . S
H2303 C2317 0.961 . S
H2304 C2318 0.960 . S
H2305 C2318 0.961 . S
H2306 C2318 0.959 . S
H2307 C2321 0.929 . S
H2308 C2322 0.931 . S
H2309 C2324 0.930 . S
C2310 H2298 0.930 . S
C2310 C2311 1.399 . S
C2310 C2315 1.399 . S
C2311 C2310 1.399 . S
C2311 C2312 1.376 . S
C2312 H2299 0.930 . S
C2312 C2311 1.376 . S
C2312 C2313 1.388 . S
C2313 H2300 0.930 . S
C2313 C2312 1.388 . S
C2313 C2314 1.390 . S
C2314 C2313 1.390 . S
C2314 C2315 1.394 . S
C2314 C2320 1.465 . S
C2315 C2310 1.399 . S
C2315 C2314 1.394 . S
C2315 C2316 1.516 . S
C2316 C2315 1.516 . S
C2316 C2317 1.502 . S
C2316 C2318 1.561 . S
C2316 C2319 1.526 . S
C2317 H2301 0.959 . S
C2317 H2302 0.959 . S
C2317 H2303 0.961 . S
C2317 C2316 1.502 . S
C2318 H2304 0.960 . S
C2318 H2305 0.961 . S
C2318 H2306 0.959 . S
C2318 C2316 1.561 . S
C2319 C2316 1.526 . S
C2319 C2320 1.396 . S
C2319 C2324 1.390 . S
C2320 C2314 1.465 . S
C2320 C2319 1.396 . S
C2320 C2321 1.399 . S
C2321 H2307 0.929 . S
C2321 C2320 1.399 . S
C2321 C2322 1.385 . S
C2322 H2308 0.931 . S
C2322 C2321 1.385 . S
C2322 C2323 1.389 . S
C2323 C2322 1.389 . S
C2323 C2324 1.387 . S
C2324 H2309 0.930 . S
C2324 C2319 1.390 . S
C2324 C2323 1.387 . S
H2325 C2337 0.930 . S
H2326 C2339 0.930 . S
H2327 C2340 0.930 . S
H2328 C2344 0.959 . S
H2329 C2344 0.959 . S
H2330 C2344 0.961 . S
H2331 C2345 0.960 . S
H2332 C2345 0.961 . S
H2333 C2345 0.959 . S
H2334 C2348 0.929 . S
H2335 C2349 0.931 . S
H2336 C2351 0.930 . S
C2337 H2325 0.930 . S
C2337 C2338 1.399 . S
C2337 C2342 1.399 . S
C2338 C2337 1.399 . S
C2338 C2339 1.376 . S
C2339 H2326 0.930 . S
C2339 C2338 1.376 . S
C2339 C2340 1.388 . S
C2340 H2327 0.930 . S
C2340 C2339 1.388 . S
C2340 C2341 1.390 . S
C2341 C2340 1.390 . S
C2341 C2342 1.394 . S
C2341 C2347 1.465 . S
C2342 C2337 1.399 . S
C2342 C2341 1.394 . S
C2342 C2343 1.516 . S
C2343 C2342 1.516 . S
C2343 C2344 1.502 . S
C2343 C2345 1.561 . S
C2343 C2346 1.526 . S
C2344 H2328 0.959 . S
C2344 H2329 0.959 . S
C2344 H2330 0.961 . S
C2344 C2343 1.502 . S
C2345 H2331 0.960 . S
C2345 H2332 0.961 . S
C2345 H2333 0.959 . S
C2345 C2343 1.561 . S
C2346 C2343 1.526 . S
C2346 C2347 1.396 . S
C2346 C2351 1.390 . S
C2347 C2341 1.465 . S
C2347 C2346 1.396 . S
C2347 C2348 1.399 1_565 S
C2348 H2334 0.929 . S
C2348 C2347 1.399 1_545 S
C2348 C2349 1.385 . S
C2349 H2335 0.931 . S
C2349 C2348 1.385 . S
C2349 C2350 1.389 . S
C2350 C2349 1.389 . S
C2350 C2351 1.387 1_545 S
C2351 H2336 0.930 . S
C2351 C2346 1.390 . S
C2351 C2350 1.387 1_565 S
H2352 C2364 0.930 . S
H2353 C2366 0.930 . S
H2354 C2367 0.930 . S
H2355 C2371 0.959 . S
H2356 C2371 0.959 . S
H2357 C2371 0.961 1_556 S
H2358 C2372 0.960 . S
H2359 C2372 0.961 . S
H2360 C2372 0.959 . S
H2361 C2375 0.929 1_556 S
H2362 C2376 0.931 . S
H2363 C2378 0.930 . S
C2364 H2352 0.930 . S
C2364 C2365 1.399 . S
C2364 C2369 1.399 . S
C2365 C2364 1.399 . S
C2365 C2366 1.376 . S
C2366 H2353 0.930 . S
C2366 C2365 1.376 . S
C2366 C2367 1.388 . S
C2367 H2354 0.930 . S
C2367 C2366 1.388 . S
C2367 C2368 1.390 . S
C2368 C2367 1.390 . S
C2368 C2369 1.394 . S
C2368 C2374 1.465 . S
C2369 C2364 1.399 . S
C2369 C2368 1.394 . S
C2369 C2370 1.516 . S
C2370 C2369 1.516 . S
C2370 C2371 1.502 1_556 S
C2370 C2372 1.561 . S
C2370 C2373 1.526 1_556 S
C2371 H2355 0.959 . S
C2371 H2356 0.959 . S
C2371 H2357 0.961 1_554 S
C2371 C2370 1.502 1_554 S
C2372 H2358 0.960 . S
C2372 H2359 0.961 . S
C2372 H2360 0.959 . S
C2372 C2370 1.561 . S
C2373 C2370 1.526 1_554 S
C2373 C2374 1.396 1_554 S
C2373 C2378 1.390 . S
C2374 C2368 1.465 . S
C2374 C2373 1.396 1_556 S
C2374 C2375 1.399 1_556 S
C2375 H2361 0.929 1_554 S
C2375 C2374 1.399 1_554 S
C2375 C2376 1.385 . S
C2376 H2362 0.931 . S
C2376 C2375 1.385 . S
C2376 C2377 1.389 . S
C2377 C2376 1.389 . S
C2377 C2378 1.387 . S
C2378 H2363 0.930 . S
C2378 C2373 1.390 . S
C2378 C2377 1.387 . S
H2379 C2391 0.930 . S
H2380 C2393 0.930 . S
H2381 C2394 0.930 . S
H2382 C2398 0.959 . S
H2383 C2398 0.959 . S
H2384 C2398 0.961 . S
H2385 C2399 0.960 . S
H2386 C2399 0.961 . S
H2387 C2399 0.959 . S
H2388 C2402 0.929 . S
H2389 C2403 0.931 . S
H2390 C2405 0.930 1_545 S
C2391 H2379 0.930 . S
C2391 C2392 1.399 . S
C2391 C2396 1.399 . S
C2392 C2391 1.399 . S
C2392 C2393 1.376 . S
C2393 H2380 0.930 . S
C2393 C2392 1.376 . S
C2393 C2394 1.388 . S
C2394 H2381 0.930 . S
C2394 C2393 1.388 . S
C2394 C2395 1.390 . S
C2395 C2394 1.390 . S
C2395 C2396 1.394 . S
C2395 C2401 1.465 . S
C2396 C2391 1.399 . S
C2396 C2395 1.394 . S
C2396 C2397 1.516 . S
C2397 C2396 1.516 . S
C2397 C2398 1.502 . S
C2397 C2399 1.561 . S
C2397 C2400 1.526 . S
C2398 H2382 0.959 . S
C2398 H2383 0.959 . S
C2398 H2384 0.961 . S
C2398 C2397 1.502 . S
C2399 H2385 0.960 . S
C2399 H2386 0.961 . S
C2399 H2387 0.959 . S
C2399 C2397 1.561 . S
C2400 C2397 1.526 . S
C2400 C2401 1.396 . S
C2400 C2405 1.390 1_545 S
C2401 C2395 1.465 . S
C2401 C2400 1.396 . S
C2401 C2402 1.399 1_545 S
C2402 H2388 0.929 . S
C2402 C2401 1.399 1_565 S
C2402 C2403 1.385 . S
C2403 H2389 0.931 . S
C2403 C2402 1.385 . S
C2403 C2404 1.389 . S
C2404 C2403 1.389 . S
C2404 C2405 1.387 . S
C2405 H2390 0.930 1_565 S
C2405 C2400 1.390 1_565 S
C2405 C2404 1.387 . S
H2406 C2418 0.930 . S
H2407 C2420 0.930 . S
H2408 C2421 0.930 . S
H2409 C2425 0.959 . S
H2410 C2425 0.959 . S
H2411 C2425 0.961 . S
H2412 C2426 0.960 . S
H2413 C2426 0.961 . S
H2414 C2426 0.959 . S
H2415 C2429 0.929 . S
H2416 C2430 0.931 . S
H2417 C2432 0.930 . S
C2418 H2406 0.930 . S
C2418 C2419 1.399 . S
C2418 C2423 1.399 . S
C2419 C2418 1.399 . S
C2419 C2420 1.376 . S
C2420 H2407 0.930 . S
C2420 C2419 1.376 . S
C2420 C2421 1.388 . S
C2421 H2408 0.930 . S
C2421 C2420 1.388 . S
C2421 C2422 1.390 . S
C2422 C2421 1.390 . S
C2422 C2423 1.394 . S
C2422 C2428 1.465 . S
C2423 C2418 1.399 . S
C2423 C2422 1.394 . S
C2423 C2424 1.516 . S
C2424 C2423 1.516 . S
C2424 C2425 1.502 . S
C2424 C2426 1.561 . S
C2424 C2427 1.526 . S
C2425 H2409 0.959 . S
C2425 H2410 0.959 . S
C2425 H2411 0.961 . S
C2425 C2424 1.502 . S
C2426 H2412 0.960 . S
C2426 H2413 0.961 . S
C2426 H2414 0.959 . S
C2426 C2424 1.561 . S
C2427 C2424 1.526 . S
C2427 C2428 1.396 . S
C2427 C2432 1.390 . S
C2428 C2422 1.465 . S
C2428 C2427 1.396 . S
C2428 C2429 1.399 . S
C2429 H2415 0.929 . S
C2429 C2428 1.399 . S
C2429 C2430 1.385 . S
C2430 H2416 0.931 . S
C2430 C2429 1.385 . S
C2430 C2431 1.389 . S
C2431 C2430 1.389 . S
C2431 C2432 1.387 . S
C2432 H2417 0.930 . S
C2432 C2427 1.390 . S
C2432 C2431 1.387 . S
H2433 C2445 0.930 . S
H2434 C2447 0.930 . S
H2435 C2448 0.930 . S
H2436 C2452 0.959 . S
H2437 C2452 0.959 . S
H2438 C2452 0.979 . S
H2439 C2453 0.960 . S
H2440 C2453 0.961 . S
H2441 C2453 0.959 . S
H2442 C2456 0.929 . S
H2443 C2457 0.931 . S
H2444 C2459 0.930 . S
C2445 H2433 0.930 . S
C2445 C2446 1.399 . S
C2445 C2450 1.399 1_554 S
C2446 C2445 1.399 . S
C2446 C2447 1.376 . S
C2447 H2434 0.930 . S
C2447 C2446 1.376 . S
C2447 C2448 1.388 1_554 S
C2448 H2435 0.930 . S
C2448 C2447 1.388 1_556 S
C2448 C2449 1.390 . S
C2449 C2448 1.390 . S
C2449 C2450 1.394 . S
C2449 C2455 1.465 . S
C2450 C2445 1.399 1_556 S
C2450 C2449 1.394 . S
C2450 C2451 1.516 . S
C2451 C2450 1.516 . S
C2451 C2452 1.502 . S
C2451 C2453 1.561 . S
C2451 C2454 1.526 . S
C2452 H2436 0.959 . S
C2452 H2437 0.959 . S
C2452 H2438 0.979 . S
C2452 C2451 1.502 . S
C2453 H2439 0.960 . S
C2453 H2440 0.961 . S
C2453 H2441 0.959 . S
C2453 C2451 1.561 . S
C2454 C2451 1.526 . S
C2454 C2455 1.396 . S
C2454 C2459 1.390 . S
C2455 C2449 1.465 . S
C2455 C2454 1.396 . S
C2455 C2456 1.399 . S
C2456 H2442 0.929 . S
C2456 C2455 1.399 . S
C2456 C2457 1.385 . S
C2457 H2443 0.931 . S
C2457 C2456 1.385 . S
C2457 C2458 1.389 . S
C2458 C2457 1.389 . S
C2458 C2459 1.387 . S
C2459 H2444 0.930 . S
C2459 C2454 1.390 . S
C2459 C2458 1.387 . S
H2460 C2472 0.930 . S
H2461 C2474 0.930 . S
H2462 C2475 0.930 . S
H2463 C2479 0.959 . S
H2464 C2479 0.959 . S
H2465 C2479 0.961 . S
H2466 C2480 0.960 . S
H2467 C2480 0.961 . S
H2468 C2480 0.959 . S
H2469 C2483 0.929 . S
H2470 C2484 0.931 . S
H2471 C2486 0.930 . S
C2472 H2460 0.930 . S
C2472 C2473 1.399 . S
C2472 C2477 1.399 . S
C2473 C2472 1.399 . S
C2473 C2474 1.376 . S
C2474 H2461 0.930 . S
C2474 C2473 1.376 . S
C2474 C2475 1.388 . S
C2475 H2462 0.930 . S
C2475 C2474 1.388 . S
C2475 C2476 1.390 . S
C2476 C2475 1.390 . S
C2476 C2477 1.394 . S
C2476 C2482 1.465 . S
C2477 C2472 1.399 . S
C2477 C2476 1.394 . S
C2477 C2478 1.516 . S
C2478 C2477 1.516 . S
C2478 C2479 1.502 . S
C2478 C2480 1.561 . S
C2478 C2481 1.526 . S
C2479 H2463 0.959 . S
C2479 H2464 0.959 . S
C2479 H2465 0.961 . S
C2479 C2478 1.502 . S
C2480 H2466 0.960 . S
C2480 H2467 0.961 . S
C2480 H2468 0.959 . S
C2480 C2478 1.561 . S
C2481 C2478 1.526 . S
C2481 C2482 1.396 . S
C2481 C2486 1.390 . S
C2482 C2476 1.465 . S
C2482 C2481 1.396 . S
C2482 C2483 1.399 . S
C2483 H2469 0.929 . S
C2483 C2482 1.399 . S
C2483 C2484 1.385 . S
C2484 H2470 0.931 . S
C2484 C2483 1.385 . S
C2484 C2485 1.389 . S
C2485 C2484 1.389 . S
C2485 C2486 1.387 . S
C2486 H2471 0.930 . S
C2486 C2481 1.390 . S
C2486 C2485 1.387 . S
H2487 C2499 0.930 . S
H2488 C2501 0.930 . S
H2489 C2502 0.930 . S
H2490 C2506 0.959 . S
H2491 C2506 0.959 . S
H2492 C2506 0.961 . S
H2493 C2507 0.960 . S
H2494 C2507 0.961 . S
H2495 C2507 0.959 . S
H2496 C2510 0.929 . S
H2497 C2511 0.931 . S
H2498 C2513 0.930 . S
C2499 H2487 0.930 . S
C2499 C2500 1.399 . S
C2499 C2504 1.399 . S
C2500 C2499 1.399 . S
C2500 C2501 1.376 . S
C2501 H2488 0.930 . S
C2501 C2500 1.376 . S
C2501 C2502 1.388 . S
C2502 H2489 0.930 . S
C2502 C2501 1.388 . S
C2502 C2503 1.390 . S
C2503 C2502 1.390 . S
C2503 C2504 1.394 . S
C2503 C2509 1.465 . S
C2504 C2499 1.399 . S
C2504 C2503 1.394 . S
C2504 C2505 1.516 . S
C2505 C2504 1.516 . S
C2505 C2506 1.502 . S
C2505 C2507 1.561 . S
C2505 C2508 1.526 . S
C2506 H2490 0.959 . S
C2506 H2491 0.959 . S
C2506 H2492 0.961 . S
C2506 C2505 1.502 . S
C2507 H2493 0.960 . S
C2507 H2494 0.961 . S
C2507 H2495 0.959 . S
C2507 C2505 1.561 . S
C2508 C2505 1.526 . S
C2508 C2509 1.396 . S
C2508 C2513 1.390 . S
C2509 C2503 1.465 . S
C2509 C2508 1.396 . S
C2509 C2510 1.399 . S
C2510 H2496 0.929 . S
C2510 C2509 1.399 . S
C2510 C2511 1.385 . S
C2511 H2497 0.931 . S
C2511 C2510 1.385 . S
C2511 C2512 1.389 . S
C2512 C2511 1.389 . S
C2512 C2513 1.387 . S
C2513 H2498 0.930 . S
C2513 C2508 1.390 . S
C2513 C2512 1.387 . S
H2514 C2526 0.930 . S
H2515 C2528 0.930 . S
H2516 C2529 0.930 . S
H2517 C2533 0.959 . S
H2518 C2533 0.959 . S
H2519 C2533 0.961 . S
H2520 C2534 0.960 . S
H2521 C2534 0.961 . S
H2522 C2534 0.959 . S
H2523 C2537 0.929 . S
H2524 C2538 0.931 . S
H2525 C2540 0.930 . S
C2526 H2514 0.930 . S
C2526 C2527 1.399 . S
C2526 C2531 1.399 . S
C2527 C2526 1.399 . S
C2527 C2528 1.376 . S
C2528 H2515 0.930 . S
C2528 C2527 1.376 . S
C2528 C2529 1.388 . S
C2529 H2516 0.930 . S
C2529 C2528 1.388 . S
C2529 C2530 1.390 . S
C2530 C2529 1.390 . S
C2530 C2531 1.394 . S
C2530 C2536 1.465 . S
C2531 C2526 1.399 . S
C2531 C2530 1.394 . S
C2531 C2532 1.516 . S
C2532 C2531 1.516 . S
C2532 C2533 1.502 . S
C2532 C2534 1.561 . S
C2532 C2535 1.526 . S
C2533 H2517 0.959 . S
C2533 H2518 0.959 . S
C2533 H2519 0.961 . S
C2533 C2532 1.502 . S
C2534 H2520 0.960 . S
C2534 H2521 0.961 . S
C2534 H2522 0.959 . S
C2534 C2532 1.561 . S
C2535 C2532 1.526 . S
C2535 C2536 1.396 . S
C2535 C2540 1.390 . S
C2536 C2530 1.465 . S
C2536 C2535 1.396 . S
C2536 C2537 1.399 . S
C2537 H2523 0.929 . S
C2537 C2536 1.399 . S
C2537 C2538 1.385 . S
C2538 H2524 0.931 . S
C2538 C2537 1.385 . S
C2538 C2539 1.389 . S
C2539 C2538 1.389 . S
C2539 C2540 1.387 . S
C2540 H2525 0.930 . S
C2540 C2535 1.390 . S
C2540 C2539 1.387 . S
H2541 C2553 0.930 . S
H2542 C2555 0.930 . S
H2543 C2556 0.930 . S
H2544 C2560 0.959 . S
H2545 C2560 0.959 . S
H2546 C2560 0.961 . S
H2547 C2561 0.960 . S
H2548 C2561 0.961 . S
H2549 C2561 0.959 . S
H2550 C2564 0.929 . S
H2551 C2565 0.931 . S
H2552 C2567 0.930 . S
C2553 H2541 0.930 . S
C2553 C2554 1.399 . S
C2553 C2558 1.399 . S
C2554 C2553 1.399 . S
C2554 C2555 1.376 . S
C2555 H2542 0.930 . S
C2555 C2554 1.376 . S
C2555 C2556 1.388 . S
C2556 H2543 0.930 . S
C2556 C2555 1.388 . S
C2556 C2557 1.390 . S
C2557 C2556 1.390 . S
C2557 C2558 1.394 . S
C2557 C2563 1.465 . S
C2558 C2553 1.399 . S
C2558 C2557 1.394 . S
C2558 C2559 1.516 . S
C2559 C2558 1.516 . S
C2559 C2560 1.502 . S
C2559 C2561 1.561 . S
C2559 C2562 1.526 . S
C2560 H2544 0.959 . S
C2560 H2545 0.959 . S
C2560 H2546 0.961 . S
C2560 C2559 1.502 . S
C2561 H2547 0.960 . S
C2561 H2548 0.961 . S
C2561 H2549 0.959 . S
C2561 C2559 1.561 . S
C2562 C2559 1.526 . S
C2562 C2563 1.396 . S
C2562 C2567 1.390 . S
C2563 C2557 1.465 . S
C2563 C2562 1.396 . S
C2563 C2564 1.399 . S
C2564 H2550 0.929 . S
C2564 C2563 1.399 . S
C2564 C2565 1.385 . S
C2565 H2551 0.931 . S
C2565 C2564 1.385 . S
C2565 C2566 1.389 . S
C2566 C2565 1.389 . S
C2566 C2567 1.387 . S
C2567 H2552 0.930 . S
C2567 C2562 1.390 . S
C2567 C2566 1.387 . S
C1285 C29 1.407 . S
C1297 C506 1.400 . S
C1312 C82 1.195 . S
C1324 C559 1.179 . S
C1339 C622 1.687 . S
C1351 C135 1.699 . S
C1366 C463 1.665 . S
C1378 C188 1.659 . S
C1393 C569 1.487 . S
C1405 C251 1.490 . S
C1420 C304 1.287 . S
C1432 C612 1.245 . S
C1447 C357 1.580 . S
C1459 C453 1.581 . S
C1474 C516 1.725 . S
C1486 C410 1.735 . S
C1501 C241 1.492 . S
C1513 C674 1.508 . S
C1528 C400 1.246 . S
C1540 C817 1.218 . S
C1555 C887 1.692 . S
C1567 C294 1.684 . S
C1582 C198 1.509 . S
C1594 C728 1.522 . S
C1609 C780 1.573 . S
C1621 C347 1.572 . S
C1636 C39 1.615 . S
C1648 C1036 1.600 . S
C1663 C145 1.228 . S
C1675 C983 1.277 . S
C1690 C833 1.454 . S
C1702 C1152 1.446 . S
C1717 C1205 1.557 . S
C1729 C658 1.571 . S
C1744 C1258 1.207 . S
C1756 C877 1.225 . S
C1771 C1099 1.258 . S
C1783 C764 1.233 . S
C1798 C1195 1.460 . S
C1810 C930 1.454 . S
C1825 C993 1.703 . S
C1837 C1248 1.721 . S
C1852 C1089 1.229 . S
C1864 C718 1.237 . S
C1879 C1046 1.363 . S
C1891 C1142 1.370 . S
C1906 C92 1.536 . S
C1918 C940 1.544 . S
C1933 C250 1.150 . S
C1945 C22 1.121 . S
C1960 C75 0.913 . S
C1972 C303 0.883 . S
C1987 C128 1.321 . S
C1999 C356 1.322 . S
C2014 C409 1.319 . S
C2026 C181 1.317 . S
C2041 C462 1.416 . S
C2053 C515 1.404 . S
C2068 C499 1.134 . S
C2080 C568 1.123 . S
C2095 C605 0.866 . S
C2107 C552 0.891 . S
C2122 C446 1.259 . S
C2134 C621 1.255 . S
C2149 C197 1.208 . S
C2161 C675 1.193 . S
C2176 C393 0.898 . S
C2188 C976 0.906 . S
C2203 C234 1.217 . S
C2215 C727 1.235 . S
C2230 C1029 1.213 . S
C2242 C287 1.199 . S
C2257 C781 1.195 . S
C2269 C91 1.179 . S
C2284 C38 1.244 . S
C2296 C886 1.262 . S
C2311 C144 0.809 . S
C2323 C824 0.806 . S
C2338 C834 1.126 . S
C2350 C923 1.137 . S
C2365 C992 1.201 . S
C2377 C665 1.186 . S
C2392 C870 0.884 . S
C2404 C711 0.893 . S
C2419 C771 0.980 . S
C2431 C1045 1.010 . S
C2446 C1135 0.954 . S
C2458 C1098 1.000 . S
C2473 C1188 1.129 . S
C2485 C1151 1.145 . S
C2500 C1241 1.338 . S
C2512 C1204 1.334 . S
C2527 C1082 0.924 . S
C2539 C1257 0.915 . S
C2554 C939 1.205 . S
C2566 C340 1.205 . S
