# Generated by pormake.
# Topology sml, (6)-cn, num edge types: 1
# Building blocks:
#     Node 0, Type 0, BuildingBlock: LEVNOQ01_clean_sbu_1, # of connection points: 6
#     Node 1, Type 0, BuildingBlock: LEVNOQ01_clean_sbu_1, # of connection points: 6
#     Node 2, Type 0, BuildingBlock: LEVNOQ01_clean_sbu_1, # of connection points: 6
#     Node 3, Type 0, BuildingBlock: LEVNOQ01_clean_sbu_1, # of connection points: 6
#     Node 4, Type 0, BuildingBlock: LEVNOQ01_clean_sbu_1, # of connection points: 6
#     Node 5, Type 0, BuildingBlock: LEVNOQ01_clean_sbu_1, # of connection points: 6
#     Edge 6, Type (0, 0), BuildingBlock: OJICUG_clean_linker_0, # of connection points: 2
#     Edge 7, Type (0, 0), BuildingBlock: OJICUG_clean_linker_0, # of connection points: 2
#     Edge 8, Type (0, 0), BuildingBlock: OJICUG_clean_linker_0, # of connection points: 2
#     Edge 9, Type (0, 0), BuildingBlock: OJICUG_clean_linker_0, # of connection points: 2
#     Edge 10, Type (0, 0), BuildingBlock: OJICUG_clean_linker_0, # of connection points: 2
#     Edge 11, Type (0, 0), BuildingBlock: OJICUG_clean_linker_0, # of connection points: 2
#     Edge 12, Type (0, 0), BuildingBlock: OJICUG_clean_linker_0, # of connection points: 2
#     Edge 13, Type (0, 0), BuildingBlock: OJICUG_clean_linker_0, # of connection points: 2
#     Edge 14, Type (0, 0), BuildingBlock: OJICUG_clean_linker_0, # of connection points: 2
#     Edge 15, Type (0, 0), BuildingBlock: OJICUG_clean_linker_0, # of connection points: 2
#     Edge 16, Type (0, 0), BuildingBlock: OJICUG_clean_linker_0, # of connection points: 2
#     Edge 17, Type (0, 0), BuildingBlock: OJICUG_clean_linker_0, # of connection points: 2
#     Edge 18, Type (0, 0), BuildingBlock: OJICUG_clean_linker_0, # of connection points: 2
#     Edge 19, Type (0, 0), BuildingBlock: OJICUG_clean_linker_0, # of connection points: 2
#     Edge 20, Type (0, 0), BuildingBlock: OJICUG_clean_linker_0, # of connection points: 2
#     Edge 21, Type (0, 0), BuildingBlock: OJICUG_clean_linker_0, # of connection points: 2
#     Edge 22, Type (0, 0), BuildingBlock: OJICUG_clean_linker_0, # of connection points: 2
#     Edge 23, Type (0, 0), BuildingBlock: OJICUG_clean_linker_0, # of connection points: 2
# Relax obj value: 0.143
# Max RMSD: 0.171
# Mean RMSD: 0.171
data_MOF--net-sml--node1-LEVNOQ01_clean_sbu_1--edge1-OJICUG_clean_linker_0
_symmetry_space_group_name_H-M    P1
_symmetry_Int_Tables_number       1
_symmetry_cell_setting            triclinic
loop_
_symmetry_equiv_pos_as_xyz
'x, y, z'
_cell_length_a     29.677537
_cell_length_b     29.815997
_cell_length_c     11.935318
_cell_angle_alpha  90.23015
_cell_angle_beta   89.972486
_cell_angle_gamma 119.73655
loop_
_atom_site_label
_atom_site_type_symbol
_atom_site_fract_x
_atom_site_fract_y
_atom_site_fract_z
_atom_type_partial_charge
O0 O 0.15756 0.3402 0.72945 0.0
Mg1 Mg 0.14763 0.31534 0.89653 0.0
O2 O 0.20776 0.4205 0.78556 0.0
Mg3 Mg 0.21654 0.4192 -0.02205 0.0
O4 O 0.13136 0.35337 0.01833 0.0
O5 O 0.07403 0.27523 0.94823 0.0
O6 O 0.2247 0.41756 0.17085 0.0
O7 O 0.1792 0.47302 -0.0048 0.0
Mg8 Mg 0.28952 0.52373 0.06556 0.0
O9 O 0.30174 0.48428 0.94083 0.0
O10 O 0.27721 0.49681 0.23028 0.0
O11 O 0.24327 0.55343 0.00655 0.0
O12 O 0.36398 0.55877 0.01535 0.0
C13 C 0.24117 0.31857 0.95786 0.0
C14 C 0.186 0.38753 0.70716 0.0
C15 C 0.08579 0.31188 0.02012 0.0
C16 C 0.24698 0.44963 0.25054 0.0
C17 C 0.19533 0.52154 -0.00389 0.0
C18 C 0.34883 0.52344 0.93888 0.0
O19 O 0.19354 0.28538 0.95358 0.0
O20 O 0.2553 0.36662 0.95797 0.0
O21 O 0.77529 0.13533 0.04755 0.0
Mg22 Mg 0.80185 0.1238 0.20194 0.0
O23 O 0.77437 0.20528 0.10799 0.0
Mg24 Mg 0.7841 0.21389 0.30124 0.0
O25 O 0.7617 0.12972 0.33291 0.0
O26 O 0.76138 0.05675 0.29135 0.0
O27 O 0.79352 0.22014 0.49391 0.0
O28 O 0.69401 0.18218 0.31803 0.0
Mg29 Mg 0.75318 0.28497 0.38074 0.0
O30 O 0.81123 0.30166 0.26826 0.0
O31 O 0.75795 0.26618 0.54779 0.0
O32 O 0.67981 0.24734 0.30429 0.0
O33 O 0.79704 0.36109 0.35267 0.0
C34 C 0.90095 0.22204 0.25852 0.0
C35 C 0.77113 0.17492 0.0287 0.0
C36 C 0.74766 0.08229 0.35711 0.0
C37 C 0.77798 0.23866 0.57142 0.0
C38 C 0.66228 0.19914 0.30756 0.0
C39 C 0.82054 0.34914 0.27729 0.0
O40 O 0.88114 0.17445 0.23406 0.0
O41 O 0.87251 0.24197 0.28108 0.0
O42 O 0.64664 0.80081 0.39847 0.0
Mg43 Mg 0.68302 0.82563 0.55728 0.0
O44 O 0.57055 0.78922 0.45816 0.0
Mg45 Mg 0.56786 0.79385 0.6501 0.0
O46 O 0.63425 0.77731 0.67628 0.0
O47 O 0.71136 0.7849 0.64508 0.0
O48 O 0.56879 0.79923 0.84344 0.0
O49 O 0.5123 0.70487 0.66061 0.0
Mg50 Mg 0.46268 0.77288 0.75839 0.0
O51 O 0.50189 0.81243 0.62091 0.0
O52 O 0.50069 0.80135 0.91141 0.0
O53 O 0.43669 0.69417 0.72121 0.0
O54 O 0.42987 0.81062 0.68159 0.0
C55 C 0.66916 0.91608 0.62269 0.0
C56 C 0.60078 0.79173 0.37931 0.0
C57 C 0.66864 0.76435 0.70105 0.0
C58 C 0.54381 0.80332 0.92587 0.0
C59 C 0.46453 0.67571 0.68538 0.0
C60 C 0.46473 0.82282 0.60502 0.0
O61 O 0.70267 0.90251 0.60125 0.0
O62 O 0.62156 0.88258 0.63778 0.0
O63 O 0.799 0.63717 0.74319 0.0
Mg64 Mg 0.81588 0.65737 0.91504 0.0
O65 O 0.77411 0.55704 0.78813 0.0
Mg66 Mg 0.76426 0.56216 -0.02101 0.0
O67 O 0.85134 0.62861 0.01593 0.0
O68 O 0.89171 0.70596 0.93131 0.0
O69 O 0.75414 0.56566 0.17151 0.0
O70 O 0.80529 0.51258 0.00662 0.0
Mg71 Mg 0.69696 0.45536 0.05895 0.0
O72 O 0.68027 0.49554 0.94445 0.0
O73 O 0.7124 0.48401 0.22451 0.0
O74 O 0.74635 0.43079 -0.01045 0.0
O75 O 0.62154 0.41792 0.01031 0.0
C76 C 0.72952 0.65549 -0.02767 0.0
C77 C 0.78375 0.59107 0.71377 0.0
C78 C 0.8928 0.67322 -8e-05 0.0
C79 C 0.73626 0.53167 0.24863 0.0
C80 C 0.79353 0.46535 -0.00324 0.0
C81 C 0.63409 0.45523 0.94047 0.0
O82 O 0.77539 0.68838 -0.00211 0.0
O83 O 0.71966 0.60962 0.94958 0.0
O84 O 0.19958 0.84303 0.05602 0.0
Mg85 Mg 0.17915 0.85915 0.21414 0.0
O86 O 0.20231 0.77366 0.11446 0.0
Mg87 Mg 0.19436 0.76608 0.30637 0.0
O88 O 0.22122 0.85153 0.3369 0.0
O89 O 0.2252 0.92648 0.29975 0.0
O90 O 0.18561 0.76179 0.49911 0.0
O91 O 0.28261 0.79245 0.32239 0.0
Mg92 Mg 0.21269 0.68284 0.40743 0.0
O93 O 0.16684 0.67832 0.27619 0.0
O94 O 0.1941 0.69756 0.56658 0.0
O95 O 0.29117 0.72437 0.35765 0.0
O96 O 0.16774 0.60992 0.3518 0.0
C97 C 0.07977 0.7632 0.26225 0.0
C98 C 0.20338 0.80323 0.03615 0.0
C99 C 0.23833 0.89958 0.36208 0.0
C100 C 0.18664 0.7353 0.58138 0.0
C101 C 0.31117 0.77191 0.3342 0.0
C102 C 0.15336 0.62949 0.27261 0.0
O103 O 0.10083 0.81207 0.2591 0.0
O104 O 0.10689 0.74129 0.27809 0.0
O105 O 0.33274 0.17275 0.40215 0.0
Mg106 Mg 0.2987 0.15036 0.56365 0.0
O107 O 0.41306 0.1969 0.45836 0.0
Mg108 Mg 0.41572 0.19037 0.6509 0.0
O109 O 0.34675 0.20273 0.6793 0.0
O110 O 0.26727 0.18919 0.64832 0.0
O111 O 0.41527 0.18408 0.84425 0.0
O112 O 0.46793 0.28075 0.66466 0.0
Mg113 Mg 0.52569 0.22322 0.74628 0.0
O114 O 0.48331 0.17408 0.62151 0.0
O115 O 0.49335 0.20551 0.90775 0.0
O116 O 0.54911 0.29813 0.6881 0.0
O117 O 0.55907 0.18358 0.68006 0.0
C118 C 0.31823 0.06501 0.62799 0.0
C119 C 0.38032 0.18908 0.38064 0.0
C120 C 0.31023 0.2128 0.70353 0.0
C121 C 0.44619 0.19169 0.92537 0.0
C122 C 0.51655 0.31316 0.67044 0.0
C123 C 0.52178 0.16542 0.60767 0.0
O124 O 0.28211 0.07559 0.61414 0.0
O125 O 0.36545 0.10085 0.63582 0.0
C126 C 0.33243 0.29909 0.77817 0.0
C127 C 0.3136 0.24634 0.7971 0.0
H128 H 0.32522 0.36519 0.8202 0.0
C129 C 0.28269 0.22293 0.89135 0.0
H130 H 0.35562 0.31755 0.70465 0.0
C131 C 0.26501 0.24987 0.957 0.0
C132 C 0.27788 0.30054 0.92873 0.0
H133 H 0.26725 0.18206 0.90646 0.0
H134 H 0.23639 0.2291 0.02126 0.0
C135 C 0.31503 0.32633 0.84458 0.0
C136 C 0.03396 0.2546 0.17185 0.0
C137 C 0.04962 0.30068 0.11342 0.0
H138 H 0.97479 0.19424 0.26873 0.0
C139 C 0.02238 0.32753 0.12831 0.0
H140 H 0.05465 0.23341 0.16152 0.0
C141 C 0.97606 0.30486 0.19024 0.0
C142 C 0.95692 0.25523 0.23634 0.0
H143 H 0.03392 0.36312 0.0835 0.0
H144 H 0.95267 0.32351 0.19138 0.0
C145 C 0.98823 0.23221 0.23333 0.0
C146 C 0.75517 0.05312 0.54316 0.0
C147 C 0.72326 0.05816 0.46345 0.0
H148 H 0.76234 0.0027 0.65979 0.0
C149 C 0.66972 0.02351 0.46521 0.0
H150 H 0.79673 0.07926 0.54226 0.0
C151 C 0.64973 0.97986 0.53394 0.0
C152 C 0.68355 0.97011 0.59882 0.0
H153 H 0.64457 0.02638 0.40332 0.0
H154 H 0.60939 0.95048 0.52369 0.0
C155 C 0.73554 0.00909 0.60997 0.0
C156 C 0.69085 0.75265 0.8929 0.0
C157 C 0.66294 0.73011 0.79437 0.0
H158 H 0.73253 0.74529 0.03096 0.0
C159 C 0.64551 0.67776 0.77265 0.0
H160 H 0.70533 0.79326 0.91016 0.0
C161 C 0.66116 0.65007 0.84173 0.0
C162 C 0.69521 0.67493 0.93194 0.0
H163 H 0.6247 0.65998 0.69586 0.0
H164 H 0.65174 0.61145 0.81635 0.0
C165 C 0.7066 0.72518 0.96169 0.0
C166 C 0.98772 0.68924 0.23272 0.0
C167 C 0.03134 0.73519 0.19752 0.0
H168 H 0.90808 0.63266 0.19663 0.0
C169 C 0.03052 0.75569 0.0925 0.0
H170 H 0.98808 0.6721 0.31229 0.0
C171 C 0.98634 0.73316 0.02663 0.0
C172 C 0.94115 0.68951 0.06392 0.0
H173 H 0.06435 0.78993 0.0611 0.0
H174 H 0.98733 0.75123 0.94738 0.0
C175 C 0.94241 0.6666 0.16625 0.0
C176 C 0.33907 0.00399 0.52983 0.0
C177 C 0.30617 0.01169 0.60265 0.0
H178 H 0.34231 0.95879 0.39314 0.0
C179 C 0.25569 0.97072 0.62093 0.0
H180 H 0.37823 0.03492 0.51406 0.0
C181 C 0.23574 0.92655 0.55363 0.0
C182 C 0.26577 0.92337 0.46648 0.0
H183 H 0.22966 0.97552 0.67706 0.0
H184 H 0.19465 0.89877 0.55865 0.0
C185 C 0.31867 0.96018 0.46081 0.0
C186 C 0.22969 0.45588 0.56232 0.0
C187 C 0.19915 0.40348 0.58944 0.0
H188 H 0.26998 0.51147 0.43474 0.0
C189 C 0.185 0.3661 0.50422 0.0
H190 H 0.2406 0.48556 0.62568 0.0
C191 C 0.2015 0.38088 0.39428 0.0
C192 C 0.23272 0.43328 0.36763 0.0
H193 H 0.16178 0.3253 0.52255 0.0
H194 H 0.18975 0.35127 0.33029 0.0
C195 C 0.24667 0.47063 0.45281 0.0
C196 C 0.76265 0.23156 0.88614 0.0
C197 C 0.76976 0.18955 0.91142 0.0
H198 H 0.76061 0.2807 0.75873 0.0
C199 C 0.78049 0.16444 0.82403 0.0
H200 H 0.75429 0.25163 0.95154 0.0
C201 C 0.78478 0.18144 0.71396 0.0
C202 C 0.77791 0.22357 0.68876 0.0
H203 H 0.78659 0.13215 0.84064 0.0
H204 H 0.79279 0.1611 0.64852 0.0
C205 C 0.76657 0.24835 0.7758 0.0
C206 C 0.60551 0.77705 0.17452 0.0
C207 C 0.5853 0.79269 0.26311 0.0
H208 H 0.60823 0.76849 -0.00309 0.0
C209 C 0.55387 0.81441 0.23963 0.0
H210 H 0.63028 0.76067 0.19078 0.0
C211 C 0.54178 0.81943 0.12957 0.0
C212 C 0.56133 0.80324 0.04079 0.0
H213 H 0.53983 0.82894 0.30629 0.0
H214 H 0.5171 0.83598 0.11402 0.0
C215 C 0.59349 0.78219 0.06394 0.0
C216 C 0.7511 0.52429 0.5617 0.0
C217 C 0.77333 0.57628 0.59418 0.0
H218 H 0.72099 0.4694 0.42804 0.0
C219 C 0.78271 0.61366 0.51204 0.0
H220 H 0.74346 0.49454 0.62265 0.0
C221 C 0.77004 0.5993 0.39985 0.0
C222 C 0.74729 0.54721 0.36771 0.0
H223 H 0.79964 0.65409 0.53438 0.0
H224 H 0.77805 0.62899 0.33844 0.0
C225 C 0.73791 0.50988 0.44997 0.0
C226 C 0.21117 0.80575 0.72087 0.0
C227 C 0.18691 0.75274 0.69618 0.0
H228 H 0.23707 0.86367 0.84952 0.0
C229 C 0.16853 0.71679 0.7835 0.0
H230 H 0.22659 0.83413 0.65461 0.0
C231 C 0.17456 0.73359 0.89408 0.0
C232 C 0.20036 0.78654 0.91942 0.0
H233 H 0.14946 0.67569 0.7662 0.0
H234 H 0.15758 0.70513 0.95951 0.0
C235 C 0.21791 0.8226 0.83198 0.0
C236 C 0.35995 0.16974 0.17662 0.0
C237 C 0.39686 0.19334 0.26267 0.0
H238 H 0.34653 0.15008 0.0023 0.0
C239 C 0.44978 0.21711 0.2361 0.0
H240 H 0.31878 0.1511 0.19433 0.0
C241 C 0.46557 0.21521 0.12712 0.0
C242 C 0.42874 0.19056 0.04154 0.0
H243 H 0.47909 0.23708 0.29965 0.0
H244 H 0.50678 0.23385 0.10979 0.0
C245 C 0.37577 0.16859 0.06689 0.0
C246 C 0.12071 0.51616 0.10031 0.0
C247 C 0.15957 0.54144 0.01938 0.0
H248 H 0.08577 0.5264 0.24787 0.0
C249 C 0.17686 0.59374 -0.00303 0.0
H250 H 0.10612 0.47569 0.11864 0.0
C251 C 0.16559 0.62287 0.07188 0.0
C252 C 0.13617 0.59957 0.16786 0.0
H253 H 0.20629 0.61398 0.93386 0.0
H254 H 0.1882 0.66449 0.06627 0.0
C255 C 0.10901 0.54533 0.17466 0.0
C256 C 0.59567 0.12837 0.42279 0.0
C257 C 0.60747 0.16652 0.34125 0.0
H258 H 0.55557 0.09652 0.57651 0.0
C259 C 0.57263 0.18506 0.32493 0.0
H260 H 0.62105 0.11244 0.43623 0.0
C261 C 0.53412 0.17473 0.40447 0.0
C262 C 0.53102 0.14669 0.50086 0.0
H263 H 0.58008 0.21368 0.26116 0.0
H264 H 0.51375 0.19631 0.40093 0.0
C265 C 0.55783 0.11894 0.50332 0.0
C266 C 0.4354 0.56299 0.85266 0.0
C267 C 0.38127 0.53638 0.83817 0.0
H268 H 0.50679 0.62975 0.80701 0.0
C269 C 0.36048 0.54401 0.73938 0.0
H270 H 0.45234 0.55744 0.9281 0.0
C271 C 0.39138 0.58646 0.67164 0.0
C272 C 0.44342 0.62 0.70085 0.0
H273 H 0.31894 0.52388 0.72641 0.0
H274 H 0.37277 0.59744 0.6078 0.0
C275 C 0.46664 0.6046 0.78316 0.0
C276 C 0.86538 0.43924 0.21056 0.0
C277 C 0.84589 0.3866 0.18631 0.0
H278 H 0.86532 0.50811 0.16251 0.0
C279 C 0.83078 0.36921 0.07602 0.0
H280 H 0.87835 0.45389 0.2946 0.0
C281 C 0.822 0.39992 0.00079 0.0
C282 C 0.83005 0.44854 0.03506 0.0
H283 H 0.81681 0.32915 0.05434 0.0
H284 H 0.80165 0.38264 0.92327 0.0
C285 C 0.85781 0.47039 0.13448 0.0
C286 C 0.38535 0.84958 0.41711 0.0
C287 C 0.36754 0.80468 0.35161 0.0
H288 H 0.43521 0.89315 0.55262 0.0
C289 C 0.39957 0.78269 0.3386 0.0
H290 H 0.36186 0.86786 0.4275 0.0
C291 C 0.44226 0.79789 0.4093 0.0
C292 C 0.45234 0.83452 0.49377 0.0
H293 H 0.3872 0.74868 0.2866 0.0
H294 H 0.4606 0.77426 0.41146 0.0
C295 C 0.42774 0.86437 0.48862 0.0
C296 C 0.61832 0.44315 0.73799 0.0
C297 C 0.59936 0.44519 0.84441 0.0
H298 H 0.60381 0.39693 0.59053 0.0
C299 C 0.54559 0.41725 0.86319 0.0
H300 H 0.65956 0.46476 0.72115 0.0
C301 C 0.5132 0.37921 0.78676 0.0
C302 C 0.53513 0.3681 0.69396 0.0
H303 H 0.53001 0.4188 0.94434 0.0
H304 H 0.47367 0.3525 0.81192 0.0
C305 C 0.58622 0.40421 0.66283 0.0
loop_
_geom_bond_atom_site_label_1
_geom_bond_atom_site_label_2
_geom_bond_distance
_geom_bond_site_symmetry_2
_ccdc_geom_bond_type
O0 Mg1 1.990 . S
O0 C14 1.253 . S
Mg1 O0 1.990 . S
Mg1 O4 2.180 1_556 S
Mg1 O5 2.117 . S
Mg1 O19 2.030 . S
O2 Mg3 2.072 1_556 S
O2 C14 1.260 . S
Mg3 O2 2.072 1_554 S
Mg3 O4 2.099 . S
Mg3 O6 2.079 . S
Mg3 O7 2.072 . S
Mg3 O9 2.099 . S
Mg3 O20 2.079 1_554 S
O4 Mg1 2.180 1_554 S
O4 Mg3 2.099 . S
O4 C15 1.279 . S
O5 Mg1 2.117 . S
O5 C15 1.250 1_556 S
O6 Mg3 2.079 . S
O6 C16 1.264 . S
O7 Mg3 2.072 . S
O7 C17 1.260 . S
Mg8 O9 2.180 . S
Mg8 O10 2.030 . S
Mg8 O11 1.990 . S
Mg8 O12 2.112 1_554 S
O9 Mg3 2.099 . S
O9 Mg8 2.180 . S
O9 C18 1.279 1_554 S
O10 Mg8 2.030 . S
O10 C16 1.248 . S
O11 Mg8 1.990 . S
O11 C17 1.253 . S
O12 Mg8 2.112 1_556 S
O12 C18 1.252 . S
C13 O19 1.248 . S
C13 O20 1.264 . S
C14 O0 1.253 . S
C14 O2 1.260 . S
C15 O4 1.279 . S
C15 O5 1.250 1_554 S
C16 O6 1.264 . S
C16 O10 1.248 . S
C17 O7 1.260 . S
C17 O11 1.253 . S
C18 O9 1.279 1_556 S
C18 O12 1.252 . S
O19 Mg1 2.030 . S
O19 C13 1.248 . S
O20 Mg3 2.079 1_556 S
O20 C13 1.264 . S
O21 Mg22 1.990 . S
O21 C35 1.253 . S
Mg22 O21 1.990 . S
Mg22 O25 2.180 . S
Mg22 O26 2.117 . S
Mg22 O40 2.030 . S
O23 Mg24 2.072 . S
O23 C35 1.260 . S
Mg24 O23 2.072 . S
Mg24 O25 2.099 . S
Mg24 O27 2.079 . S
Mg24 O28 2.072 . S
Mg24 O30 2.099 . S
Mg24 O41 2.079 . S
O25 Mg22 2.180 . S
O25 Mg24 2.099 . S
O25 C36 1.279 . S
O26 Mg22 2.117 . S
O26 C36 1.250 . S
O27 Mg24 2.079 . S
O27 C37 1.264 . S
O28 Mg24 2.072 . S
O28 C38 1.260 . S
Mg29 O30 2.180 . S
Mg29 O31 2.030 . S
Mg29 O32 1.990 . S
Mg29 O33 2.117 . S
O30 Mg24 2.099 . S
O30 Mg29 2.180 . S
O30 C39 1.279 . S
O31 Mg29 2.030 . S
O31 C37 1.248 . S
O32 Mg29 1.990 . S
O32 C38 1.253 . S
O33 Mg29 2.117 . S
O33 C39 1.250 . S
C34 O40 1.248 . S
C34 O41 1.264 . S
C35 O21 1.253 . S
C35 O23 1.260 . S
C36 O25 1.279 . S
C36 O26 1.250 . S
C37 O27 1.264 . S
C37 O31 1.248 . S
C38 O28 1.260 . S
C38 O32 1.253 . S
C39 O30 1.279 . S
C39 O33 1.250 . S
O40 Mg22 2.030 . S
O40 C34 1.248 . S
O41 Mg24 2.079 . S
O41 C34 1.264 . S
O42 Mg43 1.990 . S
O42 C56 1.253 . S
Mg43 O42 1.990 . S
Mg43 O46 2.180 . S
Mg43 O47 2.117 . S
Mg43 O61 2.030 . S
O44 Mg45 2.072 . S
O44 C56 1.260 . S
Mg45 O44 2.072 . S
Mg45 O46 2.099 . S
Mg45 O48 2.079 . S
Mg45 O49 2.072 . S
Mg45 O51 2.099 . S
Mg45 O62 2.079 . S
O46 Mg43 2.180 . S
O46 Mg45 2.099 . S
O46 C57 1.279 . S
O47 Mg43 2.117 . S
O47 C57 1.250 . S
O48 Mg45 2.079 . S
O48 C58 1.264 . S
O49 Mg45 2.072 . S
O49 C59 1.260 . S
Mg50 O51 2.180 . S
Mg50 O52 2.030 . S
Mg50 O53 1.990 . S
Mg50 O54 2.117 . S
O51 Mg45 2.099 . S
O51 Mg50 2.180 . S
O51 C60 1.279 . S
O52 Mg50 2.030 . S
O52 C58 1.248 . S
O53 Mg50 1.990 . S
O53 C59 1.253 . S
O54 Mg50 2.117 . S
O54 C60 1.250 . S
C55 O61 1.248 . S
C55 O62 1.264 . S
C56 O42 1.253 . S
C56 O44 1.260 . S
C57 O46 1.279 . S
C57 O47 1.250 . S
C58 O48 1.264 . S
C58 O52 1.248 . S
C59 O49 1.260 . S
C59 O53 1.253 . S
C60 O51 1.279 . S
C60 O54 1.250 . S
O61 Mg43 2.030 . S
O61 C55 1.248 . S
O62 Mg45 2.079 . S
O62 C55 1.264 . S
O63 Mg64 1.990 . S
O63 C77 1.253 . S
Mg64 O63 1.990 . S
Mg64 O67 2.180 1_556 S
Mg64 O68 2.117 . S
Mg64 O82 2.030 . S
O65 Mg66 2.072 1_556 S
O65 C77 1.260 . S
Mg66 O65 2.072 1_554 S
Mg66 O67 2.099 . S
Mg66 O69 2.079 . S
Mg66 O70 2.072 . S
Mg66 O72 2.099 . S
Mg66 O83 2.079 1_554 S
O67 Mg64 2.180 1_554 S
O67 Mg66 2.099 . S
O67 C78 1.279 . S
O68 Mg64 2.117 . S
O68 C78 1.250 1_556 S
O69 Mg66 2.079 . S
O69 C79 1.264 . S
O70 Mg66 2.072 . S
O70 C80 1.260 . S
Mg71 O72 2.180 . S
Mg71 O73 2.030 . S
Mg71 O74 1.990 . S
Mg71 O75 2.112 1_554 S
O72 Mg66 2.099 . S
O72 Mg71 2.180 . S
O72 C81 1.279 1_554 S
O73 Mg71 2.030 . S
O73 C79 1.248 . S
O74 Mg71 1.990 . S
O74 C80 1.253 . S
O75 Mg71 2.112 1_556 S
O75 C81 1.252 . S
C76 O82 1.248 . S
C76 O83 1.264 . S
C77 O63 1.253 . S
C77 O65 1.260 . S
C78 O67 1.279 . S
C78 O68 1.250 1_554 S
C79 O69 1.264 . S
C79 O73 1.248 . S
C80 O70 1.260 . S
C80 O74 1.253 . S
C81 O72 1.279 1_556 S
C81 O75 1.252 . S
O82 Mg64 2.030 . S
O82 C76 1.248 . S
O83 Mg66 2.079 1_556 S
O83 C76 1.264 . S
O84 Mg85 1.990 . S
O84 C98 1.253 . S
Mg85 O84 1.990 . S
Mg85 O88 2.180 . S
Mg85 O89 2.117 . S
Mg85 O103 2.030 . S
O86 Mg87 2.072 . S
O86 C98 1.260 . S
Mg87 O86 2.072 . S
Mg87 O88 2.099 . S
Mg87 O90 2.079 . S
Mg87 O91 2.072 . S
Mg87 O93 2.099 . S
Mg87 O104 2.079 . S
O88 Mg85 2.180 . S
O88 Mg87 2.099 . S
O88 C99 1.279 . S
O89 Mg85 2.117 . S
O89 C99 1.250 . S
O90 Mg87 2.079 . S
O90 C100 1.264 . S
O91 Mg87 2.072 . S
O91 C101 1.260 . S
Mg92 O93 2.180 . S
Mg92 O94 2.030 . S
Mg92 O95 1.990 . S
Mg92 O96 2.117 . S
O93 Mg87 2.099 . S
O93 Mg92 2.180 . S
O93 C102 1.279 . S
O94 Mg92 2.030 . S
O94 C100 1.248 . S
O95 Mg92 1.990 . S
O95 C101 1.253 . S
O96 Mg92 2.117 . S
O96 C102 1.250 . S
C97 O103 1.248 . S
C97 O104 1.264 . S
C98 O84 1.253 . S
C98 O86 1.260 . S
C99 O88 1.279 . S
C99 O89 1.250 . S
C100 O90 1.264 . S
C100 O94 1.248 . S
C101 O91 1.260 . S
C101 O95 1.253 . S
C102 O93 1.279 . S
C102 O96 1.250 . S
O103 Mg85 2.030 . S
O103 C97 1.248 . S
O104 Mg87 2.079 . S
O104 C97 1.264 . S
O105 Mg106 1.990 . S
O105 C119 1.253 . S
Mg106 O105 1.990 . S
Mg106 O109 2.180 . S
Mg106 O110 2.117 . S
Mg106 O124 2.030 . S
O107 Mg108 2.072 . S
O107 C119 1.260 . S
Mg108 O107 2.072 . S
Mg108 O109 2.099 . S
Mg108 O111 2.079 . S
Mg108 O112 2.072 . S
Mg108 O114 2.099 . S
Mg108 O125 2.079 . S
O109 Mg106 2.180 . S
O109 Mg108 2.099 . S
O109 C120 1.279 . S
O110 Mg106 2.117 . S
O110 C120 1.250 . S
O111 Mg108 2.079 . S
O111 C121 1.264 . S
O112 Mg108 2.072 . S
O112 C122 1.260 . S
Mg113 O114 2.180 . S
Mg113 O115 2.030 . S
Mg113 O116 1.990 . S
Mg113 O117 2.117 . S
O114 Mg108 2.099 . S
O114 Mg113 2.180 . S
O114 C123 1.279 . S
O115 Mg113 2.030 . S
O115 C121 1.248 . S
O116 Mg113 1.990 . S
O116 C122 1.253 . S
O117 Mg113 2.117 . S
O117 C123 1.250 . S
C118 O124 1.248 . S
C118 O125 1.264 . S
C119 O105 1.253 . S
C119 O107 1.260 . S
C120 O109 1.279 . S
C120 O110 1.250 . S
C121 O111 1.264 . S
C121 O115 1.248 . S
C122 O112 1.260 . S
C122 O116 1.253 . S
C123 O114 1.279 . S
C123 O117 1.250 . S
O124 Mg106 2.030 . S
O124 C118 1.248 . S
O125 Mg108 2.079 . S
O125 C118 1.264 . S
C126 C127 1.387 . S
C126 H130 0.950 . S
C126 C135 1.390 . S
C127 C126 1.387 . S
C127 C129 1.387 . S
H128 C135 0.950 . S
C129 C127 1.387 . S
C129 C131 1.390 . S
C129 H133 0.950 . S
H130 C126 0.950 . S
C131 C129 1.390 . S
C131 C132 1.387 . S
C131 H134 0.950 1_556 S
C132 C131 1.387 . S
C132 C135 1.387 . S
H133 C129 0.950 . S
H134 C131 0.950 1_554 S
C135 C126 1.390 . S
C135 H128 0.950 . S
C135 C132 1.387 . S
C136 C137 1.387 . S
C136 H140 0.950 1_554 S
C136 C145 1.390 1_455 S
C137 C136 1.387 . S
C137 C139 1.387 . S
H138 C145 0.950 . S
C139 C137 1.387 . S
C139 C141 1.390 . S
C139 H143 0.950 . S
H140 C136 0.950 1_556 S
C141 C139 1.390 . S
C141 C142 1.387 1_455 S
C141 H144 0.950 1_455 S
C142 C141 1.387 1_655 S
C142 C145 1.387 . S
H143 C139 0.950 . S
H144 C141 0.950 1_655 S
C145 C136 1.390 1_655 S
C145 H138 0.950 . S
C145 C142 1.387 . S
C146 C147 1.387 . S
C146 H150 0.950 . S
C146 C155 1.390 1_545 S
C147 C146 1.387 . S
C147 C149 1.387 . S
H148 C155 0.950 . S
C149 C147 1.387 . S
C149 C151 1.390 1_545 S
C149 H153 0.950 . S
H150 C146 0.950 . S
C151 C149 1.390 1_565 S
C151 C152 1.387 . S
C151 H154 0.950 . S
C152 C151 1.387 . S
C152 C155 1.387 . S
H153 C149 0.950 . S
H154 C151 0.950 . S
C155 C146 1.390 1_565 S
C155 H148 0.950 . S
C155 C152 1.387 . S
C156 C157 1.387 . S
C156 H160 0.950 . S
C156 C165 1.390 . S
C157 C156 1.387 . S
C157 C159 1.387 . S
H158 C165 0.950 1_554 S
C159 C157 1.387 . S
C159 C161 1.390 . S
C159 H163 0.950 . S
H160 C156 0.950 . S
C161 C159 1.390 . S
C161 C162 1.387 . S
C161 H164 0.950 . S
C162 C161 1.387 . S
C162 C165 1.387 . S
H163 C159 0.950 . S
H164 C161 0.950 . S
C165 C156 1.390 . S
C165 H158 0.950 1_556 S
C165 C162 1.387 . S
C166 C167 1.387 1_655 S
C166 H170 0.950 . S
C166 C175 1.390 . S
C167 C166 1.387 1_455 S
C167 C169 1.387 . S
H168 C175 0.950 . S
C169 C167 1.387 . S
C169 C171 1.390 1_455 S
C169 H173 0.950 . S
H170 C166 0.950 . S
C171 C169 1.390 1_655 S
C171 C172 1.387 . S
C171 H174 0.950 1_554 S
C172 C171 1.387 . S
C172 C175 1.387 . S
H173 C169 0.950 . S
H174 C171 0.950 1_556 S
C175 C166 1.390 . S
C175 H168 0.950 . S
C175 C172 1.387 . S
C176 C177 1.387 . S
C176 H180 0.950 . S
C176 C185 1.390 1_545 S
C177 C176 1.387 . S
C177 C179 1.387 . S
H178 C185 0.950 . S
C179 C177 1.387 . S
C179 C181 1.390 1_545 S
C179 H183 0.950 . S
H180 C176 0.950 . S
C181 C179 1.390 1_565 S
C181 C182 1.387 . S
C181 H184 0.950 . S
C182 C181 1.387 . S
C182 C185 1.387 . S
H183 C179 0.950 . S
H184 C181 0.950 . S
C185 C176 1.390 1_565 S
C185 H178 0.950 . S
C185 C182 1.387 . S
C186 C187 1.387 . S
C186 H190 0.950 . S
C186 C195 1.390 . S
C187 C186 1.387 . S
C187 C189 1.387 . S
H188 C195 0.950 . S
C189 C187 1.387 . S
C189 C191 1.390 . S
C189 H193 0.950 . S
H190 C186 0.950 . S
C191 C189 1.390 . S
C191 C192 1.387 . S
C191 H194 0.950 . S
C192 C191 1.387 . S
C192 C195 1.387 . S
H193 C189 0.950 . S
H194 C191 0.950 . S
C195 C186 1.390 . S
C195 H188 0.950 . S
C195 C192 1.387 . S
C196 C197 1.387 . S
C196 H200 0.950 . S
C196 C205 1.390 . S
C197 C196 1.387 . S
C197 C199 1.387 . S
H198 C205 0.950 . S
C199 C197 1.387 . S
C199 C201 1.390 . S
C199 H203 0.950 . S
H200 C196 0.950 . S
C201 C199 1.390 . S
C201 C202 1.387 . S
C201 H204 0.950 . S
C202 C201 1.387 . S
C202 C205 1.387 . S
H203 C199 0.950 . S
H204 C201 0.950 . S
C205 C196 1.390 . S
C205 H198 0.950 . S
C205 C202 1.387 . S
C206 C207 1.387 . S
C206 H210 0.950 . S
C206 C215 1.390 . S
C207 C206 1.387 . S
C207 C209 1.387 . S
H208 C215 0.950 . S
C209 C207 1.387 . S
C209 C211 1.390 . S
C209 H213 0.950 . S
H210 C206 0.950 . S
C211 C209 1.390 . S
C211 C212 1.387 . S
C211 H214 0.950 . S
C212 C211 1.387 . S
C212 C215 1.387 . S
H213 C209 0.950 . S
H214 C211 0.950 . S
C215 C206 1.390 . S
C215 H208 0.950 . S
C215 C212 1.387 . S
C216 C217 1.387 . S
C216 H220 0.950 . S
C216 C225 1.390 . S
C217 C216 1.387 . S
C217 C219 1.387 . S
H218 C225 0.950 . S
C219 C217 1.387 . S
C219 C221 1.390 . S
C219 H223 0.950 . S
H220 C216 0.950 . S
C221 C219 1.390 . S
C221 C222 1.387 . S
C221 H224 0.950 . S
C222 C221 1.387 . S
C222 C225 1.387 . S
H223 C219 0.950 . S
H224 C221 0.950 . S
C225 C216 1.390 . S
C225 H218 0.950 . S
C225 C222 1.387 . S
C226 C227 1.387 . S
C226 H230 0.950 . S
C226 C235 1.390 . S
C227 C226 1.387 . S
C227 C229 1.387 . S
H228 C235 0.950 . S
C229 C227 1.387 . S
C229 C231 1.390 . S
C229 H233 0.950 . S
H230 C226 0.950 . S
C231 C229 1.390 . S
C231 C232 1.387 . S
C231 H234 0.950 . S
C232 C231 1.387 . S
C232 C235 1.387 . S
H233 C229 0.950 . S
H234 C231 0.950 . S
C235 C226 1.390 . S
C235 H228 0.950 . S
C235 C232 1.387 . S
C236 C237 1.387 . S
C236 H240 0.950 . S
C236 C245 1.390 . S
C237 C236 1.387 . S
C237 C239 1.387 . S
H238 C245 0.950 . S
C239 C237 1.387 . S
C239 C241 1.390 . S
C239 H243 0.950 . S
H240 C236 0.950 . S
C241 C239 1.390 . S
C241 C242 1.387 . S
C241 H244 0.950 . S
C242 C241 1.387 . S
C242 C245 1.387 . S
H243 C239 0.950 . S
H244 C241 0.950 . S
C245 C236 1.390 . S
C245 H238 0.950 . S
C245 C242 1.387 . S
C246 C247 1.387 . S
C246 H250 0.950 . S
C246 C255 1.390 . S
C247 C246 1.387 . S
C247 C249 1.387 . S
H248 C255 0.950 . S
C249 C247 1.387 . S
C249 C251 1.390 . S
C249 H253 0.950 . S
H250 C246 0.950 . S
C251 C249 1.390 . S
C251 C252 1.387 . S
C251 H254 0.950 . S
C252 C251 1.387 . S
C252 C255 1.387 . S
H253 C249 0.950 . S
H254 C251 0.950 . S
C255 C246 1.390 . S
C255 H248 0.950 . S
C255 C252 1.387 . S
C256 C257 1.387 . S
C256 H260 0.950 . S
C256 C265 1.390 . S
C257 C256 1.387 . S
C257 C259 1.387 . S
H258 C265 0.950 . S
C259 C257 1.387 . S
C259 C261 1.390 . S
C259 H263 0.950 . S
H260 C256 0.950 . S
C261 C259 1.390 . S
C261 C262 1.387 . S
C261 H264 0.950 . S
C262 C261 1.387 . S
C262 C265 1.387 . S
H263 C259 0.950 . S
H264 C261 0.950 . S
C265 C256 1.390 . S
C265 H258 0.950 . S
C265 C262 1.387 . S
C266 C267 1.387 . S
C266 H270 0.950 1_556 S
C266 C275 1.390 . S
C267 C266 1.387 . S
C267 C269 1.387 . S
H268 C275 0.950 . S
C269 C267 1.387 . S
C269 C271 1.390 . S
C269 H273 0.950 . S
H270 C266 0.950 1_554 S
C271 C269 1.390 . S
C271 C272 1.387 . S
C271 H274 0.950 . S
C272 C271 1.387 . S
C272 C275 1.387 . S
H273 C269 0.950 . S
H274 C271 0.950 . S
C275 C266 1.390 . S
C275 H268 0.950 . S
C275 C272 1.387 . S
C276 C277 1.387 . S
C276 H280 0.950 . S
C276 C285 1.390 . S
C277 C276 1.387 . S
C277 C279 1.387 . S
H278 C285 0.950 . S
C279 C277 1.387 . S
C279 C281 1.390 . S
C279 H283 0.950 . S
H280 C276 0.950 . S
C281 C279 1.390 . S
C281 C282 1.387 . S
C281 H284 0.950 1_554 S
C282 C281 1.387 . S
C282 C285 1.387 . S
H283 C279 0.950 . S
H284 C281 0.950 1_556 S
C285 C276 1.390 . S
C285 H278 0.950 . S
C285 C282 1.387 . S
C286 C287 1.387 . S
C286 H290 0.950 . S
C286 C295 1.390 . S
C287 C286 1.387 . S
C287 C289 1.387 . S
H288 C295 0.950 . S
C289 C287 1.387 . S
C289 C291 1.390 . S
C289 H293 0.950 . S
H290 C286 0.950 . S
C291 C289 1.390 . S
C291 C292 1.387 . S
C291 H294 0.950 . S
C292 C291 1.387 . S
C292 C295 1.387 . S
H293 C289 0.950 . S
H294 C291 0.950 . S
C295 C286 1.390 . S
C295 H288 0.950 . S
C295 C292 1.387 . S
C296 C297 1.387 . S
C296 H300 0.950 . S
C296 C305 1.390 . S
C297 C296 1.387 . S
C297 C299 1.387 . S
H298 C305 0.950 . S
C299 C297 1.387 . S
C299 C301 1.390 . S
C299 H303 0.950 1_556 S
H300 C296 0.950 . S
C301 C299 1.390 . S
C301 C302 1.387 . S
C301 H304 0.950 . S
C302 C301 1.387 . S
C302 C305 1.387 . S
H303 C299 0.950 1_554 S
H304 C301 0.950 . S
C305 C296 1.390 . S
C305 H298 0.950 . S
C305 C302 1.387 . S
C127 C120 1.409 . S
C132 C13 1.472 . S
C137 C15 1.407 . S
C142 C34 1.473 . S
C147 C36 1.406 . S
C152 C55 1.474 . S
C157 C57 1.405 . S
C162 C76 1.474 . S
C167 C97 1.473 . S
C172 C78 1.407 . S
C177 C118 1.472 . S
C182 C99 1.409 . S
C187 C14 1.301 . S
C192 C16 1.282 . S
C197 C35 1.301 1_556 S
C202 C37 1.283 . S
C207 C56 1.299 . S
C212 C58 1.280 1_554 S
C217 C77 1.301 . S
C222 C79 1.282 . S
C227 C100 1.279 . S
C232 C98 1.299 1_556 S
C237 C119 1.301 . S
C242 C121 1.281 1_554 S
C247 C17 1.375 . S
C252 C102 1.263 . S
C257 C38 1.374 . S
C262 C123 1.264 . S
C267 C18 1.265 . S
C272 C59 1.376 . S
C277 C39 1.264 . S
C282 C80 1.376 . S
C287 C101 1.374 . S
C292 C60 1.264 . S
C297 C81 1.267 . S
C302 C122 1.371 . S
