# Generated by pormake.
# Topology usf, (4)-cn, num edge types: 1
# Building blocks:
#     Node 0, Type 0, BuildingBlock: MUDLON_clean_sbu_0, # of connection points: 4
#     Node 1, Type 0, BuildingBlock: MUDLON_clean_sbu_0, # of connection points: 4
#     Node 2, Type 0, BuildingBlock: MUDLON_clean_sbu_0, # of connection points: 4
#     Node 3, Type 0, BuildingBlock: MUDLON_clean_sbu_0, # of connection points: 4
#     Node 4, Type 0, BuildingBlock: MUDLON_clean_sbu_0, # of connection points: 4
#     Node 5, Type 0, BuildingBlock: MUDLON_clean_sbu_0, # of connection points: 4
#     Node 6, Type 0, BuildingBlock: MUDLON_clean_sbu_0, # of connection points: 4
#     Node 7, Type 0, BuildingBlock: MUDLON_clean_sbu_0, # of connection points: 4
#     Node 8, Type 0, BuildingBlock: MUDLON_clean_sbu_0, # of connection points: 4
#     Node 9, Type 0, BuildingBlock: MUDLON_clean_sbu_0, # of connection points: 4
#     Node 10, Type 0, BuildingBlock: MUDLON_clean_sbu_0, # of connection points: 4
#     Node 11, Type 0, BuildingBlock: MUDLON_clean_sbu_0, # of connection points: 4
#     Node 12, Type 0, BuildingBlock: MUDLON_clean_sbu_0, # of connection points: 4
#     Node 13, Type 0, BuildingBlock: MUDLON_clean_sbu_0, # of connection points: 4
#     Node 14, Type 0, BuildingBlock: MUDLON_clean_sbu_0, # of connection points: 4
#     Node 15, Type 0, BuildingBlock: MUDLON_clean_sbu_0, # of connection points: 4
#     Node 16, Type 0, BuildingBlock: MUDLON_clean_sbu_0, # of connection points: 4
#     Node 17, Type 0, BuildingBlock: MUDLON_clean_sbu_0, # of connection points: 4
#     Edge 18, Type (0, 0), BuildingBlock: XUDNAN_clean_linker_2, # of connection points: 2
#     Edge 19, Type (0, 0), BuildingBlock: XUDNAN_clean_linker_2, # of connection points: 2
#     Edge 20, Type (0, 0), BuildingBlock: XUDNAN_clean_linker_2, # of connection points: 2
#     Edge 21, Type (0, 0), BuildingBlock: XUDNAN_clean_linker_2, # of connection points: 2
#     Edge 22, Type (0, 0), BuildingBlock: XUDNAN_clean_linker_2, # of connection points: 2
#     Edge 23, Type (0, 0), BuildingBlock: XUDNAN_clean_linker_2, # of connection points: 2
#     Edge 24, Type (0, 0), BuildingBlock: XUDNAN_clean_linker_2, # of connection points: 2
#     Edge 25, Type (0, 0), BuildingBlock: XUDNAN_clean_linker_2, # of connection points: 2
#     Edge 26, Type (0, 0), BuildingBlock: XUDNAN_clean_linker_2, # of connection points: 2
#     Edge 27, Type (0, 0), BuildingBlock: XUDNAN_clean_linker_2, # of connection points: 2
#     Edge 28, Type (0, 0), BuildingBlock: XUDNAN_clean_linker_2, # of connection points: 2
#     Edge 29, Type (0, 0), BuildingBlock: XUDNAN_clean_linker_2, # of connection points: 2
#     Edge 30, Type (0, 0), BuildingBlock: XUDNAN_clean_linker_2, # of connection points: 2
#     Edge 31, Type (0, 0), BuildingBlock: XUDNAN_clean_linker_2, # of connection points: 2
#     Edge 32, Type (0, 0), BuildingBlock: XUDNAN_clean_linker_2, # of connection points: 2
#     Edge 33, Type (0, 0), BuildingBlock: XUDNAN_clean_linker_2, # of connection points: 2
#     Edge 34, Type (0, 0), BuildingBlock: XUDNAN_clean_linker_2, # of connection points: 2
#     Edge 35, Type (0, 0), BuildingBlock: XUDNAN_clean_linker_2, # of connection points: 2
#     Edge 36, Type (0, 0), BuildingBlock: XUDNAN_clean_linker_2, # of connection points: 2
#     Edge 37, Type (0, 0), BuildingBlock: XUDNAN_clean_linker_2, # of connection points: 2
#     Edge 38, Type (0, 0), BuildingBlock: XUDNAN_clean_linker_2, # of connection points: 2
#     Edge 39, Type (0, 0), BuildingBlock: XUDNAN_clean_linker_2, # of connection points: 2
#     Edge 40, Type (0, 0), BuildingBlock: XUDNAN_clean_linker_2, # of connection points: 2
#     Edge 41, Type (0, 0), BuildingBlock: XUDNAN_clean_linker_2, # of connection points: 2
#     Edge 42, Type (0, 0), BuildingBlock: XUDNAN_clean_linker_2, # of connection points: 2
#     Edge 43, Type (0, 0), BuildingBlock: XUDNAN_clean_linker_2, # of connection points: 2
#     Edge 44, Type (0, 0), BuildingBlock: XUDNAN_clean_linker_2, # of connection points: 2
#     Edge 45, Type (0, 0), BuildingBlock: XUDNAN_clean_linker_2, # of connection points: 2
#     Edge 46, Type (0, 0), BuildingBlock: XUDNAN_clean_linker_2, # of connection points: 2
#     Edge 47, Type (0, 0), BuildingBlock: XUDNAN_clean_linker_2, # of connection points: 2
#     Edge 48, Type (0, 0), BuildingBlock: XUDNAN_clean_linker_2, # of connection points: 2
#     Edge 49, Type (0, 0), BuildingBlock: XUDNAN_clean_linker_2, # of connection points: 2
#     Edge 50, Type (0, 0), BuildingBlock: XUDNAN_clean_linker_2, # of connection points: 2
#     Edge 51, Type (0, 0), BuildingBlock: XUDNAN_clean_linker_2, # of connection points: 2
#     Edge 52, Type (0, 0), BuildingBlock: XUDNAN_clean_linker_2, # of connection points: 2
#     Edge 53, Type (0, 0), BuildingBlock: XUDNAN_clean_linker_2, # of connection points: 2
# Relax obj value: 0.161
# Max RMSD: 0.154
# Mean RMSD: 0.149
data_MOF--net-usf--node1-MUDLON_clean_sbu_0--edge1-XUDNAN_clean_linker_2
_symmetry_space_group_name_H-M    P1
_symmetry_Int_Tables_number       1
_symmetry_cell_setting            triclinic
loop_
_symmetry_equiv_pos_as_xyz
'x, y, z'
_cell_length_a     50.084064
_cell_length_b     50.016776
_cell_length_c     29.129935
_cell_angle_alpha  90.178382
_cell_angle_beta   90.153126
_cell_angle_gamma 120.21406
loop_
_atom_site_label
_atom_site_type_symbol
_atom_site_fract_x
_atom_site_fract_y
_atom_site_fract_z
_atom_type_partial_charge
Mg0 Mg 0.03265 0.54264 0.9928 0.0
C1 C 0.06813 0.51524 0.94849 0.0
O2 O 0.07459 0.5384 0.92087 0.0
C3 C 0.97667 0.54808 0.00772 0.0
O4 O 0.99226 0.57006 0.97782 0.0
C5 C 1.01859 0.54764 0.89859 0.0
O6 O 1.00231 0.51821 0.90945 0.0
O7 O 0.03687 0.56663 0.92862 0.0
O8 O 0.0491 0.50962 0.9812 0.0
O9 O 0.05675 0.5672 0.05493 0.0
C10 C 0.04352 0.54829 0.08776 0.0
O11 O 1.022 0.5198 0.07777 0.0
O12 O 0.98586 0.52905 0.0169 0.0
Mg13 Mg 0.49552 0.57617 0.06312 0.0
C14 C 0.54744 0.64024 0.05241 0.0
O15 O 0.52645 0.64348 0.07465 0.0
C16 C 0.45149 0.51152 0.07698 0.0
O17 O 0.43641 0.52664 0.07334 0.0
C18 C 0.48849 0.57494 0.96782 0.0
O19 O 0.5113 0.57021 0.97841 0.0
O20 O 0.47267 0.57722 1.00013 0.0
O21 O 0.54274 0.61295 0.04578 0.0
O22 O 0.48426 0.58902 0.12857 0.0
C23 C 0.50491 0.59413 0.15847 0.0
O24 O 0.5295 0.59319 0.14528 0.0
O25 O 0.48084 0.52693 0.07287 0.0
Mg26 Mg 0.54727 0.02497 0.02236 0.0
C27 C 0.57697 0.0702 0.93861 0.0
O28 O 0.59207 0.09235 0.96892 0.0
C29 C 0.52945 0.05831 0.09624 0.0
O30 O 0.5015 0.04249 0.07871 0.0
C31 C 0.49027 0.96442 0.98864 0.0
O32 O 0.51117 0.96379 0.96222 0.0
O33 O 0.49904 0.98582 0.01878 0.0
O34 O 0.55807 0.04294 0.95229 0.0
O35 O 0.58526 0.01763 0.04342 0.0
C36 C 0.59048 0.018 0.08634 0.0
O37 O 0.56919 1.01553 0.11507 0.0
O38 O 0.55157 0.05711 0.07698 0.0
Mg39 Mg 0.55597 0.05897 0.51094 0.0
C40 C 0.5847 0.02224 0.48834 0.0
O41 O 0.60658 0.05149 0.48886 0.0
C42 C 0.50625 0.05752 0.57471 0.0
O43 O 0.5178 0.04583 0.60352 0.0
C44 C 0.55282 0.09341 0.42717 0.0
O45 O 0.53317 0.09592 0.45404 0.0
O46 O 0.56847 0.08197 0.44364 0.0
O47 O 0.55718 1.01592 0.49742 0.0
O48 O 0.58579 0.08074 0.57121 0.0
C49 C 0.58319 0.06135 0.60173 0.0
O50 O 0.56804 0.03181 0.5909 0.0
O51 O 0.51447 0.06061 0.53276 0.0
Mg52 Mg 0.02852 0.55003 0.51587 0.0
C53 C 0.06066 0.61543 0.48666 0.0
O54 O 0.03809 0.60084 0.45691 0.0
C55 C 1.00994 0.48701 0.54874 0.0
O56 O 0.98438 0.48514 0.53329 0.0
C57 C 0.04904 0.5507 0.42362 0.0
O58 O 0.0733 0.56021 0.45054 0.0
O59 O 1.02277 0.54125 0.44212 0.0
O60 O 0.06397 0.59989 0.51872 0.0
O61 O 0.99114 0.54696 0.55759 0.0
C62 C 0.99318 0.57151 0.57413 0.0
O63 O 1.00904 0.59746 0.55147 0.0
O64 O 0.03501 0.51311 0.5461 0.0
Mg65 Mg 0.52087 0.5386 0.5586 0.0
C66 C 0.45864 0.47923 0.55286 0.0
O67 O 0.4542 0.49259 0.58857 0.0
C68 C 0.59065 0.57548 0.56799 0.0
O69 O 0.58468 0.59435 0.54472 0.0
C70 C 0.49868 0.56642 0.48802 0.0
O71 O 0.474 0.55204 0.51389 0.0
O72 O 0.52311 0.56643 0.50008 0.0
O73 O 0.48562 0.49172 0.53541 0.0
O74 O 0.5019 0.55026 0.61734 0.0
C75 C 0.51895 0.5726 0.64402 0.0
O76 O 0.54848 0.58985 0.63471 0.0
O77 O 0.56813 0.54868 0.57773 0.0
Mg78 Mg 0.72552 0.8768 0.38132 0.0
C79 C 0.6917 0.90779 0.41016 0.0
O80 O 0.7213 0.92812 0.41449 0.0
C81 C 0.75141 0.84113 0.3439 0.0
O82 O 0.77385 0.86986 0.34952 0.0
C83 C 0.74285 0.86603 0.47328 0.0
O84 O 0.72054 0.83845 0.46079 0.0
O85 O 0.75133 0.88833 0.44537 0.0
O86 O 0.68416 0.88071 0.39583 0.0
O87 O 0.75106 0.90974 0.32728 0.0
C88 C 0.73647 0.9165 0.29815 0.0
O89 O 0.70695 0.9063 0.30466 0.0
O90 O 0.7242 0.83437 0.35591 0.0
Mg91 Mg 0.18361 0.8981 0.37495 0.0
C92 C 0.16615 0.88723 0.28048 0.0
O93 O 0.14352 0.88656 0.30418 0.0
C94 C 0.20865 0.91177 0.46547 0.0
O95 O 0.18314 0.91318 0.46509 0.0
C96 C 0.20546 0.96434 0.37019 0.0
O97 O 0.23024 0.96197 0.37575 0.0
O98 O 0.17916 0.93963 0.37148 0.0
O99 O 0.18998 0.89127 0.30238 0.0
O100 O 0.14678 0.85377 0.40168 0.0
C101 C 0.14719 0.83007 0.38634 0.0
O102 O 0.16564 0.83366 0.352 0.0
O103 O 0.21835 0.90731 0.4274 0.0
Mg104 Mg 0.19414 0.33886 0.37898 0.0
C105 C 0.20473 0.35126 0.28054 0.0
O106 O 0.21463 0.33188 0.28874 0.0
C107 C 0.16127 0.35857 0.45243 0.0
O108 O 0.13845 0.34999 0.42295 0.0
C109 C 0.1294 0.28188 0.39113 0.0
O110 O 0.13363 0.28991 0.43466 0.0
O111 O 0.15235 0.2946 0.36399 0.0
O112 O 0.1966 0.36169 0.31439 0.0
O113 O 0.23945 0.3427 0.39215 0.0
C114 C 0.24944 0.34708 0.43345 0.0
O115 O 0.2305 0.34427 0.46662 0.0
O116 O 0.18547 0.35819 0.44042 0.0
Mg117 Mg 0.21834 0.38056 0.86392 0.0
C118 C 0.2041 0.43406 0.86093 0.0
O119 O 0.19956 0.42763 0.81688 0.0
C120 C 0.27484 0.37123 0.87206 0.0
O121 O 0.26525 0.36414 0.91459 0.0
C122 C 0.17893 0.35639 0.9466 0.0
O123 O 0.16509 0.36868 0.92387 0.0
O124 O 0.19995 0.35365 0.92643 0.0
O125 O 0.2168 0.42214 0.88483 0.0
O126 O 0.19187 0.36327 0.80055 0.0
C127 C 0.16565 0.35953 0.78923 0.0
O128 O 0.14857 0.36289 0.82027 0.0
O129 O 0.26163 0.38144 0.84573 0.0
Mg130 Mg 0.73746 0.90404 0.8781 0.0
C131 C 0.75302 0.87354 0.80262 0.0
O132 O 0.72498 0.85127 0.81251 0.0
C133 C 0.75003 0.93447 0.97002 0.0
O134 O 0.72729 0.93799 0.95482 0.0
C135 C 0.72406 0.95841 0.84488 0.0
O136 O 0.70334 0.95216 0.87689 0.0
O137 O 0.73676 0.94194 0.84114 0.0
O138 O 0.76596 0.89702 0.82902 0.0
O139 O 0.69594 0.85818 0.88909 0.0
C140 C 0.68635 0.84798 0.92937 0.0
O141 O 0.69871 0.86677 0.96458 0.0
O142 O 0.76049 0.9214 0.94405 0.0
Mg143 Mg 0.20604 0.84388 0.87355 0.0
C144 C 0.23664 0.86869 0.7831 0.0
O145 O 0.25046 0.85375 0.79712 0.0
C146 C 0.1742 0.86203 0.94636 0.0
O147 O 0.15024 0.84645 0.91914 0.0
C148 C 0.14512 0.79495 0.82526 0.0
O149 O 0.16041 0.80929 0.78817 0.0
O150 O 0.15927 0.80233 0.86395 0.0
O151 O 0.21697 0.8699 0.8094 0.0
O152 O 0.24835 0.8426 0.8929 0.0
C153 C 0.26921 0.86796 0.91106 0.0
O154 O 0.26308 0.89039 0.9167 0.0
O155 O 0.20044 0.86663 0.93377 0.0
Mg156 Mg 0.37644 0.21089 0.69373 0.0
C157 C 0.36555 0.26338 0.71302 0.0
O158 O 0.34464 0.24731 0.68155 0.0
C159 C 0.4245 0.19485 0.6551 0.0
O160 O 0.42121 0.20725 0.61738 0.0
C161 C 0.34766 0.16297 0.76782 0.0
O162 O 0.36915 0.15689 0.7549 0.0
O163 O 0.34237 0.18074 0.74314 0.0
O164 O 0.38547 0.25546 0.72306 0.0
O165 O 0.35939 0.20644 0.62398 0.0
C166 C 0.3533 0.18287 0.59966 0.0
O167 O 0.35379 0.15942 0.619 0.0
O168 O 0.41188 0.19687 0.692 0.0
Mg169 Mg 0.91552 0.20923 0.66264 0.0
C170 C 0.90833 0.18215 0.56781 0.0
O171 O 0.8816 0.18061 0.57387 0.0
C172 C 0.92195 0.20624 0.76276 0.0
O173 O 0.89995 0.21299 0.75728 0.0
C174 C 0.95763 0.27808 0.65435 0.0
O175 O 0.97657 0.2681 0.66538 0.0
O176 O 0.92881 0.25829 0.65151 0.0
O177 O 0.92823 0.19314 0.60024 0.0
O178 O 0.86695 0.1751 0.67696 0.0
C179 C 0.86284 0.14782 0.67956 0.0
O180 O 0.88611 0.14381 0.66913 0.0
O181 O 0.93593 0.20477 0.7271 0.0
Mg182 Mg 0.85249 0.63349 0.73264 0.0
C183 C 0.83205 0.5875 0.65363 0.0
O184 O 0.80845 0.57154 0.68088 0.0
C185 C 0.82829 0.61719 0.82574 0.0
O186 O 0.83108 0.64435 0.81788 0.0
C187 C 0.78769 0.62178 0.71683 0.0
O188 O 0.78244 0.59695 0.73949 0.0
O189 O 0.81571 0.64357 0.712 0.0
O190 O 0.85545 0.61186 0.66919 0.0
O191 O 0.89959 0.67096 0.75336 0.0
C192 C 0.92419 0.67366 0.73564 0.0
O193 O 0.92159 0.65606 0.70037 0.0
O194 O 0.83541 0.60451 0.79376 0.0
Mg195 Mg 0.81137 0.62773 0.22884 0.0
C196 C 0.7888 0.67131 0.25814 0.0
O197 O 0.76638 0.64488 0.27369 0.0
C198 C 0.86276 0.63178 0.16874 0.0
O199 O 0.84902 0.64001 0.13806 0.0
C200 C 0.82076 0.61675 0.32418 0.0
O201 O 0.84617 0.64215 0.31248 0.0
O202 O 0.79925 0.60366 0.29443 0.0
O203 O 0.81144 0.67157 0.2376 0.0
O204 O 0.78374 0.60299 0.16893 0.0
C205 C 0.78618 0.58049 0.15337 0.0
O206 O 0.79824 0.56815 0.18009 0.0
O207 O 0.85479 0.62988 0.21064 0.0
Mg208 Mg 0.33132 0.2244 0.18464 0.0
C209 C 0.32645 0.20901 0.08544 0.0
O210 O 0.31084 0.22362 0.08798 0.0
C211 C 0.35698 0.23885 0.277 0.0
O212 O 0.33958 0.25159 0.2752 0.0
C213 C 0.36485 0.29191 0.16254 0.0
O214 O 0.38725 0.28549 0.16433 0.0
O215 O 0.3373 0.27028 0.17068 0.0
O216 O 0.33917 0.2063 0.12159 0.0
O217 O 0.2884 0.18631 0.21324 0.0
C218 C 0.29403 0.16516 0.22561 0.0
O219 O 0.32123 0.16868 0.21595 0.0
O220 O 0.3622 0.22881 0.23995 0.0
Mg221 Mg 0.88083 0.14674 0.18 0.0
C222 C 0.91476 0.14683 0.08723 0.0
O223 O 0.93027 0.13675 0.11088 0.0
C224 C 0.91328 0.12632 0.24609 0.0
O225 O 0.93765 0.14309 0.22059 0.0
C226 C 0.81455 0.11693 0.14511 0.0
O227 O 0.82829 0.11458 0.10824 0.0
O228 O 0.83096 0.13066 0.18047 0.0
O229 O 0.89496 0.1515 0.10752 0.0
O230 O 0.91149 0.18943 0.21751 0.0
C231 C 0.93985 0.20372 0.20598 0.0
O232 O 0.94712 0.19812 0.1652 0.0
O233 O 0.88661 0.11685 0.22864 0.0
H234 H 1.00584 0.52397 0.35427 0.0
H235 H 0.10281 0.58952 0.38003 0.0
H236 H 0.11136 0.5996 0.29711 0.0
H237 H 1.01793 0.49098 0.25406 0.0
H238 H 0.98389 0.48571 0.22462 0.0
H239 H 0.98492 0.48556 0.28636 0.0
H240 H 0.97167 0.52943 0.28849 0.0
H241 H 0.97088 0.52989 0.22665 0.0
H242 H 0.99578 0.56491 0.25809 0.0
H243 H 0.10969 0.60205 0.21052 0.0
H244 H 0.09841 0.59241 0.12706 0.0
H245 H 1.00354 0.52388 0.15837 0.0
C246 C 0.02879 0.54057 0.34242 0.0
C247 C 0.05362 0.55591 0.3736 0.0
C248 C 0.08343 0.57728 0.35675 0.0
C249 C 0.08851 0.58339 0.3097 0.0
C250 C 0.06361 0.56783 0.27977 0.0
C251 C 0.03439 0.54665 0.2954 0.0
C252 C 1.01206 0.53159 0.25582 0.0
C253 C 0.99894 0.49638 0.25519 0.0
C254 C 0.98606 0.53944 0.25737 0.0
C255 C 0.03341 0.54717 0.21567 0.0
C256 C 0.06292 0.56846 0.23005 0.0
C257 C 0.08663 0.58545 0.19881 0.0
C258 C 0.08006 0.57996 0.15159 0.0
C259 C 0.05025 0.55731 0.1365 0.0
C260 C 0.02665 0.54119 0.16902 0.0
H261 H 0.5426 0.58931 0.42057 0.0
H262 H 0.44929 0.56839 0.45107 0.0
H263 H 0.44288 0.58016 0.37093 0.0
H264 H 0.56083 0.65186 0.33492 0.0
H265 H 0.58218 0.63948 0.29968 0.0
H266 H 0.58113 0.63453 0.36105 0.0
H267 H 0.5607 0.57595 0.34954 0.0
H268 H 0.56152 0.58066 0.28835 0.0
H269 H 0.52611 0.55312 0.31603 0.0
H270 H 0.44416 0.5871 0.28484 0.0
H271 H 0.45338 0.58882 0.20113 0.0
H272 H 0.54578 0.60536 0.22794 0.0
C273 C 0.52113 0.58808 0.41083 0.0
C274 C 0.49651 0.57805 0.44222 0.0
C275 C 0.46857 0.57617 0.42774 0.0
C276 C 0.46471 0.58288 0.38225 0.0
C277 C 0.48911 0.59172 0.35175 0.0
C278 C 0.51689 0.59462 0.36561 0.0
C279 C 0.53845 0.60159 0.32541 0.0
C280 C 0.56736 0.63378 0.33058 0.0
C281 C 0.54718 0.57632 0.3195 0.0
C282 C 0.51802 0.60091 0.28653 0.0
C283 C 0.48981 0.59566 0.30232 0.0
C284 C 0.46639 0.59179 0.27216 0.0
C285 C 0.4718 0.59278 0.22467 0.0
C286 C 0.50031 0.59732 0.20795 0.0
C287 C 0.52382 0.60212 0.23951 0.0
H288 H 0.57033 0.06302 0.16287 0.0
H289 H 0.49775 0.08396 0.13495 0.0
H290 H 0.50146 0.1022 0.21508 0.0
H291 H 0.54204 0.03018 0.26971 0.0
H292 H 0.57926 0.04378 0.29626 0.0
H293 H 0.5749 0.03772 0.23517 0.0
H294 H 0.61831 0.09424 0.22211 0.0
H295 H 0.62282 0.1006 0.28328 0.0
H296 H 0.6153 0.1255 0.24765 0.0
H297 H 0.51007 0.11414 0.2993 0.0
H298 H 0.519 0.11441 0.38245 0.0
H299 H 0.58346 0.08197 0.3576 0.0
C300 C 0.55584 0.07228 0.17324 0.0
C301 C 0.53412 0.07265 0.14241 0.0
C302 C 0.5148 0.08387 0.15782 0.0
C303 C 0.51683 0.09434 0.20322 0.0
C304 C 0.53803 0.09305 0.23303 0.0
C305 C 0.55704 0.08207 0.21877 0.0
C306 C 0.57504 0.07947 0.25888 0.0
C307 C 0.56733 0.04579 0.26538 0.0
C308 C 0.60994 0.10126 0.25259 0.0
C309 C 0.56273 0.09013 0.29816 0.0
C310 C 0.54192 0.09848 0.28225 0.0
C311 C 0.52648 0.10787 0.31207 0.0
C312 C 0.53176 0.10794 0.3594 0.0
C313 C 0.55197 0.09824 0.37685 0.0
C314 C 0.56815 0.08987 0.34552 0.0
H315 H 0.971 0.52386 0.6357 0.0
H316 H 1.00829 0.62303 0.62648 0.0
H317 H 1.01538 0.62756 0.71051 0.0
H318 H 0.93263 0.51313 0.75058 0.0
H319 H 0.9426 0.48447 0.76676 0.0
H320 H 0.93507 0.48855 0.70741 0.0
H321 H 0.98851 0.49595 0.68577 0.0
H322 H 0.99661 0.49271 0.74499 0.0
H323 H 1.02283 0.52654 0.71275 0.0
H324 H 0.02727 0.62245 0.79361 0.0
H325 H 0.03644 0.60678 0.87007 0.0
H326 H 0.99099 0.51124 0.82384 0.0
C327 C 0.97955 0.5464 0.6514 0.0
C328 C 0.98915 0.57306 0.62432 0.0
C329 C 1.00064 0.60218 0.64638 0.0
C330 C 1.0049 0.60504 0.69418 0.0
C331 C 0.99711 0.57853 0.7195 0.0
C332 C 0.98397 0.54965 0.69895 0.0
C333 C 0.97993 0.52511 0.73297 0.0
C334 C 0.94551 0.50142 0.73984 0.0
C335 C 0.99806 0.50917 0.71822 0.0
C336 C 0.9939 0.54484 0.77543 0.0
C337 C 1.00358 0.57557 0.76723 0.0
C338 C 1.01918 0.59834 0.80069 0.0
C339 C 0.02454 0.5893 0.84383 0.0
C340 C 1.01427 0.55781 0.85295 0.0
C341 C 0.99878 0.53546 0.81816 0.0
H342 H 0.55178 0.60776 0.71756 0.0
H343 H 0.45821 0.54516 0.67058 0.0
H344 H 0.43852 0.54656 0.74777 0.0
H345 H 0.54458 0.57233 0.81952 0.0
H346 H 0.56877 0.60698 0.85225 0.0
H347 H 0.57453 0.60632 0.79157 0.0
H348 H 0.56771 0.65404 0.78136 0.0
H349 H 0.56184 0.65475 0.8423 0.0
H350 H 0.53329 0.65278 0.80247 0.0
H351 H 0.42991 0.54911 0.83321 0.0
H352 H 0.43417 0.54984 0.91833 0.0
H353 H 0.53333 0.60913 0.90802 0.0
C354 C 0.52705 0.59514 0.723 0.0
C355 C 0.50653 0.57658 0.68796 0.0
C356 C 0.47437 0.55972 0.6969 0.0
C357 C 0.46295 0.5605 0.74059 0.0
C358 C 0.48396 0.57835 0.77489 0.0
C359 C 0.51537 0.59543 0.7664 0.0
C360 C 0.53361 0.60932 0.81006 0.0
C361 C 0.5567 0.59804 0.81885 0.0
C362 C 0.55008 0.64483 0.80896 0.0
C363 C 0.50775 0.59628 0.84471 0.0
C364 C 0.47913 0.57915 0.82393 0.0
C365 C 0.45214 0.56296 0.84978 0.0
C366 C 0.45467 0.56356 0.89799 0.0
C367 C 0.48403 0.57969 0.91928 0.0
C368 C 0.5106 0.5969 0.89233 0.0
H369 H 0.55755 0.02752 0.86897 0.0
H370 H 0.6098 0.12642 0.89491 0.0
H371 H 0.61947 0.13571 0.81147 0.0
H372 H 0.60616 0.02636 0.77942 0.0
H373 H 0.5743 0.99667 0.74686 0.0
H374 H 0.5716 0.9982 0.80834 0.0
H375 H 0.52134 1.0007 0.79984 0.0
H376 H 0.52377 0.99892 0.73838 0.0
H377 H 0.52151 0.03038 0.76467 0.0
H378 H 0.62126 0.1336 0.72299 0.0
H379 H 0.61559 0.12009 0.64004 0.0
H380 H 0.56461 0.02269 0.6752 0.0
C381 C 0.57101 0.05119 0.85727 0.0
C382 C 0.58279 0.07625 0.88861 0.0
C383 C 0.60048 0.10682 0.87162 0.0
C384 C 0.60611 0.11232 0.82425 0.0
C385 C 0.59417 0.087 0.79433 0.0
C386 C 0.57709 0.05704 0.8104 0.0
C387 C 0.56674 0.03371 0.77164 0.0
C388 C 0.58054 1.01249 0.77689 0.0
C389 C 0.53124 1.01483 0.76845 0.0
C390 C 0.58049 0.0551 0.73106 0.0
C391 C 0.59612 0.0858 0.7445 0.0
C392 C 0.60935 0.1096 0.71225 0.0
C393 C 0.60611 0.10174 0.6652 0.0
C394 C 0.59003 0.07035 0.65093 0.0
C395 C 0.57754 0.04693 0.68466 0.0
H396 H 0.73015 0.8281 0.73726 0.0
H397 H 0.80153 0.92352 0.76083 0.0
H398 H 0.81223 0.92995 0.67775 0.0
H399 H 0.7682 0.81308 0.63553 0.0
H400 H 0.7312 0.78967 0.60804 0.0
H401 H 0.73417 0.7907 0.66979 0.0
H402 H 0.69256 0.80686 0.6745 0.0
H403 H 0.68979 0.8064 0.61302 0.0
H404 H 0.69863 0.84098 0.64458 0.0
H405 H 0.80769 0.92899 0.59154 0.0
H406 H 0.79069 0.91947 0.51035 0.0
H407 H 0.72279 0.82459 0.54359 0.0
C408 C 0.74889 0.85 0.72522 0.0
C409 C 0.76502 0.87525 0.75563 0.0
C410 C 0.78903 0.9037 0.73834 0.0
C411 C 0.79524 0.90761 0.69109 0.0
C412 C 0.77765 0.8827 0.66172 0.0
C413 C 0.75537 0.85423 0.67828 0.0
C414 C 0.73729 0.83219 0.63954 0.0
C415 C 0.74308 0.80479 0.63814 0.0
C416 C 0.70254 0.82098 0.64315 0.0
C417 C 0.7517 0.85317 0.59871 0.0
C418 C 0.77525 0.88209 0.61201 0.0
C419 C 0.78983 0.90619 0.58061 0.0
C420 C 0.77993 0.90063 0.5346 0.0
C421 C 0.75555 0.87124 0.52053 0.0
C422 C 0.7418 0.84717 0.55302 0.0
H423 H 0.20379 0.89035 0.73572 0.0
H424 H 0.28011 0.87312 0.72215 0.0
H425 H 0.28494 0.88734 0.64034 0.0
H426 H 0.1688 0.85765 0.63114 0.0
H427 H 0.15666 0.88522 0.6186 0.0
H428 H 0.16171 0.87741 0.67722 0.0
H429 H 0.20009 0.93578 0.69108 0.0
H430 H 0.19509 0.94379 0.63239 0.0
H431 H 0.23324 0.95597 0.65432 0.0
H432 H 0.2778 0.89814 0.55761 0.0
H433 H 0.2593 0.90504 0.48199 0.0
H434 H 0.18845 0.91589 0.55054 0.0
C435 C 0.222 0.89028 0.71585 0.0
C436 C 0.24164 0.88074 0.73551 0.0
C437 C 0.2648 0.88041 0.70797 0.0
C438 C 0.26779 0.88853 0.66141 0.0
C439 C 0.24759 0.89713 0.6428 0.0
C440 C 0.22528 0.89827 0.66928 0.0
C441 C 0.20507 0.90618 0.64038 0.0
C442 C 0.17106 0.88005 0.64193 0.0
C443 C 0.2086 0.93728 0.65544 0.0
C444 C 0.21897 0.90851 0.59341 0.0
C445 C 0.24364 0.90349 0.59541 0.0
C446 C 0.2588 0.90259 0.55573 0.0
C447 C 0.24816 0.90653 0.51292 0.0
C448 C 0.22257 0.91121 0.51022 0.0
C449 C 0.2083 0.91272 0.55124 0.0
H450 H 0.20161 0.36887 0.52265 0.0
H451 H 0.11029 0.35498 0.4947 0.0
H452 H 0.10087 0.35377 0.57835 0.0
H453 H 0.17974 0.31683 0.61412 0.0
H454 H 0.21479 0.33959 0.64666 0.0
H455 H 0.21534 0.3424 0.58507 0.0
H456 H 0.23812 0.40164 0.59086 0.0
H457 H 0.23813 0.39918 0.65251 0.0
H458 H 0.21856 0.41673 0.62479 0.0
H459 H 0.10114 0.35182 0.66653 0.0
H460 H 0.11181 0.35113 0.74956 0.0
H461 H 0.20184 0.36355 0.71661 0.0
C462 C 0.17976 0.36607 0.53384 0.0
C463 C 0.15673 0.36215 0.50194 0.0
C464 C 0.12839 0.35827 0.51842 0.0
C465 C 0.12279 0.35741 0.56589 0.0
C466 C 0.14572 0.36036 0.59632 0.0
C467 C 0.1737 0.3648 0.58076 0.0
C468 C 0.19417 0.36605 0.6199 0.0
C469 C 0.20141 0.33964 0.6162 0.0
C470 C 0.224 0.39779 0.62214 0.0
C471 C 0.17332 0.36144 0.66014 0.0
C472 C 0.14552 0.35836 0.64614 0.0
C473 C 0.12286 0.3542 0.67777 0.0
C474 C 0.12905 0.3537 0.72485 0.0
C475 C 0.15756 0.35707 0.73974 0.0
C476 C 0.17968 0.36062 0.70662 0.0
H477 H 0.71329 0.93753 0.23151 0.0
H478 H 0.79044 0.92399 0.26242 0.0
H479 H 0.80757 0.93563 0.18193 0.0
H480 H 0.69356 0.8999 0.13051 0.0
H481 H 0.68335 0.92512 0.10091 0.0
H482 H 0.681 0.92254 0.16236 0.0
H483 H 0.7174 0.98188 0.16933 0.0
H484 H 0.71964 0.98463 0.10764 0.0
H485 H 0.7545 0.99993 0.14146 0.0
H486 H 0.80986 0.93793 0.09584 0.0
H487 H 0.79893 0.9341 0.01248 0.0
H488 H 0.72143 0.94792 0.03827 0.0
C489 C 0.73441 0.93809 0.22175 0.0
C490 C 0.75053 0.9299 0.25325 0.0
C491 C 0.77785 0.93047 0.23901 0.0
C492 C 0.78777 0.93705 0.1933 0.0
C493 C 0.77049 0.94362 0.16252 0.0
C494 C 0.74473 0.94484 0.17641 0.0
C495 C 0.72833 0.94927 0.13595 0.0
C496 C 0.69459 0.92262 0.13224 0.0
C497 C 0.7301 0.98081 0.13879 0.0
C498 C 0.74775 0.94842 0.09689 0.0
C499 C 0.77225 0.94563 0.11284 0.0
C500 C 0.79128 0.94097 0.08295 0.0
C501 C 0.78482 0.93868 0.03567 0.0
C502 C 0.75951 0.94097 0.01882 0.0
C503 C 0.74133 0.94668 0.04992 0.0
H504 H 0.21398 0.87773 0.02021 0.0
H505 H 0.12375 0.86256 0.98037 0.0
H506 H 0.11331 0.86926 0.06099 0.0
H507 H 0.19008 0.83554 0.12327 0.0
H508 H 0.22439 0.86103 0.15568 0.0
H509 H 0.22647 0.85813 0.09431 0.0
H510 H 0.24983 0.91732 0.08683 0.0
H511 H 0.24815 0.9205 0.14828 0.0
H512 H 0.22974 0.93536 0.11135 0.0
H513 H 0.11092 0.87394 0.14528 0.0
H514 H 0.11697 0.87808 0.22899 0.0
H515 H 0.20868 0.88971 0.21665 0.0
C516 C 0.1923 0.87649 0.0283 0.0
C517 C 0.16972 0.86982 0.99382 0.0
C518 C 0.14141 0.86776 0.00604 0.0
C519 C 0.13527 0.87152 0.05178 0.0
C520 C 0.15764 0.87729 0.085 0.0
C521 C 0.18567 0.87997 0.07397 0.0
C522 C 0.205 0.88479 0.11686 0.0
C523 C 0.21188 0.85829 0.12287 0.0
C524 C 0.23496 0.91638 0.11575 0.0
C525 C 0.18322 0.88396 0.15373 0.0
C526 C 0.15614 0.87975 0.13431 0.0
C527 C 0.1321 0.87749 0.16088 0.0
C528 C 0.1358 0.8798 0.20859 0.0
C529 C 0.16335 0.88428 0.22967 0.0
C530 C 0.18738 0.88634 0.20168 0.0
H531 H 0.2092 0.3384 0.00748 0.0
H532 H 0.14174 0.36859 1.00065 0.0
H533 H 0.14178 0.3716 0.08508 0.0
H534 H 0.17818 0.29142 0.11159 0.0
H535 H 0.21603 0.30193 0.13302 0.0
H536 H 0.20921 0.30044 0.07208 0.0
H537 H 0.25411 0.35707 0.06516 0.0
H538 H 0.26069 0.3589 0.12618 0.0
H539 H 0.25334 0.38691 0.09902 0.0
H540 H 0.15202 0.3752 0.17032 0.0
H541 H 0.16731 0.37314 0.25046 0.0
H542 H 0.22717 0.33969 0.20197 0.0
C543 C 0.19396 0.34504 0.02372 0.0
C544 C 0.17542 0.35318 0.99723 0.0
C545 C 0.15605 0.36205 0.02001 0.0
C546 C 0.15602 0.36403 0.06805 0.0
C547 C 0.17529 0.35683 0.09303 0.0
C548 C 0.19352 0.347 0.07174 0.0
C549 C 0.21232 0.3409 0.10661 0.0
C550 C 0.20339 0.30664 0.10578 0.0
C551 C 0.24717 0.36222 0.09876 0.0
C552 C 0.20206 0.34915 0.15071 0.0
C553 C 0.18084 0.35847 0.14215 0.0
C554 C 0.16848 0.36775 0.17748 0.0
C555 C 0.17749 0.36675 0.22287 0.0
C556 C 0.19847 0.35632 0.23253 0.0
C557 C 0.21109 0.34777 0.19575 0.0
H558 H 0.31042 0.21906 1.00008 0.0
H559 H 0.3465 0.16772 0.07124 0.0
H560 H 0.34888 0.14438 0.99753 0.0
H561 H 0.26417 0.15988 0.91411 0.0
H562 H 0.27358 0.18785 0.86909 0.0
H563 H 0.27206 0.19836 0.92787 0.0
H564 H 0.32812 0.24458 0.92194 0.0
H565 H 0.32957 0.23444 0.86311 0.0
H566 H 0.35844 0.23766 0.90338 0.0
H567 H 0.3504 0.12927 0.91556 0.0
H568 H 0.35571 0.12746 0.83156 0.0
H569 H 0.31848 0.18867 0.81433 0.0
C570 C 0.31849 0.20263 1.0003 0.0
C571 C 0.32812 0.19506 0.04145 0.0
C572 C 0.339 0.17385 0.04012 0.0
C573 C 0.3402 0.1603 0.99848 0.0
C574 C 0.33045 0.16821 0.95853 0.0
C575 C 0.32002 0.18908 0.95907 0.0
C576 C 0.31318 0.19557 0.91104 0.0
C577 C 0.27869 0.18476 0.9052 0.0
C578 C 0.33355 0.23009 0.89918 0.0
C579 C 0.32204 0.17562 0.88325 0.0
C580 C 0.3315 0.15965 0.91127 0.0
C581 C 0.34274 0.14138 0.89329 0.0
C582 C 0.34557 0.14042 0.84548 0.0
C583 C 0.3374 0.1578 0.81625 0.0
C584 C 0.32444 0.17467 0.83554 0.0
H585 H 0.89242 0.20443 0.84244 0.0
H586 H 0.96371 0.18812 0.78856 0.0
H587 H 0.97014 0.17124 0.86577 0.0
H588 H 0.92699 0.23349 0.95364 0.0
H589 H 0.89037 0.215 0.98287 0.0
H590 H 0.89244 0.22656 0.9239 0.0
H591 H 0.85107 0.17044 0.90171 0.0
H592 H 0.849 0.15866 0.96055 0.0
H593 H 0.85746 0.13903 0.9159 0.0
H594 H 0.96748 0.15489 0.95011 0.0
H595 H 0.95679 0.14172 0.03243 0.0
H596 H 0.8868 0.16856 0.02903 0.0
C597 C 0.90963 0.19758 0.84672 0.0
C598 C 0.92768 0.19777 0.80926 0.0
C599 C 0.94972 0.18835 0.81666 0.0
C600 C 0.95346 0.17866 0.86042 0.0
C601 C 0.93498 0.17847 0.89644 0.0
C602 C 0.91356 0.1878 0.88989 0.0
C603 C 0.89608 0.18507 0.93364 0.0
C604 C 0.90183 0.21693 0.94944 0.0
C605 C 0.86135 0.16192 0.92757 0.0
C606 C 0.91094 0.17272 0.96609 0.0
C607 C 0.93334 0.16903 0.94416 0.0
C608 C 0.95001 0.15778 0.96749 0.0
C609 C 0.94374 0.1503 0.0143 0.0
C610 C 0.92095 0.15406 0.03744 0.0
C611 C 0.90439 0.16537 0.01261 0.0
H612 H 0.77879 0.61402 0.0853 0.0
H613 H 0.79338 0.53654 0.10742 0.0
H614 H 0.80179 0.53448 0.02426 0.0
H615 H 0.74115 0.59013 0.97111 0.0
H616 H 0.76068 0.62944 0.95077 0.0
H617 H 0.75137 0.62162 0.01074 0.0
H618 H 0.80894 0.65838 0.03183 0.0
H619 H 0.81855 0.66601 0.97205 0.0
H620 H 0.83802 0.65152 0.00746 0.0
H621 H 0.81405 0.54465 0.93901 0.0
H622 H 0.82788 0.56559 0.86013 0.0
H623 H 0.80639 0.63697 0.89577 0.0
C624 C 0.78269 0.5959 0.0726 0.0
C625 C 0.78498 0.57517 0.103 0.0
C626 C 0.79109 0.55245 0.08485 0.0
C627 C 0.79601 0.55115 0.03761 0.0
C628 C 0.79469 0.57268 0.00885 0.0
C629 C 0.78793 0.59448 0.02572 0.0
C630 C 0.79046 0.61673 0.98862 0.0
C631 C 0.75904 0.61432 0.97979 0.0
C632 C 0.81548 0.65012 1.00072 0.0
C633 C 0.80006 0.60436 0.94835 0.0
C634 C 0.8022 0.57881 0.96041 0.0
C635 C 0.81202 0.56438 0.92908 0.0
C636 C 0.81985 0.57644 0.88436 0.0
C637 C 0.81814 0.60285 0.87164 0.0
C638 C 0.80784 0.61666 0.90418 0.0
H639 H 0.35584 0.26193 0.36149 0.0
H640 H 0.36866 0.19176 0.29392 0.0
H641 H 0.36767 0.16874 0.36926 0.0
H642 H 0.40325 0.27089 0.46303 0.0
H643 H 0.37804 0.27658 0.50074 0.0
H644 H 0.38174 0.28829 0.44161 0.0
H645 H 0.32236 0.25457 0.4317 0.0
H646 H 0.31852 0.24221 0.49049 0.0
H647 H 0.3034 0.21389 0.44487 0.0
H648 H 0.36107 0.15104 0.4518 0.0
H649 H 0.35629 0.14403 0.53589 0.0
H650 H 0.34867 0.22644 0.54899 0.0
C651 C 0.35913 0.24213 0.3626 0.0
C652 C 0.3625 0.22875 0.32188 0.0
C653 C 0.36648 0.20268 0.32472 0.0
C654 C 0.36566 0.18926 0.36733 0.0
C655 C 0.36124 0.20245 0.40672 0.0
C656 C 0.35866 0.22866 0.40478 0.0
C657 C 0.35387 0.23822 0.45199 0.0
C658 C 0.38084 0.2704 0.46511 0.0
C659 C 0.32268 0.23715 0.45491 0.0
C660 C 0.35388 0.21312 0.48082 0.0
C661 C 0.35791 0.19256 0.45409 0.0
C662 C 0.35818 0.16717 0.47312 0.0
C663 C 0.3552 0.16325 0.52089 0.0
C664 C 0.35213 0.18471 0.54906 0.0
C665 C 0.35101 0.20965 0.52845 0.0
H666 H 0.86989 0.11791 0.31083 0.0
H667 H 0.96596 0.14323 0.29618 0.0
H668 H 0.97481 0.15723 0.37854 0.0
H669 H 0.88416 0.17998 0.38098 0.0
H670 H 0.85013 0.15908 0.41582 0.0
H671 H 0.85018 0.14685 0.3577 0.0
H672 H 0.83522 0.09199 0.3858 0.0
H673 H 0.83465 0.10384 0.4441 0.0
H674 H 0.85848 0.0876 0.42916 0.0
H675 H 0.974 0.17294 0.46197 0.0
H676 H 0.96329 0.18794 0.53792 0.0
H677 H 0.86823 0.15366 0.49613 0.0
C678 C 0.89256 0.12536 0.32515 0.0
C679 C 0.91709 0.1289 0.29696 0.0
C680 C 0.94664 0.13979 0.31709 0.0
C681 C 0.95192 0.1479 0.36391 0.0
C682 C 0.92744 0.14511 0.39032 0.0
C683 C 0.89829 0.13389 0.37162 0.0
C684 C 0.87647 0.13534 0.40614 0.0
C685 C 0.86455 0.15658 0.38914 0.0
C686 C 0.84962 0.10275 0.41694 0.0
C687 C 0.89788 0.14938 0.44709 0.0
C688 C 0.92717 0.15472 0.43754 0.0
C689 C 0.95103 0.16852 0.46988 0.0
C690 C 0.94475 0.177 0.51297 0.0
C691 C 0.91491 0.17195 0.52324 0.0
C692 C 0.89129 0.15779 0.48966 0.0
H693 H 0.87093 0.62372 0.58519 0.0
H694 H 0.78358 0.53939 0.60812 0.0
H695 H 0.77247 0.53535 0.52495 0.0
H696 H 0.84363 0.65509 0.50564 0.0
H697 H 0.87757 0.67223 0.47002 0.0
H698 H 0.88092 0.66611 0.53006 0.0
H699 H 0.90693 0.63398 0.51032 0.0
H700 H 0.9041 0.64039 0.4501 0.0
H701 H 0.88787 0.60152 0.47149 0.0
H702 H 0.76813 0.54411 0.44006 0.0
H703 H 0.77251 0.56354 0.36069 0.0
H704 H 0.86249 0.64206 0.39445 0.0
C705 C 0.84989 0.60385 0.57268 0.0
C706 C 0.82823 0.58178 0.60333 0.0
C707 C 0.80067 0.55651 0.5854 0.0
C708 C 0.7941 0.55403 0.53814 0.0
C709 C 0.8154 0.57689 0.50912 0.0
C710 C 0.84294 0.6011 0.52569 0.0
C711 C 0.86096 0.62385 0.48803 0.0
C712 C 0.86605 0.65622 0.49912 0.0
C713 C 0.89179 0.62499 0.47948 0.0
C714 C 0.83894 0.60912 0.44797 0.0
C715 C 0.81287 0.58193 0.46058 0.0
C716 C 0.78866 0.56515 0.42967 0.0
C717 C 0.79128 0.57641 0.38471 0.0
C718 C 0.81785 0.60426 0.37121 0.0
C719 C 0.84194 0.62058 0.40343 0.0
H720 H 0.09675 0.51006 0.87187 0.0
H721 H 0.08068 0.48434 0.01546 0.0
H722 H 0.11596 0.4632 0.00985 0.0
H723 H 0.09912 0.44184 0.83363 0.0
H724 H 0.12839 0.46301 0.79127 0.0
H725 H 0.10172 0.47559 0.80714 0.0
H726 H 0.14784 0.52981 0.8273 0.0
H727 H 0.17465 0.51723 0.81226 0.0
H728 H 0.17635 0.53321 0.86846 0.0
H729 H 0.15595 0.4478 0.98905 0.0
H730 H 0.19079 0.43251 0.95273 0.0
H731 H 0.17849 0.46603 0.82164 0.0
C732 C 0.1004 0.49971 0.90208 0.0
C733 C 0.08596 0.49891 0.94419 0.0
C734 C 0.09127 0.48502 0.98279 0.0
C735 C 0.11149 0.47319 0.97999 0.0
C736 C 0.12591 0.47504 0.93817 0.0
C737 C 0.12008 0.4874 0.89968 0.0
C738 C 0.13775 0.48589 0.85846 0.0
C739 C 0.11541 0.46535 0.82039 0.0
C740 C 0.16049 0.51848 0.84059 0.0
C741 C 0.15472 0.471 0.87976 0.0
C742 C 0.14791 0.46526 0.9259 0.0
C743 C 0.16123 0.45203 0.95289 0.0
C744 C 0.18125 0.44363 0.93194 0.0
C745 C 0.18751 0.44804 0.8842 0.0
C746 C 0.17432 0.46238 0.85816 0.0
H747 H 0.65228 0.82109 0.00654 0.0
H748 H 0.67263 0.79888 0.87181 0.0
H749 H 0.64193 0.74303 0.89006 0.0
H750 H 0.6558 0.7619 0.06896 0.0
H751 H 0.62395 0.75396 0.10614 0.0
H752 H 0.64725 0.79202 0.08232 0.0
H753 H 0.59847 0.78959 0.04722 0.0
H754 H 0.57497 0.75178 0.07164 0.0
H755 H 0.57322 0.75737 0.01085 0.0
H756 H 0.61055 0.68889 0.92567 0.0
H757 H 0.57576 0.64212 0.97067 0.0
H758 H 0.57456 0.70046 0.08005 0.0
C759 C 0.65009 0.80451 0.98065 0.0
C760 C 0.66494 0.81444 0.93772 0.0
C761 C 0.66133 0.79189 0.90481 0.0
C762 C 0.64413 0.76009 0.91504 0.0
C763 C 0.63038 0.75114 0.95816 0.0
C764 C 0.63273 0.77277 0.99006 0.0
C765 C 0.61503 0.75732 0.03335 0.0
C766 C 0.63682 0.76688 0.07515 0.0
C767 C 0.58887 0.76443 0.0412 0.0
C768 C 0.60241 0.72359 0.02107 0.0
C769 C 0.6118 0.72039 0.97783 0.0
C770 C 0.60305 0.69123 0.9595 0.0
C771 C 0.58353 0.66477 0.98547 0.0
C772 C 0.5726 0.66764 0.02896 0.0
C773 C 0.58265 0.69752 0.04701 0.0
H774 H 0.31221 0.9148 0.96494 0.0
H775 H 0.29784 0.83519 0.88522 0.0
H776 H 0.35208 0.84909 0.90104 0.0
H777 H 0.38741 0.96641 0.92778 0.0
H778 H 0.40108 0.98552 0.98249 0.0
H779 H 0.36076 0.96783 0.96784 0.0
H780 H 0.34631 0.9348 0.0417 0.0
H781 H 0.38664 0.95248 0.05669 0.0
H782 H 0.3632 0.91097 0.05237 0.0
H783 H 0.40985 0.87515 0.91998 0.0
H784 H 0.46451 0.90914 0.94241 0.0
H785 H 0.44027 0.97069 0.01205 0.0
C786 C 0.32025 0.89996 0.9512 0.0
C787 C 0.30062 0.87381 0.92375 0.0
C788 C 0.31225 0.85516 0.90655 0.0
C789 C 0.34309 0.86297 0.91532 0.0
C790 C 0.36192 0.88927 0.94185 0.0
C791 C 0.35074 0.90726 0.95995 0.0
C792 C 0.37575 0.93488 0.98616 0.0
C793 C 0.38159 0.96546 0.96477 0.0
C794 C 0.36748 0.93317 0.03726 0.0
C795 C 0.40311 0.93018 0.97921 0.0
C796 C 0.39468 0.90371 0.95364 0.0
C797 C 0.41648 0.89563 0.94056 0.0
C798 C 0.44755 0.91514 0.95346 0.0
C799 C 0.45678 0.94247 0.97951 0.0
C800 C 0.43399 0.9497 0.99299 0.0
H801 H 0.49109 0.09714 0.53033 0.0
H802 H 0.48445 0.05358 0.66179 0.0
H803 H 0.46377 0.08436 0.69662 0.0
H804 H 0.51598 0.17221 0.57371 0.0
H805 H 0.49401 0.18109 0.53378 0.0
H806 H 0.50632 0.15417 0.51777 0.0
H807 H 0.44974 0.11228 0.49975 0.0
H808 H 0.43728 0.13922 0.51503 0.0
H809 H 0.42053 0.10218 0.54298 0.0
H810 H 0.4467 0.12223 0.71877 0.0
H811 H 0.43026 0.16111 0.72477 0.0
H812 H 0.44771 0.18031 0.57924 0.0
C813 C 0.48467 0.09356 0.5662 0.0
C814 C 0.48935 0.0727 0.59316 0.0
C815 C 0.48104 0.06922 0.64021 0.0
C816 C 0.46936 0.08674 0.66046 0.0
C817 C 0.46592 0.10771 0.63332 0.0
C818 C 0.47294 0.11093 0.58707 0.0
C819 C 0.46757 0.13559 0.56591 0.0
C820 C 0.49777 0.16234 0.54666 0.0
C821 C 0.44227 0.12147 0.52872 0.0
C822 C 0.45676 0.14588 0.60756 0.0
C823 C 0.45604 0.12953 0.64611 0.0
C824 C 0.44703 0.13506 0.68872 0.0
C825 C 0.43788 0.15737 0.69185 0.0
C826 C 0.43773 0.17399 0.65261 0.0
C827 C 0.44769 0.16825 0.61006 0.0
H828 H 0.9275 0.30773 0.61956 0.0
H829 H 1.01747 0.32468 0.66438 0.0
H830 H 0.0405 0.37963 0.64401 0.0
H831 H 0.95451 0.35816 0.52259 0.0
H832 H 0.9275 0.37168 0.52939 0.0
H833 H 0.91761 0.33374 0.54923 0.0
H834 H 0.90734 0.34751 0.63061 0.0
H835 H 0.91711 0.38547 0.61094 0.0
H836 H 0.93715 0.38142 0.65952 0.0
H837 H 0.05452 0.43331 0.61658 0.0
H838 H 0.05763 0.4807 0.58471 0.0
H839 H 0.95895 0.42909 0.55758 0.0
C840 C 0.95197 0.32304 0.62549 0.0
C841 C 0.97054 0.31161 0.64375 0.0
C842 C 1.00259 0.3326 0.65051 0.0
C843 C 1.01599 0.36401 0.63904 0.0
C844 C 0.99718 0.37446 0.62074 0.0
C845 C 0.96584 0.35463 0.6141 0.0
C846 C 0.95097 0.37173 0.59298 0.0
C847 C 0.93682 0.35801 0.54574 0.0
C848 C 0.92671 0.37152 0.62546 0.0
C849 C 0.97882 0.40408 0.58852 0.0
C850 C 1.00528 0.40525 0.60484 0.0
C851 C 0.03388 0.43265 0.6038 0.0
C852 C 0.03548 0.4595 0.58559 0.0
C853 C 1.00864 0.45884 0.56852 0.0
C854 C 0.98001 0.4306 0.57028 0.0
H855 H 0.72634 0.57664 0.71815 0.0
H856 H 0.78918 0.66652 0.65977 0.0
H857 H 0.74577 0.66402 0.61524 0.0
H858 H 0.68186 0.5427 0.61672 0.0
H859 H 0.6456 0.52105 0.64633 0.0
H860 H 0.68118 0.53042 0.67504 0.0
H861 H 0.66832 0.55689 0.74098 0.0
H862 H 0.63255 0.54736 0.7127 0.0
H863 H 0.65976 0.58698 0.72772 0.0
H864 H 0.6955 0.65085 0.57538 0.0
H865 H 0.64258 0.62954 0.54544 0.0
H866 H 0.61203 0.54765 0.62923 0.0
C867 C 0.73104 0.59604 0.6964 0.0
C868 C 0.76137 0.62194 0.69277 0.0
C869 C 0.76628 0.64656 0.6635 0.0
C870 C 0.74172 0.64526 0.63792 0.0
C871 C 0.71229 0.61917 0.64187 0.0
C872 C 0.70684 0.59507 0.6706 0.0
C873 C 0.67316 0.56946 0.66824 0.0
C874 C 0.6703 0.53912 0.65053 0.0
C875 C 0.65753 0.56492 0.7152 0.0
C876 C 0.6604 0.58281 0.63355 0.0
C877 C 0.68342 0.61151 0.6188 0.0
C878 C 0.67736 0.62845 0.58684 0.0
C879 C 0.64709 0.61603 0.56995 0.0
C880 C 0.62288 0.58679 0.58479 0.0
C881 C 0.62988 0.56993 0.61689 0.0
H882 H 0.8801 0.62765 0.08078 0.0
H883 H 0.8866 0.60318 0.22157 0.0
H884 H 0.91191 0.5745 0.1947 0.0
H885 H 0.86412 0.55582 0.02887 0.0
H886 H 0.88705 0.57379 0.97861 0.0
H887 H 0.86915 0.59212 0.00882 0.0
H888 H 0.92231 0.64209 0.01868 0.0
H889 H 0.9403 0.62415 0.98781 0.0
H890 H 0.9539 0.63985 0.04444 0.0
H891 H 0.93607 0.5476 0.15186 0.0
H892 H 0.96328 0.53114 0.09803 0.0
H893 H 0.94187 0.57423 0.98593 0.0
C894 C 0.88711 0.61656 0.10611 0.0
C895 C 0.8814 0.61784 0.1534 0.0
C896 C 0.89085 0.60277 0.18521 0.0
C897 C 0.90501 0.58615 0.17023 0.0
C898 C 0.90965 0.5848 0.12329 0.0
C899 C 0.90137 0.6 0.0918 0.0
C900 C 0.90986 0.59592 0.04344 0.0
C901 C 0.88082 0.57837 0.01316 0.0
C902 C 0.93298 0.62737 0.02237 0.0
C903 C 0.92472 0.57647 0.05268 0.0
C904 C 0.92387 0.56978 0.09884 0.0
C905 C 0.93675 0.55262 0.11562 0.0
C906 C 0.95191 0.54307 0.08472 0.0
C907 C 0.95447 0.55115 0.03772 0.0
C908 C 0.94001 0.56743 0.02157 0.0
H909 H 0.42194 0.3432 0.14741 0.0
H910 H 0.32398 0.31259 0.14843 0.0
H911 H 0.33592 0.36497 0.12531 0.0
H912 H 0.44831 0.41965 0.19321 0.0
H913 H 0.48243 0.43796 0.15803 0.0
H914 H 0.46625 0.39806 0.17435 0.0
H915 H 0.46246 0.38237 0.08875 0.0
H916 H 0.47851 0.4222 0.07213 0.0
H917 H 0.44178 0.39306 0.04906 0.0
H918 H 0.35825 0.42019 0.10167 0.0
H919 H 0.38905 0.47512 0.08156 0.0
H920 H 0.47335 0.47117 0.09616 0.0
C921 C 0.40294 0.34746 0.14284 0.0
C922 C 0.37191 0.32362 0.14976 0.0
C923 C 0.34786 0.33035 0.14345 0.0
C924 C 0.35444 0.36005 0.13021 0.0
C925 C 0.38522 0.38288 0.12349 0.0
C926 C 0.40911 0.37702 0.12975 0.0
C927 C 0.44019 0.40583 0.12068 0.0
C928 C 0.46049 0.41597 0.16416 0.0
C929 C 0.4567 0.40054 0.08025 0.0
C930 C 0.43005 0.42888 0.10834 0.0
C931 C 0.39821 0.41499 0.11008 0.0
C932 C 0.38318 0.43129 0.10028 0.0
C933 C 0.40103 0.46263 0.08884 0.0
C934 C 0.43379 0.47774 0.08724 0.0
C935 C 0.44843 0.46041 0.0969 0.0
H936 H 0.77438 0.09451 0.0718 0.0
H937 H 0.7769 0.10476 0.22001 0.0
H938 H 0.71976 0.07722 0.22122 0.0
H939 H 0.71109 0.10768 0.05285 0.0
H940 H 0.69477 0.0802 0.00629 0.0
H941 H 0.73569 0.09959 0.01746 0.0
H942 H 0.73284 0.04646 0.02462 0.0
H943 H 0.69191 0.02717 0.01317 0.0
H944 H 0.70601 0.01833 0.0645 0.0
H945 H 0.66224 0.0485 0.2062 0.0
H946 H 0.60913 0.02507 0.17604 0.0
H947 H 0.6438 0.03457 0.03703 0.0
C948 C 0.76296 0.09094 0.10458 0.0
C949 C 0.78024 0.10178 0.1459 0.0
C950 C 0.76428 0.09681 0.18793 0.0
C951 C 0.73179 0.081 0.18896 0.0
C952 C 0.71551 0.07042 0.14766 0.0
C953 C 0.73057 0.07546 0.10618 0.0
C954 C 0.70769 0.06296 0.06649 0.0
C955 C 0.71261 0.08917 0.03386 0.0
C956 C 0.70975 0.03721 0.04068 0.0
C957 C 0.67735 0.05012 0.09207 0.0
C958 C 0.68241 0.0544 0.1389 0.0
C959 C 0.65806 0.04499 0.16961 0.0
C960 C 0.62786 0.03155 0.15205 0.0
C961 C 0.62206 0.02775 0.10406 0.0
C962 C 0.64728 0.03678 0.07386 0.0
H963 H 0.64261 0.03118 0.47777 0.0
H964 H 0.54624 0.95894 0.47381 0.0
H965 H 0.56218 0.92066 0.45325 0.0
H966 H 0.6678 1.00499 0.38269 0.0
H967 H 0.70473 1.01594 0.40835 0.0
H968 H 0.6852 0.0367 0.42307 0.0
H969 H 0.68778 0.02538 0.50927 0.0
H970 H 0.70739 1.00465 0.49483 0.0
H971 H 0.67227 0.98595 0.52777 0.0
H972 H 0.59064 0.8904 0.43076 0.0
H973 H 0.62746 0.87235 0.41195 0.0
H974 H 0.70384 0.96576 0.43265 0.0
C975 C 0.62465 1.00732 0.4727 0.0
C976 C 0.59307 0.99817 0.47737 0.0
C977 C 0.57057 0.96658 0.47052 0.0
C978 C 0.57946 0.9447 0.45874 0.0
C979 C 0.61095 0.95472 0.45414 0.0
C980 C 0.63307 0.9854 0.46121 0.0
C981 C 0.66538 0.99086 0.45452 0.0
C982 C 0.68172 1.01345 0.41479 0.0
C983 C 0.68431 1.00238 0.49926 0.0
C984 C 0.65826 0.95851 0.44238 0.0
C985 C 0.62682 0.93778 0.4421 0.0
C986 C 0.61526 0.90657 0.43112 0.0
C987 C 0.63633 0.89648 0.42041 0.0
C988 C 0.66864 0.91751 0.42091 0.0
C989 C 0.67939 0.94887 0.43207 0.0
H990 H 0.08318 0.64925 0.40961 0.0
H991 H 0.07725 0.65818 0.55661 0.0
H992 H 0.09757 0.71462 0.54749 0.0
H993 H 0.15497 0.72386 0.3934 0.0
H994 H 0.14228 0.72979 0.33837 0.0
H995 H 0.12939 0.6911 0.35814 0.0
H996 H 0.07263 0.67762 0.34672 0.0
H997 H 0.08526 0.71646 0.32807 0.0
H998 H 0.05902 0.70039 0.37566 0.0
H999 H 0.11364 0.76978 0.51955 0.0
H1000 H 0.13185 0.81915 0.47786 0.0
H1001 H 0.12886 0.77311 0.35002 0.0
C1002 C 0.08693 0.66327 0.44003 0.0
C1003 C 0.079 0.64956 0.48386 0.0
C1004 C 0.08381 0.66844 0.52285 0.0
C1005 C 0.09498 0.7004 0.51784 0.0
C1006 C 0.10159 0.71304 0.47372 0.0
C1007 C 0.09843 0.69506 0.43568 0.0
C1008 C 0.10698 0.71381 0.39196 0.0
C1009 C 0.13508 0.7147 0.36914 0.0
C1010 C 0.07932 0.70132 0.35866 0.0
C1011 C 0.11499 0.74517 0.41097 0.0
C1012 C 0.11148 0.74436 0.45811 0.0
C1013 C 0.11674 0.77062 0.48272 0.0
C1014 C 0.12674 0.7985 0.45871 0.0
C1015 C 0.13169 0.79996 0.41068 0.0
C1016 C 0.12531 0.77276 0.38673 0.0
H1017 H 0.27827 0.36795 0.5166 0.0
H1018 H 0.29671 0.35723 0.37432 0.0
H1019 H 0.35285 0.38488 0.39149 0.0
H1020 H 0.33798 0.44339 0.52928 0.0
H1021 H 0.34692 0.43943 0.58796 0.0
H1022 H 0.30848 0.41495 0.56598 0.0
H1023 H 0.31108 0.3664 0.58936 0.0
H1024 H 0.34962 0.39076 0.61147 0.0
H1025 H 0.34236 0.3616 0.56892 0.0
H1026 H 0.40777 0.41843 0.42349 0.0
H1027 H 0.45511 0.45571 0.46577 0.0
H1028 H 0.39982 0.44502 0.5861 0.0
C1029 C 0.29396 0.37065 0.48914 0.0
C1030 C 0.2829 0.36007 0.44409 0.0
C1031 C 0.30449 0.36482 0.40916 0.0
C1032 C 0.33647 0.38051 0.41865 0.0
C1033 C 0.34657 0.39129 0.46328 0.0
C1034 C 0.32583 0.38641 0.49795 0.0
C1035 C 0.34237 0.40253 0.542 0.0
C1036 C 0.33341 0.42649 0.55716 0.0
C1037 C 0.33597 0.37891 0.58018 0.0
C1038 C 0.37571 0.41801 0.52652 0.0
C1039 C 0.37781 0.4109 0.48126 0.0
C1040 C 0.40632 0.4238 0.45909 0.0
C1041 C 0.43316 0.44492 0.48345 0.0
C1042 C 0.43134 0.45328 0.5294 0.0
C1043 C 0.40217 0.43903 0.55118 0.0
H1044 H 0.74407 0.67823 0.30284 0.0
H1045 H 0.8301 0.72979 0.22809 0.0
H1046 H 0.82779 0.77758 0.23889 0.0
H1047 H 0.70739 0.72021 0.25932 0.0
H1048 H 0.68927 0.71922 0.31317 0.0
H1049 H 0.69695 0.68869 0.29855 0.0
H1050 H 0.72794 0.69853 0.37412 0.0
H1051 H 0.72028 0.729 0.38904 0.0
H1052 H 0.75954 0.73684 0.38668 0.0
H1053 H 0.81733 0.81983 0.25947 0.0
H1054 H 0.80031 0.85468 0.28971 0.0
H1055 H 0.72035 0.77664 0.35142 0.0
C1056 C 0.76239 0.69954 0.28852 0.0
C1057 C 0.78732 0.70014 0.26446 0.0
C1058 C 0.8108 0.72861 0.24656 0.0
C1059 C 0.80964 0.7559 0.25246 0.0
C1060 C 0.78481 0.75445 0.27628 0.0
C1061 C 0.76158 0.72706 0.2941 0.0
C1062 C 0.7379 0.73217 0.31933 0.0
C1063 C 0.70599 0.71399 0.2962 0.0
C1064 C 0.73634 0.72363 0.37032 0.0
C1065 C 0.75163 0.76683 0.3133 0.0
C1066 C 0.77863 0.77904 0.28815 0.0
C1067 C 0.79618 0.81051 0.27902 0.0
C1068 C 0.78627 0.83014 0.29652 0.0
C1069 C 0.75893 0.8185 0.32298 0.0
C1070 C 0.74112 0.78623 0.33089 0.0
H1071 H 0.30944 0.13688 0.29027 0.0
H1072 H 0.23 0.13104 0.22108 0.0
H1073 H 0.19612 0.08048 0.25899 0.0
H1074 H 0.28999 0.06149 0.27707 0.0
H1075 H 0.30437 0.0579 0.33213 0.0
H1076 H 0.32074 0.09511 0.30526 0.0
H1077 H 0.30853 0.11749 0.3773 0.0
H1078 H 0.29227 0.08031 0.40471 0.0
H1079 H 0.26961 0.09894 0.39897 0.0
H1080 H 0.17263 0.02649 0.29709 0.0
H1081 H 0.16237 0.97681 0.33129 0.0
H1082 H 0.25798 0.02044 0.37563 0.0
C1083 C 0.28478 0.12531 0.28379 0.0
C1084 C 0.27227 0.13777 0.25272 0.0
C1085 C 0.23996 0.12198 0.24513 0.0
C1086 C 0.22063 0.09325 0.26646 0.0
C1087 C 0.23399 0.0811 0.29591 0.0
C1088 C 0.26538 0.09708 0.30501 0.0
C1089 C 0.27487 0.07867 0.3351 0.0
C1090 C 0.29888 0.07295 0.31092 0.0
C1091 C 0.28703 0.09481 0.38179 0.0
C1092 C 0.2442 0.04908 0.34003 0.0
C1093 C 0.22068 0.05084 0.31785 0.0
C1094 C 0.19082 0.02518 0.31522 0.0
C1095 C 0.18515 0.99702 0.33483 0.0
C1096 C 0.2093 0.9947 0.35636 0.0
C1097 C 0.2389 0.0214 0.35978 0.0
H1098 H 0.11182 0.27246 0.30019 0.0
H1099 H 0.07458 0.25454 0.4383 0.0
H1100 H 1.02206 0.23446 0.40643 0.0
H1101 H 0.06435 0.29938 0.25536 0.0
H1102 H 0.05952 0.28171 0.19963 0.0
H1103 H 0.09389 0.29253 0.23284 0.0
H1104 H 0.08372 0.2364 0.22812 0.0
H1105 H 0.04971 0.22558 0.19397 0.0
H1106 H 0.04683 0.20479 0.24588 0.0
H1107 H 0.97358 0.21919 0.35896 0.0
H1108 H 0.93295 0.20436 0.29983 0.0
H1109 H 1.00248 0.2333 0.19338 0.0
C1110 C 0.09261 0.26376 0.32383 0.0
C1111 C 0.09747 0.26503 0.37187 0.0
C1112 C 0.07156 0.25371 0.40139 0.0
C1113 C 0.04161 0.24244 0.38362 0.0
C1114 C 0.03786 0.24263 0.33618 0.0
C1115 C 0.06263 0.25258 0.3067 0.0
C1116 C 0.05256 0.25079 0.25715 0.0
C1117 C 0.06853 0.28302 0.23496 0.0
C1118 C 0.05855 0.22803 0.22967 0.0
C1119 C 1.01828 0.23846 0.26329 0.0
C1120 C 1.0102 0.23399 0.3091 0.0
C1121 C 0.97971 0.22258 0.32298 0.0
C1122 C 0.95678 0.2145 0.2891 0.0
C1123 C 0.96443 0.21784 0.24179 0.0
C1124 C 0.99578 0.23063 0.22913 0.0
H1125 H 0.33267 0.29185 0.69085 0.0
H1126 H 0.38894 0.28589 0.79926 0.0
H1127 H 0.37586 0.31754 0.84971 0.0
H1128 H 0.35043 0.37214 0.71702 0.0
H1129 H 0.31166 0.36307 0.70308 0.0
H1130 H 0.32837 0.34303 0.67434 0.0
H1131 H 0.28198 0.29059 0.69946 0.0
H1132 H 0.26529 0.31042 0.72855 0.0
H1133 H 0.27257 0.28357 0.75955 0.0
H1134 H 0.35089 0.34399 0.89151 0.0
H1135 H 0.31856 0.36502 0.91968 0.0
H1136 H 0.28028 0.35583 0.78301 0.0
C1137 C 0.34291 0.29784 0.72482 0.0
C1138 C 0.36211 0.28654 0.74089 0.0
C1139 C 0.37463 0.29462 0.78583 0.0
C1140 C 0.36719 0.31252 0.81482 0.0
C1141 C 0.34759 0.32265 0.7982 0.0
C1142 C 0.336 0.31595 0.75394 0.0
C1143 C 0.31411 0.32812 0.74509 0.0
C1144 C 0.32692 0.35308 0.70768 0.0
C1145 C 0.28157 0.30159 0.73244 0.0
C1146 C 0.3144 0.34191 0.79171 0.0
C1147 C 0.33393 0.33861 0.82185 0.0
C1148 C 0.33606 0.34725 0.86791 0.0
C1149 C 0.31755 0.35917 0.88365 0.0
C1150 C 0.29724 0.36262 0.85349 0.0
C1151 C 0.29617 0.35432 0.8067 0.0
H1152 H 0.84704 0.08716 0.68009 0.0
H1153 H 0.81508 0.14889 0.72553 0.0
H1154 H 0.77209 0.10541 0.76722 0.0
H1155 H 0.77028 1.01669 0.66744 0.0
H1156 H 0.78453 0.99225 0.6882 0.0
H1157 H 0.8099 0.02722 0.65759 0.0
H1158 H 0.84848 0.04571 0.72593 0.0
H1159 H 0.82319 1.01094 0.75672 0.0
H1160 H 0.83526 0.04817 0.78246 0.0
H1161 H 0.73567 0.05547 0.81101 0.0
H1162 H 0.71008 1.00515 0.85138 0.0
H1163 H 0.76686 0.97734 0.77609 0.0
C1164 C 0.83066 0.09152 0.69795 0.0
C1165 C 0.8344 0.12149 0.6993 0.0
C1166 C 0.81254 0.1261 0.72354 0.0
C1167 C 0.78808 0.10151 0.74741 0.0
C1168 C 0.78562 0.0724 0.74632 0.0
C1169 C 0.80627 0.06736 0.72174 0.0
C1170 C 0.80021 0.03475 0.72825 0.0
C1171 C 0.79065 1.01666 0.68265 0.0
C1172 C 0.82846 0.03493 0.74962 0.0
C1173 C 0.77345 0.02231 0.76141 0.0
C1174 C 0.76503 0.04413 0.77119 0.0
C1175 C 0.74188 0.03816 0.80303 0.0
C1176 C 0.72742 1.00945 0.8258 0.0
C1177 C 0.73629 0.9871 0.81694 0.0
C1178 C 0.75925 0.99367 0.78359 0.0
H1179 H 0.10977 0.7633 0.74981 0.0
H1180 H 0.10247 0.78081 0.89383 0.0
H1181 H 0.04547 0.75275 0.88654 0.0
H1182 H 0.04826 0.77179 0.70778 0.0
H1183 H 0.03447 0.74054 0.66672 0.0
H1184 H 0.07458 0.761 0.68344 0.0
H1185 H 0.07087 0.70949 0.70778 0.0
H1186 H 0.03083 0.68877 0.69064 0.0
H1187 H 0.04167 0.68475 0.74815 0.0
H1188 H 0.9887 0.72618 0.86134 0.0
H1189 H 0.93744 0.69749 0.82348 0.0
H1190 H 0.98154 0.69442 0.69721 0.0
C1191 C 0.09618 0.76087 0.78002 0.0
C1192 C 0.11078 0.77435 0.82248 0.0
C1193 C 0.092 0.77055 0.86106 0.0
C1194 C 0.05953 0.7548 0.85714 0.0
C1195 C 0.04594 0.7424 0.81456 0.0
C1196 C 0.0637 0.74466 0.77692 0.0
C1197 C 0.04341 0.72879 0.73524 0.0
C1198 C 0.05062 0.75192 0.69599 0.0
C1199 C 0.0469 0.70132 0.71954 0.0
C1200 C 1.0115 0.71783 0.75496 0.0
C1201 C 1.01343 0.72611 0.80067 0.0
C1202 C 0.98699 0.71934 0.82568 0.0
C1203 C 0.95792 0.7032 0.80376 0.0
C1204 C 0.95525 0.69358 0.75731 0.0
C1205 C 0.98262 0.70128 0.73277 0.0
loop_
_geom_bond_atom_site_label_1
_geom_bond_atom_site_label_2
_geom_bond_distance
_geom_bond_site_symmetry_2
_ccdc_geom_bond_type
Mg0 O7 2.141 1_554 S
Mg0 O8 2.048 . S
Mg0 O9 2.048 . S
Mg0 O12 2.141 . S
C1 O2 1.313 . S
C1 O8 1.195 . S
O2 C1 1.313 . S
C3 O4 1.245 . S
C3 O12 1.289 1_655 S
O4 C3 1.245 . S
C5 O6 1.245 1_455 S
C5 O7 1.289 . S
O6 C5 1.245 1_655 S
O7 Mg0 2.141 1_556 S
O7 C5 1.289 . S
O8 Mg0 2.048 . S
O8 C1 1.195 . S
O9 Mg0 2.048 . S
O9 C10 1.195 . S
C10 O9 1.195 . S
C10 O11 1.326 . S
O11 C10 1.326 . S
O12 Mg0 2.141 . S
O12 C3 1.289 1_455 S
Mg13 O20 2.141 1_554 S
Mg13 O21 2.048 . S
Mg13 O22 2.048 . S
Mg13 O25 2.141 . S
C14 O15 1.313 . S
C14 O21 1.195 . S
O15 C14 1.313 . S
C16 O17 1.245 . S
C16 O25 1.289 . S
O17 C16 1.245 . S
C18 O19 1.245 . S
C18 O20 1.289 . S
O19 C18 1.245 . S
O20 Mg13 2.141 1_556 S
O20 C18 1.289 . S
O21 Mg13 2.048 . S
O21 C14 1.195 . S
O22 Mg13 2.048 . S
O22 C23 1.195 . S
C23 O22 1.195 . S
C23 O24 1.313 . S
O24 C23 1.313 . S
O25 Mg13 2.141 . S
O25 C16 1.289 . S
Mg26 O33 2.141 1_545 S
Mg26 O34 2.048 1_554 S
Mg26 O35 2.048 . S
Mg26 O38 2.141 . S
C27 O28 1.313 1_545 S
C27 O34 1.195 . S
O28 C27 1.313 1_565 S
C29 O30 1.245 . S
C29 O38 1.289 1_565 S
O30 C29 1.245 . S
C31 O32 1.245 . S
C31 O33 1.289 . S
O32 C31 1.245 . S
O33 Mg26 2.141 1_565 S
O33 C31 1.289 . S
O34 Mg26 2.048 1_556 S
O34 C27 1.195 . S
O35 Mg26 2.048 . S
O35 C36 1.195 . S
C36 O35 1.195 . S
C36 O37 1.313 . S
O37 C36 1.313 . S
O38 Mg26 2.141 . S
O38 C29 1.289 1_545 S
Mg39 O46 2.141 . S
Mg39 O47 2.048 . S
Mg39 O48 2.048 . S
Mg39 O51 2.141 . S
C40 O41 1.313 . S
C40 O47 1.195 1_565 S
O41 C40 1.313 . S
C42 O43 1.245 . S
C42 O51 1.289 . S
O43 C42 1.245 . S
C44 O45 1.245 1_545 S
C44 O46 1.289 . S
O45 C44 1.245 1_565 S
O46 Mg39 2.141 . S
O46 C44 1.289 . S
O47 Mg39 2.048 . S
O47 C40 1.195 1_545 S
O48 Mg39 2.048 . S
O48 C49 1.195 . S
C49 O48 1.195 . S
C49 O50 1.313 1_545 S
O50 C49 1.313 1_565 S
O51 Mg39 2.141 . S
O51 C42 1.289 . S
Mg52 O59 2.141 1_455 S
Mg52 O60 2.048 . S
Mg52 O61 2.048 . S
Mg52 O64 2.141 1_455 S
C53 O54 1.313 . S
C53 O60 1.195 . S
O54 C53 1.313 . S
C55 O56 1.245 1_655 S
C55 O64 1.289 . S
O56 C55 1.245 1_455 S
C57 O58 1.245 . S
C57 O59 1.289 1_455 S
O58 C57 1.245 . S
O59 Mg52 2.141 1_655 S
O59 C57 1.289 1_655 S
O60 Mg52 2.048 . S
O60 C53 1.195 . S
O61 Mg52 2.048 . S
O61 C62 1.195 . S
C62 O61 1.195 . S
C62 O63 1.313 . S
O63 C62 1.313 . S
O64 Mg52 2.141 1_655 S
O64 C55 1.289 . S
Mg65 O72 2.141 . S
Mg65 O73 2.048 . S
Mg65 O74 2.048 . S
Mg65 O77 2.141 . S
C66 O67 1.313 . S
C66 O73 1.195 . S
O67 C66 1.313 . S
C68 O69 1.245 . S
C68 O77 1.289 . S
O69 C68 1.245 . S
C70 O71 1.245 . S
C70 O72 1.289 . S
O71 C70 1.245 . S
O72 Mg65 2.141 . S
O72 C70 1.289 . S
O73 Mg65 2.048 . S
O73 C66 1.195 . S
O74 Mg65 2.048 . S
O74 C75 1.195 . S
C75 O74 1.195 . S
C75 O76 1.313 . S
O76 C75 1.313 . S
O77 Mg65 2.141 . S
O77 C68 1.289 . S
Mg78 O85 2.141 . S
Mg78 O86 2.048 . S
Mg78 O87 2.048 . S
Mg78 O90 2.141 . S
C79 O80 1.313 . S
C79 O86 1.195 . S
O80 C79 1.313 . S
C81 O82 1.245 . S
C81 O90 1.289 . S
O82 C81 1.245 . S
C83 O84 1.245 . S
C83 O85 1.289 . S
O84 C83 1.245 . S
O85 Mg78 2.141 . S
O85 C83 1.289 . S
O86 Mg78 2.048 . S
O86 C79 1.195 . S
O87 Mg78 2.048 . S
O87 C88 1.195 . S
C88 O87 1.195 . S
C88 O89 1.313 . S
O89 C88 1.313 . S
O90 Mg78 2.141 . S
O90 C81 1.289 . S
Mg91 O98 2.141 . S
Mg91 O99 2.048 . S
Mg91 O100 2.048 . S
Mg91 O103 2.141 . S
C92 O93 1.313 . S
C92 O99 1.195 . S
O93 C92 1.313 . S
C94 O95 1.245 . S
C94 O103 1.289 . S
O95 C94 1.245 . S
C96 O97 1.245 . S
C96 O98 1.289 . S
O97 C96 1.245 . S
O98 Mg91 2.141 . S
O98 C96 1.289 . S
O99 Mg91 2.048 . S
O99 C92 1.195 . S
O100 Mg91 2.048 . S
O100 C101 1.195 . S
C101 O100 1.195 . S
C101 O102 1.313 . S
O102 C101 1.313 . S
O103 Mg91 2.141 . S
O103 C94 1.289 . S
Mg104 O111 2.141 . S
Mg104 O112 2.048 . S
Mg104 O113 2.048 . S
Mg104 O116 2.141 . S
C105 O106 1.313 . S
C105 O112 1.195 . S
O106 C105 1.313 . S
C107 O108 1.245 . S
C107 O116 1.289 . S
O108 C107 1.245 . S
C109 O110 1.245 . S
C109 O111 1.289 . S
O110 C109 1.245 . S
O111 Mg104 2.141 . S
O111 C109 1.289 . S
O112 Mg104 2.048 . S
O112 C105 1.195 . S
O113 Mg104 2.048 . S
O113 C114 1.195 . S
C114 O113 1.195 . S
C114 O115 1.313 . S
O115 C114 1.313 . S
O116 Mg104 2.141 . S
O116 C107 1.289 . S
Mg117 O124 2.141 . S
Mg117 O125 2.048 . S
Mg117 O126 2.048 . S
Mg117 O129 2.141 . S
C118 O119 1.313 . S
C118 O125 1.195 . S
O119 C118 1.313 . S
C120 O121 1.245 . S
C120 O129 1.289 . S
O121 C120 1.245 . S
C122 O123 1.245 . S
C122 O124 1.289 . S
O123 C122 1.245 . S
O124 Mg117 2.141 . S
O124 C122 1.289 . S
O125 Mg117 2.048 . S
O125 C118 1.195 . S
O126 Mg117 2.048 . S
O126 C127 1.195 . S
C127 O126 1.195 . S
C127 O128 1.313 . S
O128 C127 1.313 . S
O129 Mg117 2.141 . S
O129 C120 1.289 . S
Mg130 O137 2.141 . S
Mg130 O138 2.048 . S
Mg130 O139 2.048 . S
Mg130 O142 2.141 . S
C131 O132 1.313 . S
C131 O138 1.195 . S
O132 C131 1.313 . S
C133 O134 1.245 . S
C133 O142 1.289 . S
O134 C133 1.245 . S
C135 O136 1.245 . S
C135 O137 1.289 . S
O136 C135 1.245 . S
O137 Mg130 2.141 . S
O137 C135 1.289 . S
O138 Mg130 2.048 . S
O138 C131 1.195 . S
O139 Mg130 2.048 . S
O139 C140 1.195 . S
C140 O139 1.195 . S
C140 O141 1.313 . S
O141 C140 1.313 . S
O142 Mg130 2.141 . S
O142 C133 1.289 . S
Mg143 O150 2.141 . S
Mg143 O151 2.048 . S
Mg143 O152 2.048 . S
Mg143 O155 2.141 . S
C144 O145 1.313 . S
C144 O151 1.195 . S
O145 C144 1.313 . S
C146 O147 1.245 . S
C146 O155 1.289 . S
O147 C146 1.245 . S
C148 O149 1.245 . S
C148 O150 1.289 . S
O149 C148 1.245 . S
O150 Mg143 2.141 . S
O150 C148 1.289 . S
O151 Mg143 2.048 . S
O151 C144 1.195 . S
O152 Mg143 2.048 . S
O152 C153 1.195 . S
C153 O152 1.195 . S
C153 O154 1.313 . S
O154 C153 1.313 . S
O155 Mg143 2.141 . S
O155 C146 1.289 . S
Mg156 O163 2.141 . S
Mg156 O164 2.048 . S
Mg156 O165 2.048 . S
Mg156 O168 2.141 . S
C157 O158 1.313 . S
C157 O164 1.195 . S
O158 C157 1.313 . S
C159 O160 1.245 . S
C159 O168 1.289 . S
O160 C159 1.245 . S
C161 O162 1.245 . S
C161 O163 1.289 . S
O162 C161 1.245 . S
O163 Mg156 2.141 . S
O163 C161 1.289 . S
O164 Mg156 2.048 . S
O164 C157 1.195 . S
O165 Mg156 2.048 . S
O165 C166 1.195 . S
C166 O165 1.195 . S
C166 O167 1.313 . S
O167 C166 1.313 . S
O168 Mg156 2.141 . S
O168 C159 1.289 . S
Mg169 O176 2.141 . S
Mg169 O177 2.048 . S
Mg169 O178 2.048 . S
Mg169 O181 2.141 . S
C170 O171 1.313 . S
C170 O177 1.195 . S
O171 C170 1.313 . S
C172 O173 1.245 . S
C172 O181 1.289 . S
O173 C172 1.245 . S
C174 O175 1.245 . S
C174 O176 1.289 . S
O175 C174 1.245 . S
O176 Mg169 2.141 . S
O176 C174 1.289 . S
O177 Mg169 2.048 . S
O177 C170 1.195 . S
O178 Mg169 2.048 . S
O178 C179 1.195 . S
C179 O178 1.195 . S
C179 O180 1.313 . S
O180 C179 1.313 . S
O181 Mg169 2.141 . S
O181 C172 1.289 . S
Mg182 O189 2.141 . S
Mg182 O190 2.048 . S
Mg182 O191 2.048 . S
Mg182 O194 2.141 . S
C183 O184 1.313 . S
C183 O190 1.195 . S
O184 C183 1.313 . S
C185 O186 1.245 . S
C185 O194 1.289 . S
O186 C185 1.245 . S
C187 O188 1.245 . S
C187 O189 1.289 . S
O188 C187 1.245 . S
O189 Mg182 2.141 . S
O189 C187 1.289 . S
O190 Mg182 2.048 . S
O190 C183 1.195 . S
O191 Mg182 2.048 . S
O191 C192 1.195 . S
C192 O191 1.195 . S
C192 O193 1.313 . S
O193 C192 1.313 . S
O194 Mg182 2.141 . S
O194 C185 1.289 . S
Mg195 O202 2.141 . S
Mg195 O203 2.048 . S
Mg195 O204 2.048 . S
Mg195 O207 2.141 . S
C196 O197 1.313 . S
C196 O203 1.195 . S
O197 C196 1.313 . S
C198 O199 1.245 . S
C198 O207 1.289 . S
O199 C198 1.245 . S
C200 O201 1.245 . S
C200 O202 1.289 . S
O201 C200 1.245 . S
O202 Mg195 2.141 . S
O202 C200 1.289 . S
O203 Mg195 2.048 . S
O203 C196 1.195 . S
O204 Mg195 2.048 . S
O204 C205 1.195 . S
C205 O204 1.195 . S
C205 O206 1.313 . S
O206 C205 1.313 . S
O207 Mg195 2.141 . S
O207 C198 1.289 . S
Mg208 O215 2.141 . S
Mg208 O216 2.048 . S
Mg208 O217 2.048 . S
Mg208 O220 2.141 . S
C209 O210 1.313 . S
C209 O216 1.195 . S
O210 C209 1.313 . S
C211 O212 1.245 . S
C211 O220 1.289 . S
O212 C211 1.245 . S
C213 O214 1.245 . S
C213 O215 1.289 . S
O214 C213 1.245 . S
O215 Mg208 2.141 . S
O215 C213 1.289 . S
O216 Mg208 2.048 . S
O216 C209 1.195 . S
O217 Mg208 2.048 . S
O217 C218 1.195 . S
C218 O217 1.195 . S
C218 O219 1.313 . S
O219 C218 1.313 . S
O220 Mg208 2.141 . S
O220 C211 1.289 . S
Mg221 O228 2.141 . S
Mg221 O229 2.048 . S
Mg221 O230 2.048 . S
Mg221 O233 2.141 . S
C222 O223 1.313 . S
C222 O229 1.195 . S
O223 C222 1.313 . S
C224 O225 1.245 . S
C224 O233 1.289 . S
O225 C224 1.245 . S
C226 O227 1.245 . S
C226 O228 1.289 . S
O227 C226 1.245 . S
O228 Mg221 2.141 . S
O228 C226 1.289 . S
O229 Mg221 2.048 . S
O229 C222 1.195 . S
O230 Mg221 2.048 . S
O230 C231 1.195 . S
C231 O230 1.195 . S
C231 O232 1.313 . S
O232 C231 1.313 . S
O233 Mg221 2.141 . S
O233 C224 1.289 . S
H234 C246 0.930 . S
H235 C248 0.930 . S
H236 C249 0.930 . S
H237 C253 0.959 1_655 S
H238 C253 0.959 . S
H239 C253 0.961 . S
H240 C254 0.960 . S
H241 C254 0.961 . S
H242 C254 0.959 . S
H243 C257 0.929 . S
H244 C258 0.931 . S
H245 C260 0.930 . S
C246 H234 0.930 . S
C246 C247 1.399 . S
C246 C251 1.399 . S
C247 C246 1.399 . S
C247 C248 1.376 . S
C248 H235 0.930 . S
C248 C247 1.376 . S
C248 C249 1.388 . S
C249 H236 0.930 . S
C249 C248 1.388 . S
C249 C250 1.390 . S
C250 C249 1.390 . S
C250 C251 1.394 . S
C250 C256 1.465 . S
C251 C246 1.399 . S
C251 C250 1.394 . S
C251 C252 1.516 . S
C252 C251 1.516 . S
C252 C253 1.502 . S
C252 C254 1.561 . S
C252 C255 1.526 . S
C253 H237 0.959 1_455 S
C253 H238 0.959 . S
C253 H239 0.961 . S
C253 C252 1.502 . S
C254 H240 0.960 . S
C254 H241 0.961 . S
C254 H242 0.959 . S
C254 C252 1.561 . S
C255 C252 1.526 . S
C255 C256 1.396 . S
C255 C260 1.390 . S
C256 C250 1.465 . S
C256 C255 1.396 . S
C256 C257 1.399 . S
C257 H243 0.929 . S
C257 C256 1.399 . S
C257 C258 1.385 . S
C258 H244 0.931 . S
C258 C257 1.385 . S
C258 C259 1.389 . S
C259 C258 1.389 . S
C259 C260 1.387 . S
C260 H245 0.930 . S
C260 C255 1.390 . S
C260 C259 1.387 . S
H261 C273 0.930 . S
H262 C275 0.930 . S
H263 C276 0.930 . S
H264 C280 0.959 . S
H265 C280 0.959 . S
H266 C280 0.961 . S
H267 C281 0.960 . S
H268 C281 0.961 . S
H269 C281 0.959 . S
H270 C284 0.929 . S
H271 C285 0.931 . S
H272 C287 0.930 . S
C273 H261 0.930 . S
C273 C274 1.399 . S
C273 C278 1.399 . S
C274 C273 1.399 . S
C274 C275 1.376 . S
C275 H262 0.930 . S
C275 C274 1.376 . S
C275 C276 1.388 . S
C276 H263 0.930 . S
C276 C275 1.388 . S
C276 C277 1.390 . S
C277 C276 1.390 . S
C277 C278 1.394 . S
C277 C283 1.465 . S
C278 C273 1.399 . S
C278 C277 1.394 . S
C278 C279 1.516 . S
C279 C278 1.516 . S
C279 C280 1.502 . S
C279 C281 1.561 . S
C279 C282 1.526 . S
C280 H264 0.959 . S
C280 H265 0.959 . S
C280 H266 0.961 . S
C280 C279 1.502 . S
C281 H267 0.960 . S
C281 H268 0.961 . S
C281 H269 0.959 . S
C281 C279 1.561 . S
C282 C279 1.526 . S
C282 C283 1.396 . S
C282 C287 1.390 . S
C283 C277 1.465 . S
C283 C282 1.396 . S
C283 C284 1.399 . S
C284 H270 0.929 . S
C284 C283 1.399 . S
C284 C285 1.385 . S
C285 H271 0.931 . S
C285 C284 1.385 . S
C285 C286 1.389 . S
C286 C285 1.389 . S
C286 C287 1.387 . S
C287 H272 0.930 . S
C287 C282 1.390 . S
C287 C286 1.387 . S
H288 C300 0.930 . S
H289 C302 0.930 . S
H290 C303 0.930 . S
H291 C307 0.959 . S
H292 C307 0.959 . S
H293 C307 0.961 . S
H294 C308 0.960 . S
H295 C308 0.961 . S
H296 C308 0.959 . S
H297 C311 0.929 . S
H298 C312 0.931 . S
H299 C314 0.930 . S
C300 H288 0.930 . S
C300 C301 1.399 1_545 S
C300 C305 1.399 . S
C301 C300 1.399 1_565 S
C301 C302 1.376 . S
C302 H289 0.930 . S
C302 C301 1.376 . S
C302 C303 1.388 . S
C303 H290 0.930 . S
C303 C302 1.388 . S
C303 C304 1.390 . S
C304 C303 1.390 . S
C304 C305 1.394 1_565 S
C304 C310 1.465 . S
C305 C300 1.399 . S
C305 C304 1.394 1_545 S
C305 C306 1.516 . S
C306 C305 1.516 . S
C306 C307 1.502 . S
C306 C308 1.561 . S
C306 C309 1.526 . S
C307 H291 0.959 . S
C307 H292 0.959 . S
C307 H293 0.961 . S
C307 C306 1.502 . S
C308 H294 0.960 . S
C308 H295 0.961 . S
C308 H296 0.959 . S
C308 C306 1.561 . S
C309 C306 1.526 . S
C309 C310 1.396 1_545 S
C309 C314 1.390 . S
C310 C304 1.465 . S
C310 C309 1.396 1_565 S
C310 C311 1.399 . S
C311 H297 0.929 . S
C311 C310 1.399 . S
C311 C312 1.385 . S
C312 H298 0.931 . S
C312 C311 1.385 . S
C312 C313 1.389 1_565 S
C313 C312 1.389 1_545 S
C313 C314 1.387 . S
C314 H299 0.930 . S
C314 C309 1.390 . S
C314 C313 1.387 . S
H315 C327 0.930 . S
H316 C329 0.930 . S
H317 C330 0.930 . S
H318 C334 0.959 . S
H319 C334 0.959 . S
H320 C334 0.961 . S
H321 C335 0.960 . S
H322 C335 0.961 . S
H323 C335 0.959 . S
H324 C338 0.929 . S
H325 C339 0.931 . S
H326 C341 0.930 . S
C327 H315 0.930 . S
C327 C328 1.399 . S
C327 C332 1.399 . S
C328 C327 1.399 . S
C328 C329 1.376 . S
C329 H316 0.930 . S
C329 C328 1.376 . S
C329 C330 1.388 . S
C330 H317 0.930 . S
C330 C329 1.388 . S
C330 C331 1.390 . S
C331 C330 1.390 . S
C331 C332 1.394 . S
C331 C337 1.465 . S
C332 C327 1.399 . S
C332 C331 1.394 . S
C332 C333 1.516 . S
C333 C332 1.516 . S
C333 C334 1.502 1_455 S
C333 C335 1.561 . S
C333 C336 1.526 . S
C334 H318 0.959 . S
C334 H319 0.959 . S
C334 H320 0.961 . S
C334 C333 1.502 1_655 S
C335 H321 0.960 . S
C335 H322 0.961 . S
C335 H323 0.959 . S
C335 C333 1.561 . S
C336 C333 1.526 . S
C336 C337 1.396 . S
C336 C341 1.390 . S
C337 C331 1.465 . S
C337 C336 1.396 . S
C337 C338 1.399 . S
C338 H324 0.929 . S
C338 C337 1.399 . S
C338 C339 1.385 . S
C339 H325 0.931 . S
C339 C338 1.385 . S
C339 C340 1.389 . S
C340 C339 1.389 . S
C340 C341 1.387 . S
C341 H326 0.930 . S
C341 C336 1.390 . S
C341 C340 1.387 . S
H342 C354 0.930 . S
H343 C356 0.930 . S
H344 C357 0.930 . S
H345 C361 0.959 . S
H346 C361 0.959 . S
H347 C361 0.961 . S
H348 C362 0.960 . S
H349 C362 0.961 . S
H350 C362 0.959 . S
H351 C365 0.929 . S
H352 C366 0.931 . S
H353 C368 0.930 . S
C354 H342 0.930 . S
C354 C355 1.399 . S
C354 C359 1.399 . S
C355 C354 1.399 . S
C355 C356 1.376 . S
C356 H343 0.930 . S
C356 C355 1.376 . S
C356 C357 1.388 . S
C357 H344 0.930 . S
C357 C356 1.388 . S
C357 C358 1.390 . S
C358 C357 1.390 . S
C358 C359 1.394 . S
C358 C364 1.465 . S
C359 C354 1.399 . S
C359 C358 1.394 . S
C359 C360 1.516 . S
C360 C359 1.516 . S
C360 C361 1.502 . S
C360 C362 1.561 . S
C360 C363 1.526 . S
C361 H345 0.959 . S
C361 H346 0.959 . S
C361 H347 0.961 . S
C361 C360 1.502 . S
C362 H348 0.960 . S
C362 H349 0.961 . S
C362 H350 0.959 . S
C362 C360 1.561 . S
C363 C360 1.526 . S
C363 C364 1.396 . S
C363 C368 1.390 . S
C364 C358 1.465 . S
C364 C363 1.396 . S
C364 C365 1.399 . S
C365 H351 0.929 . S
C365 C364 1.399 . S
C365 C366 1.385 . S
C366 H352 0.931 . S
C366 C365 1.385 . S
C366 C367 1.389 . S
C367 C366 1.389 . S
C367 C368 1.387 . S
C368 H353 0.930 . S
C368 C363 1.390 . S
C368 C367 1.387 . S
H369 C381 0.930 . S
H370 C383 0.930 . S
H371 C384 0.930 . S
H372 C388 0.959 . S
H373 C388 0.959 . S
H374 C388 0.961 . S
H375 C389 0.960 . S
H376 C389 0.961 . S
H377 C389 0.959 . S
H378 C392 0.929 . S
H379 C393 0.931 . S
H380 C395 0.930 . S
C381 H369 0.930 . S
C381 C382 1.399 . S
C381 C386 1.399 . S
C382 C381 1.399 . S
C382 C383 1.376 1_545 S
C383 H370 0.930 . S
C383 C382 1.376 1_565 S
C383 C384 1.388 . S
C384 H371 0.930 . S
C384 C383 1.388 . S
C384 C385 1.407 . S
C385 C384 1.407 . S
C385 C386 1.373 1_565 S
C385 C391 1.465 . S
C386 C381 1.399 . S
C386 C385 1.373 1_545 S
C386 C387 1.516 . S
C387 C386 1.516 . S
C387 C388 1.502 . S
C387 C389 1.561 . S
C387 C390 1.526 . S
C388 H372 0.959 . S
C388 H373 0.959 . S
C388 H374 0.961 . S
C388 C387 1.502 . S
C389 H375 0.960 . S
C389 H376 0.961 . S
C389 H377 0.959 . S
C389 C387 1.561 . S
C390 C387 1.526 . S
C390 C391 1.377 1_545 S
C390 C395 1.390 . S
C391 C385 1.465 . S
C391 C390 1.377 1_565 S
C391 C392 1.414 . S
C392 H378 0.929 . S
C392 C391 1.414 . S
C392 C393 1.385 . S
C393 H379 0.931 . S
C393 C392 1.385 . S
C393 C394 1.389 1_565 S
C394 C393 1.389 1_545 S
C394 C395 1.387 . S
C395 H380 0.930 . S
C395 C390 1.390 . S
C395 C394 1.387 . S
H396 C408 0.930 . S
H397 C410 0.930 . S
H398 C411 0.930 . S
H399 C415 0.959 . S
H400 C415 0.959 . S
H401 C415 0.961 . S
H402 C416 0.960 . S
H403 C416 0.961 . S
H404 C416 0.959 . S
H405 C419 0.929 . S
H406 C420 0.931 . S
H407 C422 0.930 . S
C408 H396 0.930 . S
C408 C409 1.399 . S
C408 C413 1.399 . S
C409 C408 1.399 . S
C409 C410 1.376 . S
C410 H397 0.930 . S
C410 C409 1.376 . S
C410 C411 1.388 . S
C411 H398 0.930 . S
C411 C410 1.388 . S
C411 C412 1.390 . S
C412 C411 1.390 . S
C412 C413 1.394 . S
C412 C418 1.465 . S
C413 C408 1.399 . S
C413 C412 1.394 . S
C413 C414 1.516 . S
C414 C413 1.516 . S
C414 C415 1.502 . S
C414 C416 1.561 . S
C414 C417 1.526 . S
C415 H399 0.959 . S
C415 H400 0.959 . S
C415 H401 0.961 . S
C415 C414 1.502 . S
C416 H402 0.960 . S
C416 H403 0.961 . S
C416 H404 0.959 . S
C416 C414 1.561 . S
C417 C414 1.526 . S
C417 C418 1.396 . S
C417 C422 1.390 . S
C418 C412 1.465 . S
C418 C417 1.396 . S
C418 C419 1.399 . S
C419 H405 0.929 . S
C419 C418 1.399 . S
C419 C420 1.385 . S
C420 H406 0.931 . S
C420 C419 1.385 . S
C420 C421 1.389 . S
C421 C420 1.389 . S
C421 C422 1.387 . S
C422 H407 0.930 . S
C422 C417 1.390 . S
C422 C421 1.387 . S
H423 C435 0.930 . S
H424 C437 0.930 . S
H425 C438 0.930 . S
H426 C442 0.959 . S
H427 C442 0.959 . S
H428 C442 0.961 . S
H429 C443 0.960 . S
H430 C443 0.961 . S
H431 C443 0.959 . S
H432 C446 0.929 . S
H433 C447 0.931 . S
H434 C449 0.930 . S
C435 H423 0.930 . S
C435 C436 1.399 . S
C435 C440 1.399 . S
C436 C435 1.399 . S
C436 C437 1.376 . S
C437 H424 0.930 . S
C437 C436 1.376 . S
C437 C438 1.388 . S
C438 H425 0.930 . S
C438 C437 1.388 . S
C438 C439 1.390 . S
C439 C438 1.390 . S
C439 C440 1.394 . S
C439 C445 1.465 . S
C440 C435 1.399 . S
C440 C439 1.394 . S
C440 C441 1.516 . S
C441 C440 1.516 . S
C441 C442 1.502 . S
C441 C443 1.561 . S
C441 C444 1.526 . S
C442 H426 0.959 . S
C442 H427 0.959 . S
C442 H428 0.961 . S
C442 C441 1.502 . S
C443 H429 0.960 . S
C443 H430 0.961 . S
C443 H431 0.959 . S
C443 C441 1.561 . S
C444 C441 1.526 . S
C444 C445 1.396 . S
C444 C449 1.390 . S
C445 C439 1.465 . S
C445 C444 1.396 . S
C445 C446 1.399 . S
C446 H432 0.929 . S
C446 C445 1.399 . S
C446 C447 1.385 . S
C447 H433 0.931 . S
C447 C446 1.385 . S
C447 C448 1.389 . S
C448 C447 1.389 . S
C448 C449 1.387 . S
C449 H434 0.930 . S
C449 C444 1.390 . S
C449 C448 1.387 . S
H450 C462 0.930 . S
H451 C464 0.930 . S
H452 C465 0.930 . S
H453 C469 0.959 . S
H454 C469 0.959 . S
H455 C469 0.961 . S
H456 C470 0.960 . S
H457 C470 0.961 . S
H458 C470 0.959 . S
H459 C473 0.929 . S
H460 C474 0.931 . S
H461 C476 0.930 . S
C462 H450 0.930 . S
C462 C463 1.399 . S
C462 C467 1.399 . S
C463 C462 1.399 . S
C463 C464 1.376 . S
C464 H451 0.930 . S
C464 C463 1.376 . S
C464 C465 1.388 . S
C465 H452 0.930 . S
C465 C464 1.388 . S
C465 C466 1.390 . S
C466 C465 1.390 . S
C466 C467 1.394 . S
C466 C472 1.465 . S
C467 C462 1.399 . S
C467 C466 1.394 . S
C467 C468 1.516 . S
C468 C467 1.516 . S
C468 C469 1.502 . S
C468 C470 1.561 . S
C468 C471 1.526 . S
C469 H453 0.959 . S
C469 H454 0.959 . S
C469 H455 0.961 . S
C469 C468 1.502 . S
C470 H456 0.960 . S
C470 H457 0.961 . S
C470 H458 0.959 . S
C470 C468 1.561 . S
C471 C468 1.526 . S
C471 C472 1.396 . S
C471 C476 1.390 . S
C472 C466 1.465 . S
C472 C471 1.396 . S
C472 C473 1.399 . S
C473 H459 0.929 . S
C473 C472 1.399 . S
C473 C474 1.385 . S
C474 H460 0.931 . S
C474 C473 1.385 . S
C474 C475 1.389 . S
C475 C474 1.389 . S
C475 C476 1.387 . S
C476 H461 0.930 . S
C476 C471 1.390 . S
C476 C475 1.387 . S
H477 C489 0.930 . S
H478 C491 0.930 . S
H479 C492 0.930 . S
H480 C496 0.959 . S
H481 C496 0.959 . S
H482 C496 0.961 . S
H483 C497 0.960 . S
H484 C497 0.961 . S
H485 C497 0.959 . S
H486 C500 0.929 . S
H487 C501 0.931 1_556 S
H488 C503 0.930 . S
C489 H477 0.930 . S
C489 C490 1.399 . S
C489 C494 1.399 . S
C490 C489 1.399 . S
C490 C491 1.376 . S
C491 H478 0.930 . S
C491 C490 1.376 . S
C491 C492 1.388 . S
C492 H479 0.930 . S
C492 C491 1.388 . S
C492 C493 1.390 . S
C493 C492 1.390 . S
C493 C494 1.394 . S
C493 C499 1.465 . S
C494 C489 1.399 . S
C494 C493 1.394 . S
C494 C495 1.516 . S
C495 C494 1.516 . S
C495 C496 1.502 . S
C495 C497 1.561 . S
C495 C498 1.526 . S
C496 H480 0.959 . S
C496 H481 0.959 . S
C496 H482 0.961 . S
C496 C495 1.502 . S
C497 H483 0.960 . S
C497 H484 0.961 . S
C497 H485 0.959 . S
C497 C495 1.561 . S
C498 C495 1.526 . S
C498 C499 1.396 . S
C498 C503 1.390 . S
C499 C493 1.465 . S
C499 C498 1.396 . S
C499 C500 1.399 . S
C500 H486 0.929 . S
C500 C499 1.399 . S
C500 C501 1.385 . S
C501 H487 0.931 1_554 S
C501 C500 1.385 . S
C501 C502 1.389 . S
C502 C501 1.389 . S
C502 C503 1.387 . S
C503 H488 0.930 . S
C503 C498 1.390 . S
C503 C502 1.387 . S
H504 C516 0.930 . S
H505 C518 0.930 1_556 S
H506 C519 0.930 . S
H507 C523 0.959 . S
H508 C523 0.959 . S
H509 C523 0.961 . S
H510 C524 0.960 . S
H511 C524 0.961 . S
H512 C524 0.959 . S
H513 C527 0.929 . S
H514 C528 0.931 . S
H515 C530 0.930 . S
C516 H504 0.930 . S
C516 C517 1.385 1_554 S
C516 C521 1.399 . S
C517 C516 1.385 1_556 S
C517 C518 1.369 1_556 S
C518 H505 0.930 1_554 S
C518 C517 1.369 1_554 S
C518 C519 1.388 . S
C519 H506 0.930 . S
C519 C518 1.388 . S
C519 C520 1.390 . S
C520 C519 1.390 . S
C520 C521 1.394 . S
C520 C526 1.465 . S
C521 C516 1.399 . S
C521 C520 1.394 . S
C521 C522 1.516 . S
C522 C521 1.516 . S
C522 C523 1.502 . S
C522 C524 1.561 . S
C522 C525 1.526 . S
C523 H507 0.959 . S
C523 H508 0.959 . S
C523 H509 0.961 . S
C523 C522 1.502 . S
C524 H510 0.960 . S
C524 H511 0.961 . S
C524 H512 0.959 . S
C524 C522 1.561 . S
C525 C522 1.526 . S
C525 C526 1.396 . S
C525 C530 1.390 . S
C526 C520 1.465 . S
C526 C525 1.396 . S
C526 C527 1.399 . S
C527 H513 0.929 . S
C527 C526 1.399 . S
C527 C528 1.385 . S
C528 H514 0.931 . S
C528 C527 1.385 . S
C528 C529 1.389 . S
C529 C528 1.389 . S
C529 C530 1.387 . S
C530 H515 0.930 . S
C530 C525 1.390 . S
C530 C529 1.387 . S
H531 C543 0.930 . S
H532 C545 0.930 1_556 S
H533 C546 0.930 . S
H534 C550 0.959 . S
H535 C550 0.959 . S
H536 C550 0.961 . S
H537 C551 0.960 . S
H538 C551 0.961 . S
H539 C551 0.959 . S
H540 C554 0.929 . S
H541 C555 0.931 . S
H542 C557 0.930 . S
C543 H531 0.930 . S
C543 C544 1.406 . S
C543 C548 1.399 . S
C544 C543 1.406 . S
C544 C545 1.380 . S
C545 H532 0.930 1_554 S
C545 C544 1.380 . S
C545 C546 1.388 . S
C546 H533 0.930 . S
C546 C545 1.388 . S
C546 C547 1.390 . S
C547 C546 1.390 . S
C547 C548 1.394 . S
C547 C553 1.465 . S
C548 C543 1.399 . S
C548 C547 1.394 . S
C548 C549 1.516 . S
C549 C548 1.516 . S
C549 C550 1.502 . S
C549 C551 1.561 . S
C549 C552 1.526 . S
C550 H534 0.959 . S
C550 H535 0.959 . S
C550 H536 0.961 . S
C550 C549 1.502 . S
C551 H537 0.960 . S
C551 H538 0.961 . S
C551 H539 0.959 . S
C551 C549 1.561 . S
C552 C549 1.526 . S
C552 C553 1.396 . S
C552 C557 1.390 . S
C553 C547 1.465 . S
C553 C552 1.396 . S
C553 C554 1.399 . S
C554 H540 0.929 . S
C554 C553 1.399 . S
C554 C555 1.385 . S
C555 H541 0.931 . S
C555 C554 1.385 . S
C555 C556 1.389 . S
C556 C555 1.389 . S
C556 C557 1.387 . S
C557 H542 0.930 . S
C557 C552 1.390 . S
C557 C556 1.387 . S
H558 C570 0.930 . S
H559 C572 0.930 . S
H560 C573 0.930 1_556 S
H561 C577 0.959 . S
H562 C577 0.959 . S
H563 C577 0.961 . S
H564 C578 0.960 . S
H565 C578 0.961 . S
H566 C578 0.959 . S
H567 C581 0.929 . S
H568 C582 0.931 . S
H569 C584 0.930 . S
C570 H558 0.930 . S
C570 C571 1.399 . S
C570 C575 1.399 1_554 S
C571 C570 1.399 . S
C571 C572 1.376 . S
C572 H559 0.930 . S
C572 C571 1.376 . S
C572 C573 1.388 . S
C573 H560 0.930 1_554 S
C573 C572 1.388 . S
C573 C574 1.390 1_554 S
C574 C573 1.390 1_556 S
C574 C575 1.394 . S
C574 C580 1.465 . S
C575 C570 1.399 1_556 S
C575 C574 1.394 . S
C575 C576 1.516 . S
C576 C575 1.516 . S
C576 C577 1.502 . S
C576 C578 1.561 . S
C576 C579 1.526 . S
C577 H561 0.959 . S
C577 H562 0.959 . S
C577 H563 0.961 . S
C577 C576 1.502 . S
C578 H564 0.960 . S
C578 H565 0.961 . S
C578 H566 0.959 . S
C578 C576 1.561 . S
C579 C576 1.526 . S
C579 C580 1.396 . S
C579 C584 1.390 . S
C580 C574 1.465 . S
C580 C579 1.396 . S
C580 C581 1.399 . S
C581 H567 0.929 . S
C581 C580 1.399 . S
C581 C582 1.385 . S
C582 H568 0.931 . S
C582 C581 1.385 . S
C582 C583 1.389 . S
C583 C582 1.389 . S
C583 C584 1.387 . S
C584 H569 0.930 . S
C584 C579 1.390 . S
C584 C583 1.387 . S
H585 C597 0.930 . S
H586 C599 0.930 . S
H587 C600 0.930 . S
H588 C604 0.959 . S
H589 C604 0.959 . S
H590 C604 0.961 . S
H591 C605 0.960 . S
H592 C605 0.961 . S
H593 C605 0.959 . S
H594 C608 0.929 1_556 S
H595 C609 0.931 . S
H596 C611 0.930 . S
C597 H585 0.930 . S
C597 C598 1.399 . S
C597 C602 1.399 . S
C598 C597 1.399 . S
C598 C599 1.376 . S
C599 H586 0.930 . S
C599 C598 1.376 . S
C599 C600 1.388 . S
C600 H587 0.930 . S
C600 C599 1.388 . S
C600 C601 1.390 . S
C601 C600 1.390 . S
C601 C602 1.394 . S
C601 C607 1.465 . S
C602 C597 1.399 . S
C602 C601 1.394 . S
C602 C603 1.516 . S
C603 C602 1.516 . S
C603 C604 1.502 . S
C603 C605 1.561 . S
C603 C606 1.526 . S
C604 H588 0.959 . S
C604 H589 0.959 . S
C604 H590 0.961 . S
C604 C603 1.502 . S
C605 H591 0.960 . S
C605 H592 0.961 . S
C605 H593 0.959 . S
C605 C603 1.561 . S
C606 C603 1.526 . S
C606 C607 1.396 . S
C606 C611 1.390 1_556 S
C607 C601 1.465 . S
C607 C606 1.396 . S
C607 C608 1.399 1_556 S
C608 H594 0.929 1_554 S
C608 C607 1.399 1_554 S
C608 C609 1.385 . S
C609 H595 0.931 . S
C609 C608 1.385 . S
C609 C610 1.389 . S
C610 C609 1.389 . S
C610 C611 1.387 . S
C611 H596 0.930 . S
C611 C606 1.390 1_554 S
C611 C610 1.387 . S
H612 C624 0.930 . S
H613 C626 0.930 . S
H614 C627 0.934 . S
H615 C631 0.959 . S
H616 C631 0.959 . S
H617 C631 0.961 . S
H618 C632 0.960 . S
H619 C632 0.961 . S
H620 C632 0.959 . S
H621 C635 0.929 . S
H622 C636 0.931 . S
H623 C638 0.930 . S
C624 H612 0.930 . S
C624 C625 1.399 . S
C624 C629 1.399 1_554 S
C625 C624 1.399 . S
C625 C626 1.376 . S
C626 H613 0.930 . S
C626 C625 1.376 . S
C626 C627 1.388 . S
C627 H614 0.934 . S
C627 C626 1.388 . S
C627 C628 1.390 1_554 S
C628 C627 1.390 1_556 S
C628 C629 1.394 . S
C628 C634 1.465 . S
C629 C624 1.399 1_556 S
C629 C628 1.394 . S
C629 C630 1.516 . S
C630 C629 1.516 . S
C630 C631 1.502 . S
C630 C632 1.561 . S
C630 C633 1.526 . S
C631 H615 0.959 . S
C631 H616 0.959 . S
C631 H617 0.961 . S
C631 C630 1.502 . S
C632 H618 0.960 . S
C632 H619 0.961 . S
C632 H620 0.959 . S
C632 C630 1.561 . S
C633 C630 1.526 . S
C633 C634 1.396 . S
C633 C638 1.390 . S
C634 C628 1.465 . S
C634 C633 1.396 . S
C634 C635 1.399 . S
C635 H621 0.929 . S
C635 C634 1.399 . S
C635 C636 1.385 . S
C636 H622 0.931 . S
C636 C635 1.385 . S
C636 C637 1.389 . S
C637 C636 1.389 . S
C637 C638 1.387 . S
C638 H623 0.930 . S
C638 C633 1.390 . S
C638 C637 1.387 . S
H639 C651 0.930 . S
H640 C653 0.930 . S
H641 C654 0.930 . S
H642 C658 0.959 . S
H643 C658 0.959 . S
H644 C658 0.961 . S
H645 C659 0.960 . S
H646 C659 0.961 . S
H647 C659 0.959 . S
H648 C662 0.929 . S
H649 C663 0.931 . S
H650 C665 0.930 . S
C651 H639 0.930 . S
C651 C652 1.399 . S
C651 C656 1.399 . S
C652 C651 1.399 . S
C652 C653 1.376 . S
C653 H640 0.930 . S
C653 C652 1.376 . S
C653 C654 1.388 . S
C654 H641 0.930 . S
C654 C653 1.388 . S
C654 C655 1.390 . S
C655 C654 1.390 . S
C655 C656 1.394 . S
C655 C661 1.465 . S
C656 C651 1.399 . S
C656 C655 1.394 . S
C656 C657 1.516 . S
C657 C656 1.516 . S
C657 C658 1.502 . S
C657 C659 1.561 . S
C657 C660 1.526 . S
C658 H642 0.959 . S
C658 H643 0.959 . S
C658 H644 0.961 . S
C658 C657 1.502 . S
C659 H645 0.960 . S
C659 H646 0.961 . S
C659 H647 0.959 . S
C659 C657 1.561 . S
C660 C657 1.526 . S
C660 C661 1.396 . S
C660 C665 1.390 . S
C661 C655 1.465 . S
C661 C660 1.396 . S
C661 C662 1.399 . S
C662 H648 0.929 . S
C662 C661 1.399 . S
C662 C663 1.385 . S
C663 H649 0.931 . S
C663 C662 1.385 . S
C663 C664 1.389 . S
C664 C663 1.389 . S
C664 C665 1.387 . S
C665 H650 0.930 . S
C665 C660 1.390 . S
C665 C664 1.387 . S
H666 C678 0.930 . S
H667 C680 0.930 . S
H668 C681 0.930 . S
H669 C685 0.959 . S
H670 C685 0.959 . S
H671 C685 0.961 . S
H672 C686 0.960 . S
H673 C686 0.961 . S
H674 C686 0.959 . S
H675 C689 0.929 . S
H676 C690 0.931 . S
H677 C692 0.930 . S
C678 H666 0.930 . S
C678 C679 1.399 . S
C678 C683 1.399 . S
C679 C678 1.399 . S
C679 C680 1.376 . S
C680 H667 0.930 . S
C680 C679 1.376 . S
C680 C681 1.388 . S
C681 H668 0.930 . S
C681 C680 1.388 . S
C681 C682 1.390 . S
C682 C681 1.390 . S
C682 C683 1.394 . S
C682 C688 1.465 . S
C683 C678 1.399 . S
C683 C682 1.394 . S
C683 C684 1.516 . S
C684 C683 1.516 . S
C684 C685 1.502 . S
C684 C686 1.561 . S
C684 C687 1.526 . S
C685 H669 0.959 . S
C685 H670 0.959 . S
C685 H671 0.961 . S
C685 C684 1.502 . S
C686 H672 0.960 . S
C686 H673 0.961 . S
C686 H674 0.959 . S
C686 C684 1.561 . S
C687 C684 1.526 . S
C687 C688 1.396 . S
C687 C692 1.390 . S
C688 C682 1.465 . S
C688 C687 1.396 . S
C688 C689 1.399 . S
C689 H675 0.929 . S
C689 C688 1.399 . S
C689 C690 1.385 . S
C690 H676 0.931 . S
C690 C689 1.385 . S
C690 C691 1.389 . S
C691 C690 1.389 . S
C691 C692 1.387 . S
C692 H677 0.930 . S
C692 C687 1.390 . S
C692 C691 1.387 . S
H693 C705 0.930 . S
H694 C707 0.930 . S
H695 C708 0.930 . S
H696 C712 0.959 . S
H697 C712 0.959 . S
H698 C712 0.961 . S
H699 C713 0.960 . S
H700 C713 0.961 . S
H701 C713 0.959 . S
H702 C716 0.929 . S
H703 C717 0.931 . S
H704 C719 0.930 . S
C705 H693 0.930 . S
C705 C706 1.399 . S
C705 C710 1.399 . S
C706 C705 1.399 . S
C706 C707 1.376 . S
C707 H694 0.930 . S
C707 C706 1.376 . S
C707 C708 1.388 . S
C708 H695 0.930 . S
C708 C707 1.388 . S
C708 C709 1.390 . S
C709 C708 1.390 . S
C709 C710 1.394 . S
C709 C715 1.465 . S
C710 C705 1.399 . S
C710 C709 1.394 . S
C710 C711 1.516 . S
C711 C710 1.516 . S
C711 C712 1.502 . S
C711 C713 1.561 . S
C711 C714 1.526 . S
C712 H696 0.959 . S
C712 H697 0.959 . S
C712 H698 0.961 . S
C712 C711 1.502 . S
C713 H699 0.960 . S
C713 H700 0.961 . S
C713 H701 0.959 . S
C713 C711 1.561 . S
C714 C711 1.526 . S
C714 C715 1.396 . S
C714 C719 1.390 . S
C715 C709 1.465 . S
C715 C714 1.396 . S
C715 C716 1.399 . S
C716 H702 0.929 . S
C716 C715 1.399 . S
C716 C717 1.385 . S
C717 H703 0.931 . S
C717 C716 1.385 . S
C717 C718 1.389 . S
C718 C717 1.389 . S
C718 C719 1.387 . S
C719 H704 0.930 . S
C719 C714 1.390 . S
C719 C718 1.387 . S
H720 C732 0.930 1_554 S
H721 C734 0.930 . S
H722 C735 0.930 . S
H723 C739 0.959 . S
H724 C739 0.959 . S
H725 C739 0.961 . S
H726 C740 0.960 . S
H727 C740 0.961 . S
H728 C740 0.959 . S
H729 C743 0.929 . S
H730 C744 0.931 . S
H731 C746 0.930 . S
C732 H720 0.930 1_556 S
C732 C733 1.399 . S
C732 C737 1.399 . S
C733 C732 1.399 . S
C733 C734 1.376 . S
C734 H721 0.930 . S
C734 C733 1.376 . S
C734 C735 1.388 . S
C735 H722 0.930 . S
C735 C734 1.388 . S
C735 C736 1.390 . S
C736 C735 1.390 . S
C736 C737 1.394 . S
C736 C742 1.465 . S
C737 C732 1.399 . S
C737 C736 1.394 . S
C737 C738 1.516 . S
C738 C737 1.516 . S
C738 C739 1.502 1_556 S
C738 C740 1.561 . S
C738 C741 1.526 . S
C739 H723 0.959 . S
C739 H724 0.959 . S
C739 H725 0.961 . S
C739 C738 1.502 1_554 S
C740 H726 0.960 . S
C740 H727 0.961 . S
C740 H728 0.959 . S
C740 C738 1.561 . S
C741 C738 1.526 . S
C741 C742 1.396 . S
C741 C746 1.390 . S
C742 C736 1.465 . S
C742 C741 1.396 . S
C742 C743 1.399 . S
C743 H729 0.929 . S
C743 C742 1.399 . S
C743 C744 1.385 . S
C744 H730 0.931 . S
C744 C743 1.385 . S
C744 C745 1.389 . S
C745 C744 1.389 . S
C745 C746 1.387 . S
C746 H731 0.930 . S
C746 C741 1.390 . S
C746 C745 1.387 . S
H747 C759 0.930 . S
H748 C761 0.930 . S
H749 C762 0.930 . S
H750 C766 0.959 1_556 S
H751 C766 0.959 . S
H752 C766 0.961 . S
H753 C767 0.960 . S
H754 C767 0.961 . S
H755 C767 0.959 . S
H756 C770 0.929 . S
H757 C771 0.931 . S
H758 C773 0.930 . S
C759 H747 0.930 . S
C759 C760 1.399 . S
C759 C764 1.399 . S
C760 C759 1.399 . S
C760 C761 1.376 . S
C761 H748 0.930 . S
C761 C760 1.376 . S
C761 C762 1.388 . S
C762 H749 0.930 . S
C762 C761 1.388 . S
C762 C763 1.390 . S
C763 C762 1.390 . S
C763 C764 1.394 . S
C763 C769 1.465 . S
C764 C759 1.399 . S
C764 C763 1.394 . S
C764 C765 1.516 . S
C765 C764 1.516 . S
C765 C766 1.502 1_556 S
C765 C767 1.561 1_556 S
C765 C768 1.526 . S
C766 H750 0.959 1_554 S
C766 H751 0.959 . S
C766 H752 0.961 . S
C766 C765 1.502 1_554 S
C767 H753 0.960 . S
C767 H754 0.961 . S
C767 H755 0.959 . S
C767 C765 1.561 1_554 S
C768 C765 1.526 . S
C768 C769 1.396 . S
C768 C773 1.390 1_556 S
C769 C763 1.465 . S
C769 C768 1.396 . S
C769 C770 1.399 . S
C770 H756 0.929 . S
C770 C769 1.399 . S
C770 C771 1.385 . S
C771 H757 0.931 . S
C771 C770 1.385 . S
C771 C772 1.389 . S
C772 C771 1.389 . S
C772 C773 1.387 1_556 S
C773 H758 0.930 . S
C773 C768 1.390 1_554 S
C773 C772 1.387 1_554 S
H774 C786 0.930 . S
H775 C788 0.930 . S
H776 C789 0.930 . S
H777 C793 0.959 . S
H778 C793 0.959 . S
H779 C793 0.961 . S
H780 C794 0.960 . S
H781 C794 0.961 . S
H782 C794 0.959 . S
H783 C797 0.929 . S
H784 C798 0.931 . S
H785 C800 0.930 . S
C786 H774 0.930 . S
C786 C787 1.399 . S
C786 C791 1.399 . S
C787 C786 1.399 . S
C787 C788 1.376 . S
C788 H775 0.930 . S
C788 C787 1.376 . S
C788 C789 1.388 . S
C789 H776 0.930 . S
C789 C788 1.388 . S
C789 C790 1.390 . S
C790 C789 1.390 . S
C790 C791 1.394 . S
C790 C796 1.465 . S
C791 C786 1.399 . S
C791 C790 1.394 . S
C791 C792 1.516 . S
C792 C791 1.516 . S
C792 C793 1.502 . S
C792 C794 1.561 . S
C792 C795 1.526 . S
C793 H777 0.959 . S
C793 H778 0.959 . S
C793 H779 0.961 . S
C793 C792 1.502 . S
C794 H780 0.960 . S
C794 H781 0.961 . S
C794 H782 0.959 . S
C794 C792 1.561 . S
C795 C792 1.526 . S
C795 C796 1.396 . S
C795 C800 1.390 . S
C796 C790 1.465 . S
C796 C795 1.396 . S
C796 C797 1.399 1_556 S
C797 H783 0.929 . S
C797 C796 1.399 1_554 S
C797 C798 1.385 . S
C798 H784 0.931 . S
C798 C797 1.385 . S
C798 C799 1.389 1_554 S
C799 C798 1.389 1_556 S
C799 C800 1.387 . S
C800 H785 0.930 . S
C800 C795 1.390 . S
C800 C799 1.387 . S
H801 C813 0.930 . S
H802 C815 0.930 . S
H803 C816 0.930 . S
H804 C820 0.959 . S
H805 C820 0.959 . S
H806 C820 0.961 . S
H807 C821 0.960 . S
H808 C821 0.961 . S
H809 C821 0.959 . S
H810 C824 0.929 . S
H811 C825 0.931 . S
H812 C827 0.930 . S
C813 H801 0.930 . S
C813 C814 1.399 . S
C813 C818 1.399 . S
C814 C813 1.399 . S
C814 C815 1.376 . S
C815 H802 0.930 . S
C815 C814 1.376 . S
C815 C816 1.388 . S
C816 H803 0.930 . S
C816 C815 1.388 . S
C816 C817 1.390 . S
C817 C816 1.390 . S
C817 C818 1.394 . S
C817 C823 1.465 . S
C818 C813 1.399 . S
C818 C817 1.394 . S
C818 C819 1.516 . S
C819 C818 1.516 . S
C819 C820 1.502 . S
C819 C821 1.561 . S
C819 C822 1.526 . S
C820 H804 0.959 . S
C820 H805 0.959 . S
C820 H806 0.961 . S
C820 C819 1.502 . S
C821 H807 0.960 . S
C821 H808 0.961 . S
C821 H809 0.959 . S
C821 C819 1.561 . S
C822 C819 1.526 . S
C822 C823 1.396 . S
C822 C827 1.390 . S
C823 C817 1.465 . S
C823 C822 1.396 . S
C823 C824 1.399 . S
C824 H810 0.929 . S
C824 C823 1.399 . S
C824 C825 1.385 . S
C825 H811 0.931 . S
C825 C824 1.385 . S
C825 C826 1.389 . S
C826 C825 1.389 . S
C826 C827 1.387 . S
C827 H812 0.930 . S
C827 C822 1.390 . S
C827 C826 1.387 . S
H828 C840 0.930 . S
H829 C842 0.930 . S
H830 C843 0.930 . S
H831 C847 0.959 . S
H832 C847 0.959 . S
H833 C847 0.961 . S
H834 C848 0.960 . S
H835 C848 0.961 . S
H836 C848 0.959 . S
H837 C851 0.929 . S
H838 C852 0.931 . S
H839 C854 0.930 . S
C840 H828 0.930 . S
C840 C841 1.399 . S
C840 C845 1.399 . S
C841 C840 1.399 . S
C841 C842 1.376 . S
C842 H829 0.930 . S
C842 C841 1.376 . S
C842 C843 1.388 . S
C843 H830 0.930 . S
C843 C842 1.388 . S
C843 C844 1.390 . S
C844 C843 1.390 . S
C844 C845 1.394 . S
C844 C850 1.465 . S
C845 C840 1.399 . S
C845 C844 1.394 . S
C845 C846 1.516 . S
C846 C845 1.516 . S
C846 C847 1.502 . S
C846 C848 1.561 . S
C846 C849 1.526 . S
C847 H831 0.959 . S
C847 H832 0.959 . S
C847 H833 0.961 . S
C847 C846 1.502 . S
C848 H834 0.960 . S
C848 H835 0.961 . S
C848 H836 0.959 . S
C848 C846 1.561 . S
C849 C846 1.526 . S
C849 C850 1.396 . S
C849 C854 1.390 . S
C850 C844 1.465 . S
C850 C849 1.396 . S
C850 C851 1.399 . S
C851 H837 0.929 . S
C851 C850 1.399 . S
C851 C852 1.385 . S
C852 H838 0.931 . S
C852 C851 1.385 . S
C852 C853 1.389 . S
C853 C852 1.389 . S
C853 C854 1.387 . S
C854 H839 0.930 . S
C854 C849 1.390 . S
C854 C853 1.387 . S
H855 C867 0.930 . S
H856 C869 0.930 . S
H857 C870 0.930 . S
H858 C874 0.959 . S
H859 C874 0.959 . S
H860 C874 0.961 . S
H861 C875 0.960 . S
H862 C875 0.961 . S
H863 C875 0.959 . S
H864 C878 0.929 . S
H865 C879 0.931 . S
H866 C881 0.930 . S
C867 H855 0.930 . S
C867 C868 1.399 . S
C867 C872 1.399 . S
C868 C867 1.399 . S
C868 C869 1.376 . S
C869 H856 0.930 . S
C869 C868 1.376 . S
C869 C870 1.388 . S
C870 H857 0.930 . S
C870 C869 1.388 . S
C870 C871 1.390 . S
C871 C870 1.390 . S
C871 C872 1.394 . S
C871 C877 1.465 . S
C872 C867 1.399 . S
C872 C871 1.394 . S
C872 C873 1.516 . S
C873 C872 1.516 . S
C873 C874 1.502 . S
C873 C875 1.561 . S
C873 C876 1.526 . S
C874 H858 0.959 . S
C874 H859 0.959 . S
C874 H860 0.961 . S
C874 C873 1.502 . S
C875 H861 0.960 . S
C875 H862 0.961 . S
C875 H863 0.959 . S
C875 C873 1.561 . S
C876 C873 1.526 . S
C876 C877 1.396 . S
C876 C881 1.390 . S
C877 C871 1.465 . S
C877 C876 1.396 . S
C877 C878 1.399 . S
C878 H864 0.929 . S
C878 C877 1.399 . S
C878 C879 1.385 . S
C879 H865 0.931 . S
C879 C878 1.385 . S
C879 C880 1.389 . S
C880 C879 1.389 . S
C880 C881 1.387 . S
C881 H866 0.930 . S
C881 C876 1.390 . S
C881 C880 1.387 . S
H882 C894 0.930 . S
H883 C896 0.930 . S
H884 C897 0.930 . S
H885 C901 0.959 . S
H886 C901 0.959 . S
H887 C901 0.961 . S
H888 C902 0.960 . S
H889 C902 0.961 . S
H890 C902 0.959 . S
H891 C905 0.929 . S
H892 C906 0.931 1_455 S
H893 C908 0.930 . S
C894 H882 0.930 . S
C894 C895 1.399 . S
C894 C899 1.399 . S
C895 C894 1.399 . S
C895 C896 1.376 . S
C896 H883 0.930 . S
C896 C895 1.376 . S
C896 C897 1.388 . S
C897 H884 0.930 . S
C897 C896 1.388 . S
C897 C898 1.390 . S
C898 C897 1.390 . S
C898 C899 1.394 . S
C898 C904 1.465 . S
C899 C894 1.399 . S
C899 C898 1.394 . S
C899 C900 1.516 . S
C900 C899 1.516 . S
C900 C901 1.502 . S
C900 C902 1.561 . S
C900 C903 1.526 . S
C901 H885 0.959 . S
C901 H886 0.959 . S
C901 H887 0.961 . S
C901 C900 1.502 . S
C902 H888 0.960 . S
C902 H889 0.961 . S
C902 H890 0.959 . S
C902 C900 1.561 . S
C903 C900 1.526 . S
C903 C904 1.396 . S
C903 C908 1.390 . S
C904 C898 1.465 . S
C904 C903 1.396 . S
C904 C905 1.399 . S
C905 H891 0.929 . S
C905 C904 1.399 . S
C905 C906 1.385 . S
C906 H892 0.931 1_655 S
C906 C905 1.385 . S
C906 C907 1.389 . S
C907 C906 1.389 . S
C907 C908 1.387 . S
C908 H893 0.930 . S
C908 C903 1.390 . S
C908 C907 1.387 . S
H909 C921 0.930 . S
H910 C923 0.930 . S
H911 C924 0.930 . S
H912 C928 0.959 . S
H913 C928 0.959 . S
H914 C928 0.961 . S
H915 C929 0.960 . S
H916 C929 0.961 . S
H917 C929 0.959 . S
H918 C932 0.929 . S
H919 C933 0.931 1_556 S
H920 C935 0.930 . S
C921 H909 0.930 . S
C921 C922 1.399 . S
C921 C926 1.399 . S
C922 C921 1.399 . S
C922 C923 1.376 . S
C923 H910 0.930 . S
C923 C922 1.376 . S
C923 C924 1.388 . S
C924 H911 0.930 . S
C924 C923 1.388 . S
C924 C925 1.390 . S
C925 C924 1.390 . S
C925 C926 1.394 . S
C925 C931 1.465 . S
C926 C921 1.399 . S
C926 C925 1.394 . S
C926 C927 1.516 . S
C927 C926 1.516 . S
C927 C928 1.502 . S
C927 C929 1.561 . S
C927 C930 1.526 . S
C928 H912 0.959 . S
C928 H913 0.959 . S
C928 H914 0.961 . S
C928 C927 1.502 . S
C929 H915 0.960 . S
C929 H916 0.961 . S
C929 H917 0.959 . S
C929 C927 1.561 . S
C930 C927 1.526 . S
C930 C931 1.396 . S
C930 C935 1.390 . S
C931 C925 1.465 . S
C931 C930 1.396 . S
C931 C932 1.399 . S
C932 H918 0.929 . S
C932 C931 1.399 . S
C932 C933 1.385 . S
C933 H919 0.931 1_554 S
C933 C932 1.385 . S
C933 C934 1.389 . S
C934 C933 1.389 . S
C934 C935 1.387 . S
C935 H920 0.930 . S
C935 C930 1.390 . S
C935 C934 1.387 . S
H936 C948 0.930 . S
H937 C950 0.930 . S
H938 C951 0.930 . S
H939 C955 0.959 . S
H940 C955 0.959 . S
H941 C955 0.961 . S
H942 C956 0.960 . S
H943 C956 0.960 . S
H944 C956 0.959 . S
H945 C959 0.929 . S
H946 C960 0.931 . S
H947 C962 0.930 . S
C948 H936 0.930 . S
C948 C949 1.399 . S
C948 C953 1.399 . S
C949 C948 1.399 . S
C949 C950 1.376 . S
C950 H937 0.930 . S
C950 C949 1.376 . S
C950 C951 1.388 . S
C951 H938 0.930 . S
C951 C950 1.388 . S
C951 C952 1.390 . S
C952 C951 1.390 . S
C952 C953 1.394 . S
C952 C958 1.465 . S
C953 C948 1.399 . S
C953 C952 1.394 . S
C953 C954 1.516 . S
C954 C953 1.516 . S
C954 C955 1.502 . S
C954 C956 1.561 . S
C954 C957 1.526 . S
C955 H939 0.959 . S
C955 H940 0.959 . S
C955 H941 0.961 . S
C955 C954 1.502 . S
C956 H942 0.960 . S
C956 H943 0.960 . S
C956 H944 0.959 . S
C956 C954 1.561 . S
C957 C954 1.526 . S
C957 C958 1.396 . S
C957 C962 1.390 . S
C958 C952 1.465 . S
C958 C957 1.396 . S
C958 C959 1.399 . S
C959 H945 0.929 . S
C959 C958 1.399 . S
C959 C960 1.385 . S
C960 H946 0.931 . S
C960 C959 1.385 . S
C960 C961 1.389 . S
C961 C960 1.389 . S
C961 C962 1.387 . S
C962 H947 0.930 . S
C962 C957 1.390 . S
C962 C961 1.387 . S
H963 C975 0.930 . S
H964 C977 0.930 . S
H965 C978 0.930 . S
H966 C982 0.959 . S
H967 C982 0.959 . S
H968 C982 0.961 . S
H969 C983 0.960 . S
H970 C983 0.961 . S
H971 C983 0.959 . S
H972 C986 0.929 . S
H973 C987 0.931 . S
H974 C989 0.930 . S
C975 H963 0.930 . S
C975 C976 1.399 . S
C975 C980 1.399 . S
C976 C975 1.399 . S
C976 C977 1.376 . S
C977 H964 0.930 . S
C977 C976 1.376 . S
C977 C978 1.388 . S
C978 H965 0.930 . S
C978 C977 1.388 . S
C978 C979 1.390 . S
C979 C978 1.390 . S
C979 C980 1.394 . S
C979 C985 1.465 . S
C980 C975 1.399 . S
C980 C979 1.394 . S
C980 C981 1.516 . S
C981 C980 1.516 . S
C981 C982 1.502 . S
C981 C983 1.561 . S
C981 C984 1.526 . S
C982 H966 0.959 . S
C982 H967 0.959 . S
C982 H968 0.961 . S
C982 C981 1.502 . S
C983 H969 0.960 . S
C983 H970 0.961 . S
C983 H971 0.959 . S
C983 C981 1.561 . S
C984 C981 1.526 . S
C984 C985 1.396 . S
C984 C989 1.390 . S
C985 C979 1.465 . S
C985 C984 1.396 . S
C985 C986 1.399 . S
C986 H972 0.929 . S
C986 C985 1.399 . S
C986 C987 1.385 . S
C987 H973 0.931 . S
C987 C986 1.385 . S
C987 C988 1.389 . S
C988 C987 1.389 . S
C988 C989 1.387 . S
C989 H974 0.930 . S
C989 C984 1.390 . S
C989 C988 1.387 . S
H990 C1002 0.930 . S
H991 C1004 0.930 . S
H992 C1005 0.930 . S
H993 C1009 0.959 . S
H994 C1009 0.959 . S
H995 C1009 0.961 . S
H996 C1010 0.960 . S
H997 C1010 0.961 . S
H998 C1010 0.959 . S
H999 C1013 0.929 . S
H1000 C1014 0.931 . S
H1001 C1016 0.930 . S
C1002 H990 0.930 . S
C1002 C1003 1.399 . S
C1002 C1007 1.399 . S
C1003 C1002 1.399 . S
C1003 C1004 1.376 . S
C1004 H991 0.930 . S
C1004 C1003 1.376 . S
C1004 C1005 1.388 . S
C1005 H992 0.930 . S
C1005 C1004 1.388 . S
C1005 C1006 1.390 . S
C1006 C1005 1.390 . S
C1006 C1007 1.394 . S
C1006 C1012 1.465 . S
C1007 C1002 1.399 . S
C1007 C1006 1.394 . S
C1007 C1008 1.516 . S
C1008 C1007 1.516 . S
C1008 C1009 1.502 . S
C1008 C1010 1.561 . S
C1008 C1011 1.526 . S
C1009 H993 0.959 . S
C1009 H994 0.959 . S
C1009 H995 0.961 . S
C1009 C1008 1.502 . S
C1010 H996 0.960 . S
C1010 H997 0.961 . S
C1010 H998 0.959 . S
C1010 C1008 1.561 . S
C1011 C1008 1.526 . S
C1011 C1012 1.396 . S
C1011 C1016 1.390 . S
C1012 C1006 1.465 . S
C1012 C1011 1.396 . S
C1012 C1013 1.399 . S
C1013 H999 0.929 . S
C1013 C1012 1.399 . S
C1013 C1014 1.385 . S
C1014 H1000 0.931 . S
C1014 C1013 1.385 . S
C1014 C1015 1.389 . S
C1015 C1014 1.389 . S
C1015 C1016 1.387 . S
C1016 H1001 0.930 . S
C1016 C1011 1.390 . S
C1016 C1015 1.387 . S
H1017 C1029 0.930 . S
H1018 C1031 0.930 . S
H1019 C1032 0.930 . S
H1020 C1036 0.959 . S
H1021 C1036 0.959 . S
H1022 C1036 0.961 . S
H1023 C1037 0.960 . S
H1024 C1037 0.961 . S
H1025 C1037 0.959 . S
H1026 C1040 0.929 . S
H1027 C1041 0.931 . S
H1028 C1043 0.930 . S
C1029 H1017 0.930 . S
C1029 C1030 1.399 . S
C1029 C1034 1.399 . S
C1030 C1029 1.399 . S
C1030 C1031 1.376 . S
C1031 H1018 0.930 . S
C1031 C1030 1.376 . S
C1031 C1032 1.388 . S
C1032 H1019 0.930 . S
C1032 C1031 1.388 . S
C1032 C1033 1.390 . S
C1033 C1032 1.390 . S
C1033 C1034 1.394 . S
C1033 C1039 1.465 . S
C1034 C1029 1.399 . S
C1034 C1033 1.394 . S
C1034 C1035 1.516 . S
C1035 C1034 1.516 . S
C1035 C1036 1.502 . S
C1035 C1037 1.561 . S
C1035 C1038 1.526 . S
C1036 H1020 0.959 . S
C1036 H1021 0.959 . S
C1036 H1022 0.961 . S
C1036 C1035 1.502 . S
C1037 H1023 0.960 . S
C1037 H1024 0.961 . S
C1037 H1025 0.959 . S
C1037 C1035 1.561 . S
C1038 C1035 1.526 . S
C1038 C1039 1.396 . S
C1038 C1043 1.390 . S
C1039 C1033 1.465 . S
C1039 C1038 1.396 . S
C1039 C1040 1.399 . S
C1040 H1026 0.929 . S
C1040 C1039 1.399 . S
C1040 C1041 1.385 . S
C1041 H1027 0.931 . S
C1041 C1040 1.385 . S
C1041 C1042 1.389 . S
C1042 C1041 1.389 . S
C1042 C1043 1.387 . S
C1043 H1028 0.930 . S
C1043 C1038 1.390 . S
C1043 C1042 1.387 . S
H1044 C1056 0.930 . S
H1045 C1058 0.930 . S
H1046 C1059 0.930 . S
H1047 C1063 0.959 . S
H1048 C1063 0.959 . S
H1049 C1063 0.961 . S
H1050 C1064 0.960 . S
H1051 C1064 0.961 . S
H1052 C1064 0.959 . S
H1053 C1067 0.929 . S
H1054 C1068 0.931 . S
H1055 C1070 0.930 . S
C1056 H1044 0.930 . S
C1056 C1057 1.399 . S
C1056 C1061 1.399 . S
C1057 C1056 1.399 . S
C1057 C1058 1.376 . S
C1058 H1045 0.930 . S
C1058 C1057 1.376 . S
C1058 C1059 1.388 . S
C1059 H1046 0.930 . S
C1059 C1058 1.388 . S
C1059 C1060 1.390 . S
C1060 C1059 1.390 . S
C1060 C1061 1.394 . S
C1060 C1066 1.465 . S
C1061 C1056 1.399 . S
C1061 C1060 1.394 . S
C1061 C1062 1.516 . S
C1062 C1061 1.516 . S
C1062 C1063 1.502 . S
C1062 C1064 1.561 . S
C1062 C1065 1.526 . S
C1063 H1047 0.959 . S
C1063 H1048 0.959 . S
C1063 H1049 0.961 . S
C1063 C1062 1.502 . S
C1064 H1050 0.960 . S
C1064 H1051 0.961 . S
C1064 H1052 0.959 . S
C1064 C1062 1.561 . S
C1065 C1062 1.526 . S
C1065 C1066 1.396 . S
C1065 C1070 1.390 . S
C1066 C1060 1.465 . S
C1066 C1065 1.396 . S
C1066 C1067 1.399 . S
C1067 H1053 0.929 . S
C1067 C1066 1.399 . S
C1067 C1068 1.385 . S
C1068 H1054 0.931 . S
C1068 C1067 1.385 . S
C1068 C1069 1.389 . S
C1069 C1068 1.389 . S
C1069 C1070 1.387 . S
C1070 H1055 0.930 . S
C1070 C1065 1.390 . S
C1070 C1069 1.387 . S
H1071 C1083 0.930 . S
H1072 C1085 0.930 . S
H1073 C1086 0.930 . S
H1074 C1090 0.959 . S
H1075 C1090 0.959 . S
H1076 C1090 0.961 . S
H1077 C1091 0.960 . S
H1078 C1091 0.961 . S
H1079 C1091 0.959 . S
H1080 C1094 0.929 . S
H1081 C1095 0.931 . S
H1082 C1097 0.930 . S
C1083 H1071 0.930 . S
C1083 C1084 1.399 . S
C1083 C1088 1.399 . S
C1084 C1083 1.399 . S
C1084 C1085 1.376 . S
C1085 H1072 0.930 . S
C1085 C1084 1.376 . S
C1085 C1086 1.388 . S
C1086 H1073 0.930 . S
C1086 C1085 1.388 . S
C1086 C1087 1.390 . S
C1087 C1086 1.390 . S
C1087 C1088 1.394 . S
C1087 C1093 1.465 1_545 S
C1088 C1083 1.399 . S
C1088 C1087 1.394 . S
C1088 C1089 1.516 . S
C1089 C1088 1.516 . S
C1089 C1090 1.502 . S
C1089 C1091 1.561 . S
C1089 C1092 1.526 1_545 S
C1090 H1074 0.959 . S
C1090 H1075 0.959 . S
C1090 H1076 0.961 . S
C1090 C1089 1.502 . S
C1091 H1077 0.960 . S
C1091 H1078 0.961 . S
C1091 H1079 0.959 . S
C1091 C1089 1.561 . S
C1092 C1089 1.526 1_565 S
C1092 C1093 1.396 . S
C1092 C1097 1.390 . S
C1093 C1087 1.465 1_565 S
C1093 C1092 1.396 . S
C1093 C1094 1.399 . S
C1094 H1080 0.929 . S
C1094 C1093 1.399 . S
C1094 C1095 1.385 . S
C1095 H1081 0.931 . S
C1095 C1094 1.385 . S
C1095 C1096 1.389 . S
C1096 C1095 1.389 . S
C1096 C1097 1.387 . S
C1097 H1082 0.930 . S
C1097 C1092 1.390 . S
C1097 C1096 1.387 . S
H1098 C1110 0.930 . S
H1099 C1112 0.930 . S
H1100 C1113 0.930 . S
H1101 C1117 0.943 1_655 S
H1102 C1117 0.938 1_655 S
H1103 C1117 0.961 . S
H1104 C1118 0.960 . S
H1105 C1118 0.961 . S
H1106 C1118 0.959 . S
H1107 C1121 0.929 . S
H1108 C1122 0.931 . S
H1109 C1124 0.930 . S
C1110 H1098 0.930 . S
C1110 C1111 1.399 . S
C1110 C1115 1.399 . S
C1111 C1110 1.399 . S
C1111 C1112 1.376 . S
C1112 H1099 0.930 . S
C1112 C1111 1.376 . S
C1112 C1113 1.388 . S
C1113 H1100 0.930 . S
C1113 C1112 1.388 . S
C1113 C1114 1.390 . S
C1114 C1113 1.390 . S
C1114 C1115 1.394 . S
C1114 C1120 1.465 1_455 S
C1115 C1110 1.399 . S
C1115 C1114 1.394 . S
C1115 C1116 1.516 . S
C1116 C1115 1.516 . S
C1116 C1117 1.502 . S
C1116 C1118 1.561 . S
C1116 C1119 1.526 1_455 S
C1117 H1101 0.943 1_455 S
C1117 H1102 0.938 1_455 S
C1117 H1103 0.961 . S
C1117 C1116 1.502 . S
C1118 H1104 0.960 . S
C1118 H1105 0.961 . S
C1118 H1106 0.959 . S
C1118 C1116 1.561 . S
C1119 C1116 1.526 1_655 S
C1119 C1120 1.396 . S
C1119 C1124 1.390 . S
C1120 C1114 1.465 1_655 S
C1120 C1119 1.396 . S
C1120 C1121 1.399 . S
C1121 H1107 0.929 . S
C1121 C1120 1.399 . S
C1121 C1122 1.385 . S
C1122 H1108 0.931 . S
C1122 C1121 1.385 . S
C1122 C1123 1.389 . S
C1123 C1122 1.389 . S
C1123 C1124 1.387 . S
C1124 H1109 0.930 . S
C1124 C1119 1.390 . S
C1124 C1123 1.387 . S
H1125 C1137 0.930 . S
H1126 C1139 0.930 . S
H1127 C1140 0.930 . S
H1128 C1144 0.959 . S
H1129 C1144 0.959 . S
H1130 C1144 0.961 . S
H1131 C1145 0.960 . S
H1132 C1145 0.961 . S
H1133 C1145 0.959 . S
H1134 C1148 0.929 . S
H1135 C1149 0.931 . S
H1136 C1151 0.930 . S
C1137 H1125 0.930 . S
C1137 C1138 1.399 . S
C1137 C1142 1.399 . S
C1138 C1137 1.399 . S
C1138 C1139 1.376 . S
C1139 H1126 0.930 . S
C1139 C1138 1.376 . S
C1139 C1140 1.388 . S
C1140 H1127 0.930 . S
C1140 C1139 1.388 . S
C1140 C1141 1.390 . S
C1141 C1140 1.390 . S
C1141 C1142 1.394 . S
C1141 C1147 1.465 . S
C1142 C1137 1.399 . S
C1142 C1141 1.394 . S
C1142 C1143 1.516 . S
C1143 C1142 1.516 . S
C1143 C1144 1.502 . S
C1143 C1145 1.561 . S
C1143 C1146 1.526 . S
C1144 H1128 0.959 . S
C1144 H1129 0.959 . S
C1144 H1130 0.961 . S
C1144 C1143 1.502 . S
C1145 H1131 0.960 . S
C1145 H1132 0.961 . S
C1145 H1133 0.959 . S
C1145 C1143 1.561 . S
C1146 C1143 1.526 . S
C1146 C1147 1.396 . S
C1146 C1151 1.390 . S
C1147 C1141 1.465 . S
C1147 C1146 1.396 . S
C1147 C1148 1.399 . S
C1148 H1134 0.929 . S
C1148 C1147 1.399 . S
C1148 C1149 1.385 . S
C1149 H1135 0.931 . S
C1149 C1148 1.385 . S
C1149 C1150 1.389 . S
C1150 C1149 1.389 . S
C1150 C1151 1.387 . S
C1151 H1136 0.930 . S
C1151 C1146 1.390 . S
C1151 C1150 1.387 . S
H1152 C1164 0.930 . S
H1153 C1166 0.930 . S
H1154 C1167 0.930 . S
H1155 C1171 0.959 . S
H1156 C1171 0.959 . S
H1157 C1171 0.961 1_545 S
H1158 C1172 0.960 . S
H1159 C1172 0.961 1_565 S
H1160 C1172 0.959 . S
H1161 C1175 0.929 1_545 S
H1162 C1176 0.931 . S
H1163 C1178 0.930 . S
C1164 H1152 0.930 . S
C1164 C1165 1.399 . S
C1164 C1169 1.399 . S
C1165 C1164 1.399 . S
C1165 C1166 1.376 . S
C1166 H1153 0.930 . S
C1166 C1165 1.376 . S
C1166 C1167 1.388 . S
C1167 H1154 0.930 . S
C1167 C1166 1.388 . S
C1167 C1168 1.390 . S
C1168 C1167 1.390 . S
C1168 C1169 1.394 . S
C1168 C1174 1.465 . S
C1169 C1164 1.399 . S
C1169 C1168 1.394 . S
C1169 C1170 1.516 . S
C1170 C1169 1.516 . S
C1170 C1171 1.502 1_545 S
C1170 C1172 1.561 . S
C1170 C1173 1.526 1_545 S
C1171 H1155 0.959 . S
C1171 H1156 0.959 . S
C1171 H1157 0.961 1_565 S
C1171 C1170 1.502 1_565 S
C1172 H1158 0.960 . S
C1172 H1159 0.961 1_545 S
C1172 H1160 0.959 . S
C1172 C1170 1.561 . S
C1173 C1170 1.526 1_565 S
C1173 C1174 1.396 1_565 S
C1173 C1178 1.390 . S
C1174 C1168 1.465 . S
C1174 C1173 1.396 1_545 S
C1174 C1175 1.399 1_545 S
C1175 H1161 0.929 1_565 S
C1175 C1174 1.399 1_565 S
C1175 C1176 1.385 . S
C1176 H1162 0.931 . S
C1176 C1175 1.385 . S
C1176 C1177 1.389 . S
C1177 C1176 1.389 . S
C1177 C1178 1.387 . S
C1178 H1163 0.930 . S
C1178 C1173 1.390 . S
C1178 C1177 1.387 . S
H1179 C1191 0.930 . S
H1180 C1193 0.930 . S
H1181 C1194 0.930 . S
H1182 C1198 0.959 . S
H1183 C1198 0.959 . S
H1184 C1198 0.961 . S
H1185 C1199 0.960 . S
H1186 C1199 0.961 . S
H1187 C1199 0.959 . S
H1188 C1202 0.929 . S
H1189 C1203 0.931 . S
H1190 C1205 0.930 . S
C1191 H1179 0.930 . S
C1191 C1192 1.399 . S
C1191 C1196 1.399 . S
C1192 C1191 1.399 . S
C1192 C1193 1.376 . S
C1193 H1180 0.930 . S
C1193 C1192 1.376 . S
C1193 C1194 1.388 . S
C1194 H1181 0.930 . S
C1194 C1193 1.388 . S
C1194 C1195 1.390 . S
C1195 C1194 1.390 . S
C1195 C1196 1.394 . S
C1195 C1201 1.465 1_455 S
C1196 C1191 1.399 . S
C1196 C1195 1.394 . S
C1196 C1197 1.516 . S
C1197 C1196 1.516 . S
C1197 C1198 1.502 . S
C1197 C1199 1.561 . S
C1197 C1200 1.526 1_455 S
C1198 H1182 0.959 . S
C1198 H1183 0.959 . S
C1198 H1184 0.961 . S
C1198 C1197 1.502 . S
C1199 H1185 0.960 . S
C1199 H1186 0.961 . S
C1199 H1187 0.959 . S
C1199 C1197 1.561 . S
C1200 C1197 1.526 1_655 S
C1200 C1201 1.396 . S
C1200 C1205 1.390 . S
C1201 C1195 1.465 1_655 S
C1201 C1200 1.396 . S
C1201 C1202 1.399 . S
C1202 H1188 0.929 . S
C1202 C1201 1.399 . S
C1202 C1203 1.385 . S
C1203 H1189 0.931 . S
C1203 C1202 1.385 . S
C1203 C1204 1.389 . S
C1204 C1203 1.389 . S
C1204 C1205 1.387 . S
C1205 H1190 0.930 . S
C1205 C1200 1.390 . S
C1205 C1204 1.387 . S
C247 C57 1.031 . S
C259 C10 1.042 . S
C274 C70 1.008 . S
C286 C23 1.067 . S
C301 C29 1.063 . S
C313 C44 0.994 . S
C328 C62 1.066 . S
C340 C5 1.079 . S
C355 C75 1.071 . S
C367 C18 1.077 . S
C382 C27 1.075 . S
C394 C49 1.087 . S
C409 C131 1.035 . S
C421 C83 1.013 . S
C436 C144 1.041 . S
C448 C94 1.041 . S
C463 C107 1.069 . S
C475 C127 1.027 . S
C490 C88 1.052 . S
C502 C133 1.056 1_554 S
C517 C146 1.080 . S
C529 C92 1.055 . S
C544 C122 1.009 1_554 S
C556 C105 1.022 . S
C571 C209 1.061 . S
C583 C161 1.028 . S
C598 C172 1.016 . S
C610 C222 1.034 . S
C625 C205 1.039 . S
C637 C185 1.036 . S
C652 C211 1.023 . S
C664 C166 1.057 . S
C679 C224 1.023 . S
C691 C170 1.087 . S
C706 C183 1.024 . S
C718 C200 1.052 . S
C733 C1 1.545 1_556 S
C745 C118 1.573 . S
C760 C140 1.555 . S
C772 C14 1.546 1_556 S
C787 C153 1.530 . S
C799 C31 1.550 1_556 S
C814 C42 1.512 . S
C826 C159 1.551 . S
C841 C174 1.544 . S
C853 C55 1.539 . S
C868 C187 1.556 . S
C880 C68 1.545 . S
C895 C198 1.562 . S
C907 C3 1.556 . S
C922 C213 1.547 . S
C934 C16 1.550 . S
C949 C226 1.542 . S
C961 C36 1.544 . S
C976 C40 1.538 . S
C988 C79 1.579 . S
C1003 C53 1.574 . S
C1015 C101 1.537 . S
C1030 C114 1.574 . S
C1042 C66 1.541 . S
C1057 C196 1.573 . S
C1069 C81 1.544 . S
C1084 C218 1.551 . S
C1096 C96 1.521 . S
C1111 C109 1.534 . S
C1123 C231 1.538 . S
C1138 C157 1.545 . S
C1150 C120 1.534 . S
C1165 C179 1.535 . S
C1177 C135 1.553 . S
C1192 C148 1.538 . S
C1204 C192 1.529 . S
