# Generated by pormake.
# Topology wia, (6)-cn, num edge types: 1
# Building blocks:
#     Node 0, Type 0, BuildingBlock: KUMBUR_clean_sbu_1, # of connection points: 6
#     Node 1, Type 0, BuildingBlock: KUMBUR_clean_sbu_1, # of connection points: 6
#     Node 2, Type 0, BuildingBlock: KUMBUR_clean_sbu_1, # of connection points: 6
#     Node 3, Type 0, BuildingBlock: KUMBUR_clean_sbu_1, # of connection points: 6
#     Node 4, Type 0, BuildingBlock: KUMBUR_clean_sbu_1, # of connection points: 6
#     Node 5, Type 0, BuildingBlock: KUMBUR_clean_sbu_1, # of connection points: 6
#     Node 6, Type 0, BuildingBlock: KUMBUR_clean_sbu_1, # of connection points: 6
#     Node 7, Type 0, BuildingBlock: KUMBUR_clean_sbu_1, # of connection points: 6
#     Node 8, Type 0, BuildingBlock: KUMBUR_clean_sbu_1, # of connection points: 6
#     Node 9, Type 0, BuildingBlock: KUMBUR_clean_sbu_1, # of connection points: 6
#     Node 10, Type 0, BuildingBlock: KUMBUR_clean_sbu_1, # of connection points: 6
#     Node 11, Type 0, BuildingBlock: KUMBUR_clean_sbu_1, # of connection points: 6
#     Node 12, Type 0, BuildingBlock: KUMBUR_clean_sbu_1, # of connection points: 6
#     Node 13, Type 0, BuildingBlock: KUMBUR_clean_sbu_1, # of connection points: 6
#     Node 14, Type 0, BuildingBlock: KUMBUR_clean_sbu_1, # of connection points: 6
#     Node 15, Type 0, BuildingBlock: KUMBUR_clean_sbu_1, # of connection points: 6
#     Edge 16, Type (0, 0), BuildingBlock: UVAHIK_clean_linker_0, # of connection points: 2
#     Edge 17, Type (0, 0), BuildingBlock: UVAHIK_clean_linker_0, # of connection points: 2
#     Edge 18, Type (0, 0), BuildingBlock: UVAHIK_clean_linker_0, # of connection points: 2
#     Edge 19, Type (0, 0), BuildingBlock: UVAHIK_clean_linker_0, # of connection points: 2
#     Edge 20, Type (0, 0), BuildingBlock: UVAHIK_clean_linker_0, # of connection points: 2
#     Edge 21, Type (0, 0), BuildingBlock: UVAHIK_clean_linker_0, # of connection points: 2
#     Edge 22, Type (0, 0), BuildingBlock: UVAHIK_clean_linker_0, # of connection points: 2
#     Edge 23, Type (0, 0), BuildingBlock: UVAHIK_clean_linker_0, # of connection points: 2
#     Edge 24, Type (0, 0), BuildingBlock: UVAHIK_clean_linker_0, # of connection points: 2
#     Edge 25, Type (0, 0), BuildingBlock: UVAHIK_clean_linker_0, # of connection points: 2
#     Edge 26, Type (0, 0), BuildingBlock: UVAHIK_clean_linker_0, # of connection points: 2
#     Edge 27, Type (0, 0), BuildingBlock: UVAHIK_clean_linker_0, # of connection points: 2
#     Edge 28, Type (0, 0), BuildingBlock: UVAHIK_clean_linker_0, # of connection points: 2
#     Edge 29, Type (0, 0), BuildingBlock: UVAHIK_clean_linker_0, # of connection points: 2
#     Edge 30, Type (0, 0), BuildingBlock: UVAHIK_clean_linker_0, # of connection points: 2
#     Edge 31, Type (0, 0), BuildingBlock: UVAHIK_clean_linker_0, # of connection points: 2
#     Edge 32, Type (0, 0), BuildingBlock: UVAHIK_clean_linker_0, # of connection points: 2
#     Edge 33, Type (0, 0), BuildingBlock: UVAHIK_clean_linker_0, # of connection points: 2
#     Edge 34, Type (0, 0), BuildingBlock: UVAHIK_clean_linker_0, # of connection points: 2
#     Edge 35, Type (0, 0), BuildingBlock: UVAHIK_clean_linker_0, # of connection points: 2
#     Edge 36, Type (0, 0), BuildingBlock: UVAHIK_clean_linker_0, # of connection points: 2
#     Edge 37, Type (0, 0), BuildingBlock: UVAHIK_clean_linker_0, # of connection points: 2
#     Edge 38, Type (0, 0), BuildingBlock: UVAHIK_clean_linker_0, # of connection points: 2
#     Edge 39, Type (0, 0), BuildingBlock: UVAHIK_clean_linker_0, # of connection points: 2
#     Edge 40, Type (0, 0), BuildingBlock: UVAHIK_clean_linker_0, # of connection points: 2
#     Edge 41, Type (0, 0), BuildingBlock: UVAHIK_clean_linker_0, # of connection points: 2
#     Edge 42, Type (0, 0), BuildingBlock: UVAHIK_clean_linker_0, # of connection points: 2
#     Edge 43, Type (0, 0), BuildingBlock: UVAHIK_clean_linker_0, # of connection points: 2
#     Edge 44, Type (0, 0), BuildingBlock: UVAHIK_clean_linker_0, # of connection points: 2
#     Edge 45, Type (0, 0), BuildingBlock: UVAHIK_clean_linker_0, # of connection points: 2
#     Edge 46, Type (0, 0), BuildingBlock: UVAHIK_clean_linker_0, # of connection points: 2
#     Edge 47, Type (0, 0), BuildingBlock: UVAHIK_clean_linker_0, # of connection points: 2
#     Edge 48, Type (0, 0), BuildingBlock: UVAHIK_clean_linker_0, # of connection points: 2
#     Edge 49, Type (0, 0), BuildingBlock: UVAHIK_clean_linker_0, # of connection points: 2
#     Edge 50, Type (0, 0), BuildingBlock: UVAHIK_clean_linker_0, # of connection points: 2
#     Edge 51, Type (0, 0), BuildingBlock: UVAHIK_clean_linker_0, # of connection points: 2
#     Edge 52, Type (0, 0), BuildingBlock: UVAHIK_clean_linker_0, # of connection points: 2
#     Edge 53, Type (0, 0), BuildingBlock: UVAHIK_clean_linker_0, # of connection points: 2
#     Edge 54, Type (0, 0), BuildingBlock: UVAHIK_clean_linker_0, # of connection points: 2
#     Edge 55, Type (0, 0), BuildingBlock: UVAHIK_clean_linker_0, # of connection points: 2
#     Edge 56, Type (0, 0), BuildingBlock: UVAHIK_clean_linker_0, # of connection points: 2
#     Edge 57, Type (0, 0), BuildingBlock: UVAHIK_clean_linker_0, # of connection points: 2
#     Edge 58, Type (0, 0), BuildingBlock: UVAHIK_clean_linker_0, # of connection points: 2
#     Edge 59, Type (0, 0), BuildingBlock: UVAHIK_clean_linker_0, # of connection points: 2
#     Edge 60, Type (0, 0), BuildingBlock: UVAHIK_clean_linker_0, # of connection points: 2
#     Edge 61, Type (0, 0), BuildingBlock: UVAHIK_clean_linker_0, # of connection points: 2
#     Edge 62, Type (0, 0), BuildingBlock: UVAHIK_clean_linker_0, # of connection points: 2
#     Edge 63, Type (0, 0), BuildingBlock: UVAHIK_clean_linker_0, # of connection points: 2
# Relax obj value: 0.450
# Max RMSD: 0.283
# Mean RMSD: 0.225
data_MOF--net-wia--node1-KUMBUR_clean_sbu_1--edge1-UVAHIK_clean_linker_0
_symmetry_space_group_name_H-M    P1
_symmetry_Int_Tables_number       1
_symmetry_cell_setting            triclinic
loop_
_symmetry_equiv_pos_as_xyz
'x, y, z'
_cell_length_a     40.63668
_cell_length_b     40.597244
_cell_length_c     103.93642
_cell_angle_alpha  102.71315
_cell_angle_beta   89.348079
_cell_angle_gamma 98.544745
loop_
_atom_site_label
_atom_site_type_symbol
_atom_site_fract_x
_atom_site_fract_y
_atom_site_fract_z
_atom_type_partial_charge
Tb0 Tb 0.09973 0.66673 0.20051 0.0
C1 C 0.04914 0.62638 0.14551 0.0
N2 N 0.03944 0.65253 0.15457 0.0
C3 C 0.04898 0.68913 0.13922 0.0
C4 C 0.05996 0.63087 0.13298 0.0
C5 C 0.03852 0.6835 0.15153 0.0
C6 C 0.06005 0.66282 0.12995 0.0
C7 C 0.05502 0.5665 0.13921 0.0
C8 C 0.04723 0.59476 0.1487 0.0
C9 C 0.06755 0.57123 0.12699 0.0
C10 C 0.06992 0.60333 0.12387 0.0
Tb11 Tb 0.02502 0.64095 0.17461 0.0
N12 N 0.03459 0.591 0.16057 0.0
C13 C 0.04789 0.53399 0.14193 0.0
C14 C 1.02262 0.55881 0.16217 0.0
C15 C 0.03055 0.53002 0.15327 0.0
H16 H 0.02985 0.70395 0.15859 0.0
H17 H 1.02248 0.50475 0.155 0.0
H18 H 0.05426 0.71143 0.22253 0.0
H19 H 0.21958 0.69951 0.17953 0.0
H20 H 1.00676 0.55498 0.17029 0.0
H21 H 0.05346 0.51162 0.13491 0.0
H22 H 0.1691 0.6609 0.18272 0.0
H23 H 0.04858 0.71378 0.1369 0.0
H24 H 0.0741 0.5499 0.11966 0.0
H25 H 0.07852 0.60631 0.11423 0.0
H26 H 0.05948 0.76987 0.23627 0.0
H27 H 0.06827 0.6673 0.12045 0.0
H28 H 0.22856 0.7594 0.19219 0.0
N29 N 0.1001 0.72049 0.2129 0.0
C30 C 0.12855 0.74257 0.21242 0.0
C31 C 0.07894 0.76259 0.22951 0.0
C32 C 0.13273 0.77612 0.22017 0.0
C33 C 0.07586 0.72957 0.22159 0.0
C34 C 0.1074 0.78603 0.22875 0.0
N35 N 0.14784 0.69919 0.19628 0.0
C36 C 0.17174 0.68731 0.18789 0.0
C37 C 0.1819 0.75448 0.20236 0.0
C38 C 0.15281 0.73181 0.2036 0.0
C39 C 0.20588 0.74276 0.19344 0.0
C40 C 0.20083 0.709 0.18624 0.0
H41 H 0.10963 0.81163 0.23486 0.0
H42 H 0.16534 0.8247 0.2248 0.0
H43 H 0.20837 0.80577 0.20923 0.0
O44 O 0.14331 0.65966 0.20961 0.0
O45 O 0.08321 0.71128 0.19332 0.0
O46 O 0.03226 0.69769 0.18162 0.0
O47 O 0.09612 0.65483 0.21918 0.0
O48 O 0.1109 0.63927 0.18095 0.0
O49 O 0.07547 0.66331 0.17062 0.0
O50 O 0.97614 0.62152 0.17905 0.0
O51 O 0.03489 0.6016 0.18575 0.0
O52 O 0.09132 0.61172 0.19008 0.0
O53 O 0.98574 0.64191 0.16186 0.0
O54 O 1.01693 0.66996 0.19426 0.0
O55 O 0.05055 0.65045 0.20737 0.0
C56 C 0.05795 0.72047 0.18736 0.0
C57 C 0.13395 0.61822 0.22232 0.0
C58 C 0.17329 0.58697 0.23025 0.0
C59 C 0.15 0.55698 0.22708 0.0
C60 C 0.11066 0.58821 0.21938 0.0
C61 C 0.11879 0.55771 0.2217 0.0
C62 C 0.16504 0.61739 0.22773 0.0
C63 C 0.10151 0.64786 0.17037 0.0
C64 C 0.12717 0.65044 0.21941 0.0
C65 C 0.1617 0.79876 0.21896 0.0
C66 C 0.18618 0.78799 0.21006 0.0
C67 C 0.06275 0.59059 0.18832 0.0
C68 C 0.93373 0.64641 0.17106 0.0
C69 C 0.88187 0.65416 0.16136 0.0
C70 C 0.88115 0.68389 0.17132 0.0
C71 C 0.93304 0.67624 0.18079 0.0
C72 C 0.90758 0.63477 0.16183 0.0
C73 C 0.90633 0.69445 0.18108 0.0
C74 C 1.02205 0.6592 0.20488 0.0
C75 C 0.96312 0.62921 0.16897 0.0
H76 H 0.15575 0.53319 0.22892 0.0
H77 H 0.08635 0.58829 0.21525 0.0
H78 H 0.10083 0.5346 0.21933 0.0
H79 H 0.18312 0.64052 0.22977 0.0
H80 H 0.8621 0.69988 0.17128 0.0
H81 H 0.95344 0.68587 0.18785 0.0
H82 H 0.90844 0.6113 0.15454 0.0
H83 H 0.90589 0.71766 0.18853 0.0
Tb84 Tb 0.80804 0.91919 0.44815 0.0
C85 C 0.80033 0.97208 0.39362 0.0
N86 N 0.82421 0.96386 0.40078 0.0
C87 C 0.84853 0.9367 0.38084 0.0
C88 C 0.79874 0.96202 0.37976 0.0
C89 C 0.84909 0.94763 0.39461 0.0
C90 C 0.82287 0.94337 0.37339 0.0
C91 C 0.75586 1.00534 0.39333 0.0
C92 C 0.77935 0.99319 0.40024 0.0
C93 C 0.75261 0.99389 0.37955 0.0
C94 C 0.77404 0.97218 0.37276 0.0
Tb95 Tb 0.82089 0.97941 0.42323 0.0
N96 N 0.78401 1.00406 0.41343 0.0
C97 C 0.73744 0.02958 0.40044 0.0
C98 C 0.7677 0.02926 0.42032 0.0
C99 C 0.74379 0.04201 0.41397 0.0
H100 H 0.86899 0.94239 0.40029 0.0
H101 H 0.73032 0.06138 0.41951 0.0
H102 H 0.74042 0.86281 0.44001 0.0
H103 H 0.86529 0.97577 0.49605 0.0
H104 H 0.77257 0.03887 0.43078 0.0
H105 H 0.71911 0.03963 0.39552 0.0
H106 H 0.8643 0.95498 0.47182 0.0
H107 H 0.86785 0.92311 0.376 0.0
H108 H 0.73444 1.00255 0.37403 0.0
H109 H 0.77208 0.96441 0.36211 0.0
H110 H 0.68854 0.84341 0.45068 0.0
H111 H 0.82258 0.93506 0.36274 0.0
H112 H 0.81381 0.96674 0.50862 0.0
N113 N 0.76081 0.89762 0.45743 0.0
C114 C 0.75759 0.90929 0.47053 0.0
C115 C 0.70769 0.86215 0.45638 0.0
C116 C 0.72878 0.89883 0.47711 0.0
C117 C 0.73705 0.87317 0.45037 0.0
C118 C 0.70329 0.87546 0.46978 0.0
N119 N 0.81246 0.93611 0.47064 0.0
C120 C 0.84163 0.95125 0.4772 0.0
C121 C 0.78394 0.94026 0.49126 0.0
C122 C 0.78457 0.92951 0.47744 0.0
C123 C 0.81317 0.95795 0.49798 0.0
C124 C 0.8423 0.96297 0.49093 0.0
H125 H 0.68068 0.86673 0.47445 0.0
H126 H 0.70499 0.90359 0.49609 0.0
H127 H 0.75346 0.94002 0.50852 0.0
O128 O 0.83354 0.88361 0.43577 0.0
O129 O 0.82858 0.97281 0.45446 0.0
O130 O 0.79922 0.99823 0.44214 0.0
O131 O 0.82058 0.8784 0.45551 0.0
O132 O 0.85916 0.94698 0.44654 0.0
O133 O 0.85988 0.94679 0.42458 0.0
O134 O 0.84886 0.02151 0.4174 0.0
O135 O 0.8212 0.92483 0.41678 0.0
O136 O 0.78208 0.90138 0.4291 0.0
O137 O 0.85896 1.00951 0.43596 0.0
O138 O 0.76611 0.96803 0.42769 0.0
O139 O 0.75893 0.93432 0.44351 0.0
C140 C 0.81071 0.99643 0.45361 0.0
C141 C 0.81972 0.82761 0.43931 0.0
C142 C 0.81161 0.77015 0.4433 0.0
C143 C 0.79835 0.7573 0.43046 0.0
C144 C 0.80599 0.81457 0.42652 0.0
C145 C 0.79539 0.77952 0.42214 0.0
C146 C 0.82228 0.80526 0.44763 0.0
C147 C 0.87607 0.94638 0.43553 0.0
C148 C 0.83208 0.86413 0.44423 0.0
C149 C 0.72705 0.91098 0.49082 0.0
C150 C 0.75464 0.93172 0.4979 0.0
C151 C 0.79426 0.90354 0.41757 0.0
C152 C 0.86813 0.06792 0.43536 0.0
C153 C 0.87013 0.12755 0.43413 0.0
C154 C 0.87398 0.13751 0.4479 0.0
C155 C 0.8729 0.07843 0.44914 0.0
C156 C 0.86712 0.09271 0.42797 0.0
C157 C 0.87553 0.11298 0.45535 0.0
C158 C 0.74667 0.95166 0.43556 0.0
C159 C 0.8655 0.03151 0.42859 0.0
H160 H 0.78999 0.73021 0.42693 0.0
H161 H 0.80357 0.83126 0.41988 0.0
H162 H 0.78493 0.76957 0.41228 0.0
H163 H 0.83312 0.81519 0.45747 0.0
H164 H 0.876 0.16416 0.45287 0.0
H165 H 0.8747 0.06003 0.45511 0.0
H166 H 0.8633 0.08476 0.41736 0.0
H167 H 0.8788 0.12076 0.46596 0.0
Tb168 Tb 0.5801 0.66509 0.66705 0.0
C169 C 0.55635 0.64337 0.72744 0.0
N170 N 0.53736 0.63593 0.71628 0.0
C171 C 0.50999 0.58483 0.72212 0.0
C172 C 0.55405 0.62115 0.73619 0.0
C173 C 0.51314 0.60797 0.71382 0.0
C174 C 0.53101 0.59111 0.73322 0.0
C175 C 0.59353 0.68561 0.74273 0.0
C176 C 0.57552 0.67498 0.73066 0.0
C177 C 0.59332 0.66277 0.75114 0.0
C178 C 0.57354 0.63055 0.74787 0.0
Tb179 Tb 0.54521 0.67407 0.70291 0.0
N180 N 0.57392 0.69643 0.72246 0.0
C181 C 0.60983 0.71929 0.74622 0.0
C182 C 0.58794 0.72994 0.72621 0.0
C183 C 0.60655 0.74172 0.73801 0.0
H184 H 0.49687 0.6031 0.70524 0.0
H185 H 0.61824 0.76809 0.74079 0.0
H186 H 0.52857 0.69976 0.65159 0.0
H187 H 0.65169 0.56448 0.64753 0.0
H188 H 0.58534 0.74756 0.72002 0.0
H189 H 0.62397 0.72853 0.7554 0.0
H190 H 0.63945 0.61694 0.66295 0.0
H191 H 0.49141 0.56221 0.71994 0.0
H192 H 0.60729 0.67027 0.7604 0.0
H193 H 0.5725 0.61369 0.75468 0.0
H194 H 0.49348 0.68322 0.63124 0.0
H195 H 0.5284 0.57331 0.73969 0.0
H196 H 0.61396 0.53747 0.62833 0.0
N197 N 0.54834 0.65303 0.64813 0.0
C198 C 0.55065 0.62318 0.63955 0.0
C199 C 0.50927 0.66592 0.63351 0.0
C200 C 0.53134 0.61261 0.62781 0.0
C201 C 0.52911 0.67518 0.64505 0.0
C202 C 0.50993 0.6342 0.62496 0.0
N203 N 0.59479 0.61849 0.65281 0.0
C204 C 0.62293 0.60517 0.6546 0.0
C205 C 0.58094 0.57553 0.63287 0.0
C206 C 0.57496 0.60509 0.642 0.0
C207 C 0.60843 0.56025 0.63511 0.0
C208 C 0.62986 0.57551 0.6459 0.0
H209 H 0.49479 0.62722 0.61599 0.0
H210 H 0.52045 0.57291 0.61003 0.0
H211 H 0.56404 0.5403 0.61448 0.0
O212 O 0.60799 0.68463 0.65253 0.0
O213 O 0.52861 0.66911 0.67188 0.0
O214 O 0.51706 0.63711 0.68689 0.0
O215 O 0.61772 0.70727 0.67313 0.0
O216 O 0.57479 0.61401 0.673 0.0
O217 O 0.55709 0.62091 0.69489 0.0
O218 O 0.50554 0.69725 0.6978 0.0
O219 O 0.59755 0.69342 0.70081 0.0
O220 O 0.61123 0.65581 0.68242 0.0
O221 O 0.50909 0.68584 0.71701 0.0
O222 O 0.56699 0.72251 0.69687 0.0
O223 O 0.55311 0.70899 0.6749 0.0
C224 C 0.51035 0.64381 0.67558 0.0
C225 C 0.66351 0.7109 0.65897 0.0
C226 C 0.71093 0.69847 0.64499 0.0
C227 C 0.7322 0.72159 0.65452 0.0
C228 C 0.68519 0.7342 0.66826 0.0
C229 C 0.71934 0.73921 0.66609 0.0
C230 C 0.67659 0.69304 0.64737 0.0
C231 C 0.56688 0.60157 0.68377 0.0
C232 C 0.62728 0.70717 0.66115 0.0
C233 C 0.53541 0.58183 0.61903 0.0
C234 C 0.56022 0.56327 0.62156 0.0
C235 C 0.61901 0.67579 0.69403 0.0
C236 C 0.48142 0.7316 0.71581 0.0
C237 C 0.43891 0.7593 0.72892 0.0
C238 C 0.45986 0.79087 0.73044 0.0
C239 C 0.50225 0.76305 0.71755 0.0
C240 C 0.44979 0.72998 0.72126 0.0
C241 C 0.49125 0.79267 0.7247 0.0
C242 C 0.56085 0.73247 0.6859 0.0
C243 C 0.49258 0.6994 0.70941 0.0
H244 H 0.7587 0.7265 0.65296 0.0
H245 H 0.6757 0.74858 0.67721 0.0
H246 H 0.73586 0.7571 0.67334 0.0
H247 H 0.66008 0.67481 0.64021 0.0
H248 H 0.45247 0.81396 0.73634 0.0
H249 H 0.527 0.76456 0.71359 0.0
H250 H 0.43388 0.70546 0.71969 0.0
H251 H 0.5074 0.81696 0.72605 0.0
Tb252 Tb 0.81251 0.49115 0.9152 0.0
C253 C 0.84751 0.49156 0.9701 0.0
N254 N 0.85189 0.46573 0.95976 0.0
C255 C 0.9077 0.46733 0.96754 0.0
C256 C 0.87373 0.50789 0.97908 0.0
C257 C 0.88065 0.4517 0.95905 0.0
C258 C 0.90451 0.49617 0.9774 0.0
C259 C 0.80903 0.52352 0.98364 0.0
C260 C 0.81573 0.49905 0.97243 0.0
C261 C 0.83545 0.54184 -0.0079 0.0
C262 C 0.8678 0.53399 -0.01017 0.0
Tb263 Tb 0.80693 0.44522 0.94549 0.0
N264 N 0.791 0.48071 0.96405 0.0
C265 C 0.77589 0.52791 0.98623 0.0
C266 C 0.75844 0.48305 0.96702 0.0
C267 C 0.75043 0.50708 0.97802 0.0
H268 H 0.88285 0.42837 0.95194 0.0
H269 H 0.72467 0.50959 0.98014 0.0
H270 H 0.74309 0.46062 0.89766 0.0
H271 H 0.93688 0.51458 0.89657 0.0
H272 H 0.73867 0.4671 0.96071 0.0
H273 H 0.76964 0.54648 -0.00526 0.0
H274 H 0.88997 0.52798 0.91119 0.0
H275 H 0.93079 0.45681 0.9666 0.0
H276 H 0.83095 0.56116 0.00067 0.0
H277 H 0.88773 0.54725 -0.00327 0.0
H278 H 0.72603 0.42112 0.87625 0.0
H279 H 0.92533 0.50796 0.98408 0.0
H280 H 0.92838 0.46559 0.87733 0.0
N281 N 0.79454 0.45688 0.89523 0.0
C282 C 0.81825 0.44553 0.88689 0.0
C283 C 0.75207 0.4275 0.87918 0.0
C284 C 0.80989 0.42292 0.87463 0.0
C285 C 0.76178 0.44983 0.89128 0.0
C286 C 0.7762 0.41326 0.87096 0.0
N287 N 0.85643 0.4848 0.90118 0.0
C288 C 0.88635 0.50589 0.90306 0.0
C289 C 0.87623 0.45187 0.88118 0.0
C290 C 0.8507 0.45982 0.89009 0.0
C291 C 0.90801 0.47087 0.8839 0.0
C292 C 0.91286 0.4986 0.89472 0.0
H293 H 0.76867 0.396 0.8616 0.0
H294 H 0.82964 0.39445 0.85683 0.0
H295 H 0.88799 0.41987 0.86259 0.0
O296 O 0.81654 0.52707 0.90313 0.0
O297 O 0.78938 0.43798 0.91319 0.0
O298 O 0.82252 0.41901 0.92643 0.0
O299 O 0.78466 0.53159 0.91986 0.0
O300 O 0.86161 0.49192 0.92545 0.0
O301 O 0.85504 0.44421 0.9345 0.0
O302 O 0.77356 0.39941 0.94336 0.0
O303 O 0.79473 0.496 0.94587 0.0
O304 O 0.83555 0.51765 0.93405 0.0
O305 O 0.80966 0.41451 0.95921 0.0
O306 O 0.75603 0.44594 0.9376 0.0
O307 O 0.76022 0.48068 0.92219 0.0
C308 C 0.80482 0.41397 0.91562 0.0
C309 C 0.80611 0.583 0.9133 0.0
C310 C 0.81901 0.63483 0.90465 0.0
C311 C 0.81529 0.65455 0.9174 0.0
C312 C 0.80247 0.60324 0.92591 0.0
C313 C 0.80747 0.63879 0.92795 0.0
C314 C 0.81503 0.59899 0.90284 0.0
C315 C 0.8746 0.46794 0.92977 0.0
C316 C 0.79677 0.54549 0.91036 0.0
C317 C 0.83543 0.41239 0.86619 0.0
C318 C 0.86865 0.42684 0.86948 0.0
C319 C 0.81737 0.52125 0.94449 0.0
C320 C 0.79818 0.35629 0.94945 0.0
C321 C 0.79579 0.29883 0.9532 0.0
C322 C 0.81946 0.29223 0.94332 0.0
C323 C 0.8223 0.34947 0.93986 0.0
C324 C 0.78494 0.33096 0.95608 0.0
C325 C 0.83252 0.31744 0.93669 0.0
C326 C 0.74229 0.4625 0.92981 0.0
C327 C 0.78763 0.3901 0.95286 0.0
H328 H 0.81765 0.68209 0.91923 0.0
H329 H 0.79495 0.59171 0.93411 0.0
H330 H 0.80441 0.65417 0.93769 0.0
H331 H 0.8183 0.58313 0.89321 0.0
H332 H 0.82873 0.26798 0.94101 0.0
H333 H 0.83355 0.36899 0.93494 0.0
H334 H 0.76648 0.33643 0.96355 0.0
H335 H 0.85112 0.31237 0.92927 0.0
Tb336 Tb 0.07665 0.68986 0.80667 0.0
C337 C 1.02382 0.58571 0.75742 0.0
N338 N 0.04769 0.6136 0.75888 0.0
C339 C 0.0829 0.58142 0.74408 0.0
C340 C 0.02921 0.554 0.7496 0.0
C341 C 0.07657 0.61227 0.75207 0.0
C342 C 0.05923 0.55209 0.74291 0.0
C343 C 0.96899 0.56061 0.7628 0.0
C344 C 0.99415 0.58913 0.76395 0.0
C345 C 0.97462 0.52863 0.75538 0.0
C346 C 1.0046 0.52536 0.74875 0.0
Tb347 Tb 0.03382 0.66308 0.77109 0.0
N348 N 0.9894 0.62064 0.7709 0.0
C349 C 0.93855 0.56526 0.7688 0.0
C350 C 0.95861 0.62567 0.77572 0.0
C351 C 0.93317 0.59803 0.77508 0.0
H352 H 0.09471 0.63499 0.75288 0.0
H353 H 0.90914 0.60218 0.77919 0.0
H354 H 1.01934 0.66795 0.82749 0.0
H355 H 0.16391 0.80638 0.81243 0.0
H356 H 0.95282 0.65091 0.77971 0.0
H357 H 0.91861 0.54401 0.76816 0.0
H358 H 0.14369 0.74471 0.80417 0.0
H359 H 0.106 0.58027 0.73883 0.0
H360 H 0.95565 0.50641 0.75447 0.0
H361 H 1.00838 0.50065 0.74291 0.0
H362 H 0.98635 0.69697 0.84531 0.0
H363 H 0.0643 0.52819 0.73678 0.0
H364 H 0.12873 0.84258 0.82716 0.0
N365 N 0.04465 0.71417 0.82335 0.0
C366 C 0.05132 0.74861 0.82748 0.0
C367 C 1.00407 0.71192 0.84022 0.0
C368 C 0.0334 0.76635 0.83774 0.0
C369 C 1.02264 0.69555 0.83004 0.0
C370 C 1.00886 0.74756 0.84388 0.0
N371 N 0.09703 0.74672 0.81352 0.0
C372 C 0.12829 0.76048 0.81055 0.0
C373 C 0.08925 0.80064 0.82753 0.0
C374 C 0.07877 0.76552 0.82248 0.0
C375 C 0.11973 0.81567 0.82348 0.0
C376 C 0.13972 0.7953 0.8152 0.0
H377 H 0.99474 0.7602 0.85189 0.0
H378 H 0.02829 0.81606 0.84986 0.0
H379 H 0.07731 0.84615 0.84089 0.0
O380 O 0.12489 0.67951 0.80991 0.0
O381 O 0.07541 0.732 0.79575 0.0
O382 O 0.02962 0.71662 0.78159 0.0
O383 O 0.08847 0.68031 0.82497 0.0
O384 O 0.10685 0.67295 0.7897 0.0
O385 O 0.08518 0.68849 0.77199 0.0
O386 O 0.99817 0.66086 0.7563 0.0
O387 O 0.05906 0.62433 0.77856 0.0
O388 O 0.05364 0.63516 0.80106 0.0
O389 O 0.04914 0.68201 0.75438 0.0
O390 O 1.00363 0.68521 0.78731 0.0
O391 O 0.02537 0.66412 0.8033 0.0
C392 C 0.05236 0.7404 0.78863 0.0
C393 C 0.14346 0.70481 0.83182 0.0
C394 C 0.20082 0.72513 0.84004 0.0
C395 C 0.18846 0.7484 0.85047 0.0
C396 C 0.13211 0.72871 0.84218 0.0
C397 C 0.15457 0.75049 0.85135 0.0
C398 C 0.17777 0.70388 0.83057 0.0
C399 C 0.11061 0.68532 0.77906 0.0
C400 C 0.11973 0.6806 0.82234 0.0
C401 C 0.04204 0.80189 0.8421 0.0
C402 C 0.06997 0.81903 0.837 0.0
C403 C 0.05579 0.61315 0.7897 0.0
C404 C 1.00762 0.70745 0.74593 0.0
C405 C 0.96323 0.73161 0.7372 0.0
C406 C 0.98498 0.76256 0.7383 0.0
C407 C 0.0288 0.73869 0.74704 0.0
C408 C 0.97492 0.70427 0.74111 0.0
C409 C 1.01743 0.76604 0.74326 0.0
C410 C 1.0019 0.67779 0.79893 0.0
C411 C 1.01895 0.67782 0.74966 0.0
H412 H 0.20453 0.76443 0.85831 0.0
H413 H 0.10586 0.73043 0.84332 0.0
H414 H 0.14557 0.7685 0.8594 0.0
H415 H 0.18607 0.6862 0.82225 0.0
H416 H 0.97716 0.784 0.73519 0.0
H417 H 0.05411 0.74206 0.75081 0.0
H418 H 0.95847 0.68042 0.74061 0.0
H419 H 0.03391 0.78998 0.74409 0.0
Tb420 Tb 0.77857 0.85848 0.06109 0.0
C421 C 0.83992 0.92425 0.01241 0.0
N422 N 0.83646 0.93765 0.02537 0.0
C423 C 0.88866 0.97434 0.02581 0.0
C424 C 0.86846 0.93443 0.00562 0.0
C425 C 0.85964 0.96344 0.03204 0.0
C426 C 0.89334 0.95939 0.01257 0.0
C427 C 0.81446 0.88931 -0.00789 0.0
C428 C 0.81347 0.90228 0.00581 0.0
C429 C 0.84353 0.89769 0.98531 0.0
C430 C 0.87052 0.92029 -0.00793 0.0
Tb431 Tb 0.7899 0.91646 0.0351 0.0
N432 N 0.78575 0.89583 0.01273 0.0
C433 C 0.78579 0.86948 0.98563 0.0
C434 C 0.75706 0.87839 0.00634 0.0
C435 C 0.7568 0.86443 -0.00724 0.0
H436 H 0.85605 0.97498 0.04227 0.0
H437 H 0.73423 0.84989 0.9878 0.0
H438 H 0.72895 0.89516 0.08339 0.0
H439 H 0.87238 0.78143 0.0666 0.0
H440 H 0.73447 0.87457 0.01176 0.0
H441 H 0.78547 0.85892 0.9751 0.0
H442 H 0.829 0.8007 0.0547 0.0
H443 H 0.90736 0.99421 0.0312 0.0
H444 H 0.84498 0.88775 0.97479 0.0
H445 H 0.89238 0.92745 0.98665 0.0
H446 H 0.7293 0.91649 0.10758 0.0
H447 H 0.91572 0.96797 0.00774 0.0
H448 H 0.88323 0.80606 0.09045 0.0
N449 N 0.77487 0.876 0.08345 0.0
C450 C 0.79922 0.86966 0.0909 0.0
C451 C 0.7493 0.90353 0.103 0.0
C452 C 0.80049 0.88104 0.10472 0.0
C453 C 0.74918 0.89143 0.08929 0.0
C454 C 0.77544 0.89891 0.11074 0.0
N455 N 0.81653 0.8366 0.07154 0.0
C456 C 0.83368 0.81156 0.06509 0.0
C457 C 0.84512 0.8387 0.09193 0.0
C458 C 0.82102 0.84899 0.08467 0.0
C459 C 0.86439 0.8147 0.08525 0.0
C460 C 0.85824 0.80064 0.0718 0.0
H461 H 0.77542 0.90816 0.12135 0.0
H462 H 0.8275 0.88166 0.12268 0.0
H463 H 0.86673 0.84441 0.11143 0.0
O464 O 0.75148 0.81701 0.06759 0.0
O465 O 0.77663 0.91291 0.06643 0.0
O466 O 0.81566 0.93647 0.05417 0.0
O467 O 0.74123 0.8264 0.04855 0.0
O468 O 0.83317 0.87062 0.05636 0.0
O469 O 0.83954 0.90352 0.04023 0.0
O470 O 0.76413 0.95295 0.04685 0.0
O471 O 0.77082 0.86222 0.02993 0.0
O472 O 0.80083 0.83821 0.04249 0.0
O473 O 0.77642 0.95532 0.02677 0.0
O474 O 0.73898 0.88882 0.03708 0.0
O475 O 0.73835 0.88932 0.05912 0.0
C476 C 0.80333 0.93456 0.0657 0.0
C477 C 0.7326 0.76872 0.05034 0.0
C478 C 0.72986 0.70996 0.05285 0.0
C479 C 0.72631 0.69835 0.0391 0.0
C480 C 0.7284 0.75656 0.03661 0.0
C481 C 0.72546 0.72161 0.03105 0.0
C482 C 0.73298 0.74519 0.05836 0.0
C483 C 0.85222 0.88689 0.04834 0.0
C484 C 0.73496 0.80555 0.05641 0.0
C485 C 0.82577 0.87283 0.11205 0.0
C486 C 0.8481 0.85162 0.10565 0.0
C487 C 0.79046 0.84019 0.03089 0.0
C488 C 0.77815 1.00761 0.04207 0.0
C489 C 0.78497 0.06428 0.03719 0.0
C490 C 0.80498 0.07708 0.04867 0.0
C491 C 0.79831 0.02076 0.05348 0.0
C492 C 0.77125 0.02952 0.03411 0.0
C493 C 0.81143 0.05541 0.05678 0.0
C494 C 0.72215 0.88935 0.04811 0.0
C495 C 0.76522 0.971 0.03789 0.0
H496 H 0.72403 0.67136 0.0346 0.0
H497 H 0.72721 0.77397 0.03016 0.0
H498 H 0.72248 0.71253 0.02046 0.0
H499 H 0.73637 0.7544 0.06894 0.0
H500 H 0.81632 0.10361 0.05124 0.0
H501 H 0.80421 1.00436 0.05977 0.0
H502 H 0.75537 1.01926 0.02541 0.0
H503 H 0.82709 0.06539 0.06553 0.0
Tb504 Tb 0.58813 0.67789 0.27385 0.0
C505 C 0.54219 0.72618 0.33353 0.0
N506 N 0.55005 0.69684 0.32599 0.0
C507 C 0.58014 0.6877 0.34431 0.0
C508 C 0.55408 0.73838 0.34664 0.0
C509 C 0.56728 0.67655 0.33138 0.0
C510 C 0.57413 0.71914 0.35189 0.0
C511 C 0.50766 0.77071 0.33614 0.0
C512 C 0.51952 0.74203 0.3284 0.0
C513 C 0.52093 0.7845 0.34896 0.0
C514 C 0.54419 0.76836 0.3542 0.0
Tb515 Tb 0.53081 0.68277 0.30458 0.0
N516 N 0.50696 0.72733 0.31616 0.0
C517 C 0.48192 0.78361 0.33093 0.0
C518 C 0.48049 0.73836 0.31132 0.0
C519 C 0.46789 0.76698 0.31855 0.0
H520 H 0.57187 0.65215 0.3256 0.0
H521 H 0.44739 0.77617 0.31457 0.0
H522 H 0.63848 0.75089 0.27701 0.0
H523 H 0.53771 0.58752 0.22978 0.0
H524 H 0.46971 0.72547 0.30176 0.0
H525 H 0.472 0.80562 0.33655 0.0
H526 H 0.55674 0.6057 0.25306 0.0
H527 H 0.59469 0.67205 0.34842 0.0
H528 H 0.5125 0.80683 0.35504 0.0
H529 H 0.55334 0.77846 0.36426 0.0
H530 H 0.65588 0.79358 0.26362 0.0
H531 H 0.58392 0.72762 0.36192 0.0
H532 H 0.54472 0.62894 0.21532 0.0
N533 N 0.60677 0.71783 0.26194 0.0
C534 C 0.59595 0.71143 0.24926 0.0
C535 C 0.63887 0.77062 0.25946 0.0
C536 C 0.60515 0.73489 0.24121 0.0
C537 C 0.6291 0.74633 0.267 0.0
C538 C 0.6264 0.76515 0.24657 0.0
N539 N 0.5726 0.65748 0.25207 0.0
C540 C 0.55952 0.62418 0.24693 0.0
C541 C 0.56819 0.67063 0.23068 0.0
C542 C 0.57798 0.67996 0.24411 0.0
C543 C 0.55269 0.63718 0.22558 0.0
C544 C 0.54879 0.61372 0.23371 0.0
H545 H 0.6341 0.78388 0.24072 0.0
H546 H 0.6004 0.74446 0.22164 0.0
H547 H 0.56784 0.68804 0.2124 0.0
O548 O 0.62175 0.65612 0.28345 0.0
O549 O 0.53606 0.65446 0.27078 0.0
O550 O 0.51312 0.69237 0.28623 0.0
O551 O 0.63182 0.66525 0.26408 0.0
O552 O 0.56217 0.62803 0.27747 0.0
O553 O 0.56009 0.6394 0.30003 0.0
O554 O 0.49447 0.66147 0.31608 0.0
O555 O 0.58356 0.68083 0.30576 0.0
O556 O 0.604 0.71456 0.29219 0.0
O557 O 0.49665 0.63994 0.29531 0.0
O558 O 0.54076 0.7347 0.29919 0.0
O559 O 0.57233 0.7302 0.27999 0.0
C560 C 0.511 0.67051 0.27489 0.0
C561 C 0.67752 0.6727 0.27877 0.0
C562 C 0.73706 0.6703 0.27909 0.0
C563 C 0.74222 0.70298 0.28752 0.0
C564 C 0.6834 0.70553 0.28698 0.0
C565 C 0.71548 0.72036 0.29145 0.0
C566 C 0.70441 0.65512 0.27488 0.0
C567 C 0.56048 0.61703 0.28863 0.0
C568 C 0.64359 0.65656 0.27425 0.0
C569 C 0.59395 0.72666 0.22798 0.0
C570 C 0.57543 0.69454 0.22272 0.0
C571 C 0.6042 0.70672 0.30369 0.0
C572 C 0.44338 0.6364 0.30471 0.0
C573 C 0.39036 0.65064 0.31386 0.0
C574 C 0.37348 0.62671 0.30328 0.0
C575 C 0.42613 0.61233 0.29427 0.0
C576 C 0.42532 0.65572 0.31435 0.0
C577 C 0.39138 0.60763 0.29357 0.0
C578 C 0.55591 0.74842 0.28962 0.0
C579 C 0.47988 0.63946 0.30598 0.0
H580 H 0.76705 0.71574 0.29071 0.0
H581 H 0.66346 0.71999 0.28992 0.0
H582 H 0.71969 0.74569 0.29779 0.0
H583 H 0.69992 0.62982 0.2685 0.0
H584 H 0.34654 0.62219 0.30269 0.0
H585 H 0.4395 0.59688 0.28676 0.0
H586 H 0.43843 0.67459 0.32238 0.0
H587 H 0.37827 0.58881 0.28554 0.0
Tb588 Tb 0.79413 0.38838 0.5348 0.0
C589 C 0.8287 0.36203 0.59631 0.0
N590 N 0.82876 0.34452 0.58361 0.0
C591 C 0.87587 0.31965 0.58835 0.0
C592 C 0.85276 0.35963 0.60557 0.0
C593 C 0.85113 0.32258 0.57958 0.0
C594 C 0.87694 0.33857 0.60137 0.0
C595 C 0.80005 0.39671 0.6135 0.0
C596 C 0.80285 0.38031 0.60019 0.0
C597 C 0.8248 0.39583 0.62271 0.0
C598 C 0.85114 0.37734 0.61875 0.0
Tb599 Tb 0.78892 0.35289 0.56998 0.0
N600 N 0.7792 0.37997 0.59104 0.0
C601 C 0.77189 0.4124 0.61719 0.0
C602 C 0.7507 0.39338 0.5947 0.0
C603 C 0.7469 0.41032 0.60778 0.0
H604 H 0.85012 0.30773 0.56955 0.0
H605 H 0.72467 0.42165 0.6106 0.0
H606 H 0.71876 0.35212 0.52287 0.0
H607 H 0.90919 0.40214 0.50862 0.0
H608 H 0.73131 0.39178 0.58747 0.0
H609 H 0.76877 0.42529 0.62733 0.0
H610 H 0.86973 0.41818 0.52627 0.0
H611 H 0.89399 0.30273 0.58508 0.0
H612 H 0.82331 0.40854 0.63298 0.0
H613 H 0.86955 0.37609 0.62601 0.0
H614 H 0.69432 0.30858 0.50369 0.0
H615 H 0.89593 0.33604 0.60817 0.0
H616 H 0.89294 0.35186 0.49036 0.0
N617 N 0.76885 0.34991 0.51684 0.0
C618 C 0.78892 0.33664 0.50721 0.0
C619 C 0.72103 0.31611 0.50459 0.0
C620 C 0.77605 0.31191 0.49597 0.0
C621 C 0.73505 0.34084 0.51548 0.0
C622 C 0.74166 0.3012 0.49487 0.0
N623 N 0.83218 0.37604 0.51864 0.0
C624 C 0.86244 0.39583 0.51849 0.0
C625 C 0.8435 0.34033 0.49774 0.0
C626 C 0.82202 0.35024 0.50816 0.0
C627 C 0.87567 0.35851 0.49819 0.0
C628 C 0.88487 0.38696 0.50845 0.0
H629 H 0.73073 0.28223 0.4864 0.0
H630 H 0.78847 0.28048 0.47738 0.0
H631 H 0.8477 0.30572 0.47887 0.0
O632 O 0.81516 0.43934 0.53513 0.0
O633 O 0.77758 0.33564 0.53578 0.0
O634 O 0.81081 0.32661 0.552 0.0
O635 O 0.76511 0.42005 0.52806 0.0
O636 O 0.84504 0.38741 0.54332 0.0
O637 O 0.84146 0.36426 0.56252 0.0
O638 O 0.75079 0.31345 0.56138 0.0
O639 O 0.79282 0.40852 0.57572 0.0
O640 O 0.7965 0.39534 0.5551 0.0
O641 O 0.77423 0.3136 0.57996 0.0
O642 O 0.74098 0.36685 0.56329 0.0
O643 O 0.74351 0.38655 0.5434 0.0
C644 C 0.79745 0.31752 0.54003 0.0
C645 C 0.79792 0.45455 0.51603 0.0
C646 C 0.81697 0.49824 0.50378 0.0
C647 C 0.81423 0.47278 0.49203 0.0
C648 C 0.79514 0.42967 0.50417 0.0
C649 C 0.80348 0.43874 0.49227 0.0
C650 C 0.80891 0.48882 0.51582 0.0
C651 C 0.85901 0.37748 0.55326 0.0
C652 C 0.79004 0.44439 0.52857 0.0
C653 C 0.79776 0.2998 0.48602 0.0
C654 C 0.83149 0.31409 0.48689 0.0
C655 C 0.79671 0.4203 0.56526 0.0
C656 C 0.75821 0.25967 0.56573 0.0
C657 C 0.76891 0.20627 0.57105 0.0
C658 C 0.7678 0.19107 0.55749 0.0
C659 C 0.75547 0.24336 0.55232 0.0
C660 C 0.76418 0.24074 0.57501 0.0
C661 C 0.7608 0.20946 0.54823 0.0
C662 C 0.72699 0.37745 0.55358 0.0
C663 C 0.75428 0.29604 0.57033 0.0
H664 H 0.81949 0.47925 0.48258 0.0
H665 H 0.7863 0.40319 0.50406 0.0
H666 H 0.80117 0.41939 0.48318 0.0
H667 H 0.81118 0.50799 0.52498 0.0
H668 H 0.77183 0.16484 0.55402 0.0
H669 H 0.74903 0.25669 0.545 0.0
H670 H 0.76407 0.25284 0.5854 0.0
H671 H 0.75913 0.19727 0.53785 0.0
Tb672 Tb 0.28759 0.35789 0.56827 0.0
C673 C 0.34064 0.39617 0.51329 0.0
N674 N 0.34002 0.41566 0.52562 0.0
C675 C 0.39343 0.44679 0.52256 0.0
C676 C 0.36827 0.40019 0.50519 0.0
C677 C 0.3652 0.44187 0.53016 0.0
C678 C 0.39522 0.42549 0.51009 0.0
C679 C 0.31045 0.35482 0.49545 0.0
C680 C 0.31229 0.37412 0.50852 0.0
C681 C 0.33855 0.35701 0.48748 0.0
C682 C 0.36745 0.37975 0.49234 0.0
Tb683 Tb 0.29455 0.40364 0.53782 0.0
N684 N 0.28564 0.37369 0.51645 0.0
C685 C 0.2801 0.33501 0.49067 0.0
C686 C 0.25541 0.35614 0.51159 0.0
C687 C 0.25231 0.33612 0.49872 0.0
H688 H 0.36392 0.45812 0.53985 0.0
H689 H 0.2285 0.32158 0.49502 0.0
H690 H 0.23522 0.39745 0.58848 0.0
H691 H 0.3915 0.30026 0.58012 0.0
H692 H 0.23377 0.35688 0.51771 0.0
H693 H 0.27759 0.31969 0.48068 0.0
H694 H 0.34403 0.30633 0.56648 0.0
H695 H 0.41377 0.46695 0.52633 0.0
H696 H 0.33782 0.34212 0.47744 0.0
H697 H 0.38856 0.38209 0.48598 0.0
H698 H 0.23551 0.4298 0.61158 0.0
H699 H 0.41699 0.42944 0.50419 0.0
H700 H 0.4028 0.33802 0.60231 0.0
N701 N 0.2842 0.38573 0.58979 0.0
C702 C 0.3105 0.38689 0.59783 0.0
C703 C 0.25693 0.41807 0.60781 0.0
C704 C 0.31184 0.40486 0.6111 0.0
C705 C 0.25689 0.39978 0.59469 0.0
C706 C 0.28483 0.42122 0.61598 0.0
N707 N 0.32991 0.34799 0.5806 0.0
C708 C 0.34892 0.32283 0.57616 0.0
C709 C 0.36082 0.36459 0.60122 0.0
C710 C 0.33447 0.36723 0.59301 0.0
C711 C 0.38219 0.34088 0.59634 0.0
C712 C 0.37578 0.31941 0.58384 0.0
H713 H 0.28481 0.43531 0.62613 0.0
H714 H 0.34118 0.41864 0.62931 0.0
H715 H 0.38421 0.38319 0.62063 0.0
O716 O 0.27031 0.31944 0.57819 0.0
O717 O 0.28344 0.41123 0.56979 0.0
O718 O 0.32168 0.42935 0.55606 0.0
O719 O 0.24884 0.31918 0.55929 0.0
O720 O 0.34067 0.36829 0.56192 0.0
O721 O 0.34466 0.3923 0.54326 0.0
O722 O 0.27027 0.4442 0.54746 0.0
O723 O 0.27366 0.35062 0.53671 0.0
O724 O 0.30609 0.33076 0.54985 0.0
O725 O 0.28356 0.4392 0.52708 0.0
O726 O 0.24357 0.3794 0.54203 0.0
O727 O 0.24444 0.38338 0.56454 0.0
C728 C 0.30983 0.43201 0.56792 0.0
C729 C 0.21329 0.29802 0.57511 0.0
C730 C 0.1806 0.2791 0.59267 0.0
C731 C 0.15125 0.28262 0.58652 0.0
C732 C 0.18375 0.30135 0.56892 0.0
C733 C 0.15292 0.29382 0.57466 0.0
C734 C 0.21129 0.28663 0.58691 0.0
C735 C 0.35839 0.38003 0.55252 0.0
C736 C 0.24652 0.30548 0.56956 0.0
C737 C 0.33934 0.40454 0.61914 0.0
C738 C 0.36385 0.38439 0.61419 0.0
C739 C 0.29338 0.32912 0.53821 0.0
C740 C 0.28834 0.49502 0.54023 0.0
C741 C 0.29324 0.55183 0.53537 0.0
C742 C 0.31917 0.56327 0.5449 0.0
C743 C 0.31409 0.50726 0.54976 0.0
C744 C 0.27791 0.51744 0.5331 0.0
C745 C 0.32933 0.54115 0.55206 0.0
C746 C 0.22775 0.38136 0.55339 0.0
C747 C 0.27294 0.45882 0.53744 0.0
H748 H 0.12732 0.27673 0.59084 0.0
H749 H 0.18441 0.30965 0.5597 0.0
H750 H 0.13028 0.29657 0.56988 0.0
H751 H 0.23384 0.28336 0.59168 0.0
H752 H 0.33214 0.5892 0.54669 0.0
H753 H 0.32271 0.49074 0.55539 0.0
H754 H 0.25783 0.50805 0.52585 0.0
H755 H 0.34934 0.55023 0.55934 0.0
Tb756 Tb 0.28981 0.90217 0.02896 0.0
C757 C 0.32272 0.85936 0.08747 0.0
N758 N 0.32233 0.84464 0.07443 0.0
C759 C 0.36919 0.81755 0.07765 0.0
C760 C 0.34695 0.85443 0.09616 0.0
C761 C 0.34427 0.82286 0.06948 0.0
C762 C 0.37081 0.83376 0.09103 0.0
C763 C 0.29463 0.89046 0.10586 0.0
C764 C 0.29706 0.87715 0.09223 0.0
C765 C 0.31962 0.88718 0.11454 0.0
C766 C 0.34577 0.86922 0.10969 0.0
Tb767 Tb 0.28235 0.85707 0.06187 0.0
N768 N 0.27316 0.87915 0.08355 0.0
C769 C 0.26653 0.90546 0.11036 0.0
C770 C 0.24466 0.89169 0.08795 0.0
C771 C 0.24122 0.90562 0.10138 0.0
H772 H 0.34284 0.81012 0.05916 0.0
H773 H 0.21903 0.91638 0.10479 0.0
H774 H 0.22388 0.86064 0.01086 0.0
H775 H 0.41057 0.94725 0.01177 0.0
H776 H 0.22509 0.89187 0.08103 0.0
H777 H 0.26369 0.91601 0.12076 0.0
H778 H 0.36238 0.94969 0.02663 0.0
H779 H 0.38702 0.80087 0.07365 0.0
H780 H 0.31842 0.89753 0.12504 0.0
H781 H 0.36433 0.86602 0.11653 0.0
H782 H 0.21275 0.82014 -0.01077 0.0
H783 H 0.38993 0.82935 0.09736 0.0
H784 H 0.40935 0.89963 -0.00785 0.0
N785 N 0.27647 0.86623 0.00896 0.0
C786 C 0.30227 0.85951 0.00094 0.0
C787 C 0.23808 0.83081 -0.00755 0.0
C788 C 0.29721 0.83681 0.98852 0.0
C789 C 0.24443 0.85372 0.00467 0.0
C790 C 0.26466 0.82165 0.98447 0.0
N791 N 0.33559 0.90274 0.01598 0.0
C792 C 0.36193 0.92872 0.01812 0.0
C793 C 0.35964 0.87623 -0.00425 0.0
C794 C 0.33308 0.8786 0.00458 0.0
C795 C 0.38841 0.90044 -0.0013 0.0
C796 C 0.38913 0.92745 0.00973 0.0
H797 H 0.25968 0.80408 0.97499 0.0
H798 H 0.3212 0.81397 0.97073 0.0
H799 H 0.37594 0.84881 0.97702 0.0
O800 O 0.29467 0.95585 0.03529 0.0
O801 O 0.27028 0.84876 0.02814 0.0
O802 O 0.30367 0.83495 0.04317 0.0
O803 O 0.27012 0.93003 0.01695 0.0
O804 O 0.34016 0.89764 0.03695 0.0
O805 O 0.33525 0.86993 0.05496 0.0
O806 O 0.24342 0.81982 0.05244 0.0
O807 O 0.28569 0.91186 0.06977 0.0
O808 O 0.29221 0.90544 0.04927 0.0
O809 O 0.26713 0.81481 0.07025 0.0
O810 O 0.23555 0.87503 0.056 0.0
O811 O 0.23723 0.8913 0.03535 0.0
C812 C 0.28941 0.82842 0.03142 0.0
C813 C 0.25406 0.9827 0.02688 0.0
C814 C 0.23691 0.0339 0.02209 0.0
C815 C 0.2059 0.02593 0.0277 0.0
C816 C 0.22245 0.97416 0.03179 0.0
C817 C 0.19881 0.9962 0.03255 0.0
C818 C 0.26121 1.01262 0.02214 0.0
C819 C 0.35341 0.88505 0.04632 0.0
C820 C 0.27879 0.95923 0.02501 0.0
C821 C 0.32443 0.83172 0.98024 0.0
C822 C 0.35563 0.85151 0.98383 0.0
C823 C 0.29089 0.9274 0.06033 0.0
C824 C 0.2483 0.76359 0.05477 0.0
C825 C 0.25092 0.70632 0.05817 0.0
C826 C 0.24994 0.69375 0.04444 0.0
C827 C 0.24585 0.75022 0.0411 0.0
C828 C 0.25069 0.74142 0.06322 0.0
C829 C 0.24748 0.71569 0.03597 0.0
C830 C 0.22099 0.88331 0.04582 0.0
C831 C 0.24638 0.79994 0.06053 0.0
H832 H 0.18661 0.04172 0.02774 0.0
H833 H 0.21585 0.95031 0.03481 0.0
H834 H 0.17452 0.98959 0.03646 0.0
H835 H 0.28536 1.01858 0.01796 0.0
H836 H 0.25015 0.66687 0.04028 0.0
H837 H 0.24198 0.76624 0.03442 0.0
H838 H 0.2506 0.75134 0.07379 0.0
H839 H 0.24588 0.70571 0.02541 0.0
Tb840 Tb 0.30364 0.42798 0.943 0.0
C841 C 0.29208 0.46065 0.8851 0.0
N842 N 0.31671 0.45506 0.89262 0.0
C843 C 0.33865 0.42118 0.8735 0.0
C844 C 0.28874 0.44563 0.87152 0.0
C845 C 0.34086 0.43691 0.88696 0.0
C846 C 0.31205 0.42496 0.8658 0.0
C847 C 0.24814 0.4936 0.88337 0.0
C848 C 0.27224 0.48407 0.89087 0.0
C849 C 0.24299 0.47715 0.86999 0.0
C850 C 0.26328 0.45312 0.86407 0.0
Tb851 Tb 0.31621 0.47876 0.91469 0.0
N852 N 0.27875 0.4997 0.90366 0.0
C853 C 0.23111 0.52029 0.88941 0.0
C854 C 0.26386 0.52719 0.90939 0.0
C855 C 0.23944 0.53757 0.90242 0.0
H856 H 0.3614 0.4338 0.89286 0.0
H857 H 0.22704 0.5588 0.90709 0.0
H858 H 0.2342 0.37353 0.93785 0.0
H859 H 0.36712 0.49485 0.98876 0.0
H860 H 0.27021 0.54045 0.91946 0.0
H861 H 0.21236 0.52847 0.884 0.0
H862 H 0.36303 0.46782 0.96499 0.0
H863 H 0.35736 0.40604 0.86911 0.0
H864 H 0.22428 0.48371 0.86405 0.0
H865 H 0.25993 0.44151 0.85365 0.0
H866 H 0.18345 0.3593 0.95017 0.0
H867 H 0.31042 0.41286 0.85539 0.0
H868 H 0.31715 0.49138 0.00255 0.0
N869 N 0.25713 0.41166 0.95391 0.0
C870 C 0.2557 0.42679 0.96681 0.0
C871 C 0.20351 0.37854 0.95496 0.0
C872 C 0.22758 0.41942 0.9743 0.0
C873 C 0.23221 0.38664 0.94801 0.0
C874 C 0.20094 0.39543 0.96812 0.0
N875 N 0.31093 0.4508 0.96515 0.0
C876 C 0.34098 0.46644 0.97086 0.0
C877 C 0.28495 0.46175 0.98633 0.0
C878 C 0.28379 0.44737 0.97269 0.0
C879 C 0.31514 0.47984 -0.00791 0.0
C880 C 0.34342 0.48173 0.98435 0.0
H881 H 0.17882 0.38898 0.97351 0.0
H882 H 0.20621 0.43017 -0.00628 0.0
H883 H 0.25658 0.46745 0.00428 0.0
O884 O 0.32943 0.39039 0.93204 0.0
O885 O 0.325 0.48179 0.94711 0.0
O886 O 0.29649 0.50378 0.93319 0.0
O887 O 0.31309 0.38796 0.95165 0.0
O888 O 0.35525 0.45335 0.94022 0.0
O889 O 0.35531 0.4479 0.91786 0.0
O890 O 0.34443 0.5153 0.90582 0.0
O891 O 0.31604 0.42406 0.91127 0.0
O892 O 0.27624 0.40591 0.92445 0.0
O893 O 0.35487 0.51278 0.92582 0.0
O894 O 0.26176 0.47092 0.92009 0.0
O895 O 0.25483 0.44243 0.93756 0.0
C896 C 0.30795 0.50502 0.94501 0.0
C897 C 0.31005 0.3356 0.93594 0.0
C898 C 0.29016 0.2795 0.94042 0.0
C899 C 0.28109 0.26716 0.92701 0.0
C900 C 0.30101 0.32258 0.92254 0.0
C901 C 0.28653 0.28862 0.91816 0.0
C902 C 0.30462 0.31384 0.9448 0.0
C903 C 0.3719 0.45085 0.92907 0.0
C904 C 0.32494 0.37169 0.94078 0.0
C905 C 0.22769 0.43514 0.98778 0.0
C906 C 0.25637 0.45636 -0.0062 0.0
C907 C 0.28852 0.4043 0.91271 0.0
C908 C 0.36808 0.56702 0.92049 0.0
C909 C 0.3835 0.62174 0.91413 0.0
C910 C 0.3854 0.6384 0.92755 0.0
C911 C 0.37011 0.58421 0.93384 0.0
C912 C 0.37472 0.58598 0.91075 0.0
C913 C 0.37861 0.61968 0.9373 0.0
C914 C 0.24253 0.45762 0.92884 0.0
C915 C 0.36208 0.52933 0.91655 0.0
H916 H 0.26951 0.24097 0.92338 0.0
H917 H 0.30504 0.33852 0.91542 0.0
H918 H 0.27947 0.27889 0.90786 0.0
H919 H 0.31203 0.32356 0.95509 0.0
H920 H 0.39227 0.66584 0.93051 0.0
H921 H 0.36562 0.5703 0.94161 0.0
H922 H 0.37267 0.57271 0.90047 0.0
H923 H 0.38019 0.6327 0.94761 0.0
Tb924 Tb 0.31412 0.98441 0.42245 0.0
C925 C 0.35372 0.93075 0.47368 0.0
N926 N 0.34661 0.91385 0.46107 0.0
C927 C 0.38802 0.87825 0.46235 0.0
C928 C 0.37933 0.92318 0.48106 0.0
C929 C 0.36209 0.88666 0.45552 0.0
C930 C 0.39715 0.89706 0.4751 0.0
C931 C 0.33677 0.96896 0.49299 0.0
C932 C 0.33282 0.95301 0.47951 0.0
C933 C 0.36375 0.96365 0.50025 0.0
C934 C 0.38501 0.9407 0.49428 0.0
Tb935 Tb 0.30585 0.93054 0.45018 0.0
N936 N 0.3065 0.95609 0.47223 0.0
C937 C 0.31255 0.98821 0.49887 0.0
C938 C 0.28136 0.97237 0.47819 0.0
C939 C 0.28439 0.9894 0.49149 0.0
H940 H 0.355 0.8722 0.44566 0.0
H941 H 0.26489 1.00317 0.49605 0.0
H942 H 0.2607 0.94019 0.39892 0.0
H943 H 0.42773 0.06716 0.41777 0.0
H944 H 0.25924 0.97295 0.47262 0.0
H945 H 0.31463 1.00098 0.50921 0.0
H946 H 0.37673 0.04676 0.42884 0.0
H947 H 0.40092 0.85731 0.45779 0.0
H948 H 0.36751 0.97598 0.51059 0.0
H949 H 0.40485 0.93566 0.50011 0.0
H950 H 0.26233 0.91232 0.37526 0.0
H951 H 0.41703 0.89036 0.48041 0.0
H952 H 0.43936 0.03726 0.39508 0.0
N953 N 0.31225 0.96021 0.40034 0.0
C954 C 0.34044 0.96618 0.39363 0.0
C955 C 0.28464 0.92713 0.38034 0.0
C956 C 0.34247 0.95174 0.38007 0.0
C957 C 0.28386 0.94273 0.39375 0.0
C958 C 0.31432 0.93103 0.37352 0.0
N959 N 0.36082 1.00532 0.41274 0.0
C960 C 0.38188 0.03363 0.41896 0.0
C961 C 0.39419 1.00062 0.39333 0.0
C962 C 0.36578 0.98999 0.4001 0.0
C963 C 0.41721 0.02815 0.39993 0.0
C964 C 0.41066 0.04518 0.41272 0.0
H965 H 0.31478 0.91934 0.3631 0.0
H966 H 0.37407 0.949 0.36302 0.0
H967 H 0.41948 0.99205 0.37467 0.0
O968 O 0.2994 1.01872 0.41206 0.0
O969 O 0.29326 0.93054 0.41857 0.0
O970 O 0.32524 0.90841 0.43115 0.0
O971 O 0.28925 0.0242 0.43268 0.0
O972 O 0.36468 0.97442 0.42803 0.0
O973 O 0.35923 0.9406 0.44384 0.0
O974 O 0.26841 0.89251 0.44011 0.0
O975 O 0.29923 0.98406 0.45429 0.0
O976 O 0.33854 1.00545 0.4417 0.0
O977 O 0.28414 0.89223 0.45977 0.0
O978 O 0.26216 0.9559 0.44722 0.0
O979 O 0.26314 0.95768 0.42518 0.0
C980 C 0.31152 0.9075 0.41976 0.0
C981 C 0.30416 0.07514 0.42493 0.0
C982 C 0.3353 0.12289 0.41699 0.0
C983 C 0.33225 0.14441 0.4294 0.0
C984 C 0.30086 0.09725 0.43718 0.0
C985 C 0.31503 0.1316 0.4394 0.0
C986 C 0.32126 0.0883 0.41488 0.0
C987 C 0.37776 0.95737 0.43587 0.0
C988 C 0.28997 0.0385 0.42263 0.0
C989 C 0.37179 0.96011 0.37341 0.0
C990 C 0.39764 0.98463 0.38004 0.0
C991 C 0.32243 1.00865 0.45272 0.0
C992 C 0.27005 0.83848 0.44514 0.0
C993 C 0.27035 0.78296 0.45072 0.0
C994 C 0.27834 0.76947 0.43758 0.0
C995 C 0.27713 0.82402 0.43202 0.0
C996 C 0.26626 0.81768 0.45439 0.0
C997 C 0.28145 0.78984 0.42832 0.0
C998 C 0.24641 0.95664 0.43618 0.0
C999 C 0.26693 0.87516 0.44931 0.0
H1000 H 0.34273 0.1712 0.43131 0.0
H1001 H 0.28746 0.08797 0.44505 0.0
H1002 H 0.3126 0.1484 0.4489 0.0
H1003 H 0.32422 0.07147 0.40541 0.0
H1004 H 0.28259 0.74323 0.43444 0.0
H1005 H 0.27941 0.83903 0.42461 0.0
H1006 H 0.25988 0.82859 0.46442 0.0
H1007 H 0.28739 0.77913 0.41822 0.0
Tb1008 Tb 0.58527 0.18206 0.70297 0.0
C1009 C 0.56823 0.10503 0.64183 0.0
N1010 N 0.57739 0.13794 0.64832 0.0
C1011 C 0.6189 0.14574 0.63223 0.0
C1012 C 0.58434 0.09093 0.6303 0.0
C1013 C 0.60171 0.15872 0.6435 0.0
C1014 C 0.61025 0.11165 0.62562 0.0
C1015 C 0.52839 0.05314 0.6391 0.0
C1016 C 0.54088 0.08631 0.64621 0.0
C1017 C 0.54519 0.03833 0.62792 0.0
C1018 C 0.57319 0.05717 0.62355 0.0
Tb1019 Tb 0.54716 0.15652 0.66636 0.0
N1020 N 0.52523 0.10157 0.657 0.0
C1021 C 0.49876 0.03643 0.64318 0.0
C1022 C 0.49524 0.08633 0.66053 0.0
C1023 C 0.48188 0.0533 0.65384 0.0
H1024 H 0.60775 0.18539 0.64833 0.0
H1025 H 0.45852 0.04097 0.65686 0.0
H1026 H 0.51893 0.204 0.71935 0.0
H1027 H 0.70306 0.25494 0.69367 0.0
H1028 H 0.4821 0.09953 0.66865 0.0
H1029 H 0.48827 1.01094 0.63796 0.0
H1030 H 0.66398 0.2026 0.6929 0.0
H1031 H 0.63849 0.16214 0.62854 0.0
H1032 H 0.53622 1.01271 0.62239 0.0
H1033 H 0.58539 0.04578 0.61471 0.0
H1034 H 0.50251 0.25669 0.73318 0.0
H1035 H 0.62304 0.10187 0.61671 0.0
H1036 H 0.68885 0.31055 0.70558 0.0
N1037 N 0.56568 0.22902 0.71458 0.0
C1038 C 0.58761 0.25854 0.71644 0.0
C1039 C 0.52642 0.25755 0.72847 0.0
C1040 C 0.57924 0.28915 0.72417 0.0
C1041 C 0.53564 0.22786 0.72059 0.0
C1042 C 0.54827 0.28833 0.73025 0.0
N1043 N 0.62517 0.22808 0.70259 0.0
C1044 C 0.65601 0.22656 0.6973 0.0
C1045 C 0.64035 0.28881 0.71118 0.0
C1046 C 0.61783 0.25824 0.70996 0.0
C1047 C 0.67089 0.28763 0.7049 0.0
C1048 C 0.6789 0.25631 0.69808 0.0
H1049 H 0.54092 0.31133 0.73627 0.0
H1050 H 0.5955 0.34344 0.73112 0.0
H1051 H 0.64895 0.34316 0.71979 0.0
O1052 O 0.6245 0.18462 0.71635 0.0
O1053 O 0.5592 0.21838 0.69427 0.0
O1054 O 0.5733 0.2096 0.67264 0.0
O1055 O 0.57379 0.17172 0.7216 0.0
O1056 O 0.61784 0.15842 0.68801 0.0
O1057 O 0.59819 0.17922 0.67174 0.0
O1058 O 0.50172 0.17534 0.66607 0.0
O1059 O 0.55299 0.11003 0.67409 0.0
O1060 O 0.58051 0.12564 0.69472 0.0
O1061 O 0.53227 0.1686 0.64888 0.0
O1062 O 0.51457 0.16557 0.68326 0.0
O1063 O 0.53609 0.15225 0.70149 0.0
C1064 C 0.56673 0.23088 0.68361 0.0
C1065 C 0.61424 0.1444 0.72968 0.0
C1066 C 0.65769 0.11817 0.73785 0.0
C1067 C 0.63453 0.08876 0.73779 0.0
C1068 C 0.59126 0.11496 0.72986 0.0
C1069 C 0.60146 0.08733 0.73388 0.0
C1070 C 0.64724 0.14588 0.73382 0.0
C1071 C 0.61873 0.16173 0.6758 0.0
C1072 C 0.60482 0.17345 0.7249 0.0
C1073 C 0.60158 0.31959 0.7253 0.0
C1074 C 0.63197 0.31944 0.71879 0.0
C1075 C 0.56687 0.1021 0.68436 0.0
C1076 C 0.47377 0.15666 0.6454 0.0
C1077 C 0.41422 0.15194 0.64048 0.0
C1078 C 0.41742 0.12473 0.62969 0.0
C1079 C 0.47615 0.12933 0.63465 0.0
C1080 C 0.44272 0.16733 0.64842 0.0
C1081 C 0.44803 0.11336 0.62693 0.0
C1082 C 0.51115 0.15146 0.6935 0.0
C1083 C 0.50335 0.17465 0.6535 0.0
H1084 H 0.64191 0.06708 0.74088 0.0
H1085 H 0.56559 0.113 0.72672 0.0
H1086 H 0.58372 0.06463 0.73388 0.0
H1087 H 0.66507 0.16843 0.73357 0.0
H1088 H 0.39658 0.11269 0.62308 0.0
H1089 H 0.4997 0.12044 0.6321 0.0
H1090 H 0.44104 0.18784 0.65693 0.0
H1091 H 0.45012 0.0925 0.61859 0.0
Tb1092 Tb 0.06448 0.15472 0.17146 0.0
C1093 C 0.03599 0.12806 0.23092 0.0
N1094 N 1.01803 0.12147 0.21953 0.0
C1095 C 0.9912 0.06858 0.22408 0.0
C1096 C 0.03328 0.10466 0.23921 0.0
C1097 C 0.99458 0.09295 0.21631 0.0
C1098 C 1.01105 0.07419 0.23549 0.0
C1099 C 0.07188 0.16932 0.24704 0.0
C1100 C 0.05483 0.15971 0.23475 0.0
C1101 C 0.07103 0.14548 0.25506 0.0
C1102 C 0.05172 0.11314 0.25114 0.0
Tb1103 Tb 0.027 0.16131 0.20688 0.0
N1104 N 0.05408 0.18205 0.22686 0.0
C1105 C 0.08802 0.20295 0.2511 0.0
C1106 C 0.06817 0.21541 0.23109 0.0
C1107 C 0.0857 0.22624 0.24317 0.0
H1108 H 0.97916 0.08857 0.20751 0.0
H1109 H 0.09743 0.25251 0.24634 0.0
H1110 H 1.01018 0.18484 0.15536 0.0
H1111 H 0.14264 0.05936 0.15312 0.0
H1112 H 0.06661 0.2336 0.22504 0.0
H1113 H 0.10142 0.21143 0.26047 0.0
H1114 H 0.12727 0.11109 0.16808 0.0
H1115 H 0.97329 0.04555 0.2213 0.0
H1116 H 0.08424 0.15219 0.26449 0.0
H1117 H 0.05031 0.09539 0.25761 0.0
H1118 H 0.97477 0.16444 0.13512 0.0
H1119 H 1.00822 0.05545 0.24156 0.0
H1120 H 0.10607 0.02931 0.13389 0.0
N1121 N 0.0332 0.14011 0.15237 0.0
C1122 C 0.03725 0.11035 0.14406 0.0
C1123 C 0.99211 0.14882 0.13757 0.0
C1124 C 1.01786 0.09765 0.1324 0.0
C1125 C 1.01214 0.16028 0.14903 0.0
C1126 C 0.99444 0.11698 0.12936 0.0
N1127 N 0.08236 0.10948 0.15755 0.0
C1128 C 0.11134 0.09807 0.15968 0.0
C1129 C 0.07061 0.06501 0.13792 0.0
C1130 C 0.06303 0.09439 0.14675 0.0
C1131 C 0.09925 0.05185 0.14044 0.0
C1132 C 0.12001 0.06881 0.15126 0.0
H1133 H 0.97895 0.10816 0.1205 0.0
H1134 H 1.00872 0.05647 0.11499 0.0
H1135 H 0.05514 0.02784 0.11983 0.0
O1136 O 0.09176 0.17592 0.15718 0.0
O1137 O 1.01263 0.15705 0.17583 0.0
O1138 O 1.00056 0.12393 0.19042 0.0
O1139 O 0.10047 0.19819 0.17786 0.0
O1140 O 0.06017 0.10345 0.17729 0.0
O1141 O 0.04158 0.10919 0.19905 0.0
O1142 O 0.98585 0.18054 0.20084 0.0
O1143 O 0.07877 0.18327 0.20514 0.0
O1144 O 0.09504 0.14632 0.18716 0.0
O1145 O 0.99123 0.17572 0.22092 0.0
O1146 O 0.04843 0.21056 0.20137 0.0
O1147 O 0.03621 0.1976 0.17926 0.0
C1148 C 0.99492 0.13076 0.17902 0.0
C1149 C 0.146 0.20547 0.16401 0.0
C1150 C 0.1954 0.19189 0.15169 0.0
C1151 C 0.21451 0.22028 0.15985 0.0
C1152 C 0.16544 0.23375 0.17212 0.0
C1153 C 0.19956 0.24095 0.17009 0.0
C1154 C 0.1612 0.18448 0.15388 0.0
C1155 C 0.05218 0.0905 0.18795 0.0
C1156 C 0.10984 0.19926 0.16596 0.0
C1157 C 1.02366 0.06702 0.12392 0.0
C1158 C 0.05009 0.05073 0.12667 0.0
C1159 C 0.10155 0.16687 0.19873 0.0
C1160 C 0.96227 0.2191 0.21724 0.0
C1161 C 0.91597 0.2516 0.22163 0.0
C1162 C 0.93875 0.28151 0.22618 0.0
C1163 C 0.98471 0.24902 0.22187 0.0
C1164 C 0.9281 0.22051 0.21709 0.0
C1165 C 0.97296 0.28016 0.22622 0.0
C1166 C 0.0433 0.22086 0.19037 0.0
C1167 C 0.97362 0.18598 0.2126 0.0
H1168 H 0.24094 0.22632 0.15833 0.0
H1169 H 0.15419 0.25035 0.18001 0.0
H1170 H 0.21438 0.26274 0.1764 0.0
H1171 H 0.14636 0.16282 0.14746 0.0
H1172 H 0.93011 0.30582 0.22971 0.0
H1173 H 1.01111 0.24815 0.2222 0.0
H1174 H 0.91087 0.19708 0.21378 0.0
H1175 H 0.99038 0.30325 0.22975 0.0
Tb1176 Tb 0.60272 0.19657 0.29738 0.0
C1177 C 0.48593 0.09693 0.26553 0.0
N1178 N 0.51285 0.11802 0.26267 0.0
C1179 C 0.52294 0.07558 0.24361 0.0
C1180 C 0.47732 0.06354 0.25786 0.0
C1181 C 0.53061 0.10844 0.25158 0.0
C1182 C 0.49639 0.05289 0.24683 0.0
C1183 C 0.43823 0.08852 0.27925 0.0
C1184 C 0.46658 0.10939 0.27599 0.0
C1185 C 0.43036 0.05463 0.27205 0.0
C1186 C 0.44978 0.04222 0.26134 0.0
Tb1187 Tb 0.52113 0.17202 0.27541 0.0
N1188 N 0.47438 0.14261 0.2824 0.0
C1189 C 0.41803 0.10272 0.28933 0.0
C1190 C 0.45329 0.15721 0.29151 0.0
C1191 C 0.42537 0.13736 0.29536 0.0
H1192 H 0.5508 0.12612 0.24898 0.0
H1193 H 0.40914 0.14895 0.30278 0.0
H1194 H 0.57264 0.20544 0.32834 0.0
H1195 H 0.68928 0.28396 0.27681 0.0
H1196 H 0.45748 0.18434 0.29563 0.0
H1197 H 0.39607 0.08754 0.29217 0.0
H1198 H 0.65815 0.22756 0.27811 0.0
H1199 H 0.53741 0.06782 0.23496 0.0
H1200 H 0.4088 0.03812 0.27446 0.0
H1201 H 0.44295 1.01632 0.25567 0.0
H1202 H 0.56278 0.25279 0.3464 0.0
H1203 H 0.49055 0.02746 0.24065 0.0
H1204 H 0.68091 0.33547 0.29364 0.0
N1205 N 0.59402 0.23761 0.31572 0.0
C1206 C 0.60824 0.26999 0.31538 0.0
C1207 C 0.57497 0.25807 0.3376 0.0
C1208 C 0.60475 0.29788 0.32586 0.0
C1209 C 0.57976 0.2312 0.32709 0.0
C1210 C 0.58688 0.29164 0.33687 0.0
N1211 N 0.63147 0.24745 0.29502 0.0
C1212 C 0.65412 0.25003 0.28534 0.0
C1213 C 0.64551 0.30756 0.30458 0.0
C1214 C 0.6284 0.27493 0.3049 0.0
C1215 C 0.66722 0.31084 0.29422 0.0
C1216 C 0.67193 0.28183 0.28467 0.0
H1217 H 0.58359 0.31235 0.34513 0.0
H1218 H 0.61762 0.35256 0.33317 0.0
H1219 H 0.65332 0.36102 0.31453 0.0
O1220 O 0.64809 0.17833 0.29262 0.0
O1221 O 0.5866 0.23397 0.28645 0.0
O1222 O 0.53008 0.22555 0.28717 0.0
O1223 O 0.63677 0.19934 0.31275 0.0
O1224 O 0.60479 0.1669 0.27736 0.0
O1225 O 0.56759 0.1865 0.26584 0.0
O1226 O 0.47583 0.17959 0.26766 0.0
O1227 O 0.54545 0.12709 0.27814 0.0
O1228 O 0.57839 0.14325 0.29729 0.0
O1229 O 0.52205 0.18937 0.25784 0.0
O1230 O 0.51787 0.19591 0.29637 0.0
O1231 O 0.55807 0.176 0.3065 0.0
C1232 C 0.55822 0.2466 0.28726 0.0
C1233 C 0.67115 0.15699 0.30935 0.0
C1234 C 0.706 0.14184 0.32533 0.0
C1235 C 0.69803 0.10722 0.31899 0.0
C1236 C 0.66282 0.12235 0.30316 0.0
C1237 C 0.67643 0.09759 0.30796 0.0
C1238 C 0.69273 0.16648 0.32032 0.0
C1239 C 0.59653 0.17676 0.26689 0.0
C1240 C 0.65765 0.18418 0.3049 0.0
C1241 C 0.62034 0.33081 0.32527 0.0
C1242 C 0.64077 0.33562 0.31468 0.0
C1243 C 0.56168 0.1191 0.28786 0.0
C1244 C 0.48076 0.2232 0.25574 0.0
C1245 C 0.4395 0.25038 0.24672 0.0
C1246 C 0.46152 0.28139 0.24941 0.0
C1247 C 0.50265 0.25419 0.25822 0.0
C1248 C 0.44923 0.22166 0.25024 0.0
C1249 C 0.49283 0.28325 0.25521 0.0
C1250 C 0.52796 0.18369 0.30606 0.0
C1251 C 0.49042 0.19152 0.2581 0.0
H1252 H 0.70788 0.08768 0.32271 0.0
H1253 H 0.64588 0.11447 0.2947 0.0
H1254 H 0.67001 0.07088 0.3032 0.0
H1255 H 0.69917 0.19333 0.32502 0.0
H1256 H 0.45494 0.30397 0.24676 0.0
H1257 H 0.52737 0.25583 0.26228 0.0
H1258 H 0.43238 0.19771 0.24859 0.0
H1259 H 0.5098 0.3071 0.25714 0.0
Tb1260 Tb 0.07668 0.16888 0.77072 0.0
C1261 C 0.05289 0.21444 0.83356 0.0
N1262 N 0.05571 0.18482 0.82492 0.0
C1263 C 0.08905 0.1689 0.84082 0.0
C1264 C 0.06914 0.22336 0.84601 0.0
C1265 C 0.07223 0.16128 0.82859 0.0
C1266 C 0.08809 0.20042 0.84947 0.0
C1267 C 1.0239 0.26323 0.83941 0.0
C1268 C 0.03084 0.23394 0.83035 0.0
C1269 C 0.04173 0.27387 0.85149 0.0
C1270 C 0.06443 0.25394 0.85479 0.0
Tb1271 Tb 0.03014 0.1762 0.80466 0.0
N1272 N 1.01376 0.22209 0.81879 0.0
C1273 C 0.9982 0.27979 0.83628 0.0
C1274 C 0.98717 0.2366 0.81606 0.0
C1275 C 0.97932 0.26601 0.82465 0.0
H1276 H 0.07316 0.13687 0.82201 0.0
H1277 H 0.95878 0.278 0.8223 0.0
H1278 H 0.12672 0.23861 0.76803 0.0
H1279 H 1.00223 0.07739 0.73228 0.0
H1280 H 0.97267 0.22596 0.80705 0.0
H1281 H 0.99196 0.3024 0.84296 0.0
H1282 H 0.03662 0.09586 0.75269 0.0
H1283 H 0.10282 0.15051 0.84355 0.0
H1284 H 0.0372 0.29662 0.85855 0.0
H1285 H 0.07708 0.2616 0.86433 0.0
H1286 H 0.13057 0.28156 0.75419 0.0
H1287 H 0.10099 0.20621 0.85895 0.0
H1288 H 0.99428 0.119 0.71882 0.0
N1289 N 0.08428 0.20781 0.75763 0.0
C1290 C 0.06401 0.20174 0.74688 0.0
C1291 C 0.1115 0.25935 0.75208 0.0
C1292 C 0.06547 0.225 0.73856 0.0
C1293 C 0.10926 0.23509 0.75989 0.0
C1294 C 0.08901 0.25465 0.74152 0.0
N1295 N 0.04721 0.14784 0.75116 0.0
C1296 C 0.03352 0.11431 0.74692 0.0
C1297 C 0.02548 0.16094 0.73167 0.0
C1298 C 0.04458 0.17035 0.7435 0.0
C1299 C 1.00927 0.12731 0.72783 0.0
C1300 C 1.01386 0.10372 0.73536 0.0
H1301 H 0.09097 0.27324 0.73539 0.0
H1302 H 0.04503 0.23464 0.7208 0.0
H1303 H 1.00979 0.17837 0.71476 0.0
O1304 O 0.11592 0.14465 0.77552 0.0
O1305 O 1.02415 0.14883 0.77192 0.0
O1306 O 1.00707 0.18916 0.78806 0.0
O1307 O 0.11409 0.15985 0.75698 0.0
O1308 O 0.05569 0.11896 0.77592 0.0
O1309 O 0.05732 0.13144 0.79865 0.0
O1310 O 0.99292 0.1573 0.81652 0.0
O1311 O 0.08251 0.17132 0.80239 0.0
O1312 O 0.10173 0.2035 0.78807 0.0
O1313 O 0.99526 0.1336 0.79597 0.0
O1314 O 0.03814 0.2275 0.79887 0.0
O1315 O 0.069 0.22335 0.77952 0.0
C1316 C 1.00228 0.16882 0.77643 0.0
C1317 C 0.14023 0.11258 0.75697 0.0
C1318 C 0.18318 0.08508 0.74412 0.0
C1319 C 0.15994 0.05518 0.74017 0.0
C1320 C 0.11718 0.08303 0.75266 0.0
C1321 C 0.12719 0.05417 0.74453 0.0
C1322 C 0.17319 0.11325 0.75294 0.0
C1323 C 0.05568 0.10868 0.78724 0.0
C1324 C 0.12979 0.14448 0.76414 0.0
C1325 C 0.0447 0.21694 0.72724 0.0
C1326 C 1.02466 0.18489 0.7238 0.0
C1327 C 0.10347 0.19618 0.79963 0.0
C1328 C 0.94166 0.13506 0.80467 0.0
C1329 C 0.88937 0.1545 0.81247 0.0
C1330 C 0.87297 0.1336 0.80107 0.0
C1331 C 0.92469 0.11395 0.79344 0.0
C1332 C 0.92384 0.15539 0.81408 0.0
C1333 C 0.89062 0.11349 0.79163 0.0
C1334 C 0.05378 0.2416 0.78952 0.0
C1335 C 0.97771 0.13532 0.80653 0.0
H1336 H 0.16657 0.03311 0.73329 0.0
H1337 H 0.09142 0.08279 0.75524 0.0
H1338 H 0.10923 0.0314 0.74119 0.0
H1339 H 0.19072 0.13641 0.7563 0.0
H1340 H 0.84642 0.13223 0.79958 0.0
H1341 H 0.93779 0.09783 0.78606 0.0
H1342 H 0.93683 0.17211 0.82266 0.0
H1343 H 0.87778 0.09717 0.78295 0.0
C1344 C 0.03 0.77024 0.18261 0.0
C1345 C 0.05786 0.75862 0.1873 0.0
C1346 C 0.0298 0.80528 0.18244 0.0
C1347 C 0.07393 0.89616 0.19683 0.0
H1348 H 0.02607 0.92082 0.16921 0.0
C1349 C 0.0549 0.0401 0.19922 0.0
C1350 C 0.05424 0.05253 0.18752 0.0
C1351 C 0.05587 1.00504 0.19902 0.0
C1352 C 0.0398 0.91482 0.17705 0.0
H1353 H 0.10811 0.77706 0.19489 0.0
H1354 H 0.10741 0.83727 0.19514 0.0
H1355 H 0.02665 0.86058 0.16921 0.0
H1356 H 0.054 0.03553 0.16625 0.0
H1357 H 0.05529 0.97497 0.16587 0.0
H1358 H 0.08691 0.95035 0.20472 0.0
C1359 C 0.08521 0.81928 0.1917 0.0
C1360 C 0.03987 0.87968 0.17712 0.0
C1361 C 0.08557 0.78416 0.19167 0.0
C1362 C 0.0546 0.02777 0.17556 0.0
C1363 C 0.05507 0.9925 0.17535 0.0
C1364 C 0.0734 0.93127 0.19688 0.0
C1365 C 0.05733 0.83097 0.18706 0.0
C1366 C 0.05704 0.86923 0.18699 0.0
C1367 C 0.05579 0.98005 0.18709 0.0
C1368 C 0.0564 0.94174 0.18697 0.0
H1369 H 1.00795 0.75213 0.17905 0.0
H1370 H 1.00753 0.81226 0.17883 0.0
H1371 H 0.08736 0.89019 0.20475 0.0
H1372 H 0.05489 0.05767 0.2087 0.0
H1373 H 0.05606 0.99748 0.20837 0.0
C1374 C 0.68827 0.94267 0.44545 0.0
C1375 C 0.70891 0.95264 0.43549 0.0
C1376 C 0.65334 0.94337 0.44544 0.0
C1377 C 0.58334 0.975 0.42852 0.0
H1378 H 0.5263 0.91901 0.44793 0.0
C1379 C 0.43854 0.98398 0.43283 0.0
C1380 C 0.41563 0.95684 0.43568 0.0
C1381 C 0.47356 0.98362 0.43278 0.0
C1382 C 0.5413 0.93475 0.44227 0.0
H1383 H 0.707 0.97092 0.4175 0.0
H1384 H 0.64704 0.97153 0.41726 0.0
H1385 H 0.58562 0.91728 0.44752 0.0
H1386 H 0.41352 0.90714 0.44021 0.0
H1387 H 0.47325 0.90601 0.44001 0.0
H1388 H 0.53881 0.99151 0.42287 0.0
C1389 C 0.65766 0.96376 0.4254 0.0
C1390 C 0.57627 0.93417 0.4422 0.0
C1391 C 0.69267 0.96329 0.42548 0.0
C1392 C 0.42968 0.92911 0.43832 0.0
C1393 C 0.46464 0.92854 0.43818 0.0
C1394 C 0.54832 0.97541 0.42851 0.0
C1395 C 0.63679 0.95383 0.43539 0.0
C1396 C 0.59853 0.95434 0.43536 0.0
C1397 C 0.48783 0.95585 0.43545 0.0
C1398 C 0.52609 0.95535 0.43541 0.0
H1399 H 0.69918 0.93463 0.45348 0.0
H1400 H 0.63951 0.93605 0.45357 0.0
H1401 H 0.59849 0.99151 0.42319 0.0
H1402 H 0.42948 1.00617 0.43092 0.0
H1403 H 0.4894 1.00576 0.43083 0.0
C1404 C 0.58094 0.28355 0.67329 0.0
C1405 C 0.56651 0.26887 0.68359 0.0
C1406 C 0.58102 0.3186 0.67316 0.0
C1407 C 0.57084 0.40521 0.69506 0.0
H1408 H 0.56114 0.43231 0.66205 0.0
C1409 C 0.56474 0.55062 0.69506 0.0
C1410 C 0.56806 0.5635 0.68345 0.0
C1411 C 0.5645 0.51549 0.69496 0.0
C1412 C 0.56443 0.42603 0.67148 0.0
H1413 H 0.53908 0.28121 0.70151 0.0
H1414 H 0.54059 0.3419 0.7017 0.0
H1415 H 0.56114 0.37251 0.66218 0.0
H1416 H 0.57451 0.54723 0.66243 0.0
H1417 H 0.57571 0.48725 0.6622 0.0
H1418 H 0.57516 0.45826 0.70443 0.0
C1419 C 0.55237 0.32637 0.69368 0.0
C1420 C 0.56432 0.39089 0.67153 0.0
C1421 C 0.55176 0.29114 0.69366 0.0
C1422 C 0.5719 0.53916 0.67169 0.0
C1423 C 0.57217 0.50394 0.67159 0.0
C1424 C 0.5715 0.44039 0.69501 0.0
C1425 C 0.56695 0.34115 0.6834 0.0
C1426 C 0.56734 0.37939 0.68332 0.0
C1427 C 0.56827 0.49075 0.68323 0.0
C1428 C 0.5681 0.45215 0.68323 0.0
H1429 H 0.59252 0.26787 0.66524 0.0
H1430 H 0.59279 0.32815 0.66504 0.0
H1431 H 0.5738 0.39836 0.70443 0.0
H1432 H 0.56248 0.56787 0.70444 0.0
H1433 H 0.56097 0.50809 0.7043 0.0
C1434 C 0.93585 0.49634 0.92859 0.0
C1435 C 0.91248 0.46732 0.92936 0.0
C1436 C 0.97084 0.49556 0.9284 0.0
C1437 C 0.03727 0.44249 0.93517 0.0
H1438 H 0.09585 0.50238 0.91774 0.0
C1439 C 0.18427 0.45107 0.93911 0.0
C1440 C 0.20484 0.45935 0.92884 0.0
C1441 C 0.1494 0.45217 0.9391 0.0
C1442 C 0.08021 0.4851 0.92263 0.0
H1443 H 0.90952 0.41423 0.93033 0.0
H1444 H 0.96937 0.41279 0.93006 0.0
H1445 H 0.03601 0.50362 0.91766 0.0
H1446 H 0.20272 0.47519 0.91033 0.0
H1447 H 0.14286 0.47726 0.91029 0.0
H1448 H 0.08132 0.42357 0.93996 0.0
C1449 C 0.96097 0.4367 0.92978 0.0
C1450 C 0.04527 0.48613 0.92272 0.0
C1451 C 0.92605 0.43747 0.92991 0.0
C1452 C 0.18854 0.46896 0.91857 0.0
C1453 C 0.15364 0.4702 0.91858 0.0
C1454 C 0.0722 0.44157 0.93513 0.0
C1455 C 0.98453 0.46572 0.92904 0.0
C1456 C 1.02266 0.46481 0.92898 0.0
C1457 C 0.13292 0.46175 0.92883 0.0
C1458 C 0.09482 0.46282 0.92885 0.0
H1459 H 0.92717 0.52015 0.92837 0.0
H1460 H 0.9872 0.51889 0.92801 0.0
H1461 H 1.02176 0.4257 0.94029 0.0
H1462 H 0.19517 0.44398 0.94736 0.0
H1463 H 0.13548 0.44595 0.9474 0.0
C1464 C 0.04467 0.56115 0.80061 0.0
C1465 C 0.05571 0.57504 0.78968 0.0
C1466 C 0.04435 0.526 0.80068 0.0
C1467 C 0.07459 0.44295 0.78135 0.0
H1468 H 1.01862 0.40158 0.80562 0.0
C1469 C 0.08068 0.29974 0.78501 0.0
C1470 C 0.0541 0.27999 0.79006 0.0
C1471 C 0.08084 0.33491 0.7851 0.0
C1472 C 0.03437 0.41203 0.79859 0.0
H1473 H 0.07663 0.561 0.77041 0.0
H1474 H 0.07455 0.50052 0.7701 0.0
H1475 H 1.01813 0.46094 0.80515 0.0
H1476 H 1.00644 0.28389 0.79927 0.0
H1477 H 1.00616 0.34402 0.79929 0.0
H1478 H 0.08988 0.39375 0.77444 0.0
C1479 C 0.06624 0.51659 0.77887 0.0
C1480 C 0.03448 0.44714 0.79846 0.0
C1481 C 0.06683 0.55183 0.77889 0.0
C1482 C 0.02773 0.29758 0.79537 0.0
C1483 C 0.02768 0.33276 0.79537 0.0
C1484 C 0.0743 0.40781 0.78142 0.0
C1485 C 0.05501 0.5024 0.78978 0.0
C1486 C 0.05467 0.4639 0.78986 0.0
C1487 C 0.05422 0.35266 0.79019 0.0
C1488 C 0.05428 0.39109 0.79007 0.0
H1489 H 0.03607 0.57757 0.80925 0.0
H1490 H 0.03603 0.51766 0.80951 0.0
H1491 H 0.09106 0.45362 0.77458 0.0
H1492 H 0.10209 0.28818 0.78118 0.0
H1493 H 0.1025 0.34818 0.78128 0.0
C1494 C 0.16534 0.89139 0.03585 0.0
C1495 C 0.18312 0.88414 0.0463 0.0
C1496 C 0.13038 0.89197 0.03624 0.0
C1497 C 0.05112 0.86439 0.05408 0.0
H1498 H 1.01258 0.9244 0.03633 0.0
C1499 C 0.90684 0.87625 0.05829 0.0
C1500 C 0.89005 0.88643 0.04831 0.0
C1501 C 0.94191 0.87608 0.05819 0.0
C1502 C 1.02233 0.9069 0.04124 0.0
H1503 H 0.17573 0.87122 0.06538 0.0
H1504 H 0.11576 0.87224 0.06606 0.0
H1505 H 0.07234 0.92375 0.03584 0.0
H1506 H 0.89886 0.90394 0.03016 0.0
H1507 H 0.95868 0.90328 0.02984 0.0
H1508 H 1.00115 0.84729 0.05939 0.0
C1509 C 0.12879 0.87747 0.05743 0.0
C1510 C 0.05733 0.90658 0.04096 0.0
C1511 C 0.16381 0.87713 0.05708 0.0
C1512 C 0.9102 0.8963 0.0382 0.0
C1513 C 0.94518 0.89602 0.03805 0.0
C1514 C 1.01607 0.86457 0.0543 0.0
C1515 C 0.11098 0.88496 0.04702 0.0
C1516 C 0.07284 0.88532 0.04737 0.0
C1517 C 0.96224 0.88598 0.04806 0.0
C1518 C 1.0005 0.88582 0.04788 0.0
H1519 H 0.1784 0.89644 0.0272 0.0
H1520 H 0.11849 0.89734 0.02782 0.0
H1521 H 0.06106 0.84706 0.05903 0.0
H1522 H 0.89292 0.86875 0.06639 0.0
H1523 H 0.95305 0.86861 0.0663 0.0
C1524 C 0.54465 0.80968 0.30061 0.0
C1525 C 0.55536 0.78644 0.28969 0.0
C1526 C 0.54511 0.84496 0.30061 0.0
C1527 C 0.5564 0.90926 0.27769 0.0
H1528 H 0.56028 0.97684 0.31052 0.0
C1529 C 0.54845 0.05421 0.27763 0.0
C1530 C 0.56124 0.08115 0.28825 0.0
C1531 C 0.54751 1.01921 0.27797 0.0
C1532 C 0.55951 0.95877 0.30113 0.0
H1533 H 0.57428 0.78406 0.27002 0.0
H1534 H 0.57628 0.84419 0.27012 0.0
H1535 H 0.55959 0.91697 0.31081 0.0
H1536 H 0.58417 0.0903 0.30767 0.0
H1537 H 0.5835 0.0303 0.30821 0.0
H1538 H 0.55736 0.95097 0.26798 0.0
C1539 C 0.5669 0.83558 0.27878 0.0
C1540 C 0.55863 0.92357 0.30131 0.0
C1541 C 0.56626 0.80043 0.27877 0.0
C1542 C 0.57372 0.071 0.29922 0.0
C1543 C 0.57305 0.03592 0.29956 0.0
C1544 C 0.55741 0.94439 0.27751 0.0
C1545 C 0.55634 0.85912 0.28969 0.0
C1546 C 0.55706 0.89759 0.28959 0.0
C1547 C 0.5598 1.00879 0.28894 0.0
C1548 C 0.55894 0.9704 0.28922 0.0
H1549 H 0.53603 0.8007 0.3093 0.0
H1550 H 0.53618 0.861 0.30926 0.0
H1551 H 0.5547 0.89118 0.26829 0.0
H1552 H 0.53935 0.06008 0.26884 0.0
H1553 H 0.53663 1.00032 0.26951 0.0
C1554 C 0.66791 0.36227 0.5621 0.0
C1555 C 0.68944 0.37919 0.55403 0.0
C1556 C 0.6329 0.36246 0.56197 0.0
C1557 C 0.56234 0.38859 0.54319 0.0
H1558 H 0.50941 0.36413 0.57173 0.0
C1559 C 0.4151 0.37943 0.54111 0.0
C1560 C 0.39616 0.38022 0.55263 0.0
C1561 C 0.45009 0.37921 0.54125 0.0
C1562 C 0.52328 0.37158 0.56364 0.0
H1563 H 0.68931 0.41037 0.53961 0.0
H1564 H 0.62979 0.41209 0.53975 0.0
H1565 H 0.56893 0.36546 0.57238 0.0
H1566 H 0.40098 0.38274 0.57353 0.0
H1567 H 0.46086 0.38344 0.57398 0.0
H1568 H 0.51692 0.39633 0.53477 0.0
C1569 C 0.63928 0.39742 0.54598 0.0
C1570 C 0.55832 0.37175 0.56391 0.0
C1571 C 0.67417 0.39676 0.54598 0.0
C1572 C 0.41403 0.38134 0.56434 0.0
C1573 C 0.44905 0.38165 0.56455 0.0
C1574 C 0.52737 0.38889 0.54302 0.0
C1575 C 0.61736 0.38004 0.55389 0.0
C1576 C 0.57908 0.38015 0.55367 0.0
C1577 C 0.4683 0.38036 0.55299 0.0
C1578 C 0.50658 0.38028 0.55322 0.0
H1579 H 0.67801 0.34807 0.5684 0.0
H1580 H 0.61812 0.34803 0.56814 0.0
H1581 H 0.57604 0.39479 0.53486 0.0
H1582 H 0.40273 0.37834 0.53182 0.0
H1583 H 0.46258 0.37761 0.53195 0.0
C1584 C 0.04401 0.27066 0.17854 0.0
C1585 C 0.04583 0.25912 0.19039 0.0
C1586 C 0.04658 0.30599 0.17845 0.0
C1587 C 0.03768 0.393 0.19986 0.0
H1588 H 0.0861 0.42922 0.17244 0.0
C1589 C 0.03246 0.5334 0.1924 0.0
C1590 C 0.06171 0.55294 0.18898 0.0
C1591 C 0.03111 0.49844 0.19286 0.0
C1592 C 0.07247 0.41986 0.18025 0.0
H1593 H 0.05277 0.2779 0.21149 0.0
H1594 H 0.05565 0.33857 0.21141 0.0
H1595 H 0.08251 0.36846 0.17261 0.0
H1596 H 0.1127 0.54931 0.18336 0.0
H1597 H 0.11018 0.48867 0.18379 0.0
H1598 H 0.02712 0.44425 0.20735 0.0
C1599 C 0.05221 0.32018 0.20207 0.0
C1600 C 0.07016 0.38451 0.18028 0.0
C1601 C 0.05041 0.2849 0.20213 0.0
C1602 C 0.0896 0.53568 0.18603 0.0
C1603 C 0.08805 0.50047 0.18621 0.0
C1604 C 0.03937 0.42819 0.19965 0.0
C1605 C 0.05049 0.33175 0.19022 0.0
C1606 C 0.05282 0.37009 0.19013 0.0
C1607 C 0.05876 0.48087 0.18966 0.0
C1608 C 0.05694 0.44266 0.18987 0.0
H1609 H 0.04075 0.25227 0.1692 0.0
H1610 H 0.04491 0.31305 0.16905 0.0
H1611 H 1.02387 0.3836 0.20761 0.0
H1612 H 1.01035 0.54526 0.19483 0.0
H1613 H 1.00791 0.48493 0.19549 0.0
C1614 C 0.18867 0.94611 0.44631 0.0
C1615 C 0.20852 0.95568 0.4361 0.0
C1616 C 0.15351 0.94484 0.44619 0.0
C1617 C 0.07911 0.95233 0.42437 0.0
H1618 H 0.03082 0.94919 0.45642 0.0
C1619 C 0.93168 0.93951 0.42381 0.0
C1620 C 0.91394 0.94726 0.4356 0.0
C1621 C 0.96678 0.94022 0.42387 0.0
C1622 C 0.04332 0.9505 0.44728 0.0
H1623 H 0.20533 0.97203 0.41776 0.0
H1624 H 0.14538 0.97141 0.41775 0.0
H1625 H 0.09048 0.95249 0.45666 0.0
H1626 H 0.92094 0.96252 0.45679 0.0
H1627 H 0.98113 0.96527 0.45697 0.0
H1628 H 0.03217 0.95219 0.41516 0.0
C1629 C 0.15633 0.96359 0.4258 0.0
C1630 C 0.0785 0.95181 0.44737 0.0
C1631 C 0.19144 0.96425 0.42582 0.0
C1632 C 0.93311 0.95606 0.44744 0.0
C1633 C 0.96829 0.95738 0.44751 0.0
C1634 C 0.044 0.95158 0.42434 0.0
C1635 C 0.13609 0.95369 0.43596 0.0
C1636 C 0.09764 0.95261 0.4359 0.0
C1637 C 0.98637 0.94935 0.43572 0.0
C1638 C 1.02482 0.95049 0.43578 0.0
H1639 H 0.20031 0.93901 0.45442 0.0
H1640 H 0.14015 0.93633 0.4542 0.0
H1641 H 0.09147 0.95237 0.41512 0.0
H1642 H 0.91831 0.93237 0.41442 0.0
H1643 H 0.97824 0.93305 0.41444 0.0
C1644 C 0.57866 0.05379 0.69551 0.0
C1645 C 0.56693 0.06411 0.68446 0.0
C1646 C 0.57819 1.01877 0.69575 0.0
C1647 C 0.56793 0.92836 0.67348 0.0
H1648 H 0.5589 0.89944 0.70659 0.0
C1649 C 0.55138 0.78126 0.67474 0.0
C1650 C 0.56173 0.77055 0.68592 0.0
C1651 C 0.5521 0.81637 0.67463 0.0
C1652 C 0.5619 0.90663 0.69718 0.0
H1653 H 0.54623 0.04337 0.66478 0.0
H1654 H 0.54488 0.98339 0.66516 0.0
H1655 H 0.56011 0.95942 0.70626 0.0
H1656 H 0.58173 0.7905 0.70578 0.0
H1657 H 0.58322 0.85083 0.70563 0.0
H1658 H 0.56988 0.87569 0.66439 0.0
C1659 C 0.55476 1.00234 0.67378 0.0
C1660 C 0.56259 0.94173 0.69699 0.0
C1661 C 0.55517 0.03737 0.67359 0.0
C1662 C 0.57306 0.79694 0.69697 0.0
C1663 C 0.57379 0.8321 0.69688 0.0
C1664 C 0.5673 0.8933 0.67368 0.0
C1665 C 0.56615 0.9919 0.6849 0.0
C1666 C 0.56557 0.9537 0.68513 0.0
C1667 C 0.56334 0.84296 0.68569 0.0
C1668 C 0.56421 0.88126 0.68552 0.0
H1669 H 0.58841 0.07291 0.70409 0.0
H1670 H 0.58787 1.01293 0.70451 0.0
H1671 H 0.5709 0.93556 0.66407 0.0
H1672 H 0.54239 0.76236 0.66596 0.0
H1673 H 0.54322 0.82246 0.66579 0.0
C1674 C 0.42806 0.44718 0.91737 0.0
C1675 C 0.40986 0.45178 0.92915 0.0
C1676 C 0.46321 0.44811 0.91742 0.0
C1677 C 0.53822 0.44758 0.93982 0.0
H1678 H 0.58904 0.4709 0.91054 0.0
C1679 C 0.68318 0.44046 0.93673 0.0
C1680 C 0.70419 0.4608 0.92961 0.0
C1681 C 0.64798 0.43922 0.93665 0.0
C1682 C 0.57576 0.46461 0.91896 0.0
H1683 H 0.41627 0.46137 0.95037 0.0
H1684 H 0.47663 0.46372 0.95055 0.0
H1685 H 0.5292 0.47014 0.91065 0.0
H1686 H 0.70274 0.49614 0.91683 0.0
H1687 H 0.64254 0.49463 0.91687 0.0
H1688 H 0.58493 0.44314 0.94833 0.0
C1689 C 0.46389 0.45858 0.94108 0.0
C1690 C 0.5406 0.46364 0.91893 0.0
C1691 C 0.42871 0.45747 0.94101 0.0
C1692 C 0.68808 0.47988 0.92242 0.0
C1693 C 0.65292 0.47878 0.92239 0.0
C1694 C 0.57341 0.44869 0.93987 0.0
C1695 C 0.48229 0.4539 0.92928 0.0
C1696 C 0.52066 0.45505 0.92935 0.0
C1697 C 0.6317 0.4584 0.92949 0.0
C1698 C 0.59333 0.45721 0.92944 0.0
H1699 H 0.41506 0.44262 0.90796 0.0
H1700 H 0.47525 0.44372 0.908 0.0
H1701 H 0.52482 0.44036 0.94806 0.0
H1702 H 0.69393 0.42515 0.9424 0.0
H1703 H 0.63356 0.42261 0.94214 0.0
C1704 C 1.02256 0.79147 0.78711 0.0
C1705 C 0.05233 0.77815 0.78841 0.0
C1706 C 1.0226 0.82663 0.78716 0.0
C1707 C 0.07559 0.90549 0.78044 0.0
H1708 H 1.01272 0.95665 0.8013 0.0
C1709 C 0.05561 0.04512 0.77555 0.0
C1710 C 0.05467 0.0705 0.78728 0.0
C1711 C 0.05571 1.01011 0.7757 0.0
C1712 C 0.03055 0.94297 0.79537 0.0
H1713 H 0.10575 0.79281 0.79024 0.0
H1714 H 0.10595 0.85317 0.78995 0.0
H1715 H 1.01191 0.89598 0.80134 0.0
H1716 H 0.05119 0.07652 0.80848 0.0
H1717 H 0.04972 1.01598 0.80868 0.0
H1718 H 0.09354 0.95219 0.77415 0.0
C1719 C 0.08227 0.83655 0.78916 0.0
C1720 C 0.02996 0.90775 0.79534 0.0
C1721 C 0.08215 0.80162 0.78945 0.0
C1722 C 0.05243 0.05858 0.79915 0.0
C1723 C 0.05147 0.02341 0.79927 0.0
C1724 C 0.07552 0.94043 0.78016 0.0
C1725 C 0.05249 0.85009 0.78811 0.0
C1726 C 0.05265 0.88811 0.78795 0.0
C1727 C 0.05351 0.99826 0.78757 0.0
C1728 C 0.05318 0.96022 0.7877 0.0
H1729 H 0.99895 0.77471 0.78625 0.0
H1730 H 0.999 0.83535 0.78624 0.0
H1731 H 0.09348 0.89185 0.77453 0.0
H1732 H 0.05597 0.05211 0.76612 0.0
H1733 H 0.05677 0.99206 0.76639 0.0
C1734 C 0.40889 0.88599 0.05838 0.0
C1735 C 0.39128 0.88567 0.04668 0.0
C1736 C 0.44398 0.88636 0.05865 0.0
C1737 C 0.51873 0.87187 0.03613 0.0
H1738 H 0.57048 0.91449 0.06805 0.0
C1739 C 0.66537 0.88884 0.05955 0.0
C1740 C 0.68429 0.88902 0.04804 0.0
C1741 C 0.63029 0.88841 0.05946 0.0
C1742 C 0.55674 0.90199 0.05901 0.0
H1743 H 0.39828 0.88319 0.02588 0.0
H1744 H 0.45849 0.88525 0.02632 0.0
H1745 H 0.51042 0.91368 0.06779 0.0
H1746 H 0.67936 0.88897 0.02732 0.0
H1747 H 0.61917 0.88854 0.02714 0.0
H1748 H 0.56502 0.86019 0.02734 0.0
C1749 C 0.44548 0.88532 0.03546 0.0
C1750 C 0.52165 0.90151 0.05886 0.0
C1751 C 0.41047 0.88495 0.03523 0.0
C1752 C 0.66628 0.88874 0.03644 0.0
C1753 C 0.6312 0.88825 0.03633 0.0
C1754 C 0.5538 0.87238 0.03628 0.0
C1755 C 0.46337 0.88612 0.04719 0.0
C1756 C 0.50155 0.88647 0.04741 0.0
C1757 C 0.61211 0.88807 0.04784 0.0
C1758 C 0.57391 0.88748 0.04771 0.0
H1759 H 0.39552 0.88621 0.06747 0.0
H1760 H 0.45576 0.88632 0.06793 0.0
H1761 H 0.50504 0.85929 0.02708 0.0
H1762 H 0.67767 0.88888 0.06873 0.0
H1763 H 0.61738 0.88779 0.06858 0.0
C1764 C 0.53094 0.30157 0.29219 0.0
C1765 C 0.55788 0.28446 0.28726 0.0
C1766 C 0.53094 0.33675 0.2923 0.0
C1767 C 0.57501 0.41106 0.278 0.0
H1768 H 0.52786 0.46647 0.30497 0.0
C1769 C 0.56255 0.55441 0.27654 0.0
C1770 C 0.55999 0.57887 0.28839 0.0
C1771 C 0.56215 0.51914 0.27635 0.0
C1772 C 0.54151 0.45183 0.29735 0.0
H1773 H 0.60532 0.29224 0.27793 0.0
H1774 H 0.60597 0.35276 0.27841 0.0
H1775 H 0.52782 0.40633 0.30484 0.0
H1776 H 0.55486 0.58352 0.30945 0.0
H1777 H 0.55434 0.52308 0.30919 0.0
H1778 H 0.58914 0.45665 0.27062 0.0
C1779 C 0.58448 0.33925 0.28226 0.0
C1780 C 0.54113 0.41657 0.29717 0.0
C1781 C 0.58444 0.30414 0.28218 0.0
C1782 C 0.55688 0.56612 0.30005 0.0
C1783 C 0.55635 0.53085 0.29987 0.0
C1784 C 0.57526 0.44627 0.27813 0.0
C1785 C 0.55778 0.35673 0.28737 0.0
C1786 C 0.55793 0.39508 0.28751 0.0
C1787 C 0.55901 0.50623 0.28802 0.0
C1788 C 0.55857 0.4678 0.28783 0.0
H1789 H 0.50969 0.28776 0.29609 0.0
H1790 H 0.50939 0.34812 0.29615 0.0
H1791 H 0.58809 0.39626 0.27021 0.0
H1792 H 0.56489 0.56247 0.26727 0.0
H1793 H 0.56382 0.50188 0.2669 0.0
C1794 C 0.17167 0.38248 0.56533 0.0
C1795 C 0.18989 0.38108 0.55359 0.0
C1796 C 0.13658 0.38198 0.56547 0.0
C1797 C 0.05887 0.3632 0.54283 0.0
H1798 H 1.01708 0.40843 0.57408 0.0
C1799 C 0.91595 0.3765 0.54203 0.0
C1800 C 0.89701 0.37856 0.55359 0.0
C1801 C 0.95093 0.37679 0.5422 0.0
C1802 C 0.02788 0.39517 0.56524 0.0
H1803 H 0.18364 0.3782 0.53268 0.0
H1804 H 0.1235 0.37784 0.53291 0.0
H1805 H 0.07715 0.40897 0.57403 0.0
H1806 H 0.90188 0.38171 0.57456 0.0
H1807 H 0.96214 0.38175 0.57492 0.0
H1808 H 1.00971 0.34928 0.53404 0.0
C1809 C 0.13609 0.37875 0.54212 0.0
C1810 C 0.06296 0.39548 0.56521 0.0
C1811 C 0.17116 0.37922 0.54199 0.0
C1812 C 0.91497 0.38036 0.56538 0.0
C1813 C 0.95008 0.38066 0.56558 0.0
C1814 C 1.02384 0.36287 0.54287 0.0
C1815 C 0.11772 0.38012 0.55387 0.0
C1816 C 0.07954 0.37959 0.55398 0.0
C1817 C 0.96912 0.37888 0.55398 0.0
C1818 C 1.00725 0.37893 0.55405 0.0
H1819 H 0.18448 0.38367 0.57452 0.0
H1820 H 0.12422 0.38251 0.57477 0.0
H1821 H 0.06962 0.3499 0.53398 0.0
H1822 H 0.90368 0.37368 0.53266 0.0
H1823 H 0.96367 0.37559 0.53295 0.0
C1824 C 0.26462 0.69235 0.07963 0.0
C1825 C 0.24761 0.68283 0.06737 0.0
C1826 C 0.25458 0.67569 0.08974 0.0
C1827 C 0.17537 0.63998 0.1001 0.0
H1828 H 0.22524 0.63163 0.13054 0.0
C1829 C 0.14134 0.6185 0.15507 0.0
C1830 C 0.12371 0.64615 0.15906 0.0
C1831 C 0.15974 0.61551 0.1435 0.0
C1832 C 0.21105 0.63337 0.12202 0.0
H1833 H 0.20956 0.6457 0.05555 0.0
H1834 H 0.19244 0.61632 0.07313 0.0
H1835 H 0.25405 0.63509 0.10984 0.0
H1836 H 0.11337 0.69358 0.15486 0.0
H1837 H 0.14489 0.6881 0.1346 0.0
H1838 H 0.13297 0.64063 0.11243 0.0
C1839 C 0.21313 0.63704 0.075 0.0
C1840 C 0.22745 0.63541 0.11023 0.0
C1841 C 0.22312 0.65374 0.0649 0.0
C1842 C 0.1261 0.67161 0.15179 0.0
C1843 C 0.14415 0.66851 0.14024 0.0
C1844 C 0.15921 0.63845 0.11187 0.0
C1845 C 0.22738 0.6492 0.08773 0.0
C1846 C 0.20986 0.63965 0.09926 0.0
C1847 C 0.1605 0.64011 0.13585 0.0
C1848 C 0.17705 0.63614 0.12302 0.0
H1849 H 0.28405 0.71429 0.08172 0.0
H1850 H 0.26609 0.68566 0.09944 0.0
H1851 H 0.16115 0.64382 0.09194 0.0
H1852 H 0.13988 0.59865 0.16061 0.0
H1853 H 0.17232 0.59348 0.14029 0.0
C1854 C 0.75763 0.14049 0.33805 0.0
C1855 C 0.72733 0.15276 0.33739 0.0
C1856 C 0.77795 0.15183 0.34939 0.0
C1857 C 0.77197 0.18238 0.38462 0.0
H1858 H 0.86827 0.20113 0.38385 0.0
C1859 C 0.84398 0.17574 0.42941 0.0
C1860 C 0.86666 0.1525 0.42598 0.0
C1861 C 0.8333 0.19188 0.41999 0.0
C1862 C 0.84139 0.19617 0.38426 0.0
H1863 H 0.69434 0.18625 0.34799 0.0
H1864 H 0.72972 0.20581 0.36779 0.0
H1865 H 0.83541 0.19516 0.36369 0.0
H1866 H 0.89989 0.132 0.41087 0.0
H1867 H 0.8804 0.15864 0.39434 0.0
H1868 H 0.77748 0.18062 0.40476 0.0
C1869 C 0.73788 0.1877 0.35955 0.0
C1870 C 0.82266 0.19271 0.37272 0.0
C1871 C 0.71772 0.17655 0.34822 0.0
C1872 C 0.88168 0.14914 0.41362 0.0
C1873 C 0.87074 0.16485 0.40418 0.0
C1874 C 0.79063 0.18539 0.39608 0.0
C1875 C 0.76811 0.17536 0.36026 0.0
C1876 C 0.78785 0.1846 0.37272 0.0
C1877 C 0.84482 0.18459 0.40699 0.0
C1878 C 0.82563 0.19093 0.39593 0.0
H1879 H 0.7657 0.12237 0.32979 0.0
H1880 H 0.80092 0.14151 0.34979 0.0
H1881 H 0.74516 0.17594 0.38489 0.0
H1882 H 0.83228 0.17911 0.43893 0.0
H1883 H 0.81404 0.20782 0.42259 0.0
C1884 C 0.36486 0.45891 0.57857 0.0
C1885 C 0.33003 0.45294 0.57929 0.0
C1886 C 0.38414 0.47759 0.58951 0.0
C1887 C 0.41417 0.53798 0.61107 0.0
H1888 H 0.3975 0.52114 0.64608 0.0
C1889 C 0.46794 0.63346 0.65761 0.0
C1890 C 0.4861 0.62042 0.66621 0.0
C1891 C 0.4481 0.61145 0.64753 0.0
C1892 C 0.40245 0.52593 0.63634 0.0
H1893 H 0.28794 0.4636 0.59159 0.0
H1894 H 0.32169 0.49571 0.61091 0.0
H1895 H 0.36473 0.48504 0.62707 0.0
H1896 H 0.49612 0.57436 0.67173 0.0
H1897 H 0.46062 0.53551 0.65412 0.0
H1898 H 0.45138 0.5791 0.62028 0.0
C1899 C 0.33406 0.48521 0.60199 0.0
C1900 C 0.38365 0.5055 0.62551 0.0
C1901 C 0.31478 0.46675 0.59099 0.0
C1902 C 0.48241 0.58497 0.66515 0.0
C1903 C 0.46223 0.56283 0.6551 0.0
C1904 C 0.43257 0.55862 0.62188 0.0
C1905 C 0.36891 0.49074 0.60134 0.0
C1906 C 0.3893 0.51147 0.6128 0.0
C1907 C 0.44561 0.57595 0.646 0.0
C1908 C 0.42674 0.55296 0.63461 0.0
H1909 H 0.37728 0.44879 0.56961 0.0
H1910 H 0.41098 0.48153 0.58876 0.0
H1911 H 0.41888 0.54326 0.60138 0.0
H1912 H 0.46965 0.66076 0.65853 0.0
H1913 H 0.43502 0.62217 0.64079 0.0
C1914 C 0.84589 0.19258 0.81956 0.0
C1915 C 0.87087 0.17515 0.82285 0.0
C1916 C 0.83031 0.21383 0.82943 0.0
C1917 C 0.82128 0.23748 0.86606 0.0
H1918 H 0.80988 0.32552 0.85944 0.0
C1919 C 0.83134 0.36349 0.90508 0.0
C1920 C 0.80473 0.38214 0.90558 0.0
C1921 C 0.83236 0.33447 0.89509 0.0
C1922 C 0.81247 0.30081 0.86132 0.0
H1923 H 0.89767 0.16483 0.83911 0.0
H1924 H 0.87207 0.20296 0.85615 0.0
H1925 H 0.82432 0.28095 0.84132 0.0
H1926 H 0.75724 0.38381 0.8967 0.0
H1927 H 0.76015 0.33413 0.87861 0.0
H1928 H 0.81183 0.25861 0.88631 0.0
C1929 C 0.86384 0.19992 0.84603 0.0
C1930 C 0.82056 0.27519 0.85096 0.0
C1931 C 0.87905 0.17846 0.83621 0.0
C1932 C 0.77861 0.37061 0.8962 0.0
C1933 C 0.78003 0.34205 0.886 0.0
C1934 C 0.81385 0.26332 0.87644 0.0
C1935 C 0.83956 0.21823 0.84278 0.0
C1936 C 0.82596 0.2435 0.85328 0.0
C1937 C 0.80704 0.32398 0.88535 0.0
C1938 C 0.8101 0.29533 0.87418 0.0
H1939 H 0.83907 0.19064 0.80935 0.0
H1940 H 0.81139 0.22719 0.82659 0.0
H1941 H 0.82437 0.21312 0.86814 0.0
H1942 H 0.85187 0.37184 0.91217 0.0
H1943 H 0.85352 0.32091 0.89468 0.0
C1944 C 0.40256 0.62738 0.89151 0.0
C1945 C 0.38848 0.64133 0.90356 0.0
C1946 C 0.40009 0.64157 0.88055 0.0
C1947 C 0.37555 0.71215 0.8678 0.0
H1948 H 0.3092 0.64248 0.84747 0.0
C1949 C 0.26101 0.74699 0.84697 0.0
C1950 C 0.23692 0.72094 0.8399 0.0
C1951 C 0.29241 0.74014 0.84988 0.0
C1952 C 0.32833 0.66238 0.8525 0.0
H1953 H 0.36441 0.68358 0.91389 0.0
H1954 H 0.361 0.70871 0.89485 0.0
H1955 H 0.34528 0.62735 0.86256 0.0
H1956 H 0.23041 0.66873 0.82811 0.0
H1957 H 0.2858 0.65871 0.83159 0.0
H1958 H 0.35889 0.74734 0.85777 0.0
C1959 C 0.37369 0.68665 0.8939 0.0
C1960 C 0.34912 0.65345 0.8613 0.0
C1961 C 0.37556 0.67212 0.90481 0.0
C1962 C 0.24732 0.68964 0.83391 0.0
C1963 C 0.27937 0.68344 0.83621 0.0
C1964 C 0.35551 0.72099 0.85861 0.0
C1965 C 0.38429 0.67043 0.88154 0.0
C1966 C 0.37141 0.67856 0.86958 0.0
C1967 C 0.30136 0.70744 0.84522 0.0
C1968 C 0.32984 0.6967 0.85152 0.0
H1969 H 0.41371 0.6043 0.89032 0.0
H1970 H 0.40847 0.62869 0.87109 0.0
H1971 H 0.39293 0.73188 0.87404 0.0
H1972 H 0.25524 0.77233 0.85102 0.0
H1973 H 0.30836 0.76005 0.8566 0.0
C1974 C 0.85613 0.96365 0.07781 0.0
C1975 C 0.82147 0.95418 0.07782 0.0
C1976 C 0.87351 0.9809 0.08945 0.0
C1977 C 0.90669 1.00093 0.11662 0.0
H1978 H 0.86726 0.07076 0.14077 0.0
C1979 C 0.97033 0.07269 0.1665 0.0
C1980 C 0.97078 0.10816 0.16942 0.0
C1981 C 0.95035 0.05195 0.15607 0.0
C1982 C 0.87869 0.05142 0.13411 0.0
H1983 H 0.77762 0.9571 0.08975 0.0
H1984 H 0.80788 0.98555 0.11022 0.0
H1985 H 0.83698 0.0394 0.12072 0.0
H1986 H 0.94986 0.1498 0.16442 0.0
H1987 H 0.91505 0.11388 0.14624 0.0
H1988 H 0.94912 1.01422 0.12978 0.0
C1989 C 0.82179 0.97988 0.10126 0.0
C1990 C 0.86114 0.0331 0.12267 0.0
C1991 C 0.80444 0.96297 0.08959 0.0
C1992 C 0.9499 0.12244 0.16226 0.0
C1993 C 0.92985 0.10181 0.15192 0.0
C1994 C 0.92437 1.01944 0.12804 0.0
C1995 C 0.85657 0.98905 0.10135 0.0
C1996 C 0.87498 1.00777 0.11373 0.0
C1997 C 0.93024 0.06639 0.14853 0.0
C1998 C 0.91066 0.04509 0.13687 0.0
H1999 H 0.86989 0.95735 0.06883 0.0
H2000 H 0.90019 0.98815 0.08908 0.0
H2001 H 0.91793 0.98128 0.11005 0.0
H2002 H 0.98636 0.06121 0.17192 0.0
H2003 H 0.95088 0.02469 0.15382 0.0
C2004 C 0.33897 0.85836 0.40846 0.0
C2005 C 0.31274 0.8775 0.40893 0.0
C2006 C 0.34008 0.82971 0.39829 0.0
C2007 C 0.31688 0.7952 0.36422 0.0
H2008 H 0.33325 0.70908 0.37129 0.0
C2009 C 0.34492 0.68527 0.32207 0.0
C2010 C 0.37212 0.66989 0.32469 0.0
C2011 C 0.33026 0.70633 0.33234 0.0
C2012 C 0.32882 0.73299 0.36913 0.0
H2013 H 0.26585 0.88017 0.39975 0.0
H2014 H 0.269 0.83135 0.38145 0.0
H2015 H 0.32298 0.75537 0.38956 0.0
H2016 H 0.40376 0.66246 0.34016 0.0
H2017 H 0.37938 0.69992 0.35785 0.0
H2018 H 0.32474 0.7739 0.34392 0.0
C2019 C 0.28871 0.83876 0.38892 0.0
C2020 C 0.32284 0.75935 0.37959 0.0
C2021 C 0.28724 0.86698 0.39925 0.0
C2022 C 0.38326 0.67453 0.33779 0.0
C2023 C 0.36886 0.69563 0.34799 0.0
C2024 C 0.3234 0.76902 0.35376 0.0
C2025 C 0.31517 0.81996 0.38836 0.0
C2026 C 0.31758 0.79088 0.37723 0.0
C2027 C 0.34259 0.71232 0.34539 0.0
C2028 C 0.33033 0.73791 0.35614 0.0
H2029 H 0.35875 0.8657 0.4159 0.0
H2030 H 0.36082 0.81562 0.39801 0.0
H2031 H 0.313 0.81943 0.36221 0.0
H2032 H 0.3358 0.6821 0.31205 0.0
H2033 H 0.30976 0.71844 0.33002 0.0
C2034 C 0.66967 0.18044 0.66445 0.0
C2035 C 0.64779 0.15388 0.6679 0.0
C2036 C 0.69472 0.17316 0.65547 0.0
C2037 C 0.70424 0.11601 0.62562 0.0
H2038 H 0.79368 0.16583 0.62757 0.0
C2039 C 0.75691 0.15175 0.57923 0.0
C2040 C 0.77213 0.18599 0.5812 0.0
C2041 C 0.75364 0.13518 0.58974 0.0
C2042 C 0.76866 0.15191 0.62677 0.0
H2043 H 0.6345 0.0991 0.66494 0.0
H2044 H 0.67764 0.08616 0.64854 0.0
H2045 H 0.76412 0.16159 0.64781 0.0
H2046 H 0.8003 0.22772 0.59536 0.0
H2047 H 0.79188 0.20064 0.61375 0.0
H2048 H 0.70625 0.10993 0.60485 0.0
C2049 C 0.67621 0.11251 0.65321 0.0
C2050 C 0.75201 0.14905 0.6384 0.0
C2051 C 0.65166 0.11987 0.66253 0.0
C2052 C 0.78703 0.2019 0.59358 0.0
C2053 C 0.78281 0.18581 0.60416 0.0
C2054 C 0.72029 0.11993 0.614 0.0
C2055 C 0.69764 0.13918 0.64949 0.0
C2056 C 0.719 0.13265 0.63789 0.0
C2057 C 0.76447 0.1528 0.60258 0.0
C2058 C 0.75202 0.13978 0.61441 0.0
H2059 H 0.66659 0.20683 0.66831 0.0
H2060 H 0.71035 0.19416 0.65252 0.0
H2061 H 0.67895 0.10284 0.62498 0.0
H2062 H 0.74545 0.13831 0.56982 0.0
H2063 H 0.74074 0.10923 0.58788 0.0
C2064 C 0.84637 0.68339 0.89475 0.0
C2065 C 0.82669 0.65113 0.89319 0.0
C2066 C 0.85587 0.69697 0.88378 0.0
C2067 C 0.84735 0.67671 0.84639 0.0
H2068 H 0.93749 0.72502 0.8497 0.0
C2069 C 0.95448 0.6538 0.81091 0.0
C2070 C 0.97172 0.68178 0.80661 0.0
C2071 C 0.92874 0.65832 0.8198 0.0
C2072 C 0.91216 0.71192 0.84865 0.0
H2073 H 0.79892 0.60965 0.87874 0.0
H2074 H 0.81829 0.63094 0.85984 0.0
H2075 H 0.90772 0.71788 0.86936 0.0
H2076 H 0.97562 0.73612 0.80778 0.0
H2077 H 0.93131 0.74442 0.82405 0.0
H2078 H 0.85429 0.66721 0.82545 0.0
C2079 C 0.82578 0.64674 0.86944 0.0
C2080 C 0.8947 0.70801 0.85998 0.0
C2081 C 0.81532 0.63383 0.88041 0.0
C2082 C 0.96217 0.71419 0.8109 0.0
C2083 C 0.93701 0.71893 0.82014 0.0
C2084 C 0.86545 0.67944 0.83505 0.0
C2085 C 0.84696 0.67817 0.87088 0.0
C2086 C 0.86249 0.68897 0.85904 0.0
C2087 C 0.92049 0.69104 0.82477 0.0
C2088 C 0.89839 0.69599 0.83615 0.0
H2089 H 0.85559 0.69778 0.90439 0.0
H2090 H 0.87111 0.72181 0.88548 0.0
H2091 H 0.82211 0.66336 0.84512 0.0
H2092 H 0.9617 0.62867 0.80772 0.0
H2093 H 0.91662 0.6366 0.82342 0.0
C2094 C 0.38143 0.20061 0.64802 0.0
C2095 C 0.38193 0.1656 0.64283 0.0
C2096 C 0.35171 0.2142 0.64861 0.0
C2097 C 0.25931 0.19121 0.64131 0.0
H2098 H 0.2737 0.27704 0.6301 0.0
C2099 C 0.17984 0.23188 0.60422 0.0
C2100 C 0.18082 0.26693 0.60499 0.0
C2101 C 0.19459 0.22066 0.61424 0.0
C2102 C 0.26897 0.25352 0.63357 0.0
H2103 H 0.35032 0.11708 0.63543 0.0
H2104 H 0.29938 0.14115 0.63528 0.0
H2105 H 0.32047 0.2554 0.63737 0.0
H2106 H 0.19416 0.31751 0.61727 0.0
H2107 H 0.21933 0.29799 0.63494 0.0
H2108 H 0.20772 0.18842 0.63619 0.0
C2109 C 0.32179 0.15814 0.63923 0.0
C2110 C 0.29601 0.24098 0.6378 0.0
C2111 C 0.35138 0.14435 0.63903 0.0
C2112 C 0.19282 0.29032 0.61659 0.0
C2113 C 0.20748 0.27914 0.62662 0.0
C2114 C 0.23218 0.20359 0.63682 0.0
C2115 C 0.32172 0.1935 0.6436 0.0
C2116 C 0.29183 0.20915 0.64138 0.0
C2117 C 0.21068 0.24447 0.62506 0.0
C2118 C 0.23694 0.23447 0.63258 0.0
H2119 H 0.40414 0.21814 0.65105 0.0
H2120 H 0.35263 0.24136 0.65249 0.0
H2121 H 0.25488 0.167 0.64426 0.0
H2122 H 0.17118 0.21353 0.59523 0.0
H2123 H 0.19677 0.19382 0.61272 0.0
C2124 C 0.79211 0.87485 0.39364 0.0
C2125 C 0.77568 0.88413 0.40554 0.0
C2126 C 0.77416 0.85689 0.38223 0.0
C2127 C 0.69532 0.80038 0.37152 0.0
H2128 H 0.71539 0.82189 0.33745 0.0
C2129 C 0.63962 0.71203 0.32356 0.0
C2130 C 0.62661 0.7275 0.31437 0.0
C2131 C 0.65888 0.73181 0.3343 0.0
C2132 C 0.70939 0.81576 0.34691 0.0
H2133 H 0.72773 0.88188 0.41493 0.0
H2134 H 0.69637 0.85053 0.39504 0.0
H2135 H 0.74624 0.85604 0.35716 0.0
H2136 H 0.62475 0.77535 0.30863 0.0
H2137 H 0.65859 0.81026 0.3275 0.0
H2138 H 0.65815 0.76055 0.36137 0.0
C2139 C 0.72312 0.85691 0.39451 0.0
C2140 C 0.72726 0.83506 0.35817 0.0
C2141 C 0.74106 0.87488 0.40589 0.0
C2142 C 0.63445 0.76293 0.31568 0.0
C2143 C 0.65381 0.78282 0.32644 0.0
C2144 C 0.67753 0.78112 0.3603 0.0
C2145 C 0.73946 0.84762 0.38255 0.0
C2146 C 0.72043 0.82751 0.37058 0.0
C2147 C 0.66572 0.76747 0.33599 0.0
C2148 C 0.68448 0.78847 0.34786 0.0
H2149 H 0.81889 0.88076 0.39323 0.0
H2150 H 0.78754 0.84957 0.37323 0.0
H2151 H 0.68968 0.7937 0.38091 0.0
H2152 H 0.63471 0.68458 0.32249 0.0
H2153 H 0.66836 0.71916 0.34131 0.0
C2154 C 0.31108 0.98806 0.06984 0.0
C2155 C 0.28689 0.96331 0.06237 0.0
C2156 C 0.30326 0.02019 0.07583 0.0
C2157 C 0.22738 0.05275 0.08894 0.0
H2158 H 0.29006 0.13343 0.10402 0.0
C2159 C 0.20378 0.13461 0.13873 0.0
C2160 C 0.21044 0.17023 0.14059 0.0
C2161 C 0.21459 0.11382 0.12749 0.0
C2162 C 0.27211 0.1113 0.09975 0.0
H2163 H 0.23609 0.95241 0.05519 0.0
H2164 H 0.22337 1.00944 0.06409 0.0
H2165 H 0.30606 0.09183 0.08512 0.0
H2166 H 0.23447 0.21226 0.13248 0.0
H2167 H 0.25319 0.17567 0.11259 0.0
H2168 H 0.19339 0.07214 0.10339 0.0
C2169 C 0.24816 1.00417 0.06571 0.0
C2170 C 0.28136 0.08732 0.08899 0.0
C2171 C 0.25564 0.97172 0.0602 0.0
C2172 C 0.22925 0.18478 0.13126 0.0
C2173 C 0.23988 0.16389 0.1199 0.0
C2174 C 0.21809 0.0768 0.09951 0.0
C2175 C 0.27105 0.02799 0.07438 0.0
C2176 C 0.25949 0.0571 0.08376 0.0
C2177 C 0.23195 0.12819 0.11777 0.0
C2178 C 0.24076 0.10559 0.10539 0.0
H2179 H 0.33505 0.98158 0.07199 0.0
H2180 H 0.32151 0.03751 0.08254 0.0
H2181 H 0.20982 0.02978 0.08542 0.0
H2182 H 0.18972 0.12284 0.1459 0.0
H2183 H 0.20895 0.08638 0.12634 0.0
C2184 C 0.75439 0.66169 0.05835 0.0
C2185 C 0.73279 0.68611 0.06154 0.0
C2186 C 0.76323 0.64479 0.06782 0.0
C2187 C 0.74896 0.6327 0.10208 0.0
H2188 H 0.84531 0.65087 0.10423 0.0
C2189 C 0.82621 0.65382 0.15055 0.0
C2190 C 0.85868 0.64542 0.14967 0.0
C2191 C 0.80641 0.64915 0.13916 0.0
C2192 C 0.81844 0.64467 0.10371 0.0
H2193 H 0.70026 0.70886 0.0765 0.0
H2194 H 0.71639 0.6801 0.09315 0.0
H2195 H 0.81689 0.65653 0.08479 0.0
H2196 H 0.8949 0.62419 0.13585 0.0
H2197 H 0.85978 0.61365 0.11655 0.0
H2198 H 0.75083 0.62183 0.12133 0.0
C2199 C 0.72646 0.67387 0.08337 0.0
C2200 C 0.80209 0.64791 0.09249 0.0
C2201 C 0.71755 0.69067 0.07389 0.0
C2202 C 0.86994 0.63043 0.13719 0.0
C2203 C 0.84993 0.62496 0.12594 0.0
C2204 C 0.76544 0.62913 0.11335 0.0
C2205 C 0.75072 0.65216 0.08064 0.0
C2206 C 0.7672 0.64263 0.09163 0.0
C2207 C 0.8185 0.63552 0.12668 0.0
C2208 C 0.8004 0.63569 0.11437 0.0
H2209 H 0.76643 0.65755 0.0489 0.0
H2210 H 0.78159 0.62772 0.0654 0.0
H2211 H 0.72201 0.62848 0.10167 0.0
H2212 H 0.81634 0.66481 0.15998 0.0
H2213 H 0.78232 0.65768 0.1401 0.0
C2214 C 0.13139 0.25406 0.8112 0.0
C2215 C 0.12546 0.21859 0.81014 0.0
C2216 C 0.14942 0.27541 0.82205 0.0
C2217 C 0.17074 0.27827 0.85641 0.0
H2218 H 0.24184 0.35068 0.85288 0.0
C2219 C 0.28602 0.3693 0.8897 0.0
C2220 C 0.26951 0.38311 0.90107 0.0
C2221 C 0.26796 0.35065 0.87842 0.0
C2222 C 0.22206 0.3305 0.85399 0.0
H2223 H 0.13588 0.17731 0.81878 0.0
H2224 H 0.16678 0.21453 0.83786 0.0
H2225 H 0.2117 0.31531 0.83316 0.0
H2226 H 0.22126 0.3872 0.90988 0.0
H2227 H 0.18956 0.35393 0.89023 0.0
H2228 H 0.18117 0.29318 0.8772 0.0
C2229 C 0.15692 0.22594 0.83053 0.0
C2230 C 0.20469 0.3105 0.84274 0.0
C2231 C 0.13919 0.20469 0.81967 0.0
C2232 C 0.2346 0.37691 0.90119 0.0
C2233 C 0.21649 0.35794 0.88996 0.0
C2234 C 0.18785 0.29846 0.86765 0.0
C2235 C 0.16173 0.26154 0.83194 0.0
C2236 C 0.17916 0.28392 0.84384 0.0
C2237 C 0.233 0.34487 0.87843 0.0
C2238 C 0.21391 0.32452 0.86654 0.0
H2239 H 0.12115 0.26536 0.80392 0.0
H2240 H 0.15284 0.30279 0.8229 0.0
H2241 H 0.15089 0.25819 0.85754 0.0
H2242 H 0.31292 0.37251 0.88958 0.0
H2243 H 0.28134 0.34022 0.86977 0.0
C2244 C 0.81897 0.48039 0.57446 0.0
C2245 C 0.79691 0.45659 0.56556 0.0
C2246 C 0.81387 0.51436 0.57818 0.0
C2247 C 0.74202 0.55937 0.58276 0.0
H2248 H 0.80898 0.63508 0.59899 0.0
C2249 C 0.70667 0.67378 0.62057 0.0
C2250 C 0.72439 0.67974 0.63262 0.0
C2251 C 0.7179 0.65375 0.60916 0.0
C2252 C 0.79001 0.61427 0.5944 0.0
H2253 H 0.75289 0.44977 0.55317 0.0
H2254 H 0.74479 0.50937 0.5591 0.0
H2255 H 0.8256 0.58679 0.58309 0.0
H2256 H 0.7685 0.67034 0.64197 0.0
H2257 H 0.78819 0.63567 0.62203 0.0
H2258 H 0.70665 0.58619 0.59441 0.0
C2259 C 0.76598 0.50184 0.56331 0.0
C2260 C 0.79948 0.58661 0.58531 0.0
C2261 C 0.77096 0.4677 0.5597 0.0
C2262 C 0.75442 0.66657 0.63284 0.0
C2263 C 0.76576 0.64676 0.6214 0.0
C2264 C 0.73255 0.58714 0.59172 0.0
C2265 C 0.78634 0.52515 0.57313 0.0
C2266 C 0.77579 0.55809 0.57985 0.0
C2267 C 0.74724 0.63954 0.60952 0.0
C2268 C 0.75661 0.61415 0.59805 0.0
H2269 H 0.83879 0.47216 0.57929 0.0
H2270 H 0.82986 0.53126 0.58589 0.0
H2271 H 0.72305 0.53779 0.57894 0.0
H2272 H 0.68385 0.68421 0.61999 0.0
H2273 H 0.70329 0.6488 0.6001 0.0
C2274 C 0.50986 0.15592 0.32453 0.0
C2275 C 0.50652 0.18096 0.31744 0.0
C2276 C 0.49092 0.15373 0.33566 0.0
C2277 C 0.46358 0.16778 0.36311 0.0
H2278 H 0.36934 0.1741 0.36298 0.0
C2279 C 0.38406 0.15768 0.40874 0.0
C2280 C 0.3534 0.13602 0.40622 0.0
C2281 C 0.40218 0.16782 0.39839 0.0
C2282 C 0.39564 0.17225 0.36316 0.0
H2283 H 0.48116 0.22367 0.31646 0.0
H2284 H 0.44766 0.21975 0.33597 0.0
H2285 H 0.40223 0.18184 0.34376 0.0
H2286 H 0.31699 0.10935 0.39094 0.0
H2287 H 0.34885 0.12639 0.37289 0.0
H2288 H 0.45689 0.15694 0.38226 0.0
C2289 C 0.46469 0.20154 0.33281 0.0
C2290 C 0.41453 0.17702 0.35221 0.0
C2291 C 0.48375 0.20376 0.32164 0.0
C2292 C 0.34076 0.12568 0.39318 0.0
C2293 C 0.35884 0.1358 0.38285 0.0
C2294 C 0.44474 0.16303 0.37405 0.0
C2295 C 0.46828 0.17664 0.34 0.0
C2296 C 0.4486 0.17424 0.35197 0.0
C2297 C 0.39 0.15658 0.3853 0.0
C2298 C 0.41044 0.1647 0.37413 0.0
H2299 H 0.52714 0.13791 0.32145 0.0
H2300 H 0.49385 0.13385 0.34081 0.0
H2301 H 0.48989 0.16599 0.36332 0.0
H2302 H 0.39454 0.16594 0.41867 0.0
H2303 H 0.42594 0.18416 0.40063 0.0
C2304 C 0.21962 0.6145 0.24633 0.0
C2305 C 0.20641 0.58718 0.23608 0.0
C2306 C 0.25225 0.61746 0.25083 0.0
C2307 C 0.33289 0.59162 0.24 0.0
H2308 H 0.35792 0.63696 0.27613 0.0
C2309 C 0.46987 0.6257 0.26045 0.0
C2310 C 0.47757 0.65825 0.26879 0.0
C2311 C 0.43696 0.61288 0.25617 0.0
C2312 C 0.3514 0.62403 0.26602 0.0
H2313 H 0.21643 0.54048 0.22296 0.0
H2314 H 0.27358 0.5451 0.23115 0.0
H2315 H 0.29958 0.61852 0.2701 0.0
H2316 H 0.45742 0.7037 0.27849 0.0
H2317 H 0.40041 0.68152 0.27106 0.0
H2318 H 0.38512 0.5971 0.23606 0.0
C2319 C 0.25878 0.56466 0.23548 0.0
C2320 C 0.3179 0.61365 0.26254 0.0
C2321 C 0.22599 0.56179 0.2309 0.0
C2322 C 0.45216 0.67827 0.27228 0.0
C2323 C 0.41946 0.66551 0.26807 0.0
C2324 C 0.3666 0.60144 0.24358 0.0
C2325 C 0.27246 0.59291 0.24533 0.0
C2326 C 0.30814 0.5984 0.24939 0.0
C2327 C 0.41136 0.63244 0.26021 0.0
C2328 C 0.37609 0.61859 0.25656 0.0
H2329 H 0.20495 0.6342 0.25065 0.0
H2330 H 0.26196 0.63984 0.25829 0.0
H2331 H 0.32626 0.58026 0.22976 0.0
H2332 H 0.48894 0.60963 0.25764 0.0
H2333 H 0.43137 0.58729 0.25012 0.0
C2334 C 0.83392 0.0346 0.47478 0.0
C2335 C 0.8093 0.02549 0.46473 0.0
C2336 C 0.83387 0.06414 0.48463 0.0
C2337 C 0.78036 0.12645 0.5003 0.0
H2338 H 0.86206 0.19124 0.50637 0.0
C2339 C 0.77939 0.26775 0.52159 0.0
C2340 C 0.80236 0.28431 0.53177 0.0
C2341 C 0.7822 0.2351 0.51444 0.0
C2342 C 0.83924 0.17316 0.50492 0.0
H2343 H 0.76487 0.03924 0.45724 0.0
H2344 H 0.76477 0.09077 0.47441 0.0
H2345 H 0.86253 0.13419 0.49248 0.0
H2346 H 0.84675 0.28008 0.54233 0.0
H2347 H 0.85153 0.22247 0.5298 0.0
H2348 H 0.75683 0.16559 0.51239 0.0
C2349 C 0.78396 0.07507 0.47476 0.0
C2350 C 0.83951 0.14058 0.49702 0.0
C2351 C 0.78415 0.04576 0.46489 0.0
C2352 C 0.82869 0.26786 0.53451 0.0
C2353 C 0.83152 0.23505 0.52733 0.0
C2354 C 0.78009 0.15893 0.50815 0.0
C2355 C 0.80902 0.08474 0.48463 0.0
C2356 C 0.80987 0.11729 0.4944 0.0
C2357 C 0.80793 0.21823 0.51739 0.0
C2358 C 0.80932 0.18284 0.51024 0.0
H2359 H 0.854 0.01981 0.47471 0.0
H2360 H 0.85344 0.07111 0.49215 0.0
H2361 H 0.75731 0.10873 0.4986 0.0
H2362 H 0.75835 0.27932 0.51951 0.0
H2363 H 0.7639 0.22283 0.50671 0.0
C2364 C 0.17219 0.69962 0.78318 0.0
C2365 C 0.14466 0.69495 0.77458 0.0
C2366 C 0.20417 0.71027 0.77921 0.0
C2367 C 0.2501 0.74564 0.75253 0.0
H2368 H 0.3238 0.71372 0.76693 0.0
C2369 C 0.38572 0.78153 0.73693 0.0
C2370 C 0.40636 0.75613 0.73563 0.0
C2371 C 0.35455 0.7773 0.74275 0.0
C2372 C 0.30355 0.72257 0.76264 0.0
H2373 H 0.12932 0.69684 0.75487 0.0
H2374 H 0.18524 0.71297 0.74759 0.0
H2375 H 0.26813 0.69816 0.7741 0.0
H2376 H 0.41085 0.70712 0.74008 0.0
H2377 H 0.3563 0.6987 0.7492 0.0
H2378 H 0.28544 0.76777 0.74029 0.0
C2379 C 0.18212 0.71012 0.75766 0.0
C2380 C 0.27145 0.71418 0.76699 0.0
C2381 C 0.14996 0.70042 0.76178 0.0
C2382 C 0.39538 0.72688 0.74056 0.0
C2383 C 0.36414 0.72236 0.7461 0.0
C2384 C 0.28219 0.75333 0.74793 0.0
C2385 C 0.20972 0.7154 0.76635 0.0
C2386 C 0.24415 0.72539 0.76195 0.0
C2387 C 0.34317 0.74741 0.74727 0.0
C2388 C 0.30933 0.74157 0.75282 0.0
H2389 H 0.16912 0.69571 0.7931 0.0
H2390 H 0.22445 0.71475 0.78633 0.0
H2391 H 0.22998 0.75549 0.7486 0.0
H2392 H 0.39329 0.80437 0.73323 0.0
H2393 H 0.33941 0.79746 0.74367 0.0
C2394 C 0.77838 0.23806 0.95497 0.0
C2395 C 0.78431 0.27301 0.96102 0.0
C2396 C 0.77169 0.21358 0.96257 0.0
C2397 C 0.74789 0.20015 -0.00436 0.0
H2398 H 0.80584 0.13085 0.98808 0.0
C2399 C 0.77489 0.12072 0.033 0.0
C2400 C 0.77946 0.08661 0.0281 0.0
C2401 C 0.77084 0.14184 0.02436 0.0
C2402 C 0.78897 0.14955 -0.0098 0.0
H2403 H 0.78644 0.30966 0.97979 0.0
H2404 H 0.77438 0.26691 -0.00698 0.0
H2405 H 0.80496 0.17005 0.97353 0.0
H2406 H 0.78324 0.04798 0.01022 0.0
H2407 H 0.77485 0.08426 -0.00476 0.0
H2408 H 0.73211 0.17976 0.0124 0.0
C2409 C 0.77472 0.2585 0.98238 0.0
C2410 C 0.7885 0.17203 0.98185 0.0
C2411 C 0.78161 0.28298 0.97479 0.0
C2412 C 0.77931 0.07396 0.01437 0.0
C2413 C 0.77496 0.09493 0.00575 0.0
C2414 C 0.74815 0.17743 0.00396 0.0
C2415 C 0.77059 0.22357 0.97638 0.0
C2416 C 0.7683 0.19783 0.98458 0.0
C2417 C 0.77112 0.12924 0.01063 0.0
C2418 C 0.76904 0.15214 0.00142 0.0
H2419 H 0.77964 0.2296 0.94436 0.0
H2420 H 0.76812 0.18679 0.95769 0.0
H2421 H 0.73191 0.21969 -0.0021 0.0
H2422 H 0.77448 0.13115 0.04352 0.0
H2423 H 0.76832 0.16825 0.02846 0.0
C2424 C 0.66313 0.69232 0.71185 0.0
C2425 C 0.65422 0.68235 0.69841 0.0
C2426 C 0.69661 0.69853 0.71587 0.0
C2427 C 0.78101 0.68404 0.70319 0.0
H2428 H 0.80996 0.74985 0.7355 0.0
C2429 C 0.91287 0.6959 0.72471 0.0
C2430 C 0.92841 0.72762 0.73207 0.0
C2431 C 0.87973 0.69144 0.7205 0.0
C2432 C 0.80254 0.73179 0.72632 0.0
H2433 H 0.67327 0.67099 0.67862 0.0
H2434 H 0.73134 0.68419 0.68545 0.0
H2435 H 0.75225 0.74132 0.72825 0.0
H2436 H 0.92099 0.77983 0.74048 0.0
H2437 H 0.86409 0.77274 0.73231 0.0
H2438 H 0.83157 0.6761 0.70077 0.0
C2439 C 0.71279 0.68596 0.69303 0.0
C2440 C 0.76911 0.72636 0.72228 0.0
C2441 C 0.67936 0.67876 0.68907 0.0
C2442 C 0.91011 0.75509 0.73473 0.0
C2443 C 0.87711 0.75083 0.73023 0.0
C2444 C 0.81453 0.69009 0.70705 0.0
C2445 C 0.72198 0.69565 0.70651 0.0
C2446 C 0.75778 0.70215 0.71071 0.0
C2447 C 0.86131 0.71881 0.72318 0.0
C2448 C 0.82576 0.71371 0.71876 0.0
H2449 H 0.64425 0.69451 0.71927 0.0
H2450 H 0.70246 0.70505 0.72634 0.0
H2451 H 0.77341 0.66473 0.69435 0.0
H2452 H 0.92622 0.67426 0.72217 0.0
H2453 H 0.86851 0.66621 0.71531 0.0
C2454 C 0.33126 0.29229 0.52531 0.0
C2455 C 0.29928 0.30118 0.52723 0.0
C2456 C 0.33662 0.26396 0.51558 0.0
C2457 C 0.29458 0.19736 0.48722 0.0
H2458 H 0.35903 0.1444 0.49649 0.0
C2459 C 0.29375 0.05222 0.46758 0.0
C2460 C 0.32244 0.04338 0.46083 0.0
C2461 C 0.29296 0.08566 0.47454 0.0
C2462 C 0.34121 0.15916 0.49375 0.0
H2463 H 0.24786 0.28835 0.52053 0.0
H2464 H 0.25651 0.23777 0.50404 0.0
H2465 H 0.3538 0.1997 0.5106 0.0
H2466 H 0.37284 0.06236 0.45615 0.0
H2467 H 0.37178 0.12087 0.46883 0.0
H2468 H 0.28055 0.15507 0.47087 0.0
C2469 C 0.27794 0.2531 0.50959 0.0
C2470 C 0.3383 0.19104 0.50175 0.0
C2471 C 0.27281 0.28198 0.5191 0.0
C2472 C 0.35048 0.06851 0.46132 0.0
C2473 C 0.3499 0.10185 0.46852 0.0
C2474 C 0.29695 0.16506 0.47942 0.0
C2475 C 0.30985 0.24329 0.50785 0.0
C2476 C 0.3147 0.21053 0.49869 0.0
C2477 C 0.32101 0.11067 0.47506 0.0
C2478 C 0.32012 0.1457 0.4827 0.0
H2479 H 0.35211 0.30717 0.5314 0.0
H2480 H 0.36171 0.25803 0.51431 0.0
H2481 H 0.27668 0.21175 0.48431 0.0
H2482 H 0.27158 0.03356 0.46722 0.0
H2483 H 0.27051 0.092 0.47959 0.0
C2484 C 0.76687 0.63847 0.26029 0.0
C2485 C 0.76609 0.65393 0.27377 0.0
C2486 C 0.79652 0.62967 0.25463 0.0
C2487 C 0.88194 0.66574 0.25845 0.0
H2488 H 0.89581 0.5895 0.23008 0.0
C2489 C 0.97098 0.67699 0.21597 0.0
C2490 C 0.99467 0.65468 0.21391 0.0
C2491 C 0.94516 0.67269 0.22468 0.0
C2492 C 0.89232 0.61072 0.2381 0.0
H2493 H 0.79472 0.66855 0.29217 0.0
H2494 H 0.84685 0.65413 0.28215 0.0
H2495 H 0.84587 0.58517 0.24351 0.0
H2496 H 1.01005 0.61014 0.21902 0.0
H2497 H 0.96409 0.60211 0.23404 0.0
H2498 H 0.92724 0.69204 0.25255 0.0
C2499 C 0.82452 0.64906 0.276 0.0
C2500 C 0.86391 0.60826 0.24573 0.0
C2501 C 0.79479 0.65751 0.28169 0.0
C2502 C 0.99208 0.62779 0.22055 0.0
C2503 C 0.96586 0.62308 0.22905 0.0
C2504 C 0.90993 0.66839 0.25069 0.0
C2505 C 0.82588 0.63643 0.26234 0.0
C2506 C 0.85824 0.63603 0.2558 0.0
C2507 C 0.94242 0.64566 0.23124 0.0
C2508 C 0.91491 0.6412 0.2403 0.0
H2509 H 0.74531 0.63556 0.25388 0.0
H2510 H 0.79703 0.62022 0.24405 0.0
H2511 H 0.87788 0.68769 0.26603 0.0
H2512 H 0.97277 0.69807 0.21105 0.0
H2513 H 0.92712 0.69025 0.2262 0.0
C2514 C 0.25753 0.05627 0.00248 0.0
C2515 C 0.24279 0.06199 0.01492 0.0
C2516 C 0.26169 0.08158 -0.00477 0.0
C2517 C 0.26722 0.17358 -0.0025 0.0
H2518 H 0.24459 0.1445 0.96015 0.0
C2519 C 0.27164 0.26737 0.96229 0.0
C2520 C 0.28468 0.25642 0.94974 0.0
C2521 C 0.26559 0.24507 0.97086 0.0
C2522 C 0.25132 0.15301 0.97053 0.0
H2523 H 0.2213 0.09901 0.02959 0.0
H2524 H 0.22852 0.14356 0.01679 0.0
H2525 H 0.2356 0.10327 0.97411 0.0
H2526 H 0.3028 0.21401 0.93656 0.0
H2527 H 0.29242 0.17524 0.95147 0.0
H2528 H 0.28337 0.22335 -0.00618 0.0
C2529 C 0.23696 0.11938 0.01274 0.0
C2530 C 0.24611 0.12939 0.97853 0.0
C2531 C 0.23263 0.09386 0.02002 0.0
C2532 C 0.29212 0.22298 0.94605 0.0
C2533 C 0.28614 0.20077 0.9546 0.0
C2534 C 0.27253 0.1973 -0.01054 0.0
C2535 C 0.25114 0.11325 0.0002 0.0
C2536 C 0.25451 0.13926 -0.00795 0.0
C2537 C 0.27248 0.21141 0.96704 0.0
C2538 C 0.26514 0.18708 0.97584 0.0
H2539 H 0.26517 0.03184 -0.00183 0.0
H2540 H 0.2731 0.07626 0.98567 0.0
H2541 H 0.27406 0.18184 0.00788 0.0
H2542 H 0.26539 0.29293 0.96536 0.0
H2543 H 0.25482 0.25393 0.98034 0.0
C2544 C 0.94714 0.18683 0.77432 0.0
C2545 C 0.96837 0.16222 0.77062 0.0
C2546 C 0.91425 0.18023 0.7697 0.0
C2547 C 0.85159 0.16755 0.75305 0.0
H2548 H 0.79817 0.08078 0.7542 0.0
C2549 C 0.70955 0.15017 0.74998 0.0
C2550 C 0.69293 0.12013 0.74185 0.0
C2551 C 0.7434 0.15337 0.75293 0.0
C2552 C 0.81287 0.10496 0.75367 0.0
H2553 H 0.97163 0.11112 0.75938 0.0
H2554 H 0.9142 0.09988 0.75097 0.0
H2555 H 0.85763 0.09004 0.7597 0.0
H2556 H 0.69849 0.06951 0.73071 0.0
H2557 H 0.75792 0.0751 0.73589 0.0
H2558 H 0.80701 0.1826 0.74707 0.0
C2559 C 0.9231 0.12427 0.75747 0.0
C2560 C 0.8469 0.11027 0.75682 0.0
C2561 C 0.95612 0.13091 0.76211 0.0
C2562 C 0.71063 0.09286 0.73708 0.0
C2563 C 0.74462 0.09608 0.74003 0.0
C2564 C 0.8177 0.16224 0.74988 0.0
C2565 C 0.90181 0.14887 0.76126 0.0
C2566 C 0.86646 0.14188 0.75678 0.0
C2567 C 0.76145 0.12662 0.7478 0.0
C2568 C 0.79783 0.13114 0.7504 0.0
H2569 H 0.95583 0.21114 0.78092 0.0
H2570 H 0.89833 0.19947 0.773 0.0
H2571 H 0.86616 0.1919 0.75264 0.0
H2572 H 0.6964 0.17136 0.754 0.0
H2573 H 0.75549 0.1769 0.7592 0.0
C2574 C 0.33056 0.54782 0.96528 0.0
C2575 C 0.30623 0.53617 0.95518 0.0
C2576 C 0.3298 0.57883 0.97428 0.0
C2577 C 0.27413 0.64092 0.98789 0.0
H2578 H 0.35496 0.70682 -0.00554 0.0
C2579 C 0.2706 0.78112 0.01205 0.0
C2580 C 0.29441 0.79676 0.02202 0.0
C2581 C 0.27364 0.74944 0.004 0.0
C2582 C 0.33229 0.68853 -0.00717 0.0
H2583 H 0.26175 0.54713 0.94664 0.0
H2584 H 0.26041 0.60113 0.96231 0.0
H2585 H 0.35676 0.64973 0.98087 0.0
H2586 H 0.34051 0.79194 0.03128 0.0
H2587 H 0.34555 0.73616 0.01733 0.0
H2588 H 0.24955 0.67957 -0.00026 0.0
C2589 C 0.27992 0.58635 0.96337 0.0
C2590 C 0.33334 0.65588 0.9851 0.0
C2591 C 0.28082 0.55558 0.95435 0.0
C2592 C 0.32178 0.78046 0.02363 0.0
C2593 C 0.32478 0.74866 0.01561 0.0
C2594 C 0.27308 0.67345 -0.00438 0.0
C2595 C 0.30454 0.59843 0.97335 0.0
C2596 C 0.30416 0.63196 0.98242 0.0
C2597 C 0.30042 0.73259 0.00586 0.0
C2598 C 0.30204 0.69775 -0.00199 0.0
H2599 H 0.35077 0.53365 0.96597 0.0
H2600 H 0.34901 0.58757 0.98192 0.0
H2601 H 0.25137 0.62277 0.98614 0.0
H2602 H 0.2486 0.79233 0.01095 0.0
H2603 H 0.25461 0.7378 -0.00351 0.0
C2604 C 0.64959 0.16408 0.25617 0.0
C2605 C 0.62261 0.18238 0.25732 0.0
C2606 C 0.67709 0.17287 0.24882 0.0
C2607 C 0.72349 0.2469 0.23935 0.0
H2608 H 0.77306 0.17951 0.21892 0.0
C2609 C 0.8656 0.2687 0.23393 0.0
C2610 C 0.87954 0.25188 0.22235 0.0
C2611 C 0.83113 0.26421 0.23547 0.0
C2612 C 0.75934 0.19881 0.22437 0.0
H2613 H 0.60258 0.22346 0.25134 0.0
H2614 H 0.65107 0.23907 0.23849 0.0
H2615 H 0.71716 0.16157 0.22592 0.0
H2616 H 0.86828 0.21967 0.20286 0.0
H2617 H 0.80805 0.21196 0.20553 0.0
H2618 H 0.76614 0.28401 0.23813 0.0
C2619 C 0.65077 0.21785 0.24327 0.0
C2620 C 0.72742 0.18844 0.22848 0.0
C2621 C 0.62295 0.20872 0.2505 0.0
C2622 C 0.85823 0.23242 0.21199 0.0
C2623 C 0.82378 0.228 0.21352 0.0
C2624 C 0.75553 0.25729 0.23527 0.0
C2625 C 0.67834 0.20037 0.24256 0.0
C2626 C 0.70955 0.2122 0.23633 0.0
C2627 C 0.80991 0.2429 0.22545 0.0
C2628 C 0.77415 0.2332 0.22804 0.0
H2629 H 0.64996 0.14371 0.26135 0.0
H2630 H 0.69811 0.15918 0.24859 0.0
H2631 H 0.71038 0.26575 0.24547 0.0
H2632 H 0.8814 0.28364 0.24211 0.0
H2633 H 0.82131 0.27579 0.24483 0.0
C2634 C 0.28357 0.61045 0.53358 0.0
C2635 C 0.28326 0.57571 0.52762 0.0
C2636 C 0.27768 0.63368 0.52608 0.0
C2637 C 0.2411 0.64262 0.49525 0.0
H2638 H 0.31056 0.72053 0.49783 0.0
C2639 C 0.25328 0.72609 0.45666 0.0
C2640 C 0.26684 0.76084 0.46052 0.0
C2641 C 0.25195 0.70472 0.46556 0.0
C2642 C 0.2905 0.69941 0.49714 0.0
H2643 H 0.27505 0.53811 0.50911 0.0
H2644 H 0.26375 0.57867 0.49611 0.0
H2645 H 0.31304 0.68094 0.51215 0.0
H2646 H 0.28873 0.80043 0.47702 0.0
H2647 H 0.28472 0.76367 0.49271 0.0
H2648 H 0.21816 0.66121 0.48041 0.0
C2649 C 0.26881 0.58776 0.5066 0.0
C2650 C 0.29207 0.67661 0.50533 0.0
C2651 C 0.27518 0.56454 0.51407 0.0
C2652 C 0.27788 0.7739 0.47368 0.0
C2653 C 0.27606 0.75261 0.48265 0.0
C2654 C 0.2392 0.66575 0.4872 0.0
C2655 C 0.27076 0.62265 0.51249 0.0
C2656 C 0.26764 0.64778 0.50434 0.0
C2657 C 0.26362 0.71757 0.47866 0.0
C2658 C 0.26415 0.69423 0.4879 0.0
H2659 H 0.28884 0.61987 0.54404 0.0
H2660 H 0.27886 0.66038 0.53088 0.0
H2661 H 0.22178 0.62072 0.4944 0.0
H2662 H 0.24386 0.71518 0.4467 0.0
H2663 H 0.24254 0.67788 0.46202 0.0
C2664 C 0.14559 0.18846 0.21639 0.0
C2665 C 0.13669 0.17744 0.20299 0.0
C2666 C 0.17889 0.19963 0.22031 0.0
C2667 C 0.26509 0.19908 0.20722 0.0
H2668 H 0.28729 0.26279 0.24066 0.0
C2669 C 0.39405 0.21665 0.23109 0.0
C2670 C 0.40669 0.24717 0.24001 0.0
C2671 C 0.3621 0.21184 0.22569 0.0
C2672 C 0.28175 0.24556 0.23114 0.0
H2673 H 0.15559 0.16861 0.18315 0.0
H2674 H 0.21282 0.19084 0.18974 0.0
H2675 H 0.22986 0.24846 0.23296 0.0
H2676 H 0.39611 0.2975 0.24959 0.0
H2677 H 0.341 0.29002 0.23942 0.0
H2678 H 0.31706 0.19797 0.20494 0.0
C2679 C 0.19471 0.18978 0.19741 0.0
C2680 C 0.24851 0.23667 0.22684 0.0
C2681 C 0.16165 0.17744 0.19356 0.0
C2682 C 0.38719 0.27364 0.24277 0.0
C2683 C 0.35532 0.26911 0.23708 0.0
C2684 C 0.29832 0.2088 0.21131 0.0
C2685 C 0.20395 0.20087 0.21086 0.0
C2686 C 0.23959 0.21258 0.21498 0.0
C2687 C 0.34207 0.23783 0.22867 0.0
C2688 C 0.30709 0.23131 0.22353 0.0
H2689 H 0.12695 0.18771 0.22386 0.0
H2690 H 0.18487 0.20676 0.23077 0.0
H2691 H 0.2596 0.18017 0.19811 0.0
H2692 H 0.40865 0.19602 0.22841 0.0
H2693 H 0.35289 0.18715 0.21947 0.0
C2694 C 0.77073 0.79718 0.01038 0.0
C2695 C 0.79632 0.81324 0.01955 0.0
C2696 C 0.77507 0.76789 0.00093 0.0
C2697 C 0.82825 0.69917 -0.00461 0.0
H2698 H 0.78042 0.67053 0.96177 0.0
C2699 C 0.84549 0.57978 0.95471 0.0
C2700 C 0.8164 0.55573 0.95247 0.0
C2701 C 0.8445 0.6127 0.96218 0.0
C2702 C 0.79396 0.67844 0.97113 0.0
H2703 H 0.84726 0.81367 0.02549 0.0
H2704 H 0.8558 0.76411 0.0085 0.0
H2705 H 0.7775 0.72725 0.97549 0.0
H2706 H 0.76342 0.54706 0.95594 0.0
H2707 H 0.76165 0.60503 0.96882 0.0
H2708 H 0.84529 0.6505 -0.00926 0.0
C2709 C 0.83172 0.77264 0.00894 0.0
C2710 C 0.79214 0.71074 0.97904 0.0
C2711 C 0.82703 0.80125 0.01859 0.0
C2712 C 0.78625 0.56509 0.95768 0.0
C2713 C 0.78514 0.59819 0.96491 0.0
C2714 C 0.83063 0.66728 0.98735 0.0
C2715 C 0.80541 0.75474 0.0003 0.0
C2716 C 0.80897 0.7214 -0.00863 0.0
C2717 C 0.81427 0.62212 0.96723 0.0
C2718 C 0.8132 0.65659 0.97526 0.0
H2719 H 0.74673 0.80595 0.01104 0.0
H2720 H 0.75407 0.75473 -0.00542 0.0
H2721 H 0.84086 0.70588 0.00494 0.0
H2722 H 0.869 0.57299 0.9508 0.0
H2723 H 0.86722 0.6309 0.96394 0.0
C2724 C 0.23117 0.11936 0.73539 0.0
C2725 C 0.21682 0.08819 0.7383 0.0
C2726 C 0.26246 0.12277 0.72984 0.0
C2727 C 0.33905 0.08265 0.72399 0.0
H2728 H 0.35601 0.14506 0.70049 0.0
C2729 C 0.47203 0.13188 0.71004 0.0
C2730 C 0.47717 0.14035 0.69769 0.0
C2731 C 0.43989 0.12217 0.71411 0.0
C2732 C 0.35174 0.12702 0.70683 0.0
H2733 H 0.22436 0.03597 0.73748 0.0
H2734 H 0.27847 0.04144 0.72711 0.0
H2735 H 0.30055 0.13296 0.70857 0.0
H2736 H 0.45245 0.14451 0.67983 0.0
H2737 H 0.39684 0.12573 0.68658 0.0
H2738 H 0.39003 0.07553 0.72172 0.0
C2739 C 0.26576 0.06357 0.72951 0.0
C2740 C 0.3199 0.12056 0.71169 0.0
C2741 C 0.23452 0.0603 0.73531 0.0
C2742 C 0.44949 0.1382 0.68941 0.0
C2743 C 0.41744 0.12772 0.69336 0.0
C2744 C 0.37084 0.0886 0.71891 0.0
C2745 C 0.28008 0.09489 0.72669 0.0
C2746 C 0.3133 0.09897 0.72059 0.0
C2747 C 0.41213 0.12004 0.70584 0.0
C2748 C 0.37777 0.11141 0.71046 0.0
H2749 H 0.2181 0.14125 0.73723 0.0
H2750 H 0.27285 0.14751 0.7281 0.0
H2751 H 0.33498 0.06599 0.73086 0.0
H2752 H 0.49276 0.13336 0.7167 0.0
H2753 H 0.43688 0.11715 0.7239 0.0
C2754 C 0.83173 0.71899 0.44821 0.0
C2755 C 0.81498 0.74722 0.45225 0.0
C2756 C 0.83654 0.69846 0.45697 0.0
C2757 C 0.79983 0.66834 0.48467 0.0
H2758 H 0.88578 0.64081 0.48883 0.0
C2759 C 0.80854 0.5596 0.51035 0.0
C2760 C 0.82614 0.53456 0.50314 0.0
C2761 C 0.81268 0.59232 0.50779 0.0
C2762 C 0.8616 0.6482 0.48777 0.0
H2763 H 0.78971 0.77608 0.4684 0.0
H2764 H 0.79731 0.73941 0.48364 0.0
H2765 H 0.88107 0.68437 0.47634 0.0
H2766 H 0.86457 0.52524 0.48872 0.0
H2767 H 0.87064 0.58138 0.48379 0.0
H2768 H 0.77968 0.63076 0.49521 0.0
C2769 C 0.80709 0.73355 0.47379 0.0
C2770 C 0.85898 0.67315 0.48065 0.0
C2771 C 0.80275 0.75441 0.46511 0.0
C2772 C 0.85002 0.54375 0.49418 0.0
C2773 C 0.85386 0.57623 0.49151 0.0
C2774 C 0.80231 0.64301 0.4916 0.0
C2775 C 0.82422 0.70557 0.46981 0.0
C2776 C 0.82791 0.68271 0.47876 0.0
C2777 C 0.83424 0.60048 0.49789 0.0
C2778 C 0.83306 0.63187 0.49289 0.0
H2779 H 0.84158 0.7132 0.43838 0.0
H2780 H 0.84944 0.6767 0.45364 0.0
H2781 H 0.77557 0.67525 0.48328 0.0
H2782 H 0.79002 0.55338 0.51736 0.0
H2783 H 0.79777 0.61065 0.51311 0.0
loop_
_geom_bond_atom_site_label_1
_geom_bond_atom_site_label_2
_geom_bond_distance
_geom_bond_site_symmetry_2
_ccdc_geom_bond_type
Tb0 N29 2.617 . S
Tb0 N35 2.572 . S
Tb0 O44 2.465 . S
Tb0 O45 2.387 . S
Tb0 O47 2.428 . S
Tb0 O48 2.308 . S
Tb0 O52 2.349 . S
Tb0 O55 2.390 . S
Tb0 C64 2.802 . S
C1 N2 1.379 1_655 S
C1 C4 1.416 1_655 S
C1 C8 1.424 . S
N2 C1 1.379 1_455 S
N2 C5 1.334 . S
N2 Tb11 2.617 . S
C3 C5 1.390 . S
C3 C6 1.339 . S
C3 H23 0.930 . S
C4 C1 1.416 1_455 S
C4 C6 1.416 . S
C4 C10 1.448 1_455 S
C5 N2 1.334 . S
C5 C3 1.390 . S
C5 H16 0.930 . S
C6 C3 1.339 . S
C6 C4 1.416 . S
C6 H27 0.930 . S
C7 C8 1.413 . S
C7 C9 1.427 . S
C7 C13 1.416 . S
C8 C1 1.424 . S
C8 C7 1.413 . S
C8 N12 1.361 . S
C9 C7 1.427 . S
C9 C10 1.328 . S
C9 H24 0.929 . S
C10 C4 1.448 1_655 S
C10 C9 1.328 . S
C10 H25 0.930 . S
Tb11 N2 2.617 . S
Tb11 N12 2.572 1_455 S
Tb11 O46 2.349 . S
Tb11 O49 2.393 . S
Tb11 O50 2.465 1_455 S
Tb11 O51 2.387 . S
Tb11 O53 2.428 1_455 S
Tb11 O54 2.308 1_455 S
Tb11 C75 2.802 1_455 S
N12 C8 1.361 . S
N12 Tb11 2.572 1_655 S
N12 C14 1.340 . S
C13 C7 1.416 . S
C13 C15 1.332 . S
C13 H21 0.931 . S
C14 N12 1.340 . S
C14 C15 1.407 . S
C14 H20 0.930 . S
C15 C13 1.332 . S
C15 C14 1.407 . S
C15 H17 0.929 . S
H16 C5 0.930 . S
H17 C15 0.929 . S
H18 C33 0.930 . S
H19 C40 0.929 . S
H20 C14 0.930 . S
H21 C13 0.931 . S
H22 C36 0.930 . S
H23 C3 0.930 . S
H24 C9 0.929 . S
H25 C10 0.930 . S
H26 C31 0.930 1_655 S
H27 C6 0.930 . S
H28 C39 0.931 . S
N29 Tb0 2.617 . S
N29 C30 1.379 . S
N29 C33 1.334 . S
C30 N29 1.379 . S
C30 C32 1.416 . S
C30 C38 1.424 . S
C31 H26 0.930 1_455 S
C31 C33 1.390 . S
C31 C34 1.339 . S
C32 C30 1.416 . S
C32 C34 1.416 . S
C32 C65 1.448 . S
C33 H18 0.930 . S
C33 N29 1.334 . S
C33 C31 1.390 . S
C34 C31 1.339 . S
C34 C32 1.416 . S
C34 H41 0.930 . S
N35 Tb0 2.572 . S
N35 C36 1.340 . S
N35 C38 1.361 . S
C36 H22 0.930 . S
C36 N35 1.340 . S
C36 C40 1.407 . S
C37 C38 1.413 . S
C37 C39 1.416 . S
C37 C66 1.427 . S
C38 C30 1.424 . S
C38 N35 1.361 . S
C38 C37 1.413 . S
C39 H28 0.931 . S
C39 C37 1.416 . S
C39 C40 1.332 . S
C40 H19 0.929 . S
C40 C36 1.407 . S
C40 C39 1.332 . S
H41 C34 0.930 . S
H42 C65 0.930 . S
H43 C66 0.929 . S
O44 Tb0 2.465 . S
O44 C64 1.264 . S
O45 Tb0 2.387 . S
O45 C56 1.264 . S
O46 Tb11 2.349 . S
O46 C56 1.243 . S
O47 Tb0 2.428 . S
O47 C64 1.256 . S
O48 Tb0 2.308 . S
O48 C63 1.266 . S
O49 Tb11 2.393 . S
O49 C63 1.248 . S
O50 Tb11 2.465 1_655 S
O50 C75 1.264 . S
O51 Tb11 2.387 . S
O51 C67 1.264 . S
O52 Tb0 2.349 . S
O52 C67 1.243 . S
O53 Tb11 2.428 1_655 S
O53 C75 1.256 . S
O54 Tb11 2.308 1_655 S
O54 C74 1.266 . S
O55 Tb0 2.390 . S
O55 C74 1.250 1_455 S
C56 O45 1.264 . S
C56 O46 1.243 . S
C57 C60 1.399 . S
C57 C62 1.383 . S
C57 C64 1.496 . S
C58 C59 1.399 . S
C58 C62 1.389 . S
C59 C58 1.399 . S
C59 C61 1.380 . S
C59 H76 0.929 . S
C60 C57 1.399 . S
C60 C61 1.392 . S
C60 H77 0.929 . S
C61 C59 1.380 . S
C61 C60 1.392 . S
C61 H78 0.929 . S
C62 C57 1.383 . S
C62 C58 1.389 . S
C62 H79 0.931 . S
C63 O48 1.266 . S
C63 O49 1.248 . S
C64 Tb0 2.802 . S
C64 O44 1.264 . S
C64 O47 1.256 . S
C64 C57 1.496 . S
C65 C32 1.448 . S
C65 H42 0.930 . S
C65 C66 1.328 . S
C66 C37 1.427 . S
C66 H43 0.929 . S
C66 C65 1.328 . S
C67 O51 1.264 . S
C67 O52 1.243 . S
C68 C71 1.399 . S
C68 C72 1.383 . S
C68 C75 1.496 . S
C69 C70 1.399 . S
C69 C72 1.389 . S
C70 C69 1.399 . S
C70 C73 1.380 . S
C70 H80 0.929 . S
C71 C68 1.399 . S
C71 C73 1.392 . S
C71 H81 0.929 . S
C72 C68 1.383 . S
C72 C69 1.389 . S
C72 H82 0.931 . S
C73 C70 1.380 . S
C73 C71 1.392 . S
C73 H83 0.929 . S
C74 O54 1.266 . S
C74 O55 1.250 1_655 S
C75 Tb11 2.802 1_655 S
C75 O50 1.264 . S
C75 O53 1.256 . S
C75 C68 1.496 . S
H76 C59 0.929 . S
H77 C60 0.929 . S
H78 C61 0.929 . S
H79 C62 0.931 . S
H80 C70 0.929 . S
H81 C71 0.929 . S
H82 C72 0.931 . S
H83 C73 0.929 . S
Tb84 N113 2.617 . S
Tb84 N119 2.572 . S
Tb84 O128 2.465 . S
Tb84 O129 2.387 . S
Tb84 O131 2.428 . S
Tb84 O132 2.308 . S
Tb84 O136 2.349 . S
Tb84 O139 2.393 . S
Tb84 C148 2.802 . S
C85 N86 1.379 . S
C85 C88 1.416 . S
C85 C92 1.424 . S
N86 C85 1.379 . S
N86 C89 1.334 . S
N86 Tb95 2.617 . S
C87 C89 1.390 . S
C87 C90 1.339 . S
C87 H107 0.930 . S
C88 C85 1.416 . S
C88 C90 1.416 . S
C88 C94 1.448 . S
C89 N86 1.334 . S
C89 C87 1.390 . S
C89 H100 0.930 . S
C90 C87 1.339 . S
C90 C88 1.416 . S
C90 H111 0.930 . S
C91 C92 1.413 . S
C91 C93 1.427 . S
C91 C97 1.416 . S
C92 C85 1.424 . S
C92 C91 1.413 . S
C92 N96 1.361 . S
C93 C91 1.427 . S
C93 C94 1.328 . S
C93 H108 0.929 . S
C94 C88 1.448 . S
C94 C93 1.328 . S
C94 H109 0.930 . S
Tb95 N86 2.617 . S
Tb95 N96 2.572 . S
Tb95 O130 2.349 . S
Tb95 O133 2.393 . S
Tb95 O134 2.465 . S
Tb95 O135 2.387 . S
Tb95 O137 2.428 . S
Tb95 O138 2.308 . S
Tb95 C159 2.807 . S
N96 C92 1.361 . S
N96 Tb95 2.572 . S
N96 C98 1.340 . S
C97 C91 1.416 . S
C97 C99 1.332 . S
C97 H105 0.931 . S
C98 N96 1.340 . S
C98 C99 1.407 . S
C98 H104 0.930 . S
C99 C97 1.332 . S
C99 C98 1.407 . S
C99 H101 0.929 . S
H100 C89 0.930 . S
H101 C99 0.929 . S
H102 C117 0.930 . S
H103 C124 0.929 . S
H104 C98 0.930 . S
H105 C97 0.931 . S
H106 C120 0.930 . S
H107 C87 0.930 . S
H108 C93 0.929 . S
H109 C94 0.930 . S
H110 C115 0.930 . S
H111 C90 0.930 . S
H112 C123 0.931 . S
N113 Tb84 2.617 . S
N113 C114 1.379 . S
N113 C117 1.334 . S
C114 N113 1.379 . S
C114 C116 1.416 . S
C114 C122 1.424 . S
C115 H110 0.930 . S
C115 C117 1.390 . S
C115 C118 1.339 . S
C116 C114 1.416 . S
C116 C118 1.416 . S
C116 C149 1.448 . S
C117 H102 0.930 . S
C117 N113 1.334 . S
C117 C115 1.390 . S
C118 C115 1.339 . S
C118 C116 1.416 . S
C118 H125 0.930 . S
N119 Tb84 2.572 . S
N119 C120 1.340 . S
N119 C122 1.361 . S
C120 H106 0.930 . S
C120 N119 1.340 . S
C120 C124 1.407 . S
C121 C122 1.413 . S
C121 C123 1.416 . S
C121 C150 1.427 . S
C122 C114 1.424 . S
C122 N119 1.361 . S
C122 C121 1.413 . S
C123 H112 0.931 . S
C123 C121 1.416 . S
C123 C124 1.332 . S
C124 H103 0.929 . S
C124 C120 1.407 . S
C124 C123 1.332 . S
H125 C118 0.930 . S
H126 C149 0.930 . S
H127 C150 0.929 . S
O128 Tb84 2.465 . S
O128 C148 1.264 . S
O129 Tb84 2.387 . S
O129 C140 1.264 . S
O130 Tb95 2.349 . S
O130 C140 1.243 . S
O131 Tb84 2.428 . S
O131 C148 1.256 . S
O132 Tb84 2.308 . S
O132 C147 1.266 . S
O133 Tb95 2.393 . S
O133 C147 1.248 . S
O134 Tb95 2.465 . S
O134 C159 1.266 . S
O135 Tb95 2.387 . S
O135 C151 1.264 . S
O136 Tb84 2.349 . S
O136 C151 1.243 . S
O137 Tb95 2.428 . S
O137 C159 1.259 . S
O138 Tb95 2.308 . S
O138 C158 1.266 . S
O139 Tb84 2.393 . S
O139 C158 1.248 . S
C140 O129 1.264 . S
C140 O130 1.243 . S
C141 C144 1.399 . S
C141 C146 1.383 . S
C141 C148 1.496 . S
C142 C143 1.399 . S
C142 C146 1.389 . S
C143 C142 1.399 . S
C143 C145 1.380 . S
C143 H160 0.929 . S
C144 C141 1.399 . S
C144 C145 1.392 . S
C144 H161 0.929 . S
C145 C143 1.380 . S
C145 C144 1.392 . S
C145 H162 0.929 . S
C146 C141 1.383 . S
C146 C142 1.389 . S
C146 H163 0.931 . S
C147 O132 1.266 . S
C147 O133 1.248 . S
C148 Tb84 2.802 . S
C148 O128 1.264 . S
C148 O131 1.256 . S
C148 C141 1.496 . S
C149 C116 1.448 . S
C149 H126 0.930 . S
C149 C150 1.328 . S
C150 C121 1.427 . S
C150 H127 0.929 . S
C150 C149 1.328 . S
C151 O135 1.264 . S
C151 O136 1.243 . S
C152 C155 1.399 . S
C152 C156 1.383 . S
C152 C159 1.491 1_545 S
C153 C154 1.399 . S
C153 C156 1.389 . S
C154 C153 1.399 . S
C154 C157 1.380 . S
C154 H164 0.929 . S
C155 C152 1.399 . S
C155 C157 1.392 . S
C155 H165 0.929 . S
C156 C152 1.383 . S
C156 C153 1.389 . S
C156 H166 0.931 . S
C157 C154 1.380 . S
C157 C155 1.392 . S
C157 H167 0.929 . S
C158 O138 1.266 . S
C158 O139 1.248 . S
C159 Tb95 2.807 . S
C159 O134 1.266 . S
C159 O137 1.259 . S
C159 C152 1.491 1_565 S
H160 C143 0.929 . S
H161 C144 0.929 . S
H162 C145 0.929 . S
H163 C146 0.931 . S
H164 C154 0.929 . S
H165 C155 0.929 . S
H166 C156 0.931 . S
H167 C157 0.929 . S
Tb168 N197 2.617 . S
Tb168 N203 2.572 . S
Tb168 O212 2.465 . S
Tb168 O213 2.387 . S
Tb168 O215 2.428 . S
Tb168 O216 2.308 . S
Tb168 O220 2.349 . S
Tb168 O223 2.393 . S
Tb168 C232 2.802 . S
C169 N170 1.379 . S
C169 C172 1.416 . S
C169 C176 1.424 . S
N170 C169 1.379 . S
N170 C173 1.334 . S
N170 Tb179 2.617 . S
C171 C173 1.390 . S
C171 C174 1.339 . S
C171 H191 0.930 . S
C172 C169 1.416 . S
C172 C174 1.416 . S
C172 C178 1.448 . S
C173 N170 1.334 . S
C173 C171 1.390 . S
C173 H184 0.930 . S
C174 C171 1.339 . S
C174 C172 1.416 . S
C174 H195 0.930 . S
C175 C176 1.413 . S
C175 C177 1.427 . S
C175 C181 1.416 . S
C176 C169 1.424 . S
C176 C175 1.413 . S
C176 N180 1.361 . S
C177 C175 1.427 . S
C177 C178 1.328 . S
C177 H192 0.929 . S
C178 C172 1.448 . S
C178 C177 1.328 . S
C178 H193 0.930 . S
Tb179 N170 2.617 . S
Tb179 N180 2.572 . S
Tb179 O214 2.349 . S
Tb179 O217 2.393 . S
Tb179 O218 2.465 . S
Tb179 O219 2.387 . S
Tb179 O221 2.428 . S
Tb179 O222 2.308 . S
Tb179 C243 2.802 . S
N180 C176 1.361 . S
N180 Tb179 2.572 . S
N180 C182 1.340 . S
C181 C175 1.416 . S
C181 C183 1.332 . S
C181 H189 0.931 . S
C182 N180 1.340 . S
C182 C183 1.407 . S
C182 H188 0.930 . S
C183 C181 1.332 . S
C183 C182 1.407 . S
C183 H185 0.929 . S
H184 C173 0.930 . S
H185 C183 0.929 . S
H186 C201 0.930 . S
H187 C208 0.929 . S
H188 C182 0.930 . S
H189 C181 0.931 . S
H190 C204 0.930 . S
H191 C171 0.930 . S
H192 C177 0.929 . S
H193 C178 0.930 . S
H194 C199 0.930 . S
H195 C174 0.930 . S
H196 C207 0.931 . S
N197 Tb168 2.617 . S
N197 C198 1.379 . S
N197 C201 1.334 . S
C198 N197 1.379 . S
C198 C200 1.416 . S
C198 C206 1.424 . S
C199 H194 0.930 . S
C199 C201 1.390 . S
C199 C202 1.339 . S
C200 C198 1.416 . S
C200 C202 1.416 . S
C200 C233 1.448 . S
C201 H186 0.930 . S
C201 N197 1.334 . S
C201 C199 1.390 . S
C202 C199 1.339 . S
C202 C200 1.416 . S
C202 H209 0.930 . S
N203 Tb168 2.572 . S
N203 C204 1.340 . S
N203 C206 1.361 . S
C204 H190 0.930 . S
C204 N203 1.340 . S
C204 C208 1.407 . S
C205 C206 1.413 . S
C205 C207 1.416 . S
C205 C234 1.427 . S
C206 C198 1.424 . S
C206 N203 1.361 . S
C206 C205 1.413 . S
C207 H196 0.931 . S
C207 C205 1.416 . S
C207 C208 1.332 . S
C208 H187 0.929 . S
C208 C204 1.407 . S
C208 C207 1.332 . S
H209 C202 0.930 . S
H210 C233 0.930 . S
H211 C234 0.929 . S
O212 Tb168 2.465 . S
O212 C232 1.264 . S
O213 Tb168 2.387 . S
O213 C224 1.264 . S
O214 Tb179 2.349 . S
O214 C224 1.243 . S
O215 Tb168 2.428 . S
O215 C232 1.256 . S
O216 Tb168 2.308 . S
O216 C231 1.266 . S
O217 Tb179 2.393 . S
O217 C231 1.248 . S
O218 Tb179 2.465 . S
O218 C243 1.264 . S
O219 Tb179 2.387 . S
O219 C235 1.264 . S
O220 Tb168 2.349 . S
O220 C235 1.243 . S
O221 Tb179 2.428 . S
O221 C243 1.256 . S
O222 Tb179 2.308 . S
O222 C242 1.266 . S
O223 Tb168 2.393 . S
O223 C242 1.248 . S
C224 O213 1.264 . S
C224 O214 1.243 . S
C225 C228 1.399 . S
C225 C230 1.383 . S
C225 C232 1.496 . S
C226 C227 1.399 . S
C226 C230 1.389 . S
C227 C226 1.399 . S
C227 C229 1.380 . S
C227 H244 0.929 . S
C228 C225 1.399 . S
C228 C229 1.392 . S
C228 H245 0.929 . S
C229 C227 1.380 . S
C229 C228 1.392 . S
C229 H246 0.929 . S
C230 C225 1.383 . S
C230 C226 1.389 . S
C230 H247 0.931 . S
C231 O216 1.266 . S
C231 O217 1.248 . S
C232 Tb168 2.802 . S
C232 O212 1.264 . S
C232 O215 1.256 . S
C232 C225 1.496 . S
C233 C200 1.448 . S
C233 H210 0.930 . S
C233 C234 1.328 . S
C234 C205 1.427 . S
C234 H211 0.929 . S
C234 C233 1.328 . S
C235 O219 1.264 . S
C235 O220 1.243 . S
C236 C239 1.399 . S
C236 C240 1.383 . S
C236 C243 1.496 . S
C237 C238 1.399 . S
C237 C240 1.389 . S
C238 C237 1.399 . S
C238 C241 1.380 . S
C238 H248 0.929 . S
C239 C236 1.399 . S
C239 C241 1.392 . S
C239 H249 0.929 . S
C240 C236 1.383 . S
C240 C237 1.389 . S
C240 H250 0.931 . S
C241 C238 1.380 . S
C241 C239 1.392 . S
C241 H251 0.929 . S
C242 O222 1.266 . S
C242 O223 1.248 . S
C243 Tb179 2.802 . S
C243 O218 1.264 . S
C243 O221 1.256 . S
C243 C236 1.496 . S
H244 C227 0.929 . S
H245 C228 0.929 . S
H246 C229 0.929 . S
H247 C230 0.931 . S
H248 C238 0.929 . S
H249 C239 0.929 . S
H250 C240 0.931 . S
H251 C241 0.929 . S
Tb252 N281 2.617 . S
Tb252 N287 2.572 . S
Tb252 O296 2.465 . S
Tb252 O297 2.387 . S
Tb252 O299 2.428 . S
Tb252 O300 2.308 . S
Tb252 O304 2.349 . S
Tb252 O307 2.393 . S
Tb252 C316 2.802 . S
C253 N254 1.379 . S
C253 C256 1.416 1_556 S
C253 C260 1.424 . S
N254 C253 1.379 . S
N254 C257 1.334 . S
N254 Tb263 2.617 . S
C255 C257 1.390 . S
C255 C258 1.339 1_556 S
C255 H275 0.930 . S
C256 C253 1.416 1_554 S
C256 C258 1.416 . S
C256 C262 1.448 . S
C257 N254 1.334 . S
C257 C255 1.390 . S
C257 H268 0.930 . S
C258 C255 1.339 1_554 S
C258 C256 1.416 . S
C258 H279 0.930 . S
C259 C260 1.413 1_554 S
C259 C261 1.427 . S
C259 C265 1.417 . S
C260 C253 1.424 . S
C260 C259 1.413 1_556 S
C260 N264 1.361 . S
C261 C259 1.427 . S
C261 C262 1.328 . S
C261 H276 0.929 . S
C262 C256 1.448 . S
C262 C261 1.328 . S
C262 H277 0.930 . S
Tb263 N254 2.617 . S
Tb263 N264 2.572 . S
Tb263 O298 2.349 . S
Tb263 O301 2.393 . S
Tb263 O302 2.465 . S
Tb263 O303 2.387 . S
Tb263 O305 2.428 . S
Tb263 O306 2.308 . S
Tb263 C327 2.802 . S
N264 C260 1.361 . S
N264 Tb263 2.572 . S
N264 C266 1.340 . S
C265 C259 1.417 . S
C265 C267 1.329 1_554 S
C265 H273 0.934 . S
C266 N264 1.340 . S
C266 C267 1.407 . S
C266 H272 0.930 . S
C267 C265 1.329 1_556 S
C267 C266 1.407 . S
C267 H269 0.929 . S
H268 C257 0.930 . S
H269 C267 0.929 . S
H270 C285 0.930 . S
H271 C292 0.929 . S
H272 C266 0.930 . S
H273 C265 0.934 . S
H274 C288 0.930 . S
H275 C255 0.930 . S
H276 C261 0.929 . S
H277 C262 0.930 . S
H278 C283 0.930 . S
H279 C258 0.930 . S
H280 C291 0.931 . S
N281 Tb252 2.617 . S
N281 C282 1.379 . S
N281 C285 1.334 . S
C282 N281 1.379 . S
C282 C284 1.416 . S
C282 C290 1.424 . S
C283 H278 0.930 . S
C283 C285 1.390 . S
C283 C286 1.339 . S
C284 C282 1.416 . S
C284 C286 1.416 . S
C284 C317 1.448 . S
C285 H270 0.930 . S
C285 N281 1.334 . S
C285 C283 1.390 . S
C286 C283 1.339 . S
C286 C284 1.416 . S
C286 H293 0.930 . S
N287 Tb252 2.572 . S
N287 C288 1.340 . S
N287 C290 1.361 . S
C288 H274 0.930 . S
C288 N287 1.340 . S
C288 C292 1.407 . S
C289 C290 1.413 . S
C289 C291 1.416 . S
C289 C318 1.427 . S
C290 C282 1.424 . S
C290 N287 1.361 . S
C290 C289 1.413 . S
C291 H280 0.931 . S
C291 C289 1.416 . S
C291 C292 1.332 . S
C292 H271 0.929 . S
C292 C288 1.407 . S
C292 C291 1.332 . S
H293 C286 0.930 . S
H294 C317 0.930 . S
H295 C318 0.929 . S
O296 Tb252 2.465 . S
O296 C316 1.264 . S
O297 Tb252 2.387 . S
O297 C308 1.264 . S
O298 Tb263 2.349 . S
O298 C308 1.243 . S
O299 Tb252 2.428 . S
O299 C316 1.256 . S
O300 Tb252 2.308 . S
O300 C315 1.266 . S
O301 Tb263 2.393 . S
O301 C315 1.248 . S
O302 Tb263 2.465 . S
O302 C327 1.264 . S
O303 Tb263 2.387 . S
O303 C319 1.264 . S
O304 Tb252 2.349 . S
O304 C319 1.243 . S
O305 Tb263 2.428 . S
O305 C327 1.256 . S
O306 Tb263 2.308 . S
O306 C326 1.266 . S
O307 Tb252 2.393 . S
O307 C326 1.248 . S
C308 O297 1.264 . S
C308 O298 1.243 . S
C309 C312 1.399 . S
C309 C314 1.383 . S
C309 C316 1.496 . S
C310 C311 1.399 . S
C310 C314 1.389 . S
C311 C310 1.399 . S
C311 C313 1.380 . S
C311 H328 0.929 . S
C312 C309 1.399 . S
C312 C313 1.392 . S
C312 H329 0.929 . S
C313 C311 1.380 . S
C313 C312 1.392 . S
C313 H330 0.929 . S
C314 C309 1.383 . S
C314 C310 1.389 . S
C314 H331 0.931 . S
C315 O300 1.266 . S
C315 O301 1.248 . S
C316 Tb252 2.802 . S
C316 O296 1.264 . S
C316 O299 1.256 . S
C316 C309 1.496 . S
C317 C284 1.448 . S
C317 H294 0.930 . S
C317 C318 1.328 . S
C318 C289 1.427 . S
C318 H295 0.929 . S
C318 C317 1.328 . S
C319 O303 1.264 . S
C319 O304 1.243 . S
C320 C323 1.399 . S
C320 C324 1.383 . S
C320 C327 1.496 . S
C321 C322 1.399 . S
C321 C324 1.389 . S
C322 C321 1.399 . S
C322 C325 1.380 . S
C322 H332 0.929 . S
C323 C320 1.399 . S
C323 C325 1.392 . S
C323 H333 0.929 . S
C324 C320 1.383 . S
C324 C321 1.389 . S
C324 H334 0.931 . S
C325 C322 1.380 . S
C325 C323 1.392 . S
C325 H335 0.929 . S
C326 O306 1.266 . S
C326 O307 1.248 . S
C327 Tb263 2.802 . S
C327 O302 1.264 . S
C327 O305 1.256 . S
C327 C320 1.496 . S
H328 C311 0.929 . S
H329 C312 0.929 . S
H330 C313 0.929 . S
H331 C314 0.931 . S
H332 C322 0.929 . S
H333 C323 0.929 . S
H334 C324 0.931 . S
H335 C325 0.929 . S
Tb336 N365 2.617 . S
Tb336 N371 2.572 . S
Tb336 O380 2.465 . S
Tb336 O381 2.387 . S
Tb336 O383 2.428 . S
Tb336 O384 2.308 . S
Tb336 O388 2.349 . S
Tb336 O391 2.393 . S
Tb336 C400 2.802 . S
C337 N338 1.379 1_655 S
C337 C340 1.416 1_655 S
C337 C344 1.424 . S
N338 C337 1.379 1_455 S
N338 C341 1.334 . S
N338 Tb347 2.617 . S
C339 C341 1.390 . S
C339 C342 1.339 . S
C339 H359 0.930 . S
C340 C337 1.416 1_455 S
C340 C342 1.416 . S
C340 C346 1.448 1_455 S
C341 N338 1.334 . S
C341 C339 1.390 . S
C341 H352 0.930 . S
C342 C339 1.339 . S
C342 C340 1.416 . S
C342 H363 0.930 . S
C343 C344 1.413 . S
C343 C345 1.427 . S
C343 C349 1.416 . S
C344 C337 1.424 . S
C344 C343 1.413 . S
C344 N348 1.361 . S
C345 C343 1.427 . S
C345 C346 1.328 . S
C345 H360 0.929 . S
C346 C340 1.448 1_655 S
C346 C345 1.328 . S
C346 H361 0.930 . S
Tb347 N338 2.617 . S
Tb347 N348 2.572 1_455 S
Tb347 O382 2.349 . S
Tb347 O385 2.393 . S
Tb347 O386 2.465 1_455 S
Tb347 O387 2.387 . S
Tb347 O389 2.428 1_455 S
Tb347 O390 2.308 1_455 S
Tb347 C411 2.802 1_455 S
N348 C344 1.361 . S
N348 Tb347 2.572 1_655 S
N348 C350 1.340 . S
C349 C343 1.416 . S
C349 C351 1.332 . S
C349 H357 0.931 . S
C350 N348 1.340 . S
C350 C351 1.407 . S
C350 H356 0.930 . S
C351 C349 1.332 . S
C351 C350 1.407 . S
C351 H353 0.929 . S
H352 C341 0.930 . S
H353 C351 0.929 . S
H354 C369 0.930 . S
H355 C376 0.929 . S
H356 C350 0.930 . S
H357 C349 0.931 . S
H358 C372 0.930 . S
H359 C339 0.930 . S
H360 C345 0.929 . S
H361 C346 0.930 . S
H362 C367 0.930 1_655 S
H363 C342 0.930 . S
H364 C375 0.931 . S
N365 Tb336 2.617 . S
N365 C366 1.379 . S
N365 C369 1.334 . S
C366 N365 1.379 . S
C366 C368 1.416 . S
C366 C374 1.424 . S
C367 H362 0.930 1_455 S
C367 C369 1.390 . S
C367 C370 1.339 . S
C368 C366 1.416 . S
C368 C370 1.416 . S
C368 C401 1.448 . S
C369 H354 0.930 . S
C369 N365 1.334 . S
C369 C367 1.390 . S
C370 C367 1.339 . S
C370 C368 1.416 . S
C370 H377 0.930 . S
N371 Tb336 2.572 . S
N371 C372 1.340 . S
N371 C374 1.361 . S
C372 H358 0.930 . S
C372 N371 1.340 . S
C372 C376 1.407 . S
C373 C374 1.413 . S
C373 C375 1.416 . S
C373 C402 1.427 . S
C374 C366 1.424 . S
C374 N371 1.361 . S
C374 C373 1.413 . S
C375 H364 0.931 . S
C375 C373 1.416 . S
C375 C376 1.332 . S
C376 H355 0.929 . S
C376 C372 1.407 . S
C376 C375 1.332 . S
H377 C370 0.930 . S
H378 C401 0.930 . S
H379 C402 0.929 . S
O380 Tb336 2.465 . S
O380 C400 1.264 . S
O381 Tb336 2.387 . S
O381 C392 1.264 . S
O382 Tb347 2.349 . S
O382 C392 1.243 . S
O383 Tb336 2.428 . S
O383 C400 1.256 . S
O384 Tb336 2.308 . S
O384 C399 1.266 . S
O385 Tb347 2.393 . S
O385 C399 1.248 . S
O386 Tb347 2.465 1_655 S
O386 C411 1.264 . S
O387 Tb347 2.387 . S
O387 C403 1.264 . S
O388 Tb336 2.349 . S
O388 C403 1.243 . S
O389 Tb347 2.428 1_655 S
O389 C411 1.256 . S
O390 Tb347 2.308 1_655 S
O390 C410 1.266 . S
O391 Tb336 2.393 . S
O391 C410 1.248 1_455 S
C392 O381 1.264 . S
C392 O382 1.243 . S
C393 C396 1.399 . S
C393 C398 1.383 . S
C393 C400 1.496 . S
C394 C395 1.399 . S
C394 C398 1.389 . S
C395 C394 1.399 . S
C395 C397 1.380 . S
C395 H412 0.929 . S
C396 C393 1.399 . S
C396 C397 1.392 . S
C396 H413 0.929 . S
C397 C395 1.380 . S
C397 C396 1.392 . S
C397 H414 0.929 . S
C398 C393 1.383 . S
C398 C394 1.389 . S
C398 H415 0.931 . S
C399 O384 1.266 . S
C399 O385 1.248 . S
C400 Tb336 2.802 . S
C400 O380 1.264 . S
C400 O383 1.256 . S
C400 C393 1.496 . S
C401 C368 1.448 . S
C401 H378 0.930 . S
C401 C402 1.328 . S
C402 C373 1.427 . S
C402 H379 0.929 . S
C402 C401 1.328 . S
C403 O387 1.264 . S
C403 O388 1.243 . S
C404 C407 1.399 . S
C404 C408 1.383 . S
C404 C411 1.496 . S
C405 C406 1.399 . S
C405 C408 1.389 . S
C406 C405 1.399 . S
C406 C409 1.380 . S
C406 H416 0.929 . S
C407 C404 1.399 . S
C407 C409 1.392 . S
C407 H417 0.929 . S
C408 C404 1.383 . S
C408 C405 1.389 . S
C408 H418 0.931 . S
C409 C406 1.380 . S
C409 C407 1.392 . S
C409 H419 0.929 . S
C410 O390 1.266 . S
C410 O391 1.248 1_655 S
C411 Tb347 2.802 1_655 S
C411 O386 1.264 . S
C411 O389 1.256 . S
C411 C404 1.496 . S
H412 C395 0.929 . S
H413 C396 0.929 . S
H414 C397 0.929 . S
H415 C398 0.931 . S
H416 C406 0.929 . S
H417 C407 0.929 . S
H418 C408 0.931 . S
H419 C409 0.929 . S
Tb420 N449 2.617 . S
Tb420 N455 2.572 . S
Tb420 O464 2.465 . S
Tb420 O465 2.387 . S
Tb420 O467 2.428 . S
Tb420 O468 2.308 . S
Tb420 O472 2.349 . S
Tb420 O475 2.393 . S
Tb420 C484 2.802 . S
C421 N422 1.379 . S
C421 C424 1.416 . S
C421 C428 1.424 . S
N422 C421 1.379 . S
N422 C425 1.334 . S
N422 Tb431 2.617 . S
C423 C425 1.390 . S
C423 C426 1.339 . S
C423 H443 0.930 . S
C424 C421 1.416 . S
C424 C426 1.416 . S
C424 C430 1.448 1_554 S
C425 N422 1.334 . S
C425 C423 1.390 . S
C425 H436 0.930 . S
C426 C423 1.339 . S
C426 C424 1.416 . S
C426 H447 0.930 1_554 S
C427 C428 1.413 . S
C427 C429 1.427 1_554 S
C427 C433 1.416 . S
C428 C421 1.424 . S
C428 C427 1.413 . S
C428 N432 1.361 . S
C429 C427 1.427 1_556 S
C429 C430 1.328 . S
C429 H444 0.929 . S
C430 C424 1.448 1_556 S
C430 C429 1.328 . S
C430 H445 0.930 . S
Tb431 N422 2.617 . S
Tb431 N432 2.572 . S
Tb431 O466 2.349 . S
Tb431 O469 2.393 . S
Tb431 O470 2.465 . S
Tb431 O471 2.387 . S
Tb431 O473 2.428 . S
Tb431 O474 2.308 . S
Tb431 C495 2.802 . S
N432 C428 1.361 . S
N432 Tb431 2.572 . S
N432 C434 1.340 . S
C433 C427 1.416 . S
C433 C435 1.332 . S
C433 H441 0.931 1_554 S
C434 N432 1.340 . S
C434 C435 1.407 . S
C434 H440 0.930 . S
C435 C433 1.332 . S
C435 C434 1.407 . S
C435 H437 0.929 . S
H436 C425 0.930 . S
H437 C435 0.929 . S
H438 C453 0.930 . S
H439 C460 0.929 . S
H440 C434 0.930 . S
H441 C433 0.931 1_556 S
H442 C456 0.930 . S
H443 C423 0.930 . S
H444 C429 0.929 . S
H445 C430 0.930 . S
H446 C451 0.930 . S
H447 C426 0.930 1_556 S
H448 C459 0.931 . S
N449 Tb420 2.617 . S
N449 C450 1.379 . S
N449 C453 1.334 . S
C450 N449 1.379 . S
C450 C452 1.416 . S
C450 C458 1.424 . S
C451 H446 0.930 . S
C451 C453 1.390 . S
C451 C454 1.339 . S
C452 C450 1.416 . S
C452 C454 1.416 . S
C452 C485 1.448 . S
C453 H438 0.930 . S
C453 N449 1.334 . S
C453 C451 1.390 . S
C454 C451 1.339 . S
C454 C452 1.416 . S
C454 H461 0.930 . S
N455 Tb420 2.572 . S
N455 C456 1.340 . S
N455 C458 1.361 . S
C456 H442 0.930 . S
C456 N455 1.340 . S
C456 C460 1.407 . S
C457 C458 1.413 . S
C457 C459 1.416 . S
C457 C486 1.427 . S
C458 C450 1.424 . S
C458 N455 1.361 . S
C458 C457 1.413 . S
C459 H448 0.931 . S
C459 C457 1.416 . S
C459 C460 1.332 . S
C460 H439 0.929 . S
C460 C456 1.407 . S
C460 C459 1.332 . S
H461 C454 0.930 . S
H462 C485 0.930 . S
H463 C486 0.929 . S
O464 Tb420 2.465 . S
O464 C484 1.264 . S
O465 Tb420 2.387 . S
O465 C476 1.264 . S
O466 Tb431 2.349 . S
O466 C476 1.243 . S
O467 Tb420 2.428 . S
O467 C484 1.256 . S
O468 Tb420 2.308 . S
O468 C483 1.266 . S
O469 Tb431 2.393 . S
O469 C483 1.248 . S
O470 Tb431 2.465 . S
O470 C495 1.264 . S
O471 Tb431 2.387 . S
O471 C487 1.264 . S
O472 Tb420 2.349 . S
O472 C487 1.243 . S
O473 Tb431 2.428 . S
O473 C495 1.256 . S
O474 Tb431 2.308 . S
O474 C494 1.266 . S
O475 Tb420 2.393 . S
O475 C494 1.248 . S
C476 O465 1.264 . S
C476 O466 1.243 . S
C477 C480 1.399 . S
C477 C482 1.383 . S
C477 C484 1.496 . S
C478 C479 1.399 . S
C478 C482 1.389 . S
C479 C478 1.399 . S
C479 C481 1.380 . S
C479 H496 0.929 . S
C480 C477 1.399 . S
C480 C481 1.392 . S
C480 H497 0.929 . S
C481 C479 1.380 . S
C481 C480 1.392 . S
C481 H498 0.929 . S
C482 C477 1.383 . S
C482 C478 1.389 . S
C482 H499 0.931 . S
C483 O468 1.266 . S
C483 O469 1.248 . S
C484 Tb420 2.802 . S
C484 O464 1.264 . S
C484 O467 1.256 . S
C484 C477 1.496 . S
C485 C452 1.448 . S
C485 H462 0.930 . S
C485 C486 1.328 . S
C486 C457 1.427 . S
C486 H463 0.929 . S
C486 C485 1.328 . S
C487 O471 1.264 . S
C487 O472 1.243 . S
C488 C491 1.399 1_565 S
C488 C492 1.383 1_565 S
C488 C495 1.496 . S
C489 C490 1.399 . S
C489 C492 1.389 . S
C490 C489 1.399 . S
C490 C493 1.380 . S
C490 H500 0.929 . S
C491 C488 1.399 1_545 S
C491 C493 1.392 . S
C491 H501 0.929 . S
C492 C488 1.383 1_545 S
C492 C489 1.389 . S
C492 H502 0.931 1_545 S
C493 C490 1.380 . S
C493 C491 1.392 . S
C493 H503 0.929 . S
C494 O474 1.266 . S
C494 O475 1.248 . S
C495 Tb431 2.802 . S
C495 O470 1.264 . S
C495 O473 1.256 . S
C495 C488 1.496 . S
H496 C479 0.929 . S
H497 C480 0.929 . S
H498 C481 0.929 . S
H499 C482 0.931 . S
H500 C490 0.929 . S
H501 C491 0.929 . S
H502 C492 0.931 1_565 S
H503 C493 0.929 . S
Tb504 N533 2.617 . S
Tb504 N539 2.572 . S
Tb504 O548 2.465 . S
Tb504 O549 2.387 . S
Tb504 O551 2.428 . S
Tb504 O552 2.308 . S
Tb504 O556 2.349 . S
Tb504 O559 2.393 . S
Tb504 C568 2.802 . S
C505 N506 1.379 . S
C505 C508 1.416 . S
C505 C512 1.424 . S
N506 C505 1.379 . S
N506 C509 1.334 . S
N506 Tb515 2.617 . S
C507 C509 1.390 . S
C507 C510 1.339 . S
C507 H527 0.930 . S
C508 C505 1.416 . S
C508 C510 1.416 . S
C508 C514 1.448 . S
C509 N506 1.334 . S
C509 C507 1.390 . S
C509 H520 0.930 . S
C510 C507 1.339 . S
C510 C508 1.416 . S
C510 H531 0.930 . S
C511 C512 1.413 . S
C511 C513 1.427 . S
C511 C517 1.416 . S
C512 C505 1.424 . S
C512 C511 1.413 . S
C512 N516 1.361 . S
C513 C511 1.427 . S
C513 C514 1.328 . S
C513 H528 0.929 . S
C514 C508 1.448 . S
C514 C513 1.328 . S
C514 H529 0.930 . S
Tb515 N506 2.617 . S
Tb515 N516 2.572 . S
Tb515 O550 2.349 . S
Tb515 O553 2.393 . S
Tb515 O554 2.465 . S
Tb515 O555 2.387 . S
Tb515 O557 2.428 . S
Tb515 O558 2.308 . S
Tb515 C579 2.802 . S
N516 C512 1.361 . S
N516 Tb515 2.572 . S
N516 C518 1.340 . S
C517 C511 1.416 . S
C517 C519 1.332 . S
C517 H525 0.931 . S
C518 N516 1.340 . S
C518 C519 1.407 . S
C518 H524 0.930 . S
C519 C517 1.332 . S
C519 C518 1.407 . S
C519 H521 0.929 . S
H520 C509 0.930 . S
H521 C519 0.929 . S
H522 C537 0.930 . S
H523 C544 0.929 . S
H524 C518 0.930 . S
H525 C517 0.931 . S
H526 C540 0.930 . S
H527 C507 0.930 . S
H528 C513 0.929 . S
H529 C514 0.930 . S
H530 C535 0.930 . S
H531 C510 0.930 . S
H532 C543 0.931 . S
N533 Tb504 2.617 . S
N533 C534 1.379 . S
N533 C537 1.334 . S
C534 N533 1.379 . S
C534 C536 1.416 . S
C534 C542 1.424 . S
C535 H530 0.930 . S
C535 C537 1.390 . S
C535 C538 1.339 . S
C536 C534 1.416 . S
C536 C538 1.416 . S
C536 C569 1.448 . S
C537 H522 0.930 . S
C537 N533 1.334 . S
C537 C535 1.390 . S
C538 C535 1.339 . S
C538 C536 1.416 . S
C538 H545 0.930 . S
N539 Tb504 2.572 . S
N539 C540 1.340 . S
N539 C542 1.361 . S
C540 H526 0.930 . S
C540 N539 1.340 . S
C540 C544 1.407 . S
C541 C542 1.413 . S
C541 C543 1.416 . S
C541 C570 1.427 . S
C542 C534 1.424 . S
C542 N539 1.361 . S
C542 C541 1.413 . S
C543 H532 0.931 . S
C543 C541 1.416 . S
C543 C544 1.332 . S
C544 H523 0.929 . S
C544 C540 1.407 . S
C544 C543 1.332 . S
H545 C538 0.930 . S
H546 C569 0.930 . S
H547 C570 0.929 . S
O548 Tb504 2.465 . S
O548 C568 1.264 . S
O549 Tb504 2.387 . S
O549 C560 1.264 . S
O550 Tb515 2.349 . S
O550 C560 1.243 . S
O551 Tb504 2.428 . S
O551 C568 1.256 . S
O552 Tb504 2.308 . S
O552 C567 1.266 . S
O553 Tb515 2.393 . S
O553 C567 1.248 . S
O554 Tb515 2.465 . S
O554 C579 1.264 . S
O555 Tb515 2.387 . S
O555 C571 1.264 . S
O556 Tb504 2.349 . S
O556 C571 1.243 . S
O557 Tb515 2.428 . S
O557 C579 1.256 . S
O558 Tb515 2.308 . S
O558 C578 1.266 . S
O559 Tb504 2.393 . S
O559 C578 1.248 . S
C560 O549 1.264 . S
C560 O550 1.243 . S
C561 C564 1.399 . S
C561 C566 1.383 . S
C561 C568 1.496 . S
C562 C563 1.399 . S
C562 C566 1.389 . S
C563 C562 1.399 . S
C563 C565 1.380 . S
C563 H580 0.929 . S
C564 C561 1.399 . S
C564 C565 1.392 . S
C564 H581 0.929 . S
C565 C563 1.380 . S
C565 C564 1.392 . S
C565 H582 0.929 . S
C566 C561 1.383 . S
C566 C562 1.389 . S
C566 H583 0.931 . S
C567 O552 1.266 . S
C567 O553 1.248 . S
C568 Tb504 2.802 . S
C568 O548 1.264 . S
C568 O551 1.256 . S
C568 C561 1.496 . S
C569 C536 1.448 . S
C569 H546 0.930 . S
C569 C570 1.328 . S
C570 C541 1.427 . S
C570 H547 0.929 . S
C570 C569 1.328 . S
C571 O555 1.264 . S
C571 O556 1.243 . S
C572 C575 1.399 . S
C572 C576 1.383 . S
C572 C579 1.496 . S
C573 C574 1.399 . S
C573 C576 1.389 . S
C574 C573 1.399 . S
C574 C577 1.380 . S
C574 H584 0.929 . S
C575 C572 1.399 . S
C575 C577 1.392 . S
C575 H585 0.929 . S
C576 C572 1.383 . S
C576 C573 1.389 . S
C576 H586 0.931 . S
C577 C574 1.380 . S
C577 C575 1.392 . S
C577 H587 0.929 . S
C578 O558 1.266 . S
C578 O559 1.248 . S
C579 Tb515 2.802 . S
C579 O554 1.264 . S
C579 O557 1.256 . S
C579 C572 1.496 . S
H580 C563 0.929 . S
H581 C564 0.929 . S
H582 C565 0.929 . S
H583 C566 0.931 . S
H584 C574 0.929 . S
H585 C575 0.929 . S
H586 C576 0.931 . S
H587 C577 0.929 . S
Tb588 N617 2.617 . S
Tb588 N623 2.572 . S
Tb588 O632 2.465 . S
Tb588 O633 2.387 . S
Tb588 O635 2.428 . S
Tb588 O636 2.308 . S
Tb588 O640 2.349 . S
Tb588 O643 2.393 . S
Tb588 C652 2.802 . S
C589 N590 1.379 . S
C589 C592 1.416 . S
C589 C596 1.424 . S
N590 C589 1.379 . S
N590 C593 1.334 . S
N590 Tb599 2.617 . S
C591 C593 1.390 . S
C591 C594 1.339 . S
C591 H611 0.930 . S
C592 C589 1.416 . S
C592 C594 1.416 . S
C592 C598 1.448 . S
C593 N590 1.334 . S
C593 C591 1.390 . S
C593 H604 0.930 . S
C594 C591 1.339 . S
C594 C592 1.416 . S
C594 H615 0.930 . S
C595 C596 1.413 . S
C595 C597 1.427 . S
C595 C601 1.416 . S
C596 C589 1.424 . S
C596 C595 1.413 . S
C596 N600 1.361 . S
C597 C595 1.427 . S
C597 C598 1.328 . S
C597 H612 0.929 . S
C598 C592 1.448 . S
C598 C597 1.328 . S
C598 H613 0.930 . S
Tb599 N590 2.617 . S
Tb599 N600 2.572 . S
Tb599 O634 2.349 . S
Tb599 O637 2.393 . S
Tb599 O638 2.465 . S
Tb599 O639 2.387 . S
Tb599 O641 2.428 . S
Tb599 O642 2.308 . S
Tb599 C663 2.802 . S
N600 C596 1.361 . S
N600 Tb599 2.572 . S
N600 C602 1.340 . S
C601 C595 1.416 . S
C601 C603 1.332 . S
C601 H609 0.931 . S
C602 N600 1.340 . S
C602 C603 1.407 . S
C602 H608 0.930 . S
C603 C601 1.332 . S
C603 C602 1.407 . S
C603 H605 0.929 . S
H604 C593 0.930 . S
H605 C603 0.929 . S
H606 C621 0.930 . S
H607 C628 0.929 . S
H608 C602 0.930 . S
H609 C601 0.931 . S
H610 C624 0.930 . S
H611 C591 0.930 . S
H612 C597 0.929 . S
H613 C598 0.930 . S
H614 C619 0.930 . S
H615 C594 0.930 . S
H616 C627 0.931 . S
N617 Tb588 2.617 . S
N617 C618 1.379 . S
N617 C621 1.334 . S
C618 N617 1.379 . S
C618 C620 1.416 . S
C618 C626 1.424 . S
C619 H614 0.930 . S
C619 C621 1.390 . S
C619 C622 1.339 . S
C620 C618 1.416 . S
C620 C622 1.416 . S
C620 C653 1.448 . S
C621 H606 0.930 . S
C621 N617 1.334 . S
C621 C619 1.390 . S
C622 C619 1.339 . S
C622 C620 1.416 . S
C622 H629 0.930 . S
N623 Tb588 2.572 . S
N623 C624 1.340 . S
N623 C626 1.361 . S
C624 H610 0.930 . S
C624 N623 1.340 . S
C624 C628 1.407 . S
C625 C626 1.413 . S
C625 C627 1.416 . S
C625 C654 1.427 . S
C626 C618 1.424 . S
C626 N623 1.361 . S
C626 C625 1.413 . S
C627 H616 0.931 . S
C627 C625 1.416 . S
C627 C628 1.332 . S
C628 H607 0.929 . S
C628 C624 1.407 . S
C628 C627 1.332 . S
H629 C622 0.930 . S
H630 C653 0.930 . S
H631 C654 0.929 . S
O632 Tb588 2.465 . S
O632 C652 1.264 . S
O633 Tb588 2.387 . S
O633 C644 1.264 . S
O634 Tb599 2.349 . S
O634 C644 1.243 . S
O635 Tb588 2.428 . S
O635 C652 1.256 . S
O636 Tb588 2.308 . S
O636 C651 1.266 . S
O637 Tb599 2.393 . S
O637 C651 1.248 . S
O638 Tb599 2.465 . S
O638 C663 1.264 . S
O639 Tb599 2.387 . S
O639 C655 1.264 . S
O640 Tb588 2.349 . S
O640 C655 1.243 . S
O641 Tb599 2.428 . S
O641 C663 1.256 . S
O642 Tb599 2.308 . S
O642 C662 1.266 . S
O643 Tb588 2.393 . S
O643 C662 1.248 . S
C644 O633 1.264 . S
C644 O634 1.243 . S
C645 C648 1.399 . S
C645 C650 1.383 . S
C645 C652 1.496 . S
C646 C647 1.399 . S
C646 C650 1.389 . S
C647 C646 1.399 . S
C647 C649 1.380 . S
C647 H664 0.929 . S
C648 C645 1.399 . S
C648 C649 1.392 . S
C648 H665 0.929 . S
C649 C647 1.380 . S
C649 C648 1.392 . S
C649 H666 0.929 . S
C650 C645 1.383 . S
C650 C646 1.389 . S
C650 H667 0.931 . S
C651 O636 1.266 . S
C651 O637 1.248 . S
C652 Tb588 2.802 . S
C652 O632 1.264 . S
C652 O635 1.256 . S
C652 C645 1.496 . S
C653 C620 1.448 . S
C653 H630 0.930 . S
C653 C654 1.328 . S
C654 C625 1.427 . S
C654 H631 0.929 . S
C654 C653 1.328 . S
C655 O639 1.264 . S
C655 O640 1.243 . S
C656 C659 1.399 . S
C656 C660 1.383 . S
C656 C663 1.496 . S
C657 C658 1.399 . S
C657 C660 1.389 . S
C658 C657 1.399 . S
C658 C661 1.380 . S
C658 H668 0.929 . S
C659 C656 1.399 . S
C659 C661 1.392 . S
C659 H669 0.929 . S
C660 C656 1.383 . S
C660 C657 1.389 . S
C660 H670 0.931 . S
C661 C658 1.380 . S
C661 C659 1.392 . S
C661 H671 0.929 . S
C662 O642 1.266 . S
C662 O643 1.248 . S
C663 Tb599 2.802 . S
C663 O638 1.264 . S
C663 O641 1.256 . S
C663 C656 1.496 . S
H664 C647 0.929 . S
H665 C648 0.929 . S
H666 C649 0.929 . S
H667 C650 0.931 . S
H668 C658 0.929 . S
H669 C659 0.929 . S
H670 C660 0.931 . S
H671 C661 0.929 . S
Tb672 N701 2.617 . S
Tb672 N707 2.572 . S
Tb672 O716 2.465 . S
Tb672 O717 2.387 . S
Tb672 O719 2.428 . S
Tb672 O720 2.308 . S
Tb672 O724 2.349 . S
Tb672 O727 2.393 . S
Tb672 C736 2.802 . S
C673 N674 1.379 . S
C673 C676 1.416 . S
C673 C680 1.424 . S
N674 C673 1.379 . S
N674 C677 1.334 . S
N674 Tb683 2.617 . S
C675 C677 1.390 . S
C675 C678 1.339 . S
C675 H695 0.930 . S
C676 C673 1.416 . S
C676 C678 1.416 . S
C676 C682 1.448 . S
C677 N674 1.334 . S
C677 C675 1.390 . S
C677 H688 0.930 . S
C678 C675 1.339 . S
C678 C676 1.416 . S
C678 H699 0.930 . S
C679 C680 1.413 . S
C679 C681 1.427 . S
C679 C685 1.416 . S
C680 C673 1.424 . S
C680 C679 1.413 . S
C680 N684 1.361 . S
C681 C679 1.427 . S
C681 C682 1.328 . S
C681 H696 0.929 . S
C682 C676 1.448 . S
C682 C681 1.328 . S
C682 H697 0.930 . S
Tb683 N674 2.617 . S
Tb683 N684 2.572 . S
Tb683 O718 2.349 . S
Tb683 O721 2.393 . S
Tb683 O722 2.465 . S
Tb683 O723 2.387 . S
Tb683 O725 2.428 . S
Tb683 O726 2.308 . S
Tb683 C747 2.802 . S
N684 C680 1.361 . S
N684 Tb683 2.572 . S
N684 C686 1.340 . S
C685 C679 1.416 . S
C685 C687 1.332 . S
C685 H693 0.931 . S
C686 N684 1.340 . S
C686 C687 1.407 . S
C686 H692 0.930 . S
C687 C685 1.332 . S
C687 C686 1.407 . S
C687 H689 0.929 . S
H688 C677 0.930 . S
H689 C687 0.929 . S
H690 C705 0.930 . S
H691 C712 0.929 . S
H692 C686 0.930 . S
H693 C685 0.931 . S
H694 C708 0.930 . S
H695 C675 0.930 . S
H696 C681 0.929 . S
H697 C682 0.930 . S
H698 C703 0.930 . S
H699 C678 0.930 . S
H700 C711 0.931 . S
N701 Tb672 2.617 . S
N701 C702 1.379 . S
N701 C705 1.334 . S
C702 N701 1.379 . S
C702 C704 1.416 . S
C702 C710 1.424 . S
C703 H698 0.930 . S
C703 C705 1.390 . S
C703 C706 1.339 . S
C704 C702 1.416 . S
C704 C706 1.416 . S
C704 C737 1.448 . S
C705 H690 0.930 . S
C705 N701 1.334 . S
C705 C703 1.390 . S
C706 C703 1.339 . S
C706 C704 1.416 . S
C706 H713 0.930 . S
N707 Tb672 2.572 . S
N707 C708 1.340 . S
N707 C710 1.361 . S
C708 H694 0.930 . S
C708 N707 1.340 . S
C708 C712 1.407 . S
C709 C710 1.413 . S
C709 C711 1.416 . S
C709 C738 1.427 . S
C710 C702 1.424 . S
C710 N707 1.361 . S
C710 C709 1.413 . S
C711 H700 0.931 . S
C711 C709 1.416 . S
C711 C712 1.332 . S
C712 H691 0.929 . S
C712 C708 1.407 . S
C712 C711 1.332 . S
H713 C706 0.930 . S
H714 C737 0.930 . S
H715 C738 0.929 . S
O716 Tb672 2.465 . S
O716 C736 1.264 . S
O717 Tb672 2.387 . S
O717 C728 1.264 . S
O718 Tb683 2.349 . S
O718 C728 1.243 . S
O719 Tb672 2.428 . S
O719 C736 1.256 . S
O720 Tb672 2.308 . S
O720 C735 1.266 . S
O721 Tb683 2.393 . S
O721 C735 1.248 . S
O722 Tb683 2.465 . S
O722 C747 1.264 . S
O723 Tb683 2.387 . S
O723 C739 1.264 . S
O724 Tb672 2.349 . S
O724 C739 1.243 . S
O725 Tb683 2.428 . S
O725 C747 1.256 . S
O726 Tb683 2.308 . S
O726 C746 1.266 . S
O727 Tb672 2.393 . S
O727 C746 1.248 . S
C728 O717 1.264 . S
C728 O718 1.243 . S
C729 C732 1.399 . S
C729 C734 1.383 . S
C729 C736 1.496 . S
C730 C731 1.399 . S
C730 C734 1.389 . S
C731 C730 1.399 . S
C731 C733 1.380 . S
C731 H748 0.929 . S
C732 C729 1.399 . S
C732 C733 1.392 . S
C732 H749 0.929 . S
C733 C731 1.380 . S
C733 C732 1.392 . S
C733 H750 0.929 . S
C734 C729 1.383 . S
C734 C730 1.389 . S
C734 H751 0.931 . S
C735 O720 1.266 . S
C735 O721 1.248 . S
C736 Tb672 2.802 . S
C736 O716 1.264 . S
C736 O719 1.256 . S
C736 C729 1.496 . S
C737 C704 1.448 . S
C737 H714 0.930 . S
C737 C738 1.328 . S
C738 C709 1.427 . S
C738 H715 0.929 . S
C738 C737 1.328 . S
C739 O723 1.264 . S
C739 O724 1.243 . S
C740 C743 1.399 . S
C740 C744 1.383 . S
C740 C747 1.496 . S
C741 C742 1.399 . S
C741 C744 1.389 . S
C742 C741 1.399 . S
C742 C745 1.380 . S
C742 H752 0.929 . S
C743 C740 1.399 . S
C743 C745 1.392 . S
C743 H753 0.929 . S
C744 C740 1.383 . S
C744 C741 1.389 . S
C744 H754 0.931 . S
C745 C742 1.380 . S
C745 C743 1.392 . S
C745 H755 0.929 . S
C746 O726 1.266 . S
C746 O727 1.248 . S
C747 Tb683 2.802 . S
C747 O722 1.264 . S
C747 O725 1.256 . S
C747 C740 1.496 . S
H748 C731 0.929 . S
H749 C732 0.929 . S
H750 C733 0.929 . S
H751 C734 0.931 . S
H752 C742 0.929 . S
H753 C743 0.929 . S
H754 C744 0.931 . S
H755 C745 0.929 . S
Tb756 N785 2.617 . S
Tb756 N791 2.572 . S
Tb756 O800 2.465 . S
Tb756 O801 2.387 . S
Tb756 O803 2.428 . S
Tb756 O804 2.308 . S
Tb756 O808 2.349 . S
Tb756 O811 2.393 . S
Tb756 C820 2.802 . S
C757 N758 1.379 . S
C757 C760 1.416 . S
C757 C764 1.424 . S
N758 C757 1.379 . S
N758 C761 1.334 . S
N758 Tb767 2.617 . S
C759 C761 1.390 . S
C759 C762 1.339 . S
C759 H779 0.930 . S
C760 C757 1.416 . S
C760 C762 1.416 . S
C760 C766 1.448 . S
C761 N758 1.334 . S
C761 C759 1.390 . S
C761 H772 0.930 . S
C762 C759 1.339 . S
C762 C760 1.416 . S
C762 H783 0.930 . S
C763 C764 1.413 . S
C763 C765 1.427 . S
C763 C769 1.416 . S
C764 C757 1.424 . S
C764 C763 1.413 . S
C764 N768 1.361 . S
C765 C763 1.427 . S
C765 C766 1.328 . S
C765 H780 0.929 . S
C766 C760 1.448 . S
C766 C765 1.328 . S
C766 H781 0.930 . S
Tb767 N758 2.617 . S
Tb767 N768 2.572 . S
Tb767 O802 2.349 . S
Tb767 O805 2.393 . S
Tb767 O806 2.465 . S
Tb767 O807 2.387 . S
Tb767 O809 2.428 . S
Tb767 O810 2.308 . S
Tb767 C831 2.802 . S
N768 C764 1.361 . S
N768 Tb767 2.572 . S
N768 C770 1.340 . S
C769 C763 1.416 . S
C769 C771 1.332 . S
C769 H777 0.931 . S
C770 N768 1.340 . S
C770 C771 1.407 . S
C770 H776 0.930 . S
C771 C769 1.332 . S
C771 C770 1.407 . S
C771 H773 0.929 . S
H772 C761 0.930 . S
H773 C771 0.929 . S
H774 C789 0.930 . S
H775 C796 0.929 . S
H776 C770 0.930 . S
H777 C769 0.931 . S
H778 C792 0.930 . S
H779 C759 0.930 . S
H780 C765 0.929 . S
H781 C766 0.930 . S
H782 C787 0.930 . S
H783 C762 0.930 . S
H784 C795 0.934 . S
N785 Tb756 2.617 . S
N785 C786 1.379 . S
N785 C789 1.334 . S
C786 N785 1.379 . S
C786 C788 1.416 1_554 S
C786 C794 1.424 . S
C787 H782 0.930 . S
C787 C789 1.390 . S
C787 C790 1.339 1_554 S
C788 C786 1.416 1_556 S
C788 C790 1.416 . S
C788 C821 1.448 . S
C789 H774 0.930 . S
C789 N785 1.334 . S
C789 C787 1.390 . S
C790 C787 1.339 1_556 S
C790 C788 1.416 . S
C790 H797 0.930 . S
N791 Tb756 2.572 . S
N791 C792 1.340 . S
N791 C794 1.361 . S
C792 H778 0.930 . S
C792 N791 1.340 . S
C792 C796 1.407 . S
C793 C794 1.413 1_556 S
C793 C795 1.417 . S
C793 C822 1.427 . S
C794 C786 1.424 . S
C794 N791 1.361 . S
C794 C793 1.413 1_554 S
C795 H784 0.934 . S
C795 C793 1.417 . S
C795 C796 1.328 1_556 S
C796 H775 0.929 . S
C796 C792 1.407 . S
C796 C795 1.328 1_554 S
H797 C790 0.930 . S
H798 C821 0.930 . S
H799 C822 0.929 . S
O800 Tb756 2.465 . S
O800 C820 1.264 . S
O801 Tb756 2.387 . S
O801 C812 1.264 . S
O802 Tb767 2.349 . S
O802 C812 1.243 . S
O803 Tb756 2.428 . S
O803 C820 1.256 . S
O804 Tb756 2.308 . S
O804 C819 1.266 . S
O805 Tb767 2.393 . S
O805 C819 1.248 . S
O806 Tb767 2.465 . S
O806 C831 1.264 . S
O807 Tb767 2.387 . S
O807 C823 1.264 . S
O808 Tb756 2.349 . S
O808 C823 1.243 . S
O809 Tb767 2.428 . S
O809 C831 1.256 . S
O810 Tb767 2.308 . S
O810 C830 1.266 . S
O811 Tb756 2.393 . S
O811 C830 1.248 . S
C812 O801 1.264 . S
C812 O802 1.243 . S
C813 C816 1.399 . S
C813 C818 1.383 . S
C813 C820 1.496 . S
C814 C815 1.399 1_565 S
C814 C818 1.389 . S
C815 C814 1.399 1_545 S
C815 C817 1.380 1_545 S
C815 H832 0.929 . S
C816 C813 1.399 . S
C816 C817 1.392 . S
C816 H833 0.929 . S
C817 C815 1.380 1_565 S
C817 C816 1.392 . S
C817 H834 0.929 . S
C818 C813 1.383 . S
C818 C814 1.389 . S
C818 H835 0.931 . S
C819 O804 1.266 . S
C819 O805 1.248 . S
C820 Tb756 2.802 . S
C820 O800 1.264 . S
C820 O803 1.256 . S
C820 C813 1.496 . S
C821 C788 1.448 . S
C821 H798 0.930 . S
C821 C822 1.328 . S
C822 C793 1.427 . S
C822 H799 0.929 . S
C822 C821 1.328 . S
C823 O807 1.264 . S
C823 O808 1.243 . S
C824 C827 1.399 . S
C824 C828 1.383 . S
C824 C831 1.496 . S
C825 C826 1.399 . S
C825 C828 1.389 . S
C826 C825 1.399 . S
C826 C829 1.380 . S
C826 H836 0.929 . S
C827 C824 1.399 . S
C827 C829 1.392 . S
C827 H837 0.929 . S
C828 C824 1.383 . S
C828 C825 1.389 . S
C828 H838 0.931 . S
C829 C826 1.380 . S
C829 C827 1.392 . S
C829 H839 0.929 . S
C830 O810 1.266 . S
C830 O811 1.248 . S
C831 Tb767 2.802 . S
C831 O806 1.264 . S
C831 O809 1.256 . S
C831 C824 1.496 . S
H832 C815 0.929 . S
H833 C816 0.929 . S
H834 C817 0.929 . S
H835 C818 0.931 . S
H836 C826 0.929 . S
H837 C827 0.929 . S
H838 C828 0.931 . S
H839 C829 0.929 . S
Tb840 N869 2.617 . S
Tb840 N875 2.572 . S
Tb840 O884 2.465 . S
Tb840 O885 2.387 . S
Tb840 O887 2.428 . S
Tb840 O888 2.308 . S
Tb840 O892 2.349 . S
Tb840 O895 2.393 . S
Tb840 C904 2.802 . S
C841 N842 1.379 . S
C841 C844 1.416 . S
C841 C848 1.424 . S
N842 C841 1.379 . S
N842 C845 1.334 . S
N842 Tb851 2.617 . S
C843 C845 1.390 . S
C843 C846 1.339 . S
C843 H863 0.930 . S
C844 C841 1.416 . S
C844 C846 1.416 . S
C844 C850 1.448 . S
C845 N842 1.334 . S
C845 C843 1.390 . S
C845 H856 0.930 . S
C846 C843 1.339 . S
C846 C844 1.416 . S
C846 H867 0.930 . S
C847 C848 1.413 . S
C847 C849 1.427 . S
C847 C853 1.416 . S
C848 C841 1.424 . S
C848 C847 1.413 . S
C848 N852 1.361 . S
C849 C847 1.427 . S
C849 C850 1.328 . S
C849 H864 0.929 . S
C850 C844 1.448 . S
C850 C849 1.328 . S
C850 H865 0.930 . S
Tb851 N842 2.617 . S
Tb851 N852 2.572 . S
Tb851 O886 2.349 . S
Tb851 O889 2.393 . S
Tb851 O890 2.465 . S
Tb851 O891 2.387 . S
Tb851 O893 2.428 . S
Tb851 O894 2.308 . S
Tb851 C915 2.802 . S
N852 C848 1.361 . S
N852 Tb851 2.572 . S
N852 C854 1.340 . S
C853 C847 1.416 . S
C853 C855 1.332 . S
C853 H861 0.931 . S
C854 N852 1.340 . S
C854 C855 1.407 . S
C854 H860 0.930 . S
C855 C853 1.332 . S
C855 C854 1.407 . S
C855 H857 0.929 . S
H856 C845 0.930 . S
H857 C855 0.929 . S
H858 C873 0.930 . S
H859 C880 0.929 . S
H860 C854 0.930 . S
H861 C853 0.931 . S
H862 C876 0.930 . S
H863 C843 0.930 . S
H864 C849 0.929 . S
H865 C850 0.930 . S
H866 C871 0.930 . S
H867 C846 0.930 . S
H868 C879 0.931 1_554 S
N869 Tb840 2.617 . S
N869 C870 1.379 . S
N869 C873 1.334 . S
C870 N869 1.379 . S
C870 C872 1.416 . S
C870 C878 1.424 . S
C871 H866 0.930 . S
C871 C873 1.390 . S
C871 C874 1.339 . S
C872 C870 1.416 . S
C872 C874 1.416 . S
C872 C905 1.448 1_556 S
C873 H858 0.930 . S
C873 N869 1.334 . S
C873 C871 1.390 . S
C874 C871 1.339 . S
C874 C872 1.416 . S
C874 H881 0.930 1_556 S
N875 Tb840 2.572 . S
N875 C876 1.340 . S
N875 C878 1.361 . S
C876 H862 0.930 . S
C876 N875 1.340 . S
C876 C880 1.407 . S
C877 C878 1.413 . S
C877 C879 1.416 . S
C877 C906 1.427 1_556 S
C878 C870 1.424 . S
C878 N875 1.361 . S
C878 C877 1.413 . S
C879 H868 0.931 1_556 S
C879 C877 1.416 . S
C879 C880 1.332 . S
C880 H859 0.929 . S
C880 C876 1.407 . S
C880 C879 1.332 . S
H881 C874 0.930 1_554 S
H882 C905 0.930 . S
H883 C906 0.929 . S
O884 Tb840 2.465 . S
O884 C904 1.264 . S
O885 Tb840 2.387 . S
O885 C896 1.264 . S
O886 Tb851 2.349 . S
O886 C896 1.243 . S
O887 Tb840 2.428 . S
O887 C904 1.256 . S
O888 Tb840 2.308 . S
O888 C903 1.266 . S
O889 Tb851 2.393 . S
O889 C903 1.248 . S
O890 Tb851 2.465 . S
O890 C915 1.264 . S
O891 Tb851 2.387 . S
O891 C907 1.264 . S
O892 Tb840 2.349 . S
O892 C907 1.243 . S
O893 Tb851 2.428 . S
O893 C915 1.256 . S
O894 Tb851 2.308 . S
O894 C914 1.266 . S
O895 Tb840 2.393 . S
O895 C914 1.248 . S
C896 O885 1.264 . S
C896 O886 1.243 . S
C897 C900 1.399 . S
C897 C902 1.383 . S
C897 C904 1.496 . S
C898 C899 1.399 . S
C898 C902 1.389 . S
C899 C898 1.399 . S
C899 C901 1.380 . S
C899 H916 0.929 . S
C900 C897 1.399 . S
C900 C901 1.392 . S
C900 H917 0.929 . S
C901 C899 1.380 . S
C901 C900 1.392 . S
C901 H918 0.929 . S
C902 C897 1.383 . S
C902 C898 1.389 . S
C902 H919 0.931 . S
C903 O888 1.266 . S
C903 O889 1.248 . S
C904 Tb840 2.802 . S
C904 O884 1.264 . S
C904 O887 1.256 . S
C904 C897 1.496 . S
C905 C872 1.448 1_554 S
C905 H882 0.930 . S
C905 C906 1.328 . S
C906 C877 1.427 1_554 S
C906 H883 0.929 . S
C906 C905 1.328 . S
C907 O891 1.264 . S
C907 O892 1.243 . S
C908 C911 1.399 . S
C908 C912 1.383 . S
C908 C915 1.496 . S
C909 C910 1.399 . S
C909 C912 1.389 . S
C910 C909 1.399 . S
C910 C913 1.380 . S
C910 H920 0.929 . S
C911 C908 1.399 . S
C911 C913 1.392 . S
C911 H921 0.929 . S
C912 C908 1.383 . S
C912 C909 1.389 . S
C912 H922 0.931 . S
C913 C910 1.380 . S
C913 C911 1.392 . S
C913 H923 0.929 . S
C914 O894 1.266 . S
C914 O895 1.248 . S
C915 Tb851 2.802 . S
C915 O890 1.264 . S
C915 O893 1.256 . S
C915 C908 1.496 . S
H916 C899 0.929 . S
H917 C900 0.929 . S
H918 C901 0.929 . S
H919 C902 0.931 . S
H920 C910 0.929 . S
H921 C911 0.929 . S
H922 C912 0.931 . S
H923 C913 0.929 . S
Tb924 N953 2.617 . S
Tb924 N959 2.572 . S
Tb924 O968 2.465 1_565 S
Tb924 O969 2.387 . S
Tb924 O971 2.428 1_565 S
Tb924 O972 2.308 . S
Tb924 O976 2.349 1_565 S
Tb924 O979 2.393 . S
Tb924 C988 2.802 1_565 S
C925 N926 1.379 . S
C925 C928 1.416 1_565 S
C925 C932 1.424 . S
N926 C925 1.379 . S
N926 C929 1.334 . S
N926 Tb935 2.617 . S
C927 C929 1.390 . S
C927 C930 1.339 1_565 S
C927 H947 0.930 . S
C928 C925 1.416 1_545 S
C928 C930 1.416 . S
C928 C934 1.448 . S
C929 N926 1.334 . S
C929 C927 1.390 . S
C929 H940 0.930 . S
C930 C927 1.339 1_545 S
C930 C928 1.416 . S
C930 H951 0.930 . S
C931 C932 1.413 . S
C931 C933 1.427 1_565 S
C931 C937 1.416 . S
C932 C925 1.424 . S
C932 C931 1.413 . S
C932 N936 1.361 . S
C933 C931 1.427 1_545 S
C933 C934 1.328 . S
C933 H948 0.929 . S
C934 C928 1.448 . S
C934 C933 1.328 . S
C934 H949 0.930 . S
Tb935 N926 2.617 . S
Tb935 N936 2.572 . S
Tb935 O970 2.349 . S
Tb935 O973 2.393 . S
Tb935 O974 2.465 . S
Tb935 O975 2.387 1_565 S
Tb935 O977 2.428 . S
Tb935 O978 2.308 . S
Tb935 C999 2.802 . S
N936 C932 1.361 . S
N936 Tb935 2.572 . S
N936 C938 1.340 . S
C937 C931 1.416 . S
C937 C939 1.332 . S
C937 H945 0.931 1_565 S
C938 N936 1.340 . S
C938 C939 1.407 . S
C938 H944 0.930 . S
C939 C937 1.332 . S
C939 C938 1.407 . S
C939 H941 0.929 . S
H940 C929 0.930 . S
H941 C939 0.929 . S
H942 C957 0.930 . S
H943 C964 0.929 . S
H944 C938 0.930 . S
H945 C937 0.931 1_545 S
H946 C960 0.930 . S
H947 C927 0.930 . S
H948 C933 0.929 . S
H949 C934 0.930 . S
H950 C955 0.930 . S
H951 C930 0.930 . S
H952 C963 0.931 . S
N953 Tb924 2.617 . S
N953 C954 1.379 . S
N953 C957 1.334 . S
C954 N953 1.379 . S
C954 C956 1.416 . S
C954 C962 1.424 . S
C955 H950 0.930 . S
C955 C957 1.390 . S
C955 C958 1.339 . S
C956 C954 1.416 . S
C956 C958 1.416 . S
C956 C989 1.448 . S
C957 H942 0.930 . S
C957 N953 1.334 . S
C957 C955 1.390 . S
C958 C955 1.339 . S
C958 C956 1.416 . S
C958 H965 0.930 . S
N959 Tb924 2.572 . S
N959 C960 1.340 . S
N959 C962 1.361 . S
C960 H946 0.930 . S
C960 N959 1.340 . S
C960 C964 1.407 . S
C961 C962 1.413 . S
C961 C963 1.416 . S
C961 C990 1.427 . S
C962 C954 1.424 . S
C962 N959 1.361 . S
C962 C961 1.413 . S
C963 H952 0.931 . S
C963 C961 1.416 . S
C963 C964 1.332 . S
C964 H943 0.929 . S
C964 C960 1.407 . S
C964 C963 1.332 . S
H965 C958 0.930 . S
H966 C989 0.930 . S
H967 C990 0.929 . S
O968 Tb924 2.465 1_545 S
O968 C988 1.264 . S
O969 Tb924 2.387 . S
O969 C980 1.264 . S
O970 Tb935 2.349 . S
O970 C980 1.243 . S
O971 Tb924 2.428 1_545 S
O971 C988 1.256 . S
O972 Tb924 2.308 . S
O972 C987 1.266 . S
O973 Tb935 2.393 . S
O973 C987 1.248 . S
O974 Tb935 2.465 . S
O974 C999 1.264 . S
O975 Tb935 2.387 1_545 S
O975 C991 1.264 . S
O976 Tb924 2.349 1_545 S
O976 C991 1.243 . S
O977 Tb935 2.428 . S
O977 C999 1.256 . S
O978 Tb935 2.308 . S
O978 C998 1.266 . S
O979 Tb924 2.393 . S
O979 C998 1.248 . S
C980 O969 1.264 . S
C980 O970 1.243 . S
C981 C984 1.399 . S
C981 C986 1.383 . S
C981 C988 1.496 . S
C982 C983 1.399 . S
C982 C986 1.389 . S
C983 C982 1.399 . S
C983 C985 1.380 . S
C983 H1000 0.929 . S
C984 C981 1.399 . S
C984 C985 1.392 . S
C984 H1001 0.929 . S
C985 C983 1.380 . S
C985 C984 1.392 . S
C985 H1002 0.929 . S
C986 C981 1.383 . S
C986 C982 1.389 . S
C986 H1003 0.931 . S
C987 O972 1.266 . S
C987 O973 1.248 . S
C988 Tb924 2.802 1_545 S
C988 O968 1.264 . S
C988 O971 1.256 . S
C988 C981 1.496 . S
C989 C956 1.448 . S
C989 H966 0.930 . S
C989 C990 1.328 . S
C990 C961 1.427 . S
C990 H967 0.929 . S
C990 C989 1.328 . S
C991 O975 1.264 . S
C991 O976 1.243 . S
C992 C995 1.399 . S
C992 C996 1.383 . S
C992 C999 1.496 . S
C993 C994 1.399 . S
C993 C996 1.389 . S
C994 C993 1.399 . S
C994 C997 1.380 . S
C994 H1004 0.929 . S
C995 C992 1.399 . S
C995 C997 1.392 . S
C995 H1005 0.929 . S
C996 C992 1.383 . S
C996 C993 1.389 . S
C996 H1006 0.931 . S
C997 C994 1.380 . S
C997 C995 1.392 . S
C997 H1007 0.929 . S
C998 O978 1.266 . S
C998 O979 1.248 . S
C999 Tb935 2.802 . S
C999 O974 1.264 . S
C999 O977 1.256 . S
C999 C992 1.496 . S
H1000 C983 0.929 . S
H1001 C984 0.929 . S
H1002 C985 0.929 . S
H1003 C986 0.931 . S
H1004 C994 0.929 . S
H1005 C995 0.929 . S
H1006 C996 0.931 . S
H1007 C997 0.929 . S
Tb1008 N1037 2.617 . S
Tb1008 N1043 2.572 . S
Tb1008 O1052 2.465 . S
Tb1008 O1053 2.387 . S
Tb1008 O1055 2.428 . S
Tb1008 O1056 2.308 . S
Tb1008 O1060 2.349 . S
Tb1008 O1063 2.393 . S
Tb1008 C1072 2.802 . S
C1009 N1010 1.379 . S
C1009 C1012 1.416 1_545 S
C1009 C1016 1.421 1_545 S
N1010 C1009 1.379 . S
N1010 C1013 1.334 . S
N1010 Tb1019 2.617 . S
C1011 C1013 1.390 . S
C1011 C1014 1.339 1_545 S
C1011 H1031 0.930 . S
C1012 C1009 1.416 1_565 S
C1012 C1014 1.416 . S
C1012 C1018 1.448 . S
C1013 N1010 1.334 . S
C1013 C1011 1.390 . S
C1013 H1024 0.930 . S
C1014 C1011 1.339 1_565 S
C1014 C1012 1.416 . S
C1014 H1035 0.930 . S
C1015 C1016 1.420 . S
C1015 C1017 1.427 . S
C1015 C1021 1.416 . S
C1016 C1009 1.421 1_565 S
C1016 C1015 1.420 . S
C1016 N1020 1.356 1_565 S
C1017 C1015 1.427 . S
C1017 C1018 1.328 . S
C1017 H1032 0.929 . S
C1018 C1012 1.448 . S
C1018 C1017 1.328 . S
C1018 H1033 0.930 . S
Tb1019 N1010 2.617 . S
Tb1019 N1020 2.572 . S
Tb1019 O1054 2.349 . S
Tb1019 O1057 2.393 . S
Tb1019 O1058 2.465 . S
Tb1019 O1059 2.387 . S
Tb1019 O1061 2.428 . S
Tb1019 O1062 2.308 . S
Tb1019 C1083 2.802 . S
N1020 C1016 1.356 1_545 S
N1020 Tb1019 2.572 . S
N1020 C1022 1.340 . S
C1021 C1015 1.416 . S
C1021 C1023 1.332 . S
C1021 H1029 0.931 . S
C1022 N1020 1.340 . S
C1022 C1023 1.407 1_545 S
C1022 H1028 0.930 . S
C1023 C1021 1.332 . S
C1023 C1022 1.407 1_565 S
C1023 H1025 0.929 . S
H1024 C1013 0.930 . S
H1025 C1023 0.929 . S
H1026 C1041 0.930 . S
H1027 C1048 0.929 . S
H1028 C1022 0.930 . S
H1029 C1021 0.931 . S
H1030 C1044 0.930 . S
H1031 C1011 0.930 . S
H1032 C1017 0.929 . S
H1033 C1018 0.930 . S
H1034 C1039 0.930 . S
H1035 C1014 0.930 . S
H1036 C1047 0.931 . S
N1037 Tb1008 2.617 . S
N1037 C1038 1.379 . S
N1037 C1041 1.334 . S
C1038 N1037 1.379 . S
C1038 C1040 1.416 . S
C1038 C1046 1.424 . S
C1039 H1034 0.930 . S
C1039 C1041 1.390 . S
C1039 C1042 1.339 . S
C1040 C1038 1.416 . S
C1040 C1042 1.416 . S
C1040 C1073 1.448 . S
C1041 H1026 0.930 . S
C1041 N1037 1.334 . S
C1041 C1039 1.390 . S
C1042 C1039 1.339 . S
C1042 C1040 1.416 . S
C1042 H1049 0.930 . S
N1043 Tb1008 2.572 . S
N1043 C1044 1.340 . S
N1043 C1046 1.361 . S
C1044 H1030 0.930 . S
C1044 N1043 1.340 . S
C1044 C1048 1.407 . S
C1045 C1046 1.413 . S
C1045 C1047 1.416 . S
C1045 C1074 1.427 . S
C1046 C1038 1.424 . S
C1046 N1043 1.361 . S
C1046 C1045 1.413 . S
C1047 H1036 0.931 . S
C1047 C1045 1.416 . S
C1047 C1048 1.332 . S
C1048 H1027 0.929 . S
C1048 C1044 1.407 . S
C1048 C1047 1.332 . S
H1049 C1042 0.930 . S
H1050 C1073 0.930 . S
H1051 C1074 0.929 . S
O1052 Tb1008 2.465 . S
O1052 C1072 1.264 . S
O1053 Tb1008 2.387 . S
O1053 C1064 1.264 . S
O1054 Tb1019 2.349 . S
O1054 C1064 1.243 . S
O1055 Tb1008 2.428 . S
O1055 C1072 1.256 . S
O1056 Tb1008 2.308 . S
O1056 C1071 1.266 . S
O1057 Tb1019 2.393 . S
O1057 C1071 1.248 . S
O1058 Tb1019 2.465 . S
O1058 C1083 1.264 . S
O1059 Tb1019 2.387 . S
O1059 C1075 1.264 . S
O1060 Tb1008 2.349 . S
O1060 C1075 1.243 . S
O1061 Tb1019 2.428 . S
O1061 C1083 1.256 . S
O1062 Tb1019 2.308 . S
O1062 C1082 1.266 . S
O1063 Tb1008 2.393 . S
O1063 C1082 1.248 . S
C1064 O1053 1.264 . S
C1064 O1054 1.243 . S
C1065 C1068 1.399 . S
C1065 C1070 1.383 . S
C1065 C1072 1.496 . S
C1066 C1067 1.399 . S
C1066 C1070 1.389 . S
C1067 C1066 1.399 . S
C1067 C1069 1.380 . S
C1067 H1084 0.929 . S
C1068 C1065 1.399 . S
C1068 C1069 1.392 . S
C1068 H1085 0.929 . S
C1069 C1067 1.380 . S
C1069 C1068 1.392 . S
C1069 H1086 0.929 . S
C1070 C1065 1.383 . S
C1070 C1066 1.389 . S
C1070 H1087 0.931 . S
C1071 O1056 1.266 . S
C1071 O1057 1.248 . S
C1072 Tb1008 2.802 . S
C1072 O1052 1.264 . S
C1072 O1055 1.256 . S
C1072 C1065 1.496 . S
C1073 C1040 1.448 . S
C1073 H1050 0.930 . S
C1073 C1074 1.328 . S
C1074 C1045 1.427 . S
C1074 H1051 0.929 . S
C1074 C1073 1.328 . S
C1075 O1059 1.264 . S
C1075 O1060 1.243 . S
C1076 C1079 1.399 . S
C1076 C1080 1.383 . S
C1076 C1083 1.496 . S
C1077 C1078 1.399 . S
C1077 C1080 1.389 . S
C1078 C1077 1.399 . S
C1078 C1081 1.380 . S
C1078 H1088 0.929 . S
C1079 C1076 1.399 . S
C1079 C1081 1.392 . S
C1079 H1089 0.929 . S
C1080 C1076 1.383 . S
C1080 C1077 1.389 . S
C1080 H1090 0.931 . S
C1081 C1078 1.380 . S
C1081 C1079 1.392 . S
C1081 H1091 0.929 . S
C1082 O1062 1.266 . S
C1082 O1063 1.248 . S
C1083 Tb1019 2.802 . S
C1083 O1058 1.264 . S
C1083 O1061 1.256 . S
C1083 C1076 1.496 . S
H1084 C1067 0.929 . S
H1085 C1068 0.929 . S
H1086 C1069 0.929 . S
H1087 C1070 0.931 . S
H1088 C1078 0.929 . S
H1089 C1079 0.929 . S
H1090 C1080 0.931 . S
H1091 C1081 0.929 . S
Tb1092 N1121 2.617 . S
Tb1092 N1127 2.572 . S
Tb1092 O1136 2.465 . S
Tb1092 O1137 2.387 1_455 S
Tb1092 O1139 2.428 . S
Tb1092 O1140 2.308 . S
Tb1092 O1144 2.349 . S
Tb1092 O1147 2.393 . S
Tb1092 C1156 2.802 . S
C1093 N1094 1.379 . S
C1093 C1096 1.416 . S
C1093 C1100 1.424 . S
N1094 C1093 1.379 . S
N1094 C1097 1.334 . S
N1094 Tb1103 2.617 1_455 S
C1095 C1097 1.390 . S
C1095 C1098 1.339 . S
C1095 H1115 0.930 . S
C1096 C1093 1.416 . S
C1096 C1098 1.416 . S
C1096 C1102 1.448 . S
C1097 N1094 1.334 . S
C1097 C1095 1.390 . S
C1097 H1108 0.930 1_455 S
C1098 C1095 1.339 . S
C1098 C1096 1.416 . S
C1098 H1119 0.930 . S
C1099 C1100 1.413 . S
C1099 C1101 1.427 . S
C1099 C1105 1.416 . S
C1100 C1093 1.424 . S
C1100 C1099 1.413 . S
C1100 N1104 1.361 . S
C1101 C1099 1.427 . S
C1101 C1102 1.328 . S
C1101 H1116 0.929 . S
C1102 C1096 1.448 . S
C1102 C1101 1.328 . S
C1102 H1117 0.930 . S
Tb1103 N1094 2.617 1_655 S
Tb1103 N1104 2.572 1_655 S
Tb1103 O1138 2.349 . S
Tb1103 O1141 2.393 1_655 S
Tb1103 O1142 2.465 . S
Tb1103 O1143 2.387 1_655 S
Tb1103 O1145 2.428 . S
Tb1103 O1146 2.308 1_655 S
Tb1103 C1167 2.802 . S
N1104 C1100 1.361 . S
N1104 Tb1103 2.572 1_455 S
N1104 C1106 1.340 . S
C1105 C1099 1.416 . S
C1105 C1107 1.332 . S
C1105 H1113 0.931 . S
C1106 N1104 1.340 . S
C1106 C1107 1.407 . S
C1106 H1112 0.930 . S
C1107 C1105 1.332 . S
C1107 C1106 1.407 . S
C1107 H1109 0.929 . S
H1108 C1097 0.930 1_655 S
H1109 C1107 0.929 . S
H1110 C1125 0.930 . S
H1111 C1132 0.929 . S
H1112 C1106 0.930 . S
H1113 C1105 0.931 . S
H1114 C1128 0.930 . S
H1115 C1095 0.930 . S
H1116 C1101 0.929 . S
H1117 C1102 0.930 . S
H1118 C1123 0.930 . S
H1119 C1098 0.930 . S
H1120 C1131 0.945 . S
N1121 Tb1092 2.617 . S
N1121 C1122 1.379 . S
N1121 C1125 1.334 . S
C1122 N1121 1.379 . S
C1122 C1124 1.416 . S
C1122 C1130 1.424 . S
C1123 H1118 0.930 . S
C1123 C1125 1.390 . S
C1123 C1126 1.339 . S
C1124 C1122 1.416 . S
C1124 C1126 1.416 . S
C1124 C1157 1.448 . S
C1125 H1110 0.930 . S
C1125 N1121 1.334 . S
C1125 C1123 1.390 . S
C1126 C1123 1.339 . S
C1126 C1124 1.416 . S
C1126 H1133 0.930 . S
N1127 Tb1092 2.572 . S
N1127 C1128 1.340 . S
N1127 C1130 1.361 . S
C1128 H1114 0.930 . S
C1128 N1127 1.340 . S
C1128 C1132 1.407 . S
C1129 C1130 1.413 . S
C1129 C1131 1.417 1_455 S
C1129 C1158 1.427 1_455 S
C1130 C1122 1.424 . S
C1130 N1127 1.361 . S
C1130 C1129 1.413 . S
C1131 H1120 0.945 . S
C1131 C1129 1.417 1_655 S
C1131 C1132 1.319 1_655 S
C1132 H1111 0.929 . S
C1132 C1128 1.407 . S
C1132 C1131 1.319 1_455 S
H1133 C1126 0.930 . S
H1134 C1157 0.930 1_655 S
H1135 C1158 0.929 . S
O1136 Tb1092 2.465 . S
O1136 C1156 1.264 . S
O1137 Tb1092 2.387 1_655 S
O1137 C1148 1.264 . S
O1138 Tb1103 2.349 . S
O1138 C1148 1.243 . S
O1139 Tb1092 2.428 . S
O1139 C1156 1.256 . S
O1140 Tb1092 2.308 . S
O1140 C1155 1.266 . S
O1141 Tb1103 2.393 1_455 S
O1141 C1155 1.248 . S
O1142 Tb1103 2.465 . S
O1142 C1167 1.264 . S
O1143 Tb1103 2.387 1_455 S
O1143 C1159 1.264 . S
O1144 Tb1092 2.349 . S
O1144 C1159 1.243 . S
O1145 Tb1103 2.428 . S
O1145 C1167 1.256 . S
O1146 Tb1103 2.308 1_455 S
O1146 C1166 1.266 . S
O1147 Tb1092 2.393 . S
O1147 C1166 1.248 . S
C1148 O1137 1.264 . S
C1148 O1138 1.243 . S
C1149 C1152 1.399 . S
C1149 C1154 1.383 . S
C1149 C1156 1.496 . S
C1150 C1151 1.399 . S
C1150 C1154 1.389 . S
C1151 C1150 1.399 . S
C1151 C1153 1.380 . S
C1151 H1168 0.929 . S
C1152 C1149 1.399 . S
C1152 C1153 1.392 . S
C1152 H1169 0.929 . S
C1153 C1151 1.380 . S
C1153 C1152 1.392 . S
C1153 H1170 0.929 . S
C1154 C1149 1.383 . S
C1154 C1150 1.389 . S
C1154 H1171 0.931 . S
C1155 O1140 1.266 . S
C1155 O1141 1.248 . S
C1156 Tb1092 2.802 . S
C1156 O1136 1.264 . S
C1156 O1139 1.256 . S
C1156 C1149 1.496 . S
C1157 C1124 1.448 . S
C1157 H1134 0.930 1_455 S
C1157 C1158 1.328 1_455 S
C1158 C1129 1.427 1_655 S
C1158 H1135 0.929 . S
C1158 C1157 1.328 1_655 S
C1159 O1143 1.264 . S
C1159 O1144 1.243 . S
C1160 C1163 1.399 . S
C1160 C1164 1.383 . S
C1160 C1167 1.496 . S
C1161 C1162 1.399 . S
C1161 C1164 1.389 . S
C1162 C1161 1.399 . S
C1162 C1165 1.380 . S
C1162 H1172 0.929 . S
C1163 C1160 1.399 . S
C1163 C1165 1.392 . S
C1163 H1173 0.929 . S
C1164 C1160 1.383 . S
C1164 C1161 1.389 . S
C1164 H1174 0.931 . S
C1165 C1162 1.380 . S
C1165 C1163 1.392 . S
C1165 H1175 0.929 . S
C1166 O1146 1.266 . S
C1166 O1147 1.248 . S
C1167 Tb1103 2.802 . S
C1167 O1142 1.264 . S
C1167 O1145 1.256 . S
C1167 C1160 1.496 . S
H1168 C1151 0.929 . S
H1169 C1152 0.929 . S
H1170 C1153 0.929 . S
H1171 C1154 0.931 . S
H1172 C1162 0.929 . S
H1173 C1163 0.929 . S
H1174 C1164 0.931 . S
H1175 C1165 0.929 . S
Tb1176 N1205 2.617 . S
Tb1176 N1211 2.572 . S
Tb1176 O1220 2.465 . S
Tb1176 O1221 2.387 . S
Tb1176 O1223 2.428 . S
Tb1176 O1224 2.308 . S
Tb1176 O1228 2.349 . S
Tb1176 O1231 2.393 . S
Tb1176 C1240 2.802 . S
C1177 N1178 1.379 . S
C1177 C1180 1.416 . S
C1177 C1184 1.424 . S
N1178 C1177 1.379 . S
N1178 C1181 1.334 . S
N1178 Tb1187 2.617 . S
C1179 C1181 1.390 . S
C1179 C1182 1.339 . S
C1179 H1199 0.930 . S
C1180 C1177 1.416 . S
C1180 C1182 1.416 . S
C1180 C1186 1.448 . S
C1181 N1178 1.334 . S
C1181 C1179 1.390 . S
C1181 H1192 0.930 . S
C1182 C1179 1.339 . S
C1182 C1180 1.416 . S
C1182 H1203 0.930 . S
C1183 C1184 1.413 . S
C1183 C1185 1.427 . S
C1183 C1189 1.416 . S
C1184 C1177 1.424 . S
C1184 C1183 1.413 . S
C1184 N1188 1.361 . S
C1185 C1183 1.427 . S
C1185 C1186 1.328 . S
C1185 H1200 0.929 . S
C1186 C1180 1.448 . S
C1186 C1185 1.328 . S
C1186 H1201 0.930 . S
Tb1187 N1178 2.617 . S
Tb1187 N1188 2.572 . S
Tb1187 O1222 2.349 . S
Tb1187 O1225 2.393 . S
Tb1187 O1226 2.465 . S
Tb1187 O1227 2.387 . S
Tb1187 O1229 2.428 . S
Tb1187 O1230 2.308 . S
Tb1187 C1251 2.802 . S
N1188 C1184 1.361 . S
N1188 Tb1187 2.572 . S
N1188 C1190 1.340 . S
C1189 C1183 1.416 . S
C1189 C1191 1.332 . S
C1189 H1197 0.931 . S
C1190 N1188 1.340 . S
C1190 C1191 1.407 . S
C1190 H1196 0.930 . S
C1191 C1189 1.332 . S
C1191 C1190 1.407 . S
C1191 H1193 0.929 . S
H1192 C1181 0.930 . S
H1193 C1191 0.929 . S
H1194 C1209 0.930 . S
H1195 C1216 0.929 . S
H1196 C1190 0.930 . S
H1197 C1189 0.931 . S
H1198 C1212 0.930 . S
H1199 C1179 0.930 . S
H1200 C1185 0.929 . S
H1201 C1186 0.930 . S
H1202 C1207 0.930 . S
H1203 C1182 0.930 . S
H1204 C1215 0.931 . S
N1205 Tb1176 2.617 . S
N1205 C1206 1.379 . S
N1205 C1209 1.334 . S
C1206 N1205 1.379 . S
C1206 C1208 1.416 . S
C1206 C1214 1.424 . S
C1207 H1202 0.930 . S
C1207 C1209 1.390 . S
C1207 C1210 1.339 . S
C1208 C1206 1.416 . S
C1208 C1210 1.416 . S
C1208 C1241 1.448 . S
C1209 H1194 0.930 . S
C1209 N1205 1.334 . S
C1209 C1207 1.390 . S
C1210 C1207 1.339 . S
C1210 C1208 1.416 . S
C1210 H1217 0.930 . S
N1211 Tb1176 2.572 . S
N1211 C1212 1.340 . S
N1211 C1214 1.361 . S
C1212 H1198 0.930 . S
C1212 N1211 1.340 . S
C1212 C1216 1.407 . S
C1213 C1214 1.413 . S
C1213 C1215 1.416 . S
C1213 C1242 1.427 . S
C1214 C1206 1.424 . S
C1214 N1211 1.361 . S
C1214 C1213 1.413 . S
C1215 H1204 0.931 . S
C1215 C1213 1.416 . S
C1215 C1216 1.332 . S
C1216 H1195 0.929 . S
C1216 C1212 1.407 . S
C1216 C1215 1.332 . S
H1217 C1210 0.930 . S
H1218 C1241 0.930 . S
H1219 C1242 0.929 . S
O1220 Tb1176 2.465 . S
O1220 C1240 1.264 . S
O1221 Tb1176 2.387 . S
O1221 C1232 1.264 . S
O1222 Tb1187 2.349 . S
O1222 C1232 1.243 . S
O1223 Tb1176 2.428 . S
O1223 C1240 1.256 . S
O1224 Tb1176 2.308 . S
O1224 C1239 1.266 . S
O1225 Tb1187 2.393 . S
O1225 C1239 1.248 . S
O1226 Tb1187 2.465 . S
O1226 C1251 1.264 . S
O1227 Tb1187 2.387 . S
O1227 C1243 1.264 . S
O1228 Tb1176 2.349 . S
O1228 C1243 1.243 . S
O1229 Tb1187 2.428 . S
O1229 C1251 1.256 . S
O1230 Tb1187 2.308 . S
O1230 C1250 1.266 . S
O1231 Tb1176 2.393 . S
O1231 C1250 1.248 . S
C1232 O1221 1.264 . S
C1232 O1222 1.243 . S
C1233 C1236 1.399 . S
C1233 C1238 1.383 . S
C1233 C1240 1.496 . S
C1234 C1235 1.399 . S
C1234 C1238 1.389 . S
C1235 C1234 1.399 . S
C1235 C1237 1.380 . S
C1235 H1252 0.929 . S
C1236 C1233 1.399 . S
C1236 C1237 1.392 . S
C1236 H1253 0.929 . S
C1237 C1235 1.380 . S
C1237 C1236 1.392 . S
C1237 H1254 0.929 . S
C1238 C1233 1.383 . S
C1238 C1234 1.389 . S
C1238 H1255 0.931 . S
C1239 O1224 1.266 . S
C1239 O1225 1.248 . S
C1240 Tb1176 2.802 . S
C1240 O1220 1.264 . S
C1240 O1223 1.256 . S
C1240 C1233 1.496 . S
C1241 C1208 1.448 . S
C1241 H1218 0.930 . S
C1241 C1242 1.328 . S
C1242 C1213 1.427 . S
C1242 H1219 0.929 . S
C1242 C1241 1.328 . S
C1243 O1227 1.264 . S
C1243 O1228 1.243 . S
C1244 C1247 1.399 . S
C1244 C1248 1.383 . S
C1244 C1251 1.496 . S
C1245 C1246 1.399 . S
C1245 C1248 1.389 . S
C1246 C1245 1.399 . S
C1246 C1249 1.380 . S
C1246 H1256 0.929 . S
C1247 C1244 1.399 . S
C1247 C1249 1.392 . S
C1247 H1257 0.929 . S
C1248 C1244 1.383 . S
C1248 C1245 1.389 . S
C1248 H1258 0.931 . S
C1249 C1246 1.380 . S
C1249 C1247 1.392 . S
C1249 H1259 0.929 . S
C1250 O1230 1.266 . S
C1250 O1231 1.248 . S
C1251 Tb1187 2.802 . S
C1251 O1226 1.264 . S
C1251 O1229 1.256 . S
C1251 C1244 1.496 . S
H1252 C1235 0.929 . S
H1253 C1236 0.929 . S
H1254 C1237 0.929 . S
H1255 C1238 0.931 . S
H1256 C1246 0.929 . S
H1257 C1247 0.929 . S
H1258 C1248 0.931 . S
H1259 C1249 0.929 . S
Tb1260 N1289 2.617 . S
Tb1260 N1295 2.572 . S
Tb1260 O1304 2.465 . S
Tb1260 O1305 2.387 . S
Tb1260 O1307 2.428 . S
Tb1260 O1308 2.308 . S
Tb1260 O1312 2.349 . S
Tb1260 O1315 2.393 . S
Tb1260 C1324 2.802 . S
C1261 N1262 1.379 . S
C1261 C1264 1.416 . S
C1261 C1268 1.424 . S
N1262 C1261 1.379 . S
N1262 C1265 1.334 . S
N1262 Tb1271 2.617 . S
C1263 C1265 1.390 . S
C1263 C1266 1.339 . S
C1263 H1283 0.930 . S
C1264 C1261 1.416 . S
C1264 C1266 1.416 . S
C1264 C1270 1.448 . S
C1265 N1262 1.334 . S
C1265 C1263 1.390 . S
C1265 H1276 0.930 . S
C1266 C1263 1.339 . S
C1266 C1264 1.416 . S
C1266 H1287 0.930 . S
C1267 C1268 1.413 . S
C1267 C1269 1.427 . S
C1267 C1273 1.416 . S
C1268 C1261 1.424 . S
C1268 C1267 1.413 . S
C1268 N1272 1.361 . S
C1269 C1267 1.427 . S
C1269 C1270 1.328 . S
C1269 H1284 0.929 . S
C1270 C1264 1.448 . S
C1270 C1269 1.328 . S
C1270 H1285 0.930 . S
Tb1271 N1262 2.617 . S
Tb1271 N1272 2.572 . S
Tb1271 O1306 2.349 1_455 S
Tb1271 O1309 2.393 . S
Tb1271 O1310 2.465 1_455 S
Tb1271 O1311 2.387 . S
Tb1271 O1313 2.428 1_455 S
Tb1271 O1314 2.308 . S
Tb1271 C1335 2.802 1_455 S
N1272 C1268 1.361 . S
N1272 Tb1271 2.572 . S
N1272 C1274 1.340 . S
C1273 C1267 1.416 . S
C1273 C1275 1.332 . S
C1273 H1281 0.931 . S
C1274 N1272 1.340 . S
C1274 C1275 1.407 . S
C1274 H1280 0.930 . S
C1275 C1273 1.332 . S
C1275 C1274 1.407 . S
C1275 H1277 0.929 . S
H1276 C1265 0.930 . S
H1277 C1275 0.929 . S
H1278 C1293 0.930 . S
H1279 C1300 0.929 . S
H1280 C1274 0.930 . S
H1281 C1273 0.931 . S
H1282 C1296 0.930 . S
H1283 C1263 0.930 . S
H1284 C1269 0.929 . S
H1285 C1270 0.930 . S
H1286 C1291 0.930 . S
H1287 C1266 0.930 . S
H1288 C1299 0.931 . S
N1289 Tb1260 2.617 . S
N1289 C1290 1.379 . S
N1289 C1293 1.334 . S
C1290 N1289 1.379 . S
C1290 C1292 1.416 . S
C1290 C1298 1.424 . S
C1291 H1286 0.930 . S
C1291 C1293 1.390 . S
C1291 C1294 1.339 . S
C1292 C1290 1.416 . S
C1292 C1294 1.416 . S
C1292 C1325 1.448 . S
C1293 H1278 0.930 . S
C1293 N1289 1.334 . S
C1293 C1291 1.390 . S
C1294 C1291 1.339 . S
C1294 C1292 1.416 . S
C1294 H1301 0.930 . S
N1295 Tb1260 2.572 . S
N1295 C1296 1.340 . S
N1295 C1298 1.361 . S
C1296 H1282 0.930 . S
C1296 N1295 1.340 . S
C1296 C1300 1.407 . S
C1297 C1298 1.413 . S
C1297 C1299 1.416 . S
C1297 C1326 1.427 . S
C1298 C1290 1.424 . S
C1298 N1295 1.361 . S
C1298 C1297 1.413 . S
C1299 H1288 0.931 . S
C1299 C1297 1.416 . S
C1299 C1300 1.332 . S
C1300 H1279 0.929 . S
C1300 C1296 1.407 . S
C1300 C1299 1.332 . S
H1301 C1294 0.930 . S
H1302 C1325 0.930 . S
H1303 C1326 0.929 1_655 S
O1304 Tb1260 2.465 . S
O1304 C1324 1.264 . S
O1305 Tb1260 2.387 . S
O1305 C1316 1.264 1_455 S
O1306 Tb1271 2.349 1_655 S
O1306 C1316 1.243 . S
O1307 Tb1260 2.428 . S
O1307 C1324 1.256 . S
O1308 Tb1260 2.308 . S
O1308 C1323 1.266 . S
O1309 Tb1271 2.393 . S
O1309 C1323 1.248 . S
O1310 Tb1271 2.465 1_655 S
O1310 C1335 1.264 . S
O1311 Tb1271 2.387 . S
O1311 C1327 1.264 . S
O1312 Tb1260 2.349 . S
O1312 C1327 1.243 . S
O1313 Tb1271 2.428 1_655 S
O1313 C1335 1.256 . S
O1314 Tb1271 2.308 . S
O1314 C1334 1.266 . S
O1315 Tb1260 2.393 . S
O1315 C1334 1.248 . S
C1316 O1305 1.264 1_655 S
C1316 O1306 1.243 . S
C1317 C1320 1.399 . S
C1317 C1322 1.383 . S
C1317 C1324 1.496 . S
C1318 C1319 1.399 . S
C1318 C1322 1.389 . S
C1319 C1318 1.399 . S
C1319 C1321 1.380 . S
C1319 H1336 0.929 . S
C1320 C1317 1.399 . S
C1320 C1321 1.392 . S
C1320 H1337 0.929 . S
C1321 C1319 1.380 . S
C1321 C1320 1.392 . S
C1321 H1338 0.929 . S
C1322 C1317 1.383 . S
C1322 C1318 1.389 . S
C1322 H1339 0.931 . S
C1323 O1308 1.266 . S
C1323 O1309 1.248 . S
C1324 Tb1260 2.802 . S
C1324 O1304 1.264 . S
C1324 O1307 1.256 . S
C1324 C1317 1.496 . S
C1325 C1292 1.448 . S
C1325 H1302 0.930 . S
C1325 C1326 1.328 . S
C1326 C1297 1.427 . S
C1326 H1303 0.929 1_455 S
C1326 C1325 1.328 . S
C1327 O1311 1.264 . S
C1327 O1312 1.243 . S
C1328 C1331 1.399 . S
C1328 C1332 1.383 . S
C1328 C1335 1.496 . S
C1329 C1330 1.399 . S
C1329 C1332 1.389 . S
C1330 C1329 1.399 . S
C1330 C1333 1.380 . S
C1330 H1340 0.929 . S
C1331 C1328 1.399 . S
C1331 C1333 1.392 . S
C1331 H1341 0.929 . S
C1332 C1328 1.383 . S
C1332 C1329 1.389 . S
C1332 H1342 0.931 . S
C1333 C1330 1.380 . S
C1333 C1331 1.392 . S
C1333 H1343 0.929 . S
C1334 O1314 1.266 . S
C1334 O1315 1.248 . S
C1335 Tb1271 2.802 1_655 S
C1335 O1310 1.264 . S
C1335 O1313 1.256 . S
C1335 C1328 1.496 . S
H1336 C1319 0.929 . S
H1337 C1320 0.929 . S
H1338 C1321 0.929 . S
H1339 C1322 0.931 . S
H1340 C1330 0.929 . S
H1341 C1331 0.929 . S
H1342 C1332 0.931 . S
H1343 C1333 0.929 . S
C1344 C1345 1.349 . S
C1344 C1346 1.327 . S
C1344 H1369 0.950 1_455 S
C1345 C1344 1.349 . S
C1345 C1361 1.349 . S
C1346 C1344 1.327 . S
C1346 C1365 1.429 . S
C1346 H1370 0.950 1_455 S
C1347 C1364 1.574 . S
C1347 C1366 1.368 . S
C1347 H1371 0.949 . S
H1348 C1352 0.949 1_655 S
C1349 C1350 1.349 . S
C1349 C1351 1.327 . S
C1349 H1372 0.950 1_565 S
C1350 C1349 1.349 . S
C1350 C1362 1.349 . S
C1351 C1349 1.327 . S
C1351 C1367 1.429 . S
C1351 H1373 0.950 . S
C1352 H1348 0.949 1_455 S
C1352 C1360 1.574 . S
C1352 C1368 1.368 . S
H1353 C1361 0.950 . S
H1354 C1359 0.950 . S
H1355 C1360 0.949 1_655 S
H1356 C1362 0.950 . S
H1357 C1363 0.950 1_655 S
H1358 C1364 0.949 . S
C1359 H1354 0.950 . S
C1359 C1361 1.327 . S
C1359 C1365 1.429 . S
C1360 C1352 1.574 . S
C1360 H1355 0.949 1_455 S
C1360 C1366 1.368 . S
C1361 C1345 1.349 . S
C1361 H1353 0.950 . S
C1361 C1359 1.327 . S
C1362 C1350 1.349 . S
C1362 H1356 0.950 . S
C1362 C1363 1.327 . S
C1363 H1357 0.950 1_455 S
C1363 C1362 1.327 . S
C1363 C1367 1.429 . S
C1364 C1347 1.574 . S
C1364 H1358 0.949 . S
C1364 C1368 1.368 . S
C1365 C1346 1.429 . S
C1365 C1359 1.429 . S
C1365 C1366 1.523 . S
C1366 C1347 1.368 . S
C1366 C1360 1.368 . S
C1366 C1365 1.523 . S
C1367 C1351 1.429 . S
C1367 C1363 1.429 . S
C1367 C1368 1.523 . S
C1368 C1352 1.368 . S
C1368 C1364 1.368 . S
C1368 C1367 1.523 . S
H1369 C1344 0.950 1_655 S
H1370 C1346 0.950 1_655 S
H1371 C1347 0.949 . S
H1372 C1349 0.950 1_545 S
H1373 C1351 0.950 . S
C1374 C1375 1.349 . S
C1374 C1376 1.327 . S
C1374 H1399 0.950 . S
C1375 C1374 1.349 . S
C1375 C1391 1.349 . S
C1376 C1374 1.327 . S
C1376 C1395 1.429 . S
C1376 H1400 0.950 . S
C1377 C1394 1.574 . S
C1377 C1396 1.368 . S
C1377 H1401 0.949 . S
H1378 C1382 0.949 . S
C1379 C1380 1.349 . S
C1379 C1381 1.327 . S
C1379 H1402 0.950 . S
C1380 C1379 1.349 . S
C1380 C1392 1.349 . S
C1381 C1379 1.327 . S
C1381 C1397 1.429 . S
C1381 H1403 0.950 . S
C1382 H1378 0.949 . S
C1382 C1390 1.574 . S
C1382 C1398 1.368 . S
H1383 C1391 0.950 . S
H1384 C1389 0.950 . S
H1385 C1390 0.949 . S
H1386 C1392 0.950 1_545 S
H1387 C1393 0.950 1_545 S
H1388 C1394 0.949 . S
C1389 H1384 0.950 . S
C1389 C1391 1.327 . S
C1389 C1395 1.429 . S
C1390 C1382 1.574 . S
C1390 H1385 0.949 . S
C1390 C1396 1.368 . S
C1391 C1375 1.349 . S
C1391 H1383 0.950 . S
C1391 C1389 1.327 . S
C1392 C1380 1.349 . S
C1392 H1386 0.950 1_565 S
C1392 C1393 1.327 . S
C1393 H1387 0.950 1_565 S
C1393 C1392 1.327 . S
C1393 C1397 1.429 . S
C1394 C1377 1.574 . S
C1394 H1388 0.949 . S
C1394 C1398 1.368 . S
C1395 C1376 1.429 . S
C1395 C1389 1.429 . S
C1395 C1396 1.523 . S
C1396 C1377 1.368 . S
C1396 C1390 1.368 . S
C1396 C1395 1.523 . S
C1397 C1381 1.429 . S
C1397 C1393 1.429 . S
C1397 C1398 1.523 . S
C1398 C1382 1.368 . S
C1398 C1394 1.368 . S
C1398 C1397 1.523 . S
H1399 C1374 0.950 . S
H1400 C1376 0.950 . S
H1401 C1377 0.949 . S
H1402 C1379 0.950 . S
H1403 C1381 0.950 . S
C1404 C1405 1.349 . S
C1404 C1406 1.327 . S
C1404 H1429 0.950 . S
C1405 C1404 1.349 . S
C1405 C1421 1.349 . S
C1406 C1404 1.327 . S
C1406 C1425 1.429 . S
C1406 H1430 0.950 . S
C1407 C1424 1.574 . S
C1407 C1426 1.368 . S
C1407 H1431 0.949 . S
H1408 C1412 0.949 . S
C1409 C1410 1.349 . S
C1409 C1411 1.327 . S
C1409 H1432 0.950 . S
C1410 C1409 1.349 . S
C1410 C1422 1.349 . S
C1411 C1409 1.327 . S
C1411 C1427 1.429 . S
C1411 H1433 0.950 . S
C1412 H1408 0.949 . S
C1412 C1420 1.574 . S
C1412 C1428 1.368 . S
H1413 C1421 0.950 . S
H1414 C1419 0.950 . S
H1415 C1420 0.949 . S
H1416 C1422 0.950 . S
H1417 C1423 0.950 . S
H1418 C1424 0.949 . S
C1419 H1414 0.950 . S
C1419 C1421 1.327 . S
C1419 C1425 1.429 . S
C1420 C1412 1.574 . S
C1420 H1415 0.949 . S
C1420 C1426 1.368 . S
C1421 C1405 1.349 . S
C1421 H1413 0.950 . S
C1421 C1419 1.327 . S
C1422 C1410 1.349 . S
C1422 H1416 0.950 . S
C1422 C1423 1.327 . S
C1423 H1417 0.950 . S
C1423 C1422 1.327 . S
C1423 C1427 1.429 . S
C1424 C1407 1.574 . S
C1424 H1418 0.949 . S
C1424 C1428 1.368 . S
C1425 C1406 1.429 . S
C1425 C1419 1.429 . S
C1425 C1426 1.523 . S
C1426 C1407 1.368 . S
C1426 C1420 1.368 . S
C1426 C1425 1.523 . S
C1427 C1411 1.429 . S
C1427 C1423 1.429 . S
C1427 C1428 1.523 . S
C1428 C1412 1.368 . S
C1428 C1424 1.368 . S
C1428 C1427 1.523 . S
H1429 C1404 0.950 . S
H1430 C1406 0.950 . S
H1431 C1407 0.949 . S
H1432 C1409 0.950 . S
H1433 C1411 0.950 . S
C1434 C1435 1.349 . S
C1434 C1436 1.327 . S
C1434 H1459 0.950 . S
C1435 C1434 1.349 . S
C1435 C1451 1.349 . S
C1436 C1434 1.327 . S
C1436 C1455 1.429 . S
C1436 H1460 0.950 . S
C1437 C1454 1.574 . S
C1437 C1456 1.368 . S
C1437 H1461 0.949 . S
H1438 C1442 0.949 . S
C1439 C1440 1.349 . S
C1439 C1441 1.327 . S
C1439 H1462 0.950 . S
C1440 C1439 1.349 . S
C1440 C1452 1.349 . S
C1441 C1439 1.327 . S
C1441 C1457 1.429 . S
C1441 H1463 0.950 . S
C1442 H1438 0.949 . S
C1442 C1450 1.574 . S
C1442 C1458 1.368 . S
H1443 C1451 0.950 . S
H1444 C1449 0.950 . S
H1445 C1450 0.949 . S
H1446 C1452 0.950 . S
H1447 C1453 0.950 . S
H1448 C1454 0.949 . S
C1449 H1444 0.950 . S
C1449 C1451 1.327 . S
C1449 C1455 1.429 . S
C1450 C1442 1.574 . S
C1450 H1445 0.949 . S
C1450 C1456 1.368 . S
C1451 C1435 1.349 . S
C1451 H1443 0.950 . S
C1451 C1449 1.327 . S
C1452 C1440 1.349 . S
C1452 H1446 0.950 . S
C1452 C1453 1.327 . S
C1453 H1447 0.950 . S
C1453 C1452 1.327 . S
C1453 C1457 1.429 . S
C1454 C1437 1.574 . S
C1454 H1448 0.949 . S
C1454 C1458 1.368 . S
C1455 C1436 1.429 . S
C1455 C1449 1.429 . S
C1455 C1456 1.523 1_655 S
C1456 C1437 1.368 . S
C1456 C1450 1.368 . S
C1456 C1455 1.523 1_455 S
C1457 C1441 1.429 . S
C1457 C1453 1.429 . S
C1457 C1458 1.523 . S
C1458 C1442 1.368 . S
C1458 C1454 1.368 . S
C1458 C1457 1.523 . S
H1459 C1434 0.950 . S
H1460 C1436 0.950 . S
H1461 C1437 0.949 . S
H1462 C1439 0.950 . S
H1463 C1441 0.950 . S
C1464 C1465 1.349 . S
C1464 C1466 1.327 . S
C1464 H1489 0.950 . S
C1465 C1464 1.349 . S
C1465 C1481 1.349 . S
C1466 C1464 1.327 . S
C1466 C1485 1.429 . S
C1466 H1490 0.950 . S
C1467 C1484 1.574 . S
C1467 C1486 1.368 . S
C1467 H1491 0.949 . S
H1468 C1472 0.949 . S
C1469 C1470 1.349 . S
C1469 C1471 1.327 . S
C1469 H1492 0.950 . S
C1470 C1469 1.349 . S
C1470 C1482 1.349 . S
C1471 C1469 1.327 . S
C1471 C1487 1.429 . S
C1471 H1493 0.950 . S
C1472 H1468 0.949 . S
C1472 C1480 1.574 . S
C1472 C1488 1.368 . S
H1473 C1481 0.950 . S
H1474 C1479 0.950 . S
H1475 C1480 0.949 . S
H1476 C1482 0.950 . S
H1477 C1483 0.950 . S
H1478 C1484 0.949 . S
C1479 H1474 0.950 . S
C1479 C1481 1.327 . S
C1479 C1485 1.429 . S
C1480 C1472 1.574 . S
C1480 H1475 0.949 . S
C1480 C1486 1.368 . S
C1481 C1465 1.349 . S
C1481 H1473 0.950 . S
C1481 C1479 1.327 . S
C1482 C1470 1.349 . S
C1482 H1476 0.950 . S
C1482 C1483 1.327 . S
C1483 H1477 0.950 . S
C1483 C1482 1.327 . S
C1483 C1487 1.429 . S
C1484 C1467 1.574 . S
C1484 H1478 0.949 . S
C1484 C1488 1.368 . S
C1485 C1466 1.429 . S
C1485 C1479 1.429 . S
C1485 C1486 1.523 . S
C1486 C1467 1.368 . S
C1486 C1480 1.368 . S
C1486 C1485 1.523 . S
C1487 C1471 1.429 . S
C1487 C1483 1.429 . S
C1487 C1488 1.523 . S
C1488 C1472 1.368 . S
C1488 C1484 1.368 . S
C1488 C1487 1.523 . S
H1489 C1464 0.950 . S
H1490 C1466 0.950 . S
H1491 C1467 0.949 . S
H1492 C1469 0.950 . S
H1493 C1471 0.950 . S
C1494 C1495 1.349 . S
C1494 C1496 1.327 . S
C1494 H1519 0.950 . S
C1495 C1494 1.349 . S
C1495 C1511 1.349 . S
C1496 C1494 1.327 . S
C1496 C1515 1.429 . S
C1496 H1520 0.950 . S
C1497 C1514 1.574 . S
C1497 C1516 1.368 . S
C1497 H1521 0.949 . S
H1498 C1502 0.949 . S
C1499 C1500 1.349 . S
C1499 C1501 1.327 . S
C1499 H1522 0.950 . S
C1500 C1499 1.349 . S
C1500 C1512 1.349 . S
C1501 C1499 1.327 . S
C1501 C1517 1.429 . S
C1501 H1523 0.950 . S
C1502 H1498 0.949 . S
C1502 C1510 1.574 1_655 S
C1502 C1518 1.368 . S
H1503 C1511 0.950 . S
H1504 C1509 0.950 . S
H1505 C1510 0.949 . S
H1506 C1512 0.950 . S
H1507 C1513 0.950 . S
H1508 C1514 0.953 . S
C1509 H1504 0.950 . S
C1509 C1511 1.327 . S
C1509 C1515 1.429 . S
C1510 C1502 1.574 1_455 S
C1510 H1505 0.949 . S
C1510 C1516 1.368 . S
C1511 C1495 1.349 . S
C1511 H1503 0.950 . S
C1511 C1509 1.327 . S
C1512 C1500 1.349 . S
C1512 H1506 0.950 . S
C1512 C1513 1.327 . S
C1513 H1507 0.950 . S
C1513 C1512 1.327 . S
C1513 C1517 1.429 . S
C1514 C1497 1.574 . S
C1514 H1508 0.953 . S
C1514 C1518 1.368 1_455 S
C1515 C1496 1.429 . S
C1515 C1509 1.429 . S
C1515 C1516 1.523 . S
C1516 C1497 1.368 . S
C1516 C1510 1.368 . S
C1516 C1515 1.523 . S
C1517 C1501 1.429 . S
C1517 C1513 1.429 . S
C1517 C1518 1.523 . S
C1518 C1502 1.368 . S
C1518 C1514 1.368 1_655 S
C1518 C1517 1.523 . S
H1519 C1494 0.950 . S
H1520 C1496 0.950 . S
H1521 C1497 0.949 . S
H1522 C1499 0.950 . S
H1523 C1501 0.950 . S
C1524 C1525 1.349 . S
C1524 C1526 1.327 . S
C1524 H1549 0.950 . S
C1525 C1524 1.349 . S
C1525 C1541 1.349 . S
C1526 C1524 1.327 . S
C1526 C1545 1.429 . S
C1526 H1550 0.950 . S
C1527 C1544 1.574 . S
C1527 C1546 1.368 . S
C1527 H1551 0.949 . S
H1528 C1532 0.949 . S
C1529 C1530 1.349 . S
C1529 C1531 1.327 . S
C1529 H1552 0.950 . S
C1530 C1529 1.349 . S
C1530 C1542 1.349 . S
C1531 C1529 1.327 . S
C1531 C1547 1.429 1_545 S
C1531 H1553 0.950 1_545 S
C1532 H1528 0.949 . S
C1532 C1540 1.574 . S
C1532 C1548 1.368 . S
H1533 C1541 0.950 . S
H1534 C1539 0.950 . S
H1535 C1540 0.949 . S
H1536 C1542 0.950 . S
H1537 C1543 0.950 . S
H1538 C1544 0.949 . S
C1539 H1534 0.950 . S
C1539 C1541 1.327 . S
C1539 C1545 1.429 . S
C1540 C1532 1.574 . S
C1540 H1535 0.949 . S
C1540 C1546 1.368 . S
C1541 C1525 1.349 . S
C1541 H1533 0.950 . S
C1541 C1539 1.327 . S
C1542 C1530 1.349 . S
C1542 H1536 0.950 . S
C1542 C1543 1.327 . S
C1543 H1537 0.950 . S
C1543 C1542 1.327 . S
C1543 C1547 1.429 1_545 S
C1544 C1527 1.574 . S
C1544 H1538 0.949 . S
C1544 C1548 1.368 . S
C1545 C1526 1.429 . S
C1545 C1539 1.429 . S
C1545 C1546 1.523 . S
C1546 C1527 1.368 . S
C1546 C1540 1.368 . S
C1546 C1545 1.523 . S
C1547 C1531 1.429 1_565 S
C1547 C1543 1.429 1_565 S
C1547 C1548 1.523 . S
C1548 C1532 1.368 . S
C1548 C1544 1.368 . S
C1548 C1547 1.523 . S
H1549 C1524 0.950 . S
H1550 C1526 0.950 . S
H1551 C1527 0.949 . S
H1552 C1529 0.950 . S
H1553 C1531 0.950 1_565 S
C1554 C1555 1.349 . S
C1554 C1556 1.327 . S
C1554 H1579 0.950 . S
C1555 C1554 1.349 . S
C1555 C1571 1.349 . S
C1556 C1554 1.327 . S
C1556 C1575 1.429 . S
C1556 H1580 0.950 . S
C1557 C1574 1.574 . S
C1557 C1576 1.368 . S
C1557 H1581 0.949 . S
H1558 C1562 0.949 . S
C1559 C1560 1.349 . S
C1559 C1561 1.327 . S
C1559 H1582 0.950 . S
C1560 C1559 1.349 . S
C1560 C1572 1.349 . S
C1561 C1559 1.327 . S
C1561 C1577 1.429 . S
C1561 H1583 0.950 . S
C1562 H1558 0.949 . S
C1562 C1570 1.574 . S
C1562 C1578 1.368 . S
H1563 C1571 0.950 . S
H1564 C1569 0.950 . S
H1565 C1570 0.949 . S
H1566 C1572 0.950 . S
H1567 C1573 0.950 . S
H1568 C1574 0.949 . S
C1569 H1564 0.950 . S
C1569 C1571 1.327 . S
C1569 C1575 1.429 . S
C1570 C1562 1.574 . S
C1570 H1565 0.949 . S
C1570 C1576 1.368 . S
C1571 C1555 1.349 . S
C1571 H1563 0.950 . S
C1571 C1569 1.327 . S
C1572 C1560 1.349 . S
C1572 H1566 0.950 . S
C1572 C1573 1.327 . S
C1573 H1567 0.950 . S
C1573 C1572 1.327 . S
C1573 C1577 1.429 . S
C1574 C1557 1.574 . S
C1574 H1568 0.949 . S
C1574 C1578 1.368 . S
C1575 C1556 1.429 . S
C1575 C1569 1.429 . S
C1575 C1576 1.523 . S
C1576 C1557 1.368 . S
C1576 C1570 1.368 . S
C1576 C1575 1.523 . S
C1577 C1561 1.429 . S
C1577 C1573 1.429 . S
C1577 C1578 1.523 . S
C1578 C1562 1.368 . S
C1578 C1574 1.368 . S
C1578 C1577 1.523 . S
H1579 C1554 0.950 . S
H1580 C1556 0.950 . S
H1581 C1557 0.949 . S
H1582 C1559 0.950 . S
H1583 C1561 0.950 . S
C1584 C1585 1.349 . S
C1584 C1586 1.327 . S
C1584 H1609 0.950 . S
C1585 C1584 1.349 . S
C1585 C1601 1.349 . S
C1586 C1584 1.327 . S
C1586 C1605 1.429 . S
C1586 H1610 0.950 . S
C1587 C1604 1.574 . S
C1587 C1606 1.368 . S
C1587 H1611 0.949 1_455 S
H1588 C1592 0.949 . S
C1589 C1590 1.349 . S
C1589 C1591 1.327 . S
C1589 H1612 0.950 1_455 S
C1590 C1589 1.349 . S
C1590 C1602 1.349 . S
C1591 C1589 1.327 . S
C1591 C1607 1.429 . S
C1591 H1613 0.950 1_455 S
C1592 H1588 0.949 . S
C1592 C1600 1.574 . S
C1592 C1608 1.368 . S
H1593 C1601 0.950 1_655 S
H1594 C1599 0.950 1_655 S
H1595 C1600 0.949 . S
H1596 C1602 0.950 . S
H1597 C1603 0.950 . S
H1598 C1604 0.949 1_655 S
C1599 H1594 0.950 1_455 S
C1599 C1601 1.327 . S
C1599 C1605 1.429 . S
C1600 C1592 1.574 . S
C1600 H1595 0.949 . S
C1600 C1606 1.368 . S
C1601 C1585 1.349 . S
C1601 H1593 0.950 1_455 S
C1601 C1599 1.327 . S
C1602 C1590 1.349 . S
C1602 H1596 0.950 . S
C1602 C1603 1.327 . S
C1603 H1597 0.950 . S
C1603 C1602 1.327 . S
C1603 C1607 1.429 . S
C1604 C1587 1.574 . S
C1604 H1598 0.949 1_455 S
C1604 C1608 1.368 . S
C1605 C1586 1.429 . S
C1605 C1599 1.429 . S
C1605 C1606 1.523 . S
C1606 C1587 1.368 . S
C1606 C1600 1.368 . S
C1606 C1605 1.523 . S
C1607 C1591 1.429 . S
C1607 C1603 1.429 . S
C1607 C1608 1.523 . S
C1608 C1592 1.368 . S
C1608 C1604 1.368 . S
C1608 C1607 1.523 . S
H1609 C1584 0.950 . S
H1610 C1586 0.950 . S
H1611 C1587 0.949 1_655 S
H1612 C1589 0.950 1_655 S
H1613 C1591 0.950 1_655 S
C1614 C1615 1.349 . S
C1614 C1616 1.327 . S
C1614 H1639 0.950 . S
C1615 C1614 1.349 . S
C1615 C1631 1.349 . S
C1616 C1614 1.327 . S
C1616 C1635 1.429 . S
C1616 H1640 0.950 . S
C1617 C1634 1.574 . S
C1617 C1636 1.368 . S
C1617 H1641 0.949 . S
H1618 C1622 0.949 . S
C1619 C1620 1.349 . S
C1619 C1621 1.327 . S
C1619 H1642 0.950 . S
C1620 C1619 1.349 . S
C1620 C1632 1.349 . S
C1621 C1619 1.327 . S
C1621 C1637 1.429 . S
C1621 H1643 0.950 . S
C1622 H1618 0.949 . S
C1622 C1630 1.574 . S
C1622 C1638 1.368 . S
H1623 C1631 0.950 . S
H1624 C1629 0.950 . S
H1625 C1630 0.949 . S
H1626 C1632 0.950 . S
H1627 C1633 0.950 . S
H1628 C1634 0.949 . S
C1629 H1624 0.950 . S
C1629 C1631 1.327 . S
C1629 C1635 1.429 . S
C1630 C1622 1.574 . S
C1630 H1625 0.949 . S
C1630 C1636 1.368 . S
C1631 C1615 1.349 . S
C1631 H1623 0.950 . S
C1631 C1629 1.327 . S
C1632 C1620 1.349 . S
C1632 H1626 0.950 . S
C1632 C1633 1.327 . S
C1633 H1627 0.950 . S
C1633 C1632 1.327 . S
C1633 C1637 1.429 . S
C1634 C1617 1.574 . S
C1634 H1628 0.949 . S
C1634 C1638 1.368 . S
C1635 C1616 1.429 . S
C1635 C1629 1.429 . S
C1635 C1636 1.523 . S
C1636 C1617 1.368 . S
C1636 C1630 1.368 . S
C1636 C1635 1.523 . S
C1637 C1621 1.429 . S
C1637 C1633 1.429 . S
C1637 C1638 1.523 1_655 S
C1638 C1622 1.368 . S
C1638 C1634 1.368 . S
C1638 C1637 1.523 1_455 S
H1639 C1614 0.950 . S
H1640 C1616 0.950 . S
H1641 C1617 0.949 . S
H1642 C1619 0.950 . S
H1643 C1621 0.950 . S
C1644 C1645 1.346 1_565 S
C1644 C1646 1.327 . S
C1644 H1669 0.950 . S
C1645 C1644 1.346 1_545 S
C1645 C1661 1.346 1_545 S
C1646 C1644 1.327 . S
C1646 C1665 1.429 . S
C1646 H1670 0.950 . S
C1647 C1664 1.574 . S
C1647 C1666 1.368 . S
C1647 H1671 0.949 . S
H1648 C1652 0.949 . S
C1649 C1650 1.349 . S
C1649 C1651 1.327 . S
C1649 H1672 0.950 . S
C1650 C1649 1.349 . S
C1650 C1662 1.349 . S
C1651 C1649 1.327 . S
C1651 C1667 1.429 . S
C1651 H1673 0.950 . S
C1652 H1648 0.949 . S
C1652 C1660 1.574 . S
C1652 C1668 1.368 . S
H1653 C1661 0.950 . S
H1654 C1659 0.950 . S
H1655 C1660 0.949 . S
H1656 C1662 0.950 . S
H1657 C1663 0.950 . S
H1658 C1664 0.949 . S
C1659 H1654 0.950 . S
C1659 C1661 1.327 . S
C1659 C1665 1.429 . S
C1660 C1652 1.574 . S
C1660 H1655 0.949 . S
C1660 C1666 1.368 . S
C1661 C1645 1.346 1_565 S
C1661 H1653 0.950 . S
C1661 C1659 1.327 . S
C1662 C1650 1.349 . S
C1662 H1656 0.950 . S
C1662 C1663 1.327 . S
C1663 H1657 0.950 . S
C1663 C1662 1.327 . S
C1663 C1667 1.429 . S
C1664 C1647 1.574 . S
C1664 H1658 0.949 . S
C1664 C1668 1.368 . S
C1665 C1646 1.429 . S
C1665 C1659 1.429 . S
C1665 C1666 1.523 . S
C1666 C1647 1.368 . S
C1666 C1660 1.368 . S
C1666 C1665 1.523 . S
C1667 C1651 1.429 . S
C1667 C1663 1.429 . S
C1667 C1668 1.523 . S
C1668 C1652 1.368 . S
C1668 C1664 1.368 . S
C1668 C1667 1.523 . S
H1669 C1644 0.950 . S
H1670 C1646 0.950 . S
H1671 C1647 0.949 . S
H1672 C1649 0.950 . S
H1673 C1651 0.950 . S
C1674 C1675 1.349 . S
C1674 C1676 1.327 . S
C1674 H1699 0.950 . S
C1675 C1674 1.349 . S
C1675 C1691 1.349 . S
C1676 C1674 1.327 . S
C1676 C1695 1.429 . S
C1676 H1700 0.950 . S
C1677 C1694 1.574 . S
C1677 C1696 1.368 . S
C1677 H1701 0.949 . S
H1678 C1682 0.949 . S
C1679 C1680 1.349 . S
C1679 C1681 1.327 . S
C1679 H1702 0.950 . S
C1680 C1679 1.349 . S
C1680 C1692 1.349 . S
C1681 C1679 1.327 . S
C1681 C1697 1.429 . S
C1681 H1703 0.950 . S
C1682 H1678 0.949 . S
C1682 C1690 1.574 . S
C1682 C1698 1.368 . S
H1683 C1691 0.950 . S
H1684 C1689 0.950 . S
H1685 C1690 0.949 . S
H1686 C1692 0.950 . S
H1687 C1693 0.950 . S
H1688 C1694 0.949 . S
C1689 H1684 0.950 . S
C1689 C1691 1.327 . S
C1689 C1695 1.429 . S
C1690 C1682 1.574 . S
C1690 H1685 0.949 . S
C1690 C1696 1.368 . S
C1691 C1675 1.349 . S
C1691 H1683 0.950 . S
C1691 C1689 1.327 . S
C1692 C1680 1.349 . S
C1692 H1686 0.950 . S
C1692 C1693 1.327 . S
C1693 H1687 0.950 . S
C1693 C1692 1.327 . S
C1693 C1697 1.429 . S
C1694 C1677 1.574 . S
C1694 H1688 0.949 . S
C1694 C1698 1.368 . S
C1695 C1676 1.429 . S
C1695 C1689 1.429 . S
C1695 C1696 1.523 . S
C1696 C1677 1.368 . S
C1696 C1690 1.368 . S
C1696 C1695 1.523 . S
C1697 C1681 1.429 . S
C1697 C1693 1.429 . S
C1697 C1698 1.523 . S
C1698 C1682 1.368 . S
C1698 C1694 1.368 . S
C1698 C1697 1.523 . S
H1699 C1674 0.950 . S
H1700 C1676 0.950 . S
H1701 C1677 0.949 . S
H1702 C1679 0.950 . S
H1703 C1681 0.950 . S
C1704 C1705 1.349 . S
C1704 C1706 1.327 . S
C1704 H1729 0.936 1_455 S
C1705 C1704 1.349 . S
C1705 C1721 1.349 . S
C1706 C1704 1.327 . S
C1706 C1725 1.429 . S
C1706 H1730 0.967 . S
C1707 C1724 1.574 . S
C1707 C1726 1.368 . S
C1707 H1731 0.949 . S
H1708 C1712 0.949 . S
C1709 C1710 1.349 . S
C1709 C1711 1.327 . S
C1709 H1732 0.950 . S
C1710 C1709 1.349 . S
C1710 C1722 1.349 . S
C1711 C1709 1.327 . S
C1711 C1727 1.429 . S
C1711 H1733 0.950 . S
C1712 H1708 0.949 . S
C1712 C1720 1.574 . S
C1712 C1728 1.368 . S
H1713 C1721 0.950 . S
H1714 C1719 0.950 . S
H1715 C1720 0.949 . S
H1716 C1722 0.950 . S
H1717 C1723 0.950 . S
H1718 C1724 0.949 . S
C1719 H1714 0.950 . S
C1719 C1721 1.327 . S
C1719 C1725 1.429 . S
C1720 C1712 1.574 . S
C1720 H1715 0.949 . S
C1720 C1726 1.368 . S
C1721 C1705 1.349 . S
C1721 H1713 0.950 . S
C1721 C1719 1.327 . S
C1722 C1710 1.349 . S
C1722 H1716 0.950 . S
C1722 C1723 1.327 . S
C1723 H1717 0.950 . S
C1723 C1722 1.327 . S
C1723 C1727 1.429 . S
C1724 C1707 1.574 . S
C1724 H1718 0.949 . S
C1724 C1728 1.368 . S
C1725 C1706 1.429 . S
C1725 C1719 1.429 . S
C1725 C1726 1.523 . S
C1726 C1707 1.368 . S
C1726 C1720 1.368 . S
C1726 C1725 1.523 . S
C1727 C1711 1.429 . S
C1727 C1723 1.429 . S
C1727 C1728 1.523 1_545 S
C1728 C1712 1.368 . S
C1728 C1724 1.368 . S
C1728 C1727 1.523 1_565 S
H1729 C1704 0.936 1_655 S
H1730 C1706 0.967 . S
H1731 C1707 0.949 . S
H1732 C1709 0.950 . S
H1733 C1711 0.950 . S
C1734 C1735 1.349 . S
C1734 C1736 1.327 . S
C1734 H1759 0.950 . S
C1735 C1734 1.349 . S
C1735 C1751 1.349 . S
C1736 C1734 1.327 . S
C1736 C1755 1.429 . S
C1736 H1760 0.950 . S
C1737 C1754 1.574 . S
C1737 C1756 1.368 . S
C1737 H1761 0.949 . S
H1738 C1742 0.949 . S
C1739 C1740 1.349 . S
C1739 C1741 1.327 . S
C1739 H1762 0.950 . S
C1740 C1739 1.349 . S
C1740 C1752 1.349 . S
C1741 C1739 1.327 . S
C1741 C1757 1.429 . S
C1741 H1763 0.950 . S
C1742 H1738 0.949 . S
C1742 C1750 1.574 . S
C1742 C1758 1.368 . S
H1743 C1751 0.950 . S
H1744 C1749 0.950 . S
H1745 C1750 0.949 . S
H1746 C1752 0.950 . S
H1747 C1753 0.950 . S
H1748 C1754 0.949 . S
C1749 H1744 0.950 . S
C1749 C1751 1.327 . S
C1749 C1755 1.429 . S
C1750 C1742 1.574 . S
C1750 H1745 0.949 . S
C1750 C1756 1.368 . S
C1751 C1735 1.349 . S
C1751 H1743 0.950 . S
C1751 C1749 1.327 . S
C1752 C1740 1.349 . S
C1752 H1746 0.950 . S
C1752 C1753 1.327 . S
C1753 H1747 0.950 . S
C1753 C1752 1.327 . S
C1753 C1757 1.429 . S
C1754 C1737 1.574 . S
C1754 H1748 0.949 . S
C1754 C1758 1.368 . S
C1755 C1736 1.429 . S
C1755 C1749 1.429 . S
C1755 C1756 1.523 . S
C1756 C1737 1.368 . S
C1756 C1750 1.368 . S
C1756 C1755 1.523 . S
C1757 C1741 1.429 . S
C1757 C1753 1.429 . S
C1757 C1758 1.523 . S
C1758 C1742 1.368 . S
C1758 C1754 1.368 . S
C1758 C1757 1.523 . S
H1759 C1734 0.950 . S
H1760 C1736 0.950 . S
H1761 C1737 0.949 . S
H1762 C1739 0.950 . S
H1763 C1741 0.950 . S
C1764 C1765 1.349 . S
C1764 C1766 1.327 . S
C1764 H1789 0.950 . S
C1765 C1764 1.349 . S
C1765 C1781 1.349 . S
C1766 C1764 1.327 . S
C1766 C1785 1.429 . S
C1766 H1790 0.950 . S
C1767 C1784 1.574 . S
C1767 C1786 1.368 . S
C1767 H1791 0.949 . S
H1768 C1772 0.949 . S
C1769 C1770 1.349 . S
C1769 C1771 1.327 . S
C1769 H1792 0.950 . S
C1770 C1769 1.349 . S
C1770 C1782 1.349 . S
C1771 C1769 1.327 . S
C1771 C1787 1.429 . S
C1771 H1793 0.950 . S
C1772 H1768 0.949 . S
C1772 C1780 1.574 . S
C1772 C1788 1.368 . S
H1773 C1781 0.950 . S
H1774 C1779 0.950 . S
H1775 C1780 0.949 . S
H1776 C1782 0.950 . S
H1777 C1783 0.950 . S
H1778 C1784 0.949 . S
C1779 H1774 0.950 . S
C1779 C1781 1.327 . S
C1779 C1785 1.429 . S
C1780 C1772 1.574 . S
C1780 H1775 0.949 . S
C1780 C1786 1.368 . S
C1781 C1765 1.349 . S
C1781 H1773 0.950 . S
C1781 C1779 1.327 . S
C1782 C1770 1.349 . S
C1782 H1776 0.950 . S
C1782 C1783 1.327 . S
C1783 H1777 0.950 . S
C1783 C1782 1.327 . S
C1783 C1787 1.429 . S
C1784 C1767 1.574 . S
C1784 H1778 0.949 . S
C1784 C1788 1.368 . S
C1785 C1766 1.429 . S
C1785 C1779 1.429 . S
C1785 C1786 1.523 . S
C1786 C1767 1.368 . S
C1786 C1780 1.368 . S
C1786 C1785 1.523 . S
C1787 C1771 1.429 . S
C1787 C1783 1.429 . S
C1787 C1788 1.523 . S
C1788 C1772 1.368 . S
C1788 C1784 1.368 . S
C1788 C1787 1.523 . S
H1789 C1764 0.950 . S
H1790 C1766 0.950 . S
H1791 C1767 0.949 . S
H1792 C1769 0.950 . S
H1793 C1771 0.950 . S
C1794 C1795 1.349 . S
C1794 C1796 1.327 . S
C1794 H1819 0.950 . S
C1795 C1794 1.349 . S
C1795 C1811 1.349 . S
C1796 C1794 1.327 . S
C1796 C1815 1.429 . S
C1796 H1820 0.950 . S
C1797 C1814 1.574 . S
C1797 C1816 1.368 . S
C1797 H1821 0.949 . S
H1798 C1802 0.949 1_655 S
C1799 C1800 1.349 . S
C1799 C1801 1.327 . S
C1799 H1822 0.950 . S
C1800 C1799 1.349 . S
C1800 C1812 1.349 . S
C1801 C1799 1.327 . S
C1801 C1817 1.429 . S
C1801 H1823 0.950 . S
C1802 H1798 0.949 1_455 S
C1802 C1810 1.574 . S
C1802 C1818 1.368 1_455 S
H1803 C1811 0.950 . S
H1804 C1809 0.950 . S
H1805 C1810 0.949 . S
H1806 C1812 0.950 . S
H1807 C1813 0.950 . S
H1808 C1814 0.949 1_655 S
C1809 H1804 0.950 . S
C1809 C1811 1.327 . S
C1809 C1815 1.429 . S
C1810 C1802 1.574 . S
C1810 H1805 0.949 . S
C1810 C1816 1.368 . S
C1811 C1795 1.349 . S
C1811 H1803 0.950 . S
C1811 C1809 1.327 . S
C1812 C1800 1.349 . S
C1812 H1806 0.950 . S
C1812 C1813 1.327 . S
C1813 H1807 0.950 . S
C1813 C1812 1.327 . S
C1813 C1817 1.429 . S
C1814 C1797 1.574 . S
C1814 H1808 0.949 1_455 S
C1814 C1818 1.368 1_455 S
C1815 C1796 1.429 . S
C1815 C1809 1.429 . S
C1815 C1816 1.523 . S
C1816 C1797 1.368 . S
C1816 C1810 1.368 . S
C1816 C1815 1.523 . S
C1817 C1801 1.429 . S
C1817 C1813 1.429 . S
C1817 C1818 1.523 . S
C1818 C1802 1.368 1_655 S
C1818 C1814 1.368 1_655 S
C1818 C1817 1.523 . S
H1819 C1794 0.950 . S
H1820 C1796 0.950 . S
H1821 C1797 0.949 . S
H1822 C1799 0.950 . S
H1823 C1801 0.950 . S
C1824 C1825 1.349 . S
C1824 C1826 1.327 . S
C1824 H1849 0.950 . S
C1825 C1824 1.349 . S
C1825 C1841 1.349 . S
C1826 C1824 1.327 . S
C1826 C1845 1.429 . S
C1826 H1850 0.950 . S
C1827 C1844 1.574 . S
C1827 C1846 1.368 . S
C1827 H1851 0.949 . S
H1828 C1832 0.949 . S
C1829 C1830 1.349 . S
C1829 C1831 1.327 . S
C1829 H1852 0.950 . S
C1830 C1829 1.349 . S
C1830 C1842 1.349 . S
C1831 C1829 1.327 . S
C1831 C1847 1.429 . S
C1831 H1853 0.950 . S
C1832 H1828 0.949 . S
C1832 C1840 1.574 . S
C1832 C1848 1.368 . S
H1833 C1841 0.950 . S
H1834 C1839 0.950 . S
H1835 C1840 0.949 . S
H1836 C1842 0.950 . S
H1837 C1843 0.950 . S
H1838 C1844 0.949 . S
C1839 H1834 0.950 . S
C1839 C1841 1.327 . S
C1839 C1845 1.429 . S
C1840 C1832 1.574 . S
C1840 H1835 0.949 . S
C1840 C1846 1.368 . S
C1841 C1825 1.349 . S
C1841 H1833 0.950 . S
C1841 C1839 1.327 . S
C1842 C1830 1.349 . S
C1842 H1836 0.950 . S
C1842 C1843 1.327 . S
C1843 H1837 0.950 . S
C1843 C1842 1.327 . S
C1843 C1847 1.429 . S
C1844 C1827 1.574 . S
C1844 H1838 0.949 . S
C1844 C1848 1.368 . S
C1845 C1826 1.429 . S
C1845 C1839 1.429 . S
C1845 C1846 1.523 . S
C1846 C1827 1.368 . S
C1846 C1840 1.368 . S
C1846 C1845 1.523 . S
C1847 C1831 1.429 . S
C1847 C1843 1.429 . S
C1847 C1848 1.523 . S
C1848 C1832 1.368 . S
C1848 C1844 1.368 . S
C1848 C1847 1.523 . S
H1849 C1824 0.950 . S
H1850 C1826 0.950 . S
H1851 C1827 0.949 . S
H1852 C1829 0.950 . S
H1853 C1831 0.950 . S
C1854 C1855 1.349 . S
C1854 C1856 1.327 . S
C1854 H1879 0.950 . S
C1855 C1854 1.349 . S
C1855 C1871 1.349 . S
C1856 C1854 1.327 . S
C1856 C1875 1.429 . S
C1856 H1880 0.950 . S
C1857 C1874 1.574 . S
C1857 C1876 1.368 . S
C1857 H1881 0.949 . S
H1858 C1862 0.949 . S
C1859 C1860 1.349 . S
C1859 C1861 1.327 . S
C1859 H1882 0.950 . S
C1860 C1859 1.349 . S
C1860 C1872 1.349 . S
C1861 C1859 1.327 . S
C1861 C1877 1.429 . S
C1861 H1883 0.950 . S
C1862 H1858 0.949 . S
C1862 C1870 1.574 . S
C1862 C1878 1.368 . S
H1863 C1871 0.950 . S
H1864 C1869 0.950 . S
H1865 C1870 0.949 . S
H1866 C1872 0.950 . S
H1867 C1873 0.950 . S
H1868 C1874 0.949 . S
C1869 H1864 0.950 . S
C1869 C1871 1.327 . S
C1869 C1875 1.429 . S
C1870 C1862 1.574 . S
C1870 H1865 0.949 . S
C1870 C1876 1.368 . S
C1871 C1855 1.349 . S
C1871 H1863 0.950 . S
C1871 C1869 1.327 . S
C1872 C1860 1.349 . S
C1872 H1866 0.950 . S
C1872 C1873 1.327 . S
C1873 H1867 0.950 . S
C1873 C1872 1.327 . S
C1873 C1877 1.429 . S
C1874 C1857 1.574 . S
C1874 H1868 0.949 . S
C1874 C1878 1.368 . S
C1875 C1856 1.429 . S
C1875 C1869 1.429 . S
C1875 C1876 1.523 . S
C1876 C1857 1.368 . S
C1876 C1870 1.368 . S
C1876 C1875 1.523 . S
C1877 C1861 1.429 . S
C1877 C1873 1.429 . S
C1877 C1878 1.523 . S
C1878 C1862 1.368 . S
C1878 C1874 1.368 . S
C1878 C1877 1.523 . S
H1879 C1854 0.950 . S
H1880 C1856 0.950 . S
H1881 C1857 0.949 . S
H1882 C1859 0.950 . S
H1883 C1861 0.950 . S
C1884 C1885 1.349 . S
C1884 C1886 1.327 . S
C1884 H1909 0.950 . S
C1885 C1884 1.349 . S
C1885 C1901 1.349 . S
C1886 C1884 1.327 . S
C1886 C1905 1.429 . S
C1886 H1910 0.950 . S
C1887 C1904 1.574 . S
C1887 C1906 1.368 . S
C1887 H1911 0.949 . S
H1888 C1892 0.949 . S
C1889 C1890 1.349 . S
C1889 C1891 1.327 . S
C1889 H1912 0.950 . S
C1890 C1889 1.349 . S
C1890 C1902 1.349 . S
C1891 C1889 1.327 . S
C1891 C1907 1.429 . S
C1891 H1913 0.950 . S
C1892 H1888 0.949 . S
C1892 C1900 1.574 . S
C1892 C1908 1.368 . S
H1893 C1901 0.950 . S
H1894 C1899 0.950 . S
H1895 C1900 0.949 . S
H1896 C1902 0.950 . S
H1897 C1903 0.950 . S
H1898 C1904 0.949 . S
C1899 H1894 0.950 . S
C1899 C1901 1.327 . S
C1899 C1905 1.429 . S
C1900 C1892 1.574 . S
C1900 H1895 0.949 . S
C1900 C1906 1.368 . S
C1901 C1885 1.349 . S
C1901 H1893 0.950 . S
C1901 C1899 1.327 . S
C1902 C1890 1.349 . S
C1902 H1896 0.950 . S
C1902 C1903 1.327 . S
C1903 H1897 0.950 . S
C1903 C1902 1.327 . S
C1903 C1907 1.429 . S
C1904 C1887 1.574 . S
C1904 H1898 0.949 . S
C1904 C1908 1.368 . S
C1905 C1886 1.429 . S
C1905 C1899 1.429 . S
C1905 C1906 1.523 . S
C1906 C1887 1.368 . S
C1906 C1900 1.368 . S
C1906 C1905 1.523 . S
C1907 C1891 1.429 . S
C1907 C1903 1.429 . S
C1907 C1908 1.523 . S
C1908 C1892 1.368 . S
C1908 C1904 1.368 . S
C1908 C1907 1.523 . S
H1909 C1884 0.950 . S
H1910 C1886 0.950 . S
H1911 C1887 0.949 . S
H1912 C1889 0.950 . S
H1913 C1891 0.950 . S
C1914 C1915 1.349 . S
C1914 C1916 1.327 . S
C1914 H1939 0.950 . S
C1915 C1914 1.349 . S
C1915 C1931 1.349 . S
C1916 C1914 1.327 . S
C1916 C1935 1.429 . S
C1916 H1940 0.950 . S
C1917 C1934 1.574 . S
C1917 C1936 1.368 . S
C1917 H1941 0.949 . S
H1918 C1922 0.949 . S
C1919 C1920 1.349 . S
C1919 C1921 1.327 . S
C1919 H1942 0.950 . S
C1920 C1919 1.349 . S
C1920 C1932 1.349 . S
C1921 C1919 1.327 . S
C1921 C1937 1.429 . S
C1921 H1943 0.950 . S
C1922 H1918 0.949 . S
C1922 C1930 1.574 . S
C1922 C1938 1.368 . S
H1923 C1931 0.950 . S
H1924 C1929 0.950 . S
H1925 C1930 0.949 . S
H1926 C1932 0.950 . S
H1927 C1933 0.950 . S
H1928 C1934 0.949 . S
C1929 H1924 0.950 . S
C1929 C1931 1.327 . S
C1929 C1935 1.429 . S
C1930 C1922 1.574 . S
C1930 H1925 0.949 . S
C1930 C1936 1.368 . S
C1931 C1915 1.349 . S
C1931 H1923 0.950 . S
C1931 C1929 1.327 . S
C1932 C1920 1.349 . S
C1932 H1926 0.950 . S
C1932 C1933 1.327 . S
C1933 H1927 0.950 . S
C1933 C1932 1.327 . S
C1933 C1937 1.429 . S
C1934 C1917 1.574 . S
C1934 H1928 0.949 . S
C1934 C1938 1.368 . S
C1935 C1916 1.429 . S
C1935 C1929 1.429 . S
C1935 C1936 1.523 . S
C1936 C1917 1.368 . S
C1936 C1930 1.368 . S
C1936 C1935 1.523 . S
C1937 C1921 1.429 . S
C1937 C1933 1.429 . S
C1937 C1938 1.523 . S
C1938 C1922 1.368 . S
C1938 C1934 1.368 . S
C1938 C1937 1.523 . S
H1939 C1914 0.950 . S
H1940 C1916 0.950 . S
H1941 C1917 0.949 . S
H1942 C1919 0.950 . S
H1943 C1921 0.950 . S
C1944 C1945 1.349 . S
C1944 C1946 1.327 . S
C1944 H1969 0.950 . S
C1945 C1944 1.349 . S
C1945 C1961 1.349 . S
C1946 C1944 1.327 . S
C1946 C1965 1.429 . S
C1946 H1970 0.950 . S
C1947 C1964 1.574 . S
C1947 C1966 1.368 . S
C1947 H1971 0.949 . S
H1948 C1952 0.949 . S
C1949 C1950 1.349 . S
C1949 C1951 1.327 . S
C1949 H1972 0.950 . S
C1950 C1949 1.349 . S
C1950 C1962 1.349 . S
C1951 C1949 1.327 . S
C1951 C1967 1.429 . S
C1951 H1973 0.950 . S
C1952 H1948 0.949 . S
C1952 C1960 1.574 . S
C1952 C1968 1.368 . S
H1953 C1961 0.950 . S
H1954 C1959 0.950 . S
H1955 C1960 0.949 . S
H1956 C1962 0.950 . S
H1957 C1963 0.950 . S
H1958 C1964 0.949 . S
C1959 H1954 0.950 . S
C1959 C1961 1.327 . S
C1959 C1965 1.429 . S
C1960 C1952 1.574 . S
C1960 H1955 0.949 . S
C1960 C1966 1.368 . S
C1961 C1945 1.349 . S
C1961 H1953 0.950 . S
C1961 C1959 1.327 . S
C1962 C1950 1.349 . S
C1962 H1956 0.950 . S
C1962 C1963 1.327 . S
C1963 H1957 0.950 . S
C1963 C1962 1.327 . S
C1963 C1967 1.429 . S
C1964 C1947 1.574 . S
C1964 H1958 0.949 . S
C1964 C1968 1.368 . S
C1965 C1946 1.429 . S
C1965 C1959 1.429 . S
C1965 C1966 1.523 . S
C1966 C1947 1.368 . S
C1966 C1960 1.368 . S
C1966 C1965 1.523 . S
C1967 C1951 1.429 . S
C1967 C1963 1.429 . S
C1967 C1968 1.523 . S
C1968 C1952 1.368 . S
C1968 C1964 1.368 . S
C1968 C1967 1.523 . S
H1969 C1944 0.950 . S
H1970 C1946 0.950 . S
H1971 C1947 0.949 . S
H1972 C1949 0.950 . S
H1973 C1951 0.950 . S
C1974 C1975 1.349 . S
C1974 C1976 1.327 1_565 S
C1974 H1999 0.950 . S
C1975 C1974 1.349 . S
C1975 C1991 1.349 . S
C1976 C1974 1.327 1_545 S
C1976 C1995 1.429 1_545 S
C1976 H2000 0.950 . S
C1977 C1994 1.574 . S
C1977 C1996 1.368 . S
C1977 H2001 0.949 1_545 S
H1978 C1982 0.949 . S
C1979 C1980 1.349 . S
C1979 C1981 1.327 . S
C1979 H2002 0.950 . S
C1980 C1979 1.349 . S
C1980 C1992 1.349 . S
C1981 C1979 1.327 . S
C1981 C1997 1.429 . S
C1981 H2003 0.950 . S
C1982 H1978 0.949 . S
C1982 C1990 1.574 . S
C1982 C1998 1.368 . S
H1983 C1991 0.950 . S
H1984 C1989 0.950 . S
H1985 C1990 0.949 . S
H1986 C1992 0.950 . S
H1987 C1993 0.950 . S
H1988 C1994 0.949 . S
C1989 H1984 0.950 . S
C1989 C1991 1.327 . S
C1989 C1995 1.429 . S
C1990 C1982 1.574 . S
C1990 H1985 0.949 . S
C1990 C1996 1.368 . S
C1991 C1975 1.349 . S
C1991 H1983 0.950 . S
C1991 C1989 1.327 . S
C1992 C1980 1.349 . S
C1992 H1986 0.950 . S
C1992 C1993 1.327 . S
C1993 H1987 0.950 . S
C1993 C1992 1.327 . S
C1993 C1997 1.429 . S
C1994 C1977 1.574 . S
C1994 H1988 0.949 . S
C1994 C1998 1.368 . S
C1995 C1976 1.429 1_565 S
C1995 C1989 1.429 . S
C1995 C1996 1.523 1_565 S
C1996 C1977 1.368 . S
C1996 C1990 1.368 . S
C1996 C1995 1.523 1_545 S
C1997 C1981 1.429 . S
C1997 C1993 1.429 . S
C1997 C1998 1.523 . S
C1998 C1982 1.368 . S
C1998 C1994 1.368 . S
C1998 C1997 1.523 . S
H1999 C1974 0.950 . S
H2000 C1976 0.950 . S
H2001 C1977 0.949 1_565 S
H2002 C1979 0.950 . S
H2003 C1981 0.950 . S
C2004 C2005 1.349 . S
C2004 C2006 1.327 . S
C2004 H2029 0.950 . S
C2005 C2004 1.349 . S
C2005 C2021 1.349 . S
C2006 C2004 1.327 . S
C2006 C2025 1.429 . S
C2006 H2030 0.950 . S
C2007 C2024 1.574 . S
C2007 C2026 1.368 . S
C2007 H2031 0.949 . S
H2008 C2012 0.949 . S
C2009 C2010 1.349 . S
C2009 C2011 1.327 . S
C2009 H2032 0.950 . S
C2010 C2009 1.349 . S
C2010 C2022 1.349 . S
C2011 C2009 1.327 . S
C2011 C2027 1.429 . S
C2011 H2033 0.950 . S
C2012 H2008 0.949 . S
C2012 C2020 1.574 . S
C2012 C2028 1.368 . S
H2013 C2021 0.950 . S
H2014 C2019 0.950 . S
H2015 C2020 0.949 . S
H2016 C2022 0.950 . S
H2017 C2023 0.950 . S
H2018 C2024 0.949 . S
C2019 H2014 0.950 . S
C2019 C2021 1.327 . S
C2019 C2025 1.429 . S
C2020 C2012 1.574 . S
C2020 H2015 0.949 . S
C2020 C2026 1.368 . S
C2021 C2005 1.349 . S
C2021 H2013 0.950 . S
C2021 C2019 1.327 . S
C2022 C2010 1.349 . S
C2022 H2016 0.950 . S
C2022 C2023 1.327 . S
C2023 H2017 0.950 . S
C2023 C2022 1.327 . S
C2023 C2027 1.429 . S
C2024 C2007 1.574 . S
C2024 H2018 0.949 . S
C2024 C2028 1.368 . S
C2025 C2006 1.429 . S
C2025 C2019 1.429 . S
C2025 C2026 1.523 . S
C2026 C2007 1.368 . S
C2026 C2020 1.368 . S
C2026 C2025 1.523 . S
C2027 C2011 1.429 . S
C2027 C2023 1.429 . S
C2027 C2028 1.523 . S
C2028 C2012 1.368 . S
C2028 C2024 1.368 . S
C2028 C2027 1.523 . S
H2029 C2004 0.950 . S
H2030 C2006 0.950 . S
H2031 C2007 0.949 . S
H2032 C2009 0.950 . S
H2033 C2011 0.950 . S
C2034 C2035 1.349 . S
C2034 C2036 1.327 . S
C2034 H2059 0.950 . S
C2035 C2034 1.349 . S
C2035 C2051 1.349 . S
C2036 C2034 1.327 . S
C2036 C2055 1.429 . S
C2036 H2060 0.950 . S
C2037 C2054 1.574 . S
C2037 C2056 1.368 . S
C2037 H2061 0.949 . S
H2038 C2042 0.949 . S
C2039 C2040 1.349 . S
C2039 C2041 1.327 . S
C2039 H2062 0.950 . S
C2040 C2039 1.349 . S
C2040 C2052 1.349 . S
C2041 C2039 1.327 . S
C2041 C2057 1.429 . S
C2041 H2063 0.950 . S
C2042 H2038 0.949 . S
C2042 C2050 1.574 . S
C2042 C2058 1.368 . S
H2043 C2051 0.950 . S
H2044 C2049 0.950 . S
H2045 C2050 0.949 . S
H2046 C2052 0.950 . S
H2047 C2053 0.950 . S
H2048 C2054 0.949 . S
C2049 H2044 0.950 . S
C2049 C2051 1.327 . S
C2049 C2055 1.429 . S
C2050 C2042 1.574 . S
C2050 H2045 0.949 . S
C2050 C2056 1.368 . S
C2051 C2035 1.349 . S
C2051 H2043 0.950 . S
C2051 C2049 1.327 . S
C2052 C2040 1.349 . S
C2052 H2046 0.950 . S
C2052 C2053 1.327 . S
C2053 H2047 0.950 . S
C2053 C2052 1.327 . S
C2053 C2057 1.429 . S
C2054 C2037 1.574 . S
C2054 H2048 0.949 . S
C2054 C2058 1.368 . S
C2055 C2036 1.429 . S
C2055 C2049 1.429 . S
C2055 C2056 1.523 . S
C2056 C2037 1.368 . S
C2056 C2050 1.368 . S
C2056 C2055 1.523 . S
C2057 C2041 1.429 . S
C2057 C2053 1.429 . S
C2057 C2058 1.523 . S
C2058 C2042 1.368 . S
C2058 C2054 1.368 . S
C2058 C2057 1.523 . S
H2059 C2034 0.950 . S
H2060 C2036 0.950 . S
H2061 C2037 0.949 . S
H2062 C2039 0.950 . S
H2063 C2041 0.950 . S
C2064 C2065 1.349 . S
C2064 C2066 1.327 . S
C2064 H2089 0.950 . S
C2065 C2064 1.349 . S
C2065 C2081 1.349 . S
C2066 C2064 1.327 . S
C2066 C2085 1.429 . S
C2066 H2090 0.950 . S
C2067 C2084 1.574 . S
C2067 C2086 1.368 . S
C2067 H2091 0.949 . S
H2068 C2072 0.949 . S
C2069 C2070 1.349 . S
C2069 C2071 1.327 . S
C2069 H2092 0.950 . S
C2070 C2069 1.349 . S
C2070 C2082 1.349 . S
C2071 C2069 1.327 . S
C2071 C2087 1.429 . S
C2071 H2093 0.950 . S
C2072 H2068 0.949 . S
C2072 C2080 1.574 . S
C2072 C2088 1.368 . S
H2073 C2081 0.950 . S
H2074 C2079 0.950 . S
H2075 C2080 0.949 . S
H2076 C2082 0.950 . S
H2077 C2083 0.950 . S
H2078 C2084 0.949 . S
C2079 H2074 0.950 . S
C2079 C2081 1.327 . S
C2079 C2085 1.429 . S
C2080 C2072 1.574 . S
C2080 H2075 0.949 . S
C2080 C2086 1.368 . S
C2081 C2065 1.349 . S
C2081 H2073 0.950 . S
C2081 C2079 1.327 . S
C2082 C2070 1.349 . S
C2082 H2076 0.950 . S
C2082 C2083 1.327 . S
C2083 H2077 0.950 . S
C2083 C2082 1.327 . S
C2083 C2087 1.429 . S
C2084 C2067 1.574 . S
C2084 H2078 0.949 . S
C2084 C2088 1.368 . S
C2085 C2066 1.429 . S
C2085 C2079 1.429 . S
C2085 C2086 1.523 . S
C2086 C2067 1.368 . S
C2086 C2080 1.368 . S
C2086 C2085 1.523 . S
C2087 C2071 1.429 . S
C2087 C2083 1.429 . S
C2087 C2088 1.523 . S
C2088 C2072 1.368 . S
C2088 C2084 1.368 . S
C2088 C2087 1.523 . S
H2089 C2064 0.950 . S
H2090 C2066 0.950 . S
H2091 C2067 0.949 . S
H2092 C2069 0.950 . S
H2093 C2071 0.950 . S
C2094 C2095 1.349 . S
C2094 C2096 1.327 . S
C2094 H2119 0.950 . S
C2095 C2094 1.349 . S
C2095 C2111 1.349 . S
C2096 C2094 1.327 . S
C2096 C2115 1.429 . S
C2096 H2120 0.950 . S
C2097 C2114 1.574 . S
C2097 C2116 1.368 . S
C2097 H2121 0.949 . S
H2098 C2102 0.949 . S
C2099 C2100 1.349 . S
C2099 C2101 1.327 . S
C2099 H2122 0.950 . S
C2100 C2099 1.349 . S
C2100 C2112 1.349 . S
C2101 C2099 1.327 . S
C2101 C2117 1.429 . S
C2101 H2123 0.950 . S
C2102 H2098 0.949 . S
C2102 C2110 1.574 . S
C2102 C2118 1.368 . S
H2103 C2111 0.950 . S
H2104 C2109 0.950 . S
H2105 C2110 0.949 . S
H2106 C2112 0.950 . S
H2107 C2113 0.950 . S
H2108 C2114 0.949 . S
C2109 H2104 0.950 . S
C2109 C2111 1.327 . S
C2109 C2115 1.429 . S
C2110 C2102 1.574 . S
C2110 H2105 0.949 . S
C2110 C2116 1.368 . S
C2111 C2095 1.349 . S
C2111 H2103 0.950 . S
C2111 C2109 1.327 . S
C2112 C2100 1.349 . S
C2112 H2106 0.950 . S
C2112 C2113 1.327 . S
C2113 H2107 0.950 . S
C2113 C2112 1.327 . S
C2113 C2117 1.429 . S
C2114 C2097 1.574 . S
C2114 H2108 0.949 . S
C2114 C2118 1.368 . S
C2115 C2096 1.429 . S
C2115 C2109 1.429 . S
C2115 C2116 1.523 . S
C2116 C2097 1.368 . S
C2116 C2110 1.368 . S
C2116 C2115 1.523 . S
C2117 C2101 1.429 . S
C2117 C2113 1.429 . S
C2117 C2118 1.523 . S
C2118 C2102 1.368 . S
C2118 C2114 1.368 . S
C2118 C2117 1.523 . S
H2119 C2094 0.950 . S
H2120 C2096 0.950 . S
H2121 C2097 0.949 . S
H2122 C2099 0.950 . S
H2123 C2101 0.950 . S
C2124 C2125 1.349 . S
C2124 C2126 1.327 . S
C2124 H2149 0.950 . S
C2125 C2124 1.349 . S
C2125 C2141 1.349 . S
C2126 C2124 1.327 . S
C2126 C2145 1.429 . S
C2126 H2150 0.950 . S
C2127 C2144 1.574 . S
C2127 C2146 1.368 . S
C2127 H2151 0.949 . S
H2128 C2132 0.949 . S
C2129 C2130 1.349 . S
C2129 C2131 1.327 . S
C2129 H2152 0.950 . S
C2130 C2129 1.349 . S
C2130 C2142 1.349 . S
C2131 C2129 1.327 . S
C2131 C2147 1.429 . S
C2131 H2153 0.950 . S
C2132 H2128 0.949 . S
C2132 C2140 1.574 . S
C2132 C2148 1.368 . S
H2133 C2141 0.950 . S
H2134 C2139 0.950 . S
H2135 C2140 0.949 . S
H2136 C2142 0.950 . S
H2137 C2143 0.950 . S
H2138 C2144 0.949 . S
C2139 H2134 0.950 . S
C2139 C2141 1.327 . S
C2139 C2145 1.429 . S
C2140 C2132 1.574 . S
C2140 H2135 0.949 . S
C2140 C2146 1.368 . S
C2141 C2125 1.349 . S
C2141 H2133 0.950 . S
C2141 C2139 1.327 . S
C2142 C2130 1.349 . S
C2142 H2136 0.950 . S
C2142 C2143 1.327 . S
C2143 H2137 0.950 . S
C2143 C2142 1.327 . S
C2143 C2147 1.429 . S
C2144 C2127 1.574 . S
C2144 H2138 0.949 . S
C2144 C2148 1.368 . S
C2145 C2126 1.429 . S
C2145 C2139 1.429 . S
C2145 C2146 1.523 . S
C2146 C2127 1.368 . S
C2146 C2140 1.368 . S
C2146 C2145 1.523 . S
C2147 C2131 1.429 . S
C2147 C2143 1.429 . S
C2147 C2148 1.523 . S
C2148 C2132 1.368 . S
C2148 C2144 1.368 . S
C2148 C2147 1.523 . S
H2149 C2124 0.950 . S
H2150 C2126 0.950 . S
H2151 C2127 0.949 . S
H2152 C2129 0.950 . S
H2153 C2131 0.950 . S
C2154 C2155 1.349 . S
C2154 C2156 1.327 . S
C2154 H2179 0.950 . S
C2155 C2154 1.349 . S
C2155 C2171 1.349 . S
C2156 C2154 1.327 . S
C2156 C2175 1.429 . S
C2156 H2180 0.950 . S
C2157 C2174 1.574 . S
C2157 C2176 1.368 . S
C2157 H2181 0.949 . S
H2158 C2162 0.949 . S
C2159 C2160 1.349 . S
C2159 C2161 1.327 . S
C2159 H2182 0.950 . S
C2160 C2159 1.349 . S
C2160 C2172 1.349 . S
C2161 C2159 1.327 . S
C2161 C2177 1.429 . S
C2161 H2183 0.950 . S
C2162 H2158 0.949 . S
C2162 C2170 1.574 1_545 S
C2162 C2178 1.368 . S
H2163 C2171 0.950 . S
H2164 C2169 0.950 . S
H2165 C2170 0.949 . S
H2166 C2172 0.950 . S
H2167 C2173 0.950 . S
H2168 C2174 0.951 . S
C2169 H2164 0.950 . S
C2169 C2171 1.327 . S
C2169 C2175 1.429 . S
C2170 C2162 1.574 1_565 S
C2170 H2165 0.949 . S
C2170 C2176 1.368 . S
C2171 C2155 1.349 . S
C2171 H2163 0.950 . S
C2171 C2169 1.327 . S
C2172 C2160 1.349 . S
C2172 H2166 0.950 . S
C2172 C2173 1.327 . S
C2173 H2167 0.950 . S
C2173 C2172 1.327 . S
C2173 C2177 1.429 . S
C2174 C2157 1.574 . S
C2174 H2168 0.951 . S
C2174 C2178 1.368 1_565 S
C2175 C2156 1.429 . S
C2175 C2169 1.429 . S
C2175 C2176 1.523 . S
C2176 C2157 1.368 . S
C2176 C2170 1.368 . S
C2176 C2175 1.523 . S
C2177 C2161 1.429 . S
C2177 C2173 1.429 . S
C2177 C2178 1.523 . S
C2178 C2162 1.368 . S
C2178 C2174 1.368 1_545 S
C2178 C2177 1.523 . S
H2179 C2154 0.950 . S
H2180 C2156 0.950 . S
H2181 C2157 0.949 . S
H2182 C2159 0.950 . S
H2183 C2161 0.950 . S
C2184 C2185 1.349 . S
C2184 C2186 1.327 . S
C2184 H2209 0.950 . S
C2185 C2184 1.349 . S
C2185 C2201 1.349 . S
C2186 C2184 1.327 . S
C2186 C2205 1.429 . S
C2186 H2210 0.950 . S
C2187 C2204 1.574 . S
C2187 C2206 1.368 . S
C2187 H2211 0.949 . S
H2188 C2192 0.949 . S
C2189 C2190 1.349 . S
C2189 C2191 1.327 . S
C2189 H2212 0.950 . S
C2190 C2189 1.349 . S
C2190 C2202 1.349 . S
C2191 C2189 1.327 . S
C2191 C2207 1.429 . S
C2191 H2213 0.950 . S
C2192 H2188 0.949 . S
C2192 C2200 1.574 . S
C2192 C2208 1.368 . S
H2193 C2201 0.950 . S
H2194 C2199 0.950 . S
H2195 C2200 0.949 . S
H2196 C2202 0.950 . S
H2197 C2203 0.950 . S
H2198 C2204 0.949 . S
C2199 H2194 0.950 . S
C2199 C2201 1.327 . S
C2199 C2205 1.429 . S
C2200 C2192 1.574 . S
C2200 H2195 0.949 . S
C2200 C2206 1.368 . S
C2201 C2185 1.349 . S
C2201 H2193 0.950 . S
C2201 C2199 1.327 . S
C2202 C2190 1.349 . S
C2202 H2196 0.950 . S
C2202 C2203 1.327 . S
C2203 H2197 0.950 . S
C2203 C2202 1.327 . S
C2203 C2207 1.429 . S
C2204 C2187 1.574 . S
C2204 H2198 0.949 . S
C2204 C2208 1.368 . S
C2205 C2186 1.429 . S
C2205 C2199 1.429 . S
C2205 C2206 1.523 . S
C2206 C2187 1.368 . S
C2206 C2200 1.368 . S
C2206 C2205 1.523 . S
C2207 C2191 1.429 . S
C2207 C2203 1.429 . S
C2207 C2208 1.523 . S
C2208 C2192 1.368 . S
C2208 C2204 1.368 . S
C2208 C2207 1.523 . S
H2209 C2184 0.950 . S
H2210 C2186 0.950 . S
H2211 C2187 0.949 . S
H2212 C2189 0.950 . S
H2213 C2191 0.950 . S
C2214 C2215 1.349 . S
C2214 C2216 1.327 . S
C2214 H2239 0.950 . S
C2215 C2214 1.349 . S
C2215 C2231 1.349 . S
C2216 C2214 1.327 . S
C2216 C2235 1.429 . S
C2216 H2240 0.950 . S
C2217 C2234 1.574 . S
C2217 C2236 1.368 . S
C2217 H2241 0.949 . S
H2218 C2222 0.949 . S
C2219 C2220 1.349 . S
C2219 C2221 1.327 . S
C2219 H2242 0.950 . S
C2220 C2219 1.349 . S
C2220 C2232 1.349 . S
C2221 C2219 1.327 . S
C2221 C2237 1.429 . S
C2221 H2243 0.950 . S
C2222 H2218 0.949 . S
C2222 C2230 1.574 . S
C2222 C2238 1.368 . S
H2223 C2231 0.950 . S
H2224 C2229 0.950 . S
H2225 C2230 0.949 . S
H2226 C2232 0.950 . S
H2227 C2233 0.950 . S
H2228 C2234 0.949 . S
C2229 H2224 0.950 . S
C2229 C2231 1.327 . S
C2229 C2235 1.429 . S
C2230 C2222 1.574 . S
C2230 H2225 0.949 . S
C2230 C2236 1.368 . S
C2231 C2215 1.349 . S
C2231 H2223 0.950 . S
C2231 C2229 1.327 . S
C2232 C2220 1.349 . S
C2232 H2226 0.950 . S
C2232 C2233 1.327 . S
C2233 H2227 0.950 . S
C2233 C2232 1.327 . S
C2233 C2237 1.429 . S
C2234 C2217 1.574 . S
C2234 H2228 0.949 . S
C2234 C2238 1.368 . S
C2235 C2216 1.429 . S
C2235 C2229 1.429 . S
C2235 C2236 1.523 . S
C2236 C2217 1.368 . S
C2236 C2230 1.368 . S
C2236 C2235 1.523 . S
C2237 C2221 1.429 . S
C2237 C2233 1.429 . S
C2237 C2238 1.523 . S
C2238 C2222 1.368 . S
C2238 C2234 1.368 . S
C2238 C2237 1.523 . S
H2239 C2214 0.950 . S
H2240 C2216 0.950 . S
H2241 C2217 0.949 . S
H2242 C2219 0.950 . S
H2243 C2221 0.950 . S
C2244 C2245 1.349 . S
C2244 C2246 1.327 . S
C2244 H2269 0.950 . S
C2245 C2244 1.349 . S
C2245 C2261 1.349 . S
C2246 C2244 1.327 . S
C2246 C2265 1.429 . S
C2246 H2270 0.950 . S
C2247 C2264 1.574 . S
C2247 C2266 1.368 . S
C2247 H2271 0.949 . S
H2248 C2252 0.949 . S
C2249 C2250 1.349 . S
C2249 C2251 1.327 . S
C2249 H2272 0.950 . S
C2250 C2249 1.349 . S
C2250 C2262 1.349 . S
C2251 C2249 1.327 . S
C2251 C2267 1.429 . S
C2251 H2273 0.950 . S
C2252 H2248 0.949 . S
C2252 C2260 1.574 . S
C2252 C2268 1.368 . S
H2253 C2261 0.950 . S
H2254 C2259 0.950 . S
H2255 C2260 0.949 . S
H2256 C2262 0.950 . S
H2257 C2263 0.950 . S
H2258 C2264 0.949 . S
C2259 H2254 0.950 . S
C2259 C2261 1.327 . S
C2259 C2265 1.429 . S
C2260 C2252 1.574 . S
C2260 H2255 0.949 . S
C2260 C2266 1.368 . S
C2261 C2245 1.349 . S
C2261 H2253 0.950 . S
C2261 C2259 1.327 . S
C2262 C2250 1.349 . S
C2262 H2256 0.950 . S
C2262 C2263 1.327 . S
C2263 H2257 0.950 . S
C2263 C2262 1.327 . S
C2263 C2267 1.429 . S
C2264 C2247 1.574 . S
C2264 H2258 0.949 . S
C2264 C2268 1.368 . S
C2265 C2246 1.429 . S
C2265 C2259 1.429 . S
C2265 C2266 1.523 . S
C2266 C2247 1.368 . S
C2266 C2260 1.368 . S
C2266 C2265 1.523 . S
C2267 C2251 1.429 . S
C2267 C2263 1.429 . S
C2267 C2268 1.523 . S
C2268 C2252 1.368 . S
C2268 C2264 1.368 . S
C2268 C2267 1.523 . S
H2269 C2244 0.950 . S
H2270 C2246 0.950 . S
H2271 C2247 0.949 . S
H2272 C2249 0.950 . S
H2273 C2251 0.950 . S
C2274 C2275 1.349 . S
C2274 C2276 1.327 . S
C2274 H2299 0.950 . S
C2275 C2274 1.349 . S
C2275 C2291 1.349 . S
C2276 C2274 1.327 . S
C2276 C2295 1.429 . S
C2276 H2300 0.950 . S
C2277 C2294 1.574 . S
C2277 C2296 1.368 . S
C2277 H2301 0.949 . S
H2278 C2282 0.949 . S
C2279 C2280 1.349 . S
C2279 C2281 1.327 . S
C2279 H2302 0.950 . S
C2280 C2279 1.349 . S
C2280 C2292 1.349 . S
C2281 C2279 1.327 . S
C2281 C2297 1.429 . S
C2281 H2303 0.950 . S
C2282 H2278 0.949 . S
C2282 C2290 1.574 . S
C2282 C2298 1.368 . S
H2283 C2291 0.950 . S
H2284 C2289 0.950 . S
H2285 C2290 0.949 . S
H2286 C2292 0.950 . S
H2287 C2293 0.950 . S
H2288 C2294 0.949 . S
C2289 H2284 0.950 . S
C2289 C2291 1.327 . S
C2289 C2295 1.429 . S
C2290 C2282 1.574 . S
C2290 H2285 0.949 . S
C2290 C2296 1.368 . S
C2291 C2275 1.349 . S
C2291 H2283 0.950 . S
C2291 C2289 1.327 . S
C2292 C2280 1.349 . S
C2292 H2286 0.950 . S
C2292 C2293 1.327 . S
C2293 H2287 0.950 . S
C2293 C2292 1.327 . S
C2293 C2297 1.429 . S
C2294 C2277 1.574 . S
C2294 H2288 0.949 . S
C2294 C2298 1.368 . S
C2295 C2276 1.429 . S
C2295 C2289 1.429 . S
C2295 C2296 1.523 . S
C2296 C2277 1.368 . S
C2296 C2290 1.368 . S
C2296 C2295 1.523 . S
C2297 C2281 1.429 . S
C2297 C2293 1.429 . S
C2297 C2298 1.523 . S
C2298 C2282 1.368 . S
C2298 C2294 1.368 . S
C2298 C2297 1.523 . S
H2299 C2274 0.950 . S
H2300 C2276 0.950 . S
H2301 C2277 0.949 . S
H2302 C2279 0.950 . S
H2303 C2281 0.950 . S
C2304 C2305 1.349 . S
C2304 C2306 1.327 . S
C2304 H2329 0.950 . S
C2305 C2304 1.349 . S
C2305 C2321 1.349 . S
C2306 C2304 1.327 . S
C2306 C2325 1.429 . S
C2306 H2330 0.950 . S
C2307 C2324 1.574 . S
C2307 C2326 1.368 . S
C2307 H2331 0.949 . S
H2308 C2312 0.949 . S
C2309 C2310 1.349 . S
C2309 C2311 1.327 . S
C2309 H2332 0.950 . S
C2310 C2309 1.349 . S
C2310 C2322 1.349 . S
C2311 C2309 1.327 . S
C2311 C2327 1.429 . S
C2311 H2333 0.950 . S
C2312 H2308 0.949 . S
C2312 C2320 1.574 . S
C2312 C2328 1.368 . S
H2313 C2321 0.950 . S
H2314 C2319 0.950 . S
H2315 C2320 0.949 . S
H2316 C2322 0.950 . S
H2317 C2323 0.950 . S
H2318 C2324 0.949 . S
C2319 H2314 0.950 . S
C2319 C2321 1.327 . S
C2319 C2325 1.429 . S
C2320 C2312 1.574 . S
C2320 H2315 0.949 . S
C2320 C2326 1.368 . S
C2321 C2305 1.349 . S
C2321 H2313 0.950 . S
C2321 C2319 1.327 . S
C2322 C2310 1.349 . S
C2322 H2316 0.950 . S
C2322 C2323 1.327 . S
C2323 H2317 0.950 . S
C2323 C2322 1.327 . S
C2323 C2327 1.429 . S
C2324 C2307 1.574 . S
C2324 H2318 0.949 . S
C2324 C2328 1.368 . S
C2325 C2306 1.429 . S
C2325 C2319 1.429 . S
C2325 C2326 1.523 . S
C2326 C2307 1.368 . S
C2326 C2320 1.368 . S
C2326 C2325 1.523 . S
C2327 C2311 1.429 . S
C2327 C2323 1.429 . S
C2327 C2328 1.523 . S
C2328 C2312 1.368 . S
C2328 C2324 1.368 . S
C2328 C2327 1.523 . S
H2329 C2304 0.950 . S
H2330 C2306 0.950 . S
H2331 C2307 0.949 . S
H2332 C2309 0.950 . S
H2333 C2311 0.950 . S
C2334 C2335 1.349 . S
C2334 C2336 1.327 . S
C2334 H2359 0.950 . S
C2335 C2334 1.349 . S
C2335 C2351 1.349 . S
C2336 C2334 1.327 . S
C2336 C2355 1.429 . S
C2336 H2360 0.950 . S
C2337 C2354 1.574 . S
C2337 C2356 1.368 . S
C2337 H2361 0.949 . S
H2338 C2342 0.949 . S
C2339 C2340 1.349 . S
C2339 C2341 1.327 . S
C2339 H2362 0.950 . S
C2340 C2339 1.349 . S
C2340 C2352 1.349 . S
C2341 C2339 1.327 . S
C2341 C2357 1.429 . S
C2341 H2363 0.950 . S
C2342 H2338 0.949 . S
C2342 C2350 1.574 . S
C2342 C2358 1.368 . S
H2343 C2351 0.950 . S
H2344 C2349 0.950 . S
H2345 C2350 0.949 . S
H2346 C2352 0.950 . S
H2347 C2353 0.950 . S
H2348 C2354 0.949 . S
C2349 H2344 0.950 . S
C2349 C2351 1.327 . S
C2349 C2355 1.429 . S
C2350 C2342 1.574 . S
C2350 H2345 0.949 . S
C2350 C2356 1.368 . S
C2351 C2335 1.349 . S
C2351 H2343 0.950 . S
C2351 C2349 1.327 . S
C2352 C2340 1.349 . S
C2352 H2346 0.950 . S
C2352 C2353 1.327 . S
C2353 H2347 0.950 . S
C2353 C2352 1.327 . S
C2353 C2357 1.429 . S
C2354 C2337 1.574 . S
C2354 H2348 0.949 . S
C2354 C2358 1.368 . S
C2355 C2336 1.429 . S
C2355 C2349 1.429 . S
C2355 C2356 1.523 . S
C2356 C2337 1.368 . S
C2356 C2350 1.368 . S
C2356 C2355 1.523 . S
C2357 C2341 1.429 . S
C2357 C2353 1.429 . S
C2357 C2358 1.523 . S
C2358 C2342 1.368 . S
C2358 C2354 1.368 . S
C2358 C2357 1.523 . S
H2359 C2334 0.950 . S
H2360 C2336 0.950 . S
H2361 C2337 0.949 . S
H2362 C2339 0.950 . S
H2363 C2341 0.950 . S
C2364 C2365 1.349 . S
C2364 C2366 1.327 . S
C2364 H2389 0.950 . S
C2365 C2364 1.349 . S
C2365 C2381 1.349 . S
C2366 C2364 1.327 . S
C2366 C2385 1.429 . S
C2366 H2390 0.950 . S
C2367 C2384 1.574 . S
C2367 C2386 1.368 . S
C2367 H2391 0.949 . S
H2368 C2372 0.949 . S
C2369 C2370 1.349 . S
C2369 C2371 1.327 . S
C2369 H2392 0.950 . S
C2370 C2369 1.349 . S
C2370 C2382 1.349 . S
C2371 C2369 1.327 . S
C2371 C2387 1.429 . S
C2371 H2393 0.950 . S
C2372 H2368 0.949 . S
C2372 C2380 1.574 . S
C2372 C2388 1.368 . S
H2373 C2381 0.950 . S
H2374 C2379 0.950 . S
H2375 C2380 0.949 . S
H2376 C2382 0.950 . S
H2377 C2383 0.950 . S
H2378 C2384 0.949 . S
C2379 H2374 0.950 . S
C2379 C2381 1.327 . S
C2379 C2385 1.429 . S
C2380 C2372 1.574 . S
C2380 H2375 0.949 . S
C2380 C2386 1.368 . S
C2381 C2365 1.349 . S
C2381 H2373 0.950 . S
C2381 C2379 1.327 . S
C2382 C2370 1.349 . S
C2382 H2376 0.950 . S
C2382 C2383 1.327 . S
C2383 H2377 0.950 . S
C2383 C2382 1.327 . S
C2383 C2387 1.429 . S
C2384 C2367 1.574 . S
C2384 H2378 0.949 . S
C2384 C2388 1.368 . S
C2385 C2366 1.429 . S
C2385 C2379 1.429 . S
C2385 C2386 1.523 . S
C2386 C2367 1.368 . S
C2386 C2380 1.368 . S
C2386 C2385 1.523 . S
C2387 C2371 1.429 . S
C2387 C2383 1.429 . S
C2387 C2388 1.523 . S
C2388 C2372 1.368 . S
C2388 C2384 1.368 . S
C2388 C2387 1.523 . S
H2389 C2364 0.950 . S
H2390 C2366 0.950 . S
H2391 C2367 0.949 . S
H2392 C2369 0.950 . S
H2393 C2371 0.950 . S
C2394 C2395 1.349 . S
C2394 C2396 1.327 . S
C2394 H2419 0.950 . S
C2395 C2394 1.349 . S
C2395 C2411 1.349 . S
C2396 C2394 1.327 . S
C2396 C2415 1.429 . S
C2396 H2420 0.950 . S
C2397 C2414 1.574 . S
C2397 C2416 1.368 1_554 S
C2397 H2421 0.949 . S
H2398 C2402 0.958 . S
C2399 C2400 1.349 . S
C2399 C2401 1.327 . S
C2399 H2422 0.950 . S
C2400 C2399 1.349 . S
C2400 C2412 1.349 . S
C2401 C2399 1.327 . S
C2401 C2417 1.429 . S
C2401 H2423 0.950 . S
C2402 H2398 0.958 . S
C2402 C2410 1.619 . S
C2402 C2418 1.317 1_556 S
H2403 C2411 0.950 . S
H2404 C2409 0.950 1_554 S
H2405 C2410 0.949 . S
H2406 C2412 0.950 . S
H2407 C2413 0.950 . S
H2408 C2414 0.949 . S
C2409 H2404 0.950 1_556 S
C2409 C2411 1.327 . S
C2409 C2415 1.429 . S
C2410 C2402 1.619 . S
C2410 H2405 0.949 . S
C2410 C2416 1.368 . S
C2411 C2395 1.349 . S
C2411 H2403 0.950 . S
C2411 C2409 1.327 . S
C2412 C2400 1.349 . S
C2412 H2406 0.950 . S
C2412 C2413 1.327 . S
C2413 H2407 0.950 . S
C2413 C2412 1.327 . S
C2413 C2417 1.429 . S
C2414 C2397 1.574 . S
C2414 H2408 0.949 . S
C2414 C2418 1.368 . S
C2415 C2396 1.429 . S
C2415 C2409 1.429 . S
C2415 C2416 1.523 . S
C2416 C2397 1.368 1_556 S
C2416 C2410 1.368 . S
C2416 C2415 1.523 . S
C2417 C2401 1.429 . S
C2417 C2413 1.429 . S
C2417 C2418 1.523 . S
C2418 C2402 1.317 1_554 S
C2418 C2414 1.368 . S
C2418 C2417 1.523 . S
H2419 C2394 0.950 . S
H2420 C2396 0.950 . S
H2421 C2397 0.949 . S
H2422 C2399 0.950 . S
H2423 C2401 0.950 . S
C2424 C2425 1.349 . S
C2424 C2426 1.327 . S
C2424 H2449 0.950 . S
C2425 C2424 1.349 . S
C2425 C2441 1.349 . S
C2426 C2424 1.327 . S
C2426 C2445 1.429 . S
C2426 H2450 0.950 . S
C2427 C2444 1.574 . S
C2427 C2446 1.368 . S
C2427 H2451 0.949 . S
H2428 C2432 0.949 . S
C2429 C2430 1.349 . S
C2429 C2431 1.327 . S
C2429 H2452 0.950 . S
C2430 C2429 1.349 . S
C2430 C2442 1.349 . S
C2431 C2429 1.327 . S
C2431 C2447 1.429 . S
C2431 H2453 0.950 . S
C2432 H2428 0.949 . S
C2432 C2440 1.574 . S
C2432 C2448 1.368 . S
H2433 C2441 0.950 . S
H2434 C2439 0.950 . S
H2435 C2440 0.949 . S
H2436 C2442 0.950 . S
H2437 C2443 0.950 . S
H2438 C2444 0.949 . S
C2439 H2434 0.950 . S
C2439 C2441 1.327 . S
C2439 C2445 1.429 . S
C2440 C2432 1.574 . S
C2440 H2435 0.949 . S
C2440 C2446 1.368 . S
C2441 C2425 1.349 . S
C2441 H2433 0.950 . S
C2441 C2439 1.327 . S
C2442 C2430 1.349 . S
C2442 H2436 0.950 . S
C2442 C2443 1.327 . S
C2443 H2437 0.950 . S
C2443 C2442 1.327 . S
C2443 C2447 1.429 . S
C2444 C2427 1.574 . S
C2444 H2438 0.949 . S
C2444 C2448 1.368 . S
C2445 C2426 1.429 . S
C2445 C2439 1.429 . S
C2445 C2446 1.523 . S
C2446 C2427 1.368 . S
C2446 C2440 1.368 . S
C2446 C2445 1.523 . S
C2447 C2431 1.429 . S
C2447 C2443 1.429 . S
C2447 C2448 1.523 . S
C2448 C2432 1.368 . S
C2448 C2444 1.368 . S
C2448 C2447 1.523 . S
H2449 C2424 0.950 . S
H2450 C2426 0.950 . S
H2451 C2427 0.949 . S
H2452 C2429 0.950 . S
H2453 C2431 0.950 . S
C2454 C2455 1.349 . S
C2454 C2456 1.327 . S
C2454 H2479 0.950 . S
C2455 C2454 1.349 . S
C2455 C2471 1.349 . S
C2456 C2454 1.327 . S
C2456 C2475 1.429 . S
C2456 H2480 0.950 . S
C2457 C2474 1.574 . S
C2457 C2476 1.368 . S
C2457 H2481 0.949 . S
H2458 C2462 0.949 . S
C2459 C2460 1.349 . S
C2459 C2461 1.327 . S
C2459 H2482 0.950 . S
C2460 C2459 1.349 . S
C2460 C2472 1.349 . S
C2461 C2459 1.327 . S
C2461 C2477 1.429 . S
C2461 H2483 0.950 . S
C2462 H2458 0.949 . S
C2462 C2470 1.574 . S
C2462 C2478 1.368 . S
H2463 C2471 0.950 . S
H2464 C2469 0.950 . S
H2465 C2470 0.949 . S
H2466 C2472 0.950 . S
H2467 C2473 0.950 . S
H2468 C2474 0.949 . S
C2469 H2464 0.950 . S
C2469 C2471 1.327 . S
C2469 C2475 1.429 . S
C2470 C2462 1.574 . S
C2470 H2465 0.949 . S
C2470 C2476 1.368 . S
C2471 C2455 1.349 . S
C2471 H2463 0.950 . S
C2471 C2469 1.327 . S
C2472 C2460 1.349 . S
C2472 H2466 0.950 . S
C2472 C2473 1.327 . S
C2473 H2467 0.950 . S
C2473 C2472 1.327 . S
C2473 C2477 1.429 . S
C2474 C2457 1.574 . S
C2474 H2468 0.949 . S
C2474 C2478 1.368 . S
C2475 C2456 1.429 . S
C2475 C2469 1.429 . S
C2475 C2476 1.523 . S
C2476 C2457 1.368 . S
C2476 C2470 1.368 . S
C2476 C2475 1.523 . S
C2477 C2461 1.429 . S
C2477 C2473 1.429 . S
C2477 C2478 1.523 . S
C2478 C2462 1.368 . S
C2478 C2474 1.368 . S
C2478 C2477 1.523 . S
H2479 C2454 0.950 . S
H2480 C2456 0.950 . S
H2481 C2457 0.949 . S
H2482 C2459 0.950 . S
H2483 C2461 0.950 . S
C2484 C2485 1.349 . S
C2484 C2486 1.327 . S
C2484 H2509 0.950 . S
C2485 C2484 1.349 . S
C2485 C2501 1.349 . S
C2486 C2484 1.327 . S
C2486 C2505 1.429 . S
C2486 H2510 0.950 . S
C2487 C2504 1.574 . S
C2487 C2506 1.368 . S
C2487 H2511 0.949 . S
H2488 C2492 0.949 . S
C2489 C2490 1.349 . S
C2489 C2491 1.327 . S
C2489 H2512 0.950 . S
C2490 C2489 1.349 . S
C2490 C2502 1.349 . S
C2491 C2489 1.327 . S
C2491 C2507 1.429 . S
C2491 H2513 0.950 . S
C2492 H2488 0.949 . S
C2492 C2500 1.574 . S
C2492 C2508 1.368 . S
H2493 C2501 0.950 . S
H2494 C2499 0.950 . S
H2495 C2500 0.949 . S
H2496 C2502 0.950 . S
H2497 C2503 0.950 . S
H2498 C2504 0.949 . S
C2499 H2494 0.950 . S
C2499 C2501 1.327 . S
C2499 C2505 1.429 . S
C2500 C2492 1.574 . S
C2500 H2495 0.949 . S
C2500 C2506 1.368 . S
C2501 C2485 1.349 . S
C2501 H2493 0.950 . S
C2501 C2499 1.327 . S
C2502 C2490 1.349 . S
C2502 H2496 0.950 . S
C2502 C2503 1.327 . S
C2503 H2497 0.950 . S
C2503 C2502 1.327 . S
C2503 C2507 1.429 . S
C2504 C2487 1.574 . S
C2504 H2498 0.949 . S
C2504 C2508 1.368 . S
C2505 C2486 1.429 . S
C2505 C2499 1.429 . S
C2505 C2506 1.523 . S
C2506 C2487 1.368 . S
C2506 C2500 1.368 . S
C2506 C2505 1.523 . S
C2507 C2491 1.429 . S
C2507 C2503 1.429 . S
C2507 C2508 1.523 . S
C2508 C2492 1.368 . S
C2508 C2504 1.368 . S
C2508 C2507 1.523 . S
H2509 C2484 0.950 . S
H2510 C2486 0.950 . S
H2511 C2487 0.949 . S
H2512 C2489 0.950 . S
H2513 C2491 0.950 . S
C2514 C2515 1.349 . S
C2514 C2516 1.327 . S
C2514 H2539 0.950 . S
C2515 C2514 1.349 . S
C2515 C2531 1.349 . S
C2516 C2514 1.327 . S
C2516 C2535 1.429 . S
C2516 H2540 0.950 1_554 S
C2517 C2534 1.633 . S
C2517 C2536 1.368 . S
C2517 H2541 0.949 . S
H2518 C2522 0.949 . S
C2519 C2520 1.349 . S
C2519 C2521 1.327 . S
C2519 H2542 0.950 . S
C2520 C2519 1.349 . S
C2520 C2532 1.349 . S
C2521 C2519 1.327 . S
C2521 C2537 1.429 . S
C2521 H2543 0.950 . S
C2522 H2518 0.949 . S
C2522 C2530 1.574 . S
C2522 C2538 1.368 . S
H2523 C2531 0.950 . S
H2524 C2529 0.950 . S
H2525 C2530 0.949 . S
H2526 C2532 0.950 . S
H2527 C2533 0.950 . S
H2528 C2534 0.960 . S
C2529 H2524 0.950 . S
C2529 C2531 1.327 . S
C2529 C2535 1.429 . S
C2530 C2522 1.574 . S
C2530 H2525 0.949 . S
C2530 C2536 1.368 1_556 S
C2531 C2515 1.349 . S
C2531 H2523 0.950 . S
C2531 C2529 1.327 . S
C2532 C2520 1.349 . S
C2532 H2526 0.950 . S
C2532 C2533 1.327 . S
C2533 H2527 0.950 . S
C2533 C2532 1.327 . S
C2533 C2537 1.429 . S
C2534 C2517 1.633 . S
C2534 H2528 0.960 . S
C2534 C2538 1.305 1_554 S
C2535 C2516 1.429 . S
C2535 C2529 1.429 . S
C2535 C2536 1.523 . S
C2536 C2517 1.368 . S
C2536 C2530 1.368 1_554 S
C2536 C2535 1.523 . S
C2537 C2521 1.429 . S
C2537 C2533 1.429 . S
C2537 C2538 1.523 . S
C2538 C2522 1.368 . S
C2538 C2534 1.305 1_556 S
C2538 C2537 1.523 . S
H2539 C2514 0.950 . S
H2540 C2516 0.950 1_556 S
H2541 C2517 0.949 . S
H2542 C2519 0.950 . S
H2543 C2521 0.950 . S
C2544 C2545 1.349 . S
C2544 C2546 1.327 . S
C2544 H2569 0.950 . S
C2545 C2544 1.349 . S
C2545 C2561 1.349 . S
C2546 C2544 1.327 . S
C2546 C2565 1.429 . S
C2546 H2570 0.950 . S
C2547 C2564 1.574 . S
C2547 C2566 1.368 . S
C2547 H2571 0.949 . S
H2548 C2552 0.949 . S
C2549 C2550 1.349 . S
C2549 C2551 1.327 . S
C2549 H2572 0.950 . S
C2550 C2549 1.349 . S
C2550 C2562 1.349 . S
C2551 C2549 1.327 . S
C2551 C2567 1.429 . S
C2551 H2573 0.950 . S
C2552 H2548 0.949 . S
C2552 C2560 1.574 . S
C2552 C2568 1.368 . S
H2553 C2561 0.950 . S
H2554 C2559 0.950 . S
H2555 C2560 0.949 . S
H2556 C2562 0.950 . S
H2557 C2563 0.950 . S
H2558 C2564 0.949 . S
C2559 H2554 0.950 . S
C2559 C2561 1.327 . S
C2559 C2565 1.429 . S
C2560 C2552 1.574 . S
C2560 H2555 0.949 . S
C2560 C2566 1.368 . S
C2561 C2545 1.349 . S
C2561 H2553 0.950 . S
C2561 C2559 1.327 . S
C2562 C2550 1.349 . S
C2562 H2556 0.950 . S
C2562 C2563 1.327 . S
C2563 H2557 0.950 . S
C2563 C2562 1.327 . S
C2563 C2567 1.429 . S
C2564 C2547 1.574 . S
C2564 H2558 0.949 . S
C2564 C2568 1.368 . S
C2565 C2546 1.429 . S
C2565 C2559 1.429 . S
C2565 C2566 1.523 . S
C2566 C2547 1.368 . S
C2566 C2560 1.368 . S
C2566 C2565 1.523 . S
C2567 C2551 1.429 . S
C2567 C2563 1.429 . S
C2567 C2568 1.523 . S
C2568 C2552 1.368 . S
C2568 C2564 1.368 . S
C2568 C2567 1.523 . S
H2569 C2544 0.950 . S
H2570 C2546 0.950 . S
H2571 C2547 0.949 . S
H2572 C2549 0.950 . S
H2573 C2551 0.950 . S
C2574 C2575 1.349 . S
C2574 C2576 1.327 . S
C2574 H2599 0.950 . S
C2575 C2574 1.349 . S
C2575 C2591 1.349 . S
C2576 C2574 1.327 . S
C2576 C2595 1.429 . S
C2576 H2600 0.950 . S
C2577 C2594 1.574 . S
C2577 C2596 1.368 . S
C2577 H2601 0.949 . S
H2578 C2582 0.949 . S
C2579 C2580 1.349 . S
C2579 C2581 1.327 . S
C2579 H2602 0.950 . S
C2580 C2579 1.349 . S
C2580 C2592 1.349 . S
C2581 C2579 1.327 . S
C2581 C2597 1.429 . S
C2581 H2603 0.950 . S
C2582 H2578 0.949 . S
C2582 C2590 1.574 . S
C2582 C2598 1.368 . S
H2583 C2591 0.950 . S
H2584 C2589 0.950 . S
H2585 C2590 0.949 . S
H2586 C2592 0.950 . S
H2587 C2593 0.950 . S
H2588 C2594 0.949 . S
C2589 H2584 0.950 . S
C2589 C2591 1.327 . S
C2589 C2595 1.429 . S
C2590 C2582 1.574 . S
C2590 H2585 0.949 . S
C2590 C2596 1.368 1_554 S
C2591 C2575 1.349 . S
C2591 H2583 0.950 . S
C2591 C2589 1.327 . S
C2592 C2580 1.349 . S
C2592 H2586 0.950 . S
C2592 C2593 1.327 . S
C2593 H2587 0.950 . S
C2593 C2592 1.327 . S
C2593 C2597 1.429 . S
C2594 C2577 1.574 . S
C2594 H2588 0.949 . S
C2594 C2598 1.368 1_556 S
C2595 C2576 1.429 . S
C2595 C2589 1.429 . S
C2595 C2596 1.523 . S
C2596 C2577 1.368 . S
C2596 C2590 1.368 1_556 S
C2596 C2595 1.523 . S
C2597 C2581 1.429 . S
C2597 C2593 1.429 . S
C2597 C2598 1.523 . S
C2598 C2582 1.368 . S
C2598 C2594 1.368 1_554 S
C2598 C2597 1.523 . S
H2599 C2574 0.950 . S
H2600 C2576 0.950 . S
H2601 C2577 0.949 . S
H2602 C2579 0.950 . S
H2603 C2581 0.950 . S
C2604 C2605 1.349 . S
C2604 C2606 1.327 . S
C2604 H2629 0.950 . S
C2605 C2604 1.349 . S
C2605 C2621 1.349 . S
C2606 C2604 1.327 . S
C2606 C2625 1.429 . S
C2606 H2630 0.950 . S
C2607 C2624 1.574 . S
C2607 C2626 1.368 . S
C2607 H2631 0.949 . S
H2608 C2612 0.949 . S
C2609 C2610 1.349 . S
C2609 C2611 1.327 . S
C2609 H2632 0.950 . S
C2610 C2609 1.349 . S
C2610 C2622 1.349 . S
C2611 C2609 1.327 . S
C2611 C2627 1.429 . S
C2611 H2633 0.950 . S
C2612 H2608 0.949 . S
C2612 C2620 1.574 . S
C2612 C2628 1.368 . S
H2613 C2621 0.950 . S
H2614 C2619 0.950 . S
H2615 C2620 0.949 . S
H2616 C2622 0.950 . S
H2617 C2623 0.950 . S
H2618 C2624 0.949 . S
C2619 H2614 0.950 . S
C2619 C2621 1.327 . S
C2619 C2625 1.429 . S
C2620 C2612 1.574 . S
C2620 H2615 0.949 . S
C2620 C2626 1.368 . S
C2621 C2605 1.349 . S
C2621 H2613 0.950 . S
C2621 C2619 1.327 . S
C2622 C2610 1.349 . S
C2622 H2616 0.950 . S
C2622 C2623 1.327 . S
C2623 H2617 0.950 . S
C2623 C2622 1.327 . S
C2623 C2627 1.429 . S
C2624 C2607 1.574 . S
C2624 H2618 0.949 . S
C2624 C2628 1.368 . S
C2625 C2606 1.429 . S
C2625 C2619 1.429 . S
C2625 C2626 1.523 . S
C2626 C2607 1.368 . S
C2626 C2620 1.368 . S
C2626 C2625 1.523 . S
C2627 C2611 1.429 . S
C2627 C2623 1.429 . S
C2627 C2628 1.523 . S
C2628 C2612 1.368 . S
C2628 C2624 1.368 . S
C2628 C2627 1.523 . S
H2629 C2604 0.950 . S
H2630 C2606 0.950 . S
H2631 C2607 0.949 . S
H2632 C2609 0.950 . S
H2633 C2611 0.950 . S
C2634 C2635 1.349 . S
C2634 C2636 1.327 . S
C2634 H2659 0.950 . S
C2635 C2634 1.349 . S
C2635 C2651 1.349 . S
C2636 C2634 1.327 . S
C2636 C2655 1.429 . S
C2636 H2660 0.950 . S
C2637 C2654 1.574 . S
C2637 C2656 1.368 . S
C2637 H2661 0.949 . S
H2638 C2642 0.949 . S
C2639 C2640 1.349 . S
C2639 C2641 1.327 . S
C2639 H2662 0.950 . S
C2640 C2639 1.349 . S
C2640 C2652 1.349 . S
C2641 C2639 1.327 . S
C2641 C2657 1.429 . S
C2641 H2663 0.950 . S
C2642 H2638 0.949 . S
C2642 C2650 1.574 . S
C2642 C2658 1.368 . S
H2643 C2651 0.950 . S
H2644 C2649 0.950 . S
H2645 C2650 0.949 . S
H2646 C2652 0.950 . S
H2647 C2653 0.950 . S
H2648 C2654 0.949 . S
C2649 H2644 0.950 . S
C2649 C2651 1.327 . S
C2649 C2655 1.429 . S
C2650 C2642 1.574 . S
C2650 H2645 0.949 . S
C2650 C2656 1.368 . S
C2651 C2635 1.349 . S
C2651 H2643 0.950 . S
C2651 C2649 1.327 . S
C2652 C2640 1.349 . S
C2652 H2646 0.950 . S
C2652 C2653 1.327 . S
C2653 H2647 0.950 . S
C2653 C2652 1.327 . S
C2653 C2657 1.429 . S
C2654 C2637 1.574 . S
C2654 H2648 0.949 . S
C2654 C2658 1.368 . S
C2655 C2636 1.429 . S
C2655 C2649 1.429 . S
C2655 C2656 1.523 . S
C2656 C2637 1.368 . S
C2656 C2650 1.368 . S
C2656 C2655 1.523 . S
C2657 C2641 1.429 . S
C2657 C2653 1.429 . S
C2657 C2658 1.523 . S
C2658 C2642 1.368 . S
C2658 C2654 1.368 . S
C2658 C2657 1.523 . S
H2659 C2634 0.950 . S
H2660 C2636 0.950 . S
H2661 C2637 0.949 . S
H2662 C2639 0.950 . S
H2663 C2641 0.950 . S
C2664 C2665 1.349 . S
C2664 C2666 1.327 . S
C2664 H2689 0.950 . S
C2665 C2664 1.349 . S
C2665 C2681 1.349 . S
C2666 C2664 1.327 . S
C2666 C2685 1.429 . S
C2666 H2690 0.950 . S
C2667 C2684 1.574 . S
C2667 C2686 1.368 . S
C2667 H2691 0.949 . S
H2668 C2672 0.949 . S
C2669 C2670 1.349 . S
C2669 C2671 1.327 . S
C2669 H2692 0.950 . S
C2670 C2669 1.349 . S
C2670 C2682 1.349 . S
C2671 C2669 1.327 . S
C2671 C2687 1.429 . S
C2671 H2693 0.950 . S
C2672 H2668 0.949 . S
C2672 C2680 1.574 . S
C2672 C2688 1.368 . S
H2673 C2681 0.950 . S
H2674 C2679 0.950 . S
H2675 C2680 0.949 . S
H2676 C2682 0.950 . S
H2677 C2683 0.950 . S
H2678 C2684 0.949 . S
C2679 H2674 0.950 . S
C2679 C2681 1.327 . S
C2679 C2685 1.429 . S
C2680 C2672 1.574 . S
C2680 H2675 0.949 . S
C2680 C2686 1.368 . S
C2681 C2665 1.349 . S
C2681 H2673 0.950 . S
C2681 C2679 1.327 . S
C2682 C2670 1.349 . S
C2682 H2676 0.950 . S
C2682 C2683 1.327 . S
C2683 H2677 0.950 . S
C2683 C2682 1.327 . S
C2683 C2687 1.429 . S
C2684 C2667 1.574 . S
C2684 H2678 0.949 . S
C2684 C2688 1.368 . S
C2685 C2666 1.429 . S
C2685 C2679 1.429 . S
C2685 C2686 1.523 . S
C2686 C2667 1.368 . S
C2686 C2680 1.368 . S
C2686 C2685 1.523 . S
C2687 C2671 1.429 . S
C2687 C2683 1.429 . S
C2687 C2688 1.523 . S
C2688 C2672 1.368 . S
C2688 C2684 1.368 . S
C2688 C2687 1.523 . S
H2689 C2664 0.950 . S
H2690 C2666 0.950 . S
H2691 C2667 0.949 . S
H2692 C2669 0.950 . S
H2693 C2671 0.950 . S
C2694 C2695 1.349 . S
C2694 C2696 1.327 . S
C2694 H2719 0.950 . S
C2695 C2694 1.349 . S
C2695 C2711 1.349 . S
C2696 C2694 1.327 . S
C2696 C2715 1.429 . S
C2696 H2720 0.950 . S
C2697 C2714 1.574 1_554 S
C2697 C2716 1.368 . S
C2697 H2721 0.949 . S
H2698 C2702 0.961 . S
C2699 C2700 1.349 . S
C2699 C2701 1.327 . S
C2699 H2722 0.950 . S
C2700 C2699 1.349 . S
C2700 C2712 1.349 . S
C2701 C2699 1.327 . S
C2701 C2717 1.429 . S
C2701 H2723 0.950 . S
C2702 H2698 0.961 . S
C2702 C2710 1.571 1_556 S
C2702 C2718 1.371 . S
H2703 C2711 0.950 . S
H2704 C2709 0.950 . S
H2705 C2710 0.949 . S
H2706 C2712 0.950 . S
H2707 C2713 0.950 . S
H2708 C2714 0.949 . S
C2709 H2704 0.950 . S
C2709 C2711 1.327 . S
C2709 C2715 1.429 . S
C2710 C2702 1.571 1_554 S
C2710 H2705 0.949 . S
C2710 C2716 1.368 . S
C2711 C2695 1.349 . S
C2711 H2703 0.950 . S
C2711 C2709 1.327 . S
C2712 C2700 1.349 . S
C2712 H2706 0.950 . S
C2712 C2713 1.327 . S
C2713 H2707 0.950 . S
C2713 C2712 1.327 . S
C2713 C2717 1.429 . S
C2714 C2697 1.574 1_556 S
C2714 H2708 0.949 . S
C2714 C2718 1.368 . S
C2715 C2696 1.429 . S
C2715 C2709 1.429 . S
C2715 C2716 1.523 . S
C2716 C2697 1.368 . S
C2716 C2710 1.368 . S
C2716 C2715 1.523 . S
C2717 C2701 1.429 . S
C2717 C2713 1.429 . S
C2717 C2718 1.523 . S
C2718 C2702 1.371 . S
C2718 C2714 1.368 . S
C2718 C2717 1.523 . S
H2719 C2694 0.950 . S
H2720 C2696 0.950 . S
H2721 C2697 0.949 . S
H2722 C2699 0.950 . S
H2723 C2701 0.950 . S
C2724 C2725 1.349 . S
C2724 C2726 1.327 . S
C2724 H2749 0.950 . S
C2725 C2724 1.349 . S
C2725 C2741 1.349 . S
C2726 C2724 1.327 . S
C2726 C2745 1.429 . S
C2726 H2750 0.950 . S
C2727 C2744 1.574 . S
C2727 C2746 1.368 . S
C2727 H2751 0.949 . S
H2728 C2732 0.949 . S
C2729 C2730 1.349 . S
C2729 C2731 1.327 . S
C2729 H2752 0.950 . S
C2730 C2729 1.349 . S
C2730 C2742 1.349 . S
C2731 C2729 1.327 . S
C2731 C2747 1.429 . S
C2731 H2753 0.950 . S
C2732 H2728 0.949 . S
C2732 C2740 1.574 . S
C2732 C2748 1.368 . S
H2733 C2741 0.950 . S
H2734 C2739 0.950 . S
H2735 C2740 0.949 . S
H2736 C2742 0.950 . S
H2737 C2743 0.950 . S
H2738 C2744 0.949 . S
C2739 H2734 0.950 . S
C2739 C2741 1.327 . S
C2739 C2745 1.429 . S
C2740 C2732 1.574 . S
C2740 H2735 0.949 . S
C2740 C2746 1.368 . S
C2741 C2725 1.349 . S
C2741 H2733 0.950 . S
C2741 C2739 1.327 . S
C2742 C2730 1.349 . S
C2742 H2736 0.950 . S
C2742 C2743 1.327 . S
C2743 H2737 0.950 . S
C2743 C2742 1.327 . S
C2743 C2747 1.429 . S
C2744 C2727 1.574 . S
C2744 H2738 0.949 . S
C2744 C2748 1.368 . S
C2745 C2726 1.429 . S
C2745 C2739 1.429 . S
C2745 C2746 1.523 . S
C2746 C2727 1.368 . S
C2746 C2740 1.368 . S
C2746 C2745 1.523 . S
C2747 C2731 1.429 . S
C2747 C2743 1.429 . S
C2747 C2748 1.523 . S
C2748 C2732 1.368 . S
C2748 C2744 1.368 . S
C2748 C2747 1.523 . S
H2749 C2724 0.950 . S
H2750 C2726 0.950 . S
H2751 C2727 0.949 . S
H2752 C2729 0.950 . S
H2753 C2731 0.950 . S
C2754 C2755 1.349 . S
C2754 C2756 1.327 . S
C2754 H2779 0.950 . S
C2755 C2754 1.349 . S
C2755 C2771 1.349 . S
C2756 C2754 1.327 . S
C2756 C2775 1.429 . S
C2756 H2780 0.950 . S
C2757 C2774 1.574 . S
C2757 C2776 1.368 . S
C2757 H2781 0.949 . S
H2758 C2762 0.949 . S
C2759 C2760 1.349 . S
C2759 C2761 1.327 . S
C2759 H2782 0.950 . S
C2760 C2759 1.349 . S
C2760 C2772 1.349 . S
C2761 C2759 1.327 . S
C2761 C2777 1.429 . S
C2761 H2783 0.950 . S
C2762 H2758 0.949 . S
C2762 C2770 1.574 . S
C2762 C2778 1.368 . S
H2763 C2771 0.950 . S
H2764 C2769 0.950 . S
H2765 C2770 0.949 . S
H2766 C2772 0.950 . S
H2767 C2773 0.950 . S
H2768 C2774 0.949 . S
C2769 H2764 0.950 . S
C2769 C2771 1.327 . S
C2769 C2775 1.429 . S
C2770 C2762 1.574 . S
C2770 H2765 0.949 . S
C2770 C2776 1.368 . S
C2771 C2755 1.349 . S
C2771 H2763 0.950 . S
C2771 C2769 1.327 . S
C2772 C2760 1.349 . S
C2772 H2766 0.950 . S
C2772 C2773 1.327 . S
C2773 H2767 0.950 . S
C2773 C2772 1.327 . S
C2773 C2777 1.429 . S
C2774 C2757 1.574 . S
C2774 H2768 0.949 . S
C2774 C2778 1.368 . S
C2775 C2756 1.429 . S
C2775 C2769 1.429 . S
C2775 C2776 1.523 . S
C2776 C2757 1.368 . S
C2776 C2770 1.368 . S
C2776 C2775 1.523 . S
C2777 C2761 1.429 . S
C2777 C2773 1.429 . S
C2777 C2778 1.523 . S
C2778 C2762 1.368 . S
C2778 C2774 1.368 . S
C2778 C2777 1.523 . S
H2779 C2754 0.950 . S
H2780 C2756 0.950 . S
H2781 C2757 0.949 . S
H2782 C2759 0.950 . S
H2783 C2761 0.950 . S
C1345 C56 3.770 . S
C1350 C1155 3.721 1_565 S
C1375 C158 3.756 . S
C1380 C987 3.629 . S
C1405 C1064 3.770 . S
C1410 C231 3.721 . S
C1435 C315 3.629 . S
C1440 C914 3.756 . S
C1465 C403 3.770 . S
C1470 C1334 3.721 . S
C1495 C830 3.629 . S
C1500 C483 3.756 . S
C1525 C578 3.721 . S
C1530 C1243 3.770 . S
C1555 C662 3.629 . S
C1560 C735 3.756 . S
C1585 C1166 1.214 . S
C1590 C67 1.237 . S
C1615 C998 1.257 . S
C1620 C147 1.255 . S
C1645 C1075 1.243 . S
C1650 C242 1.214 . S
C1675 C903 1.255 . S
C1680 C326 1.257 . S
C1705 C392 1.236 . S
C1710 C1323 1.214 . S
C1735 C819 1.257 . S
C1740 C494 1.255 . S
C1765 C1232 1.236 . S
C1770 C567 1.214 . S
C1795 C746 1.255 . S
C1800 C651 1.257 . S
C1825 C825 0.583 . S
C1830 C63 0.569 . S
C1855 C1234 1.348 . S
C1860 C153 1.001 . S
C1885 C728 0.799 . S
C1890 C224 0.803 . S
C1915 C1329 0.574 . S
C1920 C308 0.295 . S
C1945 C909 1.001 . S
C1950 C394 1.348 . S
C1975 C476 0.799 . S
C1980 C1148 0.804 . S
C2005 C980 0.295 . S
C2010 C573 0.574 . S
C2035 C1071 0.569 . S
C2040 C657 0.583 . S
C2065 C310 0.583 . S
C2070 C410 0.569 . S
C2095 C1077 1.348 . S
C2100 C730 1.001 . S
C2125 C151 0.799 . S
C2130 C571 0.803 . S
C2155 C823 0.295 . S
C2160 C1150 0.574 . S
C2185 C478 1.001 . S
C2190 C69 1.348 . S
C2215 C1327 0.804 . S
C2220 C907 0.799 . S
C2245 C655 0.295 . S
C2250 C226 0.574 . S
C2275 C1250 0.569 . S
C2280 C982 0.583 . S
C2305 C58 1.718 . S
C2310 C560 1.929 . S
C2335 C140 1.567 1_545 S
C2340 C644 1.602 . S
C2365 C399 1.861 . S
C2370 C237 1.537 . S
C2395 C321 1.729 . S
C2400 C489 1.829 . S
C2425 C235 1.929 . S
C2430 C405 1.718 . S
C2455 C739 1.567 . S
C2460 C991 1.603 . S
C2485 C562 1.537 . S
C2490 C74 1.861 . S
C2515 C814 1.730 1_545 S
C2520 C898 1.829 . S
C2545 C1316 1.929 . S
C2550 C1066 1.718 . S
C2575 C896 1.568 . S
C2580 C812 1.603 . S
C2605 C1239 1.861 . S
C2610 C1161 1.537 . S
C2635 C741 1.829 . S
C2640 C993 1.730 . S
C2665 C1159 1.929 . S
C2670 C1245 1.718 . S
C2695 C487 1.568 . S
C2700 C319 1.603 . S
C2725 C1318 1.537 . S
C2730 C1082 1.861 . S
C2755 C142 1.829 . S
C2760 C646 1.730 . S
