# Generated by pormake.
# Topology wkt, (7)-cn, num edge types: 1
# Building blocks:
#     Node 0, Type 0, BuildingBlock: NUHQUE_clean_sbu_2, # of connection points: 7
#     Node 1, Type 0, BuildingBlock: NUHQUE_clean_sbu_2, # of connection points: 7
#     Node 2, Type 0, BuildingBlock: NUHQUE_clean_sbu_2, # of connection points: 7
#     Node 3, Type 0, BuildingBlock: NUHQUE_clean_sbu_2, # of connection points: 7
#     Node 4, Type 0, BuildingBlock: NUHQUE_clean_sbu_2, # of connection points: 7
#     Node 5, Type 0, BuildingBlock: NUHQUE_clean_sbu_2, # of connection points: 7
#     Node 6, Type 0, BuildingBlock: NUHQUE_clean_sbu_2, # of connection points: 7
#     Node 7, Type 0, BuildingBlock: NUHQUE_clean_sbu_2, # of connection points: 7
#     Node 8, Type 0, BuildingBlock: NUHQUE_clean_sbu_2, # of connection points: 7
#     Node 9, Type 0, BuildingBlock: NUHQUE_clean_sbu_2, # of connection points: 7
#     Node 10, Type 0, BuildingBlock: NUHQUE_clean_sbu_2, # of connection points: 7
#     Node 11, Type 0, BuildingBlock: NUHQUE_clean_sbu_2, # of connection points: 7
#     Edge 12, Type (0, 0), BuildingBlock: ZUJKAS_clean_linker_0, # of connection points: 2
#     Edge 13, Type (0, 0), BuildingBlock: ZUJKAS_clean_linker_0, # of connection points: 2
#     Edge 14, Type (0, 0), BuildingBlock: ZUJKAS_clean_linker_0, # of connection points: 2
#     Edge 15, Type (0, 0), BuildingBlock: ZUJKAS_clean_linker_0, # of connection points: 2
#     Edge 16, Type (0, 0), BuildingBlock: ZUJKAS_clean_linker_0, # of connection points: 2
#     Edge 17, Type (0, 0), BuildingBlock: ZUJKAS_clean_linker_0, # of connection points: 2
#     Edge 18, Type (0, 0), BuildingBlock: ZUJKAS_clean_linker_0, # of connection points: 2
#     Edge 19, Type (0, 0), BuildingBlock: ZUJKAS_clean_linker_0, # of connection points: 2
#     Edge 20, Type (0, 0), BuildingBlock: ZUJKAS_clean_linker_0, # of connection points: 2
#     Edge 21, Type (0, 0), BuildingBlock: ZUJKAS_clean_linker_0, # of connection points: 2
#     Edge 22, Type (0, 0), BuildingBlock: ZUJKAS_clean_linker_0, # of connection points: 2
#     Edge 23, Type (0, 0), BuildingBlock: ZUJKAS_clean_linker_0, # of connection points: 2
#     Edge 24, Type (0, 0), BuildingBlock: ZUJKAS_clean_linker_0, # of connection points: 2
#     Edge 25, Type (0, 0), BuildingBlock: ZUJKAS_clean_linker_0, # of connection points: 2
#     Edge 26, Type (0, 0), BuildingBlock: ZUJKAS_clean_linker_0, # of connection points: 2
#     Edge 27, Type (0, 0), BuildingBlock: ZUJKAS_clean_linker_0, # of connection points: 2
#     Edge 28, Type (0, 0), BuildingBlock: ZUJKAS_clean_linker_0, # of connection points: 2
#     Edge 29, Type (0, 0), BuildingBlock: ZUJKAS_clean_linker_0, # of connection points: 2
#     Edge 30, Type (0, 0), BuildingBlock: ZUJKAS_clean_linker_0, # of connection points: 2
#     Edge 31, Type (0, 0), BuildingBlock: ZUJKAS_clean_linker_0, # of connection points: 2
#     Edge 32, Type (0, 0), BuildingBlock: ZUJKAS_clean_linker_0, # of connection points: 2
#     Edge 33, Type (0, 0), BuildingBlock: ZUJKAS_clean_linker_0, # of connection points: 2
#     Edge 34, Type (0, 0), BuildingBlock: ZUJKAS_clean_linker_0, # of connection points: 2
#     Edge 35, Type (0, 0), BuildingBlock: ZUJKAS_clean_linker_0, # of connection points: 2
#     Edge 36, Type (0, 0), BuildingBlock: ZUJKAS_clean_linker_0, # of connection points: 2
#     Edge 37, Type (0, 0), BuildingBlock: ZUJKAS_clean_linker_0, # of connection points: 2
#     Edge 38, Type (0, 0), BuildingBlock: ZUJKAS_clean_linker_0, # of connection points: 2
#     Edge 39, Type (0, 0), BuildingBlock: ZUJKAS_clean_linker_0, # of connection points: 2
#     Edge 40, Type (0, 0), BuildingBlock: ZUJKAS_clean_linker_0, # of connection points: 2
#     Edge 41, Type (0, 0), BuildingBlock: ZUJKAS_clean_linker_0, # of connection points: 2
#     Edge 42, Type (0, 0), BuildingBlock: ZUJKAS_clean_linker_0, # of connection points: 2
#     Edge 43, Type (0, 0), BuildingBlock: ZUJKAS_clean_linker_0, # of connection points: 2
#     Edge 44, Type (0, 0), BuildingBlock: ZUJKAS_clean_linker_0, # of connection points: 2
#     Edge 45, Type (0, 0), BuildingBlock: ZUJKAS_clean_linker_0, # of connection points: 2
#     Edge 46, Type (0, 0), BuildingBlock: ZUJKAS_clean_linker_0, # of connection points: 2
#     Edge 47, Type (0, 0), BuildingBlock: ZUJKAS_clean_linker_0, # of connection points: 2
#     Edge 48, Type (0, 0), BuildingBlock: ZUJKAS_clean_linker_0, # of connection points: 2
#     Edge 49, Type (0, 0), BuildingBlock: ZUJKAS_clean_linker_0, # of connection points: 2
#     Edge 50, Type (0, 0), BuildingBlock: ZUJKAS_clean_linker_0, # of connection points: 2
#     Edge 51, Type (0, 0), BuildingBlock: ZUJKAS_clean_linker_0, # of connection points: 2
#     Edge 52, Type (0, 0), BuildingBlock: ZUJKAS_clean_linker_0, # of connection points: 2
#     Edge 53, Type (0, 0), BuildingBlock: ZUJKAS_clean_linker_0, # of connection points: 2
# Relax obj value: 0.239
# Max RMSD: 0.272
# Mean RMSD: 0.272
data_MOF--net-wkt--node1-NUHQUE_clean_sbu_2--edge1-ZUJKAS_clean_linker_0
_symmetry_space_group_name_H-M    P1
_symmetry_Int_Tables_number       1
_symmetry_cell_setting            triclinic
loop_
_symmetry_equiv_pos_as_xyz
'x, y, z'
_cell_length_a     39.729999
_cell_length_b     39.740218
_cell_length_c     88.35864
_cell_angle_alpha  89.970081
_cell_angle_beta   90.123585
_cell_angle_gamma 120.06604
loop_
_atom_site_label
_atom_site_type_symbol
_atom_site_fract_x
_atom_site_fract_y
_atom_site_fract_z
_atom_type_partial_charge
O0 O 0.38629 0.47652 0.02368 0.0
Tb1 Tb 0.42262 0.51864 0.00674 0.0
Eu2 Eu 0.39274 0.45964 0.97714 0.0
C3 C 0.34947 0.45122 0.02108 0.0
O4 O 0.33567 0.44725 0.00729 0.0
C5 C 0.35106 0.51048 -0.01418 0.0
O6 O 0.39193 0.4397 0.95337 0.0
C7 C 0.3661 0.39679 -0.00675 0.0
C8 C 0.416 0.42788 0.94912 0.0
O9 O 0.44081 0.42779 0.95895 0.0
C10 C 0.48135 0.50243 -0.01222 0.0
C11 C 0.36995 0.36178 -0.00755 0.0
C12 C 0.36677 0.34044 0.00558 0.0
C13 C 0.3675 0.30547 0.00453 0.0
C14 C 0.37218 0.29254 -0.00967 0.0
C15 C 0.37603 0.31387 0.9772 0.0
C16 C 0.37471 0.34835 0.97834 0.0
O17 O 0.3746 0.52541 -0.00243 0.0
O18 O 0.35436 0.48695 0.9762 0.0
O19 O 0.44603 0.5542 0.02701 0.0
O20 O 0.45909 0.58184 0.00546 0.0
C21 C 0.4642 0.5874 0.02 0.0
O22 O 0.45883 0.49423 0.97579 0.0
O23 O 0.46799 0.5041 0.00124 0.0
O24 O 0.34709 0.4009 -0.0181 0.0
O25 O 0.39709 0.42962 -0.00276 0.0
H26 H 0.36285 0.35048 0.01649 0.0
H27 H 0.374 0.26626 -0.01044 0.0
H28 H 0.3764 0.36418 0.96815 0.0
O29 O 0.94102 0.35972 0.19042 0.0
Tb30 Tb 0.93434 0.39471 0.17304 0.0
Eu31 Eu 0.96552 0.3649 0.14485 0.0
C32 C 0.9283 0.3224 0.18854 0.0
O33 O 0.91602 0.3067 0.17515 0.0
C34 C 0.87285 0.32228 0.15186 0.0
O35 O 0.99375 0.37041 0.12244 0.0
C36 C 1.00371 0.34537 0.16306 0.0
C37 C 0.97656 0.37137 0.10993 0.0
O38 O 0.93936 0.36025 0.11035 0.0
C39 C 1.00844 0.45385 0.15391 0.0
C40 C 1.04523 0.35739 0.16316 0.0
C41 C 0.06377 0.3559 0.17648 0.0
C42 C 0.10334 0.36678 0.17617 0.0
C43 C 0.12366 0.37817 0.16242 0.0
C44 C 0.10539 0.37947 0.14904 0.0
C45 C 0.06633 0.36975 0.14957 0.0
O46 O 0.88041 0.34704 0.16311 0.0
O47 O 0.90049 0.32439 0.143 0.0
O48 O 0.92048 0.4168 0.19322 0.0
O49 O 0.90792 0.43139 0.17157 0.0
C50 C 0.90634 0.43563 0.18611 0.0
O51 O 0.99426 0.43029 0.14225 0.0
O52 O 0.99365 0.44139 0.16747 0.0
O53 O 0.98431 0.32429 0.15127 0.0
O54 O 0.99531 0.37258 0.16645 0.0
H55 H 1.04755 0.34636 0.18697 0.0
H56 H 0.15348 0.38428 0.16203 0.0
H57 H 1.05208 0.37118 0.13932 0.0
O58 O 0.63076 0.91962 0.35838 0.0
Tb59 Tb 0.58869 0.9149 0.34143 0.0
Eu60 Eu 0.65114 0.94699 0.31407 0.0
C61 C 0.65469 0.90638 0.35586 0.0
O62 O 0.65697 0.89469 0.34224 0.0
C63 C 0.59802 0.8534 0.31986 0.0
O64 O 0.67415 0.97513 0.29164 0.0
C65 C 0.70871 0.98329 0.33268 0.0
C66 C 0.65912 0.95573 0.27912 0.0
O67 O 0.63707 0.91773 0.27988 0.0
C68 C 0.60535 0.99057 0.32294 0.0
C69 C 0.7399 1.02422 0.3337 0.0
C70 C 0.75681 0.04092 0.3477 0.0
C71 C 0.78691 0.07997 0.34845 0.0
C72 C 0.8003 0.10165 0.33502 0.0
C73 C 0.78402 0.08512 0.32096 0.0
C74 C 0.75335 0.04658 0.32043 0.0
O75 O 0.57959 0.8607 0.33069 0.0
O76 O 0.62573 0.88163 0.31181 0.0
O77 O 0.55341 0.90033 0.36183 0.0
O78 O 0.5259 0.89131 0.34032 0.0
C79 C 0.52046 0.88851 0.35489 0.0
O80 O 0.61587 0.97732 0.31132 0.0
O81 O 0.60187 0.97471 0.33637 0.0
O82 O 0.71021 0.96454 0.32066 0.0
O83 O 0.67333 0.97612 0.33579 0.0
H84 H 0.74641 1.02372 0.35795 0.0
H85 H 0.8239 0.13152 0.33551 0.0
H86 H 0.74065 1.03351 0.30961 0.0
O87 O 0.7331 0.56141 0.5072 0.0
Tb88 Tb 0.6933 0.51722 0.49149 0.0
Eu89 Eu 0.74123 0.60695 0.48381 0.0
C90 C 0.75715 0.55315 0.51434 0.0
O91 O 0.75514 0.51974 0.51149 0.0
C92 C 0.77469 0.54541 0.47814 0.0
O93 O 0.72191 0.61223 0.46063 0.0
C94 C 0.78112 0.67653 0.49472 0.0
C95 C 0.71345 0.58501 0.45057 0.0
O96 O 0.72379 0.55888 0.45314 0.0
C97 C 0.6469 0.55622 0.48249 0.0
C98 C 0.77706 0.71149 0.49548 0.0
C99 C 0.78527 0.7328 0.50904 0.0
C100 C 0.78428 0.76767 0.50943 0.0
C101 C 0.77436 0.78055 0.49629 0.0
C102 C 0.7664 0.75992 0.48268 0.0
C103 C 0.76726 0.72508 0.4824 0.0
O104 O 0.73906 0.51539 0.47867 0.0
O105 O 0.78149 0.58082 0.48149 0.0
O106 O 0.66381 0.4898 0.51248 0.0
O107 O 0.66583 0.45433 0.49488 0.0
C108 C 0.65363 0.45449 0.50854 0.0
O109 O 0.67687 0.58776 0.48824 0.0
O110 O 0.65113 0.52638 0.47921 0.0
O111 O 0.78646 0.66671 0.4811 0.0
O112 O 0.75755 0.64651 0.50317 0.0
H113 H 0.79329 0.72283 0.51911 0.0
H114 H 0.77241 0.80679 0.49674 0.0
H115 H 0.76145 0.70919 0.47185 0.0
O116 O 0.17012 0.70348 0.68301 0.0
Tb117 Tb 0.17372 0.6671 0.66545 0.0
Eu118 Eu 0.13216 0.71667 0.65552 0.0
C119 C 0.20022 0.71983 0.69224 0.0
O120 O 0.22806 0.71145 0.69049 0.0
C121 C 0.22701 0.75274 0.65622 0.0
O122 O 0.13317 0.7089 0.63034 0.0
C123 C 0.09559 0.75419 0.66086 0.0
C124 C 0.15125 0.69168 0.62482 0.0
O125 O 0.16741 0.67833 0.63416 0.0
C126 C 0.08714 0.62172 0.65583 0.0
C127 C 1.0551 0.74647 0.65977 0.0
C128 C 1.03815 0.75452 0.67218 0.0
C129 C 1.00016 0.74852 0.67117 0.0
C130 C 0.9793 0.73429 0.65759 0.0
C131 C 0.99559 0.72585 0.6451 0.0
C132 C 1.03351 0.73191 0.64631 0.0
O133 O 0.22138 0.7174 0.65429 0.0
O134 O 0.19757 0.75762 0.66021 0.0
O135 O 0.17695 0.63298 0.68415 0.0
O136 O 0.21131 0.64174 0.6645 0.0
C137 C 0.20201 0.62556 0.6778 0.0
O138 O 0.08537 0.65282 0.65984 0.0
O139 O 0.12115 0.62461 0.65375 0.0
O140 O 0.11307 0.75628 0.64799 0.0
O141 O 0.10315 0.73575 0.67152 0.0
H142 H 1.05476 0.76597 0.68252 0.0
H143 H 0.95005 0.72961 0.65674 0.0
H144 H 1.04604 0.72492 0.63678 0.0
O145 O 0.52282 0.18902 0.84373 0.0
Tb146 Tb 0.56064 0.19225 0.82543 0.0
Eu147 Eu 0.46884 0.14727 0.81948 0.0
C148 C 0.53475 0.22124 0.85152 0.0
O149 O 0.56858 0.25152 0.84807 0.0
C150 C 0.52458 0.24234 0.81625 0.0
O151 O 0.48456 0.13395 0.7969 0.0
C152 C 0.39392 0.10803 0.82208 0.0
C153 C 0.50409 0.16013 0.78657 0.0
O154 O 0.51041 0.19566 0.78814 0.0
C155 C 0.51866 0.10475 0.82106 0.0
C156 C 0.36303 0.06655 0.82123 0.0
C157 C 0.34286 0.04717 0.83444 0.0
C158 C 0.31478 1.00748 0.83402 0.0
C159 C 0.30633 0.98738 0.82026 0.0
C160 C 0.32545 1.00621 0.80691 0.0
C161 C 0.35371 0.04588 0.80742 0.0
O162 O 0.55426 0.23697 0.81365 0.0
O163 O 0.49115 0.2131 0.8212 0.0
O164 O 0.6004 0.1988 0.84371 0.0
O165 O 0.62352 0.23051 0.82331 0.0
C166 C 0.63206 0.22346 0.83674 0.0
O167 O 0.48974 0.10601 0.82793 0.0
O168 O 0.54643 0.13701 0.81509 0.0
O169 O 0.41174 0.12462 0.80936 0.0
O170 O 0.41757 0.11837 0.83385 0.0
H171 H 0.34956 0.06275 0.8451 0.0
H172 H 0.28399 0.95693 0.81989 0.0
H173 H 0.3688 0.06026 0.79711 0.0
O174 O 0.5917 0.71513 0.77411 0.0
Tb175 Tb 0.54471 0.68443 0.79044 0.0
Eu176 Eu 0.6219 0.72319 0.81285 0.0
C177 C 0.6174 0.75245 0.77503 0.0
O178 O 0.62004 0.77129 0.78748 0.0
C179 C 0.56349 0.76098 0.80923 0.0
O180 O 0.59543 0.68613 0.83332 0.0
C181 C 0.69702 0.76582 0.814 0.0
C182 C 0.55771 0.67016 0.83508 0.0
O183 O 0.53863 0.68201 0.82651 0.0
C184 C 0.57659 0.63409 0.80336 0.0
C185 C 0.73249 0.76234 0.81318 0.0
C186 C 0.75162 0.76695 0.79924 0.0
C187 C 0.7863 0.76565 0.79853 0.0
C188 C 0.80156 0.7594 0.81186 0.0
C189 C 0.78334 0.75523 0.82585 0.0
C190 C 0.74877 0.75669 0.82644 0.0
O191 O 0.53967 0.73244 0.80017 0.0
O192 O 0.59506 0.7626 0.81507 0.0
O193 O 0.51811 0.65597 0.7691 0.0
O194 O 0.48194 0.65671 0.78658 0.0
C195 C 0.48258 0.64502 0.7729 0.0
O196 O 0.61083 0.66589 0.80225 0.0
O197 O 0.54555 0.63768 0.80313 0.0
O198 O 0.67508 0.75195 0.82615 0.0
O199 O 0.67685 0.75956 0.80141 0.0
H200 H 0.74002 0.7723 0.78899 0.0
H201 H 0.82746 0.75686 0.81129 0.0
H202 H 0.73495 0.75407 0.83728 0.0
O203 O 0.94325 0.5993 0.9411 0.0
Tb204 Tb 0.93586 0.54973 0.95444 0.0
Eu205 Eu 0.96508 0.60489 -0.01561 0.0
C206 C 0.92672 0.61981 0.94469 0.0
O207 O 0.90953 0.61434 0.95782 0.0
C208 C 0.87204 0.55031 0.97743 0.0
O209 O 0.99319 0.62742 0.0069 0.0
C210 C 1.00042 0.66445 0.96668 0.0
C211 C 0.97559 0.61016 0.01946 0.0
O212 O 0.93826 0.58443 0.01899 0.0
C213 C 1.00793 0.55853 0.9745 0.0
C214 C 1.04013 0.6979 0.96662 0.0
C215 C 1.05434 0.72265 0.95403 0.0
C216 C 0.09118 0.75646 0.95464 0.0
C217 C 0.1136 0.76475 0.96789 0.0
C218 C 0.09971 0.74017 0.98052 0.0
C219 C 0.06304 0.70653 0.97974 0.0
O220 O 0.88059 0.53513 0.96574 0.0
O221 O 0.89937 0.5767 -0.01374 0.0
O222 O 0.93029 0.5294 0.93116 0.0
O223 O 0.9058 0.48774 0.9488 0.0
C224 C 0.91113 0.49253 0.93427 0.0
O225 O 0.99542 0.56962 -0.01381 0.0
O226 O 0.9922 0.55513 0.96099 0.0
O227 O 0.97928 0.66333 0.97831 0.0
O228 O 0.9968 0.63043 0.96348 0.0
H229 H 1.03635 0.71624 0.944 0.0
H230 H 0.14186 0.79092 0.96845 0.0
H231 H 1.05195 0.68729 -0.01057 0.0
O232 O 0.38553 0.91172 0.10602 0.0
Tb233 Tb 0.42367 0.90469 0.12178 0.0
Eu234 Eu 0.39595 0.93413 0.15151 0.0
C235 C 0.34852 0.89862 0.10887 0.0
O236 O 0.33512 0.88669 0.12255 0.0
C237 C 0.35388 0.84169 0.14343 0.0
O238 O 0.40296 0.95964 0.17461 0.0
C239 C 0.37283 0.97252 0.13508 0.0
C240 C 0.40402 0.94044 0.18646 0.0
O241 O 0.39263 0.90335 0.18494 0.0
C242 C 0.48455 0.97741 0.1415 0.0
C243 C 0.3811 1.01301 0.13565 0.0
C244 C 0.38069 1.03226 0.12236 0.0
C245 C 0.3865 0.07022 0.12312 0.0
C246 C 0.39152 0.08802 0.13731 0.0
C247 C 0.39212 0.06913 0.15055 0.0
C248 C 0.38776 1.03204 0.1497 0.0
O249 O 0.37772 0.84998 0.13181 0.0
O250 O 0.35637 0.8688 0.15272 0.0
O251 O 0.44448 0.89576 0.10018 0.0
O252 O 0.45743 0.87506 0.12032 0.0
C253 C 0.46163 0.87788 0.10569 0.0
O254 O 0.46154 0.96333 0.15329 0.0
O255 O 0.47155 0.96297 0.12792 0.0
O256 O 0.35306 0.95095 0.14669 0.0
O257 O 0.40157 0.96708 0.13091 0.0
H258 H 0.37591 1.01778 0.11152 0.0
H259 H 0.39445 0.11661 0.13813 0.0
H260 H 0.38815 1.01751 0.16003 0.0
O261 O 0.51264 0.35967 0.27394 0.0
Tb262 Tb 0.55778 0.39912 0.28953 0.0
Eu263 Eu 0.49976 0.37055 0.31866 0.0
C264 C 0.49001 0.32238 0.27677 0.0
O265 O 0.49023 0.30884 0.29028 0.0
C266 C 0.55329 0.33115 0.31169 0.0
O267 O 0.47465 0.37398 0.34082 0.0
C268 C 0.44062 0.34507 0.30065 0.0
C269 C 0.47829 0.35854 0.35336 0.0
O270 O 0.49506 0.33724 0.35299 0.0
C271 C 0.54479 0.45998 0.30907 0.0
C272 C 0.40615 0.34973 0.30042 0.0
C273 C 0.38577 0.34499 0.28686 0.0
C274 C 0.35112 0.34625 0.287 0.0
C275 C 0.33743 0.35296 0.3006 0.0
C276 C 0.35735 0.35769 0.31426 0.0
C277 C 0.39206 0.35646 0.31404 0.0
O278 O 0.56838 0.35466 0.29994 0.0
O279 O 0.52818 0.33332 0.32083 0.0
O280 O 0.58586 0.4197 0.26765 0.0
O281 O 0.62106 0.4337 0.28742 0.0
C282 C 0.62129 0.43764 0.27279 0.0
O283 O 0.53405 0.43636 0.32077 0.0
O284 O 0.54815 0.4476 0.29561 0.0
O285 O 0.44224 0.32507 0.3122 0.0
O286 O 0.47429 0.3761 0.29752 0.0
H287 H 0.39619 0.33933 0.27637 0.0
H288 H 0.31112 0.35483 0.30043 0.0
H289 H 0.40749 0.35943 0.32452 0.0
O290 O 0.1925 0.495 0.43293 0.0
Tb291 Tb 0.20167 0.53548 0.4512 0.0
Eu292 Eu 0.16161 0.45771 0.47582 0.0
C293 C 0.18689 0.45991 0.43514 0.0
O294 O 0.17949 0.44529 0.44878 0.0
C295 C 0.25629 0.50777 0.46756 0.0
O296 O 0.16629 0.49881 0.49425 0.0
C297 C 0.12242 0.38609 0.48499 0.0
C298 C 0.1893 0.53655 0.49297 0.0
O299 O 0.21279 0.5506 0.48137 0.0
C300 C 0.11638 0.49805 0.46274 0.0
C301 C 0.0806 0.35592 0.48596 0.0
C302 C 0.06053 0.33394 0.47306 0.0
C303 C 1.02062 0.30659 0.47373 0.0
C304 C 1.00098 0.30085 0.48747 0.0
C305 C 1.02027 0.32214 0.50043 0.0
C306 C 1.06023 0.3493 0.4997 0.0
O307 O 0.2528 0.53589 0.46107 0.0
O308 O 0.22578 0.47522 0.47244 0.0
O309 O 0.20444 0.57005 0.4316 0.0
O310 O 0.23901 0.59873 0.4509 0.0
C311 C 0.22929 0.60353 0.43734 0.0
O312 O 0.11568 0.46457 0.46278 0.0
O313 O 0.15022 0.53024 0.46252 0.0
O314 O 0.13501 0.41599 0.49422 0.0
O315 O 0.13713 0.39601 0.47131 0.0
H316 H 0.07565 0.33863 0.4624 0.0
H317 H 0.97038 0.27909 0.48816 0.0
H318 H 0.07515 0.36583 0.50972 0.0
O319 O 0.70396 0.1731 0.61751 0.0
Tb320 Tb 0.66575 0.17409 0.63484 0.0
Eu321 Eu 0.71538 0.13256 0.64035 0.0
C322 C 0.72071 0.2044 0.60893 0.0
O323 O 0.71027 0.23073 0.61076 0.0
C324 C 0.75019 0.22741 0.64471 0.0
O325 O 0.70575 0.11939 0.66501 0.0
C326 C 0.75157 0.09798 0.63038 0.0
C327 C 0.73212 0.14061 0.67511 0.0
O328 O 0.76462 0.17141 0.67085 0.0
C329 C 0.62163 0.08918 0.64398 0.0
C330 C 0.74481 0.058 0.6312 0.0
C331 C 0.75797 0.04342 0.61952 0.0
C332 C 0.75385 1.00626 0.6208 0.0
C333 C 0.7356 0.98361 0.6336 0.0
C334 C 0.72226 0.99764 0.64529 0.0
C335 C 0.72686 1.03489 0.64404 0.0
O336 O 0.71453 0.22069 0.64697 0.0
O337 O 0.75591 0.1993 0.63954 0.0
O338 O 0.62737 0.1678 0.61615 0.0
O339 O 0.64148 0.21259 0.63235 0.0
C340 C 0.62217 0.19645 0.61996 0.0
O341 O 0.65034 0.08767 0.6371 0.0
O342 O 0.62711 0.12323 0.64811 0.0
O343 O 0.75967 0.11661 0.64334 0.0
O344 O 0.72741 0.10345 0.62192 0.0
H345 H 0.77231 0.06132 0.60973 0.0
H346 H 0.73245 0.95497 0.63462 0.0
H347 H 0.71679 0.04599 0.65311 0.0
H348 H 0.49108 0.65841 0.00692 0.0
H349 H 0.50961 0.71976 0.01995 0.0
H350 H 0.49526 0.66318 0.06305 0.0
H351 H 0.47677 0.60193 0.05013 0.0
H352 H 0.45432 0.72121 0.03945 0.0
H353 H 0.5941 0.77032 0.06939 0.0
H354 H 0.57891 0.73773 0.05333 0.0
H355 H 0.55935 0.71959 0.0718 0.0
C356 C 0.49297 0.6594 0.01916 0.0
C357 C 0.48225 0.62551 0.02756 0.0
C358 C 0.50362 0.69441 0.02657 0.0
C359 C 0.50417 0.69605 0.04244 0.0
C360 C 0.49579 0.66273 0.0508 0.0
H361 H 0.47888 0.8226 0.11455 0.0
H362 H 0.49596 0.78381 0.0981 0.0
C363 C 0.48493 0.6277 0.04341 0.0
C364 C 0.50673 0.73011 0.05027 0.0
H365 H 0.55471 0.79637 0.07828 0.0
C366 C 0.47669 0.73824 0.04773 0.0
C367 C 0.53567 0.75174 0.06117 0.0
C368 C 0.56906 0.7447 0.06402 0.0
C369 C 0.4736 0.76614 0.05633 0.0
C370 C 0.50216 0.78741 0.06748 0.0
C371 C 0.53299 0.78016 0.06969 0.0
C372 C 0.49854 0.81503 0.07764 0.0
C373 C 0.43849 0.77083 0.05399 0.0
C374 C 0.496 0.84644 0.07169 0.0
C375 C 0.48553 0.86806 0.081 0.0
C376 C 0.47841 0.85918 0.09645 0.0
C377 C 0.48409 0.82987 0.10264 0.0
C378 C 0.49393 0.8078 0.09328 0.0
H379 H 0.41491 0.74586 0.04772 0.0
H380 H 0.42664 0.77368 0.06498 0.0
H381 H 0.44704 0.79749 0.04726 0.0
H382 H 0.50044 0.85312 0.05973 0.0
H383 H 0.48179 0.8909 0.07602 0.0
H384 H 0.90009 0.444 0.21626 0.0
H385 H 0.85832 0.46448 0.22866 0.0
H386 H 0.82651 0.48952 0.18514 0.0
H387 H 0.86813 0.46869 0.17262 0.0
H388 H 0.84899 0.53392 0.22729 0.0
H389 H 0.72502 0.398 0.20363 0.0
H390 H 0.77406 0.40646 0.20382 0.0
H391 H 0.76037 0.43157 0.19047 0.0
C392 C 0.88482 0.45463 0.20936 0.0
C393 C 0.88676 0.45426 0.1935 0.0
C394 C 0.86118 0.46651 0.21645 0.0
C395 C 0.83913 0.47807 0.20778 0.0
C396 C 0.84317 0.48039 0.19198 0.0
H397 H 0.62508 0.45611 0.24305 0.0
H398 H 0.68084 0.47737 0.22618 0.0
C399 C 0.86687 0.4685 0.18487 0.0
C400 C 0.80824 0.48227 0.21523 0.0
H401 H 0.71036 0.43281 0.221 0.0
C402 C 0.81856 0.51227 0.22577 0.0
C403 C 0.76869 0.45391 0.21317 0.0
C404 C 0.75612 0.42046 0.20225 0.0
C405 C 0.79022 0.51404 0.23467 0.0
C406 C 0.75086 0.48447 0.23317 0.0
C407 C 0.74053 0.45555 0.22212 0.0
C408 C 0.72017 0.4802 0.24379 0.0
C409 C 0.80281 0.54723 0.24567 0.0
C410 C 0.72404 0.47575 0.25936 0.0
C411 C 0.69232 0.46405 0.26904 0.0
C412 C 0.65613 0.45587 0.2632 0.0
C413 C 0.65271 0.46207 0.24778 0.0
C414 C 0.68454 0.47431 0.23816 0.0
H415 H 0.82936 0.57365 0.24161 0.0
H416 H 0.77952 0.55449 0.24749 0.0
H417 H 0.80995 0.53895 0.2567 0.0
H418 H 0.75085 0.47905 0.26392 0.0
H419 H 0.69555 0.45928 0.28089 0.0
H420 H 0.2903 0.67309 0.4461 0.0
H421 H 0.32565 0.73124 0.43049 0.0
H422 H 0.24241 0.67554 0.3944 0.0
H423 H 0.20759 0.61687 0.40986 0.0
H424 H 0.31409 0.6984 0.38549 0.0
H425 H 0.31568 0.82124 0.41515 0.0
H426 H 0.32955 0.79483 0.42771 0.0
H427 H 0.28127 0.77118 0.41972 0.0
C428 C 0.27905 0.67367 0.43498 0.0
C429 C 0.2466 0.64053 0.42907 0.0
C430 C 0.29899 0.70706 0.42613 0.0
C431 C 0.28637 0.70793 0.41134 0.0
C432 C 0.25246 0.67556 0.40582 0.0
H433 H 0.44924 0.86039 0.34168 0.0
H434 H 0.38574 0.82189 0.35395 0.0
C435 C 0.23273 0.64207 0.41461 0.0
C436 C 0.31228 0.73942 0.40091 0.0
H437 H 0.37105 0.83783 0.3986 0.0
C438 C 0.32574 0.72893 0.38809 0.0
C439 C 0.32743 0.77918 0.40435 0.0
C440 C 0.31237 0.79223 0.41741 0.0
C441 C 0.35617 0.75696 0.37932 0.0
C442 C 0.3731 0.79661 0.38335 0.0
C443 C 0.358 0.80736 0.39558 0.0
C444 C 0.40979 0.82623 0.37634 0.0
C445 C 0.37188 0.74361 0.36653 0.0
C446 C 0.44395 0.84294 0.38503 0.0
C447 C 0.48003 0.86499 0.3781 0.0
C448 C 0.4824 0.87055 0.36238 0.0
C449 C 0.44808 0.85611 0.35382 0.0
C450 C 0.41191 0.83418 0.36079 0.0
H451 H 0.35931 0.71156 0.36644 0.0
H452 H 0.36472 0.75218 0.35556 0.0
H453 H 0.40401 0.75756 0.36734 0.0
H454 H 0.44285 0.83709 0.39706 0.0
H455 H 0.5061 0.87609 0.38495 0.0
H456 H 0.63995 0.45549 0.53849 0.0
H457 H 0.61733 0.40156 0.55632 0.0
H458 H 0.60133 0.32349 0.51952 0.0
H459 H 0.62561 0.37797 0.50164 0.0
H460 H 0.55259 0.33126 0.56041 0.0
H461 H 0.67905 0.31371 0.54572 0.0
H462 H 0.67445 0.35402 0.53899 0.0
H463 H 0.64739 0.30711 0.5301 0.0
C464 C 0.63126 0.42674 0.53418 0.0
C465 C 0.63508 0.42086 0.51876 0.0
C466 C 0.61817 0.39593 0.54437 0.0
C467 C 0.60842 0.3587 0.53929 0.0
C468 C 0.60965 0.35222 0.52372 0.0
H469 H 0.58461 0.16612 0.59349 0.0
H470 H 0.57031 0.20032 0.57378 0.0
C471 C 0.62333 0.38324 0.51352 0.0
C472 C 0.60039 0.32791 0.55051 0.0
H473 H 0.63671 0.27238 0.56436 0.0
C474 C 0.5707 0.31805 0.5612 0.0
C475 C 0.62437 0.31106 0.5516 0.0
C476 C 0.65832 0.3222 0.5411 0.0
C477 C 0.56479 0.2922 0.57309 0.0
C478 C 0.58911 0.2759 0.57423 0.0
C479 C 0.6179 0.28477 0.56331 0.0
C480 C 0.58779 0.25194 0.58723 0.0
C481 C 0.53307 0.28285 0.58446 0.0
C482 C 0.60107 0.26925 0.60148 0.0
C483 C 0.60947 0.24984 0.61276 0.0
C484 C 0.60482 0.21303 0.60983 0.0
C485 C 0.58857 0.19456 0.596 0.0
C486 C 0.58028 0.21397 0.58475 0.0
H487 H 0.51149 0.29056 0.58017 0.0
H488 H 0.51777 0.25146 0.5874 0.0
H489 H 0.54619 0.29964 0.59498 0.0
H490 H 0.60765 0.29883 0.6035 0.0
H491 H 0.62207 0.26469 0.62332 0.0
H492 H 0.19788 0.60742 0.70757 0.0
H493 H 0.24077 0.59059 0.72134 0.0
H494 H 0.29282 0.58529 0.67925 0.0
H495 H 0.2509 0.60372 0.66544 0.0
H496 H 0.26149 0.53353 0.7216 0.0
H497 H 0.38235 0.67552 0.7011 0.0
H498 H 0.33201 0.66123 0.69831 0.0
H499 H 0.35449 0.64107 0.68659 0.0
C500 C 0.21793 0.6019 0.70123 0.0
C501 C 0.2218 0.60761 0.68552 0.0
C502 C 0.24228 0.59212 0.7091 0.0
C503 C 0.27052 0.5876 0.70133 0.0
C504 C 0.27178 0.58956 0.68546 0.0
H505 H 0.48202 0.62002 0.7443 0.0
H506 H 0.42827 0.59502 0.72614 0.0
C507 C 0.24782 0.59996 0.6776 0.0
C508 C 0.30164 0.58636 0.71004 0.0
H509 H 0.39799 0.64169 0.71862 0.0
C510 C 0.29148 0.55682 0.72081 0.0
C511 C 0.3407 0.61698 0.70903 0.0
C512 C 0.35315 0.65069 0.69824 0.0
C513 C 0.31923 0.55776 0.73093 0.0
C514 C 0.35783 0.58913 0.73025 0.0
C515 C 0.36833 0.61756 0.71902 0.0
C516 C 0.38716 0.59587 0.74193 0.0
C517 C 0.30691 0.52573 0.74245 0.0
C518 C 0.38153 0.60395 0.75688 0.0
C519 C 0.41221 0.61838 0.76725 0.0
C520 C 0.44893 0.62516 0.76274 0.0
C521 C 0.45397 0.61519 0.74802 0.0
C522 C 0.42331 0.60073 0.73767 0.0
H523 H 0.28069 0.49861 0.73863 0.0
H524 H 0.33066 0.51938 0.74475 0.0
H525 H 0.29963 0.53499 0.75321 0.0
H526 H 0.35411 0.60126 0.76028 0.0
H527 H 0.40769 0.62587 0.77855 0.0
H528 H 0.69906 0.28221 0.82478 0.0
H529 H 0.7598 0.32417 0.83842 0.0
H530 H 0.71174 0.25496 0.87867 0.0
H531 H 0.65142 0.21281 0.86508 0.0
H532 H 0.75873 0.36583 0.86276 0.0
H533 H 0.82302 0.27615 0.87984 0.0
H534 H 0.78746 0.26192 0.86483 0.0
H535 H 0.77225 0.25353 0.88431 0.0
C536 C 0.70196 0.27538 0.83641 0.0
C537 C 0.67061 0.24452 0.84394 0.0
C538 C 0.73661 0.29928 0.84417 0.0
C539 C 0.74043 0.29242 0.8595 0.0
C540 C 0.70982 0.26027 0.86676 0.0
H541 H 0.85809 0.41603 0.93874 0.0
H542 H 0.82236 0.3671 0.91918 0.0
C543 C 0.67522 0.23641 0.85902 0.0
C544 C 0.77329 0.32204 0.86857 0.0
H545 H 0.84212 0.33417 0.89461 0.0
C546 C 0.77758 0.35921 0.86947 0.0
C547 C 0.79745 0.31309 0.87743 0.0
C548 C 0.79509 0.27409 0.87646 0.0
C549 C 0.80398 0.38714 0.87958 0.0
C550 C 0.82743 0.37789 0.88877 0.0
C551 C 0.82413 0.34114 0.88752 0.0
C552 C 0.85338 0.40525 0.90046 0.0
C553 C 0.80495 0.42552 0.8809 0.0
C554 C 0.88358 0.44229 0.8964 0.0
C555 C 0.90358 0.47033 0.90751 0.0
C556 C 0.89406 0.46147 0.92285 0.0
C557 C 0.86581 0.42355 0.92698 0.0
C558 C 0.84552 0.39561 0.91583 0.0
H559 H 0.77922 0.42459 0.8755 0.0
H560 H 0.80606 0.43395 0.89295 0.0
H561 H 0.83136 0.44848 0.87519 0.0
H562 H 0.89054 0.45001 0.8846 0.0
H563 H 0.92557 0.49929 0.90407 0.0
H564 H 0.46486 0.16448 0.86305 0.0
H565 H 0.42495 0.17275 0.88232 0.0
H566 H 0.50911 0.29515 0.88495 0.0
H567 H 0.54879 0.28733 0.86593 0.0
H568 H 0.45058 0.20319 0.91227 0.0
H569 H 0.4047 0.29271 0.87984 0.0
H570 H 0.42249 0.26383 0.87083 0.0
H571 H 0.45603 0.31059 0.87878 0.0
C572 C 0.47466 0.19313 0.86771 0.0
C573 C 0.51001 0.2252 0.86302 0.0
C574 C 0.45184 0.19782 0.87865 0.0
C575 C 0.4638 0.2347 0.88482 0.0
C576 C 0.49895 0.26663 0.88009 0.0
H577 H 0.43035 0.35667 0.95588 0.0
H578 H 0.44493 0.33339 0.93258 0.0
C579 C 0.52178 0.26197 0.8693 0.0
C580 C 0.44146 0.24006 0.89701 0.0
H581 H 0.40178 0.29569 0.90697 0.0
C582 C 0.43907 0.22271 0.91108 0.0
C583 C 0.42676 0.26573 0.89537 0.0
C584 C 0.42726 0.28402 0.88034 0.0
C585 C 0.4246 0.23227 0.92384 0.0
C586 C 0.41132 0.2592 0.92235 0.0
C587 C 0.41204 0.27513 0.90809 0.0
C588 C 0.39956 0.2735 0.93565 0.0
C589 C 0.42587 0.21526 0.93898 0.0
C590 C 0.36845 0.24782 0.94485 0.0
C591 C 0.36011 0.26112 0.95817 0.0
C592 C 0.38245 0.30042 0.96241 0.0
C593 C 0.4124 0.32639 0.95281 0.0
C594 C 0.42085 0.31305 0.93954 0.0
H595 H 0.44464 0.20191 0.93872 0.0
H596 H 0.43682 0.2379 0.94794 0.0
H597 H 0.39606 0.19229 0.94211 0.0
H598 H 0.35109 0.21737 0.94186 0.0
H599 H 0.33647 0.2406 0.96525 0.0
H600 H 0.07789 0.34285 0.1218 0.0
H601 H 0.11545 0.35091 0.09879 0.0
H602 H 0.21828 0.4419 0.12038 0.0
H603 H 0.18087 0.4349 0.1433 0.0
H604 H 0.17094 0.42729 0.08112 0.0
H605 H 0.23798 0.34784 0.10775 0.0
H606 H 0.1922 0.34224 0.11405 0.0
H607 H 0.23694 0.3853 0.11884 0.0
C608 C 0.10826 0.36526 0.12154 0.0
C609 C 0.12653 0.38797 0.13444 0.0
C610 C 0.12967 0.3696 0.10843 0.0
C611 C 0.1696 0.39652 0.10807 0.0
C612 C 0.18751 0.4206 0.1206 0.0
H613 H 0.36613 0.46455 0.05123 0.0
H614 H 0.31962 0.44642 0.07191 0.0
C615 C 0.16614 0.41647 0.13366 0.0
C616 C 0.19318 0.39824 0.09493 0.0
H617 H 0.26288 0.37719 0.084 0.0
C618 C 0.19081 0.41606 0.08162 0.0
C619 C 0.21893 0.38351 0.09578 0.0
C620 C 0.22169 0.36338 0.10982 0.0
C621 C 0.2148 0.42089 0.06921 0.0
C622 C 0.24102 0.40656 0.0701 0.0
C623 C 0.24265 0.38795 0.08334 0.0
C624 C 0.26888 0.41308 0.05782 0.0
C625 C 0.21306 0.44276 0.05553 0.0
C626 C 0.25583 0.39878 0.04318 0.0
C627 C 0.28236 0.40923 0.03129 0.0
C628 C 0.32237 0.43387 0.03391 0.0
C629 C 0.33551 0.4457 0.0488 0.0
C630 C 0.30895 0.43542 0.06064 0.0
H631 H 0.19809 0.45939 0.05805 0.0
H632 H 0.24271 0.46328 0.05128 0.0
H633 H 0.19668 0.42176 0.04635 0.0
H634 H 0.22506 0.3806 0.04085 0.0
H635 H 0.27136 0.39931 0.01997 0.0
H636 H 0.74395 0.08839 0.29621 0.0
H637 H 0.77097 0.12561 0.2729 0.0
H638 H 0.887 0.1711 0.29067 0.0
H639 H 0.86042 0.13292 0.31369 0.0
H640 H 0.81608 0.20503 0.27002 0.0
H641 H 0.89557 0.13307 0.24884 0.0
H642 H 0.8593 0.1123 0.26355 0.0
H643 H 0.90793 0.15022 0.26796 0.0
C644 C 0.77523 0.10589 0.29505 0.0
C645 C 0.80005 0.10773 0.30681 0.0
C646 C 0.7906 0.12726 0.28177 0.0
C647 C 0.831 0.15065 0.27999 0.0
C648 C 0.85579 0.15264 0.2917 0.0
H649 H 0.94699 0.34468 0.21808 0.0
H650 H 0.92584 0.30251 0.24035 0.0
C651 C 0.8405 0.13124 0.30494 0.0
C652 C 0.84724 0.17445 0.26618 0.0
H653 H 0.91008 0.19273 0.2369 0.0
C654 C 0.83648 0.20223 0.26273 0.0
C655 C 0.87353 0.1704 0.25662 0.0
C656 C 0.88451 0.13963 0.25932 0.0
C657 C 0.85187 0.22665 0.25012 0.0
C658 C 0.87936 0.22367 0.24091 0.0
C659 C 0.8895 0.19533 0.24415 0.0
C660 C 0.8967 0.24894 0.22754 0.0
C661 C 0.8381 0.25499 0.24664 0.0
C662 C 0.88918 0.23263 0.213 0.0
C663 C 0.90152 0.25659 0.20024 0.0
C664 C 0.92159 0.29729 0.20185 0.0
C665 C 0.93127 0.31346 0.21645 0.0
C666 C 0.91901 0.28944 0.22919 0.0
H667 H 0.81037 0.24704 0.2525 0.0
H668 H 0.86035 0.28444 0.25053 0.0
H669 H 0.83383 0.25638 0.23428 0.0
H670 H 0.87227 0.20139 0.21151 0.0
H671 H 0.89375 0.24319 0.18916 0.0
H672 H 0.65703 0.92706 0.38556 0.0
H673 H 0.68214 0.90716 0.40701 0.0
H674 H 0.72013 0.84823 0.37647 0.0
H675 H 0.69621 0.8688 0.35502 0.0
H676 H 0.65593 0.83309 0.4154 0.0
H677 H 0.81368 0.90384 0.40361 0.0
H678 H 0.78224 0.91756 0.394 0.0
H679 H 0.78466 0.87561 0.38789 0.0
C680 C 0.67151 0.9106 0.3834 0.0
C681 C 0.67458 0.89946 0.3686 0.0
C682 C 0.68574 0.89917 0.39565 0.0
C683 C 0.70329 0.87649 0.39332 0.0
C684 C 0.7075 0.86644 0.37852 0.0
H685 H 0.71203 0.7203 0.46051 0.0
H686 H 0.69744 0.74779 0.43832 0.0
C687 C 0.69358 0.87808 0.36626 0.0
C688 C 0.71405 0.86042 0.40639 0.0
H689 H 0.78847 0.85224 0.42177 0.0
C690 C 0.685 0.83754 0.41688 0.0
C691 C 0.75203 0.86644 0.40832 0.0
C692 C 0.78503 0.89253 0.39794 0.0
C693 C 0.69273 0.82009 0.42917 0.0
C694 C 0.7303 0.82481 0.43076 0.0
C695 C 0.75951 0.84815 0.42039 0.0
C696 C 0.74045 0.80743 0.44355 0.0
C697 C 0.66079 0.79747 0.44048 0.0
C698 C 0.7706 0.83161 0.45343 0.0
C699 C 0.77951 0.81596 0.46589 0.0
C700 C 0.75828 0.77576 0.4688 0.0
C701 C 0.7289 0.75136 0.45859 0.0
C702 C 0.7202 0.76708 0.44602 0.0
H703 H 0.63767 0.80539 0.4399 0.0
H704 H 0.64716 0.76596 0.43797 0.0
H705 H 0.67245 0.80255 0.4522 0.0
H706 H 0.78686 0.86277 0.45165 0.0
H707 H 0.80297 0.83547 0.4733 0.0
H708 H 0.75286 0.6067 0.53265 0.0
H709 H 0.79666 0.64254 0.55375 0.0
H710 H 0.87017 0.59546 0.54184 0.0
H711 H 0.82609 0.55891 0.52121 0.0
H712 H 0.84984 0.58246 0.57065 0.0
H713 H 0.90335 0.73779 0.5578 0.0
H714 H 0.85129 0.70826 0.5578 0.0
H715 H 0.87916 0.69983 0.54386 0.0
C716 C 0.77883 0.60476 0.53439 0.0
C717 C 0.78594 0.57979 0.52544 0.0
C718 C 0.80393 0.62534 0.54639 0.0
C719 C 0.83683 0.6218 0.54936 0.0
C720 C 0.84491 0.59852 0.53983 0.0
H721 H 1.02091 0.74606 0.61585 0.0
H722 H 0.98276 0.7212 0.59252 0.0
C723 C 0.81967 0.57762 0.52805 0.0
C724 C 0.86073 0.6387 0.56321 0.0
H725 H 0.91688 0.72332 0.58253 0.0
C726 C 0.86463 0.61332 0.57318 0.0
C727 C 0.88028 0.67897 0.56647 0.0
C728 C 0.87868 0.70789 0.55586 0.0
C729 C 0.88734 0.62695 0.58633 0.0
C730 C 0.90586 0.667 0.58986 0.0
C731 C 0.90236 0.69256 0.57985 0.0
C732 C 0.92882 0.68265 0.60396 0.0
C733 C 0.89182 0.59833 0.59615 0.0
C734 C 0.91108 0.66938 0.61811 0.0
C735 C 0.93284 0.68304 0.63141 0.0
C736 C 0.97277 0.71072 0.63086 0.0
C737 C 0.99038 0.72433 0.61666 0.0
C738 C 0.96856 0.71048 0.60333 0.0
H739 H 0.88529 0.57162 0.58978 0.0
H740 H 0.92175 0.61146 0.60083 0.0
H741 H 0.87116 0.58955 0.60576 0.0
H742 H 0.88033 0.64832 0.61887 0.0
H743 H 0.9184 0.67164 0.64212 0.0
H744 H 0.24754 0.7426 0.71666 0.0
H745 H 0.26461 0.79776 0.73324 0.0
H746 H 0.18486 0.82243 0.70917 0.0
H747 H 0.16708 0.76635 0.69247 0.0
H748 H 0.29787 0.87524 0.72343 0.0
H749 H 0.15853 0.82567 0.75427 0.0
H750 H 0.16837 0.7923 0.74398 0.0
H751 H 0.15685 0.82446 0.73391 0.0
C752 C 0.23317 0.75939 0.71498 0.0
C753 C 0.20593 0.75015 0.70328 0.0
C754 C 0.24309 0.79101 0.72445 0.0
C755 C 0.22611 0.81425 0.72243 0.0
C756 C 0.19801 0.8046 0.71102 0.0
H757 H 0.3079 1.02544 0.77933 0.0
H758 H 0.28382 0.98392 0.75663 0.0
C759 C 0.18781 0.77255 0.70153 0.0
C760 C 0.23947 0.84914 0.73211 0.0
H761 H 0.21275 0.88423 0.76226 0.0
C762 C 0.27909 0.87765 0.73172 0.0
C763 C 0.2149 0.85213 0.74292 0.0
C764 C 0.17231 0.82201 0.74395 0.0
C765 C 0.29515 0.90796 0.74235 0.0
C766 C 0.27099 0.90981 0.75358 0.0
C767 C 0.23103 0.88263 0.75352 0.0
C768 C 0.2876 0.93628 0.76666 0.0
C769 C 0.33821 0.93666 0.74209 0.0
C770 C 0.29827 0.92332 0.77957 0.0
C771 C 0.312 0.94678 0.79241 0.0
C772 C 0.31531 0.98369 0.79259 0.0
C773 C 0.30587 0.99723 0.77944 0.0
C774 C 0.2919 0.97353 0.76655 0.0
H775 H 0.35244 0.93358 0.73179 0.0
H776 H 0.3434 0.96681 0.74264 0.0
H777 H 0.3521 0.93213 0.75221 0.0
H778 H 0.29533 0.8947 0.77978 0.0
H779 H 0.31945 0.93579 0.80232 0.0
H780 H 0.85984 0.79249 0.83421 0.0
H781 H 0.88931 0.77601 0.85514 0.0
H782 H 0.7755 0.68768 0.86997 0.0
H783 H 0.74582 0.7031 0.84872 0.0
H784 H 0.88081 0.77411 0.88643 0.0
H785 H 0.83273 0.62731 0.86294 0.0
H786 H 0.8304 0.66475 0.85222 0.0
H787 H 0.79383 0.6371 0.86612 0.0
C788 C 0.84107 0.76954 0.84194 0.0
C789 C 0.80054 0.74864 0.83968 0.0
C790 C 0.85794 0.76037 0.85393 0.0
C791 C 0.83464 0.73014 0.8639 0.0
C792 C 0.79403 0.71062 0.8622 0.0
H793 H 0.89121 0.66287 0.9482 0.0
H794 H 0.87444 0.69468 0.92842 0.0
C795 C 0.77709 0.71972 0.85016 0.0
C796 C 0.85305 0.71798 0.87562 0.0
H797 H 0.86158 0.64078 0.88732 0.0
C798 C 0.87674 0.74501 0.88663 0.0
C799 C 0.84841 0.68029 0.87561 0.0
C800 C 0.82529 0.65076 0.86351 0.0
C801 C 0.89507 0.73496 0.89792 0.0
C802 C 0.88901 0.69673 0.89829 0.0
C803 C 0.8661 0.67006 0.88704 0.0
C804 C 0.90437 0.68284 0.9106 0.0
C805 C 0.92098 0.76541 0.90925 0.0
C806 C 0.92708 0.66586 0.90719 0.0
C807 C 0.93646 0.64726 0.91848 0.0
C808 C 0.923 0.64512 0.93335 0.0
C809 C 0.90203 0.66397 0.93687 0.0
C810 C 0.89262 0.68245 0.92558 0.0
H811 H 0.93218 0.79525 0.90474 0.0
H812 H 0.90397 0.76247 0.91961 0.0
H813 H 0.94606 0.76186 0.91248 0.0
H814 H 0.93634 0.66577 0.89567 0.0
H815 H 0.95271 0.63309 0.91541 0.0
H816 H 0.36536 0.90959 0.0787 0.0
H817 H 0.3192 0.88308 0.05771 0.0
H818 H 0.2236 0.84011 0.08911 0.0
H819 H 0.26951 0.8665 0.11025 0.0
H820 H 0.2623 0.79885 0.05711 0.0
H821 H 0.1946 0.89207 0.05367 0.0
H822 H 0.24197 0.90894 0.06204 0.0
H823 H 0.19897 0.8754 0.07214 0.0
C824 C 0.33454 0.89534 0.08115 0.0
C825 C 0.3211 0.88988 0.09616 0.0
C826 C 0.30824 0.88012 0.06914 0.0
C827 C 0.26812 0.85966 0.07191 0.0
C828 C 0.25451 0.85613 0.08677 0.0
H829 H 0.07345 0.73631 0.00944 0.0
H830 H 0.11245 0.76092 0.03254 0.0
C831 C 0.28081 0.8712 0.09883 0.0
C832 C 0.24085 0.83876 0.0594 0.0
H833 H 0.16968 0.83768 0.03741 0.0
C834 C 0.24201 0.80728 0.05278 0.0
C835 C 0.21415 0.84958 0.054 0.0
C836 C 0.21226 0.88347 0.06072 0.0
C837 C 0.21727 0.78641 0.04075 0.0
C838 C 0.19138 0.79797 0.035 0.0
C839 C 0.18962 0.82893 0.04186 0.0
C840 C 0.16744 0.77976 0.02135 0.0
C841 C 0.21886 0.75199 0.03439 0.0
C842 C 0.18546 0.78179 0.00748 0.0
C843 C 0.16329 0.76746 -0.00568 0.0
C844 C 0.1227 0.75121 -0.00525 0.0
C845 C 0.10461 0.74827 0.00875 0.0
C846 C 0.12684 0.76258 0.02193 0.0
H847 H 0.23083 0.73985 0.04277 0.0
H848 H 0.18956 0.72858 0.03082 0.0
H849 H 0.23817 0.76141 0.02434 0.0
H850 H 0.21681 0.79549 0.00674 0.0
H851 H 0.17803 0.76979 -0.01626 0.0
H852 H 0.50203 0.33592 0.24648 0.0
H853 H 0.47592 0.28798 0.22619 0.0
H854 H 0.40475 0.19889 0.2584 0.0
H855 H 0.43205 0.24661 0.27891 0.0
H856 H 0.44235 0.17495 0.24151 0.0
H857 H 0.37602 0.23604 0.20358 0.0
H858 H 0.42581 0.27138 0.20729 0.0
H859 H 0.39116 0.25382 0.22259 0.0
C860 C 0.48015 0.30633 0.24922 0.0
C861 C 0.46911 0.29501 0.26429 0.0
C862 C 0.46508 0.27891 0.23757 0.0
C863 C 0.43794 0.23985 0.24071 0.0
C864 C 0.4256 0.22886 0.2557 0.0
H865 H 0.33847 0.08218 0.16379 0.0
H866 H 0.34565 0.11861 0.1871 0.0
C867 C 0.44112 0.25617 0.26739 0.0
C868 C 0.42532 0.21007 0.22858 0.0
H869 H 0.39254 0.19106 0.19216 0.0
C870 C 0.43086 0.17814 0.2308 0.0
C871 C 0.40974 0.21377 0.21469 0.0
C872 C 0.39994 0.24539 0.21197 0.0
C873 C 0.42265 0.15069 0.21931 0.0
C874 C 0.40983 0.15605 0.20503 0.0
C875 C 0.4029 0.18715 0.20302 0.0
C876 C 0.4041 0.13042 0.19188 0.0
C877 C 0.42756 0.11616 0.22269 0.0
C878 C 0.43431 0.12442 0.18689 0.0
C879 C 0.42982 0.10286 0.17377 0.0
C880 C 0.39545 0.08788 0.16528 0.0
C881 C 0.36514 0.09346 0.17028 0.0
C882 C 0.36931 0.11433 0.18353 0.0
H883 H 0.42383 0.10905 0.23496 0.0
H884 H 0.4064 0.09002 0.21626 0.0
H885 H 0.45742 0.12321 0.21954 0.0
H886 H 0.46185 0.13748 0.19284 0.0
H887 H 0.45367 0.09921 0.16993 0.0
H888 H 0.21083 0.40699 0.43864 0.0
H889 H 0.241 0.38625 0.41955 0.0
H890 H 0.21774 0.44971 0.38542 0.0
H891 H 0.18922 0.47214 0.40465 0.0
H892 H 0.22033 0.34631 0.39455 0.0
H893 H 0.33238 0.49715 0.38057 0.0
H894 H 0.29957 0.48576 0.39629 0.0
H895 H 0.28444 0.48937 0.3774 0.0
C896 C 0.21164 0.41609 0.42703 0.0
C897 C 0.19802 0.44151 0.42315 0.0
C898 C 0.22906 0.40434 0.41613 0.0
C899 C 0.23279 0.41742 0.40113 0.0
C900 C 0.21654 0.44044 0.39703 0.0
H901 H 0.28093 0.32256 0.3227 0.0
H902 H 0.25349 0.33616 0.34479 0.0
C903 C 0.19981 0.45285 0.40798 0.0
C904 C 0.25437 0.40769 0.3899 0.0
H905 H 0.32625 0.44789 0.3634 0.0
C906 C 0.24372 0.36856 0.38783 0.0
C907 C 0.28581 0.43676 0.38147 0.0
C908 C 0.30152 0.47961 0.38417 0.0
C909 C 0.26253 0.35761 0.37713 0.0
C910 C 0.29179 0.38643 0.36784 0.0
C911 C 0.30349 0.42567 0.37035 0.0
C912 C 0.30906 0.37658 0.35488 0.0
C913 C 0.25104 0.31527 0.37608 0.0
C914 C 0.34959 0.39559 0.35288 0.0
C915 C 0.36547 0.38899 0.33986 0.0
C916 C 0.34111 0.36308 0.32863 0.0
C917 C 0.30062 0.34328 0.33094 0.0
C918 C 0.28481 0.35041 0.34377 0.0
H919 H 0.24066 0.3005 0.38718 0.0
H920 H 0.22672 0.30043 0.36789 0.0
H921 H 0.27565 0.31163 0.37228 0.0
H922 H 0.36894 0.41615 0.36125 0.0
H923 H 0.39672 0.40511 0.33837 0.0
H924 H 0.7559 0.16084 0.60396 0.0
H925 H 0.81517 0.1797 0.58932 0.0
H926 H 0.82124 0.2879 0.57749 0.0
H927 H 0.76283 0.26961 0.59213 0.0
H928 H 0.82778 0.19692 0.55891 0.0
H929 H 0.93123 0.32474 0.59254 0.0
H930 H 0.88409 0.28884 0.59965 0.0
H931 H 0.88882 0.32722 0.58742 0.0
C932 C 0.76994 0.1886 0.59828 0.0
C933 C 0.75471 0.21369 0.5993 0.0
C934 C 0.80386 0.19944 0.58997 0.0
C935 C 0.82319 0.23569 0.58267 0.0
C936 C 0.80752 0.26034 0.58342 0.0
H937 H 0.95203 0.32141 0.50343 0.0
H938 H 0.90858 0.29974 0.52526 0.0
C939 C 0.77377 0.24955 0.59167 0.0
C940 C 0.85819 0.24708 0.57333 0.0
H941 H 0.94965 0.32288 0.56649 0.0
C942 C 0.85473 0.22402 0.56076 0.0
C943 C 0.89353 0.28225 0.57585 0.0
C944 C 0.89982 0.30696 0.5897 0.0
C945 C 0.88463 0.23656 0.55006 0.0
C946 C 0.91862 0.27318 0.55193 0.0
C947 C 0.9233 0.29503 0.56502 0.0
C948 C 0.94739 0.29055 0.53961 0.0
C949 C 0.87906 0.21125 0.53648 0.0
C950 C 0.9843 0.29412 0.54074 0.0
C951 C 1.00933 0.30657 0.52822 0.0
C952 C 0.99756 0.31551 0.5145 0.0
C953 C 0.96155 0.31413 0.5138 0.0
C954 C 0.93673 0.30177 0.52623 0.0
H955 H 0.85636 0.18052 0.53853 0.0
H956 H 0.86981 0.22212 0.52666 0.0
H957 H 0.90669 0.2123 0.53346 0.0
H958 H 0.99301 0.28575 0.55104 0.0
H959 H 1.0369 0.30731 0.52902 0.0
H960 H 0.74181 1.02068 0.67469 0.0
H961 H 0.72486 0.97847 0.69698 0.0
H962 H 0.65068 0.87885 0.66937 0.0
H963 H 0.66752 0.92077 0.64709 0.0
H964 H 0.65302 0.92427 0.71074 0.0
H965 H 0.73057 0.8523 0.68721 0.0
H966 H 0.73623 0.897 0.67959 0.0
H967 H 0.6939 0.85128 0.67498 0.0
C968 C 0.7212 0.98992 0.67346 0.0
C969 C 0.70634 0.97387 0.65915 0.0
C970 C 0.71177 0.96584 0.68616 0.0
C971 C 0.68741 0.92547 0.6847 0.0
C972 C 0.67037 0.90981 0.67063 0.0
H973 H 0.6002 0.72912 0.74547 0.0
H974 H 0.62054 0.77159 0.72323 0.0
C975 C 0.67984 0.93378 0.65795 0.0
C976 C 0.68096 0.8995 0.69771 0.0
H977 H 0.69462 0.82547 0.70977 0.0
C978 C 0.66227 0.90281 0.71058 0.0
C979 C 0.69316 0.87158 0.69743 0.0
C980 C 0.7149 0.86793 0.68413 0.0
C981 C 0.65463 0.87827 0.72309 0.0
C982 C 0.66671 0.85026 0.72279 0.0
C983 C 0.6855 0.84702 0.70994 0.0
C984 C 0.65939 0.82375 0.73569 0.0
C985 C 0.63288 0.88191 0.7364 0.0
C986 C 0.67623 0.83873 0.74984 0.0
C987 C 0.66478 0.81462 0.76253 0.0
C988 C 0.6364 0.77507 0.76125 0.0
C989 C 0.62209 0.75946 0.74682 0.0
C990 C 0.63352 0.7837 0.73412 0.0
H991 H 0.61797 0.89837 0.73343 0.0
H992 H 0.61089 0.85279 0.74068 0.0
H993 H 0.65373 0.89764 0.7457 0.0
H994 H 0.69696 0.86943 0.75118 0.0
H995 H 0.67668 0.82742 0.77347 0.0
H996 H 0.35987 0.40256 0.92749 0.0
H997 H 0.37137 0.41639 0.90047 0.0
H998 H 0.49378 0.45903 0.90748 0.0
H999 H 0.482 0.44334 0.93424 0.0
H1000 H 0.41121 0.49078 0.89695 0.0
H1001 H 0.48579 0.43042 0.86389 0.0
H1002 H 0.45883 0.40707 0.88087 0.0
H1003 H 0.50885 0.44566 0.882 0.0
C1004 C 0.38887 0.41305 0.92308 0.0
C1005 C 0.42028 0.42302 0.9329 0.0
C1006 C 0.39539 0.4207 0.90763 0.0
C1007 C 0.43351 0.43934 0.90195 0.0
C1008 C 0.46403 0.44424 0.91148 0.0
H1009 H 0.58683 0.6404 0.85578 0.0
H1010 H 0.55147 0.57794 0.86892 0.0
C1011 C 0.45735 0.43567 0.92687 0.0
C1012 C 0.44289 0.46395 0.88828 0.0
H1013 H 0.50578 0.49912 0.85851 0.0
C1014 C 0.43083 0.4917 0.88823 0.0
C1015 C 0.4688 0.46551 0.877 0.0
C1016 C 0.48092 0.43522 0.87589 0.0
C1017 C 0.44652 0.52287 0.87811 0.0
C1018 C 0.47446 0.52593 0.86751 0.0
C1019 C 0.48456 0.49677 0.86678 0.0
C1020 C 0.49617 0.56131 0.85828 0.0
C1021 C 0.43528 0.55385 0.87969 0.0
C1022 C 0.47672 0.57234 0.84792 0.0
C1023 C 0.49656 0.60834 0.84072 0.0
C1024 C 0.53634 0.63353 0.84357 0.0
C1025 C 0.55605 0.62181 0.85356 0.0
C1026 C 0.53605 0.58599 0.8609 0.0
H1027 H 0.41897 0.55066 0.89029 0.0
H1028 H 0.46147 0.58332 0.87955 0.0
H1029 H 0.41644 0.55176 0.87003 0.0
H1030 H 0.44605 0.55339 0.84561 0.0
H1031 H 0.48079 0.61614 0.83278 0.0
H1032 H 0.95314 0.38006 0.08191 0.0
H1033 H 0.98835 0.43639 0.06553 0.0
H1034 H 0.08979 0.47862 0.09408 0.0
H1035 H 1.05503 0.42194 0.11041 0.0
H1036 H 1.05686 0.52637 0.09328 0.0
H1037 H 0.07767 0.49016 0.0351 0.0
H1038 H 1.03104 0.45457 0.04228 0.0
H1039 H 0.07455 0.46074 0.05126 0.0
C1040 C 0.98347 0.40038 0.08433 0.0
C1041 C 1.00097 0.39695 0.09759 0.0
C1042 C 1.00372 0.43251 0.0749 0.0
C1043 C 1.04169 0.46169 0.07862 0.0
C1044 C 0.06061 0.4563 0.09098 0.0
H1045 H 1.05447 0.64076 0.02006 0.0
H1046 H 0.08949 0.62043 0.03702 0.0
C1047 C 1.04056 0.42382 0.1003 0.0
C1048 C 1.05691 0.50054 0.07179 0.0
H1049 H 1.05898 0.54029 0.03749 0.0
C1050 C 1.05894 0.53019 0.08109 0.0
C1051 C 1.06047 0.50593 0.05598 0.0
C1052 C 0.06125 0.47625 0.0456 0.0
C1053 C 1.05868 0.56245 0.07482 0.0
C1054 C 1.05631 0.56479 0.05896 0.0
C1055 C 1.06013 0.53814 0.0497 0.0
C1056 C 1.04058 0.58773 0.05189 0.0
C1057 C 1.05758 0.59195 0.0852 0.0
C1058 C 1.00203 0.57765 0.05511 0.0
C1059 C 0.98165 0.58863 0.04531 0.0
C1060 C 0.99959 0.60988 0.03218 0.0
C1061 C 1.03962 0.62399 0.03002 0.0
C1062 C 1.05983 0.61252 0.03971 0.0
H1063 H 0.07379 0.59491 0.09585 0.0
H1064 H 0.07009 0.62086 0.07968 0.0
H1065 H 1.02694 0.58206 0.08827 0.0
H1066 H 0.98642 0.55805 0.06434 0.0
H1067 H 0.95099 0.57762 0.04734 0.0
H1068 H 0.44999 1.01952 0.18905 0.0
H1069 H 0.5068 0.0534 0.20554 0.0
H1070 H 0.47387 0.9459 0.22882 0.0
H1071 H 0.41715 0.91174 0.21243 0.0
H1072 H 0.51194 1.01741 0.24737 0.0
H1073 H 0.59107 1.0235 0.19436 0.0
H1074 H 0.56062 0.04508 0.19484 0.0
H1075 H 0.53891 0.99321 0.19549 0.0
C1076 C 0.45404 1.00328 0.19802 0.0
C1077 C 0.42966 0.96266 0.1992 0.0
C1078 C 0.48662 1.02277 0.20739 0.0
C1079 C 0.49486 1.0019 0.21811 0.0
C1080 C 0.46802 0.96241 0.22051 0.0
H1081 H 0.62313 0.9255 0.25214 0.0
H1082 H 0.59658 0.95506 0.23535 0.0
C1083 C 0.43563 0.94288 0.21112 0.0
C1084 C 0.53375 1.01835 0.22505 0.0
H1085 H 0.62097 1.02496 0.21738 0.0
C1086 C 0.53653 1.0207 0.24086 0.0
C1087 C 0.56567 1.02274 0.21641 0.0
C1088 C 0.56425 1.021 0.19933 0.0
C1089 C 0.56877 1.02304 0.24836 0.0
C1090 C 0.59873 1.02296 0.23972 0.0
C1091 C 0.59787 1.02496 0.2239 0.0
C1092 C 0.62484 1.01091 0.24668 0.0
C1093 C 0.56858 1.02145 0.26544 0.0
C1094 C 0.65189 1.03356 0.25782 0.0
C1095 C 0.66722 1.01667 0.26746 0.0
C1096 C 0.65528 0.97688 0.26609 0.0
C1097 C 0.63235 0.95597 0.25364 0.0
C1098 C 0.61721 0.9729 0.24401 0.0
H1099 H 0.54198 1.01955 0.27037 0.0
H1100 H 0.57059 0.99593 0.26933 0.0
H1101 H 0.59421 0.048 0.26996 0.0
H1102 H 0.65862 0.06317 0.25986 0.0
H1103 H 0.68541 1.03384 0.2768 0.0
H1104 H 0.43952 0.39808 0.35806 0.0
H1105 H 0.45529 0.44663 0.37787 0.0
H1106 H 0.52464 0.40628 0.4006 0.0
H1107 H 0.50896 0.35771 0.38095 0.0
H1108 H 0.49136 0.44244 0.42017 0.0
H1109 H 0.57073 0.53043 0.36946 0.0
H1110 H 0.5185 0.50194 0.3692 0.0
H1111 H 0.54676 0.47812 0.36887 0.0
C1112 C 0.45681 0.39848 0.36762 0.0
C1113 C 0.47431 0.37519 0.36769 0.0
C1114 C 0.46568 0.4262 0.37893 0.0
C1115 C 0.49205 0.43072 0.39038 0.0
C1116 C 0.50444 0.40338 0.39174 0.0
H1117 H 0.69446 0.53819 0.42588 0.0
H1118 H 0.63521 0.51345 0.41077 0.0
C1119 C 0.49554 0.37562 0.38046 0.0
C1120 C 0.51447 0.46799 0.39846 0.0
H1121 H 0.59897 0.5536 0.39311 0.0
C1122 C 0.51395 0.46764 0.41432 0.0
C1123 C 0.54371 0.50092 0.39071 0.0
C1124 C 0.54526 0.5032 0.37363 0.0
C1125 C 0.54465 0.49723 0.4226 0.0
C1126 C 0.57646 0.52726 0.41473 0.0
C1127 C 0.57449 0.53021 0.39901 0.0
C1128 C 0.615 0.54851 0.42195 0.0
C1129 C 0.54504 0.49408 0.4396 0.0
C1130 C 0.62379 0.57756 0.43273 0.0
C1131 C 0.65791 0.59207 0.44127 0.0
C1132 C 0.68321 0.57719 0.43923 0.0
C1133 C 0.67548 0.55005 0.4277 0.0
C1134 C 0.64169 0.53595 0.41908 0.0
H1135 H 0.51744 0.46964 0.44405 0.0
H1136 H 0.56945 0.48979 0.44317 0.0
H1137 H 0.54977 0.52154 0.4448 0.0
H1138 H 0.60346 0.58755 0.43504 0.0
H1139 H 0.66301 0.61291 0.45014 0.0
H1140 H 0.12561 0.7197 0.60174 0.0
H1141 H 0.13162 0.71216 0.57442 0.0
H1142 H 0.18922 0.64683 0.58387 0.0
H1143 H 0.18396 0.65456 0.61083 0.0
H1144 H 0.22579 0.70594 0.5613 0.0
H1145 H 0.06693 0.60727 0.55148 0.0
H1146 H 0.08383 0.65415 0.56007 0.0
H1147 H 0.08696 0.61691 0.57037 0.0
C1148 C 0.13959 0.70381 0.59793 0.0
C1149 C 0.15421 0.6876 0.6084 0.0
C1150 C 0.14297 0.69957 0.58237 0.0
C1151 C 0.16084 0.67896 0.57721 0.0
C1152 C 0.1756 0.66311 0.58767 0.0
H1153 H 0.15369 0.51864 0.5204 0.0
H1154 H 0.146 0.56213 0.53769 0.0
C1155 C 0.17238 0.66739 0.60309 0.0
C1156 C 0.16335 0.67174 0.56102 0.0
H1157 H 0.10984 0.60594 0.53371 0.0
C1158 C 0.20049 0.68501 0.55495 0.0
C1159 C 0.13011 0.64463 0.55288 0.0
C1160 C 0.08959 0.62968 0.55895 0.0
C1161 C 0.20557 0.66846 0.54179 0.0
C1162 C 0.1724 0.63864 0.5344 0.0
C1163 C 0.13511 0.62861 0.53954 0.0
C1164 C 0.17576 0.61282 0.52328 0.0
C1165 C 0.24635 0.68026 0.53681 0.0
C1166 C 0.19504 0.627 0.50947 0.0
C1167 C 0.20014 0.60231 0.4997 0.0
C1168 C 0.18546 0.56302 0.50352 0.0
C1169 C 0.16546 0.5488 0.5172 0.0
C1170 C 0.16081 0.57354 0.52702 0.0
H1171 H 0.26868 0.70013 0.54503 0.0
H1172 H 0.2495 0.65423 0.53532 0.0
H1173 H 0.25235 0.69545 0.52576 0.0
H1174 H 0.20622 0.65706 0.50629 0.0
H1175 H 0.2151 0.61387 0.48907 0.0
H1176 H 0.4914 0.08851 0.77871 0.0
H1177 H 0.53338 0.07374 0.76328 0.0
H1178 H 0.60817 0.19591 0.75425 0.0
H1179 H 0.56633 0.21116 0.76963 0.0
H1180 H 0.55817 0.10256 0.7307 0.0
H1181 H 0.67726 0.1487 0.77291 0.0
H1182 H 0.62746 0.13258 0.77814 0.0
H1183 H 0.65744 0.1804 0.77051 0.0
C1184 C 0.5165 0.11224 0.77328 0.0
C1185 C 0.52561 0.15104 0.77534 0.0
C1186 C 0.5405 0.10371 0.76459 0.0
C1187 C 0.57404 0.13385 0.75799 0.0
C1188 C 0.58257 0.17245 0.75955 0.0
H1189 H 0.75134 0.19459 0.69729 0.0
H1190 H 0.71524 0.18439 0.72081 0.0
C1191 C 0.55843 0.18103 0.76814 0.0
C1192 C 0.59959 0.12514 0.7489 0.0
H1193 H 0.6918 0.14004 0.74751 0.0
C1194 C 0.58713 0.10994 0.7344 0.0
C1195 C 0.63705 0.13473 0.75398 0.0
C1196 C 0.6507 0.14975 0.76979 0.0
C1197 C 0.61239 0.10672 0.72428 0.0
C1198 C 0.65073 0.11807 0.72908 0.0
C1199 C 0.66237 0.1312 0.74394 0.0
C1200 C 0.68028 0.12194 0.71808 0.0
C1201 C 0.5986 0.09389 0.70824 0.0
C1202 C 0.67458 0.08987 0.70949 0.0
C1203 C 0.69453 0.09575 0.69591 0.0
C1204 C 0.72108 0.13365 0.69109 0.0
C1205 C 0.73084 0.16515 0.70078 0.0
C1206 C 0.71027 0.15932 0.71421 0.0
H1207 H 0.57068 0.09291 0.7058 0.0
H1208 H 0.62061 0.11381 0.69998 0.0
H1209 H 0.59406 0.06428 0.70642 0.0
H1210 H 0.65219 0.06073 0.71255 0.0
H1211 H 0.6871 0.07099 0.68866 0.0
H1212 H 0.43694 0.14581 0.11605 0.0
H1213 H 0.43117 0.18397 0.09562 0.0
H1214 H 0.33044 0.08116 0.07843 0.0
H1215 H 0.33526 0.0429 0.09927 0.0
H1216 H 0.43179 0.1788 0.06476 0.0
H1217 H 0.28928 0.15577 0.08484 0.0
H1218 H 0.31923 0.1431 0.09611 0.0
H1219 H 0.29025 0.11193 0.0809 0.0
C1220 C 0.41357 0.13129 0.1079 0.0
C1221 C 0.38617 0.0915 0.10938 0.0
C1222 C 0.41042 0.1531 0.0962 0.0
C1223 C 0.37985 0.13559 0.08574 0.0
C1224 C 0.3537 0.0954 0.08663 0.0
H1225 H 0.31922 0.22789 0.00852 0.0
H1226 H 0.32115 0.1873 0.02897 0.0
C1227 C 0.35678 0.07349 0.0984 0.0
C1228 C 0.37515 0.15996 0.07418 0.0
H1229 H 0.31373 0.19128 0.06209 0.0
C1230 C 0.40601 0.18156 0.06418 0.0
C1231 C 0.34155 0.16369 0.07355 0.0
C1232 C 0.30829 0.1427 0.08449 0.0
C1233 C 0.40401 0.20651 0.05344 0.0
C1234 C 0.37045 0.21019 0.05282 0.0
C1235 C 0.33946 0.18844 0.06271 0.0
C1236 C 0.36654 0.23542 0.04151 0.0
C1237 C 0.43752 0.22831 0.04267 0.0
C1238 C 0.39048 0.27601 0.04213 0.0
C1239 C 0.38928 0.29931 0.0305 0.0
C1240 C 0.36429 0.28218 0.01809 0.0
C1241 C 0.33897 0.24172 0.01792 0.0
C1242 C 0.33999 0.21855 0.02957 0.0
H1243 H 0.458 0.21694 0.04282 0.0
H1244 H 0.42671 0.22653 0.03093 0.0
H1245 H 0.45385 0.25944 0.04597 0.0
H1246 H 0.41085 0.28951 0.05138 0.0
H1247 H 0.40919 0.33039 0.03084 0.0
H1248 H 0.27814 0.28761 0.28158 0.0
H1249 H 0.23397 0.2849 0.26164 0.0
H1250 H 0.3267 0.39059 0.24235 0.0
H1251 H 0.37119 0.39258 0.2621 0.0
H1252 H 0.21399 0.33982 0.25888 0.0
H1253 H 0.2769 0.32707 0.20478 0.0
H1254 H 0.29147 0.31725 0.22285 0.0
H1255 H 0.31154 0.3665 0.21628 0.0
C1256 C 0.28929 0.30942 0.27273 0.0
C1257 C 0.32793 0.34012 0.27319 0.0
C1258 C 0.26408 0.30801 0.26143 0.0
C1259 C 0.27705 0.33742 0.25046 0.0
C1260 C 0.31627 0.36712 0.25049 0.0
H1261 H 0.17448 0.42136 0.18653 0.0
H1262 H 0.21409 0.41268 0.20563 0.0
C1263 C 0.34166 0.3683 0.26174 0.0
C1264 C 0.2486 0.33942 0.24019 0.0
H1265 H 0.22976 0.34774 0.20312 0.0
C1266 C 0.21714 0.34103 0.24667 0.0
C1267 C 0.25283 0.34108 0.22429 0.0
C1268 C 0.2848 0.33749 0.21663 0.0
C1269 C 0.19045 0.34541 0.23769 0.0
C1270 C 0.19533 0.3481 0.22185 0.0
C1271 C 0.22633 0.34584 0.21532 0.0
C1272 C 0.16941 0.35457 0.21178 0.0
C1273 C 0.15792 0.34836 0.24517 0.0
C1274 C 0.13081 0.3251 0.20929 0.0
C1275 C 0.10806 0.32997 0.19836 0.0
C1276 C 0.12383 0.36428 0.18976 0.0
C1277 C 0.16177 0.39449 0.19292 0.0
C1278 C 0.18441 0.38959 0.20379 0.0
H1279 H 0.16165 0.35166 0.25764 0.0
H1280 H 0.15622 0.37346 0.24054 0.0
H1281 H 0.12984 0.32163 0.24272 0.0
H1282 H 0.11891 0.29775 0.21531 0.0
H1283 H 0.07907 0.30611 0.19602 0.0
H1284 H 1.0421 0.26965 0.45287 0.0
H1285 H 1.00296 0.22813 0.43178 0.0
H1286 H 0.91046 0.25046 0.4432 0.0
H1287 H 0.94933 0.29208 0.4641 0.0
H1288 H 0.88639 0.17021 0.43927 0.0
H1289 H 0.97583 0.26217 0.39132 0.0
H1290 H 1.00124 0.25123 0.4056 0.0
H1291 H 0.98052 0.28097 0.41028 0.0
C1292 C 1.01368 0.26616 0.45072 0.0
C1293 C 0.99871 0.28396 0.46019 0.0
C1294 C 0.99133 0.24238 0.43871 0.0
C1295 C 0.95384 0.23628 0.43595 0.0
C1296 C 0.93922 0.2546 0.44521 0.0
H1297 H 0.80398 0.15136 0.35874 0.0
H1298 H 0.84351 0.18625 0.38072 0.0
C1299 C 0.96145 0.27831 0.45716 0.0
C1300 C 0.92923 0.21028 0.42362 0.0
H1301 H 0.92086 0.20189 0.38519 0.0
C1302 C 0.89397 0.17693 0.42744 0.0
C1303 C 0.93916 0.21939 0.40823 0.0
C1304 C 0.97608 0.25551 0.40352 0.0
C1305 C 0.86811 0.15262 0.41622 0.0
C1306 C 0.878 0.16181 0.40082 0.0
C1307 C 0.91348 0.19489 0.39702 0.0
C1308 C 0.85116 0.13883 0.38841 0.0
C1309 C 0.82988 0.11804 0.42089 0.0
C1310 C 0.84166 0.10025 0.38564 0.0
C1311 C 0.81898 0.08016 0.37305 0.0
C1312 C 0.8058 0.09855 0.363 0.0
C1313 C 0.81413 0.13663 0.36618 0.0
C1314 C 0.83668 0.15659 0.37873 0.0
H1315 H 0.8235 0.11919 0.43305 0.0
H1316 H 0.80565 0.11633 0.414 0.0
H1317 H 0.83093 0.09101 0.41891 0.0
H1318 H 0.85293 0.08618 0.3929 0.0
H1319 H 0.81334 0.051 0.37078 0.0
H1320 H 0.83378 0.84529 0.5121 0.0
H1321 H 0.83727 0.88724 0.53286 0.0
H1322 H 0.75842 0.7864 0.55893 0.0
H1323 H 0.75386 0.74411 0.53781 0.0
H1324 H 0.73312 0.83727 0.55643 0.0
H1325 H 0.88756 0.91758 0.57378 0.0
H1326 H 0.88235 0.92058 0.55374 0.0
H1327 H 0.86761 0.87412 0.56234 0.0
C1328 C 0.8179 0.83201 0.52241 0.0
C1329 C 0.79327 0.79151 0.52333 0.0
C1330 C 0.82019 0.85603 0.53433 0.0
C1331 C 0.79835 0.84002 0.54751 0.0
C1332 C 0.77564 0.79935 0.54886 0.0
H1333 H 0.79773 0.97215 0.62516 0.0
H1334 H 0.81057 0.93378 0.60697 0.0
C1335 C 0.77324 0.77521 0.53687 0.0
C1336 C 0.79541 0.86592 0.55886 0.0
H1337 H 0.84931 0.94706 0.58037 0.0
C1338 C 0.7585 0.861 0.56181 0.0
C1339 C 0.8285 0.89683 0.56589 0.0
C1340 C 0.86866 0.90236 0.56389 0.0
C1341 C 0.75381 0.88656 0.57133 0.0
C1342 C 0.78708 0.91861 0.57776 0.0
C1343 C 0.82393 0.92301 0.57514 0.0
C1344 C 0.78379 0.94623 0.58808 0.0
C1345 C 0.71317 0.87855 0.5746 0.0
C1346 C 0.76608 0.96749 0.58334 0.0
C1347 C 0.75838 0.98926 0.59379 0.0
C1348 C 0.76851 0.99016 0.60908 0.0
C1349 C 0.78897 0.97135 0.61349 0.0
C1350 C 0.79647 0.94955 0.6031 0.0
H1351 H 0.69092 0.84798 0.57198 0.0
H1352 H 0.71012 0.88441 0.58666 0.0
H1353 H 0.70694 0.89782 0.56749 0.0
H1354 H 0.75694 0.96607 0.57169 0.0
H1355 H 0.74269 1.00358 0.59009 0.0
H1356 H 0.86426 0.80913 0.79327 0.0
H1357 H 0.89944 0.81027 0.77051 0.0
H1358 H 0.79078 0.73447 0.74801 0.0
H1359 H 0.75525 0.73217 0.77105 0.0
H1360 H 0.84275 0.70875 0.74568 0.0
H1361 H 0.91496 0.86451 0.73024 0.0
H1362 H 0.92382 0.85728 0.74955 0.0
H1363 H 0.8751 0.84265 0.74348 0.0
C1364 C 0.84779 0.79292 0.78344 0.0
C1365 C 0.80696 0.77033 0.78399 0.0
C1366 C 0.86795 0.79396 0.77038 0.0
C1367 C 0.84776 0.77284 0.75749 0.0
C1368 C 0.80692 0.75117 0.75781 0.0
H1369 H 0.95659 0.78429 0.67086 0.0
H1370 H 0.9195 0.79013 0.69169 0.0
C1371 C 0.78665 0.75008 0.77093 0.0
C1372 C 0.86958 0.77104 0.7442 0.0
H1373 H 0.94091 0.82743 0.719 0.0
C1374 C 0.86395 0.73466 0.73975 0.0
C1375 C 0.89702 0.80482 0.73639 0.0
C1376 C 0.90284 0.84447 0.74005 0.0
C1377 C 0.88568 0.73122 0.72797 0.0
C1378 C 0.91445 0.7652 0.72064 0.0
C1379 C 0.91934 0.80148 0.7248 0.0
C1380 C 0.93887 0.7635 0.70831 0.0
C1381 C 0.87728 0.69118 0.72335 0.0
C1382 C 0.96303 0.74763 0.71083 0.0
C1383 C 0.98406 0.74393 0.6989 0.0
C1384 C 0.98144 0.75624 0.68424 0.0
C1385 C 0.95863 0.7738 0.68195 0.0
C1386 C 0.93759 0.77738 0.69386 0.0
H1387 H 0.84803 0.66826 0.72718 0.0
H1388 H 0.87897 0.68902 0.71088 0.0
H1389 H 0.89916 0.68523 0.72861 0.0
H1390 H 0.96515 0.73754 0.72199 0.0
H1391 H 1.00129 0.73023 0.70103 0.0
H1392 H 0.12654 0.83552 0.95554 0.0
H1393 H 0.16119 0.88124 0.93507 0.0
H1394 H 0.12599 0.78559 0.90404 0.0
H1395 H 0.09155 0.7394 0.9246 0.0
H1396 H 0.2232 0.87911 0.919 0.0
H1397 H 0.10534 0.86582 0.88099 0.0
H1398 H 0.09715 0.8516 0.90068 0.0
H1399 H 0.10189 0.82091 0.88698 0.0
C1400 C 0.12588 0.82418 0.94432 0.0
C1401 C 0.10678 0.78385 0.9417 0.0
C1402 C 0.14553 0.85035 0.93265 0.0
C1403 C 0.14608 0.83677 0.91808 0.0
C1404 C 0.12547 0.79661 0.9152 0.0
H1405 H 0.30564 0.93912 0.8445 0.0
H1406 H 0.26551 0.90025 0.86574 0.0
C1407 C 0.10581 0.77029 0.92692 0.0
C1408 C 0.17122 0.86452 0.90636 0.0
H1409 H 0.17009 0.90251 0.87182 0.0
C1410 C 0.21161 0.88442 0.90872 0.0
C1411 C 0.1559 0.87148 0.89304 0.0
C1412 C 0.11268 0.85162 0.89024 0.0
C1413 C 0.2372 0.91049 0.89792 0.0
C1414 C 0.22196 0.91673 0.88445 0.0
C1415 C 0.18156 0.89755 0.88221 0.0
C1416 C 0.24772 0.94149 0.87221 0.0
C1417 C 0.2804 0.93106 0.90089 0.0
C1418 C 0.25118 0.97767 0.86898 0.0
C1419 C 0.27438 1.00012 0.85692 0.0
C1420 C 0.29383 0.98627 0.84783 0.0
C1421 C 0.29079 0.95033 0.85131 0.0
C1422 C 0.26799 0.92818 0.86342 0.0
H1423 H 0.28713 0.92851 0.91291 0.0
H1424 H 0.29379 0.91807 0.89368 0.0
H1425 H 0.29403 0.96234 0.89791 0.0
H1426 H 0.23562 0.98828 0.87568 0.0
H1427 H 0.27602 1.02756 0.85437 0.0
H1428 H 0.83982 0.57159 0.00074 0.0
H1429 H 0.77378 0.56134 0.00266 0.0
H1430 H 0.744 0.50017 0.96009 0.0
H1431 H 0.8093 0.50911 0.95838 0.0
H1432 H 0.73529 0.58585 -0.01336 0.0
H1433 H 0.6504 0.4257 -0.01733 0.0
H1434 H 0.70242 0.45161 -0.01478 0.0
H1435 H 0.6816 0.44656 0.96663 0.0
C1436 C 0.81906 0.55525 -0.0081 0.0
C1437 C 0.83033 0.54078 0.9795 0.0
C1438 C 0.78106 0.54956 -0.00703 0.0
C1439 C 0.75286 0.52925 -0.01832 0.0
C1440 C 0.76415 0.51481 0.96929 0.0
H1441 H 0.5165 0.48971 0.96299 0.0
H1442 H 0.58133 0.49634 0.96147 0.0
C1443 C 0.80197 0.52016 0.96828 0.0
C1444 C 0.71258 0.52482 -0.01748 0.0
H1445 H 0.6147 0.45889 0.9795 0.0
C1446 C 0.70906 0.55792 -0.01481 0.0
C1447 C 0.67763 0.48854 0.98064 0.0
C1448 C 0.67811 0.45105 0.97879 0.0
C1449 C 0.67245 0.55595 -0.01426 0.0
C1450 C 0.63767 0.51983 -0.01633 0.0
C1451 C 0.64105 0.48673 -0.01901 0.0
C1452 C 0.59771 0.51578 -0.01543 0.0
C1453 C 0.67133 0.59291 -0.01174 0.0
C1454 C 0.58448 0.52404 -0.00193 0.0
C1455 C 0.54715 0.5199 -0.00098 0.0
C1456 C 0.52164 0.50752 -0.01353 0.0
C1457 C 0.53498 0.49935 0.97293 0.0
C1458 C 0.57225 0.50309 0.97204 0.0
H1459 H 0.69997 0.61918 -0.01399 0.0
H1460 H 0.64909 0.59378 -0.01911 0.0
H1461 H 0.66345 0.59409 0.00021 0.0
H1462 H 0.60293 0.5333 0.00802 0.0
H1463 H 0.53829 0.52643 0.00969 0.0
H1464 H 0.32987 0.77986 0.12374 0.0
H1465 H 0.27204 0.7152 0.12526 0.0
H1466 H 0.24391 0.74446 0.16856 0.0
H1467 H 0.30104 0.80963 0.16689 0.0
H1468 H 0.24701 0.6545 0.14316 0.0
H1469 H 0.1418 0.70633 0.14829 0.0
H1470 H 0.1923 0.73871 0.14389 0.0
H1471 H 0.17722 0.72466 0.16319 0.0
C1472 C 0.31158 0.77264 0.13366 0.0
C1473 C 0.32049 0.80056 0.14516 0.0
C1474 C 0.27821 0.73539 0.1345 0.0
C1475 C 0.25247 0.72461 0.14685 0.0
C1476 C 0.26214 0.75194 0.15862 0.0
H1477 H 1.04144 0.51242 0.17507 0.0
H1478 H 0.09968 0.57663 0.17279 0.0
C1479 C 0.29534 0.78934 0.15773 0.0
C1480 C 0.21591 0.68498 0.14739 0.0
H1481 H 0.11702 0.63886 0.15275 0.0
C1482 C 0.21863 0.65129 0.14516 0.0
C1483 C 0.17834 0.68003 0.1499 0.0
C1484 C 0.17209 0.71435 0.15129 0.0
C1485 C 0.18559 0.61346 0.14575 0.0
C1486 C 0.14825 0.6086 0.14853 0.0
C1487 C 0.14543 0.64219 0.15068 0.0
C1488 C 0.11199 0.56906 0.14962 0.0
C1489 C 0.19111 0.57883 0.14377 0.0
C1490 C 0.0985 0.54299 0.13729 0.0
C1491 C 0.06475 0.50602 0.13853 0.0
C1492 C 1.04349 0.49392 0.15217 0.0
C1493 C 1.05684 0.52033 0.16439 0.0
C1494 C 0.09033 0.5573 0.16311 0.0
H1495 H 0.22204 0.5868 0.14514 0.0
H1496 H 0.17327 0.55566 0.15205 0.0
H1497 H 0.18158 0.56672 0.13223 0.0
H1498 H 0.11398 0.55128 0.12664 0.0
H1499 H 1.05559 0.48677 0.12883 0.0
H1500 H 0.59325 0.30851 0.29253 0.0
H1501 H 0.60165 0.25174 0.29436 0.0
H1502 H 0.54223 0.22206 0.33724 0.0
H1503 H 0.53257 0.27813 0.33522 0.0
H1504 H 0.6376 0.22763 0.31219 0.0
H1505 H 0.48131 0.11931 0.31748 0.0
H1506 H 0.49815 0.16951 0.31301 0.0
H1507 H 0.49763 0.15474 0.33234 0.0
C1508 C 0.58204 0.29012 0.30243 0.0
C1509 C 0.56202 0.29837 0.3137 0.0
C1510 C 0.58684 0.2573 0.30345 0.0
C1511 C 0.5718 0.23132 0.31576 0.0
C1512 C 0.55309 0.24036 0.32731 0.0
H1513 H 0.5779 1.02199 0.34403 0.0
H1514 H 0.57037 0.07931 0.34183 0.0
C1515 C 0.54797 0.27302 0.32624 0.0
C1516 C 0.57601 0.19531 0.31647 0.0
H1517 H 0.52538 0.0963 0.32203 0.0
C1518 C 0.61287 0.19897 0.31425 0.0
C1519 C 0.54404 0.15729 0.31907 0.0
C1520 C 0.50302 0.14982 0.32045 0.0
C1521 C 0.6187 0.16655 0.31491 0.0
C1522 C 0.58686 0.12875 0.31775 0.0
C1523 C 0.55002 0.125 0.31992 0.0
C1524 C 0.59124 0.093 0.31881 0.0
C1525 C 0.65932 0.17328 0.31294 0.0
C1526 C 0.60493 0.08044 0.30656 0.0
C1527 C 0.60908 0.0472 0.30776 0.0
C1528 C 0.59975 1.02539 0.32128 0.0
C1529 C 0.5856 1.0378 0.33344 0.0
C1530 C 0.5812 0.07079 0.33219 0.0
H1531 H 0.68171 0.20438 0.31445 0.0
H1532 H 0.66519 0.15561 0.32112 0.0
H1533 H 0.66233 0.16442 0.30134 0.0
H1534 H 0.61225 0.09623 0.29596 0.0
H1535 H 0.61994 1.03879 0.29809 0.0
H1536 H 0.32753 0.57489 0.46437 0.0
H1537 H 0.39289 0.58344 0.46668 0.0
H1538 H 0.343 0.46166 0.47676 0.0
H1539 H 0.27744 0.45288 0.47461 0.0
H1540 H 0.42883 0.56683 0.49223 0.0
H1541 H 0.4205 0.48021 0.44165 0.0
H1542 H 0.38764 0.49863 0.44455 0.0
H1543 H 0.38084 0.45665 0.45479 0.0
C1544 C 0.33024 0.54978 0.46709 0.0
C1545 C 0.29664 0.51309 0.46928 0.0
C1546 C 0.36791 0.55479 0.46843 0.0
C1547 C 0.37343 0.52321 0.47174 0.0
C1548 C 0.33997 0.48656 0.47399 0.0
H1549 H 0.57565 0.48991 0.47915 0.0
H1550 H 0.51133 0.48343 0.47692 0.0
C1551 C 0.30226 0.48161 0.47285 0.0
C1552 C 0.41397 0.52876 0.47303 0.0
H1553 H 0.47625 0.50255 0.45708 0.0
C1554 C 0.4392 0.55284 0.4845 0.0
C1555 C 0.42794 0.51056 0.46305 0.0
C1556 C 0.40307 0.48527 0.45022 0.0
C1557 C 0.47709 0.55836 0.4865 0.0
C1558 C 0.49134 0.54044 0.47642 0.0
C1559 C 0.46603 0.51652 0.46488 0.0
C1560 C 0.53167 0.54512 0.47784 0.0
C1561 C 0.50077 0.58225 0.49983 0.0
C1562 C 0.56567 0.582 0.47894 0.0
C1563 C 0.60285 0.58577 0.48052 0.0
C1564 C 0.60747 0.55283 0.48069 0.0
C1565 C 0.57361 0.51608 0.47914 0.0
C1566 C 0.53648 0.51231 0.47784 0.0
H1567 H 0.48195 0.58326 0.50889 0.0
H1568 H 0.51851 0.57047 0.50472 0.0
H1569 H 0.52058 0.61255 0.49607 0.0
H1570 H 0.56365 0.60813 0.47846 0.0
H1571 H 0.62807 0.6146 0.48144 0.0
H1572 H 0.75043 0.29445 0.65338 0.0
H1573 H 0.80569 0.361 0.65486 0.0
H1574 H 0.88313 0.31993 0.64154 0.0
H1575 H 0.82803 0.25359 0.63975 0.0
H1576 H 0.87074 0.39584 0.67172 0.0
H1577 H 0.916 0.40694 0.61192 0.0
H1578 H 0.87056 0.36733 0.6187 0.0
H1579 H 0.91517 0.36676 0.62149 0.0
C1580 C 0.77919 0.29945 0.65075 0.0
C1581 C 0.78434 0.26816 0.64639 0.0
C1582 C 0.81098 0.33778 0.65161 0.0
C1583 C 0.84901 0.34628 0.64802 0.0
C1584 C 0.85428 0.31491 0.64398 0.0
H1585 H 0.08171 0.55236 0.64771 0.0
H1586 H 1.02406 0.4878 0.64601 0.0
C1587 C 0.82254 0.27661 0.6431 0.0
C1588 C 0.88298 0.38759 0.64874 0.0
H1589 H 0.95999 0.45738 0.62839 0.0
C1590 C 0.89001 0.40929 0.66217 0.0
C1591 C 0.90858 0.40579 0.63636 0.0
C1592 C 0.90205 0.38569 0.62126 0.0
C1593 C 0.92202 0.44757 0.66371 0.0
C1594 C 0.94784 0.4656 0.65138 0.0
C1595 C 0.9406 0.44402 0.63791 0.0
C1596 C 0.98313 0.5061 0.65234 0.0
C1597 C 0.92858 0.46779 0.67877 0.0
C1598 C 0.9801 0.53894 0.65625 0.0
C1599 C 1.01343 0.57638 0.65726 0.0
C1600 C 1.05089 0.58226 0.65431 0.0
C1601 C 1.05366 0.54943 0.65014 0.0
C1602 C 1.02045 0.51216 0.64912 0.0
H1603 H 0.9131 0.44684 0.68806 0.0
H1604 H 0.96003 0.48462 0.6816 0.0
H1605 H 0.91732 0.48829 0.67822 0.0
H1606 H 0.95185 0.53574 0.65844 0.0
H1607 H 1.0098 0.6007 0.66041 0.0
H1608 H 0.60717 0.82845 0.82585 0.0
H1609 H 0.59764 0.88451 0.82842 0.0
H1610 H 0.49412 0.8265 0.80102 0.0
H1611 H 0.50369 0.77061 0.79823 0.0
H1612 H 0.53772 0.90075 0.79208 0.0
H1613 H 0.52371 0.90077 0.85436 0.0
H1614 H 0.56796 0.90307 0.8484 0.0
H1615 H 0.52195 0.86049 0.84424 0.0
C1616 C 0.58203 0.82725 0.8205 0.0
C1617 C 0.55612 0.79437 0.8119 0.0
C1618 C 0.57648 0.85952 0.82205 0.0
C1619 C 0.54473 0.86006 0.81512 0.0
C1620 C 0.5188 0.82722 0.80658 0.0
H1621 H 0.46987 1.03227 0.83374 0.0
H1622 H 0.47499 0.97317 0.83213 0.0
C1623 C 0.52428 0.79495 0.80504 0.0
C1624 C 0.53927 0.89512 0.81626 0.0
H1625 H 0.53093 0.95656 0.84138 0.0
C1626 C 0.53615 0.91276 0.8029 0.0
C1627 C 0.53654 0.91102 0.8303 0.0
C1628 C 0.53731 0.89268 0.84515 0.0
C1629 C 0.5313 0.94573 0.80316 0.0
C1630 C 0.53002 0.9625 0.8172 0.0
C1631 C 0.53225 0.94436 0.83057 0.0
C1632 C 0.52671 0.99883 0.81821 0.0
C1633 C 0.52683 0.96181 0.7883 0.0
C1634 C 0.55412 1.03362 0.81112 0.0
C1635 C 0.55122 0.06746 0.81202 0.0
C1636 C 0.52092 0.06797 0.82015 0.0
C1637 C 0.49357 1.03324 0.82735 0.0
C1638 C 0.49656 0.99929 0.82646 0.0
H1639 H 0.51657 0.93957 0.77919 0.0
H1640 H 0.50602 0.97265 0.78928 0.0
H1641 H 0.55547 0.9864 0.78483 0.0
H1642 H 0.57823 1.03483 0.80496 0.0
H1643 H 0.57301 0.09341 0.80632 0.0
H1644 H 0.51031 0.56434 0.80916 0.0
H1645 H 0.50273 0.49958 0.81166 0.0
H1646 H 0.62535 0.54785 0.80362 0.0
H1647 H 0.63324 0.613 0.8014 0.0
H1648 H 0.51343 0.45434 0.79221 0.0
H1649 H 0.61356 0.48375 0.84042 0.0
H1650 H 0.59811 0.5175 0.8347 0.0
H1651 H 0.63661 0.51569 0.8247 0.0
C1652 C 0.53583 0.56138 0.80796 0.0
C1653 C 0.57247 0.59436 0.80505 0.0
C1654 C 0.5314 0.52404 0.8094 0.0
C1655 C 0.56344 0.51819 0.80806 0.0
C1656 C 0.6001 0.55112 0.8051 0.0
H1657 H 0.5909 0.31113 0.80879 0.0
H1658 H 0.59958 0.37654 0.80672 0.0
C1659 C 0.60459 0.58859 0.80371 0.0
C1660 C 0.55806 0.47768 0.80932 0.0
H1661 H 0.59029 0.42308 0.8279 0.0
C1662 C 0.53019 0.44764 0.8001 0.0
C1663 C 0.57965 0.46819 0.81958 0.0
C1664 C 0.60837 0.49784 0.83052 0.0
C1665 C 0.52396 0.40928 0.80061 0.0
C1666 C 0.54568 0.39986 0.81081 0.0
C1667 C 0.57356 0.42985 0.82002 0.0
C1668 C 0.53997 0.35927 0.81205 0.0
C1669 C 0.4947 0.37934 0.78989 0.0
C1670 C 0.50363 0.32706 0.8159 0.0
C1671 C 0.49855 0.28935 0.81712 0.0
C1672 C 0.52964 0.28248 0.81454 0.0
C1673 C 0.56605 0.31482 0.81077 0.0
C1674 C 0.57115 0.35253 0.80963 0.0
H1675 H 0.48836 0.39309 0.78018 0.0
H1676 H 0.50518 0.36009 0.78544 0.0
H1677 H 0.46706 0.36103 0.79603 0.0
H1678 H 0.47912 0.3311 0.81818 0.0
H1679 H 0.47015 0.26557 0.8202 0.0
H1680 H 1.03779 0.52833 0.9538 0.0
H1681 H 0.09479 0.52036 0.9562 0.0
H1682 H 0.11522 0.56864 0.00119 0.0
H1683 H 1.05745 0.57541 -0.00096 0.0
H1684 H 0.16877 0.56855 0.95896 0.0
H1685 H 0.1272 0.47821 0.01069 0.0
H1686 H 0.09355 0.48853 0.00089 0.0
H1687 H 0.12901 0.52365 0.01375 0.0
C1688 C 1.05406 0.53687 0.96431 0.0
C1689 C 1.04231 0.55222 0.97626 0.0
C1690 C 0.08701 0.53239 0.96566 0.0
C1691 C 0.10964 0.54311 0.979 0.0
C1692 C 0.09812 0.55881 -0.00909 0.0
H1693 H 0.32771 0.54937 0.00529 0.0
H1694 H 0.27087 0.55786 0.00341 0.0
C1695 C 0.06492 0.56297 -0.01038 0.0
C1696 C 0.14571 0.53906 0.98012 0.0
H1697 H 0.19233 0.50359 0.00225 0.0
C1698 C 0.17357 0.55406 0.96842 0.0
C1699 C 0.15287 0.52033 -0.00758 0.0
C1700 C 0.12391 0.50142 0.00506 0.0
C1701 C 0.20789 0.55145 0.96876 0.0
C1702 C 0.21502 0.53281 -0.01895 0.0
C1703 C 0.18736 0.51798 -0.00721 0.0
C1704 C 0.25075 0.52829 -0.01807 0.0
C1705 C 0.23676 0.56968 0.95605 0.0
C1706 C 0.2591 0.50864 0.97056 0.0
C1707 C 0.29185 0.50368 0.97161 0.0
C1708 C 0.31755 0.51821 -0.01592 0.0
C1709 C 0.30919 0.53802 -0.00459 0.0
C1710 C 0.27631 0.54275 -0.00561 0.0
H1711 H 0.23278 0.59183 0.94989 0.0
H1712 H 0.2671 0.58365 0.96035 0.0
H1713 H 0.23253 0.54677 0.94783 0.0
H1714 H 0.23978 0.49634 0.96094 0.0
H1715 H 0.29667 0.48789 0.9627 0.0
H1716 H 0.81046 0.29896 0.1711 0.0
H1717 H 0.74594 0.24099 0.16953 0.0
H1718 H 0.77666 0.21088 0.12694 0.0
H1719 H 0.84177 0.26814 0.12871 0.0
H1720 H 0.686 0.21533 0.15143 0.0
H1721 H 0.73744 0.10957 0.14767 0.0
H1722 H 0.7699 0.16022 0.15185 0.0
H1723 H 0.7561 0.14431 0.13258 0.0
C1724 C 0.80361 0.28018 0.16133 0.0
C1725 C 0.8319 0.28858 0.15007 0.0
C1726 C 0.76643 0.24673 0.16046 0.0
C1727 C 0.75607 0.22042 0.1483 0.0
C1728 C 0.7838 0.22955 0.13674 0.0
H1729 H 0.54275 1.00966 0.12021 0.0
H1730 H 0.60729 0.06759 0.12238 0.0
C1731 C 0.82117 0.26281 0.13768 0.0
C1732 C 0.7164 0.18392 0.14771 0.0
H1733 H 0.67005 0.08483 0.14286 0.0
C1734 C 0.68274 0.18684 0.14966 0.0
C1735 C 0.71137 0.14621 0.1455 0.0
C1736 C 0.74561 0.13975 0.14444 0.0
C1737 C 0.64487 0.15387 0.14908 0.0
C1738 C 0.63994 0.1164 0.14659 0.0
C1739 C 0.67348 0.11336 0.14471 0.0
C1740 C 0.60034 0.08023 0.14558 0.0
C1741 C 0.61027 0.15953 0.1508 0.0
C1742 C 0.57457 0.06705 0.15797 0.0
C1743 C 0.53745 1.03346 0.15681 0.0
C1744 C 0.52488 1.01212 0.14318 0.0
C1745 C 0.55102 1.02515 0.13089 0.0
C1746 C 0.58818 0.05845 0.13211 0.0
H1747 H 0.61835 0.19047 0.14938 0.0
H1748 H 0.58732 0.14167 0.14241 0.0
H1749 H 0.59779 0.15006 0.16228 0.0
H1750 H 0.58319 0.08272 0.16859 0.0
H1751 H 0.51842 1.02455 0.16656 0.0
H1752 H 0.55422 0.78931 0.33796 0.0
H1753 H 0.54599 0.72419 0.33619 0.0
H1754 H 0.61401 0.75721 0.2953 0.0
H1755 H 0.62359 0.82293 0.29734 0.0
H1756 H 0.51355 0.66562 0.31784 0.0
H1757 H 0.67013 0.71295 0.31675 0.0
H1758 H 0.65298 0.74637 0.32051 0.0
H1759 H 0.65676 0.73318 0.30133 0.0
C1760 C 0.56742 0.78288 0.32852 0.0
C1761 C 0.58979 0.81206 0.31783 0.0
C1762 C 0.5627 0.74528 0.32753 0.0
C1763 C 0.58011 0.73521 0.31582 0.0
C1764 C 0.60125 0.76391 0.30481 0.0
H1765 H 0.57483 0.51957 0.28819 0.0
H1766 H 0.58287 0.58468 0.29024 0.0
C1767 C 0.60635 0.8017 0.30587 0.0
C1768 C 0.57574 0.69488 0.31514 0.0
H1769 H 0.62654 0.64624 0.31115 0.0
C1770 C 0.53846 0.66165 0.31648 0.0
C1771 C 0.60789 0.68872 0.31345 0.0
C1772 C 0.6492 0.72218 0.31309 0.0
C1773 C 0.53246 0.62332 0.31585 0.0
C1774 C 0.56451 0.61729 0.3139 0.0
C1775 C 0.60175 0.65038 0.31258 0.0
C1776 C 0.55994 0.57706 0.31293 0.0
C1777 C 0.49152 0.58943 0.31691 0.0
C1778 C 0.54492 0.55048 0.32507 0.0
C1779 C 0.54057 0.51297 0.32398 0.0
C1780 C 0.5509 0.50065 0.31067 0.0
C1781 C 0.56633 0.52753 0.29862 0.0
C1782 C 0.57102 0.56507 0.29978 0.0
H1783 H 0.46951 0.59843 0.31497 0.0
H1784 H 0.48671 0.56654 0.30857 0.0
H1785 H 0.4868 0.57653 0.32839 0.0
H1786 H 0.53669 0.55878 0.33548 0.0
H1787 H 0.52867 0.49347 0.33355 0.0
H1788 H 0.10938 0.56333 0.46431 0.0
H1789 H 1.05063 0.56811 0.46641 0.0
H1790 H 0.98034 0.44317 0.46531 0.0
H1791 H 1.03939 0.43816 0.46351 0.0
H1792 H 0.99 0.54758 0.44816 0.0
H1793 H 0.93338 0.46484 0.50147 0.0
H1794 H 0.98169 0.48011 0.49465 0.0
H1795 H 0.94035 0.43773 0.48681 0.0
C1796 C 0.08151 0.5367 0.46455 0.0
C1797 C 0.07957 0.50028 0.46377 0.0
C1798 C 1.04766 0.53953 0.46575 0.0
C1799 C 1.01048 0.5061 0.4663 0.0
C1800 C 1.00837 0.46961 0.46533 0.0
H1801 H 0.77442 0.47626 0.47366 0.0
H1802 H 0.83013 0.46631 0.47028 0.0
C1803 C 1.04234 0.46673 0.46416 0.0
C1804 C 0.97442 0.5099 0.46755 0.0
H1805 H 0.89244 0.48321 0.48879 0.0
C1806 C 0.96882 0.53349 0.4571 0.0
C1807 C 0.9462 0.49165 0.47914 0.0
C1808 C 0.95076 0.46746 0.49125 0.0
C1809 C 0.93627 0.53898 0.4578 0.0
C1810 C 0.90826 0.52105 0.46947 0.0
C1811 C 0.91356 0.49708 0.47981 0.0
C1812 C 0.87383 0.5273 0.47126 0.0
C1813 C 0.93184 0.56344 0.44577 0.0
C1814 C 0.87911 0.56488 0.47308 0.0
C1815 C 0.84715 0.57069 0.475 0.0
C1816 C 0.80863 0.53911 0.47521 0.0
C1817 C 0.80337 0.50147 0.47343 0.0
C1818 C 0.83542 0.49567 0.47155 0.0
H1819 H 0.94837 0.56523 0.43538 0.0
H1820 H 0.90082 0.55161 0.44267 0.0
H1821 H 0.94341 0.59343 0.45014 0.0
H1822 H 0.90817 0.58992 0.47329 0.0
H1823 H 0.85278 0.60011 0.4765 0.0
H1824 H 0.29417 0.75445 0.64692 0.0
H1825 H 0.3603 0.81025 0.6453 0.0
H1826 H 0.31898 0.88582 0.66084 0.0
H1827 H 0.25279 0.83007 0.66263 0.0
H1828 H 0.39161 0.87744 0.62853 0.0
H1829 H 0.4099 0.91664 0.68932 0.0
H1830 H 0.37048 0.87112 0.68241 0.0
H1831 H 0.36795 0.91493 0.68087 0.0
C1832 C 0.29899 0.78288 0.65005 0.0
C1833 C 0.26765 0.78733 0.65496 0.0
C1834 C 0.33709 0.81498 0.64909 0.0
C1835 C 0.34537 0.85265 0.65317 0.0
C1836 C 0.31404 0.85724 0.65793 0.0
H1837 H 0.55498 0.08423 0.65558 0.0
H1838 H 0.48981 1.02738 0.65751 0.0
C1839 C 0.27587 0.82516 0.65883 0.0
C1840 C 0.38644 0.88693 0.65216 0.0
H1841 H 0.45908 0.96115 0.67278 0.0
C1842 C 0.40635 0.89556 0.63825 0.0
C1843 C 0.40622 0.91106 0.66476 0.0
C1844 C 0.38777 0.90287 0.68022 0.0
C1845 C 0.44447 0.92767 0.63651 0.0
C1846 C 0.46433 0.95181 0.64911 0.0
C1847 C 0.44442 0.94305 0.66304 0.0
C1848 C 0.50515 0.98665 0.64806 0.0
C1849 C 0.46249 0.93611 0.62096 0.0
C1850 C 0.53662 0.98345 0.64236 0.0
C1851 C 0.57429 1.0163 0.64117 0.0
C1852 C 0.58192 0.05345 0.64578 0.0
C1853 C 0.55062 0.05638 0.65184 0.0
C1854 C 0.51303 1.02362 0.65297 0.0
H1855 H 0.44005 0.92277 0.61194 0.0
H1856 H 0.47998 0.96788 0.61886 0.0
H1857 H 0.48191 0.92364 0.62003 0.0
H1858 H 0.53218 0.9554 0.63888 0.0
H1859 H 0.59744 1.01254 0.63657 0.0
loop_
_geom_bond_atom_site_label_1
_geom_bond_atom_site_label_2
_geom_bond_distance
_geom_bond_site_symmetry_2
_ccdc_geom_bond_type
O0 Tb1 2.292 . S
O0 C3 1.255 . S
Tb1 O0 2.292 . S
Tb1 O17 2.326 . S
Tb1 O19 2.500 . S
Tb1 O20 2.473 . S
Tb1 O23 2.324 . S
Eu2 O6 2.292 . S
Eu2 C7 2.852 1_556 S
Eu2 O18 2.324 1_556 S
Eu2 O22 2.326 1_556 S
Eu2 O24 2.500 . S
Eu2 O25 2.473 1_556 S
C3 O0 1.255 . S
C3 O4 1.247 . S
O4 C3 1.247 . S
C5 O17 1.242 . S
C5 O18 1.258 . S
O6 Eu2 2.292 . S
O6 C8 1.255 . S
C7 Eu2 2.852 1_554 S
C7 C11 1.503 . S
C7 O24 1.273 1_554 S
C7 O25 1.257 . S
C8 O6 1.255 . S
C8 O9 1.247 . S
O9 C8 1.247 . S
C10 O22 1.242 . S
C10 O23 1.258 . S
C11 C7 1.503 . S
C11 C12 1.379 . S
C11 C16 1.381 1_554 S
C12 C11 1.379 . S
C12 C13 1.404 . S
C12 H26 0.929 . S
C13 C12 1.404 . S
C13 C14 1.389 . S
C14 C13 1.389 . S
C14 C15 1.399 . S
C14 H27 0.931 . S
C15 C14 1.399 . S
C15 C16 1.385 1_554 S
C16 C11 1.381 1_556 S
C16 C15 1.385 1_556 S
C16 H28 0.944 . S
O17 Tb1 2.326 . S
O17 C5 1.242 . S
O18 Eu2 2.324 1_554 S
O18 C5 1.258 . S
O19 Tb1 2.500 . S
O19 C21 1.273 . S
O20 Tb1 2.473 . S
O20 C21 1.257 . S
C21 O19 1.273 . S
C21 O20 1.257 . S
O22 Eu2 2.326 1_554 S
O22 C10 1.242 . S
O23 Tb1 2.324 . S
O23 C10 1.258 . S
O24 Eu2 2.500 . S
O24 C7 1.273 1_556 S
O25 Eu2 2.473 1_554 S
O25 C7 1.257 . S
H26 C12 0.929 . S
H27 C14 0.931 . S
H28 C16 0.944 . S
O29 Tb30 2.292 . S
O29 C32 1.255 . S
Tb30 O29 2.292 . S
Tb30 O46 2.326 . S
Tb30 O48 2.500 . S
Tb30 O49 2.473 . S
Tb30 O52 2.324 . S
Eu31 O35 2.292 . S
Eu31 C36 2.852 . S
Eu31 O47 2.324 . S
Eu31 O51 2.326 . S
Eu31 O53 2.500 . S
Eu31 O54 2.473 . S
C32 O29 1.255 . S
C32 O33 1.247 . S
O33 C32 1.247 . S
C34 O46 1.242 . S
C34 O47 1.258 . S
O35 Eu31 2.292 . S
O35 C37 1.255 . S
C36 Eu31 2.852 . S
C36 C40 1.503 . S
C36 O53 1.273 . S
C36 O54 1.257 . S
C37 O35 1.255 . S
C37 O38 1.247 . S
O38 C37 1.247 . S
C39 O51 1.242 . S
C39 O52 1.258 . S
C40 C36 1.503 . S
C40 C41 1.388 . S
C40 C45 1.392 1_655 S
C41 C40 1.388 . S
C41 C42 1.375 1_655 S
C41 H55 0.950 . S
C42 C41 1.375 1_455 S
C42 C43 1.389 . S
C43 C42 1.389 . S
C43 C44 1.399 . S
C43 H56 0.931 . S
C44 C43 1.399 . S
C44 C45 1.390 . S
C45 C40 1.392 1_455 S
C45 C44 1.390 . S
C45 H57 0.929 . S
O46 Tb30 2.326 . S
O46 C34 1.242 . S
O47 Eu31 2.324 . S
O47 C34 1.258 . S
O48 Tb30 2.500 . S
O48 C50 1.273 . S
O49 Tb30 2.473 . S
O49 C50 1.257 . S
C50 O48 1.273 . S
C50 O49 1.257 . S
O51 Eu31 2.326 . S
O51 C39 1.242 . S
O52 Tb30 2.324 . S
O52 C39 1.258 . S
O53 Eu31 2.500 . S
O53 C36 1.273 . S
O54 Eu31 2.473 . S
O54 C36 1.257 . S
H55 C41 0.950 . S
H56 C43 0.931 . S
H57 C45 0.929 . S
O58 Tb59 2.292 . S
O58 C61 1.255 . S
Tb59 O58 2.292 . S
Tb59 O75 2.326 . S
Tb59 O77 2.500 . S
Tb59 O78 2.473 . S
Tb59 O81 2.324 . S
Eu60 O64 2.292 . S
Eu60 C65 2.852 . S
Eu60 O76 2.324 . S
Eu60 O80 2.326 . S
Eu60 O82 2.500 . S
Eu60 O83 2.473 . S
C61 O58 1.255 . S
C61 O62 1.247 . S
O62 C61 1.247 . S
C63 O75 1.242 . S
C63 O76 1.258 . S
O64 Eu60 2.292 . S
O64 C66 1.255 . S
C65 Eu60 2.852 . S
C65 C69 1.503 . S
C65 O82 1.273 . S
C65 O83 1.257 . S
C66 O64 1.255 . S
C66 O67 1.247 . S
O67 C66 1.247 . S
C68 O80 1.242 . S
C68 O81 1.258 . S
C69 C65 1.503 . S
C69 C70 1.371 . S
C69 C74 1.392 1_565 S
C70 C69 1.371 . S
C70 C71 1.389 1_565 S
C70 H84 0.953 . S
C71 C70 1.389 1_545 S
C71 C72 1.389 . S
C72 C71 1.389 . S
C72 C73 1.399 . S
C72 H85 0.931 . S
C73 C72 1.399 . S
C73 C74 1.390 . S
C74 C69 1.392 1_545 S
C74 C73 1.390 . S
C74 H86 0.929 . S
O75 Tb59 2.326 . S
O75 C63 1.242 . S
O76 Eu60 2.324 . S
O76 C63 1.258 . S
O77 Tb59 2.500 . S
O77 C79 1.273 . S
O78 Tb59 2.473 . S
O78 C79 1.257 . S
C79 O77 1.273 . S
C79 O78 1.257 . S
O80 Eu60 2.326 . S
O80 C68 1.242 . S
O81 Tb59 2.324 . S
O81 C68 1.258 . S
O82 Eu60 2.500 . S
O82 C65 1.273 . S
O83 Eu60 2.473 . S
O83 C65 1.257 . S
H84 C70 0.953 . S
H85 C72 0.931 . S
H86 C74 0.929 . S
O87 Tb88 2.292 . S
O87 C90 1.255 . S
Tb88 O87 2.292 . S
Tb88 O104 2.326 . S
Tb88 O106 2.500 . S
Tb88 O107 2.473 . S
Tb88 O110 2.324 . S
Eu89 O93 2.292 . S
Eu89 C94 2.852 . S
Eu89 O105 2.324 . S
Eu89 O109 2.326 . S
Eu89 O111 2.500 . S
Eu89 O112 2.473 . S
C90 O87 1.255 . S
C90 O91 1.247 . S
O91 C90 1.247 . S
C92 O104 1.242 . S
C92 O105 1.258 . S
O93 Eu89 2.292 . S
O93 C95 1.255 . S
C94 Eu89 2.852 . S
C94 C98 1.503 . S
C94 O111 1.273 . S
C94 O112 1.257 . S
C95 O93 1.255 . S
C95 O96 1.247 . S
O96 C95 1.247 . S
C97 O109 1.242 . S
C97 O110 1.258 . S
C98 C94 1.503 . S
C98 C99 1.379 . S
C98 C103 1.392 . S
C99 C98 1.379 . S
C99 C100 1.404 . S
C99 H113 0.929 . S
C100 C99 1.404 . S
C100 C101 1.389 . S
C101 C100 1.389 . S
C101 C102 1.399 . S
C101 H114 0.931 . S
C102 C101 1.399 . S
C102 C103 1.390 . S
C103 C98 1.392 . S
C103 C102 1.390 . S
C103 H115 0.929 . S
O104 Tb88 2.326 . S
O104 C92 1.242 . S
O105 Eu89 2.324 . S
O105 C92 1.258 . S
O106 Tb88 2.500 . S
O106 C108 1.273 . S
O107 Tb88 2.473 . S
O107 C108 1.257 . S
C108 O106 1.273 . S
C108 O107 1.257 . S
O109 Eu89 2.326 . S
O109 C97 1.242 . S
O110 Tb88 2.324 . S
O110 C97 1.258 . S
O111 Eu89 2.500 . S
O111 C94 1.273 . S
O112 Eu89 2.473 . S
O112 C94 1.257 . S
H113 C99 0.929 . S
H114 C101 0.931 . S
H115 C103 0.929 . S
O116 Tb117 2.292 . S
O116 C119 1.255 . S
Tb117 O116 2.292 . S
Tb117 O133 2.326 . S
Tb117 O135 2.500 . S
Tb117 O136 2.473 . S
Tb117 O139 2.324 . S
Eu118 O122 2.292 . S
Eu118 C123 2.852 . S
Eu118 O134 2.324 . S
Eu118 O138 2.326 . S
Eu118 O140 2.500 . S
Eu118 O141 2.473 . S
C119 O116 1.255 . S
C119 O120 1.247 . S
O120 C119 1.247 . S
C121 O133 1.242 . S
C121 O134 1.258 . S
O122 Eu118 2.292 . S
O122 C124 1.255 . S
C123 Eu118 2.852 . S
C123 C127 1.503 . S
C123 O140 1.273 . S
C123 O141 1.257 . S
C124 O122 1.255 . S
C124 O125 1.247 . S
O125 C124 1.247 . S
C126 O138 1.242 . S
C126 O139 1.258 . S
C127 C123 1.503 . S
C127 C128 1.388 . S
C127 C132 1.392 1_455 S
C128 C127 1.388 . S
C128 C129 1.375 1_455 S
C128 H142 0.950 . S
C129 C128 1.375 1_655 S
C129 C130 1.389 . S
C130 C129 1.389 . S
C130 C131 1.399 . S
C130 H143 0.931 . S
C131 C130 1.399 . S
C131 C132 1.390 . S
C132 C127 1.392 1_655 S
C132 C131 1.390 . S
C132 H144 0.929 . S
O133 Tb117 2.326 . S
O133 C121 1.242 . S
O134 Eu118 2.324 . S
O134 C121 1.258 . S
O135 Tb117 2.500 . S
O135 C137 1.273 . S
O136 Tb117 2.473 . S
O136 C137 1.257 . S
C137 O135 1.273 . S
C137 O136 1.257 . S
O138 Eu118 2.326 . S
O138 C126 1.242 . S
O139 Tb117 2.324 . S
O139 C126 1.258 . S
O140 Eu118 2.500 . S
O140 C123 1.273 . S
O141 Eu118 2.473 . S
O141 C123 1.257 . S
H142 C128 0.950 . S
H143 C130 0.931 . S
H144 C132 0.929 . S
O145 Tb146 2.292 . S
O145 C148 1.255 . S
Tb146 O145 2.292 . S
Tb146 O162 2.326 . S
Tb146 O164 2.500 . S
Tb146 O165 2.473 . S
Tb146 O168 2.324 . S
Eu147 O151 2.292 . S
Eu147 C152 2.852 . S
Eu147 O163 2.324 . S
Eu147 O167 2.326 . S
Eu147 O169 2.500 . S
Eu147 O170 2.473 . S
C148 O145 1.255 . S
C148 O149 1.247 . S
O149 C148 1.247 . S
C150 O162 1.242 . S
C150 O163 1.258 . S
O151 Eu147 2.292 . S
O151 C153 1.255 . S
C152 Eu147 2.852 . S
C152 C156 1.503 . S
C152 O169 1.273 . S
C152 O170 1.257 . S
C153 O151 1.255 . S
C153 O154 1.247 . S
O154 C153 1.247 . S
C155 O167 1.242 . S
C155 O168 1.258 . S
C156 C152 1.503 . S
C156 C157 1.371 . S
C156 C161 1.392 1_545 S
C157 C156 1.371 . S
C157 C158 1.389 1_545 S
C157 H171 0.953 . S
C158 C157 1.389 1_565 S
C158 C159 1.389 . S
C159 C158 1.389 . S
C159 C160 1.399 . S
C159 H172 0.931 . S
C160 C159 1.399 . S
C160 C161 1.390 . S
C161 C156 1.392 1_565 S
C161 C160 1.390 . S
C161 H173 0.929 . S
O162 Tb146 2.326 . S
O162 C150 1.242 . S
O163 Eu147 2.324 . S
O163 C150 1.258 . S
O164 Tb146 2.500 . S
O164 C166 1.273 . S
O165 Tb146 2.473 . S
O165 C166 1.257 . S
C166 O164 1.273 . S
C166 O165 1.257 . S
O167 Eu147 2.326 . S
O167 C155 1.242 . S
O168 Tb146 2.324 . S
O168 C155 1.258 . S
O169 Eu147 2.500 . S
O169 C152 1.273 . S
O170 Eu147 2.473 . S
O170 C152 1.257 . S
H171 C157 0.953 . S
H172 C159 0.931 . S
H173 C161 0.929 . S
O174 Tb175 2.292 . S
O174 C177 1.255 . S
Tb175 O174 2.292 . S
Tb175 O191 2.326 . S
Tb175 O193 2.500 . S
Tb175 O194 2.473 . S
Tb175 O197 2.324 . S
Eu176 O180 2.292 . S
Eu176 C181 2.852 . S
Eu176 O192 2.324 . S
Eu176 O196 2.326 . S
Eu176 O198 2.500 . S
Eu176 O199 2.473 . S
C177 O174 1.255 . S
C177 O178 1.247 . S
O178 C177 1.247 . S
C179 O191 1.242 . S
C179 O192 1.258 . S
O180 Eu176 2.292 . S
O180 C182 1.255 . S
C181 Eu176 2.852 . S
C181 C185 1.503 . S
C181 O198 1.273 . S
C181 O199 1.257 . S
C182 O180 1.255 . S
C182 O183 1.247 . S
O183 C182 1.247 . S
C184 O196 1.242 . S
C184 O197 1.258 . S
C185 C181 1.503 . S
C185 C186 1.379 . S
C185 C190 1.392 . S
C186 C185 1.379 . S
C186 C187 1.404 . S
C186 H200 0.929 . S
C187 C186 1.404 . S
C187 C188 1.389 . S
C188 C187 1.389 . S
C188 C189 1.399 . S
C188 H201 0.931 . S
C189 C188 1.399 . S
C189 C190 1.390 . S
C190 C185 1.392 . S
C190 C189 1.390 . S
C190 H202 0.929 . S
O191 Tb175 2.326 . S
O191 C179 1.242 . S
O192 Eu176 2.324 . S
O192 C179 1.258 . S
O193 Tb175 2.500 . S
O193 C195 1.273 . S
O194 Tb175 2.473 . S
O194 C195 1.257 . S
C195 O193 1.273 . S
C195 O194 1.257 . S
O196 Eu176 2.326 . S
O196 C184 1.242 . S
O197 Tb175 2.324 . S
O197 C184 1.258 . S
O198 Eu176 2.500 . S
O198 C181 1.273 . S
O199 Eu176 2.473 . S
O199 C181 1.257 . S
H200 C186 0.929 . S
H201 C188 0.931 . S
H202 C190 0.929 . S
O203 Tb204 2.292 . S
O203 C206 1.255 . S
Tb204 O203 2.292 . S
Tb204 O220 2.326 . S
Tb204 O222 2.500 . S
Tb204 O223 2.473 . S
Tb204 O226 2.324 . S
Eu205 O209 2.292 . S
Eu205 C210 2.852 1_554 S
Eu205 O221 2.324 1_554 S
Eu205 O225 2.326 1_554 S
Eu205 O227 2.500 . S
Eu205 O228 2.473 1_554 S
C206 O203 1.255 . S
C206 O207 1.247 . S
O207 C206 1.247 . S
C208 O220 1.242 . S
C208 O221 1.258 . S
O209 Eu205 2.292 . S
O209 C211 1.255 . S
C210 Eu205 2.852 1_556 S
C210 C214 1.503 . S
C210 O227 1.273 1_556 S
C210 O228 1.257 . S
C211 O209 1.255 . S
C211 O212 1.247 . S
O212 C211 1.247 . S
C213 O225 1.242 . S
C213 O226 1.258 . S
C214 C210 1.503 . S
C214 C215 1.371 . S
C214 C219 1.403 1_655 S
C215 C214 1.371 . S
C215 C216 1.389 1_655 S
C215 H229 0.953 . S
C216 C215 1.389 1_455 S
C216 C217 1.389 . S
C217 C216 1.389 . S
C217 C218 1.399 . S
C217 H230 0.931 . S
C218 C217 1.399 . S
C218 C219 1.395 . S
C219 C214 1.403 1_455 S
C219 C218 1.395 . S
C219 H231 0.912 1_556 S
O220 Tb204 2.326 . S
O220 C208 1.242 . S
O221 Eu205 2.324 1_556 S
O221 C208 1.258 . S
O222 Tb204 2.500 . S
O222 C224 1.273 . S
O223 Tb204 2.473 . S
O223 C224 1.257 . S
C224 O222 1.273 . S
C224 O223 1.257 . S
O225 Eu205 2.326 1_556 S
O225 C213 1.242 . S
O226 Tb204 2.324 . S
O226 C213 1.258 . S
O227 Eu205 2.500 . S
O227 C210 1.273 1_554 S
O228 Eu205 2.473 1_556 S
O228 C210 1.257 . S
H229 C215 0.953 . S
H230 C217 0.931 . S
H231 C219 0.912 1_554 S
O232 Tb233 2.292 . S
O232 C235 1.255 . S
Tb233 O232 2.292 . S
Tb233 O249 2.326 . S
Tb233 O251 2.500 . S
Tb233 O252 2.473 . S
Tb233 O255 2.324 . S
Eu234 O238 2.292 . S
Eu234 C239 2.852 . S
Eu234 O250 2.324 . S
Eu234 O254 2.326 . S
Eu234 O256 2.500 . S
Eu234 O257 2.473 . S
C235 O232 1.255 . S
C235 O236 1.247 . S
O236 C235 1.247 . S
C237 O249 1.242 . S
C237 O250 1.258 . S
O238 Eu234 2.292 . S
O238 C240 1.255 . S
C239 Eu234 2.852 . S
C239 C243 1.503 . S
C239 O256 1.273 . S
C239 O257 1.257 . S
C240 O238 1.255 . S
C240 O241 1.247 . S
O241 C240 1.247 . S
C242 O254 1.242 . S
C242 O255 1.258 . S
C243 C239 1.503 . S
C243 C244 1.388 . S
C243 C248 1.392 1_565 S
C244 C243 1.388 . S
C244 C245 1.375 1_565 S
C244 H258 0.950 . S
C245 C244 1.375 1_545 S
C245 C246 1.389 . S
C246 C245 1.389 . S
C246 C247 1.399 . S
C246 H259 0.931 . S
C247 C246 1.399 . S
C247 C248 1.390 . S
C248 C243 1.392 1_545 S
C248 C247 1.390 . S
C248 H260 0.929 . S
O249 Tb233 2.326 . S
O249 C237 1.242 . S
O250 Eu234 2.324 . S
O250 C237 1.258 . S
O251 Tb233 2.500 . S
O251 C253 1.273 . S
O252 Tb233 2.473 . S
O252 C253 1.257 . S
C253 O251 1.273 . S
C253 O252 1.257 . S
O254 Eu234 2.326 . S
O254 C242 1.242 . S
O255 Tb233 2.324 . S
O255 C242 1.258 . S
O256 Eu234 2.500 . S
O256 C239 1.273 . S
O257 Eu234 2.473 . S
O257 C239 1.257 . S
H258 C244 0.950 . S
H259 C246 0.931 . S
H260 C248 0.929 . S
O261 Tb262 2.292 . S
O261 C264 1.255 . S
Tb262 O261 2.292 . S
Tb262 O278 2.326 . S
Tb262 O280 2.500 . S
Tb262 O281 2.473 . S
Tb262 O284 2.324 . S
Eu263 O267 2.292 . S
Eu263 C268 2.852 . S
Eu263 O279 2.324 . S
Eu263 O283 2.326 . S
Eu263 O285 2.500 . S
Eu263 O286 2.473 . S
C264 O261 1.255 . S
C264 O265 1.247 . S
O265 C264 1.247 . S
C266 O278 1.242 . S
C266 O279 1.258 . S
O267 Eu263 2.292 . S
O267 C269 1.255 . S
C268 Eu263 2.852 . S
C268 C272 1.503 . S
C268 O285 1.273 . S
C268 O286 1.257 . S
C269 O267 1.255 . S
C269 O270 1.247 . S
O270 C269 1.247 . S
C271 O283 1.242 . S
C271 O284 1.258 . S
C272 C268 1.503 . S
C272 C273 1.379 . S
C272 C277 1.392 . S
C273 C272 1.379 . S
C273 C274 1.404 . S
C273 H287 0.929 . S
C274 C273 1.404 . S
C274 C275 1.389 . S
C275 C274 1.389 . S
C275 C276 1.399 . S
C275 H288 0.931 . S
C276 C275 1.399 . S
C276 C277 1.390 . S
C277 C272 1.392 . S
C277 C276 1.390 . S
C277 H289 0.929 . S
O278 Tb262 2.326 . S
O278 C266 1.242 . S
O279 Eu263 2.324 . S
O279 C266 1.258 . S
O280 Tb262 2.500 . S
O280 C282 1.273 . S
O281 Tb262 2.473 . S
O281 C282 1.257 . S
C282 O280 1.273 . S
C282 O281 1.257 . S
O283 Eu263 2.326 . S
O283 C271 1.242 . S
O284 Tb262 2.324 . S
O284 C271 1.258 . S
O285 Eu263 2.500 . S
O285 C268 1.273 . S
O286 Eu263 2.473 . S
O286 C268 1.257 . S
H287 C273 0.929 . S
H288 C275 0.931 . S
H289 C277 0.929 . S
O290 Tb291 2.292 . S
O290 C293 1.255 . S
Tb291 O290 2.292 . S
Tb291 O307 2.326 . S
Tb291 O309 2.500 . S
Tb291 O310 2.473 . S
Tb291 O313 2.324 . S
Eu292 O296 2.292 . S
Eu292 C297 2.852 . S
Eu292 O308 2.324 . S
Eu292 O312 2.326 . S
Eu292 O314 2.500 . S
Eu292 O315 2.473 . S
C293 O290 1.255 . S
C293 O294 1.247 . S
O294 C293 1.247 . S
C295 O307 1.242 . S
C295 O308 1.258 . S
O296 Eu292 2.292 . S
O296 C298 1.255 . S
C297 Eu292 2.852 . S
C297 C301 1.503 . S
C297 O314 1.273 . S
C297 O315 1.257 . S
C298 O296 1.255 . S
C298 O299 1.247 . S
O299 C298 1.247 . S
C300 O312 1.242 . S
C300 O313 1.258 . S
C301 C297 1.503 . S
C301 C302 1.371 . S
C301 C306 1.392 1_455 S
C302 C301 1.371 . S
C302 C303 1.389 1_455 S
C302 H316 0.953 . S
C303 C302 1.389 1_655 S
C303 C304 1.389 . S
C304 C303 1.389 . S
C304 C305 1.399 . S
C304 H317 0.931 . S
C305 C304 1.399 . S
C305 C306 1.390 . S
C306 C301 1.392 1_655 S
C306 C305 1.390 . S
C306 H318 0.929 . S
O307 Tb291 2.326 . S
O307 C295 1.242 . S
O308 Eu292 2.324 . S
O308 C295 1.258 . S
O309 Tb291 2.500 . S
O309 C311 1.273 . S
O310 Tb291 2.473 . S
O310 C311 1.257 . S
C311 O309 1.273 . S
C311 O310 1.257 . S
O312 Eu292 2.326 . S
O312 C300 1.242 . S
O313 Tb291 2.324 . S
O313 C300 1.258 . S
O314 Eu292 2.500 . S
O314 C297 1.273 . S
O315 Eu292 2.473 . S
O315 C297 1.257 . S
H316 C302 0.953 . S
H317 C304 0.931 . S
H318 C306 0.929 . S
O319 Tb320 2.292 . S
O319 C322 1.255 . S
Tb320 O319 2.292 . S
Tb320 O336 2.326 . S
Tb320 O338 2.500 . S
Tb320 O339 2.473 . S
Tb320 O342 2.324 . S
Eu321 O325 2.292 . S
Eu321 C326 2.852 . S
Eu321 O337 2.324 . S
Eu321 O341 2.326 . S
Eu321 O343 2.500 . S
Eu321 O344 2.473 . S
C322 O319 1.255 . S
C322 O323 1.247 . S
O323 C322 1.247 . S
C324 O336 1.242 . S
C324 O337 1.258 . S
O325 Eu321 2.292 . S
O325 C327 1.255 . S
C326 Eu321 2.852 . S
C326 C330 1.503 . S
C326 O343 1.273 . S
C326 O344 1.257 . S
C327 O325 1.255 . S
C327 O328 1.247 . S
O328 C327 1.247 . S
C329 O341 1.242 . S
C329 O342 1.258 . S
C330 C326 1.503 . S
C330 C331 1.388 . S
C330 C335 1.392 1_545 S
C331 C330 1.388 . S
C331 C332 1.375 1_545 S
C331 H345 0.950 . S
C332 C331 1.375 1_565 S
C332 C333 1.389 . S
C333 C332 1.389 . S
C333 C334 1.399 . S
C333 H346 0.931 . S
C334 C333 1.399 . S
C334 C335 1.390 . S
C335 C330 1.392 1_565 S
C335 C334 1.390 . S
C335 H347 0.929 . S
O336 Tb320 2.326 . S
O336 C324 1.242 . S
O337 Eu321 2.324 . S
O337 C324 1.258 . S
O338 Tb320 2.500 . S
O338 C340 1.273 . S
O339 Tb320 2.473 . S
O339 C340 1.257 . S
C340 O338 1.273 . S
C340 O339 1.257 . S
O341 Eu321 2.326 . S
O341 C329 1.242 . S
O342 Tb320 2.324 . S
O342 C329 1.258 . S
O343 Eu321 2.500 . S
O343 C326 1.273 . S
O344 Eu321 2.473 . S
O344 C326 1.257 . S
H345 C331 0.950 . S
H346 C333 0.931 . S
H347 C335 0.929 . S
H348 C356 0.929 . S
H349 C358 0.930 . S
H350 C360 0.930 . S
H351 C363 0.929 . S
H352 C366 0.930 . S
H353 C368 0.960 . S
H354 C368 0.960 . S
H355 C368 0.960 . S
C356 H348 0.929 . S
C356 C357 1.377 . S
C356 C358 1.384 . S
C357 C356 1.377 . S
C357 C363 1.390 . S
C358 H349 0.930 . S
C358 C356 1.384 . S
C358 C359 1.372 . S
C359 C358 1.372 . S
C359 C360 1.400 . S
C359 C364 1.490 . S
C360 H350 0.930 . S
C360 C359 1.400 . S
C360 C363 1.386 . S
H361 C377 0.930 . S
H362 C378 0.931 . S
C363 H351 0.929 . S
C363 C357 1.390 . S
C363 C360 1.386 . S
C364 C359 1.490 . S
C364 C366 1.395 . S
C364 C367 1.403 . S
H365 C371 0.930 . S
C366 H352 0.930 . S
C366 C364 1.395 . S
C366 C369 1.403 . S
C367 C364 1.403 . S
C367 C368 1.524 . S
C367 C371 1.400 . S
C368 H353 0.960 . S
C368 H354 0.960 . S
C368 H355 0.960 . S
C368 C367 1.524 . S
C369 C366 1.403 . S
C369 C370 1.392 . S
C369 C373 1.495 . S
C370 C369 1.392 . S
C370 C371 1.385 . S
C370 C372 1.478 . S
C371 H365 0.930 . S
C371 C367 1.400 . S
C371 C370 1.385 . S
C372 C370 1.478 . S
C372 C374 1.381 . S
C372 C378 1.383 . S
C373 C369 1.495 . S
C373 H379 0.959 . S
C373 H380 0.961 . S
C373 H381 0.960 . S
C374 C372 1.381 . S
C374 C375 1.394 . S
C374 H382 0.930 . S
C375 C374 1.394 . S
C375 C376 1.383 . S
C375 H383 0.929 . S
C376 C375 1.383 . S
C376 C377 1.377 . S
C377 H361 0.930 . S
C377 C376 1.377 . S
C377 C378 1.379 . S
C378 H362 0.931 . S
C378 C372 1.383 . S
C378 C377 1.379 . S
H379 C373 0.959 . S
H380 C373 0.961 . S
H381 C373 0.960 . S
H382 C374 0.930 . S
H383 C375 0.929 . S
H384 C392 0.929 . S
H385 C394 0.930 . S
H386 C396 0.930 . S
H387 C399 0.929 . S
H388 C402 0.930 . S
H389 C404 0.960 . S
H390 C404 0.960 . S
H391 C404 0.960 . S
C392 H384 0.929 . S
C392 C393 1.377 . S
C392 C394 1.384 . S
C393 C392 1.377 . S
C393 C399 1.390 . S
C394 H385 0.930 . S
C394 C392 1.384 . S
C394 C395 1.372 . S
C395 C394 1.372 . S
C395 C396 1.400 . S
C395 C400 1.490 . S
C396 H386 0.930 . S
C396 C395 1.400 . S
C396 C399 1.386 . S
H397 C413 0.930 . S
H398 C414 0.931 . S
C399 H387 0.929 . S
C399 C393 1.390 . S
C399 C396 1.386 . S
C400 C395 1.490 . S
C400 C402 1.395 . S
C400 C403 1.403 . S
H401 C407 0.930 . S
C402 H388 0.930 . S
C402 C400 1.395 . S
C402 C405 1.403 . S
C403 C400 1.403 . S
C403 C404 1.524 . S
C403 C407 1.400 . S
C404 H389 0.960 . S
C404 H390 0.960 . S
C404 H391 0.960 . S
C404 C403 1.524 . S
C405 C402 1.403 . S
C405 C406 1.392 . S
C405 C409 1.495 . S
C406 C405 1.392 . S
C406 C407 1.385 . S
C406 C408 1.478 . S
C407 H401 0.930 . S
C407 C403 1.400 . S
C407 C406 1.385 . S
C408 C406 1.478 . S
C408 C410 1.381 . S
C408 C414 1.383 . S
C409 C405 1.495 . S
C409 H415 0.959 . S
C409 H416 0.961 . S
C409 H417 0.960 . S
C410 C408 1.381 . S
C410 C411 1.394 . S
C410 H418 0.930 . S
C411 C410 1.394 . S
C411 C412 1.383 . S
C411 H419 0.929 . S
C412 C411 1.383 . S
C412 C413 1.377 . S
C413 H397 0.930 . S
C413 C412 1.377 . S
C413 C414 1.379 . S
C414 H398 0.931 . S
C414 C408 1.383 . S
C414 C413 1.379 . S
H415 C409 0.959 . S
H416 C409 0.961 . S
H417 C409 0.960 . S
H418 C410 0.930 . S
H419 C411 0.929 . S
H420 C428 0.929 . S
H421 C430 0.930 . S
H422 C432 0.930 . S
H423 C435 0.929 . S
H424 C438 0.930 . S
H425 C440 0.960 . S
H426 C440 0.960 . S
H427 C440 0.960 . S
C428 H420 0.929 . S
C428 C429 1.377 . S
C428 C430 1.384 . S
C429 C428 1.377 . S
C429 C435 1.390 . S
C430 H421 0.930 . S
C430 C428 1.384 . S
C430 C431 1.372 . S
C431 C430 1.372 . S
C431 C432 1.400 . S
C431 C436 1.490 . S
C432 H422 0.930 . S
C432 C431 1.400 . S
C432 C435 1.386 . S
H433 C449 0.930 . S
H434 C450 0.931 . S
C435 H423 0.929 . S
C435 C429 1.390 . S
C435 C432 1.386 . S
C436 C431 1.490 . S
C436 C438 1.395 . S
C436 C439 1.403 . S
H437 C443 0.930 . S
C438 H424 0.930 . S
C438 C436 1.395 . S
C438 C441 1.403 . S
C439 C436 1.403 . S
C439 C440 1.524 . S
C439 C443 1.400 . S
C440 H425 0.960 . S
C440 H426 0.960 . S
C440 H427 0.960 . S
C440 C439 1.524 . S
C441 C438 1.403 . S
C441 C442 1.392 . S
C441 C445 1.495 . S
C442 C441 1.392 . S
C442 C443 1.385 . S
C442 C444 1.478 . S
C443 H437 0.930 . S
C443 C439 1.400 . S
C443 C442 1.385 . S
C444 C442 1.478 . S
C444 C446 1.381 . S
C444 C450 1.383 . S
C445 C441 1.495 . S
C445 H451 0.959 . S
C445 H452 0.961 . S
C445 H453 0.960 . S
C446 C444 1.381 . S
C446 C447 1.394 . S
C446 H454 0.930 . S
C447 C446 1.394 . S
C447 C448 1.383 . S
C447 H455 0.929 . S
C448 C447 1.383 . S
C448 C449 1.377 . S
C449 H433 0.930 . S
C449 C448 1.377 . S
C449 C450 1.379 . S
C450 H434 0.931 . S
C450 C444 1.383 . S
C450 C449 1.379 . S
H451 C445 0.959 . S
H452 C445 0.961 . S
H453 C445 0.960 . S
H454 C446 0.930 . S
H455 C447 0.929 . S
H456 C464 0.929 . S
H457 C466 0.930 . S
H458 C468 0.930 . S
H459 C471 0.929 . S
H460 C474 0.930 . S
H461 C476 0.960 . S
H462 C476 0.960 . S
H463 C476 0.960 . S
C464 H456 0.929 . S
C464 C465 1.377 . S
C464 C466 1.384 . S
C465 C464 1.377 . S
C465 C471 1.390 . S
C466 H457 0.930 . S
C466 C464 1.384 . S
C466 C467 1.372 . S
C467 C466 1.372 . S
C467 C468 1.400 . S
C467 C472 1.490 . S
C468 H458 0.930 . S
C468 C467 1.400 . S
C468 C471 1.386 . S
H469 C485 0.930 . S
H470 C486 0.931 . S
C471 H459 0.929 . S
C471 C465 1.390 . S
C471 C468 1.386 . S
C472 C467 1.490 . S
C472 C474 1.395 . S
C472 C475 1.403 . S
H473 C479 0.930 . S
C474 H460 0.930 . S
C474 C472 1.395 . S
C474 C477 1.403 . S
C475 C472 1.403 . S
C475 C476 1.524 . S
C475 C479 1.400 . S
C476 H461 0.960 . S
C476 H462 0.960 . S
C476 H463 0.960 . S
C476 C475 1.524 . S
C477 C474 1.403 . S
C477 C478 1.392 . S
C477 C481 1.495 . S
C478 C477 1.392 . S
C478 C479 1.385 . S
C478 C480 1.478 . S
C479 H473 0.930 . S
C479 C475 1.400 . S
C479 C478 1.385 . S
C480 C478 1.478 . S
C480 C482 1.381 . S
C480 C486 1.383 . S
C481 C477 1.495 . S
C481 H487 0.959 . S
C481 H488 0.961 . S
C481 H489 0.960 . S
C482 C480 1.381 . S
C482 C483 1.394 . S
C482 H490 0.930 . S
C483 C482 1.394 . S
C483 C484 1.383 . S
C483 H491 0.929 . S
C484 C483 1.383 . S
C484 C485 1.377 . S
C485 H469 0.930 . S
C485 C484 1.377 . S
C485 C486 1.379 . S
C486 H470 0.931 . S
C486 C480 1.383 . S
C486 C485 1.379 . S
H487 C481 0.959 . S
H488 C481 0.961 . S
H489 C481 0.960 . S
H490 C482 0.930 . S
H491 C483 0.929 . S
H492 C500 0.929 . S
H493 C502 0.930 . S
H494 C504 0.930 . S
H495 C507 0.929 . S
H496 C510 0.930 . S
H497 C512 0.960 . S
H498 C512 0.960 . S
H499 C512 0.960 . S
C500 H492 0.929 . S
C500 C501 1.377 . S
C500 C502 1.384 . S
C501 C500 1.377 . S
C501 C507 1.390 . S
C502 H493 0.930 . S
C502 C500 1.384 . S
C502 C503 1.372 . S
C503 C502 1.372 . S
C503 C504 1.400 . S
C503 C508 1.490 . S
C504 H494 0.930 . S
C504 C503 1.400 . S
C504 C507 1.386 . S
H505 C521 0.930 . S
H506 C522 0.931 . S
C507 H495 0.929 . S
C507 C501 1.390 . S
C507 C504 1.386 . S
C508 C503 1.490 . S
C508 C510 1.395 . S
C508 C511 1.403 . S
H509 C515 0.930 . S
C510 H496 0.930 . S
C510 C508 1.395 . S
C510 C513 1.403 . S
C511 C508 1.403 . S
C511 C512 1.524 . S
C511 C515 1.400 . S
C512 H497 0.960 . S
C512 H498 0.960 . S
C512 H499 0.960 . S
C512 C511 1.524 . S
C513 C510 1.403 . S
C513 C514 1.392 . S
C513 C517 1.495 . S
C514 C513 1.392 . S
C514 C515 1.385 . S
C514 C516 1.478 . S
C515 H509 0.930 . S
C515 C511 1.400 . S
C515 C514 1.385 . S
C516 C514 1.478 . S
C516 C518 1.381 . S
C516 C522 1.383 . S
C517 C513 1.495 . S
C517 H523 0.959 . S
C517 H524 0.961 . S
C517 H525 0.960 . S
C518 C516 1.381 . S
C518 C519 1.394 . S
C518 H526 0.930 . S
C519 C518 1.394 . S
C519 C520 1.383 . S
C519 H527 0.929 . S
C520 C519 1.383 . S
C520 C521 1.377 . S
C521 H505 0.930 . S
C521 C520 1.377 . S
C521 C522 1.379 . S
C522 H506 0.931 . S
C522 C516 1.383 . S
C522 C521 1.379 . S
H523 C517 0.959 . S
H524 C517 0.961 . S
H525 C517 0.960 . S
H526 C518 0.930 . S
H527 C519 0.929 . S
H528 C536 0.929 . S
H529 C538 0.930 . S
H530 C540 0.930 . S
H531 C543 0.929 . S
H532 C546 0.930 . S
H533 C548 0.960 . S
H534 C548 0.960 . S
H535 C548 0.960 . S
C536 H528 0.929 . S
C536 C537 1.377 . S
C536 C538 1.384 . S
C537 C536 1.377 . S
C537 C543 1.390 . S
C538 H529 0.930 . S
C538 C536 1.384 . S
C538 C539 1.372 . S
C539 C538 1.372 . S
C539 C540 1.400 . S
C539 C544 1.490 . S
C540 H530 0.930 . S
C540 C539 1.400 . S
C540 C543 1.386 . S
H541 C557 0.930 . S
H542 C558 0.931 . S
C543 H531 0.929 . S
C543 C537 1.390 . S
C543 C540 1.386 . S
C544 C539 1.490 . S
C544 C546 1.395 . S
C544 C547 1.403 . S
H545 C551 0.930 . S
C546 H532 0.930 . S
C546 C544 1.395 . S
C546 C549 1.403 . S
C547 C544 1.403 . S
C547 C548 1.524 . S
C547 C551 1.400 . S
C548 H533 0.960 . S
C548 H534 0.960 . S
C548 H535 0.960 . S
C548 C547 1.524 . S
C549 C546 1.403 . S
C549 C550 1.392 . S
C549 C553 1.495 . S
C550 C549 1.392 . S
C550 C551 1.385 . S
C550 C552 1.478 . S
C551 H545 0.930 . S
C551 C547 1.400 . S
C551 C550 1.385 . S
C552 C550 1.478 . S
C552 C554 1.381 . S
C552 C558 1.383 . S
C553 C549 1.495 . S
C553 H559 0.959 . S
C553 H560 0.961 . S
C553 H561 0.960 . S
C554 C552 1.381 . S
C554 C555 1.394 . S
C554 H562 0.930 . S
C555 C554 1.394 . S
C555 C556 1.383 . S
C555 H563 0.929 . S
C556 C555 1.383 . S
C556 C557 1.377 . S
C557 H541 0.930 . S
C557 C556 1.377 . S
C557 C558 1.379 . S
C558 H542 0.931 . S
C558 C552 1.383 . S
C558 C557 1.379 . S
H559 C553 0.959 . S
H560 C553 0.961 . S
H561 C553 0.960 . S
H562 C554 0.930 . S
H563 C555 0.929 . S
H564 C572 0.929 . S
H565 C574 0.930 . S
H566 C576 0.930 . S
H567 C579 0.929 . S
H568 C582 0.930 . S
H569 C584 0.960 . S
H570 C584 0.960 . S
H571 C584 0.960 . S
C572 H564 0.929 . S
C572 C573 1.377 . S
C572 C574 1.384 . S
C573 C572 1.377 . S
C573 C579 1.390 . S
C574 H565 0.930 . S
C574 C572 1.384 . S
C574 C575 1.372 . S
C575 C574 1.372 . S
C575 C576 1.400 . S
C575 C580 1.490 . S
C576 H566 0.930 . S
C576 C575 1.400 . S
C576 C579 1.386 . S
H577 C593 0.930 . S
H578 C594 0.931 . S
C579 H567 0.929 . S
C579 C573 1.390 . S
C579 C576 1.386 . S
C580 C575 1.490 . S
C580 C582 1.395 . S
C580 C583 1.403 . S
H581 C587 0.930 . S
C582 H568 0.930 . S
C582 C580 1.395 . S
C582 C585 1.403 . S
C583 C580 1.403 . S
C583 C584 1.524 . S
C583 C587 1.400 . S
C584 H569 0.960 . S
C584 H570 0.960 . S
C584 H571 0.960 . S
C584 C583 1.524 . S
C585 C582 1.403 . S
C585 C586 1.392 . S
C585 C589 1.495 . S
C586 C585 1.392 . S
C586 C587 1.385 . S
C586 C588 1.478 . S
C587 H581 0.930 . S
C587 C583 1.400 . S
C587 C586 1.385 . S
C588 C586 1.478 . S
C588 C590 1.381 . S
C588 C594 1.383 . S
C589 C585 1.495 . S
C589 H595 0.959 . S
C589 H596 0.961 . S
C589 H597 0.960 . S
C590 C588 1.381 . S
C590 C591 1.394 1_556 S
C590 H598 0.930 . S
C591 C590 1.394 1_554 S
C591 C592 1.383 . S
C591 H599 0.929 . S
C592 C591 1.383 . S
C592 C593 1.377 1_554 S
C593 H577 0.930 . S
C593 C592 1.377 1_556 S
C593 C594 1.379 . S
C594 H578 0.931 . S
C594 C588 1.383 . S
C594 C593 1.379 . S
H595 C589 0.959 . S
H596 C589 0.961 . S
H597 C589 0.960 . S
H598 C590 0.930 . S
H599 C591 0.929 . S
H600 C608 0.929 . S
H601 C610 0.930 . S
H602 C612 0.930 . S
H603 C615 0.929 . S
H604 C618 0.930 . S
H605 C620 0.960 . S
H606 C620 0.960 . S
H607 C620 0.960 . S
C608 H600 0.929 . S
C608 C609 1.377 . S
C608 C610 1.384 . S
C609 C608 1.377 . S
C609 C615 1.390 . S
C610 H601 0.930 . S
C610 C608 1.384 . S
C610 C611 1.372 . S
C611 C610 1.372 . S
C611 C612 1.400 . S
C611 C616 1.490 . S
C612 H602 0.930 . S
C612 C611 1.400 . S
C612 C615 1.386 . S
H613 C629 0.930 . S
H614 C630 0.931 . S
C615 H603 0.929 . S
C615 C609 1.390 . S
C615 C612 1.386 . S
C616 C611 1.490 . S
C616 C618 1.395 . S
C616 C619 1.403 . S
H617 C623 0.930 . S
C618 H604 0.930 . S
C618 C616 1.395 . S
C618 C621 1.403 . S
C619 C616 1.403 . S
C619 C620 1.524 . S
C619 C623 1.400 . S
C620 H605 0.960 . S
C620 H606 0.960 . S
C620 H607 0.960 . S
C620 C619 1.524 . S
C621 C618 1.403 . S
C621 C622 1.392 . S
C621 C625 1.495 . S
C622 C621 1.392 . S
C622 C623 1.385 . S
C622 C624 1.478 . S
C623 H617 0.930 . S
C623 C619 1.400 . S
C623 C622 1.385 . S
C624 C622 1.478 . S
C624 C626 1.381 . S
C624 C630 1.383 . S
C625 C621 1.495 . S
C625 H631 0.959 . S
C625 H632 0.961 . S
C625 H633 0.960 . S
C626 C624 1.381 . S
C626 C627 1.394 . S
C626 H634 0.930 . S
C627 C626 1.394 . S
C627 C628 1.383 . S
C627 H635 0.929 . S
C628 C627 1.383 . S
C628 C629 1.377 . S
C629 H613 0.930 . S
C629 C628 1.377 . S
C629 C630 1.379 . S
C630 H614 0.931 . S
C630 C624 1.383 . S
C630 C629 1.379 . S
H631 C625 0.959 . S
H632 C625 0.961 . S
H633 C625 0.960 . S
H634 C626 0.930 . S
H635 C627 0.929 . S
H636 C644 0.929 . S
H637 C646 0.930 . S
H638 C648 0.930 . S
H639 C651 0.929 . S
H640 C654 0.930 . S
H641 C656 0.960 . S
H642 C656 0.960 . S
H643 C656 0.960 . S
C644 H636 0.929 . S
C644 C645 1.377 . S
C644 C646 1.384 . S
C645 C644 1.377 . S
C645 C651 1.390 . S
C646 H637 0.930 . S
C646 C644 1.384 . S
C646 C647 1.372 . S
C647 C646 1.372 . S
C647 C648 1.400 . S
C647 C652 1.490 . S
C648 H638 0.930 . S
C648 C647 1.400 . S
C648 C651 1.386 . S
H649 C665 0.930 . S
H650 C666 0.931 . S
C651 H639 0.929 . S
C651 C645 1.390 . S
C651 C648 1.386 . S
C652 C647 1.490 . S
C652 C654 1.395 . S
C652 C655 1.403 . S
H653 C659 0.930 . S
C654 H640 0.930 . S
C654 C652 1.395 . S
C654 C657 1.403 . S
C655 C652 1.403 . S
C655 C656 1.524 . S
C655 C659 1.400 . S
C656 H641 0.960 . S
C656 H642 0.960 . S
C656 H643 0.960 . S
C656 C655 1.524 . S
C657 C654 1.403 . S
C657 C658 1.392 . S
C657 C661 1.495 . S
C658 C657 1.392 . S
C658 C659 1.385 . S
C658 C660 1.478 . S
C659 H653 0.930 . S
C659 C655 1.400 . S
C659 C658 1.385 . S
C660 C658 1.478 . S
C660 C662 1.381 . S
C660 C666 1.383 . S
C661 C657 1.495 . S
C661 H667 0.959 . S
C661 H668 0.961 . S
C661 H669 0.960 . S
C662 C660 1.381 . S
C662 C663 1.394 . S
C662 H670 0.930 . S
C663 C662 1.394 . S
C663 C664 1.383 . S
C663 H671 0.929 . S
C664 C663 1.383 . S
C664 C665 1.377 . S
C665 H649 0.930 . S
C665 C664 1.377 . S
C665 C666 1.379 . S
C666 H650 0.931 . S
C666 C660 1.383 . S
C666 C665 1.379 . S
H667 C661 0.959 . S
H668 C661 0.961 . S
H669 C661 0.960 . S
H670 C662 0.930 . S
H671 C663 0.929 . S
H672 C680 0.929 . S
H673 C682 0.930 . S
H674 C684 0.930 . S
H675 C687 0.929 . S
H676 C690 0.930 . S
H677 C692 0.960 . S
H678 C692 0.960 . S
H679 C692 0.960 . S
C680 H672 0.929 . S
C680 C681 1.377 . S
C680 C682 1.384 . S
C681 C680 1.377 . S
C681 C687 1.390 . S
C682 H673 0.930 . S
C682 C680 1.384 . S
C682 C683 1.372 . S
C683 C682 1.372 . S
C683 C684 1.400 . S
C683 C688 1.490 . S
C684 H674 0.930 . S
C684 C683 1.400 . S
C684 C687 1.386 . S
H685 C701 0.930 . S
H686 C702 0.931 . S
C687 H675 0.929 . S
C687 C681 1.390 . S
C687 C684 1.386 . S
C688 C683 1.490 . S
C688 C690 1.395 . S
C688 C691 1.403 . S
H689 C695 0.930 . S
C690 H676 0.930 . S
C690 C688 1.395 . S
C690 C693 1.403 . S
C691 C688 1.403 . S
C691 C692 1.524 . S
C691 C695 1.400 . S
C692 H677 0.960 . S
C692 H678 0.960 . S
C692 H679 0.960 . S
C692 C691 1.524 . S
C693 C690 1.403 . S
C693 C694 1.392 . S
C693 C697 1.495 . S
C694 C693 1.392 . S
C694 C695 1.385 . S
C694 C696 1.478 . S
C695 H689 0.930 . S
C695 C691 1.400 . S
C695 C694 1.385 . S
C696 C694 1.478 . S
C696 C698 1.381 . S
C696 C702 1.383 . S
C697 C693 1.495 . S
C697 H703 0.959 . S
C697 H704 0.961 . S
C697 H705 0.960 . S
C698 C696 1.381 . S
C698 C699 1.394 . S
C698 H706 0.930 . S
C699 C698 1.394 . S
C699 C700 1.383 . S
C699 H707 0.929 . S
C700 C699 1.383 . S
C700 C701 1.377 . S
C701 H685 0.930 . S
C701 C700 1.377 . S
C701 C702 1.379 . S
C702 H686 0.931 . S
C702 C696 1.383 . S
C702 C701 1.379 . S
H703 C697 0.959 . S
H704 C697 0.961 . S
H705 C697 0.960 . S
H706 C698 0.930 . S
H707 C699 0.929 . S
H708 C716 0.929 . S
H709 C718 0.930 . S
H710 C720 0.930 . S
H711 C723 0.929 . S
H712 C726 0.930 . S
H713 C728 0.960 . S
H714 C728 0.960 . S
H715 C728 0.960 . S
C716 H708 0.929 . S
C716 C717 1.377 . S
C716 C718 1.384 . S
C717 C716 1.377 . S
C717 C723 1.390 . S
C718 H709 0.930 . S
C718 C716 1.384 . S
C718 C719 1.372 . S
C719 C718 1.372 . S
C719 C720 1.400 . S
C719 C724 1.490 . S
C720 H710 0.930 . S
C720 C719 1.400 . S
C720 C723 1.386 . S
H721 C737 0.930 . S
H722 C738 0.931 . S
C723 H711 0.929 . S
C723 C717 1.390 . S
C723 C720 1.386 . S
C724 C719 1.490 . S
C724 C726 1.395 . S
C724 C727 1.403 . S
H725 C731 0.930 . S
C726 H712 0.930 . S
C726 C724 1.395 . S
C726 C729 1.403 . S
C727 C724 1.403 . S
C727 C728 1.524 . S
C727 C731 1.400 . S
C728 H713 0.960 . S
C728 H714 0.960 . S
C728 H715 0.960 . S
C728 C727 1.524 . S
C729 C726 1.403 . S
C729 C730 1.392 . S
C729 C733 1.495 . S
C730 C729 1.392 . S
C730 C731 1.385 . S
C730 C732 1.478 . S
C731 H725 0.930 . S
C731 C727 1.400 . S
C731 C730 1.385 . S
C732 C730 1.478 . S
C732 C734 1.381 . S
C732 C738 1.383 . S
C733 C729 1.495 . S
C733 H739 0.959 . S
C733 H740 0.961 . S
C733 H741 0.960 . S
C734 C732 1.381 . S
C734 C735 1.394 . S
C734 H742 0.930 . S
C735 C734 1.394 . S
C735 C736 1.383 . S
C735 H743 0.929 . S
C736 C735 1.383 . S
C736 C737 1.377 . S
C737 H721 0.930 . S
C737 C736 1.377 . S
C737 C738 1.379 . S
C738 H722 0.931 . S
C738 C732 1.383 . S
C738 C737 1.379 . S
H739 C733 0.959 . S
H740 C733 0.961 . S
H741 C733 0.960 . S
H742 C734 0.930 . S
H743 C735 0.929 . S
H744 C752 0.929 . S
H745 C754 0.930 . S
H746 C756 0.930 . S
H747 C759 0.929 . S
H748 C762 0.930 . S
H749 C764 0.960 . S
H750 C764 0.960 . S
H751 C764 0.960 . S
C752 H744 0.929 . S
C752 C753 1.377 . S
C752 C754 1.384 . S
C753 C752 1.377 . S
C753 C759 1.390 . S
C754 H745 0.930 . S
C754 C752 1.384 . S
C754 C755 1.372 . S
C755 C754 1.372 . S
C755 C756 1.400 . S
C755 C760 1.490 . S
C756 H746 0.930 . S
C756 C755 1.400 . S
C756 C759 1.386 . S
H757 C773 0.930 . S
H758 C774 0.931 . S
C759 H747 0.929 . S
C759 C753 1.390 . S
C759 C756 1.386 . S
C760 C755 1.490 . S
C760 C762 1.395 . S
C760 C763 1.403 . S
H761 C767 0.930 . S
C762 H748 0.930 . S
C762 C760 1.395 . S
C762 C765 1.403 . S
C763 C760 1.403 . S
C763 C764 1.524 . S
C763 C767 1.400 . S
C764 H749 0.960 . S
C764 H750 0.960 . S
C764 H751 0.960 . S
C764 C763 1.524 . S
C765 C762 1.403 . S
C765 C766 1.392 . S
C765 C769 1.495 . S
C766 C765 1.392 . S
C766 C767 1.385 . S
C766 C768 1.478 . S
C767 H761 0.930 . S
C767 C763 1.400 . S
C767 C766 1.385 . S
C768 C766 1.478 . S
C768 C770 1.381 . S
C768 C774 1.383 . S
C769 C765 1.495 . S
C769 H775 0.959 . S
C769 H776 0.961 . S
C769 H777 0.960 . S
C770 C768 1.381 . S
C770 C771 1.394 . S
C770 H778 0.930 . S
C771 C770 1.394 . S
C771 C772 1.383 . S
C771 H779 0.929 . S
C772 C771 1.383 . S
C772 C773 1.377 . S
C773 H757 0.930 . S
C773 C772 1.377 . S
C773 C774 1.379 . S
C774 H758 0.931 . S
C774 C768 1.383 . S
C774 C773 1.379 . S
H775 C769 0.959 . S
H776 C769 0.961 . S
H777 C769 0.960 . S
H778 C770 0.930 . S
H779 C771 0.929 . S
H780 C788 0.929 . S
H781 C790 0.930 . S
H782 C792 0.930 . S
H783 C795 0.929 . S
H784 C798 0.930 . S
H785 C800 0.960 . S
H786 C800 0.960 . S
H787 C800 0.960 . S
C788 H780 0.929 . S
C788 C789 1.377 . S
C788 C790 1.384 . S
C789 C788 1.377 . S
C789 C795 1.390 . S
C790 H781 0.930 . S
C790 C788 1.384 . S
C790 C791 1.372 . S
C791 C790 1.372 . S
C791 C792 1.400 . S
C791 C796 1.490 . S
C792 H782 0.930 . S
C792 C791 1.400 . S
C792 C795 1.386 . S
H793 C809 0.930 . S
H794 C810 0.931 . S
C795 H783 0.929 . S
C795 C789 1.390 . S
C795 C792 1.386 . S
C796 C791 1.490 . S
C796 C798 1.395 . S
C796 C799 1.403 . S
H797 C803 0.930 . S
C798 H784 0.930 . S
C798 C796 1.395 . S
C798 C801 1.403 . S
C799 C796 1.403 . S
C799 C800 1.524 . S
C799 C803 1.400 . S
C800 H785 0.960 . S
C800 H786 0.960 . S
C800 H787 0.960 . S
C800 C799 1.524 . S
C801 C798 1.403 . S
C801 C802 1.392 . S
C801 C805 1.495 . S
C802 C801 1.392 . S
C802 C803 1.385 . S
C802 C804 1.478 . S
C803 H797 0.930 . S
C803 C799 1.400 . S
C803 C802 1.385 . S
C804 C802 1.478 . S
C804 C806 1.381 . S
C804 C810 1.383 . S
C805 C801 1.495 . S
C805 H811 0.959 . S
C805 H812 0.961 . S
C805 H813 0.960 . S
C806 C804 1.381 . S
C806 C807 1.394 . S
C806 H814 0.930 . S
C807 C806 1.394 . S
C807 C808 1.383 . S
C807 H815 0.929 . S
C808 C807 1.383 . S
C808 C809 1.377 . S
C809 H793 0.930 . S
C809 C808 1.377 . S
C809 C810 1.379 . S
C810 H794 0.931 . S
C810 C804 1.383 . S
C810 C809 1.379 . S
H811 C805 0.959 . S
H812 C805 0.961 . S
H813 C805 0.960 . S
H814 C806 0.930 . S
H815 C807 0.929 . S
H816 C824 0.929 . S
H817 C826 0.930 . S
H818 C828 0.930 . S
H819 C831 0.929 . S
H820 C834 0.930 . S
H821 C836 0.960 . S
H822 C836 0.960 . S
H823 C836 0.960 . S
C824 H816 0.929 . S
C824 C825 1.377 . S
C824 C826 1.384 . S
C825 C824 1.377 . S
C825 C831 1.390 . S
C826 H817 0.930 . S
C826 C824 1.384 . S
C826 C827 1.372 . S
C827 C826 1.372 . S
C827 C828 1.400 . S
C827 C832 1.490 . S
C828 H818 0.930 . S
C828 C827 1.400 . S
C828 C831 1.386 . S
H829 C845 0.930 . S
H830 C846 0.931 . S
C831 H819 0.929 . S
C831 C825 1.390 . S
C831 C828 1.386 . S
C832 C827 1.490 . S
C832 C834 1.395 . S
C832 C835 1.403 . S
H833 C839 0.930 . S
C834 H820 0.930 . S
C834 C832 1.395 . S
C834 C837 1.403 . S
C835 C832 1.403 . S
C835 C836 1.524 . S
C835 C839 1.400 . S
C836 H821 0.960 . S
C836 H822 0.960 . S
C836 H823 0.960 . S
C836 C835 1.524 . S
C837 C834 1.403 . S
C837 C838 1.392 . S
C837 C841 1.495 . S
C838 C837 1.392 . S
C838 C839 1.385 . S
C838 C840 1.478 . S
C839 H833 0.930 . S
C839 C835 1.400 . S
C839 C838 1.385 . S
C840 C838 1.478 . S
C840 C842 1.381 . S
C840 C846 1.383 . S
C841 C837 1.495 . S
C841 H847 0.959 . S
C841 H848 0.961 . S
C841 H849 0.960 . S
C842 C840 1.381 . S
C842 C843 1.394 1_554 S
C842 H850 0.923 1_554 S
C843 C842 1.394 1_556 S
C843 C844 1.383 . S
C843 H851 0.929 . S
C844 C843 1.383 . S
C844 C845 1.377 1_556 S
C845 H829 0.930 . S
C845 C844 1.377 1_554 S
C845 C846 1.379 . S
C846 H830 0.931 . S
C846 C840 1.383 . S
C846 C845 1.379 . S
H847 C841 0.959 . S
H848 C841 0.961 . S
H849 C841 0.960 . S
H850 C842 0.923 1_556 S
H851 C843 0.929 . S
H852 C860 0.929 . S
H853 C862 0.930 . S
H854 C864 0.930 . S
H855 C867 0.929 . S
H856 C870 0.930 . S
H857 C872 0.960 . S
H858 C872 0.960 . S
H859 C872 0.960 . S
C860 H852 0.929 . S
C860 C861 1.377 . S
C860 C862 1.384 . S
C861 C860 1.377 . S
C861 C867 1.390 . S
C862 H853 0.930 . S
C862 C860 1.384 . S
C862 C863 1.372 . S
C863 C862 1.372 . S
C863 C864 1.400 . S
C863 C868 1.490 . S
C864 H854 0.930 . S
C864 C863 1.400 . S
C864 C867 1.386 . S
H865 C881 0.930 . S
H866 C882 0.931 . S
C867 H855 0.929 . S
C867 C861 1.390 . S
C867 C864 1.386 . S
C868 C863 1.490 . S
C868 C870 1.395 . S
C868 C871 1.403 . S
H869 C875 0.930 . S
C870 H856 0.930 . S
C870 C868 1.395 . S
C870 C873 1.403 . S
C871 C868 1.403 . S
C871 C872 1.524 . S
C871 C875 1.400 . S
C872 H857 0.960 . S
C872 H858 0.960 . S
C872 H859 0.960 . S
C872 C871 1.524 . S
C873 C870 1.403 . S
C873 C874 1.392 . S
C873 C877 1.495 . S
C874 C873 1.392 . S
C874 C875 1.385 . S
C874 C876 1.478 . S
C875 H869 0.930 . S
C875 C871 1.400 . S
C875 C874 1.385 . S
C876 C874 1.478 . S
C876 C878 1.381 . S
C876 C882 1.383 . S
C877 C873 1.495 . S
C877 H883 0.959 . S
C877 H884 0.961 . S
C877 H885 0.960 . S
C878 C876 1.381 . S
C878 C879 1.394 . S
C878 H886 0.930 . S
C879 C878 1.394 . S
C879 C880 1.383 . S
C879 H887 0.929 . S
C880 C879 1.383 . S
C880 C881 1.377 . S
C881 H865 0.930 . S
C881 C880 1.377 . S
C881 C882 1.379 . S
C882 H866 0.931 . S
C882 C876 1.383 . S
C882 C881 1.379 . S
H883 C877 0.959 . S
H884 C877 0.961 . S
H885 C877 0.960 . S
H886 C878 0.930 . S
H887 C879 0.929 . S
H888 C896 0.929 . S
H889 C898 0.930 . S
H890 C900 0.930 . S
H891 C903 0.929 . S
H892 C906 0.930 . S
H893 C908 0.960 . S
H894 C908 0.960 . S
H895 C908 0.960 . S
C896 H888 0.929 . S
C896 C897 1.377 . S
C896 C898 1.384 . S
C897 C896 1.377 . S
C897 C903 1.390 . S
C898 H889 0.930 . S
C898 C896 1.384 . S
C898 C899 1.372 . S
C899 C898 1.372 . S
C899 C900 1.400 . S
C899 C904 1.490 . S
C900 H890 0.930 . S
C900 C899 1.400 . S
C900 C903 1.386 . S
H901 C917 0.930 . S
H902 C918 0.931 . S
C903 H891 0.929 . S
C903 C897 1.390 . S
C903 C900 1.386 . S
C904 C899 1.490 . S
C904 C906 1.395 . S
C904 C907 1.403 . S
H905 C911 0.930 . S
C906 H892 0.930 . S
C906 C904 1.395 . S
C906 C909 1.403 . S
C907 C904 1.403 . S
C907 C908 1.524 . S
C907 C911 1.400 . S
C908 H893 0.960 . S
C908 H894 0.960 . S
C908 H895 0.960 . S
C908 C907 1.524 . S
C909 C906 1.403 . S
C909 C910 1.392 . S
C909 C913 1.495 . S
C910 C909 1.392 . S
C910 C911 1.385 . S
C910 C912 1.478 . S
C911 H905 0.930 . S
C911 C907 1.400 . S
C911 C910 1.385 . S
C912 C910 1.478 . S
C912 C914 1.381 . S
C912 C918 1.383 . S
C913 C909 1.495 . S
C913 H919 0.959 . S
C913 H920 0.961 . S
C913 H921 0.960 . S
C914 C912 1.381 . S
C914 C915 1.394 . S
C914 H922 0.930 . S
C915 C914 1.394 . S
C915 C916 1.383 . S
C915 H923 0.929 . S
C916 C915 1.383 . S
C916 C917 1.377 . S
C917 H901 0.930 . S
C917 C916 1.377 . S
C917 C918 1.379 . S
C918 H902 0.931 . S
C918 C912 1.383 . S
C918 C917 1.379 . S
H919 C913 0.959 . S
H920 C913 0.961 . S
H921 C913 0.960 . S
H922 C914 0.930 . S
H923 C915 0.929 . S
H924 C932 0.929 . S
H925 C934 0.930 . S
H926 C936 0.930 . S
H927 C939 0.929 . S
H928 C942 0.930 . S
H929 C944 0.960 . S
H930 C944 0.960 . S
H931 C944 0.960 . S
C932 H924 0.929 . S
C932 C933 1.377 . S
C932 C934 1.384 . S
C933 C932 1.377 . S
C933 C939 1.390 . S
C934 H925 0.930 . S
C934 C932 1.384 . S
C934 C935 1.372 . S
C935 C934 1.372 . S
C935 C936 1.400 . S
C935 C940 1.490 . S
C936 H926 0.930 . S
C936 C935 1.400 . S
C936 C939 1.386 . S
H937 C953 0.930 . S
H938 C954 0.931 . S
C939 H927 0.929 . S
C939 C933 1.390 . S
C939 C936 1.386 . S
C940 C935 1.490 . S
C940 C942 1.395 . S
C940 C943 1.403 . S
H941 C947 0.930 . S
C942 H928 0.930 . S
C942 C940 1.395 . S
C942 C945 1.403 . S
C943 C940 1.403 . S
C943 C944 1.524 . S
C943 C947 1.400 . S
C944 H929 0.960 . S
C944 H930 0.960 . S
C944 H931 0.960 . S
C944 C943 1.524 . S
C945 C942 1.403 . S
C945 C946 1.392 . S
C945 C949 1.495 . S
C946 C945 1.392 . S
C946 C947 1.385 . S
C946 C948 1.478 . S
C947 H941 0.930 . S
C947 C943 1.400 . S
C947 C946 1.385 . S
C948 C946 1.478 . S
C948 C950 1.381 . S
C948 C954 1.383 . S
C949 C945 1.495 . S
C949 H955 0.959 . S
C949 H956 0.961 . S
C949 H957 0.960 . S
C950 C948 1.381 . S
C950 C951 1.394 . S
C950 H958 0.930 . S
C951 C950 1.394 . S
C951 C952 1.383 . S
C951 H959 0.929 . S
C952 C951 1.383 . S
C952 C953 1.377 . S
C953 H937 0.930 . S
C953 C952 1.377 . S
C953 C954 1.379 . S
C954 H938 0.931 . S
C954 C948 1.383 . S
C954 C953 1.379 . S
H955 C949 0.959 . S
H956 C949 0.961 . S
H957 C949 0.960 . S
H958 C950 0.930 . S
H959 C951 0.929 . S
H960 C968 0.929 . S
H961 C970 0.930 . S
H962 C972 0.930 . S
H963 C975 0.929 . S
H964 C978 0.930 . S
H965 C980 0.960 . S
H966 C980 0.960 . S
H967 C980 0.960 . S
C968 H960 0.929 . S
C968 C969 1.377 . S
C968 C970 1.384 . S
C969 C968 1.377 . S
C969 C975 1.390 . S
C970 H961 0.930 . S
C970 C968 1.384 . S
C970 C971 1.372 . S
C971 C970 1.372 . S
C971 C972 1.400 . S
C971 C976 1.490 . S
C972 H962 0.930 . S
C972 C971 1.400 . S
C972 C975 1.386 . S
H973 C989 0.930 . S
H974 C990 0.931 . S
C975 H963 0.929 . S
C975 C969 1.390 . S
C975 C972 1.386 . S
C976 C971 1.490 . S
C976 C978 1.395 . S
C976 C979 1.403 . S
H977 C983 0.930 . S
C978 H964 0.930 . S
C978 C976 1.395 . S
C978 C981 1.403 . S
C979 C976 1.403 . S
C979 C980 1.524 . S
C979 C983 1.400 . S
C980 H965 0.960 . S
C980 H966 0.960 . S
C980 H967 0.960 . S
C980 C979 1.524 . S
C981 C978 1.403 . S
C981 C982 1.392 . S
C981 C985 1.495 . S
C982 C981 1.392 . S
C982 C983 1.385 . S
C982 C984 1.478 . S
C983 H977 0.930 . S
C983 C979 1.400 . S
C983 C982 1.385 . S
C984 C982 1.478 . S
C984 C986 1.381 . S
C984 C990 1.383 . S
C985 C981 1.495 . S
C985 H991 0.959 . S
C985 H992 0.961 . S
C985 H993 0.960 . S
C986 C984 1.381 . S
C986 C987 1.394 . S
C986 H994 0.930 . S
C987 C986 1.394 . S
C987 C988 1.383 . S
C987 H995 0.929 . S
C988 C987 1.383 . S
C988 C989 1.377 . S
C989 H973 0.930 . S
C989 C988 1.377 . S
C989 C990 1.379 . S
C990 H974 0.931 . S
C990 C984 1.383 . S
C990 C989 1.379 . S
H991 C985 0.959 . S
H992 C985 0.961 . S
H993 C985 0.960 . S
H994 C986 0.930 . S
H995 C987 0.929 . S
H996 C1004 0.929 . S
H997 C1006 0.930 . S
H998 C1008 0.930 . S
H999 C1011 0.929 . S
H1000 C1014 0.930 . S
H1001 C1016 0.960 . S
H1002 C1016 0.960 . S
H1003 C1016 0.960 . S
C1004 H996 0.929 . S
C1004 C1005 1.377 . S
C1004 C1006 1.384 . S
C1005 C1004 1.377 . S
C1005 C1011 1.390 . S
C1006 H997 0.930 . S
C1006 C1004 1.384 . S
C1006 C1007 1.372 . S
C1007 C1006 1.372 . S
C1007 C1008 1.400 . S
C1007 C1012 1.490 . S
C1008 H998 0.930 . S
C1008 C1007 1.400 . S
C1008 C1011 1.386 . S
H1009 C1025 0.930 . S
H1010 C1026 0.931 . S
C1011 H999 0.929 . S
C1011 C1005 1.390 . S
C1011 C1008 1.386 . S
C1012 C1007 1.490 . S
C1012 C1014 1.395 . S
C1012 C1015 1.403 . S
H1013 C1019 0.930 . S
C1014 H1000 0.930 . S
C1014 C1012 1.395 . S
C1014 C1017 1.403 . S
C1015 C1012 1.403 . S
C1015 C1016 1.524 . S
C1015 C1019 1.400 . S
C1016 H1001 0.960 . S
C1016 H1002 0.960 . S
C1016 H1003 0.960 . S
C1016 C1015 1.524 . S
C1017 C1014 1.403 . S
C1017 C1018 1.392 . S
C1017 C1021 1.495 . S
C1018 C1017 1.392 . S
C1018 C1019 1.385 . S
C1018 C1020 1.478 . S
C1019 H1013 0.930 . S
C1019 C1015 1.400 . S
C1019 C1018 1.385 . S
C1020 C1018 1.478 . S
C1020 C1022 1.381 . S
C1020 C1026 1.383 . S
C1021 C1017 1.495 . S
C1021 H1027 0.959 . S
C1021 H1028 0.961 . S
C1021 H1029 0.960 . S
C1022 C1020 1.381 . S
C1022 C1023 1.394 . S
C1022 H1030 0.930 . S
C1023 C1022 1.394 . S
C1023 C1024 1.383 . S
C1023 H1031 0.929 . S
C1024 C1023 1.383 . S
C1024 C1025 1.377 . S
C1025 H1009 0.930 . S
C1025 C1024 1.377 . S
C1025 C1026 1.379 . S
C1026 H1010 0.931 . S
C1026 C1020 1.383 . S
C1026 C1025 1.379 . S
H1027 C1021 0.959 . S
H1028 C1021 0.961 . S
H1029 C1021 0.960 . S
H1030 C1022 0.930 . S
H1031 C1023 0.929 . S
H1032 C1040 0.929 . S
H1033 C1042 0.930 . S
H1034 C1044 0.930 . S
H1035 C1047 0.929 . S
H1036 C1050 0.930 . S
H1037 C1052 0.960 1_455 S
H1038 C1052 0.960 . S
H1039 C1052 0.960 1_455 S
C1040 H1032 0.929 . S
C1040 C1041 1.377 . S
C1040 C1042 1.384 . S
C1041 C1040 1.377 . S
C1041 C1047 1.390 . S
C1042 H1033 0.930 . S
C1042 C1040 1.384 . S
C1042 C1043 1.372 . S
C1043 C1042 1.372 . S
C1043 C1044 1.400 . S
C1043 C1048 1.490 . S
C1044 H1034 0.930 . S
C1044 C1043 1.400 . S
C1044 C1047 1.386 . S
H1045 C1061 0.930 . S
H1046 C1062 0.931 . S
C1047 H1035 0.929 . S
C1047 C1041 1.390 . S
C1047 C1044 1.386 . S
C1048 C1043 1.490 . S
C1048 C1050 1.395 . S
C1048 C1051 1.403 . S
H1049 C1055 0.930 . S
C1050 H1036 0.930 . S
C1050 C1048 1.395 . S
C1050 C1053 1.403 . S
C1051 C1048 1.403 . S
C1051 C1052 1.524 . S
C1051 C1055 1.400 . S
C1052 H1037 0.960 1_655 S
C1052 H1038 0.960 . S
C1052 H1039 0.960 1_655 S
C1052 C1051 1.524 . S
C1053 C1050 1.403 . S
C1053 C1054 1.392 . S
C1053 C1057 1.495 . S
C1054 C1053 1.392 . S
C1054 C1055 1.385 . S
C1054 C1056 1.478 . S
C1055 H1049 0.930 . S
C1055 C1051 1.400 . S
C1055 C1054 1.385 . S
C1056 C1054 1.478 . S
C1056 C1058 1.381 . S
C1056 C1062 1.383 . S
C1057 C1053 1.495 . S
C1057 H1063 0.959 . S
C1057 H1064 0.961 . S
C1057 H1065 0.960 . S
C1058 C1056 1.381 . S
C1058 C1059 1.394 . S
C1058 H1066 0.930 . S
C1059 C1058 1.394 . S
C1059 C1060 1.383 . S
C1059 H1067 0.929 . S
C1060 C1059 1.383 . S
C1060 C1061 1.377 . S
C1061 H1045 0.930 . S
C1061 C1060 1.377 . S
C1061 C1062 1.379 . S
C1062 H1046 0.931 . S
C1062 C1056 1.383 . S
C1062 C1061 1.379 . S
H1063 C1057 0.959 . S
H1064 C1057 0.961 . S
H1065 C1057 0.960 . S
H1066 C1058 0.930 . S
H1067 C1059 0.929 . S
H1068 C1076 0.929 . S
H1069 C1078 0.930 . S
H1070 C1080 0.930 . S
H1071 C1083 0.929 . S
H1072 C1086 0.930 . S
H1073 C1088 0.960 . S
H1074 C1088 0.960 . S
H1075 C1088 0.960 . S
C1076 H1068 0.929 . S
C1076 C1077 1.377 . S
C1076 C1078 1.384 . S
C1077 C1076 1.377 . S
C1077 C1083 1.390 . S
C1078 H1069 0.930 . S
C1078 C1076 1.384 . S
C1078 C1079 1.372 . S
C1079 C1078 1.372 . S
C1079 C1080 1.400 . S
C1079 C1084 1.490 . S
C1080 H1070 0.930 . S
C1080 C1079 1.400 . S
C1080 C1083 1.386 . S
H1081 C1097 0.930 . S
H1082 C1098 0.931 . S
C1083 H1071 0.929 . S
C1083 C1077 1.390 . S
C1083 C1080 1.386 . S
C1084 C1079 1.490 . S
C1084 C1086 1.395 . S
C1084 C1087 1.403 . S
H1085 C1091 0.930 . S
C1086 H1072 0.930 . S
C1086 C1084 1.395 . S
C1086 C1089 1.403 . S
C1087 C1084 1.403 . S
C1087 C1088 1.524 . S
C1087 C1091 1.400 . S
C1088 H1073 0.960 . S
C1088 H1074 0.960 . S
C1088 H1075 0.960 . S
C1088 C1087 1.524 . S
C1089 C1086 1.403 . S
C1089 C1090 1.392 . S
C1089 C1093 1.495 . S
C1090 C1089 1.392 . S
C1090 C1091 1.385 . S
C1090 C1092 1.478 . S
C1091 H1085 0.930 . S
C1091 C1087 1.400 . S
C1091 C1090 1.385 . S
C1092 C1090 1.478 . S
C1092 C1094 1.381 . S
C1092 C1098 1.383 . S
C1093 C1089 1.495 . S
C1093 H1099 0.959 . S
C1093 H1100 0.961 . S
C1093 H1101 0.960 . S
C1094 C1092 1.381 . S
C1094 C1095 1.394 . S
C1094 H1102 0.930 . S
C1095 C1094 1.394 . S
C1095 C1096 1.383 . S
C1095 H1103 0.929 . S
C1096 C1095 1.383 . S
C1096 C1097 1.377 . S
C1097 H1081 0.930 . S
C1097 C1096 1.377 . S
C1097 C1098 1.379 . S
C1098 H1082 0.931 . S
C1098 C1092 1.383 . S
C1098 C1097 1.379 . S
H1099 C1093 0.959 . S
H1100 C1093 0.961 . S
H1101 C1093 0.960 . S
H1102 C1094 0.930 . S
H1103 C1095 0.929 . S
H1104 C1112 0.929 . S
H1105 C1114 0.930 . S
H1106 C1116 0.930 . S
H1107 C1119 0.929 . S
H1108 C1122 0.930 . S
H1109 C1124 0.960 . S
H1110 C1124 0.960 . S
H1111 C1124 0.960 . S
C1112 H1104 0.929 . S
C1112 C1113 1.377 . S
C1112 C1114 1.384 . S
C1113 C1112 1.377 . S
C1113 C1119 1.390 . S
C1114 H1105 0.930 . S
C1114 C1112 1.384 . S
C1114 C1115 1.372 . S
C1115 C1114 1.372 . S
C1115 C1116 1.400 . S
C1115 C1120 1.490 . S
C1116 H1106 0.930 . S
C1116 C1115 1.400 . S
C1116 C1119 1.386 . S
H1117 C1133 0.930 . S
H1118 C1134 0.931 . S
C1119 H1107 0.929 . S
C1119 C1113 1.390 . S
C1119 C1116 1.386 . S
C1120 C1115 1.490 . S
C1120 C1122 1.395 . S
C1120 C1123 1.403 . S
H1121 C1127 0.930 . S
C1122 H1108 0.930 . S
C1122 C1120 1.395 . S
C1122 C1125 1.403 . S
C1123 C1120 1.403 . S
C1123 C1124 1.524 . S
C1123 C1127 1.400 . S
C1124 H1109 0.960 . S
C1124 H1110 0.960 . S
C1124 H1111 0.960 . S
C1124 C1123 1.524 . S
C1125 C1122 1.403 . S
C1125 C1126 1.392 . S
C1125 C1129 1.495 . S
C1126 C1125 1.392 . S
C1126 C1127 1.385 . S
C1126 C1128 1.478 . S
C1127 H1121 0.930 . S
C1127 C1123 1.400 . S
C1127 C1126 1.385 . S
C1128 C1126 1.478 . S
C1128 C1130 1.381 . S
C1128 C1134 1.383 . S
C1129 C1125 1.495 . S
C1129 H1135 0.959 . S
C1129 H1136 0.961 . S
C1129 H1137 0.960 . S
C1130 C1128 1.381 . S
C1130 C1131 1.394 . S
C1130 H1138 0.930 . S
C1131 C1130 1.394 . S
C1131 C1132 1.383 . S
C1131 H1139 0.929 . S
C1132 C1131 1.383 . S
C1132 C1133 1.377 . S
C1133 H1117 0.930 . S
C1133 C1132 1.377 . S
C1133 C1134 1.379 . S
C1134 H1118 0.931 . S
C1134 C1128 1.383 . S
C1134 C1133 1.379 . S
H1135 C1129 0.959 . S
H1136 C1129 0.961 . S
H1137 C1129 0.960 . S
H1138 C1130 0.930 . S
H1139 C1131 0.929 . S
H1140 C1148 0.929 . S
H1141 C1150 0.930 . S
H1142 C1152 0.930 . S
H1143 C1155 0.929 . S
H1144 C1158 0.930 . S
H1145 C1160 0.960 . S
H1146 C1160 0.960 . S
H1147 C1160 0.960 . S
C1148 H1140 0.929 . S
C1148 C1149 1.377 . S
C1148 C1150 1.384 . S
C1149 C1148 1.377 . S
C1149 C1155 1.390 . S
C1150 H1141 0.930 . S
C1150 C1148 1.384 . S
C1150 C1151 1.372 . S
C1151 C1150 1.372 . S
C1151 C1152 1.400 . S
C1151 C1156 1.490 . S
C1152 H1142 0.930 . S
C1152 C1151 1.400 . S
C1152 C1155 1.386 . S
H1153 C1169 0.930 . S
H1154 C1170 0.931 . S
C1155 H1143 0.929 . S
C1155 C1149 1.390 . S
C1155 C1152 1.386 . S
C1156 C1151 1.490 . S
C1156 C1158 1.395 . S
C1156 C1159 1.403 . S
H1157 C1163 0.930 . S
C1158 H1144 0.930 . S
C1158 C1156 1.395 . S
C1158 C1161 1.403 . S
C1159 C1156 1.403 . S
C1159 C1160 1.524 . S
C1159 C1163 1.400 . S
C1160 H1145 0.960 . S
C1160 H1146 0.960 . S
C1160 H1147 0.960 . S
C1160 C1159 1.524 . S
C1161 C1158 1.403 . S
C1161 C1162 1.392 . S
C1161 C1165 1.495 . S
C1162 C1161 1.392 . S
C1162 C1163 1.385 . S
C1162 C1164 1.478 . S
C1163 H1157 0.930 . S
C1163 C1159 1.400 . S
C1163 C1162 1.385 . S
C1164 C1162 1.478 . S
C1164 C1166 1.381 . S
C1164 C1170 1.383 . S
C1165 C1161 1.495 . S
C1165 H1171 0.959 . S
C1165 H1172 0.961 . S
C1165 H1173 0.960 . S
C1166 C1164 1.381 . S
C1166 C1167 1.394 . S
C1166 H1174 0.930 . S
C1167 C1166 1.394 . S
C1167 C1168 1.383 . S
C1167 H1175 0.929 . S
C1168 C1167 1.383 . S
C1168 C1169 1.377 . S
C1169 H1153 0.930 . S
C1169 C1168 1.377 . S
C1169 C1170 1.379 . S
C1170 H1154 0.931 . S
C1170 C1164 1.383 . S
C1170 C1169 1.379 . S
H1171 C1165 0.959 . S
H1172 C1165 0.961 . S
H1173 C1165 0.960 . S
H1174 C1166 0.930 . S
H1175 C1167 0.929 . S
H1176 C1184 0.929 . S
H1177 C1186 0.930 . S
H1178 C1188 0.930 . S
H1179 C1191 0.929 . S
H1180 C1194 0.930 . S
H1181 C1196 0.960 . S
H1182 C1196 0.960 . S
H1183 C1196 0.960 . S
C1184 H1176 0.929 . S
C1184 C1185 1.377 . S
C1184 C1186 1.384 . S
C1185 C1184 1.377 . S
C1185 C1191 1.390 . S
C1186 H1177 0.930 . S
C1186 C1184 1.384 . S
C1186 C1187 1.372 . S
C1187 C1186 1.372 . S
C1187 C1188 1.400 . S
C1187 C1192 1.490 . S
C1188 H1178 0.930 . S
C1188 C1187 1.400 . S
C1188 C1191 1.386 . S
H1189 C1205 0.930 . S
H1190 C1206 0.931 . S
C1191 H1179 0.929 . S
C1191 C1185 1.390 . S
C1191 C1188 1.386 . S
C1192 C1187 1.490 . S
C1192 C1194 1.395 . S
C1192 C1195 1.403 . S
H1193 C1199 0.930 . S
C1194 H1180 0.930 . S
C1194 C1192 1.395 . S
C1194 C1197 1.403 . S
C1195 C1192 1.403 . S
C1195 C1196 1.524 . S
C1195 C1199 1.400 . S
C1196 H1181 0.960 . S
C1196 H1182 0.960 . S
C1196 H1183 0.960 . S
C1196 C1195 1.524 . S
C1197 C1194 1.403 . S
C1197 C1198 1.392 . S
C1197 C1201 1.495 . S
C1198 C1197 1.392 . S
C1198 C1199 1.385 . S
C1198 C1200 1.478 . S
C1199 H1193 0.930 . S
C1199 C1195 1.400 . S
C1199 C1198 1.385 . S
C1200 C1198 1.478 . S
C1200 C1202 1.381 . S
C1200 C1206 1.383 . S
C1201 C1197 1.495 . S
C1201 H1207 0.959 . S
C1201 H1208 0.961 . S
C1201 H1209 0.960 . S
C1202 C1200 1.381 . S
C1202 C1203 1.394 . S
C1202 H1210 0.930 . S
C1203 C1202 1.394 . S
C1203 C1204 1.383 . S
C1203 H1211 0.929 . S
C1204 C1203 1.383 . S
C1204 C1205 1.377 . S
C1205 H1189 0.930 . S
C1205 C1204 1.377 . S
C1205 C1206 1.379 . S
C1206 H1190 0.931 . S
C1206 C1200 1.383 . S
C1206 C1205 1.379 . S
H1207 C1201 0.959 . S
H1208 C1201 0.961 . S
H1209 C1201 0.960 . S
H1210 C1202 0.930 . S
H1211 C1203 0.929 . S
H1212 C1220 0.929 . S
H1213 C1222 0.930 . S
H1214 C1224 0.930 . S
H1215 C1227 0.929 . S
H1216 C1230 0.930 . S
H1217 C1232 0.960 . S
H1218 C1232 0.960 . S
H1219 C1232 0.960 . S
C1220 H1212 0.929 . S
C1220 C1221 1.377 . S
C1220 C1222 1.384 . S
C1221 C1220 1.377 . S
C1221 C1227 1.390 . S
C1222 H1213 0.930 . S
C1222 C1220 1.384 . S
C1222 C1223 1.372 . S
C1223 C1222 1.372 . S
C1223 C1224 1.400 . S
C1223 C1228 1.490 . S
C1224 H1214 0.930 . S
C1224 C1223 1.400 . S
C1224 C1227 1.386 . S
H1225 C1241 0.930 . S
H1226 C1242 0.931 . S
C1227 H1215 0.929 . S
C1227 C1221 1.390 . S
C1227 C1224 1.386 . S
C1228 C1223 1.490 . S
C1228 C1230 1.395 . S
C1228 C1231 1.403 . S
H1229 C1235 0.930 . S
C1230 H1216 0.930 . S
C1230 C1228 1.395 . S
C1230 C1233 1.403 . S
C1231 C1228 1.403 . S
C1231 C1232 1.524 . S
C1231 C1235 1.400 . S
C1232 H1217 0.960 . S
C1232 H1218 0.960 . S
C1232 H1219 0.960 . S
C1232 C1231 1.524 . S
C1233 C1230 1.403 . S
C1233 C1234 1.392 . S
C1233 C1237 1.495 . S
C1234 C1233 1.392 . S
C1234 C1235 1.385 . S
C1234 C1236 1.478 . S
C1235 H1229 0.930 . S
C1235 C1231 1.400 . S
C1235 C1234 1.385 . S
C1236 C1234 1.478 . S
C1236 C1238 1.381 . S
C1236 C1242 1.383 . S
C1237 C1233 1.495 . S
C1237 H1243 0.959 . S
C1237 H1244 0.961 . S
C1237 H1245 0.960 . S
C1238 C1236 1.381 . S
C1238 C1239 1.394 . S
C1238 H1246 0.930 . S
C1239 C1238 1.394 . S
C1239 C1240 1.383 . S
C1239 H1247 0.929 . S
C1240 C1239 1.383 . S
C1240 C1241 1.377 . S
C1241 H1225 0.930 . S
C1241 C1240 1.377 . S
C1241 C1242 1.379 . S
C1242 H1226 0.931 . S
C1242 C1236 1.383 . S
C1242 C1241 1.379 . S
H1243 C1237 0.959 . S
H1244 C1237 0.961 . S
H1245 C1237 0.960 . S
H1246 C1238 0.930 . S
H1247 C1239 0.929 . S
H1248 C1256 0.929 . S
H1249 C1258 0.930 . S
H1250 C1260 0.930 . S
H1251 C1263 0.929 . S
H1252 C1266 0.930 . S
H1253 C1268 0.960 . S
H1254 C1268 0.960 . S
H1255 C1268 0.960 . S
C1256 H1248 0.929 . S
C1256 C1257 1.377 . S
C1256 C1258 1.384 . S
C1257 C1256 1.377 . S
C1257 C1263 1.390 . S
C1258 H1249 0.930 . S
C1258 C1256 1.384 . S
C1258 C1259 1.372 . S
C1259 C1258 1.372 . S
C1259 C1260 1.400 . S
C1259 C1264 1.490 . S
C1260 H1250 0.930 . S
C1260 C1259 1.400 . S
C1260 C1263 1.386 . S
H1261 C1277 0.930 . S
H1262 C1278 0.931 . S
C1263 H1251 0.929 . S
C1263 C1257 1.390 . S
C1263 C1260 1.386 . S
C1264 C1259 1.490 . S
C1264 C1266 1.395 . S
C1264 C1267 1.403 . S
H1265 C1271 0.930 . S
C1266 H1252 0.930 . S
C1266 C1264 1.395 . S
C1266 C1269 1.403 . S
C1267 C1264 1.403 . S
C1267 C1268 1.524 . S
C1267 C1271 1.400 . S
C1268 H1253 0.960 . S
C1268 H1254 0.960 . S
C1268 H1255 0.960 . S
C1268 C1267 1.524 . S
C1269 C1266 1.403 . S
C1269 C1270 1.392 . S
C1269 C1273 1.495 . S
C1270 C1269 1.392 . S
C1270 C1271 1.385 . S
C1270 C1272 1.478 . S
C1271 H1265 0.930 . S
C1271 C1267 1.400 . S
C1271 C1270 1.385 . S
C1272 C1270 1.478 . S
C1272 C1274 1.381 . S
C1272 C1278 1.383 . S
C1273 C1269 1.495 . S
C1273 H1279 0.959 . S
C1273 H1280 0.961 . S
C1273 H1281 0.960 . S
C1274 C1272 1.381 . S
C1274 C1275 1.394 . S
C1274 H1282 0.930 . S
C1275 C1274 1.394 . S
C1275 C1276 1.383 . S
C1275 H1283 0.929 . S
C1276 C1275 1.383 . S
C1276 C1277 1.377 . S
C1277 H1261 0.930 . S
C1277 C1276 1.377 . S
C1277 C1278 1.379 . S
C1278 H1262 0.931 . S
C1278 C1272 1.383 . S
C1278 C1277 1.379 . S
H1279 C1273 0.959 . S
H1280 C1273 0.961 . S
H1281 C1273 0.960 . S
H1282 C1274 0.930 . S
H1283 C1275 0.929 . S
H1284 C1292 0.929 . S
H1285 C1294 0.930 . S
H1286 C1296 0.930 . S
H1287 C1299 0.929 . S
H1288 C1302 0.930 . S
H1289 C1304 0.960 . S
H1290 C1304 0.960 . S
H1291 C1304 0.960 . S
C1292 H1284 0.929 . S
C1292 C1293 1.377 . S
C1292 C1294 1.384 . S
C1293 C1292 1.377 . S
C1293 C1299 1.390 . S
C1294 H1285 0.930 . S
C1294 C1292 1.384 . S
C1294 C1295 1.372 . S
C1295 C1294 1.372 . S
C1295 C1296 1.400 . S
C1295 C1300 1.490 . S
C1296 H1286 0.930 . S
C1296 C1295 1.400 . S
C1296 C1299 1.386 . S
H1297 C1313 0.930 . S
H1298 C1314 0.931 . S
C1299 H1287 0.929 . S
C1299 C1293 1.390 . S
C1299 C1296 1.386 . S
C1300 C1295 1.490 . S
C1300 C1302 1.395 . S
C1300 C1303 1.403 . S
H1301 C1307 0.930 . S
C1302 H1288 0.930 . S
C1302 C1300 1.395 . S
C1302 C1305 1.403 . S
C1303 C1300 1.403 . S
C1303 C1304 1.524 . S
C1303 C1307 1.400 . S
C1304 H1289 0.960 . S
C1304 H1290 0.960 . S
C1304 H1291 0.960 . S
C1304 C1303 1.524 . S
C1305 C1302 1.403 . S
C1305 C1306 1.392 . S
C1305 C1309 1.495 . S
C1306 C1305 1.392 . S
C1306 C1307 1.385 . S
C1306 C1308 1.478 . S
C1307 H1301 0.930 . S
C1307 C1303 1.400 . S
C1307 C1306 1.385 . S
C1308 C1306 1.478 . S
C1308 C1310 1.381 . S
C1308 C1314 1.383 . S
C1309 C1305 1.495 . S
C1309 H1315 0.959 . S
C1309 H1316 0.961 . S
C1309 H1317 0.960 . S
C1310 C1308 1.381 . S
C1310 C1311 1.394 . S
C1310 H1318 0.930 . S
C1311 C1310 1.394 . S
C1311 C1312 1.383 . S
C1311 H1319 0.929 . S
C1312 C1311 1.383 . S
C1312 C1313 1.377 . S
C1313 H1297 0.930 . S
C1313 C1312 1.377 . S
C1313 C1314 1.379 . S
C1314 H1298 0.931 . S
C1314 C1308 1.383 . S
C1314 C1313 1.379 . S
H1315 C1309 0.959 . S
H1316 C1309 0.961 . S
H1317 C1309 0.960 . S
H1318 C1310 0.930 . S
H1319 C1311 0.929 . S
H1320 C1328 0.929 . S
H1321 C1330 0.930 . S
H1322 C1332 0.930 . S
H1323 C1335 0.929 . S
H1324 C1338 0.930 . S
H1325 C1340 0.960 . S
H1326 C1340 0.960 . S
H1327 C1340 0.960 . S
C1328 H1320 0.929 . S
C1328 C1329 1.377 . S
C1328 C1330 1.384 . S
C1329 C1328 1.377 . S
C1329 C1335 1.390 . S
C1330 H1321 0.930 . S
C1330 C1328 1.384 . S
C1330 C1331 1.372 . S
C1331 C1330 1.372 . S
C1331 C1332 1.400 . S
C1331 C1336 1.490 . S
C1332 H1322 0.930 . S
C1332 C1331 1.400 . S
C1332 C1335 1.386 . S
H1333 C1349 0.930 . S
H1334 C1350 0.931 . S
C1335 H1323 0.929 . S
C1335 C1329 1.390 . S
C1335 C1332 1.386 . S
C1336 C1331 1.490 . S
C1336 C1338 1.395 . S
C1336 C1339 1.403 . S
H1337 C1343 0.930 . S
C1338 H1324 0.930 . S
C1338 C1336 1.395 . S
C1338 C1341 1.403 . S
C1339 C1336 1.403 . S
C1339 C1340 1.524 . S
C1339 C1343 1.400 . S
C1340 H1325 0.960 . S
C1340 H1326 0.960 . S
C1340 H1327 0.960 . S
C1340 C1339 1.524 . S
C1341 C1338 1.403 . S
C1341 C1342 1.392 . S
C1341 C1345 1.495 . S
C1342 C1341 1.392 . S
C1342 C1343 1.385 . S
C1342 C1344 1.478 . S
C1343 H1337 0.930 . S
C1343 C1339 1.400 . S
C1343 C1342 1.385 . S
C1344 C1342 1.478 . S
C1344 C1346 1.381 . S
C1344 C1350 1.383 . S
C1345 C1341 1.495 . S
C1345 H1351 0.959 . S
C1345 H1352 0.961 . S
C1345 H1353 0.960 . S
C1346 C1344 1.381 . S
C1346 C1347 1.394 . S
C1346 H1354 0.930 . S
C1347 C1346 1.394 . S
C1347 C1348 1.383 . S
C1347 H1355 0.929 . S
C1348 C1347 1.383 . S
C1348 C1349 1.377 . S
C1349 H1333 0.930 . S
C1349 C1348 1.377 . S
C1349 C1350 1.379 . S
C1350 H1334 0.931 . S
C1350 C1344 1.383 . S
C1350 C1349 1.379 . S
H1351 C1345 0.959 . S
H1352 C1345 0.961 . S
H1353 C1345 0.960 . S
H1354 C1346 0.930 . S
H1355 C1347 0.929 . S
H1356 C1364 0.929 . S
H1357 C1366 0.930 . S
H1358 C1368 0.930 . S
H1359 C1371 0.929 . S
H1360 C1374 0.930 . S
H1361 C1376 0.960 . S
H1362 C1376 0.960 . S
H1363 C1376 0.960 . S
C1364 H1356 0.929 . S
C1364 C1365 1.377 . S
C1364 C1366 1.384 . S
C1365 C1364 1.377 . S
C1365 C1371 1.390 . S
C1366 H1357 0.930 . S
C1366 C1364 1.384 . S
C1366 C1367 1.372 . S
C1367 C1366 1.372 . S
C1367 C1368 1.400 . S
C1367 C1372 1.490 . S
C1368 H1358 0.930 . S
C1368 C1367 1.400 . S
C1368 C1371 1.386 . S
H1369 C1385 0.930 . S
H1370 C1386 0.931 . S
C1371 H1359 0.929 . S
C1371 C1365 1.390 . S
C1371 C1368 1.386 . S
C1372 C1367 1.490 . S
C1372 C1374 1.395 . S
C1372 C1375 1.403 . S
H1373 C1379 0.930 . S
C1374 H1360 0.930 . S
C1374 C1372 1.395 . S
C1374 C1377 1.403 . S
C1375 C1372 1.403 . S
C1375 C1376 1.524 . S
C1375 C1379 1.400 . S
C1376 H1361 0.960 . S
C1376 H1362 0.960 . S
C1376 H1363 0.960 . S
C1376 C1375 1.524 . S
C1377 C1374 1.403 . S
C1377 C1378 1.392 . S
C1377 C1381 1.495 . S
C1378 C1377 1.392 . S
C1378 C1379 1.385 . S
C1378 C1380 1.478 . S
C1379 H1373 0.930 . S
C1379 C1375 1.400 . S
C1379 C1378 1.385 . S
C1380 C1378 1.478 . S
C1380 C1382 1.381 . S
C1380 C1386 1.383 . S
C1381 C1377 1.495 . S
C1381 H1387 0.959 . S
C1381 H1388 0.961 . S
C1381 H1389 0.960 . S
C1382 C1380 1.381 . S
C1382 C1383 1.394 . S
C1382 H1390 0.930 . S
C1383 C1382 1.394 . S
C1383 C1384 1.383 . S
C1383 H1391 0.929 . S
C1384 C1383 1.383 . S
C1384 C1385 1.377 . S
C1385 H1369 0.930 . S
C1385 C1384 1.377 . S
C1385 C1386 1.379 . S
C1386 H1370 0.931 . S
C1386 C1380 1.383 . S
C1386 C1385 1.379 . S
H1387 C1381 0.959 . S
H1388 C1381 0.961 . S
H1389 C1381 0.960 . S
H1390 C1382 0.930 . S
H1391 C1383 0.929 . S
H1392 C1400 0.929 . S
H1393 C1402 0.930 . S
H1394 C1404 0.930 . S
H1395 C1407 0.929 . S
H1396 C1410 0.930 . S
H1397 C1412 0.960 . S
H1398 C1412 0.960 . S
H1399 C1412 0.960 . S
C1400 H1392 0.929 . S
C1400 C1401 1.377 . S
C1400 C1402 1.384 . S
C1401 C1400 1.377 . S
C1401 C1407 1.390 . S
C1402 H1393 0.930 . S
C1402 C1400 1.384 . S
C1402 C1403 1.372 . S
C1403 C1402 1.372 . S
C1403 C1404 1.400 . S
C1403 C1408 1.490 . S
C1404 H1394 0.930 . S
C1404 C1403 1.400 . S
C1404 C1407 1.386 . S
H1405 C1421 0.930 . S
H1406 C1422 0.931 . S
C1407 H1395 0.929 . S
C1407 C1401 1.390 . S
C1407 C1404 1.386 . S
C1408 C1403 1.490 . S
C1408 C1410 1.395 . S
C1408 C1411 1.403 . S
H1409 C1415 0.930 . S
C1410 H1396 0.930 . S
C1410 C1408 1.395 . S
C1410 C1413 1.403 . S
C1411 C1408 1.403 . S
C1411 C1412 1.524 . S
C1411 C1415 1.400 . S
C1412 H1397 0.960 . S
C1412 H1398 0.960 . S
C1412 H1399 0.960 . S
C1412 C1411 1.524 . S
C1413 C1410 1.403 . S
C1413 C1414 1.392 . S
C1413 C1417 1.495 . S
C1414 C1413 1.392 . S
C1414 C1415 1.385 . S
C1414 C1416 1.478 . S
C1415 H1409 0.930 . S
C1415 C1411 1.400 . S
C1415 C1414 1.385 . S
C1416 C1414 1.478 . S
C1416 C1418 1.381 . S
C1416 C1422 1.383 . S
C1417 C1413 1.495 . S
C1417 H1423 0.959 . S
C1417 H1424 0.961 . S
C1417 H1425 0.960 . S
C1418 C1416 1.381 . S
C1418 C1419 1.394 . S
C1418 H1426 0.930 . S
C1419 C1418 1.394 . S
C1419 C1420 1.383 . S
C1419 H1427 0.929 . S
C1420 C1419 1.383 . S
C1420 C1421 1.377 . S
C1421 H1405 0.930 . S
C1421 C1420 1.377 . S
C1421 C1422 1.379 . S
C1422 H1406 0.931 . S
C1422 C1416 1.383 . S
C1422 C1421 1.379 . S
H1423 C1417 0.959 . S
H1424 C1417 0.961 . S
H1425 C1417 0.960 . S
H1426 C1418 0.930 . S
H1427 C1419 0.929 . S
H1428 C1436 0.901 1_554 S
H1429 C1438 0.882 1_554 S
H1430 C1440 0.930 . S
H1431 C1443 0.929 . S
H1432 C1446 0.930 . S
H1433 C1448 0.961 . S
H1434 C1448 0.964 . S
H1435 C1448 0.955 1_556 S
C1436 H1428 0.901 1_556 S
C1436 C1437 1.377 . S
C1436 C1438 1.401 . S
C1437 C1436 1.377 . S
C1437 C1443 1.390 . S
C1438 H1429 0.882 1_556 S
C1438 C1436 1.401 . S
C1438 C1439 1.404 . S
C1439 C1438 1.404 . S
C1439 C1440 1.400 . S
C1439 C1444 1.490 . S
C1440 H1430 0.930 . S
C1440 C1439 1.400 . S
C1440 C1443 1.386 . S
H1441 C1457 0.930 1_556 S
H1442 C1458 0.931 . S
C1443 H1431 0.929 . S
C1443 C1437 1.390 . S
C1443 C1440 1.386 . S
C1444 C1439 1.490 . S
C1444 C1446 1.395 . S
C1444 C1447 1.415 . S
H1445 C1451 0.930 . S
C1446 H1432 0.930 . S
C1446 C1444 1.395 . S
C1446 C1449 1.411 . S
C1447 C1444 1.415 . S
C1447 C1448 1.522 1_556 S
C1447 C1451 1.390 1_556 S
C1448 H1433 0.961 . S
C1448 H1434 0.964 . S
C1448 H1435 0.955 1_554 S
C1448 C1447 1.522 1_554 S
C1449 C1446 1.411 . S
C1449 C1450 1.386 1_556 S
C1449 C1453 1.495 . S
C1450 C1449 1.386 1_554 S
C1450 C1451 1.385 . S
C1450 C1452 1.478 . S
C1451 H1445 0.930 . S
C1451 C1447 1.390 1_554 S
C1451 C1450 1.385 . S
C1452 C1450 1.478 . S
C1452 C1454 1.381 . S
C1452 C1458 1.383 1_554 S
C1453 C1449 1.495 . S
C1453 H1459 0.971 . S
C1453 H1460 0.991 . S
C1453 H1461 0.920 1_556 S
C1454 C1452 1.381 . S
C1454 C1455 1.394 . S
C1454 H1462 0.930 . S
C1455 C1454 1.394 . S
C1455 C1456 1.383 . S
C1455 H1463 0.929 . S
C1456 C1455 1.383 . S
C1456 C1457 1.377 . S
C1457 H1441 0.930 1_554 S
C1457 C1456 1.377 . S
C1457 C1458 1.379 1_554 S
C1458 H1442 0.931 . S
C1458 C1452 1.383 1_556 S
C1458 C1457 1.379 1_556 S
H1459 C1453 0.971 . S
H1460 C1453 0.991 . S
H1461 C1453 0.920 1_554 S
H1462 C1454 0.930 . S
H1463 C1455 0.929 . S
H1464 C1472 0.929 . S
H1465 C1474 0.930 . S
H1466 C1476 0.930 . S
H1467 C1479 0.929 . S
H1468 C1482 0.930 . S
H1469 C1484 0.960 . S
H1470 C1484 0.960 . S
H1471 C1484 0.960 . S
C1472 H1464 0.929 . S
C1472 C1473 1.377 . S
C1472 C1474 1.384 . S
C1473 C1472 1.377 . S
C1473 C1479 1.390 . S
C1474 H1465 0.930 . S
C1474 C1472 1.384 . S
C1474 C1475 1.372 . S
C1475 C1474 1.372 . S
C1475 C1476 1.400 . S
C1475 C1480 1.490 . S
C1476 H1466 0.930 . S
C1476 C1475 1.400 . S
C1476 C1479 1.386 . S
H1477 C1493 0.930 . S
H1478 C1494 0.931 . S
C1479 H1467 0.929 . S
C1479 C1473 1.390 . S
C1479 C1476 1.386 . S
C1480 C1475 1.490 . S
C1480 C1482 1.395 . S
C1480 C1483 1.403 . S
H1481 C1487 0.930 . S
C1482 H1468 0.930 . S
C1482 C1480 1.395 . S
C1482 C1485 1.403 . S
C1483 C1480 1.403 . S
C1483 C1484 1.524 . S
C1483 C1487 1.400 . S
C1484 H1469 0.960 . S
C1484 H1470 0.960 . S
C1484 H1471 0.960 . S
C1484 C1483 1.524 . S
C1485 C1482 1.403 . S
C1485 C1486 1.392 . S
C1485 C1489 1.495 . S
C1486 C1485 1.392 . S
C1486 C1487 1.385 . S
C1486 C1488 1.478 . S
C1487 H1481 0.930 . S
C1487 C1483 1.400 . S
C1487 C1486 1.385 . S
C1488 C1486 1.478 . S
C1488 C1490 1.381 . S
C1488 C1494 1.383 . S
C1489 C1485 1.495 . S
C1489 H1495 0.959 . S
C1489 H1496 0.961 . S
C1489 H1497 0.960 . S
C1490 C1488 1.381 . S
C1490 C1491 1.394 . S
C1490 H1498 0.930 . S
C1491 C1490 1.394 . S
C1491 C1492 1.383 . S
C1491 H1499 0.929 1_455 S
C1492 C1491 1.383 . S
C1492 C1493 1.377 . S
C1493 H1477 0.930 . S
C1493 C1492 1.377 . S
C1493 C1494 1.379 . S
C1494 H1478 0.931 . S
C1494 C1488 1.383 . S
C1494 C1493 1.379 . S
H1495 C1489 0.959 . S
H1496 C1489 0.961 . S
H1497 C1489 0.960 . S
H1498 C1490 0.930 . S
H1499 C1491 0.929 1_655 S
H1500 C1508 0.929 . S
H1501 C1510 0.930 . S
H1502 C1512 0.930 . S
H1503 C1515 0.929 . S
H1504 C1518 0.930 . S
H1505 C1520 0.960 . S
H1506 C1520 0.960 . S
H1507 C1520 0.960 . S
C1508 H1500 0.929 . S
C1508 C1509 1.377 . S
C1508 C1510 1.384 . S
C1509 C1508 1.377 . S
C1509 C1515 1.390 . S
C1510 H1501 0.930 . S
C1510 C1508 1.384 . S
C1510 C1511 1.372 . S
C1511 C1510 1.372 . S
C1511 C1512 1.400 . S
C1511 C1516 1.490 . S
C1512 H1502 0.930 . S
C1512 C1511 1.400 . S
C1512 C1515 1.386 . S
H1513 C1529 0.930 . S
H1514 C1530 0.931 . S
C1515 H1503 0.929 . S
C1515 C1509 1.390 . S
C1515 C1512 1.386 . S
C1516 C1511 1.490 . S
C1516 C1518 1.395 . S
C1516 C1519 1.403 . S
H1517 C1523 0.930 . S
C1518 H1504 0.930 . S
C1518 C1516 1.395 . S
C1518 C1521 1.403 . S
C1519 C1516 1.403 . S
C1519 C1520 1.524 . S
C1519 C1523 1.400 . S
C1520 H1505 0.960 . S
C1520 H1506 0.960 . S
C1520 H1507 0.960 . S
C1520 C1519 1.524 . S
C1521 C1518 1.403 . S
C1521 C1522 1.392 . S
C1521 C1525 1.495 . S
C1522 C1521 1.392 . S
C1522 C1523 1.385 . S
C1522 C1524 1.478 . S
C1523 H1517 0.930 . S
C1523 C1519 1.400 . S
C1523 C1522 1.385 . S
C1524 C1522 1.478 . S
C1524 C1526 1.381 . S
C1524 C1530 1.383 . S
C1525 C1521 1.495 . S
C1525 H1531 0.959 . S
C1525 H1532 0.961 . S
C1525 H1533 0.960 . S
C1526 C1524 1.381 . S
C1526 C1527 1.394 . S
C1526 H1534 0.930 . S
C1527 C1526 1.394 . S
C1527 C1528 1.383 . S
C1527 H1535 0.929 . S
C1528 C1527 1.383 . S
C1528 C1529 1.377 . S
C1529 H1513 0.930 . S
C1529 C1528 1.377 . S
C1529 C1530 1.379 . S
C1530 H1514 0.931 . S
C1530 C1524 1.383 . S
C1530 C1529 1.379 . S
H1531 C1525 0.959 . S
H1532 C1525 0.961 . S
H1533 C1525 0.960 . S
H1534 C1526 0.930 . S
H1535 C1527 0.929 . S
H1536 C1544 0.929 . S
H1537 C1546 0.930 . S
H1538 C1548 0.930 . S
H1539 C1551 0.929 . S
H1540 C1554 0.930 . S
H1541 C1556 0.960 . S
H1542 C1556 0.960 . S
H1543 C1556 0.960 . S
C1544 H1536 0.929 . S
C1544 C1545 1.377 . S
C1544 C1546 1.384 . S
C1545 C1544 1.377 . S
C1545 C1551 1.390 . S
C1546 H1537 0.930 . S
C1546 C1544 1.384 . S
C1546 C1547 1.372 . S
C1547 C1546 1.372 . S
C1547 C1548 1.400 . S
C1547 C1552 1.490 . S
C1548 H1538 0.930 . S
C1548 C1547 1.400 . S
C1548 C1551 1.386 . S
H1549 C1565 0.930 . S
H1550 C1566 0.931 . S
C1551 H1539 0.929 . S
C1551 C1545 1.390 . S
C1551 C1548 1.386 . S
C1552 C1547 1.490 . S
C1552 C1554 1.395 . S
C1552 C1555 1.403 . S
H1553 C1559 0.930 . S
C1554 H1540 0.930 . S
C1554 C1552 1.395 . S
C1554 C1557 1.403 . S
C1555 C1552 1.403 . S
C1555 C1556 1.524 . S
C1555 C1559 1.400 . S
C1556 H1541 0.960 . S
C1556 H1542 0.960 . S
C1556 H1543 0.960 . S
C1556 C1555 1.524 . S
C1557 C1554 1.403 . S
C1557 C1558 1.392 . S
C1557 C1561 1.495 . S
C1558 C1557 1.392 . S
C1558 C1559 1.385 . S
C1558 C1560 1.478 . S
C1559 H1553 0.930 . S
C1559 C1555 1.400 . S
C1559 C1558 1.385 . S
C1560 C1558 1.478 . S
C1560 C1562 1.381 . S
C1560 C1566 1.383 . S
C1561 C1557 1.495 . S
C1561 H1567 0.959 . S
C1561 H1568 0.961 . S
C1561 H1569 0.960 . S
C1562 C1560 1.381 . S
C1562 C1563 1.394 . S
C1562 H1570 0.930 . S
C1563 C1562 1.394 . S
C1563 C1564 1.383 . S
C1563 H1571 0.929 . S
C1564 C1563 1.383 . S
C1564 C1565 1.377 . S
C1565 H1549 0.930 . S
C1565 C1564 1.377 . S
C1565 C1566 1.379 . S
C1566 H1550 0.931 . S
C1566 C1560 1.383 . S
C1566 C1565 1.379 . S
H1567 C1561 0.959 . S
H1568 C1561 0.961 . S
H1569 C1561 0.960 . S
H1570 C1562 0.930 . S
H1571 C1563 0.929 . S
H1572 C1580 0.929 . S
H1573 C1582 0.930 . S
H1574 C1584 0.930 . S
H1575 C1587 0.929 . S
H1576 C1590 0.930 . S
H1577 C1592 0.960 . S
H1578 C1592 0.960 . S
H1579 C1592 0.960 . S
C1580 H1572 0.929 . S
C1580 C1581 1.377 . S
C1580 C1582 1.384 . S
C1581 C1580 1.377 . S
C1581 C1587 1.390 . S
C1582 H1573 0.930 . S
C1582 C1580 1.384 . S
C1582 C1583 1.372 . S
C1583 C1582 1.372 . S
C1583 C1584 1.400 . S
C1583 C1588 1.490 . S
C1584 H1574 0.930 . S
C1584 C1583 1.400 . S
C1584 C1587 1.386 . S
H1585 C1601 0.930 . S
H1586 C1602 0.931 . S
C1587 H1575 0.929 . S
C1587 C1581 1.390 . S
C1587 C1584 1.386 . S
C1588 C1583 1.490 . S
C1588 C1590 1.395 . S
C1588 C1591 1.403 . S
H1589 C1595 0.930 . S
C1590 H1576 0.930 . S
C1590 C1588 1.395 . S
C1590 C1593 1.403 . S
C1591 C1588 1.403 . S
C1591 C1592 1.524 . S
C1591 C1595 1.400 . S
C1592 H1577 0.960 . S
C1592 H1578 0.960 . S
C1592 H1579 0.960 . S
C1592 C1591 1.524 . S
C1593 C1590 1.403 . S
C1593 C1594 1.392 . S
C1593 C1597 1.495 . S
C1594 C1593 1.392 . S
C1594 C1595 1.385 . S
C1594 C1596 1.478 . S
C1595 H1589 0.930 . S
C1595 C1591 1.400 . S
C1595 C1594 1.385 . S
C1596 C1594 1.478 . S
C1596 C1598 1.381 . S
C1596 C1602 1.383 . S
C1597 C1593 1.495 . S
C1597 H1603 0.959 . S
C1597 H1604 0.961 . S
C1597 H1605 0.960 . S
C1598 C1596 1.381 . S
C1598 C1599 1.394 . S
C1598 H1606 0.930 . S
C1599 C1598 1.394 . S
C1599 C1600 1.383 . S
C1599 H1607 0.929 . S
C1600 C1599 1.383 . S
C1600 C1601 1.377 1_655 S
C1601 H1585 0.930 . S
C1601 C1600 1.377 1_455 S
C1601 C1602 1.379 1_455 S
C1602 H1586 0.931 . S
C1602 C1596 1.383 . S
C1602 C1601 1.379 1_655 S
H1603 C1597 0.959 . S
H1604 C1597 0.961 . S
H1605 C1597 0.960 . S
H1606 C1598 0.930 . S
H1607 C1599 0.929 . S
H1608 C1616 0.929 . S
H1609 C1618 0.930 . S
H1610 C1620 0.930 . S
H1611 C1623 0.929 . S
H1612 C1626 0.930 . S
H1613 C1628 0.960 . S
H1614 C1628 0.960 . S
H1615 C1628 0.960 . S
C1616 H1608 0.929 . S
C1616 C1617 1.377 . S
C1616 C1618 1.384 . S
C1617 C1616 1.377 . S
C1617 C1623 1.390 . S
C1618 H1609 0.930 . S
C1618 C1616 1.384 . S
C1618 C1619 1.372 . S
C1619 C1618 1.372 . S
C1619 C1620 1.400 . S
C1619 C1624 1.490 . S
C1620 H1610 0.930 . S
C1620 C1619 1.400 . S
C1620 C1623 1.386 . S
H1621 C1637 0.930 . S
H1622 C1638 0.931 . S
C1623 H1611 0.929 . S
C1623 C1617 1.390 . S
C1623 C1620 1.386 . S
C1624 C1619 1.490 . S
C1624 C1626 1.395 . S
C1624 C1627 1.403 . S
H1625 C1631 0.930 . S
C1626 H1612 0.930 . S
C1626 C1624 1.395 . S
C1626 C1629 1.403 . S
C1627 C1624 1.403 . S
C1627 C1628 1.524 . S
C1627 C1631 1.400 . S
C1628 H1613 0.960 . S
C1628 H1614 0.960 . S
C1628 H1615 0.960 . S
C1628 C1627 1.524 . S
C1629 C1626 1.403 . S
C1629 C1630 1.392 . S
C1629 C1633 1.495 . S
C1630 C1629 1.392 . S
C1630 C1631 1.385 . S
C1630 C1632 1.478 . S
C1631 H1625 0.930 . S
C1631 C1627 1.400 . S
C1631 C1630 1.385 . S
C1632 C1630 1.478 . S
C1632 C1634 1.381 . S
C1632 C1638 1.383 . S
C1633 C1629 1.495 . S
C1633 H1639 0.959 . S
C1633 H1640 0.961 . S
C1633 H1641 0.960 . S
C1634 C1632 1.381 . S
C1634 C1635 1.395 1_565 S
C1634 H1642 0.930 . S
C1635 C1634 1.395 1_545 S
C1635 C1636 1.383 1_545 S
C1635 H1643 0.929 . S
C1636 C1635 1.383 1_565 S
C1636 C1637 1.377 . S
C1637 H1621 0.930 . S
C1637 C1636 1.377 . S
C1637 C1638 1.379 . S
C1638 H1622 0.931 . S
C1638 C1632 1.383 . S
C1638 C1637 1.379 . S
H1639 C1633 0.959 . S
H1640 C1633 0.961 . S
H1641 C1633 0.960 . S
H1642 C1634 0.930 . S
H1643 C1635 0.929 . S
H1644 C1652 0.929 . S
H1645 C1654 0.930 . S
H1646 C1656 0.930 . S
H1647 C1659 0.929 . S
H1648 C1662 0.930 . S
H1649 C1664 0.960 . S
H1650 C1664 0.960 . S
H1651 C1664 0.960 . S
C1652 H1644 0.929 . S
C1652 C1653 1.377 . S
C1652 C1654 1.384 . S
C1653 C1652 1.377 . S
C1653 C1659 1.390 . S
C1654 H1645 0.930 . S
C1654 C1652 1.384 . S
C1654 C1655 1.372 . S
C1655 C1654 1.372 . S
C1655 C1656 1.400 . S
C1655 C1660 1.490 . S
C1656 H1646 0.930 . S
C1656 C1655 1.400 . S
C1656 C1659 1.386 . S
H1657 C1673 0.930 . S
H1658 C1674 0.931 . S
C1659 H1647 0.929 . S
C1659 C1653 1.390 . S
C1659 C1656 1.386 . S
C1660 C1655 1.490 . S
C1660 C1662 1.395 . S
C1660 C1663 1.403 . S
H1661 C1667 0.930 . S
C1662 H1648 0.930 . S
C1662 C1660 1.395 . S
C1662 C1665 1.403 . S
C1663 C1660 1.403 . S
C1663 C1664 1.524 . S
C1663 C1667 1.400 . S
C1664 H1649 0.960 . S
C1664 H1650 0.960 . S
C1664 H1651 0.960 . S
C1664 C1663 1.524 . S
C1665 C1662 1.403 . S
C1665 C1666 1.392 . S
C1665 C1669 1.495 . S
C1666 C1665 1.392 . S
C1666 C1667 1.385 . S
C1666 C1668 1.478 . S
C1667 H1661 0.930 . S
C1667 C1663 1.400 . S
C1667 C1666 1.385 . S
C1668 C1666 1.478 . S
C1668 C1670 1.381 . S
C1668 C1674 1.383 . S
C1669 C1665 1.495 . S
C1669 H1675 0.959 . S
C1669 H1676 0.961 . S
C1669 H1677 0.960 . S
C1670 C1668 1.381 . S
C1670 C1671 1.394 . S
C1670 H1678 0.930 . S
C1671 C1670 1.394 . S
C1671 C1672 1.383 . S
C1671 H1679 0.929 . S
C1672 C1671 1.383 . S
C1672 C1673 1.377 . S
C1673 H1657 0.930 . S
C1673 C1672 1.377 . S
C1673 C1674 1.379 . S
C1674 H1658 0.931 . S
C1674 C1668 1.383 . S
C1674 C1673 1.379 . S
H1675 C1669 0.959 . S
H1676 C1669 0.961 . S
H1677 C1669 0.960 . S
H1678 C1670 0.930 . S
H1679 C1671 0.929 . S
H1680 C1688 0.929 . S
H1681 C1690 0.930 . S
H1682 C1692 0.930 . S
H1683 C1695 0.929 1_654 S
H1684 C1698 0.930 . S
H1685 C1700 0.960 . S
H1686 C1700 0.960 1_556 S
H1687 C1700 0.960 . S
C1688 H1680 0.929 . S
C1688 C1689 1.377 . S
C1688 C1690 1.384 . S
C1689 C1688 1.377 . S
C1689 C1695 1.390 . S
C1690 H1681 0.930 . S
C1690 C1688 1.384 . S
C1690 C1691 1.372 . S
C1691 C1690 1.372 . S
C1691 C1692 1.400 1_556 S
C1691 C1696 1.490 . S
C1692 H1682 0.930 . S
C1692 C1691 1.400 1_554 S
C1692 C1695 1.386 1_554 S
H1693 C1709 0.930 . S
H1694 C1710 0.931 . S
C1695 H1683 0.929 1_456 S
C1695 C1689 1.390 . S
C1695 C1692 1.386 1_556 S
C1696 C1691 1.490 . S
C1696 C1698 1.395 . S
C1696 C1699 1.403 1_556 S
H1697 C1703 0.930 . S
C1698 H1684 0.930 . S
C1698 C1696 1.395 . S
C1698 C1701 1.403 . S
C1699 C1696 1.403 1_554 S
C1699 C1700 1.524 . S
C1699 C1703 1.400 . S
C1700 H1685 0.960 . S
C1700 H1686 0.960 1_554 S
C1700 H1687 0.960 . S
C1700 C1699 1.524 . S
C1701 C1698 1.403 . S
C1701 C1702 1.392 1_556 S
C1701 C1705 1.495 . S
C1702 C1701 1.392 1_554 S
C1702 C1703 1.385 . S
C1702 C1704 1.478 . S
C1703 H1697 0.930 . S
C1703 C1699 1.400 . S
C1703 C1702 1.385 . S
C1704 C1702 1.478 . S
C1704 C1706 1.381 1_554 S
C1704 C1710 1.383 . S
C1705 C1701 1.495 . S
C1705 H1711 0.959 . S
C1705 H1712 0.961 1_556 S
C1705 H1713 0.960 . S
C1706 C1704 1.381 1_556 S
C1706 C1707 1.394 1_556 S
C1706 H1714 0.930 . S
C1707 C1706 1.394 1_554 S
C1707 C1708 1.383 . S
C1707 H1715 0.929 1_554 S
C1708 C1707 1.383 . S
C1708 C1709 1.377 . S
C1709 H1693 0.930 . S
C1709 C1708 1.377 . S
C1709 C1710 1.379 . S
C1710 H1694 0.931 . S
C1710 C1704 1.383 . S
C1710 C1709 1.379 . S
H1711 C1705 0.959 . S
H1712 C1705 0.961 1_554 S
H1713 C1705 0.960 . S
H1714 C1706 0.930 . S
H1715 C1707 0.929 1_556 S
H1716 C1724 0.929 . S
H1717 C1726 0.930 . S
H1718 C1728 0.930 . S
H1719 C1731 0.929 . S
H1720 C1734 0.930 . S
H1721 C1736 0.960 . S
H1722 C1736 0.960 . S
H1723 C1736 0.960 . S
C1724 H1716 0.929 . S
C1724 C1725 1.377 . S
C1724 C1726 1.384 . S
C1725 C1724 1.377 . S
C1725 C1731 1.390 . S
C1726 H1717 0.930 . S
C1726 C1724 1.384 . S
C1726 C1727 1.372 . S
C1727 C1726 1.372 . S
C1727 C1728 1.400 . S
C1727 C1732 1.490 . S
C1728 H1718 0.930 . S
C1728 C1727 1.400 . S
C1728 C1731 1.386 . S
H1729 C1745 0.930 . S
H1730 C1746 0.931 . S
C1731 H1719 0.929 . S
C1731 C1725 1.390 . S
C1731 C1728 1.386 . S
C1732 C1727 1.490 . S
C1732 C1734 1.395 . S
C1732 C1735 1.403 . S
H1733 C1739 0.930 . S
C1734 H1720 0.930 . S
C1734 C1732 1.395 . S
C1734 C1737 1.403 . S
C1735 C1732 1.403 . S
C1735 C1736 1.524 . S
C1735 C1739 1.400 . S
C1736 H1721 0.960 . S
C1736 H1722 0.960 . S
C1736 H1723 0.960 . S
C1736 C1735 1.524 . S
C1737 C1734 1.403 . S
C1737 C1738 1.392 . S
C1737 C1741 1.495 . S
C1738 C1737 1.392 . S
C1738 C1739 1.385 . S
C1738 C1740 1.478 . S
C1739 H1733 0.930 . S
C1739 C1735 1.400 . S
C1739 C1738 1.385 . S
C1740 C1738 1.478 . S
C1740 C1742 1.381 . S
C1740 C1746 1.383 . S
C1741 C1737 1.495 . S
C1741 H1747 0.959 . S
C1741 H1748 0.961 . S
C1741 H1749 0.960 . S
C1742 C1740 1.381 . S
C1742 C1743 1.394 . S
C1742 H1750 0.930 . S
C1743 C1742 1.394 . S
C1743 C1744 1.383 . S
C1743 H1751 0.929 . S
C1744 C1743 1.383 . S
C1744 C1745 1.377 . S
C1745 H1729 0.930 . S
C1745 C1744 1.377 . S
C1745 C1746 1.379 . S
C1746 H1730 0.931 . S
C1746 C1740 1.383 . S
C1746 C1745 1.379 . S
H1747 C1741 0.959 . S
H1748 C1741 0.961 . S
H1749 C1741 0.960 . S
H1750 C1742 0.930 . S
H1751 C1743 0.929 . S
H1752 C1760 0.929 . S
H1753 C1762 0.930 . S
H1754 C1764 0.930 . S
H1755 C1767 0.929 . S
H1756 C1770 0.930 . S
H1757 C1772 0.960 . S
H1758 C1772 0.960 . S
H1759 C1772 0.960 . S
C1760 H1752 0.929 . S
C1760 C1761 1.377 . S
C1760 C1762 1.384 . S
C1761 C1760 1.377 . S
C1761 C1767 1.390 . S
C1762 H1753 0.930 . S
C1762 C1760 1.384 . S
C1762 C1763 1.372 . S
C1763 C1762 1.372 . S
C1763 C1764 1.400 . S
C1763 C1768 1.490 . S
C1764 H1754 0.930 . S
C1764 C1763 1.400 . S
C1764 C1767 1.386 . S
H1765 C1781 0.930 . S
H1766 C1782 0.931 . S
C1767 H1755 0.929 . S
C1767 C1761 1.390 . S
C1767 C1764 1.386 . S
C1768 C1763 1.490 . S
C1768 C1770 1.395 . S
C1768 C1771 1.403 . S
H1769 C1775 0.930 . S
C1770 H1756 0.930 . S
C1770 C1768 1.395 . S
C1770 C1773 1.403 . S
C1771 C1768 1.403 . S
C1771 C1772 1.524 . S
C1771 C1775 1.400 . S
C1772 H1757 0.960 . S
C1772 H1758 0.960 . S
C1772 H1759 0.960 . S
C1772 C1771 1.524 . S
C1773 C1770 1.403 . S
C1773 C1774 1.392 . S
C1773 C1777 1.495 . S
C1774 C1773 1.392 . S
C1774 C1775 1.385 . S
C1774 C1776 1.478 . S
C1775 H1769 0.930 . S
C1775 C1771 1.400 . S
C1775 C1774 1.385 . S
C1776 C1774 1.478 . S
C1776 C1778 1.381 . S
C1776 C1782 1.383 . S
C1777 C1773 1.495 . S
C1777 H1783 0.959 . S
C1777 H1784 0.961 . S
C1777 H1785 0.960 . S
C1778 C1776 1.381 . S
C1778 C1779 1.394 . S
C1778 H1786 0.930 . S
C1779 C1778 1.394 . S
C1779 C1780 1.383 . S
C1779 H1787 0.929 . S
C1780 C1779 1.383 . S
C1780 C1781 1.377 . S
C1781 H1765 0.930 . S
C1781 C1780 1.377 . S
C1781 C1782 1.379 . S
C1782 H1766 0.931 . S
C1782 C1776 1.383 . S
C1782 C1781 1.379 . S
H1783 C1777 0.959 . S
H1784 C1777 0.961 . S
H1785 C1777 0.960 . S
H1786 C1778 0.930 . S
H1787 C1779 0.929 . S
H1788 C1796 0.929 . S
H1789 C1798 0.930 . S
H1790 C1800 0.930 . S
H1791 C1803 0.929 . S
H1792 C1806 0.930 . S
H1793 C1808 0.960 . S
H1794 C1808 0.960 . S
H1795 C1808 0.960 . S
C1796 H1788 0.929 . S
C1796 C1797 1.377 . S
C1796 C1798 1.384 . S
C1797 C1796 1.377 . S
C1797 C1803 1.390 . S
C1798 H1789 0.930 . S
C1798 C1796 1.384 . S
C1798 C1799 1.372 . S
C1799 C1798 1.372 . S
C1799 C1800 1.400 . S
C1799 C1804 1.490 . S
C1800 H1790 0.930 . S
C1800 C1799 1.400 . S
C1800 C1803 1.386 . S
H1801 C1817 0.930 . S
H1802 C1818 0.931 . S
C1803 H1791 0.929 . S
C1803 C1797 1.390 . S
C1803 C1800 1.386 . S
C1804 C1799 1.490 . S
C1804 C1806 1.395 . S
C1804 C1807 1.403 . S
H1805 C1811 0.930 . S
C1806 H1792 0.930 . S
C1806 C1804 1.395 . S
C1806 C1809 1.403 . S
C1807 C1804 1.403 . S
C1807 C1808 1.524 . S
C1807 C1811 1.400 . S
C1808 H1793 0.960 . S
C1808 H1794 0.960 . S
C1808 H1795 0.960 . S
C1808 C1807 1.524 . S
C1809 C1806 1.403 . S
C1809 C1810 1.392 . S
C1809 C1813 1.495 . S
C1810 C1809 1.392 . S
C1810 C1811 1.385 . S
C1810 C1812 1.478 . S
C1811 H1805 0.930 . S
C1811 C1807 1.400 . S
C1811 C1810 1.385 . S
C1812 C1810 1.478 . S
C1812 C1814 1.381 . S
C1812 C1818 1.383 . S
C1813 C1809 1.495 . S
C1813 H1819 0.959 . S
C1813 H1820 0.961 . S
C1813 H1821 0.960 . S
C1814 C1812 1.381 . S
C1814 C1815 1.394 . S
C1814 H1822 0.930 . S
C1815 C1814 1.394 . S
C1815 C1816 1.383 . S
C1815 H1823 0.929 . S
C1816 C1815 1.383 . S
C1816 C1817 1.377 . S
C1817 H1801 0.930 . S
C1817 C1816 1.377 . S
C1817 C1818 1.379 . S
C1818 H1802 0.931 . S
C1818 C1812 1.383 . S
C1818 C1817 1.379 . S
H1819 C1813 0.959 . S
H1820 C1813 0.961 . S
H1821 C1813 0.960 . S
H1822 C1814 0.930 . S
H1823 C1815 0.929 . S
H1824 C1832 0.929 . S
H1825 C1834 0.930 . S
H1826 C1836 0.930 . S
H1827 C1839 0.929 . S
H1828 C1842 0.930 . S
H1829 C1844 0.960 . S
H1830 C1844 0.960 . S
H1831 C1844 0.960 . S
C1832 H1824 0.929 . S
C1832 C1833 1.377 . S
C1832 C1834 1.384 . S
C1833 C1832 1.377 . S
C1833 C1839 1.390 . S
C1834 H1825 0.930 . S
C1834 C1832 1.384 . S
C1834 C1835 1.372 . S
C1835 C1834 1.372 . S
C1835 C1836 1.400 . S
C1835 C1840 1.490 . S
C1836 H1826 0.930 . S
C1836 C1835 1.400 . S
C1836 C1839 1.386 . S
H1837 C1853 0.920 1_545 S
H1838 C1854 0.931 . S
C1839 H1827 0.929 . S
C1839 C1833 1.390 . S
C1839 C1836 1.386 . S
C1840 C1835 1.490 . S
C1840 C1842 1.395 . S
C1840 C1843 1.403 . S
H1841 C1847 0.930 . S
C1842 H1828 0.930 . S
C1842 C1840 1.395 . S
C1842 C1845 1.403 . S
C1843 C1840 1.403 . S
C1843 C1844 1.524 . S
C1843 C1847 1.400 . S
C1844 H1829 0.960 . S
C1844 H1830 0.960 . S
C1844 H1831 0.960 . S
C1844 C1843 1.524 . S
C1845 C1842 1.403 . S
C1845 C1846 1.392 . S
C1845 C1849 1.495 . S
C1846 C1845 1.392 . S
C1846 C1847 1.385 . S
C1846 C1848 1.478 . S
C1847 H1841 0.930 . S
C1847 C1843 1.400 . S
C1847 C1846 1.385 . S
C1848 C1846 1.478 . S
C1848 C1850 1.381 . S
C1848 C1854 1.383 . S
C1849 C1845 1.495 . S
C1849 H1855 0.959 . S
C1849 H1856 0.961 . S
C1849 H1857 0.960 . S
C1850 C1848 1.381 . S
C1850 C1851 1.394 . S
C1850 H1858 0.930 . S
C1851 C1850 1.394 . S
C1851 C1852 1.383 . S
C1851 H1859 0.929 . S
C1852 C1851 1.383 . S
C1852 C1853 1.383 . S
C1853 H1837 0.920 1_565 S
C1853 C1852 1.383 . S
C1853 C1854 1.382 . S
C1854 H1838 0.931 . S
C1854 C1848 1.383 . S
C1854 C1853 1.382 . S
H1855 C1849 0.959 . S
H1856 C1849 0.961 . S
H1857 C1849 0.960 . S
H1858 C1850 0.930 . S
H1859 C1851 0.929 . S
C357 C21 1.587 . S
C376 C253 1.582 . S
C393 C50 1.581 . S
C412 C282 1.610 . S
C429 C311 1.587 . S
C448 C79 1.583 . S
C465 C108 1.574 . S
C484 C340 1.580 . S
C501 C137 1.581 . S
C520 C195 1.610 . S
C537 C166 1.576 . S
C556 C224 1.542 . S
C573 C148 0.145 . S
C592 C15 0.413 . S
C609 C44 0.324 . S
C628 C3 0.178 . S
C645 C73 0.326 . S
C664 C32 0.227 . S
C681 C61 0.145 . S
C700 C102 0.426 . S
C717 C90 0.165 . S
C736 C131 0.362 . S
C753 C119 0.165 . S
C772 C160 0.360 . S
C789 C189 0.345 . S
C808 C206 0.118 . S
C825 C235 0.147 . S
C844 C218 0.433 . S
C861 C264 0.172 . S
C880 C247 0.294 . S
C897 C293 0.173 . S
C916 C276 0.257 . S
C933 C322 0.162 . S
C952 C305 0.272 . S
C969 C334 0.321 . S
C988 C177 0.189 . S
C1005 C8 0.457 . S
C1024 C182 0.359 . S
C1041 C37 0.436 . S
C1060 C211 0.363 . S
C1077 C240 0.455 . S
C1096 C66 0.486 . S
C1113 C269 0.461 . S
C1132 C95 0.432 . S
C1149 C124 0.460 . S
C1168 C298 0.386 . S
C1185 C153 0.459 . S
C1204 C327 0.459 . S
C1221 C245 1.511 . S
C1240 C13 1.482 . S
C1257 C274 1.521 . S
C1276 C42 1.523 . S
C1293 C303 1.523 . S
C1312 C71 1.546 . S
C1329 C100 1.517 . S
C1348 C332 1.503 . S
C1365 C187 1.516 . S
C1384 C129 1.497 . S
C1401 C216 1.523 . S
C1420 C158 1.531 . S
C1437 C208 3.192 . S
C1456 C10 3.302 . S
C1473 C237 3.198 . S
C1492 C39 3.308 1_455 S
C1509 C266 3.198 . S
C1528 C68 3.309 1_545 S
C1545 C295 3.198 . S
C1564 C97 3.309 . S
C1581 C324 3.194 . S
C1600 C126 3.305 1_655 S
C1617 C179 3.193 . S
C1636 C155 3.303 1_565 S
C1653 C184 3.310 . S
C1672 C150 3.184 . S
C1689 C213 3.310 1_455 S
C1708 C5 3.178 . S
C1725 C34 3.198 . S
C1744 C242 3.309 1_545 S
C1761 C63 3.198 . S
C1780 C271 3.308 . S
C1797 C300 3.310 1_655 S
C1816 C92 3.176 . S
C1833 C121 3.196 . S
C1852 C329 3.307 1_565 S
