# Generated by pormake.
# Topology umh, (4)-cn, num edge types: 1
# Building blocks:
#     Node 0, Type 0, BuildingBlock: QUQFOY_clean_sbu_1, # of connection points: 4
#     Node 1, Type 0, BuildingBlock: QUQFOY_clean_sbu_1, # of connection points: 4
#     Node 2, Type 0, BuildingBlock: QUQFOY_clean_sbu_1, # of connection points: 4
#     Node 3, Type 0, BuildingBlock: QUQFOY_clean_sbu_1, # of connection points: 4
#     Node 4, Type 0, BuildingBlock: QUQFOY_clean_sbu_1, # of connection points: 4
#     Node 5, Type 0, BuildingBlock: QUQFOY_clean_sbu_1, # of connection points: 4
#     Node 6, Type 0, BuildingBlock: QUQFOY_clean_sbu_1, # of connection points: 4
#     Node 7, Type 0, BuildingBlock: QUQFOY_clean_sbu_1, # of connection points: 4
#     Node 8, Type 0, BuildingBlock: QUQFOY_clean_sbu_1, # of connection points: 4
#     Node 9, Type 0, BuildingBlock: QUQFOY_clean_sbu_1, # of connection points: 4
#     Node 10, Type 0, BuildingBlock: QUQFOY_clean_sbu_1, # of connection points: 4
#     Node 11, Type 0, BuildingBlock: QUQFOY_clean_sbu_1, # of connection points: 4
#     Node 12, Type 0, BuildingBlock: QUQFOY_clean_sbu_1, # of connection points: 4
#     Node 13, Type 0, BuildingBlock: QUQFOY_clean_sbu_1, # of connection points: 4
#     Node 14, Type 0, BuildingBlock: QUQFOY_clean_sbu_1, # of connection points: 4
#     Node 15, Type 0, BuildingBlock: QUQFOY_clean_sbu_1, # of connection points: 4
#     Edge 16, Type (0, 0), BuildingBlock: EYOCIG_clean_linker_4, # of connection points: 2
#     Edge 17, Type (0, 0), BuildingBlock: EYOCIG_clean_linker_4, # of connection points: 2
#     Edge 18, Type (0, 0), BuildingBlock: EYOCIG_clean_linker_4, # of connection points: 2
#     Edge 19, Type (0, 0), BuildingBlock: EYOCIG_clean_linker_4, # of connection points: 2
#     Edge 20, Type (0, 0), BuildingBlock: EYOCIG_clean_linker_4, # of connection points: 2
#     Edge 21, Type (0, 0), BuildingBlock: EYOCIG_clean_linker_4, # of connection points: 2
#     Edge 22, Type (0, 0), BuildingBlock: EYOCIG_clean_linker_4, # of connection points: 2
#     Edge 23, Type (0, 0), BuildingBlock: EYOCIG_clean_linker_4, # of connection points: 2
#     Edge 24, Type (0, 0), BuildingBlock: EYOCIG_clean_linker_4, # of connection points: 2
#     Edge 25, Type (0, 0), BuildingBlock: EYOCIG_clean_linker_4, # of connection points: 2
#     Edge 26, Type (0, 0), BuildingBlock: EYOCIG_clean_linker_4, # of connection points: 2
#     Edge 27, Type (0, 0), BuildingBlock: EYOCIG_clean_linker_4, # of connection points: 2
#     Edge 28, Type (0, 0), BuildingBlock: EYOCIG_clean_linker_4, # of connection points: 2
#     Edge 29, Type (0, 0), BuildingBlock: EYOCIG_clean_linker_4, # of connection points: 2
#     Edge 30, Type (0, 0), BuildingBlock: EYOCIG_clean_linker_4, # of connection points: 2
#     Edge 31, Type (0, 0), BuildingBlock: EYOCIG_clean_linker_4, # of connection points: 2
#     Edge 32, Type (0, 0), BuildingBlock: EYOCIG_clean_linker_4, # of connection points: 2
#     Edge 33, Type (0, 0), BuildingBlock: EYOCIG_clean_linker_4, # of connection points: 2
#     Edge 34, Type (0, 0), BuildingBlock: EYOCIG_clean_linker_4, # of connection points: 2
#     Edge 35, Type (0, 0), BuildingBlock: EYOCIG_clean_linker_4, # of connection points: 2
#     Edge 36, Type (0, 0), BuildingBlock: EYOCIG_clean_linker_4, # of connection points: 2
#     Edge 37, Type (0, 0), BuildingBlock: EYOCIG_clean_linker_4, # of connection points: 2
#     Edge 38, Type (0, 0), BuildingBlock: EYOCIG_clean_linker_4, # of connection points: 2
#     Edge 39, Type (0, 0), BuildingBlock: EYOCIG_clean_linker_4, # of connection points: 2
#     Edge 40, Type (0, 0), BuildingBlock: EYOCIG_clean_linker_4, # of connection points: 2
#     Edge 41, Type (0, 0), BuildingBlock: EYOCIG_clean_linker_4, # of connection points: 2
#     Edge 42, Type (0, 0), BuildingBlock: EYOCIG_clean_linker_4, # of connection points: 2
#     Edge 43, Type (0, 0), BuildingBlock: EYOCIG_clean_linker_4, # of connection points: 2
#     Edge 44, Type (0, 0), BuildingBlock: EYOCIG_clean_linker_4, # of connection points: 2
#     Edge 45, Type (0, 0), BuildingBlock: EYOCIG_clean_linker_4, # of connection points: 2
#     Edge 46, Type (0, 0), BuildingBlock: EYOCIG_clean_linker_4, # of connection points: 2
#     Edge 47, Type (0, 0), BuildingBlock: EYOCIG_clean_linker_4, # of connection points: 2
# Relax obj value: 0.068
# Max RMSD: 0.294
# Mean RMSD: 0.294
data_MOF--net-umh--node1-QUQFOY_clean_sbu_1--edge1-EYOCIG_clean_linker_4
_symmetry_space_group_name_H-M    P1
_symmetry_Int_Tables_number       1
_symmetry_cell_setting            triclinic
loop_
_symmetry_equiv_pos_as_xyz
'x, y, z'
_cell_length_a     32.670258
_cell_length_b     32.643572
_cell_length_c     41.833253
_cell_angle_alpha  90.022207
_cell_angle_beta   90.043837
_cell_angle_gamma 90.018255
loop_
_atom_site_label
_atom_site_type_symbol
_atom_site_fract_x
_atom_site_fract_y
_atom_site_fract_z
_atom_type_partial_charge
O0 O 0.36035 0.12739 0.12247 0.0
Cd1 Cd 0.3681 0.1138 0.16859 0.0
Cd2 Cd 0.29198 0.09763 0.1627 0.0
O3 O 0.30675 0.08729 0.11441 0.0
O4 O 0.42761 0.10053 0.17473 0.0
O5 O 0.37846 0.05356 0.17534 0.0
C6 C 0.41687 0.06247 0.17613 0.0
C7 C 0.27682 0.06662 0.2115 0.0
C8 C 0.3351 0.11061 0.10375 0.0
C9 C 0.30914 0.17646 0.18835 0.0
O10 O 0.28592 0.15822 0.16878 0.0
O11 O 0.34289 0.16027 0.19737 0.0
O12 O 0.24855 0.07034 0.18991 0.0
O13 O 0.31394 0.07536 0.20376 0.0
O14 O 0.39494 0.35941 0.6217 0.0
Cd15 Cd 0.40812 0.3681 0.66789 0.0
Cd16 Cd 0.42257 0.29121 0.66273 0.0
O17 O 0.43304 0.30425 0.61423 0.0
O18 O 0.42133 0.42782 0.67299 0.0
O19 O 0.46808 0.37861 0.67561 0.0
C20 C 0.45926 0.41707 0.6754 0.0
C21 C 0.45376 0.27573 0.71136 0.0
C22 C 0.41068 0.33318 0.60327 0.0
C23 C 0.34414 0.31115 0.6883 0.0
O24 O 0.3619 0.28702 0.66918 0.0
O25 O 0.36099 0.34479 0.69683 0.0
O26 O 0.44857 0.24722 0.69014 0.0
O27 O 0.44639 0.31307 0.70327 0.0
O28 O 0.16106 0.39468 0.12197 0.0
Cd29 Cd 0.15293 0.40848 0.16802 0.0
Cd30 Cd 0.2294 0.42343 0.16269 0.0
O31 O 0.21567 0.43345 0.11417 0.0
O32 O 0.09349 0.42233 0.17359 0.0
O33 O 0.14312 0.46878 0.1749 0.0
C34 C 0.10461 0.46026 0.17529 0.0
C35 C 0.24478 0.45456 0.21143 0.0
C36 C 0.18697 0.41062 0.1034 0.0
C37 C 0.21052 0.34491 0.18834 0.0
O38 O 0.23433 0.3628 0.16905 0.0
O39 O 0.17689 0.36161 0.19702 0.0
O40 O 0.27316 0.45001 0.19006 0.0
O41 O 0.20754 0.44657 0.20347 0.0
O42 O 0.127 0.16131 0.6226 0.0
Cd43 Cd 0.11311 0.15383 0.66869 0.0
Cd44 Cd 0.09702 0.2299 0.66262 0.0
O45 O 0.08682 0.21477 0.61435 0.0
O46 O 0.09955 0.09438 0.675 0.0
O47 O 0.05283 0.14375 0.67519 0.0
C48 C 0.06156 0.10528 0.67616 0.0
C49 C 0.06602 0.24546 0.71135 0.0
C50 C 0.11022 0.18642 0.60379 0.0
C51 C 0.17562 0.21294 0.68853 0.0
O52 O 0.15754 0.236 0.66878 0.0
O53 O 0.15935 0.17925 0.69763 0.0
O54 O 0.06979 0.27359 0.68966 0.0
O55 O 0.07469 0.20825 0.70375 0.0
O56 O 0.35981 0.39442 0.45839 0.0
Cd57 Cd 0.36773 0.4083 0.41229 0.0
Cd58 Cd 0.29132 0.42367 0.41809 0.0
O59 O 0.30555 0.43352 0.46654 0.0
O60 O 0.42729 0.42161 0.40645 0.0
O61 O 0.37814 0.46852 0.40543 0.0
C62 C 0.41655 0.45964 0.40486 0.0
C63 C 0.27584 0.45492 0.36945 0.0
C64 C 0.33418 0.41049 0.47713 0.0
C65 C 0.30944 0.34528 0.39197 0.0
O66 O 0.28599 0.3631 0.41157 0.0
O67 O 0.34307 0.36186 0.38316 0.0
O68 O 0.24755 0.45047 0.3909 0.0
O69 O 0.31309 0.44684 0.37731 0.0
O70 O 0.12601 0.35971 0.95932 0.0
Cd71 Cd 0.11309 0.36861 0.91315 0.0
Cd72 Cd 0.09773 0.29193 0.91809 0.0
O73 O 0.08722 0.30498 0.96659 0.0
O74 O 0.1003 0.42842 0.90813 0.0
O75 O 0.05321 0.3795 0.90542 0.0
C76 C 0.0623 0.41791 0.90571 0.0
C77 C 0.06669 0.27678 0.86931 0.0
C78 C 0.1099 0.33361 0.97765 0.0
C79 C 0.17661 0.31102 0.89297 0.0
O80 O 0.15837 0.28703 0.91193 0.0
O81 O 0.16021 0.34487 0.88441 0.0
O82 O 0.07139 0.24824 0.89055 0.0
O83 O 0.07449 0.31404 0.87743 0.0
O84 O 0.16175 0.12697 0.45857 0.0
Cd85 Cd 0.15352 0.11349 0.41241 0.0
Cd86 Cd 0.23 0.09848 0.418 0.0
O87 O 0.21605 0.08779 0.46634 0.0
O88 O 0.09396 0.10013 0.40688 0.0
O89 O 0.14321 0.05334 0.40518 0.0
C90 C 0.10477 0.06214 0.40497 0.0
C91 C 0.24567 0.06727 0.3694 0.0
C92 C 0.1874 0.11059 0.47715 0.0
C93 C 0.21111 0.17696 0.39215 0.0
O94 O 0.23476 0.15919 0.41165 0.0
O95 O 0.17754 0.16021 0.38336 0.0
O96 O 0.27397 0.07207 0.39083 0.0
O97 O 0.20837 0.07507 0.37723 0.0
O98 O 0.39483 0.16189 0.95897 0.0
Cd99 Cd 0.40804 0.15383 0.91283 0.0
Cd100 Cd 0.42398 0.23011 0.91832 0.0
O101 O 0.4347 0.21576 0.96664 0.0
O102 O 0.4214 0.09427 0.9069 0.0
O103 O 0.46817 0.14361 0.90575 0.0
C104 C 0.45937 0.10514 0.9052 0.0
C105 C 0.45465 0.24522 0.86939 0.0
C106 C 0.4116 0.18736 0.97751 0.0
C107 C 0.34508 0.2124 0.89308 0.0
O108 O 0.36338 0.23585 0.91245 0.0
O109 O 0.36129 0.17863 0.88414 0.0
O110 O 0.45085 0.2736 0.89089 0.0
O111 O 0.44614 0.20806 0.87727 0.0
O112 O 0.66065 0.89408 0.95789 0.0
Cd113 Cd 0.65296 0.90816 0.91182 0.0
Cd114 Cd 0.72911 0.92384 0.91769 0.0
O115 O 0.71438 0.93396 0.96603 0.0
O116 O 0.59353 0.92177 0.90579 0.0
O117 O 0.6429 0.96851 0.90536 0.0
C118 C 0.60445 0.95978 0.90455 0.0
C119 C 0.74456 0.95533 0.86913 0.0
C120 C 0.68595 0.9107 0.97665 0.0
C121 C 0.71134 0.84534 0.89155 0.0
O122 O 0.73473 0.86324 0.91119 0.0
O123 O 0.67769 0.86185 0.88268 0.0
O124 O 0.77278 0.95113 0.8907 0.0
O125 O 0.70737 0.94677 0.87678 0.0
O126 O 0.62754 0.66113 0.45815 0.0
Cd127 Cd 0.61361 0.6534 0.41206 0.0
Cd128 Cd 0.59774 0.72965 0.41805 0.0
O129 O 0.58761 0.7148 0.46633 0.0
O130 O 0.60009 0.59386 0.40592 0.0
O131 O 0.55334 0.6432 0.40547 0.0
C132 C 0.56209 0.60473 0.40462 0.0
C133 C 0.56642 0.74502 0.36941 0.0
C134 C 0.61091 0.68639 0.47692 0.0
C135 C 0.67616 0.71232 0.39196 0.0
O136 O 0.65826 0.73553 0.4117 0.0
O137 O 0.65976 0.67861 0.383 0.0
O138 O 0.57044 0.77327 0.391 0.0
O139 O 0.57502 0.70782 0.37709 0.0
O140 O 0.85915 0.62732 0.95859 0.0
Cd141 Cd 0.86758 0.61383 0.91246 0.0
Cd142 Cd 0.79125 0.59791 0.91794 0.0
O143 O 0.80536 0.58741 0.96628 0.0
O144 O 0.9273 0.60103 0.90707 0.0
O145 O 0.87847 0.55377 0.90539 0.0
C146 C 0.91683 0.56293 0.90523 0.0
C147 C 0.77601 0.56635 0.8694 0.0
C148 C 0.83371 0.61058 0.97714 0.0
C149 C 0.80928 0.67657 0.892 0.0
O150 O 0.78577 0.65857 0.91146 0.0
O151 O 0.84305 0.6602 0.88332 0.0
O152 O 0.74764 0.5708 0.89079 0.0
O153 O 0.8132 0.57469 0.87726 0.0
O154 O 0.89398 0.86037 0.45836 0.0
Cd155 Cd 0.90787 0.8684 0.41229 0.0
Cd156 Cd 0.9229 0.79185 0.41786 0.0
O157 O 0.93285 0.80587 0.46634 0.0
O158 O 0.92148 0.92795 0.40663 0.0
O159 O 0.96809 0.87851 0.40548 0.0
C160 C 0.95942 0.917 0.40501 0.0
C161 C 0.9545 0.7764 0.36938 0.0
C162 C 0.91001 0.83458 0.47702 0.0
C163 C 0.84457 0.81061 0.39172 0.0
O164 O 0.86234 0.78684 0.41114 0.0
O165 O 0.86127 0.84428 0.3831 0.0
O166 O 0.94979 0.74804 0.39076 0.0
O167 O 0.94637 0.81367 0.37721 0.0
O168 O 0.66176 0.62689 0.62223 0.0
Cd169 Cd 0.65334 0.61362 0.66838 0.0
Cd170 Cd 0.72981 0.59808 0.66302 0.0
O171 O 0.71592 0.58746 0.61465 0.0
O172 O 0.59369 0.60044 0.67378 0.0
O173 O 0.64282 0.55355 0.67565 0.0
C174 C 0.60441 0.56243 0.67577 0.0
C175 C 0.74515 0.56664 0.71157 0.0
C176 C 0.68741 0.61037 0.60374 0.0
C177 C 0.71129 0.67682 0.6887 0.0
O178 O 0.73499 0.65876 0.66941 0.0
O179 O 0.67755 0.66036 0.69736 0.0
O180 O 0.77351 0.57123 0.69019 0.0
O181 O 0.70794 0.57484 0.70371 0.0
O182 O 0.89341 0.66163 0.1228 0.0
Cd183 Cd 0.90777 0.65398 0.1688 0.0
Cd184 Cd 0.92354 0.73008 0.16294 0.0
O185 O 0.9335 0.71518 0.1146 0.0
O186 O 0.9215 0.59455 0.17482 0.0
O187 O 0.96814 0.64403 0.17496 0.0
C188 C 0.95948 0.60554 0.17585 0.0
C189 C 0.95505 0.74549 0.21152 0.0
C190 C 0.91008 0.68683 0.10402 0.0
C191 C 0.84521 0.71256 0.18917 0.0
O192 O 0.86302 0.73585 0.16944 0.0
O193 O 0.86171 0.67889 0.19806 0.0
O194 O 0.95095 0.77372 0.18995 0.0
O195 O 0.9464 0.70828 0.20385 0.0
O196 O 0.85916 0.8951 0.62213 0.0
Cd197 Cd 0.86727 0.90882 0.66826 0.0
Cd198 Cd 0.79086 0.92427 0.66264 0.0
O199 O 0.80496 0.93437 0.61422 0.0
O200 O 0.92683 0.92219 0.67406 0.0
O201 O 0.87762 0.96903 0.67521 0.0
C202 C 0.91605 0.9602 0.67573 0.0
C203 C 0.77557 0.95563 0.71127 0.0
C204 C 0.83351 0.91137 0.60349 0.0
C205 C 0.80908 0.84575 0.68855 0.0
O206 O 0.7855 0.86367 0.66908 0.0
O207 O 0.84278 0.86228 0.6973 0.0
O208 O 0.74722 0.95121 0.68982 0.0
O209 O 0.81277 0.94739 0.70343 0.0
O210 O 0.6267 0.86011 0.12239 0.0
Cd211 Cd 0.6133 0.86832 0.16857 0.0
Cd212 Cd 0.59811 0.79171 0.16299 0.0
O213 O 0.58744 0.80581 0.11466 0.0
O214 O 0.59987 0.92792 0.1742 0.0
O215 O 0.55319 0.87855 0.17578 0.0
C216 C 0.56193 0.91704 0.17609 0.0
C217 C 0.56683 0.77617 0.21157 0.0
C218 C 0.61025 0.83446 0.10382 0.0
C219 C 0.67658 0.81041 0.18889 0.0
O220 O 0.65875 0.78674 0.16941 0.0
O221 O 0.65994 0.84407 0.19762 0.0
O222 O 0.57145 0.74783 0.19014 0.0
O223 O 0.57487 0.81346 0.20375 0.0
C224 C 0.37921 0.16825 1.03087 0.0
C225 C 0.39919 0.18413 1.01009 0.0
C226 C 0.3544 0.14333 0.05052 0.0
C227 C 0.33853 0.12322 0.07123 0.0
C228 C 0.35297 0.37683 0.53022 0.0
C229 C 0.33733 0.39717 0.50951 0.0
C230 C 0.3776 0.35183 0.54998 0.0
C231 C 0.39762 0.33604 0.57081 0.0
C232 C 0.14328 0.3519 1.03084 0.0
C233 C 0.12297 0.33622 1.01012 0.0
C234 C 0.16825 0.37687 0.05039 0.0
C235 C 0.18403 0.39727 0.07101 0.0
C236 C 0.14299 0.16718 0.55049 0.0
C237 C 0.1229 0.1829 0.57129 0.0
C238 C 0.16798 0.1427 0.53063 0.0
C239 C 0.18397 0.12299 0.50974 0.0
C240 C 0.64226 0.8536 0.05022 0.0
C241 C 0.62262 0.8378 0.07124 0.0
C242 C 0.66673 0.87829 1.03013 0.0
C243 C 0.68244 0.89814 1.00918 0.0
C244 C 0.66841 0.6426 0.55021 0.0
C245 C 0.6842 0.62281 0.57116 0.0
C246 C 0.64361 0.66718 0.53028 0.0
C247 C 0.6236 0.68292 0.50944 0.0
C248 C 0.8528 0.64275 1.03069 0.0
C249 C 0.83702 0.62294 1.00973 0.0
C250 C 0.87753 0.66742 0.05063 0.0
C251 C 0.89748 0.68325 0.07149 0.0
C252 C 0.87696 0.85356 0.53029 0.0
C253 C 0.89699 0.8378 0.50947 0.0
C254 C 0.8523 0.87836 0.55016 0.0
C255 C 0.83665 0.89844 0.57101 0.0
C256 C 0.24521 0.27681 0.20543 0.0
C257 C 0.22431 0.30655 0.20069 0.0
C258 C 0.27338 0.2441 0.2054 0.0
C259 C 0.29457 0.21457 0.20065 0.0
C260 C 0.27591 0.27694 0.70557 0.0
C261 C 0.30573 0.29767 0.70072 0.0
C262 C 0.24315 0.24883 0.70566 0.0
C263 C 0.21364 0.2276 0.70091 0.0
C264 C 0.27414 0.27756 0.37457 0.0
C265 C 0.29523 0.30715 0.37941 0.0
C266 C 0.24599 0.24482 0.37465 0.0
C267 C 0.22507 0.21514 0.37958 0.0
C268 C 0.27733 0.24797 0.87619 0.0
C269 C 0.30688 0.2268 0.88087 0.0
C270 C 0.24472 0.27622 0.87617 0.0
C271 C 0.21503 0.2972 0.88083 0.0
C272 C 0.74635 0.77738 0.87436 0.0
C273 C 0.72547 0.80712 0.87914 0.0
C274 C 0.77425 0.74444 0.87452 0.0
C275 C 0.79512 0.71474 0.87951 0.0
C276 C 0.74368 0.74793 0.37448 0.0
C277 C 0.71413 0.72682 0.37941 0.0
C278 C 0.7765 0.77598 0.37441 0.0
C279 C 0.80627 0.79681 0.37924 0.0
C280 C 0.77408 0.77782 0.70584 0.0
C281 C 0.79501 0.80753 0.70099 0.0
C282 C 0.7461 0.74494 0.70584 0.0
C283 C 0.72525 0.71517 0.70103 0.0
C284 C 0.77746 0.74779 0.2065 0.0
C285 C 0.80713 0.72683 0.20166 0.0
C286 C 0.74455 0.7757 0.20639 0.0
C287 C 0.71479 0.79648 0.20142 0.0
C288 C 0.25952 0.05481 0.30748 0.0
C289 C 0.25545 0.06019 0.33605 0.0
C290 C 0.2631 0.05461 0.27347 0.0
C291 C 0.26706 0.0597 0.24487 0.0
C292 C 0.46619 0.26224 0.77334 0.0
C293 C 0.46079 0.26621 0.74477 0.0
C294 C 0.46644 0.25876 0.80736 0.0
C295 C 0.46143 0.25487 0.83598 0.0
C296 C 0.25843 0.46686 0.27343 0.0
C297 C 0.25443 0.46157 0.24484 0.0
C298 C 0.26202 0.46696 0.30746 0.0
C299 C 0.26606 0.4618 0.33606 0.0
C300 C 0.0541 0.25961 0.77329 0.0
C301 C 0.05914 0.25549 0.74469 0.0
C302 C 0.05431 0.26329 0.8073 0.0
C303 C 0.05968 0.26732 0.83588 0.0
C304 C 0.75841 0.96792 0.80724 0.0
C305 C 0.75441 0.96255 0.83581 0.0
C306 C 0.76193 0.96797 0.77322 0.0
C307 C 0.76589 0.96268 0.74464 0.0
C308 C 0.55418 0.75886 0.30748 0.0
C309 C 0.55938 0.75488 0.33607 0.0
C310 C 0.55431 0.76241 0.27347 0.0
C311 C 0.5597 0.76642 0.24491 0.0
C312 C 0.76235 0.55386 0.80747 0.0
C313 C 0.76632 0.55922 0.83605 0.0
C314 C 0.75881 0.55395 0.77347 0.0
C315 C 0.75484 0.55941 0.74491 0.0
C316 C 0.96727 0.76276 0.30748 0.0
C317 C 0.96178 0.7667 0.33604 0.0
C318 C 0.96743 0.7593 0.27345 0.0
C319 C 0.96217 0.75536 0.24486 0.0
C320 C 0.47284 1.00385 0.17758 0.0
C321 C 0.44712 0.03043 0.17692 0.0
C322 C 0.50339 0.97307 0.17758 0.0
C323 C 0.52983 0.94721 0.17691 0.0
C324 C 0.54837 0.50387 0.67707 0.0
C325 C 0.57416 0.53039 0.67649 0.0
C326 C 0.51776 0.47316 0.67698 0.0
C327 C 0.49128 0.44733 0.67627 0.0
C328 C 0.04911 0.51929 0.17674 0.0
C329 C 0.07468 0.49259 0.17608 0.0
C330 C 0.01843 0.54993 0.17687 0.0
C331 C 0.9917 0.57548 0.17641 0.0
C332 C 0.97202 0.01885 0.67735 0.0
C333 C 0.94626 0.9923 0.67662 0.0
C334 C 1.00275 0.04947 0.67746 0.0
C335 C 0.0294 0.07513 0.67687 0.0
C336 C 0.50338 0.54881 0.40326 0.0
C337 C 0.52996 0.57455 0.40388 0.0
C338 C 0.47265 0.51819 0.40334 0.0
C339 C 0.44683 0.49169 0.40403 0.0
C340 C 1.00388 0.47408 0.90422 0.0
C341 C 0.03044 0.44834 0.90489 0.0
C342 C 0.97314 0.50465 0.90409 0.0
C343 C 0.94728 0.53109 0.90461 0.0
C344 C 0.01828 0.97272 0.40361 0.0
C345 C 0.99161 0.94709 0.40424 0.0
C346 C 0.04895 1.00337 0.40359 0.0
C347 C 0.0746 0.03002 0.40421 0.0
C348 C 0.54877 0.01867 0.90337 0.0
C349 C 0.57436 0.99197 0.90391 0.0
C350 C 0.51813 0.04934 0.90351 0.0
C351 C 0.49148 0.07498 0.90428 0.0
loop_
_geom_bond_atom_site_label_1
_geom_bond_atom_site_label_2
_geom_bond_distance
_geom_bond_site_symmetry_2
_ccdc_geom_bond_type
O0 Cd1 2.223 . S
O0 C8 1.315 . S
Cd1 O0 2.223 . S
Cd1 O4 2.297 . S
Cd1 O5 2.439 . S
Cd1 O11 2.240 . S
Cd2 O3 2.240 . S
Cd2 O10 2.223 . S
Cd2 O12 2.297 . S
Cd2 O13 2.439 . S
O3 Cd2 2.240 . S
O3 C8 1.279 . S
O4 Cd1 2.297 . S
O4 C6 1.247 . S
O5 Cd1 2.439 . S
O5 C6 1.208 . S
C6 O4 1.247 . S
C6 O5 1.208 . S
C7 O12 1.247 . S
C7 O13 1.208 . S
C8 O0 1.315 . S
C8 O3 1.279 . S
C9 O10 1.315 . S
C9 O11 1.279 . S
O10 Cd2 2.223 . S
O10 C9 1.315 . S
O11 Cd1 2.240 . S
O11 C9 1.279 . S
O12 Cd2 2.297 . S
O12 C7 1.247 . S
O13 Cd2 2.439 . S
O13 C7 1.208 . S
O14 Cd15 2.223 . S
O14 C22 1.315 . S
Cd15 O14 2.223 . S
Cd15 O18 2.297 . S
Cd15 O19 2.439 . S
Cd15 O25 2.240 . S
Cd16 O17 2.240 . S
Cd16 O24 2.223 . S
Cd16 O26 2.297 . S
Cd16 O27 2.439 . S
O17 Cd16 2.240 . S
O17 C22 1.279 . S
O18 Cd15 2.297 . S
O18 C20 1.247 . S
O19 Cd15 2.439 . S
O19 C20 1.208 . S
C20 O18 1.247 . S
C20 O19 1.208 . S
C21 O26 1.247 . S
C21 O27 1.208 . S
C22 O14 1.315 . S
C22 O17 1.279 . S
C23 O24 1.315 . S
C23 O25 1.279 . S
O24 Cd16 2.223 . S
O24 C23 1.315 . S
O25 Cd15 2.240 . S
O25 C23 1.279 . S
O26 Cd16 2.297 . S
O26 C21 1.247 . S
O27 Cd16 2.439 . S
O27 C21 1.208 . S
O28 Cd29 2.223 . S
O28 C36 1.315 . S
Cd29 O28 2.223 . S
Cd29 O32 2.297 . S
Cd29 O33 2.439 . S
Cd29 O39 2.240 . S
Cd30 O31 2.240 . S
Cd30 O38 2.223 . S
Cd30 O40 2.297 . S
Cd30 O41 2.439 . S
O31 Cd30 2.240 . S
O31 C36 1.279 . S
O32 Cd29 2.297 . S
O32 C34 1.247 . S
O33 Cd29 2.439 . S
O33 C34 1.208 . S
C34 O32 1.247 . S
C34 O33 1.208 . S
C35 O40 1.247 . S
C35 O41 1.208 . S
C36 O28 1.315 . S
C36 O31 1.279 . S
C37 O38 1.315 . S
C37 O39 1.279 . S
O38 Cd30 2.223 . S
O38 C37 1.315 . S
O39 Cd29 2.240 . S
O39 C37 1.279 . S
O40 Cd30 2.297 . S
O40 C35 1.247 . S
O41 Cd30 2.439 . S
O41 C35 1.208 . S
O42 Cd43 2.223 . S
O42 C50 1.315 . S
Cd43 O42 2.223 . S
Cd43 O46 2.297 . S
Cd43 O47 2.439 . S
Cd43 O53 2.240 . S
Cd44 O45 2.240 . S
Cd44 O52 2.223 . S
Cd44 O54 2.297 . S
Cd44 O55 2.439 . S
O45 Cd44 2.240 . S
O45 C50 1.279 . S
O46 Cd43 2.297 . S
O46 C48 1.247 . S
O47 Cd43 2.439 . S
O47 C48 1.208 . S
C48 O46 1.247 . S
C48 O47 1.208 . S
C49 O54 1.247 . S
C49 O55 1.208 . S
C50 O42 1.315 . S
C50 O45 1.279 . S
C51 O52 1.315 . S
C51 O53 1.279 . S
O52 Cd44 2.223 . S
O52 C51 1.315 . S
O53 Cd43 2.240 . S
O53 C51 1.279 . S
O54 Cd44 2.297 . S
O54 C49 1.247 . S
O55 Cd44 2.439 . S
O55 C49 1.208 . S
O56 Cd57 2.223 . S
O56 C64 1.315 . S
Cd57 O56 2.223 . S
Cd57 O60 2.297 . S
Cd57 O61 2.439 . S
Cd57 O67 2.240 . S
Cd58 O59 2.240 . S
Cd58 O66 2.223 . S
Cd58 O68 2.297 . S
Cd58 O69 2.439 . S
O59 Cd58 2.240 . S
O59 C64 1.279 . S
O60 Cd57 2.297 . S
O60 C62 1.247 . S
O61 Cd57 2.439 . S
O61 C62 1.208 . S
C62 O60 1.247 . S
C62 O61 1.208 . S
C63 O68 1.247 . S
C63 O69 1.208 . S
C64 O56 1.315 . S
C64 O59 1.279 . S
C65 O66 1.315 . S
C65 O67 1.279 . S
O66 Cd58 2.223 . S
O66 C65 1.315 . S
O67 Cd57 2.240 . S
O67 C65 1.279 . S
O68 Cd58 2.297 . S
O68 C63 1.247 . S
O69 Cd58 2.439 . S
O69 C63 1.208 . S
O70 Cd71 2.223 . S
O70 C78 1.315 . S
Cd71 O70 2.223 . S
Cd71 O74 2.297 . S
Cd71 O75 2.439 . S
Cd71 O81 2.240 . S
Cd72 O73 2.240 . S
Cd72 O80 2.223 . S
Cd72 O82 2.297 . S
Cd72 O83 2.439 . S
O73 Cd72 2.240 . S
O73 C78 1.279 . S
O74 Cd71 2.297 . S
O74 C76 1.247 . S
O75 Cd71 2.439 . S
O75 C76 1.208 . S
C76 O74 1.247 . S
C76 O75 1.208 . S
C77 O82 1.247 . S
C77 O83 1.208 . S
C78 O70 1.315 . S
C78 O73 1.279 . S
C79 O80 1.315 . S
C79 O81 1.279 . S
O80 Cd72 2.223 . S
O80 C79 1.315 . S
O81 Cd71 2.240 . S
O81 C79 1.279 . S
O82 Cd72 2.297 . S
O82 C77 1.247 . S
O83 Cd72 2.439 . S
O83 C77 1.208 . S
O84 Cd85 2.223 . S
O84 C92 1.315 . S
Cd85 O84 2.223 . S
Cd85 O88 2.297 . S
Cd85 O89 2.439 . S
Cd85 O95 2.240 . S
Cd86 O87 2.240 . S
Cd86 O94 2.223 . S
Cd86 O96 2.297 . S
Cd86 O97 2.439 . S
O87 Cd86 2.240 . S
O87 C92 1.279 . S
O88 Cd85 2.297 . S
O88 C90 1.247 . S
O89 Cd85 2.439 . S
O89 C90 1.208 . S
C90 O88 1.247 . S
C90 O89 1.208 . S
C91 O96 1.247 . S
C91 O97 1.208 . S
C92 O84 1.315 . S
C92 O87 1.279 . S
C93 O94 1.315 . S
C93 O95 1.279 . S
O94 Cd86 2.223 . S
O94 C93 1.315 . S
O95 Cd85 2.240 . S
O95 C93 1.279 . S
O96 Cd86 2.297 . S
O96 C91 1.247 . S
O97 Cd86 2.439 . S
O97 C91 1.208 . S
O98 Cd99 2.223 . S
O98 C106 1.315 . S
Cd99 O98 2.223 . S
Cd99 O102 2.297 . S
Cd99 O103 2.439 . S
Cd99 O109 2.240 . S
Cd100 O101 2.240 . S
Cd100 O108 2.223 . S
Cd100 O110 2.297 . S
Cd100 O111 2.439 . S
O101 Cd100 2.240 . S
O101 C106 1.279 . S
O102 Cd99 2.297 . S
O102 C104 1.247 . S
O103 Cd99 2.439 . S
O103 C104 1.208 . S
C104 O102 1.247 . S
C104 O103 1.208 . S
C105 O110 1.247 . S
C105 O111 1.208 . S
C106 O98 1.315 . S
C106 O101 1.279 . S
C107 O108 1.315 . S
C107 O109 1.279 . S
O108 Cd100 2.223 . S
O108 C107 1.315 . S
O109 Cd99 2.240 . S
O109 C107 1.279 . S
O110 Cd100 2.297 . S
O110 C105 1.247 . S
O111 Cd100 2.439 . S
O111 C105 1.208 . S
O112 Cd113 2.223 . S
O112 C120 1.315 . S
Cd113 O112 2.223 . S
Cd113 O116 2.297 . S
Cd113 O117 2.439 . S
Cd113 O123 2.240 . S
Cd114 O115 2.240 . S
Cd114 O122 2.223 . S
Cd114 O124 2.297 . S
Cd114 O125 2.439 . S
O115 Cd114 2.240 . S
O115 C120 1.279 . S
O116 Cd113 2.297 . S
O116 C118 1.247 . S
O117 Cd113 2.439 . S
O117 C118 1.208 . S
C118 O116 1.247 . S
C118 O117 1.208 . S
C119 O124 1.247 . S
C119 O125 1.208 . S
C120 O112 1.315 . S
C120 O115 1.279 . S
C121 O122 1.315 . S
C121 O123 1.279 . S
O122 Cd114 2.223 . S
O122 C121 1.315 . S
O123 Cd113 2.240 . S
O123 C121 1.279 . S
O124 Cd114 2.297 . S
O124 C119 1.247 . S
O125 Cd114 2.439 . S
O125 C119 1.208 . S
O126 Cd127 2.223 . S
O126 C134 1.315 . S
Cd127 O126 2.223 . S
Cd127 O130 2.297 . S
Cd127 O131 2.439 . S
Cd127 O137 2.240 . S
Cd128 O129 2.240 . S
Cd128 O136 2.223 . S
Cd128 O138 2.297 . S
Cd128 O139 2.439 . S
O129 Cd128 2.240 . S
O129 C134 1.279 . S
O130 Cd127 2.297 . S
O130 C132 1.247 . S
O131 Cd127 2.439 . S
O131 C132 1.208 . S
C132 O130 1.247 . S
C132 O131 1.208 . S
C133 O138 1.247 . S
C133 O139 1.208 . S
C134 O126 1.315 . S
C134 O129 1.279 . S
C135 O136 1.315 . S
C135 O137 1.279 . S
O136 Cd128 2.223 . S
O136 C135 1.315 . S
O137 Cd127 2.240 . S
O137 C135 1.279 . S
O138 Cd128 2.297 . S
O138 C133 1.247 . S
O139 Cd128 2.439 . S
O139 C133 1.208 . S
O140 Cd141 2.223 . S
O140 C148 1.315 . S
Cd141 O140 2.223 . S
Cd141 O144 2.297 . S
Cd141 O145 2.439 . S
Cd141 O151 2.240 . S
Cd142 O143 2.240 . S
Cd142 O150 2.223 . S
Cd142 O152 2.297 . S
Cd142 O153 2.439 . S
O143 Cd142 2.240 . S
O143 C148 1.279 . S
O144 Cd141 2.297 . S
O144 C146 1.247 . S
O145 Cd141 2.439 . S
O145 C146 1.208 . S
C146 O144 1.247 . S
C146 O145 1.208 . S
C147 O152 1.247 . S
C147 O153 1.208 . S
C148 O140 1.315 . S
C148 O143 1.279 . S
C149 O150 1.315 . S
C149 O151 1.279 . S
O150 Cd142 2.223 . S
O150 C149 1.315 . S
O151 Cd141 2.240 . S
O151 C149 1.279 . S
O152 Cd142 2.297 . S
O152 C147 1.247 . S
O153 Cd142 2.439 . S
O153 C147 1.208 . S
O154 Cd155 2.223 . S
O154 C162 1.315 . S
Cd155 O154 2.223 . S
Cd155 O158 2.297 . S
Cd155 O159 2.439 . S
Cd155 O165 2.240 . S
Cd156 O157 2.240 . S
Cd156 O164 2.223 . S
Cd156 O166 2.297 . S
Cd156 O167 2.439 . S
O157 Cd156 2.240 . S
O157 C162 1.279 . S
O158 Cd155 2.297 . S
O158 C160 1.247 . S
O159 Cd155 2.439 . S
O159 C160 1.208 . S
C160 O158 1.247 . S
C160 O159 1.208 . S
C161 O166 1.247 . S
C161 O167 1.208 . S
C162 O154 1.315 . S
C162 O157 1.279 . S
C163 O164 1.315 . S
C163 O165 1.279 . S
O164 Cd156 2.223 . S
O164 C163 1.315 . S
O165 Cd155 2.240 . S
O165 C163 1.279 . S
O166 Cd156 2.297 . S
O166 C161 1.247 . S
O167 Cd156 2.439 . S
O167 C161 1.208 . S
O168 Cd169 2.223 . S
O168 C176 1.315 . S
Cd169 O168 2.223 . S
Cd169 O172 2.297 . S
Cd169 O173 2.439 . S
Cd169 O179 2.240 . S
Cd170 O171 2.240 . S
Cd170 O178 2.223 . S
Cd170 O180 2.297 . S
Cd170 O181 2.439 . S
O171 Cd170 2.240 . S
O171 C176 1.279 . S
O172 Cd169 2.297 . S
O172 C174 1.247 . S
O173 Cd169 2.439 . S
O173 C174 1.208 . S
C174 O172 1.247 . S
C174 O173 1.208 . S
C175 O180 1.247 . S
C175 O181 1.208 . S
C176 O168 1.315 . S
C176 O171 1.279 . S
C177 O178 1.315 . S
C177 O179 1.279 . S
O178 Cd170 2.223 . S
O178 C177 1.315 . S
O179 Cd169 2.240 . S
O179 C177 1.279 . S
O180 Cd170 2.297 . S
O180 C175 1.247 . S
O181 Cd170 2.439 . S
O181 C175 1.208 . S
O182 Cd183 2.223 . S
O182 C190 1.315 . S
Cd183 O182 2.223 . S
Cd183 O186 2.297 . S
Cd183 O187 2.439 . S
Cd183 O193 2.240 . S
Cd184 O185 2.240 . S
Cd184 O192 2.223 . S
Cd184 O194 2.297 . S
Cd184 O195 2.439 . S
O185 Cd184 2.240 . S
O185 C190 1.279 . S
O186 Cd183 2.297 . S
O186 C188 1.247 . S
O187 Cd183 2.439 . S
O187 C188 1.208 . S
C188 O186 1.247 . S
C188 O187 1.208 . S
C189 O194 1.247 . S
C189 O195 1.208 . S
C190 O182 1.315 . S
C190 O185 1.279 . S
C191 O192 1.315 . S
C191 O193 1.279 . S
O192 Cd184 2.223 . S
O192 C191 1.315 . S
O193 Cd183 2.240 . S
O193 C191 1.279 . S
O194 Cd184 2.297 . S
O194 C189 1.247 . S
O195 Cd184 2.439 . S
O195 C189 1.208 . S
O196 Cd197 2.223 . S
O196 C204 1.315 . S
Cd197 O196 2.223 . S
Cd197 O200 2.297 . S
Cd197 O201 2.439 . S
Cd197 O207 2.240 . S
Cd198 O199 2.240 . S
Cd198 O206 2.223 . S
Cd198 O208 2.297 . S
Cd198 O209 2.439 . S
O199 Cd198 2.240 . S
O199 C204 1.279 . S
O200 Cd197 2.297 . S
O200 C202 1.247 . S
O201 Cd197 2.439 . S
O201 C202 1.208 . S
C202 O200 1.247 . S
C202 O201 1.208 . S
C203 O208 1.247 . S
C203 O209 1.208 . S
C204 O196 1.315 . S
C204 O199 1.279 . S
C205 O206 1.315 . S
C205 O207 1.279 . S
O206 Cd198 2.223 . S
O206 C205 1.315 . S
O207 Cd197 2.240 . S
O207 C205 1.279 . S
O208 Cd198 2.297 . S
O208 C203 1.247 . S
O209 Cd198 2.439 . S
O209 C203 1.208 . S
O210 Cd211 2.223 . S
O210 C218 1.315 . S
Cd211 O210 2.223 . S
Cd211 O214 2.297 . S
Cd211 O215 2.439 . S
Cd211 O221 2.240 . S
Cd212 O213 2.240 . S
Cd212 O220 2.223 . S
Cd212 O222 2.297 . S
Cd212 O223 2.439 . S
O213 Cd212 2.240 . S
O213 C218 1.279 . S
O214 Cd211 2.297 . S
O214 C216 1.247 . S
O215 Cd211 2.439 . S
O215 C216 1.208 . S
C216 O214 1.247 . S
C216 O215 1.208 . S
C217 O222 1.247 . S
C217 O223 1.208 . S
C218 O210 1.315 . S
C218 O213 1.279 . S
C219 O220 1.315 . S
C219 O221 1.279 . S
O220 Cd212 2.223 . S
O220 C219 1.315 . S
O221 Cd211 2.240 . S
O221 C219 1.279 . S
O222 Cd212 2.297 . S
O222 C217 1.247 . S
O223 Cd212 2.439 . S
O223 C217 1.208 . S
C224 C225 1.170 . S
C224 C226 1.380 1_556 S
C225 C224 1.170 . S
C226 C224 1.380 1_554 S
C226 C227 1.170 . S
C227 C226 1.170 . S
C228 C229 1.170 . S
C228 C230 1.380 . S
C229 C228 1.170 . S
C230 C228 1.380 . S
C230 C231 1.170 . S
C231 C230 1.170 . S
C232 C233 1.170 . S
C232 C234 1.380 1_556 S
C233 C232 1.170 . S
C234 C232 1.380 1_554 S
C234 C235 1.170 . S
C235 C234 1.170 . S
C236 C237 1.170 . S
C236 C238 1.380 . S
C237 C236 1.170 . S
C238 C236 1.380 . S
C238 C239 1.170 . S
C239 C238 1.170 . S
C240 C241 1.170 . S
C240 C242 1.380 1_554 S
C241 C240 1.170 . S
C242 C240 1.380 1_556 S
C242 C243 1.170 . S
C243 C242 1.170 . S
C244 C245 1.170 . S
C244 C246 1.380 . S
C245 C244 1.170 . S
C246 C244 1.380 . S
C246 C247 1.170 . S
C247 C246 1.170 . S
C248 C249 1.170 . S
C248 C250 1.380 1_556 S
C249 C248 1.170 . S
C250 C248 1.380 1_554 S
C250 C251 1.170 . S
C251 C250 1.170 . S
C252 C253 1.170 . S
C252 C254 1.380 . S
C253 C252 1.170 . S
C254 C252 1.380 . S
C254 C255 1.170 . S
C255 C254 1.170 . S
C256 C257 1.170 . S
C256 C258 1.380 . S
C257 C256 1.170 . S
C258 C256 1.380 . S
C258 C259 1.170 . S
C259 C258 1.170 . S
C260 C261 1.170 . S
C260 C262 1.380 . S
C261 C260 1.170 . S
C262 C260 1.380 . S
C262 C263 1.170 . S
C263 C262 1.170 . S
C264 C265 1.170 . S
C264 C266 1.380 . S
C265 C264 1.170 . S
C266 C264 1.380 . S
C266 C267 1.170 . S
C267 C266 1.170 . S
C268 C269 1.170 . S
C268 C270 1.380 . S
C269 C268 1.170 . S
C270 C268 1.380 . S
C270 C271 1.170 . S
C271 C270 1.170 . S
C272 C273 1.170 . S
C272 C274 1.380 . S
C273 C272 1.170 . S
C274 C272 1.380 . S
C274 C275 1.170 . S
C275 C274 1.170 . S
C276 C277 1.170 . S
C276 C278 1.380 . S
C277 C276 1.170 . S
C278 C276 1.380 . S
C278 C279 1.170 . S
C279 C278 1.170 . S
C280 C281 1.170 . S
C280 C282 1.380 . S
C281 C280 1.170 . S
C282 C280 1.380 . S
C282 C283 1.170 . S
C283 C282 1.170 . S
C284 C285 1.170 . S
C284 C286 1.380 . S
C285 C284 1.170 . S
C286 C284 1.380 . S
C286 C287 1.170 . S
C287 C286 1.170 . S
C288 C289 1.170 . S
C288 C290 1.380 . S
C289 C288 1.170 . S
C290 C288 1.380 . S
C290 C291 1.170 . S
C291 C290 1.170 . S
C292 C293 1.170 . S
C292 C294 1.380 . S
C293 C292 1.170 . S
C294 C292 1.380 . S
C294 C295 1.170 . S
C295 C294 1.170 . S
C296 C297 1.170 . S
C296 C298 1.380 . S
C297 C296 1.170 . S
C298 C296 1.380 . S
C298 C299 1.170 . S
C299 C298 1.170 . S
C300 C301 1.170 . S
C300 C302 1.380 . S
C301 C300 1.170 . S
C302 C300 1.380 . S
C302 C303 1.170 . S
C303 C302 1.170 . S
C304 C305 1.170 . S
C304 C306 1.380 . S
C305 C304 1.170 . S
C306 C304 1.380 . S
C306 C307 1.170 . S
C307 C306 1.170 . S
C308 C309 1.170 . S
C308 C310 1.380 . S
C309 C308 1.170 . S
C310 C308 1.380 . S
C310 C311 1.170 . S
C311 C310 1.170 . S
C312 C313 1.170 . S
C312 C314 1.380 . S
C313 C312 1.170 . S
C314 C312 1.380 . S
C314 C315 1.170 . S
C315 C314 1.170 . S
C316 C317 1.170 . S
C316 C318 1.380 . S
C317 C316 1.170 . S
C318 C316 1.380 . S
C318 C319 1.170 . S
C319 C318 1.170 . S
C320 C321 1.170 1_565 S
C320 C322 1.380 . S
C321 C320 1.170 1_545 S
C322 C320 1.380 . S
C322 C323 1.170 . S
C323 C322 1.170 . S
C324 C325 1.170 . S
C324 C326 1.380 . S
C325 C324 1.170 . S
C326 C324 1.380 . S
C326 C327 1.170 . S
C327 C326 1.170 . S
C328 C329 1.170 . S
C328 C330 1.380 . S
C329 C328 1.170 . S
C330 C328 1.380 . S
C330 C331 1.170 1_455 S
C331 C330 1.170 1_655 S
C332 C333 1.170 1_545 S
C332 C334 1.380 . S
C333 C332 1.170 1_565 S
C334 C332 1.380 . S
C334 C335 1.170 1_655 S
C335 C334 1.170 1_455 S
C336 C337 1.170 . S
C336 C338 1.380 . S
C337 C336 1.170 . S
C338 C336 1.380 . S
C338 C339 1.170 . S
C339 C338 1.170 . S
C340 C341 1.170 1_655 S
C340 C342 1.380 . S
C341 C340 1.170 1_455 S
C342 C340 1.380 . S
C342 C343 1.170 . S
C343 C342 1.170 . S
C344 C345 1.170 1_455 S
C344 C346 1.380 . S
C345 C344 1.170 1_655 S
C346 C344 1.380 . S
C346 C347 1.170 1_565 S
C347 C346 1.170 1_545 S
C348 C349 1.170 1_545 S
C348 C350 1.380 . S
C349 C348 1.170 1_565 S
C350 C348 1.380 . S
C350 C351 1.170 . S
C351 C350 1.170 . S
C225 C106 1.546 . S
C227 C8 1.475 . S
C229 C64 1.485 . S
C231 C22 1.537 . S
C233 C78 1.544 . S
C235 C36 1.477 . S
C237 C50 1.476 . S
C239 C92 1.544 . S
C241 C218 1.532 . S
C243 C120 1.476 . S
C245 C176 1.541 . S
C247 C134 1.483 . S
C249 C148 1.537 . S
C251 C190 1.479 . S
C253 C162 1.497 . S
C255 C204 1.546 . S
C257 C37 1.287 . S
C259 C9 1.249 . S
C261 C23 1.302 . S
C263 C51 1.242 . S
C265 C65 1.251 . S
C267 C93 1.304 . S
C269 C107 1.248 . S
C271 C79 1.288 . S
C273 C121 1.272 . S
C275 C149 1.254 . S
C277 C135 1.243 . S
C279 C163 1.294 . S
C281 C205 1.243 . S
C283 C177 1.294 . S
C285 C191 1.253 . S
C287 C219 1.274 . S
C289 C91 1.948 . S
C291 C7 1.927 . S
C293 C21 1.944 . S
C295 C105 1.929 . S
C297 C35 1.929 . S
C299 C63 1.944 . S
C301 C49 1.950 . S
C303 C77 1.926 . S
C305 C119 1.939 . S
C307 C203 1.953 . S
C309 C133 1.927 . S
C311 C217 1.932 . S
C313 C147 1.952 . S
C315 C175 1.947 . S
C317 C161 1.946 . S
C319 C189 1.952 . S
C321 C6 1.456 . S
C323 C216 1.451 . S
C325 C174 1.452 . S
C327 C20 1.457 . S
C329 C34 1.452 . S
C331 C188 1.457 . S
C333 C202 1.458 . S
C335 C48 1.460 . S
C337 C132 1.448 . S
C339 C62 1.454 . S
C341 C76 1.443 . S
C343 C146 1.441 . S
C345 C160 1.455 . S
C347 C90 1.459 . S
C349 C118 1.457 . S
C351 C104 1.460 . S
