# Generated by pormake.
# Topology und, (4)-cn, num edge types: 1
# Building blocks:
#     Node 0, Type 0, BuildingBlock: KUFVIS_clean_sbu_0, # of connection points: 4
#     Node 1, Type 0, BuildingBlock: KUFVIS_clean_sbu_0, # of connection points: 4
#     Node 2, Type 0, BuildingBlock: KUFVIS_clean_sbu_0, # of connection points: 4
#     Node 3, Type 0, BuildingBlock: KUFVIS_clean_sbu_0, # of connection points: 4
#     Node 4, Type 0, BuildingBlock: KUFVIS_clean_sbu_0, # of connection points: 4
#     Node 5, Type 0, BuildingBlock: KUFVIS_clean_sbu_0, # of connection points: 4
#     Node 6, Type 0, BuildingBlock: KUFVIS_clean_sbu_0, # of connection points: 4
#     Node 7, Type 0, BuildingBlock: KUFVIS_clean_sbu_0, # of connection points: 4
#     Node 8, Type 0, BuildingBlock: KUFVIS_clean_sbu_0, # of connection points: 4
#     Node 9, Type 0, BuildingBlock: KUFVIS_clean_sbu_0, # of connection points: 4
#     Node 10, Type 0, BuildingBlock: KUFVIS_clean_sbu_0, # of connection points: 4
#     Node 11, Type 0, BuildingBlock: KUFVIS_clean_sbu_0, # of connection points: 4
#     Node 12, Type 0, BuildingBlock: KUFVIS_clean_sbu_0, # of connection points: 4
#     Node 13, Type 0, BuildingBlock: KUFVIS_clean_sbu_0, # of connection points: 4
#     Node 14, Type 0, BuildingBlock: KUFVIS_clean_sbu_0, # of connection points: 4
#     Node 15, Type 0, BuildingBlock: KUFVIS_clean_sbu_0, # of connection points: 4
#     Edge 16, Type (0, 0), BuildingBlock: MIFKUJ_clean_linker_0, # of connection points: 2
#     Edge 17, Type (0, 0), BuildingBlock: MIFKUJ_clean_linker_0, # of connection points: 2
#     Edge 18, Type (0, 0), BuildingBlock: MIFKUJ_clean_linker_0, # of connection points: 2
#     Edge 19, Type (0, 0), BuildingBlock: MIFKUJ_clean_linker_0, # of connection points: 2
#     Edge 20, Type (0, 0), BuildingBlock: MIFKUJ_clean_linker_0, # of connection points: 2
#     Edge 21, Type (0, 0), BuildingBlock: MIFKUJ_clean_linker_0, # of connection points: 2
#     Edge 22, Type (0, 0), BuildingBlock: MIFKUJ_clean_linker_0, # of connection points: 2
#     Edge 23, Type (0, 0), BuildingBlock: MIFKUJ_clean_linker_0, # of connection points: 2
#     Edge 24, Type (0, 0), BuildingBlock: MIFKUJ_clean_linker_0, # of connection points: 2
#     Edge 25, Type (0, 0), BuildingBlock: MIFKUJ_clean_linker_0, # of connection points: 2
#     Edge 26, Type (0, 0), BuildingBlock: MIFKUJ_clean_linker_0, # of connection points: 2
#     Edge 27, Type (0, 0), BuildingBlock: MIFKUJ_clean_linker_0, # of connection points: 2
#     Edge 28, Type (0, 0), BuildingBlock: MIFKUJ_clean_linker_0, # of connection points: 2
#     Edge 29, Type (0, 0), BuildingBlock: MIFKUJ_clean_linker_0, # of connection points: 2
#     Edge 30, Type (0, 0), BuildingBlock: MIFKUJ_clean_linker_0, # of connection points: 2
#     Edge 31, Type (0, 0), BuildingBlock: MIFKUJ_clean_linker_0, # of connection points: 2
#     Edge 32, Type (0, 0), BuildingBlock: MIFKUJ_clean_linker_0, # of connection points: 2
#     Edge 33, Type (0, 0), BuildingBlock: MIFKUJ_clean_linker_0, # of connection points: 2
#     Edge 34, Type (0, 0), BuildingBlock: MIFKUJ_clean_linker_0, # of connection points: 2
#     Edge 35, Type (0, 0), BuildingBlock: MIFKUJ_clean_linker_0, # of connection points: 2
#     Edge 36, Type (0, 0), BuildingBlock: MIFKUJ_clean_linker_0, # of connection points: 2
#     Edge 37, Type (0, 0), BuildingBlock: MIFKUJ_clean_linker_0, # of connection points: 2
#     Edge 38, Type (0, 0), BuildingBlock: MIFKUJ_clean_linker_0, # of connection points: 2
#     Edge 39, Type (0, 0), BuildingBlock: MIFKUJ_clean_linker_0, # of connection points: 2
#     Edge 40, Type (0, 0), BuildingBlock: MIFKUJ_clean_linker_0, # of connection points: 2
#     Edge 41, Type (0, 0), BuildingBlock: MIFKUJ_clean_linker_0, # of connection points: 2
#     Edge 42, Type (0, 0), BuildingBlock: MIFKUJ_clean_linker_0, # of connection points: 2
#     Edge 43, Type (0, 0), BuildingBlock: MIFKUJ_clean_linker_0, # of connection points: 2
#     Edge 44, Type (0, 0), BuildingBlock: MIFKUJ_clean_linker_0, # of connection points: 2
#     Edge 45, Type (0, 0), BuildingBlock: MIFKUJ_clean_linker_0, # of connection points: 2
#     Edge 46, Type (0, 0), BuildingBlock: MIFKUJ_clean_linker_0, # of connection points: 2
#     Edge 47, Type (0, 0), BuildingBlock: MIFKUJ_clean_linker_0, # of connection points: 2
# Relax obj value: 0.020
# Max RMSD: 0.088
# Mean RMSD: 0.080
data_MOF--net-und--node1-KUFVIS_clean_sbu_0--edge1-MIFKUJ_clean_linker_0
_symmetry_space_group_name_H-M    P1
_symmetry_Int_Tables_number       1
_symmetry_cell_setting            triclinic
loop_
_symmetry_equiv_pos_as_xyz
'x, y, z'
_cell_length_a     77.416121
_cell_length_b     77.438947
_cell_length_c     28.676377
_cell_angle_alpha  92.174154
_cell_angle_beta   92.142434
_cell_angle_gamma 90.027929
loop_
_atom_site_label
_atom_site_type_symbol
_atom_site_fract_x
_atom_site_fract_y
_atom_site_fract_z
_atom_type_partial_charge
Mn0 Mn 0.25663 0.33653 0.01409 0.0
Mn1 Mn 0.23609 0.35809 0.9283 0.0
C2 C 0.25483 0.3246 0.93864 0.0
C3 C 0.25537 0.31779 0.07617 0.0
C4 C 0.27225 0.36712 0.96553 0.0
O5 O 0.24286 0.35484 0.04999 0.0
O6 O 0.2284 0.36683 0.98987 0.0
C7 C 0.20042 0.34578 0.94084 0.0
N8 N 0.21421 0.34751 0.91323 0.0
C9 C 0.19836 0.33503 0.84656 0.0
C10 C 0.18396 0.33312 0.8742 0.0
C11 C 0.18504 0.33843 0.92163 0.0
C12 C 0.21341 0.3422 0.86781 0.0
H13 H 0.20113 0.35003 0.97717 0.0
C14 C 0.23176 0.3654 0.03359 0.0
O15 O 0.26799 0.32873 0.07346 0.0
O16 O 0.24351 0.31784 0.04304 0.0
N17 N 0.24218 0.35089 0.8666 0.0
C18 C 0.25733 0.35333 0.84498 0.0
C19 C 0.25853 0.34832 0.79764 0.0
C20 C 0.24404 0.34129 0.7728 0.0
C21 C 0.22853 0.33919 0.79568 0.0
C22 C 0.22818 0.34411 0.84305 0.0
H23 H 0.26842 0.359 0.8637 0.0
O24 O 0.2664 0.31928 0.9687 0.0
O25 O 0.24431 0.3364 0.95404 0.0
O26 O 0.27391 0.35489 0.99406 0.0
O27 O 0.25853 0.36972 0.94075 0.0
C28 C 0.21333 0.33262 0.77319 0.0
C29 C 0.19831 0.33032 0.79864 0.0
H30 H 0.17202 0.32761 0.85938 0.0
H31 H 0.17399 0.33699 0.94321 0.0
H32 H 0.27054 0.35001 0.78023 0.0
H33 H 0.24497 0.33757 0.73618 0.0
H34 H 0.21304 0.32957 0.73617 0.0
H35 H 0.18674 0.32512 0.78094 0.0
Mn36 Mn 0.92256 0.00661 0.26711 0.0
Mn37 Mn 0.9034 0.02955 0.35319 0.0
C38 C 0.93593 0.00935 0.34076 0.0
C39 C 0.94046 0.00601 0.20273 0.0
C40 C 0.89368 0.99249 0.32676 0.0
O41 O 0.90414 0.01998 0.23101 0.0
O42 O 0.89214 0.03402 0.29154 0.0
C43 C 0.91397 0.06418 0.3241 0.0
N44 N 0.91356 0.05206 0.3573 0.0
C45 C 0.92736 0.07146 0.41459 0.0
C46 C 0.92792 0.08415 0.38109 0.0
C47 C 0.92128 0.08045 0.33555 0.0
C48 C 0.9202 0.05537 0.40091 0.0
H49 H 0.9087 0.06148 0.28919 0.0
C50 C 0.89298 0.03031 0.24786 0.0
O51 O 0.92925 0.99382 0.20823 0.0
O52 O 0.94108 0.01846 0.23419 0.0
N53 N 0.91263 0.02701 0.41525 0.0
C54 C 0.91097 0.01341 0.44355 0.0
C55 C 0.91693 0.01501 0.49033 0.0
C56 C 0.9241 0.03072 0.50782 0.0
C57 C 0.92546 0.04461 0.47819 0.0
C58 C 0.9195 0.04218 0.43176 0.0
H59 H 0.90519 0.00141 0.43048 0.0
O60 O 0.94017 0.99707 0.31143 0.0
O61 O 0.92436 0.02021 0.32563 0.0
O62 O 0.90382 0.99056 0.29254 0.0
O63 O 0.8927 0.0065 0.35156 0.0
C64 C 0.93217 0.06088 0.49306 0.0
C65 C 0.93338 0.07422 0.46121 0.0
H66 H 0.93338 0.09679 0.38996 0.0
H67 H 0.92168 0.09018 0.3095 0.0
H68 H 0.91579 0.00425 0.51302 0.0
H69 H 0.92834 0.03199 0.54414 0.0
H70 H 0.93617 0.06339 0.52906 0.0
H71 H 0.93872 0.08661 0.47312 0.0
Mn72 Mn 0.25314 0.67869 0.50433 0.0
Mn73 Mn 0.23444 0.66109 0.59598 0.0
C74 C 0.25579 0.6924 0.57764 0.0
C75 C 0.25118 0.69648 0.44009 0.0
C76 C 0.26718 0.64712 0.55287 0.0
O77 O 0.23618 0.66103 0.47373 0.0
O78 O 0.22222 0.65322 0.53735 0.0
C79 C 0.2002 0.67807 0.59091 0.0
N80 N 0.21494 0.67417 0.61567 0.0
C81 C 0.20436 0.68794 0.68556 0.0
C82 C 0.18899 0.69199 0.66093 0.0
C83 C 0.18694 0.6871 0.61335 0.0
C84 C 0.2171 0.67891 0.66134 0.0
H85 H 0.19861 0.67434 0.55434 0.0
C86 C 0.22414 0.65298 0.49323 0.0
O87 O 0.26257 0.68421 0.44265 0.0
O88 O 0.24068 0.69808 0.47416 0.0
N89 N 0.24486 0.66771 0.65544 0.0
C90 C 0.26093 0.6639 0.67313 0.0
C91 C 0.26516 0.66805 0.72026 0.0
C92 C 0.25282 0.67599 0.74861 0.0
C93 C 0.23653 0.68014 0.72937 0.0
C94 C 0.23294 0.67541 0.68246 0.0
H95 H 0.27034 0.65751 0.65164 0.0
O96 O 0.26655 0.69572 0.54549 0.0
O97 O 0.24368 0.68127 0.56574 0.0
O98 O 0.26932 0.65912 0.52437 0.0
O99 O 0.25434 0.64643 0.5794 0.0
C100 C 0.22372 0.68881 0.75488 0.0
C101 C 0.20769 0.69281 0.73289 0.0
H102 H 0.17876 0.69901 0.67807 0.0
H103 H 0.17517 0.69028 0.59403 0.0
H104 H 0.27782 0.66493 0.73486 0.0
H105 H 0.25593 0.67881 0.78519 0.0
H106 H 0.22617 0.69268 0.79122 0.0
H107 H 0.19806 0.69977 0.7526 0.0
Mn108 Mn 0.58015 0.00209 0.76197 0.0
Mn109 Mn 0.59812 0.0189 0.66797 0.0
C110 C 0.56535 0.00115 0.69012 0.0
C111 C 0.56327 0.00504 0.82815 0.0
C112 C 0.60747 0.98364 0.70245 0.0
O113 O 0.59945 0.01707 0.79208 0.0
O114 O 0.61079 0.02636 0.72645 0.0
C115 C 0.58926 0.05542 0.6904 0.0
N116 N 0.5889 0.04152 0.65981 0.0
C117 C 0.57482 0.05802 0.60005 0.0
C118 C 0.57512 0.07255 0.63079 0.0
C119 C 0.58232 0.07121 0.67623 0.0
C120 C 0.58189 0.04262 0.61621 0.0
H121 H 0.59482 0.05447 0.7253 0.0
C122 C 0.61071 0.02549 0.77085 0.0
O123 O 0.57445 0.99263 0.82368 0.0
O124 O 0.56229 0.01593 0.79492 0.0
N125 N 0.58753 0.01315 0.6082 0.0
C126 C 0.58745 0.99772 0.58375 0.0
C127 C 0.58073 0.99682 0.53761 0.0
C128 C 0.57432 0.01181 0.51713 0.0
C129 C 0.57433 0.02748 0.54306 0.0
C130 C 0.58141 0.02765 0.58863 0.0
H131 H 0.59247 0.98621 0.59936 0.0
O132 O 0.5616 0.9905 0.72208 0.0
O133 O 0.57753 0.01235 0.70117 0.0
O134 O 0.59815 0.98433 0.73844 0.0
O135 O 0.60799 0.99568 0.6733 0.0
C136 C 0.56747 0.04291 0.5256 0.0
C137 C 0.56762 0.05815 0.5542 0.0
H138 H 0.56978 0.08475 0.61998 0.0
H139 H 0.58254 0.08235 0.70022 0.0
H140 H 0.58065 0.98465 0.51775 0.0
H141 H 0.56955 0.01123 0.48138 0.0
H142 H 0.56184 0.04313 0.49047 0.0
H143 H 0.56209 0.06988 0.54065 0.0
Mn144 Mn 0.74742 0.67723 0.0059 0.0
Mn145 Mn 0.76753 0.66242 0.10276 0.0
C146 C 0.74575 0.69257 0.0761 0.0
C147 C 0.74928 0.69409 0.94013 0.0
C148 C 0.73347 0.64774 0.06238 0.0
O149 O 0.76402 0.65927 0.97966 0.0
O150 O 0.77783 0.65158 0.04625 0.0
C151 C 0.80201 0.67796 0.09177 0.0
N152 N 0.78776 0.676 0.1175 0.0
C153 C 0.79955 0.69495 0.17914 0.0
C154 C 0.81441 0.69709 0.1534 0.0
C155 C 0.81563 0.68857 0.10951 0.0
C156 C 0.78645 0.68413 0.15979 0.0
H157 H 0.80297 0.6715 0.05792 0.0
C158 C 0.77559 0.65073 0.00169 0.0
O159 O 0.73759 0.68206 0.94172 0.0
O160 O 0.75994 0.69581 0.97577 0.0
N161 N 0.75897 0.67196 0.15996 0.0
C162 C 0.74352 0.66902 0.17957 0.0
C163 C 0.74013 0.67682 0.22328 0.0
C164 C 0.75266 0.68746 0.24648 0.0
C165 C 0.76852 0.69016 0.22582 0.0
C166 C 0.77125 0.68189 0.18243 0.0
H167 H 0.73383 0.66086 0.16193 0.0
O168 O 0.73445 0.69506 0.04254 0.0
O169 O 0.75775 0.68132 0.0673 0.0
O170 O 0.73149 0.65796 0.02842 0.0
O171 O 0.74663 0.64819 0.09069 0.0
C172 C 0.78162 0.70094 0.24623 0.0
C173 C 0.79712 0.70335 0.22286 0.0
H174 H 0.82489 0.70535 0.16684 0.0
H175 H 0.82702 0.69021 0.08936 0.0
H176 H 0.72785 0.67468 0.239 0.0
H177 H 0.74995 0.69354 0.28005 0.0
H178 H 0.77983 0.70759 0.2796 0.0
H179 H 0.80701 0.71183 0.23865 0.0
Mn180 Mn 0.0804 0.01008 0.76939 0.0
Mn181 Mn 0.10133 0.98942 0.68241 0.0
C182 C 0.0681 0.00857 0.6944 0.0
C183 C 0.06183 0.00887 0.83207 0.0
C184 C 0.11062 0.02567 0.71853 0.0
O185 O 0.09883 0.99625 0.80451 0.0
O186 O 0.11086 0.98219 0.74377 0.0
C187 C 0.08899 0.954 0.69799 0.0
N188 N 0.09068 0.96745 0.66926 0.0
C189 C 0.07751 0.95112 0.60438 0.0
C190 C 0.0757 0.93704 0.63315 0.0
C191 C 0.08137 0.93853 0.68026 0.0
C192 C 0.08496 0.96628 0.62419 0.0
H193 H 0.09348 0.95505 0.7341 0.0
C194 C 0.10961 0.98549 0.78756 0.0
O195 O 0.07285 0.02142 0.82919 0.0
O196 O 0.06176 0.99703 0.79889 0.0
N197 N 0.09363 0.99498 0.6207 0.0
C198 C 0.09604 0.00986 0.59781 0.0
C199 C 0.09068 0.01063 0.55061 0.0
C200 C 0.08341 0.99598 0.52711 0.0
C201 C 0.08144 0.98072 0.55119 0.0
C202 C 0.08668 0.9808 0.59837 0.0
H203 H 0.10192 0.02106 0.61548 0.0
O204 O 0.06301 0.02007 0.72497 0.0
O205 O 0.07985 0.99785 0.70908 0.0
O206 O 0.09883 0.02726 0.74856 0.0
O207 O 0.1128 0.01199 0.69314 0.0
C208 C 0.07466 0.96537 0.53006 0.0
C209 C 0.07242 0.95065 0.55669 0.0
H210 H 0.06998 0.92503 0.61947 0.0
H211 H 0.07999 0.92774 0.70274 0.0
H212 H 0.09223 0.02245 0.53227 0.0
H213 H 0.07941 0.99658 0.49061 0.0
H214 H 0.07142 0.96471 0.49318 0.0
H215 H 0.06695 0.939 0.54003 0.0
Mn216 Mn 0.7482 0.33689 0.51375 0.0
Mn217 Mn 0.76612 0.35497 0.42177 0.0
C218 C 0.74622 0.32311 0.4402 0.0
C219 C 0.75086 0.3191 0.57808 0.0
C220 C 0.73282 0.36779 0.46427 0.0
O221 O 0.76453 0.35523 0.54428 0.0
O222 O 0.77797 0.36343 0.48027 0.0
C223 C 0.80098 0.33939 0.42766 0.0
N224 N 0.7859 0.34213 0.40308 0.0
C225 C 0.7971 0.32868 0.33361 0.0
C226 C 0.81282 0.32586 0.35801 0.0
C227 C 0.81469 0.33104 0.40541 0.0
C228 C 0.78374 0.33662 0.35799 0.0
H229 H 0.80257 0.34369 0.46383 0.0
C230 C 0.77621 0.3637 0.52446 0.0
O231 O 0.73899 0.33091 0.57543 0.0
O232 O 0.76145 0.31801 0.54412 0.0
N233 N 0.75594 0.34787 0.36228 0.0
C234 C 0.7403 0.35237 0.34294 0.0
C235 C 0.73623 0.34764 0.29603 0.0
C236 C 0.74847 0.33893 0.26902 0.0
C237 C 0.7647 0.33504 0.28913 0.0
C238 C 0.76791 0.3397 0.33633 0.0
H239 H 0.73097 0.35946 0.36313 0.0
O240 O 0.73566 0.31916 0.47225 0.0
O241 O 0.75771 0.33472 0.4525 0.0
O242 O 0.73125 0.35582 0.49327 0.0
O243 O 0.74567 0.36892 0.43784 0.0
C244 C 0.77802 0.32724 0.26375 0.0
C245 C 0.79427 0.3243 0.28581 0.0
H246 H 0.82356 0.31977 0.34073 0.0
H247 H 0.82676 0.32886 0.42452 0.0
H248 H 0.72377 0.35079 0.28047 0.0
H249 H 0.74535 0.33552 0.23269 0.0
H250 H 0.776 0.32371 0.22704 0.0
H251 H 0.80453 0.31882 0.26545 0.0
Mn252 Mn 0.42107 0.01587 0.2561 0.0
Mn253 Mn 0.40194 0.9987 0.34795 0.0
C254 C 0.43506 0.0164 0.32919 0.0
C255 C 0.43863 0.01289 0.19129 0.0
C256 C 0.39258 0.03387 0.31181 0.0
O257 O 0.40196 1.00098 0.22434 0.0
O258 O 0.39065 0.99031 0.28851 0.0
C259 C 0.41186 0.96215 0.33053 0.0
N260 N 0.41164 0.97651 0.35942 0.0
C261 C 0.42537 0.96131 0.42231 0.0
C262 C 0.42574 0.94634 0.39327 0.0
C263 C 0.41899 0.94678 0.34715 0.0
C264 C 0.41811 0.97624 0.40379 0.0
H265 H 0.40661 0.96241 0.29514 0.0
C266 C 0.39103 0.99166 0.24427 0.0
O267 O 0.42752 0.02539 0.19513 0.0
O268 O 0.43919 0.00194 0.2244 0.0
N269 N 0.41141 0.00554 0.4082 0.0
C270 C 0.4107 0.02129 0.43091 0.0
C271 C 0.41691 0.02308 0.47741 0.0
C272 C 0.42361 0.00865 0.5 0.0
C273 C 0.42437 0.99263 0.47586 0.0
C274 C 0.4178 0.99157 0.42978 0.0
H275 H 0.4054 0.03237 0.41372 0.0
O276 O 0.43932 0.02716 0.29797 0.0
O277 O 0.42287 0.00544 0.31669 0.0
O278 O 0.40299 0.03375 0.27819 0.0
O279 O 0.39137 0.02145 0.33952 0.0
C280 C 0.43149 0.97771 0.49558 0.0
C281 C 0.43207 0.96207 0.46873 0.0
H282 H 0.43124 0.93446 0.40595 0.0
H283 H 0.41923 0.93528 0.32454 0.0
H284 H 0.41639 0.0355 0.49594 0.0
H285 H 0.42797 0.00996 0.53599 0.0
H286 H 0.43674 0.97817 0.53117 0.0
H287 H 0.43776 0.95073 0.48406 0.0
Mn288 Mn 0.75604 0.83671 0.51739 0.0
Mn289 Mn 0.7356 0.85025 0.41963 0.0
C290 C 0.75831 0.82097 0.44799 0.0
C291 C 0.75437 0.82024 0.58398 0.0
C292 C 0.76915 0.86624 0.4599 0.0
O293 O 0.7389 0.85438 0.54234 0.0
O294 O 0.72453 0.86079 0.47549 0.0
C295 C 0.70178 0.83321 0.42984 0.0
N296 N 0.71602 0.83578 0.40448 0.0
C297 C 0.7053 0.8162 0.34287 0.0
C298 C 0.69046 0.81345 0.3682 0.0
C299 C 0.68871 0.82197 0.4119 0.0
C300 C 0.71785 0.82763 0.36241 0.0
H301 H 0.70043 0.83966 0.46356 0.0
C302 C 0.72679 0.86209 0.52004 0.0
O303 O 0.76579 0.83252 0.58211 0.0
O304 O 0.74389 0.81804 0.54812 0.0
N305 N 0.74484 0.84088 0.36305 0.0
C306 C 0.7603 0.84431 0.34407 0.0
C307 C 0.76423 0.83652 0.30074 0.0
C308 C 0.75222 0.82537 0.27727 0.0
C309 C 0.73635 0.82213 0.29729 0.0
C310 C 0.73306 0.83042 0.34032 0.0
H311 H 0.7696 0.85286 0.36191 0.0
O312 O 0.76959 0.81899 0.48191 0.0
O313 O 0.74599 0.83193 0.45604 0.0
O314 O 0.77149 0.85622 0.49415 0.0
O315 O 0.75589 0.86534 0.43193 0.0
C316 C 0.72378 0.81079 0.27664 0.0
C317 C 0.70829 0.8078 0.29946 0.0
H318 H 0.6804 0.8047 0.35462 0.0
H319 H 0.67734 0.81983 0.43176 0.0
H320 H 0.77652 0.83906 0.28554 0.0
H321 H 0.75535 0.81929 0.24401 0.0
H322 H 0.72601 0.80411 0.24353 0.0
H323 H 0.69883 0.79887 0.28354 0.0
Mn324 Mn 0.42028 0.50568 0.7514 0.0
Mn325 Mn 0.40207 0.52664 0.84256 0.0
C326 C 0.43387 0.50545 0.8248 0.0
C327 C 0.43828 0.50676 0.68758 0.0
C328 C 0.39016 0.49125 0.80434 0.0
O329 O 0.40209 0.52082 0.71961 0.0
O330 O 0.39264 0.53545 0.78284 0.0
C331 C 0.41673 0.56138 0.82957 0.0
N332 N 0.41407 0.54782 0.85732 0.0
C333 C 0.4283 0.56266 0.92324 0.0
C334 C 0.43107 0.57686 0.8955 0.0
C335 C 0.42532 0.57618 0.8484 0.0
C336 C 0.4197 0.54826 0.90251 0.0
H337 H 0.41233 0.5609 0.79336 0.0
C338 C 0.39282 0.53253 0.73867 0.0
O339 O 0.42663 0.49475 0.6898 0.0
O340 O 0.4391 0.51823 0.72165 0.0
N341 N 0.40984 0.51986 0.9032 0.0
C342 C 0.40688 0.50477 0.92456 0.0
C343 C 0.41181 0.50334 0.97185 0.0
C344 C 0.41958 0.51744 0.99672 0.0
C345 C 0.42271 0.53273 0.97389 0.0
C346 C 0.41726 0.53352 0.92696 0.0
H347 H 0.40061 0.494 0.90584 0.0
O348 O 0.43767 0.4941 0.79243 0.0
O349 O 0.42258 0.5171 0.81285 0.0
O350 O 0.40134 0.48928 0.77279 0.0
O351 O 0.38912 0.50488 0.83066 0.0
C352 C 0.43104 0.54722 0.99586 0.0
C353 C 0.43394 0.56213 0.97046 0.0
H354 H 0.4377 0.58829 0.90989 0.0
H355 H 0.42749 0.58704 0.82669 0.0
H356 H 0.40943 0.49148 0.98927 0.0
H357 H 0.42301 0.51647 0.03343 0.0
H358 H 0.43545 0.54694 0.03213 0.0
H359 H 0.44059 0.57309 0.98751 0.0
Mn360 Mn 0.75519 0.17593 0.00253 0.0
Mn361 Mn 0.73693 0.15972 0.09661 0.0
C362 C 0.75714 0.19093 0.07441 0.0
C363 C 0.75274 0.19274 0.93621 0.0
C364 C 0.77036 0.14599 0.05679 0.0
O365 O 0.7388 0.15732 0.974 0.0
O366 O 0.72523 0.1502 0.03885 0.0
C367 C 0.70209 0.17523 0.088 0.0
N368 N 0.71711 0.17291 0.11321 0.0
C369 C 0.7057 0.18742 0.18094 0.0
C370 C 0.69004 0.18986 0.15585 0.0
C371 C 0.68832 0.18393 0.10899 0.0
C372 C 0.71914 0.17913 0.15774 0.0
H373 H 0.7006 0.17033 0.05231 0.0
C374 C 0.7271 0.14919 0.99468 0.0
O375 O 0.76453 0.18089 0.94018 0.0
O376 O 0.74212 0.19439 0.96995 0.0
N377 N 0.74695 0.16784 0.15539 0.0
C378 C 0.76256 0.16368 0.17552 0.0
C379 C 0.76649 0.16902 0.22205 0.0
C380 C 0.75415 0.17812 0.24786 0.0
C381 C 0.73797 0.18174 0.22692 0.0
C382 C 0.73491 0.1764 0.18014 0.0
H383 H 0.77199 0.15642 0.15623 0.0
O384 O 0.76782 0.19417 0.04207 0.0
O385 O 0.74555 0.17927 0.0634 0.0
O386 O 0.77193 0.15714 0.02546 0.0
O387 O 0.75743 0.14555 0.08312 0.0
C388 C 0.72456 0.1899 0.25113 0.0
C389 C 0.70837 0.1925 0.22834 0.0
H390 H 0.67925 0.19622 0.1722 0.0
H391 H 0.67629 0.1858 0.08937 0.0
H392 H 0.77893 0.16597 0.23812 0.0
H393 H 0.75715 0.18203 0.28393 0.0
H394 H 0.72646 0.19396 0.28753 0.0
H395 H 0.69803 0.19829 0.24786 0.0
Mn396 Mn 0.08214 0.49978 0.27309 0.0
Mn397 Mn 0.10161 0.5176 0.18287 0.0
C398 C 0.06844 0.50014 0.19973 0.0
C399 C 0.06443 0.50223 0.33772 0.0
C400 C 0.1107 0.48209 0.21677 0.0
O401 O 0.10131 0.51424 0.30615 0.0
O402 O 0.11297 0.52531 0.24287 0.0
C403 C 0.09125 0.5538 0.20361 0.0
N404 N 0.09174 0.53983 0.17337 0.0
C405 C 0.0785 0.55585 0.11143 0.0
C406 C 0.0779 0.57045 0.14177 0.0
C407 C 0.08411 0.56936 0.18823 0.0
C408 C 0.08522 0.54056 0.12915 0.0
H409 H 0.09629 0.55308 0.23911 0.0
C410 C 0.11247 0.5235 0.28691 0.0
O411 O 0.07546 0.48971 0.33317 0.0
O412 O 0.06402 0.51352 0.30542 0.0
N413 N 0.09219 0.51138 0.12199 0.0
C414 C 0.09375 0.49614 0.09713 0.0
C415 C 0.08785 0.49497 0.05021 0.0
C416 C 0.08092 0.50959 0.02897 0.0
C417 C 0.07989 0.52524 0.05495 0.0
C418 C 0.08563 0.52555 0.1018 0.0
H419 H 0.09932 0.48494 0.11304 0.0
O420 O 0.06385 0.48911 0.22988 0.0
O421 O 0.0807 0.51077 0.21348 0.0
O422 O 0.10017 0.48203 0.25012 0.0
O423 O 0.11209 0.4947 0.18973 0.0
C424 C 0.07384 0.54066 0.03581 0.0
C425 C 0.07296 0.55592 0.06412 0.0
H426 H 0.07268 0.58255 0.1298 0.0
H427 H 0.08353 0.58052 0.21195 0.0
H428 H 0.08882 0.48287 0.03034 0.0
H429 H 0.07656 0.50871 0.99262 0.0
H430 H 0.07006 0.54091 0.99915 0.0
H431 H 0.06829 0.56772 0.04904 0.0
Mn432 Mn 0.24575 0.17945 0.51121 0.0
Mn433 Mn 0.26668 0.15827 0.5971 0.0
C434 C 0.24744 0.19145 0.58661 0.0
C435 C 0.24667 0.19822 0.44912 0.0
C436 C 0.23058 0.1487 0.56033 0.0
O437 O 0.25981 0.16139 0.47527 0.0
O438 O 0.27427 0.14944 0.53547 0.0
C439 C 0.30223 0.17079 0.5837 0.0
N440 N 0.28851 0.16904 0.61158 0.0
C441 C 0.3045 0.1816 0.67792 0.0
C442 C 0.31881 0.18354 0.64999 0.0
C443 C 0.31763 0.1782 0.6026 0.0
C444 C 0.28942 0.17437 0.65699 0.0
H445 H 0.30144 0.16648 0.54742 0.0
C446 C 0.27093 0.15087 0.49174 0.0
O447 O 0.23422 0.18708 0.45185 0.0
O448 O 0.25854 0.19835 0.48224 0.0
N449 N 0.26071 0.16554 0.65884 0.0
C450 C 0.24564 0.16305 0.68079 0.0
C451 C 0.24455 0.16807 0.72815 0.0
C452 C 0.25908 0.17517 0.75268 0.0
C453 C 0.27451 0.17732 0.72946 0.0
C454 C 0.27474 0.17241 0.68208 0.0
H455 H 0.23452 0.15733 0.66229 0.0
O456 O 0.23573 0.19652 0.55661 0.0
O457 O 0.25814 0.17982 0.57121 0.0
O458 O 0.22879 0.16076 0.53128 0.0
O459 O 0.24433 0.14646 0.58531 0.0
C460 C 0.28975 0.18393 0.75164 0.0
C461 C 0.30468 0.18629 0.72586 0.0
H462 H 0.33077 0.18908 0.66457 0.0
H463 H 0.32862 0.17964 0.58082 0.0
H464 H 0.2326 0.16634 0.74583 0.0
H465 H 0.25825 0.17889 0.78932 0.0
H466 H 0.29015 0.18693 0.78868 0.0
H467 H 0.31628 0.19153 0.74334 0.0
Mn468 Mn 0.58044 0.50956 0.26225 0.0
Mn469 Mn 0.59633 0.48759 0.16949 0.0
C470 C 0.56574 0.51025 0.19038 0.0
C471 C 0.56357 0.50901 0.32836 0.0
C472 C 0.61049 0.5224 0.20653 0.0
O473 O 0.59846 0.49375 0.292 0.0
O474 O 0.60569 0.4779 0.22834 0.0
C475 C 0.57954 0.45382 0.18237 0.0
N476 N 0.58294 0.46725 0.1548 0.0
C477 C 0.56741 0.45356 0.0892 0.0
C478 C 0.56393 0.43946 0.11668 0.0
C479 C 0.56994 0.43964 0.16355 0.0
C480 C 0.57703 0.46732 0.10989 0.0
H481 H 0.58406 0.45396 0.21845 0.0
C482 C 0.60643 0.48119 0.27244 0.0
O483 O 0.5755 0.52067 0.32473 0.0
O484 O 0.56174 0.49769 0.29416 0.0
N485 N 0.58842 0.49515 0.10972 0.0
C486 C 0.59196 0.5102 0.08889 0.0
C487 C 0.58678 0.51217 0.04197 0.0
C488 C 0.57809 0.49862 0.01697 0.0
C489 C 0.57431 0.48338 0.03934 0.0
C490 C 0.58009 0.48203 0.08586 0.0
H491 H 0.5989 0.52054 0.10769 0.0
O492 O 0.56288 0.52178 0.22313 0.0
O493 O 0.57677 0.49821 0.20116 0.0
O494 O 0.59963 0.52512 0.23859 0.0
O495 O 0.61071 0.50851 0.18097 0.0
C496 C 0.56502 0.4695 0.01734 0.0
C497 C 0.56146 0.45465 0.04236 0.0
H498 H 0.5565 0.42852 0.10233 0.0
H499 H 0.56718 0.42888 0.18511 0.0
H500 H 0.58968 0.52401 0.02495 0.0
H501 H 0.57445 0.49998 0.98052 0.0
H502 H 0.56034 0.47022 0.98139 0.0
H503 H 0.55404 0.44418 0.02534 0.0
Mn504 Mn 0.24936 0.83906 0.01521 0.0
Mn505 Mn 0.26629 0.85523 0.91897 0.0
C506 C 0.24569 0.8243 0.94349 0.0
C507 C 0.2521 0.82202 0.08086 0.0
C508 C 0.23376 0.86934 0.96276 0.0
O509 O 0.26679 0.8569 0.04246 0.0
O510 O 0.27847 0.86493 0.97581 0.0
C511 C 0.30119 0.83969 0.92592 0.0
N512 N 0.2862 0.84244 0.90097 0.0
C513 C 0.29702 0.82747 0.83308 0.0
C514 C 0.31262 0.82454 0.85795 0.0
C515 C 0.31468 0.83062 0.90464 0.0
C516 C 0.28403 0.83654 0.85619 0.0
H517 H 0.30283 0.8444 0.96175 0.0
C518 C 0.27778 0.86542 0.02034 0.0
O519 O 0.24078 0.83436 0.07843 0.0
O520 O 0.26214 0.81998 0.04589 0.0
N521 N 0.25593 0.84696 0.86087 0.0
C522 C 0.23976 0.85007 0.84271 0.0
C523 C 0.23562 0.84499 0.79613 0.0
C524 C 0.24814 0.83685 0.76878 0.0
C525 C 0.26454 0.8334 0.78855 0.0
C526 C 0.26804 0.83908 0.83481 0.0
H527 H 0.23022 0.85666 0.86333 0.0
O528 O 0.23535 0.82161 0.97706 0.0
O529 O 0.25796 0.83551 0.95289 0.0
O530 O 0.23294 0.85851 0.99507 0.0
O531 O 0.24584 0.86928 0.93364 0.0
C532 C 0.27756 0.82462 0.76414 0.0
C533 C 0.29375 0.82153 0.78652 0.0
H534 H 0.32305 0.81754 0.84167 0.0
H535 H 0.32666 0.82835 0.92411 0.0
H536 H 0.22289 0.84759 0.78113 0.0
H537 H 0.2451 0.83337 0.73251 0.0
H538 H 0.27518 0.82001 0.72833 0.0
H539 H 0.30356 0.81452 0.76766 0.0
Mn540 Mn 0.92236 0.50967 0.76648 0.0
Mn541 Mn 0.9033 0.49178 0.85726 0.0
C542 C 0.93643 0.50913 0.83933 0.0
C543 C 0.93973 0.50728 0.70114 0.0
C544 C 0.8942 0.52739 0.82406 0.0
O545 O 0.90295 0.49536 0.73398 0.0
O546 O 0.89171 0.4841 0.79753 0.0
C547 C 0.91305 0.45542 0.8365 0.0
N548 N 0.91307 0.46949 0.86648 0.0
C549 C 0.92623 0.45333 0.92825 0.0
C550 C 0.92634 0.43864 0.89813 0.0
C551 C 0.91986 0.43974 0.8519 0.0
C552 C 0.91974 0.46871 0.91054 0.0
H553 H 0.90779 0.45615 0.80121 0.0
C554 C 0.89196 0.48597 0.75346 0.0
O555 O 0.92876 0.51984 0.70628 0.0
O556 O 0.94024 0.49592 0.73322 0.0
N557 N 0.91299 0.49795 0.91786 0.0
C558 C 0.9116 0.51319 0.9428 0.0
C559 C 0.91766 0.51433 0.98958 0.0
C560 C 0.92456 0.49966 0.01065 0.0
C561 C 0.9254 0.484 0.98464 0.0
C562 C 0.91955 0.48374 0.93788 0.0
H563 H 0.90604 0.52443 0.92703 0.0
O564 O 0.94091 0.52018 0.8091 0.0
O565 O 0.92408 0.49856 0.82595 0.0
O566 O 0.90458 0.52749 0.7904 0.0
O567 O 0.89285 0.5147 0.85085 0.0
C568 C 0.93133 0.46852 0.00371 0.0
C569 C 0.93191 0.45323 0.97545 0.0
H570 H 0.9313 0.42644 0.91015 0.0
H571 H 0.91989 0.42846 0.82842 0.0
H572 H 0.91682 0.52644 0.00948 0.0
H573 H 0.92902 0.50051 0.04693 0.0
H574 H 0.93518 0.46824 0.04031 0.0
H575 H 0.93644 0.44137 0.99052 0.0
H576 H 0.23044 0.2937 0.0895 0.0
H577 H 0.22898 0.27355 0.15274 0.0
H578 H 0.27665 0.29431 0.21418 0.0
H579 H 0.27832 0.3144 0.15047 0.0
H580 H 0.27663 0.25957 0.21428 0.0
H581 H 0.23768 0.30465 0.26028 0.0
H582 H 0.21316 0.32464 0.25025 0.0
H583 H 0.17837 0.28161 0.22909 0.0
H584 H 0.20274 0.26135 0.23832 0.0
H585 H 0.27133 0.22256 0.43564 0.0
H586 H 0.27259 0.24267 0.3723 0.0
H587 H 0.22505 0.2215 0.31114 0.0
H588 H 0.22359 0.20141 0.37496 0.0
H589 H 0.22491 0.25636 0.31072 0.0
H590 H 0.26388 0.21129 0.26492 0.0
H591 H 0.28842 0.19132 0.27505 0.0
H592 H 0.32318 0.23437 0.29591 0.0
H593 H 0.29881 0.25461 0.28658 0.0
C594 C 0.24061 0.29402 0.11649 0.0
C595 C 0.25448 0.30571 0.11499 0.0
C596 C 0.23972 0.28252 0.15277 0.0
C597 C 0.25259 0.28252 0.18861 0.0
C598 C 0.26654 0.29408 0.18699 0.0
C599 C 0.26746 0.3056 0.15063 0.0
C600 C 0.25156 0.27034 0.22743 0.0
C601 C 0.26543 0.25905 0.23579 0.0
C602 C 0.23676 0.26932 0.25483 0.0
C603 C 0.22207 0.28148 0.24955 0.0
C604 C 0.22483 0.29945 0.25313 0.0
C605 C 0.21095 0.31083 0.24765 0.0
C606 C 0.19423 0.3044 0.23892 0.0
C607 C 0.19134 0.28657 0.23579 0.0
C608 C 0.20518 0.27513 0.24119 0.0
C609 C 0.26114 0.22213 0.40871 0.0
C610 C 0.24738 0.21032 0.4103 0.0
C611 C 0.26191 0.23362 0.37237 0.0
C612 C 0.24902 0.23349 0.33656 0.0
C613 C 0.23516 0.22183 0.33829 0.0
C614 C 0.23438 0.21031 0.37472 0.0
C615 C 0.24999 0.2456 0.29759 0.0
C616 C 0.23612 0.25688 0.28919 0.0
C617 C 0.26478 0.24661 0.27016 0.0
C618 C 0.27949 0.23447 0.27548 0.0
C619 C 0.27674 0.2165 0.27201 0.0
C620 C 0.29062 0.20513 0.27756 0.0
C621 C 0.30734 0.21157 0.28623 0.0
C622 C 0.31022 0.2294 0.28924 0.0
C623 C 0.29638 0.24083 0.28379 0.0
H624 H 0.31807 0.20274 0.29051 0.0
H625 H 0.1835 0.31323 0.23468 0.0
H626 H 0.94142 0.98495 0.40419 0.0
H627 H 0.96271 0.98568 0.46935 0.0
H628 H 0.97527 0.03846 0.44095 0.0
H629 H 0.95359 0.03779 0.37619 0.0
H630 H 0.99509 0.98823 0.45116 0.0
H631 H 0.99443 0.05707 0.51592 0.0
H632 H 0.97857 0.08041 0.55682 0.0
H633 H 0.94731 0.04273 0.62055 0.0
H634 H 0.96273 0.01923 0.57902 0.0
H635 H 0.06298 0.0331 0.63083 0.0
H636 H 0.04215 0.03225 0.56452 0.0
H637 H 0.0293 0.97958 0.59339 0.0
H638 H 0.0508 0.98023 0.65823 0.0
H639 H 0.0098 0.02971 0.58213 0.0
H640 H 0.01327 0.96174 0.53003 0.0
H641 H 0.02891 0.93745 0.49267 0.0
H642 H 0.05371 0.97267 0.40418 0.0
H643 H 0.03872 0.9972 0.44251 0.0
C644 C 0.94832 0.99688 0.41297 0.0
C645 C 0.94575 0.01137 0.38572 0.0
C646 C 0.96047 0.99732 0.45023 0.0
C647 C 0.97065 0.01212 0.4603 0.0
C648 C 0.9674 0.02699 0.43466 0.0
C649 C 0.95505 0.0266 0.39752 0.0
C650 C 0.98659 0.01071 0.49062 0.0
C651 C 0.99814 0.99722 0.48027 0.0
C652 C 0.99109 0.02264 0.52753 0.0
C653 C 0.97944 0.03648 0.54373 0.0
C654 C 0.98384 0.05383 0.53767 0.0
C655 C 0.97506 0.06706 0.56129 0.0
C656 C 0.96209 0.06305 0.59171 0.0
C657 C 0.95744 0.04582 0.59723 0.0
C658 C 0.96602 0.03255 0.57313 0.0
C659 C 0.05618 0.02114 0.62168 0.0
C660 C 0.05863 0.00665 0.64897 0.0
C661 C 0.0443 0.02063 0.58378 0.0
C662 C 0.03416 0.0058 0.5734 0.0
C663 C 0.03724 0.99099 0.5994 0.0
C664 C 0.04944 0.99141 0.63681 0.0
C665 C 0.01828 0.00721 0.54277 0.0
C666 C 0.00677 0.02074 0.55294 0.0
C667 C 0.0138 0.99529 0.50578 0.0
C668 C 0.02533 0.98128 0.49003 0.0
C669 C 0.0225 0.96432 0.50367 0.0
C670 C 0.03112 0.95051 0.48207 0.0
C671 C 0.04223 0.9535 0.44591 0.0
C672 C 0.04508 0.97037 0.43213 0.0
C673 C 0.03678 0.98425 0.45436 0.0
H674 H 0.04873 0.94278 0.4288 0.0
H675 H 0.95546 0.07329 0.61049 0.0
H676 H 0.28278 0.70689 0.62893 0.0
H677 H 0.2813 0.72934 0.69067 0.0
H678 H 0.22548 0.72576 0.68299 0.0
H679 H 0.22729 0.70642 0.6149 0.0
H680 H 0.23056 0.75506 0.6928 0.0
H681 H 0.25988 0.71044 0.78746 0.0
H682 H 0.28365 0.69003 0.8064 0.0
H683 H 0.32078 0.73076 0.79758 0.0
H684 H 0.29737 0.75129 0.77903 0.0
H685 H 0.21817 0.80893 0.89651 0.0
H686 H 0.21897 0.7855 0.83726 0.0
H687 H 0.27476 0.78895 0.83985 0.0
H688 H 0.27376 0.8097 0.90526 0.0
H689 H 0.26913 0.75923 0.83423 0.0
H690 H 0.23989 0.80287 0.73295 0.0
H691 H 0.21615 0.82327 0.71362 0.0
H692 H 0.17872 0.78384 0.73565 0.0
H693 H 0.20215 0.76334 0.75453 0.0
C694 C 0.27025 0.71087 0.64103 0.0
C695 C 0.25507 0.704 0.61943 0.0
C696 C 0.26937 0.7235 0.67711 0.0
C697 C 0.25327 0.72895 0.69372 0.0
C698 C 0.23816 0.72188 0.67181 0.0
C699 C 0.2391 0.71024 0.63379 0.0
C700 C 0.25182 0.7431 0.73042 0.0
C701 C 0.23888 0.75565 0.7241 0.0
C702 C 0.26295 0.74468 0.77076 0.0
C703 C 0.27694 0.73223 0.7812 0.0
C704 C 0.27315 0.7149 0.78911 0.0
C705 C 0.28651 0.70337 0.79989 0.0
C706 C 0.30366 0.70906 0.80271 0.0
C707 C 0.3075 0.72633 0.79519 0.0
C708 C 0.29421 0.73792 0.78474 0.0
C709 C 0.23055 0.80472 0.88382 0.0
C710 C 0.24594 0.81195 0.90316 0.0
C711 C 0.23102 0.7915 0.8492 0.0
C712 C 0.24691 0.78572 0.83194 0.0
C713 C 0.26225 0.79309 0.85165 0.0
C714 C 0.26174 0.80547 0.8881 0.0
C715 C 0.24794 0.77114 0.79641 0.0
C716 C 0.26078 0.75852 0.80299 0.0
C717 C 0.23669 0.76942 0.7564 0.0
C718 C 0.22269 0.78183 0.74604 0.0
C719 C 0.22656 0.79876 0.73423 0.0
C720 C 0.21321 0.81025 0.72318 0.0
C721 C 0.19598 0.80491 0.72398 0.0
C722 C 0.19206 0.78801 0.73531 0.0
C723 C 0.20535 0.77644 0.74598 0.0
H724 H 0.18569 0.81384 0.71549 0.0
H725 H 0.31395 0.70011 0.81099 0.0
H726 H 0.46276 0.98785 0.17491 0.0
H727 H 0.48384 0.98644 0.11358 0.0
H728 H 0.46345 0.03367 0.05868 0.0
H729 H 0.44209 0.03501 0.11966 0.0
H730 H 0.46996 0.01078 0.98916 0.0
H731 H 0.50126 0.03326 0.12587 0.0
H732 H 0.51195 0.03356 0.20799 0.0
H733 H 0.53805 0.98538 0.18268 0.0
H734 H 0.52731 0.98468 0.10052 0.0
H735 H 0.53927 0.03004 0.84598 0.0
H736 H 0.51843 0.03122 0.90786 0.0
H737 H 0.53915 0.9839 0.96136 0.0
H738 H 0.5603 0.98279 0.89976 0.0
H739 H 0.5325 0.00658 0.03162 0.0
H740 H 0.50132 0.98413 0.89493 0.0
H741 H 0.49062 0.98378 0.81281 0.0
H742 H 0.46428 0.03182 0.8381 0.0
H743 H 0.47502 0.03258 0.92026 0.0
C744 C 0.46268 0.99791 0.14967 0.0
C745 C 0.45076 0.01159 0.15235 0.0
C746 C 0.47483 0.99713 0.11472 0.0
C747 C 0.47547 0.0101 0.08186 0.0
C748 C 0.46328 0.02354 0.08369 0.0
C749 C 0.45108 0.0243 0.11863 0.0
C750 C 0.48891 0.0097 0.04585 0.0
C751 C 0.48364 0.01011 0.99852 0.0
C752 C 0.50679 0.00839 0.05783 0.0
C753 C 0.51334 0.00884 0.10716 0.0
C754 C 0.50918 0.02267 0.1379 0.0
C755 C 0.51526 0.02292 0.18444 0.0
C756 C 0.52564 0.00948 0.20058 0.0
C757 C 0.52999 0.99578 0.17016 0.0
C758 C 0.52392 0.99545 0.12359 0.0
C759 C 0.53949 0.01992 0.87105 0.0
C760 C 0.55142 0.00627 0.86774 0.0
C761 C 0.52747 0.02056 0.90632 0.0
C762 C 0.52697 0.00749 0.93889 0.0
C763 C 0.53921 0.99411 0.93655 0.0
C764 C 0.55129 0.99347 0.90128 0.0
C765 C 0.51355 0.0077 0.97494 0.0
C766 C 0.51882 0.00725 0.02227 0.0
C767 C 0.49567 0.00897 0.96297 0.0
C768 C 0.48911 0.00849 0.91364 0.0
C769 C 0.49335 0.99468 0.8829 0.0
C770 C 0.48726 0.9944 0.83635 0.0
C771 C 0.47682 0.00779 0.82022 0.0
C772 C 0.47239 0.02147 0.85063 0.0
C773 C 0.47846 0.02182 0.8972 0.0
H774 H 0.47212 0.00754 0.78417 0.0
H775 H 0.53033 0.0097 0.23663 0.0
H776 H 0.23114 0.82137 0.15574 0.0
H777 H 0.23121 0.80023 0.21708 0.0
H778 H 0.27482 0.77448 0.15613 0.0
H779 H 0.27463 0.79538 0.09436 0.0
H780 H 0.25106 0.75153 0.17657 0.0
H781 H 0.27915 0.79964 0.25797 0.0
H782 H 0.2824 0.82989 0.28706 0.0
H783 H 0.23618 0.8255 0.36406 0.0
H784 H 0.23253 0.79528 0.33492 0.0
H785 H 0.27261 0.69757 0.36628 0.0
H786 H 0.27278 0.71892 0.30551 0.0
H787 H 0.22894 0.74447 0.36582 0.0
H788 H 0.22886 0.72333 0.427 0.0
H789 H 0.25285 0.76754 0.3458 0.0
H790 H 0.22474 0.71944 0.26425 0.0
H791 H 0.22151 0.68919 0.23519 0.0
H792 H 0.26779 0.69355 0.15846 0.0
H793 H 0.27143 0.72378 0.18759 0.0
C794 C 0.24084 0.81131 0.15565 0.0
C795 C 0.25289 0.81009 0.12018 0.0
C796 C 0.2409 0.79924 0.19083 0.0
C797 C 0.2531 0.78579 0.1915 0.0
C798 C 0.26526 0.7847 0.15638 0.0
C799 C 0.26518 0.79672 0.12117 0.0
C800 C 0.25289 0.77256 0.2279 0.0
C801 C 0.2517 0.75503 0.21359 0.0
C802 C 0.25329 0.77709 0.27624 0.0
C803 C 0.25548 0.79525 0.29388 0.0
C804 C 0.26961 0.80517 0.28081 0.0
C805 C 0.27153 0.8223 0.29736 0.0
C806 C 0.25948 0.82963 0.32729 0.0
C807 C 0.2455 0.81982 0.34082 0.0
C808 C 0.2435 0.80268 0.32433 0.0
C809 C 0.26292 0.70765 0.36639 0.0
C810 C 0.2507 0.70871 0.40145 0.0
C811 C 0.263 0.71984 0.33154 0.0
C812 C 0.25079 0.73327 0.33081 0.0
C813 C 0.23851 0.73426 0.36563 0.0
C814 C 0.23843 0.72211 0.40049 0.0
C815 C 0.25103 0.74651 0.29446 0.0
C816 C 0.25222 0.76404 0.30878 0.0
C817 C 0.25063 0.74198 0.24613 0.0
C818 C 0.24845 0.72382 0.22848 0.0
C819 C 0.23431 0.71391 0.24148 0.0
C820 C 0.23239 0.69677 0.22494 0.0
C821 C 0.24447 0.68944 0.1951 0.0
C822 C 0.25846 0.69924 0.18163 0.0
C823 C 0.26045 0.71638 0.19811 0.0
H824 H 0.24296 0.67617 0.18233 0.0
H825 H 0.261 0.84289 0.34007 0.0
H826 H 0.44842 0.98698 0.36357 0.0
H827 H 0.46845 0.98414 0.43085 0.0
H828 H 0.46971 0.03957 0.4509 0.0
H829 H 0.44822 0.04226 0.38678 0.0
H830 H 0.50084 1.00069 0.42542 0.0
H831 H 0.46945 0.04564 0.52828 0.0
H832 H 0.4453 0.05624 0.57486 0.0
H833 H 0.44189 0.00695 0.63764 0.0
H834 H 0.46523 0.99571 0.5887 0.0
H835 H 0.55174 0.02994 0.65226 0.0
H836 H 0.53128 0.03152 0.58537 0.0
H837 H 0.5295 0.9759 0.5743 0.0
H838 H 0.55158 0.97438 0.63727 0.0
H839 H 0.49855 0.01409 0.59531 0.0
H840 H 0.53087 0.96958 0.49795 0.0
H841 H 0.55554 0.95866 0.45405 0.0
H842 H 0.5571 0.00595 0.38085 0.0
H843 H 0.53323 0.01764 0.42714 0.0
C844 C 0.4522 0.99845 0.38419 0.0
C845 C 0.44608 0.01475 0.37177 0.0
C846 C 0.46371 0.99685 0.42242 0.0
C847 C 0.4699 0.01159 0.4478 0.0
C848 C 0.4642 0.02795 0.43441 0.0
C849 C 0.45225 0.02951 0.39697 0.0
C850 C 0.48488 0.00986 0.48099 0.0
C851 C 0.50033 0.00362 0.46267 0.0
C852 C 0.48422 0.01362 0.52954 0.0
C853 C 0.46846 0.01956 0.55286 0.0
C854 C 0.46293 0.03678 0.54998 0.0
C855 C 0.44952 0.04297 0.57732 0.0
C856 C 0.44194 0.03223 0.6089 0.0
C857 C 0.44767 0.01523 0.61294 0.0
C858 C 0.46078 0.00886 0.5848 0.0
C859 C 0.54781 0.01812 0.63345 0.0
C860 C 0.554 0.0021 0.64791 0.0
C861 C 0.53604 0.019 0.59551 0.0
C862 C 0.52962 0.00382 0.57268 0.0
C863 C 0.53527 0.98777 0.58848 0.0
C864 C 0.54755 0.98691 0.62534 0.0
C865 C 0.51452 0.00498 0.53972 0.0
C866 C 0.49905 0.01112 0.55806 0.0
C867 C 0.51515 1.00107 0.49121 0.0
C868 C 0.53089 0.99486 0.4681 0.0
C869 C 0.53707 0.97803 0.47456 0.0
C870 C 0.55079 0.97161 0.44873 0.0
C871 C 0.55805 0.98169 0.41512 0.0
C872 C 0.55159 0.99821 0.40723 0.0
C873 C 0.53815 0.00483 0.43379 0.0
H874 H 0.56856 0.97663 0.39483 0.0
H875 H 0.43171 0.03712 0.63044 0.0
H876 H 0.27653 0.20825 0.61915 0.0
H877 H 0.27854 0.23023 0.68263 0.0
H878 H 0.22605 0.2191 0.71754 0.0
H879 H 0.2238 0.19779 0.65233 0.0
H880 H 0.22939 0.25142 0.69858 0.0
H881 H 0.26311 0.22255 0.8385 0.0
H882 H 0.28782 0.207 0.87405 0.0
H883 H 0.32173 0.2289 0.7768 0.0
H884 H 0.29733 0.24519 0.74233 0.0
H885 H 0.22565 0.30798 0.90609 0.0
H886 H 0.22353 0.28607 0.84248 0.0
H887 H 0.27599 0.29713 0.8072 0.0
H888 H 0.27837 0.31833 0.87263 0.0
H889 H 0.27261 0.26484 0.82636 0.0
H890 H 0.23883 0.29363 0.68624 0.0
H891 H 0.21414 0.30937 0.65122 0.0
H892 H 0.18034 0.28767 0.74908 0.0
H893 H 0.20472 0.27118 0.783 0.0
C894 C 0.26567 0.21009 0.64159 0.0
C895 C 0.25007 0.20124 0.63139 0.0
C896 C 0.26688 0.22256 0.67829 0.0
C897 C 0.25255 0.22624 0.70567 0.0
C898 C 0.23734 0.21648 0.6972 0.0
C899 C 0.23602 0.20432 0.65996 0.0
C900 C 0.25205 0.24227 0.73606 0.0
C901 C 0.23878 0.2542 0.72695 0.0
C902 C 0.26445 0.24637 0.77219 0.0
C903 C 0.27833 0.23449 0.78669 0.0
C904 C 0.27579 0.22373 0.82414 0.0
C905 C 0.28979 0.21511 0.84478 0.0
C906 C 0.30634 0.21691 0.82758 0.0
C907 C 0.30891 0.22742 0.7899 0.0
C908 C 0.29501 0.23639 0.76991 0.0
C909 C 0.23647 0.30614 0.88354 0.0
C910 C 0.25211 0.31492 0.89373 0.0
C911 C 0.2352 0.29371 0.84676 0.0
C912 C 0.2495 0.29002 0.81924 0.0
C913 C 0.26473 0.29975 0.82764 0.0
C914 C 0.26612 0.31185 0.865 0.0
C915 C 0.24996 0.27399 0.78887 0.0
C916 C 0.26322 0.26206 0.79799 0.0
C917 C 0.23755 0.26989 0.75276 0.0
C918 C 0.22367 0.28178 0.73832 0.0
C919 C 0.22619 0.29253 0.70082 0.0
C920 C 0.21219 0.30126 0.6805 0.0
C921 C 0.19569 0.29959 0.69806 0.0
C922 C 0.19314 0.28906 0.73573 0.0
C923 C 0.20703 0.27997 0.75539 0.0
H924 H 0.18489 0.30646 0.68252 0.0
H925 H 0.31714 0.21013 0.84338 0.0
H926 H 0.03864 0.98333 0.8478 0.0
H927 H 0.01809 0.98225 0.9102 0.0
H928 H 0.03652 0.03168 0.96598 0.0
H929 H 0.0574 0.03269 0.90396 0.0
H930 H 0.03215 0.0101 0.03475 0.0
H931 H 0.99783 0.02743 0.90162 0.0
H932 H 0.98606 0.02512 0.82051 0.0
H933 H 0.96333 0.97604 0.84702 0.0
H934 H 0.97516 0.97795 0.92816 0.0
H935 H 0.96382 0.03075 0.18266 0.0
H936 H 0.98408 0.0304 0.11957 0.0
H937 H 0.96468 0.98052 0.07017 0.0
H938 H 0.94404 0.98091 0.13321 0.0
H939 H 0.96953 0.00129 0.99826 0.0
H940 H 0.00333 0.98431 0.13203 0.0
H941 H 0.015 0.98675 0.21321 0.0
H942 H 0.03871 0.03526 0.18547 0.0
H943 H 0.02698 0.03322 0.10426 0.0
C944 C 0.03836 0.99398 0.87335 0.0
C945 C 0.04964 0.00814 0.87074 0.0
C946 C 0.02651 0.99338 0.90895 0.0
C947 C 0.02552 0.007 0.94251 0.0
C948 C 0.03698 0.02102 0.94046 0.0
C949 C 0.0489 0.02161 0.90492 0.0
C950 C 0.0126 0.00658 0.97981 0.0
C951 C 0.01844 0.00841 0.02669 0.0
C952 C 0.99472 0.0039 0.96953 0.0
C953 C 0.98752 0.00276 0.92083 0.0
C954 C 0.99043 0.01609 0.89006 0.0
C955 C 0.98373 0.01486 0.84409 0.0
C956 C 0.97399 1.00042 0.82859 0.0
C957 C 0.97089 0.9872 0.85906 0.0
C958 C 0.97758 0.98836 0.90505 0.0
C959 C 0.9638 0.01968 0.1584 0.0
C960 C 0.95235 0.0058 0.16319 0.0
C961 C 0.97548 0.01947 0.12239 0.0
C962 C 0.97615 0.0053 0.09048 0.0
C963 C 0.96447 0.99156 0.09447 0.0
C964 C 0.9527 0.99179 0.13056 0.0
C965 C 0.98908 0.00493 0.05314 0.0
C966 C 0.98325 0.00294 0.00629 0.0
C967 C 0.00697 0.00747 0.06342 0.0
C968 C 0.01415 0.00868 0.11216 0.0
C969 C 0.01093 0.99556 0.14333 0.0
C970 C 0.01758 0.99686 0.18934 0.0
C971 C 0.02756 0.01117 0.20452 0.0
C972 C 0.03096 0.02419 0.17368 0.0
C973 C 0.02433 0.02296 0.12764 0.0
H974 H 0.03269 0.01215 0.24015 0.0
H975 H 0.96882 0.99949 0.79299 0.0
H976 H 0.72848 0.69532 0.86011 0.0
H977 H 0.72947 0.71682 0.79936 0.0
H978 H 0.77294 0.74169 0.87258 0.0
H979 H 0.77203 0.72048 0.93294 0.0
H980 H 0.74902 0.76506 0.84684 0.0
H981 H 0.77872 0.71724 0.77494 0.0
H982 H 0.78244 0.6871 0.74625 0.0
H983 H 0.73839 0.69193 0.65219 0.0
H984 H 0.73424 0.72205 0.68083 0.0
H985 H 0.77525 0.81954 0.66404 0.0
H986 H 0.77449 0.79826 0.72546 0.0
H987 H 0.73103 0.77293 0.65341 0.0
H988 H 0.73172 0.79388 0.59245 0.0
H989 H 0.7552 0.74983 0.67875 0.0
H990 H 0.72542 0.79761 0.75089 0.0
H991 H 0.72169 0.82774 0.77958 0.0
H992 H 0.7659 0.823 0.87315 0.0
H993 H 0.77005 0.79289 0.8445 0.0
C994 C 0.73831 0.70529 0.86297 0.0
C995 C 0.75017 0.70616 0.90134 0.0
C996 C 0.73888 0.71756 0.82828 0.0
C997 C 0.75131 0.73087 0.83142 0.0
C998 C 0.7632 0.73161 0.86949 0.0
C999 C 0.76269 0.71938 0.90389 0.0
C1000 C 0.75188 0.74425 0.79564 0.0
C1001 C 0.75057 0.76173 0.81014 0.0
C1002 C 0.75361 0.73994 0.74767 0.0
C1003 C 0.75605 0.72183 0.73041 0.0
C1004 C 0.76973 0.71183 0.74844 0.0
C1005 C 0.77193 0.69476 0.73213 0.0
C1006 C 0.76063 0.68759 0.69752 0.0
C1007 C 0.74711 0.69749 0.67907 0.0
C1008 C 0.74484 0.71456 0.6953 0.0
C1009 C 0.76546 0.80952 0.66161 0.0
C1010 C 0.75357 0.80842 0.62335 0.0
C1011 C 0.76502 0.79737 0.69668 0.0
C1012 C 0.75268 0.78398 0.69401 0.0
C1013 C 0.74071 0.78306 0.65613 0.0
C1014 C 0.7411 0.79515 0.62136 0.0
C1015 C 0.75231 0.77063 0.72993 0.0
C1016 C 0.75365 0.75316 0.71545 0.0
C1017 C 0.75062 0.77496 0.77791 0.0
C1018 C 0.74817 0.79306 0.79516 0.0
C1019 C 0.73445 0.80304 0.77727 0.0
C1020 C 0.73224 0.82011 0.79359 0.0
C1021 C 0.74359 0.8273 0.82806 0.0
C1022 C 0.75714 0.81742 0.84638 0.0
C1023 C 0.75942 0.80035 0.83013 0.0
H1024 H 0.74185 0.84051 0.84066 0.0
H1025 H 0.76236 0.67438 0.68492 0.0
H1026 H 0.76943 0.29747 0.43554 0.0
H1027 H 0.77114 0.27461 0.37592 0.0
H1028 H 0.73152 0.30002 0.29304 0.0
H1029 H 0.72716 0.32033 0.35844 0.0
H1030 H 0.72476 0.27172 0.27996 0.0
H1031 H 0.78931 0.2891 0.25533 0.0
H1032 H 0.81957 0.29371 0.28488 0.0
H1033 H 0.81584 0.24966 0.37009 0.0
H1034 H 0.78594 0.24445 0.33972 0.0
H1035 H 0.73399 0.2167 0.07673 0.0
H1036 H 0.73247 0.24037 0.13404 0.0
H1037 H 0.77224 0.21604 0.21892 0.0
H1038 H 0.77644 0.19488 0.15545 0.0
H1039 H 0.77899 0.24442 0.2295 0.0
H1040 H 0.71378 0.22777 0.25539 0.0
H1041 H 0.68361 0.22339 0.22481 0.0
H1042 H 0.68867 0.26643 0.13658 0.0
H1043 H 0.71851 0.27136 0.16776 0.0
C1044 C 0.7612 0.2981 0.40423 0.0
C1045 C 0.74862 0.311 0.40044 0.0
C1046 C 0.76251 0.28519 0.36916 0.0
C1047 C 0.75209 0.28559 0.32788 0.0
C1048 C 0.7398 0.299 0.32408 0.0
C1049 C 0.73752 0.311 0.36095 0.0
C1050 C 0.75254 0.27139 0.29072 0.0
C1051 C 0.73678 0.26602 0.26876 0.0
C1052 C 0.76786 0.263 0.27639 0.0
C1053 C 0.78524 0.26693 0.29699 0.0
C1054 C 0.79487 0.28073 0.28125 0.0
C1055 C 0.81197 0.28332 0.29771 0.0
C1056 C 0.81943 0.27229 0.33018 0.0
C1057 C 0.80998 0.25836 0.34545 0.0
C1058 C 0.79304 0.2555 0.32835 0.0
C1059 C 0.74231 0.21651 0.10797 0.0
C1060 C 0.75488 0.20365 0.11287 0.0
C1061 C 0.74111 0.22989 0.14176 0.0
C1062 C 0.75162 0.23004 0.18295 0.0
C1063 C 0.76391 0.21668 0.18787 0.0
C1064 C 0.76609 0.20419 0.15215 0.0
C1065 C 0.75119 0.24462 0.21907 0.0
C1066 C 0.76697 0.2501 0.24076 0.0
C1067 C 0.73588 0.25312 0.2331 0.0
C1068 C 0.71853 0.24934 0.21215 0.0
C1069 C 0.70853 0.23594 0.22857 0.0
C1070 C 0.69148 0.2335 0.21156 0.0
C1071 C 0.68442 0.24432 0.17797 0.0
C1072 C 0.69423 0.25789 0.16208 0.0
C1073 C 0.71113 0.26059 0.17966 0.0
H1074 H 0.67125 0.24234 0.16478 0.0
H1075 H 0.83263 0.27438 0.34296 0.0
H1076 H 0.77469 0.19429 0.86344 0.0
H1077 H 0.77446 0.21537 0.80179 0.0
H1078 H 0.7292 0.23939 0.85865 0.0
H1079 H 0.72923 0.21829 0.91986 0.0
H1080 H 0.72621 0.23707 0.76541 0.0
H1081 H 0.76952 0.25696 0.87936 0.0
H1082 H 0.79575 0.25461 0.93017 0.0
H1083 H 0.82619 0.24464 0.80995 0.0
H1084 H 0.80007 0.2467 0.75843 0.0
H1085 H 0.72918 0.31672 0.65105 0.0
H1086 H 0.72968 0.29509 0.7112 0.0
H1087 H 0.77477 0.27168 0.65169 0.0
H1088 H 0.77446 0.29336 0.59183 0.0
H1089 H 0.77803 0.27338 0.74534 0.0
H1090 H 0.73473 0.25386 0.6313 0.0
H1091 H 0.70848 0.25629 0.58059 0.0
H1092 H 0.67801 0.2656 0.70105 0.0
H1093 H 0.70414 0.26346 0.75249 0.0
C1094 C 0.76461 0.20397 0.86258 0.0
C1095 C 0.75202 0.20463 0.8967 0.0
C1096 C 0.76455 0.21609 0.82746 0.0
C1097 C 0.75195 0.22916 0.82589 0.0
C1098 C 0.73908 0.22949 0.85912 0.0
C1099 C 0.73913 0.21741 0.89419 0.0
C1100 C 0.75229 0.24267 0.7902 0.0
C1101 C 0.73748 0.24514 0.76143 0.0
C1102 C 0.76709 0.25301 0.7842 0.0
C1103 C 0.78281 0.2518 0.81508 0.0
C1104 C 0.78178 0.25413 0.86378 0.0
C1105 C 0.79663 0.25287 0.89271 0.0
C1106 C 0.81262 0.24943 0.87331 0.0
C1107 C 0.81379 0.24728 0.82493 0.0
C1108 C 0.79897 0.2485 0.79585 0.0
C1109 C 0.73927 0.30705 0.65095 0.0
C1110 C 0.75174 0.30675 0.6165 0.0
C1111 C 0.73949 0.29461 0.68523 0.0
C1112 C 0.75212 0.28157 0.68565 0.0
C1113 C 0.76487 0.28156 0.65208 0.0
C1114 C 0.76465 0.29397 0.61779 0.0
C1115 C 0.75194 0.26781 0.72065 0.0
C1116 C 0.76677 0.26529 0.74928 0.0
C1117 C 0.73715 0.25743 0.72654 0.0
C1118 C 0.72142 0.25868 0.69571 0.0
C1119 C 0.72246 0.25656 0.64696 0.0
C1120 C 0.7076 0.25786 0.61809 0.0
C1121 C 0.6916 0.26114 0.63758 0.0
C1122 C 0.69042 0.26308 0.686 0.0
C1123 C 0.70525 0.26182 0.71503 0.0
H1124 H 0.6801 0.26214 0.61517 0.0
H1125 H 0.8241 0.24846 0.89576 0.0
H1126 H 0.72093 0.70161 0.13682 0.0
H1127 H 0.72312 0.72379 0.20049 0.0
H1128 H 0.77565 0.7345 0.16491 0.0
H1129 H 0.77335 0.71252 0.10123 0.0
H1130 H 0.74522 0.72604 0.27762 0.0
H1131 H 0.78307 0.77788 0.18297 0.0
H1132 H 0.78643 0.78786 0.10312 0.0
H1133 H 0.73565 0.76898 0.06315 0.0
H1134 H 0.73189 0.75912 0.14289 0.0
H1135 H 0.78347 0.81227 0.3879 0.0
H1136 H 0.78193 0.78978 0.32495 0.0
H1137 H 0.72965 0.77789 0.36046 0.0
H1138 H 0.73133 0.80012 0.42349 0.0
H1139 H 0.76033 0.78681 0.24794 0.0
H1140 H 0.72264 0.73468 0.34251 0.0
H1141 H 0.71931 0.72472 0.42238 0.0
H1142 H 0.76985 0.74418 0.46267 0.0
H1143 H 0.77358 0.75403 0.3829 0.0
C1144 C 0.73292 0.70869 0.14303 0.0
C1145 C 0.74717 0.70512 0.11555 0.0
C1146 C 0.73418 0.72128 0.1792 0.0
C1147 C 0.74953 0.73078 0.18728 0.0
C1148 C 0.76365 0.7274 0.15906 0.0
C1149 C 0.76241 0.71476 0.12316 0.0
C1150 C 0.75083 0.74422 0.22526 0.0
C1151 C 0.7483 0.73937 0.27112 0.0
C1152 C 0.75527 0.76151 0.21673 0.0
C1153 C 0.7573 0.76758 0.16878 0.0
C1154 C 0.7726 0.77591 0.15718 0.0
C1155 C 0.77458 0.78154 0.11193 0.0
C1156 C 0.76129 0.77899 0.07803 0.0
C1157 C 0.74596 0.77087 0.08937 0.0
C1158 C 0.74392 0.76524 0.13458 0.0
C1159 C 0.77168 0.80484 0.38187 0.0
C1160 C 0.75731 0.80816 0.4091 0.0
C1161 C 0.77079 0.79206 0.34611 0.0
C1162 C 0.75569 0.78215 0.33819 0.0
C1163 C 0.74147 0.78528 0.36623 0.0
C1164 C 0.74235 0.79808 0.40174 0.0
C1165 C 0.75469 0.76865 0.30032 0.0
C1166 C 0.75728 0.77347 0.25447 0.0
C1167 C 0.75031 0.75133 0.30887 0.0
C1168 C 0.7483 0.74526 0.35683 0.0
C1169 C 0.73306 0.73678 0.36837 0.0
C1170 C 0.7311 0.73116 0.41363 0.0
C1171 C 0.74433 0.73387 0.44762 0.0
C1172 C 0.75958 0.74215 0.43637 0.0
C1173 C 0.76161 0.74778 0.39115 0.0
H1174 H 0.74278 0.72952 0.48265 0.0
H1175 H 0.76285 0.78335 0.04302 0.0
H1176 H 0.54943 0.48219 0.14976 0.0
H1177 H 0.52871 0.48141 0.0836 0.0
H1178 H 0.5314 0.53711 0.08024 0.0
H1179 H 0.55431 0.53731 0.14079 0.0
H1180 H 0.49947 0.49063 0.07971 0.0
H1181 H 0.5127 0.55428 0.99694 0.0
H1182 H 0.53652 0.57307 0.9743 0.0
H1183 H 0.56865 0.52863 0.95204 0.0
H1184 H 0.54496 0.50955 0.97537 0.0
H1185 H 0.44869 0.53394 0.86752 0.0
H1186 H 0.46864 0.53515 0.93542 0.0
H1187 H 0.46712 0.4794 0.9386 0.0
H1188 H 0.44507 0.47868 0.87575 0.0
H1189 H 0.49815 0.52626 0.9399 0.0
H1190 H 0.48498 0.46262 0.0234 0.0
H1191 H 0.46103 0.44381 0.04508 0.0
H1192 H 0.42866 0.48822 0.06523 0.0
H1193 H 0.45248 0.5073 0.04283 0.0
C1194 C 0.54651 0.49405 0.13237 0.0
C1195 C 0.55435 0.50961 0.14804 0.0
C1196 C 0.53424 0.49374 0.09538 0.0
C1197 C 0.52856 0.50918 0.07545 0.0
C1198 C 0.53603 0.52486 0.09254 0.0
C1199 C 0.54898 0.52503 0.12786 0.0
C1200 C 0.51365 0.50889 0.04071 0.0
C1201 C 0.49941 0.49824 0.04872 0.0
C1202 C 0.51289 0.5193 1.00107 0.0
C1203 C 0.5273 0.53057 0.98866 0.0
C1204 C 0.52492 0.54855 0.98757 0.0
C1205 C 0.53837 0.55923 0.97476 0.0
C1206 C 0.55416 0.55203 0.96228 0.0
C1207 C 0.5565 0.53414 0.96252 0.0
C1208 C 0.54314 0.52341 0.97581 0.0
C1209 C 0.45171 0.52213 0.88506 0.0
C1210 C 0.44452 0.50638 0.86846 0.0
C1211 C 0.46351 0.52271 0.92315 0.0
C1212 C 0.46932 0.50738 0.94346 0.0
C1213 C 0.46238 0.49154 0.92583 0.0
C1214 C 0.44993 0.49108 0.88922 0.0
C1215 C 0.48402 0.50795 0.9788 0.0
C1216 C 0.49821 0.51866 0.97091 0.0
C1217 C 0.48474 0.49759 0.01851 0.0
C1218 C 0.47029 0.48631 0.0307 0.0
C1219 C 0.4727 0.46834 0.03215 0.0
C1220 C 0.45917 0.45765 0.04439 0.0
C1221 C 0.44327 0.46484 0.05598 0.0
C1222 C 0.4409 0.48271 0.05545 0.0
C1223 C 0.45434 0.49344 0.04268 0.0
H1224 H 0.43282 0.45656 0.06568 0.0
H1225 H 0.56453 0.56029 0.95209 0.0
H1226 H 0.0621 0.48056 0.41074 0.0
H1227 H 0.041 0.48154 0.47229 0.0
H1228 H 0.0178 0.52685 0.4135 0.0
H1229 H 0.03904 0.52613 0.35251 0.0
H1230 H 0.01992 0.53061 0.5057 0.0
H1231 H 0.9994 0.48616 0.39604 0.0
H1232 H 0.00142 0.45937 0.34724 0.0
H1233 H 0.01181 0.43033 0.46976 0.0
H1234 H 0.01008 0.457 0.51926 0.0
H1235 H 0.94174 0.52908 0.62826 0.0
H1236 H 0.96265 0.52825 0.56619 0.0
H1237 H 0.98612 0.48288 0.62392 0.0
H1238 H 0.96508 0.48345 0.68539 0.0
H1239 H 0.98372 0.47924 0.53184 0.0
H1240 H 0.00434 0.5238 0.64146 0.0
H1241 H 0.00229 0.55062 0.69008 0.0
H1242 H 0.99165 0.57951 0.56741 0.0
H1243 H 0.99341 0.5528 0.51809 0.0
C1244 C 0.05257 0.49078 0.41106 0.0
C1245 C 0.05224 0.50323 0.37656 0.0
C1246 C 0.04043 0.49128 0.44615 0.0
C1247 C 0.02758 0.50412 0.44724 0.0
C1248 C 0.02751 0.51678 0.41345 0.0
C1249 C 0.03968 0.51634 0.37849 0.0
C1250 C 0.01414 0.50431 0.48327 0.0
C1251 C 0.01186 0.51944 0.51097 0.0
C1252 C 0.0038 0.48966 0.49096 0.0
C1253 C 0.00478 0.4736 0.4613 0.0
C1254 C 0.00224 0.47408 0.41254 0.0
C1255 C 0.00331 0.45892 0.38476 0.0
C1256 C 0.00678 0.44316 0.40538 0.0
C1257 C 0.00914 0.44254 0.45383 0.0
C1258 C 0.00811 0.45767 0.48177 0.0
C1259 C 0.95129 0.51887 0.62758 0.0
C1260 C 0.95176 0.50637 0.66192 0.0
C1261 C 0.96332 0.51846 0.5922 0.0
C1262 C 0.97619 0.50565 0.59066 0.0
C1263 C 0.97639 0.49292 0.6243 0.0
C1264 C 0.96434 0.49328 0.65954 0.0
C1265 C 0.98952 0.50552 0.55434 0.0
C1266 C 0.99178 0.49042 0.52657 0.0
C1267 C 0.99983 0.5202 0.54657 0.0
C1268 C 0.99883 0.53627 0.57614 0.0
C1269 C 0.00143 0.53585 0.62489 0.0
C1270 C 1.00035 0.55104 0.65257 0.0
C1271 C 0.9968 0.56675 0.63186 0.0
C1272 C 0.99437 0.56732 0.58341 0.0
C1273 C 0.99543 0.55217 0.55558 0.0
H1274 H 0.99597 0.5785 0.65335 0.0
H1275 H 0.0076 0.43144 0.38382 0.0
H1276 H 0.06218 0.47743 0.12671 0.0
H1277 H 0.04171 0.48076 0.0608 0.0
H1278 H 0.02702 0.53069 0.11897 0.0
H1279 H 0.04938 0.52835 0.18024 0.0
H1280 H 0.01111 0.47976 0.06636 0.0
H1281 H 0.0053 0.54843 0.0787 0.0
H1282 H 0.0168 0.57791 0.07162 0.0
H1283 H 0.04749 0.56011 0.9579 0.0
H1284 H 0.03694 0.53032 0.96639 0.0
H1285 H 0.94297 0.53186 0.91212 0.0
H1286 H 0.9636 0.52851 0.97763 0.0
H1287 H 0.97806 0.47855 0.91918 0.0
H1288 H 0.95552 0.4809 0.8584 0.0
H1289 H 0.99417 0.52944 0.97168 0.0
H1290 H 0.99992 0.46084 0.95902 0.0
H1291 H 0.98838 0.43136 0.96577 0.0
H1292 H 0.95785 0.44899 0.07998 0.0
H1293 H 0.96843 0.4788 0.07179 0.0
C1294 C 0.05502 0.48939 0.12397 0.0
C1295 C 0.05751 0.50277 0.15766 0.0
C1296 C 0.04323 0.49132 0.08649 0.0
C1297 C 0.03269 0.50614 0.08382 0.0
C1298 C 0.03534 0.51954 0.11785 0.0
C1299 C 0.04792 0.51803 0.15377 0.0
C1300 C 0.01741 0.50597 0.05025 0.0
C1301 C 0.00762 0.49067 0.04529 0.0
C1302 C 0.0121 0.5202 0.0236 0.0
C1303 C 0.02107 0.53703 0.02488 0.0
C1304 C 0.01507 0.55071 0.05353 0.0
C1305 C 0.02134 0.56747 0.04911 0.0
C1306 C 0.03304 0.57085 0.01469 0.0
C1307 C 0.03861 0.55743 0.98499 0.0
C1308 C 0.03278 0.54053 0.99026 0.0
C1309 C 0.95012 0.51989 0.91473 0.0
C1310 C 0.9475 0.5065 0.88113 0.0
C1311 C 0.962 0.51794 0.95197 0.0
C1312 C 0.97252 0.50311 0.95446 0.0
C1313 C 0.96977 0.4897 0.92048 0.0
C1314 C 0.95708 0.49122 0.88483 0.0
C1315 C 0.98786 0.50324 0.98784 0.0
C1316 C 0.99766 0.51854 0.99275 0.0
C1317 C 0.99319 0.48901 0.01444 0.0
C1318 C 0.98422 0.47217 0.0131 0.0
C1319 C 0.99018 0.45853 0.98424 0.0
C1320 C 0.98388 0.44177 0.98846 0.0
C1321 C 0.97221 0.43835 0.0229 0.0
C1322 C 0.9667 0.45172 0.05285 0.0
C1323 C 0.97255 0.46862 0.04777 0.0
H1324 H 0.96753 0.42532 0.02664 0.0
H1325 H 0.03769 0.58387 0.01079 0.0
H1326 H 0.46179 0.53193 0.67239 0.0
H1327 H 0.48333 0.53224 0.61247 0.0
H1328 H 0.46475 0.48291 0.5565 0.0
H1329 H 0.44308 0.48245 0.61688 0.0
H1330 H 0.50034 0.48409 0.56537 0.0
H1331 H 0.45508 0.51906 0.50001 0.0
H1332 H 0.43381 0.54275 0.49955 0.0
H1333 H 0.47474 0.57994 0.52183 0.0
H1334 H 0.49625 0.55644 0.52309 0.0
H1335 H 0.54056 0.48393 0.34762 0.0
H1336 H 0.52024 0.48385 0.41055 0.0
H1337 H 0.53978 0.53332 0.46285 0.0
H1338 H 0.56026 0.53352 0.39941 0.0
H1339 H 0.50431 0.53239 0.45735 0.0
H1340 H 0.54969 0.49779 0.52071 0.0
H1341 H 0.57119 0.47431 0.52068 0.0
H1342 H 0.5305 0.43667 0.50272 0.0
H1343 H 0.50875 0.45995 0.50188 0.0
C1344 C 0.46218 0.52117 0.64721 0.0
C1345 C 0.45066 0.50718 0.64934 0.0
C1346 C 0.4745 0.52139 0.61286 0.0
C1347 C 0.4756 0.50766 0.57973 0.0
C1348 C 0.46413 0.49365 0.5817 0.0
C1349 C 0.4517 0.49345 0.61604 0.0
C1350 C 0.48888 0.50794 0.54351 0.0
C1351 C 0.50106 0.49452 0.5413 0.0
C1352 C 0.49016 0.52182 0.51302 0.0
C1353 C 0.47726 0.53598 0.5121 0.0
C1354 C 0.45954 0.53228 0.5052 0.0
C1355 C 0.44744 0.54568 0.50472 0.0
C1356 C 0.45292 0.56284 0.51078 0.0
C1357 C 0.47051 0.56664 0.5172 0.0
C1358 C 0.48266 0.55329 0.51776 0.0
C1359 C 0.54066 0.49477 0.37264 0.0
C1360 C 0.55205 0.50874 0.36852 0.0
C1361 C 0.52905 0.49466 0.40875 0.0
C1362 C 0.52855 0.50851 0.44168 0.0
C1363 C 0.53996 0.52248 0.43786 0.0
C1364 C 0.5517 0.52255 0.40176 0.0
C1365 C 0.51572 0.50851 0.47906 0.0
C1366 C 0.50363 0.52198 0.48149 0.0
C1367 C 0.51456 0.49471 0.50982 0.0
C1368 C 0.52759 0.48064 0.51081 0.0
C1369 C 0.54532 0.48451 0.51639 0.0
C1370 C 0.55756 0.47124 0.51659 0.0
C1371 C 0.55222 0.45401 0.51159 0.0
C1372 C 0.53462 0.45002 0.50654 0.0
C1373 C 0.52233 0.46325 0.50624 0.0
H1374 H 0.56171 0.44375 0.51172 0.0
H1375 H 0.44353 0.57319 0.51039 0.0
H1376 H 0.11899 0.45533 0.27477 0.0
H1377 H 0.13875 0.43107 0.25865 0.0
H1378 H 0.14731 0.45042 0.12238 0.0
H1379 H 0.12811 0.47447 0.13803 0.0
H1380 H 0.14083 0.41489 0.12089 0.0
H1381 H 0.17582 0.45881 0.20818 0.0
H1382 H 0.18317 0.47725 0.27814 0.0
H1383 H 0.18853 0.43224 0.36043 0.0
H1384 H 0.18097 0.41355 0.29097 0.0
H1385 H 0.2158 0.39565 0.01498 0.0
H1386 H 0.195 0.41125 0.06198 0.0
H1387 H 0.20281 0.37528 0.17193 0.0
H1388 H 0.22401 0.35944 0.12474 0.0
H1389 H 0.19834 0.4119 0.20276 0.0
H1390 H 0.16979 0.36787 0.10815 0.0
H1391 H 0.16422 0.35048 0.03533 0.0
H1392 H 0.14683 0.39579 0.96584 0.0
H1393 H 0.15265 0.41354 0.03793 0.0
C1394 C 0.12502 0.45431 0.24131 0.0
C1395 C 0.12193 0.46688 0.20774 0.0
C1396 C 0.13631 0.44049 0.23222 0.0
C1397 C 0.14445 0.43896 0.18926 0.0
C1398 C 0.14109 0.45129 0.15563 0.0
C1399 C 0.1301 0.46511 0.16481 0.0
C1400 C 0.1569 0.42495 0.17854 0.0
C1401 C 0.15333 0.41409 0.13909 0.0
C1402 C 0.17303 0.42359 0.20304 0.0
C1403 C 0.1776 0.43482 0.24461 0.0
C1404 C 0.1784 0.45287 0.24129 0.0
C1405 C 0.18264 0.46336 0.28082 0.0
C1406 C 0.18625 0.45593 0.32375 0.0
C1407 C 0.18568 0.43798 0.32719 0.0
C1408 C 0.18143 0.42744 0.28777 0.0
C1409 C 0.21332 0.39112 0.0494 0.0
C1410 C 0.22137 0.37615 0.06585 0.0
C1411 C 0.20144 0.40009 0.07625 0.0
C1412 C 0.19714 0.39422 0.12 0.0
C1413 C 0.20592 0.37994 0.13811 0.0
C1414 C 0.21801 0.37094 0.11115 0.0
C1415 C 0.18246 0.40242 0.14401 0.0
C1416 C 0.1856 0.41218 0.1857 0.0
C1417 C 0.16587 0.40278 0.1216 0.0
C1418 C 0.1617 0.39205 0.07853 0.0
C1419 C 0.16483 0.37415 0.07731 0.0
C1420 C 0.16165 0.36422 0.03613 0.0
C1421 C 0.15518 0.37203 0.99599 0.0
C1422 C 0.15183 0.38976 0.99698 0.0
C1423 C 0.15505 0.39976 0.03803 0.0
H1424 H 0.15275 0.36433 0.96411 0.0
H1425 H 0.18953 0.46407 0.35431 0.0
H1426 H 0.76757 0.89001 0.39208 0.0
H1427 H 0.78987 0.90963 0.36955 0.0
H1428 H 0.82394 0.89183 0.48002 0.0
H1429 H 0.80155 0.87157 0.50252 0.0
H1430 H 0.80458 0.93598 0.4112 0.0
H1431 H 0.86629 0.8954 0.4444 0.0
H1432 H 0.875 0.86477 0.44602 0.0
H1433 H 0.83253 0.8508 0.35145 0.0
H1434 H 0.82373 0.88135 0.34876 0.0
H1435 H 0.87586 0.99015 0.40646 0.0
H1436 H 0.8566 0.96742 0.42832 0.0
H1437 H 0.86614 0.93891 0.29982 0.0
H1438 H 0.88611 0.96169 0.27777 0.0
H1439 H 0.86388 0.91724 0.3733 0.0
H1440 H 0.82984 0.96247 0.30844 0.0
H1441 H 0.8202 0.99251 0.29866 0.0
H1442 H 0.80515 0.99577 0.44132 0.0
H1443 H 0.81493 0.96582 0.45215 0.0
C1444 C 0.77974 0.89019 0.41197 0.0
C1445 C 0.78268 0.87909 0.44929 0.0
C1446 C 0.79254 0.90152 0.39892 0.0
C1447 C 0.80869 0.90218 0.4227 0.0
C1448 C 0.81166 0.8914 0.46062 0.0
C1449 C 0.7988 0.87991 0.47372 0.0
C1450 C 0.8221 0.91441 0.40759 0.0
C1451 C 0.81755 0.93183 0.40313 0.0
C1452 C 0.83896 0.90903 0.39591 0.0
C1453 C 0.84425 0.89064 0.39684 0.0
C1454 C 0.85885 0.88579 0.42385 0.0
C1455 C 0.8638 0.86845 0.42496 0.0
C1456 C 0.85429 0.85584 0.39899 0.0
C1457 C 0.83985 0.86056 0.3717 0.0
C1458 C 0.83487 0.87789 0.37042 0.0
C1459 C 0.87404 0.97906 0.38263 0.0
C1460 C 0.88247 0.97793 0.33991 0.0
C1461 C 0.86294 0.96603 0.39534 0.0
C1462 C 0.85964 0.95157 0.36543 0.0
C1463 C 0.86844 0.94999 0.32342 0.0
C1464 C 0.87979 0.96306 0.31075 0.0
C1465 C 0.84633 0.93875 0.37758 0.0
C1466 C 0.85091 0.9213 0.38154 0.0
C1467 C 0.82929 0.94397 0.38768 0.0
C1468 C 0.82324 0.96194 0.3812 0.0
C1469 C 0.82457 0.96963 0.33781 0.0
C1470 C 0.81908 0.98663 0.33207 0.0
C1471 C 0.8121 0.99605 0.36937 0.0
C1472 C 0.81057 0.98846 0.41247 0.0
C1473 C 0.81607 0.97147 0.41842 0.0
H1474 H 0.80785 0.00922 0.36486 0.0
H1475 H 0.85813 0.84242 0.39993 0.0
H1476 H 0.30227 0.64998 0.54691 0.0
H1477 H 0.32395 0.62797 0.56533 0.0
H1478 H 0.28322 0.59113 0.58511 0.0
H1479 H 0.26165 0.61332 0.56911 0.0
H1480 H 0.30356 0.59017 0.65429 0.0
H1481 H 0.31244 0.58809 0.49123 0.0
H1482 H 0.31784 0.59932 0.41378 0.0
H1483 H 0.3671 0.61913 0.46473 0.0
H1484 H 0.36189 0.60823 0.5427 0.0
H1485 H 0.38097 0.52632 0.64757 0.0
H1486 H 0.3599 0.54364 0.60321 0.0
H1487 H 0.35862 0.58092 0.71863 0.0
H1488 H 0.37917 0.56376 0.76306 0.0
H1489 H 0.35787 0.57727 0.57334 0.0
H1490 H 0.31815 0.59217 0.73812 0.0
H1491 H 0.31161 0.57846 0.8117 0.0
H1492 H 0.32103 0.52839 0.74831 0.0
H1493 H 0.32736 0.54177 0.67417 0.0
C1494 C 0.29801 0.63709 0.55442 0.0
C1495 C 0.28032 0.63337 0.557 0.0
C1496 C 0.3104 0.62447 0.56471 0.0
C1497 C 0.30528 0.60779 0.57651 0.0
C1498 C 0.28755 0.60389 0.57653 0.0
C1499 C 0.27522 0.61658 0.56733 0.0
C1500 C 0.31819 0.59497 0.59352 0.0
C1501 C 0.31534 0.5873 0.63618 0.0
C1502 C 0.3335 0.59088 0.56979 0.0
C1503 C 0.33671 0.59745 0.52294 0.0
C1504 C 0.32437 0.59495 0.48603 0.0
C1505 C 0.32741 0.60124 0.44201 0.0
C1506 C 0.34279 0.60996 0.43437 0.0
C1507 C 0.35518 0.61238 0.47071 0.0
C1508 C 0.35221 0.60613 0.51481 0.0
C1509 C 0.37629 0.53829 0.66322 0.0
C1510 C 0.38152 0.54348 0.70918 0.0
C1511 C 0.36431 0.54819 0.63781 0.0
C1512 C 0.35745 0.56339 0.658 0.0
C1513 C 0.36346 0.56905 0.70272 0.0
C1514 C 0.37522 0.55917 0.72813 0.0
C1515 C 0.34326 0.57299 0.63426 0.0
C1516 C 0.34593 0.58005 0.59074 0.0
C1517 C 0.32749 0.57619 0.65642 0.0
C1518 C 0.32336 0.568 0.70068 0.0
C1519 C 0.31873 0.57823 0.7398 0.0
C1520 C 0.31507 0.57051 0.78162 0.0
C1521 C 0.31594 0.55257 0.78471 0.0
C1522 C 0.32041 0.54229 0.74592 0.0
C1523 C 0.32404 0.54994 0.704 0.0
H1524 H 0.31313 0.54662 0.81714 0.0
H1525 H 0.34512 0.61482 0.40026 0.0
H1526 H 0.73155 0.13321 0.9086 0.0
H1527 H 0.71267 0.11122 0.86937 0.0
H1528 H 0.67677 0.11692 0.98044 0.0
H1529 H 0.69553 0.13845 0.01992 0.0
H1530 H 0.68335 0.08388 0.96291 0.0
H1531 H 0.66835 0.13323 0.87172 0.0
H1532 H 0.67432 0.15767 0.82196 0.0
H1533 H 0.69553 0.12278 0.7192 0.0
H1534 H 0.68989 0.09815 0.76866 0.0
H1535 H 0.60918 0.04016 0.85928 0.0
H1536 H 0.63019 0.06026 0.8977 0.0
H1537 H 0.66357 0.05338 0.78122 0.0
H1538 H 0.64255 0.03377 0.74241 0.0
H1539 H 0.65951 0.08625 0.80041 0.0
H1540 H 0.67351 0.03669 0.8899 0.0
H1541 H 0.66761 0.01221 0.93954 0.0
H1542 H 0.64851 0.0472 0.04529 0.0
H1543 H 0.65409 0.07188 0.99601 0.0
C1544 C 0.71951 0.12992 0.92421 0.0
C1545 C 0.7151 0.13748 0.96746 0.0
C1546 C 0.70875 0.11736 0.90185 0.0
C1547 C 0.69332 0.11241 0.92211 0.0
C1548 C 0.68868 0.1204 0.96442 0.0
C1549 C 0.69942 0.13277 0.98686 0.0
C1550 C 0.68215 0.09853 0.90044 0.0
C1551 C 0.67799 0.08447 0.9275 0.0
C1552 C 0.67553 0.09909 0.85392 0.0
C1553 C 0.67887 0.11388 0.82411 0.0
C1554 C 0.67441 0.13079 0.83868 0.0
C1555 C 0.67771 0.14467 0.8105 0.0
C1556 C 0.68535 0.14178 0.76751 0.0
C1557 C 0.68965 0.125 0.75254 0.0
C1558 C 0.68639 0.11108 0.78062 0.0
C1559 C 0.62115 0.04272 0.84239 0.0
C1560 C 0.62418 0.03551 0.79778 0.0
C1561 C 0.63315 0.05419 0.86431 0.0
C1562 C 0.64847 0.05834 0.84228 0.0
C1563 C 0.6518 0.0505 0.79869 0.0
C1564 C 0.63978 0.03926 0.77663 0.0
C1565 C 0.66059 0.07161 0.86298 0.0
C1566 C 0.66493 0.08558 0.83574 0.0
C1567 C 0.66739 0.07094 0.90932 0.0
C1568 C 0.66407 0.05612 0.93907 0.0
C1569 C 0.66793 0.03915 0.92359 0.0
C1570 C 0.66466 0.02524 0.95169 0.0
C1571 C 0.65765 0.02814 0.99549 0.0
C1572 C 0.65393 0.04497 0.01133 0.0
C1573 C 0.65715 0.05892 0.98335 0.0
H1574 H 0.65513 0.01735 0.01719 0.0
H1575 H 0.68789 0.15254 0.74574 0.0
H1576 H 0.10793 0.54124 0.3699 0.0
H1577 H 0.12795 0.56271 0.40719 0.0
H1578 H 0.1658 0.54976 0.30493 0.0
H1579 H 0.14591 0.52852 0.26757 0.0
H1580 H 0.18068 0.55692 0.39414 0.0
H1581 H 0.14138 0.58205 0.2822 0.0
H1582 H 0.11276 0.58816 0.24626 0.0
H1583 H 0.09711 0.6127 0.37471 0.0
H1584 H 0.12573 0.60666 0.41147 0.0
H1585 H 0.23027 0.63436 0.4123 0.0
H1586 H 0.21148 0.61182 0.37501 0.0
H1587 H 0.17223 0.62392 0.47398 0.0
H1588 H 0.19078 0.64625 0.51112 0.0
H1589 H 0.15853 0.61693 0.38507 0.0
H1590 H 0.1996 0.59243 0.49541 0.0
H1591 H 0.22898 0.58675 0.52739 0.0
H1592 H 0.24191 0.5609 0.39825 0.0
H1593 H 0.21268 0.5667 0.36521 0.0
C1594 C 0.12072 0.54265 0.35639 0.0
C1595 C 0.12538 0.53339 0.31579 0.0
C1596 C 0.13208 0.55494 0.37743 0.0
C1597 C 0.14824 0.55791 0.35834 0.0
C1598 C 0.15339 0.54766 0.3201 0.0
C1599 C 0.142 0.5356 0.29877 0.0
C1600 C 0.159 0.57288 0.37465 0.0
C1601 C 0.17591 0.57005 0.39195 0.0
C1602 C 0.15275 0.58997 0.37157 0.0
C1603 C 0.13559 0.59374 0.34969 0.0
C1604 C 0.13178 0.58864 0.30286 0.0
C1605 C 0.11557 0.5921 0.28233 0.0
C1606 C 0.10306 0.60072 0.30825 0.0
C1607 C 0.1068 0.60598 0.35471 0.0
C1608 C 0.12303 0.60258 0.37539 0.0
C1609 C 0.21746 0.63247 0.42521 0.0
C1610 C 0.21202 0.64192 0.46476 0.0
C1611 C 0.20682 0.61955 0.40419 0.0
C1612 C 0.1906 0.61608 0.42231 0.0
C1613 C 0.18471 0.62636 0.45964 0.0
C1614 C 0.19535 0.63908 0.48086 0.0
C1615 C 0.18017 0.601 0.40507 0.0
C1616 C 0.16332 0.60381 0.38745 0.0
C1617 C 0.18655 0.58392 0.40759 0.0
C1618 C 0.20402 0.58017 0.42768 0.0
C1619 C 0.20875 0.58565 0.47372 0.0
C1620 C 0.22537 0.58239 0.49205 0.0
C1621 C 0.23732 0.57351 0.46483 0.0
C1622 C 0.23265 0.56781 0.41927 0.0
C1623 C 0.21606 0.57107 0.40073 0.0
H1624 H 0.25018 0.57101 0.47907 0.0
H1625 H 0.0905 0.60337 0.29229 0.0
H1626 H 0.61989 0.97291 0.61887 0.0
H1627 H 0.63866 0.94856 0.60189 0.0
H1628 H 0.63928 0.93513 0.74645 0.0
H1629 H 0.61989 0.95959 0.76397 0.0
H1630 H 0.67354 0.93764 0.70039 0.0
H1631 H 0.61914 0.90882 0.68259 0.0
H1632 H 0.58863 0.90532 0.65609 0.0
H1633 H 0.60319 0.90656 0.51324 0.0
H1634 H 0.63376 0.91034 0.53887 0.0
H1635 H 0.72408 0.86567 0.61541 0.0
H1636 H 0.70295 0.88285 0.65843 0.0
H1637 H 0.68045 0.90006 0.52839 0.0
H1638 H 0.70115 0.88276 0.48526 0.0
H1639 H 0.65583 0.89136 0.58394 0.0
H1640 H 0.70826 0.92567 0.60019 0.0
H1641 H 0.73882 0.93119 0.62344 0.0
H1642 H 0.72815 0.92123 0.76584 0.0
H1643 H 0.69755 0.91544 0.74327 0.0
C1644 C 0.62381 0.96476 0.64722 0.0
C1645 C 0.6183 0.96821 0.69284 0.0
C1646 C 0.63456 0.95081 0.63734 0.0
C1647 C 0.64028 0.94003 0.67283 0.0
C1648 C 0.63493 0.94332 0.71858 0.0
C1649 C 0.62382 0.95722 0.72845 0.0
C1650 C 0.65222 0.92571 0.66106 0.0
C1651 C 0.66964 0.92719 0.67598 0.0
C1652 C 0.64713 0.91237 0.62841 0.0
C1653 C 0.62876 0.90994 0.61271 0.0
C1654 C 0.61583 0.90846 0.64553 0.0
C1655 C 0.59852 0.90641 0.63066 0.0
C1656 C 0.59397 0.90574 0.58302 0.0
C1657 C 0.60673 0.90708 0.55014 0.0
C1658 C 0.62406 0.90915 0.56482 0.0
C1659 C 0.71467 0.87315 0.59595 0.0
C1660 C 0.71439 0.87284 0.54677 0.0
C1661 C 0.7026 0.88299 0.62065 0.0
C1662 C 0.69014 0.89283 0.59669 0.0
C1663 C 0.68986 0.89251 0.5477 0.0
C1664 C 0.70181 0.88265 0.52304 0.0
C1665 C 0.67734 0.90359 0.622 0.0
C1666 C 0.65973 0.90147 0.60942 0.0
C1667 C 0.68231 0.91644 0.65642 0.0
C1668 C 0.70069 0.9199 0.66996 0.0
C1669 C 0.71247 0.92451 0.63639 0.0
C1670 C 0.72978 0.92772 0.64945 0.0
C1671 C 0.73544 0.9265 0.69606 0.0
C1672 C 0.72376 0.92213 0.72973 0.0
C1673 C 0.70643 0.91888 0.71683 0.0
H1674 H 0.74885 0.929 0.70611 0.0
H1675 H 0.58056 0.90416 0.57157 0.0
H1676 H 0.35969 0.49325 0.84848 0.0
H1677 H 0.34251 0.46966 0.87598 0.0
H1678 H 0.37686 0.43264 0.81233 0.0
H1679 H 0.39417 0.45642 0.78381 0.0
H1680 H 0.34323 0.42164 0.8037 0.0
H1681 H 0.38139 0.44067 0.92729 0.0
H1682 H 0.39708 0.46156 0.98019 0.0
H1683 H 0.34906 0.47935 0.03479 0.0
H1684 H 0.33305 0.45861 0.9819 0.0
H1685 H 0.30571 0.35795 0.95032 0.0
H1686 H 0.32877 0.3768 0.92394 0.0
H1687 H 0.29495 0.4208 0.93683 0.0
H1688 H 0.27178 0.40199 0.96141 0.0
H1689 H 0.33268 0.42463 0.9736 0.0
H1690 H 0.29537 0.40617 0.83863 0.0
H1691 H 0.28146 0.38356 0.78724 0.0
H1692 H 0.3312 0.36234 0.75671 0.0
H1693 H 0.34538 0.38468 0.80865 0.0
C1694 C 0.36354 0.48011 0.83973 0.0
C1695 C 0.37844 0.47675 0.81428 0.0
C1696 C 0.35372 0.46661 0.85572 0.0
C1697 C 0.35862 0.44936 0.84728 0.0
C1698 C 0.37291 0.44586 0.81959 0.0
C1699 C 0.38275 0.45945 0.80319 0.0
C1700 C 0.34908 0.43529 0.86929 0.0
C1701 C 0.34122 0.42211 0.84096 0.0
C1702 C 0.3465 0.43576 0.91802 0.0
C1703 C 0.35601 0.44816 0.95039 0.0
C1704 C 0.37416 0.44911 0.95039 0.0
C1705 C 0.38312 0.46092 0.9804 0.0
C1706 C 0.37407 0.47184 0.01073 0.0
C1707 C 0.35605 0.4709 0.01125 0.0
C1708 C 0.34703 0.45908 0.98134 0.0
C1709 C 0.30339 0.37171 0.94851 0.0
C1710 C 0.28705 0.37858 0.95812 0.0
C1711 C 0.31649 0.38241 0.93322 0.0
C1712 C 0.31351 0.40016 0.92842 0.0
C1713 C 0.2975 0.40715 0.94047 0.0
C1714 C 0.28431 0.39642 0.9545 0.0
C1715 C 0.32649 0.4114 0.90781 0.0
C1716 C 0.33498 0.42403 0.93649 0.0
C1717 C 0.32993 0.41017 0.85967 0.0
C1718 C 0.32141 0.39694 0.82795 0.0
C1719 C 0.30333 0.39658 0.82132 0.0
C1720 C 0.29539 0.38383 0.79204 0.0
C1721 C 0.30544 0.37148 0.76884 0.0
C1722 C 0.32343 0.37189 0.77478 0.0
C1723 C 0.33143 0.38459 0.80412 0.0
H1724 H 0.29928 0.36164 0.74614 0.0
H1725 H 0.38103 0.48099 0.0339 0.0
H1726 H 0.79881 0.13854 0.00397 0.0
H1727 H 0.82241 0.11828 0.02236 0.0
H1728 H 0.79744 0.10507 0.14804 0.0
H1729 H 0.7739 0.12466 0.12992 0.0
H1730 H 0.83402 0.11561 0.15822 0.0
H1731 H 0.79399 0.07781 0.06547 0.0
H1732 H 0.77756 0.06923 0.99295 0.0
H1733 H 0.82468 0.06622 0.91871 0.0
H1734 H 0.84137 0.07504 0.99075 0.0
H1735 H 0.86181 0.04391 0.26887 0.0
H1736 H 0.84368 0.06271 0.22188 0.0
H1737 H 0.87843 0.05677 0.10832 0.0
H1738 H 0.89673 0.03751 0.15537 0.0
H1739 H 0.84265 0.05838 0.07853 0.0
H1740 H 0.88331 0.09137 0.17215 0.0
H1741 H 0.90034 0.09927 0.2441 0.0
H1742 H 0.85376 0.11232 0.31403 0.0
H1743 H 0.83641 0.10424 0.24262 0.0
C1744 C 0.79832 0.13122 0.03534 0.0
C1745 C 0.78445 0.13334 0.06551 0.0
C1746 C 0.81178 0.11966 0.04572 0.0
C1747 C 0.81165 0.11028 0.08666 0.0
C1748 C 0.7978 0.11226 0.11639 0.0
C1749 C 0.78431 0.12349 0.10579 0.0
C1750 C 0.82601 0.09864 0.10023 0.0
C1751 C 0.83598 0.10314 0.14068 0.0
C1752 C 0.82893 0.08264 0.0764 0.0
C1753 C 0.81889 0.07732 0.03328 0.0
C1754 C 0.80082 0.07551 0.03357 0.0
C1755 C 0.79147 0.07055 0.99259 0.0
C1756 C 0.80006 0.06725 0.9512 0.0
C1757 C 0.81804 0.06883 0.95076 0.0
C1758 C 0.82745 0.0738 0.99164 0.0
C1759 C 0.86554 0.04636 0.23368 0.0
C1760 C 0.88086 0.03942 0.2161 0.0
C1761 C 0.85514 0.05712 0.20683 0.0
C1762 C 0.85991 0.06142 0.16201 0.0
C1763 C 0.87458 0.05366 0.14296 0.0
C1764 C 0.88501 0.04269 0.16986 0.0
C1765 C 0.85014 0.07511 0.13759 0.0
C1766 C 0.84107 0.07105 0.0953 0.0
C1767 C 0.84818 0.09168 0.15932 0.0
C1768 C 0.85855 0.09712 0.20203 0.0
C1769 C 0.87669 0.09587 0.20291 0.0
C1770 C 0.8864 0.10036 0.24363 0.0
C1771 C 0.87814 0.10626 0.28367 0.0
C1772 C 0.86014 0.10775 0.28298 0.0
C1773 C 0.85036 0.10324 0.24235 0.0
H1774 H 0.88569 0.10969 0.3152 0.0
H1775 H 0.7928 0.0634 0.91951 0.0
H1776 H 0.795 0.62411 0.03392 0.0
H1777 H 0.81591 0.60666 0.99203 0.0
H1778 H 0.8045 0.63445 0.86704 0.0
H1779 H 0.783 0.6518 0.9087 0.0
H1780 H 0.8089 0.60055 0.84621 0.0
H1781 H 0.84107 0.64378 0.93269 0.0
H1782 H 0.84959 0.66222 0.00172 0.0
H1783 H 0.86601 0.61743 0.07514 0.0
H1784 H 0.8573 0.59868 0.00688 0.0
H1785 H 0.88617 0.55465 0.76757 0.0
H1786 H 0.86716 0.57932 0.78572 0.0
H1787 H 0.85868 0.55925 0.92119 0.0
H1788 H 0.87708 0.53475 0.90349 0.0
H1789 H 0.86716 0.59511 0.92241 0.0
H1790 H 0.82932 0.55242 0.83925 0.0
H1791 H 0.82043 0.53426 0.76994 0.0
H1792 H 0.81566 0.57944 0.6881 0.0
H1793 H 0.82477 0.59784 0.75686 0.0
C1794 C 0.79686 0.62653 0.99748 0.0
C1795 C 0.78745 0.63949 0.97482 0.0
C1796 C 0.80889 0.61657 0.97357 0.0
C1797 C 0.81212 0.61954 0.92669 0.0
C1798 C 0.80233 0.63204 0.90331 0.0
C1799 C 0.79006 0.64193 0.92717 0.0
C1800 C 0.82595 0.60964 0.90308 0.0
C1801 C 0.82177 0.59967 0.86225 0.0
C1802 C 0.84281 0.60856 0.92374 0.0
C1803 C 0.84847 0.61981 0.96463 0.0
C1804 C 0.84643 0.63785 0.96361 0.0
C1805 C 0.85129 0.64836 0.00263 0.0
C1806 C 0.85833 0.641 0.04279 0.0
C1807 C 0.86056 0.62312 0.04399 0.0
C1808 C 0.85569 0.61254 0.0051 0.0
C1809 C 0.88029 0.55557 0.80125 0.0
C1810 C 0.88321 0.5427 0.83404 0.0
C1811 C 0.86943 0.56962 0.81149 0.0
C1812 C 0.86158 0.57109 0.85485 0.0
C1813 C 0.86469 0.55841 0.88764 0.0
C1814 C 0.87522 0.54435 0.87729 0.0
C1815 C 0.84982 0.58553 0.86699 0.0
C1816 C 0.85445 0.59639 0.90568 0.0
C1817 C 0.83349 0.58754 0.84409 0.0
C1818 C 0.82794 0.57647 0.80297 0.0
C1819 C 0.82653 0.55846 0.80636 0.0
C1820 C 0.82142 0.54813 0.76721 0.0
C1821 C 0.81754 0.55568 0.7246 0.0
C1822 C 0.81871 0.5736 0.7211 0.0
C1823 C 0.82384 0.58398 0.76013 0.0
H1824 H 0.81359 0.54766 0.69434 0.0
H1825 H 0.86206 0.64915 0.07299 0.0
H1826 H 0.19591 0.1562 0.56004 0.0
H1827 H 0.17254 0.13734 0.58451 0.0
H1828 H 0.20915 0.09597 0.60282 0.0
H1829 H 0.23243 0.11474 0.57949 0.0
H1830 H 0.17693 0.0857 0.55684 0.0
H1831 H 0.19957 0.1185 0.69398 0.0
H1832 H 0.20665 0.14568 0.73808 0.0
H1833 H 0.15335 0.16095 0.72868 0.0
H1834 H 0.146 0.13392 0.68386 0.0
H1835 H 0.14441 0.02433 0.69763 0.0
H1836 H 0.16221 0.04753 0.67006 0.0
H1837 H 0.12033 0.08353 0.68913 0.0
H1838 H 0.10254 0.06025 0.71857 0.0
H1839 H 0.151 0.09921 0.70972 0.0
H1840 H 0.12731 0.06549 0.58084 0.0
H1841 H 0.11965 0.03881 0.53523 0.0
H1842 H 0.1734 0.0261 0.52542 0.0
H1843 H 0.1814 0.05266 0.57142 0.0
C1844 C 0.19885 0.14298 0.56843 0.0
C1845 C 0.21597 0.13692 0.56786 0.0
C1846 C 0.18555 0.13227 0.58268 0.0
C1847 C 0.18916 0.11529 0.59572 0.0
C1848 C 0.20608 0.10902 0.5929 0.0
C1849 C 0.21937 0.11976 0.57962 0.0
C1850 C 0.17567 0.10414 0.61461 0.0
C1851 C 0.17127 0.08863 0.59027 0.0
C1852 C 0.16791 0.10821 0.65758 0.0
C1853 C 0.17227 0.1243 0.68511 0.0
C1854 C 0.18938 0.12772 0.70099 0.0
C1855 C 0.19345 0.14309 0.72616 0.0
C1856 C 0.18047 0.15507 0.73603 0.0
C1857 C 0.1634 0.15167 0.72092 0.0
C1858 C 0.15927 0.13632 0.69565 0.0
C1859 C 0.13908 0.03725 0.69677 0.0
C1860 C 0.12204 0.04046 0.70994 0.0
C1861 C 0.14923 0.0505 0.68069 0.0
C1862 C 0.14246 0.0672 0.67611 0.0
C1863 C 0.12579 0.07073 0.69193 0.0
C1864 C 0.11566 0.05745 0.7089 0.0
C1865 C 0.1526 0.08048 0.65251 0.0
C1866 C 0.15637 0.09638 0.67588 0.0
C1867 C 0.15966 0.07688 0.60825 0.0
C1868 C 0.15495 0.06103 0.57982 0.0
C1869 C 0.1375 0.05697 0.56914 0.0
C1870 C 0.13309 0.04186 0.54323 0.0
C1871 C 0.14602 0.03073 0.52756 0.0
C1872 C 0.16339 0.03473 0.5376 0.0
C1873 C 0.16788 0.04984 0.56351 0.0
H1874 H 0.14257 0.01902 0.50756 0.0
H1875 H 0.18365 0.16697 0.75551 0.0
H1876 H 0.69856 0.36506 0.4857 0.0
H1877 H 0.67511 0.38501 0.46461 0.0
H1878 H 0.71223 0.41976 0.4101 0.0
H1879 H 0.73552 0.3999 0.42997 0.0
H1880 H 0.66582 0.41976 0.47983 0.0
H1881 H 0.69956 0.43045 0.30652 0.0
H1882 H 0.7185 0.41445 0.25259 0.0
H1883 H 0.69833 0.36634 0.29716 0.0
H1884 H 0.67949 0.38202 0.35137 0.0
H1885 H 0.62327 0.48839 0.35717 0.0
H1886 H 0.64279 0.46921 0.40043 0.0
H1887 H 0.63199 0.42817 0.29733 0.0
H1888 H 0.61337 0.44739 0.25323 0.0
H1889 H 0.664 0.42998 0.30992 0.0
H1890 H 0.61719 0.42863 0.41315 0.0
H1891 H 0.59497 0.44069 0.46447 0.0
H1892 H 0.63453 0.46371 0.55563 0.0
H1893 H 0.65699 0.45201 0.50447 0.0
C1894 C 0.70173 0.37711 0.47002 0.0
C1895 C 0.71886 0.38076 0.45875 0.0
C1896 C 0.68833 0.38852 0.45816 0.0
C1897 C 0.6919 0.40375 0.43516 0.0
C1898 C 0.70914 0.40797 0.42719 0.0
C1899 C 0.72244 0.39655 0.43847 0.0
C1900 C 0.67775 0.41425 0.41429 0.0
C1901 C 0.66534 0.42205 0.44272 0.0
C1902 C 0.67684 0.41682 0.36573 0.0
C1903 C 0.68826 0.4074 0.33321 0.0
C1904 C 0.69922 0.41646 0.30475 0.0
C1905 C 0.70999 0.40744 0.27425 0.0
C1906 C 0.70974 0.38938 0.27163 0.0
C1907 C 0.69871 0.3803 0.29946 0.0
C1908 C 0.68802 0.38925 0.33019 0.0
C1909 C 0.62499 0.47522 0.3441 0.0
C1910 C 0.61694 0.46946 0.30155 0.0
C1911 C 0.63606 0.46422 0.36897 0.0
C1912 C 0.6389 0.44717 0.35225 0.0
C1913 C 0.63021 0.44128 0.31082 0.0
C1914 C 0.61952 0.4523 0.28559 0.0
C1915 C 0.65189 0.43578 0.37524 0.0
C1916 C 0.66427 0.42782 0.3471 0.0
C1917 C 0.65223 0.4326 0.42367 0.0
C1918 C 0.63877 0.43958 0.4547 0.0
C1919 C 0.62115 0.43637 0.44394 0.0
C1920 C 0.60851 0.44313 0.47304 0.0
C1921 C 0.61333 0.453 0.51321 0.0
C1922 C 0.63081 0.45609 0.52446 0.0
C1923 C 0.6435 0.44938 0.49544 0.0
H1924 H 0.60353 0.45822 0.53568 0.0
H1925 H 0.71805 0.38242 0.2479 0.0
H1926 H 0.36021 0.97996 0.27189 0.0
H1927 H 0.34108 0.959 0.23128 0.0
H1928 H 0.37371 0.95814 0.11255 0.0
H1929 H 0.3931 0.97944 0.15322 0.0
H1930 H 0.33784 0.95687 0.08876 0.0
H1931 H 0.379 0.92777 0.18659 0.0
H1932 H 0.39541 0.92308 0.26033 0.0
H1933 H 0.34822 0.91257 0.32814 0.0
H1934 H 0.33148 0.91754 0.25497 0.0
H1935 H 0.30756 0.87835 0.98835 0.0
H1936 H 0.32674 0.89984 0.02637 0.0
H1937 H 0.2959 0.90052 0.14861 0.0
H1938 H 0.27648 0.87867 0.11068 0.0
H1939 H 0.33129 0.90182 0.1699 0.0
H1940 H 0.29013 0.93139 0.07234 0.0
H1941 H 0.27368 0.93686 0.99911 0.0
H1942 H 0.32095 0.94663 0.93087 0.0
H1943 H 0.33771 0.94096 0.00355 0.0
C1944 C 0.36327 0.97549 0.23691 0.0
C1945 C 0.37832 0.98114 0.21598 0.0
C1946 C 0.35231 0.96351 0.2138 0.0
C1947 C 0.35621 0.95677 0.16945 0.0
C1948 C 0.37059 0.96315 0.147 0.0
C1949 C 0.38161 0.9753 0.17017 0.0
C1950 C 0.34576 0.94232 0.1483 0.0
C1951 C 0.3366 0.94473 0.10604 0.0
C1952 C 0.34391 0.92666 0.17161 0.0
C1953 C 0.35397 0.92317 0.21536 0.0
C1954 C 0.37211 0.92456 0.21729 0.0
C1955 C 0.38147 0.92185 0.25899 0.0
C1956 C 0.37287 0.91757 0.29893 0.0
C1957 C 0.35487 0.91591 0.29718 0.0
C1958 C 0.34544 0.91866 0.25559 0.0
C1959 C 0.30483 0.88294 0.02346 0.0
C1960 C 0.2903 0.87698 0.04626 0.0
C1961 C 0.31583 0.89526 0.04508 0.0
C1962 C 0.31251 0.90202 0.08981 0.0
C1963 C 0.29858 0.89551 0.11384 0.0
C1964 C 0.28752 0.88305 0.09219 0.0
C1965 C 0.3233 0.91636 0.11034 0.0
C1966 C 0.33254 0.91393 0.15253 0.0
C1967 C 0.32525 0.932 0.08692 0.0
C1968 C 0.31519 0.9356 0.04329 0.0
C1969 C 0.29703 0.93458 0.04163 0.0
C1970 C 0.28765 0.93774 1.00023 0.0
C1971 C 0.29627 0.94205 0.96033 0.0
C1972 C 0.31429 0.94327 0.96179 0.0
C1973 C 0.32374 0.9401 0.00309 0.0
H1974 H 0.28898 0.94449 0.92831 0.0
H1975 H 0.38014 0.91551 0.33121 0.0
H1976 H 0.80764 0.37473 0.49923 0.0
H1977 H 0.82662 0.39567 0.53992 0.0
H1978 H 0.79182 0.39941 0.65389 0.0
H1979 H 0.77236 0.3783 0.61264 0.0
H1980 H 0.80161 0.43136 0.62337 0.0
H1981 H 0.82973 0.37956 0.66945 0.0
H1982 H 0.84255 0.35063 0.65843 0.0
H1983 H 0.88047 0.37133 0.57026 0.0
H1984 H 0.86772 0.40036 0.58019 0.0
H1985 H 0.86016 0.47663 0.77945 0.0
H1986 H 0.83994 0.45683 0.7383 0.0
H1987 H 0.87372 0.45281 0.62209 0.0
H1988 H 0.89428 0.47277 0.6636 0.0
H1989 H 0.86418 0.42109 0.65461 0.0
H1990 H 0.83597 0.47306 0.60928 0.0
H1991 H 0.82333 0.502 0.62183 0.0
H1992 H 0.78564 0.48097 0.71009 0.0
H1993 H 0.79822 0.45192 0.69866 0.0
C1994 C 0.804 0.37982 0.53317 0.0
C1995 C 0.78842 0.37488 0.55266 0.0
C1996 C 0.81496 0.39177 0.55648 0.0
C1997 C 0.81068 0.39902 0.59999 0.0
C1998 C 0.79533 0.3939 0.62028 0.0
C1999 C 0.78431 0.38179 0.59691 0.0
C2000 C 0.82204 0.41249 0.62269 0.0
C2001 C 0.81522 0.42906 0.63104 0.0
C2002 C 0.83991 0.40957 0.63122 0.0
C2003 C 0.84767 0.39213 0.62527 0.0
C2004 C 0.84072 0.37793 0.6474 0.0
C2005 C 0.84799 0.36151 0.64141 0.0
C2006 C 0.8623 0.35914 0.61358 0.0
C2007 C 0.86938 0.37319 0.59178 0.0
C2008 C 0.86215 0.38963 0.59763 0.0
C2009 C 0.86321 0.47175 0.74482 0.0
C2010 C 0.87885 0.47614 0.72478 0.0
C2011 C 0.85158 0.4605 0.72127 0.0
C2012 C 0.85531 0.45341 0.67715 0.0
C2013 C 0.87063 0.45821 0.65616 0.0
C2014 C 0.88228 0.46966 0.67968 0.0
C2015 C 0.84377 0.43997 0.65508 0.0
C2016 C 0.85056 0.4234 0.64692 0.0
C2017 C 0.82589 0.44289 0.6469 0.0
C2018 C 0.81815 0.46032 0.65342 0.0
C2019 C 0.82507 0.47462 0.63166 0.0
C2020 C 0.8179 0.49104 0.63852 0.0
C2021 C 0.80372 0.49333 0.66684 0.0
C2022 C 0.79664 0.47918 0.6882 0.0
C2023 C 0.80377 0.46273 0.68149 0.0
H2024 H 0.7982 0.50606 0.67215 0.0
H2025 H 0.86791 0.34642 0.60898 0.0
H2026 H 0.28533 0.11978 0.50878 0.0
H2027 H 0.30636 0.10407 0.46271 0.0
H2028 H 0.30179 0.14189 0.35639 0.0
H2029 H 0.28029 0.15775 0.40251 0.0
H2030 H 0.30604 0.10607 0.32142 0.0
H2031 H 0.33395 0.14725 0.4264 0.0
H2032 H 0.33839 0.16307 0.50212 0.0
H2033 H 0.35246 0.11583 0.56732 0.0
H2034 H 0.34777 0.09966 0.49216 0.0
H2035 H 0.38526 0.06127 0.25492 0.0
H2036 H 0.36566 0.08566 0.27107 0.0
H2037 H 0.35494 0.06495 0.40447 0.0
H2038 H 0.37415 0.04093 0.38906 0.0
H2039 H 0.36158 0.09967 0.41125 0.0
H2040 H 0.32736 0.05863 0.31089 0.0
H2041 H 0.32116 0.04218 0.23678 0.0
H2042 H 0.31907 0.08942 0.16306 0.0
H2043 H 0.32547 0.10613 0.23673 0.0
C2044 C 0.28855 0.12466 0.47526 0.0
C2045 C 0.28134 0.14013 0.45956 0.0
C2046 C 0.30057 0.11565 0.44895 0.0
C2047 C 0.30588 0.12201 0.40663 0.0
C2048 C 0.2979 0.13683 0.3891 0.0
C2049 C 0.28564 0.14585 0.41543 0.0
C2050 C 0.32083 0.11377 0.38385 0.0
C2051 C 0.31836 0.10502 0.34036 0.0
C2052 C 0.33692 0.11247 0.40858 0.0
C2053 C 0.34047 0.12223 0.45357 0.0
C2054 C 0.33795 0.14022 0.4569 0.0
C2055 C 0.34049 0.14925 0.49975 0.0
C2056 C 0.34569 0.14046 0.53953 0.0
C2057 C 0.34844 0.12263 0.53647 0.0
C2058 C 0.34587 0.11352 0.49371 0.0
C2059 C 0.37877 0.06201 0.28775 0.0
C2060 C 0.38129 0.04908 0.32057 0.0
C2061 C 0.36756 0.07591 0.29684 0.0
C2062 C 0.35885 0.07711 0.339 0.0
C2063 C 0.36158 0.06436 0.37183 0.0
C2064 C 0.37257 0.05053 0.36274 0.0
C2065 C 0.34653 0.09126 0.34988 0.0
C2066 C 0.34952 0.10118 0.39136 0.0
C2067 C 0.33101 0.09365 0.32319 0.0
C2068 C 0.32711 0.08359 0.27912 0.0
C2069 C 0.32571 0.06549 0.2788 0.0
C2070 C 0.32214 0.05612 0.23691 0.0
C2071 C 0.31978 0.06474 0.19521 0.0
C2072 C 0.32094 0.08276 0.19536 0.0
C2073 C 0.32454 0.09218 0.23715 0.0
H2074 H 0.31701 0.05747 0.16281 0.0
H2075 H 0.3476 0.14747 0.5727 0.0
H2076 H 0.63804 0.51964 0.15006 0.0
H2077 H 0.65684 0.54249 0.12557 0.0
H2078 H 0.62962 0.57973 0.21092 0.0
H2079 H 0.61074 0.55672 0.23638 0.0
H2080 H 0.65011 0.57014 0.0773 0.0
H2081 H 0.65827 0.61236 0.24606 0.0
H2082 H 0.65761 0.60967 0.33148 0.0
H2083 H 0.67291 0.5565 0.31704 0.0
H2084 H 0.67386 0.55894 0.23166 0.0
H2085 H 0.6994 0.64666 0.02945 0.0
H2086 H 0.67655 0.62712 0.05314 0.0
H2087 H 0.71365 0.60086 0.14111 0.0
H2088 H 0.73626 0.62019 0.11833 0.0
H2089 H 0.6856 0.60746 0.18776 0.0
H2090 H 0.69845 0.58333 0.03476 0.0
H2091 H 0.7013 0.58398 0.94946 0.0
H2092 H 0.64769 0.59746 0.93246 0.0
H2093 H 0.64459 0.59709 0.01778 0.0
C2094 C 0.63606 0.53265 0.16409 0.0
C2095 C 0.62283 0.53628 0.19541 0.0
C2096 C 0.6468 0.54575 0.1497 0.0
C2097 C 0.64467 0.56287 0.16618 0.0
C2098 C 0.63163 0.56659 0.19795 0.0
C2099 C 0.62087 0.55341 0.2126 0.0
C2100 C 0.65623 0.57662 0.14982 0.0
C2101 C 0.65777 0.57839 0.10151 0.0
C2102 C 0.66631 0.58739 0.18119 0.0
C2103 C 0.66591 0.58579 0.23248 0.0
C2104 C 0.66152 0.60011 0.26117 0.0
C2105 C 0.66109 0.59863 0.30956 0.0
C2106 C 0.66514 0.58291 0.32965 0.0
C2107 C 0.6697 0.56865 0.30142 0.0
C2108 C 0.67016 0.57007 0.25302 0.0
C2109 C 0.7027 0.63659 0.0534 0.0
C2110 C 0.71969 0.63508 0.07202 0.0
C2111 C 0.68961 0.62545 0.06704 0.0
C2112 C 0.69334 0.61254 0.09918 0.0
C2113 C 0.71036 0.61081 0.11676 0.0
C2114 C 0.72334 0.62188 0.10341 0.0
C2115 C 0.67973 0.60075 0.11525 0.0
C2116 C 0.67774 0.59941 0.16352 0.0
C2117 C 0.66949 0.59015 0.08386 0.0
C2118 C 0.67135 0.59039 0.03264 0.0
C2119 C 0.68731 0.58657 0.01285 0.0
C2120 C 0.68897 0.58686 0.9645 0.0
C2121 C 0.6747 0.59082 0.93557 0.0
C2122 C 0.65874 0.59443 0.95492 0.0
C2123 C 0.65703 0.59418 0.00326 0.0
H2124 H 0.676 0.59103 0.89815 0.0
H2125 H 0.6648 0.58178 0.36711 0.0
H2126 H 0.20373 0.87321 0.01114 0.0
H2127 H 0.1809 0.89476 0.99912 0.0
H2128 H 0.20985 0.91675 0.89019 0.0
H2129 H 0.23259 0.89565 0.90211 0.0
H2130 H 0.19674 0.9417 0.94477 0.0
H2131 H 0.17627 0.88859 0.86592 0.0
H2132 H 0.16768 0.85788 0.86178 0.0
H2133 H 0.1285 0.86844 0.96105 0.0
H2134 H 0.13704 0.8992 0.96622 0.0
H2135 H 0.14214 0.97484 0.77037 0.0
H2136 H 0.16125 0.95741 0.81903 0.0
H2137 H 0.123 0.95676 0.92444 0.0
H2138 H 0.10375 0.9747 0.8759 0.0
H2139 H 0.13768 0.92273 0.8926 0.0
H2140 H 0.15533 0.97796 0.95593 0.0
H2141 H 0.16405 0.00852 0.95343 0.0
H2142 H 0.20885 0.99383 0.87759 0.0
H2143 H 0.20027 0.96319 0.87897 0.0
C2144 C 0.20527 0.88271 0.98485 0.0
C2145 C 0.22002 0.8826 0.95751 0.0
C2146 C 0.19219 0.89499 0.97796 0.0
C2147 C 0.19362 0.90734 0.94359 0.0
C2148 C 0.20847 0.90743 0.91706 0.0
C2149 C 0.22146 0.89523 0.92382 0.0
C2150 C 0.17959 0.9199 0.93345 0.0
C2151 C 0.18381 0.93755 0.93355 0.0
C2152 C 0.16256 0.91458 0.92 0.0
C2153 C 0.15745 0.89612 0.91697 0.0
C2154 C 0.16593 0.88432 0.88718 0.0
C2155 C 0.16105 0.86692 0.88459 0.0
C2156 C 0.14759 0.8612 0.91128 0.0
C2157 C 0.13895 0.87288 0.94051 0.0
C2158 C 0.14381 0.8903 0.94329 0.0
C2159 C 0.13782 0.97114 0.8041 0.0
C2160 C 0.12145 0.97611 0.81935 0.0
C2161 C 0.14878 0.96123 0.8319 0.0
C2162 C 0.14354 0.95584 0.87531 0.0
C2163 C 0.12726 0.96085 0.89105 0.0
C2164 C 0.11635 0.97114 0.86348 0.0
C2165 C 0.15507 0.94437 0.9025 0.0
C2166 C 0.15043 0.92694 0.90536 0.0
C2167 C 0.17179 0.94984 0.91814 0.0
C2168 C 0.17709 0.96826 0.91738 0.0
C2169 C 0.16697 0.98125 0.93841 0.0
C2170 C 0.1719 0.99859 0.93724 0.0
C2171 C 0.18698 0.00312 0.91532 0.0
C2172 C 0.19718 0.9903 0.89458 0.0
C2173 C 0.1923 0.97294 0.89561 0.0
H2174 H 0.19078 0.01655 0.91445 0.0
H2175 H 0.14382 0.84772 0.9092 0.0
loop_
_geom_bond_atom_site_label_1
_geom_bond_atom_site_label_2
_geom_bond_distance
_geom_bond_site_symmetry_2
_ccdc_geom_bond_type
Mn0 O5 2.095 . S
Mn0 O15 2.162 . S
Mn0 O16 2.297 . S
Mn0 O24 2.385 1_554 S
Mn0 O25 2.209 1_554 S
Mn0 O26 2.094 . S
Mn1 O6 2.121 . S
Mn1 N8 2.257 . S
Mn1 N17 2.282 . S
Mn1 O25 2.215 . S
Mn1 O27 2.117 . S
C2 O24 1.234 . S
C2 O25 1.283 . S
C3 O15 1.281 . S
C3 O16 1.236 . S
C4 O26 1.240 1_556 S
C4 O27 1.264 . S
O5 Mn0 2.095 . S
O5 C14 1.250 . S
O6 Mn1 2.121 . S
O6 C14 1.258 1_556 S
C7 N8 1.326 . S
C7 C11 1.460 . S
C7 H13 0.929 . S
N8 Mn1 2.257 . S
N8 C7 1.326 . S
N8 C12 1.362 . S
C9 C10 1.258 . S
C9 C12 1.431 . S
C9 C29 1.449 . S
C10 C9 1.258 . S
C10 C11 1.477 . S
C10 H30 0.931 . S
C11 C7 1.460 . S
C11 C10 1.477 . S
C11 H31 0.930 . S
C12 N8 1.362 . S
C12 C9 1.431 . S
C12 C22 1.476 . S
H13 C7 0.929 . S
C14 O5 1.250 . S
C14 O6 1.258 1_554 S
O15 Mn0 2.162 . S
O15 C3 1.281 . S
O16 Mn0 2.297 . S
O16 C3 1.236 . S
N17 Mn1 2.282 . S
N17 C18 1.328 . S
N17 C22 1.318 . S
C18 N17 1.328 . S
C18 C19 1.457 . S
C18 H23 0.929 . S
C19 C18 1.457 . S
C19 C20 1.291 . S
C19 H32 0.931 . S
C20 C19 1.291 . S
C20 C21 1.373 . S
C20 H33 0.929 . S
C21 C20 1.373 . S
C21 C22 1.396 . S
C21 C28 1.403 . S
C22 C12 1.476 . S
C22 N17 1.318 . S
C22 C21 1.396 . S
H23 C18 0.929 . S
O24 Mn0 2.385 1_556 S
O24 C2 1.234 . S
O25 Mn0 2.209 1_556 S
O25 Mn1 2.215 . S
O25 C2 1.283 . S
O26 Mn0 2.094 . S
O26 C4 1.240 1_554 S
O27 Mn1 2.117 . S
O27 C4 1.264 . S
C28 C21 1.403 . S
C28 C29 1.399 . S
C28 H34 0.929 . S
C29 C9 1.449 . S
C29 C28 1.399 . S
C29 H35 0.930 . S
H30 C10 0.931 . S
H31 C11 0.930 . S
H32 C19 0.931 . S
H33 C20 0.929 . S
H34 C28 0.929 . S
H35 C29 0.930 . S
Mn36 O41 2.110 . S
Mn36 O51 2.153 1_545 S
Mn36 O52 2.310 . S
Mn36 O60 2.379 1_545 S
Mn36 O61 2.221 . S
Mn36 O62 2.075 1_545 S
Mn37 O42 2.121 . S
Mn37 N44 2.257 . S
Mn37 N53 2.282 . S
Mn37 O61 2.215 . S
Mn37 O63 2.117 1_545 S
C38 O60 1.234 1_545 S
C38 O61 1.283 . S
C39 O51 1.281 1_545 S
C39 O52 1.236 . S
C40 O62 1.240 . S
C40 O63 1.264 . S
O41 Mn36 2.110 . S
O41 C50 1.250 . S
O42 Mn37 2.121 . S
O42 C50 1.258 . S
C43 N44 1.326 . S
C43 C47 1.460 . S
C43 H49 0.929 . S
N44 Mn37 2.257 . S
N44 C43 1.326 . S
N44 C48 1.362 . S
C45 C46 1.258 . S
C45 C48 1.431 . S
C45 C65 1.449 . S
C46 C45 1.258 . S
C46 C47 1.477 . S
C46 H66 0.931 . S
C47 C43 1.460 . S
C47 C46 1.477 . S
C47 H67 0.930 . S
C48 N44 1.362 . S
C48 C45 1.431 . S
C48 C58 1.476 . S
H49 C43 0.929 . S
C50 O41 1.250 . S
C50 O42 1.258 . S
O51 Mn36 2.153 1_565 S
O51 C39 1.281 1_565 S
O52 Mn36 2.310 . S
O52 C39 1.236 . S
N53 Mn37 2.282 . S
N53 C54 1.328 1_545 S
N53 C58 1.318 . S
C54 N53 1.328 1_565 S
C54 C55 1.457 . S
C54 H59 0.929 . S
C55 C54 1.457 . S
C55 C56 1.325 . S
C55 H68 0.931 . S
C56 C55 1.325 . S
C56 C57 1.323 1_565 S
C56 H69 0.946 . S
C57 C56 1.323 1_545 S
C57 C58 1.396 . S
C57 C64 1.403 . S
C58 C48 1.476 . S
C58 N53 1.318 . S
C58 C57 1.396 . S
H59 C54 0.929 . S
O60 Mn36 2.379 1_565 S
O60 C38 1.234 1_565 S
O61 Mn36 2.221 . S
O61 Mn37 2.215 . S
O61 C38 1.283 . S
O62 Mn36 2.075 1_565 S
O62 C40 1.240 . S
O63 Mn37 2.117 1_565 S
O63 C40 1.264 . S
C64 C57 1.403 . S
C64 C65 1.399 . S
C64 H70 0.929 . S
C65 C45 1.449 . S
C65 C64 1.399 . S
C65 H71 0.930 . S
H66 C46 0.931 . S
H67 C47 0.930 . S
H68 C55 0.931 . S
H69 C56 0.946 . S
H70 C64 0.929 . S
H71 C65 0.930 . S
Mn72 O77 2.095 . S
Mn72 O87 2.162 . S
Mn72 O88 2.297 . S
Mn72 O96 2.385 . S
Mn72 O97 2.209 . S
Mn72 O98 2.094 . S
Mn73 O78 2.121 . S
Mn73 N80 2.257 . S
Mn73 N89 2.282 . S
Mn73 O97 2.215 . S
Mn73 O99 2.117 . S
C74 O96 1.234 . S
C74 O97 1.283 . S
C75 O87 1.281 . S
C75 O88 1.236 . S
C76 O98 1.240 . S
C76 O99 1.264 . S
O77 Mn72 2.095 . S
O77 C86 1.250 . S
O78 Mn73 2.121 . S
O78 C86 1.258 . S
C79 N80 1.326 . S
C79 C83 1.460 . S
C79 H85 0.929 . S
N80 Mn73 2.257 . S
N80 C79 1.326 . S
N80 C84 1.362 . S
C81 C82 1.258 . S
C81 C84 1.431 . S
C81 C101 1.449 . S
C82 C81 1.258 . S
C82 C83 1.477 . S
C82 H102 0.931 . S
C83 C79 1.460 . S
C83 C82 1.477 . S
C83 H103 0.930 . S
C84 N80 1.362 . S
C84 C81 1.431 . S
C84 C94 1.476 . S
H85 C79 0.929 . S
C86 O77 1.250 . S
C86 O78 1.258 . S
O87 Mn72 2.162 . S
O87 C75 1.281 . S
O88 Mn72 2.297 . S
O88 C75 1.236 . S
N89 Mn73 2.282 . S
N89 C90 1.328 . S
N89 C94 1.318 . S
C90 N89 1.328 . S
C90 C91 1.457 . S
C90 H95 0.929 . S
C91 C90 1.457 . S
C91 C92 1.291 . S
C91 H104 0.931 . S
C92 C91 1.291 . S
C92 C93 1.373 . S
C92 H105 0.929 . S
C93 C92 1.373 . S
C93 C94 1.396 . S
C93 C100 1.403 . S
C94 C84 1.476 . S
C94 N89 1.318 . S
C94 C93 1.396 . S
H95 C90 0.929 . S
O96 Mn72 2.385 . S
O96 C74 1.234 . S
O97 Mn72 2.209 . S
O97 Mn73 2.215 . S
O97 C74 1.283 . S
O98 Mn72 2.094 . S
O98 C76 1.240 . S
O99 Mn73 2.117 . S
O99 C76 1.264 . S
C100 C93 1.403 . S
C100 C101 1.399 . S
C100 H106 0.929 . S
C101 C81 1.449 . S
C101 C100 1.399 . S
C101 H107 0.930 . S
H102 C82 0.931 . S
H103 C83 0.930 . S
H104 C91 0.931 . S
H105 C92 0.929 . S
H106 C100 0.929 . S
H107 C101 0.930 . S
Mn108 O113 2.115 . S
Mn108 O123 2.148 1_545 S
Mn108 O124 2.315 . S
Mn108 O132 2.377 1_545 S
Mn108 O133 2.228 . S
Mn108 O134 2.067 1_545 S
Mn109 O114 2.121 . S
Mn109 N116 2.257 . S
Mn109 N125 2.282 . S
Mn109 O133 2.215 . S
Mn109 O135 2.117 1_545 S
C110 O132 1.234 1_545 S
C110 O133 1.283 . S
C111 O123 1.281 1_545 S
C111 O124 1.236 . S
C112 O134 1.240 . S
C112 O135 1.264 . S
O113 Mn108 2.115 . S
O113 C122 1.250 . S
O114 Mn109 2.121 . S
O114 C122 1.258 . S
C115 N116 1.326 . S
C115 C119 1.460 . S
C115 H121 0.929 . S
N116 Mn109 2.257 . S
N116 C115 1.326 . S
N116 C120 1.362 . S
C117 C118 1.258 . S
C117 C120 1.431 . S
C117 C137 1.449 . S
C118 C117 1.258 . S
C118 C119 1.477 . S
C118 H138 0.931 . S
C119 C115 1.460 . S
C119 C118 1.477 . S
C119 H139 0.930 . S
C120 N116 1.362 . S
C120 C117 1.431 . S
C120 C130 1.476 . S
H121 C115 0.929 . S
C122 O113 1.250 . S
C122 O114 1.258 . S
O123 Mn108 2.148 1_565 S
O123 C111 1.281 1_565 S
O124 Mn108 2.315 . S
O124 C111 1.236 . S
N125 Mn109 2.282 . S
N125 C126 1.328 1_545 S
N125 C130 1.318 . S
C126 N125 1.328 1_565 S
C126 C127 1.457 . S
C126 H131 0.929 . S
C127 C126 1.457 . S
C127 C128 1.291 . S
C127 H140 0.931 . S
C128 C127 1.291 . S
C128 C129 1.373 1_565 S
C128 H141 0.929 . S
C129 C128 1.373 1_545 S
C129 C130 1.396 . S
C129 C136 1.403 . S
C130 C120 1.476 . S
C130 N125 1.318 . S
C130 C129 1.396 . S
H131 C126 0.929 . S
O132 Mn108 2.377 1_565 S
O132 C110 1.234 1_565 S
O133 Mn108 2.228 . S
O133 Mn109 2.215 . S
O133 C110 1.283 . S
O134 Mn108 2.067 1_565 S
O134 C112 1.240 . S
O135 Mn109 2.117 1_565 S
O135 C112 1.264 . S
C136 C129 1.403 . S
C136 C137 1.399 . S
C136 H142 0.929 . S
C137 C117 1.449 . S
C137 C136 1.399 . S
C137 H143 0.930 . S
H138 C118 0.931 . S
H139 C119 0.930 . S
H140 C127 0.931 . S
H141 C128 0.929 . S
H142 C136 0.929 . S
H143 C137 0.930 . S
Mn144 O149 2.095 1_554 S
Mn144 O159 2.162 1_554 S
Mn144 O160 2.297 1_554 S
Mn144 O168 2.385 . S
Mn144 O169 2.209 . S
Mn144 O170 2.094 . S
Mn145 O150 2.121 . S
Mn145 N152 2.257 . S
Mn145 N161 2.282 . S
Mn145 O169 2.215 . S
Mn145 O171 2.117 . S
C146 O168 1.234 . S
C146 O169 1.283 . S
C147 O159 1.281 . S
C147 O160 1.236 . S
C148 O170 1.240 . S
C148 O171 1.264 . S
O149 Mn144 2.095 1_556 S
O149 C158 1.250 . S
O150 Mn145 2.121 . S
O150 C158 1.258 1_554 S
C151 N152 1.326 . S
C151 C155 1.460 . S
C151 H157 0.929 . S
N152 Mn145 2.257 . S
N152 C151 1.326 . S
N152 C156 1.362 . S
C153 C154 1.258 . S
C153 C156 1.431 . S
C153 C173 1.449 . S
C154 C153 1.258 . S
C154 C155 1.477 . S
C154 H174 0.931 . S
C155 C151 1.460 . S
C155 C154 1.477 . S
C155 H175 0.930 . S
C156 N152 1.362 . S
C156 C153 1.431 . S
C156 C166 1.476 . S
H157 C151 0.929 . S
C158 O149 1.250 . S
C158 O150 1.258 1_556 S
O159 Mn144 2.162 1_556 S
O159 C147 1.281 . S
O160 Mn144 2.297 1_556 S
O160 C147 1.236 . S
N161 Mn145 2.282 . S
N161 C162 1.328 . S
N161 C166 1.318 . S
C162 N161 1.328 . S
C162 C163 1.457 . S
C162 H167 0.929 . S
C163 C162 1.457 . S
C163 C164 1.291 . S
C163 H176 0.931 . S
C164 C163 1.291 . S
C164 C165 1.373 . S
C164 H177 0.929 . S
C165 C164 1.373 . S
C165 C166 1.396 . S
C165 C172 1.403 . S
C166 C156 1.476 . S
C166 N161 1.318 . S
C166 C165 1.396 . S
H167 C162 0.929 . S
O168 Mn144 2.385 . S
O168 C146 1.234 . S
O169 Mn144 2.209 . S
O169 Mn145 2.215 . S
O169 C146 1.283 . S
O170 Mn144 2.094 . S
O170 C148 1.240 . S
O171 Mn145 2.117 . S
O171 C148 1.264 . S
C172 C165 1.403 . S
C172 C173 1.399 . S
C172 H178 0.929 . S
C173 C153 1.449 . S
C173 C172 1.399 . S
C173 H179 0.930 . S
H174 C154 0.931 . S
H175 C155 0.930 . S
H176 C163 0.931 . S
H177 C164 0.929 . S
H178 C172 0.929 . S
H179 C173 0.930 . S
Mn180 O185 2.095 1_545 S
Mn180 O195 2.162 . S
Mn180 O196 2.297 1_545 S
Mn180 O204 2.385 . S
Mn180 O205 2.209 1_545 S
Mn180 O206 2.094 . S
Mn181 O186 2.121 . S
Mn181 N188 2.257 . S
Mn181 N197 2.282 1_565 S
Mn181 O205 2.215 . S
Mn181 O207 2.117 1_565 S
C182 O204 1.234 . S
C182 O205 1.283 1_545 S
C183 O195 1.281 . S
C183 O196 1.236 1_545 S
C184 O206 1.240 . S
C184 O207 1.264 . S
O185 Mn180 2.095 1_565 S
O185 C194 1.250 . S
O186 Mn181 2.121 . S
O186 C194 1.258 . S
C187 N188 1.326 . S
C187 C191 1.460 . S
C187 H193 0.929 . S
N188 Mn181 2.257 . S
N188 C187 1.326 . S
N188 C192 1.362 . S
C189 C190 1.258 . S
C189 C192 1.431 . S
C189 C209 1.449 . S
C190 C189 1.258 . S
C190 C191 1.477 . S
C190 H210 0.931 . S
C191 C187 1.460 . S
C191 C190 1.477 . S
C191 H211 0.930 . S
C192 N188 1.362 . S
C192 C189 1.431 . S
C192 C202 1.476 . S
H193 C187 0.929 . S
C194 O185 1.250 . S
C194 O186 1.258 . S
O195 Mn180 2.162 . S
O195 C183 1.281 . S
O196 Mn180 2.297 1_565 S
O196 C183 1.236 1_565 S
N197 Mn181 2.282 1_545 S
N197 C198 1.328 . S
N197 C202 1.318 1_545 S
C198 N197 1.328 . S
C198 C199 1.457 . S
C198 H203 0.929 . S
C199 C198 1.457 . S
C199 C200 1.291 . S
C199 H212 0.931 . S
C200 C199 1.291 . S
C200 C201 1.373 1_545 S
C200 H213 0.929 . S
C201 C200 1.373 1_565 S
C201 C202 1.396 . S
C201 C208 1.403 . S
C202 C192 1.476 . S
C202 N197 1.318 1_565 S
C202 C201 1.396 . S
H203 C198 0.929 . S
O204 Mn180 2.385 . S
O204 C182 1.234 . S
O205 Mn180 2.209 1_565 S
O205 Mn181 2.215 . S
O205 C182 1.283 1_565 S
O206 Mn180 2.094 . S
O206 C184 1.240 . S
O207 Mn181 2.117 1_545 S
O207 C184 1.264 . S
C208 C201 1.403 . S
C208 C209 1.399 . S
C208 H214 0.929 . S
C209 C189 1.449 . S
C209 C208 1.399 . S
C209 H215 0.930 . S
H210 C190 0.931 . S
H211 C191 0.930 . S
H212 C199 0.931 . S
H213 C200 0.929 . S
H214 C208 0.929 . S
H215 C209 0.930 . S
Mn216 O221 2.095 . S
Mn216 O231 2.162 . S
Mn216 O232 2.297 . S
Mn216 O240 2.385 . S
Mn216 O241 2.209 . S
Mn216 O242 2.094 . S
Mn217 O222 2.121 . S
Mn217 N224 2.257 . S
Mn217 N233 2.282 . S
Mn217 O241 2.215 . S
Mn217 O243 2.117 . S
C218 O240 1.234 . S
C218 O241 1.283 . S
C219 O231 1.281 . S
C219 O232 1.236 . S
C220 O242 1.240 . S
C220 O243 1.264 . S
O221 Mn216 2.095 . S
O221 C230 1.250 . S
O222 Mn217 2.121 . S
O222 C230 1.258 . S
C223 N224 1.326 . S
C223 C227 1.460 . S
C223 H229 0.929 . S
N224 Mn217 2.257 . S
N224 C223 1.326 . S
N224 C228 1.362 . S
C225 C226 1.258 . S
C225 C228 1.431 . S
C225 C245 1.449 . S
C226 C225 1.258 . S
C226 C227 1.477 . S
C226 H246 0.931 . S
C227 C223 1.460 . S
C227 C226 1.477 . S
C227 H247 0.930 . S
C228 N224 1.362 . S
C228 C225 1.431 . S
C228 C238 1.476 . S
H229 C223 0.929 . S
C230 O221 1.250 . S
C230 O222 1.258 . S
O231 Mn216 2.162 . S
O231 C219 1.281 . S
O232 Mn216 2.297 . S
O232 C219 1.236 . S
N233 Mn217 2.282 . S
N233 C234 1.328 . S
N233 C238 1.318 . S
C234 N233 1.328 . S
C234 C235 1.457 . S
C234 H239 0.929 . S
C235 C234 1.457 . S
C235 C236 1.291 . S
C235 H248 0.931 . S
C236 C235 1.291 . S
C236 C237 1.373 . S
C236 H249 0.929 . S
C237 C236 1.373 . S
C237 C238 1.396 . S
C237 C244 1.403 . S
C238 C228 1.476 . S
C238 N233 1.318 . S
C238 C237 1.396 . S
H239 C234 0.929 . S
O240 Mn216 2.385 . S
O240 C218 1.234 . S
O241 Mn216 2.209 . S
O241 Mn217 2.215 . S
O241 C218 1.283 . S
O242 Mn216 2.094 . S
O242 C220 1.240 . S
O243 Mn217 2.117 . S
O243 C220 1.264 . S
C244 C237 1.403 . S
C244 C245 1.399 . S
C244 H250 0.929 . S
C245 C225 1.449 . S
C245 C244 1.399 . S
C245 H251 0.930 . S
H246 C226 0.931 . S
H247 C227 0.930 . S
H248 C235 0.931 . S
H249 C236 0.929 . S
H250 C244 0.929 . S
H251 C245 0.930 . S
Mn252 O257 2.095 1_545 S
Mn252 O267 2.162 . S
Mn252 O268 2.297 1_545 S
Mn252 O276 2.385 . S
Mn252 O277 2.209 1_545 S
Mn252 O278 2.094 . S
Mn253 O258 2.121 . S
Mn253 N260 2.257 . S
Mn253 N269 2.282 1_565 S
Mn253 O277 2.215 . S
Mn253 O279 2.117 1_565 S
C254 O276 1.234 . S
C254 O277 1.283 1_545 S
C255 O267 1.281 . S
C255 O268 1.236 1_545 S
C256 O278 1.240 . S
C256 O279 1.264 . S
O257 Mn252 2.095 1_565 S
O257 C266 1.250 . S
O258 Mn253 2.121 . S
O258 C266 1.258 . S
C259 N260 1.326 . S
C259 C263 1.460 . S
C259 H265 0.929 . S
N260 Mn253 2.257 . S
N260 C259 1.326 . S
N260 C264 1.362 . S
C261 C262 1.258 . S
C261 C264 1.431 . S
C261 C281 1.449 . S
C262 C261 1.258 . S
C262 C263 1.477 . S
C262 H282 0.931 . S
C263 C259 1.460 . S
C263 C262 1.477 . S
C263 H283 0.930 . S
C264 N260 1.362 . S
C264 C261 1.431 . S
C264 C274 1.476 . S
H265 C259 0.929 . S
C266 O257 1.250 . S
C266 O258 1.258 . S
O267 Mn252 2.162 . S
O267 C255 1.281 . S
O268 Mn252 2.297 1_565 S
O268 C255 1.236 1_565 S
N269 Mn253 2.282 1_545 S
N269 C270 1.328 . S
N269 C274 1.318 1_545 S
C270 N269 1.328 . S
C270 C271 1.457 . S
C270 H275 0.929 . S
C271 C270 1.457 . S
C271 C272 1.291 . S
C271 H284 0.931 . S
C272 C271 1.291 . S
C272 C273 1.373 1_545 S
C272 H285 0.929 . S
C273 C272 1.373 1_565 S
C273 C274 1.396 . S
C273 C280 1.403 . S
C274 C264 1.476 . S
C274 N269 1.318 1_565 S
C274 C273 1.396 . S
H275 C270 0.929 . S
O276 Mn252 2.385 . S
O276 C254 1.234 . S
O277 Mn252 2.209 1_565 S
O277 Mn253 2.215 . S
O277 C254 1.283 1_565 S
O278 Mn252 2.094 . S
O278 C256 1.240 . S
O279 Mn253 2.117 1_545 S
O279 C256 1.264 . S
C280 C273 1.403 . S
C280 C281 1.399 . S
C280 H286 0.929 . S
C281 C261 1.449 . S
C281 C280 1.399 . S
C281 H287 0.930 . S
H282 C262 0.931 . S
H283 C263 0.930 . S
H284 C271 0.931 . S
H285 C272 0.929 . S
H286 C280 0.929 . S
H287 C281 0.930 . S
Mn288 O293 2.095 . S
Mn288 O303 2.162 . S
Mn288 O304 2.297 . S
Mn288 O312 2.385 . S
Mn288 O313 2.209 . S
Mn288 O314 2.094 . S
Mn289 O294 2.121 . S
Mn289 N296 2.257 . S
Mn289 N305 2.282 . S
Mn289 O313 2.215 . S
Mn289 O315 2.117 . S
C290 O312 1.234 . S
C290 O313 1.283 . S
C291 O303 1.281 . S
C291 O304 1.236 . S
C292 O314 1.240 . S
C292 O315 1.264 . S
O293 Mn288 2.095 . S
O293 C302 1.250 . S
O294 Mn289 2.121 . S
O294 C302 1.258 . S
C295 N296 1.326 . S
C295 C299 1.460 . S
C295 H301 0.929 . S
N296 Mn289 2.257 . S
N296 C295 1.326 . S
N296 C300 1.362 . S
C297 C298 1.258 . S
C297 C300 1.431 . S
C297 C317 1.449 . S
C298 C297 1.258 . S
C298 C299 1.477 . S
C298 H318 0.931 . S
C299 C295 1.460 . S
C299 C298 1.477 . S
C299 H319 0.930 . S
C300 N296 1.362 . S
C300 C297 1.431 . S
C300 C310 1.476 . S
H301 C295 0.929 . S
C302 O293 1.250 . S
C302 O294 1.258 . S
O303 Mn288 2.162 . S
O303 C291 1.281 . S
O304 Mn288 2.297 . S
O304 C291 1.236 . S
N305 Mn289 2.282 . S
N305 C306 1.328 . S
N305 C310 1.318 . S
C306 N305 1.328 . S
C306 C307 1.457 . S
C306 H311 0.929 . S
C307 C306 1.457 . S
C307 C308 1.291 . S
C307 H320 0.931 . S
C308 C307 1.291 . S
C308 C309 1.373 . S
C308 H321 0.929 . S
C309 C308 1.373 . S
C309 C310 1.396 . S
C309 C316 1.403 . S
C310 C300 1.476 . S
C310 N305 1.318 . S
C310 C309 1.396 . S
H311 C306 0.929 . S
O312 Mn288 2.385 . S
O312 C290 1.234 . S
O313 Mn288 2.209 . S
O313 Mn289 2.215 . S
O313 C290 1.283 . S
O314 Mn288 2.094 . S
O314 C292 1.240 . S
O315 Mn289 2.117 . S
O315 C292 1.264 . S
C316 C309 1.403 . S
C316 C317 1.399 . S
C316 H322 0.929 . S
C317 C297 1.449 . S
C317 C316 1.399 . S
C317 H323 0.930 . S
H318 C298 0.931 . S
H319 C299 0.930 . S
H320 C307 0.931 . S
H321 C308 0.929 . S
H322 C316 0.929 . S
H323 C317 0.930 . S
Mn324 O329 2.095 . S
Mn324 O339 2.162 . S
Mn324 O340 2.297 . S
Mn324 O348 2.385 . S
Mn324 O349 2.209 . S
Mn324 O350 2.094 . S
Mn325 O330 2.121 . S
Mn325 N332 2.257 . S
Mn325 N341 2.282 . S
Mn325 O349 2.215 . S
Mn325 O351 2.117 . S
C326 O348 1.234 . S
C326 O349 1.283 . S
C327 O339 1.281 . S
C327 O340 1.236 . S
C328 O350 1.240 . S
C328 O351 1.264 . S
O329 Mn324 2.095 . S
O329 C338 1.250 . S
O330 Mn325 2.121 . S
O330 C338 1.258 . S
C331 N332 1.326 . S
C331 C335 1.460 . S
C331 H337 0.929 . S
N332 Mn325 2.257 . S
N332 C331 1.326 . S
N332 C336 1.362 . S
C333 C334 1.258 . S
C333 C336 1.431 . S
C333 C353 1.449 1_556 S
C334 C333 1.258 . S
C334 C335 1.477 . S
C334 H354 0.931 . S
C335 C331 1.460 . S
C335 C334 1.477 . S
C335 H355 0.930 . S
C336 N332 1.362 . S
C336 C333 1.431 . S
C336 C346 1.476 . S
H337 C331 0.929 . S
C338 O329 1.250 . S
C338 O330 1.258 . S
O339 Mn324 2.162 . S
O339 C327 1.281 . S
O340 Mn324 2.297 . S
O340 C327 1.236 . S
N341 Mn325 2.282 . S
N341 C342 1.328 . S
N341 C346 1.318 . S
C342 N341 1.328 . S
C342 C343 1.457 . S
C342 H347 0.929 . S
C343 C342 1.457 . S
C343 C344 1.286 1_556 S
C343 H356 0.931 . S
C344 C343 1.286 1_554 S
C344 C345 1.371 1_554 S
C344 H357 0.936 . S
C345 C344 1.371 1_556 S
C345 C346 1.396 . S
C345 C352 1.403 1_556 S
C346 C336 1.476 . S
C346 N341 1.318 . S
C346 C345 1.396 . S
H347 C342 0.929 . S
O348 Mn324 2.385 . S
O348 C326 1.234 . S
O349 Mn324 2.209 . S
O349 Mn325 2.215 . S
O349 C326 1.283 . S
O350 Mn324 2.094 . S
O350 C328 1.240 . S
O351 Mn325 2.117 . S
O351 C328 1.264 . S
C352 C345 1.403 1_554 S
C352 C353 1.399 . S
C352 H358 0.929 . S
C353 C333 1.449 1_554 S
C353 C352 1.399 . S
C353 H359 0.930 . S
H354 C334 0.931 . S
H355 C335 0.930 . S
H356 C343 0.931 . S
H357 C344 0.936 . S
H358 C352 0.929 . S
H359 C353 0.930 . S
Mn360 O365 2.095 1_554 S
Mn360 O375 2.162 1_554 S
Mn360 O376 2.297 1_554 S
Mn360 O384 2.385 . S
Mn360 O385 2.209 . S
Mn360 O386 2.094 . S
Mn361 O366 2.121 . S
Mn361 N368 2.257 . S
Mn361 N377 2.282 . S
Mn361 O385 2.215 . S
Mn361 O387 2.117 . S
C362 O384 1.234 . S
C362 O385 1.283 . S
C363 O375 1.281 . S
C363 O376 1.236 . S
C364 O386 1.240 . S
C364 O387 1.264 . S
O365 Mn360 2.095 1_556 S
O365 C374 1.250 . S
O366 Mn361 2.121 . S
O366 C374 1.258 1_554 S
C367 N368 1.326 . S
C367 C371 1.460 . S
C367 H373 0.929 . S
N368 Mn361 2.257 . S
N368 C367 1.326 . S
N368 C372 1.362 . S
C369 C370 1.258 . S
C369 C372 1.431 . S
C369 C389 1.449 . S
C370 C369 1.258 . S
C370 C371 1.477 . S
C370 H390 0.931 . S
C371 C367 1.460 . S
C371 C370 1.477 . S
C371 H391 0.930 . S
C372 N368 1.362 . S
C372 C369 1.431 . S
C372 C382 1.476 . S
H373 C367 0.929 . S
C374 O365 1.250 . S
C374 O366 1.258 1_556 S
O375 Mn360 2.162 1_556 S
O375 C363 1.281 . S
O376 Mn360 2.297 1_556 S
O376 C363 1.236 . S
N377 Mn361 2.282 . S
N377 C378 1.328 . S
N377 C382 1.318 . S
C378 N377 1.328 . S
C378 C379 1.457 . S
C378 H383 0.929 . S
C379 C378 1.457 . S
C379 C380 1.291 . S
C379 H392 0.931 . S
C380 C379 1.291 . S
C380 C381 1.373 . S
C380 H393 0.929 . S
C381 C380 1.373 . S
C381 C382 1.396 . S
C381 C388 1.403 . S
C382 C372 1.476 . S
C382 N377 1.318 . S
C382 C381 1.396 . S
H383 C378 0.929 . S
O384 Mn360 2.385 . S
O384 C362 1.234 . S
O385 Mn360 2.209 . S
O385 Mn361 2.215 . S
O385 C362 1.283 . S
O386 Mn360 2.094 . S
O386 C364 1.240 . S
O387 Mn361 2.117 . S
O387 C364 1.264 . S
C388 C381 1.403 . S
C388 C389 1.399 . S
C388 H394 0.929 . S
C389 C369 1.449 . S
C389 C388 1.399 . S
C389 H395 0.930 . S
H390 C370 0.931 . S
H391 C371 0.930 . S
H392 C379 0.931 . S
H393 C380 0.929 . S
H394 C388 0.929 . S
H395 C389 0.930 . S
Mn396 O401 2.095 . S
Mn396 O411 2.162 . S
Mn396 O412 2.297 . S
Mn396 O420 2.385 . S
Mn396 O421 2.209 . S
Mn396 O422 2.094 . S
Mn397 O402 2.121 . S
Mn397 N404 2.257 . S
Mn397 N413 2.282 . S
Mn397 O421 2.215 . S
Mn397 O423 2.117 . S
C398 O420 1.234 . S
C398 O421 1.283 . S
C399 O411 1.281 . S
C399 O412 1.236 . S
C400 O422 1.240 . S
C400 O423 1.264 . S
O401 Mn396 2.095 . S
O401 C410 1.250 . S
O402 Mn397 2.121 . S
O402 C410 1.258 . S
C403 N404 1.326 . S
C403 C407 1.460 . S
C403 H409 0.929 . S
N404 Mn397 2.257 . S
N404 C403 1.326 . S
N404 C408 1.362 . S
C405 C406 1.258 . S
C405 C408 1.431 . S
C405 C425 1.449 . S
C406 C405 1.258 . S
C406 C407 1.477 . S
C406 H426 0.931 . S
C407 C403 1.460 . S
C407 C406 1.477 . S
C407 H427 0.930 . S
C408 N404 1.362 . S
C408 C405 1.431 . S
C408 C418 1.476 . S
H409 C403 0.929 . S
C410 O401 1.250 . S
C410 O402 1.258 . S
O411 Mn396 2.162 . S
O411 C399 1.281 . S
O412 Mn396 2.297 . S
O412 C399 1.236 . S
N413 Mn397 2.282 . S
N413 C414 1.328 . S
N413 C418 1.318 . S
C414 N413 1.328 . S
C414 C415 1.457 . S
C414 H419 0.929 . S
C415 C414 1.457 . S
C415 C416 1.291 . S
C415 H428 0.931 . S
C416 C415 1.291 . S
C416 C417 1.373 . S
C416 H429 0.929 1_554 S
C417 C416 1.373 . S
C417 C418 1.396 . S
C417 C424 1.396 1_554 S
C418 C408 1.476 . S
C418 N413 1.318 . S
C418 C417 1.396 . S
H419 C414 0.929 . S
O420 Mn396 2.385 . S
O420 C398 1.234 . S
O421 Mn396 2.209 . S
O421 Mn397 2.215 . S
O421 C398 1.283 . S
O422 Mn396 2.094 . S
O422 C400 1.240 . S
O423 Mn397 2.117 . S
O423 C400 1.264 . S
C424 C417 1.396 1_556 S
C424 C425 1.397 1_556 S
C424 H430 0.938 . S
C425 C405 1.449 . S
C425 C424 1.397 1_554 S
C425 H431 0.930 1_554 S
H426 C406 0.931 . S
H427 C407 0.930 . S
H428 C415 0.931 . S
H429 C416 0.929 1_556 S
H430 C424 0.938 . S
H431 C425 0.930 1_556 S
Mn432 O437 2.095 . S
Mn432 O447 2.162 . S
Mn432 O448 2.297 . S
Mn432 O456 2.385 . S
Mn432 O457 2.209 . S
Mn432 O458 2.094 . S
Mn433 O438 2.121 . S
Mn433 N440 2.257 . S
Mn433 N449 2.282 . S
Mn433 O457 2.215 . S
Mn433 O459 2.117 . S
C434 O456 1.234 . S
C434 O457 1.283 . S
C435 O447 1.281 . S
C435 O448 1.236 . S
C436 O458 1.240 . S
C436 O459 1.264 . S
O437 Mn432 2.095 . S
O437 C446 1.250 . S
O438 Mn433 2.121 . S
O438 C446 1.258 . S
C439 N440 1.326 . S
C439 C443 1.460 . S
C439 H445 0.929 . S
N440 Mn433 2.257 . S
N440 C439 1.326 . S
N440 C444 1.362 . S
C441 C442 1.258 . S
C441 C444 1.431 . S
C441 C461 1.449 . S
C442 C441 1.258 . S
C442 C443 1.477 . S
C442 H462 0.931 . S
C443 C439 1.460 . S
C443 C442 1.477 . S
C443 H463 0.930 . S
C444 N440 1.362 . S
C444 C441 1.431 . S
C444 C454 1.476 . S
H445 C439 0.929 . S
C446 O437 1.250 . S
C446 O438 1.258 . S
O447 Mn432 2.162 . S
O447 C435 1.281 . S
O448 Mn432 2.297 . S
O448 C435 1.236 . S
N449 Mn433 2.282 . S
N449 C450 1.328 . S
N449 C454 1.318 . S
C450 N449 1.328 . S
C450 C451 1.457 . S
C450 H455 0.929 . S
C451 C450 1.457 . S
C451 C452 1.291 . S
C451 H464 0.931 . S
C452 C451 1.291 . S
C452 C453 1.373 . S
C452 H465 0.929 . S
C453 C452 1.373 . S
C453 C454 1.396 . S
C453 C460 1.403 . S
C454 C444 1.476 . S
C454 N449 1.318 . S
C454 C453 1.396 . S
H455 C450 0.929 . S
O456 Mn432 2.385 . S
O456 C434 1.234 . S
O457 Mn432 2.209 . S
O457 Mn433 2.215 . S
O457 C434 1.283 . S
O458 Mn432 2.094 . S
O458 C436 1.240 . S
O459 Mn433 2.117 . S
O459 C436 1.264 . S
C460 C453 1.403 . S
C460 C461 1.399 . S
C460 H466 0.929 . S
C461 C441 1.449 . S
C461 C460 1.399 . S
C461 H467 0.930 . S
H462 C442 0.931 . S
H463 C443 0.930 . S
H464 C451 0.931 . S
H465 C452 0.929 . S
H466 C460 0.929 . S
H467 C461 0.930 . S
Mn468 O473 2.095 . S
Mn468 O483 2.162 . S
Mn468 O484 2.297 . S
Mn468 O492 2.385 . S
Mn468 O493 2.209 . S
Mn468 O494 2.094 . S
Mn469 O474 2.121 . S
Mn469 N476 2.257 . S
Mn469 N485 2.282 . S
Mn469 O493 2.215 . S
Mn469 O495 2.117 . S
C470 O492 1.234 . S
C470 O493 1.283 . S
C471 O483 1.281 . S
C471 O484 1.236 . S
C472 O494 1.240 . S
C472 O495 1.264 . S
O473 Mn468 2.095 . S
O473 C482 1.250 . S
O474 Mn469 2.121 . S
O474 C482 1.258 . S
C475 N476 1.326 . S
C475 C479 1.460 . S
C475 H481 0.929 . S
N476 Mn469 2.257 . S
N476 C475 1.326 . S
N476 C480 1.362 . S
C477 C478 1.258 . S
C477 C480 1.431 . S
C477 C497 1.449 . S
C478 C477 1.258 . S
C478 C479 1.477 . S
C478 H498 0.931 . S
C479 C475 1.460 . S
C479 C478 1.477 . S
C479 H499 0.930 . S
C480 N476 1.362 . S
C480 C477 1.431 . S
C480 C490 1.476 . S
H481 C475 0.929 . S
C482 O473 1.250 . S
C482 O474 1.258 . S
O483 Mn468 2.162 . S
O483 C471 1.281 . S
O484 Mn468 2.297 . S
O484 C471 1.236 . S
N485 Mn469 2.282 . S
N485 C486 1.328 . S
N485 C490 1.318 . S
C486 N485 1.328 . S
C486 C487 1.457 . S
C486 H491 0.929 . S
C487 C486 1.457 . S
C487 C488 1.291 . S
C487 H500 0.931 . S
C488 C487 1.291 . S
C488 C489 1.373 . S
C488 H501 0.929 1_554 S
C489 C488 1.373 . S
C489 C490 1.396 . S
C489 C496 1.403 1_554 S
C490 C480 1.476 . S
C490 N485 1.318 . S
C490 C489 1.396 . S
H491 C486 0.929 . S
O492 Mn468 2.385 . S
O492 C470 1.234 . S
O493 Mn468 2.209 . S
O493 Mn469 2.215 . S
O493 C470 1.283 . S
O494 Mn468 2.094 . S
O494 C472 1.240 . S
O495 Mn469 2.117 . S
O495 C472 1.264 . S
C496 C489 1.403 1_556 S
C496 C497 1.399 1_556 S
C496 H502 0.929 . S
C497 C477 1.449 . S
C497 C496 1.399 1_554 S
C497 H503 0.930 1_554 S
H498 C478 0.931 . S
H499 C479 0.930 . S
H500 C487 0.931 . S
H501 C488 0.929 1_556 S
H502 C496 0.929 . S
H503 C497 0.930 1_556 S
Mn504 O509 2.095 . S
Mn504 O519 2.162 . S
Mn504 O520 2.297 . S
Mn504 O528 2.385 1_554 S
Mn504 O529 2.209 1_554 S
Mn504 O530 2.094 . S
Mn505 O510 2.121 . S
Mn505 N512 2.257 . S
Mn505 N521 2.282 . S
Mn505 O529 2.215 . S
Mn505 O531 2.117 . S
C506 O528 1.234 . S
C506 O529 1.283 . S
C507 O519 1.281 . S
C507 O520 1.236 . S
C508 O530 1.240 1_556 S
C508 O531 1.264 . S
O509 Mn504 2.095 . S
O509 C518 1.250 . S
O510 Mn505 2.121 . S
O510 C518 1.258 1_556 S
C511 N512 1.326 . S
C511 C515 1.460 . S
C511 H517 0.929 . S
N512 Mn505 2.257 . S
N512 C511 1.326 . S
N512 C516 1.362 . S
C513 C514 1.258 . S
C513 C516 1.431 . S
C513 C533 1.449 . S
C514 C513 1.258 . S
C514 C515 1.477 . S
C514 H534 0.931 . S
C515 C511 1.460 . S
C515 C514 1.477 . S
C515 H535 0.930 . S
C516 N512 1.362 . S
C516 C513 1.431 . S
C516 C526 1.476 . S
H517 C511 0.929 . S
C518 O509 1.250 . S
C518 O510 1.258 1_554 S
O519 Mn504 2.162 . S
O519 C507 1.281 . S
O520 Mn504 2.297 . S
O520 C507 1.236 . S
N521 Mn505 2.282 . S
N521 C522 1.328 . S
N521 C526 1.318 . S
C522 N521 1.328 . S
C522 C523 1.457 . S
C522 H527 0.929 . S
C523 C522 1.457 . S
C523 C524 1.291 . S
C523 H536 0.931 . S
C524 C523 1.291 . S
C524 C525 1.373 . S
C524 H537 0.929 . S
C525 C524 1.373 . S
C525 C526 1.396 . S
C525 C532 1.403 . S
C526 C516 1.476 . S
C526 N521 1.318 . S
C526 C525 1.396 . S
H527 C522 0.929 . S
O528 Mn504 2.385 1_556 S
O528 C506 1.234 . S
O529 Mn504 2.209 1_556 S
O529 Mn505 2.215 . S
O529 C506 1.283 . S
O530 Mn504 2.094 . S
O530 C508 1.240 1_554 S
O531 Mn505 2.117 . S
O531 C508 1.264 . S
C532 C525 1.403 . S
C532 C533 1.399 . S
C532 H538 0.929 . S
C533 C513 1.449 . S
C533 C532 1.399 . S
C533 H539 0.930 . S
H534 C514 0.931 . S
H535 C515 0.930 . S
H536 C523 0.931 . S
H537 C524 0.929 . S
H538 C532 0.929 . S
H539 C533 0.930 . S
Mn540 O545 2.095 . S
Mn540 O555 2.162 . S
Mn540 O556 2.297 . S
Mn540 O564 2.385 . S
Mn540 O565 2.209 . S
Mn540 O566 2.094 . S
Mn541 O546 2.121 . S
Mn541 N548 2.257 . S
Mn541 N557 2.282 . S
Mn541 O565 2.215 . S
Mn541 O567 2.117 . S
C542 O564 1.234 . S
C542 O565 1.283 . S
C543 O555 1.281 . S
C543 O556 1.236 . S
C544 O566 1.240 . S
C544 O567 1.264 . S
O545 Mn540 2.095 . S
O545 C554 1.250 . S
O546 Mn541 2.121 . S
O546 C554 1.258 . S
C547 N548 1.326 . S
C547 C551 1.460 . S
C547 H553 0.929 . S
N548 Mn541 2.257 . S
N548 C547 1.326 . S
N548 C552 1.362 . S
C549 C550 1.258 . S
C549 C552 1.431 . S
C549 C569 1.449 1_556 S
C550 C549 1.258 . S
C550 C551 1.477 . S
C550 H570 0.931 . S
C551 C547 1.460 . S
C551 C550 1.477 . S
C551 H571 0.930 . S
C552 N548 1.362 . S
C552 C549 1.431 . S
C552 C562 1.476 . S
H553 C547 0.929 . S
C554 O545 1.250 . S
C554 O546 1.258 . S
O555 Mn540 2.162 . S
O555 C543 1.281 . S
O556 Mn540 2.297 . S
O556 C543 1.236 . S
N557 Mn541 2.282 . S
N557 C558 1.328 . S
N557 C562 1.318 . S
C558 N557 1.328 . S
C558 C559 1.457 . S
C558 H563 0.929 . S
C559 C558 1.457 . S
C559 C560 1.291 1_556 S
C559 H572 0.931 . S
C560 C559 1.291 1_554 S
C560 C561 1.373 1_554 S
C560 H573 0.929 . S
C561 C560 1.373 1_556 S
C561 C562 1.396 . S
C561 C568 1.403 1_556 S
C562 C552 1.476 . S
C562 N557 1.318 . S
C562 C561 1.396 . S
H563 C558 0.929 . S
O564 Mn540 2.385 . S
O564 C542 1.234 . S
O565 Mn540 2.209 . S
O565 Mn541 2.215 . S
O565 C542 1.283 . S
O566 Mn540 2.094 . S
O566 C544 1.240 . S
O567 Mn541 2.117 . S
O567 C544 1.264 . S
C568 C561 1.403 1_554 S
C568 C569 1.399 . S
C568 H574 0.929 . S
C569 C549 1.449 1_554 S
C569 C568 1.399 . S
C569 H575 0.930 . S
H570 C550 0.931 . S
H571 C551 0.930 . S
H572 C559 0.931 . S
H573 C560 0.929 . S
H574 C568 0.929 . S
H575 C569 0.930 . S
H576 C594 0.951 . S
H577 C596 0.951 . S
H578 C598 0.950 . S
H579 C599 0.950 . S
H580 C601 0.950 . S
H581 C604 0.950 . S
H582 C605 0.950 . S
H583 C607 0.950 . S
H584 C608 0.950 . S
H585 C609 0.951 . S
H586 C611 0.951 . S
H587 C613 0.950 . S
H588 C614 0.950 . S
H589 C616 0.950 . S
H590 C619 0.950 . S
H591 C620 0.950 . S
H592 C622 0.950 . S
H593 C623 0.950 . S
C594 H576 0.951 . S
C594 C595 1.366 . S
C594 C596 1.388 . S
C595 C594 1.366 . S
C595 C599 1.385 . S
C596 H577 0.951 . S
C596 C594 1.388 . S
C596 C597 1.366 . S
C597 C596 1.366 . S
C597 C598 1.414 . S
C597 C600 1.499 . S
C598 H578 0.950 . S
C598 C597 1.414 . S
C598 C599 1.374 . S
C599 H579 0.950 . S
C599 C595 1.385 . S
C599 C598 1.374 . S
C600 C597 1.499 . S
C600 C601 1.373 . S
C600 C602 1.389 . S
C601 H580 0.950 . S
C601 C600 1.373 . S
C601 C617 1.377 . S
C602 C600 1.389 . S
C602 C603 1.524 . S
C602 C616 1.377 . S
C603 C602 1.524 . S
C603 C604 1.397 . S
C603 C608 1.363 . S
C604 H581 0.950 . S
C604 C603 1.397 . S
C604 C605 1.334 . S
C605 H582 0.950 . S
C605 C604 1.334 . S
C605 C606 1.287 . S
C606 C605 1.287 . S
C606 C607 1.524 . S
C606 H625 0.913 . S
C607 H583 0.950 . S
C607 C606 1.524 . S
C607 C608 1.415 . S
C608 H584 0.950 . S
C608 C603 1.363 . S
C608 C607 1.415 . S
C609 H585 0.951 . S
C609 C610 1.366 . S
C609 C611 1.388 . S
C610 C609 1.366 . S
C610 C614 1.385 . S
C611 H586 0.951 . S
C611 C609 1.388 . S
C611 C612 1.366 . S
C612 C611 1.366 . S
C612 C613 1.414 . S
C612 C615 1.499 . S
C613 H587 0.950 . S
C613 C612 1.414 . S
C613 C614 1.374 . S
C614 H588 0.950 . S
C614 C610 1.385 . S
C614 C613 1.374 . S
C615 C612 1.499 . S
C615 C616 1.373 . S
C615 C617 1.389 . S
C616 H589 0.950 . S
C616 C602 1.377 . S
C616 C615 1.373 . S
C617 C601 1.377 . S
C617 C615 1.389 . S
C617 C618 1.524 . S
C618 C617 1.524 . S
C618 C619 1.397 . S
C618 C623 1.363 . S
C619 H590 0.950 . S
C619 C618 1.397 . S
C619 C620 1.334 . S
C620 H591 0.950 . S
C620 C619 1.334 . S
C620 C621 1.287 . S
C621 C620 1.287 . S
C621 C622 1.524 . S
C621 H624 0.999 . S
C622 H592 0.950 . S
C622 C621 1.524 . S
C622 C623 1.415 . S
C623 H593 0.950 . S
C623 C618 1.363 . S
C623 C622 1.415 . S
H624 C621 0.999 . S
H625 C606 0.913 . S
H626 C644 0.951 . S
H627 C646 0.951 . S
H628 C648 0.950 . S
H629 C649 0.950 . S
H630 C651 0.955 . S
H631 C654 0.950 . S
H632 C655 0.950 . S
H633 C657 0.950 . S
H634 C658 0.950 . S
H635 C659 0.951 . S
H636 C661 0.951 . S
H637 C663 0.950 . S
H638 C664 0.950 . S
H639 C666 0.955 . S
H640 C669 0.950 . S
H641 C670 0.950 . S
H642 C672 0.950 . S
H643 C673 0.950 . S
C644 H626 0.951 . S
C644 C645 1.366 . S
C644 C646 1.388 . S
C645 C644 1.366 . S
C645 C649 1.385 . S
C646 H627 0.951 . S
C646 C644 1.388 . S
C646 C647 1.366 . S
C647 C646 1.366 . S
C647 C648 1.414 . S
C647 C650 1.499 . S
C648 H628 0.950 . S
C648 C647 1.414 . S
C648 C649 1.374 . S
C649 H629 0.950 . S
C649 C645 1.385 . S
C649 C648 1.374 . S
C650 C647 1.499 . S
C650 C651 1.342 1_645 S
C650 C652 1.389 . S
C651 H630 0.955 . S
C651 C650 1.342 1_465 S
C651 C667 1.405 . S
C652 C650 1.389 . S
C652 C653 1.524 . S
C652 C666 1.404 . S
C653 C652 1.524 . S
C653 C654 1.397 . S
C653 C658 1.363 . S
C654 H631 0.950 . S
C654 C653 1.397 . S
C654 C655 1.334 . S
C655 H632 0.950 . S
C655 C654 1.334 . S
C655 C656 1.287 . S
C656 C655 1.287 . S
C656 C657 1.524 . S
C656 H675 0.913 . S
C657 H633 0.950 . S
C657 C656 1.524 . S
C657 C658 1.415 . S
C658 H634 0.950 . S
C658 C653 1.363 . S
C658 C657 1.415 . S
C659 H635 0.951 . S
C659 C660 1.366 . S
C659 C661 1.388 . S
C660 C659 1.366 . S
C660 C664 1.385 . S
C661 H636 0.951 . S
C661 C659 1.388 . S
C661 C662 1.366 . S
C662 C661 1.366 . S
C662 C663 1.414 . S
C662 C665 1.499 . S
C663 H637 0.950 . S
C663 C662 1.414 . S
C663 C664 1.374 . S
C664 H638 0.950 . S
C664 C660 1.385 . S
C664 C663 1.374 . S
C665 C662 1.499 . S
C665 C666 1.342 1_455 S
C665 C667 1.389 1_545 S
C666 H639 0.955 . S
C666 C652 1.404 . S
C666 C665 1.342 1_655 S
C667 C651 1.405 . S
C667 C665 1.389 1_565 S
C667 C668 1.524 . S
C668 C667 1.524 . S
C668 C669 1.397 . S
C668 C673 1.363 . S
C669 H640 0.950 . S
C669 C668 1.397 . S
C669 C670 1.334 . S
C670 H641 0.950 . S
C670 C669 1.334 . S
C670 C671 1.287 . S
C671 C670 1.287 . S
C671 C672 1.524 . S
C671 H674 0.999 . S
C672 H642 0.950 . S
C672 C671 1.524 . S
C672 C673 1.415 . S
C673 H643 0.950 . S
C673 C668 1.363 . S
C673 C672 1.415 . S
H674 C671 0.999 . S
H675 C656 0.913 . S
H676 C694 0.951 . S
H677 C696 0.951 . S
H678 C698 0.950 . S
H679 C699 0.950 . S
H680 C701 0.950 . S
H681 C704 0.950 . S
H682 C705 0.950 . S
H683 C707 0.950 . S
H684 C708 0.950 . S
H685 C709 0.951 . S
H686 C711 0.951 . S
H687 C713 0.950 . S
H688 C714 0.950 . S
H689 C716 0.950 . S
H690 C719 0.950 . S
H691 C720 0.950 . S
H692 C722 0.950 . S
H693 C723 0.950 . S
C694 H676 0.951 . S
C694 C695 1.366 . S
C694 C696 1.388 . S
C695 C694 1.366 . S
C695 C699 1.385 . S
C696 H677 0.951 . S
C696 C694 1.388 . S
C696 C697 1.366 . S
C697 C696 1.366 . S
C697 C698 1.414 . S
C697 C700 1.499 . S
C698 H678 0.950 . S
C698 C697 1.414 . S
C698 C699 1.374 . S
C699 H679 0.950 . S
C699 C695 1.385 . S
C699 C698 1.374 . S
C700 C697 1.499 . S
C700 C701 1.373 . S
C700 C702 1.389 . S
C701 H680 0.950 . S
C701 C700 1.373 . S
C701 C717 1.377 . S
C702 C700 1.389 . S
C702 C703 1.524 . S
C702 C716 1.377 . S
C703 C702 1.524 . S
C703 C704 1.397 . S
C703 C708 1.363 . S
C704 H681 0.950 . S
C704 C703 1.397 . S
C704 C705 1.334 . S
C705 H682 0.950 . S
C705 C704 1.334 . S
C705 C706 1.287 . S
C706 C705 1.287 . S
C706 C707 1.524 . S
C706 H725 0.913 . S
C707 H683 0.950 . S
C707 C706 1.524 . S
C707 C708 1.415 . S
C708 H684 0.950 . S
C708 C703 1.363 . S
C708 C707 1.415 . S
C709 H685 0.951 . S
C709 C710 1.366 . S
C709 C711 1.388 . S
C710 C709 1.366 . S
C710 C714 1.385 . S
C711 H686 0.951 . S
C711 C709 1.388 . S
C711 C712 1.366 . S
C712 C711 1.366 . S
C712 C713 1.414 . S
C712 C715 1.499 . S
C713 H687 0.950 . S
C713 C712 1.414 . S
C713 C714 1.374 . S
C714 H688 0.950 . S
C714 C710 1.385 . S
C714 C713 1.374 . S
C715 C712 1.499 . S
C715 C716 1.373 . S
C715 C717 1.389 . S
C716 H689 0.950 . S
C716 C702 1.377 . S
C716 C715 1.373 . S
C717 C701 1.377 . S
C717 C715 1.389 . S
C717 C718 1.524 . S
C718 C717 1.524 . S
C718 C719 1.397 . S
C718 C723 1.363 . S
C719 H690 0.950 . S
C719 C718 1.397 . S
C719 C720 1.334 . S
C720 H691 0.950 . S
C720 C719 1.334 . S
C720 C721 1.287 . S
C721 C720 1.287 . S
C721 C722 1.524 . S
C721 H724 0.999 . S
C722 H692 0.950 . S
C722 C721 1.524 . S
C722 C723 1.415 . S
C723 H693 0.950 . S
C723 C718 1.363 . S
C723 C722 1.415 . S
H724 C721 0.999 . S
H725 C706 0.913 . S
H726 C744 0.951 . S
H727 C746 0.951 . S
H728 C748 0.950 . S
H729 C749 0.950 . S
H730 C751 0.950 . S
H731 C754 0.950 . S
H732 C755 0.950 1_545 S
H733 C757 0.950 . S
H734 C758 0.950 . S
H735 C759 0.951 . S
H736 C761 0.951 . S
H737 C763 0.950 . S
H738 C764 0.950 . S
H739 C766 0.950 . S
H740 C769 0.950 1_565 S
H741 C770 0.950 . S
H742 C772 0.950 . S
H743 C773 0.950 . S
C744 H726 0.951 . S
C744 C745 1.366 1_565 S
C744 C746 1.388 . S
C745 C744 1.366 1_545 S
C745 C749 1.385 . S
C746 H727 0.951 . S
C746 C744 1.388 . S
C746 C747 1.366 1_565 S
C747 C746 1.366 1_545 S
C747 C748 1.414 . S
C747 C750 1.499 . S
C748 H728 0.950 . S
C748 C747 1.414 . S
C748 C749 1.374 . S
C749 H729 0.950 . S
C749 C745 1.385 . S
C749 C748 1.374 . S
C750 C747 1.499 . S
C750 C751 1.373 . S
C750 C752 1.389 1_545 S
C751 H730 0.950 . S
C751 C750 1.373 . S
C751 C767 1.377 1_554 S
C752 C750 1.389 1_565 S
C752 C753 1.524 . S
C752 C766 1.377 . S
C753 C752 1.524 . S
C753 C754 1.397 1_565 S
C753 C758 1.363 . S
C754 H731 0.950 . S
C754 C753 1.397 1_545 S
C754 C755 1.334 1_545 S
C755 H732 0.950 1_565 S
C755 C754 1.334 1_565 S
C755 C756 1.287 . S
C756 C755 1.287 . S
C756 C757 1.524 . S
C756 H775 0.913 . S
C757 H733 0.950 . S
C757 C756 1.524 . S
C757 C758 1.415 . S
C758 H734 0.950 . S
C758 C753 1.363 . S
C758 C757 1.415 . S
C759 H735 0.951 . S
C759 C760 1.366 . S
C759 C761 1.388 . S
C760 C759 1.366 . S
C760 C764 1.385 1_545 S
C761 H736 0.951 . S
C761 C759 1.388 . S
C761 C762 1.366 . S
C762 C761 1.366 . S
C762 C763 1.414 1_545 S
C762 C765 1.499 . S
C763 H737 0.950 . S
C763 C762 1.414 1_565 S
C763 C764 1.374 . S
C764 H738 0.950 . S
C764 C760 1.385 1_565 S
C764 C763 1.374 . S
C765 C762 1.499 . S
C765 C766 1.373 1_546 S
C765 C767 1.389 . S
C766 H739 0.950 . S
C766 C752 1.377 . S
C766 C765 1.373 1_564 S
C767 C751 1.377 1_556 S
C767 C765 1.389 . S
C767 C768 1.524 . S
C768 C767 1.524 . S
C768 C769 1.397 . S
C768 C773 1.363 . S
C769 H740 0.950 1_545 S
C769 C768 1.397 . S
C769 C770 1.334 . S
C770 H741 0.950 . S
C770 C769 1.334 . S
C770 C771 1.287 . S
C771 C770 1.287 . S
C771 C772 1.524 . S
C771 H774 0.999 . S
C772 H742 0.950 . S
C772 C771 1.524 . S
C772 C773 1.415 . S
C773 H743 0.950 . S
C773 C768 1.363 . S
C773 C772 1.415 . S
H774 C771 0.999 . S
H775 C756 0.913 . S
H776 C794 0.951 . S
H777 C796 0.951 . S
H778 C798 0.950 . S
H779 C799 0.950 . S
H780 C801 0.950 . S
H781 C804 0.950 . S
H782 C805 0.950 . S
H783 C807 0.950 . S
H784 C808 0.950 . S
H785 C809 0.951 . S
H786 C811 0.951 . S
H787 C813 0.950 . S
H788 C814 0.950 . S
H789 C816 0.950 . S
H790 C819 0.950 . S
H791 C820 0.950 . S
H792 C822 0.950 . S
H793 C823 0.950 . S
C794 H776 0.951 . S
C794 C795 1.366 . S
C794 C796 1.388 . S
C795 C794 1.366 . S
C795 C799 1.385 . S
C796 H777 0.951 . S
C796 C794 1.388 . S
C796 C797 1.366 . S
C797 C796 1.366 . S
C797 C798 1.414 . S
C797 C800 1.499 . S
C798 H778 0.950 . S
C798 C797 1.414 . S
C798 C799 1.374 . S
C799 H779 0.950 . S
C799 C795 1.385 . S
C799 C798 1.374 . S
C800 C797 1.499 . S
C800 C801 1.373 . S
C800 C802 1.389 . S
C801 H780 0.950 . S
C801 C800 1.373 . S
C801 C817 1.377 . S
C802 C800 1.389 . S
C802 C803 1.524 . S
C802 C816 1.377 . S
C803 C802 1.524 . S
C803 C804 1.397 . S
C803 C808 1.363 . S
C804 H781 0.950 . S
C804 C803 1.397 . S
C804 C805 1.334 . S
C805 H782 0.950 . S
C805 C804 1.334 . S
C805 C806 1.287 . S
C806 C805 1.287 . S
C806 C807 1.524 . S
C806 H825 0.913 . S
C807 H783 0.950 . S
C807 C806 1.524 . S
C807 C808 1.415 . S
C808 H784 0.950 . S
C808 C803 1.363 . S
C808 C807 1.415 . S
C809 H785 0.951 . S
C809 C810 1.366 . S
C809 C811 1.388 . S
C810 C809 1.366 . S
C810 C814 1.385 . S
C811 H786 0.951 . S
C811 C809 1.388 . S
C811 C812 1.366 . S
C812 C811 1.366 . S
C812 C813 1.414 . S
C812 C815 1.499 . S
C813 H787 0.950 . S
C813 C812 1.414 . S
C813 C814 1.374 . S
C814 H788 0.950 . S
C814 C810 1.385 . S
C814 C813 1.374 . S
C815 C812 1.499 . S
C815 C816 1.373 . S
C815 C817 1.389 . S
C816 H789 0.950 . S
C816 C802 1.377 . S
C816 C815 1.373 . S
C817 C801 1.377 . S
C817 C815 1.389 . S
C817 C818 1.524 . S
C818 C817 1.524 . S
C818 C819 1.397 . S
C818 C823 1.363 . S
C819 H790 0.950 . S
C819 C818 1.397 . S
C819 C820 1.334 . S
C820 H791 0.950 . S
C820 C819 1.334 . S
C820 C821 1.287 . S
C821 C820 1.287 . S
C821 C822 1.524 . S
C821 H824 0.999 . S
C822 H792 0.950 . S
C822 C821 1.524 . S
C822 C823 1.415 . S
C823 H793 0.950 . S
C823 C818 1.363 . S
C823 C822 1.415 . S
H824 C821 0.999 . S
H825 C806 0.913 . S
H826 C844 0.951 . S
H827 C846 0.951 . S
H828 C848 0.950 . S
H829 C849 0.950 . S
H830 C851 0.950 . S
H831 C854 0.950 . S
H832 C855 0.950 . S
H833 C857 0.950 . S
H834 C858 0.950 . S
H835 C859 0.951 . S
H836 C861 0.951 . S
H837 C863 0.950 . S
H838 C864 0.950 . S
H839 C866 0.950 . S
H840 C869 0.950 . S
H841 C870 0.950 . S
H842 C872 0.950 . S
H843 C873 0.950 . S
C844 H826 0.951 . S
C844 C845 1.366 1_565 S
C844 C846 1.388 . S
C845 C844 1.366 1_545 S
C845 C849 1.385 . S
C846 H827 0.951 . S
C846 C844 1.388 . S
C846 C847 1.366 1_565 S
C847 C846 1.366 1_545 S
C847 C848 1.414 . S
C847 C850 1.499 . S
C848 H828 0.950 . S
C848 C847 1.414 . S
C848 C849 1.374 . S
C849 H829 0.950 . S
C849 C845 1.385 . S
C849 C848 1.374 . S
C850 C847 1.499 . S
C850 C851 1.373 . S
C850 C852 1.389 . S
C851 H830 0.950 . S
C851 C850 1.373 . S
C851 C867 1.377 . S
C852 C850 1.389 . S
C852 C853 1.524 . S
C852 C866 1.377 . S
C853 C852 1.524 . S
C853 C854 1.397 . S
C853 C858 1.363 1_545 S
C854 H831 0.950 . S
C854 C853 1.397 . S
C854 C855 1.334 . S
C855 H832 0.950 . S
C855 C854 1.334 . S
C855 C856 1.287 . S
C856 C855 1.287 . S
C856 C857 1.524 1_545 S
C856 H875 0.913 . S
C857 H833 0.950 . S
C857 C856 1.524 1_565 S
C857 C858 1.415 . S
C858 H834 0.950 . S
C858 C853 1.363 1_565 S
C858 C857 1.415 . S
C859 H835 0.951 . S
C859 C860 1.366 . S
C859 C861 1.388 . S
C860 C859 1.366 . S
C860 C864 1.385 1_545 S
C861 H836 0.951 . S
C861 C859 1.388 . S
C861 C862 1.366 . S
C862 C861 1.366 . S
C862 C863 1.414 1_545 S
C862 C865 1.499 . S
C863 H837 0.950 . S
C863 C862 1.414 1_565 S
C863 C864 1.374 . S
C864 H838 0.950 . S
C864 C860 1.385 1_565 S
C864 C863 1.374 . S
C865 C862 1.499 . S
C865 C866 1.373 . S
C865 C867 1.389 . S
C866 H839 0.950 . S
C866 C852 1.377 . S
C866 C865 1.373 . S
C867 C851 1.377 . S
C867 C865 1.389 . S
C867 C868 1.524 . S
C868 C867 1.524 . S
C868 C869 1.397 1_545 S
C868 C873 1.363 . S
C869 H840 0.950 . S
C869 C868 1.397 1_565 S
C869 C870 1.334 . S
C870 H841 0.950 . S
C870 C869 1.334 . S
C870 C871 1.287 1_565 S
C871 C870 1.287 1_545 S
C871 C872 1.524 . S
C871 H874 0.999 . S
C872 H842 0.950 . S
C872 C871 1.524 . S
C872 C873 1.415 . S
C873 H843 0.950 . S
C873 C868 1.363 . S
C873 C872 1.415 . S
H874 C871 0.999 . S
H875 C856 0.913 . S
H876 C894 0.951 . S
H877 C896 0.951 . S
H878 C898 0.950 . S
H879 C899 0.950 . S
H880 C901 0.950 . S
H881 C904 0.950 . S
H882 C905 0.950 . S
H883 C907 0.950 . S
H884 C908 0.950 . S
H885 C909 0.951 . S
H886 C911 0.951 . S
H887 C913 0.950 . S
H888 C914 0.950 . S
H889 C916 0.950 . S
H890 C919 0.950 . S
H891 C920 0.950 . S
H892 C922 0.950 . S
H893 C923 0.950 . S
C894 H876 0.951 . S
C894 C895 1.366 . S
C894 C896 1.388 . S
C895 C894 1.366 . S
C895 C899 1.385 . S
C896 H877 0.951 . S
C896 C894 1.388 . S
C896 C897 1.366 . S
C897 C896 1.366 . S
C897 C898 1.414 . S
C897 C900 1.499 . S
C898 H878 0.950 . S
C898 C897 1.414 . S
C898 C899 1.374 . S
C899 H879 0.950 . S
C899 C895 1.385 . S
C899 C898 1.374 . S
C900 C897 1.499 . S
C900 C901 1.373 . S
C900 C902 1.389 . S
C901 H880 0.950 . S
C901 C900 1.373 . S
C901 C917 1.377 . S
C902 C900 1.389 . S
C902 C903 1.524 . S
C902 C916 1.377 . S
C903 C902 1.524 . S
C903 C904 1.397 . S
C903 C908 1.363 . S
C904 H881 0.950 . S
C904 C903 1.397 . S
C904 C905 1.334 . S
C905 H882 0.950 . S
C905 C904 1.334 . S
C905 C906 1.287 . S
C906 C905 1.287 . S
C906 C907 1.524 . S
C906 H925 0.913 . S
C907 H883 0.950 . S
C907 C906 1.524 . S
C907 C908 1.415 . S
C908 H884 0.950 . S
C908 C903 1.363 . S
C908 C907 1.415 . S
C909 H885 0.951 . S
C909 C910 1.366 . S
C909 C911 1.388 . S
C910 C909 1.366 . S
C910 C914 1.385 . S
C911 H886 0.951 . S
C911 C909 1.388 . S
C911 C912 1.366 . S
C912 C911 1.366 . S
C912 C913 1.414 . S
C912 C915 1.499 . S
C913 H887 0.950 . S
C913 C912 1.414 . S
C913 C914 1.374 . S
C914 H888 0.950 . S
C914 C910 1.385 . S
C914 C913 1.374 . S
C915 C912 1.499 . S
C915 C916 1.373 . S
C915 C917 1.389 . S
C916 H889 0.950 . S
C916 C902 1.377 . S
C916 C915 1.373 . S
C917 C901 1.377 . S
C917 C915 1.389 . S
C917 C918 1.524 . S
C918 C917 1.524 . S
C918 C919 1.397 . S
C918 C923 1.363 . S
C919 H890 0.950 . S
C919 C918 1.397 . S
C919 C920 1.334 . S
C920 H891 0.950 . S
C920 C919 1.334 . S
C920 C921 1.287 . S
C921 C920 1.287 . S
C921 C922 1.524 . S
C921 H924 0.999 . S
C922 H892 0.950 . S
C922 C921 1.524 . S
C922 C923 1.415 . S
C923 H893 0.950 . S
C923 C918 1.363 . S
C923 C922 1.415 . S
H924 C921 0.999 . S
H925 C906 0.913 . S
H926 C944 0.951 . S
H927 C946 0.951 . S
H928 C948 0.950 . S
H929 C949 0.950 . S
H930 C951 0.950 . S
H931 C954 0.950 . S
H932 C955 0.950 . S
H933 C957 0.950 1_455 S
H934 C958 0.957 . S
H935 C959 0.951 . S
H936 C961 0.951 . S
H937 C963 0.950 . S
H938 C964 0.950 . S
H939 C966 0.950 . S
H940 C969 0.950 . S
H941 C970 0.950 . S
H942 C972 0.950 1_655 S
H943 C973 0.957 . S
C944 H926 0.951 . S
C944 C945 1.366 1_565 S
C944 C946 1.388 . S
C945 C944 1.366 1_545 S
C945 C949 1.385 . S
C946 H927 0.951 . S
C946 C944 1.388 . S
C946 C947 1.366 1_565 S
C947 C946 1.366 1_545 S
C947 C948 1.414 . S
C947 C950 1.499 . S
C948 H928 0.950 . S
C948 C947 1.414 . S
C948 C949 1.374 . S
C949 H929 0.950 . S
C949 C945 1.385 . S
C949 C948 1.374 . S
C950 C947 1.499 . S
C950 C951 1.373 1_556 S
C950 C952 1.411 1_545 S
C951 H930 0.950 . S
C951 C950 1.373 1_554 S
C951 C967 1.353 1_455 S
C952 C950 1.411 1_565 S
C952 C953 1.524 1_455 S
C952 C966 1.353 1_456 S
C953 C952 1.524 1_655 S
C953 C954 1.405 . S
C953 C958 1.360 1_655 S
C954 H931 0.950 . S
C954 C953 1.405 . S
C954 C955 1.334 . S
C955 H932 0.950 . S
C955 C954 1.334 . S
C955 C956 1.287 . S
C956 C955 1.287 . S
C956 C957 1.524 . S
C956 H975 0.913 . S
C957 H933 0.950 1_655 S
C957 C956 1.524 . S
C957 C958 1.412 1_655 S
C958 H934 0.957 . S
C958 C953 1.360 1_455 S
C958 C957 1.412 1_455 S
C959 H935 0.951 . S
C959 C960 1.366 . S
C959 C961 1.388 . S
C960 C959 1.366 . S
C960 C964 1.385 1_545 S
C961 H936 0.951 . S
C961 C959 1.388 . S
C961 C962 1.366 . S
C962 C961 1.366 . S
C962 C963 1.414 1_545 S
C962 C965 1.499 . S
C963 H937 0.950 . S
C963 C962 1.414 1_565 S
C963 C964 1.374 . S
C964 H938 0.950 . S
C964 C960 1.385 1_565 S
C964 C963 1.374 . S
C965 C962 1.499 . S
C965 C966 1.373 1_545 S
C965 C967 1.411 . S
C966 H939 0.950 . S
C966 C952 1.353 1_654 S
C966 C965 1.373 1_565 S
C967 C951 1.353 1_655 S
C967 C965 1.411 . S
C967 C968 1.524 1_655 S
C968 C967 1.524 1_455 S
C968 C969 1.405 . S
C968 C973 1.360 1_455 S
C969 H940 0.950 . S
C969 C968 1.405 . S
C969 C970 1.334 . S
C970 H941 0.950 . S
C970 C969 1.334 . S
C970 C971 1.287 . S
C971 C970 1.287 . S
C971 C972 1.524 . S
C971 H974 0.999 . S
C972 H942 0.950 1_455 S
C972 C971 1.524 . S
C972 C973 1.412 1_455 S
C973 H943 0.957 . S
C973 C968 1.360 1_655 S
C973 C972 1.412 1_655 S
H974 C971 0.999 . S
H975 C956 0.913 . S
H976 C994 0.951 . S
H977 C996 0.951 . S
H978 C998 0.950 . S
H979 C999 0.950 . S
H980 C1001 0.950 . S
H981 C1004 0.950 . S
H982 C1005 0.950 . S
H983 C1007 0.950 . S
H984 C1008 0.950 . S
H985 C1009 0.951 . S
H986 C1011 0.951 . S
H987 C1013 0.950 . S
H988 C1014 0.950 . S
H989 C1016 0.950 . S
H990 C1019 0.950 . S
H991 C1020 0.950 . S
H992 C1022 0.950 . S
H993 C1023 0.950 . S
C994 H976 0.951 . S
C994 C995 1.366 . S
C994 C996 1.388 . S
C995 C994 1.366 . S
C995 C999 1.385 . S
C996 H977 0.951 . S
C996 C994 1.388 . S
C996 C997 1.366 . S
C997 C996 1.366 . S
C997 C998 1.414 . S
C997 C1000 1.499 . S
C998 H978 0.950 . S
C998 C997 1.414 . S
C998 C999 1.374 . S
C999 H979 0.950 . S
C999 C995 1.385 . S
C999 C998 1.374 . S
C1000 C997 1.499 . S
C1000 C1001 1.373 . S
C1000 C1002 1.389 . S
C1001 H980 0.950 . S
C1001 C1000 1.373 . S
C1001 C1017 1.377 . S
C1002 C1000 1.389 . S
C1002 C1003 1.524 . S
C1002 C1016 1.377 . S
C1003 C1002 1.524 . S
C1003 C1004 1.397 . S
C1003 C1008 1.363 . S
C1004 H981 0.950 . S
C1004 C1003 1.397 . S
C1004 C1005 1.334 . S
C1005 H982 0.950 . S
C1005 C1004 1.334 . S
C1005 C1006 1.287 . S
C1006 C1005 1.287 . S
C1006 C1007 1.524 . S
C1006 H1025 0.913 . S
C1007 H983 0.950 . S
C1007 C1006 1.524 . S
C1007 C1008 1.415 . S
C1008 H984 0.950 . S
C1008 C1003 1.363 . S
C1008 C1007 1.415 . S
C1009 H985 0.951 . S
C1009 C1010 1.366 . S
C1009 C1011 1.388 . S
C1010 C1009 1.366 . S
C1010 C1014 1.385 . S
C1011 H986 0.951 . S
C1011 C1009 1.388 . S
C1011 C1012 1.366 . S
C1012 C1011 1.366 . S
C1012 C1013 1.414 . S
C1012 C1015 1.499 . S
C1013 H987 0.950 . S
C1013 C1012 1.414 . S
C1013 C1014 1.374 . S
C1014 H988 0.950 . S
C1014 C1010 1.385 . S
C1014 C1013 1.374 . S
C1015 C1012 1.499 . S
C1015 C1016 1.373 . S
C1015 C1017 1.389 . S
C1016 H989 0.950 . S
C1016 C1002 1.377 . S
C1016 C1015 1.373 . S
C1017 C1001 1.377 . S
C1017 C1015 1.389 . S
C1017 C1018 1.524 . S
C1018 C1017 1.524 . S
C1018 C1019 1.397 . S
C1018 C1023 1.363 . S
C1019 H990 0.950 . S
C1019 C1018 1.397 . S
C1019 C1020 1.334 . S
C1020 H991 0.950 . S
C1020 C1019 1.334 . S
C1020 C1021 1.287 . S
C1021 C1020 1.287 . S
C1021 C1022 1.524 . S
C1021 H1024 0.999 . S
C1022 H992 0.950 . S
C1022 C1021 1.524 . S
C1022 C1023 1.415 . S
C1023 H993 0.950 . S
C1023 C1018 1.363 . S
C1023 C1022 1.415 . S
H1024 C1021 0.999 . S
H1025 C1006 0.913 . S
H1026 C1044 0.951 . S
H1027 C1046 0.951 . S
H1028 C1048 0.950 . S
H1029 C1049 0.950 . S
H1030 C1051 0.950 . S
H1031 C1054 0.950 . S
H1032 C1055 0.950 . S
H1033 C1057 0.950 . S
H1034 C1058 0.950 . S
H1035 C1059 0.951 . S
H1036 C1061 0.951 . S
H1037 C1063 0.950 . S
H1038 C1064 0.950 . S
H1039 C1066 0.950 . S
H1040 C1069 0.950 . S
H1041 C1070 0.950 . S
H1042 C1072 0.950 . S
H1043 C1073 0.950 . S
C1044 H1026 0.951 . S
C1044 C1045 1.366 . S
C1044 C1046 1.388 . S
C1045 C1044 1.366 . S
C1045 C1049 1.385 . S
C1046 H1027 0.951 . S
C1046 C1044 1.388 . S
C1046 C1047 1.366 . S
C1047 C1046 1.366 . S
C1047 C1048 1.414 . S
C1047 C1050 1.499 . S
C1048 H1028 0.950 . S
C1048 C1047 1.414 . S
C1048 C1049 1.374 . S
C1049 H1029 0.950 . S
C1049 C1045 1.385 . S
C1049 C1048 1.374 . S
C1050 C1047 1.499 . S
C1050 C1051 1.373 . S
C1050 C1052 1.389 . S
C1051 H1030 0.950 . S
C1051 C1050 1.373 . S
C1051 C1067 1.377 . S
C1052 C1050 1.389 . S
C1052 C1053 1.524 . S
C1052 C1066 1.377 . S
C1053 C1052 1.524 . S
C1053 C1054 1.397 . S
C1053 C1058 1.363 . S
C1054 H1031 0.950 . S
C1054 C1053 1.397 . S
C1054 C1055 1.334 . S
C1055 H1032 0.950 . S
C1055 C1054 1.334 . S
C1055 C1056 1.287 . S
C1056 C1055 1.287 . S
C1056 C1057 1.524 . S
C1056 H1075 0.913 . S
C1057 H1033 0.950 . S
C1057 C1056 1.524 . S
C1057 C1058 1.415 . S
C1058 H1034 0.950 . S
C1058 C1053 1.363 . S
C1058 C1057 1.415 . S
C1059 H1035 0.951 . S
C1059 C1060 1.366 . S
C1059 C1061 1.388 . S
C1060 C1059 1.366 . S
C1060 C1064 1.385 . S
C1061 H1036 0.951 . S
C1061 C1059 1.388 . S
C1061 C1062 1.366 . S
C1062 C1061 1.366 . S
C1062 C1063 1.414 . S
C1062 C1065 1.499 . S
C1063 H1037 0.950 . S
C1063 C1062 1.414 . S
C1063 C1064 1.374 . S
C1064 H1038 0.950 . S
C1064 C1060 1.385 . S
C1064 C1063 1.374 . S
C1065 C1062 1.499 . S
C1065 C1066 1.373 . S
C1065 C1067 1.389 . S
C1066 H1039 0.950 . S
C1066 C1052 1.377 . S
C1066 C1065 1.373 . S
C1067 C1051 1.377 . S
C1067 C1065 1.389 . S
C1067 C1068 1.524 . S
C1068 C1067 1.524 . S
C1068 C1069 1.397 . S
C1068 C1073 1.363 . S
C1069 H1040 0.950 . S
C1069 C1068 1.397 . S
C1069 C1070 1.334 . S
C1070 H1041 0.950 . S
C1070 C1069 1.334 . S
C1070 C1071 1.287 . S
C1071 C1070 1.287 . S
C1071 C1072 1.524 . S
C1071 H1074 0.999 . S
C1072 H1042 0.950 . S
C1072 C1071 1.524 . S
C1072 C1073 1.415 . S
C1073 H1043 0.950 . S
C1073 C1068 1.363 . S
C1073 C1072 1.415 . S
H1074 C1071 0.999 . S
H1075 C1056 0.913 . S
H1076 C1094 0.951 . S
H1077 C1096 0.951 . S
H1078 C1098 0.950 . S
H1079 C1099 0.950 . S
H1080 C1101 0.950 . S
H1081 C1104 0.950 . S
H1082 C1105 0.950 . S
H1083 C1107 0.950 . S
H1084 C1108 0.950 . S
H1085 C1109 0.951 . S
H1086 C1111 0.951 . S
H1087 C1113 0.950 . S
H1088 C1114 0.950 . S
H1089 C1116 0.950 . S
H1090 C1119 0.950 . S
H1091 C1120 0.950 . S
H1092 C1122 0.950 . S
H1093 C1123 0.950 . S
C1094 H1076 0.951 . S
C1094 C1095 1.366 . S
C1094 C1096 1.388 . S
C1095 C1094 1.366 . S
C1095 C1099 1.385 . S
C1096 H1077 0.951 . S
C1096 C1094 1.388 . S
C1096 C1097 1.366 . S
C1097 C1096 1.366 . S
C1097 C1098 1.414 . S
C1097 C1100 1.499 . S
C1098 H1078 0.950 . S
C1098 C1097 1.414 . S
C1098 C1099 1.374 . S
C1099 H1079 0.950 . S
C1099 C1095 1.385 . S
C1099 C1098 1.374 . S
C1100 C1097 1.499 . S
C1100 C1101 1.373 . S
C1100 C1102 1.389 . S
C1101 H1080 0.950 . S
C1101 C1100 1.373 . S
C1101 C1117 1.377 . S
C1102 C1100 1.389 . S
C1102 C1103 1.524 . S
C1102 C1116 1.377 . S
C1103 C1102 1.524 . S
C1103 C1104 1.397 . S
C1103 C1108 1.363 . S
C1104 H1081 0.950 . S
C1104 C1103 1.397 . S
C1104 C1105 1.334 . S
C1105 H1082 0.950 . S
C1105 C1104 1.334 . S
C1105 C1106 1.287 . S
C1106 C1105 1.287 . S
C1106 C1107 1.524 . S
C1106 H1125 0.913 . S
C1107 H1083 0.950 . S
C1107 C1106 1.524 . S
C1107 C1108 1.415 . S
C1108 H1084 0.950 . S
C1108 C1103 1.363 . S
C1108 C1107 1.415 . S
C1109 H1085 0.951 . S
C1109 C1110 1.366 . S
C1109 C1111 1.388 . S
C1110 C1109 1.366 . S
C1110 C1114 1.385 . S
C1111 H1086 0.951 . S
C1111 C1109 1.388 . S
C1111 C1112 1.366 . S
C1112 C1111 1.366 . S
C1112 C1113 1.414 . S
C1112 C1115 1.499 . S
C1113 H1087 0.950 . S
C1113 C1112 1.414 . S
C1113 C1114 1.374 . S
C1114 H1088 0.950 . S
C1114 C1110 1.385 . S
C1114 C1113 1.374 . S
C1115 C1112 1.499 . S
C1115 C1116 1.373 . S
C1115 C1117 1.389 . S
C1116 H1089 0.950 . S
C1116 C1102 1.377 . S
C1116 C1115 1.373 . S
C1117 C1101 1.377 . S
C1117 C1115 1.389 . S
C1117 C1118 1.524 . S
C1118 C1117 1.524 . S
C1118 C1119 1.397 . S
C1118 C1123 1.363 . S
C1119 H1090 0.950 . S
C1119 C1118 1.397 . S
C1119 C1120 1.334 . S
C1120 H1091 0.950 . S
C1120 C1119 1.334 . S
C1120 C1121 1.287 . S
C1121 C1120 1.287 . S
C1121 C1122 1.524 . S
C1121 H1124 0.999 . S
C1122 H1092 0.950 . S
C1122 C1121 1.524 . S
C1122 C1123 1.415 . S
C1123 H1093 0.950 . S
C1123 C1118 1.363 . S
C1123 C1122 1.415 . S
H1124 C1121 0.999 . S
H1125 C1106 0.913 . S
H1126 C1144 0.951 . S
H1127 C1146 0.951 . S
H1128 C1148 0.950 . S
H1129 C1149 0.950 . S
H1130 C1151 0.950 . S
H1131 C1154 0.950 . S
H1132 C1155 0.950 . S
H1133 C1157 0.950 . S
H1134 C1158 0.950 . S
H1135 C1159 0.951 . S
H1136 C1161 0.951 . S
H1137 C1163 0.950 . S
H1138 C1164 0.950 . S
H1139 C1166 0.950 . S
H1140 C1169 0.950 . S
H1141 C1170 0.950 . S
H1142 C1172 0.950 . S
H1143 C1173 0.950 . S
C1144 H1126 0.951 . S
C1144 C1145 1.366 . S
C1144 C1146 1.388 . S
C1145 C1144 1.366 . S
C1145 C1149 1.385 . S
C1146 H1127 0.951 . S
C1146 C1144 1.388 . S
C1146 C1147 1.366 . S
C1147 C1146 1.366 . S
C1147 C1148 1.414 . S
C1147 C1150 1.499 . S
C1148 H1128 0.950 . S
C1148 C1147 1.414 . S
C1148 C1149 1.374 . S
C1149 H1129 0.950 . S
C1149 C1145 1.385 . S
C1149 C1148 1.374 . S
C1150 C1147 1.499 . S
C1150 C1151 1.373 . S
C1150 C1152 1.389 . S
C1151 H1130 0.950 . S
C1151 C1150 1.373 . S
C1151 C1167 1.377 . S
C1152 C1150 1.389 . S
C1152 C1153 1.524 . S
C1152 C1166 1.377 . S
C1153 C1152 1.524 . S
C1153 C1154 1.397 . S
C1153 C1158 1.363 . S
C1154 H1131 0.950 . S
C1154 C1153 1.397 . S
C1154 C1155 1.334 . S
C1155 H1132 0.950 . S
C1155 C1154 1.334 . S
C1155 C1156 1.287 . S
C1156 C1155 1.287 . S
C1156 C1157 1.524 . S
C1156 H1175 0.913 . S
C1157 H1133 0.950 . S
C1157 C1156 1.524 . S
C1157 C1158 1.415 . S
C1158 H1134 0.950 . S
C1158 C1153 1.363 . S
C1158 C1157 1.415 . S
C1159 H1135 0.951 . S
C1159 C1160 1.366 . S
C1159 C1161 1.388 . S
C1160 C1159 1.366 . S
C1160 C1164 1.385 . S
C1161 H1136 0.951 . S
C1161 C1159 1.388 . S
C1161 C1162 1.366 . S
C1162 C1161 1.366 . S
C1162 C1163 1.414 . S
C1162 C1165 1.499 . S
C1163 H1137 0.950 . S
C1163 C1162 1.414 . S
C1163 C1164 1.374 . S
C1164 H1138 0.950 . S
C1164 C1160 1.385 . S
C1164 C1163 1.374 . S
C1165 C1162 1.499 . S
C1165 C1166 1.373 . S
C1165 C1167 1.389 . S
C1166 H1139 0.950 . S
C1166 C1152 1.377 . S
C1166 C1165 1.373 . S
C1167 C1151 1.377 . S
C1167 C1165 1.389 . S
C1167 C1168 1.524 . S
C1168 C1167 1.524 . S
C1168 C1169 1.397 . S
C1168 C1173 1.363 . S
C1169 H1140 0.950 . S
C1169 C1168 1.397 . S
C1169 C1170 1.334 . S
C1170 H1141 0.950 . S
C1170 C1169 1.334 . S
C1170 C1171 1.287 . S
C1171 C1170 1.287 . S
C1171 C1172 1.524 . S
C1171 H1174 0.999 . S
C1172 H1142 0.950 . S
C1172 C1171 1.524 . S
C1172 C1173 1.415 . S
C1173 H1143 0.950 . S
C1173 C1168 1.363 . S
C1173 C1172 1.415 . S
H1174 C1171 0.999 . S
H1175 C1156 0.913 . S
H1176 C1194 0.951 . S
H1177 C1196 0.951 . S
H1178 C1198 0.950 . S
H1179 C1199 0.950 . S
H1180 C1201 0.950 . S
H1181 C1204 0.950 . S
H1182 C1205 0.950 . S
H1183 C1207 0.950 . S
H1184 C1208 0.950 . S
H1185 C1209 0.951 . S
H1186 C1211 0.951 . S
H1187 C1213 0.950 . S
H1188 C1214 0.950 . S
H1189 C1216 0.950 . S
H1190 C1219 0.950 . S
H1191 C1220 0.950 . S
H1192 C1222 0.950 . S
H1193 C1223 0.950 . S
C1194 H1176 0.951 . S
C1194 C1195 1.366 . S
C1194 C1196 1.388 . S
C1195 C1194 1.366 . S
C1195 C1199 1.385 . S
C1196 H1177 0.951 . S
C1196 C1194 1.388 . S
C1196 C1197 1.366 . S
C1197 C1196 1.366 . S
C1197 C1198 1.414 . S
C1197 C1200 1.499 . S
C1198 H1178 0.950 . S
C1198 C1197 1.414 . S
C1198 C1199 1.374 . S
C1199 H1179 0.950 . S
C1199 C1195 1.385 . S
C1199 C1198 1.374 . S
C1200 C1197 1.499 . S
C1200 C1201 1.373 . S
C1200 C1202 1.389 . S
C1201 H1180 0.950 . S
C1201 C1200 1.373 . S
C1201 C1217 1.377 . S
C1202 C1200 1.389 . S
C1202 C1203 1.524 . S
C1202 C1216 1.377 1_554 S
C1203 C1202 1.524 . S
C1203 C1204 1.397 . S
C1203 C1208 1.363 1_554 S
C1204 H1181 0.950 . S
C1204 C1203 1.397 . S
C1204 C1205 1.334 . S
C1205 H1182 0.950 . S
C1205 C1204 1.334 . S
C1205 C1206 1.267 1_554 S
C1206 C1205 1.267 1_556 S
C1206 C1207 1.542 . S
C1206 H1225 0.916 . S
C1207 H1183 0.950 . S
C1207 C1206 1.542 . S
C1207 C1208 1.415 . S
C1208 H1184 0.950 . S
C1208 C1203 1.363 1_556 S
C1208 C1207 1.415 . S
C1209 H1185 0.951 . S
C1209 C1210 1.366 . S
C1209 C1211 1.388 . S
C1210 C1209 1.366 . S
C1210 C1214 1.385 . S
C1211 H1186 0.951 . S
C1211 C1209 1.388 . S
C1211 C1212 1.366 . S
C1212 C1211 1.366 . S
C1212 C1213 1.414 . S
C1212 C1215 1.499 . S
C1213 H1187 0.950 . S
C1213 C1212 1.414 . S
C1213 C1214 1.374 . S
C1214 H1188 0.950 . S
C1214 C1210 1.385 . S
C1214 C1213 1.374 . S
C1215 C1212 1.499 . S
C1215 C1216 1.373 . S
C1215 C1217 1.389 1_556 S
C1216 H1189 0.950 . S
C1216 C1202 1.377 1_556 S
C1216 C1215 1.373 . S
C1217 C1201 1.377 . S
C1217 C1215 1.389 1_554 S
C1217 C1218 1.524 . S
C1218 C1217 1.524 . S
C1218 C1219 1.397 1_554 S
C1218 C1223 1.363 . S
C1219 H1190 0.950 . S
C1219 C1218 1.397 1_556 S
C1219 C1220 1.334 . S
C1220 H1191 0.950 . S
C1220 C1219 1.334 . S
C1220 C1221 1.287 1_556 S
C1221 C1220 1.287 1_554 S
C1221 C1222 1.524 . S
C1221 H1224 0.999 . S
C1222 H1192 0.950 . S
C1222 C1221 1.524 . S
C1222 C1223 1.415 . S
C1223 H1193 0.950 . S
C1223 C1218 1.363 . S
C1223 C1222 1.415 . S
H1224 C1221 0.999 . S
H1225 C1206 0.916 . S
H1226 C1244 0.951 . S
H1227 C1246 0.951 . S
H1228 C1248 0.950 . S
H1229 C1249 0.950 . S
H1230 C1251 0.950 . S
H1231 C1254 0.950 . S
H1232 C1255 0.950 . S
H1233 C1257 0.950 . S
H1234 C1258 0.950 . S
H1235 C1259 0.951 . S
H1236 C1261 0.951 . S
H1237 C1263 0.950 . S
H1238 C1264 0.950 . S
H1239 C1266 0.950 . S
H1240 C1269 0.950 . S
H1241 C1270 0.950 . S
H1242 C1272 0.950 . S
H1243 C1273 0.950 . S
C1244 H1226 0.951 . S
C1244 C1245 1.366 . S
C1244 C1246 1.388 . S
C1245 C1244 1.366 . S
C1245 C1249 1.385 . S
C1246 H1227 0.951 . S
C1246 C1244 1.388 . S
C1246 C1247 1.366 . S
C1247 C1246 1.366 . S
C1247 C1248 1.414 . S
C1247 C1250 1.499 . S
C1248 H1228 0.950 . S
C1248 C1247 1.414 . S
C1248 C1249 1.374 . S
C1249 H1229 0.950 . S
C1249 C1245 1.385 . S
C1249 C1248 1.374 . S
C1250 C1247 1.499 . S
C1250 C1251 1.373 1_455 S
C1250 C1252 1.389 . S
C1251 H1230 0.950 . S
C1251 C1250 1.373 1_655 S
C1251 C1267 1.377 . S
C1252 C1250 1.389 . S
C1252 C1253 1.524 . S
C1252 C1266 1.377 . S
C1253 C1252 1.524 . S
C1253 C1254 1.397 . S
C1253 C1258 1.363 . S
C1254 H1231 0.950 . S
C1254 C1253 1.397 . S
C1254 C1255 1.334 . S
C1255 H1232 0.950 . S
C1255 C1254 1.334 . S
C1255 C1256 1.287 . S
C1256 C1255 1.287 . S
C1256 C1257 1.524 . S
C1256 H1275 0.913 . S
C1257 H1233 0.950 . S
C1257 C1256 1.524 . S
C1257 C1258 1.415 . S
C1258 H1234 0.950 . S
C1258 C1253 1.363 . S
C1258 C1257 1.415 . S
C1259 H1235 0.951 . S
C1259 C1260 1.366 . S
C1259 C1261 1.388 . S
C1260 C1259 1.366 . S
C1260 C1264 1.385 . S
C1261 H1236 0.951 . S
C1261 C1259 1.388 . S
C1261 C1262 1.366 . S
C1262 C1261 1.366 . S
C1262 C1263 1.414 . S
C1262 C1265 1.499 . S
C1263 H1237 0.950 . S
C1263 C1262 1.414 . S
C1263 C1264 1.374 . S
C1264 H1238 0.950 . S
C1264 C1260 1.385 . S
C1264 C1263 1.374 . S
C1265 C1262 1.499 . S
C1265 C1266 1.373 1_655 S
C1265 C1267 1.389 . S
C1266 H1239 0.950 . S
C1266 C1252 1.377 . S
C1266 C1265 1.373 1_455 S
C1267 C1251 1.377 . S
C1267 C1265 1.389 . S
C1267 C1268 1.524 . S
C1268 C1267 1.524 . S
C1268 C1269 1.397 . S
C1268 C1273 1.363 . S
C1269 H1240 0.950 . S
C1269 C1268 1.397 . S
C1269 C1270 1.334 . S
C1270 H1241 0.950 . S
C1270 C1269 1.334 . S
C1270 C1271 1.287 . S
C1271 C1270 1.287 . S
C1271 C1272 1.524 . S
C1271 H1274 0.999 . S
C1272 H1242 0.950 . S
C1272 C1271 1.524 . S
C1272 C1273 1.415 . S
C1273 H1243 0.950 . S
C1273 C1268 1.363 . S
C1273 C1272 1.415 . S
H1274 C1271 0.999 . S
H1275 C1256 0.913 . S
H1276 C1294 0.951 . S
H1277 C1296 0.951 . S
H1278 C1298 0.950 . S
H1279 C1299 0.950 . S
H1280 C1301 0.950 1_655 S
H1281 C1304 0.950 . S
H1282 C1305 0.950 . S
H1283 C1307 0.950 . S
H1284 C1308 0.950 . S
H1285 C1309 0.951 . S
H1286 C1311 0.951 . S
H1287 C1313 0.950 . S
H1288 C1314 0.950 . S
H1289 C1316 0.950 1_455 S
H1290 C1319 0.950 . S
H1291 C1320 0.950 . S
H1292 C1322 0.950 . S
H1293 C1323 0.950 . S
C1294 H1276 0.951 . S
C1294 C1295 1.366 . S
C1294 C1296 1.388 . S
C1295 C1294 1.366 . S
C1295 C1299 1.385 . S
C1296 H1277 0.951 . S
C1296 C1294 1.388 . S
C1296 C1297 1.366 . S
C1297 C1296 1.366 . S
C1297 C1298 1.414 . S
C1297 C1300 1.499 . S
C1298 H1278 0.950 . S
C1298 C1297 1.414 . S
C1298 C1299 1.374 . S
C1299 H1279 0.950 . S
C1299 C1295 1.385 . S
C1299 C1298 1.374 . S
C1300 C1297 1.499 . S
C1300 C1301 1.372 . S
C1300 C1302 1.389 . S
C1301 H1280 0.950 1_455 S
C1301 C1300 1.372 . S
C1301 C1317 1.378 1_455 S
C1302 C1300 1.389 . S
C1302 C1303 1.524 . S
C1302 C1316 1.378 1_454 S
C1303 C1302 1.524 . S
C1303 C1304 1.397 . S
C1303 C1308 1.363 1_554 S
C1304 H1281 0.950 . S
C1304 C1303 1.397 . S
C1304 C1305 1.334 . S
C1305 H1282 0.950 . S
C1305 C1304 1.334 . S
C1305 C1306 1.287 . S
C1306 C1305 1.287 . S
C1306 C1307 1.524 1_554 S
C1306 H1325 0.913 . S
C1307 H1283 0.950 . S
C1307 C1306 1.524 1_556 S
C1307 C1308 1.415 . S
C1308 H1284 0.950 . S
C1308 C1303 1.363 1_556 S
C1308 C1307 1.415 . S
C1309 H1285 0.951 . S
C1309 C1310 1.366 . S
C1309 C1311 1.388 . S
C1310 C1309 1.366 . S
C1310 C1314 1.385 . S
C1311 H1286 0.951 . S
C1311 C1309 1.388 . S
C1311 C1312 1.366 . S
C1312 C1311 1.366 . S
C1312 C1313 1.414 . S
C1312 C1315 1.499 . S
C1313 H1287 0.950 . S
C1313 C1312 1.414 . S
C1313 C1314 1.374 . S
C1314 H1288 0.950 . S
C1314 C1310 1.385 . S
C1314 C1313 1.374 . S
C1315 C1312 1.499 . S
C1315 C1316 1.372 . S
C1315 C1317 1.389 1_556 S
C1316 H1289 0.950 1_655 S
C1316 C1302 1.378 1_656 S
C1316 C1315 1.372 . S
C1317 C1301 1.378 1_655 S
C1317 C1315 1.389 1_554 S
C1317 C1318 1.524 . S
C1318 C1317 1.524 . S
C1318 C1319 1.397 1_554 S
C1318 C1323 1.363 . S
C1319 H1290 0.950 . S
C1319 C1318 1.397 1_556 S
C1319 C1320 1.334 . S
C1320 H1291 0.950 . S
C1320 C1319 1.334 . S
C1320 C1321 1.302 . S
C1321 C1320 1.302 . S
C1321 C1322 1.508 1_556 S
C1321 H1324 0.999 . S
C1322 H1292 0.950 . S
C1322 C1321 1.508 1_554 S
C1322 C1323 1.415 . S
C1323 H1293 0.950 . S
C1323 C1318 1.363 . S
C1323 C1322 1.415 . S
H1324 C1321 0.999 . S
H1325 C1306 0.913 . S
H1326 C1344 0.951 . S
H1327 C1346 0.951 . S
H1328 C1348 0.950 . S
H1329 C1349 0.950 . S
H1330 C1351 0.950 . S
H1331 C1354 0.950 . S
H1332 C1355 0.950 . S
H1333 C1357 0.950 . S
H1334 C1358 0.950 . S
H1335 C1359 0.951 . S
H1336 C1361 0.951 . S
H1337 C1363 0.950 . S
H1338 C1364 0.950 . S
H1339 C1366 0.950 . S
H1340 C1369 0.950 . S
H1341 C1370 0.950 . S
H1342 C1372 0.950 . S
H1343 C1373 0.950 . S
C1344 H1326 0.951 . S
C1344 C1345 1.366 . S
C1344 C1346 1.388 . S
C1345 C1344 1.366 . S
C1345 C1349 1.385 . S
C1346 H1327 0.951 . S
C1346 C1344 1.388 . S
C1346 C1347 1.366 . S
C1347 C1346 1.366 . S
C1347 C1348 1.414 . S
C1347 C1350 1.499 . S
C1348 H1328 0.950 . S
C1348 C1347 1.414 . S
C1348 C1349 1.374 . S
C1349 H1329 0.950 . S
C1349 C1345 1.385 . S
C1349 C1348 1.374 . S
C1350 C1347 1.499 . S
C1350 C1351 1.373 . S
C1350 C1352 1.389 . S
C1351 H1330 0.950 . S
C1351 C1350 1.373 . S
C1351 C1367 1.377 . S
C1352 C1350 1.389 . S
C1352 C1353 1.524 . S
C1352 C1366 1.377 . S
C1353 C1352 1.524 . S
C1353 C1354 1.397 . S
C1353 C1358 1.363 . S
C1354 H1331 0.950 . S
C1354 C1353 1.397 . S
C1354 C1355 1.334 . S
C1355 H1332 0.950 . S
C1355 C1354 1.334 . S
C1355 C1356 1.287 . S
C1356 C1355 1.287 . S
C1356 C1357 1.524 . S
C1356 H1375 0.913 . S
C1357 H1333 0.950 . S
C1357 C1356 1.524 . S
C1357 C1358 1.415 . S
C1358 H1334 0.950 . S
C1358 C1353 1.363 . S
C1358 C1357 1.415 . S
C1359 H1335 0.951 . S
C1359 C1360 1.366 . S
C1359 C1361 1.388 . S
C1360 C1359 1.366 . S
C1360 C1364 1.385 . S
C1361 H1336 0.951 . S
C1361 C1359 1.388 . S
C1361 C1362 1.366 . S
C1362 C1361 1.366 . S
C1362 C1363 1.414 . S
C1362 C1365 1.499 . S
C1363 H1337 0.950 . S
C1363 C1362 1.414 . S
C1363 C1364 1.374 . S
C1364 H1338 0.950 . S
C1364 C1360 1.385 . S
C1364 C1363 1.374 . S
C1365 C1362 1.499 . S
C1365 C1366 1.373 . S
C1365 C1367 1.389 . S
C1366 H1339 0.950 . S
C1366 C1352 1.377 . S
C1366 C1365 1.373 . S
C1367 C1351 1.377 . S
C1367 C1365 1.389 . S
C1367 C1368 1.524 . S
C1368 C1367 1.524 . S
C1368 C1369 1.397 . S
C1368 C1373 1.363 . S
C1369 H1340 0.950 . S
C1369 C1368 1.397 . S
C1369 C1370 1.334 . S
C1370 H1341 0.950 . S
C1370 C1369 1.334 . S
C1370 C1371 1.287 . S
C1371 C1370 1.287 . S
C1371 C1372 1.524 . S
C1371 H1374 0.999 . S
C1372 H1342 0.950 . S
C1372 C1371 1.524 . S
C1372 C1373 1.415 . S
C1373 H1343 0.950 . S
C1373 C1368 1.363 . S
C1373 C1372 1.415 . S
H1374 C1371 0.999 . S
H1375 C1356 0.913 . S
H1376 C1394 0.951 . S
H1377 C1396 0.951 . S
H1378 C1398 0.950 . S
H1379 C1399 0.950 . S
H1380 C1401 0.950 . S
H1381 C1404 0.950 . S
H1382 C1405 0.950 . S
H1383 C1407 0.950 . S
H1384 C1408 0.950 . S
H1385 C1409 0.951 1_556 S
H1386 C1411 0.951 . S
H1387 C1413 0.950 . S
H1388 C1414 0.950 . S
H1389 C1416 0.950 . S
H1390 C1419 0.950 . S
H1391 C1420 0.950 . S
H1392 C1422 0.950 . S
H1393 C1423 0.948 1_554 S
C1394 H1376 0.951 . S
C1394 C1395 1.366 . S
C1394 C1396 1.388 . S
C1395 C1394 1.366 . S
C1395 C1399 1.385 . S
C1396 H1377 0.951 . S
C1396 C1394 1.388 . S
C1396 C1397 1.366 . S
C1397 C1396 1.366 . S
C1397 C1398 1.414 . S
C1397 C1400 1.499 . S
C1398 H1378 0.950 . S
C1398 C1397 1.414 . S
C1398 C1399 1.374 . S
C1399 H1379 0.950 . S
C1399 C1395 1.385 . S
C1399 C1398 1.374 . S
C1400 C1397 1.499 . S
C1400 C1401 1.373 . S
C1400 C1402 1.389 . S
C1401 H1380 0.950 . S
C1401 C1400 1.373 . S
C1401 C1417 1.377 . S
C1402 C1400 1.389 . S
C1402 C1403 1.524 . S
C1402 C1416 1.377 . S
C1403 C1402 1.524 . S
C1403 C1404 1.397 . S
C1403 C1408 1.363 . S
C1404 H1381 0.950 . S
C1404 C1403 1.397 . S
C1404 C1405 1.334 . S
C1405 H1382 0.950 . S
C1405 C1404 1.334 . S
C1405 C1406 1.287 . S
C1406 C1405 1.287 . S
C1406 C1407 1.524 . S
C1406 H1425 0.913 . S
C1407 H1383 0.950 . S
C1407 C1406 1.524 . S
C1407 C1408 1.415 . S
C1408 H1384 0.950 . S
C1408 C1403 1.363 . S
C1408 C1407 1.415 . S
C1409 H1385 0.951 1_554 S
C1409 C1410 1.366 . S
C1409 C1411 1.388 . S
C1410 C1409 1.366 . S
C1410 C1414 1.385 . S
C1411 H1386 0.951 . S
C1411 C1409 1.388 . S
C1411 C1412 1.366 . S
C1412 C1411 1.366 . S
C1412 C1413 1.414 . S
C1412 C1415 1.499 . S
C1413 H1387 0.950 . S
C1413 C1412 1.414 . S
C1413 C1414 1.374 . S
C1414 H1388 0.950 . S
C1414 C1410 1.385 . S
C1414 C1413 1.374 . S
C1415 C1412 1.499 . S
C1415 C1416 1.373 . S
C1415 C1417 1.389 . S
C1416 H1389 0.950 . S
C1416 C1402 1.377 . S
C1416 C1415 1.373 . S
C1417 C1401 1.377 . S
C1417 C1415 1.389 . S
C1417 C1418 1.524 . S
C1418 C1417 1.524 . S
C1418 C1419 1.397 . S
C1418 C1423 1.344 1_554 S
C1419 H1390 0.950 . S
C1419 C1418 1.397 . S
C1419 C1420 1.334 1_554 S
C1420 H1391 0.950 . S
C1420 C1419 1.334 1_556 S
C1420 C1421 1.287 . S
C1421 C1420 1.287 . S
C1421 C1422 1.524 . S
C1421 H1424 0.999 . S
C1422 H1392 0.950 . S
C1422 C1421 1.524 . S
C1422 C1423 1.436 . S
C1423 H1393 0.948 1_556 S
C1423 C1418 1.344 1_556 S
C1423 C1422 1.436 . S
H1424 C1421 0.999 . S
H1425 C1406 0.913 . S
H1426 C1444 0.951 . S
H1427 C1446 0.951 . S
H1428 C1448 0.950 . S
H1429 C1449 0.950 . S
H1430 C1451 0.950 . S
H1431 C1454 0.950 . S
H1432 C1455 0.950 . S
H1433 C1457 0.950 . S
H1434 C1458 0.950 . S
H1435 C1459 0.951 . S
H1436 C1461 0.951 . S
H1437 C1463 0.950 . S
H1438 C1464 0.950 . S
H1439 C1466 0.950 . S
H1440 C1469 0.950 . S
H1441 C1470 0.950 . S
H1442 C1472 0.950 . S
H1443 C1473 0.950 . S
C1444 H1426 0.951 . S
C1444 C1445 1.366 . S
C1444 C1446 1.388 . S
C1445 C1444 1.366 . S
C1445 C1449 1.385 . S
C1446 H1427 0.951 . S
C1446 C1444 1.388 . S
C1446 C1447 1.366 . S
C1447 C1446 1.366 . S
C1447 C1448 1.414 . S
C1447 C1450 1.499 . S
C1448 H1428 0.950 . S
C1448 C1447 1.414 . S
C1448 C1449 1.374 . S
C1449 H1429 0.950 . S
C1449 C1445 1.385 . S
C1449 C1448 1.374 . S
C1450 C1447 1.499 . S
C1450 C1451 1.373 . S
C1450 C1452 1.389 . S
C1451 H1430 0.950 . S
C1451 C1450 1.373 . S
C1451 C1467 1.377 . S
C1452 C1450 1.389 . S
C1452 C1453 1.524 . S
C1452 C1466 1.377 . S
C1453 C1452 1.524 . S
C1453 C1454 1.397 . S
C1453 C1458 1.363 . S
C1454 H1431 0.950 . S
C1454 C1453 1.397 . S
C1454 C1455 1.334 . S
C1455 H1432 0.950 . S
C1455 C1454 1.334 . S
C1455 C1456 1.287 . S
C1456 C1455 1.287 . S
C1456 C1457 1.524 . S
C1456 H1475 0.913 . S
C1457 H1433 0.950 . S
C1457 C1456 1.524 . S
C1457 C1458 1.415 . S
C1458 H1434 0.950 . S
C1458 C1453 1.363 . S
C1458 C1457 1.415 . S
C1459 H1435 0.951 . S
C1459 C1460 1.366 . S
C1459 C1461 1.388 . S
C1460 C1459 1.366 . S
C1460 C1464 1.385 . S
C1461 H1436 0.951 . S
C1461 C1459 1.388 . S
C1461 C1462 1.366 . S
C1462 C1461 1.366 . S
C1462 C1463 1.414 . S
C1462 C1465 1.499 . S
C1463 H1437 0.950 . S
C1463 C1462 1.414 . S
C1463 C1464 1.374 . S
C1464 H1438 0.950 . S
C1464 C1460 1.385 . S
C1464 C1463 1.374 . S
C1465 C1462 1.499 . S
C1465 C1466 1.373 . S
C1465 C1467 1.389 . S
C1466 H1439 0.950 . S
C1466 C1452 1.377 . S
C1466 C1465 1.373 . S
C1467 C1451 1.377 . S
C1467 C1465 1.389 . S
C1467 C1468 1.524 . S
C1468 C1467 1.524 . S
C1468 C1469 1.397 . S
C1468 C1473 1.363 . S
C1469 H1440 0.950 . S
C1469 C1468 1.397 . S
C1469 C1470 1.334 . S
C1470 H1441 0.950 . S
C1470 C1469 1.334 . S
C1470 C1471 1.287 . S
C1471 C1470 1.287 . S
C1471 C1472 1.524 . S
C1471 H1474 0.958 1_565 S
C1472 H1442 0.950 . S
C1472 C1471 1.524 . S
C1472 C1473 1.415 . S
C1473 H1443 0.950 . S
C1473 C1468 1.363 . S
C1473 C1472 1.415 . S
H1474 C1471 0.958 1_545 S
H1475 C1456 0.913 . S
H1476 C1494 0.951 . S
H1477 C1496 0.951 . S
H1478 C1498 0.950 . S
H1479 C1499 0.950 . S
H1480 C1501 0.950 . S
H1481 C1504 0.950 . S
H1482 C1505 0.950 . S
H1483 C1507 0.950 . S
H1484 C1508 0.950 . S
H1485 C1509 0.951 . S
H1486 C1511 0.951 . S
H1487 C1513 0.950 . S
H1488 C1514 0.950 . S
H1489 C1516 0.950 . S
H1490 C1519 0.950 . S
H1491 C1520 0.950 . S
H1492 C1522 0.950 . S
H1493 C1523 0.950 . S
C1494 H1476 0.951 . S
C1494 C1495 1.366 . S
C1494 C1496 1.388 . S
C1495 C1494 1.366 . S
C1495 C1499 1.385 . S
C1496 H1477 0.951 . S
C1496 C1494 1.388 . S
C1496 C1497 1.366 . S
C1497 C1496 1.366 . S
C1497 C1498 1.414 . S
C1497 C1500 1.499 . S
C1498 H1478 0.950 . S
C1498 C1497 1.414 . S
C1498 C1499 1.374 . S
C1499 H1479 0.950 . S
C1499 C1495 1.385 . S
C1499 C1498 1.374 . S
C1500 C1497 1.499 . S
C1500 C1501 1.373 . S
C1500 C1502 1.389 . S
C1501 H1480 0.950 . S
C1501 C1500 1.373 . S
C1501 C1517 1.377 . S
C1502 C1500 1.389 . S
C1502 C1503 1.524 . S
C1502 C1516 1.377 . S
C1503 C1502 1.524 . S
C1503 C1504 1.397 . S
C1503 C1508 1.363 . S
C1504 H1481 0.950 . S
C1504 C1503 1.397 . S
C1504 C1505 1.334 . S
C1505 H1482 0.950 . S
C1505 C1504 1.334 . S
C1505 C1506 1.287 . S
C1506 C1505 1.287 . S
C1506 C1507 1.524 . S
C1506 H1525 0.913 . S
C1507 H1483 0.950 . S
C1507 C1506 1.524 . S
C1507 C1508 1.415 . S
C1508 H1484 0.950 . S
C1508 C1503 1.363 . S
C1508 C1507 1.415 . S
C1509 H1485 0.951 . S
C1509 C1510 1.366 . S
C1509 C1511 1.388 . S
C1510 C1509 1.366 . S
C1510 C1514 1.385 . S
C1511 H1486 0.951 . S
C1511 C1509 1.388 . S
C1511 C1512 1.366 . S
C1512 C1511 1.366 . S
C1512 C1513 1.414 . S
C1512 C1515 1.499 . S
C1513 H1487 0.950 . S
C1513 C1512 1.414 . S
C1513 C1514 1.374 . S
C1514 H1488 0.950 . S
C1514 C1510 1.385 . S
C1514 C1513 1.374 . S
C1515 C1512 1.499 . S
C1515 C1516 1.373 . S
C1515 C1517 1.389 . S
C1516 H1489 0.950 . S
C1516 C1502 1.377 . S
C1516 C1515 1.373 . S
C1517 C1501 1.377 . S
C1517 C1515 1.389 . S
C1517 C1518 1.524 . S
C1518 C1517 1.524 . S
C1518 C1519 1.397 . S
C1518 C1523 1.363 . S
C1519 H1490 0.950 . S
C1519 C1518 1.397 . S
C1519 C1520 1.334 . S
C1520 H1491 0.950 . S
C1520 C1519 1.334 . S
C1520 C1521 1.287 . S
C1521 C1520 1.287 . S
C1521 C1522 1.524 . S
C1521 H1524 0.999 . S
C1522 H1492 0.950 . S
C1522 C1521 1.524 . S
C1522 C1523 1.415 . S
C1523 H1493 0.950 . S
C1523 C1518 1.363 . S
C1523 C1522 1.415 . S
H1524 C1521 0.999 . S
H1525 C1506 0.913 . S
H1526 C1544 0.951 . S
H1527 C1546 0.951 . S
H1528 C1548 0.950 . S
H1529 C1549 0.950 . S
H1530 C1551 0.950 . S
H1531 C1554 0.950 . S
H1532 C1555 0.950 . S
H1533 C1557 0.950 . S
H1534 C1558 0.950 . S
H1535 C1559 0.951 . S
H1536 C1561 0.951 . S
H1537 C1563 0.950 . S
H1538 C1564 0.950 . S
H1539 C1566 0.950 . S
H1540 C1569 0.950 . S
H1541 C1570 0.950 . S
H1542 C1572 0.950 1_554 S
H1543 C1573 0.950 . S
C1544 H1526 0.951 . S
C1544 C1545 1.366 . S
C1544 C1546 1.388 . S
C1545 C1544 1.366 . S
C1545 C1549 1.385 . S
C1546 H1527 0.951 . S
C1546 C1544 1.388 . S
C1546 C1547 1.366 . S
C1547 C1546 1.366 . S
C1547 C1548 1.414 . S
C1547 C1550 1.499 . S
C1548 H1528 0.950 . S
C1548 C1547 1.414 . S
C1548 C1549 1.374 . S
C1549 H1529 0.950 . S
C1549 C1545 1.385 . S
C1549 C1548 1.374 . S
C1550 C1547 1.499 . S
C1550 C1551 1.373 . S
C1550 C1552 1.389 . S
C1551 H1530 0.950 . S
C1551 C1550 1.373 . S
C1551 C1567 1.377 . S
C1552 C1550 1.389 . S
C1552 C1553 1.524 . S
C1552 C1566 1.377 . S
C1553 C1552 1.524 . S
C1553 C1554 1.397 . S
C1553 C1558 1.363 . S
C1554 H1531 0.950 . S
C1554 C1553 1.397 . S
C1554 C1555 1.334 . S
C1555 H1532 0.950 . S
C1555 C1554 1.334 . S
C1555 C1556 1.287 . S
C1556 C1555 1.287 . S
C1556 C1557 1.524 . S
C1556 H1575 0.913 . S
C1557 H1533 0.950 . S
C1557 C1556 1.524 . S
C1557 C1558 1.415 . S
C1558 H1534 0.950 . S
C1558 C1553 1.363 . S
C1558 C1557 1.415 . S
C1559 H1535 0.951 . S
C1559 C1560 1.366 . S
C1559 C1561 1.388 . S
C1560 C1559 1.366 . S
C1560 C1564 1.385 . S
C1561 H1536 0.951 . S
C1561 C1559 1.388 . S
C1561 C1562 1.366 . S
C1562 C1561 1.366 . S
C1562 C1563 1.414 . S
C1562 C1565 1.499 . S
C1563 H1537 0.950 . S
C1563 C1562 1.414 . S
C1563 C1564 1.374 . S
C1564 H1538 0.950 . S
C1564 C1560 1.385 . S
C1564 C1563 1.374 . S
C1565 C1562 1.499 . S
C1565 C1566 1.373 . S
C1565 C1567 1.389 . S
C1566 H1539 0.950 . S
C1566 C1552 1.377 . S
C1566 C1565 1.373 . S
C1567 C1551 1.377 . S
C1567 C1565 1.389 . S
C1567 C1568 1.524 . S
C1568 C1567 1.524 . S
C1568 C1569 1.397 . S
C1568 C1573 1.363 . S
C1569 H1540 0.950 . S
C1569 C1568 1.397 . S
C1569 C1570 1.334 . S
C1570 H1541 0.950 . S
C1570 C1569 1.334 . S
C1570 C1571 1.287 1_556 S
C1571 C1570 1.287 1_554 S
C1571 C1572 1.524 1_554 S
C1571 H1574 0.999 . S
C1572 H1542 0.950 1_556 S
C1572 C1571 1.524 1_556 S
C1572 C1573 1.415 . S
C1573 H1543 0.950 . S
C1573 C1568 1.363 . S
C1573 C1572 1.415 . S
H1574 C1571 0.999 . S
H1575 C1556 0.913 . S
H1576 C1594 0.951 . S
H1577 C1596 0.951 . S
H1578 C1598 0.950 . S
H1579 C1599 0.950 . S
H1580 C1601 0.950 . S
H1581 C1604 0.950 . S
H1582 C1605 0.950 . S
H1583 C1607 0.950 . S
H1584 C1608 0.950 . S
H1585 C1609 0.951 . S
H1586 C1611 0.951 . S
H1587 C1613 0.950 . S
H1588 C1614 0.950 . S
H1589 C1616 0.950 . S
H1590 C1619 0.950 . S
H1591 C1620 0.950 . S
H1592 C1622 0.950 . S
H1593 C1623 0.950 . S
C1594 H1576 0.951 . S
C1594 C1595 1.366 . S
C1594 C1596 1.388 . S
C1595 C1594 1.366 . S
C1595 C1599 1.385 . S
C1596 H1577 0.951 . S
C1596 C1594 1.388 . S
C1596 C1597 1.366 . S
C1597 C1596 1.366 . S
C1597 C1598 1.414 . S
C1597 C1600 1.499 . S
C1598 H1578 0.950 . S
C1598 C1597 1.414 . S
C1598 C1599 1.374 . S
C1599 H1579 0.950 . S
C1599 C1595 1.385 . S
C1599 C1598 1.374 . S
C1600 C1597 1.499 . S
C1600 C1601 1.373 . S
C1600 C1602 1.389 . S
C1601 H1580 0.950 . S
C1601 C1600 1.373 . S
C1601 C1617 1.377 . S
C1602 C1600 1.389 . S
C1602 C1603 1.524 . S
C1602 C1616 1.377 . S
C1603 C1602 1.524 . S
C1603 C1604 1.397 . S
C1603 C1608 1.363 . S
C1604 H1581 0.950 . S
C1604 C1603 1.397 . S
C1604 C1605 1.334 . S
C1605 H1582 0.950 . S
C1605 C1604 1.334 . S
C1605 C1606 1.287 . S
C1606 C1605 1.287 . S
C1606 C1607 1.524 . S
C1606 H1625 0.913 . S
C1607 H1583 0.950 . S
C1607 C1606 1.524 . S
C1607 C1608 1.415 . S
C1608 H1584 0.950 . S
C1608 C1603 1.363 . S
C1608 C1607 1.415 . S
C1609 H1585 0.951 . S
C1609 C1610 1.366 . S
C1609 C1611 1.388 . S
C1610 C1609 1.366 . S
C1610 C1614 1.385 . S
C1611 H1586 0.951 . S
C1611 C1609 1.388 . S
C1611 C1612 1.366 . S
C1612 C1611 1.366 . S
C1612 C1613 1.414 . S
C1612 C1615 1.499 . S
C1613 H1587 0.950 . S
C1613 C1612 1.414 . S
C1613 C1614 1.374 . S
C1614 H1588 0.950 . S
C1614 C1610 1.385 . S
C1614 C1613 1.374 . S
C1615 C1612 1.499 . S
C1615 C1616 1.373 . S
C1615 C1617 1.389 . S
C1616 H1589 0.950 . S
C1616 C1602 1.377 . S
C1616 C1615 1.373 . S
C1617 C1601 1.377 . S
C1617 C1615 1.389 . S
C1617 C1618 1.524 . S
C1618 C1617 1.524 . S
C1618 C1619 1.397 . S
C1618 C1623 1.363 . S
C1619 H1590 0.950 . S
C1619 C1618 1.397 . S
C1619 C1620 1.334 . S
C1620 H1591 0.950 . S
C1620 C1619 1.334 . S
C1620 C1621 1.287 . S
C1621 C1620 1.287 . S
C1621 C1622 1.524 . S
C1621 H1624 0.999 . S
C1622 H1592 0.950 . S
C1622 C1621 1.524 . S
C1622 C1623 1.415 . S
C1623 H1593 0.950 . S
C1623 C1618 1.363 . S
C1623 C1622 1.415 . S
H1624 C1621 0.999 . S
H1625 C1606 0.913 . S
H1626 C1644 0.951 . S
H1627 C1646 0.951 . S
H1628 C1648 0.950 . S
H1629 C1649 0.950 . S
H1630 C1651 0.950 . S
H1631 C1654 0.950 . S
H1632 C1655 0.950 . S
H1633 C1657 0.950 . S
H1634 C1658 0.950 . S
H1635 C1659 0.951 . S
H1636 C1661 0.951 . S
H1637 C1663 0.950 . S
H1638 C1664 0.950 . S
H1639 C1666 0.950 . S
H1640 C1669 0.950 . S
H1641 C1670 0.950 . S
H1642 C1672 0.950 . S
H1643 C1673 0.950 . S
C1644 H1626 0.951 . S
C1644 C1645 1.366 . S
C1644 C1646 1.388 . S
C1645 C1644 1.366 . S
C1645 C1649 1.385 . S
C1646 H1627 0.951 . S
C1646 C1644 1.388 . S
C1646 C1647 1.366 . S
C1647 C1646 1.366 . S
C1647 C1648 1.414 . S
C1647 C1650 1.499 . S
C1648 H1628 0.950 . S
C1648 C1647 1.414 . S
C1648 C1649 1.374 . S
C1649 H1629 0.950 . S
C1649 C1645 1.385 . S
C1649 C1648 1.374 . S
C1650 C1647 1.499 . S
C1650 C1651 1.373 . S
C1650 C1652 1.389 . S
C1651 H1630 0.950 . S
C1651 C1650 1.373 . S
C1651 C1667 1.377 . S
C1652 C1650 1.389 . S
C1652 C1653 1.524 . S
C1652 C1666 1.377 . S
C1653 C1652 1.524 . S
C1653 C1654 1.397 . S
C1653 C1658 1.363 . S
C1654 H1631 0.950 . S
C1654 C1653 1.397 . S
C1654 C1655 1.334 . S
C1655 H1632 0.950 . S
C1655 C1654 1.334 . S
C1655 C1656 1.287 . S
C1656 C1655 1.287 . S
C1656 C1657 1.524 . S
C1656 H1675 0.913 . S
C1657 H1633 0.950 . S
C1657 C1656 1.524 . S
C1657 C1658 1.415 . S
C1658 H1634 0.950 . S
C1658 C1653 1.363 . S
C1658 C1657 1.415 . S
C1659 H1635 0.951 . S
C1659 C1660 1.366 . S
C1659 C1661 1.388 . S
C1660 C1659 1.366 . S
C1660 C1664 1.385 . S
C1661 H1636 0.951 . S
C1661 C1659 1.388 . S
C1661 C1662 1.366 . S
C1662 C1661 1.366 . S
C1662 C1663 1.414 . S
C1662 C1665 1.499 . S
C1663 H1637 0.950 . S
C1663 C1662 1.414 . S
C1663 C1664 1.374 . S
C1664 H1638 0.950 . S
C1664 C1660 1.385 . S
C1664 C1663 1.374 . S
C1665 C1662 1.499 . S
C1665 C1666 1.373 . S
C1665 C1667 1.389 . S
C1666 H1639 0.950 . S
C1666 C1652 1.377 . S
C1666 C1665 1.373 . S
C1667 C1651 1.377 . S
C1667 C1665 1.389 . S
C1667 C1668 1.524 . S
C1668 C1667 1.524 . S
C1668 C1669 1.397 . S
C1668 C1673 1.363 . S
C1669 H1640 0.950 . S
C1669 C1668 1.397 . S
C1669 C1670 1.334 . S
C1670 H1641 0.950 . S
C1670 C1669 1.334 . S
C1670 C1671 1.287 . S
C1671 C1670 1.287 . S
C1671 C1672 1.524 . S
C1671 H1674 0.999 . S
C1672 H1642 0.950 . S
C1672 C1671 1.524 . S
C1672 C1673 1.415 . S
C1673 H1643 0.950 . S
C1673 C1668 1.363 . S
C1673 C1672 1.415 . S
H1674 C1671 0.999 . S
H1675 C1656 0.913 . S
H1676 C1694 0.951 . S
H1677 C1696 0.951 . S
H1678 C1698 0.950 . S
H1679 C1699 0.950 . S
H1680 C1701 0.950 . S
H1681 C1704 0.950 . S
H1682 C1705 0.950 . S
H1683 C1707 0.950 . S
H1684 C1708 0.950 . S
H1685 C1709 0.951 . S
H1686 C1711 0.951 . S
H1687 C1713 0.950 . S
H1688 C1714 0.950 . S
H1689 C1716 0.950 . S
H1690 C1719 0.950 . S
H1691 C1720 0.950 . S
H1692 C1722 0.950 . S
H1693 C1723 0.950 . S
C1694 H1676 0.951 . S
C1694 C1695 1.366 . S
C1694 C1696 1.388 . S
C1695 C1694 1.366 . S
C1695 C1699 1.385 . S
C1696 H1677 0.951 . S
C1696 C1694 1.388 . S
C1696 C1697 1.366 . S
C1697 C1696 1.366 . S
C1697 C1698 1.414 . S
C1697 C1700 1.499 . S
C1698 H1678 0.950 . S
C1698 C1697 1.414 . S
C1698 C1699 1.374 . S
C1699 H1679 0.950 . S
C1699 C1695 1.385 . S
C1699 C1698 1.374 . S
C1700 C1697 1.499 . S
C1700 C1701 1.373 . S
C1700 C1702 1.389 . S
C1701 H1680 0.950 . S
C1701 C1700 1.373 . S
C1701 C1717 1.377 . S
C1702 C1700 1.389 . S
C1702 C1703 1.524 . S
C1702 C1716 1.377 . S
C1703 C1702 1.524 . S
C1703 C1704 1.397 . S
C1703 C1708 1.363 . S
C1704 H1681 0.950 . S
C1704 C1703 1.397 . S
C1704 C1705 1.334 . S
C1705 H1682 0.950 . S
C1705 C1704 1.334 . S
C1705 C1706 1.287 1_556 S
C1706 C1705 1.287 1_554 S
C1706 C1707 1.524 . S
C1706 H1725 0.913 . S
C1707 H1683 0.950 . S
C1707 C1706 1.524 . S
C1707 C1708 1.415 1_554 S
C1708 H1684 0.950 . S
C1708 C1703 1.363 . S
C1708 C1707 1.415 1_556 S
C1709 H1685 0.951 . S
C1709 C1710 1.366 . S
C1709 C1711 1.388 . S
C1710 C1709 1.366 . S
C1710 C1714 1.385 . S
C1711 H1686 0.951 . S
C1711 C1709 1.388 . S
C1711 C1712 1.366 . S
C1712 C1711 1.366 . S
C1712 C1713 1.414 . S
C1712 C1715 1.499 . S
C1713 H1687 0.950 . S
C1713 C1712 1.414 . S
C1713 C1714 1.374 . S
C1714 H1688 0.950 . S
C1714 C1710 1.385 . S
C1714 C1713 1.374 . S
C1715 C1712 1.499 . S
C1715 C1716 1.373 . S
C1715 C1717 1.389 . S
C1716 H1689 0.950 . S
C1716 C1702 1.377 . S
C1716 C1715 1.373 . S
C1717 C1701 1.377 . S
C1717 C1715 1.389 . S
C1717 C1718 1.524 . S
C1718 C1717 1.524 . S
C1718 C1719 1.397 . S
C1718 C1723 1.363 . S
C1719 H1690 0.950 . S
C1719 C1718 1.397 . S
C1719 C1720 1.334 . S
C1720 H1691 0.950 . S
C1720 C1719 1.334 . S
C1720 C1721 1.287 . S
C1721 C1720 1.287 . S
C1721 C1722 1.524 . S
C1721 H1724 0.999 . S
C1722 H1692 0.950 . S
C1722 C1721 1.524 . S
C1722 C1723 1.415 . S
C1723 H1693 0.950 . S
C1723 C1718 1.363 . S
C1723 C1722 1.415 . S
H1724 C1721 0.999 . S
H1725 C1706 0.913 . S
H1726 C1744 0.951 . S
H1727 C1746 0.951 . S
H1728 C1748 0.950 . S
H1729 C1749 0.950 . S
H1730 C1751 0.950 . S
H1731 C1754 0.950 . S
H1732 C1755 0.950 . S
H1733 C1757 0.950 . S
H1734 C1758 0.950 . S
H1735 C1759 0.951 . S
H1736 C1761 0.951 . S
H1737 C1763 0.950 . S
H1738 C1764 0.950 . S
H1739 C1766 0.950 . S
H1740 C1769 0.950 . S
H1741 C1770 0.950 . S
H1742 C1772 0.950 . S
H1743 C1773 0.950 . S
C1744 H1726 0.951 . S
C1744 C1745 1.366 . S
C1744 C1746 1.388 . S
C1745 C1744 1.366 . S
C1745 C1749 1.385 . S
C1746 H1727 0.951 . S
C1746 C1744 1.388 . S
C1746 C1747 1.366 . S
C1747 C1746 1.366 . S
C1747 C1748 1.414 . S
C1747 C1750 1.499 . S
C1748 H1728 0.950 . S
C1748 C1747 1.414 . S
C1748 C1749 1.374 . S
C1749 H1729 0.950 . S
C1749 C1745 1.385 . S
C1749 C1748 1.374 . S
C1750 C1747 1.499 . S
C1750 C1751 1.373 . S
C1750 C1752 1.389 . S
C1751 H1730 0.950 . S
C1751 C1750 1.373 . S
C1751 C1767 1.377 . S
C1752 C1750 1.389 . S
C1752 C1753 1.524 . S
C1752 C1766 1.377 . S
C1753 C1752 1.524 . S
C1753 C1754 1.397 . S
C1753 C1758 1.363 . S
C1754 H1731 0.950 . S
C1754 C1753 1.397 . S
C1754 C1755 1.334 . S
C1755 H1732 0.950 . S
C1755 C1754 1.334 . S
C1755 C1756 1.287 . S
C1756 C1755 1.287 . S
C1756 C1757 1.524 1_554 S
C1756 H1775 0.913 1_554 S
C1757 H1733 0.950 . S
C1757 C1756 1.524 1_556 S
C1757 C1758 1.415 1_556 S
C1758 H1734 0.950 . S
C1758 C1753 1.363 . S
C1758 C1757 1.415 1_554 S
C1759 H1735 0.951 . S
C1759 C1760 1.366 . S
C1759 C1761 1.388 . S
C1760 C1759 1.366 . S
C1760 C1764 1.385 . S
C1761 H1736 0.951 . S
C1761 C1759 1.388 . S
C1761 C1762 1.366 . S
C1762 C1761 1.366 . S
C1762 C1763 1.414 . S
C1762 C1765 1.499 . S
C1763 H1737 0.950 . S
C1763 C1762 1.414 . S
C1763 C1764 1.374 . S
C1764 H1738 0.950 . S
C1764 C1760 1.385 . S
C1764 C1763 1.374 . S
C1765 C1762 1.499 . S
C1765 C1766 1.373 . S
C1765 C1767 1.389 . S
C1766 H1739 0.950 . S
C1766 C1752 1.377 . S
C1766 C1765 1.373 . S
C1767 C1751 1.377 . S
C1767 C1765 1.389 . S
C1767 C1768 1.524 . S
C1768 C1767 1.524 . S
C1768 C1769 1.397 . S
C1768 C1773 1.363 . S
C1769 H1740 0.950 . S
C1769 C1768 1.397 . S
C1769 C1770 1.334 . S
C1770 H1741 0.950 . S
C1770 C1769 1.334 . S
C1770 C1771 1.287 . S
C1771 C1770 1.287 . S
C1771 C1772 1.524 . S
C1771 H1774 0.999 . S
C1772 H1742 0.950 . S
C1772 C1771 1.524 . S
C1772 C1773 1.415 . S
C1773 H1743 0.950 . S
C1773 C1768 1.363 . S
C1773 C1772 1.415 . S
H1774 C1771 0.999 . S
H1775 C1756 0.913 1_556 S
H1776 C1794 0.951 . S
H1777 C1796 0.951 . S
H1778 C1798 0.950 . S
H1779 C1799 0.950 . S
H1780 C1801 0.950 . S
H1781 C1804 0.950 . S
H1782 C1805 0.950 . S
H1783 C1807 0.950 . S
H1784 C1808 0.950 1_556 S
H1785 C1809 0.951 . S
H1786 C1811 0.951 . S
H1787 C1813 0.950 . S
H1788 C1814 0.950 . S
H1789 C1816 0.950 . S
H1790 C1819 0.950 . S
H1791 C1820 0.950 . S
H1792 C1822 0.950 . S
H1793 C1823 0.950 . S
C1794 H1776 0.951 . S
C1794 C1795 1.366 . S
C1794 C1796 1.388 . S
C1795 C1794 1.366 . S
C1795 C1799 1.385 . S
C1796 H1777 0.951 . S
C1796 C1794 1.388 . S
C1796 C1797 1.366 . S
C1797 C1796 1.366 . S
C1797 C1798 1.414 . S
C1797 C1800 1.499 . S
C1798 H1778 0.950 . S
C1798 C1797 1.414 . S
C1798 C1799 1.374 . S
C1799 H1779 0.950 . S
C1799 C1795 1.385 . S
C1799 C1798 1.374 . S
C1800 C1797 1.499 . S
C1800 C1801 1.373 . S
C1800 C1802 1.389 . S
C1801 H1780 0.950 . S
C1801 C1800 1.373 . S
C1801 C1817 1.377 . S
C1802 C1800 1.389 . S
C1802 C1803 1.524 . S
C1802 C1816 1.377 . S
C1803 C1802 1.524 . S
C1803 C1804 1.397 1_556 S
C1803 C1808 1.363 1_556 S
C1804 H1781 0.950 . S
C1804 C1803 1.397 1_554 S
C1804 C1805 1.334 . S
C1805 H1782 0.950 . S
C1805 C1804 1.334 . S
C1805 C1806 1.287 . S
C1806 C1805 1.287 . S
C1806 C1807 1.524 . S
C1806 H1825 0.913 . S
C1807 H1783 0.950 . S
C1807 C1806 1.524 . S
C1807 C1808 1.415 . S
C1808 H1784 0.950 1_554 S
C1808 C1803 1.363 1_554 S
C1808 C1807 1.415 . S
C1809 H1785 0.951 . S
C1809 C1810 1.366 . S
C1809 C1811 1.388 . S
C1810 C1809 1.366 . S
C1810 C1814 1.385 . S
C1811 H1786 0.951 . S
C1811 C1809 1.388 . S
C1811 C1812 1.366 . S
C1812 C1811 1.366 . S
C1812 C1813 1.414 . S
C1812 C1815 1.499 . S
C1813 H1787 0.950 . S
C1813 C1812 1.414 . S
C1813 C1814 1.374 . S
C1814 H1788 0.950 . S
C1814 C1810 1.385 . S
C1814 C1813 1.374 . S
C1815 C1812 1.499 . S
C1815 C1816 1.373 . S
C1815 C1817 1.389 . S
C1816 H1789 0.950 . S
C1816 C1802 1.377 . S
C1816 C1815 1.373 . S
C1817 C1801 1.377 . S
C1817 C1815 1.389 . S
C1817 C1818 1.524 . S
C1818 C1817 1.524 . S
C1818 C1819 1.397 . S
C1818 C1823 1.363 . S
C1819 H1790 0.950 . S
C1819 C1818 1.397 . S
C1819 C1820 1.334 . S
C1820 H1791 0.950 . S
C1820 C1819 1.334 . S
C1820 C1821 1.287 . S
C1821 C1820 1.287 . S
C1821 C1822 1.524 . S
C1821 H1824 0.999 . S
C1822 H1792 0.950 . S
C1822 C1821 1.524 . S
C1822 C1823 1.415 . S
C1823 H1793 0.950 . S
C1823 C1818 1.363 . S
C1823 C1822 1.415 . S
H1824 C1821 0.999 . S
H1825 C1806 0.913 . S
H1826 C1844 0.951 . S
H1827 C1846 0.951 . S
H1828 C1848 0.950 . S
H1829 C1849 0.950 . S
H1830 C1851 0.950 . S
H1831 C1854 0.950 . S
H1832 C1855 0.950 . S
H1833 C1857 0.950 . S
H1834 C1858 0.950 . S
H1835 C1859 0.951 . S
H1836 C1861 0.951 . S
H1837 C1863 0.950 . S
H1838 C1864 0.950 . S
H1839 C1866 0.950 . S
H1840 C1869 0.950 . S
H1841 C1870 0.950 . S
H1842 C1872 0.950 . S
H1843 C1873 0.950 . S
C1844 H1826 0.951 . S
C1844 C1845 1.366 . S
C1844 C1846 1.388 . S
C1845 C1844 1.366 . S
C1845 C1849 1.385 . S
C1846 H1827 0.951 . S
C1846 C1844 1.388 . S
C1846 C1847 1.366 . S
C1847 C1846 1.366 . S
C1847 C1848 1.414 . S
C1847 C1850 1.499 . S
C1848 H1828 0.950 . S
C1848 C1847 1.414 . S
C1848 C1849 1.374 . S
C1849 H1829 0.950 . S
C1849 C1845 1.385 . S
C1849 C1848 1.374 . S
C1850 C1847 1.499 . S
C1850 C1851 1.373 . S
C1850 C1852 1.389 . S
C1851 H1830 0.950 . S
C1851 C1850 1.373 . S
C1851 C1867 1.377 . S
C1852 C1850 1.389 . S
C1852 C1853 1.524 . S
C1852 C1866 1.377 . S
C1853 C1852 1.524 . S
C1853 C1854 1.397 . S
C1853 C1858 1.363 . S
C1854 H1831 0.950 . S
C1854 C1853 1.397 . S
C1854 C1855 1.334 . S
C1855 H1832 0.950 . S
C1855 C1854 1.334 . S
C1855 C1856 1.287 . S
C1856 C1855 1.287 . S
C1856 C1857 1.524 . S
C1856 H1875 0.913 . S
C1857 H1833 0.950 . S
C1857 C1856 1.524 . S
C1857 C1858 1.415 . S
C1858 H1834 0.950 . S
C1858 C1853 1.363 . S
C1858 C1857 1.415 . S
C1859 H1835 0.951 . S
C1859 C1860 1.366 . S
C1859 C1861 1.388 . S
C1860 C1859 1.366 . S
C1860 C1864 1.385 . S
C1861 H1836 0.951 . S
C1861 C1859 1.388 . S
C1861 C1862 1.366 . S
C1862 C1861 1.366 . S
C1862 C1863 1.414 . S
C1862 C1865 1.499 . S
C1863 H1837 0.950 . S
C1863 C1862 1.414 . S
C1863 C1864 1.374 . S
C1864 H1838 0.950 . S
C1864 C1860 1.385 . S
C1864 C1863 1.374 . S
C1865 C1862 1.499 . S
C1865 C1866 1.373 . S
C1865 C1867 1.389 . S
C1866 H1839 0.950 . S
C1866 C1852 1.377 . S
C1866 C1865 1.373 . S
C1867 C1851 1.377 . S
C1867 C1865 1.389 . S
C1867 C1868 1.524 . S
C1868 C1867 1.524 . S
C1868 C1869 1.397 . S
C1868 C1873 1.363 . S
C1869 H1840 0.950 . S
C1869 C1868 1.397 . S
C1869 C1870 1.334 . S
C1870 H1841 0.950 . S
C1870 C1869 1.334 . S
C1870 C1871 1.287 . S
C1871 C1870 1.287 . S
C1871 C1872 1.524 . S
C1871 H1874 0.999 . S
C1872 H1842 0.950 . S
C1872 C1871 1.524 . S
C1872 C1873 1.415 . S
C1873 H1843 0.950 . S
C1873 C1868 1.363 . S
C1873 C1872 1.415 . S
H1874 C1871 0.999 . S
H1875 C1856 0.913 . S
H1876 C1894 0.951 . S
H1877 C1896 0.951 . S
H1878 C1898 0.950 . S
H1879 C1899 0.950 . S
H1880 C1901 0.950 . S
H1881 C1904 0.950 . S
H1882 C1905 0.950 . S
H1883 C1907 0.950 . S
H1884 C1908 0.950 . S
H1885 C1909 0.951 . S
H1886 C1911 0.951 . S
H1887 C1913 0.950 . S
H1888 C1914 0.950 . S
H1889 C1916 0.950 . S
H1890 C1919 0.950 . S
H1891 C1920 0.950 . S
H1892 C1922 0.950 . S
H1893 C1923 0.950 . S
C1894 H1876 0.951 . S
C1894 C1895 1.366 . S
C1894 C1896 1.388 . S
C1895 C1894 1.366 . S
C1895 C1899 1.385 . S
C1896 H1877 0.951 . S
C1896 C1894 1.388 . S
C1896 C1897 1.366 . S
C1897 C1896 1.366 . S
C1897 C1898 1.414 . S
C1897 C1900 1.499 . S
C1898 H1878 0.950 . S
C1898 C1897 1.414 . S
C1898 C1899 1.374 . S
C1899 H1879 0.950 . S
C1899 C1895 1.385 . S
C1899 C1898 1.374 . S
C1900 C1897 1.499 . S
C1900 C1901 1.373 . S
C1900 C1902 1.389 . S
C1901 H1880 0.950 . S
C1901 C1900 1.373 . S
C1901 C1917 1.377 . S
C1902 C1900 1.389 . S
C1902 C1903 1.524 . S
C1902 C1916 1.377 . S
C1903 C1902 1.524 . S
C1903 C1904 1.397 . S
C1903 C1908 1.363 . S
C1904 H1881 0.950 . S
C1904 C1903 1.397 . S
C1904 C1905 1.334 . S
C1905 H1882 0.950 . S
C1905 C1904 1.334 . S
C1905 C1906 1.287 . S
C1906 C1905 1.287 . S
C1906 C1907 1.524 . S
C1906 H1925 0.913 . S
C1907 H1883 0.950 . S
C1907 C1906 1.524 . S
C1907 C1908 1.415 . S
C1908 H1884 0.950 . S
C1908 C1903 1.363 . S
C1908 C1907 1.415 . S
C1909 H1885 0.951 . S
C1909 C1910 1.366 . S
C1909 C1911 1.388 . S
C1910 C1909 1.366 . S
C1910 C1914 1.385 . S
C1911 H1886 0.951 . S
C1911 C1909 1.388 . S
C1911 C1912 1.366 . S
C1912 C1911 1.366 . S
C1912 C1913 1.414 . S
C1912 C1915 1.499 . S
C1913 H1887 0.950 . S
C1913 C1912 1.414 . S
C1913 C1914 1.374 . S
C1914 H1888 0.950 . S
C1914 C1910 1.385 . S
C1914 C1913 1.374 . S
C1915 C1912 1.499 . S
C1915 C1916 1.373 . S
C1915 C1917 1.389 . S
C1916 H1889 0.950 . S
C1916 C1902 1.377 . S
C1916 C1915 1.373 . S
C1917 C1901 1.377 . S
C1917 C1915 1.389 . S
C1917 C1918 1.524 . S
C1918 C1917 1.524 . S
C1918 C1919 1.397 . S
C1918 C1923 1.363 . S
C1919 H1890 0.950 . S
C1919 C1918 1.397 . S
C1919 C1920 1.334 . S
C1920 H1891 0.950 . S
C1920 C1919 1.334 . S
C1920 C1921 1.287 . S
C1921 C1920 1.287 . S
C1921 C1922 1.524 . S
C1921 H1924 0.999 . S
C1922 H1892 0.950 . S
C1922 C1921 1.524 . S
C1922 C1923 1.415 . S
C1923 H1893 0.950 . S
C1923 C1918 1.363 . S
C1923 C1922 1.415 . S
H1924 C1921 0.999 . S
H1925 C1906 0.913 . S
H1926 C1944 0.951 . S
H1927 C1946 0.951 . S
H1928 C1948 0.950 . S
H1929 C1949 0.950 . S
H1930 C1951 0.950 . S
H1931 C1954 0.950 . S
H1932 C1955 0.950 . S
H1933 C1957 0.950 . S
H1934 C1958 0.950 . S
H1935 C1959 0.951 . S
H1936 C1961 0.951 . S
H1937 C1963 0.950 . S
H1938 C1964 0.950 . S
H1939 C1966 0.950 . S
H1940 C1969 0.950 . S
H1941 C1970 0.950 . S
H1942 C1972 0.950 . S
H1943 C1973 0.950 . S
C1944 H1926 0.951 . S
C1944 C1945 1.366 . S
C1944 C1946 1.388 . S
C1945 C1944 1.366 . S
C1945 C1949 1.385 . S
C1946 H1927 0.951 . S
C1946 C1944 1.388 . S
C1946 C1947 1.366 . S
C1947 C1946 1.366 . S
C1947 C1948 1.414 . S
C1947 C1950 1.499 . S
C1948 H1928 0.950 . S
C1948 C1947 1.414 . S
C1948 C1949 1.374 . S
C1949 H1929 0.950 . S
C1949 C1945 1.385 . S
C1949 C1948 1.374 . S
C1950 C1947 1.499 . S
C1950 C1951 1.373 . S
C1950 C1952 1.389 . S
C1951 H1930 0.950 . S
C1951 C1950 1.373 . S
C1951 C1967 1.377 . S
C1952 C1950 1.389 . S
C1952 C1953 1.524 . S
C1952 C1966 1.377 . S
C1953 C1952 1.524 . S
C1953 C1954 1.397 . S
C1953 C1958 1.363 . S
C1954 H1931 0.950 . S
C1954 C1953 1.397 . S
C1954 C1955 1.334 . S
C1955 H1932 0.950 . S
C1955 C1954 1.334 . S
C1955 C1956 1.287 . S
C1956 C1955 1.287 . S
C1956 C1957 1.524 . S
C1956 H1975 0.913 . S
C1957 H1933 0.950 . S
C1957 C1956 1.524 . S
C1957 C1958 1.415 . S
C1958 H1934 0.950 . S
C1958 C1953 1.363 . S
C1958 C1957 1.415 . S
C1959 H1935 0.951 . S
C1959 C1960 1.366 . S
C1959 C1961 1.388 . S
C1960 C1959 1.366 . S
C1960 C1964 1.385 . S
C1961 H1936 0.951 . S
C1961 C1959 1.388 . S
C1961 C1962 1.366 . S
C1962 C1961 1.366 . S
C1962 C1963 1.414 . S
C1962 C1965 1.499 . S
C1963 H1937 0.950 . S
C1963 C1962 1.414 . S
C1963 C1964 1.374 . S
C1964 H1938 0.950 . S
C1964 C1960 1.385 . S
C1964 C1963 1.374 . S
C1965 C1962 1.499 . S
C1965 C1966 1.373 . S
C1965 C1967 1.389 . S
C1966 H1939 0.950 . S
C1966 C1952 1.377 . S
C1966 C1965 1.373 . S
C1967 C1951 1.377 . S
C1967 C1965 1.389 . S
C1967 C1968 1.524 . S
C1968 C1967 1.524 . S
C1968 C1969 1.397 . S
C1968 C1973 1.363 . S
C1969 H1940 0.950 . S
C1969 C1968 1.397 . S
C1969 C1970 1.334 1_554 S
C1970 H1941 0.950 . S
C1970 C1969 1.334 1_556 S
C1970 C1971 1.287 . S
C1971 C1970 1.287 . S
C1971 C1972 1.524 . S
C1971 H1974 0.999 . S
C1972 H1942 0.950 . S
C1972 C1971 1.524 . S
C1972 C1973 1.415 1_556 S
C1973 H1943 0.950 . S
C1973 C1968 1.363 . S
C1973 C1972 1.415 1_554 S
H1974 C1971 0.999 . S
H1975 C1956 0.913 . S
H1976 C1994 0.951 . S
H1977 C1996 0.951 . S
H1978 C1998 0.950 . S
H1979 C1999 0.950 . S
H1980 C2001 0.950 . S
H1981 C2004 0.950 . S
H1982 C2005 0.950 . S
H1983 C2007 0.950 . S
H1984 C2008 0.950 . S
H1985 C2009 0.951 . S
H1986 C2011 0.951 . S
H1987 C2013 0.950 . S
H1988 C2014 0.950 . S
H1989 C2016 0.950 . S
H1990 C2019 0.950 . S
H1991 C2020 0.950 . S
H1992 C2022 0.950 . S
H1993 C2023 0.950 . S
C1994 H1976 0.951 . S
C1994 C1995 1.366 . S
C1994 C1996 1.388 . S
C1995 C1994 1.366 . S
C1995 C1999 1.385 . S
C1996 H1977 0.951 . S
C1996 C1994 1.388 . S
C1996 C1997 1.366 . S
C1997 C1996 1.366 . S
C1997 C1998 1.414 . S
C1997 C2000 1.499 . S
C1998 H1978 0.950 . S
C1998 C1997 1.414 . S
C1998 C1999 1.374 . S
C1999 H1979 0.950 . S
C1999 C1995 1.385 . S
C1999 C1998 1.374 . S
C2000 C1997 1.499 . S
C2000 C2001 1.373 . S
C2000 C2002 1.389 . S
C2001 H1980 0.950 . S
C2001 C2000 1.373 . S
C2001 C2017 1.377 . S
C2002 C2000 1.389 . S
C2002 C2003 1.524 . S
C2002 C2016 1.377 . S
C2003 C2002 1.524 . S
C2003 C2004 1.397 . S
C2003 C2008 1.363 . S
C2004 H1981 0.950 . S
C2004 C2003 1.397 . S
C2004 C2005 1.334 . S
C2005 H1982 0.950 . S
C2005 C2004 1.334 . S
C2005 C2006 1.287 . S
C2006 C2005 1.287 . S
C2006 C2007 1.524 . S
C2006 H2025 0.913 . S
C2007 H1983 0.950 . S
C2007 C2006 1.524 . S
C2007 C2008 1.415 . S
C2008 H1984 0.950 . S
C2008 C2003 1.363 . S
C2008 C2007 1.415 . S
C2009 H1985 0.951 . S
C2009 C2010 1.366 . S
C2009 C2011 1.388 . S
C2010 C2009 1.366 . S
C2010 C2014 1.385 . S
C2011 H1986 0.951 . S
C2011 C2009 1.388 . S
C2011 C2012 1.366 . S
C2012 C2011 1.366 . S
C2012 C2013 1.414 . S
C2012 C2015 1.499 . S
C2013 H1987 0.950 . S
C2013 C2012 1.414 . S
C2013 C2014 1.374 . S
C2014 H1988 0.950 . S
C2014 C2010 1.385 . S
C2014 C2013 1.374 . S
C2015 C2012 1.499 . S
C2015 C2016 1.373 . S
C2015 C2017 1.389 . S
C2016 H1989 0.950 . S
C2016 C2002 1.377 . S
C2016 C2015 1.373 . S
C2017 C2001 1.377 . S
C2017 C2015 1.389 . S
C2017 C2018 1.524 . S
C2018 C2017 1.524 . S
C2018 C2019 1.397 . S
C2018 C2023 1.363 . S
C2019 H1990 0.950 . S
C2019 C2018 1.397 . S
C2019 C2020 1.334 . S
C2020 H1991 0.950 . S
C2020 C2019 1.334 . S
C2020 C2021 1.287 . S
C2021 C2020 1.287 . S
C2021 C2022 1.524 . S
C2021 H2024 0.999 . S
C2022 H1992 0.950 . S
C2022 C2021 1.524 . S
C2022 C2023 1.415 . S
C2023 H1993 0.950 . S
C2023 C2018 1.363 . S
C2023 C2022 1.415 . S
H2024 C2021 0.999 . S
H2025 C2006 0.913 . S
H2026 C2044 0.951 . S
H2027 C2046 0.951 . S
H2028 C2048 0.950 . S
H2029 C2049 0.950 . S
H2030 C2051 0.950 . S
H2031 C2054 0.950 . S
H2032 C2055 0.950 . S
H2033 C2057 0.950 . S
H2034 C2058 0.950 . S
H2035 C2059 0.951 . S
H2036 C2061 0.951 . S
H2037 C2063 0.950 . S
H2038 C2064 0.950 . S
H2039 C2066 0.950 . S
H2040 C2069 0.950 . S
H2041 C2070 0.950 . S
H2042 C2072 0.950 . S
H2043 C2073 0.950 . S
C2044 H2026 0.951 . S
C2044 C2045 1.366 . S
C2044 C2046 1.388 . S
C2045 C2044 1.366 . S
C2045 C2049 1.385 . S
C2046 H2027 0.951 . S
C2046 C2044 1.388 . S
C2046 C2047 1.366 . S
C2047 C2046 1.366 . S
C2047 C2048 1.414 . S
C2047 C2050 1.499 . S
C2048 H2028 0.950 . S
C2048 C2047 1.414 . S
C2048 C2049 1.374 . S
C2049 H2029 0.950 . S
C2049 C2045 1.385 . S
C2049 C2048 1.374 . S
C2050 C2047 1.499 . S
C2050 C2051 1.373 . S
C2050 C2052 1.389 . S
C2051 H2030 0.950 . S
C2051 C2050 1.373 . S
C2051 C2067 1.377 . S
C2052 C2050 1.389 . S
C2052 C2053 1.524 . S
C2052 C2066 1.377 . S
C2053 C2052 1.524 . S
C2053 C2054 1.397 . S
C2053 C2058 1.363 . S
C2054 H2031 0.950 . S
C2054 C2053 1.397 . S
C2054 C2055 1.334 . S
C2055 H2032 0.950 . S
C2055 C2054 1.334 . S
C2055 C2056 1.287 . S
C2056 C2055 1.287 . S
C2056 C2057 1.524 . S
C2056 H2075 0.913 . S
C2057 H2033 0.950 . S
C2057 C2056 1.524 . S
C2057 C2058 1.415 . S
C2058 H2034 0.950 . S
C2058 C2053 1.363 . S
C2058 C2057 1.415 . S
C2059 H2035 0.951 . S
C2059 C2060 1.366 . S
C2059 C2061 1.388 . S
C2060 C2059 1.366 . S
C2060 C2064 1.385 . S
C2061 H2036 0.951 . S
C2061 C2059 1.388 . S
C2061 C2062 1.366 . S
C2062 C2061 1.366 . S
C2062 C2063 1.414 . S
C2062 C2065 1.499 . S
C2063 H2037 0.950 . S
C2063 C2062 1.414 . S
C2063 C2064 1.374 . S
C2064 H2038 0.950 . S
C2064 C2060 1.385 . S
C2064 C2063 1.374 . S
C2065 C2062 1.499 . S
C2065 C2066 1.373 . S
C2065 C2067 1.389 . S
C2066 H2039 0.950 . S
C2066 C2052 1.377 . S
C2066 C2065 1.373 . S
C2067 C2051 1.377 . S
C2067 C2065 1.389 . S
C2067 C2068 1.524 . S
C2068 C2067 1.524 . S
C2068 C2069 1.397 . S
C2068 C2073 1.363 . S
C2069 H2040 0.950 . S
C2069 C2068 1.397 . S
C2069 C2070 1.334 . S
C2070 H2041 0.950 . S
C2070 C2069 1.334 . S
C2070 C2071 1.287 . S
C2071 C2070 1.287 . S
C2071 C2072 1.524 . S
C2071 H2074 0.999 . S
C2072 H2042 0.950 . S
C2072 C2071 1.524 . S
C2072 C2073 1.415 . S
C2073 H2043 0.950 . S
C2073 C2068 1.363 . S
C2073 C2072 1.415 . S
H2074 C2071 0.999 . S
H2075 C2056 0.913 . S
H2076 C2094 0.951 . S
H2077 C2096 0.951 . S
H2078 C2098 0.950 . S
H2079 C2099 0.950 . S
H2080 C2101 0.950 . S
H2081 C2104 0.950 . S
H2082 C2105 0.950 . S
H2083 C2107 0.950 . S
H2084 C2108 0.950 . S
H2085 C2109 0.951 . S
H2086 C2111 0.951 . S
H2087 C2113 0.950 . S
H2088 C2114 0.950 . S
H2089 C2116 0.950 . S
H2090 C2119 0.950 . S
H2091 C2120 0.950 . S
H2092 C2122 0.950 . S
H2093 C2123 0.950 . S
C2094 H2076 0.951 . S
C2094 C2095 1.366 . S
C2094 C2096 1.388 . S
C2095 C2094 1.366 . S
C2095 C2099 1.385 . S
C2096 H2077 0.951 . S
C2096 C2094 1.388 . S
C2096 C2097 1.366 . S
C2097 C2096 1.366 . S
C2097 C2098 1.414 . S
C2097 C2100 1.499 . S
C2098 H2078 0.950 . S
C2098 C2097 1.414 . S
C2098 C2099 1.374 . S
C2099 H2079 0.950 . S
C2099 C2095 1.385 . S
C2099 C2098 1.374 . S
C2100 C2097 1.499 . S
C2100 C2101 1.373 . S
C2100 C2102 1.389 . S
C2101 H2080 0.950 . S
C2101 C2100 1.373 . S
C2101 C2117 1.377 . S
C2102 C2100 1.389 . S
C2102 C2103 1.524 . S
C2102 C2116 1.377 . S
C2103 C2102 1.524 . S
C2103 C2104 1.397 . S
C2103 C2108 1.363 . S
C2104 H2081 0.950 . S
C2104 C2103 1.397 . S
C2104 C2105 1.334 . S
C2105 H2082 0.950 . S
C2105 C2104 1.334 . S
C2105 C2106 1.287 . S
C2106 C2105 1.287 . S
C2106 C2107 1.524 . S
C2106 H2125 0.913 . S
C2107 H2083 0.950 . S
C2107 C2106 1.524 . S
C2107 C2108 1.415 . S
C2108 H2084 0.950 . S
C2108 C2103 1.363 . S
C2108 C2107 1.415 . S
C2109 H2085 0.951 . S
C2109 C2110 1.366 . S
C2109 C2111 1.388 . S
C2110 C2109 1.366 . S
C2110 C2114 1.385 . S
C2111 H2086 0.951 . S
C2111 C2109 1.388 . S
C2111 C2112 1.366 . S
C2112 C2111 1.366 . S
C2112 C2113 1.414 . S
C2112 C2115 1.499 . S
C2113 H2087 0.950 . S
C2113 C2112 1.414 . S
C2113 C2114 1.374 . S
C2114 H2088 0.950 . S
C2114 C2110 1.385 . S
C2114 C2113 1.374 . S
C2115 C2112 1.499 . S
C2115 C2116 1.373 . S
C2115 C2117 1.389 . S
C2116 H2089 0.950 . S
C2116 C2102 1.377 . S
C2116 C2115 1.373 . S
C2117 C2101 1.377 . S
C2117 C2115 1.389 . S
C2117 C2118 1.524 . S
C2118 C2117 1.524 . S
C2118 C2119 1.397 . S
C2118 C2123 1.363 . S
C2119 H2090 0.950 . S
C2119 C2118 1.397 . S
C2119 C2120 1.334 1_554 S
C2120 H2091 0.950 . S
C2120 C2119 1.334 1_556 S
C2120 C2121 1.287 . S
C2121 C2120 1.287 . S
C2121 C2122 1.524 . S
C2121 H2124 0.999 . S
C2122 H2092 0.950 . S
C2122 C2121 1.524 . S
C2122 C2123 1.415 1_556 S
C2123 H2093 0.950 . S
C2123 C2118 1.363 . S
C2123 C2122 1.415 1_554 S
H2124 C2121 0.999 . S
H2125 C2106 0.913 . S
H2126 C2144 0.951 . S
H2127 C2146 0.951 . S
H2128 C2148 0.950 . S
H2129 C2149 0.950 . S
H2130 C2151 0.950 . S
H2131 C2154 0.950 . S
H2132 C2155 0.950 . S
H2133 C2157 0.950 . S
H2134 C2158 0.950 . S
H2135 C2159 0.951 . S
H2136 C2161 0.951 . S
H2137 C2163 0.950 . S
H2138 C2164 0.950 . S
H2139 C2166 0.950 . S
H2140 C2169 0.950 . S
H2141 C2170 0.950 . S
H2142 C2172 0.950 . S
H2143 C2173 0.950 . S
C2144 H2126 0.951 . S
C2144 C2145 1.366 . S
C2144 C2146 1.388 . S
C2145 C2144 1.366 . S
C2145 C2149 1.385 . S
C2146 H2127 0.951 . S
C2146 C2144 1.388 . S
C2146 C2147 1.366 . S
C2147 C2146 1.366 . S
C2147 C2148 1.414 . S
C2147 C2150 1.499 . S
C2148 H2128 0.950 . S
C2148 C2147 1.414 . S
C2148 C2149 1.374 . S
C2149 H2129 0.950 . S
C2149 C2145 1.385 . S
C2149 C2148 1.374 . S
C2150 C2147 1.499 . S
C2150 C2151 1.373 . S
C2150 C2152 1.389 . S
C2151 H2130 0.950 . S
C2151 C2150 1.373 . S
C2151 C2167 1.377 . S
C2152 C2150 1.389 . S
C2152 C2153 1.524 . S
C2152 C2166 1.377 . S
C2153 C2152 1.524 . S
C2153 C2154 1.397 . S
C2153 C2158 1.363 . S
C2154 H2131 0.950 . S
C2154 C2153 1.397 . S
C2154 C2155 1.334 . S
C2155 H2132 0.950 . S
C2155 C2154 1.334 . S
C2155 C2156 1.287 . S
C2156 C2155 1.287 . S
C2156 C2157 1.524 . S
C2156 H2175 0.913 . S
C2157 H2133 0.950 . S
C2157 C2156 1.524 . S
C2157 C2158 1.415 . S
C2158 H2134 0.950 . S
C2158 C2153 1.363 . S
C2158 C2157 1.415 . S
C2159 H2135 0.951 . S
C2159 C2160 1.366 . S
C2159 C2161 1.388 . S
C2160 C2159 1.366 . S
C2160 C2164 1.385 . S
C2161 H2136 0.951 . S
C2161 C2159 1.388 . S
C2161 C2162 1.366 . S
C2162 C2161 1.366 . S
C2162 C2163 1.414 . S
C2162 C2165 1.499 . S
C2163 H2137 0.950 . S
C2163 C2162 1.414 . S
C2163 C2164 1.374 . S
C2164 H2138 0.950 . S
C2164 C2160 1.385 . S
C2164 C2163 1.374 . S
C2165 C2162 1.499 . S
C2165 C2166 1.373 . S
C2165 C2167 1.389 . S
C2166 H2139 0.950 . S
C2166 C2152 1.377 . S
C2166 C2165 1.373 . S
C2167 C2151 1.377 . S
C2167 C2165 1.389 . S
C2167 C2168 1.524 . S
C2168 C2167 1.524 . S
C2168 C2169 1.397 . S
C2168 C2173 1.363 . S
C2169 H2140 0.950 . S
C2169 C2168 1.397 . S
C2169 C2170 1.334 . S
C2170 H2141 0.950 . S
C2170 C2169 1.334 . S
C2170 C2171 1.287 . S
C2171 C2170 1.287 . S
C2171 C2172 1.524 . S
C2171 H2174 0.999 1_565 S
C2172 H2142 0.950 . S
C2172 C2171 1.524 . S
C2172 C2173 1.415 . S
C2173 H2143 0.950 . S
C2173 C2168 1.363 . S
C2173 C2172 1.415 . S
H2174 C2171 0.999 1_545 S
H2175 C2156 0.913 . S
C595 C3 1.313 . S
C610 C435 1.313 . S
C645 C38 1.256 . S
C660 C182 1.256 . S
C695 C74 1.262 . S
C710 C506 1.262 . S
C745 C255 1.320 . S
C760 C111 1.320 . S
C795 C507 1.321 . S
C810 C75 1.321 . S
C845 C254 1.261 . S
C860 C110 1.261 . S
C895 C434 1.257 . S
C910 C2 1.257 . S
C945 C183 1.312 . S
C960 C39 1.312 . S
C995 C147 1.313 . S
C1010 C291 1.313 . S
C1045 C218 1.261 . S
C1060 C362 1.261 . S
C1095 C363 1.321 . S
C1110 C219 1.321 . S
C1145 C146 1.257 . S
C1160 C290 1.257 . S
C1195 C470 1.257 . S
C1210 C326 1.257 . S
C1245 C399 1.321 . S
C1260 C543 1.321 . S
C1295 C398 1.261 . S
C1310 C542 1.261 . S
C1345 C327 1.312 . S
C1360 C471 1.312 . S
C1395 C400 1.461 . S
C1410 C14 1.440 . S
C1445 C292 1.456 . S
C1460 C40 1.456 . S
C1495 C76 1.461 . S
C1510 C338 1.440 . S
C1545 C374 1.437 . S
C1560 C122 1.437 . S
C1595 C410 1.437 . S
C1610 C86 1.437 . S
C1645 C112 1.461 . S
C1660 C302 1.440 . S
C1695 C328 1.456 . S
C1710 C4 1.456 . S
C1745 C364 1.461 . S
C1760 C50 1.440 . S
C1795 C158 1.440 . S
C1810 C544 1.461 . S
C1845 C436 1.456 . S
C1860 C184 1.456 . S
C1895 C220 1.462 . S
C1910 C482 1.439 . S
C1945 C266 1.437 . S
C1960 C518 1.438 . S
C1995 C230 1.436 . S
C2010 C554 1.437 . S
C2045 C446 1.440 . S
C2060 C256 1.461 . S
C2095 C472 1.456 . S
C2110 C148 1.456 . S
C2145 C508 1.461 . S
C2160 C194 1.440 . S
