# Generated by pormake.
# Topology qtz-x, (6)-cn, num edge types: 1
# Building blocks:
#     Node 0, Type 0, BuildingBlock: VOLQOD_clean_sbu_1, # of connection points: 6
#     Node 1, Type 0, BuildingBlock: VOLQOD_clean_sbu_1, # of connection points: 6
#     Node 2, Type 0, BuildingBlock: VOLQOD_clean_sbu_1, # of connection points: 6
#     Edge 3, Type (0, 0), BuildingBlock: FUNLAD_clean_linker_0, # of connection points: 2
#     Edge 4, Type (0, 0), BuildingBlock: FUNLAD_clean_linker_0, # of connection points: 2
#     Edge 5, Type (0, 0), BuildingBlock: FUNLAD_clean_linker_0, # of connection points: 2
#     Edge 6, Type (0, 0), BuildingBlock: FUNLAD_clean_linker_0, # of connection points: 2
#     Edge 7, Type (0, 0), BuildingBlock: FUNLAD_clean_linker_0, # of connection points: 2
#     Edge 8, Type (0, 0), BuildingBlock: FUNLAD_clean_linker_0, # of connection points: 2
#     Edge 9, Type (0, 0), BuildingBlock: FUNLAD_clean_linker_0, # of connection points: 2
#     Edge 10, Type (0, 0), BuildingBlock: FUNLAD_clean_linker_0, # of connection points: 2
#     Edge 11, Type (0, 0), BuildingBlock: FUNLAD_clean_linker_0, # of connection points: 2
# Relax obj value: 0.239
# Max RMSD: 0.198
# Mean RMSD: 0.198
data_MOF--net-qtz-x--node1-VOLQOD_clean_sbu_1--edge1-FUNLAD_clean_linker_0
_symmetry_space_group_name_H-M    P1
_symmetry_Int_Tables_number       1
_symmetry_cell_setting            triclinic
loop_
_symmetry_equiv_pos_as_xyz
'x, y, z'
_cell_length_a     19.815214
_cell_length_b     19.841935
_cell_length_c     44.7483
_cell_angle_alpha  89.883095
_cell_angle_beta   90.657396
_cell_angle_gamma 120.1189
loop_
_atom_site_label
_atom_site_type_symbol
_atom_site_fract_x
_atom_site_fract_y
_atom_site_fract_z
_atom_type_partial_charge
O0 O 0.0967 0.60069 0.15497 0.0
Zn1 Zn 0.12313 0.51509 0.15525 0.0
O2 O 0.03197 0.41353 0.14631 0.0
Zn3 Zn 0.05351 0.36809 0.11167 0.0
Zn4 Zn 0.94287 0.42801 0.13769 0.0
Zn5 Zn 1.00944 0.34336 0.18033 0.0
O6 O 0.03734 0.26144 0.12048 0.0
O7 O 0.01655 0.24831 0.16932 0.0
O8 O 0.20926 0.54377 0.12583 0.0
O9 O 0.16433 0.43559 0.0987 0.0
O10 O 0.98499 0.35972 0.0766 0.0
O11 O 0.90523 0.39674 0.09528 0.0
O12 O 0.85438 0.3651 0.16577 0.0
O13 O 0.16446 0.51493 0.19623 0.0
O14 O 0.90025 0.30513 0.19447 0.0
O15 O 0.08264 0.39875 0.21518 0.0
C16 C 0.03438 0.60232 0.14947 0.0
C17 C 0.02537 0.22259 0.14447 0.0
C18 C 0.92829 0.37232 0.07355 0.0
C19 C 0.21793 0.50438 0.1054 0.0
C20 C 0.84603 0.31877 0.18699 0.0
C21 C 0.14239 0.46656 0.21772 0.0
O22 O 0.97124 0.54053 0.1424 0.0
O23 O 0.5397 0.98213 0.48554 0.0
Zn24 Zn 0.42642 0.95295 0.48852 0.0
O25 O 0.41244 0.04078 0.4768 0.0
Zn26 Zn 0.34173 0.01099 0.44248 0.0
Zn27 Zn 0.51361 0.13053 0.46661 0.0
Zn28 Zn 0.36754 0.06954 0.50954 0.0
O29 O 0.24311 0.01233 0.45191 0.0
O30 O 0.26007 0.0508 0.49929 0.0
O31 O 0.36488 0.85874 0.46167 0.0
O32 O 0.31082 0.90318 0.42936 0.0
O33 O 0.39378 0.08028 0.40716 0.0
O34 O 0.51326 0.16288 0.42407 0.0
O35 O 0.54142 0.22286 0.49295 0.0
O36 O 0.39629 0.92458 0.53158 0.0
O37 O 0.43494 0.18248 0.52009 0.0
O38 O 0.36174 1.00955 0.54668 0.0
C39 C 0.60174 0.04476 0.47871 0.0
C40 C 0.21869 0.02873 0.47546 0.0
C41 C 0.46209 0.13784 0.4032 0.0
C42 C 0.32284 0.84932 0.43855 0.0
C43 C 0.50294 0.23529 0.51255 0.0
C44 C 0.37399 0.95349 0.55202 0.0
O45 O 0.5999 0.10577 0.47125 0.0
O46 O 0.79583 0.72942 0.80251 0.0
Zn47 Zn 0.71511 0.61635 0.79671 0.0
O48 O 0.61125 0.6003 0.80611 0.0
Zn49 Zn 0.54267 0.55751 0.77171 0.0
Zn50 Zn 0.61778 0.69911 0.81827 0.0
Zn51 Zn 0.56563 0.52365 0.83741 0.0
O52 O 0.45531 0.4468 0.77723 0.0
O53 O 0.46241 0.43098 0.82592 0.0
O54 O 0.72144 0.59197 0.7532 0.0
O55 O 0.60435 0.56395 0.73594 0.0
O56 O 0.49229 0.6199 0.76237 0.0
O57 O 0.54964 0.72491 0.7915 0.0
O58 O 0.58439 0.69369 0.86146 0.0
O59 O 0.74464 0.55199 0.82351 0.0
O60 O 0.5514 0.57246 0.87362 0.0
O61 O 0.63614 0.48367 0.84939 0.0
C62 C 0.79358 0.79044 0.80958 0.0
C63 C 0.42812 0.40641 0.80078 0.0
C64 C 0.50092 0.68484 0.77088 0.0
C65 C 0.67298 0.57625 0.73172 0.0
C66 C 0.5606 0.63874 0.8805 0.0
C67 C 0.7051 0.50032 0.84292 0.0
O68 O 0.72945 0.78741 0.81576 0.0
C69 C 0.9727 0.68456 0.1404 0.0
C70 C 0.03542 0.67741 0.15158 0.0
C71 C 0.97401 0.75558 0.14235 0.0
C72 C 0.03803 0.82092 0.15568 0.0
C73 C 0.09994 0.81336 0.16731 0.0
C74 C 0.09908 0.74268 0.16506 0.0
C75 C 0.04111 0.89701 0.15855 0.0
C76 C 1.0073 0.92214 0.1386 0.0
C77 C 1.01282 0.99946 0.14082 0.0
C78 C 1.01017 0.0367 0.11452 0.0
C79 C 1.01497 0.10936 0.1157 0.0
C80 C 0.02107 0.14584 0.14331 0.0
H81 H 0.01854 1.00761 0.18929 0.0
C82 C 0.02239 0.10792 0.16972 0.0
C83 C 0.0185 0.03559 0.1685 0.0
H84 H 0.02662 0.13416 0.19137 0.0
H85 H 0.92256 0.63535 0.13003 0.0
H86 H 0.92425 0.75865 0.13388 0.0
H87 H 0.14961 0.86256 0.17793 0.0
H88 H 0.1481 0.73911 0.17413 0.0
H89 H 0.07654 0.9354 0.17663 0.0
H90 H 0.97861 0.8871 0.11887 0.0
H91 H 1.00513 1.00983 0.09292 0.0
H92 H 1.01318 0.13657 0.09492 0.0
C93 C 0.11902 0.05501 0.49826 0.0
C94 C 0.14081 0.02218 0.47512 0.0
C95 C 0.04589 0.04959 0.49777 0.0
C96 C 0.99277 0.01081 0.47418 0.0
C97 C 1.01385 0.97662 0.45142 0.0
C98 C 0.08733 0.98285 0.4517 0.0
C99 C 0.91443 1.00351 0.47307 0.0
C100 C 0.9007 0.05861 0.48403 0.0
C101 C 0.8232 0.05305 0.48216 0.0
C102 C 0.81978 0.12188 0.48053 0.0
C103 C 0.74796 0.11909 0.47906 0.0
C104 C 0.67776 0.04728 0.47978 0.0
H105 H 0.75355 0.92694 0.48501 0.0
C106 C 0.68113 0.9783 0.48188 0.0
C107 C 0.75309 0.98108 0.48296 0.0
H108 H 0.62817 0.92205 0.48263 0.0
H109 H 0.15862 0.08535 0.51671 0.0
H110 H 0.03075 0.07476 0.51612 0.0
H111 H 0.97369 0.94581 0.43315 0.0
H112 H 0.10197 0.95633 0.43366 0.0
H113 H 0.86815 0.95368 0.46122 0.0
H114 H 0.94896 0.11213 0.4931 0.0
H115 H 0.87291 0.17807 0.48014 0.0
H116 H 0.74756 0.1734 0.47769 0.0
C117 C 0.936 0.8736 0.7986 0.0
C118 C 0.86725 0.86644 0.81043 0.0
C119 C 1.00561 0.9451 0.79934 0.0
C120 C 1.00809 0.0111 0.81203 0.0
C121 C 0.93977 1.00378 0.82421 0.0
C122 C 0.86988 0.93243 0.82319 0.0
C123 C 0.08161 0.08732 0.81402 0.0
C124 C 0.13917 0.11077 0.79392 0.0
C125 C 0.2129 0.18673 0.79617 0.0
C126 C 0.25242 0.2238 0.76995 0.0
C127 C 0.32219 0.29523 0.77136 0.0
C128 C 0.35465 0.33035 0.79912 0.0
H129 H 0.21808 0.19334 0.84466 0.0
C130 C 0.31583 0.29232 0.82539 0.0
C131 C 0.24569 0.2214 0.82396 0.0
H132 H 0.33935 0.31752 0.84716 0.0
H133 H 0.93618 0.82391 0.78871 0.0
H134 H 0.05761 0.94796 0.79051 0.0
H135 H 0.94033 0.05357 0.83438 0.0
H136 H 0.81815 0.92887 0.83268 0.0
H137 H 0.08674 0.12667 0.8319 0.0
H138 H 0.13075 0.07499 0.77434 0.0
H139 H 0.22879 0.19784 0.74829 0.0
H140 H 0.35083 0.32269 0.7507 0.0
C141 C 0.53353 0.59574 0.93339 0.0
C142 C 0.54344 0.65064 0.91148 0.0
C143 C 0.51231 0.6022 0.96228 0.0
C144 C 0.50086 0.66428 0.97023 0.0
C145 C 0.51232 0.72027 0.94853 0.0
C146 C 0.53413 0.71397 0.91943 0.0
C147 C 0.46718 0.66549 -0.00043 0.0
C148 C 0.47235 0.62721 0.02359 0.0
C149 C 0.41529 0.60168 0.04799 0.0
C150 C 0.38248 0.52455 0.0579 0.0
C151 C 0.31951 0.49353 0.0773 0.0
C152 C 0.28997 0.53997 0.0879 0.0
H153 H 0.41328 0.70944 0.05256 0.0
C154 C 0.32631 0.61885 0.07972 0.0
C155 C 0.38809 0.64938 0.05957 0.0
H156 H 0.30443 0.65574 0.08769 0.0
H157 H 0.54042 0.54627 0.92812 0.0
H158 H 0.50128 0.55591 -0.02227 0.0
H159 H 0.50269 0.76798 0.95392 0.0
H160 H 0.54126 0.75716 0.903 0.0
H161 H 0.42977 0.69093 0.00026 0.0
H162 H 0.5101 0.60223 0.02311 0.0
H163 H 0.40272 0.48685 0.04929 0.0
H164 H 0.29279 0.43273 0.08352 0.0
C165 C 0.55147 0.24582 0.36946 0.0
C166 C 0.48515 0.1719 0.37309 0.0
C167 C 0.58014 0.27332 0.34097 0.0
C168 C 0.54419 0.22673 0.31569 0.0
C169 C 0.47504 0.15492 0.3191 0.0
C170 C 0.44548 0.12795 0.34758 0.0
C171 C 0.58422 0.25145 0.28664 0.0
C172 C 0.58926 0.20045 0.26832 0.0
C173 C 0.64789 0.22643 0.24438 0.0
C174 C 0.68845 0.18618 0.24025 0.0
C175 C 0.75156 0.215 0.22089 0.0
C176 C 0.77396 0.28361 0.2047 0.0
H177 H 0.63637 0.32433 0.22949 0.0
C178 C 0.73 0.32106 0.20729 0.0
C179 C 0.66778 0.29305 0.22716 0.0
H180 H 0.74581 0.37392 0.19498 0.0
H181 H 0.58272 0.28137 0.38869 0.0
H182 H 0.63318 0.32916 0.33884 0.0
H183 H 0.44516 0.11858 0.29987 0.0
H184 H 0.39396 0.07093 0.34966 0.0
H185 H 0.62097 0.31361 0.28279 0.0
H186 H 0.55926 0.13898 0.27408 0.0
H187 H 0.67379 0.13441 0.25316 0.0
H188 H 0.78388 0.18448 0.21908 0.0
C189 C 0.49111 0.79582 0.74869 0.0
C190 C 0.45783 0.71569 0.75404 0.0
C191 C 0.45866 0.82245 0.72694 0.0
C192 C 0.39169 0.76912 0.7105 0.0
C193 C 0.35504 0.68988 0.71793 0.0
C194 C 0.38778 0.6634 0.73934 0.0
C195 C 0.36458 0.7907 0.68287 0.0
C196 C 0.39085 0.86411 0.67349 0.0
C197 C 0.37682 0.88151 0.6425 0.0
C198 C 0.37485 0.94999 0.63671 0.0
C199 C 0.37 0.97154 0.60732 0.0
C200 C 0.3688 0.92576 0.5831 0.0
H201 H 0.37683 0.78243 0.62178 0.0
C202 C 0.36919 0.85641 0.58896 0.0
C203 C 0.37307 0.83445 0.61829 0.0
H204 H 0.36865 0.82002 0.57083 0.0
H205 H 0.54531 0.83732 0.75964 0.0
H206 H 0.48934 0.88398 0.72193 0.0
H207 H 0.30329 0.64745 0.70587 0.0
H208 H 0.36034 0.60128 0.74326 0.0
H209 H 0.32425 0.74297 0.66847 0.0
H210 H 0.42556 0.91314 0.68825 0.0
H211 H 0.37854 0.98763 0.65492 0.0
H212 H 0.3704 0.02568 0.60357 0.0
C213 C 0.82217 0.5026 0.86604 0.0
C214 C 0.74119 0.46386 0.86086 0.0
C215 C 0.85358 0.47591 0.88815 0.0
C216 C 0.80457 0.41034 0.90537 0.0
C217 C 0.72468 0.36728 0.89798 0.0
C218 C 0.6933 0.39417 0.87615 0.0
C219 C 0.83683 0.39237 0.9324 0.0
C220 C 0.79397 0.36269 0.95724 0.0
C221 C 0.82719 0.35894 -0.01334 0.0
C222 C 0.78982 0.3625 0.01257 0.0
C223 C 0.82169 0.36503 0.04079 0.0
C224 C 0.8912 0.36283 0.04377 0.0
H225 H 0.92434 0.34871 0.97013 0.0
C226 C 0.92677 0.35552 0.01789 0.0
C227 C 0.8952 0.35377 -0.01042 0.0
H228 H 0.98015 0.35318 0.01943 0.0
H229 H 0.86056 0.55623 0.85447 0.0
H230 H 0.91557 0.50942 0.89307 0.0
H231 H 0.68567 0.31439 0.9098 0.0
H232 H 0.63083 0.36203 0.87213 0.0
H233 H 0.89911 0.4136 0.93316 0.0
H234 H 0.73352 0.34884 0.95709 0.0
H235 H 0.73693 0.36578 0.01098 0.0
H236 H 0.79236 0.36992 0.06024 0.0
C237 C 0.25489 0.56293 0.24871 0.0
C238 C 0.18219 0.49402 0.24703 0.0
C239 C 0.28534 0.59897 0.27618 0.0
C240 C 0.24397 0.56714 0.3026 0.0
C241 C 0.17438 0.49461 0.30128 0.0
C242 C 0.14396 0.45818 0.27367 0.0
C243 C 0.26839 0.61784 0.32951 0.0
C244 C 0.24123 0.59459 0.35728 0.0
C245 C 0.25425 0.65386 0.38008 0.0
C246 C 0.28773 0.6554 0.40803 0.0
C247 C 0.30776 0.71753 0.42785 0.0
C248 C 0.29308 0.7779 0.42008 0.0
H249 H 0.20832 0.71068 0.35187 0.0
C250 C 0.25465 0.77276 0.39285 0.0
C251 C 0.2358 0.71172 0.37307 0.0
H252 H 0.24152 0.81749 0.38617 0.0
H253 H 0.28637 0.59148 0.22862 0.0
H254 H 0.33923 0.65457 0.27654 0.0
H255 H 0.14033 0.46846 0.32108 0.0
H256 H 0.08783 0.40496 0.27309 0.0
H257 H 0.30691 0.67992 0.32576 0.0
H258 H 0.20769 0.53337 0.36308 0.0
H259 H 0.30162 0.61071 0.41391 0.0
H260 H 0.33682 0.7195 0.44875 0.0
C261 C 0.73188 0.52997 0.69362 0.0
C262 C 0.69554 0.57272 0.70091 0.0
C263 C 0.73821 0.51409 0.66364 0.0
C264 C 0.70894 0.54137 0.64074 0.0
C265 C 0.68113 0.59189 0.6482 0.0
C266 C 0.67315 0.60612 0.67804 0.0
C267 C 0.69841 0.50771 0.61025 0.0
C268 C 0.63914 0.49764 0.59214 0.0
C269 C 0.60813 0.43927 0.56771 0.0
C270 C 0.52717 0.39829 0.56269 0.0
C271 C 0.49321 0.33384 0.54368 0.0
C272 C 0.53981 0.31015 0.5288 0.0
H273 H 0.71825 0.45074 0.55414 0.0
C274 C 0.62143 0.35495 0.53187 0.0
C275 C 0.65543 0.41889 0.55134 0.0
H276 H 0.65879 0.33826 0.52046 0.0
H277 H 0.75014 0.50427 0.71101 0.0
H278 H 0.76101 0.476 0.65851 0.0
H279 H 0.66193 0.61758 0.63119 0.0
H280 H 0.64682 0.64108 0.68327 0.0
H281 H 0.73046 0.47811 0.60507 0.0
H282 H 0.60258 0.5214 0.59855 0.0
H283 H 0.48952 0.41335 0.57483 0.0
H284 H 0.43022 0.30101 0.54141 0.0
loop_
_geom_bond_atom_site_label_1
_geom_bond_atom_site_label_2
_geom_bond_distance
_geom_bond_site_symmetry_2
_ccdc_geom_bond_type
O0 Zn1 1.953 . S
O0 C16 1.225 . S
Zn1 O0 1.953 . S
Zn1 O2 1.949 . S
Zn1 O8 1.919 . S
Zn1 O13 1.924 . S
O2 Zn1 1.949 . S
O2 Zn3 1.923 1_455 S
O2 Zn4 1.950 1_455 S
O2 Zn5 1.945 . S
Zn3 O2 1.923 1_655 S
Zn3 O6 1.933 . S
Zn3 O9 1.941 1_655 S
Zn3 O10 1.965 . S
Zn4 O2 1.950 1_655 S
Zn4 O11 1.938 . S
Zn4 O12 1.906 . S
Zn4 O22 1.953 . S
Zn5 O2 1.945 . S
Zn5 O7 1.932 . S
Zn5 O14 1.977 1_455 S
Zn5 O15 1.910 . S
O6 Zn3 1.933 . S
O6 C17 1.226 1_655 S
O7 Zn5 1.932 . S
O7 C17 1.307 . S
O8 Zn1 1.919 . S
O8 C19 1.253 . S
O9 Zn3 1.941 1_455 S
O9 C19 1.283 . S
O10 Zn3 1.965 . S
O10 C18 1.303 . S
O11 Zn4 1.938 . S
O11 C18 1.247 . S
O12 Zn4 1.906 . S
O12 C20 1.304 . S
O13 Zn1 1.924 . S
O13 C21 1.311 . S
O14 Zn5 1.977 1_655 S
O14 C20 1.272 . S
O15 Zn5 1.910 . S
O15 C21 1.231 . S
C16 O0 1.225 . S
C16 O22 1.298 1_455 S
C17 O6 1.226 1_455 S
C17 O7 1.307 . S
C18 O10 1.303 . S
C18 O11 1.247 . S
C19 O8 1.253 . S
C19 O9 1.283 . S
C20 O12 1.304 . S
C20 O14 1.272 . S
C21 O13 1.311 . S
C21 O15 1.231 . S
O22 Zn4 1.953 . S
O22 C16 1.298 1_655 S
O23 Zn24 1.953 . S
O23 C39 1.219 1_565 S
Zn24 O23 1.953 . S
Zn24 O25 1.949 1_565 S
Zn24 O31 1.919 . S
Zn24 O36 1.924 . S
O25 Zn24 1.949 1_545 S
O25 Zn26 1.923 . S
O25 Zn27 1.950 . S
O25 Zn28 1.945 1_545 S
Zn26 O25 1.923 . S
Zn26 O29 1.933 . S
Zn26 O32 1.941 1_545 S
Zn26 O33 1.965 . S
Zn27 O25 1.950 . S
Zn27 O34 1.938 . S
Zn27 O35 1.906 . S
Zn27 O45 1.953 . S
Zn28 O25 1.945 1_565 S
Zn28 O30 1.932 . S
Zn28 O37 1.977 1_565 S
Zn28 O38 1.910 . S
O29 Zn26 1.933 . S
O29 C40 1.226 . S
O30 Zn28 1.932 . S
O30 C40 1.307 1_565 S
O31 Zn24 1.919 . S
O31 C42 1.253 . S
O32 Zn26 1.941 1_565 S
O32 C42 1.283 . S
O33 Zn26 1.965 . S
O33 C41 1.303 . S
O34 Zn27 1.938 . S
O34 C41 1.247 . S
O35 Zn27 1.906 . S
O35 C43 1.304 . S
O36 Zn24 1.924 . S
O36 C44 1.311 . S
O37 Zn28 1.977 1_545 S
O37 C43 1.272 . S
O38 Zn28 1.910 . S
O38 C44 1.231 . S
C39 O23 1.219 1_545 S
C39 O45 1.311 . S
C40 O29 1.226 . S
C40 O30 1.307 1_545 S
C41 O33 1.303 . S
C41 O34 1.247 . S
C42 O31 1.253 . S
C42 O32 1.283 . S
C43 O35 1.304 . S
C43 O37 1.272 . S
C44 O36 1.311 . S
C44 O38 1.231 . S
O45 Zn27 1.953 . S
O45 C39 1.311 . S
O46 Zn47 1.953 . S
O46 C62 1.225 . S
Zn47 O46 1.953 . S
Zn47 O48 1.949 . S
Zn47 O54 1.919 . S
Zn47 O59 1.924 . S
O48 Zn47 1.949 . S
O48 Zn49 1.923 . S
O48 Zn50 1.950 . S
O48 Zn51 1.945 . S
Zn49 O48 1.923 . S
Zn49 O52 1.933 . S
Zn49 O55 1.941 . S
Zn49 O56 1.965 . S
Zn50 O48 1.950 . S
Zn50 O57 1.938 . S
Zn50 O58 1.906 . S
Zn50 O68 1.953 . S
Zn51 O48 1.945 . S
Zn51 O53 1.932 . S
Zn51 O60 1.977 . S
Zn51 O61 1.910 . S
O52 Zn49 1.933 . S
O52 C63 1.226 . S
O53 Zn51 1.932 . S
O53 C63 1.307 . S
O54 Zn47 1.919 . S
O54 C65 1.253 . S
O55 Zn49 1.941 . S
O55 C65 1.283 . S
O56 Zn49 1.965 . S
O56 C64 1.303 . S
O57 Zn50 1.938 . S
O57 C64 1.247 . S
O58 Zn50 1.906 . S
O58 C66 1.304 . S
O59 Zn47 1.924 . S
O59 C67 1.311 . S
O60 Zn51 1.977 . S
O60 C66 1.272 . S
O61 Zn51 1.910 . S
O61 C67 1.231 . S
C62 O46 1.225 . S
C62 O68 1.298 . S
C63 O52 1.226 . S
C63 O53 1.307 . S
C64 O56 1.303 . S
C64 O57 1.247 . S
C65 O54 1.253 . S
C65 O55 1.283 . S
C66 O58 1.304 . S
C66 O60 1.272 . S
C67 O59 1.311 . S
C67 O61 1.231 . S
O68 Zn50 1.953 . S
O68 C62 1.298 . S
C69 C70 1.386 1_655 S
C69 C71 1.383 . S
C69 H85 0.951 . S
C70 C69 1.386 1_455 S
C70 C74 1.383 . S
C71 C69 1.383 . S
C71 C72 1.402 1_655 S
C71 H86 0.951 . S
C72 C71 1.402 1_455 S
C72 C73 1.375 . S
C72 C75 1.481 . S
C73 C72 1.375 . S
C73 C74 1.367 . S
C73 H87 0.951 . S
C74 C70 1.383 . S
C74 C73 1.367 . S
C74 H88 0.950 . S
C75 C72 1.481 . S
C75 C76 1.297 1_465 S
C75 H89 0.950 1_565 S
C76 C75 1.297 1_645 S
C76 C77 1.479 . S
C76 H90 0.950 1_545 S
C77 C76 1.479 . S
C77 C78 1.375 . S
C77 C83 1.404 1_655 S
C78 C77 1.375 . S
C78 C79 1.369 . S
C78 H91 0.950 . S
C79 C78 1.369 . S
C79 C80 1.392 1_655 S
C79 H92 0.951 . S
C80 C79 1.392 1_455 S
C80 C82 1.384 . S
H81 C83 0.949 . S
C82 C80 1.384 . S
C82 C83 1.385 . S
C82 H84 0.950 . S
C83 C77 1.404 1_455 S
C83 H81 0.949 . S
C83 C82 1.385 . S
H84 C82 0.950 . S
H85 C69 0.951 . S
H86 C71 0.951 . S
H87 C73 0.951 . S
H88 C74 0.950 . S
H89 C75 0.950 1_545 S
H90 C76 0.950 1_565 S
H91 C78 0.950 . S
H92 C79 0.951 . S
C93 C94 1.379 1_545 S
C93 C95 1.383 . S
C93 H109 0.951 . S
C94 C93 1.379 1_565 S
C94 C98 1.385 . S
C95 C93 1.383 . S
C95 C96 1.401 . S
C95 H110 0.951 . S
C96 C95 1.401 . S
C96 C97 1.376 1_545 S
C96 C99 1.480 1_545 S
C97 C96 1.376 1_565 S
C97 C98 1.367 . S
C97 H111 0.951 . S
C98 C94 1.385 . S
C98 C97 1.367 . S
C98 H112 0.950 . S
C99 C96 1.480 1_565 S
C99 C100 1.297 1_465 S
C99 H113 0.950 1_455 S
C100 C99 1.297 1_645 S
C100 C101 1.479 . S
C100 H114 0.950 1_655 S
C101 C100 1.479 . S
C101 C102 1.375 . S
C101 C107 1.404 1_545 S
C102 C101 1.375 . S
C102 C103 1.369 . S
C102 H115 0.950 . S
C103 C102 1.369 . S
C103 C104 1.392 . S
C103 H116 0.951 . S
C104 C103 1.392 . S
C104 C106 1.384 1_545 S
H105 C107 0.949 . S
C106 C104 1.384 1_565 S
C106 C107 1.385 . S
C106 H108 0.950 . S
C107 C101 1.404 1_565 S
C107 H105 0.949 . S
C107 C106 1.385 . S
H108 C106 0.950 . S
H109 C93 0.951 . S
H110 C95 0.951 . S
H111 C97 0.951 . S
H112 C98 0.950 . S
H113 C99 0.950 1_655 S
H114 C100 0.950 1_455 S
H115 C102 0.950 . S
H116 C103 0.951 . S
C117 C118 1.386 . S
C117 C119 1.383 . S
C117 H133 0.951 . S
C118 C117 1.386 . S
C118 C122 1.383 . S
C119 C117 1.383 . S
C119 C120 1.402 . S
C119 H134 0.951 . S
C120 C119 1.402 . S
C120 C121 1.375 . S
C120 C123 1.481 . S
C121 C120 1.375 . S
C121 C122 1.367 . S
C121 H135 0.951 . S
C122 C118 1.383 . S
C122 C121 1.367 . S
C122 H136 0.950 . S
C123 C120 1.481 . S
C123 C124 1.297 1_665 S
C123 H137 0.950 . S
C124 C123 1.297 1_445 S
C124 C125 1.479 . S
C124 H138 0.950 1_455 S
C125 C124 1.479 . S
C125 C126 1.375 . S
C125 C131 1.404 . S
C126 C125 1.375 . S
C126 C127 1.369 . S
C126 H139 0.950 . S
C127 C126 1.369 . S
C127 C128 1.392 . S
C127 H140 0.951 . S
C128 C127 1.392 . S
C128 C130 1.384 . S
H129 C131 0.949 . S
C130 C128 1.384 . S
C130 C131 1.385 . S
C130 H132 0.950 . S
C131 C125 1.404 . S
C131 H129 0.949 . S
C131 C130 1.385 . S
H132 C130 0.950 . S
H133 C117 0.951 . S
H134 C119 0.951 . S
H135 C121 0.951 . S
H136 C122 0.950 . S
H137 C123 0.950 . S
H138 C124 0.950 1_655 S
H139 C126 0.950 . S
H140 C127 0.951 . S
C141 C142 1.386 . S
C141 C143 1.383 . S
C141 H157 0.951 . S
C142 C141 1.386 . S
C142 C146 1.383 . S
C143 C141 1.383 . S
C143 C144 1.402 . S
C143 H158 0.951 . S
C144 C143 1.402 . S
C144 C145 1.375 . S
C144 C147 1.481 . S
C145 C144 1.375 . S
C145 C146 1.367 . S
C145 H159 0.951 . S
C146 C142 1.383 . S
C146 C145 1.367 . S
C146 H160 0.950 . S
C147 C144 1.481 . S
C147 C148 1.297 1_556 S
C147 H161 0.950 . S
C148 C147 1.297 1_554 S
C148 C149 1.479 . S
C148 H162 0.950 . S
C149 C148 1.479 . S
C149 C150 1.375 . S
C149 C155 1.404 . S
C150 C149 1.375 . S
C150 C151 1.369 . S
C150 H163 0.950 . S
C151 C150 1.369 . S
C151 C152 1.392 . S
C151 H164 0.951 . S
C152 C151 1.392 . S
C152 C154 1.384 . S
H153 C155 0.949 . S
C154 C152 1.384 . S
C154 C155 1.385 . S
C154 H156 0.950 . S
C155 C149 1.404 . S
C155 H153 0.949 . S
C155 C154 1.385 . S
H156 C154 0.950 . S
H157 C141 0.951 . S
H158 C143 0.951 . S
H159 C145 0.951 . S
H160 C146 0.950 . S
H161 C147 0.950 . S
H162 C148 0.950 . S
H163 C150 0.950 . S
H164 C151 0.951 . S
C165 C166 1.386 . S
C165 C167 1.383 . S
C165 H181 0.951 . S
C166 C165 1.386 . S
C166 C170 1.383 . S
C167 C165 1.383 . S
C167 C168 1.402 . S
C167 H182 0.951 . S
C168 C167 1.402 . S
C168 C169 1.375 . S
C168 C171 1.481 . S
C169 C168 1.375 . S
C169 C170 1.367 . S
C169 H183 0.951 . S
C170 C166 1.383 . S
C170 C169 1.367 . S
C170 H184 0.950 . S
C171 C168 1.481 . S
C171 C172 1.297 . S
C171 H185 0.950 . S
C172 C171 1.297 . S
C172 C173 1.479 . S
C172 H186 0.950 . S
C173 C172 1.479 . S
C173 C174 1.375 . S
C173 C179 1.404 . S
C174 C173 1.375 . S
C174 C175 1.369 . S
C174 H187 0.950 . S
C175 C174 1.369 . S
C175 C176 1.392 . S
C175 H188 0.951 . S
C176 C175 1.392 . S
C176 C178 1.384 . S
H177 C179 0.949 . S
C178 C176 1.384 . S
C178 C179 1.385 . S
C178 H180 0.950 . S
C179 C173 1.404 . S
C179 H177 0.949 . S
C179 C178 1.385 . S
H180 C178 0.950 . S
H181 C165 0.951 . S
H182 C167 0.951 . S
H183 C169 0.951 . S
H184 C170 0.950 . S
H185 C171 0.950 . S
H186 C172 0.950 . S
H187 C174 0.950 . S
H188 C175 0.951 . S
C189 C190 1.386 . S
C189 C191 1.383 . S
C189 H205 0.951 . S
C190 C189 1.386 . S
C190 C194 1.383 . S
C191 C189 1.383 . S
C191 C192 1.402 . S
C191 H206 0.951 . S
C192 C191 1.402 . S
C192 C193 1.375 . S
C192 C195 1.481 . S
C193 C192 1.375 . S
C193 C194 1.367 . S
C193 H207 0.951 . S
C194 C190 1.383 . S
C194 C193 1.367 . S
C194 H208 0.950 . S
C195 C192 1.481 . S
C195 C196 1.297 . S
C195 H209 0.950 . S
C196 C195 1.297 . S
C196 C197 1.479 . S
C196 H210 0.950 . S
C197 C196 1.479 . S
C197 C198 1.375 . S
C197 C203 1.404 . S
C198 C197 1.375 . S
C198 C199 1.369 . S
C198 H211 0.950 . S
C199 C198 1.369 . S
C199 C200 1.392 . S
C199 H212 0.951 . S
C200 C199 1.392 . S
C200 C202 1.384 . S
H201 C203 0.949 . S
C202 C200 1.384 . S
C202 C203 1.385 . S
C202 H204 0.950 . S
C203 C197 1.404 . S
C203 H201 0.949 . S
C203 C202 1.385 . S
H204 C202 0.950 . S
H205 C189 0.951 . S
H206 C191 0.951 . S
H207 C193 0.951 . S
H208 C194 0.950 . S
H209 C195 0.950 . S
H210 C196 0.950 . S
H211 C198 0.950 . S
H212 C199 0.951 . S
C213 C214 1.386 . S
C213 C215 1.383 . S
C213 H229 0.951 . S
C214 C213 1.386 . S
C214 C218 1.383 . S
C215 C213 1.383 . S
C215 C216 1.402 . S
C215 H230 0.951 . S
C216 C215 1.402 . S
C216 C217 1.375 . S
C216 C219 1.481 . S
C217 C216 1.375 . S
C217 C218 1.367 . S
C217 H231 0.951 . S
C218 C214 1.383 . S
C218 C217 1.367 . S
C218 H232 0.950 . S
C219 C216 1.481 . S
C219 C220 1.297 1_556 S
C219 H233 0.950 . S
C220 C219 1.297 1_554 S
C220 C221 1.479 . S
C220 H234 0.950 . S
C221 C220 1.479 . S
C221 C222 1.375 . S
C221 C227 1.404 . S
C222 C221 1.375 . S
C222 C223 1.369 . S
C222 H235 0.950 . S
C223 C222 1.369 . S
C223 C224 1.392 . S
C223 H236 0.951 . S
C224 C223 1.392 . S
C224 C226 1.384 . S
H225 C227 0.949 . S
C226 C224 1.384 . S
C226 C227 1.385 . S
C226 H228 0.950 . S
C227 C221 1.404 . S
C227 H225 0.949 . S
C227 C226 1.385 . S
H228 C226 0.950 . S
H229 C213 0.951 . S
H230 C215 0.951 . S
H231 C217 0.951 . S
H232 C218 0.950 . S
H233 C219 0.950 . S
H234 C220 0.950 . S
H235 C222 0.950 . S
H236 C223 0.951 . S
C237 C238 1.386 . S
C237 C239 1.383 . S
C237 H253 0.951 . S
C238 C237 1.386 . S
C238 C242 1.383 . S
C239 C237 1.383 . S
C239 C240 1.402 . S
C239 H254 0.951 . S
C240 C239 1.402 . S
C240 C241 1.375 . S
C240 C243 1.481 . S
C241 C240 1.375 . S
C241 C242 1.367 . S
C241 H255 0.951 . S
C242 C238 1.383 . S
C242 C241 1.367 . S
C242 H256 0.950 . S
C243 C240 1.481 . S
C243 C244 1.297 . S
C243 H257 0.950 . S
C244 C243 1.297 . S
C244 C245 1.479 . S
C244 H258 0.950 . S
C245 C244 1.479 . S
C245 C246 1.375 . S
C245 C251 1.404 . S
C246 C245 1.375 . S
C246 C247 1.369 . S
C246 H259 0.950 . S
C247 C246 1.369 . S
C247 C248 1.392 . S
C247 H260 0.951 . S
C248 C247 1.392 . S
C248 C250 1.384 . S
H249 C251 0.949 . S
C250 C248 1.384 . S
C250 C251 1.385 . S
C250 H252 0.950 . S
C251 C245 1.404 . S
C251 H249 0.949 . S
C251 C250 1.385 . S
H252 C250 0.950 . S
H253 C237 0.951 . S
H254 C239 0.951 . S
H255 C241 0.951 . S
H256 C242 0.950 . S
H257 C243 0.950 . S
H258 C244 0.950 . S
H259 C246 0.950 . S
H260 C247 0.951 . S
C261 C262 1.386 . S
C261 C263 1.383 . S
C261 H277 0.951 . S
C262 C261 1.386 . S
C262 C266 1.383 . S
C263 C261 1.383 . S
C263 C264 1.402 . S
C263 H278 0.951 . S
C264 C263 1.402 . S
C264 C265 1.375 . S
C264 C267 1.481 . S
C265 C264 1.375 . S
C265 C266 1.367 . S
C265 H279 0.951 . S
C266 C262 1.383 . S
C266 C265 1.367 . S
C266 H280 0.950 . S
C267 C264 1.481 . S
C267 C268 1.297 . S
C267 H281 0.950 . S
C268 C267 1.297 . S
C268 C269 1.479 . S
C268 H282 0.950 . S
C269 C268 1.479 . S
C269 C270 1.375 . S
C269 C275 1.404 . S
C270 C269 1.375 . S
C270 C271 1.369 . S
C270 H283 0.950 . S
C271 C270 1.369 . S
C271 C272 1.392 . S
C271 H284 0.951 . S
C272 C271 1.392 . S
C272 C274 1.384 . S
H273 C275 0.949 . S
C274 C272 1.384 . S
C274 C275 1.385 . S
C274 H276 0.950 . S
C275 C269 1.404 . S
C275 H273 0.949 . S
C275 C274 1.385 . S
H276 C274 0.950 . S
H277 C261 0.951 . S
H278 C263 0.951 . S
H279 C265 0.951 . S
H280 C266 0.950 . S
H281 C267 0.950 . S
H282 C268 0.950 . S
H283 C270 0.950 . S
H284 C271 0.951 . S
C70 C16 1.897 . S
C80 C17 1.883 . S
C94 C40 1.899 1_565 S
C104 C39 1.884 . S
C118 C62 1.898 . S
C128 C63 1.880 . S
C142 C66 0.784 . S
C152 C19 0.809 . S
C166 C41 0.781 . S
C176 C20 0.876 . S
C190 C64 0.785 . S
C200 C44 0.764 . S
C214 C67 0.764 . S
C224 C18 0.768 . S
C238 C21 0.746 . S
C248 C42 0.651 . S
C262 C65 0.748 . S
C272 C43 0.838 . S
