# Generated by pormake.
# Topology sml, (6)-cn, num edge types: 1
# Building blocks:
#     Node 0, Type 0, BuildingBlock: VOLQOD_clean_sbu_1, # of connection points: 6
#     Node 1, Type 0, BuildingBlock: VOLQOD_clean_sbu_1, # of connection points: 6
#     Node 2, Type 0, BuildingBlock: VOLQOD_clean_sbu_1, # of connection points: 6
#     Node 3, Type 0, BuildingBlock: VOLQOD_clean_sbu_1, # of connection points: 6
#     Node 4, Type 0, BuildingBlock: VOLQOD_clean_sbu_1, # of connection points: 6
#     Node 5, Type 0, BuildingBlock: VOLQOD_clean_sbu_1, # of connection points: 6
#     Edge 6, Type (0, 0), BuildingBlock: FUNLAD_clean_linker_0, # of connection points: 2
#     Edge 7, Type (0, 0), BuildingBlock: FUNLAD_clean_linker_0, # of connection points: 2
#     Edge 8, Type (0, 0), BuildingBlock: FUNLAD_clean_linker_0, # of connection points: 2
#     Edge 9, Type (0, 0), BuildingBlock: FUNLAD_clean_linker_0, # of connection points: 2
#     Edge 10, Type (0, 0), BuildingBlock: FUNLAD_clean_linker_0, # of connection points: 2
#     Edge 11, Type (0, 0), BuildingBlock: FUNLAD_clean_linker_0, # of connection points: 2
#     Edge 12, Type (0, 0), BuildingBlock: FUNLAD_clean_linker_0, # of connection points: 2
#     Edge 13, Type (0, 0), BuildingBlock: FUNLAD_clean_linker_0, # of connection points: 2
#     Edge 14, Type (0, 0), BuildingBlock: FUNLAD_clean_linker_0, # of connection points: 2
#     Edge 15, Type (0, 0), BuildingBlock: FUNLAD_clean_linker_0, # of connection points: 2
#     Edge 16, Type (0, 0), BuildingBlock: FUNLAD_clean_linker_0, # of connection points: 2
#     Edge 17, Type (0, 0), BuildingBlock: FUNLAD_clean_linker_0, # of connection points: 2
#     Edge 18, Type (0, 0), BuildingBlock: FUNLAD_clean_linker_0, # of connection points: 2
#     Edge 19, Type (0, 0), BuildingBlock: FUNLAD_clean_linker_0, # of connection points: 2
#     Edge 20, Type (0, 0), BuildingBlock: FUNLAD_clean_linker_0, # of connection points: 2
#     Edge 21, Type (0, 0), BuildingBlock: FUNLAD_clean_linker_0, # of connection points: 2
#     Edge 22, Type (0, 0), BuildingBlock: FUNLAD_clean_linker_0, # of connection points: 2
#     Edge 23, Type (0, 0), BuildingBlock: FUNLAD_clean_linker_0, # of connection points: 2
# Relax obj value: 0.294
# Max RMSD: 0.187
# Mean RMSD: 0.187
data_MOF--net-sml--node1-VOLQOD_clean_sbu_1--edge1-FUNLAD_clean_linker_0
_symmetry_space_group_name_H-M    P1
_symmetry_Int_Tables_number       1
_symmetry_cell_setting            triclinic
loop_
_symmetry_equiv_pos_as_xyz
'x, y, z'
_cell_length_a     50.18099
_cell_length_b     50.143686
_cell_length_c     17.504543
_cell_angle_alpha  90.01581
_cell_angle_beta   90.092074
_cell_angle_gamma 120.11119
loop_
_atom_site_label
_atom_site_type_symbol
_atom_site_fract_x
_atom_site_fract_y
_atom_site_fract_z
_atom_type_partial_charge
O0 O 0.11631 0.38158 0.00948 0.0
Zn1 Zn 0.1545 0.41971 0.97446 0.0
O2 O 0.19079 0.41517 -0.01123 0.0
Zn3 Zn 0.21911 0.44516 0.06175 0.0
Zn4 Zn 0.1778 0.37333 0.02322 0.0
Zn5 Zn 0.21261 0.42275 0.89407 0.0
O6 O 0.26261 0.47051 0.0224 0.0
O7 O 0.25635 0.45669 0.90063 0.0
O8 O 0.15913 0.45664 0.03291 0.0
O9 O 0.20446 0.47432 0.09031 0.0
O10 O 0.21893 0.42393 0.15778 0.0
O11 O 0.18952 0.37391 0.13294 0.0
O12 O 0.1944 0.35216 0.95625 0.0
O13 O 0.14752 0.42448 0.86277 0.0
O14 O 0.21374 0.38541 0.86028 0.0
O15 O 0.19167 0.43263 0.81282 0.0
C16 C 0.11052 0.35423 0.02305 0.0
C17 C 0.27342 0.47297 0.9554 0.0
C18 C 0.20581 0.39588 0.17874 0.0
C19 C 0.18051 0.47612 0.07627 0.0
C20 C 0.20689 0.35971 0.89054 0.0
C21 C 0.16574 0.43115 0.80641 0.0
O22 O 0.13179 0.34746 0.02444 0.0
O23 O 0.73038 0.11764 0.34938 0.0
Zn24 Zn 0.72999 0.15476 0.3082 0.0
O25 O 0.77045 0.19178 0.32085 0.0
Zn26 Zn 0.76808 0.22083 0.38979 0.0
Zn27 Zn 0.79964 0.18001 0.35929 0.0
Zn28 Zn 0.78458 0.21226 0.2245 0.0
O29 O 0.78673 0.26392 0.34693 0.0
O30 O 0.79376 0.25586 0.22618 0.0
O31 O 0.69723 0.15973 0.3622 0.0
O32 O 0.72389 0.20629 0.41445 0.0
O33 O 0.78824 0.22168 0.48836 0.0
O34 O 0.81046 0.19355 0.46799 0.0
O35 O 0.83766 0.19654 0.29354 0.0
O36 O 0.71828 0.14583 0.19682 0.0
O37 O 0.82365 0.21406 0.19386 0.0
O38 O 0.75382 0.18968 0.14399 0.0
C39 C 0.75212 0.11248 0.36578 0.0
C40 C 0.7948 0.27373 0.27903 0.0
C41 C 0.80376 0.20956 0.51184 0.0
C42 C 0.69842 0.18173 0.4014 0.0
C43 C 0.84278 0.20828 0.22689 0.0
C44 C 0.72958 0.16342 0.13923 0.0
O45 O 0.78013 0.13403 0.36589 0.0
O46 O 0.60659 0.73279 0.70731 0.0
Zn47 Zn 0.56859 0.73273 0.6716 0.0
O48 O 0.57367 0.77397 0.6825 0.0
Zn49 Zn 0.54284 0.77337 0.75081 0.0
Zn50 Zn 0.61501 0.80246 0.72063 0.0
Zn51 Zn 0.56821 0.7882 0.58557 0.0
O52 O 0.518 0.79117 0.7048 0.0
O53 O 0.53303 0.79597 0.58427 0.0
O54 O 0.5319 0.7015 0.73217 0.0
O55 O 0.51318 0.72972 0.78077 0.0
O56 O 0.56265 0.79448 0.84847 0.0
O57 O 0.61255 0.81195 0.83061 0.0
O58 O 0.63671 0.84132 0.65718 0.0
O59 O 0.56327 0.71916 0.56095 0.0
O60 O 0.60547 0.82765 0.55677 0.0
O61 O 0.5608 0.75773 0.5055 0.0
C62 C 0.63403 0.75426 0.72077 0.0
C63 C 0.51595 0.79757 0.63541 0.0
C64 C 0.59019 0.80742 0.8734 0.0
C65 C 0.51187 0.70388 0.77172 0.0
C66 C 0.63025 0.84674 0.5906 0.0
C67 C 0.55974 0.73193 0.50211 0.0
O68 O 0.64106 0.78243 0.72202 0.0
O69 O 0.87383 0.60855 0.01346 0.0
Zn70 Zn 0.83485 0.57011 -0.01722 0.0
O71 O 0.7991 0.57554 -0.00396 0.0
Zn72 Zn 0.77087 0.5465 0.07019 0.0
Zn73 Zn 0.81321 0.61763 0.02979 0.0
Zn74 Zn 0.77668 0.56791 0.90183 0.0
O75 O 0.72703 0.52165 0.03253 0.0
O76 O 0.73326 0.53293 0.90919 0.0
O77 O 0.83019 0.53379 0.04423 0.0
O78 O 0.7845 0.51661 0.09871 0.0
O79 O 0.77321 0.56836 0.16682 0.0
O80 O 0.8044 0.61791 0.14126 0.0
O81 O 0.7946 0.63793 0.96723 0.0
O82 O 0.84048 0.56339 0.87185 0.0
O83 O 0.77386 0.60481 0.87109 0.0
O84 O 0.79792 0.5588 0.81951 0.0
C85 C 0.88023 0.63633 0.02302 0.0
C86 C 0.71621 0.51771 0.96501 0.0
C87 C 0.78828 0.59639 0.18813 0.0
C88 C 0.80839 0.51451 0.08671 0.0
C89 C 0.78072 0.63028 0.90304 0.0
C90 C 0.82293 0.55832 0.81461 0.0
O91 O 0.85923 0.64349 0.02398 0.0
O92 O 0.26807 0.87638 0.31831 0.0
Zn93 Zn 0.26645 0.83798 0.27887 0.0
O94 O 0.22479 0.80252 0.28829 0.0
Zn95 Zn 0.22437 0.77232 0.35776 0.0
Zn96 Zn 0.19748 0.81689 0.32446 0.0
Zn97 Zn 0.21023 0.78205 0.19194 0.0
O98 O 0.20266 0.72899 0.31613 0.0
O99 O 0.20054 0.73816 0.1932 0.0
O100 O 0.29731 0.83052 0.33571 0.0
O101 O 0.26771 0.78301 0.38048 0.0
O102 O 0.20604 0.77432 0.45683 0.0
O103 O 0.18805 0.80609 0.43498 0.0
O104 O 0.15852 0.79959 0.26142 0.0
O105 O 0.279 0.84649 0.16783 0.0
O106 O 0.17095 0.7803 0.16252 0.0
O107 O 0.24109 0.80473 0.11201 0.0
C108 C 0.24721 0.88344 0.3282 0.0
C109 C 0.19656 0.71961 0.24732 0.0
C110 C 0.19315 0.78917 0.4798 0.0
C111 C 0.29407 0.80684 0.37106 0.0
C112 C 0.15236 0.78672 0.19592 0.0
C113 C 0.26659 0.82993 0.10894 0.0
O114 O 0.21874 0.86317 0.32437 0.0
O115 O 0.37951 0.2643 0.65739 0.0
Zn116 Zn 0.4187 0.26673 0.62267 0.0
O117 O 0.4169 0.2273 0.63926 0.0
Zn118 Zn 0.44646 0.23141 0.71649 0.0
Zn119 Zn 0.37507 0.19652 0.66952 0.0
Zn120 Zn 0.42773 0.21435 0.54691 0.0
O121 O 0.47505 0.21644 0.68198 0.0
O122 O 0.46531 0.21061 0.55779 0.0
O123 O 0.45476 0.30122 0.67912 0.0
O124 O 0.47306 0.27593 0.74467 0.0
O125 O 0.42437 0.20921 0.81068 0.0
O126 O 0.37469 0.18563 0.77966 0.0
O127 O 0.35763 0.15828 0.60359 0.0
O128 O 0.42198 0.27691 0.51044 0.0
O129 O 0.39393 0.17278 0.51512 0.0
O130 O 0.43379 0.24307 0.46269 0.0
C131 C 0.35239 0.24172 0.66772 0.0
C132 C 0.48074 0.21049 0.61531 0.0
C133 C 0.39608 0.19249 0.82814 0.0
C134 C 0.47406 0.30097 0.72614 0.0
C135 C 0.36797 0.15297 0.5425 0.0
C136 C 0.42956 0.26587 0.45466 0.0
O137 O 0.34677 0.21398 0.6668 0.0
C138 C 0.33224 0.27807 0.67794 0.0
C139 C 0.32727 0.24803 0.68509 0.0
C140 C 0.3096 0.28479 0.70009 0.0
C141 C 0.28133 0.26155 0.72961 0.0
C142 C 0.27615 0.23143 0.7358 0.0
C143 C 0.2988 0.22464 0.71315 0.0
C144 C 0.25831 0.26893 0.76068 0.0
C145 C 0.25567 0.29267 0.73414 0.0
C146 C 0.23833 0.30556 0.77293 0.0
C147 C 0.23483 0.32807 0.73411 0.0
C148 C 0.22341 0.34473 0.77165 0.0
C149 C 0.21515 0.33922 0.84912 0.0
H150 H 0.23131 0.28216 0.8823 0.0
C151 C 0.21695 0.31552 0.88711 0.0
C152 C 0.22862 0.29893 0.84958 0.0
H153 H 0.21075 0.31076 0.94684 0.0
H154 H 0.35393 0.29665 0.65686 0.0
H155 H 0.31493 0.30852 0.69684 0.0
H156 H 0.25473 0.21323 0.75922 0.0
H157 H 0.29432 0.20127 0.7198 0.0
H158 H 0.244 0.25489 0.80745 0.0
H159 H 0.26813 0.30441 0.68269 0.0
H160 H 0.24209 0.33369 0.67517 0.0
H161 H 0.22194 0.3626 0.74039 0.0
C162 C 0.05437 0.3363 0.0337 0.0
C163 C 0.0786 0.33007 0.04062 0.0
C164 C 0.0245 0.31419 0.05447 0.0
C165 C 0.01816 0.28526 0.08231 0.0
C166 C 0.04229 0.27894 0.08881 0.0
C167 C 0.07221 0.30102 0.06761 0.0
C168 C 0.98714 0.26243 0.11067 0.0
C169 C 0.96138 0.26083 0.08288 0.0
C170 C 0.93052 0.2427 0.11823 0.0
C171 C 0.90496 0.239 0.07672 0.0
C172 C 0.87616 0.2265 0.11118 0.0
C173 C 0.87225 0.21742 0.18821 0.0
H174 H 0.94544 0.23513 0.2291 0.0
C175 C 0.89739 0.21953 0.22882 0.0
C176 C 0.92634 0.23222 0.19437 0.0
H177 H 0.89511 0.21279 0.2883 0.0
H178 H 0.05851 0.35848 0.01354 0.0
H179 H 0.00672 0.32035 0.05114 0.0
H180 H 0.03805 0.25697 0.11096 0.0
H181 H 0.0904 0.29554 0.07405 0.0
H182 H 0.98581 0.24701 0.15585 0.0
H183 H 0.96303 0.27436 0.03275 0.0
H184 H 0.90748 0.24686 0.01811 0.0
H185 H 0.85717 0.22489 0.07797 0.0
C186 C 0.71419 0.05643 0.38168 0.0
C187 C 0.74453 0.08107 0.38849 0.0
C188 C 0.70646 0.02711 0.40721 0.0
C189 C 0.72896 0.0217 0.43988 0.0
C190 C 0.7593 0.04625 0.44653 0.0
C191 C 0.7671 0.07563 0.42051 0.0
C192 C 0.72069 0.9912 0.47221 0.0
C193 C 0.69736 0.96489 0.44371 0.0
C194 C 0.68434 0.9343 0.4809 0.0
C195 C 0.66325 0.90835 0.43905 0.0
C196 C 0.64668 0.87969 0.47417 0.0
C197 C 0.65082 0.87627 0.55223 0.0
H198 H 0.70523 0.95007 0.59324 0.0
C199 C 0.67309 0.90181 0.59349 0.0
C200 C 0.68961 0.93066 0.55834 0.0
H201 H 0.67674 0.89987 0.65376 0.0
H202 H 0.6962 0.05984 0.35778 0.0
H203 H 0.68259 0.00901 0.40354 0.0
H204 H 0.77693 0.04273 0.47234 0.0
H205 H 0.79067 0.09419 0.4271 0.0
H206 H 0.73404 0.99071 0.52045 0.0
H207 H 0.68638 0.96583 0.391 0.0
H208 H 0.65872 0.91043 0.37944 0.0
H209 H 0.62994 0.86038 0.44045 0.0
C210 C 0.65123 0.71548 0.72975 0.0
C211 C 0.65801 0.74615 0.73698 0.0
C212 C 0.67327 0.70736 0.748 0.0
C213 C 0.70274 0.7298 0.77351 0.0
C214 C 0.70958 0.76046 0.78071 0.0
C215 C 0.68752 0.76864 0.7621 0.0
C216 C 0.72571 0.72125 0.79845 0.0
C217 C 0.72631 0.69672 0.76933 0.0
C218 C 0.74461 0.68354 0.80141 0.0
C219 C 0.7458 0.66025 0.75976 0.0
C220 C 0.75864 0.64379 0.79174 0.0
C221 C 0.77064 0.65027 0.86633 0.0
H222 H 0.75711 0.70836 0.9098 0.0
C223 C 0.77093 0.6746 0.90679 0.0
C224 C 0.75789 0.69099 0.87492 0.0
H225 H 0.78 0.68014 0.96443 0.0
H226 H 0.62869 0.69753 0.71104 0.0
H227 H 0.66669 0.68328 0.74438 0.0
H228 H 0.73197 0.77808 0.80121 0.0
H229 H 0.69343 0.79246 0.76871 0.0
H230 H 0.74205 0.73539 0.8422 0.0
H231 H 0.7117 0.68478 0.72061 0.0
H232 H 0.73577 0.65398 0.70312 0.0
H233 H 0.75831 0.62538 0.75864 0.0
C234 C 0.09774 0.77545 0.2018 0.0
C235 C 0.12211 0.77658 0.1598 0.0
C236 C 0.06807 0.76161 0.17072 0.0
C237 C 0.06232 0.74892 0.09657 0.0
C238 C 0.08706 0.75159 0.05341 0.0
C239 C 0.11661 0.76529 0.0845 0.0
C240 C 0.03073 0.72969 0.06545 0.0
C241 C 0.00559 0.72916 0.09391 0.0
C242 C 0.97396 0.70586 0.06985 0.0
C243 C 0.95021 0.71274 0.07603 0.0
C244 C 0.91983 0.69043 0.05887 0.0
C245 C 0.91258 0.66059 0.0363 0.0
H246 H 0.98426 0.66957 0.04343 0.0
C247 C 0.93642 0.65378 0.02967 0.0
C248 C 0.96675 0.67611 0.0464 0.0
H249 H 0.93163 0.631 0.01286 0.0
H250 H 0.10123 0.78388 0.26004 0.0
H251 H 0.04965 0.75957 0.20668 0.0
H252 H 0.08335 0.74204 -0.00375 0.0
H253 H 0.13493 0.76602 0.05024 0.0
H254 H 0.02807 0.71461 0.01787 0.0
H255 H 0.00794 0.74601 0.13626 0.0
H256 H 0.95512 0.73536 0.09482 0.0
H257 H 0.90198 0.69641 0.06495 0.0
C258 C 0.3252 0.09782 0.53933 0.0
C259 C 0.35049 0.12277 0.50379 0.0
C260 C 0.31083 0.06859 0.50547 0.0
C261 C 0.32133 0.0639 0.43486 0.0
C262 C 0.34585 0.08914 0.39832 0.0
C263 C 0.36025 0.11822 0.43219 0.0
C264 C 0.30955 0.03287 0.40074 0.0
C265 C 0.28296 0.00767 0.42084 0.0
C266 C 0.27411 0.97642 0.39238 0.0
C267 C 0.24285 0.95372 0.38919 0.0
C268 C 0.23399 0.92365 0.36658 0.0
C269 C 0.25631 0.91562 0.34763 0.0
H270 H 0.32078 0.98494 0.37731 0.0
C271 C 0.28759 0.93841 0.35062 0.0
C272 C 0.29641 0.96842 0.373 0.0
H273 H 0.30541 0.933 0.33703 0.0
H274 H 0.31722 0.10055 0.59466 0.0
H275 H 0.29246 0.04971 0.53655 0.0
H276 H 0.35448 0.08623 0.34407 0.0
H277 H 0.37952 0.13699 0.40287 0.0
H278 H 0.32379 0.03077 0.3572 0.0
H279 H 0.26697 0.00973 0.45862 0.0
H280 H 0.22525 0.95921 0.40464 0.0
H281 H 0.20968 0.90661 0.3653 0.0
C282 C 0.17648 0.45155 0.6759 0.0
C283 C 0.15511 0.4308 0.72845 0.0
C284 C 0.1745 0.44326 0.59945 0.0
C285 C 0.1512 0.41407 0.57518 0.0
C286 C 0.12704 0.39559 0.62492 0.0
C287 C 0.12897 0.40399 0.70181 0.0
C288 C 0.15502 0.40104 0.5034 0.0
C289 C 0.18205 0.40241 0.48885 0.0
C290 C 0.18968 0.39445 0.41419 0.0
C291 C 0.21977 0.41268 0.38663 0.0
C292 C 0.22634 0.41073 0.31024 0.0
C293 C 0.20303 0.38992 0.26118 0.0
H294 H 0.14416 0.35614 0.38836 0.0
C295 C 0.17404 0.36878 0.29143 0.0
C296 C 0.16727 0.37123 0.36751 0.0
H297 H 0.15563 0.35252 0.25467 0.0
H298 H 0.19673 0.47241 0.69543 0.0
H299 H 0.19287 0.45826 0.56102 0.0
H300 H 0.10863 0.37322 0.6066 0.0
H301 H 0.11231 0.3876 0.74169 0.0
H302 H 0.13584 0.39032 0.46364 0.0
H303 H 0.20063 0.41314 0.53052 0.0
H304 H 0.23754 0.43035 0.42229 0.0
H305 H 0.24887 0.42718 0.28812 0.0
C306 C 0.71642 0.17212 0.01053 0.0
C307 C 0.71874 0.15204 0.06213 0.0
C308 C 0.72242 0.17094 0.93351 0.0
C309 C 0.73105 0.14981 0.90788 0.0
C310 C 0.72827 0.12649 0.957 0.0
C311 C 0.72207 0.12759 0.03443 0.0
C312 C 0.74807 0.1556 0.83567 0.0
C313 C 0.77189 0.18402 0.82111 0.0
C314 C 0.78783 0.19289 0.74701 0.0
C315 C 0.79169 0.17198 0.70171 0.0
C316 C 0.80128 0.17932 0.62606 0.0
C317 C 0.80647 0.20735 0.59476 0.0
H318 H 0.79488 0.23912 0.75345 0.0
C319 C 0.80603 0.22953 0.64272 0.0
C320 C 0.79709 0.22244 0.71873 0.0
H321 H 0.8101 0.25135 0.61992 0.0
H322 H 0.71381 0.19108 0.03103 0.0
H323 H 0.72355 0.18857 0.89564 0.0
H324 H 0.73439 0.10974 0.93766 0.0
H325 H 0.72413 0.112 0.07367 0.0
H326 H 0.74154 0.13662 0.79611 0.0
H327 H 0.77793 0.20238 0.86255 0.0
H328 H 0.7858 0.14944 0.72326 0.0
H329 H 0.80151 0.16179 0.59032 0.0
C330 C 0.53677 0.71834 0.37471 0.0
C331 C 0.55918 0.72014 0.4256 0.0
C332 C 0.54358 0.72401 0.2974 0.0
C333 C 0.57297 0.73176 0.27071 0.0
C334 C 0.59336 0.72844 0.31924 0.0
C335 C 0.58645 0.72262 0.39696 0.0
C336 C 0.58419 0.74834 0.19778 0.0
C337 C 0.58009 0.77236 0.18205 0.0
C338 C 0.58812 0.78861 0.10815 0.0
C339 C 0.61276 0.79173 0.06362 0.0
C340 C 0.61607 0.80216 -0.01155 0.0
C341 C 0.59444 0.80902 0.95672 0.0
H342 H 0.55039 0.79784 0.1138 0.0
C343 C 0.57203 0.80926 0.00414 0.0
C344 C 0.56912 0.7994 0.07966 0.0
H345 H 0.55522 0.81465 0.98118 0.0
H346 H 0.51562 0.71648 0.39594 0.0
H347 H 0.52714 0.72553 0.26007 0.0
H348 H 0.61594 0.73387 0.29916 0.0
H349 H 0.60414 0.72436 0.43566 0.0
H350 H 0.59662 0.74156 0.15903 0.0
H351 H 0.56786 0.77872 0.22279 0.0
H352 H 0.62856 0.78476 0.08536 0.0
H353 H 0.63368 0.80187 0.95331 0.0
C354 C 0.85767 0.58438 0.70695 0.0
C355 C 0.83348 0.5572 0.73782 0.0
C356 C 0.85934 0.58909 0.62812 0.0
C357 C 0.83708 0.56634 0.58012 0.0
C358 C 0.81593 0.53746 0.61046 0.0
C359 C 0.81377 0.53308 0.68924 0.0
C360 C 0.83152 0.57346 0.50218 0.0
C361 C 0.83201 0.59995 0.48599 0.0
C362 C 0.81713 0.60264 0.41616 0.0
C363 C 0.83239 0.62869 0.36946 0.0
C364 C 0.82077 0.62857 0.29674 0.0
C365 C 0.79367 0.6024 0.27073 0.0
H366 H 0.77523 0.55867 0.43114 0.0
C367 C 0.77634 0.57836 0.32219 0.0
C368 C 0.78808 0.57841 0.39421 0.0
H369 H 0.75507 0.55819 0.30447 0.0
H370 H 0.87291 0.60333 0.74389 0.0
H371 H 0.87636 0.6113 0.60552 0.0
H372 H 0.79878 0.51953 0.57415 0.0
H373 H 0.79482 0.51207 0.71239 0.0
H374 H 0.82141 0.55456 0.4613 0.0
H375 H 0.84181 0.61921 0.52573 0.0
H376 H 0.85442 0.64798 0.38663 0.0
H377 H 0.83454 0.64761 0.25867 0.0
C378 C 0.19989 0.82199 0.59227 0.0
C379 C 0.19159 0.79277 0.56258 0.0
C380 C 0.20967 0.82918 0.66796 0.0
C381 C 0.21067 0.807 0.7149 0.0
C382 C 0.19863 0.77677 0.68788 0.0
C383 C 0.18949 0.76976 0.61189 0.0
C384 C 0.2262 0.81488 0.78977 0.0
C385 C 0.2514 0.84228 0.80532 0.0
C386 C 0.26772 0.84642 0.87821 0.0
C387 C 0.27429 0.82369 0.90285 0.0
C388 C 0.27937 0.82123 0.97994 0.0
C389 C 0.2782 0.84164 0.03263 0.0
H390 H 0.26699 0.8877 0.91027 0.0
C391 C 0.27688 0.8674 0.00628 0.0
C392 C 0.27159 0.86978 0.92877 0.0
H393 H 0.27569 0.88323 0.04639 0.0
H394 H 0.2017 0.84017 0.55539 0.0
H395 H 0.21779 0.85239 0.68837 0.0
H396 H 0.19864 0.75917 0.72378 0.0
H397 H 0.18303 0.74704 0.5903 0.0
H398 H 0.21851 0.7963 0.83125 0.0
H399 H 0.2597 0.86154 0.76597 0.0
H400 H 0.27221 0.80593 0.86394 0.0
H401 H 0.28037 0.80122 -0.00063 0.0
C402 C 0.4471 0.27373 0.32146 0.0
C403 C 0.42708 0.27435 0.37616 0.0
C404 C 0.43758 0.26666 0.24593 0.0
C405 C 0.40789 0.26002 0.22467 0.0
C406 C 0.38987 0.26546 0.27643 0.0
C407 C 0.39951 0.2727 0.35243 0.0
C408 C 0.39419 0.24278 0.15371 0.0
C409 C 0.39518 0.21687 0.13977 0.0
C410 C 0.38887 0.20225 0.06396 0.0
C411 C 0.40833 0.19169 0.03758 0.0
C412 C 0.40846 0.18494 0.96047 0.0
C413 C 0.38846 0.18781 0.90954 0.0
H414 H 0.35064 0.20896 0.0346 0.0
C415 C 0.36611 0.19425 0.93795 0.0
C416 C 0.36652 0.20179 0.01482 0.0
H417 H 0.35047 0.19665 0.89958 0.0
H418 H 0.46853 0.27513 0.33869 0.0
H419 H 0.45215 0.2634 0.20586 0.0
H420 H 0.36709 0.26086 0.26039 0.0
H421 H 0.38367 0.27299 0.39398 0.0
H422 H 0.38435 0.25176 0.11292 0.0
H423 H 0.40531 0.20875 0.18233 0.0
H424 H 0.42542 0.19145 0.07505 0.0
H425 H 0.42582 0.17995 0.93965 0.0
C426 C 0.15359 0.50668 0.09134 0.0
C427 C 0.17785 0.50159 0.11112 0.0
C428 C 0.15208 0.5316 0.1224 0.0
C429 C 0.17488 0.55195 0.17376 0.0
C430 C 0.19838 0.54613 0.19556 0.0
C431 C 0.19998 0.52138 0.16438 0.0
C432 C 0.1756 0.57989 0.20456 0.0
C433 C 0.16362 0.59495 0.16725 0.0
C434 C 0.16944 0.62584 0.19114 0.0
C435 C 0.16982 0.64595 0.13493 0.0
C436 C 0.17799 0.67618 0.15352 0.0
C437 C 0.18568 0.6869 0.22909 0.0
H438 H 0.17456 0.62088 0.31287 0.0
C439 C 0.18381 0.66631 0.28616 0.0
C440 C 0.1757 0.63605 0.26746 0.0
H441 H 0.18916 0.67369 0.3451 0.0
H442 H 0.13596 0.49165 0.05122 0.0
H443 H 0.13304 0.53476 0.10606 0.0
H444 H 0.21608 0.56125 0.23549 0.0
H445 H 0.2188 0.51798 0.18167 0.0
H446 H 0.18948 0.59017 0.25537 0.0
H447 H 0.15221 0.58622 0.11267 0.0
H448 H 0.16479 0.63859 0.07587 0.0
H449 H 0.17884 0.69129 0.10819 0.0
C450 C 0.67093 0.20263 0.478 0.0
C451 C 0.6697 0.17911 0.43179 0.0
C452 C 0.64394 0.20105 0.5042 0.0
C453 C 0.615 0.17574 0.48515 0.0
C454 C 0.61376 0.15207 0.43969 0.0
C455 C 0.64081 0.15362 0.41357 0.0
C456 C 0.58584 0.1747 0.50591 0.0
C457 C 0.58339 0.19076 0.56454 0.0
C458 C 0.55559 0.19338 0.57786 0.0
C459 C 0.55036 0.20141 0.65089 0.0
C460 C 0.5257 0.20639 0.6638 0.0
C461 C 0.50599 0.20378 0.6035 0.0
H462 H 0.53943 0.18539 0.46009 0.0
C463 C 0.51112 0.19552 0.53058 0.0
C464 C 0.53565 0.19048 0.51778 0.0
H465 H 0.49648 0.19343 0.48269 0.0
H466 H 0.69278 0.22267 0.49299 0.0
H467 H 0.64598 0.22028 0.53696 0.0
H468 H 0.59177 0.13248 0.4235 0.0
H469 H 0.63902 0.13511 0.37802 0.0
H470 H 0.56577 0.16029 0.47093 0.0
H471 H 0.60241 0.20265 0.60432 0.0
H472 H 0.5656 0.20415 0.69795 0.0
H473 H 0.52245 0.21281 0.72062 0.0
C474 C 0.32461 0.51749 -0.0049 0.0
C475 C 0.30604 0.4958 0.93956 0.0
C476 C 0.35464 0.54051 0.9774 0.0
C477 C 0.3666 0.54229 0.90367 0.0
C478 C 0.3486 0.51966 0.84967 0.0
C479 C 0.31861 0.49678 0.86717 0.0
C480 C 0.39712 0.56792 0.87968 0.0
C481 C 0.40971 0.59644 0.9097 0.0
C482 C 0.43715 0.62356 0.87667 0.0
C483 C 0.44062 0.65282 0.88808 0.0
C484 C 0.46492 0.67882 0.85427 0.0
C485 C 0.48654 0.67621 0.80866 0.0
H486 H 0.45801 0.59897 0.82494 0.0
C487 C 0.48369 0.64705 0.79919 0.0
C488 C 0.4593 0.62098 0.83302 0.0
H489 H 0.50019 0.64429 0.76534 0.0
H490 H 0.31576 0.51713 0.0517 0.0
H491 H 0.36824 0.55693 0.02139 0.0
H492 H 0.35736 0.52029 0.79276 0.0
H493 H 0.3051 0.48021 0.82326 0.0
H494 H 0.40755 0.56398 0.82986 0.0
H495 H 0.39767 0.60092 0.95491 0.0
H496 H 0.42406 0.65553 0.92191 0.0
H497 H 0.46654 0.70096 0.86352 0.0
C498 C 0.80381 0.32615 0.31477 0.0
C499 C 0.80485 0.30619 0.26001 0.0
C500 C 0.81149 0.35617 0.29472 0.0
C501 C 0.82019 0.36672 0.2193 0.0
C502 C 0.8226 0.34724 0.16576 0.0
C503 C 0.8149 0.31729 0.18568 0.0
C504 C 0.82586 0.39731 0.19327 0.0
C505 C 0.81216 0.41172 0.22545 0.0
C506 C 0.81304 0.43932 0.19168 0.0
C507 C 0.78876 0.44463 0.20812 0.0
C508 C 0.78743 0.4691 0.17432 0.0
C509 C 0.81057 0.48911 0.12363 0.0
H510 H 0.8564 0.45713 0.13055 0.0
C511 C 0.83549 0.48447 0.10897 0.0
C512 C 0.83677 0.45985 0.14277 0.0
H513 H 0.85389 0.49969 0.071 0.0
H514 H 0.7966 0.31847 0.37279 0.0
H515 H 0.81041 0.37088 0.33837 0.0
H516 H 0.82955 0.35487 0.10754 0.0
H517 H 0.81633 0.30268 0.14218 0.0
H518 H 0.83885 0.40633 0.14082 0.0
H519 H 0.79691 0.40115 0.27382 0.0
H520 H 0.77031 0.42936 0.24602 0.0
H521 H 0.76803 0.47212 0.18767 0.0
C522 C 0.34808 0.83381 0.42244 0.0
C523 C 0.32137 0.80643 0.40091 0.0
C524 C 0.37358 0.83288 0.45169 0.0
C525 C 0.37289 0.8046 0.45826 0.0
C526 C 0.34639 0.77739 0.4357 0.0
C527 C 0.32072 0.77822 0.40836 0.0
C528 C 0.39998 0.80277 0.48398 0.0
C529 C 0.41901 0.82045 0.54006 0.0
C530 C 0.44527 0.81683 0.56462 0.0
C531 C 0.45217 0.81741 0.64254 0.0
C532 C 0.47541 0.8115 0.6662 0.0
C533 C 0.49249 0.80561 0.612 0.0
H534 H 0.45872 0.8122 0.44991 0.0
C535 C 0.48639 0.80652 0.53389 0.0
C536 C 0.46302 0.81198 0.51051 0.0
H537 H 0.49921 0.80233 0.49045 0.0
H538 H 0.34914 0.85585 0.41731 0.0
H539 H 0.39402 0.85428 0.4673 0.0
H540 H 0.34549 0.75539 0.43964 0.0
H541 H 0.30052 0.75677 0.39171 0.0
H542 H 0.40326 0.7848 0.45873 0.0
H543 H 0.41408 0.83615 0.57154 0.0
H544 H 0.43891 0.82139 0.68515 0.0
H545 H 0.47975 0.81123 0.72675 0.0
C546 C 0.67162 0.48987 0.87558 0.0
C547 C 0.68365 0.49421 0.95005 0.0
C548 C 0.64175 0.46621 0.85959 0.0
C549 C 0.62303 0.44639 0.91796 0.0
C550 C 0.6348 0.45117 -0.0073 0.0
C551 C 0.66474 0.4749 0.00874 0.0
C552 C 0.59255 0.41882 0.90167 0.0
C553 C 0.57598 0.41553 0.83806 0.0
C554 C 0.54836 0.38598 0.81553 0.0
C555 C 0.52758 0.38639 0.76233 0.0
C556 C 0.50295 0.35885 0.73447 0.0
C557 C 0.4988 0.33029 0.75875 0.0
H558 H 0.55982 0.35588 0.87965 0.0
C559 C 0.51934 0.32992 0.81287 0.0
C560 C 0.54387 0.35737 0.84071 0.0
H561 H 0.51695 0.30836 0.83274 0.0
H562 H 0.68556 0.50426 0.82888 0.0
H563 H 0.63409 0.4629 0.80081 0.0
H564 H 0.62102 0.4361 0.03865 0.0
H565 H 0.67327 0.47756 0.06673 0.0
H566 H 0.58384 0.40035 0.94344 0.0
H567 H 0.58298 0.43499 0.79996 0.0
H568 H 0.53068 0.40809 0.74133 0.0
H569 H 0.48759 0.35998 0.69274 0.0
loop_
_geom_bond_atom_site_label_1
_geom_bond_atom_site_label_2
_geom_bond_distance
_geom_bond_site_symmetry_2
_ccdc_geom_bond_type
O0 Zn1 1.953 1_554 S
O0 C16 1.225 . S
Zn1 O0 1.953 1_556 S
Zn1 O2 1.949 1_556 S
Zn1 O8 1.919 1_556 S
Zn1 O13 1.924 . S
O2 Zn1 1.949 1_554 S
O2 Zn3 1.923 . S
O2 Zn4 1.950 . S
O2 Zn5 1.945 1_554 S
Zn3 O2 1.923 . S
Zn3 O6 1.933 . S
Zn3 O9 1.941 . S
Zn3 O10 1.965 . S
Zn4 O2 1.950 . S
Zn4 O11 1.938 . S
Zn4 O12 1.906 . S
Zn4 O22 1.953 . S
Zn5 O2 1.945 1_556 S
Zn5 O7 1.932 . S
Zn5 O14 1.977 . S
Zn5 O15 1.910 . S
O6 Zn3 1.933 . S
O6 C17 1.226 1_554 S
O7 Zn5 1.932 . S
O7 C17 1.307 . S
O8 Zn1 1.919 1_554 S
O8 C19 1.253 . S
O9 Zn3 1.941 . S
O9 C19 1.283 . S
O10 Zn3 1.965 . S
O10 C18 1.303 . S
O11 Zn4 1.938 . S
O11 C18 1.247 . S
O12 Zn4 1.906 . S
O12 C20 1.304 1_554 S
O13 Zn1 1.924 . S
O13 C21 1.311 . S
O14 Zn5 1.977 . S
O14 C20 1.272 . S
O15 Zn5 1.910 . S
O15 C21 1.231 . S
C16 O0 1.225 . S
C16 O22 1.298 . S
C17 O6 1.226 1_556 S
C17 O7 1.307 . S
C18 O10 1.303 . S
C18 O11 1.247 . S
C19 O8 1.253 . S
C19 O9 1.283 . S
C20 O12 1.304 1_556 S
C20 O14 1.272 . S
C21 O13 1.311 . S
C21 O15 1.231 . S
O22 Zn4 1.953 . S
O22 C16 1.298 . S
O23 Zn24 1.953 . S
O23 C39 1.225 . S
Zn24 O23 1.953 . S
Zn24 O25 1.949 . S
Zn24 O31 1.919 . S
Zn24 O36 1.924 . S
O25 Zn24 1.949 . S
O25 Zn26 1.923 . S
O25 Zn27 1.950 . S
O25 Zn28 1.945 . S
Zn26 O25 1.923 . S
Zn26 O29 1.933 . S
Zn26 O32 1.941 . S
Zn26 O33 1.965 . S
Zn27 O25 1.950 . S
Zn27 O34 1.938 . S
Zn27 O35 1.906 . S
Zn27 O45 1.953 . S
Zn28 O25 1.945 . S
Zn28 O30 1.932 . S
Zn28 O37 1.977 . S
Zn28 O38 1.910 . S
O29 Zn26 1.933 . S
O29 C40 1.226 . S
O30 Zn28 1.932 . S
O30 C40 1.307 . S
O31 Zn24 1.919 . S
O31 C42 1.253 . S
O32 Zn26 1.941 . S
O32 C42 1.283 . S
O33 Zn26 1.965 . S
O33 C41 1.303 . S
O34 Zn27 1.938 . S
O34 C41 1.247 . S
O35 Zn27 1.906 . S
O35 C43 1.304 . S
O36 Zn24 1.924 . S
O36 C44 1.311 . S
O37 Zn28 1.977 . S
O37 C43 1.272 . S
O38 Zn28 1.910 . S
O38 C44 1.231 . S
C39 O23 1.225 . S
C39 O45 1.298 . S
C40 O29 1.226 . S
C40 O30 1.307 . S
C41 O33 1.303 . S
C41 O34 1.247 . S
C42 O31 1.253 . S
C42 O32 1.283 . S
C43 O35 1.304 . S
C43 O37 1.272 . S
C44 O36 1.311 . S
C44 O38 1.231 . S
O45 Zn27 1.953 . S
O45 C39 1.298 . S
O46 Zn47 1.953 . S
O46 C62 1.225 . S
Zn47 O46 1.953 . S
Zn47 O48 1.949 . S
Zn47 O54 1.919 . S
Zn47 O59 1.924 . S
O48 Zn47 1.949 . S
O48 Zn49 1.923 . S
O48 Zn50 1.950 . S
O48 Zn51 1.945 . S
Zn49 O48 1.923 . S
Zn49 O52 1.933 . S
Zn49 O55 1.941 . S
Zn49 O56 1.965 . S
Zn50 O48 1.950 . S
Zn50 O57 1.938 . S
Zn50 O58 1.906 . S
Zn50 O68 1.953 . S
Zn51 O48 1.945 . S
Zn51 O53 1.932 . S
Zn51 O60 1.977 . S
Zn51 O61 1.910 . S
O52 Zn49 1.933 . S
O52 C63 1.226 . S
O53 Zn51 1.932 . S
O53 C63 1.307 . S
O54 Zn47 1.919 . S
O54 C65 1.253 . S
O55 Zn49 1.941 . S
O55 C65 1.283 . S
O56 Zn49 1.965 . S
O56 C64 1.303 . S
O57 Zn50 1.938 . S
O57 C64 1.247 . S
O58 Zn50 1.906 . S
O58 C66 1.304 . S
O59 Zn47 1.924 . S
O59 C67 1.311 . S
O60 Zn51 1.977 . S
O60 C66 1.272 . S
O61 Zn51 1.910 . S
O61 C67 1.231 . S
C62 O46 1.225 . S
C62 O68 1.298 . S
C63 O52 1.226 . S
C63 O53 1.307 . S
C64 O56 1.303 . S
C64 O57 1.247 . S
C65 O54 1.253 . S
C65 O55 1.283 . S
C66 O58 1.304 . S
C66 O60 1.272 . S
C67 O59 1.311 . S
C67 O61 1.231 . S
O68 Zn50 1.953 . S
O68 C62 1.298 . S
O69 Zn70 1.953 1_554 S
O69 C85 1.225 . S
Zn70 O69 1.953 1_556 S
Zn70 O71 1.949 1_556 S
Zn70 O77 1.919 1_556 S
Zn70 O82 1.924 . S
O71 Zn70 1.949 1_554 S
O71 Zn72 1.923 . S
O71 Zn73 1.950 . S
O71 Zn74 1.945 1_554 S
Zn72 O71 1.923 . S
Zn72 O75 1.933 . S
Zn72 O78 1.941 . S
Zn72 O79 1.965 . S
Zn73 O71 1.950 . S
Zn73 O80 1.938 . S
Zn73 O81 1.906 . S
Zn73 O91 1.953 . S
Zn74 O71 1.945 1_556 S
Zn74 O76 1.932 . S
Zn74 O83 1.977 . S
Zn74 O84 1.910 . S
O75 Zn72 1.933 . S
O75 C86 1.226 1_554 S
O76 Zn74 1.932 . S
O76 C86 1.307 . S
O77 Zn70 1.919 1_554 S
O77 C88 1.253 . S
O78 Zn72 1.941 . S
O78 C88 1.283 . S
O79 Zn72 1.965 . S
O79 C87 1.303 . S
O80 Zn73 1.938 . S
O80 C87 1.247 . S
O81 Zn73 1.906 . S
O81 C89 1.304 1_554 S
O82 Zn70 1.924 . S
O82 C90 1.311 . S
O83 Zn74 1.977 . S
O83 C89 1.272 . S
O84 Zn74 1.910 . S
O84 C90 1.231 . S
C85 O69 1.225 . S
C85 O91 1.298 . S
C86 O75 1.226 1_556 S
C86 O76 1.307 . S
C87 O79 1.303 . S
C87 O80 1.247 . S
C88 O77 1.253 . S
C88 O78 1.283 . S
C89 O81 1.304 1_556 S
C89 O83 1.272 . S
C90 O82 1.311 . S
C90 O84 1.231 . S
O91 Zn73 1.953 . S
O91 C85 1.298 . S
O92 Zn93 1.953 . S
O92 C108 1.225 . S
Zn93 O92 1.953 . S
Zn93 O94 1.949 . S
Zn93 O100 1.919 . S
Zn93 O105 1.924 . S
O94 Zn93 1.949 . S
O94 Zn95 1.923 . S
O94 Zn96 1.950 . S
O94 Zn97 1.945 . S
Zn95 O94 1.923 . S
Zn95 O98 1.933 . S
Zn95 O101 1.941 . S
Zn95 O102 1.965 . S
Zn96 O94 1.950 . S
Zn96 O103 1.938 . S
Zn96 O104 1.906 . S
Zn96 O114 1.953 . S
Zn97 O94 1.945 . S
Zn97 O99 1.932 . S
Zn97 O106 1.977 . S
Zn97 O107 1.910 . S
O98 Zn95 1.933 . S
O98 C109 1.226 . S
O99 Zn97 1.932 . S
O99 C109 1.307 . S
O100 Zn93 1.919 . S
O100 C111 1.253 . S
O101 Zn95 1.941 . S
O101 C111 1.283 . S
O102 Zn95 1.965 . S
O102 C110 1.303 . S
O103 Zn96 1.938 . S
O103 C110 1.247 . S
O104 Zn96 1.906 . S
O104 C112 1.304 . S
O105 Zn93 1.924 . S
O105 C113 1.311 . S
O106 Zn97 1.977 . S
O106 C112 1.272 . S
O107 Zn97 1.910 . S
O107 C113 1.231 . S
C108 O92 1.225 . S
C108 O114 1.298 . S
C109 O98 1.226 . S
C109 O99 1.307 . S
C110 O102 1.303 . S
C110 O103 1.247 . S
C111 O100 1.253 . S
C111 O101 1.283 . S
C112 O104 1.304 . S
C112 O106 1.272 . S
C113 O105 1.311 . S
C113 O107 1.231 . S
O114 Zn96 1.953 . S
O114 C108 1.298 . S
O115 Zn116 1.953 . S
O115 C131 1.225 . S
Zn116 O115 1.953 . S
Zn116 O117 1.949 . S
Zn116 O123 1.919 . S
Zn116 O128 1.924 . S
O117 Zn116 1.949 . S
O117 Zn118 1.923 . S
O117 Zn119 1.950 . S
O117 Zn120 1.945 . S
Zn118 O117 1.923 . S
Zn118 O121 1.933 . S
Zn118 O124 1.941 . S
Zn118 O125 1.965 . S
Zn119 O117 1.950 . S
Zn119 O126 1.938 . S
Zn119 O127 1.906 . S
Zn119 O137 1.953 . S
Zn120 O117 1.945 . S
Zn120 O122 1.932 . S
Zn120 O129 1.977 . S
Zn120 O130 1.910 . S
O121 Zn118 1.933 . S
O121 C132 1.226 . S
O122 Zn120 1.932 . S
O122 C132 1.307 . S
O123 Zn116 1.919 . S
O123 C134 1.253 . S
O124 Zn118 1.941 . S
O124 C134 1.283 . S
O125 Zn118 1.965 . S
O125 C133 1.303 . S
O126 Zn119 1.938 . S
O126 C133 1.247 . S
O127 Zn119 1.906 . S
O127 C135 1.304 . S
O128 Zn116 1.924 . S
O128 C136 1.311 . S
O129 Zn120 1.977 . S
O129 C135 1.272 . S
O130 Zn120 1.910 . S
O130 C136 1.231 . S
C131 O115 1.225 . S
C131 O137 1.298 . S
C132 O121 1.226 . S
C132 O122 1.307 . S
C133 O125 1.303 . S
C133 O126 1.247 . S
C134 O123 1.253 . S
C134 O124 1.283 . S
C135 O127 1.304 . S
C135 O129 1.272 . S
C136 O128 1.311 . S
C136 O130 1.231 . S
O137 Zn119 1.953 . S
O137 C131 1.298 . S
C138 C139 1.386 . S
C138 C140 1.383 . S
C138 H154 0.951 . S
C139 C138 1.386 . S
C139 C143 1.383 . S
C140 C138 1.383 . S
C140 C141 1.402 . S
C140 H155 0.951 . S
C141 C140 1.402 . S
C141 C142 1.375 . S
C141 C144 1.481 . S
C142 C141 1.375 . S
C142 C143 1.367 . S
C142 H156 0.951 . S
C143 C139 1.383 . S
C143 C142 1.367 . S
C143 H157 0.950 . S
C144 C141 1.481 . S
C144 C145 1.297 . S
C144 H158 0.950 . S
C145 C144 1.297 . S
C145 C146 1.479 . S
C145 H159 0.950 . S
C146 C145 1.479 . S
C146 C147 1.375 . S
C146 C152 1.404 . S
C147 C146 1.375 . S
C147 C148 1.369 . S
C147 H160 0.950 . S
C148 C147 1.369 . S
C148 C149 1.392 . S
C148 H161 0.951 . S
C149 C148 1.392 . S
C149 C151 1.384 . S
H150 C152 0.949 . S
C151 C149 1.384 . S
C151 C152 1.385 . S
C151 H153 0.950 . S
C152 C146 1.404 . S
C152 H150 0.949 . S
C152 C151 1.385 . S
H153 C151 0.950 . S
H154 C138 0.951 . S
H155 C140 0.951 . S
H156 C142 0.951 . S
H157 C143 0.950 . S
H158 C144 0.950 . S
H159 C145 0.950 . S
H160 C147 0.950 . S
H161 C148 0.951 . S
C162 C163 1.386 . S
C162 C164 1.383 . S
C162 H178 0.951 1_554 S
C163 C162 1.386 . S
C163 C167 1.383 . S
C164 C162 1.383 . S
C164 C165 1.402 . S
C164 H179 0.951 . S
C165 C164 1.402 . S
C165 C166 1.375 . S
C165 C168 1.481 1_455 S
C166 C165 1.375 . S
C166 C167 1.367 . S
C166 H180 0.951 . S
C167 C163 1.383 . S
C167 C166 1.367 . S
C167 H181 0.950 . S
C168 C165 1.481 1_655 S
C168 C169 1.297 . S
C168 H182 0.950 . S
C169 C168 1.297 . S
C169 C170 1.479 . S
C169 H183 0.950 . S
C170 C169 1.479 . S
C170 C171 1.375 . S
C170 C176 1.404 . S
C171 C170 1.375 . S
C171 C172 1.369 . S
C171 H184 0.950 . S
C172 C171 1.369 . S
C172 C173 1.392 . S
C172 H185 0.951 . S
C173 C172 1.392 . S
C173 C175 1.384 . S
H174 C176 0.949 . S
C175 C173 1.384 . S
C175 C176 1.385 . S
C175 H177 0.950 . S
C176 C170 1.404 . S
C176 H174 0.949 . S
C176 C175 1.385 . S
H177 C175 0.950 . S
H178 C162 0.951 1_556 S
H179 C164 0.951 . S
H180 C166 0.951 . S
H181 C167 0.950 . S
H182 C168 0.950 . S
H183 C169 0.950 . S
H184 C171 0.950 . S
H185 C172 0.951 . S
C186 C187 1.386 . S
C186 C188 1.383 . S
C186 H202 0.951 . S
C187 C186 1.386 . S
C187 C191 1.383 . S
C188 C186 1.383 . S
C188 C189 1.402 . S
C188 H203 0.951 . S
C189 C188 1.402 . S
C189 C190 1.375 . S
C189 C192 1.481 1_545 S
C190 C189 1.375 . S
C190 C191 1.367 . S
C190 H204 0.951 . S
C191 C187 1.383 . S
C191 C190 1.367 . S
C191 H205 0.950 . S
C192 C189 1.481 1_565 S
C192 C193 1.297 . S
C192 H206 0.950 . S
C193 C192 1.297 . S
C193 C194 1.479 . S
C193 H207 0.950 . S
C194 C193 1.479 . S
C194 C195 1.375 . S
C194 C200 1.404 . S
C195 C194 1.375 . S
C195 C196 1.369 . S
C195 H208 0.950 . S
C196 C195 1.369 . S
C196 C197 1.392 . S
C196 H209 0.951 . S
C197 C196 1.392 . S
C197 C199 1.384 . S
H198 C200 0.949 . S
C199 C197 1.384 . S
C199 C200 1.385 . S
C199 H201 0.950 . S
C200 C194 1.404 . S
C200 H198 0.949 . S
C200 C199 1.385 . S
H201 C199 0.950 . S
H202 C186 0.951 . S
H203 C188 0.951 . S
H204 C190 0.951 . S
H205 C191 0.950 . S
H206 C192 0.950 . S
H207 C193 0.950 . S
H208 C195 0.950 . S
H209 C196 0.951 . S
C210 C211 1.386 . S
C210 C212 1.383 . S
C210 H226 0.951 . S
C211 C210 1.386 . S
C211 C215 1.383 . S
C212 C210 1.383 . S
C212 C213 1.402 . S
C212 H227 0.951 . S
C213 C212 1.402 . S
C213 C214 1.375 . S
C213 C216 1.481 . S
C214 C213 1.375 . S
C214 C215 1.367 . S
C214 H228 0.951 . S
C215 C211 1.383 . S
C215 C214 1.367 . S
C215 H229 0.950 . S
C216 C213 1.481 . S
C216 C217 1.297 . S
C216 H230 0.950 . S
C217 C216 1.297 . S
C217 C218 1.479 . S
C217 H231 0.950 . S
C218 C217 1.479 . S
C218 C219 1.375 . S
C218 C224 1.404 . S
C219 C218 1.375 . S
C219 C220 1.369 . S
C219 H232 0.950 . S
C220 C219 1.369 . S
C220 C221 1.392 . S
C220 H233 0.951 . S
C221 C220 1.392 . S
C221 C223 1.384 . S
H222 C224 0.949 . S
C223 C221 1.384 . S
C223 C224 1.385 . S
C223 H225 0.950 1_556 S
C224 C218 1.404 . S
C224 H222 0.949 . S
C224 C223 1.385 . S
H225 C223 0.950 1_554 S
H226 C210 0.951 . S
H227 C212 0.951 . S
H228 C214 0.951 . S
H229 C215 0.950 . S
H230 C216 0.950 . S
H231 C217 0.950 . S
H232 C219 0.950 . S
H233 C220 0.951 . S
C234 C235 1.386 . S
C234 C236 1.383 . S
C234 H250 0.951 . S
C235 C234 1.386 . S
C235 C239 1.383 . S
C236 C234 1.383 . S
C236 C237 1.402 . S
C236 H251 0.951 . S
C237 C236 1.402 . S
C237 C238 1.375 . S
C237 C240 1.481 . S
C238 C237 1.375 . S
C238 C239 1.367 . S
C238 H252 0.951 . S
C239 C235 1.383 . S
C239 C238 1.367 . S
C239 H253 0.950 . S
C240 C237 1.481 . S
C240 C241 1.297 . S
C240 H254 0.950 . S
C241 C240 1.297 . S
C241 C242 1.479 1_455 S
C241 H255 0.950 . S
C242 C241 1.479 1_655 S
C242 C243 1.375 . S
C242 C248 1.404 . S
C243 C242 1.375 . S
C243 C244 1.369 . S
C243 H256 0.950 . S
C244 C243 1.369 . S
C244 C245 1.392 . S
C244 H257 0.951 . S
C245 C244 1.392 . S
C245 C247 1.384 . S
H246 C248 0.949 . S
C247 C245 1.384 . S
C247 C248 1.385 . S
C247 H249 0.950 . S
C248 C242 1.404 . S
C248 H246 0.949 . S
C248 C247 1.385 . S
H249 C247 0.950 . S
H250 C234 0.951 . S
H251 C236 0.951 . S
H252 C238 0.951 . S
H253 C239 0.950 . S
H254 C240 0.950 . S
H255 C241 0.950 . S
H256 C243 0.950 . S
H257 C244 0.951 . S
C258 C259 1.386 . S
C258 C260 1.383 . S
C258 H274 0.951 . S
C259 C258 1.386 . S
C259 C263 1.383 . S
C260 C258 1.383 . S
C260 C261 1.402 . S
C260 H275 0.951 . S
C261 C260 1.402 . S
C261 C262 1.375 . S
C261 C264 1.481 . S
C262 C261 1.375 . S
C262 C263 1.367 . S
C262 H276 0.951 . S
C263 C259 1.383 . S
C263 C262 1.367 . S
C263 H277 0.950 . S
C264 C261 1.481 . S
C264 C265 1.297 . S
C264 H278 0.950 . S
C265 C264 1.297 . S
C265 C266 1.479 1_545 S
C265 H279 0.950 . S
C266 C265 1.479 1_565 S
C266 C267 1.375 . S
C266 C272 1.404 . S
C267 C266 1.375 . S
C267 C268 1.369 . S
C267 H280 0.950 . S
C268 C267 1.369 . S
C268 C269 1.392 . S
C268 H281 0.951 . S
C269 C268 1.392 . S
C269 C271 1.384 . S
H270 C272 0.949 . S
C271 C269 1.384 . S
C271 C272 1.385 . S
C271 H273 0.950 . S
C272 C266 1.404 . S
C272 H270 0.949 . S
C272 C271 1.385 . S
H273 C271 0.950 . S
H274 C258 0.951 . S
H275 C260 0.951 . S
H276 C262 0.951 . S
H277 C263 0.950 . S
H278 C264 0.950 . S
H279 C265 0.950 . S
H280 C267 0.950 . S
H281 C268 0.951 . S
C282 C283 1.386 . S
C282 C284 1.383 . S
C282 H298 0.951 . S
C283 C282 1.386 . S
C283 C287 1.383 . S
C284 C282 1.383 . S
C284 C285 1.402 . S
C284 H299 0.951 . S
C285 C284 1.402 . S
C285 C286 1.375 . S
C285 C288 1.481 . S
C286 C285 1.375 . S
C286 C287 1.367 . S
C286 H300 0.951 . S
C287 C283 1.383 . S
C287 C286 1.367 . S
C287 H301 0.950 . S
C288 C285 1.481 . S
C288 C289 1.297 . S
C288 H302 0.950 . S
C289 C288 1.297 . S
C289 C290 1.479 . S
C289 H303 0.950 . S
C290 C289 1.479 . S
C290 C291 1.375 . S
C290 C296 1.404 . S
C291 C290 1.375 . S
C291 C292 1.369 . S
C291 H304 0.950 . S
C292 C291 1.369 . S
C292 C293 1.392 . S
C292 H305 0.951 . S
C293 C292 1.392 . S
C293 C295 1.384 . S
H294 C296 0.949 . S
C295 C293 1.384 . S
C295 C296 1.385 . S
C295 H297 0.950 . S
C296 C290 1.404 . S
C296 H294 0.949 . S
C296 C295 1.385 . S
H297 C295 0.950 . S
H298 C282 0.951 . S
H299 C284 0.951 . S
H300 C286 0.951 . S
H301 C287 0.950 . S
H302 C288 0.950 . S
H303 C289 0.950 . S
H304 C291 0.950 . S
H305 C292 0.951 . S
C306 C307 1.386 . S
C306 C308 1.383 1_554 S
C306 H322 0.951 . S
C307 C306 1.386 . S
C307 C311 1.383 . S
C308 C306 1.383 1_556 S
C308 C309 1.402 . S
C308 H323 0.951 . S
C309 C308 1.402 . S
C309 C310 1.375 1_556 S
C309 C312 1.481 . S
C310 C309 1.375 1_554 S
C310 C311 1.367 . S
C310 H324 0.951 . S
C311 C307 1.383 . S
C311 C310 1.367 . S
C311 H325 0.950 . S
C312 C309 1.481 . S
C312 C313 1.297 . S
C312 H326 0.950 . S
C313 C312 1.297 . S
C313 C314 1.479 . S
C313 H327 0.950 . S
C314 C313 1.479 . S
C314 C315 1.375 . S
C314 C320 1.404 . S
C315 C314 1.375 . S
C315 C316 1.369 . S
C315 H328 0.950 . S
C316 C315 1.369 . S
C316 C317 1.392 . S
C316 H329 0.951 . S
C317 C316 1.392 . S
C317 C319 1.384 . S
H318 C320 0.949 . S
C319 C317 1.384 . S
C319 C320 1.385 . S
C319 H321 0.950 . S
C320 C314 1.404 . S
C320 H318 0.949 . S
C320 C319 1.385 . S
H321 C319 0.950 . S
H322 C306 0.951 . S
H323 C308 0.951 . S
H324 C310 0.951 . S
H325 C311 0.950 . S
H326 C312 0.950 . S
H327 C313 0.950 . S
H328 C315 0.950 . S
H329 C316 0.951 . S
C330 C331 1.386 . S
C330 C332 1.383 . S
C330 H346 0.951 . S
C331 C330 1.386 . S
C331 C335 1.383 . S
C332 C330 1.383 . S
C332 C333 1.402 . S
C332 H347 0.951 . S
C333 C332 1.402 . S
C333 C334 1.375 . S
C333 C336 1.481 . S
C334 C333 1.375 . S
C334 C335 1.367 . S
C334 H348 0.951 . S
C335 C331 1.383 . S
C335 C334 1.367 . S
C335 H349 0.950 . S
C336 C333 1.481 . S
C336 C337 1.297 . S
C336 H350 0.950 . S
C337 C336 1.297 . S
C337 C338 1.479 . S
C337 H351 0.950 . S
C338 C337 1.479 . S
C338 C339 1.375 . S
C338 C344 1.404 . S
C339 C338 1.375 . S
C339 C340 1.369 1_554 S
C339 H352 0.950 . S
C340 C339 1.369 1_556 S
C340 C341 1.392 . S
C340 H353 0.951 . S
C341 C340 1.392 . S
C341 C343 1.384 . S
H342 C344 0.949 . S
C343 C341 1.384 . S
C343 C344 1.385 1_556 S
C343 H345 0.950 . S
C344 C338 1.404 . S
C344 H342 0.949 . S
C344 C343 1.385 1_554 S
H345 C343 0.950 . S
H346 C330 0.951 . S
H347 C332 0.951 . S
H348 C334 0.951 . S
H349 C335 0.950 . S
H350 C336 0.950 . S
H351 C337 0.950 . S
H352 C339 0.950 . S
H353 C340 0.951 . S
C354 C355 1.386 . S
C354 C356 1.383 . S
C354 H370 0.951 . S
C355 C354 1.386 . S
C355 C359 1.383 . S
C356 C354 1.383 . S
C356 C357 1.402 . S
C356 H371 0.951 . S
C357 C356 1.402 . S
C357 C358 1.375 . S
C357 C360 1.481 . S
C358 C357 1.375 . S
C358 C359 1.367 . S
C358 H372 0.951 . S
C359 C355 1.383 . S
C359 C358 1.367 . S
C359 H373 0.950 . S
C360 C357 1.481 . S
C360 C361 1.297 . S
C360 H374 0.950 . S
C361 C360 1.297 . S
C361 C362 1.479 . S
C361 H375 0.950 . S
C362 C361 1.479 . S
C362 C363 1.375 . S
C362 C368 1.404 . S
C363 C362 1.375 . S
C363 C364 1.369 . S
C363 H376 0.950 . S
C364 C363 1.369 . S
C364 C365 1.392 . S
C364 H377 0.951 . S
C365 C364 1.392 . S
C365 C367 1.384 . S
H366 C368 0.949 . S
C367 C365 1.384 . S
C367 C368 1.385 . S
C367 H369 0.950 . S
C368 C362 1.404 . S
C368 H366 0.949 . S
C368 C367 1.385 . S
H369 C367 0.950 . S
H370 C354 0.951 . S
H371 C356 0.951 . S
H372 C358 0.951 . S
H373 C359 0.950 . S
H374 C360 0.950 . S
H375 C361 0.950 . S
H376 C363 0.950 . S
H377 C364 0.951 . S
C378 C379 1.386 . S
C378 C380 1.383 . S
C378 H394 0.951 . S
C379 C378 1.386 . S
C379 C383 1.383 . S
C380 C378 1.383 . S
C380 C381 1.402 . S
C380 H395 0.951 . S
C381 C380 1.402 . S
C381 C382 1.375 . S
C381 C384 1.481 . S
C382 C381 1.375 . S
C382 C383 1.367 . S
C382 H396 0.951 . S
C383 C379 1.383 . S
C383 C382 1.367 . S
C383 H397 0.950 . S
C384 C381 1.481 . S
C384 C385 1.297 . S
C384 H398 0.950 . S
C385 C384 1.297 . S
C385 C386 1.479 . S
C385 H399 0.950 . S
C386 C385 1.479 . S
C386 C387 1.375 . S
C386 C392 1.404 1_556 S
C387 C386 1.375 . S
C387 C388 1.369 1_556 S
C387 H400 0.950 . S
C388 C387 1.369 1_554 S
C388 C389 1.392 . S
C388 H401 0.951 . S
C389 C388 1.392 . S
C389 C391 1.384 . S
H390 C392 0.949 1_556 S
C391 C389 1.384 . S
C391 C392 1.385 . S
C391 H393 0.950 . S
C392 C386 1.404 1_554 S
C392 H390 0.949 1_554 S
C392 C391 1.385 . S
H393 C391 0.950 . S
H394 C378 0.951 . S
H395 C380 0.951 . S
H396 C382 0.951 . S
H397 C383 0.950 . S
H398 C384 0.950 . S
H399 C385 0.950 . S
H400 C387 0.950 . S
H401 C388 0.951 . S
C402 C403 1.386 . S
C402 C404 1.383 . S
C402 H418 0.951 . S
C403 C402 1.386 . S
C403 C407 1.383 . S
C404 C402 1.383 . S
C404 C405 1.402 . S
C404 H419 0.951 . S
C405 C404 1.402 . S
C405 C406 1.375 . S
C405 C408 1.481 . S
C406 C405 1.375 . S
C406 C407 1.367 . S
C406 H420 0.951 . S
C407 C403 1.383 . S
C407 C406 1.367 . S
C407 H421 0.950 . S
C408 C405 1.481 . S
C408 C409 1.297 . S
C408 H422 0.950 . S
C409 C408 1.297 . S
C409 C410 1.479 . S
C409 H423 0.950 . S
C410 C409 1.479 . S
C410 C411 1.375 . S
C410 C416 1.404 . S
C411 C410 1.375 . S
C411 C412 1.369 1_554 S
C411 H424 0.950 . S
C412 C411 1.369 1_556 S
C412 C413 1.392 . S
C412 H425 0.951 . S
C413 C412 1.392 . S
C413 C415 1.384 . S
H414 C416 0.949 . S
C415 C413 1.384 . S
C415 C416 1.385 1_556 S
C415 H417 0.950 . S
C416 C410 1.404 . S
C416 H414 0.949 . S
C416 C415 1.385 1_554 S
H417 C415 0.950 . S
H418 C402 0.951 . S
H419 C404 0.951 . S
H420 C406 0.951 . S
H421 C407 0.950 . S
H422 C408 0.950 . S
H423 C409 0.950 . S
H424 C411 0.950 . S
H425 C412 0.951 . S
C426 C427 1.386 . S
C426 C428 1.383 . S
C426 H442 0.951 1_554 S
C427 C426 1.386 . S
C427 C431 1.383 . S
C428 C426 1.383 . S
C428 C429 1.402 . S
C428 H443 0.951 . S
C429 C428 1.402 . S
C429 C430 1.375 . S
C429 C432 1.481 . S
C430 C429 1.375 . S
C430 C431 1.367 . S
C430 H444 0.951 . S
C431 C427 1.383 . S
C431 C430 1.367 . S
C431 H445 0.950 . S
C432 C429 1.481 . S
C432 C433 1.297 . S
C432 H446 0.950 . S
C433 C432 1.297 . S
C433 C434 1.479 . S
C433 H447 0.950 . S
C434 C433 1.479 . S
C434 C435 1.375 . S
C434 C440 1.404 . S
C435 C434 1.375 . S
C435 C436 1.369 . S
C435 H448 0.950 . S
C436 C435 1.369 . S
C436 C437 1.392 . S
C436 H449 0.951 . S
C437 C436 1.392 . S
C437 C439 1.384 . S
H438 C440 0.949 . S
C439 C437 1.384 . S
C439 C440 1.385 . S
C439 H441 0.950 . S
C440 C434 1.404 . S
C440 H438 0.949 . S
C440 C439 1.385 . S
H441 C439 0.950 . S
H442 C426 0.951 1_556 S
H443 C428 0.951 . S
H444 C430 0.951 . S
H445 C431 0.950 . S
H446 C432 0.950 . S
H447 C433 0.950 . S
H448 C435 0.950 . S
H449 C436 0.951 . S
C450 C451 1.386 . S
C450 C452 1.383 . S
C450 H466 0.951 . S
C451 C450 1.386 . S
C451 C455 1.383 . S
C452 C450 1.383 . S
C452 C453 1.402 . S
C452 H467 0.951 . S
C453 C452 1.402 . S
C453 C454 1.375 . S
C453 C456 1.481 . S
C454 C453 1.375 . S
C454 C455 1.367 . S
C454 H468 0.951 . S
C455 C451 1.383 . S
C455 C454 1.367 . S
C455 H469 0.950 . S
C456 C453 1.481 . S
C456 C457 1.297 . S
C456 H470 0.950 . S
C457 C456 1.297 . S
C457 C458 1.479 . S
C457 H471 0.950 . S
C458 C457 1.479 . S
C458 C459 1.375 . S
C458 C464 1.404 . S
C459 C458 1.375 . S
C459 C460 1.369 . S
C459 H472 0.950 . S
C460 C459 1.369 . S
C460 C461 1.392 . S
C460 H473 0.951 . S
C461 C460 1.392 . S
C461 C463 1.384 . S
H462 C464 0.949 . S
C463 C461 1.384 . S
C463 C464 1.385 . S
C463 H465 0.950 . S
C464 C458 1.404 . S
C464 H462 0.949 . S
C464 C463 1.385 . S
H465 C463 0.950 . S
H466 C450 0.951 . S
H467 C452 0.951 . S
H468 C454 0.951 . S
H469 C455 0.950 . S
H470 C456 0.950 . S
H471 C457 0.950 . S
H472 C459 0.950 . S
H473 C460 0.951 . S
C474 C475 1.386 . S
C474 C476 1.383 . S
C474 H490 0.951 1_556 S
C475 C474 1.386 . S
C475 C479 1.383 . S
C476 C474 1.383 . S
C476 C477 1.402 . S
C476 H491 0.951 . S
C477 C476 1.402 . S
C477 C478 1.375 . S
C477 C480 1.481 . S
C478 C477 1.375 . S
C478 C479 1.367 . S
C478 H492 0.951 . S
C479 C475 1.383 . S
C479 C478 1.367 . S
C479 H493 0.950 . S
C480 C477 1.481 . S
C480 C481 1.297 . S
C480 H494 0.950 . S
C481 C480 1.297 . S
C481 C482 1.479 . S
C481 H495 0.950 . S
C482 C481 1.479 . S
C482 C483 1.375 . S
C482 C488 1.404 . S
C483 C482 1.375 . S
C483 C484 1.369 . S
C483 H496 0.950 . S
C484 C483 1.369 . S
C484 C485 1.392 . S
C484 H497 0.951 . S
C485 C484 1.392 . S
C485 C487 1.384 . S
H486 C488 0.949 . S
C487 C485 1.384 . S
C487 C488 1.385 . S
C487 H489 0.950 . S
C488 C482 1.404 . S
C488 H486 0.949 . S
C488 C487 1.385 . S
H489 C487 0.950 . S
H490 C474 0.951 1_554 S
H491 C476 0.951 . S
H492 C478 0.951 . S
H493 C479 0.950 . S
H494 C480 0.950 . S
H495 C481 0.950 . S
H496 C483 0.950 . S
H497 C484 0.951 . S
C498 C499 1.386 . S
C498 C500 1.383 . S
C498 H514 0.951 . S
C499 C498 1.386 . S
C499 C503 1.383 . S
C500 C498 1.383 . S
C500 C501 1.402 . S
C500 H515 0.951 . S
C501 C500 1.402 . S
C501 C502 1.375 . S
C501 C504 1.481 . S
C502 C501 1.375 . S
C502 C503 1.367 . S
C502 H516 0.951 . S
C503 C499 1.383 . S
C503 C502 1.367 . S
C503 H517 0.950 . S
C504 C501 1.481 . S
C504 C505 1.297 . S
C504 H518 0.950 . S
C505 C504 1.297 . S
C505 C506 1.479 . S
C505 H519 0.950 . S
C506 C505 1.479 . S
C506 C507 1.375 . S
C506 C512 1.404 . S
C507 C506 1.375 . S
C507 C508 1.369 . S
C507 H520 0.950 . S
C508 C507 1.369 . S
C508 C509 1.392 . S
C508 H521 0.951 . S
C509 C508 1.392 . S
C509 C511 1.384 . S
H510 C512 0.949 . S
C511 C509 1.384 . S
C511 C512 1.385 . S
C511 H513 0.950 . S
C512 C506 1.404 . S
C512 H510 0.949 . S
C512 C511 1.385 . S
H513 C511 0.950 . S
H514 C498 0.951 . S
H515 C500 0.951 . S
H516 C502 0.951 . S
H517 C503 0.950 . S
H518 C504 0.950 . S
H519 C505 0.950 . S
H520 C507 0.950 . S
H521 C508 0.951 . S
C522 C523 1.386 . S
C522 C524 1.383 . S
C522 H538 0.951 . S
C523 C522 1.386 . S
C523 C527 1.383 . S
C524 C522 1.383 . S
C524 C525 1.402 . S
C524 H539 0.951 . S
C525 C524 1.402 . S
C525 C526 1.375 . S
C525 C528 1.481 . S
C526 C525 1.375 . S
C526 C527 1.367 . S
C526 H540 0.951 . S
C527 C523 1.383 . S
C527 C526 1.367 . S
C527 H541 0.950 . S
C528 C525 1.481 . S
C528 C529 1.297 . S
C528 H542 0.950 . S
C529 C528 1.297 . S
C529 C530 1.479 . S
C529 H543 0.950 . S
C530 C529 1.479 . S
C530 C531 1.375 . S
C530 C536 1.404 . S
C531 C530 1.375 . S
C531 C532 1.369 . S
C531 H544 0.950 . S
C532 C531 1.369 . S
C532 C533 1.392 . S
C532 H545 0.951 . S
C533 C532 1.392 . S
C533 C535 1.384 . S
H534 C536 0.949 . S
C535 C533 1.384 . S
C535 C536 1.385 . S
C535 H537 0.950 . S
C536 C530 1.404 . S
C536 H534 0.949 . S
C536 C535 1.385 . S
H537 C535 0.950 . S
H538 C522 0.951 . S
H539 C524 0.951 . S
H540 C526 0.951 . S
H541 C527 0.950 . S
H542 C528 0.950 . S
H543 C529 0.950 . S
H544 C531 0.950 . S
H545 C532 0.951 . S
C546 C547 1.386 . S
C546 C548 1.383 . S
C546 H562 0.951 . S
C547 C546 1.386 . S
C547 C551 1.383 1_556 S
C548 C546 1.383 . S
C548 C549 1.402 . S
C548 H563 0.951 . S
C549 C548 1.402 . S
C549 C550 1.375 . S
C549 C552 1.481 . S
C550 C549 1.375 . S
C550 C551 1.367 1_556 S
C550 H564 0.951 1_556 S
C551 C547 1.383 1_554 S
C551 C550 1.367 1_554 S
C551 H565 0.950 . S
C552 C549 1.481 . S
C552 C553 1.297 . S
C552 H566 0.950 . S
C553 C552 1.297 . S
C553 C554 1.479 . S
C553 H567 0.950 . S
C554 C553 1.479 . S
C554 C555 1.375 . S
C554 C560 1.404 . S
C555 C554 1.375 . S
C555 C556 1.369 . S
C555 H568 0.950 . S
C556 C555 1.369 . S
C556 C557 1.392 . S
C556 H569 0.951 . S
C557 C556 1.392 . S
C557 C559 1.384 . S
H558 C560 0.949 . S
C559 C557 1.384 . S
C559 C560 1.385 . S
C559 H561 0.950 . S
C560 C554 1.404 . S
C560 H558 0.949 . S
C560 C559 1.385 . S
H561 C559 0.950 . S
H562 C546 0.951 . S
H563 C548 0.951 . S
H564 C550 0.951 1_554 S
H565 C551 0.950 . S
H566 C552 0.950 . S
H567 C553 0.950 . S
H568 C555 0.950 . S
H569 C556 0.951 . S
C139 C131 1.455 . S
C149 C20 1.392 . S
C163 C16 1.451 . S
C173 C43 1.397 . S
C187 C39 1.444 . S
C197 C66 1.408 . S
C211 C62 1.444 . S
C221 C89 1.410 . S
C235 C112 1.429 . S
C245 C85 1.450 . S
C259 C135 1.420 . S
C269 C108 1.460 . S
C283 C21 0.677 . S
C293 C18 0.550 . S
C307 C44 0.525 . S
C317 C41 0.552 . S
C331 C67 0.526 . S
C341 C64 0.556 . S
C355 C90 0.615 . S
C365 C87 0.585 . S
C379 C110 0.543 . S
C389 C113 0.667 . S
C403 C136 0.701 . S
C413 C133 0.568 . S
C427 C19 1.558 . S
C437 C109 1.600 . S
C451 C42 1.591 . S
C461 C132 1.580 . S
C475 C17 1.612 . S
C485 C65 1.531 . S
C499 C40 1.613 . S
C509 C88 1.529 . S
C523 C111 1.571 . S
C533 C63 1.613 . S
C547 C86 1.611 . S
C557 C134 1.580 . S
