# Generated by pormake.
# Topology zfa, (5)-cn, num edge types: 1
# Building blocks:
#     Node 0, Type 0, BuildingBlock: XOMCOT_clean_sbu_1, # of connection points: 5
#     Node 1, Type 0, BuildingBlock: XOMCOT_clean_sbu_1, # of connection points: 5
#     Node 2, Type 0, BuildingBlock: XOMCOT_clean_sbu_1, # of connection points: 5
#     Node 3, Type 0, BuildingBlock: XOMCOT_clean_sbu_1, # of connection points: 5
#     Node 4, Type 0, BuildingBlock: XOMCOT_clean_sbu_1, # of connection points: 5
#     Node 5, Type 0, BuildingBlock: XOMCOT_clean_sbu_1, # of connection points: 5
#     Node 6, Type 0, BuildingBlock: XOMCOT_clean_sbu_1, # of connection points: 5
#     Node 7, Type 0, BuildingBlock: XOMCOT_clean_sbu_1, # of connection points: 5
#     Edge 8, Type (0, 0), BuildingBlock: ZUJKAS_clean_linker_0, # of connection points: 2
#     Edge 9, Type (0, 0), BuildingBlock: ZUJKAS_clean_linker_0, # of connection points: 2
#     Edge 10, Type (0, 0), BuildingBlock: ZUJKAS_clean_linker_0, # of connection points: 2
#     Edge 11, Type (0, 0), BuildingBlock: ZUJKAS_clean_linker_0, # of connection points: 2
#     Edge 12, Type (0, 0), BuildingBlock: ZUJKAS_clean_linker_0, # of connection points: 2
#     Edge 13, Type (0, 0), BuildingBlock: ZUJKAS_clean_linker_0, # of connection points: 2
#     Edge 14, Type (0, 0), BuildingBlock: ZUJKAS_clean_linker_0, # of connection points: 2
#     Edge 15, Type (0, 0), BuildingBlock: ZUJKAS_clean_linker_0, # of connection points: 2
#     Edge 16, Type (0, 0), BuildingBlock: ZUJKAS_clean_linker_0, # of connection points: 2
#     Edge 17, Type (0, 0), BuildingBlock: ZUJKAS_clean_linker_0, # of connection points: 2
#     Edge 18, Type (0, 0), BuildingBlock: ZUJKAS_clean_linker_0, # of connection points: 2
#     Edge 19, Type (0, 0), BuildingBlock: ZUJKAS_clean_linker_0, # of connection points: 2
#     Edge 20, Type (0, 0), BuildingBlock: ZUJKAS_clean_linker_0, # of connection points: 2
#     Edge 21, Type (0, 0), BuildingBlock: ZUJKAS_clean_linker_0, # of connection points: 2
#     Edge 22, Type (0, 0), BuildingBlock: ZUJKAS_clean_linker_0, # of connection points: 2
#     Edge 23, Type (0, 0), BuildingBlock: ZUJKAS_clean_linker_0, # of connection points: 2
#     Edge 24, Type (0, 0), BuildingBlock: ZUJKAS_clean_linker_0, # of connection points: 2
#     Edge 25, Type (0, 0), BuildingBlock: ZUJKAS_clean_linker_0, # of connection points: 2
#     Edge 26, Type (0, 0), BuildingBlock: ZUJKAS_clean_linker_0, # of connection points: 2
#     Edge 27, Type (0, 0), BuildingBlock: ZUJKAS_clean_linker_0, # of connection points: 2
# Relax obj value: 0.181
# Max RMSD: 0.168
# Mean RMSD: 0.168
data_MOF--net-zfa--node1-XOMCOT_clean_sbu_1--edge1-ZUJKAS_clean_linker_0
_symmetry_space_group_name_H-M    P1
_symmetry_Int_Tables_number       1
_symmetry_cell_setting            triclinic
loop_
_symmetry_equiv_pos_as_xyz
'x, y, z'
_cell_length_a     39.390461
_cell_length_b     39.44014
_cell_length_c     53.441901
_cell_angle_alpha  90.045721
_cell_angle_beta   89.918988
_cell_angle_gamma 90.124932
loop_
_atom_site_label
_atom_site_type_symbol
_atom_site_fract_x
_atom_site_fract_y
_atom_site_fract_z
_atom_type_partial_charge
C0 C 0.13837 0.19866 0.32488 0.0
C1 C 0.12968 0.16522 0.32108 0.0
N2 N 0.10915 0.15531 0.33994 0.0
N3 N 0.12347 0.20971 0.34609 0.0
C4 C 0.10599 0.18275 0.35487 0.0
H5 H 0.15356 0.21426 0.31254 0.0
Co6 Co 0.12224 0.25387 0.35844 0.0
C7 C 0.10999 0.24187 0.41198 0.0
O8 O 0.08419 0.26291 0.41129 0.0
N9 N 0.12075 0.29825 0.37086 0.0
C10 C 0.13155 0.34566 0.39194 0.0
C11 C 0.14138 0.31259 0.38804 0.0
C12 C 0.09877 0.32304 0.36453 0.0
N13 N 0.10463 0.35212 0.37718 0.0
O14 O 0.07364 0.25126 0.35968 0.0
H15 H 0.16207 0.29971 0.39729 0.0
H16 H 0.07897 0.31998 0.35073 0.0
O17 O 0.12709 0.23617 0.39214 0.0
C18 C 0.06308 0.25449 0.33726 0.0
O19 O 0.08559 0.25953 0.31944 0.0
N20 N 0.1691 0.25727 0.35447 0.0
C21 C 0.23593 0.26021 0.33743 0.0
C22 C 0.22662 0.23772 0.35669 0.0
C23 C 0.19286 0.2366 0.365 0.0
C24 C 0.17785 0.2797 0.33622 0.0
C25 C 0.21111 0.2818 0.32756 0.0
H26 H 0.18555 0.21806 0.37889 0.0
H27 H 0.15843 0.29504 0.32752 0.0
H28 H 0.08966 0.1839 0.37115 0.0
H29 H 0.13729 0.14969 0.30535 0.0
H30 H 0.14289 0.36331 0.40502 0.0
H31 H 0.24502 0.2206 0.36479 0.0
H32 H 0.21687 0.29898 0.31234 0.0
C33 C 0.30817 0.62481 0.81918 0.0
C34 C 0.3404 0.61288 0.81463 0.0
N35 N 0.35291 0.6 0.8361 0.0
N36 N 0.3005 0.61995 0.84349 0.0
C37 C 0.32814 0.60472 0.85329 0.0
H38 H 0.29096 0.63538 0.80551 0.0
Co39 Co 0.25818 0.62595 0.85857 0.0
C40 C 0.28516 0.66375 0.9037 0.0
O41 O 0.27196 0.69249 0.89611 0.0
N42 N 0.21464 0.63003 0.87365 0.0
C43 C 0.17014 0.63905 0.89862 0.0
C44 C 0.20358 0.64713 0.89402 0.0
C45 C 0.18705 0.61213 0.86615 0.0
N46 N 0.15979 0.61684 0.8811 0.0
O47 O 0.25817 0.57871 0.86661 0.0
H48 H 0.2185 0.66379 0.90551 0.0
H49 H 0.18717 0.59497 0.85043 0.0
O50 O 0.28068 0.63657 0.89093 0.0
C51 C 0.2485 0.56256 0.84723 0.0
O52 O 0.24033 0.57975 0.82706 0.0
N53 N 0.2574 0.67188 0.8476 0.0
C54 C 0.25625 0.7334 0.82131 0.0
C55 C 0.28573 0.72271 0.8337 0.0
C56 C 0.28593 0.69173 0.8464 0.0
C57 C 0.2286 0.68194 0.83553 0.0
C58 C 0.22732 0.7127 0.82267 0.0
H59 H 0.30938 0.68326 0.85482 0.0
H60 H 0.20673 0.66545 0.83473 0.0
H61 H 0.32916 0.5954 0.87231 0.0
H62 H 0.35323 0.61306 0.79672 0.0
H63 H 0.15486 0.6485 0.91395 0.0
H64 H 0.30893 0.73744 0.83272 0.0
H65 H 0.20397 0.71981 0.8134 0.0
C66 C 0.87599 0.81211 0.32867 0.0
C67 C 0.88555 0.84525 0.32465 0.0
N68 N 0.90629 0.85489 0.34342 0.0
N69 N 0.89054 0.80095 0.34993 0.0
C70 C 0.90864 0.82761 0.35855 0.0
H71 H 0.86062 0.79672 0.31632 0.0
Co72 Co 0.89123 0.75674 0.36218 0.0
C73 C 0.90094 0.76796 0.41607 0.0
O74 O 0.92558 0.74556 0.4161 0.0
N75 N 0.89214 0.71222 0.37435 0.0
C76 C 0.88034 0.6643 0.39437 0.0
C77 C 0.87057 0.69739 0.39062 0.0
C78 C 0.91457 0.68766 0.36835 0.0
N79 N 0.90821 0.65813 0.38036 0.0
O80 O 0.93972 0.75937 0.36459 0.0
H81 H 0.84911 0.70988 0.39925 0.0
H82 H 0.93547 0.6916 0.3556 0.0
O83 O 0.88519 0.77448 0.39581 0.0
C84 C 0.95182 0.75625 0.34257 0.0
O85 O 0.93051 0.75145 0.32397 0.0
N86 N 0.84458 0.75333 0.3572 0.0
C87 C 0.77825 0.74974 0.33919 0.0
C88 C 0.78641 0.77081 0.35961 0.0
C89 C 0.81994 0.77239 0.36832 0.0
C90 C 0.83701 0.73218 0.33786 0.0
C91 C 0.80408 0.72991 0.32861 0.0
H92 H 0.82626 0.78987 0.38319 0.0
H93 H 0.85712 0.71805 0.32885 0.0
H94 H 0.92503 0.82623 0.37476 0.0
H95 H 0.87856 0.86068 0.30874 0.0
H96 H 0.86759 0.64628 0.4064 0.0
H97 H 0.76727 0.78648 0.36842 0.0
H98 H 0.79937 0.71391 0.31251 0.0
C99 C 0.69891 0.37473 0.83069 0.0
C100 C 0.66547 0.38434 0.82879 0.0
N101 N 0.65837 0.40581 0.84772 0.0
N102 N 0.71285 0.3897 0.85092 0.0
C103 C 0.68753 0.40847 0.8609 0.0
H104 H 0.71254 0.35909 0.81746 0.0
Co105 Co 0.7587 0.38996 0.86004 0.0
C106 C 0.75691 0.36871 0.91372 0.0
O107 O 0.78363 0.34949 0.91037 0.0
N108 N 0.8061 0.39118 0.86889 0.0
C109 C 0.86035 0.37767 0.87605 0.0
C110 C 0.82826 0.36524 0.8719 0.0
C111 C 0.82603 0.41918 0.8712 0.0
N112 N 0.85898 0.41168 0.87545 0.0
O113 O 0.75675 0.43816 0.86198 0.0
H114 H 0.82194 0.3386 0.87108 0.0
H115 H 0.81691 0.44488 0.86964 0.0
O116 O 0.74487 0.38559 0.89535 0.0
C117 C 0.7604 0.4484 0.83951 0.0
O118 O 0.76488 0.42553 0.8219 0.0
N119 N 0.76023 0.34317 0.85463 0.0
C120 C 0.75647 0.2789 0.83292 0.0
C121 C 0.73877 0.28615 0.85519 0.0
C122 C 0.74068 0.31875 0.86566 0.0
C123 C 0.77779 0.33633 0.83325 0.0
C124 C 0.77686 0.30433 0.82241 0.0
H125 H 0.72477 0.32487 0.88151 0.0
H126 H 0.7918 0.35641 0.82406 0.0
H127 H 0.6909 0.42479 0.87699 0.0
H128 H 0.64835 0.37761 0.81376 0.0
H129 H 0.88312 0.36272 0.87846 0.0
H130 H 0.72215 0.26747 0.86363 0.0
H131 H 0.79128 0.29991 0.80545 0.0
C132 C 0.63541 0.30567 0.23443 0.0
C133 C 0.62532 0.33856 0.23848 0.0
N134 N 0.60476 0.34792 0.21956 0.0
N135 N 0.62162 0.29438 0.21291 0.0
C136 C 0.60314 0.32068 0.20425 0.0
H137 H 0.65072 0.29053 0.24692 0.0
Co138 Co 0.62233 0.25006 0.20097 0.0
C139 C 0.64324 0.25711 0.14773 0.0
O140 O 0.66405 0.23155 0.15062 0.0
N141 N 0.6221 0.20383 0.18921 0.0
C142 C 0.63643 0.15095 0.17826 0.0
C143 C 0.64839 0.18231 0.18513 0.0
C144 C 0.59437 0.18419 0.1848 0.0
N145 N 0.60242 0.15215 0.17827 0.0
O146 O 0.57382 0.25119 0.20002 0.0
H147 H 0.67498 0.1886 0.1868 0.0
H148 H 0.56845 0.19277 0.18643 0.0
O149 O 0.62544 0.26744 0.16629 0.0
C150 C 0.56378 0.2421 0.22171 0.0
O151 O 0.5868 0.23262 0.23806 0.0
N152 N 0.66941 0.24943 0.20547 0.0
C153 C 0.73486 0.25286 0.22503 0.0
C154 C 0.72535 0.27373 0.20495 0.0
C155 C 0.69225 0.27176 0.19546 0.0
C156 C 0.67819 0.22963 0.22532 0.0
C157 C 0.71093 0.23033 0.23498 0.0
H158 H 0.68447 0.28956 0.18123 0.0
H159 H 0.65917 0.21384 0.23417 0.0
H160 H 0.58708 0.31905 0.18788 0.0
H161 H 0.63188 0.35399 0.25452 0.0
H162 H 0.65156 0.12865 0.17441 0.0
H163 H 0.74301 0.29198 0.19716 0.0
H164 H 0.71693 0.21461 0.25098 0.0
C165 C 0.19455 0.13892 0.73334 0.0
C166 C 0.16122 0.12881 0.73511 0.0
N167 N 0.15371 0.10972 0.71492 0.0
N168 N 0.208 0.12655 0.712 0.0
C169 C 0.18246 0.10903 0.70111 0.0
H170 H 0.20851 0.15301 0.74733 0.0
Co171 Co 0.25376 0.12713 0.70288 0.0
C172 C 0.25045 0.15671 0.65135 0.0
O173 O 0.27416 0.17864 0.65721 0.0
N174 N 0.30096 0.12694 0.69395 0.0
C175 C 0.35447 0.14171 0.68494 0.0
C176 C 0.32245 0.15339 0.69017 0.0
C177 C 0.32133 0.09941 0.6915 0.0
N178 N 0.35369 0.10776 0.68591 0.0
O179 O 0.25145 0.07899 0.69795 0.0
H180 H 0.31587 0.1799 0.69154 0.0
H181 H 0.31301 0.0735 0.69389 0.0
O182 O 0.24033 0.13517 0.66767 0.0
C183 C 0.25251 0.06516 0.71952 0.0
O184 O 0.25618 0.08486 0.73919 0.0
N185 N 0.25556 0.17335 0.71104 0.0
C186 C 0.25621 0.23723 0.73361 0.0
C187 C 0.23581 0.23085 0.71253 0.0
C188 C 0.23537 0.19847 0.70176 0.0
C189 C 0.27465 0.17887 0.7319 0.0
C190 C 0.27576 0.21062 0.74323 0.0
H191 H 0.21787 0.19328 0.68668 0.0
H192 H 0.28863 0.15808 0.74011 0.0
H193 H 0.18569 0.09402 0.68431 0.0
H194 H 0.14424 0.13411 0.75056 0.0
H195 H 0.37688 0.15701 0.68159 0.0
H196 H 0.21985 0.25048 0.70471 0.0
H197 H 0.29085 0.21385 0.75999 0.0
C198 C 0.39051 0.70067 0.2435 0.0
C199 C 0.40131 0.66807 0.24787 0.0
N200 N 0.41602 0.65619 0.22681 0.0
N201 N 0.39799 0.70919 0.21972 0.0
C202 C 0.41358 0.68169 0.21004 0.0
H203 H 0.37871 0.71745 0.25695 0.0
Co204 Co 0.39309 0.75183 0.20536 0.0
C205 C 0.36012 0.73082 0.15706 0.0
O206 O 0.33226 0.74708 0.16295 0.0
N207 N 0.3892 0.79611 0.19081 0.0
C208 C 0.3706 0.84462 0.17403 0.0
C209 C 0.36182 0.81224 0.18116 0.0
C210 C 0.41412 0.81982 0.18945 0.0
N211 N 0.40352 0.84931 0.17946 0.0
O212 O 0.44113 0.75213 0.19985 0.0
H213 H 0.33633 0.80232 0.18063 0.0
H214 H 0.43977 0.81611 0.19584 0.0
O215 O 0.38553 0.73082 0.17201 0.0
C216 C 0.45455 0.76227 0.22025 0.0
O217 O 0.43451 0.77267 0.23838 0.0
N218 N 0.3468 0.75145 0.21439 0.0
C219 C 0.28426 0.74972 0.23903 0.0
C220 C 0.29433 0.72279 0.22355 0.0
C221 C 0.32593 0.72393 0.21164 0.0
C222 C 0.33769 0.77733 0.22994 0.0
C223 C 0.30627 0.77736 0.24196 0.0
H224 H 0.33425 0.70215 0.20098 0.0
H225 H 0.35546 0.7976 0.2338 0.0
H226 H 0.42452 0.68113 0.19146 0.0
H227 H 0.39894 0.65447 0.26536 0.0
H228 H 0.35369 0.86374 0.16664 0.0
H229 H 0.27825 0.70073 0.22109 0.0
H230 H 0.29999 0.79811 0.25441 0.0
C231 C 0.81372 0.87864 0.73444 0.0
C232 C 0.84704 0.88865 0.73634 0.0
N233 N 0.85468 0.9082 0.71641 0.0
N234 N 0.80039 0.89142 0.71325 0.0
C235 C 0.82593 0.9093 0.70264 0.0
H236 H 0.79981 0.8639 0.74809 0.0
Co237 Co 0.7549 0.88939 0.70373 0.0
C238 C 0.75889 0.86368 0.65145 0.0
O239 O 0.73542 0.8413 0.65696 0.0
N240 N 0.70768 0.88812 0.69442 0.0
C241 C 0.65445 0.87198 0.68567 0.0
C242 C 0.6867 0.86113 0.69107 0.0
C243 C 0.68678 0.91513 0.69129 0.0
N244 N 0.65457 0.90596 0.686 0.0
O245 O 0.75497 0.9378 0.70132 0.0
H246 H 0.69389 0.8348 0.69256 0.0
H247 H 0.69457 0.9413 0.69295 0.0
O248 O 0.76906 0.88445 0.6683 0.0
C249 C 0.7495 0.94773 0.72372 0.0
O250 O 0.74447 0.92449 0.74097 0.0
N251 N 0.75529 0.84274 0.70992 0.0
C252 C 0.76101 0.77926 0.73236 0.0
C253 C 0.78004 0.78719 0.71087 0.0
C254 C 0.77726 0.81946 0.70013 0.0
C255 C 0.73681 0.83534 0.73079 0.0
C256 C 0.73874 0.80364 0.74198 0.0
H257 H 0.7942 0.82634 0.68504 0.0
H258 H 0.72117 0.85472 0.73927 0.0
H259 H 0.82284 0.92436 0.68588 0.0
H260 H 0.86404 0.88252 0.75155 0.0
H261 H 0.63236 0.85615 0.68263 0.0
H262 H 0.79822 0.76936 0.70329 0.0
H263 H 0.7235 0.79862 0.75845 0.0
H264 H 0.90499 0.60385 0.41199 0.0
H265 H 0.93833 0.55212 0.40999 0.0
H266 H 0.99048 0.58962 0.34465 0.0
H267 H 0.95607 0.64073 0.34556 0.0
H268 H 0.97383 0.52418 0.33914 0.0
H269 H 0.03569 0.54207 0.43122 0.0
H270 H 0.99026 0.54175 0.43337 0.0
H271 H 0.01137 0.57506 0.41634 0.0
C272 C 0.92323 0.60123 0.39699 0.0
C273 C 0.92774 0.62705 0.37906 0.0
C274 C 0.94268 0.57163 0.3961 0.0
C275 C 0.96751 0.56727 0.37753 0.0
C276 C 0.97171 0.59255 0.35933 0.0
H277 H 0.12792 0.41594 0.38496 0.0
H278 H 0.09505 0.46848 0.38367 0.0
C279 C 0.95207 0.62204 0.36004 0.0
C280 C 0.98881 0.53619 0.37687 0.0
H281 H 0.04271 0.48805 0.41197 0.0
C282 C 0.98902 0.51636 0.35503 0.0
C283 C 0.00913 0.52627 0.39743 0.0
C284 C 0.01194 0.54758 0.42081 0.0
C285 C 0.00844 0.48659 0.35335 0.0
C286 C 0.02752 0.47586 0.37432 0.0
C287 C 0.0278 0.49604 0.39599 0.0
C288 C 0.04754 0.44394 0.37424 0.0
C289 C 0.0088 0.46733 0.32894 0.0
C290 C 0.0318 0.4126 0.36953 0.0
C291 C 0.0506 0.38256 0.37013 0.0
C292 C 0.08544 0.38318 0.37584 0.0
C293 C 0.10109 0.41457 0.38071 0.0
C294 C 0.08235 0.44462 0.3799 0.0
H295 H 1.0017 0.48385 0.31295 0.0
H296 H 0.0342 0.45629 0.32515 0.0
H297 H 0.99004 0.44634 0.3299 0.0
H298 H 1.00481 0.41127 0.36582 0.0
H299 H 0.03765 0.35876 0.36675 0.0
H300 H 0.91746 0.40236 0.90109 0.0
H301 H 0.96684 0.43999 0.90211 0.0
H302 H 0.91483 0.51084 0.85425 0.0
H303 H 0.86525 0.47338 0.85329 0.0
H304 H 1.00642 0.46033 0.86345 0.0
H305 H 0.94898 0.5726 0.90941 0.0
H306 H 0.92832 0.53172 0.90881 0.0
H307 H 0.92681 0.55894 0.88185 0.0
C308 C 0.91647 0.42599 0.89084 0.0
C309 C 0.88734 0.43485 0.87716 0.0
C310 C 0.94469 0.44754 0.89149 0.0
C311 C 0.94446 0.47846 0.87851 0.0
C312 C 0.91536 0.48751 0.86491 0.0
H313 H 0.12926 0.59041 0.83989 0.0
H314 H 0.07644 0.55772 0.83846 0.0
C315 C 0.887 0.46603 0.86437 0.0
C316 C 0.97528 0.50036 0.87837 0.0
H317 H 1.00454 0.57964 0.89281 0.0
C318 C 1.006 0.48641 0.8699 0.0
C319 C 0.97483 0.5343 0.88702 0.0
C320 C 0.94306 0.55024 0.89752 0.0
C321 C 0.0362 0.50543 0.86974 0.0
C322 C 0.03559 0.53963 0.87777 0.0
C323 C 1.00492 0.55355 0.88639 0.0
C324 C 0.06678 0.56094 0.87826 0.0
C325 C 0.06866 0.48838 0.86157 0.0
C326 C 0.07834 0.57469 0.90094 0.0
C327 C 0.10844 0.59355 0.90179 0.0
C328 C 0.12765 0.59914 0.87995 0.0
C329 C 0.11549 0.58609 0.85713 0.0
C330 C 0.08529 0.56734 0.85628 0.0
H331 H 0.06652 0.4603 0.8623 0.0
H332 H 0.07444 0.49567 0.84197 0.0
H333 H 0.09032 0.49636 0.8735 0.0
H334 H 0.06446 0.57015 0.91814 0.0
H335 H 0.11711 0.60287 0.91972 0.0
H336 H 0.39876 0.89611 0.14265 0.0
H337 H 0.43219 0.94839 0.13852 0.0
H338 H 0.48387 0.9253 0.20756 0.0
H339 H 0.45141 0.87272 0.21122 0.0
H340 H 0.43663 1.00316 0.16632 0.0
H341 H 0.56339 0.9436 0.16354 0.0
H342 H 0.52481 0.91916 0.16109 0.0
H343 H 0.5408 0.93173 0.19131 0.0
C344 C 0.41739 0.90223 0.15683 0.0
C345 C 0.42284 0.88018 0.17706 0.0
C346 C 0.43649 0.93203 0.15447 0.0
C347 C 0.46117 0.94044 0.17242 0.0
C348 C 0.4659 0.91884 0.193 0.0
H349 H 0.5446 0.13906 0.20374 0.0
H350 H 0.50895 0.08844 0.20023 0.0
C351 C 0.44724 0.88884 0.19514 0.0
C352 C 0.48134 0.9722 0.17007 0.0
H353 H 0.56224 1.00319 0.1723 0.0
C354 C 0.46413 1.00314 0.16735 0.0
C355 C 0.51727 0.97223 0.17087 0.0
C356 C 0.53762 0.93985 0.17158 0.0
C357 C 0.48177 0.03411 0.16622 0.0
C358 C 0.51756 0.03428 0.16875 0.0
C359 C 0.53479 1.00324 0.17068 0.0
C360 C 0.53778 0.06616 0.16984 0.0
C361 C 0.46179 0.0662 0.16199 0.0
C362 C 0.5664 0.0703 0.15438 0.0
C363 C 0.58722 0.09886 0.15682 0.0
C364 C 0.57964 0.12403 0.17454 0.0
C365 C 0.55062 0.12032 0.18961 0.0
C366 C 0.53015 0.09145 0.18751 0.0
H367 H 0.4377 0.06091 0.1519 0.0
H368 H 0.45509 0.07753 0.18035 0.0
H369 H 0.47661 0.08507 0.15108 0.0
H370 H 0.57292 0.05117 0.14065 0.0
H371 H 0.60938 0.10123 0.14494 0.0
H372 H 0.6037 0.89929 0.65273 0.0
H373 H 0.55281 0.93465 0.64946 0.0
H374 H 0.58793 0.99521 0.71163 0.0
H375 H 0.63958 0.96095 0.71389 0.0
H376 H 0.50341 0.94336 0.67968 0.0
H377 H 0.56238 0.06912 0.66582 0.0
H378 H 0.58667 0.03051 0.66436 0.0
H379 H 0.5773 0.05001 0.69411 0.0
C380 C 0.60062 0.92049 0.6654 0.0
C381 C 0.62556 0.92769 0.68338 0.0
C382 C 0.57158 0.94065 0.66359 0.0
C383 C 0.56667 0.96808 0.68 0.0
C384 C 0.59154 0.97503 0.69816 0.0
H385 H 0.36855 0.05357 0.71462 0.0
H386 H 0.41986 0.01872 0.71239 0.0
C387 C 0.62097 0.95535 0.69957 0.0
C388 C 0.53477 0.98821 0.67892 0.0
H389 H 0.50393 0.06901 0.6783 0.0
C390 C 0.50357 0.97085 0.67909 0.0
C391 C 0.53478 0.02408 0.67771 0.0
C392 C 0.5671 0.04445 0.6752 0.0
C393 C 0.47252 0.98825 0.67854 0.0
C394 C 0.47255 0.02416 0.67894 0.0
C395 C 0.50375 0.04151 0.67831 0.0
C396 C 0.4407 0.04438 0.67993 0.0
C397 C 0.44015 0.96781 0.67693 0.0
C398 C 0.43564 0.07114 0.663 0.0
C399 C 0.40685 0.09164 0.66479 0.0
C400 C 0.38227 0.08546 0.68327 0.0
C401 C 0.38691 0.05838 0.69993 0.0
C402 C 0.41613 0.03837 0.69854 0.0
H403 H 0.44467 0.94272 0.66808 0.0
H404 H 0.43034 0.96313 0.6961 0.0
H405 H 0.42037 0.98128 0.66603 0.0
H406 H 0.45415 0.0764 0.6485 0.0
H407 H 0.40371 0.11237 0.65173 0.0
H408 H 0.50998 0.27425 0.19882 0.0
H409 H 0.45195 0.28021 0.21559 0.0
H410 H 0.47891 0.21808 0.2788 0.0
H411 H 0.53624 0.21202 0.26245 0.0
H412 H 0.40167 0.22698 0.23192 0.0
H413 H 0.44611 0.31117 0.30847 0.0
H414 H 0.47059 0.30378 0.28038 0.0
H415 H 0.47017 0.27278 0.30501 0.0
C416 C 0.50329 0.26153 0.2161 0.0
C417 C 0.52774 0.24299 0.22945 0.0
C418 C 0.47026 0.26502 0.22566 0.0
C419 C 0.46148 0.25006 0.24865 0.0
C420 C 0.48541 0.23029 0.26128 0.0
H421 H 0.27472 0.20488 0.32567 0.0
H422 H 0.32894 0.20409 0.30324 0.0
C423 C 0.51817 0.22684 0.25183 0.0
C424 C 0.42782 0.25564 0.26026 0.0
H425 H 0.39074 0.28746 0.31303 0.0
C426 C 0.39909 0.24054 0.24949 0.0
C427 C 0.42459 0.27363 0.28304 0.0
C428 C 0.45442 0.29156 0.29485 0.0
C429 C 0.36734 0.24183 0.26149 0.0
C430 C 0.36453 0.25821 0.285 0.0
C431 C 0.39302 0.27451 0.29519 0.0
C432 C 0.33233 0.25863 0.29942 0.0
C433 C 0.33711 0.22567 0.2489 0.0
C434 C 0.31707 0.28958 0.30573 0.0
C435 C 0.28639 0.29013 0.31888 0.0
C436 C 0.27043 0.25971 0.32611 0.0
C437 C 0.28645 0.22876 0.32056 0.0
C438 C 0.31716 0.22825 0.30739 0.0
H439 H 0.34123 0.22274 0.22844 0.0
H440 H 0.33289 0.20006 0.25692 0.0
H441 H 0.31378 0.24088 0.25197 0.0
H442 H 0.32859 0.31334 0.30006 0.0
H443 H 0.27493 0.3144 0.32314 0.0
H444 H 0.26715 0.01321 0.68663 0.0
H445 H 0.26579 0.95189 0.69585 0.0
H446 H 0.22934 0.97335 0.7703 0.0
H447 H 0.23078 0.03381 0.76141 0.0
H448 H 0.30283 0.92005 0.73765 0.0
H449 H 0.16399 0.89876 0.74334 0.0
H450 H 0.18252 0.93415 0.72669 0.0
H451 H 0.17799 0.93567 0.76016 0.0
C452 C 0.25839 1.00466 0.70478 0.0
C453 C 0.24916 0.02821 0.72332 0.0
C454 C 0.25773 0.96976 0.71004 0.0
C455 C 0.24711 0.95816 0.73367 0.0
C456 C 0.23713 0.98172 0.75185 0.0
H457 H 0.2859 0.79459 0.83245 0.0
H458 H 0.2851 0.84658 0.80753 0.0
C459 C 0.2382 0.01631 0.74676 0.0
C460 C 0.24834 0.92179 0.7405 0.0
H461 H 0.19917 0.85868 0.76506 0.0
C462 C 0.28015 0.90629 0.74316 0.0
C463 C 0.21872 0.90387 0.74754 0.0
C464 C 0.18382 0.91882 0.74408 0.0
C465 C 0.28323 0.87404 0.75408 0.0
C466 C 0.25376 0.85716 0.76279 0.0
C467 C 0.2218 0.87181 0.75869 0.0
C468 C 0.25555 0.82512 0.77728 0.0
C469 C 0.31805 0.8586 0.75661 0.0
C470 C 0.23865 0.79598 0.76879 0.0
C471 C 0.23903 0.76622 0.78301 0.0
C472 C 0.25606 0.76509 0.80615 0.0
C473 C 0.27295 0.7944 0.81458 0.0
C474 C 0.27259 0.82413 0.80032 0.0
H475 H 0.33612 0.86946 0.74277 0.0
H476 H 0.32805 0.86404 0.7756 0.0
H477 H 0.3171 0.83066 0.75409 0.0
H478 H 0.22521 0.79623 0.75112 0.0
H479 H 0.22621 0.74401 0.77572 0.0
H480 H 0.49008 0.81297 0.24142 0.0
H481 H 0.54784 0.81027 0.25778 0.0
H482 H 0.55892 0.70961 0.22714 0.0
H483 H 0.50113 0.71284 0.20995 0.0
H484 H 0.56462 0.76507 0.29306 0.0
H485 H 0.65109 0.75048 0.21163 0.0
H486 H 0.60776 0.76464 0.20839 0.0
H487 H 0.61686 0.72036 0.21254 0.0
C488 C 0.50531 0.79074 0.23747 0.0
C489 C 0.49143 0.76319 0.22436 0.0
C490 C 0.53822 0.78914 0.24691 0.0
C491 C 0.55777 0.75976 0.24374 0.0
C492 C 0.54459 0.7328 0.22944 0.0
H493 H 0.74273 0.6959 0.31968 0.0
H494 H 0.68914 0.69743 0.29662 0.0
C495 C 0.51164 0.73464 0.21959 0.0
C496 C 0.59001 0.75628 0.25789 0.0
H497 H 0.67531 0.74281 0.25198 0.0
C498 C 0.58883 0.76035 0.28402 0.0
C499 C 0.62154 0.74983 0.24613 0.0
C500 C 0.62459 0.74636 0.21811 0.0
C501 C 0.61825 0.75837 0.29866 0.0
C502 C 0.64974 0.75226 0.28691 0.0
C503 C 0.65101 0.74754 0.26087 0.0
C504 C 0.68172 0.75132 0.30138 0.0
C505 C 0.61552 0.76263 0.32666 0.0
C506 C 0.69505 0.78112 0.31185 0.0
C507 C 0.72584 0.78046 0.32485 0.0
C508 C 0.74385 0.74992 0.32764 0.0
C509 C 0.72984 0.71996 0.31759 0.0
C510 C 0.6992 0.72072 0.30445 0.0
H511 H 0.58882 0.76093 0.33328 0.0
H512 H 0.6308 0.74306 0.33642 0.0
H513 H 0.62574 0.78786 0.33201 0.0
H514 H 0.68197 0.80504 0.3095 0.0
H515 H 0.73607 0.8041 0.33192 0.0
H516 H 0.75299 0.21479 0.85306 0.0
H517 H 0.7488 0.16077 0.83038 0.0
H518 H 0.74693 0.21456 0.76024 0.0
H519 H 0.75021 0.26845 0.78257 0.0
H520 H 0.69565 0.14109 0.7919 0.0
H521 H 0.82829 0.14453 0.75562 0.0
H522 H 0.81523 0.16854 0.78277 0.0
H523 H 0.80301 0.1822 0.75209 0.0
C524 C 0.75135 0.21513 0.83284 0.0
C525 C 0.75247 0.24595 0.81964 0.0
C526 C 0.74912 0.18429 0.81992 0.0
C527 C 0.74813 0.1838 0.79365 0.0
C528 C 0.74832 0.21445 0.78048 0.0
H529 H 0.75621 1.00483 0.694 0.0
H530 H 0.75341 0.06441 0.70793 0.0
C531 C 0.75036 0.2452 0.79332 0.0
C532 C 0.74685 0.15122 0.77995 0.0
H533 H 0.79445 0.09792 0.74381 0.0
C534 C 0.71716 0.13168 0.78129 0.0
C535 C 0.77478 0.1394 0.76579 0.0
C536 C 0.80729 0.15954 0.76396 0.0
C537 C 0.71488 0.10016 0.76921 0.0
C538 C 0.74337 0.08755 0.75599 0.0
C539 C 0.77265 0.10768 0.7539 0.0
C540 C 0.74456 0.05208 0.74687 0.0
C541 C 0.68203 0.08053 0.77087 0.0
C542 C 0.74122 0.02567 0.76417 0.0
C543 C 0.74279 0.99208 0.75637 0.0
C544 C 0.74808 0.98391 0.73103 0.0
C545 C 0.75196 0.01035 0.71361 0.0
C546 C 0.75035 0.04429 0.72153 0.0
H547 H 0.66007 0.09769 0.7739 0.0
H548 H 0.6775 0.06541 0.75365 0.0
H549 H 0.68325 0.06291 0.78702 0.0
H550 H 0.73769 0.03105 0.78389 0.0
H551 H 0.74 0.97247 0.77041 0.0
H552 H 0.03723 0.23559 0.2928 0.0
H553 H 0.97876 0.23968 0.2786 0.0
H554 H 0.94817 0.27564 0.35145 0.0
H555 H 0.00737 0.27094 0.36611 0.0
H556 H 0.90236 0.22889 0.32999 0.0
H557 H 0.93428 0.33046 0.26277 0.0
H558 H 0.96121 0.29426 0.25872 0.0
H559 H 0.96268 0.31788 0.28756 0.0
C560 C 0.01808 0.2442 0.30591 0.0
C561 C 0.02684 0.25336 0.33047 0.0
C562 C 0.9847 0.2467 0.29771 0.0
C563 C 0.95936 0.25895 0.31372 0.0
C564 C 0.96754 0.26655 0.33872 0.0
H565 H 0.76684 0.31076 0.2404 0.0
H566 H 0.81944 0.31515 0.2647 0.0
C567 C 1.0012 0.26372 0.34709 0.0
C568 C 0.92464 0.26387 0.30376 0.0
H569 H 0.88273 0.2994 0.25451 0.0
C570 C 0.89784 0.24473 0.31375 0.0
C571 C 0.91859 0.28516 0.28293 0.0
C572 C 0.94566 0.30839 0.27255 0.0
C573 C 0.86565 0.24468 0.30245 0.0
C574 C 0.86053 0.26357 0.28021 0.0
C575 C 0.88677 0.28438 0.27123 0.0
C576 C 0.82876 0.26106 0.26539 0.0
C577 C 0.83759 0.22422 0.3144 0.0
C578 C 0.81713 0.22936 0.25699 0.0
C579 C 0.78713 0.22683 0.24323 0.0
C580 C 0.76852 0.25603 0.23715 0.0
C581 C 0.78088 0.2879 0.24464 0.0
C582 C 0.81074 0.29038 0.25868 0.0
H583 H 0.84169 0.22148 0.33486 0.0
H584 H 0.81239 0.23605 0.31129 0.0
H585 H 0.83731 0.1984 0.30615 0.0
H586 H 0.83123 0.20651 0.26111 0.0
H587 H 0.77832 0.202 0.23746 0.0
H588 H 0.29994 0.51787 0.85558 0.0
H589 H 0.30154 0.45897 0.8403 0.0
H590 H 0.19595 0.46586 0.81965 0.0
H591 H 0.19465 0.52468 0.83414 0.0
H592 H 0.26331 0.39709 0.84722 0.0
H593 H 0.246 0.45272 0.75275 0.0
H594 H 0.25613 0.47811 0.77984 0.0
H595 H 0.21323 0.46417 0.77452 0.0
C596 C 0.27684 0.50622 0.84866 0.0
C597 C 0.24715 0.52546 0.846 0.0
C598 C 0.27781 0.47277 0.83978 0.0
C599 C 0.24906 0.45844 0.82831 0.0
C600 C 0.21857 0.47671 0.82797 0.0
H601 H 0.20179 0.27902 0.74221 0.0
H602 H 0.2011 0.33232 0.76569 0.0
C603 C 0.21774 0.51013 0.83645 0.0
C604 C 0.25159 0.42613 0.81428 0.0
H605 H 0.24274 0.39278 0.75562 0.0
C606 C 0.25901 0.3961 0.82719 0.0
C607 C 0.24629 0.42504 0.78807 0.0
C608 C 0.2403 0.45676 0.77291 0.0
C609 C 0.2602 0.36477 0.81464 0.0
C610 C 0.25407 0.36369 0.78857 0.0
C611 C 0.24713 0.39375 0.77565 0.0
C612 C 0.25475 0.33159 0.77424 0.0
C613 C 0.26727 0.33295 0.82934 0.0
C614 C 0.28532 0.3141 0.77076 0.0
C615 C 0.28592 0.28395 0.75703 0.0
C616 C 0.25591 0.27064 0.74656 0.0
C617 C 0.22543 0.2887 0.7497 0.0
C618 C 0.22491 0.31897 0.76333 0.0
H619 H 0.26513 0.3372 0.84984 0.0
H620 H 0.24944 0.31241 0.82384 0.0
H621 H 0.29343 0.32417 0.82519 0.0
H622 H 0.30874 0.32387 0.77858 0.0
H623 H 0.30995 0.27106 0.7546 0.0
H624 H 0.98147 0.76531 0.2975 0.0
H625 H 0.04126 0.76091 0.28683 0.0
H626 H 0.06585 0.74322 0.36432 0.0
H627 H 1.00522 0.74794 0.37539 0.0
H628 H 0.11088 0.78935 0.33823 0.0
H629 H 0.09206 0.66963 0.28602 0.0
H630 H 0.06287 0.702 0.2765 0.0
H631 H 0.06114 0.68581 0.30796 0.0
C632 C 0.99948 0.76054 0.31238 0.0
C633 C 0.98861 0.75651 0.33726 0.0
C634 C 0.03367 0.75793 0.3062 0.0
C635 C 0.05781 0.7509 0.32467 0.0
C636 C 0.04744 0.74828 0.34977 0.0
H637 H 0.2582 0.69632 0.26548 0.0
H638 H 0.20584 0.69493 0.29023 0.0
C639 C 0.01293 0.75106 0.35606 0.0
C640 C 0.09364 0.74613 0.31712 0.0
H641 H 0.14218 0.70171 0.27567 0.0
C642 C 0.118 0.76983 0.32492 0.0
C643 C 0.10299 0.72026 0.30013 0.0
C644 C 0.07846 0.69276 0.29236 0.0
C645 C 0.15099 0.76963 0.31486 0.0
C646 C 0.15941 0.74555 0.29618 0.0
C647 C 0.13563 0.72052 0.28968 0.0
C648 C 0.19191 0.74683 0.28213 0.0
C649 C 0.17631 0.79544 0.32417 0.0
C650 C 0.20115 0.77624 0.26895 0.0
C651 C 0.23101 0.77709 0.25484 0.0
C652 C 0.25194 0.74835 0.25328 0.0
C653 C 0.24238 0.71873 0.26612 0.0
C654 C 0.21263 0.71799 0.28042 0.0
H655 H 0.17035 0.80349 0.34362 0.0
H656 H 0.20259 0.78533 0.32368 0.0
H657 H 0.17518 0.8183 0.31211 0.0
H658 H 0.18501 0.79842 0.26926 0.0
H659 H 0.23753 0.80011 0.24488 0.0
H660 H 0.76581 0.76932 0.78277 0.0
H661 H 0.76953 0.71551 0.80517 0.0
H662 H 0.77034 0.66164 0.73492 0.0
H663 H 0.76625 0.71551 0.71227 0.0
H664 H 0.72253 0.66172 0.80262 0.0
H665 H 0.85148 0.62152 0.77338 0.0
H666 H 0.83673 0.66463 0.77019 0.0
H667 H 0.8243 0.63292 0.7478 0.0
C668 C 0.76668 0.74601 0.77205 0.0
C669 C 0.76543 0.74661 0.74572 0.0
C670 C 0.769 0.71535 0.7849 0.0
C671 C 0.77048 0.6847 0.77171 0.0
C672 C 0.76981 0.68513 0.74543 0.0
H673 H 0.75992 0.47423 0.79269 0.0
H674 H 0.76319 0.53322 0.78004 0.0
C675 C 0.76746 0.71586 0.73251 0.0
C676 C 0.77108 0.65219 0.78545 0.0
H677 H 0.81635 0.57921 0.79225 0.0
C678 C 0.74322 0.6438 0.80068 0.0
C679 C 0.79827 0.62913 0.783 0.0
C680 C 0.82956 0.63756 0.76791 0.0
C681 C 0.74097 0.61206 0.81244 0.0
C682 C 0.76754 0.58847 0.80911 0.0
C683 C 0.79603 0.59744 0.79474 0.0
C684 C 0.7646 0.553 0.81777 0.0
C685 C 0.70953 0.60328 0.82725 0.0
C686 C 0.76404 0.54457 0.84332 0.0
C687 C 0.76204 0.5105 0.85074 0.0
C688 C 0.76081 0.48464 0.83264 0.0
C689 C 0.76103 0.49345 0.80715 0.0
C690 C 0.76294 0.5272 0.79983 0.0
H691 H 0.68931 0.62266 0.82514 0.0
H692 H 0.6993 0.57831 0.82125 0.0
H693 H 0.71612 0.6014 0.84738 0.0
H694 H 0.76565 0.56421 0.85743 0.0
H695 H 0.76206 0.50441 0.87049 0.0
H696 H 0.09347 0.26271 0.45925 0.0
H697 H 0.11521 0.24088 0.49891 0.0
H698 H 0.17172 0.16431 0.45908 0.0
H699 H 0.15119 0.18699 0.41927 0.0
H700 H 0.11168 0.18222 0.52318 0.0
H701 H 0.24625 0.20725 0.49846 0.0
H702 H 0.21157 0.22209 0.4795 0.0
H703 H 0.22551 0.17874 0.47724 0.0
C704 C 0.11045 0.24116 0.45893 0.0
C705 C 0.12096 0.22688 0.43609 0.0
C706 C 0.12284 0.22863 0.48165 0.0
C707 C 0.14575 0.20137 0.48206 0.0
C708 C 0.15494 0.18601 0.4593 0.0
H709 H 0.20637 0.11207 0.62808 0.0
H710 H 0.18009 0.11853 0.58662 0.0
C711 C 0.14301 0.19888 0.43654 0.0
C712 C 0.16072 0.18997 0.50625 0.0
H713 H 0.23608 0.17985 0.53688 0.0
C714 C 0.13889 0.1816 0.52618 0.0
C715 C 0.19626 0.18942 0.51028 0.0
C716 C 0.22127 0.20016 0.49034 0.0
C717 C 0.15154 0.17343 0.55006 0.0
C718 C 0.18708 0.1727 0.55399 0.0
C719 C 0.20885 0.18017 0.53387 0.0
C720 C 0.20245 0.16777 0.57922 0.0
C721 C 0.12668 0.16721 0.57107 0.0
C722 C 0.22434 0.19276 0.58867 0.0
C723 C 0.23979 0.18881 0.61194 0.0
C724 C 0.23362 0.15983 0.6266 0.0
C725 C 0.21153 0.13474 0.61729 0.0
C726 C 0.19631 0.13855 0.59368 0.0
H727 H 0.10086 0.17655 0.56642 0.0
H728 H 0.12486 0.13956 0.57465 0.0
H729 H 0.13521 0.17979 0.58857 0.0
H730 H 0.22948 0.21557 0.57802 0.0
H731 H 0.25645 0.20882 0.61848 0.0
H732 H 0.30925 0.69327 0.13791 0.0
H733 H 0.30407 0.67141 0.0954 0.0
H734 H 0.40545 0.70651 0.07877 0.0
H735 H 0.41115 0.72731 0.122 0.0
H736 H 0.30371 0.71271 0.05703 0.0
H737 H 0.40453 0.61714 0.04145 0.0
H738 H 0.39226 0.63122 0.07233 0.0
H739 H 0.42017 0.65673 0.05343 0.0
C740 C 0.33082 0.69543 0.12539 0.0
C741 C 0.36056 0.71203 0.13315 0.0
C742 C 0.32783 0.68295 0.10108 0.0
C743 C 0.35431 0.68724 0.08375 0.0
C744 C 0.38487 0.70225 0.09185 0.0
H745 H 0.31542 0.71665 0.92717 0.0
H746 H 0.33584 0.7193 0.97017 0.0
C747 C 0.38811 0.71424 0.11651 0.0
C748 C 0.3477 0.68032 0.05676 0.0
H749 H 0.37606 0.63784 1.00491 0.0
C750 C 0.31946 0.69608 0.04578 0.0
C751 C 0.36805 0.65851 0.04197 0.0
C752 C 0.39777 0.63964 0.05292 0.0
C753 C 0.31118 0.69102 1.02057 0.0
C754 C 0.33221 0.6703 1.00551 0.0
C755 C 0.36016 0.65395 1.01644 0.0
C756 C 0.32557 0.66656 0.97829 0.0
C757 C 0.27975 0.70785 1.01028 0.0
C758 C 0.31464 0.63552 0.96811 0.0
C759 C 0.30315 0.63382 0.94325 0.0
C760 C 0.30225 0.66323 0.92839 0.0
C761 C 0.31527 0.69366 0.93824 0.0
C762 C 0.327 0.69523 0.96283 0.0
H763 H 0.26183 0.71518 1.02541 0.0
H764 H 0.2872 0.73123 1.00011 0.0
H765 H 0.26629 0.69087 0.99699 0.0
H766 H 0.31342 0.61306 0.97973 0.0
H767 H 0.29333 0.61002 0.93615 0.0
H768 H 0.81125 0.90275 0.63215 0.0
H769 H 0.83828 0.89687 0.59079 0.0
H770 H 0.77145 0.81329 0.57369 0.0
H771 H 0.74402 0.8195 0.61402 0.0
H772 H 0.87276 0.84481 0.57009 0.0
H773 H 0.76013 0.86933 0.51198 0.0
H774 H 0.76093 0.87863 0.54504 0.0
H775 H 0.75098 0.83648 0.53413 0.0
C776 C 0.80208 0.88346 0.61939 0.0
C777 C 0.77522 0.86184 0.62639 0.0
C778 C 0.81759 0.88006 0.5958 0.0
C779 C 0.80639 0.85512 0.57882 0.0
C780 C 0.7799 0.83341 0.58602 0.0
H781 H 0.91007 0.7449 0.46374 0.0
H782 H 0.88964 0.77031 0.50259 0.0
C783 C 0.76436 0.83689 0.60931 0.0
C784 C 0.82297 0.85018 0.55401 0.0
H785 H 0.80433 0.83574 0.49254 0.0
C786 C 0.85794 0.84344 0.55303 0.0
C787 C 0.80394 0.84914 0.53155 0.0
C788 C 0.76701 0.85919 0.53069 0.0
C789 C 0.87389 0.83372 0.53056 0.0
C790 C 0.85412 0.82949 0.5086 0.0
C791 C 0.81957 0.83824 0.50933 0.0
C792 C 0.86815 0.81483 0.48496 0.0
C793 C 0.91177 0.82818 0.53072 0.0
C794 C 0.86192 0.83053 0.46179 0.0
C795 C 0.87269 0.81541 0.43942 0.0
C796 C 0.89033 0.78447 0.43975 0.0
C797 C 0.89697 0.76898 0.46289 0.0
C798 C 0.88556 0.78373 0.4852 0.0
H799 H 0.92427 0.84432 0.54508 0.0
H800 H 0.91711 0.80137 0.53557 0.0
H801 H 0.92332 0.83384 0.51223 0.0
H802 H 0.84841 0.85439 0.46096 0.0
H803 H 0.86725 0.828 0.42187 0.0
H804 H 0.62508 0.32324 0.13744 0.0
H805 H 0.63252 0.3534 0.0974 0.0
H806 H 0.66998 0.26153 0.0635 0.0
H807 H 0.6627 0.23161 0.10293 0.0
H808 H 0.69521 0.36105 0.0719 0.0
H809 H 0.6021 0.29575 1.01142 0.0
H810 H 0.59974 0.29444 0.04519 0.0
H811 H 0.62772 0.26625 1.02855 0.0
C812 C 0.63423 0.30941 0.12126 0.0
C813 C 0.64333 0.27505 0.12335 0.0
C814 C 0.63857 0.32666 0.09845 0.0
C815 C 0.65138 0.3096 0.07733 0.0
C816 C 0.65942 0.2751 0.07933 0.0
H817 H 0.782 0.34529 0.95779 0.0
H818 H 0.7524 0.33858 0.9975 0.0
C819 C 0.65547 0.25806 0.102 0.0
C820 C 0.65949 0.32782 0.05369 0.0
H821 H 0.65051 0.32094 0.9903 0.0
C822 C 0.68484 0.3529 0.05409 0.0
C823 C 0.64572 0.31757 1.03042 0.0
C824 C 0.61705 0.29227 1.02885 0.0
C825 C 0.6986 0.36597 0.03179 0.0
C826 C 0.68698 0.35337 1.0085 0.0
C827 C 0.65975 0.33034 1.00812 0.0
C828 C 0.70526 0.36057 0.98469 0.0
C829 C 0.72627 0.39236 0.03338 0.0
C830 C 0.68855 0.37491 0.96402 0.0
C831 C 0.70555 0.37884 0.94107 0.0
C832 C 0.73935 0.3679 0.93833 0.0
C833 C 0.756 0.354 0.95919 0.0
C834 C 0.73917 0.35038 0.98204 0.0
H835 H 0.7243 0.40727 0.05097 0.0
H836 H 0.75133 0.37956 0.03331 0.0
H837 H 0.72532 0.41003 1.01722 0.0
H838 H 0.66226 0.38264 0.96556 0.0
H839 H 0.69194 0.38943 0.92532 0.0
H840 H 0.92945 0.88524 0.38565 0.0
H841 H 0.9653 0.93604 0.38828 0.0
H842 H 0.96295 0.94548 0.30795 0.0
H843 H 0.92771 0.89459 0.30512 0.0
H844 H 0.0301 0.94798 0.33153 0.0
H845 H 0.93682 0.03678 0.37432 0.0
H846 H 0.94175 0.99597 0.3889 0.0
H847 H 0.92391 0.99868 0.35811 0.0
C848 C 0.93653 0.89819 0.36857 0.0
C849 C 0.92562 0.8859 0.34518 0.0
C850 C 0.95679 0.92731 0.37011 0.0
C851 C 0.96651 0.94459 0.34831 0.0
C852 C 0.95554 0.93255 0.32499 0.0
H853 H 0.08977 0.11334 0.30237 0.0
H854 H 0.05706 0.06101 0.3061 0.0
C855 C 0.93516 0.90361 0.32343 0.0
C856 C 0.98914 0.97457 0.34955 0.0
H857 H 0.99188 0.05788 0.36678 0.0
C858 C 0.02184 0.97201 0.3393 0.0
C859 C 0.97833 1.00569 0.35994 0.0
C860 C 0.94323 0.00977 0.37084 0.0
C861 C 0.04401 0.99991 0.33895 0.0
C862 C 0.03282 0.03143 0.34854 0.0
C863 C 1.00038 0.03374 0.35937 0.0
C864 C 0.05376 0.06264 0.34651 0.0
C865 C 0.0793 0.99523 0.32851 0.0
C866 C 0.0622 0.08142 0.36795 0.0
C867 C 0.08083 0.11154 0.36585 0.0
C868 C 0.09126 0.12351 0.34226 0.0
C869 C 0.08281 0.10454 0.32085 0.0
C870 C 0.06408 0.07456 0.32296 0.0
H871 H 0.08738 0.96829 0.32944 0.0
H872 H 0.07955 1.00296 0.30855 0.0
H873 H 0.09811 0.01099 0.33875 0.0
H874 H 0.05436 0.07277 0.38631 0.0
H875 H 0.08713 0.12542 0.3827 0.0
H876 H 0.39008 0.56799 0.80032 0.0
H877 H 0.44268 0.53652 0.80608 0.0
H878 H 0.44042 0.55875 0.88504 0.0
H879 H 0.38782 0.59078 0.87944 0.0
H880 H 0.50543 0.55896 0.82558 0.0
H881 H 0.4497 0.45443 0.88218 0.0
H882 H 0.42398 0.48344 0.86428 0.0
H883 H 0.44191 0.4966 0.8936 0.0
C884 C 0.40082 0.56661 0.8189 0.0
C885 C 0.38451 0.58199 0.83942 0.0
C886 C 0.43087 0.54839 0.82217 0.0
C887 C 0.44524 0.54493 0.84602 0.0
C888 C 0.42941 0.56056 0.86653 0.0
H889 H 0.65171 0.46818 0.86893 0.0
H890 H 0.60015 0.50253 0.87101 0.0
C891 C 0.39931 0.57886 0.86328 0.0
C892 C 0.47691 0.52507 0.84918 0.0
H893 H 0.50896 0.45297 0.87545 0.0
C894 C 0.50629 0.53588 0.8366 0.0
C895 C 0.47782 0.49481 0.86336 0.0
C896 C 0.44666 0.48135 0.8765 0.0
C897 C 0.53654 0.51715 0.83767 0.0
C898 C 0.53754 0.48699 0.85199 0.0
C899 C 0.5082 0.47626 0.86468 0.0
C900 C 0.56825 0.46527 0.85278 0.0
C901 C 0.56686 0.5292 0.82281 0.0
C902 C 0.56715 0.43243 0.84271 0.0
C903 C 0.5965 0.4126 0.84171 0.0
C904 C 0.62756 0.42513 0.85087 0.0
C905 C 0.62825 0.45759 0.86184 0.0
C906 C 0.59886 0.47744 0.86281 0.0
H907 H 0.55976 0.54853 0.80865 0.0
H908 H 0.58564 0.5408 0.8357 0.0
H909 H 0.57934 0.50766 0.8131 0.0
H910 H 0.54373 0.42244 0.83503 0.0
H911 H 0.59494 0.38755 0.8335 0.0
H912 H 0.44392 0.61701 0.26309 0.0
H913 H 0.47388 0.5635 0.25761 0.0
H914 H 0.45809 0.56896 0.17792 0.0
H915 H 0.42759 0.62253 0.18322 0.0
H916 H 0.44972 0.50246 0.23555 0.0
H917 H 0.56169 0.55498 0.18495 0.0
H918 H 0.53252 0.58148 0.20217 0.0
H919 H 0.52074 0.56493 0.17211 0.0
C920 C 0.44643 0.60679 0.24439 0.0
C921 C 0.43329 0.62422 0.22359 0.0
C922 C 0.46377 0.57624 0.24129 0.0
C923 C 0.46856 0.56249 0.21735 0.0
C924 C 0.45522 0.57948 0.19652 0.0
H925 H 0.58085 0.37775 0.17733 0.0
H926 H 0.54582 0.42901 0.17476 0.0
C927 C 0.43781 0.61011 0.1996 0.0
C928 C 0.48724 0.53014 0.21448 0.0
H929 H 0.56092 0.49599 0.19208 0.0
C930 C 0.47394 0.50099 0.22593 0.0
C931 C 0.51872 0.52829 0.20178 0.0
C932 C 0.53452 0.55907 0.18967 0.0
C933 C 0.49153 0.47011 0.22537 0.0
C934 C 0.52356 0.46852 0.21342 0.0
C935 C 0.53638 0.49736 0.20126 0.0
C936 C 0.54494 0.43771 0.21472 0.0
C937 C 0.47572 0.43944 0.23763 0.0
C938 C 0.5565 0.42605 0.23796 0.0
C939 C 0.57637 0.39687 0.2395 0.0
C940 C 0.58528 0.37876 0.21777 0.0
C941 C 0.5741 0.39086 0.19442 0.0
C942 C 0.55425 0.4202 0.19291 0.0
H943 H 0.44776 0.44215 0.23946 0.0
H944 H 0.48127 0.41601 0.22685 0.0
H945 H 0.48641 0.43645 0.2567 0.0
H946 H 0.55008 0.43952 0.25499 0.0
H947 H 0.58415 0.3882 0.2578 0.0
H948 H 0.12712 0.08941 0.67049 0.0
H949 H 0.07683 0.05339 0.66425 0.0
H950 H 0.06156 0.04909 0.74406 0.0
H951 H 0.11167 0.08442 0.75047 0.0
H952 H 0.06257 0.98345 0.71571 0.0
H953 H 0.97368 0.08054 0.67791 0.0
H954 H 0.01601 0.07801 0.66519 0.0
H955 H 0.00995 0.09215 0.69675 0.0
C956 C 0.11298 0.08081 0.68667 0.0
C957 C 0.12332 0.08997 0.71096 0.0
C958 C 0.0842 0.06044 0.68307 0.0
C959 C 0.06545 0.04884 0.70371 0.0
C960 C 0.07563 0.05799 0.7279 0.0
H961 H 0.89989 0.92883 0.75149 0.0
H962 H 0.95207 0.9606 0.7448 0.0
C963 C 0.10416 0.07843 0.73151 0.0
C964 C 0.03576 0.0262 0.70051 0.0
H965 H 0.95154 0.02607 0.68549 0.0
C966 C 0.03838 0.9926 0.70882 0.0
C967 C 1.00441 0.0382 0.69129 0.0
C968 C 1.00049 0.07421 0.68231 0.0
C969 C 0.01011 0.97091 0.70892 0.0
C970 C 0.97823 0.98344 0.70106 0.0
C971 C 0.97597 0.01658 0.69161 0.0
C972 C 0.94659 0.96354 0.70459 0.0
C973 C 0.01459 0.93487 0.71776 0.0
C974 C 0.9256 0.95535 0.68425 0.0
C975 C 0.89551 0.937 0.68802 0.0
C976 C 0.88583 0.92674 0.71224 0.0
C977 C 0.90684 0.93546 0.73253 0.0
C978 C 0.93676 0.95372 0.72875 0.0
H979 H 0.04121 0.92623 0.71529 0.0
H980 H 0.00843 0.93342 0.738 0.0
H981 H 0.99749 0.91724 0.70754 0.0
H982 H 0.93262 0.96293 0.66546 0.0
H983 H 0.88003 0.93061 0.67198 0.0
loop_
_geom_bond_atom_site_label_1
_geom_bond_atom_site_label_2
_geom_bond_distance
_geom_bond_site_symmetry_2
_ccdc_geom_bond_type
C0 C1 1.351 . S
C0 N3 1.368 . S
C0 H5 0.931 . S
C1 C0 1.351 . S
C1 N2 1.373 . S
C1 H29 0.930 . S
N2 C1 1.373 . S
N2 C4 1.340 . S
N3 C0 1.368 . S
N3 C4 1.321 . S
N3 Co6 2.135 . S
C4 N2 1.340 . S
C4 N3 1.321 . S
C4 H28 0.930 . S
H5 C0 0.931 . S
Co6 N3 2.135 . S
Co6 N9 2.121 . S
Co6 O14 2.055 1_455 S
Co6 O17 2.039 . S
Co6 N20 2.140 . S
C7 O8 1.227 . S
C7 O17 1.265 . S
O8 C7 1.227 . S
N9 Co6 2.121 . S
N9 C11 1.375 . S
N9 C12 1.313 . S
C10 C11 1.338 . S
C10 N13 1.377 . S
C10 H30 0.930 . S
C11 N9 1.375 . S
C11 C10 1.338 . S
C11 H15 0.931 . S
C12 N9 1.313 . S
C12 N13 1.344 . S
C12 H16 0.930 . S
N13 C10 1.377 . S
N13 C12 1.344 . S
O14 Co6 2.055 1_655 S
O14 C18 1.253 . S
H15 C11 0.931 . S
H16 C12 0.930 . S
O17 Co6 2.039 . S
O17 C7 1.265 . S
C18 O14 1.253 . S
C18 O19 1.227 1_655 S
O19 C18 1.227 1_455 S
N20 Co6 2.140 . S
N20 C23 1.346 . S
N20 C24 1.345 . S
C21 C22 1.387 . S
C21 C25 1.391 . S
C22 C21 1.387 . S
C22 C23 1.369 . S
C22 H31 0.929 . S
C23 N20 1.346 . S
C23 C22 1.369 . S
C23 H26 0.928 . S
C24 N20 1.345 . S
C24 C25 1.371 . S
C24 H27 0.931 . S
C25 C21 1.391 . S
C25 C24 1.371 . S
C25 H32 0.930 . S
H26 C23 0.928 . S
H27 C24 0.931 . S
H28 C4 0.930 . S
H29 C1 0.930 . S
H30 C10 0.930 . S
H31 C22 0.929 . S
H32 C25 0.930 . S
C33 C34 1.351 . S
C33 N36 1.368 . S
C33 H38 0.931 . S
C34 C33 1.351 . S
C34 N35 1.373 . S
C34 H62 0.930 . S
N35 C34 1.373 . S
N35 C37 1.340 . S
N36 C33 1.368 . S
N36 C37 1.321 . S
N36 Co39 2.135 . S
C37 N35 1.340 . S
C37 N36 1.321 . S
C37 H61 0.930 . S
H38 C33 0.931 . S
Co39 N36 2.135 . S
Co39 N42 2.121 . S
Co39 O47 2.055 . S
Co39 O50 2.039 . S
Co39 N53 2.140 . S
C40 O41 1.227 . S
C40 O50 1.265 . S
O41 C40 1.227 . S
N42 Co39 2.121 . S
N42 C44 1.375 . S
N42 C45 1.313 . S
C43 C44 1.338 . S
C43 N46 1.377 . S
C43 H63 0.930 . S
C44 N42 1.375 . S
C44 C43 1.338 . S
C44 H48 0.931 . S
C45 N42 1.313 . S
C45 N46 1.344 . S
C45 H49 0.930 . S
N46 C43 1.377 . S
N46 C45 1.344 . S
O47 Co39 2.055 . S
O47 C51 1.253 . S
H48 C44 0.931 . S
H49 C45 0.930 . S
O50 Co39 2.039 . S
O50 C40 1.265 . S
C51 O47 1.253 . S
C51 O52 1.227 . S
O52 C51 1.227 . S
N53 Co39 2.140 . S
N53 C56 1.346 . S
N53 C57 1.345 . S
C54 C55 1.387 . S
C54 C58 1.391 . S
C55 C54 1.387 . S
C55 C56 1.369 . S
C55 H64 0.929 . S
C56 N53 1.346 . S
C56 C55 1.369 . S
C56 H59 0.928 . S
C57 N53 1.345 . S
C57 C58 1.371 . S
C57 H60 0.931 . S
C58 C54 1.391 . S
C58 C57 1.371 . S
C58 H65 0.930 . S
H59 C56 0.928 . S
H60 C57 0.931 . S
H61 C37 0.930 . S
H62 C34 0.930 . S
H63 C43 0.930 . S
H64 C55 0.929 . S
H65 C58 0.930 . S
C66 C67 1.351 . S
C66 N69 1.368 . S
C66 H71 0.931 . S
C67 C66 1.351 . S
C67 N68 1.373 . S
C67 H95 0.930 . S
N68 C67 1.373 . S
N68 C70 1.340 . S
N69 C66 1.368 . S
N69 C70 1.321 . S
N69 Co72 2.135 . S
C70 N68 1.340 . S
C70 N69 1.321 . S
C70 H94 0.930 . S
H71 C66 0.931 . S
Co72 N69 2.135 . S
Co72 N75 2.121 . S
Co72 O80 2.055 1_655 S
Co72 O83 2.039 . S
Co72 N86 2.140 . S
C73 O74 1.227 . S
C73 O83 1.265 . S
O74 C73 1.227 . S
N75 Co72 2.121 . S
N75 C77 1.375 . S
N75 C78 1.313 . S
C76 C77 1.338 . S
C76 N79 1.377 . S
C76 H96 0.930 . S
C77 N75 1.375 . S
C77 C76 1.338 . S
C77 H81 0.931 . S
C78 N75 1.313 . S
C78 N79 1.344 . S
C78 H82 0.930 . S
N79 C76 1.377 . S
N79 C78 1.344 . S
O80 Co72 2.055 1_455 S
O80 C84 1.253 . S
H81 C77 0.931 . S
H82 C78 0.930 . S
O83 Co72 2.039 . S
O83 C73 1.265 . S
C84 O80 1.253 . S
C84 O85 1.227 1_455 S
O85 C84 1.227 1_655 S
N86 Co72 2.140 . S
N86 C89 1.346 . S
N86 C90 1.345 . S
C87 C88 1.387 . S
C87 C91 1.391 . S
C88 C87 1.387 . S
C88 C89 1.369 . S
C88 H97 0.929 . S
C89 N86 1.346 . S
C89 C88 1.369 . S
C89 H92 0.928 . S
C90 N86 1.345 . S
C90 C91 1.371 . S
C90 H93 0.931 . S
C91 C87 1.391 . S
C91 C90 1.371 . S
C91 H98 0.930 . S
H92 C89 0.928 . S
H93 C90 0.931 . S
H94 C70 0.930 . S
H95 C67 0.930 . S
H96 C76 0.930 . S
H97 C88 0.929 . S
H98 C91 0.930 . S
C99 C100 1.351 . S
C99 N102 1.368 . S
C99 H104 0.931 . S
C100 C99 1.351 . S
C100 N101 1.373 . S
C100 H128 0.930 . S
N101 C100 1.373 . S
N101 C103 1.340 . S
N102 C99 1.368 . S
N102 C103 1.321 . S
N102 Co105 2.135 . S
C103 N101 1.340 . S
C103 N102 1.321 . S
C103 H127 0.930 . S
H104 C99 0.931 . S
Co105 N102 2.135 . S
Co105 N108 2.121 . S
Co105 O113 2.055 . S
Co105 O116 2.039 . S
Co105 N119 2.140 . S
C106 O107 1.227 . S
C106 O116 1.265 . S
O107 C106 1.227 . S
N108 Co105 2.121 . S
N108 C110 1.375 . S
N108 C111 1.313 . S
C109 C110 1.338 . S
C109 N112 1.377 . S
C109 H129 0.930 . S
C110 N108 1.375 . S
C110 C109 1.338 . S
C110 H114 0.931 . S
C111 N108 1.313 . S
C111 N112 1.344 . S
C111 H115 0.930 . S
N112 C109 1.377 . S
N112 C111 1.344 . S
O113 Co105 2.055 . S
O113 C117 1.253 . S
H114 C110 0.931 . S
H115 C111 0.930 . S
O116 Co105 2.039 . S
O116 C106 1.265 . S
C117 O113 1.253 . S
C117 O118 1.227 . S
O118 C117 1.227 . S
N119 Co105 2.140 . S
N119 C122 1.346 . S
N119 C123 1.345 . S
C120 C121 1.387 . S
C120 C124 1.391 . S
C121 C120 1.387 . S
C121 C122 1.369 . S
C121 H130 0.929 . S
C122 N119 1.346 . S
C122 C121 1.369 . S
C122 H125 0.928 . S
C123 N119 1.345 . S
C123 C124 1.371 . S
C123 H126 0.931 . S
C124 C120 1.391 . S
C124 C123 1.371 . S
C124 H131 0.930 . S
H125 C122 0.928 . S
H126 C123 0.931 . S
H127 C103 0.930 . S
H128 C100 0.930 . S
H129 C109 0.930 . S
H130 C121 0.929 . S
H131 C124 0.930 . S
C132 C133 1.351 . S
C132 N135 1.368 . S
C132 H137 0.931 . S
C133 C132 1.351 . S
C133 N134 1.373 . S
C133 H161 0.930 . S
N134 C133 1.373 . S
N134 C136 1.340 . S
N135 C132 1.368 . S
N135 C136 1.321 . S
N135 Co138 2.135 . S
C136 N134 1.340 . S
C136 N135 1.321 . S
C136 H160 0.930 . S
H137 C132 0.931 . S
Co138 N135 2.135 . S
Co138 N141 2.121 . S
Co138 O146 2.055 . S
Co138 O149 2.039 . S
Co138 N152 2.140 . S
C139 O140 1.227 . S
C139 O149 1.265 . S
O140 C139 1.227 . S
N141 Co138 2.121 . S
N141 C143 1.375 . S
N141 C144 1.313 . S
C142 C143 1.338 . S
C142 N145 1.377 . S
C142 H162 0.930 . S
C143 N141 1.375 . S
C143 C142 1.338 . S
C143 H147 0.931 . S
C144 N141 1.313 . S
C144 N145 1.344 . S
C144 H148 0.930 . S
N145 C142 1.377 . S
N145 C144 1.344 . S
O146 Co138 2.055 . S
O146 C150 1.253 . S
H147 C143 0.931 . S
H148 C144 0.930 . S
O149 Co138 2.039 . S
O149 C139 1.265 . S
C150 O146 1.253 . S
C150 O151 1.227 . S
O151 C150 1.227 . S
N152 Co138 2.140 . S
N152 C155 1.346 . S
N152 C156 1.345 . S
C153 C154 1.387 . S
C153 C157 1.391 . S
C154 C153 1.387 . S
C154 C155 1.369 . S
C154 H163 0.929 . S
C155 N152 1.346 . S
C155 C154 1.369 . S
C155 H158 0.928 . S
C156 N152 1.345 . S
C156 C157 1.371 . S
C156 H159 0.931 . S
C157 C153 1.391 . S
C157 C156 1.371 . S
C157 H164 0.930 . S
H158 C155 0.928 . S
H159 C156 0.931 . S
H160 C136 0.930 . S
H161 C133 0.930 . S
H162 C142 0.930 . S
H163 C154 0.929 . S
H164 C157 0.930 . S
C165 C166 1.351 . S
C165 N168 1.368 . S
C165 H170 0.931 . S
C166 C165 1.351 . S
C166 N167 1.373 . S
C166 H194 0.930 . S
N167 C166 1.373 . S
N167 C169 1.340 . S
N168 C165 1.368 . S
N168 C169 1.321 . S
N168 Co171 2.135 . S
C169 N167 1.340 . S
C169 N168 1.321 . S
C169 H193 0.930 . S
H170 C165 0.931 . S
Co171 N168 2.135 . S
Co171 N174 2.121 . S
Co171 O179 2.055 1_545 S
Co171 O182 2.039 . S
Co171 N185 2.140 . S
C172 O173 1.227 . S
C172 O182 1.265 . S
O173 C172 1.227 . S
N174 Co171 2.121 . S
N174 C176 1.375 . S
N174 C177 1.313 . S
C175 C176 1.338 . S
C175 N178 1.377 . S
C175 H195 0.930 . S
C176 N174 1.375 . S
C176 C175 1.338 . S
C176 H180 0.931 . S
C177 N174 1.313 . S
C177 N178 1.344 . S
C177 H181 0.930 . S
N178 C175 1.377 . S
N178 C177 1.344 . S
O179 Co171 2.055 1_565 S
O179 C183 1.253 . S
H180 C176 0.931 . S
H181 C177 0.930 . S
O182 Co171 2.039 . S
O182 C172 1.265 . S
C183 O179 1.253 . S
C183 O184 1.227 1_565 S
O184 C183 1.227 1_545 S
N185 Co171 2.140 . S
N185 C188 1.346 . S
N185 C189 1.345 . S
C186 C187 1.387 . S
C186 C190 1.391 . S
C187 C186 1.387 . S
C187 C188 1.369 . S
C187 H196 0.929 . S
C188 N185 1.346 . S
C188 C187 1.369 . S
C188 H191 0.928 . S
C189 N185 1.345 . S
C189 C190 1.371 . S
C189 H192 0.931 . S
C190 C186 1.391 . S
C190 C189 1.371 . S
C190 H197 0.930 . S
H191 C188 0.928 . S
H192 C189 0.931 . S
H193 C169 0.930 . S
H194 C166 0.930 . S
H195 C175 0.930 . S
H196 C187 0.929 . S
H197 C190 0.930 . S
C198 C199 1.351 . S
C198 N201 1.368 . S
C198 H203 0.931 . S
C199 C198 1.351 . S
C199 N200 1.373 . S
C199 H227 0.930 . S
N200 C199 1.373 . S
N200 C202 1.340 . S
N201 C198 1.368 . S
N201 C202 1.321 . S
N201 Co204 2.135 . S
C202 N200 1.340 . S
C202 N201 1.321 . S
C202 H226 0.930 . S
H203 C198 0.931 . S
Co204 N201 2.135 . S
Co204 N207 2.121 . S
Co204 O212 2.055 . S
Co204 O215 2.039 . S
Co204 N218 2.140 . S
C205 O206 1.227 . S
C205 O215 1.265 . S
O206 C205 1.227 . S
N207 Co204 2.121 . S
N207 C209 1.375 . S
N207 C210 1.313 . S
C208 C209 1.338 . S
C208 N211 1.377 . S
C208 H228 0.930 . S
C209 N207 1.375 . S
C209 C208 1.338 . S
C209 H213 0.931 . S
C210 N207 1.313 . S
C210 N211 1.344 . S
C210 H214 0.930 . S
N211 C208 1.377 . S
N211 C210 1.344 . S
O212 Co204 2.055 . S
O212 C216 1.253 . S
H213 C209 0.931 . S
H214 C210 0.930 . S
O215 Co204 2.039 . S
O215 C205 1.265 . S
C216 O212 1.253 . S
C216 O217 1.227 . S
O217 C216 1.227 . S
N218 Co204 2.140 . S
N218 C221 1.346 . S
N218 C222 1.345 . S
C219 C220 1.387 . S
C219 C223 1.391 . S
C220 C219 1.387 . S
C220 C221 1.369 . S
C220 H229 0.929 . S
C221 N218 1.346 . S
C221 C220 1.369 . S
C221 H224 0.928 . S
C222 N218 1.345 . S
C222 C223 1.371 . S
C222 H225 0.931 . S
C223 C219 1.391 . S
C223 C222 1.371 . S
C223 H230 0.930 . S
H224 C221 0.928 . S
H225 C222 0.931 . S
H226 C202 0.930 . S
H227 C199 0.930 . S
H228 C208 0.930 . S
H229 C220 0.929 . S
H230 C223 0.930 . S
C231 C232 1.351 . S
C231 N234 1.368 . S
C231 H236 0.931 . S
C232 C231 1.351 . S
C232 N233 1.373 . S
C232 H260 0.930 . S
N233 C232 1.373 . S
N233 C235 1.340 . S
N234 C231 1.368 . S
N234 C235 1.321 . S
N234 Co237 2.135 . S
C235 N233 1.340 . S
C235 N234 1.321 . S
C235 H259 0.930 . S
H236 C231 0.931 . S
Co237 N234 2.135 . S
Co237 N240 2.121 . S
Co237 O245 2.055 1_565 S
Co237 O248 2.039 . S
Co237 N251 2.140 . S
C238 O239 1.227 . S
C238 O248 1.265 . S
O239 C238 1.227 . S
N240 Co237 2.121 . S
N240 C242 1.375 . S
N240 C243 1.313 . S
C241 C242 1.338 . S
C241 N244 1.377 . S
C241 H261 0.930 . S
C242 N240 1.375 . S
C242 C241 1.338 . S
C242 H246 0.931 . S
C243 N240 1.313 . S
C243 N244 1.344 . S
C243 H247 0.930 . S
N244 C241 1.377 . S
N244 C243 1.344 . S
O245 Co237 2.055 1_545 S
O245 C249 1.253 . S
H246 C242 0.931 . S
H247 C243 0.930 . S
O248 Co237 2.039 . S
O248 C238 1.265 . S
C249 O245 1.253 . S
C249 O250 1.227 1_545 S
O250 C249 1.227 1_565 S
N251 Co237 2.140 . S
N251 C254 1.346 . S
N251 C255 1.345 . S
C252 C253 1.387 . S
C252 C256 1.391 . S
C253 C252 1.387 . S
C253 C254 1.369 . S
C253 H262 0.929 . S
C254 N251 1.346 . S
C254 C253 1.369 . S
C254 H257 0.928 . S
C255 N251 1.345 . S
C255 C256 1.371 . S
C255 H258 0.931 . S
C256 C252 1.391 . S
C256 C255 1.371 . S
C256 H263 0.930 . S
H257 C254 0.928 . S
H258 C255 0.931 . S
H259 C235 0.930 . S
H260 C232 0.930 . S
H261 C241 0.930 . S
H262 C253 0.929 . S
H263 C256 0.930 . S
H264 C272 0.929 . S
H265 C274 0.930 . S
H266 C276 0.906 1_455 S
H267 C279 0.929 1_455 S
H268 C282 0.930 . S
H269 C284 0.960 . S
H270 C284 0.960 . S
H271 C284 0.960 . S
C272 H264 0.929 . S
C272 C273 1.377 . S
C272 C274 1.384 . S
C273 C272 1.377 . S
C273 C279 1.390 . S
C274 H265 0.930 . S
C274 C272 1.384 . S
C274 C275 1.372 . S
C275 C274 1.372 . S
C275 C276 1.416 . S
C275 C280 1.490 . S
C276 H266 0.906 1_655 S
C276 C275 1.416 . S
C276 C279 1.393 . S
H277 C293 0.930 . S
H278 C294 0.931 . S
C279 H267 0.929 1_655 S
C279 C273 1.390 . S
C279 C276 1.393 . S
C280 C275 1.490 . S
C280 C282 1.395 . S
C280 C283 1.403 1_655 S
H281 C287 0.930 . S
C282 H268 0.930 . S
C282 C280 1.395 . S
C282 C285 1.403 . S
C283 C280 1.403 1_455 S
C283 C284 1.524 . S
C283 C287 1.400 . S
C284 H269 0.960 . S
C284 H270 0.960 . S
C284 H271 0.960 . S
C284 C283 1.524 . S
C285 C282 1.403 . S
C285 C286 1.392 1_655 S
C285 C289 1.495 . S
C286 C285 1.392 1_455 S
C286 C287 1.385 . S
C286 C288 1.478 . S
C287 H281 0.930 . S
C287 C283 1.400 . S
C287 C286 1.385 . S
C288 C286 1.478 . S
C288 C290 1.381 1_455 S
C288 C294 1.383 . S
C289 C285 1.495 . S
C289 H295 0.959 . S
C289 H296 0.961 . S
C289 H297 0.960 . S
C290 C288 1.381 1_655 S
C290 C291 1.394 1_655 S
C290 H298 0.930 . S
C291 C290 1.394 1_455 S
C291 C292 1.383 . S
C291 H299 0.929 1_455 S
C292 C291 1.383 . S
C292 C293 1.377 . S
C293 H277 0.930 . S
C293 C292 1.377 . S
C293 C294 1.379 . S
C294 H278 0.931 . S
C294 C288 1.383 . S
C294 C293 1.379 . S
H295 C289 0.959 . S
H296 C289 0.961 . S
H297 C289 0.960 . S
H298 C290 0.930 . S
H299 C291 0.929 1_655 S
H300 C308 0.929 . S
H301 C310 0.930 . S
H302 C312 0.930 . S
H303 C315 0.929 . S
H304 C318 0.930 . S
H305 C320 0.960 . S
H306 C320 0.960 . S
H307 C320 0.960 . S
C308 H300 0.929 . S
C308 C309 1.377 . S
C308 C310 1.384 . S
C309 C308 1.377 . S
C309 C315 1.390 . S
C310 H301 0.930 . S
C310 C308 1.384 . S
C310 C311 1.372 . S
C311 C310 1.372 . S
C311 C312 1.400 . S
C311 C316 1.490 . S
C312 H302 0.930 . S
C312 C311 1.400 . S
C312 C315 1.386 . S
H313 C329 0.930 . S
H314 C330 0.931 . S
C315 H303 0.929 . S
C315 C309 1.390 . S
C315 C312 1.386 . S
C316 C311 1.490 . S
C316 C318 1.395 . S
C316 C319 1.403 . S
H317 C323 0.930 . S
C318 H304 0.930 . S
C318 C316 1.395 . S
C318 C321 1.403 1_655 S
C319 C316 1.403 . S
C319 C320 1.524 . S
C319 C323 1.400 1_655 S
C320 H305 0.960 . S
C320 H306 0.960 . S
C320 H307 0.960 . S
C320 C319 1.524 . S
C321 C318 1.403 1_455 S
C321 C322 1.392 . S
C321 C325 1.495 . S
C322 C321 1.392 . S
C322 C323 1.385 . S
C322 C324 1.478 . S
C323 H317 0.930 . S
C323 C319 1.400 1_455 S
C323 C322 1.385 . S
C324 C322 1.478 . S
C324 C326 1.381 . S
C324 C330 1.383 . S
C325 C321 1.495 . S
C325 H331 0.959 . S
C325 H332 0.961 . S
C325 H333 0.960 . S
C326 C324 1.381 . S
C326 C327 1.394 . S
C326 H334 0.930 . S
C327 C326 1.394 . S
C327 C328 1.383 . S
C327 H335 0.929 . S
C328 C327 1.383 . S
C328 C329 1.377 . S
C329 H313 0.930 . S
C329 C328 1.377 . S
C329 C330 1.379 . S
C330 H314 0.931 . S
C330 C324 1.383 . S
C330 C329 1.379 . S
H331 C325 0.959 . S
H332 C325 0.961 . S
H333 C325 0.960 . S
H334 C326 0.930 . S
H335 C327 0.929 . S
H336 C344 0.929 . S
H337 C346 0.930 . S
H338 C348 0.930 . S
H339 C351 0.929 . S
H340 C354 0.930 . S
H341 C356 0.960 . S
H342 C356 0.960 . S
H343 C356 0.960 . S
C344 H336 0.929 . S
C344 C345 1.377 . S
C344 C346 1.384 . S
C345 C344 1.377 . S
C345 C351 1.390 . S
C346 H337 0.930 . S
C346 C344 1.384 . S
C346 C347 1.372 . S
C347 C346 1.372 . S
C347 C348 1.400 . S
C347 C352 1.490 . S
C348 H338 0.930 . S
C348 C347 1.400 . S
C348 C351 1.386 . S
H349 C365 0.930 . S
H350 C366 0.931 . S
C351 H339 0.929 . S
C351 C345 1.390 . S
C351 C348 1.386 . S
C352 C347 1.490 . S
C352 C354 1.395 . S
C352 C355 1.403 . S
H353 C359 0.930 . S
C354 H340 0.930 . S
C354 C352 1.395 . S
C354 C357 1.403 1_565 S
C355 C352 1.403 . S
C355 C356 1.524 . S
C355 C359 1.400 1_565 S
C356 H341 0.960 . S
C356 H342 0.960 . S
C356 H343 0.960 . S
C356 C355 1.524 . S
C357 C354 1.403 1_545 S
C357 C358 1.392 . S
C357 C361 1.495 . S
C358 C357 1.392 . S
C358 C359 1.385 . S
C358 C360 1.478 . S
C359 H353 0.930 . S
C359 C355 1.400 1_545 S
C359 C358 1.385 . S
C360 C358 1.478 . S
C360 C362 1.381 . S
C360 C366 1.383 . S
C361 C357 1.495 . S
C361 H367 0.959 . S
C361 H368 0.961 . S
C361 H369 0.960 . S
C362 C360 1.381 . S
C362 C363 1.394 . S
C362 H370 0.930 . S
C363 C362 1.394 . S
C363 C364 1.383 . S
C363 H371 0.929 . S
C364 C363 1.383 . S
C364 C365 1.377 . S
C365 H349 0.930 . S
C365 C364 1.377 . S
C365 C366 1.379 . S
C366 H350 0.931 . S
C366 C360 1.383 . S
C366 C365 1.379 . S
H367 C361 0.959 . S
H368 C361 0.961 . S
H369 C361 0.960 . S
H370 C362 0.930 . S
H371 C363 0.929 . S
H372 C380 0.929 . S
H373 C382 0.930 . S
H374 C384 0.930 . S
H375 C387 0.929 . S
H376 C390 0.930 . S
H377 C392 0.960 . S
H378 C392 0.960 . S
H379 C392 0.960 . S
C380 H372 0.929 . S
C380 C381 1.377 . S
C380 C382 1.384 . S
C381 C380 1.377 . S
C381 C387 1.390 . S
C382 H373 0.930 . S
C382 C380 1.384 . S
C382 C383 1.372 . S
C383 C382 1.372 . S
C383 C384 1.400 . S
C383 C388 1.490 . S
C384 H374 0.930 . S
C384 C383 1.400 . S
C384 C387 1.386 . S
H385 C401 0.930 . S
H386 C402 0.931 . S
C387 H375 0.929 . S
C387 C381 1.390 . S
C387 C384 1.386 . S
C388 C383 1.490 . S
C388 C390 1.395 . S
C388 C391 1.403 1_565 S
H389 C395 0.930 . S
C390 H376 0.930 . S
C390 C388 1.395 . S
C390 C393 1.403 . S
C391 C388 1.403 1_545 S
C391 C392 1.524 . S
C391 C395 1.400 . S
C392 H377 0.960 . S
C392 H378 0.960 . S
C392 H379 0.960 . S
C392 C391 1.524 . S
C393 C390 1.403 . S
C393 C394 1.392 1_565 S
C393 C397 1.495 . S
C394 C393 1.392 1_545 S
C394 C395 1.385 . S
C394 C396 1.478 . S
C395 H389 0.930 . S
C395 C391 1.400 . S
C395 C394 1.385 . S
C396 C394 1.478 . S
C396 C398 1.381 . S
C396 C402 1.383 . S
C397 C393 1.495 . S
C397 H403 0.959 . S
C397 H404 0.961 . S
C397 H405 0.960 . S
C398 C396 1.381 . S
C398 C399 1.394 . S
C398 H406 0.930 . S
C399 C398 1.394 . S
C399 C400 1.383 . S
C399 H407 0.929 . S
C400 C399 1.383 . S
C400 C401 1.377 . S
C401 H385 0.930 . S
C401 C400 1.377 . S
C401 C402 1.379 . S
C402 H386 0.931 . S
C402 C396 1.383 . S
C402 C401 1.379 . S
H403 C397 0.959 . S
H404 C397 0.961 . S
H405 C397 0.960 . S
H406 C398 0.930 . S
H407 C399 0.929 . S
H408 C416 0.929 . S
H409 C418 0.930 . S
H410 C420 0.930 . S
H411 C423 0.929 . S
H412 C426 0.930 . S
H413 C428 0.960 . S
H414 C428 0.960 . S
H415 C428 0.960 . S
C416 H408 0.929 . S
C416 C417 1.377 . S
C416 C418 1.384 . S
C417 C416 1.377 . S
C417 C423 1.390 . S
C418 H409 0.930 . S
C418 C416 1.384 . S
C418 C419 1.372 . S
C419 C418 1.372 . S
C419 C420 1.400 . S
C419 C424 1.490 . S
C420 H410 0.930 . S
C420 C419 1.400 . S
C420 C423 1.386 . S
H421 C437 0.930 . S
H422 C438 0.931 . S
C423 H411 0.929 . S
C423 C417 1.390 . S
C423 C420 1.386 . S
C424 C419 1.490 . S
C424 C426 1.395 . S
C424 C427 1.403 . S
H425 C431 0.930 . S
C426 H412 0.930 . S
C426 C424 1.395 . S
C426 C429 1.403 . S
C427 C424 1.403 . S
C427 C428 1.524 . S
C427 C431 1.400 . S
C428 H413 0.960 . S
C428 H414 0.960 . S
C428 H415 0.960 . S
C428 C427 1.524 . S
C429 C426 1.403 . S
C429 C430 1.392 . S
C429 C433 1.495 . S
C430 C429 1.392 . S
C430 C431 1.385 . S
C430 C432 1.478 . S
C431 H425 0.930 . S
C431 C427 1.400 . S
C431 C430 1.385 . S
C432 C430 1.478 . S
C432 C434 1.381 . S
C432 C438 1.383 . S
C433 C429 1.495 . S
C433 H439 0.959 . S
C433 H440 0.961 . S
C433 H441 0.960 . S
C434 C432 1.381 . S
C434 C435 1.394 . S
C434 H442 0.930 . S
C435 C434 1.394 . S
C435 C436 1.383 . S
C435 H443 0.929 . S
C436 C435 1.383 . S
C436 C437 1.377 . S
C437 H421 0.930 . S
C437 C436 1.377 . S
C437 C438 1.379 . S
C438 H422 0.931 . S
C438 C432 1.383 . S
C438 C437 1.379 . S
H439 C433 0.959 . S
H440 C433 0.961 . S
H441 C433 0.960 . S
H442 C434 0.930 . S
H443 C435 0.929 . S
H444 C452 0.929 . S
H445 C454 0.930 . S
H446 C456 0.930 . S
H447 C459 0.929 . S
H448 C462 0.930 . S
H449 C464 0.960 . S
H450 C464 0.960 . S
H451 C464 0.960 . S
C452 H444 0.929 . S
C452 C453 1.377 . S
C452 C454 1.384 . S
C453 C452 1.377 . S
C453 C459 1.390 . S
C454 H445 0.930 . S
C454 C452 1.384 . S
C454 C455 1.372 . S
C455 C454 1.372 . S
C455 C456 1.400 . S
C455 C460 1.490 . S
C456 H446 0.930 . S
C456 C455 1.400 . S
C456 C459 1.386 . S
H457 C473 0.930 . S
H458 C474 0.931 . S
C459 H447 0.929 . S
C459 C453 1.390 . S
C459 C456 1.386 . S
C460 C455 1.490 . S
C460 C462 1.395 . S
C460 C463 1.403 . S
H461 C467 0.930 . S
C462 H448 0.930 . S
C462 C460 1.395 . S
C462 C465 1.403 . S
C463 C460 1.403 . S
C463 C464 1.524 . S
C463 C467 1.400 . S
C464 H449 0.960 . S
C464 H450 0.960 . S
C464 H451 0.960 . S
C464 C463 1.524 . S
C465 C462 1.403 . S
C465 C466 1.392 . S
C465 C469 1.495 . S
C466 C465 1.392 . S
C466 C467 1.385 . S
C466 C468 1.478 . S
C467 H461 0.930 . S
C467 C463 1.400 . S
C467 C466 1.385 . S
C468 C466 1.478 . S
C468 C470 1.381 . S
C468 C474 1.383 . S
C469 C465 1.495 . S
C469 H475 0.959 . S
C469 H476 0.961 . S
C469 H477 0.960 . S
C470 C468 1.381 . S
C470 C471 1.394 . S
C470 H478 0.930 . S
C471 C470 1.394 . S
C471 C472 1.383 . S
C471 H479 0.929 . S
C472 C471 1.383 . S
C472 C473 1.377 . S
C473 H457 0.930 . S
C473 C472 1.377 . S
C473 C474 1.379 . S
C474 H458 0.931 . S
C474 C468 1.383 . S
C474 C473 1.379 . S
H475 C469 0.959 . S
H476 C469 0.961 . S
H477 C469 0.960 . S
H478 C470 0.930 . S
H479 C471 0.929 . S
H480 C488 0.929 . S
H481 C490 0.930 . S
H482 C492 0.930 . S
H483 C495 0.929 . S
H484 C498 0.930 . S
H485 C500 0.960 . S
H486 C500 0.960 . S
H487 C500 0.960 . S
C488 H480 0.929 . S
C488 C489 1.377 . S
C488 C490 1.384 . S
C489 C488 1.377 . S
C489 C495 1.390 . S
C490 H481 0.930 . S
C490 C488 1.384 . S
C490 C491 1.372 . S
C491 C490 1.372 . S
C491 C492 1.400 . S
C491 C496 1.490 . S
C492 H482 0.930 . S
C492 C491 1.400 . S
C492 C495 1.386 . S
H493 C509 0.930 . S
H494 C510 0.931 . S
C495 H483 0.929 . S
C495 C489 1.390 . S
C495 C492 1.386 . S
C496 C491 1.490 . S
C496 C498 1.395 . S
C496 C499 1.403 . S
H497 C503 0.930 . S
C498 H484 0.930 . S
C498 C496 1.395 . S
C498 C501 1.403 . S
C499 C496 1.403 . S
C499 C500 1.524 . S
C499 C503 1.400 . S
C500 H485 0.960 . S
C500 H486 0.960 . S
C500 H487 0.960 . S
C500 C499 1.524 . S
C501 C498 1.403 . S
C501 C502 1.392 . S
C501 C505 1.495 . S
C502 C501 1.392 . S
C502 C503 1.385 . S
C502 C504 1.478 . S
C503 H497 0.930 . S
C503 C499 1.400 . S
C503 C502 1.385 . S
C504 C502 1.478 . S
C504 C506 1.381 . S
C504 C510 1.383 . S
C505 C501 1.495 . S
C505 H511 0.959 . S
C505 H512 0.961 . S
C505 H513 0.960 . S
C506 C504 1.381 . S
C506 C507 1.394 . S
C506 H514 0.930 . S
C507 C506 1.394 . S
C507 C508 1.383 . S
C507 H515 0.929 . S
C508 C507 1.383 . S
C508 C509 1.377 . S
C509 H493 0.930 . S
C509 C508 1.377 . S
C509 C510 1.379 . S
C510 H494 0.931 . S
C510 C504 1.383 . S
C510 C509 1.379 . S
H511 C505 0.959 . S
H512 C505 0.961 . S
H513 C505 0.960 . S
H514 C506 0.930 . S
H515 C507 0.929 . S
H516 C524 0.929 . S
H517 C526 0.930 . S
H518 C528 0.930 . S
H519 C531 0.929 . S
H520 C534 0.930 . S
H521 C536 0.960 . S
H522 C536 0.960 . S
H523 C536 0.960 . S
C524 H516 0.929 . S
C524 C525 1.377 . S
C524 C526 1.384 . S
C525 C524 1.377 . S
C525 C531 1.390 . S
C526 H517 0.930 . S
C526 C524 1.384 . S
C526 C527 1.372 . S
C527 C526 1.372 . S
C527 C528 1.400 . S
C527 C532 1.490 . S
C528 H518 0.930 . S
C528 C527 1.400 . S
C528 C531 1.386 . S
H529 C545 0.930 . S
H530 C546 0.931 . S
C531 H519 0.929 . S
C531 C525 1.390 . S
C531 C528 1.386 . S
C532 C527 1.490 . S
C532 C534 1.395 . S
C532 C535 1.403 . S
H533 C539 0.930 . S
C534 H520 0.930 . S
C534 C532 1.395 . S
C534 C537 1.403 . S
C535 C532 1.403 . S
C535 C536 1.524 . S
C535 C539 1.400 . S
C536 H521 0.960 . S
C536 H522 0.960 . S
C536 H523 0.960 . S
C536 C535 1.524 . S
C537 C534 1.403 . S
C537 C538 1.392 . S
C537 C541 1.495 . S
C538 C537 1.392 . S
C538 C539 1.385 . S
C538 C540 1.478 . S
C539 H533 0.930 . S
C539 C535 1.400 . S
C539 C538 1.385 . S
C540 C538 1.478 . S
C540 C542 1.381 . S
C540 C546 1.383 . S
C541 C537 1.495 . S
C541 H547 0.959 . S
C541 H548 0.961 . S
C541 H549 0.960 . S
C542 C540 1.381 . S
C542 C543 1.394 . S
C542 H550 0.930 . S
C543 C542 1.394 . S
C543 C544 1.383 . S
C543 H551 0.929 . S
C544 C543 1.383 . S
C544 C545 1.377 . S
C545 H529 0.930 . S
C545 C544 1.377 . S
C545 C546 1.379 . S
C546 H530 0.931 . S
C546 C540 1.383 . S
C546 C545 1.379 . S
H547 C541 0.959 . S
H548 C541 0.961 . S
H549 C541 0.960 . S
H550 C542 0.930 . S
H551 C543 0.929 . S
H552 C560 0.929 . S
H553 C562 0.930 . S
H554 C564 0.930 . S
H555 C567 0.929 . S
H556 C570 0.930 . S
H557 C572 0.960 . S
H558 C572 0.960 . S
H559 C572 0.960 . S
C560 H552 0.929 . S
C560 C561 1.377 . S
C560 C562 1.384 . S
C561 C560 1.377 . S
C561 C567 1.390 . S
C562 H553 0.930 . S
C562 C560 1.384 . S
C562 C563 1.372 . S
C563 C562 1.372 . S
C563 C564 1.400 . S
C563 C568 1.490 . S
C564 H554 0.930 . S
C564 C563 1.400 . S
C564 C567 1.386 . S
H565 C581 0.930 . S
H566 C582 0.931 . S
C567 H555 0.929 . S
C567 C561 1.390 . S
C567 C564 1.386 . S
C568 C563 1.490 . S
C568 C570 1.395 . S
C568 C571 1.403 . S
H569 C575 0.930 . S
C570 H556 0.930 . S
C570 C568 1.395 . S
C570 C573 1.403 . S
C571 C568 1.403 . S
C571 C572 1.524 . S
C571 C575 1.400 . S
C572 H557 0.960 . S
C572 H558 0.960 . S
C572 H559 0.960 . S
C572 C571 1.524 . S
C573 C570 1.403 . S
C573 C574 1.392 . S
C573 C577 1.495 . S
C574 C573 1.392 . S
C574 C575 1.385 . S
C574 C576 1.478 . S
C575 H569 0.930 . S
C575 C571 1.400 . S
C575 C574 1.385 . S
C576 C574 1.478 . S
C576 C578 1.381 . S
C576 C582 1.383 . S
C577 C573 1.495 . S
C577 H583 0.959 . S
C577 H584 0.961 . S
C577 H585 0.960 . S
C578 C576 1.381 . S
C578 C579 1.394 . S
C578 H586 0.930 . S
C579 C578 1.394 . S
C579 C580 1.383 . S
C579 H587 0.929 . S
C580 C579 1.383 . S
C580 C581 1.377 . S
C581 H565 0.930 . S
C581 C580 1.377 . S
C581 C582 1.379 . S
C582 H566 0.931 . S
C582 C576 1.383 . S
C582 C581 1.379 . S
H583 C577 0.959 . S
H584 C577 0.961 . S
H585 C577 0.960 . S
H586 C578 0.930 . S
H587 C579 0.929 . S
H588 C596 0.929 . S
H589 C598 0.930 . S
H590 C600 0.930 . S
H591 C603 0.929 . S
H592 C606 0.930 . S
H593 C608 0.960 . S
H594 C608 0.960 . S
H595 C608 0.960 . S
C596 H588 0.929 . S
C596 C597 1.377 . S
C596 C598 1.384 . S
C597 C596 1.377 . S
C597 C603 1.390 . S
C598 H589 0.930 . S
C598 C596 1.384 . S
C598 C599 1.372 . S
C599 C598 1.372 . S
C599 C600 1.400 . S
C599 C604 1.490 . S
C600 H590 0.930 . S
C600 C599 1.400 . S
C600 C603 1.386 . S
H601 C617 0.930 . S
H602 C618 0.931 . S
C603 H591 0.929 . S
C603 C597 1.390 . S
C603 C600 1.386 . S
C604 C599 1.490 . S
C604 C606 1.395 . S
C604 C607 1.403 . S
H605 C611 0.930 . S
C606 H592 0.930 . S
C606 C604 1.395 . S
C606 C609 1.403 . S
C607 C604 1.403 . S
C607 C608 1.524 . S
C607 C611 1.400 . S
C608 H593 0.960 . S
C608 H594 0.960 . S
C608 H595 0.960 . S
C608 C607 1.524 . S
C609 C606 1.403 . S
C609 C610 1.392 . S
C609 C613 1.495 . S
C610 C609 1.392 . S
C610 C611 1.385 . S
C610 C612 1.478 . S
C611 H605 0.930 . S
C611 C607 1.400 . S
C611 C610 1.385 . S
C612 C610 1.478 . S
C612 C614 1.381 . S
C612 C618 1.383 . S
C613 C609 1.495 . S
C613 H619 0.959 . S
C613 H620 0.961 . S
C613 H621 0.960 . S
C614 C612 1.381 . S
C614 C615 1.394 . S
C614 H622 0.930 . S
C615 C614 1.394 . S
C615 C616 1.383 . S
C615 H623 0.929 . S
C616 C615 1.383 . S
C616 C617 1.377 . S
C617 H601 0.930 . S
C617 C616 1.377 . S
C617 C618 1.379 . S
C618 H602 0.931 . S
C618 C612 1.383 . S
C618 C617 1.379 . S
H619 C613 0.959 . S
H620 C613 0.961 . S
H621 C613 0.960 . S
H622 C614 0.930 . S
H623 C615 0.929 . S
H624 C632 0.929 . S
H625 C634 0.930 . S
H626 C636 0.930 . S
H627 C639 0.929 . S
H628 C642 0.930 . S
H629 C644 0.960 . S
H630 C644 0.960 . S
H631 C644 0.960 . S
C632 H624 0.929 . S
C632 C633 1.377 . S
C632 C634 1.384 . S
C633 C632 1.377 . S
C633 C639 1.390 . S
C634 H625 0.930 . S
C634 C632 1.384 . S
C634 C635 1.372 . S
C635 C634 1.372 . S
C635 C636 1.400 . S
C635 C640 1.490 . S
C636 H626 0.930 . S
C636 C635 1.400 . S
C636 C639 1.386 . S
H637 C653 0.930 . S
H638 C654 0.931 . S
C639 H627 0.929 . S
C639 C633 1.390 . S
C639 C636 1.386 . S
C640 C635 1.490 . S
C640 C642 1.395 . S
C640 C643 1.403 . S
H641 C647 0.930 . S
C642 H628 0.930 . S
C642 C640 1.395 . S
C642 C645 1.403 . S
C643 C640 1.403 . S
C643 C644 1.524 . S
C643 C647 1.400 . S
C644 H629 0.960 . S
C644 H630 0.960 . S
C644 H631 0.960 . S
C644 C643 1.524 . S
C645 C642 1.403 . S
C645 C646 1.392 . S
C645 C649 1.495 . S
C646 C645 1.392 . S
C646 C647 1.385 . S
C646 C648 1.478 . S
C647 H641 0.930 . S
C647 C643 1.400 . S
C647 C646 1.385 . S
C648 C646 1.478 . S
C648 C650 1.381 . S
C648 C654 1.383 . S
C649 C645 1.495 . S
C649 H655 0.959 . S
C649 H656 0.961 . S
C649 H657 0.960 . S
C650 C648 1.381 . S
C650 C651 1.394 . S
C650 H658 0.930 . S
C651 C650 1.394 . S
C651 C652 1.383 . S
C651 H659 0.929 . S
C652 C651 1.383 . S
C652 C653 1.377 . S
C653 H637 0.930 . S
C653 C652 1.377 . S
C653 C654 1.379 . S
C654 H638 0.931 . S
C654 C648 1.383 . S
C654 C653 1.379 . S
H655 C649 0.959 . S
H656 C649 0.961 . S
H657 C649 0.960 . S
H658 C650 0.930 . S
H659 C651 0.929 . S
H660 C668 0.929 . S
H661 C670 0.930 . S
H662 C672 0.930 . S
H663 C675 0.929 . S
H664 C678 0.930 . S
H665 C680 0.960 . S
H666 C680 0.960 . S
H667 C680 0.960 . S
C668 H660 0.929 . S
C668 C669 1.377 . S
C668 C670 1.384 . S
C669 C668 1.377 . S
C669 C675 1.390 . S
C670 H661 0.930 . S
C670 C668 1.384 . S
C670 C671 1.372 . S
C671 C670 1.372 . S
C671 C672 1.400 . S
C671 C676 1.490 . S
C672 H662 0.930 . S
C672 C671 1.400 . S
C672 C675 1.386 . S
H673 C689 0.930 . S
H674 C690 0.931 . S
C675 H663 0.929 . S
C675 C669 1.390 . S
C675 C672 1.386 . S
C676 C671 1.490 . S
C676 C678 1.395 . S
C676 C679 1.403 . S
H677 C683 0.930 . S
C678 H664 0.930 . S
C678 C676 1.395 . S
C678 C681 1.403 . S
C679 C676 1.403 . S
C679 C680 1.524 . S
C679 C683 1.400 . S
C680 H665 0.960 . S
C680 H666 0.960 . S
C680 H667 0.960 . S
C680 C679 1.524 . S
C681 C678 1.403 . S
C681 C682 1.392 . S
C681 C685 1.495 . S
C682 C681 1.392 . S
C682 C683 1.385 . S
C682 C684 1.478 . S
C683 H677 0.930 . S
C683 C679 1.400 . S
C683 C682 1.385 . S
C684 C682 1.478 . S
C684 C686 1.381 . S
C684 C690 1.383 . S
C685 C681 1.495 . S
C685 H691 0.959 . S
C685 H692 0.961 . S
C685 H693 0.960 . S
C686 C684 1.381 . S
C686 C687 1.394 . S
C686 H694 0.930 . S
C687 C686 1.394 . S
C687 C688 1.383 . S
C687 H695 0.929 . S
C688 C687 1.383 . S
C688 C689 1.377 . S
C689 H673 0.930 . S
C689 C688 1.377 . S
C689 C690 1.379 . S
C690 H674 0.931 . S
C690 C684 1.383 . S
C690 C689 1.379 . S
H691 C685 0.959 . S
H692 C685 0.961 . S
H693 C685 0.960 . S
H694 C686 0.930 . S
H695 C687 0.929 . S
H696 C704 0.929 . S
H697 C706 0.930 . S
H698 C708 0.930 . S
H699 C711 0.929 . S
H700 C714 0.930 . S
H701 C716 0.960 . S
H702 C716 0.960 . S
H703 C716 0.960 . S
C704 H696 0.929 . S
C704 C705 1.377 . S
C704 C706 1.384 . S
C705 C704 1.377 . S
C705 C711 1.390 . S
C706 H697 0.930 . S
C706 C704 1.384 . S
C706 C707 1.372 . S
C707 C706 1.372 . S
C707 C708 1.400 . S
C707 C712 1.490 . S
C708 H698 0.930 . S
C708 C707 1.400 . S
C708 C711 1.386 . S
H709 C725 0.930 . S
H710 C726 0.931 . S
C711 H699 0.929 . S
C711 C705 1.390 . S
C711 C708 1.386 . S
C712 C707 1.490 . S
C712 C714 1.395 . S
C712 C715 1.403 . S
H713 C719 0.930 . S
C714 H700 0.930 . S
C714 C712 1.395 . S
C714 C717 1.403 . S
C715 C712 1.403 . S
C715 C716 1.524 . S
C715 C719 1.400 . S
C716 H701 0.960 . S
C716 H702 0.960 . S
C716 H703 0.960 . S
C716 C715 1.524 . S
C717 C714 1.403 . S
C717 C718 1.392 . S
C717 C721 1.495 . S
C718 C717 1.392 . S
C718 C719 1.385 . S
C718 C720 1.478 . S
C719 H713 0.930 . S
C719 C715 1.400 . S
C719 C718 1.385 . S
C720 C718 1.478 . S
C720 C722 1.381 . S
C720 C726 1.383 . S
C721 C717 1.495 . S
C721 H727 0.959 . S
C721 H728 0.961 . S
C721 H729 0.960 . S
C722 C720 1.381 . S
C722 C723 1.394 . S
C722 H730 0.930 . S
C723 C722 1.394 . S
C723 C724 1.383 . S
C723 H731 0.929 . S
C724 C723 1.383 . S
C724 C725 1.377 . S
C725 H709 0.930 . S
C725 C724 1.377 . S
C725 C726 1.379 . S
C726 H710 0.931 . S
C726 C720 1.383 . S
C726 C725 1.379 . S
H727 C721 0.959 . S
H728 C721 0.961 . S
H729 C721 0.960 . S
H730 C722 0.930 . S
H731 C723 0.929 . S
H732 C740 0.929 . S
H733 C742 0.930 . S
H734 C744 0.930 . S
H735 C747 0.929 . S
H736 C750 0.930 . S
H737 C752 0.995 . S
H738 C752 0.960 . S
H739 C752 0.960 . S
C740 H732 0.929 . S
C740 C741 1.377 . S
C740 C742 1.384 . S
C741 C740 1.377 . S
C741 C747 1.390 . S
C742 H733 0.930 . S
C742 C740 1.384 . S
C742 C743 1.372 . S
C743 C742 1.372 . S
C743 C744 1.400 . S
C743 C748 1.490 . S
C744 H734 0.930 . S
C744 C743 1.400 . S
C744 C747 1.386 . S
H745 C761 0.930 . S
H746 C762 0.931 . S
C747 H735 0.929 . S
C747 C741 1.390 . S
C747 C744 1.386 . S
C748 C743 1.490 . S
C748 C750 1.395 . S
C748 C751 1.403 . S
H749 C755 0.930 . S
C750 H736 0.930 . S
C750 C748 1.395 . S
C750 C753 1.403 1_554 S
C751 C748 1.403 . S
C751 C752 1.524 . S
C751 C755 1.400 1_554 S
C752 H737 0.995 . S
C752 H738 0.960 . S
C752 H739 0.960 . S
C752 C751 1.524 . S
C753 C750 1.403 1_556 S
C753 C754 1.392 . S
C753 C757 1.495 . S
C754 C753 1.392 . S
C754 C755 1.385 . S
C754 C756 1.478 . S
C755 H749 0.930 . S
C755 C751 1.400 1_556 S
C755 C754 1.385 . S
C756 C754 1.478 . S
C756 C758 1.381 . S
C756 C762 1.383 . S
C757 C753 1.495 . S
C757 H763 0.933 1_556 S
C757 H764 0.961 . S
C757 H765 0.960 . S
C758 C756 1.381 . S
C758 C759 1.394 . S
C758 H766 0.930 . S
C759 C758 1.394 . S
C759 C760 1.383 . S
C759 H767 0.929 . S
C760 C759 1.383 . S
C760 C761 1.377 . S
C761 H745 0.930 . S
C761 C760 1.377 . S
C761 C762 1.379 . S
C762 H746 0.931 . S
C762 C756 1.383 . S
C762 C761 1.379 . S
H763 C757 0.933 1_554 S
H764 C757 0.961 . S
H765 C757 0.960 . S
H766 C758 0.930 . S
H767 C759 0.929 . S
H768 C776 0.929 . S
H769 C778 0.930 . S
H770 C780 0.930 . S
H771 C783 0.929 . S
H772 C786 0.930 . S
H773 C788 0.960 . S
H774 C788 0.960 . S
H775 C788 0.960 . S
C776 H768 0.929 . S
C776 C777 1.377 . S
C776 C778 1.384 . S
C777 C776 1.377 . S
C777 C783 1.390 . S
C778 H769 0.930 . S
C778 C776 1.384 . S
C778 C779 1.372 . S
C779 C778 1.372 . S
C779 C780 1.400 . S
C779 C784 1.490 . S
C780 H770 0.930 . S
C780 C779 1.400 . S
C780 C783 1.386 . S
H781 C797 0.930 . S
H782 C798 0.931 . S
C783 H771 0.929 . S
C783 C777 1.390 . S
C783 C780 1.386 . S
C784 C779 1.490 . S
C784 C786 1.395 . S
C784 C787 1.403 . S
H785 C791 0.930 . S
C786 H772 0.930 . S
C786 C784 1.395 . S
C786 C789 1.403 . S
C787 C784 1.403 . S
C787 C788 1.524 . S
C787 C791 1.400 . S
C788 H773 0.960 . S
C788 H774 0.960 . S
C788 H775 0.960 . S
C788 C787 1.524 . S
C789 C786 1.403 . S
C789 C790 1.392 . S
C789 C793 1.495 . S
C790 C789 1.392 . S
C790 C791 1.385 . S
C790 C792 1.478 . S
C791 H785 0.930 . S
C791 C787 1.400 . S
C791 C790 1.385 . S
C792 C790 1.478 . S
C792 C794 1.381 . S
C792 C798 1.383 . S
C793 C789 1.495 . S
C793 H799 0.959 . S
C793 H800 0.961 . S
C793 H801 0.960 . S
C794 C792 1.381 . S
C794 C795 1.394 . S
C794 H802 0.930 . S
C795 C794 1.394 . S
C795 C796 1.383 . S
C795 H803 0.929 . S
C796 C795 1.383 . S
C796 C797 1.377 . S
C797 H781 0.930 . S
C797 C796 1.377 . S
C797 C798 1.379 . S
C798 H782 0.931 . S
C798 C792 1.383 . S
C798 C797 1.379 . S
H799 C793 0.959 . S
H800 C793 0.961 . S
H801 C793 0.960 . S
H802 C794 0.930 . S
H803 C795 0.929 . S
H804 C812 0.929 . S
H805 C814 0.930 . S
H806 C816 0.930 . S
H807 C819 0.929 . S
H808 C822 0.930 . S
H809 C824 0.960 1_556 S
H810 C824 0.960 . S
H811 C824 0.960 . S
C812 H804 0.929 . S
C812 C813 1.377 . S
C812 C814 1.384 . S
C813 C812 1.377 . S
C813 C819 1.390 . S
C814 H805 0.930 . S
C814 C812 1.384 . S
C814 C815 1.372 . S
C815 C814 1.372 . S
C815 C816 1.400 . S
C815 C820 1.490 . S
C816 H806 0.930 . S
C816 C815 1.400 . S
C816 C819 1.386 . S
H817 C833 0.930 . S
H818 C834 0.931 . S
C819 H807 0.929 . S
C819 C813 1.390 . S
C819 C816 1.386 . S
C820 C815 1.490 . S
C820 C822 1.395 . S
C820 C823 1.403 . S
H821 C827 0.930 . S
C822 H808 0.930 . S
C822 C820 1.395 . S
C822 C825 1.403 1_554 S
C823 C820 1.403 . S
C823 C824 1.524 . S
C823 C827 1.400 1_554 S
C824 H809 0.960 1_554 S
C824 H810 0.960 . S
C824 H811 0.960 . S
C824 C823 1.524 . S
C825 C822 1.403 1_556 S
C825 C826 1.392 . S
C825 C829 1.495 . S
C826 C825 1.392 . S
C826 C827 1.385 . S
C826 C828 1.478 . S
C827 H821 0.930 . S
C827 C823 1.400 1_556 S
C827 C826 1.385 . S
C828 C826 1.478 . S
C828 C830 1.381 . S
C828 C834 1.383 . S
C829 C825 1.495 . S
C829 H835 0.959 1_556 S
C829 H836 0.961 . S
C829 H837 0.960 . S
C830 C828 1.381 . S
C830 C831 1.394 . S
C830 H838 0.930 . S
C831 C830 1.394 . S
C831 C832 1.383 . S
C831 H839 0.929 . S
C832 C831 1.383 . S
C832 C833 1.377 . S
C833 H817 0.930 . S
C833 C832 1.377 . S
C833 C834 1.379 . S
C834 H818 0.931 . S
C834 C828 1.383 . S
C834 C833 1.379 . S
H835 C829 0.959 1_554 S
H836 C829 0.961 . S
H837 C829 0.960 . S
H838 C830 0.930 . S
H839 C831 0.929 . S
H840 C848 0.929 . S
H841 C850 0.930 . S
H842 C852 0.930 . S
H843 C855 0.929 . S
H844 C858 0.930 . S
H845 C860 0.972 . S
H846 C860 0.954 1_565 S
H847 C860 0.954 1_565 S
C848 H840 0.929 . S
C848 C849 1.377 . S
C848 C850 1.384 . S
C849 C848 1.377 . S
C849 C855 1.390 . S
C850 H841 0.930 . S
C850 C848 1.384 . S
C850 C851 1.372 . S
C851 C850 1.372 . S
C851 C852 1.400 . S
C851 C856 1.490 . S
C852 H842 0.930 . S
C852 C851 1.400 . S
C852 C855 1.386 . S
H853 C869 0.930 . S
H854 C870 0.931 . S
C855 H843 0.929 . S
C855 C849 1.390 . S
C855 C852 1.386 . S
C856 C851 1.490 . S
C856 C858 1.395 1_655 S
C856 C859 1.403 . S
H857 C863 0.930 . S
C858 H844 0.930 . S
C858 C856 1.395 1_455 S
C858 C861 1.403 . S
C859 C856 1.403 . S
C859 C860 1.523 1_565 S
C859 C863 1.400 1_565 S
C860 H845 0.972 . S
C860 H846 0.954 1_545 S
C860 H847 0.954 1_545 S
C860 C859 1.523 1_545 S
C861 C858 1.403 . S
C861 C862 1.392 1_565 S
C861 C865 1.495 . S
C862 C861 1.392 1_545 S
C862 C863 1.385 1_455 S
C862 C864 1.478 . S
C863 H857 0.930 . S
C863 C859 1.400 1_545 S
C863 C862 1.385 1_655 S
C864 C862 1.478 . S
C864 C866 1.381 . S
C864 C870 1.383 . S
C865 C861 1.495 . S
C865 H871 0.959 . S
C865 H872 0.961 1_565 S
C865 H873 0.960 1_565 S
C866 C864 1.381 . S
C866 C867 1.394 . S
C866 H874 0.930 . S
C867 C866 1.394 . S
C867 C868 1.383 . S
C867 H875 0.929 . S
C868 C867 1.383 . S
C868 C869 1.377 . S
C869 H853 0.930 . S
C869 C868 1.377 . S
C869 C870 1.379 . S
C870 H854 0.931 . S
C870 C864 1.383 . S
C870 C869 1.379 . S
H871 C865 0.959 . S
H872 C865 0.961 1_545 S
H873 C865 0.960 1_545 S
H874 C866 0.930 . S
H875 C867 0.929 . S
H876 C884 0.929 . S
H877 C886 0.930 . S
H878 C888 0.930 . S
H879 C891 0.929 . S
H880 C894 0.930 . S
H881 C896 0.960 . S
H882 C896 0.960 . S
H883 C896 0.960 . S
C884 H876 0.929 . S
C884 C885 1.377 . S
C884 C886 1.384 . S
C885 C884 1.377 . S
C885 C891 1.390 . S
C886 H877 0.930 . S
C886 C884 1.384 . S
C886 C887 1.372 . S
C887 C886 1.372 . S
C887 C888 1.400 . S
C887 C892 1.490 . S
C888 H878 0.930 . S
C888 C887 1.400 . S
C888 C891 1.386 . S
H889 C905 0.930 . S
H890 C906 0.931 . S
C891 H879 0.929 . S
C891 C885 1.390 . S
C891 C888 1.386 . S
C892 C887 1.490 . S
C892 C894 1.395 . S
C892 C895 1.403 . S
H893 C899 0.930 . S
C894 H880 0.930 . S
C894 C892 1.395 . S
C894 C897 1.403 . S
C895 C892 1.403 . S
C895 C896 1.524 . S
C895 C899 1.400 . S
C896 H881 0.960 . S
C896 H882 0.960 . S
C896 H883 0.960 . S
C896 C895 1.524 . S
C897 C894 1.403 . S
C897 C898 1.392 . S
C897 C901 1.495 . S
C898 C897 1.392 . S
C898 C899 1.385 . S
C898 C900 1.478 . S
C899 H893 0.930 . S
C899 C895 1.400 . S
C899 C898 1.385 . S
C900 C898 1.478 . S
C900 C902 1.381 . S
C900 C906 1.383 . S
C901 C897 1.495 . S
C901 H907 0.959 . S
C901 H908 0.961 . S
C901 H909 0.960 . S
C902 C900 1.381 . S
C902 C903 1.394 . S
C902 H910 0.930 . S
C903 C902 1.394 . S
C903 C904 1.383 . S
C903 H911 0.929 . S
C904 C903 1.383 . S
C904 C905 1.377 . S
C905 H889 0.930 . S
C905 C904 1.377 . S
C905 C906 1.379 . S
C906 H890 0.931 . S
C906 C900 1.383 . S
C906 C905 1.379 . S
H907 C901 0.959 . S
H908 C901 0.961 . S
H909 C901 0.960 . S
H910 C902 0.930 . S
H911 C903 0.929 . S
H912 C920 0.929 . S
H913 C922 0.930 . S
H914 C924 0.930 . S
H915 C927 0.929 . S
H916 C930 0.930 . S
H917 C932 0.960 . S
H918 C932 0.960 . S
H919 C932 0.960 . S
C920 H912 0.929 . S
C920 C921 1.377 . S
C920 C922 1.384 . S
C921 C920 1.377 . S
C921 C927 1.390 . S
C922 H913 0.930 . S
C922 C920 1.384 . S
C922 C923 1.372 . S
C923 C922 1.372 . S
C923 C924 1.400 . S
C923 C928 1.490 . S
C924 H914 0.930 . S
C924 C923 1.400 . S
C924 C927 1.386 . S
H925 C941 0.930 . S
H926 C942 0.931 . S
C927 H915 0.929 . S
C927 C921 1.390 . S
C927 C924 1.386 . S
C928 C923 1.490 . S
C928 C930 1.395 . S
C928 C931 1.403 . S
H929 C935 0.930 . S
C930 H916 0.930 . S
C930 C928 1.395 . S
C930 C933 1.403 . S
C931 C928 1.403 . S
C931 C932 1.524 . S
C931 C935 1.400 . S
C932 H917 0.960 . S
C932 H918 0.960 . S
C932 H919 0.960 . S
C932 C931 1.524 . S
C933 C930 1.403 . S
C933 C934 1.392 . S
C933 C937 1.495 . S
C934 C933 1.392 . S
C934 C935 1.385 . S
C934 C936 1.478 . S
C935 H929 0.930 . S
C935 C931 1.400 . S
C935 C934 1.385 . S
C936 C934 1.478 . S
C936 C938 1.381 . S
C936 C942 1.383 . S
C937 C933 1.495 . S
C937 H943 0.959 . S
C937 H944 0.961 . S
C937 H945 0.960 . S
C938 C936 1.381 . S
C938 C939 1.394 . S
C938 H946 0.930 . S
C939 C938 1.394 . S
C939 C940 1.383 . S
C939 H947 0.929 . S
C940 C939 1.383 . S
C940 C941 1.377 . S
C941 H925 0.930 . S
C941 C940 1.377 . S
C941 C942 1.379 . S
C942 H926 0.931 . S
C942 C936 1.383 . S
C942 C941 1.379 . S
H943 C937 0.959 . S
H944 C937 0.961 . S
H945 C937 0.960 . S
H946 C938 0.930 . S
H947 C939 0.929 . S
H948 C956 0.929 . S
H949 C958 0.930 . S
H950 C960 0.930 . S
H951 C963 0.929 . S
H952 C966 0.930 . S
H953 C968 0.972 . S
H954 C968 0.954 1_455 S
H955 C968 0.955 1_455 S
C956 H948 0.929 . S
C956 C957 1.377 . S
C956 C958 1.384 . S
C957 C956 1.377 . S
C957 C963 1.390 . S
C958 H949 0.930 . S
C958 C956 1.384 . S
C958 C959 1.372 . S
C959 C958 1.372 . S
C959 C960 1.400 . S
C959 C964 1.490 . S
C960 H950 0.930 . S
C960 C959 1.400 . S
C960 C963 1.386 . S
H961 C977 0.930 . S
H962 C978 0.931 . S
C963 H951 0.929 . S
C963 C957 1.390 . S
C963 C960 1.386 . S
C964 C959 1.490 . S
C964 C966 1.395 1_545 S
C964 C967 1.403 . S
H965 C971 0.930 . S
C966 H952 0.930 . S
C966 C964 1.395 1_565 S
C966 C969 1.403 . S
C967 C964 1.403 . S
C967 C968 1.523 1_455 S
C967 C971 1.400 1_455 S
C968 H953 0.972 . S
C968 H954 0.954 1_655 S
C968 H955 0.955 1_655 S
C968 C967 1.523 1_655 S
C969 C966 1.403 . S
C969 C970 1.392 1_455 S
C969 C973 1.495 . S
C970 C969 1.392 1_655 S
C970 C971 1.385 1_565 S
C970 C972 1.478 . S
C971 H965 0.930 . S
C971 C967 1.400 1_655 S
C971 C970 1.385 1_545 S
C972 C970 1.478 . S
C972 C974 1.381 . S
C972 C978 1.383 . S
C973 C969 1.495 . S
C973 H979 0.959 . S
C973 H980 0.961 1_455 S
C973 H981 0.960 1_455 S
C974 C972 1.381 . S
C974 C975 1.394 . S
C974 H982 0.930 . S
C975 C974 1.394 . S
C975 C976 1.383 . S
C975 H983 0.929 . S
C976 C975 1.383 . S
C976 C977 1.377 . S
C977 H961 0.930 . S
C977 C976 1.377 . S
C977 C978 1.379 . S
C978 H962 0.931 . S
C978 C972 1.383 . S
C978 C977 1.379 . S
H979 C973 0.959 . S
H980 C973 0.961 1_655 S
H981 C973 0.960 1_655 S
H982 C974 0.930 . S
H983 C975 0.929 . S
C273 N79 1.051 . S
C292 N13 1.066 . S
C309 N112 1.053 . S
C328 N46 1.049 . S
C345 N211 1.054 . S
C364 N145 1.046 . S
C381 N244 1.052 . S
C400 N178 1.056 . S
C417 C150 1.975 . S
C436 C21 1.973 . S
C453 C183 1.975 . S
C472 C54 1.969 . S
C489 C216 1.975 . S
C508 C87 1.964 . S
C525 C120 1.972 . S
C544 C249 1.971 . S
C561 C18 1.975 . S
C580 C153 1.970 . S
C597 C51 1.974 . S
C616 C186 1.973 . S
C633 C84 1.975 . S
C652 C219 1.973 . S
C669 C252 1.973 . S
C688 C117 1.968 . S
C705 C7 1.742 . S
C724 C172 1.718 . S
C741 C205 1.738 . S
C760 C40 1.743 . S
C777 C238 1.746 . S
C796 C73 1.759 . S
C813 C139 1.747 . S
C832 C106 1.748 . S
C849 N68 0.653 . S
C868 N2 0.724 . S
C885 N35 0.626 . S
C904 N101 0.603 . S
C921 N200 0.624 . S
C940 N134 0.560 . S
C957 N167 0.653 . S
C976 N233 0.724 . S
