# Generated by pormake.
# Topology swa, (7)-cn, num edge types: 1
# Building blocks:
#     Node 0, Type 0, BuildingBlock: NUHQUE_clean_sbu_2, # of connection points: 7
#     Node 1, Type 0, BuildingBlock: NUHQUE_clean_sbu_2, # of connection points: 7
#     Node 2, Type 0, BuildingBlock: NUHQUE_clean_sbu_2, # of connection points: 7
#     Node 3, Type 0, BuildingBlock: NUHQUE_clean_sbu_2, # of connection points: 7
#     Node 4, Type 0, BuildingBlock: NUHQUE_clean_sbu_2, # of connection points: 7
#     Node 5, Type 0, BuildingBlock: NUHQUE_clean_sbu_2, # of connection points: 7
#     Node 6, Type 0, BuildingBlock: NUHQUE_clean_sbu_2, # of connection points: 7
#     Node 7, Type 0, BuildingBlock: NUHQUE_clean_sbu_2, # of connection points: 7
#     Node 8, Type 0, BuildingBlock: NUHQUE_clean_sbu_2, # of connection points: 7
#     Node 9, Type 0, BuildingBlock: NUHQUE_clean_sbu_2, # of connection points: 7
#     Node 10, Type 0, BuildingBlock: NUHQUE_clean_sbu_2, # of connection points: 7
#     Node 11, Type 0, BuildingBlock: NUHQUE_clean_sbu_2, # of connection points: 7
#     Node 12, Type 0, BuildingBlock: NUHQUE_clean_sbu_2, # of connection points: 7
#     Node 13, Type 0, BuildingBlock: NUHQUE_clean_sbu_2, # of connection points: 7
#     Node 14, Type 0, BuildingBlock: NUHQUE_clean_sbu_2, # of connection points: 7
#     Node 15, Type 0, BuildingBlock: NUHQUE_clean_sbu_2, # of connection points: 7
#     Node 16, Type 0, BuildingBlock: NUHQUE_clean_sbu_2, # of connection points: 7
#     Node 17, Type 0, BuildingBlock: NUHQUE_clean_sbu_2, # of connection points: 7
#     Node 18, Type 0, BuildingBlock: NUHQUE_clean_sbu_2, # of connection points: 7
#     Node 19, Type 0, BuildingBlock: NUHQUE_clean_sbu_2, # of connection points: 7
#     Node 20, Type 0, BuildingBlock: NUHQUE_clean_sbu_2, # of connection points: 7
#     Node 21, Type 0, BuildingBlock: NUHQUE_clean_sbu_2, # of connection points: 7
#     Node 22, Type 0, BuildingBlock: NUHQUE_clean_sbu_2, # of connection points: 7
#     Node 23, Type 0, BuildingBlock: NUHQUE_clean_sbu_2, # of connection points: 7
#     Node 24, Type 0, BuildingBlock: NUHQUE_clean_sbu_2, # of connection points: 7
#     Node 25, Type 0, BuildingBlock: NUHQUE_clean_sbu_2, # of connection points: 7
#     Node 26, Type 0, BuildingBlock: NUHQUE_clean_sbu_2, # of connection points: 7
#     Node 27, Type 0, BuildingBlock: NUHQUE_clean_sbu_2, # of connection points: 7
#     Node 28, Type 0, BuildingBlock: NUHQUE_clean_sbu_2, # of connection points: 7
#     Node 29, Type 0, BuildingBlock: NUHQUE_clean_sbu_2, # of connection points: 7
#     Node 30, Type 0, BuildingBlock: NUHQUE_clean_sbu_2, # of connection points: 7
#     Node 31, Type 0, BuildingBlock: NUHQUE_clean_sbu_2, # of connection points: 7
#     Node 32, Type 0, BuildingBlock: NUHQUE_clean_sbu_2, # of connection points: 7
#     Node 33, Type 0, BuildingBlock: NUHQUE_clean_sbu_2, # of connection points: 7
#     Node 34, Type 0, BuildingBlock: NUHQUE_clean_sbu_2, # of connection points: 7
#     Node 35, Type 0, BuildingBlock: NUHQUE_clean_sbu_2, # of connection points: 7
#     Node 36, Type 0, BuildingBlock: NUHQUE_clean_sbu_2, # of connection points: 7
#     Node 37, Type 0, BuildingBlock: NUHQUE_clean_sbu_2, # of connection points: 7
#     Node 38, Type 0, BuildingBlock: NUHQUE_clean_sbu_2, # of connection points: 7
#     Node 39, Type 0, BuildingBlock: NUHQUE_clean_sbu_2, # of connection points: 7
#     Node 40, Type 0, BuildingBlock: NUHQUE_clean_sbu_2, # of connection points: 7
#     Node 41, Type 0, BuildingBlock: NUHQUE_clean_sbu_2, # of connection points: 7
#     Node 42, Type 0, BuildingBlock: NUHQUE_clean_sbu_2, # of connection points: 7
#     Node 43, Type 0, BuildingBlock: NUHQUE_clean_sbu_2, # of connection points: 7
#     Node 44, Type 0, BuildingBlock: NUHQUE_clean_sbu_2, # of connection points: 7
#     Node 45, Type 0, BuildingBlock: NUHQUE_clean_sbu_2, # of connection points: 7
#     Node 46, Type 0, BuildingBlock: NUHQUE_clean_sbu_2, # of connection points: 7
#     Node 47, Type 0, BuildingBlock: NUHQUE_clean_sbu_2, # of connection points: 7
#     Edge 48, Type (0, 0), BuildingBlock: CIFDUS_clean_linker_0, # of connection points: 2
#     Edge 49, Type (0, 0), BuildingBlock: CIFDUS_clean_linker_0, # of connection points: 2
#     Edge 50, Type (0, 0), BuildingBlock: CIFDUS_clean_linker_0, # of connection points: 2
#     Edge 51, Type (0, 0), BuildingBlock: CIFDUS_clean_linker_0, # of connection points: 2
#     Edge 52, Type (0, 0), BuildingBlock: CIFDUS_clean_linker_0, # of connection points: 2
#     Edge 53, Type (0, 0), BuildingBlock: CIFDUS_clean_linker_0, # of connection points: 2
#     Edge 54, Type (0, 0), BuildingBlock: CIFDUS_clean_linker_0, # of connection points: 2
#     Edge 55, Type (0, 0), BuildingBlock: CIFDUS_clean_linker_0, # of connection points: 2
#     Edge 56, Type (0, 0), BuildingBlock: CIFDUS_clean_linker_0, # of connection points: 2
#     Edge 57, Type (0, 0), BuildingBlock: CIFDUS_clean_linker_0, # of connection points: 2
#     Edge 58, Type (0, 0), BuildingBlock: CIFDUS_clean_linker_0, # of connection points: 2
#     Edge 59, Type (0, 0), BuildingBlock: CIFDUS_clean_linker_0, # of connection points: 2
#     Edge 60, Type (0, 0), BuildingBlock: CIFDUS_clean_linker_0, # of connection points: 2
#     Edge 61, Type (0, 0), BuildingBlock: CIFDUS_clean_linker_0, # of connection points: 2
#     Edge 62, Type (0, 0), BuildingBlock: CIFDUS_clean_linker_0, # of connection points: 2
#     Edge 63, Type (0, 0), BuildingBlock: CIFDUS_clean_linker_0, # of connection points: 2
#     Edge 64, Type (0, 0), BuildingBlock: CIFDUS_clean_linker_0, # of connection points: 2
#     Edge 65, Type (0, 0), BuildingBlock: CIFDUS_clean_linker_0, # of connection points: 2
#     Edge 66, Type (0, 0), BuildingBlock: CIFDUS_clean_linker_0, # of connection points: 2
#     Edge 67, Type (0, 0), BuildingBlock: CIFDUS_clean_linker_0, # of connection points: 2
#     Edge 68, Type (0, 0), BuildingBlock: CIFDUS_clean_linker_0, # of connection points: 2
#     Edge 69, Type (0, 0), BuildingBlock: CIFDUS_clean_linker_0, # of connection points: 2
#     Edge 70, Type (0, 0), BuildingBlock: CIFDUS_clean_linker_0, # of connection points: 2
#     Edge 71, Type (0, 0), BuildingBlock: CIFDUS_clean_linker_0, # of connection points: 2
#     Edge 72, Type (0, 0), BuildingBlock: CIFDUS_clean_linker_0, # of connection points: 2
#     Edge 73, Type (0, 0), BuildingBlock: CIFDUS_clean_linker_0, # of connection points: 2
#     Edge 74, Type (0, 0), BuildingBlock: CIFDUS_clean_linker_0, # of connection points: 2
#     Edge 75, Type (0, 0), BuildingBlock: CIFDUS_clean_linker_0, # of connection points: 2
#     Edge 76, Type (0, 0), BuildingBlock: CIFDUS_clean_linker_0, # of connection points: 2
#     Edge 77, Type (0, 0), BuildingBlock: CIFDUS_clean_linker_0, # of connection points: 2
#     Edge 78, Type (0, 0), BuildingBlock: CIFDUS_clean_linker_0, # of connection points: 2
#     Edge 79, Type (0, 0), BuildingBlock: CIFDUS_clean_linker_0, # of connection points: 2
#     Edge 80, Type (0, 0), BuildingBlock: CIFDUS_clean_linker_0, # of connection points: 2
#     Edge 81, Type (0, 0), BuildingBlock: CIFDUS_clean_linker_0, # of connection points: 2
#     Edge 82, Type (0, 0), BuildingBlock: CIFDUS_clean_linker_0, # of connection points: 2
#     Edge 83, Type (0, 0), BuildingBlock: CIFDUS_clean_linker_0, # of connection points: 2
#     Edge 84, Type (0, 0), BuildingBlock: CIFDUS_clean_linker_0, # of connection points: 2
#     Edge 85, Type (0, 0), BuildingBlock: CIFDUS_clean_linker_0, # of connection points: 2
#     Edge 86, Type (0, 0), BuildingBlock: CIFDUS_clean_linker_0, # of connection points: 2
#     Edge 87, Type (0, 0), BuildingBlock: CIFDUS_clean_linker_0, # of connection points: 2
#     Edge 88, Type (0, 0), BuildingBlock: CIFDUS_clean_linker_0, # of connection points: 2
#     Edge 89, Type (0, 0), BuildingBlock: CIFDUS_clean_linker_0, # of connection points: 2
#     Edge 90, Type (0, 0), BuildingBlock: CIFDUS_clean_linker_0, # of connection points: 2
#     Edge 91, Type (0, 0), BuildingBlock: CIFDUS_clean_linker_0, # of connection points: 2
#     Edge 92, Type (0, 0), BuildingBlock: CIFDUS_clean_linker_0, # of connection points: 2
#     Edge 93, Type (0, 0), BuildingBlock: CIFDUS_clean_linker_0, # of connection points: 2
#     Edge 94, Type (0, 0), BuildingBlock: CIFDUS_clean_linker_0, # of connection points: 2
#     Edge 95, Type (0, 0), BuildingBlock: CIFDUS_clean_linker_0, # of connection points: 2
#     Edge 96, Type (0, 0), BuildingBlock: CIFDUS_clean_linker_0, # of connection points: 2
#     Edge 97, Type (0, 0), BuildingBlock: CIFDUS_clean_linker_0, # of connection points: 2
#     Edge 98, Type (0, 0), BuildingBlock: CIFDUS_clean_linker_0, # of connection points: 2
#     Edge 99, Type (0, 0), BuildingBlock: CIFDUS_clean_linker_0, # of connection points: 2
#     Edge 100, Type (0, 0), BuildingBlock: CIFDUS_clean_linker_0, # of connection points: 2
#     Edge 101, Type (0, 0), BuildingBlock: CIFDUS_clean_linker_0, # of connection points: 2
#     Edge 102, Type (0, 0), BuildingBlock: CIFDUS_clean_linker_0, # of connection points: 2
#     Edge 103, Type (0, 0), BuildingBlock: CIFDUS_clean_linker_0, # of connection points: 2
#     Edge 104, Type (0, 0), BuildingBlock: CIFDUS_clean_linker_0, # of connection points: 2
#     Edge 105, Type (0, 0), BuildingBlock: CIFDUS_clean_linker_0, # of connection points: 2
#     Edge 106, Type (0, 0), BuildingBlock: CIFDUS_clean_linker_0, # of connection points: 2
#     Edge 107, Type (0, 0), BuildingBlock: CIFDUS_clean_linker_0, # of connection points: 2
#     Edge 108, Type (0, 0), BuildingBlock: CIFDUS_clean_linker_0, # of connection points: 2
#     Edge 109, Type (0, 0), BuildingBlock: CIFDUS_clean_linker_0, # of connection points: 2
#     Edge 110, Type (0, 0), BuildingBlock: CIFDUS_clean_linker_0, # of connection points: 2
#     Edge 111, Type (0, 0), BuildingBlock: CIFDUS_clean_linker_0, # of connection points: 2
#     Edge 112, Type (0, 0), BuildingBlock: CIFDUS_clean_linker_0, # of connection points: 2
#     Edge 113, Type (0, 0), BuildingBlock: CIFDUS_clean_linker_0, # of connection points: 2
#     Edge 114, Type (0, 0), BuildingBlock: CIFDUS_clean_linker_0, # of connection points: 2
#     Edge 115, Type (0, 0), BuildingBlock: CIFDUS_clean_linker_0, # of connection points: 2
#     Edge 116, Type (0, 0), BuildingBlock: CIFDUS_clean_linker_0, # of connection points: 2
#     Edge 117, Type (0, 0), BuildingBlock: CIFDUS_clean_linker_0, # of connection points: 2
#     Edge 118, Type (0, 0), BuildingBlock: CIFDUS_clean_linker_0, # of connection points: 2
#     Edge 119, Type (0, 0), BuildingBlock: CIFDUS_clean_linker_0, # of connection points: 2
#     Edge 120, Type (0, 0), BuildingBlock: CIFDUS_clean_linker_0, # of connection points: 2
#     Edge 121, Type (0, 0), BuildingBlock: CIFDUS_clean_linker_0, # of connection points: 2
#     Edge 122, Type (0, 0), BuildingBlock: CIFDUS_clean_linker_0, # of connection points: 2
#     Edge 123, Type (0, 0), BuildingBlock: CIFDUS_clean_linker_0, # of connection points: 2
#     Edge 124, Type (0, 0), BuildingBlock: CIFDUS_clean_linker_0, # of connection points: 2
#     Edge 125, Type (0, 0), BuildingBlock: CIFDUS_clean_linker_0, # of connection points: 2
#     Edge 126, Type (0, 0), BuildingBlock: CIFDUS_clean_linker_0, # of connection points: 2
#     Edge 127, Type (0, 0), BuildingBlock: CIFDUS_clean_linker_0, # of connection points: 2
#     Edge 128, Type (0, 0), BuildingBlock: CIFDUS_clean_linker_0, # of connection points: 2
#     Edge 129, Type (0, 0), BuildingBlock: CIFDUS_clean_linker_0, # of connection points: 2
#     Edge 130, Type (0, 0), BuildingBlock: CIFDUS_clean_linker_0, # of connection points: 2
#     Edge 131, Type (0, 0), BuildingBlock: CIFDUS_clean_linker_0, # of connection points: 2
#     Edge 132, Type (0, 0), BuildingBlock: CIFDUS_clean_linker_0, # of connection points: 2
#     Edge 133, Type (0, 0), BuildingBlock: CIFDUS_clean_linker_0, # of connection points: 2
#     Edge 134, Type (0, 0), BuildingBlock: CIFDUS_clean_linker_0, # of connection points: 2
#     Edge 135, Type (0, 0), BuildingBlock: CIFDUS_clean_linker_0, # of connection points: 2
#     Edge 136, Type (0, 0), BuildingBlock: CIFDUS_clean_linker_0, # of connection points: 2
#     Edge 137, Type (0, 0), BuildingBlock: CIFDUS_clean_linker_0, # of connection points: 2
#     Edge 138, Type (0, 0), BuildingBlock: CIFDUS_clean_linker_0, # of connection points: 2
#     Edge 139, Type (0, 0), BuildingBlock: CIFDUS_clean_linker_0, # of connection points: 2
#     Edge 140, Type (0, 0), BuildingBlock: CIFDUS_clean_linker_0, # of connection points: 2
#     Edge 141, Type (0, 0), BuildingBlock: CIFDUS_clean_linker_0, # of connection points: 2
#     Edge 142, Type (0, 0), BuildingBlock: CIFDUS_clean_linker_0, # of connection points: 2
#     Edge 143, Type (0, 0), BuildingBlock: CIFDUS_clean_linker_0, # of connection points: 2
#     Edge 144, Type (0, 0), BuildingBlock: CIFDUS_clean_linker_0, # of connection points: 2
#     Edge 145, Type (0, 0), BuildingBlock: CIFDUS_clean_linker_0, # of connection points: 2
#     Edge 146, Type (0, 0), BuildingBlock: CIFDUS_clean_linker_0, # of connection points: 2
#     Edge 147, Type (0, 0), BuildingBlock: CIFDUS_clean_linker_0, # of connection points: 2
#     Edge 148, Type (0, 0), BuildingBlock: CIFDUS_clean_linker_0, # of connection points: 2
#     Edge 149, Type (0, 0), BuildingBlock: CIFDUS_clean_linker_0, # of connection points: 2
#     Edge 150, Type (0, 0), BuildingBlock: CIFDUS_clean_linker_0, # of connection points: 2
#     Edge 151, Type (0, 0), BuildingBlock: CIFDUS_clean_linker_0, # of connection points: 2
#     Edge 152, Type (0, 0), BuildingBlock: CIFDUS_clean_linker_0, # of connection points: 2
#     Edge 153, Type (0, 0), BuildingBlock: CIFDUS_clean_linker_0, # of connection points: 2
#     Edge 154, Type (0, 0), BuildingBlock: CIFDUS_clean_linker_0, # of connection points: 2
#     Edge 155, Type (0, 0), BuildingBlock: CIFDUS_clean_linker_0, # of connection points: 2
#     Edge 156, Type (0, 0), BuildingBlock: CIFDUS_clean_linker_0, # of connection points: 2
#     Edge 157, Type (0, 0), BuildingBlock: CIFDUS_clean_linker_0, # of connection points: 2
#     Edge 158, Type (0, 0), BuildingBlock: CIFDUS_clean_linker_0, # of connection points: 2
#     Edge 159, Type (0, 0), BuildingBlock: CIFDUS_clean_linker_0, # of connection points: 2
#     Edge 160, Type (0, 0), BuildingBlock: CIFDUS_clean_linker_0, # of connection points: 2
#     Edge 161, Type (0, 0), BuildingBlock: CIFDUS_clean_linker_0, # of connection points: 2
#     Edge 162, Type (0, 0), BuildingBlock: CIFDUS_clean_linker_0, # of connection points: 2
#     Edge 163, Type (0, 0), BuildingBlock: CIFDUS_clean_linker_0, # of connection points: 2
#     Edge 164, Type (0, 0), BuildingBlock: CIFDUS_clean_linker_0, # of connection points: 2
#     Edge 165, Type (0, 0), BuildingBlock: CIFDUS_clean_linker_0, # of connection points: 2
#     Edge 166, Type (0, 0), BuildingBlock: CIFDUS_clean_linker_0, # of connection points: 2
#     Edge 167, Type (0, 0), BuildingBlock: CIFDUS_clean_linker_0, # of connection points: 2
#     Edge 168, Type (0, 0), BuildingBlock: CIFDUS_clean_linker_0, # of connection points: 2
#     Edge 169, Type (0, 0), BuildingBlock: CIFDUS_clean_linker_0, # of connection points: 2
#     Edge 170, Type (0, 0), BuildingBlock: CIFDUS_clean_linker_0, # of connection points: 2
#     Edge 171, Type (0, 0), BuildingBlock: CIFDUS_clean_linker_0, # of connection points: 2
#     Edge 172, Type (0, 0), BuildingBlock: CIFDUS_clean_linker_0, # of connection points: 2
#     Edge 173, Type (0, 0), BuildingBlock: CIFDUS_clean_linker_0, # of connection points: 2
#     Edge 174, Type (0, 0), BuildingBlock: CIFDUS_clean_linker_0, # of connection points: 2
#     Edge 175, Type (0, 0), BuildingBlock: CIFDUS_clean_linker_0, # of connection points: 2
#     Edge 176, Type (0, 0), BuildingBlock: CIFDUS_clean_linker_0, # of connection points: 2
#     Edge 177, Type (0, 0), BuildingBlock: CIFDUS_clean_linker_0, # of connection points: 2
#     Edge 178, Type (0, 0), BuildingBlock: CIFDUS_clean_linker_0, # of connection points: 2
#     Edge 179, Type (0, 0), BuildingBlock: CIFDUS_clean_linker_0, # of connection points: 2
#     Edge 180, Type (0, 0), BuildingBlock: CIFDUS_clean_linker_0, # of connection points: 2
#     Edge 181, Type (0, 0), BuildingBlock: CIFDUS_clean_linker_0, # of connection points: 2
#     Edge 182, Type (0, 0), BuildingBlock: CIFDUS_clean_linker_0, # of connection points: 2
#     Edge 183, Type (0, 0), BuildingBlock: CIFDUS_clean_linker_0, # of connection points: 2
#     Edge 184, Type (0, 0), BuildingBlock: CIFDUS_clean_linker_0, # of connection points: 2
#     Edge 185, Type (0, 0), BuildingBlock: CIFDUS_clean_linker_0, # of connection points: 2
#     Edge 186, Type (0, 0), BuildingBlock: CIFDUS_clean_linker_0, # of connection points: 2
#     Edge 187, Type (0, 0), BuildingBlock: CIFDUS_clean_linker_0, # of connection points: 2
#     Edge 188, Type (0, 0), BuildingBlock: CIFDUS_clean_linker_0, # of connection points: 2
#     Edge 189, Type (0, 0), BuildingBlock: CIFDUS_clean_linker_0, # of connection points: 2
#     Edge 190, Type (0, 0), BuildingBlock: CIFDUS_clean_linker_0, # of connection points: 2
#     Edge 191, Type (0, 0), BuildingBlock: CIFDUS_clean_linker_0, # of connection points: 2
#     Edge 192, Type (0, 0), BuildingBlock: CIFDUS_clean_linker_0, # of connection points: 2
#     Edge 193, Type (0, 0), BuildingBlock: CIFDUS_clean_linker_0, # of connection points: 2
#     Edge 194, Type (0, 0), BuildingBlock: CIFDUS_clean_linker_0, # of connection points: 2
#     Edge 195, Type (0, 0), BuildingBlock: CIFDUS_clean_linker_0, # of connection points: 2
#     Edge 196, Type (0, 0), BuildingBlock: CIFDUS_clean_linker_0, # of connection points: 2
#     Edge 197, Type (0, 0), BuildingBlock: CIFDUS_clean_linker_0, # of connection points: 2
#     Edge 198, Type (0, 0), BuildingBlock: CIFDUS_clean_linker_0, # of connection points: 2
#     Edge 199, Type (0, 0), BuildingBlock: CIFDUS_clean_linker_0, # of connection points: 2
#     Edge 200, Type (0, 0), BuildingBlock: CIFDUS_clean_linker_0, # of connection points: 2
#     Edge 201, Type (0, 0), BuildingBlock: CIFDUS_clean_linker_0, # of connection points: 2
#     Edge 202, Type (0, 0), BuildingBlock: CIFDUS_clean_linker_0, # of connection points: 2
#     Edge 203, Type (0, 0), BuildingBlock: CIFDUS_clean_linker_0, # of connection points: 2
#     Edge 204, Type (0, 0), BuildingBlock: CIFDUS_clean_linker_0, # of connection points: 2
#     Edge 205, Type (0, 0), BuildingBlock: CIFDUS_clean_linker_0, # of connection points: 2
#     Edge 206, Type (0, 0), BuildingBlock: CIFDUS_clean_linker_0, # of connection points: 2
#     Edge 207, Type (0, 0), BuildingBlock: CIFDUS_clean_linker_0, # of connection points: 2
#     Edge 208, Type (0, 0), BuildingBlock: CIFDUS_clean_linker_0, # of connection points: 2
#     Edge 209, Type (0, 0), BuildingBlock: CIFDUS_clean_linker_0, # of connection points: 2
#     Edge 210, Type (0, 0), BuildingBlock: CIFDUS_clean_linker_0, # of connection points: 2
#     Edge 211, Type (0, 0), BuildingBlock: CIFDUS_clean_linker_0, # of connection points: 2
#     Edge 212, Type (0, 0), BuildingBlock: CIFDUS_clean_linker_0, # of connection points: 2
#     Edge 213, Type (0, 0), BuildingBlock: CIFDUS_clean_linker_0, # of connection points: 2
#     Edge 214, Type (0, 0), BuildingBlock: CIFDUS_clean_linker_0, # of connection points: 2
#     Edge 215, Type (0, 0), BuildingBlock: CIFDUS_clean_linker_0, # of connection points: 2
# Relax obj value: 0.252
# Max RMSD: 0.243
# Mean RMSD: 0.243
data_MOF--net-swa--node1-NUHQUE_clean_sbu_2--edge1-CIFDUS_clean_linker_0
_symmetry_space_group_name_H-M    P1
_symmetry_Int_Tables_number       1
_symmetry_cell_setting            triclinic
loop_
_symmetry_equiv_pos_as_xyz
'x, y, z'
_cell_length_a     63.812573
_cell_length_b     63.747683
_cell_length_c     63.81878
_cell_angle_alpha  90.049683
_cell_angle_beta   89.990822
_cell_angle_gamma 89.975844
loop_
_atom_site_label
_atom_site_type_symbol
_atom_site_fract_x
_atom_site_fract_y
_atom_site_fract_z
_atom_type_partial_charge
O0 O 0.13357 0.62998 0.12879 0.0
Tb1 Tb 0.10402 0.63286 0.11209 0.0
Eu2 Eu 0.09777 0.6562 0.1634 0.0
C3 C 0.14282 0.61164 0.13057 0.0
O4 O 0.13218 0.59469 0.12564 0.0
C5 C 0.11214 0.67866 0.12304 0.0
O6 O 0.07327 0.68172 0.16279 0.0
C7 C 0.11267 0.6518 0.20099 0.0
C8 C 0.06132 0.68317 0.14609 0.0
O9 O 0.06323 0.66897 0.13132 0.0
C10 C 0.06545 0.62096 0.14204 0.0
C11 C 0.1043 0.64418 0.22116 0.0
C12 C 0.11802 0.63765 0.23724 0.0
C13 C 0.10988 0.63086 0.25654 0.0
C14 C 0.08821 0.63086 0.25969 0.0
C15 C 0.07438 0.63767 0.2441 0.0
C16 C 0.08248 0.64427 0.22476 0.0
O17 O 0.1005 0.66641 0.11145 0.0
O18 O 0.11999 0.67152 0.14064 0.0
O19 O 0.11274 0.6103 0.08741 0.0
O20 O 0.10286 0.6408 0.07884 0.0
C21 C 0.10934 0.62288 0.07171 0.0
O22 O 0.07255 0.63172 0.15829 0.0
O23 O 0.07482 0.61987 0.12362 0.0
O24 O 0.10425 0.6693 0.19406 0.0
O25 O 0.11543 0.63766 0.18615 0.0
H26 H 0.13483 0.63802 0.23481 0.0
H27 H 0.0821 0.62633 0.27491 0.0
H28 H 0.07186 0.64962 0.21262 0.0
O29 O 0.86379 0.12807 0.11746 0.0
Tb30 Tb 0.85252 0.09652 0.11086 0.0
Eu31 Eu 0.83591 0.09732 0.16646 0.0
C32 C 0.86584 0.13696 0.1359 0.0
O33 O 0.86191 0.12643 0.15302 0.0
C34 C 0.81021 0.11247 0.12756 0.0
O35 O 0.81929 0.0663 0.16495 0.0
C36 C 0.83465 0.11103 0.20483 0.0
C37 C 0.79904 0.06423 0.16174 0.0
O38 O 0.78739 0.08094 0.15866 0.0
C39 C 0.86991 0.06605 0.14613 0.0
C40 C 0.84072 0.10261 0.2254 0.0
C41 C 0.84409 0.11614 0.24258 0.0
C42 C 0.85036 0.10785 0.262 0.0
C43 C 0.85292 0.08616 0.2641 0.0
C44 C 0.84904 0.07257 0.24732 0.0
C45 C 0.84304 0.08082 0.22793 0.0
O46 O 0.81897 0.09817 0.11565 0.0
O47 O 0.82 0.11964 0.14415 0.0
O48 O 0.8407 0.09268 0.07883 0.0
O49 O 0.87345 0.09404 0.08366 0.0
C50 C 0.85882 0.09246 0.06956 0.0
O51 O 0.86644 0.07991 0.16113 0.0
O52 O 0.86286 0.06834 0.12685 0.0
O53 O 0.8189 0.10145 0.19562 0.0
O54 O 0.85016 0.11524 0.19195 0.0
H55 H 0.84187 0.13291 0.24085 0.0
H56 H 0.85702 0.0797 0.27929 0.0
H57 H 0.84014 0.07032 0.21487 0.0
O58 O 0.37778 0.86775 0.11343 0.0
Tb59 Tb 0.40926 0.85649 0.10588 0.0
Eu60 Eu 0.41718 0.84345 0.16152 0.0
C61 C 0.36861 0.86745 0.1319 0.0
O62 O 0.37927 0.86236 0.14868 0.0
C63 C 0.39779 0.81501 0.12696 0.0
O64 O 0.44871 0.82876 0.15533 0.0
C65 C 0.40917 0.84285 0.20128 0.0
C66 C 0.45139 0.8084 0.15306 0.0
O67 O 0.43508 0.79585 0.1536 0.0
C68 C 0.4411 0.87874 0.13618 0.0
C69 C 0.41577 0.85094 0.22179 0.0
C70 C 0.40021 0.85453 0.23687 0.0
C71 C 0.40561 0.85964 0.25751 0.0
C72 C 0.42685 0.86185 0.26277 0.0
C73 C 0.44271 0.85815 0.24794 0.0
C74 C 0.43706 0.85274 0.22733 0.0
O75 O 0.41155 0.82383 0.11459 0.0
O76 O 0.39327 0.82365 0.14496 0.0
O77 O 0.41107 0.8719 0.07516 0.0
O78 O 0.40953 0.83875 0.07663 0.0
C79 C 0.41054 0.85472 0.06412 0.0
O80 O 0.42789 0.87575 0.15176 0.0
O81 O 0.43807 0.87012 0.11768 0.0
O82 O 0.42168 0.82933 0.19202 0.0
O83 O 0.40011 0.85608 0.18833 0.0
H84 H 0.38386 0.85223 0.23279 0.0
H85 H 0.43113 0.86466 0.27897 0.0
H86 H 0.44914 0.84937 0.21587 0.0
O87 O 0.6457 0.38131 0.1232 0.0
Tb88 Tb 0.65273 0.40683 0.10175 0.0
Eu89 Eu 0.67079 0.41864 0.15251 0.0
C90 C 0.62638 0.37452 0.12532 0.0
O91 O 0.61111 0.38567 0.11715 0.0
C92 C 0.69778 0.40103 0.11595 0.0
O93 O 0.69502 0.44451 0.15157 0.0
C94 C 0.66378 0.40561 0.19039 0.0
C95 C 0.69752 0.45468 0.13382 0.0
O96 O 0.68528 0.44996 0.11802 0.0
C97 C 0.63902 0.44877 0.12506 0.0
C98 C 0.65295 0.4128 0.20954 0.0
C99 C 0.64705 0.39804 0.22487 0.0
C100 C 0.63778 0.40472 0.24369 0.0
C101 C 0.63456 0.42618 0.24703 0.0
C102 C 0.642 0.4412 0.2328 0.0
C103 C 0.65048 0.43441 0.21364 0.0
O104 O 0.6862 0.41108 0.10236 0.0
O105 O 0.68965 0.3952 0.13389 0.0
O106 O 0.63098 0.4017 0.07544 0.0
O107 O 0.66329 0.3953 0.0713 0.0
C108 C 0.64514 0.39529 0.06217 0.0
O109 O 0.64516 0.44153 0.14346 0.0
O110 O 0.642 0.43869 0.10724 0.0
O111 O 0.68051 0.41636 0.18495 0.0
O112 O 0.65191 0.40025 0.17436 0.0
H113 H 0.65027 0.38151 0.22246 0.0
H114 H 0.62787 0.43129 0.26181 0.0
H115 H 0.65635 0.44583 0.20251 0.0
O116 O 0.12321 0.8602 0.38205 0.0
Tb117 Tb 0.09206 0.85874 0.39613 0.0
Eu118 Eu 0.08734 0.83862 0.34434 0.0
C119 C 0.13402 0.87777 0.3822 0.0
O120 O 0.12454 0.89511 0.38807 0.0
C121 C 0.09871 0.81352 0.38379 0.0
O122 O 0.06062 0.81532 0.34478 0.0
C123 C 0.10513 0.84087 0.30786 0.0
C124 C 0.04726 0.81605 0.36048 0.0
O125 O 0.04946 0.83085 0.3746 0.0
C126 C 0.05674 0.87576 0.36452 0.0
C127 C 0.10115 0.84871 0.28647 0.0
C128 C 0.11825 0.85452 0.27372 0.0
C129 C 0.11499 0.86009 0.25266 0.0
C130 C 0.09461 0.85969 0.24459 0.0
C131 C 0.07777 0.85239 0.2565 0.0
C132 C 0.08086 0.84769 0.27774 0.0
O133 O 0.08623 0.82554 0.39463 0.0
O134 O 0.10775 0.82111 0.36704 0.0
O135 O 0.10059 0.87737 0.424 0.0
O136 O 0.08719 0.84722 0.42783 0.0
C137 C 0.09473 0.86332 0.43764 0.0
O138 O 0.06438 0.86548 0.3482 0.0
O139 O 0.06483 0.87499 0.38359 0.0
O140 O 0.09354 0.82494 0.31396 0.0
O141 O 0.10839 0.85487 0.32272 0.0
H142 H 0.13407 0.85376 0.27986 0.0
H143 H 0.09209 0.86306 0.22811 0.0
H144 H 0.06786 0.84189 0.287 0.0
O145 O 0.63675 0.12076 0.37637 0.0
Tb146 Tb 0.643 0.09146 0.39292 0.0
Eu147 Eu 0.65765 0.08755 0.34019 0.0
C148 C 0.61858 0.13036 0.37812 0.0
O149 O 0.60271 0.12002 0.38619 0.0
C150 C 0.68591 0.10294 0.37708 0.0
O151 O 0.68004 0.06018 0.33812 0.0
C152 C 0.65122 0.10319 0.30327 0.0
C153 C 0.70051 0.06284 0.33848 0.0
O154 O 0.70825 0.08188 0.33958 0.0
C155 C 0.62742 0.0543 0.36431 0.0
C156 C 0.64129 0.09645 0.28357 0.0
C157 C 0.63597 0.11155 0.26843 0.0
C158 C 0.62786 0.10528 0.24897 0.0
C159 C 0.62522 0.08387 0.24478 0.0
C160 C 0.63121 0.06855 0.25935 0.0
C161 C 0.63895 0.07496 0.27895 0.0
O162 O 0.6765 0.08984 0.38972 0.0
O163 O 0.67609 0.10994 0.36044 0.0
O164 O 0.62067 0.09584 0.41872 0.0
O165 O 0.6532 0.09492 0.42545 0.0
C166 C 0.63464 0.09706 0.43354 0.0
O167 O 0.63046 0.06582 0.34741 0.0
O168 O 0.6335 0.06034 0.38306 0.0
O169 O 0.66835 0.09299 0.30846 0.0
O170 O 0.63867 0.10683 0.31925 0.0
H171 H 0.63884 0.12804 0.27146 0.0
H172 H 0.62031 0.07909 0.22922 0.0
H173 H 0.64384 0.06329 0.29029 0.0
O174 O 0.37761 0.63094 0.38291 0.0
Tb175 Tb 0.40672 0.64058 0.39743 0.0
Eu176 Eu 0.43414 0.65047 0.33195 0.0
C177 C 0.36881 0.61307 0.38805 0.0
O178 O 0.37944 0.59979 0.39966 0.0
C179 C 0.40717 0.67644 0.36465 0.0
O180 O 0.46373 0.66955 0.33161 0.0
C181 C 0.42141 0.63517 0.29648 0.0
C182 C 0.47032 0.67567 0.35013 0.0
O183 O 0.46029 0.66894 0.36676 0.0
C184 C 0.44231 0.62263 0.37341 0.0
C185 C 0.42506 0.63663 0.27377 0.0
C186 C 0.40796 0.63489 0.25986 0.0
C187 C 0.41136 0.63574 0.23817 0.0
C188 C 0.43166 0.63861 0.23053 0.0
C189 C 0.44872 0.64055 0.24413 0.0
C190 C 0.44542 0.63946 0.26581 0.0
O191 O 0.4187 0.66604 0.3782 0.0
O192 O 0.41163 0.67478 0.34453 0.0
O193 O 0.40411 0.63004 0.42975 0.0
O194 O 0.40103 0.66266 0.42313 0.0
C195 C 0.40077 0.64849 0.43784 0.0
O196 O 0.42893 0.6289 0.35906 0.0
O197 O 0.43484 0.62202 0.39251 0.0
O198 O 0.41277 0.65162 0.30541 0.0
O199 O 0.43631 0.62648 0.30786 0.0
H200 H 0.39222 0.63265 0.26585 0.0
H201 H 0.4342 0.63899 0.21371 0.0
H202 H 0.45862 0.64088 0.27642 0.0
O203 O 0.85854 0.38017 0.37237 0.0
Tb204 Tb 0.84896 0.40873 0.38841 0.0
Eu205 Eu 0.83612 0.42241 0.33475 0.0
C206 C 0.84639 0.36361 0.37441 0.0
O207 O 0.82853 0.36573 0.38441 0.0
C208 C 0.80661 0.40204 0.36732 0.0
O209 O 0.81303 0.44901 0.33944 0.0
C210 C 0.83994 0.41379 0.29515 0.0
C211 C 0.81142 0.45871 0.35758 0.0
O212 O 0.82399 0.45333 0.37288 0.0
C213 C 0.87003 0.44693 0.36436 0.0
C214 C 0.8511 0.42028 0.27593 0.0
C215 C 0.85756 0.40476 0.26162 0.0
C216 C 0.86667 0.41043 0.24242 0.0
C217 C 0.86921 0.43172 0.23763 0.0
C218 C 0.86228 0.44746 0.25135 0.0
C219 C 0.85342 0.44164 0.27067 0.0
O220 O 0.81599 0.41277 0.38205 0.0
O221 O 0.8167 0.39734 0.35009 0.0
O222 O 0.86666 0.40317 0.41746 0.0
O223 O 0.83349 0.40364 0.41845 0.0
C224 C 0.85033 0.40128 0.42954 0.0
O225 O 0.86558 0.43893 0.34578 0.0
O226 O 0.86307 0.43899 0.38211 0.0
O227 O 0.826 0.42696 0.30269 0.0
O228 O 0.85084 0.40411 0.30975 0.0
H229 H 0.85492 0.38833 0.26512 0.0
H230 H 0.8751 0.43604 0.22228 0.0
H231 H 0.84783 0.4537 0.28128 0.0
O232 O 0.11909 0.12429 0.64602 0.0
Tb233 Tb 0.1095 0.0948 0.66067 0.0
Eu234 Eu 0.16692 0.0844 0.67166 0.0
C235 C 0.13609 0.13506 0.65054 0.0
O236 O 0.15111 0.12632 0.66138 0.0
C237 C 0.13246 0.10171 0.70304 0.0
O238 O 0.16508 0.0519 0.68526 0.0
C239 C 0.20563 0.09481 0.66498 0.0
C240 C 0.1629 0.04873 0.70552 0.0
O241 O 0.16187 0.06489 0.71825 0.0
C242 C 0.13741 0.06035 0.64017 0.0
C243 C 0.22331 0.0875 0.65201 0.0
C244 C 0.2376 0.10222 0.6439 0.0
C245 C 0.25524 0.09557 0.63242 0.0
C246 C 0.25807 0.07401 0.6289 0.0
C247 C 0.24412 0.05919 0.63708 0.0
C248 C 0.2267 0.06593 0.64862 0.0
O249 O 0.11907 0.08979 0.69294 0.0
O250 O 0.15127 0.10528 0.69554 0.0
O251 O 0.07851 0.09007 0.64644 0.0
O252 O 0.08051 0.10226 0.67728 0.0
C253 C 0.06773 0.0968 0.66242 0.0
O254 O 0.15266 0.07419 0.64098 0.0
O255 O 0.11898 0.06458 0.6483 0.0
O256 O 0.19971 0.0823 0.68025 0.0
O257 O 0.18985 0.10353 0.65498 0.0
H258 H 0.23523 0.11878 0.64697 0.0
H259 H 0.27211 0.06848 0.62107 0.0
H260 H 0.21611 0.05442 0.65524 0.0
O261 O 0.37649 0.13119 0.63262 0.0
Tb262 Tb 0.40244 0.11731 0.65 0.0
Eu263 Eu 0.4181 0.17137 0.65954 0.0
C264 C 0.36518 0.1466 0.6404 0.0
O265 O 0.37294 0.1579 0.65567 0.0
C266 C 0.39294 0.14082 0.69336 0.0
O267 O 0.44978 0.17257 0.67484 0.0
C268 C 0.40594 0.20908 0.65009 0.0
C269 C 0.45487 0.15836 0.68888 0.0
O270 O 0.44161 0.14322 0.69315 0.0
C271 C 0.44314 0.13804 0.63329 0.0
C272 C 0.4119 0.22691 0.63666 0.0
C273 C 0.39687 0.24238 0.63196 0.0
C274 C 0.40275 0.26081 0.62139 0.0
C275 C 0.42369 0.26341 0.6153 0.0
C276 C 0.43901 0.24869 0.62083 0.0
C277 C 0.43302 0.23025 0.63122 0.0
O278 O 0.39308 0.12377 0.68182 0.0
O279 O 0.40028 0.15926 0.68768 0.0
O280 O 0.3996 0.08797 0.63201 0.0
O281 O 0.39928 0.08687 0.66518 0.0
C282 C 0.39829 0.07568 0.64824 0.0
O283 O 0.4332 0.15597 0.63144 0.0
O284 O 0.43556 0.12315 0.64521 0.0
O285 O 0.41901 0.20474 0.66539 0.0
O286 O 0.3982 0.19226 0.64092 0.0
H287 H 0.3809 0.24062 0.6375 0.0
H288 H 0.42856 0.27818 0.6084 0.0
H289 H 0.44493 0.21912 0.63605 0.0
O290 O 0.37611 0.39142 0.63579 0.0
Tb291 Tb 0.39204 0.42132 0.64008 0.0
Eu292 Eu 0.33996 0.43087 0.66184 0.0
C293 C 0.38367 0.37572 0.64685 0.0
O294 O 0.39952 0.37933 0.65947 0.0
C295 C 0.37815 0.41185 0.6847 0.0
O296 O 0.34602 0.45819 0.6837 0.0
C297 C 0.30123 0.41867 0.66452 0.0
C298 C 0.36388 0.46848 0.68292 0.0
O299 O 0.37793 0.46288 0.66902 0.0
C300 C 0.36175 0.45822 0.62451 0.0
C301 C 0.27951 0.42433 0.65896 0.0
C302 C 0.26518 0.40812 0.65452 0.0
C303 C 0.2439 0.41268 0.65131 0.0
C304 C 0.23711 0.4335 0.65261 0.0
C305 C 0.25082 0.44963 0.65845 0.0
C306 C 0.27223 0.44515 0.6609 0.0
O307 O 0.39178 0.42277 0.67395 0.0
O308 O 0.36049 0.40616 0.67599 0.0
O309 O 0.41607 0.41144 0.61751 0.0
O310 O 0.42547 0.42294 0.64724 0.0
C311 C 0.43207 0.41538 0.62953 0.0
O312 O 0.34468 0.44917 0.63193 0.0
O313 O 0.38089 0.45087 0.6273 0.0
O314 O 0.31053 0.43039 0.67869 0.0
O315 O 0.3138 0.41255 0.64935 0.0
H316 H 0.27038 0.39192 0.65449 0.0
H317 H 0.22053 0.43692 0.65097 0.0
H318 H 0.28287 0.45752 0.66566 0.0
O319 O 0.11226 0.38074 0.65249 0.0
Tb320 Tb 0.08312 0.39416 0.66416 0.0
Eu321 Eu 0.07624 0.33861 0.67615 0.0
C322 C 0.12941 0.38331 0.66365 0.0
O323 O 0.12804 0.39264 0.68195 0.0
C324 C 0.0952 0.37226 0.70584 0.0
O325 O 0.04657 0.34149 0.69557 0.0
C326 C 0.0869 0.29939 0.67279 0.0
C327 C 0.03755 0.35982 0.69853 0.0
O328 O 0.04566 0.37646 0.68976 0.0
C329 C 0.0496 0.36506 0.64243 0.0
C330 C 0.07909 0.27985 0.66315 0.0
C331 C 0.09345 0.26503 0.65516 0.0
C332 C 0.08625 0.24599 0.64665 0.0
C333 C 0.06468 0.24194 0.64645 0.0
C334 C 0.05025 0.25628 0.65471 0.0
C335 C 0.05747 0.27532 0.66297 0.0
O336 O 0.08382 0.38719 0.69747 0.0
O337 O 0.10065 0.35577 0.69487 0.0
O338 O 0.08774 0.42347 0.64654 0.0
O339 O 0.08351 0.42493 0.67937 0.0
C340 C 0.08684 0.43598 0.66265 0.0
O341 O 0.06235 0.34901 0.64521 0.0
O342 O 0.05354 0.38373 0.65048 0.0
O343 O 0.07581 0.30693 0.68842 0.0
O344 O 0.09388 0.314 0.66005 0.0
H345 H 0.11013 0.26819 0.65581 0.0
H346 H 0.0591 0.22683 0.64096 0.0
H347 H 0.04633 0.28638 0.6695 0.0
O348 O 0.10372 0.37437 0.86927 0.0
Tb349 Tb 0.09128 0.40416 0.85802 0.0
Eu350 Eu 0.15521 0.43623 0.84596 0.0
C351 C 0.11647 0.36298 0.8577 0.0
O352 O 0.12343 0.37074 0.84001 0.0
C353 C 0.12166 0.41124 0.82039 0.0
O354 O 0.1531 0.46821 0.83142 0.0
C355 C 0.19175 0.42382 0.8585 0.0
C356 C 0.13418 0.47524 0.82728 0.0
O357 O 0.11795 0.46458 0.83404 0.0
C358 C 0.11588 0.4381 0.87818 0.0
C359 C 0.2135 0.43069 0.86068 0.0
C360 C 0.22862 0.41592 0.86687 0.0
C361 C 0.24927 0.42224 0.8708 0.0
C362 C 0.25463 0.44338 0.86824 0.0
C363 C 0.23975 0.45819 0.86175 0.0
C364 C 0.21912 0.45182 0.85781 0.0
O365 O 0.10971 0.42056 0.83431 0.0
O366 O 0.14184 0.41559 0.82046 0.0
O367 O 0.05865 0.40811 0.867 0.0
O368 O 0.06574 0.39603 0.83666 0.0
C369 C 0.05074 0.40129 0.84948 0.0
O370 O 0.12979 0.42656 0.86823 0.0
O371 O 0.09727 0.42959 0.87992 0.0
O372 O 0.1848 0.42058 0.83937 0.0
O373 O 0.17812 0.43316 0.87083 0.0
H374 H 0.22425 0.39961 0.86895 0.0
H375 H 0.27071 0.44831 0.87072 0.0
H376 H 0.20746 0.46323 0.85303 0.0
O377 O 0.11746 0.12067 0.86801 0.0
Tb378 Tb 0.0891 0.10205 0.86411 0.0
Eu379 Eu 0.07835 0.15437 0.85032 0.0
C380 C 0.12789 0.12019 0.88578 0.0
O381 O 0.11865 0.11219 0.90235 0.0
C382 C 0.09313 0.11859 0.82025 0.0
O383 O 0.04783 0.15463 0.8328 0.0
C384 C 0.08999 0.19306 0.85464 0.0
C385 C 0.04664 0.15424 0.81223 0.0
O386 O 0.06384 0.15333 0.80097 0.0
C387 C 0.05036 0.12667 0.88299 0.0
C388 C 0.08039 0.21269 0.86234 0.0
C389 C 0.09327 0.22877 0.87028 0.0
C390 C 0.08449 0.2481 0.87621 0.0
C391 C 0.0629 0.25124 0.87391 0.0
C392 C 0.05005 0.23598 0.86475 0.0
C393 C 0.05873 0.21637 0.85967 0.0
O394 O 0.08249 0.10498 0.83122 0.0
O395 O 0.09999 0.13581 0.82921 0.0
O396 O 0.09648 0.07633 0.88573 0.0
O397 O 0.09484 0.07009 0.85312 0.0
C398 C 0.09823 0.06188 0.87142 0.0
O399 O 0.05898 0.145 0.87869 0.0
O400 O 0.05851 0.10873 0.8769 0.0
O401 O 0.08181 0.18548 0.83732 0.0
O402 O 0.09446 0.17852 0.86862 0.0
H403 H 0.11008 0.2265 0.87124 0.0
H404 H 0.05626 0.2664 0.87792 0.0
H405 H 0.04893 0.20447 0.8525 0.0
O406 O 0.37059 0.11779 0.85709 0.0
Tb407 Tb 0.39165 0.09124 0.85341 0.0
Eu408 Eu 0.33873 0.08314 0.83669 0.0
C409 C 0.36972 0.12916 0.87424 0.0
O410 O 0.37882 0.12219 0.89134 0.0
C411 C 0.37624 0.10276 0.80962 0.0
O412 O 0.34161 0.05181 0.82043 0.0
C413 C 0.29969 0.09484 0.83872 0.0
C414 C 0.34693 0.04976 0.80059 0.0
O415 O 0.35058 0.06657 0.78928 0.0
C416 C 0.36343 0.05515 0.86987 0.0
C417 C 0.27961 0.08776 0.84784 0.0
C418 C 0.26357 0.10247 0.85201 0.0
C419 C 0.24415 0.09574 0.86002 0.0
C420 C 0.24086 0.07433 0.8635 0.0
C421 C 0.25631 0.05957 0.85874 0.0
C422 C 0.27581 0.06624 0.85116 0.0
O423 O 0.39003 0.0913 0.81969 0.0
O424 O 0.35731 0.10609 0.81712 0.0
O425 O 0.41536 0.10238 0.8759 0.0
O426 O 0.42484 0.09416 0.84516 0.0
C427 C 0.43128 0.10127 0.86313 0.0
O428 O 0.34755 0.06817 0.86761 0.0
O429 O 0.38231 0.06011 0.86326 0.0
O430 O 0.30738 0.08322 0.82351 0.0
O431 O 0.31411 0.10155 0.85187 0.0
H432 H 0.26608 0.11897 0.84879 0.0
H433 H 0.22564 0.06895 0.86889 0.0
H434 H 0.2877 0.05471 0.84729 0.0
O435 O 0.36553 0.37635 0.86299 0.0
Tb436 Tb 0.39266 0.38782 0.84575 0.0
Eu437 Eu 0.40459 0.33359 0.82919 0.0
C438 C 0.35259 0.36167 0.85651 0.0
O439 O 0.35807 0.3494 0.84101 0.0
C440 C 0.38658 0.36936 0.80136 0.0
O441 O 0.43248 0.33709 0.80742 0.0
C442 C 0.39343 0.29486 0.83426 0.0
C443 C 0.4424 0.35517 0.80692 0.0
O444 O 0.43673 0.36986 0.82011 0.0
C445 C 0.42927 0.36049 0.86555 0.0
C446 C 0.40102 0.27744 0.84742 0.0
C447 C 0.38679 0.26293 0.85609 0.0
C448 C 0.39416 0.24634 0.86861 0.0
C449 C 0.41575 0.24437 0.87223 0.0
C450 C 0.42999 0.25815 0.86298 0.0
C451 C 0.42264 0.27484 0.85084 0.0
O452 O 0.39763 0.38245 0.81262 0.0
O453 O 0.38182 0.35081 0.80862 0.0
O454 O 0.37981 0.41701 0.8333 0.0
O455 O 0.4005 0.41864 0.85917 0.0
C456 C 0.38928 0.4296 0.84616 0.0
O457 O 0.42131 0.34249 0.85916 0.0
O458 O 0.42223 0.379 0.8597 0.0
O459 O 0.40621 0.30109 0.81933 0.0
O460 O 0.38437 0.31049 0.84426 0.0
H461 H 0.37018 0.26433 0.85282 0.0
H462 H 0.42168 0.23096 0.88086 0.0
H463 H 0.43384 0.28538 0.8436 0.0
O464 O 0.64048 0.13188 0.12066 0.0
Tb465 Tb 0.64488 0.11374 0.09213 0.0
Eu466 Eu 0.66081 0.16554 0.08468 0.0
C467 C 0.65312 0.12729 0.13628 0.0
O468 O 0.66755 0.11288 0.13337 0.0
C469 C 0.69025 0.12792 0.09637 0.0
O470 O 0.68394 0.16987 0.05848 0.0
C471 C 0.65362 0.20118 0.10309 0.0
C472 C 0.68832 0.15343 0.04687 0.0
O473 O 0.67788 0.13599 0.04998 0.0
C474 C 0.62878 0.1402 0.05274 0.0
C475 C 0.64406 0.22159 0.09805 0.0
C476 C 0.64081 0.23653 0.11405 0.0
C477 C 0.63365 0.25676 0.10899 0.0
C478 C 0.63003 0.26187 0.08798 0.0
C479 C 0.63418 0.24757 0.07187 0.0
C480 C 0.64087 0.22725 0.07698 0.0
O481 O 0.67822 0.11457 0.08648 0.0
O482 O 0.68223 0.14524 0.10408 0.0
O483 O 0.62215 0.089 0.09967 0.0
O484 O 0.65427 0.08109 0.09655 0.0
C485 C 0.63571 0.07375 0.10046 0.0
O486 O 0.63581 0.15821 0.06032 0.0
O487 O 0.63176 0.12193 0.06194 0.0
O488 O 0.67084 0.19692 0.09264 0.0
O489 O 0.641 0.1849 0.10495 0.0
H490 H 0.64453 0.2327 0.13017 0.0
H491 H 0.62585 0.2779 0.08404 0.0
H492 H 0.64449 0.21619 0.06457 0.0
O493 O 0.64141 0.37883 0.37438 0.0
Tb494 Tb 0.64337 0.39551 0.40415 0.0
Eu495 Eu 0.66386 0.34236 0.41748 0.0
C496 C 0.65473 0.38486 0.35981 0.0
O497 O 0.66836 0.39958 0.36446 0.0
C498 C 0.68867 0.38061 0.40116 0.0
O499 O 0.68778 0.3448 0.44357 0.0
C500 C 0.66006 0.30374 0.4047 0.0
C501 C 0.68877 0.36219 0.45467 0.0
O502 O 0.67516 0.37714 0.4508 0.0
C503 C 0.62696 0.36839 0.44387 0.0
C504 C 0.65107 0.28356 0.41184 0.0
C505 C 0.64697 0.26748 0.39717 0.0
C506 C 0.63933 0.24791 0.40393 0.0
C507 C 0.63604 0.24455 0.42534 0.0
C508 C 0.64078 0.26001 0.44021 0.0
C509 C 0.64815 0.27962 0.43338 0.0
O510 O 0.67652 0.39411 0.41075 0.0
O511 O 0.68105 0.36272 0.39445 0.0
O512 O 0.65208 0.4288 0.4029 0.0
O513 O 0.62137 0.42005 0.39405 0.0
C514 C 0.63421 0.43578 0.39611 0.0
O515 O 0.63709 0.35089 0.43913 0.0
O516 O 0.62791 0.38606 0.43303 0.0
O517 O 0.67618 0.31071 0.41546 0.0
O518 O 0.64683 0.31869 0.39937 0.0
H519 H 0.65006 0.27004 0.38066 0.0
H520 H 0.63115 0.22912 0.43059 0.0
H521 H 0.65204 0.29159 0.44482 0.0
O522 O 0.12961 0.64413 0.38763 0.0
Tb523 Tb 0.10981 0.64916 0.41511 0.0
Eu524 Eu 0.16084 0.66819 0.41956 0.0
C525 C 0.12857 0.6275 0.37543 0.0
O526 O 0.1183 0.61087 0.38188 0.0
C527 C 0.1229 0.69243 0.40072 0.0
O528 O 0.16228 0.69359 0.44426 0.0
C529 C 0.19794 0.66182 0.4044 0.0
C530 C 0.14571 0.69827 0.45563 0.0
O531 O 0.12831 0.6877 0.45268 0.0
C532 C 0.13812 0.63727 0.45411 0.0
C533 C 0.21804 0.6546 0.41298 0.0
C534 C 0.23382 0.64711 0.39951 0.0
C535 C 0.25342 0.64138 0.4077 0.0
C536 C 0.25728 0.64383 0.42918 0.0
C537 C 0.24182 0.65163 0.44258 0.0
C538 C 0.22201 0.65653 0.43459 0.0
O539 O 0.1099 0.68306 0.41354 0.0
O540 O 0.14027 0.68306 0.3952 0.0
O541 O 0.08625 0.62544 0.40681 0.0
O542 O 0.07647 0.6566 0.41315 0.0
C543 C 0.07016 0.63797 0.40791 0.0
O544 O 0.15527 0.64338 0.4443 0.0
O545 O 0.11912 0.6401 0.44653 0.0
O546 O 0.19153 0.68007 0.41153 0.0
O547 O 0.18287 0.64777 0.40314 0.0
H548 H 0.23096 0.64596 0.38281 0.0
H549 H 0.27266 0.64017 0.43546 0.0
H550 H 0.21002 0.66261 0.44501 0.0
O551 O 0.85358 0.12103 0.38971 0.0
Tb552 Tb 0.84962 0.10307 0.41843 0.0
Eu553 Eu 0.83408 0.15477 0.42167 0.0
C554 C 0.8719 0.12228 0.38039 0.0
O555 O 0.88852 0.11516 0.39024 0.0
C556 C 0.80534 0.11722 0.40981 0.0
O557 O 0.80995 0.15908 0.44715 0.0
C558 C 0.84156 0.1901 0.40295 0.0
C559 C 0.80648 0.14378 0.46052 0.0
O560 O 0.81804 0.12678 0.45944 0.0
C561 C 0.86683 0.13193 0.45496 0.0
C562 C 0.85227 0.20999 0.4076 0.0
C563 C 0.85282 0.22584 0.3923 0.0
C564 C 0.86079 0.24583 0.39719 0.0
C565 C 0.86866 0.24951 0.41738 0.0
C566 C 0.86743 0.23412 0.43298 0.0
C567 C 0.85935 0.21427 0.42803 0.0
O568 O 0.81626 0.10549 0.42251 0.0
O569 O 0.81395 0.1339 0.40151 0.0
O570 O 0.86892 0.0764 0.4079 0.0
O571 O 0.83789 0.07097 0.41837 0.0
C572 C 0.85459 0.06214 0.41088 0.0
O573 O 0.85954 0.14904 0.4458 0.0
O574 O 0.86373 0.1128 0.44772 0.0
O575 O 0.82467 0.18651 0.41418 0.0
O576 O 0.85342 0.17335 0.40042 0.0
H577 H 0.84612 0.22295 0.37695 0.0
H578 H 0.87371 0.26518 0.42168 0.0
H579 H 0.8577 0.20255 0.44022 0.0
O580 O 0.37766 0.85009 0.38818 0.0
Tb581 Tb 0.39697 0.83629 0.41258 0.0
Eu582 Eu 0.34358 0.82189 0.42218 0.0
C583 C 0.37633 0.84035 0.37009 0.0
O584 O 0.38478 0.82169 0.3683 0.0
C585 C 0.3791 0.79205 0.40095 0.0
O586 O 0.3432 0.80068 0.45032 0.0
C587 C 0.30529 0.82886 0.4097 0.0
C588 C 0.36083 0.79327 0.45794 0.0
O589 O 0.37861 0.79869 0.44918 0.0
C590 C 0.3726 0.85034 0.4523 0.0
C591 C 0.28592 0.83998 0.41607 0.0
C592 C 0.27005 0.84386 0.40111 0.0
C593 C 0.25097 0.85312 0.40725 0.0
C594 C 0.2479 0.85826 0.42833 0.0
C595 C 0.26304 0.85373 0.44355 0.0
C596 C 0.28219 0.84476 0.43733 0.0
O597 O 0.39488 0.80265 0.40885 0.0
O598 O 0.35992 0.79965 0.39968 0.0
O599 O 0.42156 0.86028 0.4096 0.0
O600 O 0.42967 0.8284 0.40541 0.0
C601 C 0.43688 0.84745 0.4055 0.0
O602 O 0.35486 0.84954 0.44169 0.0
O603 O 0.38988 0.84173 0.44519 0.0
O604 O 0.31082 0.81293 0.42152 0.0
O605 O 0.32136 0.84024 0.40347 0.0
H606 H 0.27233 0.83925 0.38491 0.0
H607 H 0.23275 0.8643 0.43317 0.0
H608 H 0.29386 0.8409 0.44906 0.0
O609 O 0.87001 0.37672 0.1205 0.0
Tb610 Tb 0.86262 0.39382 0.09201 0.0
Eu611 Eu 0.84294 0.34123 0.08313 0.0
C612 C 0.88898 0.37685 0.12852 0.0
O613 O 0.90461 0.38356 0.11692 0.0
C614 C 0.81997 0.37698 0.10649 0.0
O615 O 0.81816 0.35022 0.05955 0.0
C616 C 0.8412 0.30107 0.08978 0.0
C617 C 0.8182 0.36853 0.0501 0.0
O618 O 0.83331 0.38186 0.054 0.0
C619 C 0.87809 0.36469 0.05445 0.0
C620 C 0.84957 0.28116 0.08115 0.0
C621 C 0.85859 0.26652 0.095 0.0
C622 C 0.86619 0.24726 0.0875 0.0
C623 C 0.8645 0.24269 0.0661 0.0
C624 C 0.85521 0.25675 0.05206 0.0
C625 C 0.8477 0.27608 0.05964 0.0
O626 O 0.82895 0.39125 0.09475 0.0
O627 O 0.82972 0.3593 0.11042 0.0
O628 O 0.88397 0.41941 0.10061 0.0
O629 O 0.85325 0.42683 0.09044 0.0
C630 C 0.87087 0.43463 0.09697 0.0
O631 O 0.8722 0.34741 0.06416 0.0
O632 O 0.87425 0.3837 0.06164 0.0
O633 O 0.82756 0.31129 0.07823 0.0
O634 O 0.8545 0.31348 0.09955 0.0
H635 H 0.85951 0.27 0.11161 0.0
H636 H 0.86947 0.22741 0.06047 0.0
H637 H 0.84037 0.28696 0.04885 0.0
O638 O 0.12704 0.85703 0.12218 0.0
Tb639 Tb 0.10803 0.84299 0.09753 0.0
Eu640 Eu 0.16292 0.83027 0.08333 0.0
C641 C 0.12936 0.84647 0.13974 0.0
O642 O 0.12087 0.82777 0.14119 0.0
C643 C 0.13052 0.80098 0.10528 0.0
O644 O 0.16057 0.8082 0.05555 0.0
C645 C 0.2021 0.83709 0.09249 0.0
C646 C 0.14223 0.8034 0.04744 0.0
O647 O 0.1253 0.81192 0.05536 0.0
C648 C 0.13129 0.8598 0.057 0.0
C649 C 0.22126 0.84664 0.08358 0.0
C650 C 0.23611 0.856 0.09709 0.0
C651 C 0.25506 0.86389 0.08903 0.0
C652 C 0.25911 0.8619 0.06757 0.0
C653 C 0.2451 0.85171 0.05411 0.0
C654 C 0.22583 0.84466 0.06203 0.0
O655 O 0.11418 0.80957 0.09619 0.0
O656 O 0.14736 0.8121 0.10915 0.0
O657 O 0.07886 0.86143 0.09796 0.0
O658 O 0.07872 0.83102 0.1111 0.0
C659 C 0.0673 0.84744 0.10731 0.0
O660 O 0.14949 0.85862 0.06675 0.0
O661 O 0.11382 0.85218 0.06509 0.0
O662 O 0.19528 0.81999 0.08323 0.0
O663 O 0.1869 0.84976 0.09833 0.0
H664 H 0.23308 0.85685 0.11378 0.0
H665 H 0.27396 0.86743 0.06139 0.0
H666 H 0.21495 0.83671 0.05168 0.0
O667 O 0.38399 0.64478 0.1169 0.0
Tb668 Tb 0.40291 0.65401 0.09022 0.0
Eu669 Eu 0.34943 0.66446 0.08131 0.0
C670 C 0.38418 0.62528 0.12353 0.0
O671 O 0.39303 0.61092 0.11168 0.0
C672 C 0.38359 0.69631 0.09321 0.0
O673 O 0.3463 0.68537 0.05305 0.0
C674 C 0.31254 0.65655 0.09657 0.0
C675 C 0.3444 0.70586 0.05491 0.0
O676 O 0.34312 0.71435 0.07361 0.0
C677 C 0.37913 0.6343 0.05156 0.0
C678 C 0.29278 0.64633 0.09031 0.0
C679 C 0.27767 0.64164 0.10569 0.0
C680 C 0.25807 0.63354 0.09984 0.0
C681 C 0.25367 0.63032 0.07859 0.0
C682 C 0.2682 0.63561 0.06299 0.0
C683 C 0.28792 0.64343 0.06895 0.0
O684 O 0.39672 0.68586 0.08157 0.0
O685 O 0.36791 0.68635 0.10197 0.0
O686 O 0.43299 0.63733 0.09205 0.0
O687 O 0.43137 0.66915 0.10172 0.0
C688 C 0.44372 0.65313 0.09934 0.0
O689 O 0.36045 0.63816 0.05979 0.0
O690 O 0.39686 0.6407 0.0599 0.0
O691 O 0.3172 0.67373 0.08624 0.0
O692 O 0.3289 0.64442 0.10011 0.0
H693 H 0.28091 0.64483 0.12206 0.0
H694 H 0.23809 0.62516 0.07413 0.0
H695 H 0.29919 0.64785 0.05703 0.0
O696 O 0.87481 0.35044 0.87876 0.0
Tb697 Tb 0.90398 0.3397 0.89251 0.0
Eu698 Eu 0.90778 0.32843 0.8381 0.0
C699 C 0.85806 0.33858 0.88059 0.0
O700 O 0.86015 0.31965 0.88842 0.0
C701 C 0.89971 0.29678 0.87343 0.0
O702 O 0.93977 0.31349 0.83733 0.0
C703 C 0.8929 0.3311 0.80045 0.0
C704 C 0.94233 0.29299 0.83731 0.0
O705 O 0.92586 0.28066 0.83675 0.0
C706 C 0.93474 0.36365 0.86292 0.0
C707 C 0.90015 0.34088 0.78089 0.0
C708 C 0.88583 0.34563 0.76482 0.0
C709 C 0.89306 0.35396 0.74577 0.0
C710 C 0.91459 0.35717 0.74289 0.0
C711 C 0.92908 0.35169 0.75844 0.0
C712 C 0.92175 0.34394 0.77761 0.0
O713 O 0.9123 0.30784 0.88518 0.0
O714 O 0.8896 0.30592 0.85809 0.0
O715 O 0.90705 0.35661 0.92237 0.0
O716 O 0.89629 0.32514 0.92247 0.0
C717 C 0.90078 0.34118 0.93416 0.0
O718 O 0.92303 0.35943 0.8464 0.0
O719 O 0.93193 0.3549 0.88135 0.0
O720 O 0.90439 0.3153 0.80702 0.0
O721 O 0.88715 0.34391 0.8156 0.0
H722 H 0.86929 0.34234 0.76687 0.0
H723 H 0.92021 0.36233 0.72769 0.0
H724 H 0.93289 0.33965 0.78971 0.0
O725 O 0.14452 0.87713 0.88212 0.0
Tb726 Tb 0.15299 0.90598 0.89822 0.0
Eu727 Eu 0.16535 0.91413 0.84204 0.0
C728 C 0.15754 0.86119 0.88373 0.0
O729 O 0.17546 0.86408 0.89342 0.0
C730 C 0.19661 0.90167 0.87775 0.0
O731 O 0.18279 0.94463 0.83799 0.0
C732 C 0.15835 0.89986 0.80451 0.0
C733 C 0.19014 0.95519 0.85409 0.0
O734 O 0.18578 0.94887 0.87314 0.0
C735 C 0.13425 0.94203 0.87043 0.0
C736 C 0.14907 0.90866 0.78518 0.0
C737 C 0.14068 0.89523 0.76974 0.0
C738 C 0.13295 0.90355 0.75083 0.0
C739 C 0.13402 0.92524 0.74748 0.0
C740 C 0.14349 0.93868 0.76204 0.0
C741 C 0.15035 0.9304 0.78123 0.0
O742 O 0.18581 0.9113 0.89233 0.0
O743 O 0.18743 0.89395 0.86099 0.0
O744 O 0.13427 0.90192 0.92699 0.0
O745 O 0.1674 0.90079 0.92877 0.0
C746 C 0.1502 0.89938 0.93953 0.0
O747 O 0.13572 0.92951 0.85405 0.0
O748 O 0.14135 0.9366 0.88903 0.0
O749 O 0.17612 0.90842 0.81035 0.0
O750 O 0.1456 0.8963 0.82031 0.0
H751 H 0.14058 0.87841 0.77224 0.0
H752 H 0.12856 0.93161 0.7327 0.0
H753 H 0.15772 0.94066 0.79261 0.0
O754 O 0.61391 0.14335 0.88133 0.0
Tb755 Tb 0.58629 0.15961 0.89351 0.0
Eu756 Eu 0.57736 0.1735 0.83763 0.0
C757 C 0.62583 0.15119 0.86643 0.0
O758 O 0.61877 0.16685 0.85523 0.0
C759 C 0.59867 0.20457 0.87336 0.0
O760 O 0.54563 0.18843 0.83535 0.0
C761 C 0.59207 0.16749 0.80009 0.0
C762 C 0.53861 0.19949 0.85125 0.0
O763 O 0.54983 0.20045 0.86847 0.0
C764 C 0.54984 0.14313 0.86534 0.0
C765 C 0.5864 0.15629 0.78064 0.0
C766 C 0.60213 0.15099 0.76602 0.0
C767 C 0.5967 0.14307 0.74613 0.0
C768 C 0.57543 0.14077 0.74111 0.0
C769 C 0.55969 0.14667 0.75514 0.0
C770 C 0.56515 0.15375 0.77518 0.0
O771 O 0.596 0.19188 0.88939 0.0
O772 O 0.59414 0.20019 0.85372 0.0
O773 O 0.59055 0.14146 0.9226 0.0
O774 O 0.58425 0.17396 0.92457 0.0
C775 C 0.58821 0.15723 0.93541 0.0
O776 O 0.56331 0.14336 0.84976 0.0
O777 O 0.5545 0.15213 0.88328 0.0
O778 O 0.57961 0.18306 0.80524 0.0
O779 O 0.59814 0.15625 0.81629 0.0
H780 H 0.61845 0.15383 0.7698 0.0
H781 H 0.57095 0.13586 0.72545 0.0
H782 H 0.55293 0.15876 0.78589 0.0
O783 O 0.37053 0.6194 0.87632 0.0
Tb784 Tb 0.364 0.59034 0.89297 0.0
Eu785 Eu 0.34571 0.58696 0.8413 0.0
C786 C 0.38755 0.63059 0.87948 0.0
O787 O 0.40288 0.62256 0.89063 0.0
C788 C 0.32143 0.60538 0.87824 0.0
O789 O 0.31842 0.56464 0.84424 0.0
C790 C 0.34957 0.60128 0.80364 0.0
C791 C 0.31736 0.5526 0.8609 0.0
O792 O 0.33288 0.55289 0.87436 0.0
C793 C 0.37793 0.55262 0.86326 0.0
C794 C 0.35797 0.59568 0.78299 0.0
C795 C 0.36165 0.61186 0.76862 0.0
C796 C 0.36676 0.60727 0.74778 0.0
C797 C 0.36889 0.58622 0.74164 0.0
C798 C 0.36512 0.56976 0.75577 0.0
C799 C 0.35976 0.57462 0.77659 0.0
O800 O 0.33038 0.59127 0.89003 0.0
O801 O 0.33123 0.61188 0.8615 0.0
O802 O 0.38159 0.59831 0.92153 0.0
O803 O 0.35036 0.58707 0.92397 0.0
C804 C 0.36641 0.59373 0.93445 0.0
O805 O 0.36994 0.56154 0.84637 0.0
O806 O 0.37674 0.56067 0.88227 0.0
O807 O 0.33327 0.59041 0.81002 0.0
O808 O 0.36317 0.60556 0.81858 0.0
H809 H 0.35934 0.62804 0.77338 0.0
H810 H 0.37158 0.58259 0.72525 0.0
H811 H 0.35626 0.56212 0.78756 0.0
O812 O 0.87962 0.13159 0.63042 0.0
Tb813 Tb 0.90916 0.13851 0.61497 0.0
Eu814 Eu 0.91535 0.15642 0.66824 0.0
C815 C 0.86346 0.14279 0.62422 0.0
O816 O 0.86644 0.15736 0.60999 0.0
C817 C 0.89831 0.18248 0.63092 0.0
O818 O 0.9403 0.18148 0.66689 0.0
C819 C 0.90205 0.15093 0.70628 0.0
C820 C 0.95135 0.18327 0.6496 0.0
O821 O 0.94836 0.16961 0.63452 0.0
C822 C 0.94732 0.12331 0.64395 0.0
C823 C 0.91062 0.14229 0.72598 0.0
C824 C 0.8971 0.13328 0.74099 0.0
C825 C 0.90518 0.12587 0.76013 0.0
C826 C 0.92663 0.12808 0.76421 0.0
C827 C 0.94008 0.13784 0.74991 0.0
C828 C 0.93216 0.14434 0.73049 0.0
O829 O 0.91017 0.17231 0.61758 0.0
O830 O 0.89179 0.17317 0.64805 0.0
O831 O 0.90933 0.14827 0.5821 0.0
O832 O 0.90159 0.1168 0.58932 0.0
C833 C 0.90386 0.13031 0.57421 0.0
O834 O 0.93919 0.13104 0.66138 0.0
O835 O 0.93896 0.12565 0.62518 0.0
O836 O 0.91081 0.16839 0.69967 0.0
O837 O 0.89819 0.13748 0.69107 0.0
H838 H 0.88043 0.13221 0.73789 0.0
H839 H 0.93281 0.12296 0.7792 0.0
H840 H 0.94253 0.15188 0.71934 0.0
O841 O 0.364 0.88766 0.62258 0.0
Tb842 Tb 0.35545 0.91509 0.60425 0.0
Eu843 Eu 0.34299 0.92116 0.65741 0.0
C844 C 0.38323 0.88028 0.62242 0.0
O845 O 0.39816 0.89174 0.61408 0.0
C846 C 0.31424 0.90204 0.62339 0.0
O847 O 0.31726 0.94506 0.66151 0.0
C848 C 0.35411 0.90717 0.6938 0.0
C849 C 0.31097 0.95625 0.6454 0.0
O850 O 0.3203 0.95369 0.62725 0.0
C851 C 0.37089 0.95518 0.62947 0.0
C852 C 0.36326 0.91436 0.71368 0.0
C853 C 0.36834 0.89921 0.72875 0.0
C854 C 0.37378 0.9052 0.74917 0.0
C855 C 0.37482 0.92661 0.75414 0.0
C856 C 0.36877 0.94203 0.73962 0.0
C857 C 0.36349 0.93581 0.71911 0.0
O858 O 0.32222 0.91506 0.60978 0.0
O859 O 0.32534 0.8963 0.63962 0.0
O860 O 0.37326 0.90374 0.57703 0.0
O861 O 0.34189 0.91385 0.57289 0.0
C862 C 0.35817 0.90608 0.5635 0.0
O863 O 0.36497 0.94723 0.64765 0.0
O864 O 0.36795 0.94584 0.61126 0.0
O865 O 0.3353 0.91443 0.68965 0.0
O866 O 0.36645 0.90607 0.67727 0.0
H867 H 0.36672 0.88269 0.72499 0.0
H868 H 0.37857 0.93121 0.77006 0.0
H869 H 0.35816 0.94737 0.70787 0.0
O870 O 0.61506 0.36407 0.61545 0.0
Tb871 Tb 0.58514 0.3532 0.60315 0.0
Eu872 Eu 0.5779 0.34277 0.65919 0.0
C873 C 0.63153 0.35256 0.61067 0.0
O874 O 0.62877 0.33558 0.59933 0.0
C875 C 0.59941 0.31425 0.62711 0.0
O876 O 0.55099 0.31979 0.65681 0.0
C877 C 0.58682 0.34673 0.6987 0.0
C878 C 0.54136 0.31519 0.63916 0.0
O879 O 0.54646 0.32515 0.62195 0.0
C880 C 0.54991 0.37464 0.63112 0.0
C881 C 0.57709 0.35469 0.71807 0.0
C882 C 0.59006 0.3621 0.73428 0.0
C883 C 0.5813 0.36873 0.75332 0.0
C884 C 0.55955 0.36786 0.756 0.0
C885 C 0.54641 0.35992 0.74031 0.0
C886 C 0.55523 0.35341 0.72121 0.0
O887 O 0.58674 0.32059 0.61229 0.0
O888 O 0.60441 0.3268 0.64253 0.0
O889 O 0.58995 0.36985 0.5734 0.0
O890 O 0.58418 0.33713 0.5729 0.0
C891 C 0.588 0.35346 0.56138 0.0
O892 O 0.56095 0.37196 0.64839 0.0
O893 O 0.55518 0.36631 0.61294 0.0
O894 O 0.57823 0.32989 0.69057 0.0
O895 O 0.59247 0.36064 0.68457 0.0
H896 H 0.60694 0.36221 0.73228 0.0
H897 H 0.5529 0.37197 0.77111 0.0
H898 H 0.5452 0.34704 0.70907 0.0
O899 O 0.13267 0.62182 0.62951 0.0
Tb900 Tb 0.13922 0.59215 0.614 0.0
Eu901 Eu 0.15672 0.5866 0.66713 0.0
C902 C 0.14478 0.63775 0.6245 0.0
O903 O 0.16069 0.63441 0.61188 0.0
C904 C 0.18355 0.59835 0.6285 0.0
O905 O 0.17981 0.56009 0.6705 0.0
C906 C 0.15084 0.60437 0.70336 0.0
C907 C 0.20016 0.56296 0.66858 0.0
O908 O 0.20761 0.58197 0.66598 0.0
C909 C 0.12386 0.554 0.64274 0.0
C910 C 0.14297 0.59877 0.72435 0.0
C911 C 0.14056 0.61447 0.7398 0.0
C912 C 0.13457 0.60896 0.76028 0.0
C913 C 0.13124 0.58785 0.7651 0.0
C914 C 0.13453 0.57201 0.7503 0.0
C915 C 0.14021 0.57752 0.72978 0.0
O916 O 0.17217 0.58554 0.6173 0.0
O917 O 0.17544 0.60698 0.64528 0.0
O918 O 0.15113 0.59659 0.58219 0.0
O919 O 0.11829 0.59628 0.58692 0.0
C920 C 0.13308 0.59829 0.573 0.0
O921 O 0.13187 0.56187 0.66025 0.0
O922 O 0.1257 0.56277 0.6241 0.0
O923 O 0.16836 0.59504 0.69786 0.0
O924 O 0.13706 0.60545 0.688 0.0
H925 H 0.14392 0.63071 0.7361 0.0
H926 H 0.12786 0.58358 0.78122 0.0
H927 H 0.14319 0.56532 0.7183 0.0
O928 O 0.88163 0.88443 0.3474 0.0
Tb929 Tb 0.89688 0.91268 0.33603 0.0
Eu930 Eu 0.84104 0.9251 0.32649 0.0
C931 C 0.88218 0.86784 0.33514 0.0
O932 O 0.89032 0.86979 0.31635 0.0
C933 C 0.87301 0.90592 0.29464 0.0
O934 O 0.84354 0.95439 0.30674 0.0
C935 C 0.80154 0.91611 0.33168 0.0
C936 C 0.86186 0.96295 0.3028 0.0
O937 O 0.87876 0.95459 0.31082 0.0
C938 C 0.8723 0.95003 0.35804 0.0
C939 C 0.7816 0.92382 0.34092 0.0
C940 C 0.76836 0.90953 0.35147 0.0
C941 C 0.74842 0.91589 0.35836 0.0
C942 C 0.74168 0.93636 0.35443 0.0
C943 C 0.75416 0.95054 0.34334 0.0
C944 C 0.77438 0.94446 0.33703 0.0
O945 O 0.88903 0.91561 0.30313 0.0
O946 O 0.85663 0.90077 0.30599 0.0
O947 O 0.92715 0.90587 0.32131 0.0
O948 O 0.92621 0.91073 0.35407 0.0
C949 C 0.93839 0.90658 0.33825 0.0
O950 O 0.85406 0.94044 0.35586 0.0
O951 O 0.8897 0.94327 0.34917 0.0
O952 O 0.80895 0.92653 0.31556 0.0
O953 O 0.81629 0.9092 0.34435 0.0
H954 H 0.7733 0.89343 0.35379 0.0
H955 H 0.72602 0.94101 0.35922 0.0
H956 H 0.78392 0.95537 0.32819 0.0
O957 O 0.62141 0.87624 0.36085 0.0
Tb958 Tb 0.5915 0.8925 0.35715 0.0
Eu959 Eu 0.58646 0.83961 0.33652 0.0
C960 C 0.63459 0.88005 0.37627 0.0
O961 O 0.62801 0.89043 0.39279 0.0
C962 C 0.60471 0.87841 0.31325 0.0
O963 O 0.55796 0.84373 0.31558 0.0
C964 C 0.59982 0.8011 0.33528 0.0
C965 C 0.54763 0.86161 0.31529 0.0
O966 O 0.55395 0.8769 0.32743 0.0
C967 C 0.55723 0.85987 0.3725 0.0
C968 C 0.5935 0.78009 0.3427 0.0
C969 C 0.60877 0.76628 0.35088 0.0
C970 C 0.60289 0.74622 0.35776 0.0
C971 C 0.58198 0.74002 0.35619 0.0
C972 C 0.56672 0.75329 0.34782 0.0
C973 C 0.57246 0.7734 0.34106 0.0
O974 O 0.59236 0.89149 0.32322 0.0
O975 O 0.61058 0.86085 0.32211 0.0
O976 O 0.5985 0.9181 0.3792 0.0
O977 O 0.58924 0.92554 0.34821 0.0
C978 C 0.59502 0.93336 0.36609 0.0
O979 O 0.56991 0.84431 0.3675 0.0
O980 O 0.56179 0.87963 0.3683 0.0
O981 O 0.58816 0.8096 0.32058 0.0
O982 O 0.60588 0.81462 0.34962 0.0
H983 H 0.62506 0.77103 0.3517 0.0
H984 H 0.57771 0.72419 0.36081 0.0
H985 H 0.56062 0.7837 0.33456 0.0
O986 O 0.62226 0.61799 0.34532 0.0
Tb987 Tb 0.60312 0.59046 0.33886 0.0
Eu988 Eu 0.65745 0.58464 0.32891 0.0
C989 C 0.62079 0.62976 0.36218 0.0
O990 O 0.6093 0.62337 0.37801 0.0
C991 C 0.62386 0.60395 0.29804 0.0
O992 O 0.65451 0.55335 0.31293 0.0
C993 C 0.69676 0.59502 0.33126 0.0
C994 C 0.65249 0.55097 0.29255 0.0
O995 O 0.65167 0.56753 0.28035 0.0
C996 C 0.63083 0.556 0.35988 0.0
C997 C 0.71722 0.58771 0.3391 0.0
C998 C 0.73411 0.60193 0.33971 0.0
C999 C 0.75418 0.59509 0.34562 0.0
C1000 C 0.75714 0.57403 0.35098 0.0
C1001 C 0.74075 0.55946 0.34956 0.0
C1002 C 0.72067 0.56639 0.34374 0.0
O1003 O 0.60945 0.59132 0.30557 0.0
O1004 O 0.6406 0.60854 0.30908 0.0
O1005 O 0.57108 0.59091 0.3265 0.0
O1006 O 0.57608 0.60042 0.35792 0.0
C1007 C 0.56197 0.5979 0.34334 0.0
O1008 O 0.64648 0.56953 0.35911 0.0
O1009 O 0.6129 0.55992 0.35042 0.0
O1010 O 0.6887 0.58425 0.31566 0.0
O1011 O 0.68274 0.60107 0.34517 0.0
H1012 H 0.73182 0.61808 0.3349 0.0
H1013 H 0.77288 0.56854 0.35441 0.0
H1014 H 0.70799 0.55517 0.34219 0.0
O1015 O 0.88933 0.61808 0.35064 0.0
Tb1016 Tb 0.91953 0.60344 0.34423 0.0
Eu1017 Eu 0.92898 0.65723 0.32815 0.0
C1018 C 0.8736 0.61418 0.33785 0.0
O1019 O 0.87709 0.6029 0.32098 0.0
C1020 C 0.91388 0.62118 0.29999 0.0
O1021 O 0.95809 0.65311 0.30823 0.0
C1022 C 0.91723 0.69618 0.32749 0.0
C1023 C 0.96856 0.63534 0.30826 0.0
O1024 O 0.96269 0.62037 0.321 0.0
C1025 C 0.95303 0.63304 0.36592 0.0
C1026 C 0.92241 0.71662 0.33689 0.0
C1027 C 0.90648 0.7317 0.33901 0.0
C1028 C 0.91123 0.75207 0.34588 0.0
C1029 C 0.93203 0.75709 0.35084 0.0
C1030 C 0.94822 0.74241 0.34833 0.0
C1031 C 0.9433 0.72204 0.34153 0.0
O1032 O 0.92441 0.6075 0.311 0.0
O1033 O 0.9066 0.63814 0.30895 0.0
O1034 O 0.92005 0.57209 0.33062 0.0
O1035 O 0.91277 0.5752 0.36284 0.0
C1036 C 0.91508 0.56194 0.34748 0.0
O1037 O 0.9426 0.64994 0.36007 0.0
O1038 O 0.94798 0.61394 0.35977 0.0
O1039 O 0.93125 0.68826 0.31466 0.0
O1040 O 0.90836 0.68209 0.33965 0.0
H1041 H 0.89056 0.72785 0.33446 0.0
H1042 H 0.93592 0.77315 0.35489 0.0
H1043 H 0.95575 0.7107 0.3392 0.0
O1044 O 0.89522 0.62453 0.1242 0.0
Tb1045 Tb 0.90317 0.59374 0.13695 0.0
Eu1046 Eu 0.84772 0.586 0.15569 0.0
C1047 C 0.87743 0.63472 0.1264 0.0
O1048 O 0.8607 0.62493 0.13315 0.0
C1049 C 0.88445 0.60855 0.17982 0.0
O1050 O 0.85194 0.55848 0.17771 0.0
C1051 C 0.80825 0.5959 0.15404 0.0
C1052 C 0.87035 0.54969 0.18076 0.0
O1053 O 0.88661 0.55668 0.17035 0.0
C1054 C 0.87221 0.55727 0.12252 0.0
C1055 C 0.78861 0.58742 0.14524 0.0
C1056 C 0.77387 0.60125 0.13633 0.0
C1057 C 0.75497 0.59354 0.12808 0.0
C1058 C 0.75094 0.57196 0.12901 0.0
C1059 C 0.7652 0.55803 0.1382 0.0
C1060 C 0.78411 0.56579 0.14627 0.0
O1061 O 0.89878 0.59716 0.17043 0.0
O1062 O 0.86604 0.61181 0.17136 0.0
O1063 O 0.9346 0.59199 0.15046 0.0
O1064 O 0.93153 0.59253 0.11745 0.0
C1065 C 0.94483 0.59184 0.1329 0.0
O1066 O 0.85576 0.56938 0.12544 0.0
O1067 O 0.89127 0.56305 0.1279 0.0
O1068 O 0.8167 0.58533 0.16955 0.0
O1069 O 0.82211 0.60299 0.14057 0.0
H1070 H 0.77703 0.61796 0.13599 0.0
H1071 H 0.73596 0.56603 0.12355 0.0
H1072 H 0.79517 0.55504 0.1534 0.0
O1073 O 0.88227 0.89535 0.13095 0.0
Tb1074 Tb 0.91246 0.9068 0.14199 0.0
Eu1075 Eu 0.93986 0.8406 0.15997 0.0
C1076 C 0.86762 0.89033 0.14457 0.0
O1077 O 0.87231 0.89041 0.16457 0.0
C1078 C 0.91344 0.87737 0.18102 0.0
O1079 O 0.96904 0.84039 0.17975 0.0
C1080 C 0.92816 0.80401 0.14638 0.0
C1081 C 0.96694 0.84456 0.19987 0.0
O1082 O 0.94813 0.84807 0.20743 0.0
C1083 C 0.94674 0.87886 0.12613 0.0
C1084 C 0.93476 0.78186 0.14646 0.0
C1085 C 0.92071 0.76627 0.13938 0.0
C1086 C 0.92749 0.74541 0.13718 0.0
C1087 C 0.94811 0.74026 0.14256 0.0
C1088 C 0.9622 0.75553 0.14956 0.0
C1089 C 0.95549 0.77636 0.15174 0.0
O1090 O 0.9251 0.88905 0.16862 0.0
O1091 O 0.9161 0.85677 0.18097 0.0
O1092 O 0.90619 0.93612 0.15918 0.0
O1093 O 0.91748 0.93745 0.12788 0.0
C1094 C 0.91142 0.94861 0.14384 0.0
O1095 O 0.93435 0.86631 0.13678 0.0
O1096 O 0.93883 0.89747 0.12241 0.0
O1097 O 0.92166 0.81196 0.16429 0.0
O1098 O 0.94004 0.81694 0.13552 0.0
H1099 H 0.90491 0.7705 0.13479 0.0
H1100 H 0.95345 0.72419 0.14073 0.0
H1101 H 0.96652 0.78833 0.15664 0.0
O1102 O 0.61348 0.88653 0.13384 0.0
Tb1103 Tb 0.60144 0.91612 0.14643 0.0
Eu1104 Eu 0.65504 0.92808 0.16855 0.0
C1105 C 0.63135 0.87742 0.13864 0.0
O1106 O 0.64516 0.88733 0.15009 0.0
C1107 C 0.61698 0.90732 0.19257 0.0
O1108 O 0.64887 0.95705 0.18811 0.0
C1109 C 0.69482 0.91936 0.16959 0.0
C1110 C 0.63 0.96516 0.19 0.0
O1111 O 0.61444 0.9569 0.17944 0.0
C1112 C 0.63144 0.95283 0.13257 0.0
C1113 C 0.71473 0.92665 0.16033 0.0
C1114 C 0.73021 0.91177 0.15521 0.0
C1115 C 0.74986 0.91825 0.14771 0.0
C1116 C 0.7538 0.93973 0.14536 0.0
C1117 C 0.73905 0.95484 0.15153 0.0
C1118 C 0.71922 0.94823 0.1584 0.0
O1119 O 0.60281 0.91607 0.18045 0.0
O1120 O 0.63625 0.90398 0.18622 0.0
O1121 O 0.57479 0.91683 0.12463 0.0
O1122 O 0.56899 0.91321 0.15705 0.0
C1123 C 0.56028 0.91447 0.13875 0.0
O1124 O 0.64746 0.94046 0.13636 0.0
O1125 O 0.61219 0.94722 0.13735 0.0
O1126 O 0.68558 0.93209 0.18289 0.0
O1127 O 0.68164 0.90976 0.15703 0.0
H1128 H 0.72719 0.89521 0.15767 0.0
H1129 H 0.76917 0.94482 0.1402 0.0
H1130 H 0.70778 0.95979 0.16333 0.0
O1131 O 0.63338 0.6279 0.11896 0.0
Tb1132 Tb 0.606 0.6125 0.13259 0.0
Eu1133 Eu 0.58826 0.6685 0.14866 0.0
C1134 C 0.64422 0.64262 0.12853 0.0
O1135 O 0.6356 0.65296 0.14399 0.0
C1136 C 0.60379 0.63132 0.17818 0.0
O1137 O 0.55572 0.66915 0.16191 0.0
C1138 C 0.59962 0.70747 0.14452 0.0
C1139 C 0.54778 0.65223 0.17042 0.0
O1140 O 0.55822 0.63455 0.16952 0.0
C1141 C 0.56659 0.63704 0.11627 0.0
C1142 C 0.59067 0.72721 0.1362 0.0
C1143 C 0.60418 0.74322 0.12913 0.0
C1144 C 0.59596 0.76261 0.12257 0.0
C1145 C 0.57428 0.76585 0.1234 0.0
C1146 C 0.5607 0.75077 0.1318 0.0
C1147 C 0.56889 0.73111 0.13751 0.0
O1148 O 0.59692 0.6172 0.16491 0.0
O1149 O 0.60755 0.65081 0.17262 0.0
O1150 O 0.60493 0.58108 0.11819 0.0
O1151 O 0.61932 0.58504 0.14791 0.0
C1152 C 0.61444 0.57147 0.13354 0.0
O1153 O 0.5775 0.65452 0.1179 0.0
O1154 O 0.57478 0.61866 0.12083 0.0
O1155 O 0.59035 0.69995 0.16125 0.0
O1156 O 0.60497 0.69281 0.13099 0.0
H1157 H 0.62099 0.74078 0.12918 0.0
H1158 H 0.56802 0.78095 0.11869 0.0
H1159 H 0.55856 0.71932 0.14406 0.0
O1160 O 0.37002 0.87703 0.88161 0.0
Tb1161 Tb 0.35722 0.89327 0.90863 0.0
Eu1162 Eu 0.34759 0.83841 0.91678 0.0
C1163 C 0.35933 0.87788 0.86403 0.0
O1164 O 0.34078 0.8868 0.86419 0.0
C1165 C 0.31561 0.87167 0.899 0.0
O1166 O 0.32995 0.83795 0.94726 0.0
C1167 C 0.35381 0.79979 0.9054 0.0
C1168 C 0.30936 0.83798 0.94829 0.0
O1169 O 0.29826 0.83874 0.93098 0.0
C1170 C 0.37669 0.86804 0.94557 0.0
C1171 C 0.36203 0.77989 0.91402 0.0
C1172 C 0.37325 0.76611 0.90082 0.0
C1173 C 0.37948 0.74633 0.90823 0.0
C1174 C 0.37412 0.74028 0.92857 0.0
C1175 C 0.36211 0.75327 0.94152 0.0
C1176 C 0.35664 0.77339 0.9345 0.0
O1177 O 0.32415 0.88659 0.91024 0.0
O1178 O 0.32651 0.855 0.89369 0.0
O1179 O 0.37766 0.92087 0.90743 0.0
O1180 O 0.34518 0.92472 0.90165 0.0
C1181 C 0.36307 0.93438 0.9029 0.0
O1182 O 0.37601 0.85059 0.93442 0.0
O1183 O 0.36666 0.88511 0.93996 0.0
O1184 O 0.33624 0.80663 0.91368 0.0
O1185 O 0.3673 0.81488 0.90128 0.0
H1186 H 0.37657 0.77049 0.88476 0.0
H1187 H 0.37831 0.72468 0.93396 0.0
H1188 H 0.34721 0.78341 0.94448 0.0
O1189 O 0.35643 0.63781 0.61839 0.0
Tb1190 Tb 0.34059 0.62035 0.59394 0.0
Eu1191 Eu 0.33189 0.67376 0.58673 0.0
C1192 C 0.34648 0.64069 0.63617 0.0
O1193 O 0.32675 0.63502 0.63738 0.0
C1194 C 0.29771 0.64053 0.60134 0.0
O1195 O 0.31268 0.68161 0.55813 0.0
C1196 C 0.34529 0.70771 0.60469 0.0
C1197 C 0.30307 0.66622 0.54836 0.0
O1198 O 0.30556 0.64699 0.55512 0.0
C1199 C 0.35862 0.64375 0.55488 0.0
C1200 C 0.35882 0.7252 0.59831 0.0
C1201 C 0.36256 0.74207 0.61204 0.0
C1202 C 0.37325 0.76004 0.60495 0.0
C1203 C 0.38023 0.76073 0.58408 0.0
C1204 C 0.37578 0.74437 0.57012 0.0
C1205 C 0.36544 0.72645 0.57739 0.0
O1206 O 0.30754 0.62603 0.59068 0.0
O1207 O 0.30724 0.65798 0.60668 0.0
O1208 O 0.3563 0.58976 0.59143 0.0
O1209 O 0.32792 0.59219 0.60857 0.0
C1210 C 0.34244 0.57941 0.60224 0.0
O1211 O 0.35709 0.66203 0.56447 0.0
O1212 O 0.35014 0.62646 0.56218 0.0
O1213 O 0.3275 0.70655 0.59437 0.0
O1214 O 0.35446 0.68934 0.60717 0.0
H1215 H 0.35637 0.74161 0.62786 0.0
H1216 H 0.38717 0.77503 0.57805 0.0
H1217 H 0.36139 0.71405 0.56646 0.0
O1218 O 0.87469 0.34751 0.61461 0.0
Tb1219 Tb 0.89399 0.34532 0.58659 0.0
Eu1220 Eu 0.84258 0.32619 0.57518 0.0
C1221 C 0.88052 0.3354 0.63024 0.0
O1222 O 0.89678 0.32303 0.6276 0.0
C1223 C 0.88047 0.29961 0.59136 0.0
O1224 O 0.84108 0.30197 0.54952 0.0
C1225 C 0.80512 0.33342 0.58933 0.0
C1226 C 0.85785 0.29784 0.53826 0.0
O1227 O 0.87506 0.30855 0.54174 0.0
C1228 C 0.86857 0.36071 0.54612 0.0
C1229 C 0.78539 0.34329 0.58235 0.0
C1230 C 0.76947 0.34702 0.59716 0.0
C1231 C 0.74982 0.35462 0.59076 0.0
C1232 C 0.74637 0.35866 0.56947 0.0
C1233 C 0.76172 0.35432 0.55434 0.0
C1234 C 0.78137 0.34673 0.56088 0.0
O1235 O 0.89394 0.31171 0.58165 0.0
O1236 O 0.86225 0.30709 0.59734 0.0
O1237 O 0.91611 0.36843 0.59935 0.0
O1238 O 0.92757 0.33876 0.58976 0.0
C1239 C 0.93278 0.35675 0.59781 0.0
O1240 O 0.85109 0.35108 0.55158 0.0
O1241 O 0.88624 0.35984 0.55683 0.0
O1242 O 0.81044 0.31617 0.57938 0.0
O1243 O 0.82113 0.34587 0.59331 0.0
H1244 H 0.77207 0.34319 0.61351 0.0
H1245 H 0.73082 0.36331 0.5644 0.0
H1246 H 0.79321 0.34289 0.54931 0.0
O1247 O 0.13374 0.88232 0.62557 0.0
Tb1248 Tb 0.14632 0.89928 0.59839 0.0
Eu1249 Eu 0.16587 0.84794 0.57957 0.0
C1250 C 0.14377 0.86759 0.636 0.0
O1251 O 0.16015 0.85869 0.62755 0.0
C1252 C 0.19339 0.88475 0.59949 0.0
O1253 O 0.18702 0.85055 0.55142 0.0
C1254 C 0.16266 0.8088 0.59031 0.0
C1255 C 0.19141 0.86889 0.5431 0.0
O1256 O 0.18211 0.88575 0.5504 0.0
C1257 C 0.13221 0.87718 0.55603 0.0
C1258 C 0.15133 0.78927 0.58527 0.0
C1259 C 0.14882 0.77415 0.60109 0.0
C1260 C 0.14023 0.75441 0.59646 0.0
C1261 C 0.13364 0.75014 0.57594 0.0
C1262 C 0.13669 0.76473 0.55982 0.0
C1263 C 0.14546 0.78439 0.56452 0.0
O1264 O 0.17991 0.89916 0.59373 0.0
O1265 O 0.18846 0.86483 0.60077 0.0
O1266 O 0.1253 0.92658 0.59903 0.0
O1267 O 0.15648 0.92995 0.60993 0.0
C1268 C 0.1389 0.93968 0.60678 0.0
O1269 O 0.13593 0.85842 0.5638 0.0
O1270 O 0.13731 0.89457 0.5659 0.0
O1271 O 0.17577 0.81568 0.57602 0.0
O1272 O 0.15221 0.82386 0.59984 0.0
H1273 H 0.15453 0.77735 0.61678 0.0
H1274 H 0.128 0.73457 0.57202 0.0
H1275 H 0.14837 0.7955 0.552 0.0
O1276 O 0.61306 0.13241 0.61668 0.0
Tb1277 Tb 0.60142 0.14858 0.58879 0.0
Eu1278 Eu 0.65505 0.16829 0.57996 0.0
C1279 C 0.62756 0.13981 0.62937 0.0
O1280 O 0.63872 0.15602 0.62361 0.0
C1281 C 0.61769 0.19419 0.60332 0.0
O1282 O 0.651 0.18853 0.55129 0.0
C1283 C 0.69408 0.16696 0.59122 0.0
C1284 C 0.63221 0.1932 0.54427 0.0
O1285 O 0.61574 0.18509 0.55354 0.0
C1286 C 0.6315 0.13355 0.55311 0.0
C1287 C 0.71334 0.15488 0.58714 0.0
C1288 C 0.72788 0.15213 0.60347 0.0
C1289 C 0.74718 0.14221 0.59968 0.0
C1290 C 0.75156 0.13469 0.57949 0.0
C1291 C 0.7376 0.13802 0.5629 0.0
C1292 C 0.71836 0.14794 0.56678 0.0
O1293 O 0.6029 0.18142 0.59691 0.0
O1294 O 0.63786 0.19032 0.6016 0.0
O1295 O 0.57268 0.13052 0.59494 0.0
O1296 O 0.57023 0.16102 0.58225 0.0
C1297 C 0.55965 0.145 0.58885 0.0
O1298 O 0.64725 0.13666 0.566 0.0
O1299 O 0.61247 0.13975 0.55788 0.0
O1300 O 0.68709 0.17863 0.57576 0.0
O1301 O 0.67912 0.15743 0.60173 0.0
H1302 H 0.72459 0.15854 0.61886 0.0
H1303 H 0.7669 0.12814 0.57615 0.0
H1304 H 0.70772 0.15089 0.55387 0.0
O1305 O 0.14848 0.61799 0.88549 0.0
Tb1306 Tb 0.15523 0.59736 0.9118 0.0
Eu1307 Eu 0.17402 0.64895 0.92342 0.0
C1308 C 0.12919 0.6204 0.87867 0.0
O1309 O 0.11376 0.61259 0.88984 0.0
C1310 C 0.19993 0.61203 0.90495 0.0
O1311 O 0.19595 0.64529 0.95109 0.0
C1312 C 0.17279 0.68803 0.91199 0.0
C1313 C 0.19754 0.62737 0.96117 0.0
O1314 O 0.18563 0.61163 0.95547 0.0
C1315 C 0.13948 0.62354 0.95052 0.0
C1316 C 0.16369 0.70837 0.91824 0.0
C1317 C 0.16068 0.72386 0.90284 0.0
C1318 C 0.15366 0.74397 0.90847 0.0
C1319 C 0.14952 0.74836 0.92958 0.0
C1320 C 0.15315 0.73339 0.94524 0.0
C1321 C 0.1601 0.71326 0.93949 0.0
O1322 O 0.18875 0.59847 0.91546 0.0
O1323 O 0.19168 0.63002 0.89944 0.0
O1324 O 0.13381 0.57068 0.90678 0.0
O1325 O 0.16641 0.56654 0.90199 0.0
C1326 C 0.14833 0.55729 0.90141 0.0
O1327 O 0.14384 0.641 0.94032 0.0
O1328 O 0.14477 0.60487 0.94337 0.0
O1329 O 0.18715 0.68025 0.92451 0.0
O1330 O 0.15997 0.67376 0.90439 0.0
H1331 H 0.16455 0.72053 0.88663 0.0
H1332 H 0.14526 0.76422 0.93407 0.0
H1333 H 0.16328 0.7017 0.95152 0.0
O1334 O 0.88153 0.12488 0.88214 0.0
Tb1335 Tb 0.88865 0.138 0.91292 0.0
Eu1336 Eu 0.83269 0.15597 0.91752 0.0
C1337 C 0.86287 0.12341 0.87355 0.0
O1338 O 0.84608 0.12774 0.88454 0.0
C1339 C 0.86929 0.17817 0.89408 0.0
O1340 O 0.83698 0.18121 0.94232 0.0
C1341 C 0.79356 0.15348 0.90634 0.0
C1342 C 0.85485 0.18296 0.95247 0.0
O1343 O 0.86979 0.16941 0.94853 0.0
C1344 C 0.85656 0.12233 0.94858 0.0
C1345 C 0.77396 0.14488 0.91489 0.0
C1346 C 0.75741 0.13935 0.90132 0.0
C1347 C 0.73849 0.13141 0.90947 0.0
C1348 C 0.73651 0.1291 0.93123 0.0
C1349 C 0.75266 0.135 0.94479 0.0
C1350 C 0.77143 0.1428 0.93666 0.0
O1351 O 0.88211 0.17093 0.90835 0.0
O1352 O 0.8514 0.16885 0.8906 0.0
O1353 O 0.91917 0.12189 0.9124 0.0
O1354 O 0.91825 0.15469 0.91728 0.0
C1355 C 0.93053 0.13861 0.91528 0.0
O1356 O 0.83958 0.12781 0.93805 0.0
O1357 O 0.87588 0.12654 0.94244 0.0
O1358 O 0.80153 0.1696 0.91641 0.0
O1359 O 0.80775 0.1397 0.90064 0.0
H1360 H 0.75915 0.14149 0.88456 0.0
H1361 H 0.72171 0.124 0.93788 0.0
H1362 H 0.78383 0.14757 0.94726 0.0
O1363 O 0.60049 0.36652 0.87884 0.0
Tb1364 Tb 0.58686 0.35661 0.90828 0.0
Eu1365 Eu 0.65193 0.34738 0.93766 0.0
C1366 C 0.59714 0.38551 0.87164 0.0
O1367 O 0.58723 0.39908 0.88359 0.0
C1368 C 0.62061 0.32133 0.90904 0.0
O1369 O 0.65066 0.32892 0.9676 0.0
C1370 C 0.68773 0.36266 0.92623 0.0
C1371 C 0.63186 0.32374 0.97425 0.0
O1372 O 0.61546 0.33077 0.96401 0.0
C1373 C 0.61059 0.37601 0.94302 0.0
C1374 C 0.71015 0.36295 0.93141 0.0
C1375 C 0.72479 0.36042 0.91511 0.0
C1376 C 0.74628 0.36152 0.91932 0.0
C1377 C 0.75305 0.36511 0.93985 0.0
C1378 C 0.73867 0.36698 0.95634 0.0
C1379 C 0.71715 0.36582 0.95212 0.0
O1380 O 0.60611 0.33093 0.92024 0.0
O1381 O 0.64051 0.32383 0.91405 0.0
O1382 O 0.56049 0.33515 0.90343 0.0
O1383 O 0.55469 0.3678 0.90748 0.0
C1384 C 0.54608 0.34959 0.90436 0.0
O1385 O 0.62466 0.36794 0.93035 0.0
O1386 O 0.59166 0.37668 0.93533 0.0
O1387 O 0.68024 0.34489 0.91893 0.0
O1388 O 0.67485 0.37257 0.93899 0.0
H1389 H 0.71948 0.35757 0.89922 0.0
H1390 H 0.76973 0.36521 0.9432 0.0
H1391 H 0.70599 0.36718 0.96486 0.0
H1392 H 0.13939 0.70795 0.13822 0.0
H1393 H 0.08672 0.69997 0.09647 0.0
H1394 H 0.08739 0.73711 0.08795 0.0
H1395 H 0.10305 0.77174 0.09181 0.0
H1396 H 0.15646 0.78021 0.13238 0.0
H1397 H 0.1554 0.74305 0.14187 0.0
C1398 C 0.12809 0.71439 0.12727 0.0
C1399 C 0.11311 0.70121 0.11795 0.0
C1400 C 0.12868 0.73584 0.1222 0.0
C1401 C 0.09857 0.70972 0.10373 0.0
C1402 C 0.09887 0.73099 0.09888 0.0
C1403 C 0.11439 0.76551 0.10283 0.0
C1404 C 0.12974 0.7787 0.11144 0.0
C1405 C 0.11387 0.74417 0.10796 0.0
C1406 C 0.14449 0.77033 0.12551 0.0
C1407 C 0.14388 0.7491 0.13095 0.0
H1408 H 0.71775 0.14731 0.1226 0.0
H1409 H 0.71285 0.09712 0.07737 0.0
H1410 H 0.74969 0.08847 0.08256 0.0
H1411 H 0.78305 0.09472 0.10019 0.0
H1412 H 0.78812 0.14428 0.14607 0.0
H1413 H 0.75142 0.15367 0.14026 0.0
C1414 C 0.72476 0.13451 0.11385 0.0
C1415 C 0.71256 0.12284 0.09968 0.0
C1416 C 0.74596 0.12952 0.11699 0.0
C1417 C 0.72185 0.10626 0.0885 0.0
C1418 C 0.74294 0.10133 0.0914 0.0
C1419 C 0.77621 0.10768 0.10885 0.0
C1420 C 0.78832 0.11881 0.12351 0.0
C1421 C 0.7551 0.11281 0.10564 0.0
C1422 C 0.77913 0.13544 0.1347 0.0
C1423 C 0.75815 0.14081 0.1314 0.0
H1424 H 0.40869 0.79117 0.09383 0.0
H1425 H 0.37128 0.7905 0.15022 0.0
H1426 H 0.3624 0.7537 0.14403 0.0
H1427 H 0.36723 0.72117 0.12369 0.0
H1428 H 0.40599 0.72221 0.06824 0.0
H1429 H 0.41233 0.75955 0.07298 0.0
C1430 C 0.3985 0.78306 0.10475 0.0
C1431 C 0.39086 0.79344 0.12257 0.0
C1432 C 0.3938 0.76196 0.10133 0.0
C1433 C 0.37751 0.78276 0.13645 0.0
C1434 C 0.37244 0.76173 0.13294 0.0
C1435 C 0.37695 0.72965 0.11262 0.0
C1436 C 0.38635 0.719 0.09582 0.0
C1437 C 0.38082 0.75109 0.11562 0.0
C1438 C 0.39886 0.73007 0.0815 0.0
C1439 C 0.40244 0.75141 0.08414 0.0
H1440 H 0.72556 0.3757 0.13643 0.0
H1441 H 0.72079 0.42088 0.08625 0.0
H1442 H 0.75818 0.41783 0.07954 0.0
H1443 H 0.79208 0.40245 0.08762 0.0
H1444 H 0.79752 0.35618 0.13661 0.0
H1445 H 0.75998 0.35958 0.14415 0.0
C1446 C 0.73274 0.38485 0.12404 0.0
C1447 C 0.7204 0.39845 0.11185 0.0
C1448 C 0.75433 0.38289 0.1201 0.0
C1449 C 0.72988 0.41016 0.09578 0.0
C1450 C 0.75129 0.40851 0.09196 0.0
C1451 C 0.78513 0.39322 0.10009 0.0
C1452 C 0.79756 0.37923 0.11169 0.0
C1453 C 0.76364 0.39497 0.10402 0.0
C1454 C 0.78823 0.3671 0.12751 0.0
C1455 C 0.7668 0.36903 0.1318 0.0
H1456 H 0.12238 0.78399 0.36425 0.0
H1457 H 0.07897 0.79282 0.41543 0.0
H1458 H 0.08156 0.75576 0.42435 0.0
H1459 H 0.09687 0.72103 0.41827 0.0
H1460 H 0.14097 0.71236 0.36771 0.0
H1461 H 0.13721 0.74913 0.35778 0.0
C1462 C 0.11349 0.7778 0.37734 0.0
C1463 C 0.10059 0.79114 0.38918 0.0
C1464 C 0.11508 0.75649 0.38246 0.0
C1465 C 0.08912 0.78289 0.4061 0.0
C1466 C 0.09052 0.76168 0.4112 0.0
C1467 C 0.10544 0.72715 0.40493 0.0
C1468 C 0.11914 0.71407 0.39373 0.0
C1469 C 0.10351 0.74836 0.39954 0.0
C1470 C 0.13036 0.7222 0.37662 0.0
C1471 C 0.12826 0.74321 0.37094 0.0
H1472 H 0.77866 0.13648 0.38266 0.0
H1473 H 0.78238 0.08624 0.42791 0.0
H1474 H 0.74567 0.07782 0.42201 0.0
H1475 H 0.71264 0.0846 0.40419 0.0
H1476 H 0.70851 0.13422 0.35841 0.0
H1477 H 0.74533 0.14306 0.36441 0.0
C1478 C 0.77143 0.12369 0.39121 0.0
C1479 C 0.78323 0.11203 0.40569 0.0
C1480 C 0.75028 0.11886 0.38772 0.0
C1481 C 0.77368 0.09545 0.41662 0.0
C1482 C 0.75266 0.09063 0.41331 0.0
C1483 C 0.71972 0.09745 0.39561 0.0
C1484 C 0.70788 0.10883 0.38099 0.0
C1485 C 0.74083 0.10226 0.39896 0.0
C1486 C 0.71735 0.12526 0.3698 0.0
C1487 C 0.73838 0.1303 0.3732 0.0
H1488 H 0.36251 0.75344 0.40833 0.0
H1489 H 0.4079 0.78635 0.37065 0.0
H1490 H 0.41889 0.75347 0.35446 0.0
H1491 H 0.41742 0.71527 0.35271 0.0
H1492 H 0.37537 0.68122 0.39301 0.0
H1493 H 0.36121 0.71444 0.40663 0.0
C1494 C 0.37456 0.7533 0.39634 0.0
C1495 C 0.38419 0.77219 0.39036 0.0
C1496 C 0.38149 0.73413 0.38777 0.0
C1497 C 0.40015 0.77196 0.37525 0.0
C1498 C 0.40649 0.75318 0.36606 0.0
C1499 C 0.4049 0.71518 0.36423 0.0
C1500 C 0.3972 0.69601 0.37175 0.0
C1501 C 0.3975 0.73418 0.37241 0.0
C1502 C 0.38142 0.69592 0.38704 0.0
C1503 C 0.37336 0.71487 0.39478 0.0
H1504 H 0.71471 0.36549 0.37095 0.0
H1505 H 0.71194 0.40807 0.42353 0.0
H1506 H 0.74828 0.41816 0.4177 0.0
H1507 H 0.78045 0.41536 0.3976 0.0
H1508 H 0.78377 0.37378 0.3443 0.0
H1509 H 0.74746 0.36285 0.35041 0.0
C1510 C 0.72216 0.37688 0.38116 0.0
C1511 C 0.71075 0.38605 0.39762 0.0
C1512 C 0.74303 0.38284 0.37754 0.0
C1513 C 0.72041 0.40093 0.41065 0.0
C1514 C 0.74118 0.40668 0.40737 0.0
C1515 C 0.77331 0.40384 0.38732 0.0
C1516 C 0.78476 0.39534 0.37057 0.0
C1517 C 0.75256 0.39781 0.39083 0.0
C1518 C 0.77521 0.38058 0.35729 0.0
C1519 C 0.7545 0.3743 0.36081 0.0
H1520 H 0.10044 0.08783 0.72706 0.0
H1521 H 0.1536 0.12969 0.72784 0.0
H1522 H 0.14567 0.13936 0.76411 0.0
H1523 H 0.12398 0.13518 0.79587 0.0
H1524 H 0.07187 0.09202 0.79486 0.0
H1525 H 0.07904 0.08367 0.75831 0.0
C1526 C 0.11029 0.09914 0.73508 0.0
C1527 C 0.12761 0.108 0.72478 0.0
C1528 C 0.10584 0.10437 0.7559 0.0
C1529 C 0.14023 0.12256 0.73548 0.0
C1530 C 0.13569 0.12811 0.75619 0.0
C1531 C 0.11417 0.12403 0.78758 0.0
C1532 C 0.09748 0.11418 0.79802 0.0
C1533 C 0.1186 0.11901 0.7666 0.0
C1534 C 0.08494 0.09968 0.78719 0.0
C1535 C 0.08898 0.09492 0.76628 0.0
H1536 H 0.41699 0.13879 0.7275 0.0
H1537 H 0.35293 0.13563 0.7066 0.0
H1538 H 0.34164 0.12513 0.74186 0.0
H1539 H 0.35069 0.11384 0.77759 0.0
H1540 H 0.41547 0.11346 0.79701 0.0
H1541 H 0.42595 0.12831 0.76333 0.0
C1542 C 0.40053 0.13624 0.7309 0.0
C1543 C 0.38567 0.13827 0.71489 0.0
C1544 C 0.39442 0.12927 0.75077 0.0
C1545 C 0.36445 0.13443 0.71902 0.0
C1546 C 0.35808 0.12829 0.73904 0.0
C1547 C 0.36706 0.11722 0.77448 0.0
C1548 C 0.38231 0.11252 0.78964 0.0
C1549 C 0.37302 0.12519 0.7549 0.0
C1550 C 0.4035 0.11677 0.78544 0.0
C1551 C 0.40948 0.12532 0.76625 0.0
H1552 H 0.35876 0.38177 0.70754 0.0
H1553 H 0.4081 0.42802 0.71033 0.0
H1554 H 0.41498 0.41883 0.7468 0.0
H1555 H 0.40653 0.39829 0.77789 0.0
H1556 H 0.35785 0.35136 0.77521 0.0
H1557 H 0.35112 0.36022 0.7385 0.0
C1558 C 0.37101 0.38983 0.71615 0.0
C1559 C 0.38284 0.40561 0.70636 0.0
C1560 C 0.37494 0.3844 0.73704 0.0
C1561 C 0.39883 0.41577 0.71756 0.0
C1562 C 0.40272 0.41059 0.7384 0.0
C1563 C 0.39437 0.39004 0.76932 0.0
C1564 C 0.38255 0.37434 0.77923 0.0
C1565 C 0.39077 0.39505 0.74831 0.0
C1566 C 0.36712 0.36353 0.76785 0.0
C1567 C 0.36326 0.3686 0.74692 0.0
H1568 H 0.14015 0.38452 0.79278 0.0
H1569 H 0.08231 0.4173 0.80542 0.0
H1570 H 0.06847 0.40657 0.77157 0.0
H1571 H 0.07417 0.39128 0.73692 0.0
H1572 H 0.1317 0.35844 0.72352 0.0
H1573 H 0.14438 0.36582 0.75907 0.0
C1574 C 0.12439 0.38897 0.78822 0.0
C1575 C 0.11223 0.40156 0.80164 0.0
C1576 C 0.11663 0.38305 0.76848 0.0
C1577 C 0.09183 0.40724 0.7956 0.0
C1578 C 0.08399 0.40136 0.7761 0.0
C1579 C 0.08944 0.38564 0.74186 0.0
C1580 C 0.10217 0.37467 0.72767 0.0
C1581 C 0.09647 0.3898 0.76221 0.0
C1582 C 0.12171 0.36701 0.73427 0.0
C1583 C 0.12896 0.37127 0.75452 0.0
H1584 H 0.86913 0.27062 0.85937 0.0
H1585 H 0.92626 0.27223 0.89562 0.0
H1586 H 0.92272 0.23507 0.90346 0.0
H1587 H 0.90253 0.20295 0.90194 0.0
H1588 H 0.84449 0.20088 0.8672 0.0
H1589 H 0.84946 0.23741 0.85654 0.0
C1590 C 0.88084 0.26275 0.86886 0.0
C1591 C 0.89777 0.27413 0.87712 0.0
C1592 C 0.87856 0.24139 0.87358 0.0
C1593 C 0.9129 0.26384 0.88935 0.0
C1594 C 0.91095 0.24259 0.89378 0.0
C1595 C 0.89098 0.21038 0.89192 0.0
C1596 C 0.87304 0.19932 0.88559 0.0
C1597 C 0.89368 0.23134 0.88628 0.0
C1598 C 0.85837 0.20914 0.87242 0.0
C1599 C 0.86117 0.23002 0.86637 0.0
H1600 H 0.22239 0.8698 0.86516 0.0
H1601 H 0.22159 0.92925 0.89757 0.0
H1602 H 0.25857 0.92557 0.90606 0.0
H1603 H 0.29038 0.90487 0.9061 0.0
H1604 H 0.29198 0.8447 0.87508 0.0
H1605 H 0.25543 0.84923 0.8642 0.0
C1606 C 0.23046 0.88199 0.87384 0.0
C1607 C 0.21935 0.89969 0.88085 0.0
C1608 C 0.25175 0.87958 0.87908 0.0
C1609 C 0.22983 0.91537 0.89223 0.0
C1610 C 0.25095 0.9133 0.89708 0.0
C1611 C 0.28285 0.89273 0.89688 0.0
C1612 C 0.29387 0.87444 0.89151 0.0
C1613 C 0.26194 0.89533 0.89091 0.0
C1614 C 0.28381 0.85893 0.87948 0.0
C1615 C 0.26292 0.86151 0.87326 0.0
H1616 H 0.58228 0.2424 0.86311 0.0
H1617 H 0.63382 0.21277 0.89519 0.0
H1618 H 0.64631 0.24693 0.90734 0.0
H1619 H 0.64086 0.28447 0.91134 0.0
H1620 H 0.58801 0.31452 0.88192 0.0
H1621 H 0.57751 0.28093 0.86623 0.0
C1622 C 0.59645 0.24361 0.87242 0.0
C1623 C 0.60731 0.22532 0.87818 0.0
C1624 C 0.60303 0.26324 0.88003 0.0
C1625 C 0.62536 0.22678 0.8906 0.0
C1626 C 0.63243 0.24624 0.89756 0.0
C1627 C 0.62721 0.28378 0.90122 0.0
C1628 C 0.61508 0.30186 0.89786 0.0
C1629 C 0.62115 0.26447 0.89274 0.0
C1630 C 0.59731 0.30067 0.88499 0.0
C1631 C 0.59142 0.28152 0.87595 0.0
H1632 H 0.29358 0.58228 0.89983 0.0
H1633 H 0.29912 0.6385 0.86263 0.0
H1634 H 0.26162 0.64549 0.86733 0.0
H1635 H 0.22747 0.63558 0.88239 0.0
H1636 H 0.2225 0.57859 0.91867 0.0
H1637 H 0.2597 0.57185 0.91374 0.0
C1638 C 0.28664 0.59616 0.89285 0.0
C1639 C 0.29905 0.61 0.8811 0.0
C1640 C 0.26521 0.59985 0.89534 0.0
C1641 C 0.2898 0.62768 0.87181 0.0
C1642 C 0.26842 0.63165 0.87449 0.0
C1643 C 0.23453 0.62168 0.88917 0.0
C1644 C 0.22226 0.60767 0.90095 0.0
C1645 C 0.25598 0.61783 0.88625 0.0
C1646 C 0.23158 0.58965 0.90954 0.0
C1647 C 0.25287 0.58579 0.9068 0.0
H1648 H 0.86179 0.27377 0.61965 0.0
H1649 H 0.91265 0.27684 0.57512 0.0
H1650 H 0.92251 0.24085 0.58349 0.0
H1651 H 0.91664 0.20857 0.60318 0.0
H1652 H 0.8664 0.20531 0.64833 0.0
H1653 H 0.85634 0.24143 0.64001 0.0
C1654 C 0.87499 0.26653 0.61175 0.0
C1655 C 0.88644 0.27792 0.59675 0.0
C1656 C 0.88068 0.24586 0.61674 0.0
C1657 C 0.90363 0.26843 0.58678 0.0
C1658 C 0.90926 0.24783 0.59151 0.0
C1659 C 0.90342 0.21571 0.61114 0.0
C1660 C 0.89218 0.20428 0.62624 0.0
C1661 C 0.89787 0.23642 0.60641 0.0
C1662 C 0.8753 0.21383 0.63666 0.0
C1663 C 0.86952 0.23444 0.63188 0.0
H1664 H 0.22343 0.86348 0.62094 0.0
H1665 H 0.21235 0.9203 0.58578 0.0
H1666 H 0.24886 0.93045 0.59011 0.0
H1667 H 0.2839 0.92302 0.6032 0.0
H1668 H 0.29534 0.86718 0.63957 0.0
H1669 H 0.25858 0.85676 0.63547 0.0
C1670 C 0.22905 0.87807 0.61424 0.0
C1671 C 0.21527 0.89107 0.60299 0.0
C1672 C 0.25004 0.88394 0.61695 0.0
C1673 C 0.22264 0.91005 0.59459 0.0
C1674 C 0.24352 0.91585 0.59698 0.0
C1675 C 0.27837 0.90851 0.61014 0.0
C1676 C 0.29222 0.89572 0.62144 0.0
C1677 C 0.25734 0.90286 0.60799 0.0
C1678 C 0.28485 0.8772 0.63076 0.0
C1679 C 0.26391 0.87125 0.62839 0.0
H1680 H 0.6419 0.22585 0.61941 0.0
H1681 H 0.57781 0.20925 0.6047 0.0
H1682 H 0.56657 0.24474 0.61222 0.0
H1683 H 0.57514 0.2812 0.61941 0.0
H1684 H 0.63835 0.29859 0.63544 0.0
H1685 H 0.64976 0.26201 0.63107 0.0
C1686 C 0.62545 0.22993 0.6181 0.0
C1687 C 0.61086 0.21494 0.61107 0.0
C1688 C 0.61894 0.25051 0.62248 0.0
C1689 C 0.58952 0.22044 0.6098 0.0
C1690 C 0.58299 0.24079 0.61406 0.0
C1691 C 0.59138 0.27687 0.62212 0.0
C1692 C 0.60603 0.29231 0.62733 0.0
C1693 C 0.59763 0.25603 0.61979 0.0
C1694 C 0.62692 0.28674 0.63129 0.0
C1695 C 0.6334 0.26592 0.62872 0.0
H1696 H 0.20746 0.63146 0.64088 0.0
H1697 H 0.20723 0.57735 0.60011 0.0
H1698 H 0.24236 0.58597 0.58799 0.0
H1699 H 0.273 0.60853 0.58899 0.0
H1700 H 0.27384 0.663 0.62922 0.0
H1701 H 0.23842 0.65467 0.64142 0.0
C1702 C 0.21516 0.62157 0.62938 0.0
C1703 C 0.20481 0.60381 0.62141 0.0
C1704 C 0.23535 0.6267 0.62233 0.0
C1705 C 0.21484 0.59118 0.60641 0.0
C1706 C 0.23493 0.59606 0.59948 0.0
C1707 C 0.2655 0.61863 0.60044 0.0
C1708 C 0.27607 0.6363 0.60826 0.0
C1709 C 0.2453 0.61376 0.60733 0.0
C1710 C 0.26601 0.6493 0.62294 0.0
C1711 C 0.2458 0.64451 0.62996 0.0
H1712 H 0.88627 0.85936 0.20872 0.0
H1713 H 0.91834 0.91742 0.19512 0.0
H1714 H 0.90699 0.93191 0.22848 0.0
H1715 H 0.89154 0.92675 0.26319 0.0
H1716 H 0.85895 0.86928 0.27728 0.0
H1717 H 0.86685 0.85588 0.24209 0.0
C1718 C 0.89049 0.87529 0.21294 0.0
C1719 C 0.90331 0.88718 0.19948 0.0
C1720 C 0.88405 0.88353 0.23235 0.0
C1721 C 0.90844 0.9079 0.20506 0.0
C1722 C 0.9021 0.91618 0.22427 0.0
C1723 C 0.88598 0.91138 0.25842 0.0
C1724 C 0.87498 0.89886 0.27276 0.0
C1725 C 0.89048 0.90391 0.23827 0.0
C1726 C 0.86749 0.87915 0.26642 0.0
C1727 C 0.87209 0.87147 0.24637 0.0
H1728 H 0.58334 0.90177 0.28518 0.0
H1729 H 0.63861 0.86341 0.29209 0.0
H1730 H 0.64731 0.86882 0.25516 0.0
H1731 H 0.639 0.8843 0.22091 0.0
H1732 H 0.5828 0.92144 0.21394 0.0
H1733 H 0.57459 0.91647 0.25087 0.0
C1734 C 0.59739 0.89476 0.27862 0.0
C1735 C 0.61042 0.88238 0.29128 0.0
C1736 C 0.60202 0.89755 0.25735 0.0
C1737 C 0.62836 0.87304 0.28257 0.0
C1738 C 0.63333 0.87611 0.26149 0.0
C1739 C 0.62494 0.89127 0.22746 0.0
C1740 C 0.61157 0.90323 0.21468 0.0
C1741 C 0.62021 0.88827 0.24872 0.0
C1742 C 0.59333 0.91206 0.22338 0.0
C1743 C 0.58865 0.90933 0.24454 0.0
H1744 H 0.62812 0.64754 0.20933 0.0
H1745 H 0.57956 0.60204 0.19703 0.0
H1746 H 0.58063 0.59047 0.23331 0.0
H1747 H 0.59648 0.59185 0.26802 0.0
H1748 H 0.64617 0.63603 0.28051 0.0
H1749 H 0.64351 0.64952 0.24479 0.0
C1750 C 0.61769 0.63524 0.21471 0.0
C1751 C 0.60392 0.62558 0.20053 0.0
C1752 C 0.61865 0.62831 0.23559 0.0
C1753 C 0.59052 0.60956 0.2076 0.0
C1754 C 0.59106 0.60294 0.22836 0.0
C1755 C 0.60662 0.60455 0.263 0.0
C1756 C 0.62152 0.61287 0.27685 0.0
C1757 C 0.60526 0.61198 0.24241 0.0
C1758 C 0.63463 0.62925 0.27007 0.0
C1759 C 0.63312 0.637 0.24966 0.0
H1760 H 0.88525 0.63896 0.27389 0.0
H1761 H 0.93767 0.59611 0.27538 0.0
H1762 H 0.93394 0.58966 0.23798 0.0
H1763 H 0.91517 0.59497 0.20539 0.0
H1764 H 0.86167 0.6364 0.20338 0.0
H1765 H 0.86657 0.64479 0.24051 0.0
C1766 C 0.89588 0.62832 0.26594 0.0
C1767 C 0.9116 0.61793 0.27732 0.0
C1768 C 0.89348 0.62443 0.24443 0.0
C1769 C 0.92527 0.6041 0.26696 0.0
C1770 C 0.92322 0.60046 0.24558 0.0
C1771 C 0.90466 0.60601 0.21295 0.0
C1772 C 0.88808 0.61503 0.20168 0.0
C1773 C 0.90729 0.61038 0.23424 0.0
C1774 C 0.87453 0.62918 0.21179 0.0
C1775 C 0.8773 0.63396 0.23299 0.0
H1776 H 0.10376 0.64918 0.03903 0.0
H1777 H 0.12494 0.58683 0.05439 0.0
H1778 H 0.13448 0.58079 0.01765 0.0
H1779 H 0.13888 0.5942 0.98166 0.0
H1780 H 0.11871 0.65717 0.96699 0.0
H1781 H 0.10653 0.66191 0.0029 0.0
C1782 C 0.1103 0.63419 0.0343 0.0
C1783 C 0.11371 0.61848 0.04937 0.0
C1784 C 0.11595 0.63097 0.01327 0.0
C1785 C 0.12219 0.59916 0.04305 0.0
C1786 C 0.12767 0.59573 0.02206 0.0
C1787 C 0.13149 0.60884 0.98621 0.0
C1788 C 0.12971 0.6253 0.97157 0.0
C1789 C 0.12488 0.61164 0.00708 0.0
C1790 C 0.12033 0.64424 0.97788 0.0
C1791 C 0.11339 0.647 0.99845 0.0
H1792 H 0.82902 0.09369 0.03919 0.0
H1793 H 0.89591 0.09507 0.04862 0.0
H1794 H 0.90125 0.10234 0.01138 0.0
H1795 H 0.88679 0.11155 0.97697 0.0
H1796 H 0.8197 0.1112 0.96776 0.0
H1797 H 0.81465 0.10005 0.00394 0.0
C1798 C 0.84477 0.09526 0.03301 0.0
C1799 C 0.86205 0.09395 0.04664 0.0
C1800 C 0.8477 0.09976 0.01162 0.0
C1801 C 0.88237 0.09604 0.03844 0.0
C1802 C 0.88542 0.10027 0.01715 0.0
C1803 C 0.87104 0.10875 0.9827 0.0
C1804 C 0.85368 0.11242 0.96953 0.0
C1805 C 0.86818 0.10265 0.00369 0.0
C1806 C 0.83342 0.10862 0.97742 0.0
C1807 C 0.83047 0.10229 0.9982 0.0
H1808 H 0.38728 0.83484 0.97043 0.0
H1809 H 0.39037 0.90239 0.96676 0.0
H1810 H 0.40305 0.90414 0.00269 0.0
H1811 H 0.40971 0.88687 0.03638 0.0
H1812 H 0.40583 0.81949 0.0406 0.0
H1813 H 0.39724 0.81727 0.00334 0.0
C1814 C 0.39115 0.84989 0.97736 0.0
C1815 C 0.38769 0.86844 0.96598 0.0
C1816 C 0.3981 0.85086 0.99826 0.0
C1817 C 0.39267 0.88785 0.97524 0.0
C1818 C 0.39991 0.88891 0.99582 0.0
C1819 C 0.4073 0.87171 0.02903 0.0
C1820 C 0.40823 0.85341 0.04117 0.0
C1821 C 0.4021 0.87057 0.00768 0.0
C1822 C 0.40512 0.83382 0.03152 0.0
C1823 C 0.40015 0.83254 0.01024 0.0
H1824 H 0.60873 0.3973 0.03998 0.0
H1825 H 0.67418 0.38147 0.0343 0.0
H1826 H 0.66953 0.3741 0.99701 0.0
H1827 H 0.64695 0.37297 0.96583 0.0
H1828 H 0.58152 0.38869 0.9715 0.0
H1829 H 0.58606 0.39542 0.00878 0.0
C1830 C 0.62192 0.39215 0.03057 0.0
C1831 C 0.64175 0.38997 0.03986 0.0
C1832 C 0.61917 0.38805 0.00907 0.0
C1833 C 0.65874 0.38329 0.0275 0.0
C1834 C 0.65611 0.37911 0.00615 0.0
C1835 C 0.63373 0.37784 0.97514 0.0
C1836 C 0.614 0.38025 0.9657 0.0
C1837 C 0.63643 0.38159 0.99671 0.0
C1838 C 0.59697 0.38665 0.97822 0.0
C1839 C 0.59951 0.39049 0.99963 0.0
H1840 H 0.11253 0.84684 0.53324 0.0
H1841 H 0.13263 0.91141 0.53032 0.0
H1842 H 0.1221 0.91331 0.49364 0.0
H1843 H 0.10922 0.89587 0.4615 0.0
H1844 H 0.0884 0.8316 0.46498 0.0
H1845 H 0.09708 0.83041 0.50214 0.0
C1846 C 0.11442 0.8614 0.52466 0.0
C1847 C 0.12345 0.87889 0.53456 0.0
C1848 C 0.1083 0.86243 0.50353 0.0
C1849 C 0.12564 0.89768 0.52318 0.0
C1850 C 0.11972 0.89878 0.50211 0.0
C1851 C 0.10641 0.88172 0.4705 0.0
C1852 C 0.09833 0.86384 0.4605 0.0
C1853 C 0.11134 0.88115 0.492 0.0
C1854 C 0.09465 0.8456 0.47231 0.0
C1855 C 0.09965 0.84486 0.49358 0.0
H1856 H 0.66288 0.10051 0.46511 0.0
H1857 H 0.59677 0.1046 0.45171 0.0
H1858 H 0.58983 0.11503 0.48796 0.0
H1859 H 0.60275 0.12473 0.52283 0.0
H1860 H 0.66901 0.12117 0.53618 0.0
H1861 H 0.67565 0.10861 0.50064 0.0
C1862 C 0.64694 0.10353 0.4702 0.0
C1863 C 0.63035 0.10187 0.45578 0.0
C1864 C 0.64311 0.10964 0.49103 0.0
C1865 C 0.60978 0.10579 0.46254 0.0
C1866 C 0.60582 0.11179 0.48324 0.0
C1867 C 0.61864 0.12103 0.51808 0.0
C1868 C 0.63534 0.12396 0.53223 0.0
C1869 C 0.62239 0.11401 0.49755 0.0
C1870 C 0.65582 0.11905 0.52571 0.0
C1871 C 0.65966 0.11193 0.50533 0.0
H1872 H 0.39945 0.61968 0.46853 0.0
H1873 H 0.38943 0.68546 0.45657 0.0
H1874 H 0.37698 0.69037 0.49263 0.0
H1875 H 0.36652 0.67514 0.52676 0.0
H1876 H 0.37578 0.6089 0.5375 0.0
H1877 H 0.39104 0.60502 0.50278 0.0
C1878 C 0.39475 0.63514 0.47388 0.0
C1879 C 0.39526 0.65216 0.45999 0.0
C1880 C 0.38737 0.63772 0.4944 0.0
C1881 C 0.38916 0.67211 0.46707 0.0
C1882 C 0.38199 0.6749 0.48764 0.0
C1883 C 0.37218 0.65995 0.52159 0.0
C1884 C 0.36989 0.64232 0.53467 0.0
C1885 C 0.38068 0.65771 0.50135 0.0
C1886 C 0.37715 0.62269 0.52769 0.0
C1887 C 0.38591 0.62044 0.50783 0.0
H1888 H 0.8841 0.39736 0.45545 0.0
H1889 H 0.81665 0.3931 0.45394 0.0
H1890 H 0.8162 0.38175 0.49042 0.0
H1891 H 0.83495 0.37097 0.52198 0.0
H1892 H 0.90247 0.37513 0.52397 0.0
H1893 H 0.90285 0.38892 0.4883 0.0
C1894 C 0.86933 0.39408 0.46321 0.0
C1895 C 0.85046 0.39587 0.45202 0.0
C1896 C 0.86918 0.38757 0.48428 0.0
C1897 C 0.8314 0.39173 0.46223 0.0
C1898 C 0.83112 0.38524 0.48309 0.0
C1899 C 0.84978 0.37506 0.51474 0.0
C1900 C 0.86865 0.37181 0.52567 0.0
C1901 C 0.84992 0.3828 0.49417 0.0
C1902 C 0.88767 0.37745 0.51601 0.0
C1903 C 0.88793 0.38523 0.49552 0.0
H1904 H 0.97371 0.12233 0.67757 0.0
H1905 H 0.9687 0.10242 0.61303 0.0
H1906 H 0.00521 0.09109 0.61349 0.0
H1907 H 0.03952 0.08967 0.63123 0.0
H1908 H 0.04456 0.1106 0.69531 0.0
H1909 H 0.00713 0.11859 0.696 0.0
C1910 C 0.98042 0.11519 0.66367 0.0
C1911 C 0.96838 0.11339 0.64525 0.0
C1912 C 0.00158 0.10907 0.66387 0.0
C1913 C 0.97753 0.10414 0.62742 0.0
C1914 C 0.99848 0.09769 0.62763 0.0
C1915 C 0.03233 0.09576 0.64539 0.0
C1916 C 0.04477 0.09968 0.66314 0.0
C1917 C 0.0108 0.10055 0.6456 0.0
C1918 C 0.03531 0.10755 0.68141 0.0
C1919 C 0.01391 0.11213 0.68181 0.0
H1920 H 0.37882 0.98018 0.66319 0.0
H1921 H 0.38222 0.97915 0.59559 0.0
H1922 H 0.39179 0.01619 0.59537 0.0
H1923 H 0.39676 0.04967 0.61429 0.0
H1924 H 0.39297 0.05031 0.68178 0.0
H1925 H 0.38594 0.01271 0.68206 0.0
C1926 C 0.38188 0.98791 0.64837 0.0
C1927 C 0.37963 0.97679 0.62944 0.0
C1928 C 0.38711 0.00929 0.64831 0.0
C1929 C 0.38378 0.98722 0.61044 0.0
C1930 C 0.38916 0.00848 0.61027 0.0
C1931 C 0.39452 0.0415 0.62902 0.0
C1932 C 0.39522 0.05273 0.64796 0.0
C1933 C 0.39045 0.0198 0.62908 0.0
C1934 C 0.39241 0.042 0.66697 0.0
C1935 C 0.38839 0.0205 0.66716 0.0
H1936 H 0.46535 0.41978 0.65536 0.0
H1937 H 0.44786 0.39755 0.59398 0.0
H1938 H 0.48353 0.38454 0.58828 0.0
H1939 H 0.5188 0.37713 0.60189 0.0
H1940 H 0.53569 0.39833 0.66394 0.0
H1941 H 0.50119 0.41422 0.66814 0.0
C1942 C 0.46943 0.41232 0.64063 0.0
C1943 C 0.45404 0.40956 0.62512 0.0
C1944 C 0.48983 0.4046 0.63763 0.0
C1945 C 0.45948 0.39983 0.60614 0.0
C1946 C 0.47984 0.39235 0.60291 0.0
C1947 C 0.51509 0.38549 0.61623 0.0
C1948 C 0.52989 0.38643 0.63259 0.0
C1949 C 0.49504 0.39431 0.61871 0.0
C1950 C 0.52466 0.39725 0.65109 0.0
C1951 C 0.50488 0.40633 0.65354 0.0
H1952 H 0.11509 0.52975 0.67724 0.0
H1953 H 0.10949 0.53068 0.60976 0.0
H1954 H 0.09689 0.49474 0.60999 0.0
H1955 H 0.08973 0.46192 0.62895 0.0
H1956 H 0.09424 0.461 0.69633 0.0
H1957 H 0.10488 0.49784 0.69648 0.0
C1958 C 0.11088 0.52222 0.66259 0.0
C1959 C 0.11349 0.53306 0.64353 0.0
C1960 C 0.10357 0.50136 0.66275 0.0
C1961 C 0.10778 0.5229 0.62474 0.0
C1962 C 0.10061 0.50221 0.62479 0.0
C1963 C 0.09286 0.46988 0.64365 0.0
C1964 C 0.09136 0.45874 0.66257 0.0
C1965 C 0.09882 0.49113 0.64364 0.0
C1966 C 0.09532 0.46925 0.68154 0.0
C1967 C 0.10145 0.49031 0.68164 0.0
H1968 H 0.0193 0.41063 0.87591 0.0
H1969 H 0.03201 0.38312 0.8155 0.0
H1970 H 0.99538 0.37189 0.81265 0.0
H1971 H 0.96119 0.36576 0.82975 0.0
H1972 H 0.94991 0.3912 0.89138 0.0
H1973 H 0.98438 0.40777 0.89123 0.0
C1974 C 0.01395 0.40248 0.86197 0.0
C1975 C 0.02826 0.39745 0.84606 0.0
C1976 C 0.99313 0.39568 0.86073 0.0
C1977 C 0.02121 0.38702 0.82801 0.0
C1978 C 1.00031 0.38056 0.82641 0.0
C1979 C 0.9661 0.37546 0.84284 0.0
C1980 C 0.95316 0.3773 0.86057 0.0
C1981 C 0.9863 0.38423 0.84299 0.0
C1982 C 0.95972 0.38958 0.87761 0.0
C1983 C 0.97944 0.39895 0.87758 0.0
H1984 H 0.12789 0.97206 0.90029 0.0
H1985 H 0.11947 0.95962 0.83426 0.0
H1986 H 0.10708 0.99539 0.82895 0.0
H1987 H 0.10021 0.03075 0.84265 0.0
H1988 H 0.10881 0.04344 0.90847 0.0
H1989 H 0.11954 0.00701 0.91426 0.0
C1990 C 0.12313 0.97705 0.88476 0.0
C1991 C 0.12462 0.96306 0.86773 0.0
C1992 C 0.11619 0.99776 0.88174 0.0
C1993 C 0.11843 0.96994 0.84772 0.0
C1994 C 0.11141 0.99046 0.84462 0.0
C1995 C 0.10434 0.02549 0.85828 0.0
C1996 C 0.10383 0.03972 0.87511 0.0
C1997 C 0.11049 0.00458 0.86146 0.0
C1998 C 0.10913 0.03274 0.89528 0.0
C1999 C 0.11527 0.01194 0.89858 0.0
H2000 H 0.46447 0.1013 0.83653 0.0
H2001 H 0.44656 0.11805 0.89949 0.0
H2002 H 0.48178 0.13191 0.90604 0.0
H2003 H 0.51742 0.14026 0.89344 0.0
H2004 H 0.53489 0.12374 0.83016 0.0
H2005 H 0.50022 0.10884 0.82424 0.0
C2006 C 0.46832 0.10786 0.85174 0.0
C2007 C 0.45292 0.10861 0.86752 0.0
C2008 C 0.48856 0.11592 0.85532 0.0
C2009 C 0.45814 0.11723 0.88711 0.0
C2010 C 0.47827 0.1252 0.89083 0.0
C2011 C 0.51372 0.13329 0.87839 0.0
C2012 C 0.52891 0.13314 0.86231 0.0
C2013 C 0.49359 0.12477 0.875 0.0
C2014 C 0.52367 0.12407 0.84289 0.0
C2015 C 0.50377 0.11555 0.83945 0.0
H2016 H 0.37005 0.52524 0.83172 0.0
H2017 H 0.40267 0.53061 0.89073 0.0
H2018 H 0.41012 0.49296 0.89016 0.0
H2019 H 0.40472 0.45794 0.87427 0.0
H2020 H 0.37021 0.45296 0.81636 0.0
H2021 H 0.36611 0.49098 0.81518 0.0
C2022 C 0.37919 0.51833 0.84427 0.0
C2023 C 0.38583 0.53081 0.86122 0.0
C2024 C 0.38278 0.49661 0.84421 0.0
C2025 C 0.39737 0.52141 0.87747 0.0
C2026 C 0.40154 0.49984 0.87722 0.0
C2027 C 0.39642 0.46525 0.86137 0.0
C2028 C 0.38765 0.45269 0.84551 0.0
C2029 C 0.39386 0.48719 0.86093 0.0
C2030 C 0.37695 0.4623 0.82885 0.0
C2031 C 0.37465 0.48405 0.82812 0.0
H2032 H 0.60297 0.9842 0.12681 0.0
H2033 H 0.66874 0.9697 0.1198 0.0
H2034 H 0.67564 0.00566 0.10879 0.0
H2035 H 0.66331 0.04162 0.10243 0.0
H2036 H 0.5978 0.05641 0.10997 0.0
H2037 H 0.59048 0.01993 0.11949 0.0
C2038 C 0.61879 0.9888 0.12266 0.0
C2039 C 0.63528 0.97416 0.12409 0.0
C2040 C 0.62272 0.00962 0.11656 0.0
C2041 C 0.6557 0.98054 0.11879 0.0
C2042 C 0.6597 1.00116 0.11254 0.0
C2043 C 0.64742 0.03681 0.10607 0.0
C2044 C 0.63111 0.05164 0.10555 0.0
C2045 C 0.64338 0.01587 0.11159 0.0
C2046 C 0.6106 0.04525 0.11029 0.0
C2047 C 0.60643 0.02441 0.11573 0.0
H2048 H 0.66068 0.46924 0.3981 0.0
H2049 H 0.59769 0.45184 0.38092 0.0
H2050 H 0.59066 0.48777 0.36946 0.0
H2051 H 0.60289 0.52369 0.36278 0.0
H2052 H 0.66615 0.54106 0.37933 0.0
H2053 H 0.67249 0.50574 0.3927 0.0
C2054 C 0.64537 0.47337 0.39198 0.0
C2055 C 0.62972 0.45787 0.39032 0.0
C2056 C 0.64149 0.49408 0.38528 0.0
C2057 C 0.60999 0.46346 0.38234 0.0
C2058 C 0.60597 0.48401 0.37577 0.0
C2059 C 0.61802 0.51988 0.36951 0.0
C2060 C 0.63399 0.53516 0.37 0.0
C2061 C 0.62166 0.49941 0.37696 0.0
C2062 C 0.6535 0.52975 0.37876 0.0
C2063 C 0.65719 0.50947 0.38635 0.0
H2064 H 0.03643 0.6636 0.40897 0.0
H2065 H 0.0552 0.60037 0.39394 0.0
H2066 H 0.01971 0.59255 0.38157 0.0
H2067 H 0.98427 0.60462 0.37248 0.0
H2068 H 0.96605 0.66838 0.38649 0.0
H2069 H 1.00033 0.67496 0.40205 0.0
C2070 C 0.03268 0.64805 0.40318 0.0
C2071 C 0.04838 0.6326 0.40224 0.0
C2072 C 0.01236 0.64378 0.3959 0.0
C2073 C 0.04335 0.61251 0.39476 0.0
C2074 C 0.02308 0.60806 0.38767 0.0
C2075 C 0.98762 0.61985 0.37928 0.0
C2076 C 0.97254 0.63599 0.37823 0.0
C2077 C 0.00756 0.62369 0.38782 0.0
C2078 C 0.97731 0.65567 0.38699 0.0
C2079 C 0.99697 0.65949 0.39584 0.0
H2080 H 0.88782 0.04123 0.39391 0.0
H2081 H 0.82357 0.03325 0.41328 0.0
H2082 H 0.82358 0.99742 0.39979 0.0
H2083 H 0.8411 0.96906 0.38052 0.0
H2084 H 0.90553 0.9769 0.36131 0.0
H2085 H 0.90619 0.01178 0.37683 0.0
C2086 C 0.87393 0.03153 0.39536 0.0
C2087 C 0.85572 0.03988 0.40447 0.0
C2088 C 0.87402 0.01087 0.38752 0.0
C2089 C 0.83781 0.02717 0.40629 0.0
C2090 C 0.83777 0.00668 0.39854 0.0
C2091 C 0.85537 0.97827 0.3799 0.0
C2092 C 0.87317 0.97027 0.36962 0.0
C2093 C 0.85568 0.99846 0.38882 0.0
C2094 C 0.89154 0.98252 0.36909 0.0
C2095 C 0.89195 0.00259 0.37792 0.0
H2096 H 0.47041 0.82161 0.40118 0.0
H2097 H 0.45261 0.88683 0.3998 0.0
H2098 H 0.4886 0.89669 0.39079 0.0
H2099 H 0.52479 0.88657 0.38168 0.0
H2100 H 0.54237 0.82114 0.38341 0.0
H2101 H 0.507 0.8117 0.39413 0.0
C2102 C 0.47445 0.83799 0.399 0.0
C2103 C 0.45886 0.85347 0.40102 0.0
C2104 C 0.49519 0.84354 0.39393 0.0
C2105 C 0.46433 0.87463 0.39829 0.0
C2106 C 0.48491 0.88027 0.39313 0.0
C2107 C 0.52101 0.87026 0.38468 0.0
C2108 C 0.53639 0.85464 0.38167 0.0
C2109 C 0.50046 0.86484 0.39072 0.0
C2110 C 0.53101 0.83358 0.38558 0.0
C2111 C 0.51068 0.8281 0.39164 0.0
H2112 H 0.90083 0.52565 0.12124 0.0
H2113 H 0.83643 0.53992 0.10607 0.0
H2114 H 0.83063 0.50339 0.09598 0.0
H2115 H 0.84339 0.46695 0.09312 0.0
H2116 H 0.90738 0.4527 0.10956 0.0
H2117 H 0.9138 0.48969 0.11747 0.0
C2118 C 0.88557 0.52091 0.11547 0.0
C2119 C 0.86913 0.53564 0.11437 0.0
C2120 C 0.88223 0.4998 0.11006 0.0
C2121 C 0.84941 0.52901 0.10705 0.0
C2122 C 0.84605 0.50807 0.10133 0.0
C2123 C 0.85877 0.472 0.0983 0.0
C2124 C 0.87491 0.45715 0.10077 0.0
C2125 C 0.86227 0.49328 0.10304 0.0
C2126 C 0.89473 0.46385 0.10755 0.0
C2127 C 0.89839 0.48499 0.11208 0.0
H2128 H 0.04149 0.87958 0.09708 0.0
H2129 H 0.04246 0.82032 0.12946 0.0
H2130 H 0.0052 0.8242 0.13819 0.0
H2131 H 0.97206 0.84485 0.13658 0.0
H2132 H 0.97217 0.90394 0.10355 0.0
H2133 H 0.00891 0.89961 0.0951 0.0
C2134 C 0.03356 0.86751 0.10605 0.0
C2135 C 0.04474 0.84973 0.11262 0.0
C2136 C 0.01216 0.86979 0.11089 0.0
C2137 C 0.03419 0.83419 0.12419 0.0
C2138 C 0.01286 0.8364 0.12918 0.0
C2139 C 0.9801 0.85671 0.12753 0.0
C2140 C 0.96916 0.87475 0.12089 0.0
C2141 C 0.00161 0.85417 0.1226 0.0
C2142 C 0.98001 0.88993 0.10906 0.0
C2143 C 0.00115 0.88751 0.10415 0.0
H2144 H 0.53918 0.66958 0.11982 0.0
H2145 H 0.544 0.60557 0.09828 0.0
H2146 H 0.50644 0.60484 0.09114 0.0
H2147 H 0.47184 0.62188 0.09229 0.0
H2148 H 0.46677 0.68546 0.11484 0.0
H2149 H 0.50462 0.68678 0.12057 0.0
C2150 C 0.53206 0.6556 0.11324 0.0
C2151 C 0.54442 0.63772 0.10945 0.0
C2152 C 0.5103 0.65509 0.10966 0.0
C2153 C 0.53487 0.61959 0.10129 0.0
C2154 C 0.51335 0.61911 0.09728 0.0
C2155 C 0.47906 0.63599 0.09846 0.0
C2156 C 0.46656 0.6535 0.10318 0.0
C2157 C 0.50086 0.63665 0.10168 0.0
C2158 C 0.47608 0.67173 0.11113 0.0
C2159 C 0.49774 0.67253 0.11435 0.0
H2160 H 0.8793 0.32993 0.0297 0.0
H2161 H 0.89697 0.39531 0.03097 0.0
H2162 H 0.90668 0.39356 0.99401 0.0
H2163 H 0.90736 0.37419 0.96049 0.0
H2164 H 0.88846 0.30925 0.9593 0.0
H2165 H 0.88204 0.31012 0.997 0.0
C2166 C 0.88565 0.34373 0.02206 0.0
C2167 C 0.88732 0.36274 0.03318 0.0
C2168 C 0.89073 0.34277 0.00067 0.0
C2169 C 0.89544 0.38046 0.02285 0.0
C2170 C 0.90092 0.37952 0.00165 0.0
C2171 C 0.90201 0.36022 0.96856 0.0
C2172 C 0.89825 0.34174 0.95715 0.0
C2173 C 0.89815 0.36089 0.99027 0.0
C2174 C 0.89136 0.32371 0.96775 0.0
C2175 C 0.8877 0.32418 0.98931 0.0
H2176 H 0.16434 0.87354 0.03374 0.0
H2177 H 0.09705 0.86679 0.03181 0.0
H2178 H 0.09668 0.87937 0.99564 0.0
H2179 H 0.11578 0.89072 0.96374 0.0
H2180 H 0.18311 0.89635 0.96603 0.0
H2181 H 0.18309 0.88586 0.00275 0.0
C2182 C 0.14952 0.87501 0.02556 0.0
C2183 C 0.13076 0.86921 0.03564 0.0
C2184 C 0.14943 0.88198 0.00467 0.0
C2185 C 0.11177 0.87114 0.02457 0.0
C2186 C 0.11153 0.8783 0.00381 0.0
C2187 C 0.13039 0.88981 0.97238 0.0
C2188 C 0.14942 0.89429 0.96216 0.0
C2189 C 0.1303 0.88353 0.99358 0.0
C2190 C 0.16825 0.89297 0.97351 0.0
C2191 C 0.16826 0.88695 0.99453 0.0
H2192 H 0.6156 0.17369 0.02907 0.0
H2193 H 0.61889 0.106 0.02886 0.0
H2194 H 0.60576 0.10514 0.99312 0.0
H2195 H 0.5955 0.12356 0.96077 0.0
H2196 H 0.59125 0.19105 0.9611 0.0
H2197 H 0.6024 0.19195 0.9977 0.0
C2198 C 0.61324 0.15873 0.02132 0.0
C2199 C 0.61842 0.13998 0.03179 0.0
C2200 C 0.60557 0.15826 1.0006 0.0
C2201 C 0.6151 0.12076 0.02137 0.0
C2202 C 0.60763 0.12019 0.0008 0.0
C2203 C 0.59679 0.13842 0.96896 0.0
C2204 C 0.59267 0.15719 0.9582 0.0
C2205 C 0.60314 0.13884 0.99011 0.0
C2206 C 0.59433 0.17635 0.96902 0.0
C2207 C 0.60078 0.1769 0.98996 0.0
H2208 H 0.39916 0.60385 0.95973 0.0
H2209 H 0.33249 0.59288 0.9599 0.0
H2210 H 0.33051 0.60299 0.99673 0.0
H2211 H 0.34732 0.61748 0.02818 0.0
H2212 H 0.41431 0.62747 0.02816 0.0
H2213 H 0.41651 0.61495 0.9923 0.0
C2214 C 0.38428 0.60349 0.96795 0.0
C2215 C 0.36601 0.59785 0.95715 0.0
C2216 C 0.38325 0.60918 0.98919 0.0
C2217 C 0.3468 0.59724 0.96792 0.0
C2218 C 0.34562 0.60306 0.98898 0.0
C2219 C 0.36244 0.61667 0.02046 0.0
C2220 C 0.38052 0.62369 0.03091 0.0
C2221 C 0.3637 0.60943 0.99969 0.0
C2222 C 0.40002 0.62232 0.0206 0.0
C2223 C 0.40136 0.61521 0.99997 0.0
H2224 H 0.90376 0.15884 0.54276 0.0
H2225 H 0.89291 0.09336 0.55568 0.0
H2226 H 0.88234 0.08766 0.51924 0.0
H2227 H 0.87391 0.10181 0.48443 0.0
H2228 H 0.88329 0.16773 0.47203 0.0
H2229 H 0.89687 0.17267 0.50744 0.0
C2230 C 0.89928 0.14328 0.53752 0.0
C2231 C 0.89906 0.12654 0.55186 0.0
C2232 C 0.89291 0.14022 0.51664 0.0
C2233 C 0.89317 0.10649 0.54491 0.0
C2234 C 0.88711 0.10324 0.52409 0.0
C2235 C 0.87924 0.1172 0.48932 0.0
C2236 C 0.87755 0.13436 0.4755 0.0
C2237 C 0.88662 0.12005 0.5099 0.0
C2238 C 0.88434 0.15423 0.48228 0.0
C2239 C 0.89208 0.1571 0.50258 0.0
H2240 H 0.34168 0.87289 0.47182 0.0
H2241 H 0.40553 0.85166 0.47949 0.0
H2242 H 0.40706 0.86782 0.51397 0.0
H2243 H 0.39001 0.88694 0.54273 0.0
H2244 H 0.32631 0.90825 0.53535 0.0
H2245 H 0.32508 0.8933 0.50008 0.0
C2246 C 0.35596 0.87187 0.48098 0.0
C2247 C 0.37341 0.861 0.47298 0.0
C2248 C 0.35681 0.88126 0.50093 0.0
C2249 C 0.3918 0.85991 0.48514 0.0
C2250 C 0.39274 0.86915 0.50494 0.0
C2251 C 0.37595 0.88848 0.53329 0.0
C2252 C 0.3583 0.89865 0.54158 0.0
C2253 C 0.37531 0.87974 0.51307 0.0
C2254 C 0.34014 0.90049 0.52926 0.0
C2255 C 0.33939 0.8919 0.50911 0.0
H2256 H 0.59209 0.38644 0.53463 0.0
H2257 H 0.59318 0.31886 0.53714 0.0
H2258 H 0.60364 0.31731 0.50034 0.0
H2259 H 0.61518 0.33521 0.46831 0.0
H2260 H 0.6134 0.40289 0.46553 0.0
H2261 H 0.60015 0.40428 0.5013 0.0
C2262 C 0.5944 0.3714 0.52701 0.0
C2263 C 0.59207 0.35281 0.5386 0.0
C2264 C 0.6003 0.37062 0.50577 0.0
C2265 C 0.59493 0.33341 0.52854 0.0
C2266 C 0.60096 0.3325 0.50751 0.0
C2267 C 0.61163 0.35028 0.47538 0.0
C2268 C 0.61551 0.3689 0.46418 0.0
C2269 C 0.60408 0.35102 0.49608 0.0
C2270 C 0.61059 0.38825 0.47365 0.0
C2271 C 0.60312 0.3891 0.49423 0.0
H2272 H 0.10711 0.62662 0.4818 0.0
H2273 H 0.17442 0.62655 0.47428 0.0
H2274 H 0.17858 0.61361 0.50993 0.0
H2275 H 0.16337 0.60396 0.54391 0.0
H2276 H 0.09629 0.60455 0.55198 0.0
H2277 H 0.0918 0.61551 0.51545 0.0
C2278 C 0.1227 0.62358 0.48784 0.0
C2279 C 0.14041 0.62765 0.47524 0.0
C2280 C 0.12505 0.6163 0.50854 0.0
C2281 C 0.16047 0.62365 0.4835 0.0
C2282 C 0.1629 0.61626 0.50396 0.0
C2283 C 0.14776 0.60633 0.53761 0.0
C2284 C 0.13018 0.6035 0.5506 0.0
C2285 C 0.14534 0.61279 0.5167 0.0
C2286 C 0.11006 0.60664 0.54227 0.0
C2287 C 0.1075 0.61294 0.52141 0.0
H2288 H 0.96448 0.91118 0.37178 0.0
H2289 H 0.96341 0.89237 0.30687 0.0
H2290 H 1.00054 0.88314 0.3086 0.0
H2291 H 0.03263 0.87817 0.32914 0.0
H2292 H 0.03387 0.89701 0.39418 0.0
H2293 H 0.99762 0.90883 0.39164 0.0
C2294 C 0.97245 0.90519 0.358 0.0
C2295 C 0.96118 0.90229 0.33928 0.0
C2296 C 0.99389 0.89998 0.35909 0.0
C2297 C 0.97172 0.89467 0.3215 0.0
C2298 C 0.99297 0.88939 0.32247 0.0
C2299 C 0.02517 0.88517 0.34272 0.0
C2300 C 0.03612 0.8865 0.36188 0.0
C2301 C 0.00415 0.8917 0.34127 0.0
C2302 C 0.02598 0.89569 0.37921 0.0
C2303 C 0.00513 0.90237 0.37783 0.0
H2304 H 0.62365 0.02383 0.3941 0.0
H2305 H 0.60993 0.03686 0.32912 0.0
H2306 H 0.59743 1.00098 0.32441 0.0
H2307 H 0.59246 0.96523 0.33811 0.0
H2308 H 0.60744 0.95183 0.4026 0.0
H2309 H 0.61726 0.98855 0.40816 0.0
C2310 C 0.6177 0.01896 0.37894 0.0
C2311 C 0.6178 0.03315 0.36199 0.0
C2312 C 0.61085 0.99816 0.37623 0.0
C2313 C 0.6101 0.02638 0.34247 0.0
C2314 C 0.60297 0.0058 0.33973 0.0
C2315 C 0.59768 0.97041 0.35343 0.0
C2316 C 0.59925 0.95586 0.36993 0.0
C2317 C 0.6036 0.99146 0.3564 0.0
C2318 C 0.6061 0.96275 0.38967 0.0
C2319 C 0.61175 0.98373 0.39283 0.0
H2320 H 0.54077 0.61147 0.37783 0.0
H2321 H 0.53212 0.5952 0.31286 0.0
H2322 H 0.49458 0.60269 0.31568 0.0
H2323 H 0.46367 0.61263 0.33721 0.0
H2324 H 0.47282 0.62776 0.40246 0.0
H2325 H 0.51036 0.62217 0.3989 0.0
C2326 C 0.53066 0.60959 0.36429 0.0
C2327 C 0.53923 0.60267 0.34521 0.0
C2328 C 0.50903 0.61377 0.36607 0.0
C2329 C 0.52591 0.60039 0.32779 0.0
C2330 C 0.50442 0.60471 0.32938 0.0
C2331 C 0.47393 0.61492 0.35054 0.0
C2332 C 0.46532 0.62056 0.37006 0.0
C2333 C 0.49571 0.61127 0.3485 0.0
C2334 C 0.47889 0.62325 0.38726 0.0
C2335 C 0.50045 0.62006 0.38527 0.0
H2336 H 0.90431 0.53821 0.38128 0.0
H2337 H 0.91517 0.535 0.31465 0.0
H2338 H 0.90389 0.49844 0.31417 0.0
H2339 H 0.8883 0.46829 0.33212 0.0
H2340 H 0.87748 0.47132 0.39888 0.0
H2341 H 0.89165 0.50676 0.39986 0.0
C2342 C 0.90442 0.52938 0.36674 0.0
C2343 C 0.91037 0.53929 0.34803 0.0
C2344 C 0.89787 0.50831 0.36655 0.0
C2345 C 0.91057 0.52771 0.32928 0.0
C2346 C 0.90409 0.50681 0.32896 0.0
C2347 C 0.88928 0.47655 0.34695 0.0
C2348 C 0.88161 0.46711 0.36533 0.0
C2349 C 0.89731 0.49707 0.34743 0.0
C2350 C 0.88318 0.47811 0.38442 0.0
C2351 C 0.89122 0.49849 0.38502 0.0
H2352 H 0.03945 0.60839 0.11057 0.0
H2353 H 0.0436 0.61251 0.178 0.0
H2354 H 0.00696 0.60201 0.18105 0.0
H2355 H 0.9729 0.59493 0.16452 0.0
H2356 H 0.96825 0.59256 0.09715 0.0
H2357 H 0.00597 0.59895 0.09413 0.0
C2358 C 0.03251 0.60661 0.12597 0.0
C2359 C 0.04434 0.61133 0.14402 0.0
C2360 C 0.01124 0.60108 0.12761 0.0
C2361 C 0.03491 0.60909 0.16382 0.0
C2362 C 0.01391 0.60313 0.16559 0.0
C2363 C 0.98021 0.59555 0.14918 0.0
C2364 C 0.96785 0.59339 0.13107 0.0
C2365 C 0.00179 0.59962 0.14759 0.0
C2366 C 0.97747 0.59424 0.11131 0.0
C2367 C 0.99901 0.59793 0.10958 0.0
H2368 H 0.89597 0.97478 0.17446 0.0
H2369 H 0.9198 0.97408 0.11117 0.0
H2370 H 0.91094 0.01098 0.10707 0.0
H2371 H 0.89346 0.04248 0.12004 0.0
H2372 H 0.86964 0.04429 0.18321 0.0
H2373 H 0.88173 0.0082 0.18894 0.0
C2374 C 0.89948 0.98284 0.15992 0.0
C2375 C 0.90833 0.97163 0.14306 0.0
C2376 C 0.89428 0.00426 0.15761 0.0
C2377 C 0.91288 0.98228 0.12434 0.0
C2378 C 0.90779 0.00341 0.12195 0.0
C2379 C 0.89121 0.0351 0.13518 0.0
C2380 C 0.88057 0.04599 0.15112 0.0
C2381 C 0.89804 0.0144 0.13827 0.0
C2382 C 0.87792 0.03629 0.17072 0.0
C2383 C 0.88467 0.01557 0.17393 0.0
H2384 H 0.46979 0.89128 0.1073 0.0
H2385 H 0.45826 0.88982 0.17396 0.0
H2386 H 0.49387 0.90223 0.18054 0.0
H2387 H 0.52927 0.91036 0.16745 0.0
H2388 H 0.54085 0.9113 0.10088 0.0
H2389 H 0.50419 0.90226 0.09416 0.0
C2390 C 0.47494 0.89392 0.12328 0.0
C2391 C 0.46136 0.88945 0.14011 0.0
C2392 C 0.49552 0.90078 0.12696 0.0
C2393 C 0.4683 0.89315 0.16069 0.0
C2394 C 0.48874 0.90012 0.16448 0.0
C2395 C 0.52368 0.90881 0.15147 0.0
C2396 C 0.53772 0.91132 0.13466 0.0
C2397 C 0.50263 0.9035 0.14776 0.0
C2398 C 0.53032 0.90939 0.11405 0.0
C2399 C 0.50938 0.90418 0.11022 0.0
H2400 H 0.60765 0.54078 0.1042 0.0
H2401 H 0.63068 0.55108 0.16692 0.0
H2402 H 0.63849 0.51384 0.17053 0.0
H2403 H 0.64043 0.47867 0.15547 0.0
H2404 H 0.61877 0.46795 0.09228 0.0
H2405 H 0.60862 0.50482 0.08938 0.0
C2406 C 0.61432 0.5348 0.11864 0.0
C2407 C 0.61868 0.54869 0.13522 0.0
C2408 C 0.61899 0.51325 0.12057 0.0
C2409 C 0.62729 0.54075 0.15387 0.0
C2410 C 0.63174 0.51942 0.15598 0.0
C2411 C 0.63319 0.48424 0.14114 0.0
C2412 C 0.63035 0.47043 0.12415 0.0
C2413 C 0.62783 0.50555 0.13939 0.0
C2414 C 0.62116 0.47816 0.10565 0.0
C2415 C 0.61541 0.4993 0.10393 0.0
H2416 H 0.33353 0.96445 0.89647 0.0
H2417 H 0.40033 0.95484 0.90012 0.0
H2418 H 0.40635 0.9917 0.89147 0.0
H2419 H 0.3927 0.02619 0.88123 0.0
H2420 H 0.32584 0.03604 0.87779 0.0
H2421 H 0.31979 0.9997 0.88825 0.0
C2422 C 0.34939 0.97049 0.89548 0.0
C2423 C 0.36648 0.95695 0.89879 0.0
C2424 C 0.35272 0.99176 0.89057 0.0
C2425 C 0.38693 0.96496 0.89759 0.0
C2426 C 0.39038 0.98604 0.89263 0.0
C2427 C 0.37678 0.02049 0.88297 0.0
C2428 C 0.35977 0.0339 0.87867 0.0
C2429 C 0.3734 0.99952 0.88887 0.0
C2430 C 0.33926 0.02617 0.88108 0.0
C2431 C 0.33577 0.00532 0.88695 0.0
H2432 H 0.32945 0.48544 0.62926 0.0
H2433 H 0.38982 0.47889 0.59944 0.0
H2434 H 0.38891 0.51583 0.58918 0.0
H2435 H 0.37207 0.55071 0.59098 0.0
H2436 H 0.31251 0.55708 0.62235 0.0
H2437 H 0.31205 0.51955 0.62977 0.0
C2438 C 0.34223 0.49192 0.62012 0.0
C2439 C 0.35963 0.47935 0.61506 0.0
C2440 C 0.34191 0.51328 0.61485 0.0
C2441 C 0.3762 0.48819 0.60351 0.0
C2442 C 0.37575 0.50935 0.59774 0.0
C2443 C 0.359 0.54381 0.59937 0.0
C2444 C 0.34243 0.55662 0.60624 0.0
C2445 C 0.35891 0.52218 0.60375 0.0
C2446 C 0.32552 0.54754 0.61703 0.0
C2447 C 0.32521 0.52607 0.62123 0.0
H2448 H 0.96795 0.33284 0.59638 0.0
H2449 H 0.9451 0.39325 0.61646 0.0
H2450 H 0.97962 0.4018 0.63085 0.0
H2451 H 0.01585 0.39136 0.63927 0.0
H2452 H 0.03831 0.33051 0.61967 0.0
H2453 H 0.00454 0.32301 0.60348 0.0
C2454 C 0.97059 0.34794 0.60377 0.0
C2455 C 0.95399 0.36238 0.60539 0.0
C2456 C 0.99044 0.35268 0.61213 0.0
C2457 C 0.95762 0.38187 0.61502 0.0
C2458 C 0.97736 0.38675 0.62327 0.0
C2459 C 0.01349 0.37657 0.63121 0.0
C2460 C 0.02973 0.36157 0.63071 0.0
C2461 C 0.99385 0.37219 0.62211 0.0
C2462 C 0.02619 0.3424 0.62034 0.0
C2463 C 0.00682 0.33804 0.61109 0.0
H2464 H 0.10853 0.03149 0.62795 0.0
H2465 H 0.1752 0.04107 0.6341 0.0
H2466 H 0.18153 0.00456 0.6242 0.0
H2467 H 0.168 0.96942 0.61536 0.0
H2468 H 0.10145 0.96015 0.60821 0.0
H2469 H 0.09516 0.99702 0.617 0.0
C2470 C 0.12446 0.02565 0.62694 0.0
C2471 C 0.14136 0.03901 0.63179 0.0
C2472 C 0.12798 0.00465 0.62122 0.0
C2473 C 0.16191 0.0312 0.63029 0.0
C2474 C 0.16554 0.01027 0.62477 0.0
C2475 C 0.15213 0.97552 0.61568 0.0
C2476 C 0.13518 0.9621 0.61133 0.0
C2477 C 0.14869 0.99678 0.62047 0.0
C2478 C 0.11473 0.9702 0.61157 0.0
C2479 C 0.11114 0.99126 0.61659 0.0
H2480 H 0.53591 0.11487 0.60746 0.0
H2481 H 0.53233 0.17612 0.57909 0.0
H2482 H 0.49559 0.17916 0.5894 0.0
H2483 H 0.46514 0.16545 0.6087 0.0
H2484 H 0.46893 0.10414 0.63719 0.0
H2485 H 0.50469 0.10012 0.62459 0.0
C2486 C 0.52696 0.12871 0.60326 0.0
C2487 C 0.5368 0.14524 0.59258 0.0
C2488 C 0.50587 0.13046 0.60945 0.0
C2489 C 0.52508 0.16315 0.5873 0.0
C2490 C 0.50408 0.16495 0.59328 0.0
C2491 C 0.47371 0.15114 0.61201 0.0
C2492 C 0.46432 0.13524 0.62404 0.0
C2493 C 0.49442 0.14888 0.60472 0.0
C2494 C 0.47571 0.11675 0.62807 0.0
C2495 C 0.49624 0.11439 0.62087 0.0
H2496 H 0.15186 0.46151 0.87645 0.0
H2497 H 0.08615 0.46571 0.89149 0.0
H2498 H 0.09004 0.50286 0.89951 0.0
H2499 H 0.11219 0.53443 0.90255 0.0
H2500 H 0.17798 0.53005 0.88774 0.0
H2501 H 0.17397 0.49294 0.87915 0.0
C2502 C 0.13842 0.47049 0.88144 0.0
C2503 C 0.1188 0.46068 0.88328 0.0
C2504 C 0.14076 0.49197 0.88603 0.0
C2505 C 0.10152 0.47273 0.8899 0.0
C2506 C 0.10368 0.49407 0.89448 0.0
C2507 C 0.12559 0.52533 0.8974 0.0
C2508 C 0.14533 0.53496 0.89582 0.0
C2509 C 0.12323 0.50388 0.89262 0.0
C2510 C 0.1626 0.52299 0.88914 0.0
C2511 C 0.16035 0.50174 0.88423 0.0
H2512 H 0.02454 0.15948 0.89349 0.0
H2513 H 0.02893 0.09188 0.89578 0.0
H2514 H 0.99268 0.08963 0.90723 0.0
H2515 H 0.95854 0.10649 0.91338 0.0
H2516 H 0.95405 0.17394 0.91178 0.0
H2517 H 0.99134 0.17655 0.90345 0.0
C2518 C 0.01772 0.14427 0.89686 0.0
C2519 C 0.02953 0.12591 0.89348 0.0
C2520 C 0.99666 0.14299 0.90339 0.0
C2521 C 0.0203 0.10634 0.89801 0.0
C2522 C 0.99946 0.10498 0.90454 0.0
C2523 C 0.96583 0.12174 0.9115 0.0
C2524 C 0.95356 0.13996 0.91302 0.0
C2525 C 0.98732 0.12314 0.90674 0.0
C2526 C 0.96318 0.15966 0.91066 0.0
C2527 C 0.98451 0.16117 0.90583 0.0
H2528 H 0.45617 0.32768 0.87102 0.0
H2529 H 0.44619 0.3925 0.88822 0.0
H2530 H 0.48102 0.39399 0.90371 0.0
H2531 H 0.51558 0.37832 0.90867 0.0
H2532 H 0.52645 0.31402 0.89068 0.0
H2533 H 0.48986 0.31079 0.87939 0.0
C2534 C 0.46143 0.342 0.87854 0.0
C2535 C 0.44867 0.36003 0.87821 0.0
C2536 C 0.4817 0.34292 0.88706 0.0
C2537 C 0.45577 0.37846 0.88802 0.0
C2538 C 0.47571 0.37936 0.89686 0.0
C2539 C 0.50985 0.36352 0.90253 0.0
C2540 C 0.52361 0.34651 0.90024 0.0
C2541 C 0.48902 0.36192 0.89584 0.0
C2542 C 0.51606 0.32735 0.89247 0.0
C2543 C 0.4952 0.32553 0.88596 0.0
H2544 H 0.16998 0.64362 0.1393 0.0
H2545 H 0.16798 0.57747 0.12482 0.0
H2546 H 0.2055 0.5776 0.11783 0.0
H2547 H 0.23707 0.59792 0.10907 0.0
H2548 H 0.2392 0.66401 0.12282 0.0
H2549 H 0.20367 0.66246 0.13727 0.0
C2550 C 0.17784 0.62911 0.13515 0.0
C2551 C 0.16602 0.61069 0.13209 0.0
C2552 C 0.19947 0.62934 0.13084 0.0
C2553 C 0.17656 0.59196 0.12703 0.0
C2554 C 0.19806 0.59202 0.12292 0.0
C2555 C 0.23001 0.61176 0.11603 0.0
C2556 C 0.24061 0.63104 0.1149 0.0
C2557 C 0.20943 0.61081 0.12379 0.0
C2558 C 0.23136 0.64897 0.12375 0.0
C2559 C 0.21095 0.64812 0.13174 0.0
H2560 H 0.84735 0.23136 0.12235 0.0
H2561 H 0.90235 0.22518 0.08358 0.0
H2562 H 0.90939 0.19063 0.0984 0.0
H2563 H 0.89548 0.15961 0.1164 0.0
H2564 H 0.84074 0.16531 0.15543 0.0
H2565 H 0.83814 0.2027 0.14686 0.0
C2566 C 0.86134 0.2228 0.11783 0.0
C2567 C 0.87408 0.23055 0.1016 0.0
C2568 C 0.86508 0.20271 0.12617 0.0
C2569 C 0.89216 0.21933 0.09584 0.0
C2570 C 0.89612 0.19953 0.1042 0.0
C2571 C 0.88348 0.16928 0.12361 0.0
C2572 C 0.86826 0.15989 0.13636 0.0
C2573 C 0.88202 0.19062 0.11846 0.0
C2574 C 0.85271 0.17238 0.14567 0.0
C2575 C 0.8511 0.19368 0.14059 0.0
H2576 H 0.27394 0.84488 0.12237 0.0
H2577 H 0.27543 0.90096 0.08473 0.0
H2578 H 0.31076 0.90877 0.09708 0.0
H2579 H 0.34346 0.89579 0.11288 0.0
H2580 H 0.34216 0.84039 0.15142 0.0
H2581 H 0.30458 0.83623 0.14468 0.0
C2582 C 0.28167 0.85927 0.11762 0.0
C2583 C 0.27223 0.87218 0.10243 0.0
C2584 C 0.30223 0.8635 0.12457 0.0
C2585 C 0.28247 0.89072 0.0963 0.0
C2586 C 0.30276 0.89508 0.10319 0.0
C2587 C 0.33476 0.88321 0.12031 0.0
C2588 C 0.34549 0.86833 0.13247 0.0
C2589 C 0.31318 0.88099 0.11642 0.0
C2590 C 0.33414 0.8521 0.14209 0.0
C2591 C 0.31269 0.84963 0.1381 0.0
H2592 H 0.60056 0.28093 0.11971 0.0
H2593 H 0.66668 0.27292 0.13036 0.0
H2594 H 0.66971 0.30971 0.14084 0.0
H2595 H 0.6551 0.34542 0.13823 0.0
H2596 H 0.58913 0.35344 0.12549 0.0
H2597 H 0.58441 0.31553 0.12497 0.0
C2598 C 0.61539 0.28704 0.12537 0.0
C2599 C 0.63339 0.27435 0.12416 0.0
C2600 C 0.61716 0.30844 0.13036 0.0
C2601 C 0.6526 0.28237 0.13132 0.0
C2602 C 0.65438 0.30353 0.13694 0.0
C2603 C 0.63957 0.3389 0.13594 0.0
C2604 C 0.62262 0.35231 0.13126 0.0
C2605 C 0.63703 0.31698 0.13516 0.0
C2606 C 0.60255 0.34355 0.12872 0.0
C2607 C 0.59983 0.32181 0.12835 0.0
H2608 H 0.15963 0.84388 0.37494 0.0
H2609 H 0.16097 0.9108 0.38543 0.0
H2610 H 0.19883 0.90957 0.38991 0.0
H2611 H 0.23045 0.88876 0.39703 0.0
H2612 H 0.22943 0.8219 0.38765 0.0
H2613 H 0.19287 0.82386 0.37601 0.0
C2614 C 0.16824 0.85827 0.37773 0.0
C2615 C 0.15729 0.87735 0.38026 0.0
C2616 C 0.19017 0.85744 0.38056 0.0
C2617 C 0.16883 0.89584 0.38367 0.0
C2618 C 0.19056 0.89517 0.38628 0.0
C2619 C 0.22243 0.87476 0.39159 0.0
C2620 C 0.2326 0.85523 0.39312 0.0
C2621 C 0.20126 0.87597 0.38561 0.0
C2622 C 0.22203 0.83714 0.38632 0.0
C2623 C 0.20101 0.83824 0.37999 0.0
H2624 H 0.65013 0.15784 0.36812 0.0
H2625 H 0.58449 0.15543 0.38445 0.0
H2626 H 0.58424 0.19322 0.39003 0.0
H2627 H 0.60406 0.22564 0.39652 0.0
H2628 H 0.66971 0.22828 0.38126 0.0
H2629 H 0.66848 0.19199 0.36856 0.0
C2630 C 0.63563 0.16563 0.37238 0.0
C2631 C 0.61745 0.15363 0.37628 0.0
C2632 C 0.63563 0.18748 0.3759 0.0
C2633 C 0.59879 0.16412 0.3816 0.0
C2634 C 0.59862 0.18579 0.38487 0.0
C2635 C 0.61787 0.21848 0.38963 0.0
C2636 C 0.63693 0.22956 0.38977 0.0
C2637 C 0.61714 0.19746 0.38296 0.0
C2638 C 0.65481 0.22013 0.38105 0.0
C2639 C 0.65416 0.19927 0.37408 0.0
H2640 H 0.34173 0.63953 0.36828 0.0
H2641 H 0.34405 0.58166 0.40333 0.0
H2642 H 0.30626 0.58316 0.40867 0.0
H2643 H 0.27442 0.6048 0.40993 0.0
H2644 H 0.27234 0.66345 0.37658 0.0
H2645 H 0.308 0.65761 0.36361 0.0
C2646 C 0.33391 0.62695 0.37661 0.0
C2647 C 0.3458 0.61082 0.38591 0.0
C2648 C 0.31221 0.62819 0.38011 0.0
C2649 C 0.33536 0.59444 0.39631 0.0
C2650 C 0.31373 0.59534 0.39947 0.0
C2651 C 0.28157 0.61586 0.39916 0.0
C2652 C 0.27101 0.63457 0.39429 0.0
C2653 C 0.30224 0.6127 0.39242 0.0
C2654 C 0.28023 0.64889 0.3804 0.0
C2655 C 0.30069 0.64566 0.37322 0.0
H2656 H 0.88846 0.27661 0.38651 0.0
H2657 H 0.82443 0.25677 0.37788 0.0
H2658 H 0.81495 0.29178 0.36578 0.0
H2659 H 0.82327 0.32939 0.36523 0.0
H2660 H 0.88692 0.34977 0.37503 0.0
H2661 H 0.89822 0.31328 0.37879 0.0
C2662 C 0.87259 0.27983 0.38131 0.0
C2663 C 0.85711 0.26421 0.38337 0.0
C2664 C 0.8671 0.30022 0.37498 0.0
C2665 C 0.83666 0.26846 0.37639 0.0
C2666 C 0.83116 0.28859 0.36973 0.0
C2667 C 0.83972 0.32577 0.36757 0.0
C2668 C 0.85419 0.34219 0.37024 0.0
C2669 C 0.84599 0.30482 0.3701 0.0
C2670 C 0.87549 0.33738 0.37297 0.0
C2671 C 0.88192 0.31652 0.37531 0.0
H2672 H 0.11985 0.22992 0.6677 0.0
H2673 H 0.08422 0.22313 0.6107 0.0
H2674 H 0.09918 0.18837 0.60504 0.0
H2675 H 0.11682 0.15753 0.62002 0.0
H2676 H 0.15315 0.16431 0.67656 0.0
H2677 H 0.14388 0.20145 0.67845 0.0
C2678 C 0.11602 0.22118 0.65362 0.0
C2679 C 0.10059 0.22888 0.63989 0.0
C2680 C 0.12451 0.20099 0.65059 0.0
C2681 C 0.0958 0.21735 0.62169 0.0
C2682 C 0.10425 0.19741 0.6185 0.0
C2683 C 0.12319 0.16731 0.6324 0.0
C2684 C 0.13535 0.15814 0.64828 0.0
C2685 C 0.11773 0.18865 0.63344 0.0
C2686 C 0.14372 0.17099 0.66413 0.0
C2687 C 0.13828 0.19223 0.66533 0.0
H2688 H 0.27097 0.12817 0.65528 0.0
H2689 H 0.2786 0.09576 0.59637 0.0
H2690 H 0.31305 0.11166 0.59182 0.0
H2691 H 0.34342 0.12914 0.60804 0.0
H2692 H 0.33517 0.16242 0.66639 0.0
H2693 H 0.29838 0.15238 0.66726 0.0
C2694 C 0.27975 0.12518 0.64104 0.0
C2695 C 0.27247 0.11022 0.62655 0.0
C2696 C 0.29963 0.13434 0.63852 0.0
C2697 C 0.28413 0.1067 0.60813 0.0
C2698 C 0.30386 0.11578 0.6055 0.0
C2699 C 0.33341 0.13471 0.62062 0.0
C2700 C 0.34218 0.14607 0.63735 0.0
C2701 C 0.31222 0.12872 0.62115 0.0
C2702 C 0.32893 0.15348 0.65336 0.0
C2703 C 0.30786 0.14761 0.65398 0.0
H2704 H 0.37892 0.35404 0.61054 0.0
H2705 H 0.37423 0.34849 0.67763 0.0
H2706 H 0.3741 0.31028 0.67484 0.0
H2707 H 0.38383 0.2794 0.65423 0.0
H2708 H 0.39259 0.28503 0.58757 0.0
H2709 H 0.38211 0.32194 0.58903 0.0
C2710 C 0.37697 0.34439 0.62439 0.0
C2711 C 0.37661 0.3539 0.64424 0.0
C2712 C 0.37802 0.32237 0.62272 0.0
C2713 C 0.37451 0.34137 0.66219 0.0
C2714 C 0.3746 0.31954 0.66061 0.0
C2715 C 0.38248 0.28846 0.63991 0.0
C2716 C 0.38903 0.27959 0.62085 0.0
C2717 C 0.37756 0.30992 0.64108 0.0
C2718 C 0.38758 0.29159 0.60242 0.0
C2719 C 0.38183 0.31275 0.6033 0.0
H2720 H 0.2138 0.40567 0.62204 0.0
H2721 H 0.23663 0.38418 0.6818 0.0
H2722 H 0.20245 0.3689 0.68969 0.0
H2723 H 0.16443 0.36982 0.68314 0.0
H2724 H 0.14132 0.39157 0.62356 0.0
H2725 H 0.1772 0.39827 0.61182 0.0
C2726 C 0.2115 0.39674 0.63632 0.0
C2727 C 0.22755 0.39621 0.65142 0.0
C2728 C 0.1916 0.38854 0.64099 0.0
C2729 C 0.22451 0.38468 0.66991 0.0
C2730 C 0.20486 0.37624 0.67457 0.0
C2731 C 0.16736 0.37529 0.66731 0.0
C2732 C 0.15037 0.38054 0.65433 0.0
C2733 C 0.18799 0.37929 0.6608 0.0
C2734 C 0.15421 0.38744 0.63381 0.0
C2735 C 0.17472 0.39146 0.62717 0.0
H2736 H 0.10387 0.34133 0.89235 0.0
H2737 H 0.13528 0.33353 0.83293 0.0
H2738 H 0.13247 0.29556 0.83607 0.0
H2739 H 0.11461 0.26536 0.85205 0.0
H2740 H 0.08195 0.27326 0.91059 0.0
H2741 H 0.09227 0.31017 0.91181 0.0
C2742 C 0.11054 0.33132 0.88032 0.0
C2743 C 0.11925 0.34032 0.86218 0.0
C2744 C 0.10858 0.30942 0.88204 0.0
C2745 C 0.12816 0.32709 0.84693 0.0
C2746 C 0.12654 0.30531 0.84867 0.0
C2747 C 0.11061 0.27495 0.86553 0.0
C2748 C 0.09744 0.26673 0.88113 0.0
C2749 C 0.11588 0.29636 0.86566 0.0
C2750 C 0.09211 0.27933 0.89842 0.0
C2751 C 0.09777 0.30049 0.89896 0.0
H2752 H 0.15343 0.12985 0.85259 0.0
H2753 H 0.15467 0.11619 0.91885 0.0
H2754 H 0.1925 0.11144 0.91739 0.0
H2755 H 0.22388 0.10447 0.89613 0.0
H2756 H 0.22285 0.11704 0.82989 0.0
H2757 H 0.18655 0.12935 0.83253 0.0
C2758 C 0.16202 0.12638 0.86684 0.0
C2759 C 0.15105 0.12292 0.88572 0.0
C2760 C 0.18388 0.12331 0.86584 0.0
C2761 C 0.16256 0.11866 0.90403 0.0
C2762 C 0.18426 0.11586 0.90322 0.0
C2763 C 0.21593 0.11074 0.88247 0.0
C2764 C 0.22595 0.10992 0.86286 0.0
C2765 C 0.19491 0.11718 0.88405 0.0
C2766 C 0.2155 0.1178 0.84517 0.0
C2767 C 0.19465 0.12454 0.84666 0.0
H2768 H 0.37223 0.15952 0.90429 0.0
H2769 H 0.3548 0.14962 0.83967 0.0
H2770 H 0.35602 0.18726 0.83334 0.0
H2771 H 0.37003 0.2216 0.8441 0.0
H2772 H 0.38923 0.23111 0.9081 0.0
H2773 H 0.3788 0.1953 0.91688 0.0
C2774 C 0.36809 0.16561 0.88898 0.0
C2775 C 0.36408 0.15167 0.87235 0.0
C2776 C 0.36935 0.18731 0.88527 0.0
C2777 C 0.35838 0.15991 0.8527 0.0
C2778 C 0.35914 0.1815 0.84901 0.0
C2779 C 0.37099 0.21611 0.86016 0.0
C2780 C 0.38055 0.22881 0.8754 0.0
C2781 C 0.36578 0.1952 0.86486 0.0
C2782 C 0.38195 0.2215 0.89613 0.0
C2783 C 0.37621 0.20096 0.90108 0.0
H2784 H 0.33629 0.38324 0.88929 0.0
H2785 H 0.31857 0.34493 0.83641 0.0
H2786 H 0.28263 0.35777 0.83891 0.0
H2787 H 0.25875 0.3857 0.85106 0.0
H2788 H 0.27733 0.42516 0.9027 0.0
H2789 H 0.31028 0.40597 0.90589 0.0
C2790 C 0.32444 0.37724 0.87867 0.0
C2791 C 0.33024 0.36364 0.86233 0.0
C2792 C 0.304 0.38523 0.87974 0.0
C2793 C 0.31461 0.35564 0.84899 0.0
C2794 C 0.29406 0.36313 0.85028 0.0
C2795 C 0.26972 0.38957 0.86346 0.0
C2796 C 0.2659 0.40704 0.87635 0.0
C2797 C 0.28891 0.37883 0.86482 0.0
C2798 C 0.28019 0.41197 0.89237 0.0
C2799 C 0.29903 0.40105 0.89417 0.0
H2800 H 0.61614 0.12983 0.15695 0.0
H2801 H 0.68248 0.14021 0.16377 0.0
H2802 H 0.67894 0.14041 0.20186 0.0
H2803 H 0.6588 0.12829 0.23215 0.0
H2804 H 0.59342 0.11332 0.22503 0.0
H2805 H 0.59441 0.1248 0.18848 0.0
C2806 C 0.62959 0.13308 0.16683 0.0
C2807 C 0.64954 0.13487 0.15775 0.0
C2808 C 0.62759 0.13194 0.18876 0.0
C2809 C 0.66699 0.13873 0.17057 0.0
C2810 C 0.66499 0.13868 0.19234 0.0
C2811 C 0.64456 0.12857 0.22285 0.0
C2812 C 0.6261 0.11993 0.23111 0.0
C2813 C 0.64562 0.13394 0.20155 0.0
C2814 C 0.60778 0.11998 0.2189 0.0
C2815 C 0.60843 0.12628 0.19794 0.0
H2816 H 0.66839 0.3842 0.26404 0.0
H2817 H 0.60199 0.39593 0.26535 0.0
H2818 H 0.60055 0.38563 0.30227 0.0
H2819 H 0.61974 0.38169 0.33569 0.0
H2820 H 0.68682 0.37416 0.33452 0.0
H2821 H 0.68654 0.37392 0.29627 0.0
C2822 C 0.65348 0.38347 0.27217 0.0
C2823 C 0.63532 0.39071 0.26205 0.0
C2824 C 0.65304 0.37874 0.29368 0.0
C2825 C 0.61612 0.39022 0.27284 0.0
C2826 C 0.61537 0.38462 0.29403 0.0
C2827 C 0.63412 0.37911 0.32699 0.0
C2828 C 0.65328 0.37797 0.33779 0.0
C2829 C 0.63394 0.38007 0.30491 0.0
C2830 C 0.67191 0.37507 0.32644 0.0
C2831 C 0.67176 0.37508 0.30457 0.0
H2832 H 0.13121 0.65692 0.28222 0.0
H2833 H 0.11571 0.59196 0.27238 0.0
H2834 H 0.1238 0.58411 0.30899 0.0
H2835 H 0.12774 0.59733 0.34499 0.0
H2836 H 0.14196 0.66278 0.35503 0.0
H2837 H 0.1423 0.66874 0.31735 0.0
C2838 C 0.13067 0.64089 0.2879 0.0
C2839 C 0.12305 0.62499 0.27468 0.0
C2840 C 0.13452 0.63669 0.30922 0.0
C2841 C 0.12186 0.60434 0.28227 0.0
C2842 C 0.12615 0.59994 0.30329 0.0
C2843 C 0.13146 0.61278 0.33895 0.0
C2844 C 0.13428 0.62965 0.35293 0.0
C2845 C 0.13133 0.61622 0.31716 0.0
C2846 C 0.13941 0.6495 0.34474 0.0
C2847 C 0.13954 0.65299 0.32311 0.0
H2848 H 0.84009 0.13483 0.35453 0.0
H2849 H 0.90599 0.11938 0.3547 0.0
H2850 H 0.906 0.11799 0.31656 0.0
H2851 H 0.88586 0.11429 0.28394 0.0
H2852 H 0.8199 0.12841 0.28356 0.0
H2853 H 0.82139 0.1377 0.32081 0.0
C2854 C 0.85458 0.13166 0.34622 0.0
C2855 C 0.8729 0.12671 0.35755 0.0
C2856 C 0.85442 0.13053 0.32418 0.0
C2857 C 0.89158 0.12296 0.34647 0.0
C2858 C 0.89161 0.12209 0.3246 0.0
C2859 C 0.87205 0.12028 0.29187 0.0
C2860 C 0.85282 0.12075 0.28113 0.0
C2861 C 0.87293 0.12488 0.31338 0.0
C2862 C 0.83491 0.12822 0.2915 0.0
C2863 C 0.83572 0.13321 0.31286 0.0
H2864 H 0.40009 0.88682 0.29004 0.0
H2865 H 0.37639 0.82926 0.26351 0.0
H2866 H 0.35934 0.8207 0.29652 0.0
H2867 H 0.35956 0.82505 0.33463 0.0
H2868 H 0.385 0.8814 0.3619 0.0
H2869 H 0.39242 0.89526 0.32699 0.0
C2870 C 0.39059 0.87277 0.29135 0.0
C2871 C 0.38989 0.85848 0.27456 0.0
C2872 C 0.38139 0.86758 0.31064 0.0
C2873 C 0.37725 0.8405 0.27623 0.0
C2874 C 0.36766 0.83547 0.29519 0.0
C2875 C 0.36589 0.84075 0.33284 0.0
C2876 C 0.37217 0.85201 0.35066 0.0
C2877 C 0.37082 0.84821 0.31281 0.0
C2878 C 0.38012 0.87242 0.34834 0.0
C2879 C 0.38464 0.88022 0.32837 0.0
H2880 H 0.90272 0.40451 0.2208 0.0
H2881 H 0.83907 0.38257 0.22575 0.0
H2882 H 0.84179 0.36604 0.19125 0.0
H2883 H 0.85979 0.36455 0.15718 0.0
H2884 H 0.92315 0.3877 0.15196 0.0
H2885 H 0.92323 0.39652 0.18912 0.0
C2886 C 0.88974 0.39545 0.21458 0.0
C2887 C 0.87067 0.3949 0.22561 0.0
C2888 C 0.89125 0.38652 0.19451 0.0
C2889 C 0.85393 0.38311 0.21754 0.0
C2890 C 0.85541 0.37388 0.1977 0.0
C2891 C 0.87383 0.37099 0.16428 0.0
C2892 C 0.89123 0.37598 0.15164 0.0
C2893 C 0.87362 0.37648 0.18562 0.0
C2894 C 0.90942 0.38395 0.1612 0.0
C2895 C 0.90944 0.38914 0.18247 0.0
H2896 H 0.14931 0.82787 0.17202 0.0
H2897 H 0.12552 0.88758 0.15114 0.0
H2898 H 0.12586 0.90062 0.18719 0.0
H2899 H 0.12302 0.89101 0.22447 0.0
H2900 H 0.14422 0.83025 0.24492 0.0
H2901 H 0.15599 0.82206 0.20951 0.0
C2902 C 0.14499 0.84401 0.17532 0.0
C2903 C 0.13688 0.8566 0.15914 0.0
C2904 C 0.14468 0.85115 0.19612 0.0
C2905 C 0.13164 0.87756 0.1634 0.0
C2906 C 0.13168 0.88495 0.18406 0.0
C2907 C 0.13134 0.87649 0.22135 0.0
C2908 C 0.1322 0.861 0.23707 0.0
C2909 C 0.13678 0.87138 0.20062 0.0
C2910 C 0.1432 0.84234 0.23305 0.0
C2911 C 0.14952 0.83747 0.21265 0.0
H2912 H 0.40168 0.60143 0.21577 0.0
H2913 H 0.38534 0.66634 0.22439 0.0
H2914 H 0.37053 0.6676 0.18904 0.0
H2915 H 0.37072 0.65267 0.15353 0.0
H2916 H 0.38965 0.58827 0.14443 0.0
H2917 H 0.3944 0.58415 0.18209 0.0
C2918 C 0.39384 0.61547 0.21023 0.0
C2919 C 0.39447 0.63374 0.22253 0.0
C2920 C 0.38638 0.61631 0.18955 0.0
C2921 C 0.38472 0.65205 0.21521 0.0
C2922 C 0.3766 0.65284 0.19487 0.0
C2923 C 0.37529 0.63754 0.15981 0.0
C2924 C 0.38047 0.62101 0.14608 0.0
C2925 C 0.37862 0.63545 0.18149 0.0
C2926 C 0.38595 0.6014 0.15456 0.0
C2927 C 0.38877 0.59904 0.17614 0.0
H2928 H 0.82112 0.31825 0.87567 0.0
H2929 H 0.84763 0.37997 0.88377 0.0
H2930 H 0.81317 0.3939 0.89283 0.0
H2931 H 0.77748 0.38671 0.9057 0.0
H2932 H 0.75111 0.32499 0.89816 0.0
H2933 H 0.78334 0.31291 0.8812 0.0
C2934 C 0.81921 0.33487 0.87882 0.0
C2935 C 0.83692 0.34796 0.87954 0.0
C2936 C 0.79941 0.3427 0.88434 0.0
C2937 C 0.83425 0.36952 0.88327 0.0
C2938 C 0.81457 0.37748 0.88863 0.0
C2939 C 0.7786 0.37086 0.89959 0.0
C2940 C 0.76218 0.35665 0.90324 0.0
C2941 C 0.7973 0.36397 0.89029 0.0
C2942 C 0.7636 0.33615 0.89537 0.0
C2943 C 0.7821 0.32921 0.88591 0.0
H2944 H 0.18172 0.82868 0.87161 0.0
H2945 H 0.1182 0.84499 0.88785 0.0
H2946 H 0.10974 0.8079 0.89278 0.0
H2947 H 0.12284 0.77221 0.90015 0.0
H2948 H 0.18665 0.7563 0.8847 0.0
H2949 H 0.19244 0.79163 0.87115 0.0
C2950 C 0.16584 0.824 0.87552 0.0
C2951 C 0.15069 0.83946 0.87973 0.0
C2952 C 0.16123 0.80272 0.87869 0.0
C2953 C 0.13012 0.83334 0.88456 0.0
C2954 C 0.12534 0.81214 0.88759 0.0
C2955 C 0.13773 0.77631 0.89304 0.0
C2956 C 0.15439 0.76183 0.89365 0.0
C2957 C 0.1411 0.79685 0.88582 0.0
C2958 C 0.1736 0.76717 0.88435 0.0
C2959 C 0.17699 0.78747 0.87685 0.0
H2960 H 0.72273 0.15661 0.87875 0.0
H2961 H 0.71141 0.0983 0.91104 0.0
H2962 H 0.67545 0.09773 0.89807 0.0
H2963 H 0.6457 0.11712 0.88297 0.0
H2964 H 0.65724 0.17503 0.84998 0.0
H2965 H 0.69458 0.17216 0.85738 0.0
C2966 C 0.71266 0.14338 0.8823 0.0
C2967 C 0.7196 0.1278 0.89626 0.0
C2968 C 0.69186 0.14325 0.87495 0.0
C2969 C 0.7063 0.11075 0.90068 0.0
C2970 C 0.68569 0.11044 0.89334 0.0
C2971 C 0.65646 0.12883 0.87696 0.0
C2972 C 0.64859 0.14646 0.86633 0.0
C2973 C 0.678 0.12715 0.88135 0.0
C2974 C 0.66279 0.16134 0.85836 0.0
C2975 C 0.68421 0.1598 0.86268 0.0
H2976 H 0.35983 0.72411 0.87828 0.0
H2977 H 0.41903 0.73087 0.90985 0.0
H2978 H 0.42888 0.69519 0.89975 0.0
H2979 H 0.41699 0.66004 0.88936 0.0
H2980 H 0.35652 0.65275 0.85992 0.0
H2981 H 0.35098 0.69053 0.8614 0.0
C2982 C 0.37531 0.71808 0.88196 0.0
C2983 C 0.38877 0.73002 0.89465 0.0
C2984 C 0.38035 0.69717 0.87704 0.0
C2985 C 0.40859 0.72198 0.89982 0.0
C2986 C 0.41405 0.70146 0.89435 0.0
C2987 C 0.40285 0.66675 0.88273 0.0
C2988 C 0.38697 0.65346 0.87508 0.0
C2989 C 0.3995 0.68852 0.8841 0.0
C2990 C 0.36888 0.66251 0.86627 0.0
C2991 C 0.36564 0.68417 0.86715 0.0
H2992 H 0.83268 0.16964 0.63424 0.0
H2993 H 0.84575 0.10396 0.62526 0.0
H2994 H 0.80823 0.09678 0.6214 0.0
H2995 H 0.77334 0.11085 0.61222 0.0
H2996 H 0.76094 0.17688 0.62013 0.0
H2997 H 0.79631 0.18221 0.63355 0.0
C2998 C 0.82716 0.15364 0.63228 0.0
C2999 C 0.84177 0.13736 0.62975 0.0
C3000 C 0.8057 0.14978 0.62964 0.0
C3001 C 0.83468 0.11669 0.62731 0.0
C3002 C 0.81326 0.11264 0.62486 0.0
C3003 C 0.77818 0.12622 0.61768 0.0
C3004 C 0.76472 0.14351 0.61486 0.0
C3005 C 0.7988 0.12928 0.62476 0.0
C3006 C 0.771 0.16333 0.62214 0.0
C3007 C 0.79134 0.16644 0.62955 0.0
H3008 H 0.40657 0.7859 0.61098 0.0
H3009 H 0.34106 0.77888 0.62585 0.0
H3010 H 0.33926 0.81566 0.6365 0.0
H3011 H 0.35459 0.85101 0.63483 0.0
H3012 H 0.41974 0.85826 0.61806 0.0
H3013 H 0.42345 0.8203 0.61521 0.0
C3014 C 0.39207 0.79231 0.61713 0.0
C3015 C 0.37393 0.77976 0.61739 0.0
C3016 C 0.39098 0.81366 0.62251 0.0
C3017 C 0.35527 0.78816 0.62558 0.0
C3018 C 0.35418 0.80929 0.63142 0.0
C3019 C 0.36974 0.8443 0.63105 0.0
C3020 C 0.38673 0.85756 0.62618 0.0
C3021 C 0.37167 0.82241 0.62893 0.0
C3022 C 0.40631 0.84851 0.62161 0.0
C3023 C 0.40844 0.82675 0.61988 0.0
H3024 H 0.66318 0.32823 0.62405 0.0
H3025 H 0.64828 0.39165 0.6062 0.0
H3026 H 0.6857 0.39964 0.60264 0.0
H3027 H 0.72161 0.38602 0.59731 0.0
H3028 H 0.73597 0.32227 0.61459 0.0
H3029 H 0.69998 0.31711 0.62646 0.0
C3030 C 0.66822 0.344 0.62011 0.0
C3031 C 0.65315 0.35929 0.61513 0.0
C3032 C 0.68965 0.34832 0.61785 0.0
C3033 C 0.65968 0.37969 0.61015 0.0
C3034 C 0.68106 0.38417 0.60792 0.0
C3035 C 0.717 0.37129 0.60445 0.0
C3036 C 0.73131 0.35445 0.60484 0.0
C3037 C 0.69608 0.36827 0.61068 0.0
C3038 C 0.72528 0.33546 0.61419 0.0
C3039 C 0.7046 0.33242 0.6207 0.0
H3040 H 0.10991 0.72653 0.6078 0.0
H3041 H 0.175 0.74187 0.61739 0.0
H3042 H 0.18145 0.70695 0.63156 0.0
H3043 H 0.17026 0.67013 0.63341 0.0
H3044 H 0.10542 0.65427 0.62332 0.0
H3045 H 0.09702 0.6913 0.61757 0.0
C3046 C 0.1253 0.72241 0.61372 0.0
C3047 C 0.14202 0.73661 0.6113 0.0
C3048 C 0.129 0.70209 0.62142 0.0
C3049 C 0.16188 0.73124 0.61913 0.0
C3050 C 0.16563 0.71116 0.62701 0.0
C3051 C 0.15416 0.67494 0.63073 0.0
C3052 C 0.13851 0.65962 0.62849 0.0
C3053 C 0.14958 0.69615 0.62709 0.0
C3054 C 0.11769 0.66587 0.62515 0.0
C3055 C 0.11295 0.68701 0.62162 0.0
H3056 H 0.87055 0.83351 0.3134 0.0
H3057 H 0.88753 0.85434 0.3754 0.0
H3058 H 0.89384 0.81804 0.38605 0.0
H3059 H 0.9022 0.78189 0.37504 0.0
H3060 H 0.88668 0.76167 0.31246 0.0
H3061 H 0.87151 0.79596 0.3049 0.0
C3062 C 0.87496 0.82999 0.32944 0.0
C3063 C 0.879 0.84651 0.34348 0.0
C3064 C 0.87905 0.80918 0.33526 0.0
C3065 C 0.88441 0.84187 0.36429 0.0
C3066 C 0.88823 0.82112 0.37032 0.0
C3067 C 0.89482 0.78483 0.36002 0.0
C3068 C 0.89586 0.76944 0.34421 0.0
C3069 C 0.88676 0.80483 0.35556 0.0
C3070 C 0.88607 0.77325 0.32487 0.0
C3071 C 0.87762 0.79297 0.32046 0.0
H3072 H 0.72437 0.88768 0.33805 0.0
H3073 H 0.7365 0.91382 0.39904 0.0
H3074 H 0.70247 0.90133 0.41153 0.0
H3075 H 0.66681 0.88969 0.40276 0.0
H3076 H 0.65401 0.86533 0.34093 0.0
H3077 H 0.69066 0.86999 0.33126 0.0
C3078 C 0.71992 0.88969 0.35434 0.0
C3079 C 0.73294 0.9014 0.36771 0.0
C3080 C 0.69991 0.88327 0.36109 0.0
C3081 C 0.72684 0.9045 0.38863 0.0
C3082 C 0.70724 0.89764 0.39565 0.0
C3083 C 0.67212 0.88487 0.38734 0.0
C3084 C 0.65748 0.87761 0.37248 0.0
C3085 C 0.69322 0.88803 0.38168 0.0
C3086 C 0.66478 0.87122 0.35265 0.0
C3087 C 0.68579 0.87396 0.34704 0.0
H3088 H 0.61949 0.65985 0.39278 0.0
H3089 H 0.63797 0.64976 0.32846 0.0
H3090 H 0.64015 0.68741 0.32291 0.0
H3091 H 0.62825 0.72246 0.33384 0.0
H3092 H 0.60854 0.73257 0.39752 0.0
H3093 H 0.61626 0.69602 0.40606 0.0
C3094 C 0.62458 0.66587 0.37773 0.0
C3095 C 0.62786 0.65194 0.36091 0.0
C3096 C 0.62557 0.68769 0.37449 0.0
C3097 C 0.63489 0.66004 0.34162 0.0
C3098 C 0.63612 0.68166 0.33837 0.0
C3099 C 0.62687 0.71693 0.34986 0.0
C3100 C 0.61781 0.73007 0.36502 0.0
C3101 C 0.63033 0.69561 0.35434 0.0
C3102 C 0.61572 0.72272 0.38567 0.0
C3103 C 0.6197 0.70169 0.39042 0.0
H3104 H 0.7837 0.60492 0.37467 0.0
H3105 H 0.76765 0.61311 0.30962 0.0
H3106 H 0.80376 0.6232 0.30171 0.0
H3107 H 0.84092 0.62257 0.3122 0.0
H3108 H 0.8571 0.61451 0.37726 0.0
H3109 H 0.81995 0.61182 0.3864 0.0
C3110 C 0.78799 0.60975 0.35895 0.0
C3111 C 0.77314 0.6082 0.34271 0.0
C3112 C 0.80889 0.61511 0.35447 0.0
C3113 C 0.77879 0.61437 0.32237 0.0
C3114 C 0.79951 0.61985 0.31781 0.0
C3115 C 0.83624 0.62083 0.32845 0.0
C3116 C 0.85167 0.61841 0.344 0.0
C3117 C 0.81487 0.6192 0.33354 0.0
C3118 C 0.84549 0.6164 0.36503 0.0
C3119 C 0.82425 0.61469 0.37022 0.0
H3120 H 0.90035 0.6593 0.10065 0.0
H3121 H 0.85728 0.66195 0.15257 0.0
H3122 H 0.86651 0.69873 0.15874 0.0
H3123 H 0.89174 0.72795 0.15315 0.0
H3124 H 0.93466 0.72462 0.10113 0.0
H3125 H 0.92034 0.69064 0.09091 0.0
C3126 C 0.89253 0.66815 0.1129 0.0
C3127 C 0.87831 0.65792 0.12623 0.0
C3128 C 0.89807 0.68918 0.11646 0.0
C3129 C 0.8682 0.66953 0.14201 0.0
C3130 C 0.87364 0.69052 0.14568 0.0
C3131 C 0.89733 0.72009 0.13915 0.0
C3132 C 0.91429 0.72864 0.12796 0.0
C3133 C 0.88924 0.70025 0.13356 0.0
C3134 C 0.92161 0.71826 0.10995 0.0
C3135 C 0.91355 0.69876 0.1042 0.0
H3136 H 0.77771 0.91494 0.1156 0.0
H3137 H 0.76291 0.88953 0.1764 0.0
H3138 H 0.79816 0.87488 0.17913 0.0
H3139 H 0.83486 0.876 0.16756 0.0
H3140 H 0.85018 0.90304 0.10752 0.0
H3141 H 0.81313 0.91011 0.10105 0.0
C3142 C 0.78205 0.90561 0.12913 0.0
C3143 C 0.76786 0.90358 0.1459 0.0
C3144 C 0.8026 0.89792 0.13093 0.0
C3145 C 0.77351 0.89128 0.16326 0.0
C3146 C 0.79379 0.88314 0.16495 0.0
C3147 C 0.83004 0.88298 0.15284 0.0
C3148 C 0.8453 0.88944 0.13827 0.0
C3149 C 0.80875 0.8874 0.14941 0.0
C3150 C 0.83879 0.89811 0.1191 0.0
C3151 C 0.81759 0.90227 0.11543 0.0
H3152 H 0.62622 0.78004 0.147 0.0
H3153 H 0.59435 0.78729 0.08793 0.0
H3154 H 0.60519 0.82398 0.08621 0.0
H3155 H 0.61732 0.85537 0.10512 0.0
H3156 H 0.64966 0.84834 0.16396 0.0
H3157 H 0.64534 0.81026 0.16209 0.0
C3158 C 0.6225 0.7894 0.13332 0.0
C3159 C 0.60929 0.78108 0.11774 0.0
C3160 C 0.62841 0.81069 0.13268 0.0
C3161 C 0.60443 0.79343 0.10015 0.0
C3162 C 0.61042 0.81448 0.09928 0.0
C3163 C 0.62392 0.84542 0.11722 0.0
C3164 C 0.63349 0.85462 0.13479 0.0
C3165 C 0.62137 0.82354 0.11603 0.0
C3166 C 0.6422 0.84161 0.15028 0.0
C3167 C 0.63961 0.81982 0.14928 0.0
H3168 H 0.73863 0.62787 0.1475 0.0
H3169 H 0.73285 0.59002 0.09179 0.0
H3170 H 0.69851 0.60529 0.08461 0.0
H3171 H 0.6676 0.62374 0.09818 0.0
H3172 H 0.67303 0.66111 0.15434 0.0
H3173 H 0.71008 0.65221 0.15696 0.0
C3174 C 0.7302 0.62359 0.13337 0.0
C3175 C 0.73804 0.60757 0.12041 0.0
C3176 C 0.71019 0.63209 0.1296 0.0
C3177 C 0.72694 0.60213 0.10216 0.0
C3178 C 0.70725 0.61077 0.09811 0.0
C3179 C 0.67701 0.63042 0.11067 0.0
C3180 C 0.66737 0.64261 0.12632 0.0
C3181 C 0.69826 0.62489 0.11235 0.0
C3182 C 0.67992 0.65145 0.14218 0.0
C3183 C 0.70114 0.64625 0.1438 0.0
H3184 H 0.40216 0.90053 0.78078 0.0
H3185 H 0.34369 0.87629 0.7571 0.0
H3186 H 0.33593 0.86085 0.7911 0.0
H3187 H 0.34169 0.86222 0.82909 0.0
H3188 H 0.39955 0.88718 0.85333 0.0
H3189 H 0.41185 0.89399 0.81767 0.0
C3190 C 0.38813 0.89117 0.78292 0.0
C3191 C 0.37336 0.88986 0.76661 0.0
C3192 C 0.38346 0.88283 0.80275 0.0
C3193 C 0.35531 0.87753 0.7694 0.0
C3194 C 0.35073 0.86891 0.78895 0.0
C3195 C 0.35732 0.86838 0.82646 0.0
C3196 C 0.36957 0.87455 0.84365 0.0
C3197 C 0.36406 0.87263 0.806 0.0
C3198 C 0.38986 0.88234 0.84025 0.0
C3199 C 0.39679 0.88646 0.81987 0.0
H3200 H 0.39364 0.61372 0.71525 0.0
H3201 H 0.3366 0.63703 0.74313 0.0
H3202 H 0.32775 0.65508 0.71075 0.0
H3203 H 0.33164 0.65602 0.6726 0.0
H3204 H 0.38739 0.63075 0.64393 0.0
H3205 H 0.40157 0.62221 0.67842 0.0
C3206 C 0.37964 0.62335 0.71438 0.0
C3207 C 0.36557 0.62364 0.73135 0.0
C3208 C 0.37422 0.63304 0.69541 0.0
C3209 C 0.34767 0.63646 0.73028 0.0
C3210 C 0.34246 0.64662 0.71165 0.0
C3211 C 0.34724 0.64936 0.67399 0.0
C3212 C 0.3582 0.64346 0.65585 0.0
C3213 C 0.35491 0.64381 0.69379 0.0
C3214 C 0.37855 0.63524 0.65772 0.0
C3215 C 0.38656 0.63012 0.67744 0.0
H3216 H 0.87373 0.32269 0.72528 0.0
H3217 H 0.88408 0.38937 0.72376 0.0
H3218 H 0.87527 0.39024 0.68646 0.0
H3219 H 0.87396 0.37054 0.65319 0.0
H3220 H 0.86825 0.30326 0.65468 0.0
H3221 H 0.86534 0.30396 0.69282 0.0
C3222 C 0.87298 0.33752 0.71697 0.0
C3223 C 0.8795 0.35593 0.72711 0.0
C3224 C 0.8692 0.33763 0.69529 0.0
C3225 C 0.87894 0.37505 0.71619 0.0
C3226 C 0.8742 0.37547 0.69481 0.0
C3227 C 0.87111 0.35621 0.66188 0.0
C3228 C 0.87136 0.33688 0.65133 0.0
C3229 C 0.87066 0.35666 0.68394 0.0
C3230 C 0.86809 0.31829 0.66263 0.0
C3231 C 0.86661 0.31868 0.68443 0.0
H3232 H 0.15519 0.87201 0.73282 0.0
H3233 H 0.09725 0.90634 0.72761 0.0
H3234 H 0.09354 0.89515 0.69119 0.0
H3235 H 0.11077 0.88213 0.6592 0.0
H3236 H 0.16888 0.84785 0.66447 0.0
H3237 H 0.16827 0.85212 0.70237 0.0
C3238 C 0.14128 0.87623 0.724 0.0
C3239 C 0.12669 0.89024 0.73276 0.0
C3240 C 0.13954 0.87019 0.70284 0.0
C3241 C 0.10878 0.89568 0.7211 0.0
C3242 C 0.10677 0.88948 0.7002 0.0
C3243 C 0.123 0.8751 0.66867 0.0
C3244 C 0.14011 0.86519 0.65888 0.0
C3245 C 0.12269 0.87777 0.69057 0.0
C3246 C 0.15563 0.85585 0.67148 0.0
C3247 C 0.15537 0.85835 0.69324 0.0
H3248 H 0.59956 0.11094 0.71831 0.0
H3249 H 0.62786 0.17015 0.73455 0.0
H3250 H 0.64399 0.17213 0.69988 0.0
H3251 H 0.64325 0.16103 0.66294 0.0
H3252 H 0.61126 0.10387 0.64589 0.0
H3253 H 0.6034 0.09708 0.6827 0.0
C3254 C 0.60976 0.12399 0.71443 0.0
C3255 C 0.61219 0.14055 0.72886 0.0
C3256 C 0.61788 0.12564 0.69406 0.0
C3257 C 0.62572 0.15718 0.72379 0.0
C3258 C 0.63469 0.15848 0.70381 0.0
C3259 C 0.63508 0.14678 0.66731 0.0
C3260 C 0.62755 0.13314 0.65162 0.0
C3261 C 0.62985 0.14342 0.68846 0.0
C3262 C 0.617 0.11475 0.6576 0.0
C3263 C 0.61245 0.11089 0.67867 0.0
H3264 H 0.15802 0.63329 0.84963 0.0
H3265 H 0.09182 0.62205 0.85792 0.0
H3266 H 0.0866 0.62354 0.82014 0.0
H3267 H 0.10208 0.61983 0.7851 0.0
H3268 H 0.16837 0.62889 0.77667 0.0
H3269 H 0.17223 0.63729 0.81389 0.0
C3270 C 0.14235 0.63173 0.84323 0.0
C3271 C 0.12544 0.62696 0.85663 0.0
C3272 C 0.13949 0.63217 0.82134 0.0
C3273 C 0.10521 0.62534 0.84803 0.0
C3274 C 0.10219 0.62616 0.82636 0.0
C3275 C 0.11715 0.62476 0.79126 0.0
C3276 C 0.13492 0.62369 0.77824 0.0
C3277 C 0.11937 0.62844 0.81286 0.0
C3278 C 0.15444 0.62982 0.78634 0.0
C3279 C 0.1567 0.63419 0.80774 0.0
H3280 H 0.88168 0.09467 0.84874 0.0
H3281 H 0.84266 0.14975 0.84696 0.0
H3282 H 0.84917 0.15349 0.80931 0.0
H3283 H 0.87159 0.14474 0.77875 0.0
H3284 H 0.9098 0.08902 0.78077 0.0
H3285 H 0.89748 0.08142 0.81614 0.0
C3286 C 0.87405 0.10704 0.8399 0.0
C3287 C 0.86184 0.12197 0.8505 0.0
C3288 C 0.87785 0.10905 0.8183 0.0
C3289 C 0.85201 0.13799 0.83902 0.0
C3290 C 0.85589 0.14023 0.81753 0.0
C3291 C 0.87647 0.13047 0.78661 0.0
C3292 C 0.89182 0.11762 0.77732 0.0
C3293 C 0.86953 0.12636 0.80719 0.0
C3294 C 0.89811 0.09922 0.78771 0.0
C3295 C 0.89123 0.09497 0.80802 0.0
H3296 H 0.57932 0.40346 0.77758 0.0
H3297 H 0.61127 0.34426 0.77115 0.0
H3298 H 0.62272 0.34621 0.80768 0.0
H3299 H 0.61688 0.36095 0.84282 0.0
H3300 H 0.58329 0.4194 0.84941 0.0
H3301 H 0.57955 0.42174 0.81148 0.0
C3302 C 0.58946 0.39141 0.78403 0.0
C3303 C 0.59428 0.37365 0.77188 0.0
C3304 C 0.59527 0.39228 0.80521 0.0
C3305 C 0.60745 0.35812 0.78023 0.0
C3306 C 0.61374 0.3591 0.8012 0.0
C3307 C 0.60919 0.37447 0.83594 0.0
C3308 C 0.59987 0.38967 0.84898 0.0
C3309 C 0.6067 0.3755 0.8141 0.0
C3310 C 0.59033 0.40729 0.83979 0.0
C3311 C 0.5881 0.40862 0.81807 0.0
H3312 H 0.98688 0.66314 0.28107 0.0
H3313 H 0.99095 0.59943 0.30378 0.0
H3314 H 0.02222 0.5936 0.28287 0.0
H3315 H 0.0504 0.60739 0.26112 0.0
H3316 H 0.04812 0.67133 0.23946 0.0
H3317 H 0.01385 0.67605 0.25625 0.0
C3318 C 0.99454 0.64796 0.2813 0.0
C3319 C 0.98675 0.63189 0.29428 0.0
C3320 C 0.01277 0.64468 0.26929 0.0
C3321 C 0.99673 0.61221 0.29421 0.0
C3322 C 0.01461 0.60879 0.28218 0.0
C3323 C 0.04218 0.62224 0.25976 0.0
C3324 C 0.05178 0.63904 0.24929 0.0
C3325 C 0.02302 0.62502 0.27008 0.0
C3326 C 0.04095 0.65814 0.24738 0.0
C3327 C 0.02151 0.6609 0.25722 0.0
H3328 H 0.83245 0.98065 0.27732 0.0
H3329 H 0.8955 0.98881 0.30054 0.0
H3330 H 0.89815 0.02233 0.28257 0.0
H3331 H 0.8814 0.05092 0.26341 0.0
H3332 H 0.8184 0.04362 0.2403 0.0
H3333 H 0.81706 0.0079 0.25448 0.0
C3334 C 0.84679 0.98973 0.27831 0.0
C3335 C 0.86361 0.98243 0.29051 0.0
C3336 C 0.84827 0.00905 0.26785 0.0
C3337 C 0.88225 0.99414 0.29137 0.0
C3338 C 0.88381 0.01332 0.2811 0.0
C3339 C 0.86756 0.04128 0.26114 0.0
C3340 C 0.84998 0.04977 0.25108 0.0
C3341 C 0.86677 0.02112 0.26971 0.0
C3342 C 0.83215 0.03725 0.24797 0.0
C3343 C 0.8313 0.01697 0.25628 0.0
H3344 H 0.53169 0.83571 0.28479 0.0
H3345 H 0.52099 0.89476 0.31629 0.0
H3346 H 0.48895 0.89996 0.29644 0.0
H3347 H 0.46259 0.88687 0.27199 0.0
H3348 H 0.47219 0.82776 0.2406 0.0
H3349 H 0.50619 0.82377 0.25799 0.0
C3350 C 0.52238 0.84973 0.28722 0.0
C3351 C 0.52869 0.86468 0.3022 0.0
C3352 C 0.5038 0.85273 0.27564 0.0
C3353 C 0.51653 0.8829 0.30498 0.0
C3354 C 0.49815 0.88594 0.2936 0.0
C3355 C 0.47226 0.87324 0.26877 0.0
C3356 C 0.46484 0.8576 0.25515 0.0
C3357 C 0.49148 0.87085 0.27915 0.0
C3358 C 0.47762 0.84012 0.2509 0.0
C3359 C 0.49696 0.83772 0.26103 0.0
H3360 H 0.65451 0.45497 0.27069 0.0
H3361 H 0.6339 0.47748 0.21038 0.0
H3362 H 0.63594 0.51379 0.22325 0.0
H3363 H 0.64246 0.53891 0.25244 0.0
H3364 H 0.66122 0.51472 0.31286 0.0
H3365 H 0.66042 0.47919 0.29922 0.0
C3366 C 0.65005 0.46773 0.26037 0.0
C3367 C 0.64357 0.46345 0.23974 0.0
C3368 C 0.65082 0.48828 0.26797 0.0
C3369 C 0.6388 0.48032 0.22638 0.0
C3370 C 0.63988 0.50105 0.23378 0.0
C3371 C 0.64639 0.52584 0.26257 0.0
C3372 C 0.65186 0.52953 0.28367 0.0
C3373 C 0.6457 0.5052 0.25465 0.0
C3374 C 0.65686 0.51242 0.29661 0.0
C3375 C 0.65647 0.49204 0.28882 0.0
H3376 H 0.03751 0.86308 0.26683 0.0
H3377 H 0.0742 0.82906 0.2213 0.0
H3378 H 0.04321 0.82338 0.19982 0.0
H3379 H 0.00614 0.82986 0.19276 0.0
H3380 H 0.96873 0.86284 0.23847 0.0
H3381 H 0.99935 0.86704 0.26103 0.0
C3382 C 0.03856 0.8542 0.25236 0.0
C3383 C 0.05812 0.84692 0.24542 0.0
C3384 C 0.0206 0.85094 0.23999 0.0
C3385 C 0.05934 0.83526 0.22671 0.0
C3386 C 0.04164 0.83196 0.21442 0.0
C3387 C 0.0047 0.83791 0.20768 0.0
C3388 C 0.9853 0.8462 0.21382 0.0
C3389 C 0.02229 0.84011 0.22066 0.0
C3390 C 0.98356 0.85635 0.23334 0.0
C3391 C 0.00106 0.85879 0.24627 0.0
H3392 H 0.60155 0.0468 0.23793 0.0
H3393 H 0.66344 0.04069 0.26437 0.0
H3394 H 0.66826 0.00738 0.24596 0.0
H3395 H 0.65637 0.98208 0.21918 0.0
H3396 H 0.59479 0.98917 0.19204 0.0
H3397 H 0.58857 0.02014 0.21355 0.0
C3398 C 0.61598 0.03801 0.23989 0.0
C3399 C 0.63215 0.04631 0.25236 0.0
C3400 C 0.6189 0.01927 0.22874 0.0
C3401 C 0.65065 0.0346 0.25501 0.0
C3402 C 0.65353 0.01568 0.24425 0.0
C3403 C 0.64157 0.99037 0.21803 0.0
C3404 C 0.62619 0.98346 0.20379 0.0
C3405 C 0.63804 0.00823 0.23051 0.0
C3406 C 0.60697 0.9942 0.20273 0.0
C3407 C 0.60336 0.01192 0.21507 0.0
H3408 H 0.46093 0.66777 0.21416 0.0
H3409 H 0.48359 0.61774 0.25355 0.0
H3410 H 0.51664 0.61705 0.23405 0.0
H3411 H 0.53774 0.62885 0.2041 0.0
H3412 H 0.51509 0.679 0.16478 0.0
H3413 H 0.483 0.68123 0.18572 0.0
C3414 C 0.47324 0.65688 0.21856 0.0
C3415 C 0.46989 0.64271 0.23508 0.0
C3416 C 0.49189 0.65633 0.20707 0.0
C3417 C 0.48595 0.62886 0.24095 0.0
C3418 C 0.50469 0.62831 0.22966 0.0
C3419 C 0.52571 0.64019 0.2001 0.0
C3420 C 0.52847 0.65354 0.18282 0.0
C3421 C 0.50758 0.6416 0.21238 0.0
C3422 C 0.51312 0.66852 0.178 0.0
C3423 C 0.49486 0.66982 0.18996 0.0
H3424 H 0.84147 0.53363 0.20807 0.0
H3425 H 0.90501 0.52543 0.18622 0.0
H3426 H 0.90901 0.49468 0.20847 0.0
H3427 H 0.89371 0.46846 0.23191 0.0
H3428 H 0.82996 0.47563 0.25315 0.0
H3429 H 0.82706 0.50875 0.23402 0.0
C3430 C 0.85622 0.52518 0.20827 0.0
C3431 C 0.87281 0.53171 0.19527 0.0
C3432 C 0.85846 0.5074 0.22116 0.0
C3433 C 0.89191 0.52071 0.19593 0.0
C3434 C 0.89425 0.50311 0.20868 0.0
C3435 C 0.87927 0.47745 0.23258 0.0
C3436 C 0.86204 0.46952 0.2438 0.0
C3437 C 0.87753 0.4961 0.22107 0.0
C3438 C 0.84353 0.48145 0.24478 0.0
C3439 C 0.84177 0.50026 0.23361 0.0
H3440 H 0.2898 0.97594 0.61439 0.0
H3441 H 0.29529 0.9729 0.68171 0.0
H3442 H 0.27148 0.00279 0.68521 0.0
H3443 H 0.2531 0.03268 0.66884 0.0
H3444 H 0.24927 0.03642 0.60156 0.0
H3445 H 0.268 0.00309 0.59828 0.0
C3446 C 0.28563 0.98168 0.62985 0.0
C3447 C 0.29461 0.9725 0.64775 0.0
C3448 C 0.27215 0.99896 0.63172 0.0
C3449 C 0.28874 0.97983 0.66767 0.0
C3450 C 0.27515 0.99694 0.66969 0.0
C3451 C 0.25578 0.02575 0.65354 0.0
C3452 C 0.24983 0.0368 0.63545 0.0
C3453 C 0.26726 0.00701 0.6518 0.0
C3454 C 0.25365 0.02801 0.61564 0.0
C3455 C 0.26453 0.00911 0.61378 0.0
H3456 H 0.4659 0.25302 0.65307 0.0
H3457 H 0.46089 0.26066 0.58619 0.0
H3458 H 0.49358 0.28078 0.58578 0.0
H3459 H 0.52072 0.30001 0.60509 0.0
H3460 H 0.52453 0.29399 0.67236 0.0
H3461 H 0.49519 0.26943 0.672 0.0
C3462 C 0.47241 0.25848 0.63834 0.0
C3463 C 0.4612 0.25527 0.61965 0.0
C3464 C 0.49067 0.27077 0.63839 0.0
C3465 C 0.46944 0.26282 0.6007 0.0
C3466 C 0.48796 0.2745 0.60052 0.0
C3467 C 0.51525 0.29323 0.61967 0.0
C3468 C 0.5246 0.29913 0.63876 0.0
C3469 C 0.49823 0.27926 0.61938 0.0
C3470 C 0.51748 0.28993 0.65746 0.0
C3471 C 0.50071 0.27583 0.65728 0.0
H3472 H 0.19377 0.52501 0.68588 0.0
H3473 H 0.23793 0.55985 0.6485 0.0
H3474 H 0.2589 0.52805 0.64318 0.0
H3475 H 0.26276 0.48936 0.64672 0.0
H3476 H 0.2185 0.45557 0.68509 0.0
H3477 H 0.19964 0.48786 0.69256 0.0
C3478 C 0.20809 0.52567 0.67672 0.0
C3479 C 0.2142 0.5446 0.66743 0.0
C3480 C 0.21999 0.50744 0.67379 0.0
C3481 C 0.23294 0.54538 0.65585 0.0
C3482 C 0.24487 0.52719 0.65271 0.0
C3483 C 0.24918 0.48922 0.65694 0.0
C3484 C 0.2417 0.47006 0.66488 0.0
C3485 C 0.2383 0.50799 0.66126 0.0
C3486 C 0.22421 0.47006 0.67832 0.0
C3487 C 0.21343 0.48851 0.68267 0.0
H3488 H 0.02601 0.2415 0.62352 0.0
H3489 H 0.02529 0.25565 0.68952 0.0
H3490 H 0.99267 0.23575 0.69366 0.0
H3491 H 0.9676 0.20978 0.67925 0.0
H3492 H 0.97028 0.19454 0.61334 0.0
H3493 H 0.99886 0.21922 0.60846 0.0
C3494 C 0.01838 0.24062 0.6387 0.0
C3495 C 0.02803 0.24979 0.65621 0.0
C3496 C 1.00025 0.22851 0.64106 0.0
C3497 C 0.01804 0.24876 0.6758 0.0
C3498 C 0.99956 0.23715 0.6782 0.0
C3499 C 0.97429 0.21209 0.6638 0.0
C3500 C 0.96712 0.2 0.64679 0.0
C3501 C 0.99104 0.2262 0.66109 0.0
C3502 C 0.97578 0.20331 0.62681 0.0
C3503 C 0.99209 0.2175 0.62394 0.0
H3504 H 0.25564 0.4831 0.89149 0.0
H3505 H 0.24028 0.48145 0.82585 0.0
H3506 H 0.26132 0.51314 0.81989 0.0
H3507 H 0.28887 0.53743 0.83267 0.0
H3508 H 0.30529 0.53692 0.89829 0.0
H3509 H 0.27904 0.51012 0.90502 0.0
C3510 C 0.25644 0.49013 0.87602 0.0
C3511 C 0.24665 0.48009 0.85911 0.0
C3512 C 0.26913 0.50768 0.87267 0.0
C3513 C 0.24766 0.48911 0.83908 0.0
C3514 C 0.25989 0.50703 0.83566 0.0
C3515 C 0.28639 0.53168 0.84846 0.0
C3516 C 0.29932 0.53873 0.86486 0.0
C3517 C 0.27147 0.51586 0.8522 0.0
C3518 C 0.29588 0.53134 0.88531 0.0
C3519 C 0.28081 0.51608 0.88922 0.0
H3520 H 0.03809 0.27168 0.84556 0.0
H3521 H 0.01342 0.21344 0.86945 0.0
H3522 H 0.97765 0.22536 0.86157 0.0
H3523 H 0.95342 0.25366 0.85027 0.0
H3524 H 0.97908 0.31244 0.82854 0.0
H3525 H 0.0145 0.29908 0.83354 0.0
C3526 C 0.02489 0.2616 0.84922 0.0
C3527 C 0.02837 0.24189 0.85851 0.0
C3528 C 0.00457 0.26874 0.84515 0.0
C3529 C 0.01115 0.22873 0.86241 0.0
C3530 C 0.99072 0.2356 0.85801 0.0
C3531 C 0.96679 0.26343 0.84642 0.0
C3532 C 0.96363 0.28405 0.83907 0.0
C3533 C 0.98723 0.25576 0.84972 0.0
C3534 C 0.98108 0.29659 0.83432 0.0
C3535 C 0.00134 0.28895 0.83715 0.0
H3536 H 0.21606 0.97355 0.88239 0.0
H3537 H 0.19503 0.97797 0.81826 0.0
H3538 H 0.21655 0.00926 0.81317 0.0
H3539 H 0.23884 0.0371 0.82791 0.0
H3540 H 0.25903 0.03337 0.89214 0.0
H3541 H 0.24078 0.99974 0.8962 0.0
C3542 C 0.21622 0.98135 0.86729 0.0
C3543 C 0.20373 0.97366 0.85082 0.0
C3544 C 0.22868 0.99927 0.86446 0.0
C3545 C 0.20439 0.98367 0.83123 0.0
C3546 C 0.21671 0.00154 0.82829 0.0
C3547 C 0.23974 0.02849 0.84255 0.0
C3548 C 0.25046 0.03728 0.85962 0.0
C3549 C 0.22866 0.00964 0.84488 0.0
C3550 C 0.25117 0.02651 0.87874 0.0
C3551 C 0.24053 0.00749 0.8811 0.0
H3552 H 0.51967 0.2228 0.88147 0.0
H3553 H 0.51304 0.20274 0.81715 0.0
H3554 H 0.47999 0.22179 0.81444 0.0
H3555 H 0.45183 0.24215 0.83102 0.0
H3556 H 0.45712 0.26023 0.89581 0.0
H3557 H 0.49215 0.24439 0.89763 0.0
C3558 C 0.51104 0.22265 0.86683 0.0
C3559 C 0.51874 0.21124 0.84959 0.0
C3560 C 0.49194 0.23347 0.86544 0.0
C3561 C 0.5074 0.21127 0.83071 0.0
C3562 C 0.48853 0.22222 0.82911 0.0
C3563 C 0.46097 0.24302 0.84533 0.0
C3564 C 0.45232 0.25253 0.86317 0.0
C3565 C 0.48056 0.23317 0.84643 0.0
C3566 C 0.46382 0.2532 0.88187 0.0
C3567 C 0.48366 0.24399 0.88292 0.0
H3568 H 0.60431 0.27032 0.05227 0.0
H3569 H 0.66578 0.24373 0.04331 0.0
H3570 H 0.67064 0.26502 0.01178 0.0
H3571 H 0.65883 0.29415 0.98909 0.0
H3572 H 0.59753 0.32101 0.99896 0.0
H3573 H 0.5914 0.29711 0.02813 0.0
C3574 C 0.61859 0.26889 0.04312 0.0
C3575 C 0.63469 0.2556 0.0501 0.0
C3576 C 0.62155 0.2817 0.02556 0.0
C3577 C 0.65306 0.25372 0.03811 0.0
C3578 C 0.65599 0.26615 0.02029 0.0
C3579 C 0.64419 0.29477 0.99771 0.0
C3580 C 0.62877 0.30948 0.99212 0.0
C3581 C 0.64064 0.28075 0.01433 0.0
C3582 C 0.60968 0.30988 0.00308 0.0
C3583 C 0.60612 0.29618 0.01969 0.0
H3584 H 0.66058 0.22063 0.52794 0.0
H3585 H 0.59763 0.19731 0.51966 0.0
H3586 H 0.59359 0.21866 0.48821 0.0
H3587 H 0.60906 0.24131 0.46129 0.0
H3588 H 0.67203 0.26445 0.46904 0.0
H3589 H 0.67471 0.24647 0.50282 0.0
C3590 C 0.64596 0.22031 0.51929 0.0
C3591 C 0.62955 0.20714 0.52593 0.0
C3592 C 0.64367 0.23277 0.50125 0.0
C3593 C 0.61056 0.20718 0.5148 0.0
C3594 C 0.60821 0.21941 0.49682 0.0
C3595 C 0.62319 0.24276 0.47063 0.0
C3596 C 0.64036 0.25405 0.46267 0.0
C3597 C 0.62479 0.23193 0.48969 0.0
C3598 C 0.65854 0.25598 0.47492 0.0
C3599 C 0.66018 0.24546 0.4941 0.0
H3600 H 0.26869 0.68047 0.45751 0.0
H3601 H 0.22728 0.63069 0.47663 0.0
H3602 H 0.2415 0.63227 0.51231 0.0
H3603 H 0.26872 0.64492 0.53648 0.0
H3604 H 0.30976 0.69521 0.51766 0.0
H3605 H 0.29253 0.69664 0.48335 0.0
C3606 C 0.26254 0.67034 0.4697 0.0
C3607 C 0.24716 0.65539 0.46469 0.0
C3608 C 0.27084 0.67133 0.49001 0.0
C3609 C 0.23911 0.6423 0.48035 0.0
C3610 C 0.24733 0.64313 0.50063 0.0
C3611 C 0.27364 0.6564 0.52494 0.0
C3612 C 0.2906 0.66976 0.52932 0.0
C3613 C 0.26365 0.65712 0.5054 0.0
C3614 C 0.29671 0.6848 0.51452 0.0
C3615 C 0.28696 0.68552 0.49492 0.0
H3616 H 0.88991 0.28546 0.51312 0.0
H3617 H 0.82434 0.27433 0.52552 0.0
H3618 H 0.82261 0.25027 0.49575 0.0
H3619 H 0.83871 0.23571 0.46382 0.0
H3620 H 0.90352 0.24876 0.45024 0.0
H3621 H 0.90678 0.26833 0.48313 0.0
C3622 C 0.87527 0.27764 0.50944 0.0
C3623 C 0.8572 0.28194 0.52135 0.0
C3624 C 0.87432 0.26405 0.49215 0.0
C3625 C 0.83843 0.27148 0.51649 0.0
C3626 C 0.83743 0.25769 0.49948 0.0
C3627 C 0.85369 0.24226 0.46849 0.0
C3628 C 0.87093 0.24068 0.45489 0.0
C3629 C 0.85514 0.25424 0.48691 0.0
C3630 C 0.89016 0.24963 0.4607 0.0
C3631 C 0.89193 0.26099 0.47934 0.0
H3632 H 0.21949 0.83944 0.53003 0.0
H3633 H 0.19783 0.90232 0.51732 0.0
H3634 H 0.22136 0.90456 0.48727 0.0
H3635 H 0.24516 0.88733 0.46248 0.0
H3636 H 0.266 0.82411 0.47425 0.0
H3637 H 0.24646 0.82363 0.50725 0.0
C3638 C 0.22 0.85366 0.52074 0.0
C3639 C 0.20664 0.87054 0.52568 0.0
C3640 C 0.23362 0.85488 0.50346 0.0
C3641 C 0.20778 0.88902 0.51375 0.0
C3642 C 0.22127 0.89034 0.49657 0.0
C3643 C 0.2458 0.87364 0.47256 0.0
C3644 C 0.25685 0.85573 0.46589 0.0
C3645 C 0.2339 0.87321 0.49103 0.0
C3646 C 0.25775 0.83815 0.47911 0.0
C3647 C 0.2463 0.83776 0.49782 0.0
H3648 H 0.88481 0.24114 0.02623 0.0
H3649 H 0.81896 0.25568 0.02899 0.0
H3650 H 0.81298 0.2354 0.99681 0.0
H3651 H 0.826 0.20941 0.97076 0.0
H3652 H 0.8919 0.19393 0.97007 0.0
H3653 H 0.89826 0.21845 0.99854 0.0
C3654 C 0.86922 0.24024 0.0195 0.0
C3655 C 0.85234 0.24975 0.03001 0.0
C3656 C 0.86583 0.22794 0.00159 0.0
C3657 C 0.83223 0.24861 0.02109 0.0
C3658 C 0.82879 0.23677 0.00286 0.0
C3659 C 0.84177 0.21161 0.97669 0.0
C3660 C 0.85837 0.19953 0.96847 0.0
C3661 C 0.84536 0.22568 0.99342 0.0
C3662 C 0.87874 0.2027 0.97627 0.0
C3663 C 0.88245 0.21681 0.99254 0.0
H3664 H 0.26864 0.84756 0.95798 0.0
H3665 H 0.32695 0.82641 0.98513 0.0
H3666 H 0.31117 0.82659 0.01982 0.0
H3667 H 0.28188 0.83475 0.0427 0.0
H3668 H 0.22394 0.85807 0.01699 0.0
H3669 H 0.23824 0.85445 0.98137 0.0
C3670 C 0.27779 0.84284 0.9715 0.0
C3671 C 0.299 0.83715 0.96899 0.0
C3672 C 0.26868 0.84331 0.9916 0.0
C3673 C 0.31069 0.83109 0.98663 0.0
C3674 C 0.30167 0.83111 0.00648 0.0
C3675 C 0.27235 0.83904 0.02929 0.0
C3676 C 0.25205 0.84702 0.03242 0.0
C3677 C 0.28086 0.83754 0.00917 0.0
C3678 C 0.23964 0.85195 0.01493 0.0
C3679 C 0.24789 0.85003 0.99462 0.0
H3680 H 0.24764 0.60433 0.04296 0.0
H3681 H 0.27235 0.66653 0.03353 0.0
H3682 H 0.25358 0.66914 1.00017 0.0
H3683 H 0.22671 0.65527 0.97587 0.0
H3684 H 0.20126 0.59342 0.98664 0.0
H3685 H 0.22344 0.58933 0.01735 0.0
C3686 C 0.24917 0.61833 0.03342 0.0
C3687 C 0.2612 0.63526 0.04078 0.0
C3688 C 0.2378 0.61998 0.01469 0.0
C3689 C 0.2633 0.6532 0.02815 0.0
C3690 C 0.25233 0.65481 0.00921 0.0
C3691 C 0.22612 0.64086 0.98488 0.0
C3692 C 0.2121 0.62481 0.97908 0.0
C3693 C 0.23895 0.63857 0.00269 0.0
C3694 C 0.21174 0.60613 0.99079 0.0
C3695 C 0.22447 0.60372 0.00837 0.0
H3696 H 0.01936 0.33115 0.72477 0.0
H3697 H 0.01218 0.39388 0.70025 0.0
H3698 H 0.97932 0.3979 0.71905 0.0
H3699 H 0.95118 0.38281 0.74008 0.0
H3700 H 0.95734 0.32003 0.76434 0.0
H3701 H 0.99226 0.3171 0.7487 0.0
C3702 C 0.01062 0.3457 0.72364 0.0
C3703 C 0.0181 0.36206 0.71091 0.0
C3704 C 0.99163 0.34801 0.73462 0.0
C3705 C 0.00676 0.38096 0.70983 0.0
C3706 C 0.98794 0.38333 0.7206 0.0
C3707 C 0.96034 0.36861 0.74219 0.0
C3708 C 0.95169 0.35163 0.75316 0.0
C3709 C 0.98006 0.36686 0.73273 0.0
C3710 C 0.96375 0.3334 0.75605 0.0
C3711 C 0.9836 0.33161 0.74689 0.0
H3712 H 0.15839 0.95209 0.72478 0.0
H3713 H 0.13897 0.97482 0.78545 0.0
H3714 H 0.14424 0.01108 0.77364 0.0
H3715 H 0.15252 0.03623 0.7452 0.0
H3716 H 0.16997 0.01248 0.6842 0.0
H3717 H 0.16682 0.97665 0.69694 0.0
C3718 C 0.15505 0.96496 0.73541 0.0
C3719 C 0.14787 0.96076 0.75585 0.0
C3720 C 0.15761 0.98558 0.72838 0.0
C3721 C 0.14443 0.97762 0.76962 0.0
C3722 C 0.14732 0.99833 0.76282 0.0
C3723 C 0.15572 0.0232 0.73474 0.0
C3724 C 0.16143 0.02707 0.71374 0.0
C3725 C 0.15363 0.0025 0.74211 0.0
C3726 C 0.16547 0.01001 0.70038 0.0
C3727 C 0.16371 0.98949 0.70765 0.0
H3728 H 0.54706 0.16906 0.72201 0.0
H3729 H 0.52404 0.12824 0.7706 0.0
H3730 H 0.48904 0.12854 0.75444 0.0
H3731 H 0.46583 0.13896 0.72521 0.0
H3732 H 0.48948 0.18019 0.67703 0.0
H3733 H 0.5236 0.18109 0.69426 0.0
C3734 C 0.53431 0.1603 0.72908 0.0
C3735 C 0.53801 0.14841 0.74722 0.0
C3736 C 0.51452 0.1605 0.71968 0.0
C3737 C 0.52142 0.13743 0.75656 0.0
C3738 C 0.50154 0.13753 0.74726 0.0
C3739 C 0.47848 0.14813 0.7185 0.0
C3740 C 0.47523 0.15934 0.69976 0.0
C3741 C 0.49803 0.14872 0.7286 0.0
C3742 C 0.49161 0.17142 0.69141 0.0
C3743 C 0.51111 0.17193 0.70123 0.0
H3744 H 0.34001 0.483 0.71553 0.0
H3745 H 0.39761 0.49448 0.68189 0.0
H3746 H 0.4043 0.52534 0.7033 0.0
H3747 H 0.39272 0.5506 0.72972 0.0
H3748 H 0.3348 0.54021 0.76291 0.0
H3749 H 0.32971 0.50714 0.7441 0.0
C3750 C 0.35407 0.4922 0.71297 0.0
C3751 C 0.36813 0.48653 0.69693 0.0
C3752 C 0.35789 0.51007 0.72539 0.0
C3753 C 0.3864 0.49851 0.69399 0.0
C3754 C 0.3903 0.51619 0.70626 0.0
C3755 C 0.3791 0.54096 0.733 0.0
C3756 C 0.36411 0.54793 0.74758 0.0
C3757 C 0.376 0.52231 0.72174 0.0
C3758 C 0.34668 0.53514 0.7519 0.0
C3759 C 0.34363 0.51634 0.74095 0.0
H3760 H 0.95184 0.1557 0.78614 0.0
H3761 H 0.97698 0.13088 0.72853 0.0
H3762 H 0.01275 0.1352 0.74218 0.0
H3763 H 0.03651 0.14327 0.77198 0.0
H3764 H 0.00999 0.16627 0.82992 0.0
H3765 H 0.97507 0.16515 0.81474 0.0
C3766 C 0.96516 0.15121 0.77655 0.0
C3767 C 0.96183 0.14262 0.75655 0.0
C3768 C 0.98539 0.15322 0.78467 0.0
C3769 C 0.9792 0.13745 0.74403 0.0
C3770 C 0.99959 0.13979 0.7519 0.0
C3771 C 0.02308 0.14821 0.78117 0.0
C3772 C 0.02582 0.15466 0.80212 0.0
C3773 C 0.00285 0.14722 0.77241 0.0
C3774 C 0.0083 0.16099 0.81386 0.0
C3775 C 0.98831 0.16042 0.80519 0.0
H3776 H 0.36235 0.03897 0.7619 0.0
H3777 H 0.33603 0.01265 0.81846 0.0
H3778 H 0.33972 0.97749 0.80409 0.0
H3779 H 0.35058 0.95415 0.776 0.0
H3780 H 0.37843 0.97927 0.71977 0.0
H3781 H 0.37343 0.01502 0.73325 0.0
C3782 C 0.35736 0.02553 0.77104 0.0
C3783 C 0.34894 0.02851 0.79128 0.0
C3784 C 0.35972 0.00516 0.76273 0.0
C3785 C 0.34261 0.0109 0.8029 0.0
C3786 C 0.34469 0.99074 0.79469 0.0
C3787 C 0.35592 0.96738 0.76676 0.0
C3788 C 0.36531 0.96396 0.74707 0.0
C3789 C 0.35335 0.98769 0.77473 0.0
C3790 C 0.37126 0.98142 0.73501 0.0
C3791 C 0.36849 0.00185 0.74276 0.0
H3792 H 0.46262 0.32779 0.78032 0.0
H3793 H 0.4605 0.39281 0.79938 0.0
H3794 H 0.49037 0.40065 0.77723 0.0
H3795 H 0.51955 0.3886 0.75575 0.0
H3796 H 0.52358 0.32368 0.73751 0.0
H3797 H 0.49026 0.3164 0.75528 0.0
C3798 C 0.4686 0.34368 0.77944 0.0
C3799 C 0.45954 0.35956 0.79186 0.0
C3800 C 0.48609 0.34817 0.76668 0.0
C3801 C 0.46735 0.38015 0.79035 0.0
C3802 C 0.48442 0.38473 0.77758 0.0
C3803 C 0.51284 0.37297 0.75526 0.0
C3804 C 0.52399 0.35669 0.74549 0.0
C3805 C 0.49423 0.3688 0.76614 0.0
C3806 C 0.51516 0.33651 0.74482 0.0
C3807 C 0.49627 0.33229 0.75524 0.0
H3808 H 0.16036 0.48982 0.79693 0.0
H3809 H 0.09995 0.50024 0.8255 0.0
H3810 H 0.09303 0.52893 0.80116 0.0
H3811 H 0.10505 0.55246 0.77345 0.0
H3812 H 0.16577 0.54317 0.74538 0.0
H3813 H 0.17126 0.51193 0.76702 0.0
C3814 C 0.14577 0.49849 0.79787 0.0
C3815 C 0.13082 0.49321 0.81318 0.0
C3816 C 0.14175 0.51479 0.78359 0.0
C3817 C 0.11175 0.50419 0.81396 0.0
C3818 C 0.10773 0.52048 0.79998 0.0
C3819 C 0.11926 0.54326 0.77175 0.0
C3820 C 0.13501 0.5501 0.75797 0.0
C3821 C 0.12267 0.526 0.78486 0.0
C3822 C 0.15333 0.53807 0.75574 0.0
C3823 C 0.15663 0.52045 0.7684 0.0
H3824 H 0.76702 0.99052 0.35247 0.0
H3825 H 0.7192 0.95533 0.32022 0.0
H3826 H 0.69865 0.98717 0.31508 0.0
H3827 H 0.6926 0.02429 0.32266 0.0
H3828 H 0.74022 0.06027 0.35435 0.0
H3829 H 0.76249 0.02905 0.35679 0.0
C3830 C 0.75235 0.99003 0.3439 0.0
C3831 C 0.74452 0.97066 0.33686 0.0
C3832 C 0.74042 0.00847 0.34121 0.0
C3833 C 0.72543 0.9701 0.32587 0.0
C3834 C 0.71363 0.98826 0.32302 0.0
C3835 C 0.70791 0.02531 0.32998 0.0
C3836 C 0.71466 0.04445 0.33851 0.0
C3837 C 0.72066 0.0074 0.33116 0.0
C3838 C 0.73467 0.04566 0.34767 0.0
C3839 C 0.7474 0.02781 0.34911 0.0
H3840 H 0.48815 0.70104 0.32042 0.0
H3841 H 0.49073 0.68479 0.38607 0.0
H3842 H 0.51832 0.71042 0.3917 0.0
H3843 H 0.54331 0.73559 0.37784 0.0
H3844 H 0.54295 0.75105 0.31217 0.0
H3845 H 0.5123 0.72837 0.3068 0.0
C3846 C 0.49482 0.70312 0.33591 0.0
C3847 C 0.48753 0.69089 0.35275 0.0
C3848 C 0.51078 0.71802 0.33911 0.0
C3849 C 0.4961 0.69392 0.37281 0.0
C3850 C 0.51183 0.70865 0.3761 0.0
C3851 C 0.5362 0.73431 0.36244 0.0
C3852 C 0.54529 0.74483 0.34542 0.0
C3853 C 0.51939 0.72061 0.35937 0.0
C3854 C 0.53602 0.74321 0.32553 0.0
C3855 C 0.51875 0.72999 0.32242 0.0
H3856 H 0.77994 0.4716 0.3314 0.0
H3857 H 0.80875 0.48468 0.39125 0.0
H3858 H 0.78618 0.51508 0.39586 0.0
H3859 H 0.76147 0.54038 0.3811 0.0
H3860 H 0.73325 0.52855 0.32093 0.0
H3861 H 0.75168 0.4949 0.31859 0.0
C3862 C 0.78114 0.48101 0.34552 0.0
C3863 C 0.79631 0.47606 0.36076 0.0
C3864 C 0.76806 0.49862 0.34811 0.0
C3865 C 0.79741 0.48822 0.37912 0.0
C3866 C 0.78446 0.50562 0.38183 0.0
C3867 C 0.75893 0.53011 0.36777 0.0
C3868 C 0.74617 0.53692 0.35118 0.0
C3869 C 0.77014 0.51127 0.36621 0.0
C3870 C 0.74288 0.52354 0.33398 0.0
C3871 C 0.75368 0.50446 0.3325 0.0
H3872 H 0.0361 0.78431 0.33363 0.0
H3873 H 0.0192 0.81364 0.3923 0.0
H3874 H 0.9888 0.79095 0.39527 0.0
H3875 H 0.96503 0.76533 0.37974 0.0
H3876 H 0.98038 0.7367 0.3205 0.0
H3877 H 0.01361 0.7559 0.31959 0.0
C3878 C 0.02585 0.78559 0.34713 0.0
C3879 C 0.02978 0.80093 0.36252 0.0
C3880 C 0.00814 0.77249 0.34873 0.0
C3881 C 0.01645 0.80222 0.38004 0.0
C3882 C 0.99905 0.78918 0.38182 0.0
C3883 C 0.97585 0.76304 0.36681 0.0
C3884 C 0.97021 0.74978 0.35016 0.0
C3885 C 0.99448 0.77463 0.36606 0.0
C3886 C 0.98443 0.74672 0.3336 0.0
C3887 C 0.00331 0.75791 0.33294 0.0
H3888 H 0.72148 0.47382 0.16406 0.0
H3889 H 0.7091 0.47326 0.09751 0.0
H3890 H 0.73189 0.50334 0.09267 0.0
H3891 H 0.75194 0.53226 0.10757 0.0
H3892 H 0.76377 0.53445 0.17396 0.0
H3893 H 0.74523 0.50104 0.17858 0.0
C3894 C 0.724 0.48015 0.1485 0.0
C3895 C 0.71325 0.47153 0.13126 0.0
C3896 C 0.73709 0.49774 0.14576 0.0
C3897 C 0.71684 0.47979 0.11114 0.0
C3898 C 0.72995 0.49698 0.1083 0.0
C3899 C 0.75083 0.52514 0.12297 0.0
C3900 C 0.759 0.53576 0.14041 0.0
C3901 C 0.73966 0.50642 0.12553 0.0
C3902 C 0.75766 0.52643 0.16029 0.0
C3903 C 0.74685 0.50748 0.16295 0.0
H3904 H 0.04334 0.70771 0.17646 0.0
H3905 H 0.04494 0.69708 0.10965 0.0
H3906 H 0.01665 0.72214 0.10465 0.0
H3907 H 0.98838 0.74316 0.11946 0.0
H3908 H 0.9844 0.75247 0.18613 0.0
H3909 H 0.01695 0.73241 0.19107 0.0
C3910 C 0.03767 0.71117 0.16082 0.0
C3911 C 0.04593 0.70027 0.14349 0.0
C3912 C 0.02098 0.72539 0.15806 0.0
C3913 C 0.03855 0.70494 0.12329 0.0
C3914 C 0.02242 0.71934 0.12038 0.0
C3915 C 0.99507 0.7413 0.13499 0.0
C3916 C 0.98424 0.7492 0.15241 0.0
C3917 C 0.0131 0.7291 0.13768 0.0
C3918 C 0.99273 0.74664 0.17252 0.0
C3919 C 0.01114 0.73496 0.17532 0.0
H3920 H 0.75996 0.05207 0.14847 0.0
H3921 H 0.81722 0.02864 0.17606 0.0
H3922 H 0.80299 0.99333 0.1764 0.0
H3923 H 0.77505 0.96892 0.1683 0.0
H3924 H 0.71808 0.99068 0.1392 0.0
H3925 H 0.73118 0.02694 0.14054 0.0
C3926 C 0.76924 0.03922 0.15462 0.0
C3927 C 0.78967 0.04301 0.16214 0.0
C3928 C 0.76102 0.0187 0.15458 0.0
C3929 C 0.80154 0.0262 0.17002 0.0
C3930 C 0.7934 0.00597 0.17029 0.0
C3931 C 0.76553 0.98155 0.16201 0.0
C3932 C 0.74582 0.97709 0.15325 0.0
C3933 C 0.7733 0.00203 0.16244 0.0
C3934 C 0.73337 0.99372 0.14591 0.0
C3935 C 0.74091 0.0144 0.14659 0.0
H3936 H 0.54754 0.78743 0.14842 0.0
H3937 H 0.52423 0.72793 0.12616 0.0
H3938 H 0.48809 0.74014 0.13157 0.0
H3939 H 0.46321 0.76881 0.14082 0.0
H3940 H 0.48791 0.82875 0.16058 0.0
H3941 H 0.52345 0.81543 0.15731 0.0
C3942 C 0.5346 0.77714 0.14443 0.0
C3943 C 0.53863 0.75695 0.13641 0.0
C3944 C 0.51408 0.78446 0.14693 0.0
C3945 C 0.52161 0.74358 0.13224 0.0
C3946 C 0.50095 0.75063 0.1352 0.0
C3947 C 0.47639 0.77891 0.14443 0.0
C3948 C 0.47285 0.7998 0.15087 0.0
C3949 C 0.497 0.7712 0.14223 0.0
C3950 C 0.49011 0.81269 0.15545 0.0
C3951 C 0.51048 0.80507 0.15367 0.0
H3952 H 0.33375 0.69522 0.01543 0.0
H3953 H 0.3579 0.74649 0.05229 0.0
H3954 H 0.36371 0.76705 0.02038 0.0
H3955 H 0.36502 0.7689 0.98147 0.0
H3956 H 0.34027 0.7173 0.94541 0.0
H3957 H 0.33132 0.69859 0.97744 0.0
C3958 C 0.3401 0.71097 0.01648 0.0
C3959 C 0.3456 0.71924 0.03608 0.0
C3960 C 0.34333 0.72265 0.99817 0.0
C3961 C 0.35353 0.73979 0.0373 0.0
C3962 C 0.35693 0.75152 0.01907 0.0
C3963 C 0.3573 0.75377 0.98074 0.0
C3964 C 0.35364 0.7443 0.96119 0.0
C3965 C 0.35231 0.74293 0.99934 0.0
C3966 C 0.34355 0.7247 0.96035 0.0
C3967 C 0.33845 0.71398 0.97863 0.0
H3968 H 0.34488 0.74383 0.54158 0.0
H3969 H 0.41108 0.75515 0.54857 0.0
H3970 H 0.41264 0.76948 0.51298 0.0
H3971 H 0.39425 0.78272 0.48196 0.0
H3972 H 0.32738 0.77409 0.47641 0.0
H3973 H 0.32695 0.75466 0.50938 0.0
C3974 C 0.35974 0.74886 0.53501 0.0
C3975 C 0.37789 0.74833 0.54745 0.0
C3976 C 0.36027 0.75791 0.51502 0.0
C3977 C 0.39699 0.75531 0.5391 0.0
C3978 C 0.39782 0.76364 0.51888 0.0
C3979 C 0.37962 0.77637 0.48783 0.0
C3980 C 0.36084 0.78003 0.47689 0.0
C3981 C 0.37942 0.76568 0.50701 0.0
C3982 C 0.34201 0.7717 0.48468 0.0
C3983 C 0.34176 0.76055 0.50349 0.0
H3984 H 0.74205 0.38603 0.53417 0.0
H3985 H 0.76609 0.32358 0.5247 0.0
H3986 H 0.74673 0.32088 0.49165 0.0
H3987 H 0.71892 0.33453 0.46816 0.0
H3988 H 0.69409 0.39661 0.47922 0.0
H3989 H 0.71751 0.40105 0.50892 0.0
C3990 C 0.74343 0.37202 0.5246 0.0
C3991 C 0.75535 0.35499 0.53193 0.0
C3992 C 0.73163 0.37029 0.50613 0.0
C3993 C 0.75715 0.33698 0.51933 0.0
C3994 C 0.74581 0.33532 0.50058 0.0
C3995 C 0.71878 0.34909 0.47696 0.0
C3996 C 0.70444 0.36504 0.47163 0.0
C3997 C 0.73231 0.35156 0.49427 0.0
C3998 C 0.70468 0.38391 0.48308 0.0
C3999 C 0.71815 0.38653 0.50008 0.0
H4000 H 0.16636 0.7605 0.52986 0.0
H4001 H 0.10056 0.75133 0.54176 0.0
H4002 H 0.09717 0.73122 0.50924 0.0
H4003 H 0.11382 0.71274 0.47992 0.0
H4004 H 0.18013 0.72024 0.4689 0.0
H4005 H 0.18246 0.74451 0.49848 0.0
C4006 C 0.15119 0.75465 0.52491 0.0
C4007 C 0.13367 0.75752 0.53797 0.0
C4008 C 0.14957 0.74242 0.50662 0.0
C4009 C 0.11416 0.74946 0.53176 0.0
C4010 C 0.11229 0.7378 0.51331 0.0
C4011 C 0.12877 0.71981 0.48385 0.0
C4012 C 0.14683 0.71443 0.47235 0.0
C4013 C 0.13004 0.73357 0.50101 0.0
C4014 C 0.166 0.72395 0.47756 0.0
C4015 C 0.16736 0.73785 0.49449 0.0
H4016 H 0.74233 0.1667 0.53215 0.0
H4017 H 0.75133 0.10124 0.5463 0.0
H4018 H 0.77237 0.09692 0.51452 0.0
H4019 H 0.79167 0.11275 0.48542 0.0
H4020 H 0.78414 0.17866 0.47195 0.0
H4021 H 0.75901 0.18186 0.50074 0.0
C4022 C 0.74834 0.15137 0.52784 0.0
C4023 C 0.74523 0.13425 0.54136 0.0
C4024 C 0.76106 0.14923 0.50999 0.0
C4025 C 0.75345 0.11454 0.53596 0.0
C4026 C 0.76562 0.11215 0.51794 0.0
C4027 C 0.78445 0.12781 0.48868 0.0
C4028 C 0.79004 0.14552 0.47679 0.0
C4029 C 0.77016 0.12955 0.50529 0.0
C4030 C 0.78026 0.16482 0.481 0.0
C4031 C 0.76587 0.16666 0.49744 0.0
H4032 H 0.17108 0.77528 0.03258 0.0
H4033 H 0.10889 0.7995 0.02137 0.0
H4034 H 0.10565 0.7776 0.99028 0.0
H4035 H 0.12145 0.75385 0.9646 0.0
H4036 H 0.18355 0.72948 0.9751 0.0
H4037 H 0.18561 0.74852 0.00841 0.0
C4038 C 0.15682 0.77567 0.02335 0.0
C4039 C 0.14038 0.78922 0.02915 0.0
C4040 C 0.15494 0.76283 0.00547 0.0
C4041 C 0.12184 0.78931 0.01723 0.0
C4042 C 0.11994 0.77676 0.99943 0.0
C4043 C 0.13525 0.75238 0.97443 0.0
C4044 C 0.15233 0.74036 0.96742 0.0
C4045 C 0.13649 0.76374 0.99322 0.0
C4046 C 0.17011 0.73848 0.98028 0.0
C4047 C 0.17139 0.7496 0.99918 0.0
H4048 H 0.74597 0.16902 0.96874 0.0
H4049 H 0.74768 0.1015 0.97029 0.0
H4050 H 0.72958 0.10152 0.0041 0.0
H4051 H 0.7085 0.12048 0.02985 0.0
H4052 H 0.70478 0.18801 0.02752 0.0
H4053 H 0.72857 0.1884 0.99739 0.0
C4054 C 0.74304 0.15442 0.97697 0.0
C4055 C 0.74818 0.13528 0.96736 0.0
C4056 C 0.73183 0.15458 0.99588 0.0
C4057 C 0.744 0.11635 0.9777 0.0
C4058 C 0.73345 0.11638 0.99683 0.0
C4059 C 0.71303 0.13531 0.02285 0.0
C4060 C 0.70456 0.15416 0.03049 0.0
C4061 C 0.72646 0.13535 0.00552 0.0
C4062 C 0.71095 0.17329 0.02169 0.0
C4063 C 0.72452 0.1735 0.00448 0.0
H4064 H 0.76631 0.39521 0.97113 0.0
H4065 H 0.72985 0.34136 0.98932 0.0
H4066 H 0.75033 0.33812 0.02165 0.0
H4067 H 0.78191 0.34761 0.04183 0.0
H4068 H 0.81868 0.40114 0.02269 0.0
H4069 H 0.79479 0.40752 0.99365 0.0
C4070 C 0.76258 0.3831 0.98248 0.0
C4071 C 0.74684 0.36843 0.97791 0.0
C4072 C 0.77474 0.38102 1.0006 0.0
C4073 C 0.7419 0.35286 0.99265 0.0
C4074 C 0.75376 0.35087 0.01097 0.0
C4075 C 0.78456 0.36078 0.03142 0.0
C4076 C 0.80228 0.3736 0.03414 0.0
C4077 C 0.77077 0.36434 0.01464 0.0
C4078 C 0.80529 0.39087 0.0208 0.0
C4079 C 0.79164 0.39455 0.00417 0.0
loop_
_geom_bond_atom_site_label_1
_geom_bond_atom_site_label_2
_geom_bond_distance
_geom_bond_site_symmetry_2
_ccdc_geom_bond_type
O0 Tb1 2.292 . S
O0 C3 1.255 . S
Tb1 O0 2.292 . S
Tb1 O17 2.326 . S
Tb1 O19 2.500 . S
Tb1 O20 2.473 . S
Tb1 O23 2.324 . S
Eu2 O6 2.292 . S
Eu2 C7 2.852 . S
Eu2 O18 2.324 . S
Eu2 O22 2.326 . S
Eu2 O24 2.500 . S
Eu2 O25 2.473 . S
C3 O0 1.255 . S
C3 O4 1.247 . S
O4 C3 1.247 . S
C5 O17 1.242 . S
C5 O18 1.258 . S
O6 Eu2 2.292 . S
O6 C8 1.255 . S
C7 Eu2 2.852 . S
C7 C11 1.503 . S
C7 O24 1.273 . S
C7 O25 1.257 . S
C8 O6 1.255 . S
C8 O9 1.247 . S
O9 C8 1.247 . S
C10 O22 1.242 . S
C10 O23 1.258 . S
C11 C7 1.503 . S
C11 C12 1.379 . S
C11 C16 1.392 . S
C12 C11 1.379 . S
C12 C13 1.404 . S
C12 H26 0.929 . S
C13 C12 1.404 . S
C13 C14 1.389 . S
C14 C13 1.389 . S
C14 C15 1.399 . S
C14 H27 0.931 . S
C15 C14 1.399 . S
C15 C16 1.390 . S
C16 C11 1.392 . S
C16 C15 1.390 . S
C16 H28 0.929 . S
O17 Tb1 2.326 . S
O17 C5 1.242 . S
O18 Eu2 2.324 . S
O18 C5 1.258 . S
O19 Tb1 2.500 . S
O19 C21 1.273 . S
O20 Tb1 2.473 . S
O20 C21 1.257 . S
C21 O19 1.273 . S
C21 O20 1.257 . S
O22 Eu2 2.326 . S
O22 C10 1.242 . S
O23 Tb1 2.324 . S
O23 C10 1.258 . S
O24 Eu2 2.500 . S
O24 C7 1.273 . S
O25 Eu2 2.473 . S
O25 C7 1.257 . S
H26 C12 0.929 . S
H27 C14 0.931 . S
H28 C16 0.929 . S
O29 Tb30 2.292 . S
O29 C32 1.255 . S
Tb30 O29 2.292 . S
Tb30 O46 2.326 . S
Tb30 O48 2.500 . S
Tb30 O49 2.473 . S
Tb30 O52 2.324 . S
Eu31 O35 2.292 . S
Eu31 C36 2.852 . S
Eu31 O47 2.324 . S
Eu31 O51 2.326 . S
Eu31 O53 2.500 . S
Eu31 O54 2.473 . S
C32 O29 1.255 . S
C32 O33 1.247 . S
O33 C32 1.247 . S
C34 O46 1.242 . S
C34 O47 1.258 . S
O35 Eu31 2.292 . S
O35 C37 1.255 . S
C36 Eu31 2.852 . S
C36 C40 1.503 . S
C36 O53 1.273 . S
C36 O54 1.257 . S
C37 O35 1.255 . S
C37 O38 1.247 . S
O38 C37 1.247 . S
C39 O51 1.242 . S
C39 O52 1.258 . S
C40 C36 1.503 . S
C40 C41 1.379 . S
C40 C45 1.392 . S
C41 C40 1.379 . S
C41 C42 1.404 . S
C41 H55 0.929 . S
C42 C41 1.404 . S
C42 C43 1.389 . S
C43 C42 1.389 . S
C43 C44 1.399 . S
C43 H56 0.931 . S
C44 C43 1.399 . S
C44 C45 1.390 . S
C45 C40 1.392 . S
C45 C44 1.390 . S
C45 H57 0.929 . S
O46 Tb30 2.326 . S
O46 C34 1.242 . S
O47 Eu31 2.324 . S
O47 C34 1.258 . S
O48 Tb30 2.500 . S
O48 C50 1.273 . S
O49 Tb30 2.473 . S
O49 C50 1.257 . S
C50 O48 1.273 . S
C50 O49 1.257 . S
O51 Eu31 2.326 . S
O51 C39 1.242 . S
O52 Tb30 2.324 . S
O52 C39 1.258 . S
O53 Eu31 2.500 . S
O53 C36 1.273 . S
O54 Eu31 2.473 . S
O54 C36 1.257 . S
H55 C41 0.929 . S
H56 C43 0.931 . S
H57 C45 0.929 . S
O58 Tb59 2.292 . S
O58 C61 1.255 . S
Tb59 O58 2.292 . S
Tb59 O75 2.326 . S
Tb59 O77 2.500 . S
Tb59 O78 2.473 . S
Tb59 O81 2.324 . S
Eu60 O64 2.292 . S
Eu60 C65 2.852 . S
Eu60 O76 2.324 . S
Eu60 O80 2.326 . S
Eu60 O82 2.500 . S
Eu60 O83 2.473 . S
C61 O58 1.255 . S
C61 O62 1.247 . S
O62 C61 1.247 . S
C63 O75 1.242 . S
C63 O76 1.258 . S
O64 Eu60 2.292 . S
O64 C66 1.255 . S
C65 Eu60 2.852 . S
C65 C69 1.503 . S
C65 O82 1.273 . S
C65 O83 1.257 . S
C66 O64 1.255 . S
C66 O67 1.247 . S
O67 C66 1.247 . S
C68 O80 1.242 . S
C68 O81 1.258 . S
C69 C65 1.503 . S
C69 C70 1.379 . S
C69 C74 1.392 . S
C70 C69 1.379 . S
C70 C71 1.404 . S
C70 H84 0.929 . S
C71 C70 1.404 . S
C71 C72 1.389 . S
C72 C71 1.389 . S
C72 C73 1.399 . S
C72 H85 0.931 . S
C73 C72 1.399 . S
C73 C74 1.390 . S
C74 C69 1.392 . S
C74 C73 1.390 . S
C74 H86 0.929 . S
O75 Tb59 2.326 . S
O75 C63 1.242 . S
O76 Eu60 2.324 . S
O76 C63 1.258 . S
O77 Tb59 2.500 . S
O77 C79 1.273 . S
O78 Tb59 2.473 . S
O78 C79 1.257 . S
C79 O77 1.273 . S
C79 O78 1.257 . S
O80 Eu60 2.326 . S
O80 C68 1.242 . S
O81 Tb59 2.324 . S
O81 C68 1.258 . S
O82 Eu60 2.500 . S
O82 C65 1.273 . S
O83 Eu60 2.473 . S
O83 C65 1.257 . S
H84 C70 0.929 . S
H85 C72 0.931 . S
H86 C74 0.929 . S
O87 Tb88 2.292 . S
O87 C90 1.255 . S
Tb88 O87 2.292 . S
Tb88 O104 2.326 . S
Tb88 O106 2.500 . S
Tb88 O107 2.473 . S
Tb88 O110 2.324 . S
Eu89 O93 2.292 . S
Eu89 C94 2.852 . S
Eu89 O105 2.324 . S
Eu89 O109 2.326 . S
Eu89 O111 2.500 . S
Eu89 O112 2.473 . S
C90 O87 1.255 . S
C90 O91 1.247 . S
O91 C90 1.247 . S
C92 O104 1.242 . S
C92 O105 1.258 . S
O93 Eu89 2.292 . S
O93 C95 1.255 . S
C94 Eu89 2.852 . S
C94 C98 1.503 . S
C94 O111 1.273 . S
C94 O112 1.257 . S
C95 O93 1.255 . S
C95 O96 1.247 . S
O96 C95 1.247 . S
C97 O109 1.242 . S
C97 O110 1.258 . S
C98 C94 1.503 . S
C98 C99 1.379 . S
C98 C103 1.392 . S
C99 C98 1.379 . S
C99 C100 1.404 . S
C99 H113 0.929 . S
C100 C99 1.404 . S
C100 C101 1.389 . S
C101 C100 1.389 . S
C101 C102 1.399 . S
C101 H114 0.931 . S
C102 C101 1.399 . S
C102 C103 1.390 . S
C103 C98 1.392 . S
C103 C102 1.390 . S
C103 H115 0.929 . S
O104 Tb88 2.326 . S
O104 C92 1.242 . S
O105 Eu89 2.324 . S
O105 C92 1.258 . S
O106 Tb88 2.500 . S
O106 C108 1.273 . S
O107 Tb88 2.473 . S
O107 C108 1.257 . S
C108 O106 1.273 . S
C108 O107 1.257 . S
O109 Eu89 2.326 . S
O109 C97 1.242 . S
O110 Tb88 2.324 . S
O110 C97 1.258 . S
O111 Eu89 2.500 . S
O111 C94 1.273 . S
O112 Eu89 2.473 . S
O112 C94 1.257 . S
H113 C99 0.929 . S
H114 C101 0.931 . S
H115 C103 0.929 . S
O116 Tb117 2.292 . S
O116 C119 1.255 . S
Tb117 O116 2.292 . S
Tb117 O133 2.326 . S
Tb117 O135 2.500 . S
Tb117 O136 2.473 . S
Tb117 O139 2.324 . S
Eu118 O122 2.292 . S
Eu118 C123 2.852 . S
Eu118 O134 2.324 . S
Eu118 O138 2.326 . S
Eu118 O140 2.500 . S
Eu118 O141 2.473 . S
C119 O116 1.255 . S
C119 O120 1.247 . S
O120 C119 1.247 . S
C121 O133 1.242 . S
C121 O134 1.258 . S
O122 Eu118 2.292 . S
O122 C124 1.255 . S
C123 Eu118 2.852 . S
C123 C127 1.503 . S
C123 O140 1.273 . S
C123 O141 1.257 . S
C124 O122 1.255 . S
C124 O125 1.247 . S
O125 C124 1.247 . S
C126 O138 1.242 . S
C126 O139 1.258 . S
C127 C123 1.503 . S
C127 C128 1.379 . S
C127 C132 1.392 . S
C128 C127 1.379 . S
C128 C129 1.404 . S
C128 H142 0.929 . S
C129 C128 1.404 . S
C129 C130 1.389 . S
C130 C129 1.389 . S
C130 C131 1.399 . S
C130 H143 0.931 . S
C131 C130 1.399 . S
C131 C132 1.390 . S
C132 C127 1.392 . S
C132 C131 1.390 . S
C132 H144 0.929 . S
O133 Tb117 2.326 . S
O133 C121 1.242 . S
O134 Eu118 2.324 . S
O134 C121 1.258 . S
O135 Tb117 2.500 . S
O135 C137 1.273 . S
O136 Tb117 2.473 . S
O136 C137 1.257 . S
C137 O135 1.273 . S
C137 O136 1.257 . S
O138 Eu118 2.326 . S
O138 C126 1.242 . S
O139 Tb117 2.324 . S
O139 C126 1.258 . S
O140 Eu118 2.500 . S
O140 C123 1.273 . S
O141 Eu118 2.473 . S
O141 C123 1.257 . S
H142 C128 0.929 . S
H143 C130 0.931 . S
H144 C132 0.929 . S
O145 Tb146 2.292 . S
O145 C148 1.255 . S
Tb146 O145 2.292 . S
Tb146 O162 2.326 . S
Tb146 O164 2.500 . S
Tb146 O165 2.473 . S
Tb146 O168 2.324 . S
Eu147 O151 2.292 . S
Eu147 C152 2.852 . S
Eu147 O163 2.324 . S
Eu147 O167 2.326 . S
Eu147 O169 2.500 . S
Eu147 O170 2.473 . S
C148 O145 1.255 . S
C148 O149 1.247 . S
O149 C148 1.247 . S
C150 O162 1.242 . S
C150 O163 1.258 . S
O151 Eu147 2.292 . S
O151 C153 1.255 . S
C152 Eu147 2.852 . S
C152 C156 1.503 . S
C152 O169 1.273 . S
C152 O170 1.257 . S
C153 O151 1.255 . S
C153 O154 1.247 . S
O154 C153 1.247 . S
C155 O167 1.242 . S
C155 O168 1.258 . S
C156 C152 1.503 . S
C156 C157 1.379 . S
C156 C161 1.392 . S
C157 C156 1.379 . S
C157 C158 1.404 . S
C157 H171 0.929 . S
C158 C157 1.404 . S
C158 C159 1.389 . S
C159 C158 1.389 . S
C159 C160 1.399 . S
C159 H172 0.931 . S
C160 C159 1.399 . S
C160 C161 1.390 . S
C161 C156 1.392 . S
C161 C160 1.390 . S
C161 H173 0.929 . S
O162 Tb146 2.326 . S
O162 C150 1.242 . S
O163 Eu147 2.324 . S
O163 C150 1.258 . S
O164 Tb146 2.500 . S
O164 C166 1.273 . S
O165 Tb146 2.473 . S
O165 C166 1.257 . S
C166 O164 1.273 . S
C166 O165 1.257 . S
O167 Eu147 2.326 . S
O167 C155 1.242 . S
O168 Tb146 2.324 . S
O168 C155 1.258 . S
O169 Eu147 2.500 . S
O169 C152 1.273 . S
O170 Eu147 2.473 . S
O170 C152 1.257 . S
H171 C157 0.929 . S
H172 C159 0.931 . S
H173 C161 0.929 . S
O174 Tb175 2.292 . S
O174 C177 1.255 . S
Tb175 O174 2.292 . S
Tb175 O191 2.326 . S
Tb175 O193 2.500 . S
Tb175 O194 2.473 . S
Tb175 O197 2.324 . S
Eu176 O180 2.292 . S
Eu176 C181 2.852 . S
Eu176 O192 2.324 . S
Eu176 O196 2.326 . S
Eu176 O198 2.500 . S
Eu176 O199 2.473 . S
C177 O174 1.255 . S
C177 O178 1.247 . S
O178 C177 1.247 . S
C179 O191 1.242 . S
C179 O192 1.258 . S
O180 Eu176 2.292 . S
O180 C182 1.255 . S
C181 Eu176 2.852 . S
C181 C185 1.503 . S
C181 O198 1.273 . S
C181 O199 1.257 . S
C182 O180 1.255 . S
C182 O183 1.247 . S
O183 C182 1.247 . S
C184 O196 1.242 . S
C184 O197 1.258 . S
C185 C181 1.503 . S
C185 C186 1.379 . S
C185 C190 1.392 . S
C186 C185 1.379 . S
C186 C187 1.404 . S
C186 H200 0.929 . S
C187 C186 1.404 . S
C187 C188 1.389 . S
C188 C187 1.389 . S
C188 C189 1.399 . S
C188 H201 0.931 . S
C189 C188 1.399 . S
C189 C190 1.390 . S
C190 C185 1.392 . S
C190 C189 1.390 . S
C190 H202 0.929 . S
O191 Tb175 2.326 . S
O191 C179 1.242 . S
O192 Eu176 2.324 . S
O192 C179 1.258 . S
O193 Tb175 2.500 . S
O193 C195 1.273 . S
O194 Tb175 2.473 . S
O194 C195 1.257 . S
C195 O193 1.273 . S
C195 O194 1.257 . S
O196 Eu176 2.326 . S
O196 C184 1.242 . S
O197 Tb175 2.324 . S
O197 C184 1.258 . S
O198 Eu176 2.500 . S
O198 C181 1.273 . S
O199 Eu176 2.473 . S
O199 C181 1.257 . S
H200 C186 0.929 . S
H201 C188 0.931 . S
H202 C190 0.929 . S
O203 Tb204 2.292 . S
O203 C206 1.255 . S
Tb204 O203 2.292 . S
Tb204 O220 2.326 . S
Tb204 O222 2.500 . S
Tb204 O223 2.473 . S
Tb204 O226 2.324 . S
Eu205 O209 2.292 . S
Eu205 C210 2.852 . S
Eu205 O221 2.324 . S
Eu205 O225 2.326 . S
Eu205 O227 2.500 . S
Eu205 O228 2.473 . S
C206 O203 1.255 . S
C206 O207 1.247 . S
O207 C206 1.247 . S
C208 O220 1.242 . S
C208 O221 1.258 . S
O209 Eu205 2.292 . S
O209 C211 1.255 . S
C210 Eu205 2.852 . S
C210 C214 1.503 . S
C210 O227 1.273 . S
C210 O228 1.257 . S
C211 O209 1.255 . S
C211 O212 1.247 . S
O212 C211 1.247 . S
C213 O225 1.242 . S
C213 O226 1.258 . S
C214 C210 1.503 . S
C214 C215 1.379 . S
C214 C219 1.392 . S
C215 C214 1.379 . S
C215 C216 1.404 . S
C215 H229 0.929 . S
C216 C215 1.404 . S
C216 C217 1.389 . S
C217 C216 1.389 . S
C217 C218 1.399 . S
C217 H230 0.931 . S
C218 C217 1.399 . S
C218 C219 1.390 . S
C219 C214 1.392 . S
C219 C218 1.390 . S
C219 H231 0.929 . S
O220 Tb204 2.326 . S
O220 C208 1.242 . S
O221 Eu205 2.324 . S
O221 C208 1.258 . S
O222 Tb204 2.500 . S
O222 C224 1.273 . S
O223 Tb204 2.473 . S
O223 C224 1.257 . S
C224 O222 1.273 . S
C224 O223 1.257 . S
O225 Eu205 2.326 . S
O225 C213 1.242 . S
O226 Tb204 2.324 . S
O226 C213 1.258 . S
O227 Eu205 2.500 . S
O227 C210 1.273 . S
O228 Eu205 2.473 . S
O228 C210 1.257 . S
H229 C215 0.929 . S
H230 C217 0.931 . S
H231 C219 0.929 . S
O232 Tb233 2.292 . S
O232 C235 1.255 . S
Tb233 O232 2.292 . S
Tb233 O249 2.326 . S
Tb233 O251 2.500 . S
Tb233 O252 2.473 . S
Tb233 O255 2.324 . S
Eu234 O238 2.292 . S
Eu234 C239 2.852 . S
Eu234 O250 2.324 . S
Eu234 O254 2.326 . S
Eu234 O256 2.500 . S
Eu234 O257 2.473 . S
C235 O232 1.255 . S
C235 O236 1.247 . S
O236 C235 1.247 . S
C237 O249 1.242 . S
C237 O250 1.258 . S
O238 Eu234 2.292 . S
O238 C240 1.255 . S
C239 Eu234 2.852 . S
C239 C243 1.503 . S
C239 O256 1.273 . S
C239 O257 1.257 . S
C240 O238 1.255 . S
C240 O241 1.247 . S
O241 C240 1.247 . S
C242 O254 1.242 . S
C242 O255 1.258 . S
C243 C239 1.503 . S
C243 C244 1.379 . S
C243 C248 1.392 . S
C244 C243 1.379 . S
C244 C245 1.404 . S
C244 H258 0.929 . S
C245 C244 1.404 . S
C245 C246 1.389 . S
C246 C245 1.389 . S
C246 C247 1.399 . S
C246 H259 0.931 . S
C247 C246 1.399 . S
C247 C248 1.390 . S
C248 C243 1.392 . S
C248 C247 1.390 . S
C248 H260 0.929 . S
O249 Tb233 2.326 . S
O249 C237 1.242 . S
O250 Eu234 2.324 . S
O250 C237 1.258 . S
O251 Tb233 2.500 . S
O251 C253 1.273 . S
O252 Tb233 2.473 . S
O252 C253 1.257 . S
C253 O251 1.273 . S
C253 O252 1.257 . S
O254 Eu234 2.326 . S
O254 C242 1.242 . S
O255 Tb233 2.324 . S
O255 C242 1.258 . S
O256 Eu234 2.500 . S
O256 C239 1.273 . S
O257 Eu234 2.473 . S
O257 C239 1.257 . S
H258 C244 0.929 . S
H259 C246 0.931 . S
H260 C248 0.929 . S
O261 Tb262 2.292 . S
O261 C264 1.255 . S
Tb262 O261 2.292 . S
Tb262 O278 2.326 . S
Tb262 O280 2.500 . S
Tb262 O281 2.473 . S
Tb262 O284 2.324 . S
Eu263 O267 2.292 . S
Eu263 C268 2.852 . S
Eu263 O279 2.324 . S
Eu263 O283 2.326 . S
Eu263 O285 2.500 . S
Eu263 O286 2.473 . S
C264 O261 1.255 . S
C264 O265 1.247 . S
O265 C264 1.247 . S
C266 O278 1.242 . S
C266 O279 1.258 . S
O267 Eu263 2.292 . S
O267 C269 1.255 . S
C268 Eu263 2.852 . S
C268 C272 1.503 . S
C268 O285 1.273 . S
C268 O286 1.257 . S
C269 O267 1.255 . S
C269 O270 1.247 . S
O270 C269 1.247 . S
C271 O283 1.242 . S
C271 O284 1.258 . S
C272 C268 1.503 . S
C272 C273 1.379 . S
C272 C277 1.392 . S
C273 C272 1.379 . S
C273 C274 1.404 . S
C273 H287 0.929 . S
C274 C273 1.404 . S
C274 C275 1.389 . S
C275 C274 1.389 . S
C275 C276 1.399 . S
C275 H288 0.931 . S
C276 C275 1.399 . S
C276 C277 1.390 . S
C277 C272 1.392 . S
C277 C276 1.390 . S
C277 H289 0.929 . S
O278 Tb262 2.326 . S
O278 C266 1.242 . S
O279 Eu263 2.324 . S
O279 C266 1.258 . S
O280 Tb262 2.500 . S
O280 C282 1.273 . S
O281 Tb262 2.473 . S
O281 C282 1.257 . S
C282 O280 1.273 . S
C282 O281 1.257 . S
O283 Eu263 2.326 . S
O283 C271 1.242 . S
O284 Tb262 2.324 . S
O284 C271 1.258 . S
O285 Eu263 2.500 . S
O285 C268 1.273 . S
O286 Eu263 2.473 . S
O286 C268 1.257 . S
H287 C273 0.929 . S
H288 C275 0.931 . S
H289 C277 0.929 . S
O290 Tb291 2.292 . S
O290 C293 1.255 . S
Tb291 O290 2.292 . S
Tb291 O307 2.326 . S
Tb291 O309 2.500 . S
Tb291 O310 2.473 . S
Tb291 O313 2.324 . S
Eu292 O296 2.292 . S
Eu292 C297 2.852 . S
Eu292 O308 2.324 . S
Eu292 O312 2.326 . S
Eu292 O314 2.500 . S
Eu292 O315 2.473 . S
C293 O290 1.255 . S
C293 O294 1.247 . S
O294 C293 1.247 . S
C295 O307 1.242 . S
C295 O308 1.258 . S
O296 Eu292 2.292 . S
O296 C298 1.255 . S
C297 Eu292 2.852 . S
C297 C301 1.503 . S
C297 O314 1.273 . S
C297 O315 1.257 . S
C298 O296 1.255 . S
C298 O299 1.247 . S
O299 C298 1.247 . S
C300 O312 1.242 . S
C300 O313 1.258 . S
C301 C297 1.503 . S
C301 C302 1.379 . S
C301 C306 1.392 . S
C302 C301 1.379 . S
C302 C303 1.404 . S
C302 H316 0.929 . S
C303 C302 1.404 . S
C303 C304 1.389 . S
C304 C303 1.389 . S
C304 C305 1.399 . S
C304 H317 0.931 . S
C305 C304 1.399 . S
C305 C306 1.390 . S
C306 C301 1.392 . S
C306 C305 1.390 . S
C306 H318 0.929 . S
O307 Tb291 2.326 . S
O307 C295 1.242 . S
O308 Eu292 2.324 . S
O308 C295 1.258 . S
O309 Tb291 2.500 . S
O309 C311 1.273 . S
O310 Tb291 2.473 . S
O310 C311 1.257 . S
C311 O309 1.273 . S
C311 O310 1.257 . S
O312 Eu292 2.326 . S
O312 C300 1.242 . S
O313 Tb291 2.324 . S
O313 C300 1.258 . S
O314 Eu292 2.500 . S
O314 C297 1.273 . S
O315 Eu292 2.473 . S
O315 C297 1.257 . S
H316 C302 0.929 . S
H317 C304 0.931 . S
H318 C306 0.929 . S
O319 Tb320 2.292 . S
O319 C322 1.255 . S
Tb320 O319 2.292 . S
Tb320 O336 2.326 . S
Tb320 O338 2.500 . S
Tb320 O339 2.473 . S
Tb320 O342 2.324 . S
Eu321 O325 2.292 . S
Eu321 C326 2.852 . S
Eu321 O337 2.324 . S
Eu321 O341 2.326 . S
Eu321 O343 2.500 . S
Eu321 O344 2.473 . S
C322 O319 1.255 . S
C322 O323 1.247 . S
O323 C322 1.247 . S
C324 O336 1.242 . S
C324 O337 1.258 . S
O325 Eu321 2.292 . S
O325 C327 1.255 . S
C326 Eu321 2.852 . S
C326 C330 1.503 . S
C326 O343 1.273 . S
C326 O344 1.257 . S
C327 O325 1.255 . S
C327 O328 1.247 . S
O328 C327 1.247 . S
C329 O341 1.242 . S
C329 O342 1.258 . S
C330 C326 1.503 . S
C330 C331 1.379 . S
C330 C335 1.392 . S
C331 C330 1.379 . S
C331 C332 1.404 . S
C331 H345 0.929 . S
C332 C331 1.404 . S
C332 C333 1.389 . S
C333 C332 1.389 . S
C333 C334 1.399 . S
C333 H346 0.931 . S
C334 C333 1.399 . S
C334 C335 1.390 . S
C335 C330 1.392 . S
C335 C334 1.390 . S
C335 H347 0.929 . S
O336 Tb320 2.326 . S
O336 C324 1.242 . S
O337 Eu321 2.324 . S
O337 C324 1.258 . S
O338 Tb320 2.500 . S
O338 C340 1.273 . S
O339 Tb320 2.473 . S
O339 C340 1.257 . S
C340 O338 1.273 . S
C340 O339 1.257 . S
O341 Eu321 2.326 . S
O341 C329 1.242 . S
O342 Tb320 2.324 . S
O342 C329 1.258 . S
O343 Eu321 2.500 . S
O343 C326 1.273 . S
O344 Eu321 2.473 . S
O344 C326 1.257 . S
H345 C331 0.929 . S
H346 C333 0.931 . S
H347 C335 0.929 . S
O348 Tb349 2.292 . S
O348 C351 1.255 . S
Tb349 O348 2.292 . S
Tb349 O365 2.326 . S
Tb349 O367 2.500 . S
Tb349 O368 2.473 . S
Tb349 O371 2.324 . S
Eu350 O354 2.292 . S
Eu350 C355 2.852 . S
Eu350 O366 2.324 . S
Eu350 O370 2.326 . S
Eu350 O372 2.500 . S
Eu350 O373 2.473 . S
C351 O348 1.255 . S
C351 O352 1.247 . S
O352 C351 1.247 . S
C353 O365 1.242 . S
C353 O366 1.258 . S
O354 Eu350 2.292 . S
O354 C356 1.255 . S
C355 Eu350 2.852 . S
C355 C359 1.503 . S
C355 O372 1.273 . S
C355 O373 1.257 . S
C356 O354 1.255 . S
C356 O357 1.247 . S
O357 C356 1.247 . S
C358 O370 1.242 . S
C358 O371 1.258 . S
C359 C355 1.503 . S
C359 C360 1.379 . S
C359 C364 1.392 . S
C360 C359 1.379 . S
C360 C361 1.404 . S
C360 H374 0.929 . S
C361 C360 1.404 . S
C361 C362 1.389 . S
C362 C361 1.389 . S
C362 C363 1.399 . S
C362 H375 0.931 . S
C363 C362 1.399 . S
C363 C364 1.390 . S
C364 C359 1.392 . S
C364 C363 1.390 . S
C364 H376 0.929 . S
O365 Tb349 2.326 . S
O365 C353 1.242 . S
O366 Eu350 2.324 . S
O366 C353 1.258 . S
O367 Tb349 2.500 . S
O367 C369 1.273 . S
O368 Tb349 2.473 . S
O368 C369 1.257 . S
C369 O367 1.273 . S
C369 O368 1.257 . S
O370 Eu350 2.326 . S
O370 C358 1.242 . S
O371 Tb349 2.324 . S
O371 C358 1.258 . S
O372 Eu350 2.500 . S
O372 C355 1.273 . S
O373 Eu350 2.473 . S
O373 C355 1.257 . S
H374 C360 0.929 . S
H375 C362 0.931 . S
H376 C364 0.929 . S
O377 Tb378 2.292 . S
O377 C380 1.255 . S
Tb378 O377 2.292 . S
Tb378 O394 2.326 . S
Tb378 O396 2.500 . S
Tb378 O397 2.473 . S
Tb378 O400 2.324 . S
Eu379 O383 2.292 . S
Eu379 C384 2.852 . S
Eu379 O395 2.324 . S
Eu379 O399 2.326 . S
Eu379 O401 2.500 . S
Eu379 O402 2.473 . S
C380 O377 1.255 . S
C380 O381 1.247 . S
O381 C380 1.247 . S
C382 O394 1.242 . S
C382 O395 1.258 . S
O383 Eu379 2.292 . S
O383 C385 1.255 . S
C384 Eu379 2.852 . S
C384 C388 1.503 . S
C384 O401 1.273 . S
C384 O402 1.257 . S
C385 O383 1.255 . S
C385 O386 1.247 . S
O386 C385 1.247 . S
C387 O399 1.242 . S
C387 O400 1.258 . S
C388 C384 1.503 . S
C388 C389 1.379 . S
C388 C393 1.392 . S
C389 C388 1.379 . S
C389 C390 1.404 . S
C389 H403 0.929 . S
C390 C389 1.404 . S
C390 C391 1.389 . S
C391 C390 1.389 . S
C391 C392 1.399 . S
C391 H404 0.931 . S
C392 C391 1.399 . S
C392 C393 1.390 . S
C393 C388 1.392 . S
C393 C392 1.390 . S
C393 H405 0.929 . S
O394 Tb378 2.326 . S
O394 C382 1.242 . S
O395 Eu379 2.324 . S
O395 C382 1.258 . S
O396 Tb378 2.500 . S
O396 C398 1.273 . S
O397 Tb378 2.473 . S
O397 C398 1.257 . S
C398 O396 1.273 . S
C398 O397 1.257 . S
O399 Eu379 2.326 . S
O399 C387 1.242 . S
O400 Tb378 2.324 . S
O400 C387 1.258 . S
O401 Eu379 2.500 . S
O401 C384 1.273 . S
O402 Eu379 2.473 . S
O402 C384 1.257 . S
H403 C389 0.929 . S
H404 C391 0.931 . S
H405 C393 0.929 . S
O406 Tb407 2.292 . S
O406 C409 1.255 . S
Tb407 O406 2.292 . S
Tb407 O423 2.326 . S
Tb407 O425 2.500 . S
Tb407 O426 2.473 . S
Tb407 O429 2.324 . S
Eu408 O412 2.292 . S
Eu408 C413 2.852 . S
Eu408 O424 2.324 . S
Eu408 O428 2.326 . S
Eu408 O430 2.500 . S
Eu408 O431 2.473 . S
C409 O406 1.255 . S
C409 O410 1.247 . S
O410 C409 1.247 . S
C411 O423 1.242 . S
C411 O424 1.258 . S
O412 Eu408 2.292 . S
O412 C414 1.255 . S
C413 Eu408 2.852 . S
C413 C417 1.503 . S
C413 O430 1.273 . S
C413 O431 1.257 . S
C414 O412 1.255 . S
C414 O415 1.247 . S
O415 C414 1.247 . S
C416 O428 1.242 . S
C416 O429 1.258 . S
C417 C413 1.503 . S
C417 C418 1.379 . S
C417 C422 1.392 . S
C418 C417 1.379 . S
C418 C419 1.404 . S
C418 H432 0.929 . S
C419 C418 1.404 . S
C419 C420 1.389 . S
C420 C419 1.389 . S
C420 C421 1.399 . S
C420 H433 0.931 . S
C421 C420 1.399 . S
C421 C422 1.390 . S
C422 C417 1.392 . S
C422 C421 1.390 . S
C422 H434 0.929 . S
O423 Tb407 2.326 . S
O423 C411 1.242 . S
O424 Eu408 2.324 . S
O424 C411 1.258 . S
O425 Tb407 2.500 . S
O425 C427 1.273 . S
O426 Tb407 2.473 . S
O426 C427 1.257 . S
C427 O425 1.273 . S
C427 O426 1.257 . S
O428 Eu408 2.326 . S
O428 C416 1.242 . S
O429 Tb407 2.324 . S
O429 C416 1.258 . S
O430 Eu408 2.500 . S
O430 C413 1.273 . S
O431 Eu408 2.473 . S
O431 C413 1.257 . S
H432 C418 0.929 . S
H433 C420 0.931 . S
H434 C422 0.929 . S
O435 Tb436 2.292 . S
O435 C438 1.255 . S
Tb436 O435 2.292 . S
Tb436 O452 2.326 . S
Tb436 O454 2.500 . S
Tb436 O455 2.473 . S
Tb436 O458 2.324 . S
Eu437 O441 2.292 . S
Eu437 C442 2.852 . S
Eu437 O453 2.324 . S
Eu437 O457 2.326 . S
Eu437 O459 2.500 . S
Eu437 O460 2.473 . S
C438 O435 1.255 . S
C438 O439 1.247 . S
O439 C438 1.247 . S
C440 O452 1.242 . S
C440 O453 1.258 . S
O441 Eu437 2.292 . S
O441 C443 1.255 . S
C442 Eu437 2.852 . S
C442 C446 1.503 . S
C442 O459 1.273 . S
C442 O460 1.257 . S
C443 O441 1.255 . S
C443 O444 1.247 . S
O444 C443 1.247 . S
C445 O457 1.242 . S
C445 O458 1.258 . S
C446 C442 1.503 . S
C446 C447 1.379 . S
C446 C451 1.392 . S
C447 C446 1.379 . S
C447 C448 1.404 . S
C447 H461 0.929 . S
C448 C447 1.404 . S
C448 C449 1.389 . S
C449 C448 1.389 . S
C449 C450 1.399 . S
C449 H462 0.931 . S
C450 C449 1.399 . S
C450 C451 1.390 . S
C451 C446 1.392 . S
C451 C450 1.390 . S
C451 H463 0.929 . S
O452 Tb436 2.326 . S
O452 C440 1.242 . S
O453 Eu437 2.324 . S
O453 C440 1.258 . S
O454 Tb436 2.500 . S
O454 C456 1.273 . S
O455 Tb436 2.473 . S
O455 C456 1.257 . S
C456 O454 1.273 . S
C456 O455 1.257 . S
O457 Eu437 2.326 . S
O457 C445 1.242 . S
O458 Tb436 2.324 . S
O458 C445 1.258 . S
O459 Eu437 2.500 . S
O459 C442 1.273 . S
O460 Eu437 2.473 . S
O460 C442 1.257 . S
H461 C447 0.929 . S
H462 C449 0.931 . S
H463 C451 0.929 . S
O464 Tb465 2.292 . S
O464 C467 1.255 . S
Tb465 O464 2.292 . S
Tb465 O481 2.326 . S
Tb465 O483 2.500 . S
Tb465 O484 2.473 . S
Tb465 O487 2.324 . S
Eu466 O470 2.292 . S
Eu466 C471 2.852 . S
Eu466 O482 2.324 . S
Eu466 O486 2.326 . S
Eu466 O488 2.500 . S
Eu466 O489 2.473 . S
C467 O464 1.255 . S
C467 O468 1.247 . S
O468 C467 1.247 . S
C469 O481 1.242 . S
C469 O482 1.258 . S
O470 Eu466 2.292 . S
O470 C472 1.255 . S
C471 Eu466 2.852 . S
C471 C475 1.503 . S
C471 O488 1.273 . S
C471 O489 1.257 . S
C472 O470 1.255 . S
C472 O473 1.247 . S
O473 C472 1.247 . S
C474 O486 1.242 . S
C474 O487 1.258 . S
C475 C471 1.503 . S
C475 C476 1.379 . S
C475 C480 1.392 . S
C476 C475 1.379 . S
C476 C477 1.404 . S
C476 H490 0.929 . S
C477 C476 1.404 . S
C477 C478 1.389 . S
C478 C477 1.389 . S
C478 C479 1.399 . S
C478 H491 0.931 . S
C479 C478 1.399 . S
C479 C480 1.390 . S
C480 C475 1.392 . S
C480 C479 1.390 . S
C480 H492 0.929 . S
O481 Tb465 2.326 . S
O481 C469 1.242 . S
O482 Eu466 2.324 . S
O482 C469 1.258 . S
O483 Tb465 2.500 . S
O483 C485 1.273 . S
O484 Tb465 2.473 . S
O484 C485 1.257 . S
C485 O483 1.273 . S
C485 O484 1.257 . S
O486 Eu466 2.326 . S
O486 C474 1.242 . S
O487 Tb465 2.324 . S
O487 C474 1.258 . S
O488 Eu466 2.500 . S
O488 C471 1.273 . S
O489 Eu466 2.473 . S
O489 C471 1.257 . S
H490 C476 0.929 . S
H491 C478 0.931 . S
H492 C480 0.929 . S
O493 Tb494 2.292 . S
O493 C496 1.255 . S
Tb494 O493 2.292 . S
Tb494 O510 2.326 . S
Tb494 O512 2.500 . S
Tb494 O513 2.473 . S
Tb494 O516 2.324 . S
Eu495 O499 2.292 . S
Eu495 C500 2.852 . S
Eu495 O511 2.324 . S
Eu495 O515 2.326 . S
Eu495 O517 2.500 . S
Eu495 O518 2.473 . S
C496 O493 1.255 . S
C496 O497 1.247 . S
O497 C496 1.247 . S
C498 O510 1.242 . S
C498 O511 1.258 . S
O499 Eu495 2.292 . S
O499 C501 1.255 . S
C500 Eu495 2.852 . S
C500 C504 1.503 . S
C500 O517 1.273 . S
C500 O518 1.257 . S
C501 O499 1.255 . S
C501 O502 1.247 . S
O502 C501 1.247 . S
C503 O515 1.242 . S
C503 O516 1.258 . S
C504 C500 1.503 . S
C504 C505 1.379 . S
C504 C509 1.392 . S
C505 C504 1.379 . S
C505 C506 1.404 . S
C505 H519 0.929 . S
C506 C505 1.404 . S
C506 C507 1.389 . S
C507 C506 1.389 . S
C507 C508 1.399 . S
C507 H520 0.931 . S
C508 C507 1.399 . S
C508 C509 1.390 . S
C509 C504 1.392 . S
C509 C508 1.390 . S
C509 H521 0.929 . S
O510 Tb494 2.326 . S
O510 C498 1.242 . S
O511 Eu495 2.324 . S
O511 C498 1.258 . S
O512 Tb494 2.500 . S
O512 C514 1.273 . S
O513 Tb494 2.473 . S
O513 C514 1.257 . S
C514 O512 1.273 . S
C514 O513 1.257 . S
O515 Eu495 2.326 . S
O515 C503 1.242 . S
O516 Tb494 2.324 . S
O516 C503 1.258 . S
O517 Eu495 2.500 . S
O517 C500 1.273 . S
O518 Eu495 2.473 . S
O518 C500 1.257 . S
H519 C505 0.929 . S
H520 C507 0.931 . S
H521 C509 0.929 . S
O522 Tb523 2.292 . S
O522 C525 1.255 . S
Tb523 O522 2.292 . S
Tb523 O539 2.326 . S
Tb523 O541 2.500 . S
Tb523 O542 2.473 . S
Tb523 O545 2.324 . S
Eu524 O528 2.292 . S
Eu524 C529 2.852 . S
Eu524 O540 2.324 . S
Eu524 O544 2.326 . S
Eu524 O546 2.500 . S
Eu524 O547 2.473 . S
C525 O522 1.255 . S
C525 O526 1.247 . S
O526 C525 1.247 . S
C527 O539 1.242 . S
C527 O540 1.258 . S
O528 Eu524 2.292 . S
O528 C530 1.255 . S
C529 Eu524 2.852 . S
C529 C533 1.503 . S
C529 O546 1.273 . S
C529 O547 1.257 . S
C530 O528 1.255 . S
C530 O531 1.247 . S
O531 C530 1.247 . S
C532 O544 1.242 . S
C532 O545 1.258 . S
C533 C529 1.503 . S
C533 C534 1.379 . S
C533 C538 1.392 . S
C534 C533 1.379 . S
C534 C535 1.404 . S
C534 H548 0.929 . S
C535 C534 1.404 . S
C535 C536 1.389 . S
C536 C535 1.389 . S
C536 C537 1.399 . S
C536 H549 0.931 . S
C537 C536 1.399 . S
C537 C538 1.390 . S
C538 C533 1.392 . S
C538 C537 1.390 . S
C538 H550 0.929 . S
O539 Tb523 2.326 . S
O539 C527 1.242 . S
O540 Eu524 2.324 . S
O540 C527 1.258 . S
O541 Tb523 2.500 . S
O541 C543 1.273 . S
O542 Tb523 2.473 . S
O542 C543 1.257 . S
C543 O541 1.273 . S
C543 O542 1.257 . S
O544 Eu524 2.326 . S
O544 C532 1.242 . S
O545 Tb523 2.324 . S
O545 C532 1.258 . S
O546 Eu524 2.500 . S
O546 C529 1.273 . S
O547 Eu524 2.473 . S
O547 C529 1.257 . S
H548 C534 0.929 . S
H549 C536 0.931 . S
H550 C538 0.929 . S
O551 Tb552 2.292 . S
O551 C554 1.255 . S
Tb552 O551 2.292 . S
Tb552 O568 2.326 . S
Tb552 O570 2.500 . S
Tb552 O571 2.473 . S
Tb552 O574 2.324 . S
Eu553 O557 2.292 . S
Eu553 C558 2.852 . S
Eu553 O569 2.324 . S
Eu553 O573 2.326 . S
Eu553 O575 2.500 . S
Eu553 O576 2.473 . S
C554 O551 1.255 . S
C554 O555 1.247 . S
O555 C554 1.247 . S
C556 O568 1.242 . S
C556 O569 1.258 . S
O557 Eu553 2.292 . S
O557 C559 1.255 . S
C558 Eu553 2.852 . S
C558 C562 1.503 . S
C558 O575 1.273 . S
C558 O576 1.257 . S
C559 O557 1.255 . S
C559 O560 1.247 . S
O560 C559 1.247 . S
C561 O573 1.242 . S
C561 O574 1.258 . S
C562 C558 1.503 . S
C562 C563 1.379 . S
C562 C567 1.392 . S
C563 C562 1.379 . S
C563 C564 1.404 . S
C563 H577 0.929 . S
C564 C563 1.404 . S
C564 C565 1.389 . S
C565 C564 1.389 . S
C565 C566 1.399 . S
C565 H578 0.931 . S
C566 C565 1.399 . S
C566 C567 1.390 . S
C567 C562 1.392 . S
C567 C566 1.390 . S
C567 H579 0.929 . S
O568 Tb552 2.326 . S
O568 C556 1.242 . S
O569 Eu553 2.324 . S
O569 C556 1.258 . S
O570 Tb552 2.500 . S
O570 C572 1.273 . S
O571 Tb552 2.473 . S
O571 C572 1.257 . S
C572 O570 1.273 . S
C572 O571 1.257 . S
O573 Eu553 2.326 . S
O573 C561 1.242 . S
O574 Tb552 2.324 . S
O574 C561 1.258 . S
O575 Eu553 2.500 . S
O575 C558 1.273 . S
O576 Eu553 2.473 . S
O576 C558 1.257 . S
H577 C563 0.929 . S
H578 C565 0.931 . S
H579 C567 0.929 . S
O580 Tb581 2.292 . S
O580 C583 1.255 . S
Tb581 O580 2.292 . S
Tb581 O597 2.326 . S
Tb581 O599 2.500 . S
Tb581 O600 2.473 . S
Tb581 O603 2.324 . S
Eu582 O586 2.292 . S
Eu582 C587 2.852 . S
Eu582 O598 2.324 . S
Eu582 O602 2.326 . S
Eu582 O604 2.500 . S
Eu582 O605 2.473 . S
C583 O580 1.255 . S
C583 O584 1.247 . S
O584 C583 1.247 . S
C585 O597 1.242 . S
C585 O598 1.258 . S
O586 Eu582 2.292 . S
O586 C588 1.255 . S
C587 Eu582 2.852 . S
C587 C591 1.503 . S
C587 O604 1.273 . S
C587 O605 1.257 . S
C588 O586 1.255 . S
C588 O589 1.247 . S
O589 C588 1.247 . S
C590 O602 1.242 . S
C590 O603 1.258 . S
C591 C587 1.503 . S
C591 C592 1.379 . S
C591 C596 1.392 . S
C592 C591 1.379 . S
C592 C593 1.404 . S
C592 H606 0.929 . S
C593 C592 1.404 . S
C593 C594 1.389 . S
C594 C593 1.389 . S
C594 C595 1.399 . S
C594 H607 0.931 . S
C595 C594 1.399 . S
C595 C596 1.390 . S
C596 C591 1.392 . S
C596 C595 1.390 . S
C596 H608 0.929 . S
O597 Tb581 2.326 . S
O597 C585 1.242 . S
O598 Eu582 2.324 . S
O598 C585 1.258 . S
O599 Tb581 2.500 . S
O599 C601 1.273 . S
O600 Tb581 2.473 . S
O600 C601 1.257 . S
C601 O599 1.273 . S
C601 O600 1.257 . S
O602 Eu582 2.326 . S
O602 C590 1.242 . S
O603 Tb581 2.324 . S
O603 C590 1.258 . S
O604 Eu582 2.500 . S
O604 C587 1.273 . S
O605 Eu582 2.473 . S
O605 C587 1.257 . S
H606 C592 0.929 . S
H607 C594 0.931 . S
H608 C596 0.929 . S
O609 Tb610 2.292 . S
O609 C612 1.255 . S
Tb610 O609 2.292 . S
Tb610 O626 2.326 . S
Tb610 O628 2.500 . S
Tb610 O629 2.473 . S
Tb610 O632 2.324 . S
Eu611 O615 2.292 . S
Eu611 C616 2.852 . S
Eu611 O627 2.324 . S
Eu611 O631 2.326 . S
Eu611 O633 2.500 . S
Eu611 O634 2.473 . S
C612 O609 1.255 . S
C612 O613 1.247 . S
O613 C612 1.247 . S
C614 O626 1.242 . S
C614 O627 1.258 . S
O615 Eu611 2.292 . S
O615 C617 1.255 . S
C616 Eu611 2.852 . S
C616 C620 1.503 . S
C616 O633 1.273 . S
C616 O634 1.257 . S
C617 O615 1.255 . S
C617 O618 1.247 . S
O618 C617 1.247 . S
C619 O631 1.242 . S
C619 O632 1.258 . S
C620 C616 1.503 . S
C620 C621 1.379 . S
C620 C625 1.392 . S
C621 C620 1.379 . S
C621 C622 1.404 . S
C621 H635 0.929 . S
C622 C621 1.404 . S
C622 C623 1.389 . S
C623 C622 1.389 . S
C623 C624 1.399 . S
C623 H636 0.931 . S
C624 C623 1.399 . S
C624 C625 1.390 . S
C625 C620 1.392 . S
C625 C624 1.390 . S
C625 H637 0.929 . S
O626 Tb610 2.326 . S
O626 C614 1.242 . S
O627 Eu611 2.324 . S
O627 C614 1.258 . S
O628 Tb610 2.500 . S
O628 C630 1.273 . S
O629 Tb610 2.473 . S
O629 C630 1.257 . S
C630 O628 1.273 . S
C630 O629 1.257 . S
O631 Eu611 2.326 . S
O631 C619 1.242 . S
O632 Tb610 2.324 . S
O632 C619 1.258 . S
O633 Eu611 2.500 . S
O633 C616 1.273 . S
O634 Eu611 2.473 . S
O634 C616 1.257 . S
H635 C621 0.929 . S
H636 C623 0.931 . S
H637 C625 0.929 . S
O638 Tb639 2.292 . S
O638 C641 1.255 . S
Tb639 O638 2.292 . S
Tb639 O655 2.326 . S
Tb639 O657 2.500 . S
Tb639 O658 2.473 . S
Tb639 O661 2.324 . S
Eu640 O644 2.292 . S
Eu640 C645 2.852 . S
Eu640 O656 2.324 . S
Eu640 O660 2.326 . S
Eu640 O662 2.500 . S
Eu640 O663 2.473 . S
C641 O638 1.255 . S
C641 O642 1.247 . S
O642 C641 1.247 . S
C643 O655 1.242 . S
C643 O656 1.258 . S
O644 Eu640 2.292 . S
O644 C646 1.255 . S
C645 Eu640 2.852 . S
C645 C649 1.503 . S
C645 O662 1.273 . S
C645 O663 1.257 . S
C646 O644 1.255 . S
C646 O647 1.247 . S
O647 C646 1.247 . S
C648 O660 1.242 . S
C648 O661 1.258 . S
C649 C645 1.503 . S
C649 C650 1.379 . S
C649 C654 1.392 . S
C650 C649 1.379 . S
C650 C651 1.404 . S
C650 H664 0.929 . S
C651 C650 1.404 . S
C651 C652 1.389 . S
C652 C651 1.389 . S
C652 C653 1.399 . S
C652 H665 0.931 . S
C653 C652 1.399 . S
C653 C654 1.390 . S
C654 C649 1.392 . S
C654 C653 1.390 . S
C654 H666 0.929 . S
O655 Tb639 2.326 . S
O655 C643 1.242 . S
O656 Eu640 2.324 . S
O656 C643 1.258 . S
O657 Tb639 2.500 . S
O657 C659 1.273 . S
O658 Tb639 2.473 . S
O658 C659 1.257 . S
C659 O657 1.273 . S
C659 O658 1.257 . S
O660 Eu640 2.326 . S
O660 C648 1.242 . S
O661 Tb639 2.324 . S
O661 C648 1.258 . S
O662 Eu640 2.500 . S
O662 C645 1.273 . S
O663 Eu640 2.473 . S
O663 C645 1.257 . S
H664 C650 0.929 . S
H665 C652 0.931 . S
H666 C654 0.929 . S
O667 Tb668 2.292 . S
O667 C670 1.255 . S
Tb668 O667 2.292 . S
Tb668 O684 2.326 . S
Tb668 O686 2.500 . S
Tb668 O687 2.473 . S
Tb668 O690 2.324 . S
Eu669 O673 2.292 . S
Eu669 C674 2.852 . S
Eu669 O685 2.324 . S
Eu669 O689 2.326 . S
Eu669 O691 2.500 . S
Eu669 O692 2.473 . S
C670 O667 1.255 . S
C670 O671 1.247 . S
O671 C670 1.247 . S
C672 O684 1.242 . S
C672 O685 1.258 . S
O673 Eu669 2.292 . S
O673 C675 1.255 . S
C674 Eu669 2.852 . S
C674 C678 1.503 . S
C674 O691 1.273 . S
C674 O692 1.257 . S
C675 O673 1.255 . S
C675 O676 1.247 . S
O676 C675 1.247 . S
C677 O689 1.242 . S
C677 O690 1.258 . S
C678 C674 1.503 . S
C678 C679 1.379 . S
C678 C683 1.392 . S
C679 C678 1.379 . S
C679 C680 1.404 . S
C679 H693 0.929 . S
C680 C679 1.404 . S
C680 C681 1.389 . S
C681 C680 1.389 . S
C681 C682 1.399 . S
C681 H694 0.931 . S
C682 C681 1.399 . S
C682 C683 1.390 . S
C683 C678 1.392 . S
C683 C682 1.390 . S
C683 H695 0.929 . S
O684 Tb668 2.326 . S
O684 C672 1.242 . S
O685 Eu669 2.324 . S
O685 C672 1.258 . S
O686 Tb668 2.500 . S
O686 C688 1.273 . S
O687 Tb668 2.473 . S
O687 C688 1.257 . S
C688 O686 1.273 . S
C688 O687 1.257 . S
O689 Eu669 2.326 . S
O689 C677 1.242 . S
O690 Tb668 2.324 . S
O690 C677 1.258 . S
O691 Eu669 2.500 . S
O691 C674 1.273 . S
O692 Eu669 2.473 . S
O692 C674 1.257 . S
H693 C679 0.929 . S
H694 C681 0.931 . S
H695 C683 0.929 . S
O696 Tb697 2.292 . S
O696 C699 1.255 . S
Tb697 O696 2.292 . S
Tb697 O713 2.326 . S
Tb697 O715 2.500 . S
Tb697 O716 2.473 . S
Tb697 O719 2.324 . S
Eu698 O702 2.292 . S
Eu698 C703 2.852 . S
Eu698 O714 2.324 . S
Eu698 O718 2.326 . S
Eu698 O720 2.500 . S
Eu698 O721 2.473 . S
C699 O696 1.255 . S
C699 O700 1.247 . S
O700 C699 1.247 . S
C701 O713 1.242 . S
C701 O714 1.258 . S
O702 Eu698 2.292 . S
O702 C704 1.255 . S
C703 Eu698 2.852 . S
C703 C707 1.503 . S
C703 O720 1.273 . S
C703 O721 1.257 . S
C704 O702 1.255 . S
C704 O705 1.247 . S
O705 C704 1.247 . S
C706 O718 1.242 . S
C706 O719 1.258 . S
C707 C703 1.503 . S
C707 C708 1.379 . S
C707 C712 1.392 . S
C708 C707 1.379 . S
C708 C709 1.404 . S
C708 H722 0.929 . S
C709 C708 1.404 . S
C709 C710 1.389 . S
C710 C709 1.389 . S
C710 C711 1.399 . S
C710 H723 0.931 . S
C711 C710 1.399 . S
C711 C712 1.390 . S
C712 C707 1.392 . S
C712 C711 1.390 . S
C712 H724 0.929 . S
O713 Tb697 2.326 . S
O713 C701 1.242 . S
O714 Eu698 2.324 . S
O714 C701 1.258 . S
O715 Tb697 2.500 . S
O715 C717 1.273 . S
O716 Tb697 2.473 . S
O716 C717 1.257 . S
C717 O715 1.273 . S
C717 O716 1.257 . S
O718 Eu698 2.326 . S
O718 C706 1.242 . S
O719 Tb697 2.324 . S
O719 C706 1.258 . S
O720 Eu698 2.500 . S
O720 C703 1.273 . S
O721 Eu698 2.473 . S
O721 C703 1.257 . S
H722 C708 0.929 . S
H723 C710 0.931 . S
H724 C712 0.929 . S
O725 Tb726 2.292 . S
O725 C728 1.255 . S
Tb726 O725 2.292 . S
Tb726 O742 2.326 . S
Tb726 O744 2.500 . S
Tb726 O745 2.473 . S
Tb726 O748 2.324 . S
Eu727 O731 2.292 . S
Eu727 C732 2.852 . S
Eu727 O743 2.324 . S
Eu727 O747 2.326 . S
Eu727 O749 2.500 . S
Eu727 O750 2.473 . S
C728 O725 1.255 . S
C728 O729 1.247 . S
O729 C728 1.247 . S
C730 O742 1.242 . S
C730 O743 1.258 . S
O731 Eu727 2.292 . S
O731 C733 1.255 . S
C732 Eu727 2.852 . S
C732 C736 1.503 . S
C732 O749 1.273 . S
C732 O750 1.257 . S
C733 O731 1.255 . S
C733 O734 1.247 . S
O734 C733 1.247 . S
C735 O747 1.242 . S
C735 O748 1.258 . S
C736 C732 1.503 . S
C736 C737 1.379 . S
C736 C741 1.392 . S
C737 C736 1.379 . S
C737 C738 1.404 . S
C737 H751 0.929 . S
C738 C737 1.404 . S
C738 C739 1.389 . S
C739 C738 1.389 . S
C739 C740 1.399 . S
C739 H752 0.931 . S
C740 C739 1.399 . S
C740 C741 1.390 . S
C741 C736 1.392 . S
C741 C740 1.390 . S
C741 H753 0.929 . S
O742 Tb726 2.326 . S
O742 C730 1.242 . S
O743 Eu727 2.324 . S
O743 C730 1.258 . S
O744 Tb726 2.500 . S
O744 C746 1.273 . S
O745 Tb726 2.473 . S
O745 C746 1.257 . S
C746 O744 1.273 . S
C746 O745 1.257 . S
O747 Eu727 2.326 . S
O747 C735 1.242 . S
O748 Tb726 2.324 . S
O748 C735 1.258 . S
O749 Eu727 2.500 . S
O749 C732 1.273 . S
O750 Eu727 2.473 . S
O750 C732 1.257 . S
H751 C737 0.929 . S
H752 C739 0.931 . S
H753 C741 0.929 . S
O754 Tb755 2.292 . S
O754 C757 1.255 . S
Tb755 O754 2.292 . S
Tb755 O771 2.326 . S
Tb755 O773 2.500 . S
Tb755 O774 2.473 . S
Tb755 O777 2.324 . S
Eu756 O760 2.292 . S
Eu756 C761 2.852 . S
Eu756 O772 2.324 . S
Eu756 O776 2.326 . S
Eu756 O778 2.500 . S
Eu756 O779 2.473 . S
C757 O754 1.255 . S
C757 O758 1.247 . S
O758 C757 1.247 . S
C759 O771 1.242 . S
C759 O772 1.258 . S
O760 Eu756 2.292 . S
O760 C762 1.255 . S
C761 Eu756 2.852 . S
C761 C765 1.503 . S
C761 O778 1.273 . S
C761 O779 1.257 . S
C762 O760 1.255 . S
C762 O763 1.247 . S
O763 C762 1.247 . S
C764 O776 1.242 . S
C764 O777 1.258 . S
C765 C761 1.503 . S
C765 C766 1.379 . S
C765 C770 1.392 . S
C766 C765 1.379 . S
C766 C767 1.404 . S
C766 H780 0.929 . S
C767 C766 1.404 . S
C767 C768 1.389 . S
C768 C767 1.389 . S
C768 C769 1.399 . S
C768 H781 0.931 . S
C769 C768 1.399 . S
C769 C770 1.390 . S
C770 C765 1.392 . S
C770 C769 1.390 . S
C770 H782 0.929 . S
O771 Tb755 2.326 . S
O771 C759 1.242 . S
O772 Eu756 2.324 . S
O772 C759 1.258 . S
O773 Tb755 2.500 . S
O773 C775 1.273 . S
O774 Tb755 2.473 . S
O774 C775 1.257 . S
C775 O773 1.273 . S
C775 O774 1.257 . S
O776 Eu756 2.326 . S
O776 C764 1.242 . S
O777 Tb755 2.324 . S
O777 C764 1.258 . S
O778 Eu756 2.500 . S
O778 C761 1.273 . S
O779 Eu756 2.473 . S
O779 C761 1.257 . S
H780 C766 0.929 . S
H781 C768 0.931 . S
H782 C770 0.929 . S
O783 Tb784 2.292 . S
O783 C786 1.255 . S
Tb784 O783 2.292 . S
Tb784 O800 2.326 . S
Tb784 O802 2.500 . S
Tb784 O803 2.473 . S
Tb784 O806 2.324 . S
Eu785 O789 2.292 . S
Eu785 C790 2.852 . S
Eu785 O801 2.324 . S
Eu785 O805 2.326 . S
Eu785 O807 2.500 . S
Eu785 O808 2.473 . S
C786 O783 1.255 . S
C786 O787 1.247 . S
O787 C786 1.247 . S
C788 O800 1.242 . S
C788 O801 1.258 . S
O789 Eu785 2.292 . S
O789 C791 1.255 . S
C790 Eu785 2.852 . S
C790 C794 1.503 . S
C790 O807 1.273 . S
C790 O808 1.257 . S
C791 O789 1.255 . S
C791 O792 1.247 . S
O792 C791 1.247 . S
C793 O805 1.242 . S
C793 O806 1.258 . S
C794 C790 1.503 . S
C794 C795 1.379 . S
C794 C799 1.392 . S
C795 C794 1.379 . S
C795 C796 1.404 . S
C795 H809 0.929 . S
C796 C795 1.404 . S
C796 C797 1.389 . S
C797 C796 1.389 . S
C797 C798 1.399 . S
C797 H810 0.931 . S
C798 C797 1.399 . S
C798 C799 1.390 . S
C799 C794 1.392 . S
C799 C798 1.390 . S
C799 H811 0.929 . S
O800 Tb784 2.326 . S
O800 C788 1.242 . S
O801 Eu785 2.324 . S
O801 C788 1.258 . S
O802 Tb784 2.500 . S
O802 C804 1.273 . S
O803 Tb784 2.473 . S
O803 C804 1.257 . S
C804 O802 1.273 . S
C804 O803 1.257 . S
O805 Eu785 2.326 . S
O805 C793 1.242 . S
O806 Tb784 2.324 . S
O806 C793 1.258 . S
O807 Eu785 2.500 . S
O807 C790 1.273 . S
O808 Eu785 2.473 . S
O808 C790 1.257 . S
H809 C795 0.929 . S
H810 C797 0.931 . S
H811 C799 0.929 . S
O812 Tb813 2.292 . S
O812 C815 1.255 . S
Tb813 O812 2.292 . S
Tb813 O829 2.326 . S
Tb813 O831 2.500 . S
Tb813 O832 2.473 . S
Tb813 O835 2.324 . S
Eu814 O818 2.292 . S
Eu814 C819 2.852 . S
Eu814 O830 2.324 . S
Eu814 O834 2.326 . S
Eu814 O836 2.500 . S
Eu814 O837 2.473 . S
C815 O812 1.255 . S
C815 O816 1.247 . S
O816 C815 1.247 . S
C817 O829 1.242 . S
C817 O830 1.258 . S
O818 Eu814 2.292 . S
O818 C820 1.255 . S
C819 Eu814 2.852 . S
C819 C823 1.503 . S
C819 O836 1.273 . S
C819 O837 1.257 . S
C820 O818 1.255 . S
C820 O821 1.247 . S
O821 C820 1.247 . S
C822 O834 1.242 . S
C822 O835 1.258 . S
C823 C819 1.503 . S
C823 C824 1.379 . S
C823 C828 1.392 . S
C824 C823 1.379 . S
C824 C825 1.404 . S
C824 H838 0.929 . S
C825 C824 1.404 . S
C825 C826 1.389 . S
C826 C825 1.389 . S
C826 C827 1.399 . S
C826 H839 0.931 . S
C827 C826 1.399 . S
C827 C828 1.390 . S
C828 C823 1.392 . S
C828 C827 1.390 . S
C828 H840 0.929 . S
O829 Tb813 2.326 . S
O829 C817 1.242 . S
O830 Eu814 2.324 . S
O830 C817 1.258 . S
O831 Tb813 2.500 . S
O831 C833 1.273 . S
O832 Tb813 2.473 . S
O832 C833 1.257 . S
C833 O831 1.273 . S
C833 O832 1.257 . S
O834 Eu814 2.326 . S
O834 C822 1.242 . S
O835 Tb813 2.324 . S
O835 C822 1.258 . S
O836 Eu814 2.500 . S
O836 C819 1.273 . S
O837 Eu814 2.473 . S
O837 C819 1.257 . S
H838 C824 0.929 . S
H839 C826 0.931 . S
H840 C828 0.929 . S
O841 Tb842 2.292 . S
O841 C844 1.255 . S
Tb842 O841 2.292 . S
Tb842 O858 2.326 . S
Tb842 O860 2.500 . S
Tb842 O861 2.473 . S
Tb842 O864 2.324 . S
Eu843 O847 2.292 . S
Eu843 C848 2.852 . S
Eu843 O859 2.324 . S
Eu843 O863 2.326 . S
Eu843 O865 2.500 . S
Eu843 O866 2.473 . S
C844 O841 1.255 . S
C844 O845 1.247 . S
O845 C844 1.247 . S
C846 O858 1.242 . S
C846 O859 1.258 . S
O847 Eu843 2.292 . S
O847 C849 1.255 . S
C848 Eu843 2.852 . S
C848 C852 1.503 . S
C848 O865 1.273 . S
C848 O866 1.257 . S
C849 O847 1.255 . S
C849 O850 1.247 . S
O850 C849 1.247 . S
C851 O863 1.242 . S
C851 O864 1.258 . S
C852 C848 1.503 . S
C852 C853 1.379 . S
C852 C857 1.392 . S
C853 C852 1.379 . S
C853 C854 1.404 . S
C853 H867 0.929 . S
C854 C853 1.404 . S
C854 C855 1.389 . S
C855 C854 1.389 . S
C855 C856 1.399 . S
C855 H868 0.931 . S
C856 C855 1.399 . S
C856 C857 1.390 . S
C857 C852 1.392 . S
C857 C856 1.390 . S
C857 H869 0.929 . S
O858 Tb842 2.326 . S
O858 C846 1.242 . S
O859 Eu843 2.324 . S
O859 C846 1.258 . S
O860 Tb842 2.500 . S
O860 C862 1.273 . S
O861 Tb842 2.473 . S
O861 C862 1.257 . S
C862 O860 1.273 . S
C862 O861 1.257 . S
O863 Eu843 2.326 . S
O863 C851 1.242 . S
O864 Tb842 2.324 . S
O864 C851 1.258 . S
O865 Eu843 2.500 . S
O865 C848 1.273 . S
O866 Eu843 2.473 . S
O866 C848 1.257 . S
H867 C853 0.929 . S
H868 C855 0.931 . S
H869 C857 0.929 . S
O870 Tb871 2.292 . S
O870 C873 1.255 . S
Tb871 O870 2.292 . S
Tb871 O887 2.326 . S
Tb871 O889 2.500 . S
Tb871 O890 2.473 . S
Tb871 O893 2.324 . S
Eu872 O876 2.292 . S
Eu872 C877 2.852 . S
Eu872 O888 2.324 . S
Eu872 O892 2.326 . S
Eu872 O894 2.500 . S
Eu872 O895 2.473 . S
C873 O870 1.255 . S
C873 O874 1.247 . S
O874 C873 1.247 . S
C875 O887 1.242 . S
C875 O888 1.258 . S
O876 Eu872 2.292 . S
O876 C878 1.255 . S
C877 Eu872 2.852 . S
C877 C881 1.503 . S
C877 O894 1.273 . S
C877 O895 1.257 . S
C878 O876 1.255 . S
C878 O879 1.247 . S
O879 C878 1.247 . S
C880 O892 1.242 . S
C880 O893 1.258 . S
C881 C877 1.503 . S
C881 C882 1.379 . S
C881 C886 1.392 . S
C882 C881 1.379 . S
C882 C883 1.404 . S
C882 H896 0.929 . S
C883 C882 1.404 . S
C883 C884 1.389 . S
C884 C883 1.389 . S
C884 C885 1.399 . S
C884 H897 0.931 . S
C885 C884 1.399 . S
C885 C886 1.390 . S
C886 C881 1.392 . S
C886 C885 1.390 . S
C886 H898 0.929 . S
O887 Tb871 2.326 . S
O887 C875 1.242 . S
O888 Eu872 2.324 . S
O888 C875 1.258 . S
O889 Tb871 2.500 . S
O889 C891 1.273 . S
O890 Tb871 2.473 . S
O890 C891 1.257 . S
C891 O889 1.273 . S
C891 O890 1.257 . S
O892 Eu872 2.326 . S
O892 C880 1.242 . S
O893 Tb871 2.324 . S
O893 C880 1.258 . S
O894 Eu872 2.500 . S
O894 C877 1.273 . S
O895 Eu872 2.473 . S
O895 C877 1.257 . S
H896 C882 0.929 . S
H897 C884 0.931 . S
H898 C886 0.929 . S
O899 Tb900 2.292 . S
O899 C902 1.255 . S
Tb900 O899 2.292 . S
Tb900 O916 2.326 . S
Tb900 O918 2.500 . S
Tb900 O919 2.473 . S
Tb900 O922 2.324 . S
Eu901 O905 2.292 . S
Eu901 C906 2.852 . S
Eu901 O917 2.324 . S
Eu901 O921 2.326 . S
Eu901 O923 2.500 . S
Eu901 O924 2.473 . S
C902 O899 1.255 . S
C902 O903 1.247 . S
O903 C902 1.247 . S
C904 O916 1.242 . S
C904 O917 1.258 . S
O905 Eu901 2.292 . S
O905 C907 1.255 . S
C906 Eu901 2.852 . S
C906 C910 1.503 . S
C906 O923 1.273 . S
C906 O924 1.257 . S
C907 O905 1.255 . S
C907 O908 1.247 . S
O908 C907 1.247 . S
C909 O921 1.242 . S
C909 O922 1.258 . S
C910 C906 1.503 . S
C910 C911 1.379 . S
C910 C915 1.392 . S
C911 C910 1.379 . S
C911 C912 1.404 . S
C911 H925 0.929 . S
C912 C911 1.404 . S
C912 C913 1.389 . S
C913 C912 1.389 . S
C913 C914 1.399 . S
C913 H926 0.931 . S
C914 C913 1.399 . S
C914 C915 1.390 . S
C915 C910 1.392 . S
C915 C914 1.390 . S
C915 H927 0.929 . S
O916 Tb900 2.326 . S
O916 C904 1.242 . S
O917 Eu901 2.324 . S
O917 C904 1.258 . S
O918 Tb900 2.500 . S
O918 C920 1.273 . S
O919 Tb900 2.473 . S
O919 C920 1.257 . S
C920 O918 1.273 . S
C920 O919 1.257 . S
O921 Eu901 2.326 . S
O921 C909 1.242 . S
O922 Tb900 2.324 . S
O922 C909 1.258 . S
O923 Eu901 2.500 . S
O923 C906 1.273 . S
O924 Eu901 2.473 . S
O924 C906 1.257 . S
H925 C911 0.929 . S
H926 C913 0.931 . S
H927 C915 0.929 . S
O928 Tb929 2.292 . S
O928 C931 1.255 . S
Tb929 O928 2.292 . S
Tb929 O945 2.326 . S
Tb929 O947 2.500 . S
Tb929 O948 2.473 . S
Tb929 O951 2.324 . S
Eu930 O934 2.292 . S
Eu930 C935 2.852 . S
Eu930 O946 2.324 . S
Eu930 O950 2.326 . S
Eu930 O952 2.500 . S
Eu930 O953 2.473 . S
C931 O928 1.255 . S
C931 O932 1.247 . S
O932 C931 1.247 . S
C933 O945 1.242 . S
C933 O946 1.258 . S
O934 Eu930 2.292 . S
O934 C936 1.255 . S
C935 Eu930 2.852 . S
C935 C939 1.503 . S
C935 O952 1.273 . S
C935 O953 1.257 . S
C936 O934 1.255 . S
C936 O937 1.247 . S
O937 C936 1.247 . S
C938 O950 1.242 . S
C938 O951 1.258 . S
C939 C935 1.503 . S
C939 C940 1.379 . S
C939 C944 1.392 . S
C940 C939 1.379 . S
C940 C941 1.404 . S
C940 H954 0.929 . S
C941 C940 1.404 . S
C941 C942 1.389 . S
C942 C941 1.389 . S
C942 C943 1.399 . S
C942 H955 0.931 . S
C943 C942 1.399 . S
C943 C944 1.390 . S
C944 C939 1.392 . S
C944 C943 1.390 . S
C944 H956 0.929 . S
O945 Tb929 2.326 . S
O945 C933 1.242 . S
O946 Eu930 2.324 . S
O946 C933 1.258 . S
O947 Tb929 2.500 . S
O947 C949 1.273 . S
O948 Tb929 2.473 . S
O948 C949 1.257 . S
C949 O947 1.273 . S
C949 O948 1.257 . S
O950 Eu930 2.326 . S
O950 C938 1.242 . S
O951 Tb929 2.324 . S
O951 C938 1.258 . S
O952 Eu930 2.500 . S
O952 C935 1.273 . S
O953 Eu930 2.473 . S
O953 C935 1.257 . S
H954 C940 0.929 . S
H955 C942 0.931 . S
H956 C944 0.929 . S
O957 Tb958 2.292 . S
O957 C960 1.255 . S
Tb958 O957 2.292 . S
Tb958 O974 2.326 . S
Tb958 O976 2.500 . S
Tb958 O977 2.473 . S
Tb958 O980 2.324 . S
Eu959 O963 2.292 . S
Eu959 C964 2.852 . S
Eu959 O975 2.324 . S
Eu959 O979 2.326 . S
Eu959 O981 2.500 . S
Eu959 O982 2.473 . S
C960 O957 1.255 . S
C960 O961 1.247 . S
O961 C960 1.247 . S
C962 O974 1.242 . S
C962 O975 1.258 . S
O963 Eu959 2.292 . S
O963 C965 1.255 . S
C964 Eu959 2.852 . S
C964 C968 1.503 . S
C964 O981 1.273 . S
C964 O982 1.257 . S
C965 O963 1.255 . S
C965 O966 1.247 . S
O966 C965 1.247 . S
C967 O979 1.242 . S
C967 O980 1.258 . S
C968 C964 1.503 . S
C968 C969 1.379 . S
C968 C973 1.392 . S
C969 C968 1.379 . S
C969 C970 1.404 . S
C969 H983 0.929 . S
C970 C969 1.404 . S
C970 C971 1.389 . S
C971 C970 1.389 . S
C971 C972 1.399 . S
C971 H984 0.931 . S
C972 C971 1.399 . S
C972 C973 1.390 . S
C973 C968 1.392 . S
C973 C972 1.390 . S
C973 H985 0.929 . S
O974 Tb958 2.326 . S
O974 C962 1.242 . S
O975 Eu959 2.324 . S
O975 C962 1.258 . S
O976 Tb958 2.500 . S
O976 C978 1.273 . S
O977 Tb958 2.473 . S
O977 C978 1.257 . S
C978 O976 1.273 . S
C978 O977 1.257 . S
O979 Eu959 2.326 . S
O979 C967 1.242 . S
O980 Tb958 2.324 . S
O980 C967 1.258 . S
O981 Eu959 2.500 . S
O981 C964 1.273 . S
O982 Eu959 2.473 . S
O982 C964 1.257 . S
H983 C969 0.929 . S
H984 C971 0.931 . S
H985 C973 0.929 . S
O986 Tb987 2.292 . S
O986 C989 1.255 . S
Tb987 O986 2.292 . S
Tb987 O1003 2.326 . S
Tb987 O1005 2.500 . S
Tb987 O1006 2.473 . S
Tb987 O1009 2.324 . S
Eu988 O992 2.292 . S
Eu988 C993 2.852 . S
Eu988 O1004 2.324 . S
Eu988 O1008 2.326 . S
Eu988 O1010 2.500 . S
Eu988 O1011 2.473 . S
C989 O986 1.255 . S
C989 O990 1.247 . S
O990 C989 1.247 . S
C991 O1003 1.242 . S
C991 O1004 1.258 . S
O992 Eu988 2.292 . S
O992 C994 1.255 . S
C993 Eu988 2.852 . S
C993 C997 1.503 . S
C993 O1010 1.273 . S
C993 O1011 1.257 . S
C994 O992 1.255 . S
C994 O995 1.247 . S
O995 C994 1.247 . S
C996 O1008 1.242 . S
C996 O1009 1.258 . S
C997 C993 1.503 . S
C997 C998 1.379 . S
C997 C1002 1.392 . S
C998 C997 1.379 . S
C998 C999 1.404 . S
C998 H1012 0.929 . S
C999 C998 1.404 . S
C999 C1000 1.389 . S
C1000 C999 1.389 . S
C1000 C1001 1.399 . S
C1000 H1013 0.931 . S
C1001 C1000 1.399 . S
C1001 C1002 1.390 . S
C1002 C997 1.392 . S
C1002 C1001 1.390 . S
C1002 H1014 0.929 . S
O1003 Tb987 2.326 . S
O1003 C991 1.242 . S
O1004 Eu988 2.324 . S
O1004 C991 1.258 . S
O1005 Tb987 2.500 . S
O1005 C1007 1.273 . S
O1006 Tb987 2.473 . S
O1006 C1007 1.257 . S
C1007 O1005 1.273 . S
C1007 O1006 1.257 . S
O1008 Eu988 2.326 . S
O1008 C996 1.242 . S
O1009 Tb987 2.324 . S
O1009 C996 1.258 . S
O1010 Eu988 2.500 . S
O1010 C993 1.273 . S
O1011 Eu988 2.473 . S
O1011 C993 1.257 . S
H1012 C998 0.929 . S
H1013 C1000 0.931 . S
H1014 C1002 0.929 . S
O1015 Tb1016 2.292 . S
O1015 C1018 1.255 . S
Tb1016 O1015 2.292 . S
Tb1016 O1032 2.326 . S
Tb1016 O1034 2.500 . S
Tb1016 O1035 2.473 . S
Tb1016 O1038 2.324 . S
Eu1017 O1021 2.292 . S
Eu1017 C1022 2.852 . S
Eu1017 O1033 2.324 . S
Eu1017 O1037 2.326 . S
Eu1017 O1039 2.500 . S
Eu1017 O1040 2.473 . S
C1018 O1015 1.255 . S
C1018 O1019 1.247 . S
O1019 C1018 1.247 . S
C1020 O1032 1.242 . S
C1020 O1033 1.258 . S
O1021 Eu1017 2.292 . S
O1021 C1023 1.255 . S
C1022 Eu1017 2.852 . S
C1022 C1026 1.503 . S
C1022 O1039 1.273 . S
C1022 O1040 1.257 . S
C1023 O1021 1.255 . S
C1023 O1024 1.247 . S
O1024 C1023 1.247 . S
C1025 O1037 1.242 . S
C1025 O1038 1.258 . S
C1026 C1022 1.503 . S
C1026 C1027 1.379 . S
C1026 C1031 1.392 . S
C1027 C1026 1.379 . S
C1027 C1028 1.404 . S
C1027 H1041 0.929 . S
C1028 C1027 1.404 . S
C1028 C1029 1.389 . S
C1029 C1028 1.389 . S
C1029 C1030 1.399 . S
C1029 H1042 0.931 . S
C1030 C1029 1.399 . S
C1030 C1031 1.390 . S
C1031 C1026 1.392 . S
C1031 C1030 1.390 . S
C1031 H1043 0.929 . S
O1032 Tb1016 2.326 . S
O1032 C1020 1.242 . S
O1033 Eu1017 2.324 . S
O1033 C1020 1.258 . S
O1034 Tb1016 2.500 . S
O1034 C1036 1.273 . S
O1035 Tb1016 2.473 . S
O1035 C1036 1.257 . S
C1036 O1034 1.273 . S
C1036 O1035 1.257 . S
O1037 Eu1017 2.326 . S
O1037 C1025 1.242 . S
O1038 Tb1016 2.324 . S
O1038 C1025 1.258 . S
O1039 Eu1017 2.500 . S
O1039 C1022 1.273 . S
O1040 Eu1017 2.473 . S
O1040 C1022 1.257 . S
H1041 C1027 0.929 . S
H1042 C1029 0.931 . S
H1043 C1031 0.929 . S
O1044 Tb1045 2.292 . S
O1044 C1047 1.255 . S
Tb1045 O1044 2.292 . S
Tb1045 O1061 2.326 . S
Tb1045 O1063 2.500 . S
Tb1045 O1064 2.473 . S
Tb1045 O1067 2.324 . S
Eu1046 O1050 2.292 . S
Eu1046 C1051 2.852 . S
Eu1046 O1062 2.324 . S
Eu1046 O1066 2.326 . S
Eu1046 O1068 2.500 . S
Eu1046 O1069 2.473 . S
C1047 O1044 1.255 . S
C1047 O1048 1.247 . S
O1048 C1047 1.247 . S
C1049 O1061 1.242 . S
C1049 O1062 1.258 . S
O1050 Eu1046 2.292 . S
O1050 C1052 1.255 . S
C1051 Eu1046 2.852 . S
C1051 C1055 1.503 . S
C1051 O1068 1.273 . S
C1051 O1069 1.257 . S
C1052 O1050 1.255 . S
C1052 O1053 1.247 . S
O1053 C1052 1.247 . S
C1054 O1066 1.242 . S
C1054 O1067 1.258 . S
C1055 C1051 1.503 . S
C1055 C1056 1.379 . S
C1055 C1060 1.392 . S
C1056 C1055 1.379 . S
C1056 C1057 1.404 . S
C1056 H1070 0.929 . S
C1057 C1056 1.404 . S
C1057 C1058 1.389 . S
C1058 C1057 1.389 . S
C1058 C1059 1.399 . S
C1058 H1071 0.931 . S
C1059 C1058 1.399 . S
C1059 C1060 1.390 . S
C1060 C1055 1.392 . S
C1060 C1059 1.390 . S
C1060 H1072 0.929 . S
O1061 Tb1045 2.326 . S
O1061 C1049 1.242 . S
O1062 Eu1046 2.324 . S
O1062 C1049 1.258 . S
O1063 Tb1045 2.500 . S
O1063 C1065 1.273 . S
O1064 Tb1045 2.473 . S
O1064 C1065 1.257 . S
C1065 O1063 1.273 . S
C1065 O1064 1.257 . S
O1066 Eu1046 2.326 . S
O1066 C1054 1.242 . S
O1067 Tb1045 2.324 . S
O1067 C1054 1.258 . S
O1068 Eu1046 2.500 . S
O1068 C1051 1.273 . S
O1069 Eu1046 2.473 . S
O1069 C1051 1.257 . S
H1070 C1056 0.929 . S
H1071 C1058 0.931 . S
H1072 C1060 0.929 . S
O1073 Tb1074 2.292 . S
O1073 C1076 1.255 . S
Tb1074 O1073 2.292 . S
Tb1074 O1090 2.326 . S
Tb1074 O1092 2.500 . S
Tb1074 O1093 2.473 . S
Tb1074 O1096 2.324 . S
Eu1075 O1079 2.292 . S
Eu1075 C1080 2.852 . S
Eu1075 O1091 2.324 . S
Eu1075 O1095 2.326 . S
Eu1075 O1097 2.500 . S
Eu1075 O1098 2.473 . S
C1076 O1073 1.255 . S
C1076 O1077 1.247 . S
O1077 C1076 1.247 . S
C1078 O1090 1.242 . S
C1078 O1091 1.258 . S
O1079 Eu1075 2.292 . S
O1079 C1081 1.255 . S
C1080 Eu1075 2.852 . S
C1080 C1084 1.503 . S
C1080 O1097 1.273 . S
C1080 O1098 1.257 . S
C1081 O1079 1.255 . S
C1081 O1082 1.247 . S
O1082 C1081 1.247 . S
C1083 O1095 1.242 . S
C1083 O1096 1.258 . S
C1084 C1080 1.503 . S
C1084 C1085 1.379 . S
C1084 C1089 1.392 . S
C1085 C1084 1.379 . S
C1085 C1086 1.404 . S
C1085 H1099 0.929 . S
C1086 C1085 1.404 . S
C1086 C1087 1.389 . S
C1087 C1086 1.389 . S
C1087 C1088 1.399 . S
C1087 H1100 0.931 . S
C1088 C1087 1.399 . S
C1088 C1089 1.390 . S
C1089 C1084 1.392 . S
C1089 C1088 1.390 . S
C1089 H1101 0.929 . S
O1090 Tb1074 2.326 . S
O1090 C1078 1.242 . S
O1091 Eu1075 2.324 . S
O1091 C1078 1.258 . S
O1092 Tb1074 2.500 . S
O1092 C1094 1.273 . S
O1093 Tb1074 2.473 . S
O1093 C1094 1.257 . S
C1094 O1092 1.273 . S
C1094 O1093 1.257 . S
O1095 Eu1075 2.326 . S
O1095 C1083 1.242 . S
O1096 Tb1074 2.324 . S
O1096 C1083 1.258 . S
O1097 Eu1075 2.500 . S
O1097 C1080 1.273 . S
O1098 Eu1075 2.473 . S
O1098 C1080 1.257 . S
H1099 C1085 0.929 . S
H1100 C1087 0.931 . S
H1101 C1089 0.929 . S
O1102 Tb1103 2.292 . S
O1102 C1105 1.255 . S
Tb1103 O1102 2.292 . S
Tb1103 O1119 2.326 . S
Tb1103 O1121 2.500 . S
Tb1103 O1122 2.473 . S
Tb1103 O1125 2.324 . S
Eu1104 O1108 2.292 . S
Eu1104 C1109 2.852 . S
Eu1104 O1120 2.324 . S
Eu1104 O1124 2.326 . S
Eu1104 O1126 2.500 . S
Eu1104 O1127 2.473 . S
C1105 O1102 1.255 . S
C1105 O1106 1.247 . S
O1106 C1105 1.247 . S
C1107 O1119 1.242 . S
C1107 O1120 1.258 . S
O1108 Eu1104 2.292 . S
O1108 C1110 1.255 . S
C1109 Eu1104 2.852 . S
C1109 C1113 1.503 . S
C1109 O1126 1.273 . S
C1109 O1127 1.257 . S
C1110 O1108 1.255 . S
C1110 O1111 1.247 . S
O1111 C1110 1.247 . S
C1112 O1124 1.242 . S
C1112 O1125 1.258 . S
C1113 C1109 1.503 . S
C1113 C1114 1.379 . S
C1113 C1118 1.392 . S
C1114 C1113 1.379 . S
C1114 C1115 1.404 . S
C1114 H1128 0.929 . S
C1115 C1114 1.404 . S
C1115 C1116 1.389 . S
C1116 C1115 1.389 . S
C1116 C1117 1.399 . S
C1116 H1129 0.931 . S
C1117 C1116 1.399 . S
C1117 C1118 1.390 . S
C1118 C1113 1.392 . S
C1118 C1117 1.390 . S
C1118 H1130 0.929 . S
O1119 Tb1103 2.326 . S
O1119 C1107 1.242 . S
O1120 Eu1104 2.324 . S
O1120 C1107 1.258 . S
O1121 Tb1103 2.500 . S
O1121 C1123 1.273 . S
O1122 Tb1103 2.473 . S
O1122 C1123 1.257 . S
C1123 O1121 1.273 . S
C1123 O1122 1.257 . S
O1124 Eu1104 2.326 . S
O1124 C1112 1.242 . S
O1125 Tb1103 2.324 . S
O1125 C1112 1.258 . S
O1126 Eu1104 2.500 . S
O1126 C1109 1.273 . S
O1127 Eu1104 2.473 . S
O1127 C1109 1.257 . S
H1128 C1114 0.929 . S
H1129 C1116 0.931 . S
H1130 C1118 0.929 . S
O1131 Tb1132 2.292 . S
O1131 C1134 1.255 . S
Tb1132 O1131 2.292 . S
Tb1132 O1148 2.326 . S
Tb1132 O1150 2.500 . S
Tb1132 O1151 2.473 . S
Tb1132 O1154 2.324 . S
Eu1133 O1137 2.292 . S
Eu1133 C1138 2.852 . S
Eu1133 O1149 2.324 . S
Eu1133 O1153 2.326 . S
Eu1133 O1155 2.500 . S
Eu1133 O1156 2.473 . S
C1134 O1131 1.255 . S
C1134 O1135 1.247 . S
O1135 C1134 1.247 . S
C1136 O1148 1.242 . S
C1136 O1149 1.258 . S
O1137 Eu1133 2.292 . S
O1137 C1139 1.255 . S
C1138 Eu1133 2.852 . S
C1138 C1142 1.503 . S
C1138 O1155 1.273 . S
C1138 O1156 1.257 . S
C1139 O1137 1.255 . S
C1139 O1140 1.247 . S
O1140 C1139 1.247 . S
C1141 O1153 1.242 . S
C1141 O1154 1.258 . S
C1142 C1138 1.503 . S
C1142 C1143 1.379 . S
C1142 C1147 1.392 . S
C1143 C1142 1.379 . S
C1143 C1144 1.404 . S
C1143 H1157 0.929 . S
C1144 C1143 1.404 . S
C1144 C1145 1.389 . S
C1145 C1144 1.389 . S
C1145 C1146 1.399 . S
C1145 H1158 0.931 . S
C1146 C1145 1.399 . S
C1146 C1147 1.390 . S
C1147 C1142 1.392 . S
C1147 C1146 1.390 . S
C1147 H1159 0.929 . S
O1148 Tb1132 2.326 . S
O1148 C1136 1.242 . S
O1149 Eu1133 2.324 . S
O1149 C1136 1.258 . S
O1150 Tb1132 2.500 . S
O1150 C1152 1.273 . S
O1151 Tb1132 2.473 . S
O1151 C1152 1.257 . S
C1152 O1150 1.273 . S
C1152 O1151 1.257 . S
O1153 Eu1133 2.326 . S
O1153 C1141 1.242 . S
O1154 Tb1132 2.324 . S
O1154 C1141 1.258 . S
O1155 Eu1133 2.500 . S
O1155 C1138 1.273 . S
O1156 Eu1133 2.473 . S
O1156 C1138 1.257 . S
H1157 C1143 0.929 . S
H1158 C1145 0.931 . S
H1159 C1147 0.929 . S
O1160 Tb1161 2.292 . S
O1160 C1163 1.255 . S
Tb1161 O1160 2.292 . S
Tb1161 O1177 2.326 . S
Tb1161 O1179 2.500 . S
Tb1161 O1180 2.473 . S
Tb1161 O1183 2.324 . S
Eu1162 O1166 2.292 . S
Eu1162 C1167 2.852 . S
Eu1162 O1178 2.324 . S
Eu1162 O1182 2.326 . S
Eu1162 O1184 2.500 . S
Eu1162 O1185 2.473 . S
C1163 O1160 1.255 . S
C1163 O1164 1.247 . S
O1164 C1163 1.247 . S
C1165 O1177 1.242 . S
C1165 O1178 1.258 . S
O1166 Eu1162 2.292 . S
O1166 C1168 1.255 . S
C1167 Eu1162 2.852 . S
C1167 C1171 1.503 . S
C1167 O1184 1.273 . S
C1167 O1185 1.257 . S
C1168 O1166 1.255 . S
C1168 O1169 1.247 . S
O1169 C1168 1.247 . S
C1170 O1182 1.242 . S
C1170 O1183 1.258 . S
C1171 C1167 1.503 . S
C1171 C1172 1.379 . S
C1171 C1176 1.392 . S
C1172 C1171 1.379 . S
C1172 C1173 1.404 . S
C1172 H1186 0.929 . S
C1173 C1172 1.404 . S
C1173 C1174 1.389 . S
C1174 C1173 1.389 . S
C1174 C1175 1.399 . S
C1174 H1187 0.931 . S
C1175 C1174 1.399 . S
C1175 C1176 1.390 . S
C1176 C1171 1.392 . S
C1176 C1175 1.390 . S
C1176 H1188 0.929 . S
O1177 Tb1161 2.326 . S
O1177 C1165 1.242 . S
O1178 Eu1162 2.324 . S
O1178 C1165 1.258 . S
O1179 Tb1161 2.500 . S
O1179 C1181 1.273 . S
O1180 Tb1161 2.473 . S
O1180 C1181 1.257 . S
C1181 O1179 1.273 . S
C1181 O1180 1.257 . S
O1182 Eu1162 2.326 . S
O1182 C1170 1.242 . S
O1183 Tb1161 2.324 . S
O1183 C1170 1.258 . S
O1184 Eu1162 2.500 . S
O1184 C1167 1.273 . S
O1185 Eu1162 2.473 . S
O1185 C1167 1.257 . S
H1186 C1172 0.929 . S
H1187 C1174 0.931 . S
H1188 C1176 0.929 . S
O1189 Tb1190 2.292 . S
O1189 C1192 1.255 . S
Tb1190 O1189 2.292 . S
Tb1190 O1206 2.326 . S
Tb1190 O1208 2.500 . S
Tb1190 O1209 2.473 . S
Tb1190 O1212 2.324 . S
Eu1191 O1195 2.292 . S
Eu1191 C1196 2.852 . S
Eu1191 O1207 2.324 . S
Eu1191 O1211 2.326 . S
Eu1191 O1213 2.500 . S
Eu1191 O1214 2.473 . S
C1192 O1189 1.255 . S
C1192 O1193 1.247 . S
O1193 C1192 1.247 . S
C1194 O1206 1.242 . S
C1194 O1207 1.258 . S
O1195 Eu1191 2.292 . S
O1195 C1197 1.255 . S
C1196 Eu1191 2.852 . S
C1196 C1200 1.503 . S
C1196 O1213 1.273 . S
C1196 O1214 1.257 . S
C1197 O1195 1.255 . S
C1197 O1198 1.247 . S
O1198 C1197 1.247 . S
C1199 O1211 1.242 . S
C1199 O1212 1.258 . S
C1200 C1196 1.503 . S
C1200 C1201 1.379 . S
C1200 C1205 1.392 . S
C1201 C1200 1.379 . S
C1201 C1202 1.404 . S
C1201 H1215 0.929 . S
C1202 C1201 1.404 . S
C1202 C1203 1.389 . S
C1203 C1202 1.389 . S
C1203 C1204 1.399 . S
C1203 H1216 0.931 . S
C1204 C1203 1.399 . S
C1204 C1205 1.390 . S
C1205 C1200 1.392 . S
C1205 C1204 1.390 . S
C1205 H1217 0.929 . S
O1206 Tb1190 2.326 . S
O1206 C1194 1.242 . S
O1207 Eu1191 2.324 . S
O1207 C1194 1.258 . S
O1208 Tb1190 2.500 . S
O1208 C1210 1.273 . S
O1209 Tb1190 2.473 . S
O1209 C1210 1.257 . S
C1210 O1208 1.273 . S
C1210 O1209 1.257 . S
O1211 Eu1191 2.326 . S
O1211 C1199 1.242 . S
O1212 Tb1190 2.324 . S
O1212 C1199 1.258 . S
O1213 Eu1191 2.500 . S
O1213 C1196 1.273 . S
O1214 Eu1191 2.473 . S
O1214 C1196 1.257 . S
H1215 C1201 0.929 . S
H1216 C1203 0.931 . S
H1217 C1205 0.929 . S
O1218 Tb1219 2.292 . S
O1218 C1221 1.255 . S
Tb1219 O1218 2.292 . S
Tb1219 O1235 2.326 . S
Tb1219 O1237 2.500 . S
Tb1219 O1238 2.473 . S
Tb1219 O1241 2.324 . S
Eu1220 O1224 2.292 . S
Eu1220 C1225 2.852 . S
Eu1220 O1236 2.324 . S
Eu1220 O1240 2.326 . S
Eu1220 O1242 2.500 . S
Eu1220 O1243 2.473 . S
C1221 O1218 1.255 . S
C1221 O1222 1.247 . S
O1222 C1221 1.247 . S
C1223 O1235 1.242 . S
C1223 O1236 1.258 . S
O1224 Eu1220 2.292 . S
O1224 C1226 1.255 . S
C1225 Eu1220 2.852 . S
C1225 C1229 1.503 . S
C1225 O1242 1.273 . S
C1225 O1243 1.257 . S
C1226 O1224 1.255 . S
C1226 O1227 1.247 . S
O1227 C1226 1.247 . S
C1228 O1240 1.242 . S
C1228 O1241 1.258 . S
C1229 C1225 1.503 . S
C1229 C1230 1.379 . S
C1229 C1234 1.392 . S
C1230 C1229 1.379 . S
C1230 C1231 1.404 . S
C1230 H1244 0.929 . S
C1231 C1230 1.404 . S
C1231 C1232 1.389 . S
C1232 C1231 1.389 . S
C1232 C1233 1.399 . S
C1232 H1245 0.931 . S
C1233 C1232 1.399 . S
C1233 C1234 1.390 . S
C1234 C1229 1.392 . S
C1234 C1233 1.390 . S
C1234 H1246 0.929 . S
O1235 Tb1219 2.326 . S
O1235 C1223 1.242 . S
O1236 Eu1220 2.324 . S
O1236 C1223 1.258 . S
O1237 Tb1219 2.500 . S
O1237 C1239 1.273 . S
O1238 Tb1219 2.473 . S
O1238 C1239 1.257 . S
C1239 O1237 1.273 . S
C1239 O1238 1.257 . S
O1240 Eu1220 2.326 . S
O1240 C1228 1.242 . S
O1241 Tb1219 2.324 . S
O1241 C1228 1.258 . S
O1242 Eu1220 2.500 . S
O1242 C1225 1.273 . S
O1243 Eu1220 2.473 . S
O1243 C1225 1.257 . S
H1244 C1230 0.929 . S
H1245 C1232 0.931 . S
H1246 C1234 0.929 . S
O1247 Tb1248 2.292 . S
O1247 C1250 1.255 . S
Tb1248 O1247 2.292 . S
Tb1248 O1264 2.326 . S
Tb1248 O1266 2.500 . S
Tb1248 O1267 2.473 . S
Tb1248 O1270 2.324 . S
Eu1249 O1253 2.292 . S
Eu1249 C1254 2.852 . S
Eu1249 O1265 2.324 . S
Eu1249 O1269 2.326 . S
Eu1249 O1271 2.500 . S
Eu1249 O1272 2.473 . S
C1250 O1247 1.255 . S
C1250 O1251 1.247 . S
O1251 C1250 1.247 . S
C1252 O1264 1.242 . S
C1252 O1265 1.258 . S
O1253 Eu1249 2.292 . S
O1253 C1255 1.255 . S
C1254 Eu1249 2.852 . S
C1254 C1258 1.503 . S
C1254 O1271 1.273 . S
C1254 O1272 1.257 . S
C1255 O1253 1.255 . S
C1255 O1256 1.247 . S
O1256 C1255 1.247 . S
C1257 O1269 1.242 . S
C1257 O1270 1.258 . S
C1258 C1254 1.503 . S
C1258 C1259 1.379 . S
C1258 C1263 1.392 . S
C1259 C1258 1.379 . S
C1259 C1260 1.404 . S
C1259 H1273 0.929 . S
C1260 C1259 1.404 . S
C1260 C1261 1.389 . S
C1261 C1260 1.389 . S
C1261 C1262 1.399 . S
C1261 H1274 0.931 . S
C1262 C1261 1.399 . S
C1262 C1263 1.390 . S
C1263 C1258 1.392 . S
C1263 C1262 1.390 . S
C1263 H1275 0.929 . S
O1264 Tb1248 2.326 . S
O1264 C1252 1.242 . S
O1265 Eu1249 2.324 . S
O1265 C1252 1.258 . S
O1266 Tb1248 2.500 . S
O1266 C1268 1.273 . S
O1267 Tb1248 2.473 . S
O1267 C1268 1.257 . S
C1268 O1266 1.273 . S
C1268 O1267 1.257 . S
O1269 Eu1249 2.326 . S
O1269 C1257 1.242 . S
O1270 Tb1248 2.324 . S
O1270 C1257 1.258 . S
O1271 Eu1249 2.500 . S
O1271 C1254 1.273 . S
O1272 Eu1249 2.473 . S
O1272 C1254 1.257 . S
H1273 C1259 0.929 . S
H1274 C1261 0.931 . S
H1275 C1263 0.929 . S
O1276 Tb1277 2.292 . S
O1276 C1279 1.255 . S
Tb1277 O1276 2.292 . S
Tb1277 O1293 2.326 . S
Tb1277 O1295 2.500 . S
Tb1277 O1296 2.473 . S
Tb1277 O1299 2.324 . S
Eu1278 O1282 2.292 . S
Eu1278 C1283 2.852 . S
Eu1278 O1294 2.324 . S
Eu1278 O1298 2.326 . S
Eu1278 O1300 2.500 . S
Eu1278 O1301 2.473 . S
C1279 O1276 1.255 . S
C1279 O1280 1.247 . S
O1280 C1279 1.247 . S
C1281 O1293 1.242 . S
C1281 O1294 1.258 . S
O1282 Eu1278 2.292 . S
O1282 C1284 1.255 . S
C1283 Eu1278 2.852 . S
C1283 C1287 1.503 . S
C1283 O1300 1.273 . S
C1283 O1301 1.257 . S
C1284 O1282 1.255 . S
C1284 O1285 1.247 . S
O1285 C1284 1.247 . S
C1286 O1298 1.242 . S
C1286 O1299 1.258 . S
C1287 C1283 1.503 . S
C1287 C1288 1.379 . S
C1287 C1292 1.392 . S
C1288 C1287 1.379 . S
C1288 C1289 1.404 . S
C1288 H1302 0.929 . S
C1289 C1288 1.404 . S
C1289 C1290 1.389 . S
C1290 C1289 1.389 . S
C1290 C1291 1.399 . S
C1290 H1303 0.931 . S
C1291 C1290 1.399 . S
C1291 C1292 1.390 . S
C1292 C1287 1.392 . S
C1292 C1291 1.390 . S
C1292 H1304 0.929 . S
O1293 Tb1277 2.326 . S
O1293 C1281 1.242 . S
O1294 Eu1278 2.324 . S
O1294 C1281 1.258 . S
O1295 Tb1277 2.500 . S
O1295 C1297 1.273 . S
O1296 Tb1277 2.473 . S
O1296 C1297 1.257 . S
C1297 O1295 1.273 . S
C1297 O1296 1.257 . S
O1298 Eu1278 2.326 . S
O1298 C1286 1.242 . S
O1299 Tb1277 2.324 . S
O1299 C1286 1.258 . S
O1300 Eu1278 2.500 . S
O1300 C1283 1.273 . S
O1301 Eu1278 2.473 . S
O1301 C1283 1.257 . S
H1302 C1288 0.929 . S
H1303 C1290 0.931 . S
H1304 C1292 0.929 . S
O1305 Tb1306 2.292 . S
O1305 C1308 1.255 . S
Tb1306 O1305 2.292 . S
Tb1306 O1322 2.326 . S
Tb1306 O1324 2.500 . S
Tb1306 O1325 2.473 . S
Tb1306 O1328 2.324 . S
Eu1307 O1311 2.292 . S
Eu1307 C1312 2.852 . S
Eu1307 O1323 2.324 . S
Eu1307 O1327 2.326 . S
Eu1307 O1329 2.500 . S
Eu1307 O1330 2.473 . S
C1308 O1305 1.255 . S
C1308 O1309 1.247 . S
O1309 C1308 1.247 . S
C1310 O1322 1.242 . S
C1310 O1323 1.258 . S
O1311 Eu1307 2.292 . S
O1311 C1313 1.255 . S
C1312 Eu1307 2.852 . S
C1312 C1316 1.503 . S
C1312 O1329 1.273 . S
C1312 O1330 1.257 . S
C1313 O1311 1.255 . S
C1313 O1314 1.247 . S
O1314 C1313 1.247 . S
C1315 O1327 1.242 . S
C1315 O1328 1.258 . S
C1316 C1312 1.503 . S
C1316 C1317 1.379 . S
C1316 C1321 1.392 . S
C1317 C1316 1.379 . S
C1317 C1318 1.404 . S
C1317 H1331 0.929 . S
C1318 C1317 1.404 . S
C1318 C1319 1.389 . S
C1319 C1318 1.389 . S
C1319 C1320 1.399 . S
C1319 H1332 0.931 . S
C1320 C1319 1.399 . S
C1320 C1321 1.390 . S
C1321 C1316 1.392 . S
C1321 C1320 1.390 . S
C1321 H1333 0.929 . S
O1322 Tb1306 2.326 . S
O1322 C1310 1.242 . S
O1323 Eu1307 2.324 . S
O1323 C1310 1.258 . S
O1324 Tb1306 2.500 . S
O1324 C1326 1.273 . S
O1325 Tb1306 2.473 . S
O1325 C1326 1.257 . S
C1326 O1324 1.273 . S
C1326 O1325 1.257 . S
O1327 Eu1307 2.326 . S
O1327 C1315 1.242 . S
O1328 Tb1306 2.324 . S
O1328 C1315 1.258 . S
O1329 Eu1307 2.500 . S
O1329 C1312 1.273 . S
O1330 Eu1307 2.473 . S
O1330 C1312 1.257 . S
H1331 C1317 0.929 . S
H1332 C1319 0.931 . S
H1333 C1321 0.929 . S
O1334 Tb1335 2.292 . S
O1334 C1337 1.255 . S
Tb1335 O1334 2.292 . S
Tb1335 O1351 2.326 . S
Tb1335 O1353 2.500 . S
Tb1335 O1354 2.473 . S
Tb1335 O1357 2.324 . S
Eu1336 O1340 2.292 . S
Eu1336 C1341 2.852 . S
Eu1336 O1352 2.324 . S
Eu1336 O1356 2.326 . S
Eu1336 O1358 2.500 . S
Eu1336 O1359 2.473 . S
C1337 O1334 1.255 . S
C1337 O1338 1.247 . S
O1338 C1337 1.247 . S
C1339 O1351 1.242 . S
C1339 O1352 1.258 . S
O1340 Eu1336 2.292 . S
O1340 C1342 1.255 . S
C1341 Eu1336 2.852 . S
C1341 C1345 1.503 . S
C1341 O1358 1.273 . S
C1341 O1359 1.257 . S
C1342 O1340 1.255 . S
C1342 O1343 1.247 . S
O1343 C1342 1.247 . S
C1344 O1356 1.242 . S
C1344 O1357 1.258 . S
C1345 C1341 1.503 . S
C1345 C1346 1.379 . S
C1345 C1350 1.392 . S
C1346 C1345 1.379 . S
C1346 C1347 1.404 . S
C1346 H1360 0.929 . S
C1347 C1346 1.404 . S
C1347 C1348 1.389 . S
C1348 C1347 1.389 . S
C1348 C1349 1.399 . S
C1348 H1361 0.931 . S
C1349 C1348 1.399 . S
C1349 C1350 1.390 . S
C1350 C1345 1.392 . S
C1350 C1349 1.390 . S
C1350 H1362 0.929 . S
O1351 Tb1335 2.326 . S
O1351 C1339 1.242 . S
O1352 Eu1336 2.324 . S
O1352 C1339 1.258 . S
O1353 Tb1335 2.500 . S
O1353 C1355 1.273 . S
O1354 Tb1335 2.473 . S
O1354 C1355 1.257 . S
C1355 O1353 1.273 . S
C1355 O1354 1.257 . S
O1356 Eu1336 2.326 . S
O1356 C1344 1.242 . S
O1357 Tb1335 2.324 . S
O1357 C1344 1.258 . S
O1358 Eu1336 2.500 . S
O1358 C1341 1.273 . S
O1359 Eu1336 2.473 . S
O1359 C1341 1.257 . S
H1360 C1346 0.929 . S
H1361 C1348 0.931 . S
H1362 C1350 0.929 . S
O1363 Tb1364 2.292 . S
O1363 C1366 1.255 . S
Tb1364 O1363 2.292 . S
Tb1364 O1380 2.326 . S
Tb1364 O1382 2.500 . S
Tb1364 O1383 2.473 . S
Tb1364 O1386 2.324 . S
Eu1365 O1369 2.292 . S
Eu1365 C1370 2.852 . S
Eu1365 O1381 2.324 . S
Eu1365 O1385 2.326 . S
Eu1365 O1387 2.500 . S
Eu1365 O1388 2.473 . S
C1366 O1363 1.255 . S
C1366 O1367 1.247 . S
O1367 C1366 1.247 . S
C1368 O1380 1.242 . S
C1368 O1381 1.258 . S
O1369 Eu1365 2.292 . S
O1369 C1371 1.255 . S
C1370 Eu1365 2.852 . S
C1370 C1374 1.503 . S
C1370 O1387 1.273 . S
C1370 O1388 1.257 . S
C1371 O1369 1.255 . S
C1371 O1372 1.247 . S
O1372 C1371 1.247 . S
C1373 O1385 1.242 . S
C1373 O1386 1.258 . S
C1374 C1370 1.503 . S
C1374 C1375 1.379 . S
C1374 C1379 1.392 . S
C1375 C1374 1.379 . S
C1375 C1376 1.404 . S
C1375 H1389 0.929 . S
C1376 C1375 1.404 . S
C1376 C1377 1.389 . S
C1377 C1376 1.389 . S
C1377 C1378 1.399 . S
C1377 H1390 0.931 . S
C1378 C1377 1.399 . S
C1378 C1379 1.390 . S
C1379 C1374 1.392 . S
C1379 C1378 1.390 . S
C1379 H1391 0.929 . S
O1380 Tb1364 2.326 . S
O1380 C1368 1.242 . S
O1381 Eu1365 2.324 . S
O1381 C1368 1.258 . S
O1382 Tb1364 2.500 . S
O1382 C1384 1.273 . S
O1383 Tb1364 2.473 . S
O1383 C1384 1.257 . S
C1384 O1382 1.273 . S
C1384 O1383 1.257 . S
O1385 Eu1365 2.326 . S
O1385 C1373 1.242 . S
O1386 Tb1364 2.324 . S
O1386 C1373 1.258 . S
O1387 Eu1365 2.500 . S
O1387 C1370 1.273 . S
O1388 Eu1365 2.473 . S
O1388 C1370 1.257 . S
H1389 C1375 0.929 . S
H1390 C1377 0.931 . S
H1391 C1379 0.929 . S
H1392 C1398 0.930 . S
H1393 C1401 0.930 . S
H1394 C1402 0.930 . S
H1395 C1403 0.930 . S
H1396 C1406 0.930 . S
H1397 C1407 0.930 . S
C1398 H1392 0.930 . S
C1398 C1399 1.355 . S
C1398 C1400 1.415 . S
C1399 C1398 1.355 . S
C1399 C1401 1.419 . S
C1400 C1398 1.415 . S
C1400 C1405 1.425 . S
C1400 C1407 1.409 . S
C1401 H1393 0.930 . S
C1401 C1399 1.419 . S
C1401 C1402 1.362 . S
C1402 H1394 0.930 . S
C1402 C1401 1.362 . S
C1402 C1405 1.409 . S
C1403 H1395 0.930 . S
C1403 C1404 1.355 . S
C1403 C1405 1.415 . S
C1404 C1403 1.355 . S
C1404 C1406 1.419 . S
C1405 C1400 1.425 . S
C1405 C1402 1.409 . S
C1405 C1403 1.415 . S
C1406 H1396 0.930 . S
C1406 C1404 1.419 . S
C1406 C1407 1.362 . S
C1407 H1397 0.930 . S
C1407 C1400 1.409 . S
C1407 C1406 1.362 . S
H1408 C1414 0.930 . S
H1409 C1417 0.930 . S
H1410 C1418 0.930 . S
H1411 C1419 0.930 . S
H1412 C1422 0.930 . S
H1413 C1423 0.930 . S
C1414 H1408 0.930 . S
C1414 C1415 1.355 . S
C1414 C1416 1.415 . S
C1415 C1414 1.355 . S
C1415 C1417 1.419 . S
C1416 C1414 1.415 . S
C1416 C1421 1.425 . S
C1416 C1423 1.409 . S
C1417 H1409 0.930 . S
C1417 C1415 1.419 . S
C1417 C1418 1.362 . S
C1418 H1410 0.930 . S
C1418 C1417 1.362 . S
C1418 C1421 1.409 . S
C1419 H1411 0.930 . S
C1419 C1420 1.355 . S
C1419 C1421 1.415 . S
C1420 C1419 1.355 . S
C1420 C1422 1.419 . S
C1421 C1416 1.425 . S
C1421 C1418 1.409 . S
C1421 C1419 1.415 . S
C1422 H1412 0.930 . S
C1422 C1420 1.419 . S
C1422 C1423 1.362 . S
C1423 H1413 0.930 . S
C1423 C1416 1.409 . S
C1423 C1422 1.362 . S
H1424 C1430 0.930 . S
H1425 C1433 0.930 . S
H1426 C1434 0.930 . S
H1427 C1435 0.930 . S
H1428 C1438 0.930 . S
H1429 C1439 0.930 . S
C1430 H1424 0.930 . S
C1430 C1431 1.355 . S
C1430 C1432 1.415 . S
C1431 C1430 1.355 . S
C1431 C1433 1.419 . S
C1432 C1430 1.415 . S
C1432 C1437 1.425 . S
C1432 C1439 1.409 . S
C1433 H1425 0.930 . S
C1433 C1431 1.419 . S
C1433 C1434 1.362 . S
C1434 H1426 0.930 . S
C1434 C1433 1.362 . S
C1434 C1437 1.409 . S
C1435 H1427 0.930 . S
C1435 C1436 1.355 . S
C1435 C1437 1.415 . S
C1436 C1435 1.355 . S
C1436 C1438 1.419 . S
C1437 C1432 1.425 . S
C1437 C1434 1.409 . S
C1437 C1435 1.415 . S
C1438 H1428 0.930 . S
C1438 C1436 1.419 . S
C1438 C1439 1.362 . S
C1439 H1429 0.930 . S
C1439 C1432 1.409 . S
C1439 C1438 1.362 . S
H1440 C1446 0.930 . S
H1441 C1449 0.930 . S
H1442 C1450 0.930 . S
H1443 C1451 0.930 . S
H1444 C1454 0.930 . S
H1445 C1455 0.930 . S
C1446 H1440 0.930 . S
C1446 C1447 1.355 . S
C1446 C1448 1.415 . S
C1447 C1446 1.355 . S
C1447 C1449 1.419 . S
C1448 C1446 1.415 . S
C1448 C1453 1.425 . S
C1448 C1455 1.409 . S
C1449 H1441 0.930 . S
C1449 C1447 1.419 . S
C1449 C1450 1.362 . S
C1450 H1442 0.930 . S
C1450 C1449 1.362 . S
C1450 C1453 1.409 . S
C1451 H1443 0.930 . S
C1451 C1452 1.355 . S
C1451 C1453 1.415 . S
C1452 C1451 1.355 . S
C1452 C1454 1.419 . S
C1453 C1448 1.425 . S
C1453 C1450 1.409 . S
C1453 C1451 1.415 . S
C1454 H1444 0.930 . S
C1454 C1452 1.419 . S
C1454 C1455 1.362 . S
C1455 H1445 0.930 . S
C1455 C1448 1.409 . S
C1455 C1454 1.362 . S
H1456 C1462 0.930 . S
H1457 C1465 0.930 . S
H1458 C1466 0.930 . S
H1459 C1467 0.930 . S
H1460 C1470 0.930 . S
H1461 C1471 0.930 . S
C1462 H1456 0.930 . S
C1462 C1463 1.355 . S
C1462 C1464 1.415 . S
C1463 C1462 1.355 . S
C1463 C1465 1.419 . S
C1464 C1462 1.415 . S
C1464 C1469 1.425 . S
C1464 C1471 1.409 . S
C1465 H1457 0.930 . S
C1465 C1463 1.419 . S
C1465 C1466 1.362 . S
C1466 H1458 0.930 . S
C1466 C1465 1.362 . S
C1466 C1469 1.409 . S
C1467 H1459 0.930 . S
C1467 C1468 1.355 . S
C1467 C1469 1.415 . S
C1468 C1467 1.355 . S
C1468 C1470 1.419 . S
C1469 C1464 1.425 . S
C1469 C1466 1.409 . S
C1469 C1467 1.415 . S
C1470 H1460 0.930 . S
C1470 C1468 1.419 . S
C1470 C1471 1.362 . S
C1471 H1461 0.930 . S
C1471 C1464 1.409 . S
C1471 C1470 1.362 . S
H1472 C1478 0.930 . S
H1473 C1481 0.930 . S
H1474 C1482 0.930 . S
H1475 C1483 0.930 . S
H1476 C1486 0.930 . S
H1477 C1487 0.930 . S
C1478 H1472 0.930 . S
C1478 C1479 1.355 . S
C1478 C1480 1.415 . S
C1479 C1478 1.355 . S
C1479 C1481 1.419 . S
C1480 C1478 1.415 . S
C1480 C1485 1.425 . S
C1480 C1487 1.409 . S
C1481 H1473 0.930 . S
C1481 C1479 1.419 . S
C1481 C1482 1.362 . S
C1482 H1474 0.930 . S
C1482 C1481 1.362 . S
C1482 C1485 1.409 . S
C1483 H1475 0.930 . S
C1483 C1484 1.355 . S
C1483 C1485 1.415 . S
C1484 C1483 1.355 . S
C1484 C1486 1.419 . S
C1485 C1480 1.425 . S
C1485 C1482 1.409 . S
C1485 C1483 1.415 . S
C1486 H1476 0.930 . S
C1486 C1484 1.419 . S
C1486 C1487 1.362 . S
C1487 H1477 0.930 . S
C1487 C1480 1.409 . S
C1487 C1486 1.362 . S
H1488 C1494 0.930 . S
H1489 C1497 0.930 . S
H1490 C1498 0.930 . S
H1491 C1499 0.930 . S
H1492 C1502 0.930 . S
H1493 C1503 0.930 . S
C1494 H1488 0.930 . S
C1494 C1495 1.355 . S
C1494 C1496 1.415 . S
C1495 C1494 1.355 . S
C1495 C1497 1.419 . S
C1496 C1494 1.415 . S
C1496 C1501 1.425 . S
C1496 C1503 1.409 . S
C1497 H1489 0.930 . S
C1497 C1495 1.419 . S
C1497 C1498 1.362 . S
C1498 H1490 0.930 . S
C1498 C1497 1.362 . S
C1498 C1501 1.409 . S
C1499 H1491 0.930 . S
C1499 C1500 1.355 . S
C1499 C1501 1.415 . S
C1500 C1499 1.355 . S
C1500 C1502 1.419 . S
C1501 C1496 1.425 . S
C1501 C1498 1.409 . S
C1501 C1499 1.415 . S
C1502 H1492 0.930 . S
C1502 C1500 1.419 . S
C1502 C1503 1.362 . S
C1503 H1493 0.930 . S
C1503 C1496 1.409 . S
C1503 C1502 1.362 . S
H1504 C1510 0.930 . S
H1505 C1513 0.930 . S
H1506 C1514 0.930 . S
H1507 C1515 0.930 . S
H1508 C1518 0.930 . S
H1509 C1519 0.930 . S
C1510 H1504 0.930 . S
C1510 C1511 1.355 . S
C1510 C1512 1.415 . S
C1511 C1510 1.355 . S
C1511 C1513 1.419 . S
C1512 C1510 1.415 . S
C1512 C1517 1.425 . S
C1512 C1519 1.409 . S
C1513 H1505 0.930 . S
C1513 C1511 1.419 . S
C1513 C1514 1.362 . S
C1514 H1506 0.930 . S
C1514 C1513 1.362 . S
C1514 C1517 1.409 . S
C1515 H1507 0.930 . S
C1515 C1516 1.355 . S
C1515 C1517 1.415 . S
C1516 C1515 1.355 . S
C1516 C1518 1.419 . S
C1517 C1512 1.425 . S
C1517 C1514 1.409 . S
C1517 C1515 1.415 . S
C1518 H1508 0.930 . S
C1518 C1516 1.419 . S
C1518 C1519 1.362 . S
C1519 H1509 0.930 . S
C1519 C1512 1.409 . S
C1519 C1518 1.362 . S
H1520 C1526 0.930 . S
H1521 C1529 0.930 . S
H1522 C1530 0.930 . S
H1523 C1531 0.930 . S
H1524 C1534 0.930 . S
H1525 C1535 0.930 . S
C1526 H1520 0.930 . S
C1526 C1527 1.355 . S
C1526 C1528 1.415 . S
C1527 C1526 1.355 . S
C1527 C1529 1.419 . S
C1528 C1526 1.415 . S
C1528 C1533 1.425 . S
C1528 C1535 1.409 . S
C1529 H1521 0.930 . S
C1529 C1527 1.419 . S
C1529 C1530 1.362 . S
C1530 H1522 0.930 . S
C1530 C1529 1.362 . S
C1530 C1533 1.409 . S
C1531 H1523 0.930 . S
C1531 C1532 1.355 . S
C1531 C1533 1.415 . S
C1532 C1531 1.355 . S
C1532 C1534 1.419 . S
C1533 C1528 1.425 . S
C1533 C1530 1.409 . S
C1533 C1531 1.415 . S
C1534 H1524 0.930 . S
C1534 C1532 1.419 . S
C1534 C1535 1.362 . S
C1535 H1525 0.930 . S
C1535 C1528 1.409 . S
C1535 C1534 1.362 . S
H1536 C1542 0.930 . S
H1537 C1545 0.930 . S
H1538 C1546 0.930 . S
H1539 C1547 0.930 . S
H1540 C1550 0.930 . S
H1541 C1551 0.930 . S
C1542 H1536 0.930 . S
C1542 C1543 1.355 . S
C1542 C1544 1.415 . S
C1543 C1542 1.355 . S
C1543 C1545 1.419 . S
C1544 C1542 1.415 . S
C1544 C1549 1.425 . S
C1544 C1551 1.409 . S
C1545 H1537 0.930 . S
C1545 C1543 1.419 . S
C1545 C1546 1.362 . S
C1546 H1538 0.930 . S
C1546 C1545 1.362 . S
C1546 C1549 1.409 . S
C1547 H1539 0.930 . S
C1547 C1548 1.355 . S
C1547 C1549 1.415 . S
C1548 C1547 1.355 . S
C1548 C1550 1.419 . S
C1549 C1544 1.425 . S
C1549 C1546 1.409 . S
C1549 C1547 1.415 . S
C1550 H1540 0.930 . S
C1550 C1548 1.419 . S
C1550 C1551 1.362 . S
C1551 H1541 0.930 . S
C1551 C1544 1.409 . S
C1551 C1550 1.362 . S
H1552 C1558 0.930 . S
H1553 C1561 0.930 . S
H1554 C1562 0.930 . S
H1555 C1563 0.930 . S
H1556 C1566 0.930 . S
H1557 C1567 0.930 . S
C1558 H1552 0.930 . S
C1558 C1559 1.355 . S
C1558 C1560 1.415 . S
C1559 C1558 1.355 . S
C1559 C1561 1.419 . S
C1560 C1558 1.415 . S
C1560 C1565 1.425 . S
C1560 C1567 1.409 . S
C1561 H1553 0.930 . S
C1561 C1559 1.419 . S
C1561 C1562 1.362 . S
C1562 H1554 0.930 . S
C1562 C1561 1.362 . S
C1562 C1565 1.409 . S
C1563 H1555 0.930 . S
C1563 C1564 1.355 . S
C1563 C1565 1.415 . S
C1564 C1563 1.355 . S
C1564 C1566 1.419 . S
C1565 C1560 1.425 . S
C1565 C1562 1.409 . S
C1565 C1563 1.415 . S
C1566 H1556 0.930 . S
C1566 C1564 1.419 . S
C1566 C1567 1.362 . S
C1567 H1557 0.930 . S
C1567 C1560 1.409 . S
C1567 C1566 1.362 . S
H1568 C1574 0.930 . S
H1569 C1577 0.930 . S
H1570 C1578 0.930 . S
H1571 C1579 0.930 . S
H1572 C1582 0.930 . S
H1573 C1583 0.930 . S
C1574 H1568 0.930 . S
C1574 C1575 1.355 . S
C1574 C1576 1.415 . S
C1575 C1574 1.355 . S
C1575 C1577 1.419 . S
C1576 C1574 1.415 . S
C1576 C1581 1.425 . S
C1576 C1583 1.409 . S
C1577 H1569 0.930 . S
C1577 C1575 1.419 . S
C1577 C1578 1.362 . S
C1578 H1570 0.930 . S
C1578 C1577 1.362 . S
C1578 C1581 1.409 . S
C1579 H1571 0.930 . S
C1579 C1580 1.355 . S
C1579 C1581 1.415 . S
C1580 C1579 1.355 . S
C1580 C1582 1.419 . S
C1581 C1576 1.425 . S
C1581 C1578 1.409 . S
C1581 C1579 1.415 . S
C1582 H1572 0.930 . S
C1582 C1580 1.419 . S
C1582 C1583 1.362 . S
C1583 H1573 0.930 . S
C1583 C1576 1.409 . S
C1583 C1582 1.362 . S
H1584 C1590 0.930 . S
H1585 C1593 0.930 . S
H1586 C1594 0.930 . S
H1587 C1595 0.930 . S
H1588 C1598 0.930 . S
H1589 C1599 0.930 . S
C1590 H1584 0.930 . S
C1590 C1591 1.355 . S
C1590 C1592 1.415 . S
C1591 C1590 1.355 . S
C1591 C1593 1.419 . S
C1592 C1590 1.415 . S
C1592 C1597 1.425 . S
C1592 C1599 1.409 . S
C1593 H1585 0.930 . S
C1593 C1591 1.419 . S
C1593 C1594 1.362 . S
C1594 H1586 0.930 . S
C1594 C1593 1.362 . S
C1594 C1597 1.409 . S
C1595 H1587 0.930 . S
C1595 C1596 1.355 . S
C1595 C1597 1.415 . S
C1596 C1595 1.355 . S
C1596 C1598 1.419 . S
C1597 C1592 1.425 . S
C1597 C1594 1.409 . S
C1597 C1595 1.415 . S
C1598 H1588 0.930 . S
C1598 C1596 1.419 . S
C1598 C1599 1.362 . S
C1599 H1589 0.930 . S
C1599 C1592 1.409 . S
C1599 C1598 1.362 . S
H1600 C1606 0.930 . S
H1601 C1609 0.930 . S
H1602 C1610 0.930 . S
H1603 C1611 0.930 . S
H1604 C1614 0.930 . S
H1605 C1615 0.930 . S
C1606 H1600 0.930 . S
C1606 C1607 1.355 . S
C1606 C1608 1.415 . S
C1607 C1606 1.355 . S
C1607 C1609 1.419 . S
C1608 C1606 1.415 . S
C1608 C1613 1.425 . S
C1608 C1615 1.409 . S
C1609 H1601 0.930 . S
C1609 C1607 1.419 . S
C1609 C1610 1.362 . S
C1610 H1602 0.930 . S
C1610 C1609 1.362 . S
C1610 C1613 1.409 . S
C1611 H1603 0.930 . S
C1611 C1612 1.355 . S
C1611 C1613 1.415 . S
C1612 C1611 1.355 . S
C1612 C1614 1.419 . S
C1613 C1608 1.425 . S
C1613 C1610 1.409 . S
C1613 C1611 1.415 . S
C1614 H1604 0.930 . S
C1614 C1612 1.419 . S
C1614 C1615 1.362 . S
C1615 H1605 0.930 . S
C1615 C1608 1.409 . S
C1615 C1614 1.362 . S
H1616 C1622 0.930 . S
H1617 C1625 0.930 . S
H1618 C1626 0.930 . S
H1619 C1627 0.930 . S
H1620 C1630 0.930 . S
H1621 C1631 0.930 . S
C1622 H1616 0.930 . S
C1622 C1623 1.355 . S
C1622 C1624 1.415 . S
C1623 C1622 1.355 . S
C1623 C1625 1.419 . S
C1624 C1622 1.415 . S
C1624 C1629 1.425 . S
C1624 C1631 1.409 . S
C1625 H1617 0.930 . S
C1625 C1623 1.419 . S
C1625 C1626 1.362 . S
C1626 H1618 0.930 . S
C1626 C1625 1.362 . S
C1626 C1629 1.409 . S
C1627 H1619 0.930 . S
C1627 C1628 1.355 . S
C1627 C1629 1.415 . S
C1628 C1627 1.355 . S
C1628 C1630 1.419 . S
C1629 C1624 1.425 . S
C1629 C1626 1.409 . S
C1629 C1627 1.415 . S
C1630 H1620 0.930 . S
C1630 C1628 1.419 . S
C1630 C1631 1.362 . S
C1631 H1621 0.930 . S
C1631 C1624 1.409 . S
C1631 C1630 1.362 . S
H1632 C1638 0.930 . S
H1633 C1641 0.930 . S
H1634 C1642 0.930 . S
H1635 C1643 0.930 . S
H1636 C1646 0.930 . S
H1637 C1647 0.930 . S
C1638 H1632 0.930 . S
C1638 C1639 1.355 . S
C1638 C1640 1.415 . S
C1639 C1638 1.355 . S
C1639 C1641 1.419 . S
C1640 C1638 1.415 . S
C1640 C1645 1.425 . S
C1640 C1647 1.409 . S
C1641 H1633 0.930 . S
C1641 C1639 1.419 . S
C1641 C1642 1.362 . S
C1642 H1634 0.930 . S
C1642 C1641 1.362 . S
C1642 C1645 1.409 . S
C1643 H1635 0.930 . S
C1643 C1644 1.355 . S
C1643 C1645 1.415 . S
C1644 C1643 1.355 . S
C1644 C1646 1.419 . S
C1645 C1640 1.425 . S
C1645 C1642 1.409 . S
C1645 C1643 1.415 . S
C1646 H1636 0.930 . S
C1646 C1644 1.419 . S
C1646 C1647 1.362 . S
C1647 H1637 0.930 . S
C1647 C1640 1.409 . S
C1647 C1646 1.362 . S
H1648 C1654 0.930 . S
H1649 C1657 0.930 . S
H1650 C1658 0.930 . S
H1651 C1659 0.930 . S
H1652 C1662 0.930 . S
H1653 C1663 0.930 . S
C1654 H1648 0.930 . S
C1654 C1655 1.355 . S
C1654 C1656 1.415 . S
C1655 C1654 1.355 . S
C1655 C1657 1.419 . S
C1656 C1654 1.415 . S
C1656 C1661 1.425 . S
C1656 C1663 1.409 . S
C1657 H1649 0.930 . S
C1657 C1655 1.419 . S
C1657 C1658 1.362 . S
C1658 H1650 0.930 . S
C1658 C1657 1.362 . S
C1658 C1661 1.409 . S
C1659 H1651 0.930 . S
C1659 C1660 1.355 . S
C1659 C1661 1.415 . S
C1660 C1659 1.355 . S
C1660 C1662 1.419 . S
C1661 C1656 1.425 . S
C1661 C1658 1.409 . S
C1661 C1659 1.415 . S
C1662 H1652 0.930 . S
C1662 C1660 1.419 . S
C1662 C1663 1.362 . S
C1663 H1653 0.930 . S
C1663 C1656 1.409 . S
C1663 C1662 1.362 . S
H1664 C1670 0.930 . S
H1665 C1673 0.930 . S
H1666 C1674 0.930 . S
H1667 C1675 0.930 . S
H1668 C1678 0.930 . S
H1669 C1679 0.930 . S
C1670 H1664 0.930 . S
C1670 C1671 1.355 . S
C1670 C1672 1.415 . S
C1671 C1670 1.355 . S
C1671 C1673 1.419 . S
C1672 C1670 1.415 . S
C1672 C1677 1.425 . S
C1672 C1679 1.409 . S
C1673 H1665 0.930 . S
C1673 C1671 1.419 . S
C1673 C1674 1.362 . S
C1674 H1666 0.930 . S
C1674 C1673 1.362 . S
C1674 C1677 1.409 . S
C1675 H1667 0.930 . S
C1675 C1676 1.355 . S
C1675 C1677 1.415 . S
C1676 C1675 1.355 . S
C1676 C1678 1.419 . S
C1677 C1672 1.425 . S
C1677 C1674 1.409 . S
C1677 C1675 1.415 . S
C1678 H1668 0.930 . S
C1678 C1676 1.419 . S
C1678 C1679 1.362 . S
C1679 H1669 0.930 . S
C1679 C1672 1.409 . S
C1679 C1678 1.362 . S
H1680 C1686 0.930 . S
H1681 C1689 0.930 . S
H1682 C1690 0.930 . S
H1683 C1691 0.930 . S
H1684 C1694 0.930 . S
H1685 C1695 0.930 . S
C1686 H1680 0.930 . S
C1686 C1687 1.355 . S
C1686 C1688 1.415 . S
C1687 C1686 1.355 . S
C1687 C1689 1.419 . S
C1688 C1686 1.415 . S
C1688 C1693 1.425 . S
C1688 C1695 1.409 . S
C1689 H1681 0.930 . S
C1689 C1687 1.419 . S
C1689 C1690 1.362 . S
C1690 H1682 0.930 . S
C1690 C1689 1.362 . S
C1690 C1693 1.409 . S
C1691 H1683 0.930 . S
C1691 C1692 1.355 . S
C1691 C1693 1.415 . S
C1692 C1691 1.355 . S
C1692 C1694 1.419 . S
C1693 C1688 1.425 . S
C1693 C1690 1.409 . S
C1693 C1691 1.415 . S
C1694 H1684 0.930 . S
C1694 C1692 1.419 . S
C1694 C1695 1.362 . S
C1695 H1685 0.930 . S
C1695 C1688 1.409 . S
C1695 C1694 1.362 . S
H1696 C1702 0.930 . S
H1697 C1705 0.930 . S
H1698 C1706 0.930 . S
H1699 C1707 0.930 . S
H1700 C1710 0.930 . S
H1701 C1711 0.930 . S
C1702 H1696 0.930 . S
C1702 C1703 1.355 . S
C1702 C1704 1.415 . S
C1703 C1702 1.355 . S
C1703 C1705 1.419 . S
C1704 C1702 1.415 . S
C1704 C1709 1.425 . S
C1704 C1711 1.409 . S
C1705 H1697 0.930 . S
C1705 C1703 1.419 . S
C1705 C1706 1.362 . S
C1706 H1698 0.930 . S
C1706 C1705 1.362 . S
C1706 C1709 1.409 . S
C1707 H1699 0.930 . S
C1707 C1708 1.355 . S
C1707 C1709 1.415 . S
C1708 C1707 1.355 . S
C1708 C1710 1.419 . S
C1709 C1704 1.425 . S
C1709 C1706 1.409 . S
C1709 C1707 1.415 . S
C1710 H1700 0.930 . S
C1710 C1708 1.419 . S
C1710 C1711 1.362 . S
C1711 H1701 0.930 . S
C1711 C1704 1.409 . S
C1711 C1710 1.362 . S
H1712 C1718 0.930 . S
H1713 C1721 0.930 . S
H1714 C1722 0.930 . S
H1715 C1723 0.930 . S
H1716 C1726 0.930 . S
H1717 C1727 0.930 . S
C1718 H1712 0.930 . S
C1718 C1719 1.355 . S
C1718 C1720 1.415 . S
C1719 C1718 1.355 . S
C1719 C1721 1.419 . S
C1720 C1718 1.415 . S
C1720 C1725 1.425 . S
C1720 C1727 1.409 . S
C1721 H1713 0.930 . S
C1721 C1719 1.419 . S
C1721 C1722 1.362 . S
C1722 H1714 0.930 . S
C1722 C1721 1.362 . S
C1722 C1725 1.409 . S
C1723 H1715 0.930 . S
C1723 C1724 1.355 . S
C1723 C1725 1.415 . S
C1724 C1723 1.355 . S
C1724 C1726 1.419 . S
C1725 C1720 1.425 . S
C1725 C1722 1.409 . S
C1725 C1723 1.415 . S
C1726 H1716 0.930 . S
C1726 C1724 1.419 . S
C1726 C1727 1.362 . S
C1727 H1717 0.930 . S
C1727 C1720 1.409 . S
C1727 C1726 1.362 . S
H1728 C1734 0.930 . S
H1729 C1737 0.930 . S
H1730 C1738 0.930 . S
H1731 C1739 0.930 . S
H1732 C1742 0.930 . S
H1733 C1743 0.930 . S
C1734 H1728 0.930 . S
C1734 C1735 1.355 . S
C1734 C1736 1.415 . S
C1735 C1734 1.355 . S
C1735 C1737 1.419 . S
C1736 C1734 1.415 . S
C1736 C1741 1.425 . S
C1736 C1743 1.409 . S
C1737 H1729 0.930 . S
C1737 C1735 1.419 . S
C1737 C1738 1.362 . S
C1738 H1730 0.930 . S
C1738 C1737 1.362 . S
C1738 C1741 1.409 . S
C1739 H1731 0.930 . S
C1739 C1740 1.355 . S
C1739 C1741 1.415 . S
C1740 C1739 1.355 . S
C1740 C1742 1.419 . S
C1741 C1736 1.425 . S
C1741 C1738 1.409 . S
C1741 C1739 1.415 . S
C1742 H1732 0.930 . S
C1742 C1740 1.419 . S
C1742 C1743 1.362 . S
C1743 H1733 0.930 . S
C1743 C1736 1.409 . S
C1743 C1742 1.362 . S
H1744 C1750 0.930 . S
H1745 C1753 0.930 . S
H1746 C1754 0.930 . S
H1747 C1755 0.930 . S
H1748 C1758 0.930 . S
H1749 C1759 0.930 . S
C1750 H1744 0.930 . S
C1750 C1751 1.355 . S
C1750 C1752 1.415 . S
C1751 C1750 1.355 . S
C1751 C1753 1.419 . S
C1752 C1750 1.415 . S
C1752 C1757 1.425 . S
C1752 C1759 1.409 . S
C1753 H1745 0.930 . S
C1753 C1751 1.419 . S
C1753 C1754 1.362 . S
C1754 H1746 0.930 . S
C1754 C1753 1.362 . S
C1754 C1757 1.409 . S
C1755 H1747 0.930 . S
C1755 C1756 1.355 . S
C1755 C1757 1.415 . S
C1756 C1755 1.355 . S
C1756 C1758 1.419 . S
C1757 C1752 1.425 . S
C1757 C1754 1.409 . S
C1757 C1755 1.415 . S
C1758 H1748 0.930 . S
C1758 C1756 1.419 . S
C1758 C1759 1.362 . S
C1759 H1749 0.930 . S
C1759 C1752 1.409 . S
C1759 C1758 1.362 . S
H1760 C1766 0.930 . S
H1761 C1769 0.930 . S
H1762 C1770 0.930 . S
H1763 C1771 0.930 . S
H1764 C1774 0.930 . S
H1765 C1775 0.930 . S
C1766 H1760 0.930 . S
C1766 C1767 1.355 . S
C1766 C1768 1.415 . S
C1767 C1766 1.355 . S
C1767 C1769 1.419 . S
C1768 C1766 1.415 . S
C1768 C1773 1.425 . S
C1768 C1775 1.409 . S
C1769 H1761 0.930 . S
C1769 C1767 1.419 . S
C1769 C1770 1.362 . S
C1770 H1762 0.930 . S
C1770 C1769 1.362 . S
C1770 C1773 1.409 . S
C1771 H1763 0.930 . S
C1771 C1772 1.355 . S
C1771 C1773 1.415 . S
C1772 C1771 1.355 . S
C1772 C1774 1.419 . S
C1773 C1768 1.425 . S
C1773 C1770 1.409 . S
C1773 C1771 1.415 . S
C1774 H1764 0.930 . S
C1774 C1772 1.419 . S
C1774 C1775 1.362 . S
C1775 H1765 0.930 . S
C1775 C1768 1.409 . S
C1775 C1774 1.362 . S
H1776 C1782 0.930 . S
H1777 C1785 0.930 . S
H1778 C1786 0.930 . S
H1779 C1787 0.930 . S
H1780 C1790 0.930 . S
H1781 C1791 0.933 . S
C1782 H1776 0.930 . S
C1782 C1783 1.355 . S
C1782 C1784 1.415 . S
C1783 C1782 1.355 . S
C1783 C1785 1.419 . S
C1784 C1782 1.415 . S
C1784 C1789 1.425 . S
C1784 C1791 1.409 1_554 S
C1785 H1777 0.930 . S
C1785 C1783 1.419 . S
C1785 C1786 1.362 . S
C1786 H1778 0.930 . S
C1786 C1785 1.362 . S
C1786 C1789 1.409 . S
C1787 H1779 0.930 . S
C1787 C1788 1.355 . S
C1787 C1789 1.415 1_556 S
C1788 C1787 1.355 . S
C1788 C1790 1.419 . S
C1789 C1784 1.425 . S
C1789 C1786 1.409 . S
C1789 C1787 1.415 1_554 S
C1790 H1780 0.930 . S
C1790 C1788 1.419 . S
C1790 C1791 1.362 . S
C1791 H1781 0.933 . S
C1791 C1784 1.409 1_556 S
C1791 C1790 1.362 . S
H1792 C1798 0.930 . S
H1793 C1801 0.930 . S
H1794 C1802 0.930 . S
H1795 C1803 0.930 . S
H1796 C1806 0.930 . S
H1797 C1807 0.930 . S
C1798 H1792 0.930 . S
C1798 C1799 1.355 . S
C1798 C1800 1.415 . S
C1799 C1798 1.355 . S
C1799 C1801 1.419 . S
C1800 C1798 1.415 . S
C1800 C1805 1.425 . S
C1800 C1807 1.409 . S
C1801 H1793 0.930 . S
C1801 C1799 1.419 . S
C1801 C1802 1.362 . S
C1802 H1794 0.930 . S
C1802 C1801 1.362 . S
C1802 C1805 1.409 . S
C1803 H1795 0.930 . S
C1803 C1804 1.355 . S
C1803 C1805 1.415 1_556 S
C1804 C1803 1.355 . S
C1804 C1806 1.419 . S
C1805 C1800 1.425 . S
C1805 C1802 1.409 . S
C1805 C1803 1.415 1_554 S
C1806 H1796 0.930 . S
C1806 C1804 1.419 . S
C1806 C1807 1.362 1_556 S
C1807 H1797 0.930 . S
C1807 C1800 1.409 . S
C1807 C1806 1.362 1_554 S
H1808 C1814 0.930 . S
H1809 C1817 0.930 . S
H1810 C1818 0.936 . S
H1811 C1819 0.930 . S
H1812 C1822 0.930 . S
H1813 C1823 0.930 . S
C1814 H1808 0.930 . S
C1814 C1815 1.355 . S
C1814 C1816 1.415 1_556 S
C1815 C1814 1.355 . S
C1815 C1817 1.419 . S
C1816 C1814 1.415 1_554 S
C1816 C1821 1.425 . S
C1816 C1823 1.409 . S
C1817 H1809 0.930 . S
C1817 C1815 1.419 . S
C1817 C1818 1.362 . S
C1818 H1810 0.936 . S
C1818 C1817 1.362 . S
C1818 C1821 1.409 1_556 S
C1819 H1811 0.930 . S
C1819 C1820 1.355 . S
C1819 C1821 1.415 . S
C1820 C1819 1.355 . S
C1820 C1822 1.419 . S
C1821 C1816 1.425 . S
C1821 C1818 1.409 1_554 S
C1821 C1819 1.415 . S
C1822 H1812 0.930 . S
C1822 C1820 1.419 . S
C1822 C1823 1.362 . S
C1823 H1813 0.930 . S
C1823 C1816 1.409 . S
C1823 C1822 1.362 . S
H1824 C1830 0.930 . S
H1825 C1833 0.930 . S
H1826 C1834 0.930 . S
H1827 C1835 0.930 . S
H1828 C1838 0.930 . S
H1829 C1839 0.936 . S
C1830 H1824 0.930 . S
C1830 C1831 1.355 . S
C1830 C1832 1.415 . S
C1831 C1830 1.355 . S
C1831 C1833 1.419 . S
C1832 C1830 1.415 . S
C1832 C1837 1.425 . S
C1832 C1839 1.409 1_554 S
C1833 H1825 0.930 . S
C1833 C1831 1.419 . S
C1833 C1834 1.362 . S
C1834 H1826 0.930 . S
C1834 C1833 1.362 . S
C1834 C1837 1.409 . S
C1835 H1827 0.930 . S
C1835 C1836 1.355 . S
C1835 C1837 1.415 1_556 S
C1836 C1835 1.355 . S
C1836 C1838 1.419 . S
C1837 C1832 1.425 . S
C1837 C1834 1.409 . S
C1837 C1835 1.415 1_554 S
C1838 H1828 0.930 . S
C1838 C1836 1.419 . S
C1838 C1839 1.362 . S
C1839 H1829 0.936 . S
C1839 C1832 1.409 1_556 S
C1839 C1838 1.362 . S
H1840 C1846 0.930 . S
H1841 C1849 0.930 . S
H1842 C1850 0.930 . S
H1843 C1851 0.930 . S
H1844 C1854 0.930 . S
H1845 C1855 0.930 . S
C1846 H1840 0.930 . S
C1846 C1847 1.355 . S
C1846 C1848 1.415 . S
C1847 C1846 1.355 . S
C1847 C1849 1.419 . S
C1848 C1846 1.415 . S
C1848 C1853 1.425 . S
C1848 C1855 1.409 . S
C1849 H1841 0.930 . S
C1849 C1847 1.419 . S
C1849 C1850 1.362 . S
C1850 H1842 0.930 . S
C1850 C1849 1.362 . S
C1850 C1853 1.409 . S
C1851 H1843 0.930 . S
C1851 C1852 1.355 . S
C1851 C1853 1.415 . S
C1852 C1851 1.355 . S
C1852 C1854 1.419 . S
C1853 C1848 1.425 . S
C1853 C1850 1.409 . S
C1853 C1851 1.415 . S
C1854 H1844 0.930 . S
C1854 C1852 1.419 . S
C1854 C1855 1.362 . S
C1855 H1845 0.930 . S
C1855 C1848 1.409 . S
C1855 C1854 1.362 . S
H1856 C1862 0.930 . S
H1857 C1865 0.930 . S
H1858 C1866 0.930 . S
H1859 C1867 0.930 . S
H1860 C1870 0.930 . S
H1861 C1871 0.930 . S
C1862 H1856 0.930 . S
C1862 C1863 1.355 . S
C1862 C1864 1.415 . S
C1863 C1862 1.355 . S
C1863 C1865 1.419 . S
C1864 C1862 1.415 . S
C1864 C1869 1.425 . S
C1864 C1871 1.409 . S
C1865 H1857 0.930 . S
C1865 C1863 1.419 . S
C1865 C1866 1.362 . S
C1866 H1858 0.930 . S
C1866 C1865 1.362 . S
C1866 C1869 1.409 . S
C1867 H1859 0.930 . S
C1867 C1868 1.355 . S
C1867 C1869 1.415 . S
C1868 C1867 1.355 . S
C1868 C1870 1.419 . S
C1869 C1864 1.425 . S
C1869 C1866 1.409 . S
C1869 C1867 1.415 . S
C1870 H1860 0.930 . S
C1870 C1868 1.419 . S
C1870 C1871 1.362 . S
C1871 H1861 0.930 . S
C1871 C1864 1.409 . S
C1871 C1870 1.362 . S
H1872 C1878 0.930 . S
H1873 C1881 0.930 . S
H1874 C1882 0.930 . S
H1875 C1883 0.930 . S
H1876 C1886 0.930 . S
H1877 C1887 0.930 . S
C1878 H1872 0.930 . S
C1878 C1879 1.355 . S
C1878 C1880 1.415 . S
C1879 C1878 1.355 . S
C1879 C1881 1.419 . S
C1880 C1878 1.415 . S
C1880 C1885 1.425 . S
C1880 C1887 1.409 . S
C1881 H1873 0.930 . S
C1881 C1879 1.419 . S
C1881 C1882 1.362 . S
C1882 H1874 0.930 . S
C1882 C1881 1.362 . S
C1882 C1885 1.409 . S
C1883 H1875 0.930 . S
C1883 C1884 1.355 . S
C1883 C1885 1.415 . S
C1884 C1883 1.355 . S
C1884 C1886 1.419 . S
C1885 C1880 1.425 . S
C1885 C1882 1.409 . S
C1885 C1883 1.415 . S
C1886 H1876 0.930 . S
C1886 C1884 1.419 . S
C1886 C1887 1.362 . S
C1887 H1877 0.930 . S
C1887 C1880 1.409 . S
C1887 C1886 1.362 . S
H1888 C1894 0.930 . S
H1889 C1897 0.930 . S
H1890 C1898 0.930 . S
H1891 C1899 0.930 . S
H1892 C1902 0.930 . S
H1893 C1903 0.930 . S
C1894 H1888 0.930 . S
C1894 C1895 1.355 . S
C1894 C1896 1.415 . S
C1895 C1894 1.355 . S
C1895 C1897 1.419 . S
C1896 C1894 1.415 . S
C1896 C1901 1.425 . S
C1896 C1903 1.409 . S
C1897 H1889 0.930 . S
C1897 C1895 1.419 . S
C1897 C1898 1.362 . S
C1898 H1890 0.930 . S
C1898 C1897 1.362 . S
C1898 C1901 1.409 . S
C1899 H1891 0.930 . S
C1899 C1900 1.355 . S
C1899 C1901 1.415 . S
C1900 C1899 1.355 . S
C1900 C1902 1.419 . S
C1901 C1896 1.425 . S
C1901 C1898 1.409 . S
C1901 C1899 1.415 . S
C1902 H1892 0.930 . S
C1902 C1900 1.419 . S
C1902 C1903 1.362 . S
C1903 H1893 0.930 . S
C1903 C1896 1.409 . S
C1903 C1902 1.362 . S
H1904 C1910 0.930 . S
H1905 C1913 0.930 . S
H1906 C1914 0.936 . S
H1907 C1915 0.930 . S
H1908 C1918 0.930 . S
H1909 C1919 0.930 . S
C1910 H1904 0.930 . S
C1910 C1911 1.355 . S
C1910 C1912 1.415 1_655 S
C1911 C1910 1.355 . S
C1911 C1913 1.419 . S
C1912 C1910 1.415 1_455 S
C1912 C1917 1.425 . S
C1912 C1919 1.409 . S
C1913 H1905 0.930 . S
C1913 C1911 1.419 . S
C1913 C1914 1.362 . S
C1914 H1906 0.936 . S
C1914 C1913 1.362 . S
C1914 C1917 1.409 1_655 S
C1915 H1907 0.930 . S
C1915 C1916 1.355 . S
C1915 C1917 1.415 . S
C1916 C1915 1.355 . S
C1916 C1918 1.419 . S
C1917 C1912 1.425 . S
C1917 C1914 1.409 1_455 S
C1917 C1915 1.415 . S
C1918 H1908 0.930 . S
C1918 C1916 1.419 . S
C1918 C1919 1.362 . S
C1919 H1909 0.930 . S
C1919 C1912 1.409 . S
C1919 C1918 1.362 . S
H1920 C1926 0.930 . S
H1921 C1929 0.930 . S
H1922 C1930 0.930 . S
H1923 C1931 0.930 . S
H1924 C1934 0.930 . S
H1925 C1935 0.930 . S
C1926 H1920 0.930 . S
C1926 C1927 1.355 . S
C1926 C1928 1.415 1_565 S
C1927 C1926 1.355 . S
C1927 C1929 1.419 . S
C1928 C1926 1.415 1_545 S
C1928 C1933 1.425 . S
C1928 C1935 1.409 . S
C1929 H1921 0.930 . S
C1929 C1927 1.419 . S
C1929 C1930 1.362 1_565 S
C1930 H1922 0.930 . S
C1930 C1929 1.362 1_545 S
C1930 C1933 1.409 . S
C1931 H1923 0.930 . S
C1931 C1932 1.355 . S
C1931 C1933 1.415 . S
C1932 C1931 1.355 . S
C1932 C1934 1.419 . S
C1933 C1928 1.425 . S
C1933 C1930 1.409 . S
C1933 C1931 1.415 . S
C1934 H1924 0.930 . S
C1934 C1932 1.419 . S
C1934 C1935 1.362 . S
C1935 H1925 0.930 . S
C1935 C1928 1.409 . S
C1935 C1934 1.362 . S
H1936 C1942 0.930 . S
H1937 C1945 0.930 . S
H1938 C1946 0.930 . S
H1939 C1947 0.930 . S
H1940 C1950 0.930 . S
H1941 C1951 0.930 . S
C1942 H1936 0.930 . S
C1942 C1943 1.355 . S
C1942 C1944 1.415 . S
C1943 C1942 1.355 . S
C1943 C1945 1.419 . S
C1944 C1942 1.415 . S
C1944 C1949 1.425 . S
C1944 C1951 1.409 . S
C1945 H1937 0.930 . S
C1945 C1943 1.419 . S
C1945 C1946 1.362 . S
C1946 H1938 0.930 . S
C1946 C1945 1.362 . S
C1946 C1949 1.409 . S
C1947 H1939 0.930 . S
C1947 C1948 1.355 . S
C1947 C1949 1.415 . S
C1948 C1947 1.355 . S
C1948 C1950 1.419 . S
C1949 C1944 1.425 . S
C1949 C1946 1.409 . S
C1949 C1947 1.415 . S
C1950 H1940 0.930 . S
C1950 C1948 1.419 . S
C1950 C1951 1.362 . S
C1951 H1941 0.930 . S
C1951 C1944 1.409 . S
C1951 C1950 1.362 . S
H1952 C1958 0.930 . S
H1953 C1961 0.930 . S
H1954 C1962 0.930 . S
H1955 C1963 0.930 . S
H1956 C1966 0.930 . S
H1957 C1967 0.930 . S
C1958 H1952 0.930 . S
C1958 C1959 1.355 . S
C1958 C1960 1.415 . S
C1959 C1958 1.355 . S
C1959 C1961 1.419 . S
C1960 C1958 1.415 . S
C1960 C1965 1.425 . S
C1960 C1967 1.409 . S
C1961 H1953 0.930 . S
C1961 C1959 1.419 . S
C1961 C1962 1.362 . S
C1962 H1954 0.930 . S
C1962 C1961 1.362 . S
C1962 C1965 1.409 . S
C1963 H1955 0.930 . S
C1963 C1964 1.355 . S
C1963 C1965 1.415 . S
C1964 C1963 1.355 . S
C1964 C1966 1.419 . S
C1965 C1960 1.425 . S
C1965 C1962 1.409 . S
C1965 C1963 1.415 . S
C1966 H1956 0.930 . S
C1966 C1964 1.419 . S
C1966 C1967 1.362 . S
C1967 H1957 0.930 . S
C1967 C1960 1.409 . S
C1967 C1966 1.362 . S
H1968 C1974 0.930 . S
H1969 C1977 0.930 . S
H1970 C1978 0.930 . S
H1971 C1979 0.930 . S
H1972 C1982 0.930 . S
H1973 C1983 0.930 . S
C1974 H1968 0.930 . S
C1974 C1975 1.355 . S
C1974 C1976 1.415 . S
C1975 C1974 1.355 . S
C1975 C1977 1.419 . S
C1976 C1974 1.415 . S
C1976 C1981 1.425 . S
C1976 C1983 1.409 . S
C1977 H1969 0.930 . S
C1977 C1975 1.419 . S
C1977 C1978 1.362 . S
C1978 H1970 0.930 . S
C1978 C1977 1.362 . S
C1978 C1981 1.409 . S
C1979 H1971 0.930 . S
C1979 C1980 1.355 . S
C1979 C1981 1.415 1_655 S
C1980 C1979 1.355 . S
C1980 C1982 1.419 . S
C1981 C1976 1.425 . S
C1981 C1978 1.409 . S
C1981 C1979 1.415 1_455 S
C1982 H1972 0.930 . S
C1982 C1980 1.419 . S
C1982 C1983 1.362 1_655 S
C1983 H1973 0.930 . S
C1983 C1976 1.409 . S
C1983 C1982 1.362 1_455 S
H1984 C1990 0.930 . S
H1985 C1993 0.930 . S
H1986 C1994 0.930 . S
H1987 C1995 0.930 . S
H1988 C1998 0.930 . S
H1989 C1999 0.930 . S
C1990 H1984 0.930 . S
C1990 C1991 1.355 . S
C1990 C1992 1.415 1_565 S
C1991 C1990 1.355 . S
C1991 C1993 1.419 . S
C1992 C1990 1.415 1_545 S
C1992 C1997 1.425 . S
C1992 C1999 1.409 . S
C1993 H1985 0.930 . S
C1993 C1991 1.419 . S
C1993 C1994 1.362 1_565 S
C1994 H1986 0.930 . S
C1994 C1993 1.362 1_545 S
C1994 C1997 1.409 . S
C1995 H1987 0.930 . S
C1995 C1996 1.355 . S
C1995 C1997 1.415 . S
C1996 C1995 1.355 . S
C1996 C1998 1.419 . S
C1997 C1992 1.425 . S
C1997 C1994 1.409 . S
C1997 C1995 1.415 . S
C1998 H1988 0.930 . S
C1998 C1996 1.419 . S
C1998 C1999 1.362 . S
C1999 H1989 0.930 . S
C1999 C1992 1.409 . S
C1999 C1998 1.362 . S
H2000 C2006 0.930 . S
H2001 C2009 0.930 . S
H2002 C2010 0.930 . S
H2003 C2011 0.930 . S
H2004 C2014 0.930 . S
H2005 C2015 0.930 . S
C2006 H2000 0.930 . S
C2006 C2007 1.355 . S
C2006 C2008 1.415 . S
C2007 C2006 1.355 . S
C2007 C2009 1.419 . S
C2008 C2006 1.415 . S
C2008 C2013 1.425 . S
C2008 C2015 1.409 . S
C2009 H2001 0.930 . S
C2009 C2007 1.419 . S
C2009 C2010 1.362 . S
C2010 H2002 0.930 . S
C2010 C2009 1.362 . S
C2010 C2013 1.409 . S
C2011 H2003 0.930 . S
C2011 C2012 1.355 . S
C2011 C2013 1.415 . S
C2012 C2011 1.355 . S
C2012 C2014 1.419 . S
C2013 C2008 1.425 . S
C2013 C2010 1.409 . S
C2013 C2011 1.415 . S
C2014 H2004 0.930 . S
C2014 C2012 1.419 . S
C2014 C2015 1.362 . S
C2015 H2005 0.930 . S
C2015 C2008 1.409 . S
C2015 C2014 1.362 . S
H2016 C2022 0.930 . S
H2017 C2025 0.930 . S
H2018 C2026 0.930 . S
H2019 C2027 0.930 . S
H2020 C2030 0.930 . S
H2021 C2031 0.930 . S
C2022 H2016 0.930 . S
C2022 C2023 1.355 . S
C2022 C2024 1.415 . S
C2023 C2022 1.355 . S
C2023 C2025 1.419 . S
C2024 C2022 1.415 . S
C2024 C2029 1.425 . S
C2024 C2031 1.409 . S
C2025 H2017 0.930 . S
C2025 C2023 1.419 . S
C2025 C2026 1.362 . S
C2026 H2018 0.930 . S
C2026 C2025 1.362 . S
C2026 C2029 1.409 . S
C2027 H2019 0.930 . S
C2027 C2028 1.355 . S
C2027 C2029 1.415 . S
C2028 C2027 1.355 . S
C2028 C2030 1.419 . S
C2029 C2024 1.425 . S
C2029 C2026 1.409 . S
C2029 C2027 1.415 . S
C2030 H2020 0.930 . S
C2030 C2028 1.419 . S
C2030 C2031 1.362 . S
C2031 H2021 0.930 . S
C2031 C2024 1.409 . S
C2031 C2030 1.362 . S
H2032 C2038 0.930 . S
H2033 C2041 0.930 . S
H2034 C2042 0.927 1_545 S
H2035 C2043 0.930 . S
H2036 C2046 0.930 . S
H2037 C2047 0.930 . S
C2038 H2032 0.930 . S
C2038 C2039 1.355 . S
C2038 C2040 1.415 1_565 S
C2039 C2038 1.355 . S
C2039 C2041 1.419 . S
C2040 C2038 1.415 1_545 S
C2040 C2045 1.425 . S
C2040 C2047 1.409 . S
C2041 H2033 0.930 . S
C2041 C2039 1.419 . S
C2041 C2042 1.377 . S
C2042 H2034 0.927 1_565 S
C2042 C2041 1.377 . S
C2042 C2045 1.398 1_565 S
C2043 H2035 0.930 . S
C2043 C2044 1.355 . S
C2043 C2045 1.415 . S
C2044 C2043 1.355 . S
C2044 C2046 1.419 . S
C2045 C2040 1.425 . S
C2045 C2042 1.398 1_545 S
C2045 C2043 1.415 . S
C2046 H2036 0.930 . S
C2046 C2044 1.419 . S
C2046 C2047 1.362 . S
C2047 H2037 0.930 . S
C2047 C2040 1.409 . S
C2047 C2046 1.362 . S
H2048 C2054 0.930 . S
H2049 C2057 0.930 . S
H2050 C2058 0.930 . S
H2051 C2059 0.930 . S
H2052 C2062 0.930 . S
H2053 C2063 0.930 . S
C2054 H2048 0.930 . S
C2054 C2055 1.355 . S
C2054 C2056 1.415 . S
C2055 C2054 1.355 . S
C2055 C2057 1.419 . S
C2056 C2054 1.415 . S
C2056 C2061 1.425 . S
C2056 C2063 1.409 . S
C2057 H2049 0.930 . S
C2057 C2055 1.419 . S
C2057 C2058 1.362 . S
C2058 H2050 0.930 . S
C2058 C2057 1.362 . S
C2058 C2061 1.409 . S
C2059 H2051 0.930 . S
C2059 C2060 1.355 . S
C2059 C2061 1.415 . S
C2060 C2059 1.355 . S
C2060 C2062 1.419 . S
C2061 C2056 1.425 . S
C2061 C2058 1.409 . S
C2061 C2059 1.415 . S
C2062 H2052 0.930 . S
C2062 C2060 1.419 . S
C2062 C2063 1.362 . S
C2063 H2053 0.930 . S
C2063 C2056 1.409 . S
C2063 C2062 1.362 . S
H2064 C2070 0.930 . S
H2065 C2073 0.930 . S
H2066 C2074 0.930 . S
H2067 C2075 0.930 . S
H2068 C2078 0.930 . S
H2069 C2079 0.932 1_455 S
C2070 H2064 0.930 . S
C2070 C2071 1.355 . S
C2070 C2072 1.415 . S
C2071 C2070 1.355 . S
C2071 C2073 1.419 . S
C2072 C2070 1.415 . S
C2072 C2077 1.425 . S
C2072 C2079 1.413 1_455 S
C2073 H2065 0.930 . S
C2073 C2071 1.419 . S
C2073 C2074 1.362 . S
C2074 H2066 0.930 . S
C2074 C2073 1.362 . S
C2074 C2077 1.409 . S
C2075 H2067 0.930 . S
C2075 C2076 1.355 . S
C2075 C2077 1.415 1_655 S
C2076 C2075 1.355 . S
C2076 C2078 1.419 . S
C2077 C2072 1.425 . S
C2077 C2074 1.409 . S
C2077 C2075 1.415 1_455 S
C2078 H2068 0.930 . S
C2078 C2076 1.419 . S
C2078 C2079 1.357 . S
C2079 H2069 0.932 1_655 S
C2079 C2072 1.413 1_655 S
C2079 C2078 1.357 . S
H2080 C2086 0.930 . S
H2081 C2089 0.930 . S
H2082 C2090 0.930 . S
H2083 C2091 0.930 . S
H2084 C2094 0.930 . S
H2085 C2095 0.926 1_545 S
C2086 H2080 0.930 . S
C2086 C2087 1.355 . S
C2086 C2088 1.415 . S
C2087 C2086 1.355 . S
C2087 C2089 1.419 . S
C2088 C2086 1.415 . S
C2088 C2093 1.425 . S
C2088 C2095 1.409 1_545 S
C2089 H2081 0.930 . S
C2089 C2087 1.419 . S
C2089 C2090 1.362 . S
C2090 H2082 0.930 . S
C2090 C2089 1.362 . S
C2090 C2093 1.409 . S
C2091 H2083 0.930 . S
C2091 C2092 1.355 . S
C2091 C2093 1.415 1_565 S
C2092 C2091 1.355 . S
C2092 C2094 1.419 . S
C2093 C2088 1.425 . S
C2093 C2090 1.409 . S
C2093 C2091 1.415 1_545 S
C2094 H2084 0.930 . S
C2094 C2092 1.419 . S
C2094 C2095 1.362 . S
C2095 H2085 0.926 1_565 S
C2095 C2088 1.409 1_565 S
C2095 C2094 1.362 . S
H2096 C2102 0.930 . S
H2097 C2105 0.930 . S
H2098 C2106 0.930 . S
H2099 C2107 0.930 . S
H2100 C2110 0.930 . S
H2101 C2111 0.930 . S
C2102 H2096 0.930 . S
C2102 C2103 1.355 . S
C2102 C2104 1.415 . S
C2103 C2102 1.355 . S
C2103 C2105 1.419 . S
C2104 C2102 1.415 . S
C2104 C2109 1.425 . S
C2104 C2111 1.409 . S
C2105 H2097 0.930 . S
C2105 C2103 1.419 . S
C2105 C2106 1.362 . S
C2106 H2098 0.930 . S
C2106 C2105 1.362 . S
C2106 C2109 1.409 . S
C2107 H2099 0.930 . S
C2107 C2108 1.355 . S
C2107 C2109 1.415 . S
C2108 C2107 1.355 . S
C2108 C2110 1.419 . S
C2109 C2104 1.425 . S
C2109 C2106 1.409 . S
C2109 C2107 1.415 . S
C2110 H2100 0.930 . S
C2110 C2108 1.419 . S
C2110 C2111 1.362 . S
C2111 H2101 0.930 . S
C2111 C2104 1.409 . S
C2111 C2110 1.362 . S
H2112 C2118 0.930 . S
H2113 C2121 0.930 . S
H2114 C2122 0.930 . S
H2115 C2123 0.930 . S
H2116 C2126 0.930 . S
H2117 C2127 0.930 . S
C2118 H2112 0.930 . S
C2118 C2119 1.355 . S
C2118 C2120 1.415 . S
C2119 C2118 1.355 . S
C2119 C2121 1.419 . S
C2120 C2118 1.415 . S
C2120 C2125 1.425 . S
C2120 C2127 1.409 . S
C2121 H2113 0.930 . S
C2121 C2119 1.419 . S
C2121 C2122 1.362 . S
C2122 H2114 0.930 . S
C2122 C2121 1.362 . S
C2122 C2125 1.409 . S
C2123 H2115 0.930 . S
C2123 C2124 1.355 . S
C2123 C2125 1.415 . S
C2124 C2123 1.355 . S
C2124 C2126 1.419 . S
C2125 C2120 1.425 . S
C2125 C2122 1.409 . S
C2125 C2123 1.415 . S
C2126 H2116 0.930 . S
C2126 C2124 1.419 . S
C2126 C2127 1.362 . S
C2127 H2117 0.930 . S
C2127 C2120 1.409 . S
C2127 C2126 1.362 . S
H2128 C2134 0.930 . S
H2129 C2137 0.930 . S
H2130 C2138 0.930 . S
H2131 C2139 0.930 . S
H2132 C2142 0.930 . S
H2133 C2143 0.938 . S
C2134 H2128 0.930 . S
C2134 C2135 1.355 . S
C2134 C2136 1.415 . S
C2135 C2134 1.355 . S
C2135 C2137 1.419 . S
C2136 C2134 1.415 . S
C2136 C2141 1.425 . S
C2136 C2143 1.409 1_455 S
C2137 H2129 0.930 . S
C2137 C2135 1.419 . S
C2137 C2138 1.362 . S
C2138 H2130 0.930 . S
C2138 C2137 1.362 . S
C2138 C2141 1.409 . S
C2139 H2131 0.930 . S
C2139 C2140 1.355 . S
C2139 C2141 1.415 1_655 S
C2140 C2139 1.355 . S
C2140 C2142 1.419 . S
C2141 C2136 1.425 . S
C2141 C2138 1.409 . S
C2141 C2139 1.415 1_455 S
C2142 H2132 0.930 . S
C2142 C2140 1.419 . S
C2142 C2143 1.362 . S
C2143 H2133 0.938 . S
C2143 C2136 1.409 1_655 S
C2143 C2142 1.362 . S
H2144 C2150 0.930 . S
H2145 C2153 0.930 . S
H2146 C2154 0.930 . S
H2147 C2155 0.930 . S
H2148 C2158 0.930 . S
H2149 C2159 0.930 . S
C2150 H2144 0.930 . S
C2150 C2151 1.355 . S
C2150 C2152 1.415 . S
C2151 C2150 1.355 . S
C2151 C2153 1.419 . S
C2152 C2150 1.415 . S
C2152 C2157 1.425 . S
C2152 C2159 1.409 . S
C2153 H2145 0.930 . S
C2153 C2151 1.419 . S
C2153 C2154 1.362 . S
C2154 H2146 0.930 . S
C2154 C2153 1.362 . S
C2154 C2157 1.409 . S
C2155 H2147 0.930 . S
C2155 C2156 1.355 . S
C2155 C2157 1.415 . S
C2156 C2155 1.355 . S
C2156 C2158 1.419 . S
C2157 C2152 1.425 . S
C2157 C2154 1.409 . S
C2157 C2155 1.415 . S
C2158 H2148 0.930 . S
C2158 C2156 1.419 . S
C2158 C2159 1.362 . S
C2159 H2149 0.930 . S
C2159 C2152 1.409 . S
C2159 C2158 1.362 . S
H2160 C2166 0.930 . S
H2161 C2169 0.930 . S
H2162 C2170 0.930 . S
H2163 C2171 0.930 . S
H2164 C2174 0.930 . S
H2165 C2175 0.930 . S
C2166 H2160 0.930 . S
C2166 C2167 1.355 . S
C2166 C2168 1.415 1_554 S
C2167 C2166 1.355 . S
C2167 C2169 1.419 . S
C2168 C2166 1.415 1_556 S
C2168 C2173 1.425 . S
C2168 C2175 1.409 . S
C2169 H2161 0.930 . S
C2169 C2167 1.419 . S
C2169 C2170 1.362 . S
C2170 H2162 0.930 . S
C2170 C2169 1.362 . S
C2170 C2173 1.409 1_554 S
C2171 H2163 0.930 . S
C2171 C2172 1.355 . S
C2171 C2173 1.415 . S
C2172 C2171 1.355 . S
C2172 C2174 1.419 . S
C2173 C2168 1.425 . S
C2173 C2170 1.409 1_556 S
C2173 C2171 1.415 . S
C2174 H2164 0.930 . S
C2174 C2172 1.419 . S
C2174 C2175 1.362 . S
C2175 H2165 0.930 . S
C2175 C2168 1.409 . S
C2175 C2174 1.362 . S
H2176 C2182 0.930 . S
H2177 C2185 0.930 . S
H2178 C2186 0.930 . S
H2179 C2187 0.930 . S
H2180 C2190 0.930 . S
H2181 C2191 0.930 . S
C2182 H2176 0.930 . S
C2182 C2183 1.355 . S
C2182 C2184 1.415 1_554 S
C2183 C2182 1.355 . S
C2183 C2185 1.419 . S
C2184 C2182 1.415 1_556 S
C2184 C2189 1.425 . S
C2184 C2191 1.409 . S
C2185 H2177 0.930 . S
C2185 C2183 1.419 . S
C2185 C2186 1.362 1_554 S
C2186 H2178 0.930 . S
C2186 C2185 1.362 1_556 S
C2186 C2189 1.409 . S
C2187 H2179 0.930 . S
C2187 C2188 1.355 . S
C2187 C2189 1.415 . S
C2188 C2187 1.355 . S
C2188 C2190 1.419 . S
C2189 C2184 1.425 . S
C2189 C2186 1.409 . S
C2189 C2187 1.415 . S
C2190 H2180 0.930 . S
C2190 C2188 1.419 . S
C2190 C2191 1.362 . S
C2191 H2181 0.930 . S
C2191 C2184 1.409 . S
C2191 C2190 1.362 . S
H2192 C2198 0.930 . S
H2193 C2201 0.930 . S
H2194 C2202 0.930 . S
H2195 C2203 0.930 . S
H2196 C2206 0.930 . S
H2197 C2207 0.930 . S
C2198 H2192 0.930 . S
C2198 C2199 1.355 . S
C2198 C2200 1.415 1_554 S
C2199 C2198 1.355 . S
C2199 C2201 1.419 . S
C2200 C2198 1.415 1_556 S
C2200 C2205 1.425 . S
C2200 C2207 1.409 . S
C2201 H2193 0.930 . S
C2201 C2199 1.419 . S
C2201 C2202 1.362 1_554 S
C2202 H2194 0.930 . S
C2202 C2201 1.362 1_556 S
C2202 C2205 1.409 . S
C2203 H2195 0.930 . S
C2203 C2204 1.355 . S
C2203 C2205 1.415 . S
C2204 C2203 1.355 . S
C2204 C2206 1.419 . S
C2205 C2200 1.425 . S
C2205 C2202 1.409 . S
C2205 C2203 1.415 . S
C2206 H2196 0.930 . S
C2206 C2204 1.419 . S
C2206 C2207 1.362 . S
C2207 H2197 0.930 . S
C2207 C2200 1.409 . S
C2207 C2206 1.362 . S
H2208 C2214 0.930 . S
H2209 C2217 0.930 . S
H2210 C2218 0.930 . S
H2211 C2219 0.930 . S
H2212 C2222 0.930 . S
H2213 C2223 0.930 . S
C2214 H2208 0.930 . S
C2214 C2215 1.355 . S
C2214 C2216 1.415 . S
C2215 C2214 1.355 . S
C2215 C2217 1.419 . S
C2216 C2214 1.415 . S
C2216 C2221 1.425 . S
C2216 C2223 1.409 . S
C2217 H2209 0.930 . S
C2217 C2215 1.419 . S
C2217 C2218 1.362 . S
C2218 H2210 0.930 . S
C2218 C2217 1.362 . S
C2218 C2221 1.409 . S
C2219 H2211 0.930 . S
C2219 C2220 1.355 . S
C2219 C2221 1.415 1_554 S
C2220 C2219 1.355 . S
C2220 C2222 1.419 . S
C2221 C2216 1.425 . S
C2221 C2218 1.409 . S
C2221 C2219 1.415 1_556 S
C2222 H2212 0.930 . S
C2222 C2220 1.419 . S
C2222 C2223 1.362 1_554 S
C2223 H2213 0.930 . S
C2223 C2216 1.409 . S
C2223 C2222 1.362 1_556 S
H2224 C2230 0.930 . S
H2225 C2233 0.930 . S
H2226 C2234 0.930 . S
H2227 C2235 0.930 . S
H2228 C2238 0.930 . S
H2229 C2239 0.930 . S
C2230 H2224 0.930 . S
C2230 C2231 1.355 . S
C2230 C2232 1.415 . S
C2231 C2230 1.355 . S
C2231 C2233 1.419 . S
C2232 C2230 1.415 . S
C2232 C2237 1.425 . S
C2232 C2239 1.409 . S
C2233 H2225 0.930 . S
C2233 C2231 1.419 . S
C2233 C2234 1.362 . S
C2234 H2226 0.930 . S
C2234 C2233 1.362 . S
C2234 C2237 1.409 . S
C2235 H2227 0.930 . S
C2235 C2236 1.355 . S
C2235 C2237 1.415 . S
C2236 C2235 1.355 . S
C2236 C2238 1.419 . S
C2237 C2232 1.425 . S
C2237 C2234 1.409 . S
C2237 C2235 1.415 . S
C2238 H2228 0.930 . S
C2238 C2236 1.419 . S
C2238 C2239 1.362 . S
C2239 H2229 0.930 . S
C2239 C2232 1.409 . S
C2239 C2238 1.362 . S
H2240 C2246 0.930 . S
H2241 C2249 0.930 . S
H2242 C2250 0.930 . S
H2243 C2251 0.930 . S
H2244 C2254 0.930 . S
H2245 C2255 0.930 . S
C2246 H2240 0.930 . S
C2246 C2247 1.355 . S
C2246 C2248 1.415 . S
C2247 C2246 1.355 . S
C2247 C2249 1.419 . S
C2248 C2246 1.415 . S
C2248 C2253 1.425 . S
C2248 C2255 1.409 . S
C2249 H2241 0.930 . S
C2249 C2247 1.419 . S
C2249 C2250 1.362 . S
C2250 H2242 0.930 . S
C2250 C2249 1.362 . S
C2250 C2253 1.409 . S
C2251 H2243 0.930 . S
C2251 C2252 1.355 . S
C2251 C2253 1.415 . S
C2252 C2251 1.355 . S
C2252 C2254 1.419 . S
C2253 C2248 1.425 . S
C2253 C2250 1.409 . S
C2253 C2251 1.415 . S
C2254 H2244 0.930 . S
C2254 C2252 1.419 . S
C2254 C2255 1.362 . S
C2255 H2245 0.930 . S
C2255 C2248 1.409 . S
C2255 C2254 1.362 . S
H2256 C2262 0.930 . S
H2257 C2265 0.930 . S
H2258 C2266 0.930 . S
H2259 C2267 0.930 . S
H2260 C2270 0.930 . S
H2261 C2271 0.930 . S
C2262 H2256 0.930 . S
C2262 C2263 1.355 . S
C2262 C2264 1.415 . S
C2263 C2262 1.355 . S
C2263 C2265 1.419 . S
C2264 C2262 1.415 . S
C2264 C2269 1.425 . S
C2264 C2271 1.409 . S
C2265 H2257 0.930 . S
C2265 C2263 1.419 . S
C2265 C2266 1.362 . S
C2266 H2258 0.930 . S
C2266 C2265 1.362 . S
C2266 C2269 1.409 . S
C2267 H2259 0.930 . S
C2267 C2268 1.355 . S
C2267 C2269 1.415 . S
C2268 C2267 1.355 . S
C2268 C2270 1.419 . S
C2269 C2264 1.425 . S
C2269 C2266 1.409 . S
C2269 C2267 1.415 . S
C2270 H2260 0.930 . S
C2270 C2268 1.419 . S
C2270 C2271 1.362 . S
C2271 H2261 0.930 . S
C2271 C2264 1.409 . S
C2271 C2270 1.362 . S
H2272 C2278 0.930 . S
H2273 C2281 0.930 . S
H2274 C2282 0.930 . S
H2275 C2283 0.930 . S
H2276 C2286 0.930 . S
H2277 C2287 0.930 . S
C2278 H2272 0.930 . S
C2278 C2279 1.355 . S
C2278 C2280 1.415 . S
C2279 C2278 1.355 . S
C2279 C2281 1.419 . S
C2280 C2278 1.415 . S
C2280 C2285 1.425 . S
C2280 C2287 1.409 . S
C2281 H2273 0.930 . S
C2281 C2279 1.419 . S
C2281 C2282 1.362 . S
C2282 H2274 0.930 . S
C2282 C2281 1.362 . S
C2282 C2285 1.409 . S
C2283 H2275 0.930 . S
C2283 C2284 1.355 . S
C2283 C2285 1.415 . S
C2284 C2283 1.355 . S
C2284 C2286 1.419 . S
C2285 C2280 1.425 . S
C2285 C2282 1.409 . S
C2285 C2283 1.415 . S
C2286 H2276 0.930 . S
C2286 C2284 1.419 . S
C2286 C2287 1.362 . S
C2287 H2277 0.930 . S
C2287 C2280 1.409 . S
C2287 C2286 1.362 . S
H2288 C2294 0.930 . S
H2289 C2297 0.930 . S
H2290 C2298 0.930 . S
H2291 C2299 0.930 . S
H2292 C2302 0.930 . S
H2293 C2303 0.938 . S
C2294 H2288 0.930 . S
C2294 C2295 1.355 . S
C2294 C2296 1.415 . S
C2295 C2294 1.355 . S
C2295 C2297 1.419 . S
C2296 C2294 1.415 . S
C2296 C2301 1.425 . S
C2296 C2303 1.409 1_655 S
C2297 H2289 0.930 . S
C2297 C2295 1.419 . S
C2297 C2298 1.362 . S
C2298 H2290 0.930 . S
C2298 C2297 1.362 . S
C2298 C2301 1.409 . S
C2299 H2291 0.930 . S
C2299 C2300 1.355 . S
C2299 C2301 1.415 1_455 S
C2300 C2299 1.355 . S
C2300 C2302 1.419 . S
C2301 C2296 1.425 . S
C2301 C2298 1.409 . S
C2301 C2299 1.415 1_655 S
C2302 H2292 0.930 . S
C2302 C2300 1.419 . S
C2302 C2303 1.362 . S
C2303 H2293 0.938 . S
C2303 C2296 1.409 1_455 S
C2303 C2302 1.362 . S
H2304 C2310 0.930 . S
H2305 C2313 0.930 . S
H2306 C2314 0.931 . S
H2307 C2315 0.930 . S
H2308 C2318 0.930 . S
H2309 C2319 0.930 . S
C2310 H2304 0.930 . S
C2310 C2311 1.355 . S
C2310 C2312 1.415 1_545 S
C2311 C2310 1.355 . S
C2311 C2313 1.419 . S
C2312 C2310 1.415 1_565 S
C2312 C2317 1.425 . S
C2312 C2319 1.409 . S
C2313 H2305 0.930 . S
C2313 C2311 1.419 . S
C2313 C2314 1.358 1_545 S
C2314 H2306 0.931 . S
C2314 C2313 1.358 1_565 S
C2314 C2317 1.412 . S
C2315 H2307 0.930 . S
C2315 C2316 1.355 . S
C2315 C2317 1.415 . S
C2316 C2315 1.355 . S
C2316 C2318 1.419 . S
C2317 C2312 1.425 . S
C2317 C2314 1.412 . S
C2317 C2315 1.415 . S
C2318 H2308 0.930 . S
C2318 C2316 1.419 . S
C2318 C2319 1.362 . S
C2319 H2309 0.930 . S
C2319 C2312 1.409 . S
C2319 C2318 1.362 . S
H2320 C2326 0.930 . S
H2321 C2329 0.930 . S
H2322 C2330 0.930 . S
H2323 C2331 0.930 . S
H2324 C2334 0.930 . S
H2325 C2335 0.930 . S
C2326 H2320 0.930 . S
C2326 C2327 1.355 . S
C2326 C2328 1.415 . S
C2327 C2326 1.355 . S
C2327 C2329 1.419 . S
C2328 C2326 1.415 . S
C2328 C2333 1.425 . S
C2328 C2335 1.409 . S
C2329 H2321 0.930 . S
C2329 C2327 1.419 . S
C2329 C2330 1.362 . S
C2330 H2322 0.930 . S
C2330 C2329 1.362 . S
C2330 C2333 1.409 . S
C2331 H2323 0.930 . S
C2331 C2332 1.355 . S
C2331 C2333 1.415 . S
C2332 C2331 1.355 . S
C2332 C2334 1.419 . S
C2333 C2328 1.425 . S
C2333 C2330 1.409 . S
C2333 C2331 1.415 . S
C2334 H2324 0.930 . S
C2334 C2332 1.419 . S
C2334 C2335 1.362 . S
C2335 H2325 0.930 . S
C2335 C2328 1.409 . S
C2335 C2334 1.362 . S
H2336 C2342 0.930 . S
H2337 C2345 0.930 . S
H2338 C2346 0.930 . S
H2339 C2347 0.930 . S
H2340 C2350 0.930 . S
H2341 C2351 0.930 . S
C2342 H2336 0.930 . S
C2342 C2343 1.355 . S
C2342 C2344 1.415 . S
C2343 C2342 1.355 . S
C2343 C2345 1.419 . S
C2344 C2342 1.415 . S
C2344 C2349 1.425 . S
C2344 C2351 1.409 . S
C2345 H2337 0.930 . S
C2345 C2343 1.419 . S
C2345 C2346 1.362 . S
C2346 H2338 0.930 . S
C2346 C2345 1.362 . S
C2346 C2349 1.409 . S
C2347 H2339 0.930 . S
C2347 C2348 1.355 . S
C2347 C2349 1.415 . S
C2348 C2347 1.355 . S
C2348 C2350 1.419 . S
C2349 C2344 1.425 . S
C2349 C2346 1.409 . S
C2349 C2347 1.415 . S
C2350 H2340 0.930 . S
C2350 C2348 1.419 . S
C2350 C2351 1.362 . S
C2351 H2341 0.930 . S
C2351 C2344 1.409 . S
C2351 C2350 1.362 . S
H2352 C2358 0.930 . S
H2353 C2361 0.930 . S
H2354 C2362 0.930 . S
H2355 C2363 0.930 . S
H2356 C2366 0.930 . S
H2357 C2367 0.930 . S
C2358 H2352 0.930 . S
C2358 C2359 1.355 . S
C2358 C2360 1.415 1_455 S
C2359 C2358 1.355 . S
C2359 C2361 1.419 . S
C2360 C2358 1.415 1_655 S
C2360 C2365 1.425 . S
C2360 C2367 1.409 . S
C2361 H2353 0.930 . S
C2361 C2359 1.419 . S
C2361 C2362 1.362 1_455 S
C2362 H2354 0.930 . S
C2362 C2361 1.362 1_655 S
C2362 C2365 1.409 . S
C2363 H2355 0.930 . S
C2363 C2364 1.355 . S
C2363 C2365 1.415 . S
C2364 C2363 1.355 . S
C2364 C2366 1.419 . S
C2365 C2360 1.425 . S
C2365 C2362 1.409 . S
C2365 C2363 1.415 . S
C2366 H2356 0.930 . S
C2366 C2364 1.419 . S
C2366 C2367 1.362 . S
C2367 H2357 0.930 . S
C2367 C2360 1.409 . S
C2367 C2366 1.362 . S
H2368 C2374 0.930 . S
H2369 C2377 0.930 . S
H2370 C2378 0.930 . S
H2371 C2379 0.930 . S
H2372 C2382 0.930 . S
H2373 C2383 0.930 . S
C2374 H2368 0.930 . S
C2374 C2375 1.355 . S
C2374 C2376 1.415 . S
C2375 C2374 1.355 . S
C2375 C2377 1.419 . S
C2376 C2374 1.415 . S
C2376 C2381 1.425 . S
C2376 C2383 1.409 . S
C2377 H2369 0.930 . S
C2377 C2375 1.419 . S
C2377 C2378 1.362 . S
C2378 H2370 0.930 . S
C2378 C2377 1.362 . S
C2378 C2381 1.409 . S
C2379 H2371 0.930 . S
C2379 C2380 1.355 . S
C2379 C2381 1.415 1_545 S
C2380 C2379 1.355 . S
C2380 C2382 1.419 . S
C2381 C2376 1.425 . S
C2381 C2378 1.409 . S
C2381 C2379 1.415 1_565 S
C2382 H2372 0.930 . S
C2382 C2380 1.419 . S
C2382 C2383 1.362 1_545 S
C2383 H2373 0.930 . S
C2383 C2376 1.409 . S
C2383 C2382 1.362 1_565 S
H2384 C2390 0.930 . S
H2385 C2393 0.930 . S
H2386 C2394 0.930 . S
H2387 C2395 0.930 . S
H2388 C2398 0.930 . S
H2389 C2399 0.930 . S
C2390 H2384 0.930 . S
C2390 C2391 1.355 . S
C2390 C2392 1.415 . S
C2391 C2390 1.355 . S
C2391 C2393 1.419 . S
C2392 C2390 1.415 . S
C2392 C2397 1.425 . S
C2392 C2399 1.409 . S
C2393 H2385 0.930 . S
C2393 C2391 1.419 . S
C2393 C2394 1.362 . S
C2394 H2386 0.930 . S
C2394 C2393 1.362 . S
C2394 C2397 1.409 . S
C2395 H2387 0.930 . S
C2395 C2396 1.355 . S
C2395 C2397 1.415 . S
C2396 C2395 1.355 . S
C2396 C2398 1.419 . S
C2397 C2392 1.425 . S
C2397 C2394 1.409 . S
C2397 C2395 1.415 . S
C2398 H2388 0.930 . S
C2398 C2396 1.419 . S
C2398 C2399 1.362 . S
C2399 H2389 0.930 . S
C2399 C2392 1.409 . S
C2399 C2398 1.362 . S
H2400 C2406 0.930 . S
H2401 C2409 0.930 . S
H2402 C2410 0.930 . S
H2403 C2411 0.930 . S
H2404 C2414 0.930 . S
H2405 C2415 0.930 . S
C2406 H2400 0.930 . S
C2406 C2407 1.355 . S
C2406 C2408 1.415 . S
C2407 C2406 1.355 . S
C2407 C2409 1.419 . S
C2408 C2406 1.415 . S
C2408 C2413 1.425 . S
C2408 C2415 1.409 . S
C2409 H2401 0.930 . S
C2409 C2407 1.419 . S
C2409 C2410 1.362 . S
C2410 H2402 0.930 . S
C2410 C2409 1.362 . S
C2410 C2413 1.409 . S
C2411 H2403 0.930 . S
C2411 C2412 1.355 . S
C2411 C2413 1.415 . S
C2412 C2411 1.355 . S
C2412 C2414 1.419 . S
C2413 C2408 1.425 . S
C2413 C2410 1.409 . S
C2413 C2411 1.415 . S
C2414 H2404 0.930 . S
C2414 C2412 1.419 . S
C2414 C2415 1.362 . S
C2415 H2405 0.930 . S
C2415 C2408 1.409 . S
C2415 C2414 1.362 . S
H2416 C2422 0.930 . S
H2417 C2425 0.930 . S
H2418 C2426 0.930 . S
H2419 C2427 0.930 . S
H2420 C2430 0.930 . S
H2421 C2431 0.930 . S
C2422 H2416 0.930 . S
C2422 C2423 1.355 . S
C2422 C2424 1.415 . S
C2423 C2422 1.355 . S
C2423 C2425 1.419 . S
C2424 C2422 1.415 . S
C2424 C2429 1.425 . S
C2424 C2431 1.409 . S
C2425 H2417 0.930 . S
C2425 C2423 1.419 . S
C2425 C2426 1.362 . S
C2426 H2418 0.930 . S
C2426 C2425 1.362 . S
C2426 C2429 1.409 . S
C2427 H2419 0.930 . S
C2427 C2428 1.355 . S
C2427 C2429 1.415 1_545 S
C2428 C2427 1.355 . S
C2428 C2430 1.419 . S
C2429 C2424 1.425 . S
C2429 C2426 1.409 . S
C2429 C2427 1.415 1_565 S
C2430 H2420 0.930 . S
C2430 C2428 1.419 . S
C2430 C2431 1.362 1_545 S
C2431 H2421 0.930 . S
C2431 C2424 1.409 . S
C2431 C2430 1.362 1_565 S
H2432 C2438 0.930 . S
H2433 C2441 0.930 . S
H2434 C2442 0.930 . S
H2435 C2443 0.930 . S
H2436 C2446 0.930 . S
H2437 C2447 0.930 . S
C2438 H2432 0.930 . S
C2438 C2439 1.355 . S
C2438 C2440 1.415 . S
C2439 C2438 1.355 . S
C2439 C2441 1.419 . S
C2440 C2438 1.415 . S
C2440 C2445 1.425 . S
C2440 C2447 1.409 . S
C2441 H2433 0.930 . S
C2441 C2439 1.419 . S
C2441 C2442 1.362 . S
C2442 H2434 0.930 . S
C2442 C2441 1.362 . S
C2442 C2445 1.409 . S
C2443 H2435 0.930 . S
C2443 C2444 1.355 . S
C2443 C2445 1.415 . S
C2444 C2443 1.355 . S
C2444 C2446 1.419 . S
C2445 C2440 1.425 . S
C2445 C2442 1.409 . S
C2445 C2443 1.415 . S
C2446 H2436 0.930 . S
C2446 C2444 1.419 . S
C2446 C2447 1.362 . S
C2447 H2437 0.930 . S
C2447 C2440 1.409 . S
C2447 C2446 1.362 . S
H2448 C2454 0.930 . S
H2449 C2457 0.930 . S
H2450 C2458 0.930 . S
H2451 C2459 0.930 . S
H2452 C2462 0.930 . S
H2453 C2463 0.930 . S
C2454 H2448 0.930 . S
C2454 C2455 1.355 . S
C2454 C2456 1.415 . S
C2455 C2454 1.355 . S
C2455 C2457 1.419 . S
C2456 C2454 1.415 . S
C2456 C2461 1.425 . S
C2456 C2463 1.409 . S
C2457 H2449 0.930 . S
C2457 C2455 1.419 . S
C2457 C2458 1.362 . S
C2458 H2450 0.930 . S
C2458 C2457 1.362 . S
C2458 C2461 1.409 . S
C2459 H2451 0.930 . S
C2459 C2460 1.355 . S
C2459 C2461 1.415 1_455 S
C2460 C2459 1.355 . S
C2460 C2462 1.419 . S
C2461 C2456 1.425 . S
C2461 C2458 1.409 . S
C2461 C2459 1.415 1_655 S
C2462 H2452 0.930 . S
C2462 C2460 1.419 . S
C2462 C2463 1.362 1_455 S
C2463 H2453 0.930 . S
C2463 C2456 1.409 . S
C2463 C2462 1.362 1_655 S
H2464 C2470 0.930 . S
H2465 C2473 0.930 . S
H2466 C2474 0.930 . S
H2467 C2475 0.930 . S
H2468 C2478 0.930 . S
H2469 C2479 0.930 . S
C2470 H2464 0.930 . S
C2470 C2471 1.355 . S
C2470 C2472 1.415 1_545 S
C2471 C2470 1.355 . S
C2471 C2473 1.419 . S
C2472 C2470 1.415 1_565 S
C2472 C2477 1.425 . S
C2472 C2479 1.409 . S
C2473 H2465 0.930 . S
C2473 C2471 1.419 . S
C2473 C2474 1.362 1_545 S
C2474 H2466 0.930 . S
C2474 C2473 1.362 1_565 S
C2474 C2477 1.409 . S
C2475 H2467 0.930 . S
C2475 C2476 1.355 . S
C2475 C2477 1.415 . S
C2476 C2475 1.355 . S
C2476 C2478 1.419 . S
C2477 C2472 1.425 . S
C2477 C2474 1.409 . S
C2477 C2475 1.415 . S
C2478 H2468 0.930 . S
C2478 C2476 1.419 . S
C2478 C2479 1.362 . S
C2479 H2469 0.930 . S
C2479 C2472 1.409 . S
C2479 C2478 1.362 . S
H2480 C2486 0.930 . S
H2481 C2489 0.930 . S
H2482 C2490 0.930 . S
H2483 C2491 0.930 . S
H2484 C2494 0.930 . S
H2485 C2495 0.930 . S
C2486 H2480 0.930 . S
C2486 C2487 1.355 . S
C2486 C2488 1.415 . S
C2487 C2486 1.355 . S
C2487 C2489 1.419 . S
C2488 C2486 1.415 . S
C2488 C2493 1.425 . S
C2488 C2495 1.409 . S
C2489 H2481 0.930 . S
C2489 C2487 1.419 . S
C2489 C2490 1.362 . S
C2490 H2482 0.930 . S
C2490 C2489 1.362 . S
C2490 C2493 1.409 . S
C2491 H2483 0.930 . S
C2491 C2492 1.355 . S
C2491 C2493 1.415 . S
C2492 C2491 1.355 . S
C2492 C2494 1.419 . S
C2493 C2488 1.425 . S
C2493 C2490 1.409 . S
C2493 C2491 1.415 . S
C2494 H2484 0.930 . S
C2494 C2492 1.419 . S
C2494 C2495 1.362 . S
C2495 H2485 0.930 . S
C2495 C2488 1.409 . S
C2495 C2494 1.362 . S
H2496 C2502 0.930 . S
H2497 C2505 0.930 . S
H2498 C2506 0.930 . S
H2499 C2507 0.930 . S
H2500 C2510 0.930 . S
H2501 C2511 0.930 . S
C2502 H2496 0.930 . S
C2502 C2503 1.355 . S
C2502 C2504 1.415 . S
C2503 C2502 1.355 . S
C2503 C2505 1.419 . S
C2504 C2502 1.415 . S
C2504 C2509 1.425 . S
C2504 C2511 1.409 . S
C2505 H2497 0.930 . S
C2505 C2503 1.419 . S
C2505 C2506 1.362 . S
C2506 H2498 0.930 . S
C2506 C2505 1.362 . S
C2506 C2509 1.409 . S
C2507 H2499 0.930 . S
C2507 C2508 1.355 . S
C2507 C2509 1.415 . S
C2508 C2507 1.355 . S
C2508 C2510 1.419 . S
C2509 C2504 1.425 . S
C2509 C2506 1.409 . S
C2509 C2507 1.415 . S
C2510 H2500 0.930 . S
C2510 C2508 1.419 . S
C2510 C2511 1.362 . S
C2511 H2501 0.930 . S
C2511 C2504 1.409 . S
C2511 C2510 1.362 . S
H2512 C2518 0.930 . S
H2513 C2521 0.930 . S
H2514 C2522 0.930 1_655 S
H2515 C2523 0.930 . S
H2516 C2526 0.930 . S
H2517 C2527 0.930 . S
C2518 H2512 0.930 . S
C2518 C2519 1.355 . S
C2518 C2520 1.415 1_455 S
C2519 C2518 1.355 . S
C2519 C2521 1.419 . S
C2520 C2518 1.415 1_655 S
C2520 C2525 1.425 . S
C2520 C2527 1.409 . S
C2521 H2513 0.930 . S
C2521 C2519 1.419 . S
C2521 C2522 1.362 . S
C2522 H2514 0.930 1_455 S
C2522 C2521 1.362 . S
C2522 C2525 1.409 1_455 S
C2523 H2515 0.930 . S
C2523 C2524 1.355 . S
C2523 C2525 1.415 . S
C2524 C2523 1.355 . S
C2524 C2526 1.419 . S
C2525 C2520 1.425 . S
C2525 C2522 1.409 1_655 S
C2525 C2523 1.415 . S
C2526 H2516 0.930 . S
C2526 C2524 1.419 . S
C2526 C2527 1.362 . S
C2527 H2517 0.930 . S
C2527 C2520 1.409 . S
C2527 C2526 1.362 . S
H2528 C2534 0.930 . S
H2529 C2537 0.930 . S
H2530 C2538 0.930 . S
H2531 C2539 0.930 . S
H2532 C2542 0.930 . S
H2533 C2543 0.930 . S
C2534 H2528 0.930 . S
C2534 C2535 1.355 . S
C2534 C2536 1.415 . S
C2535 C2534 1.355 . S
C2535 C2537 1.419 . S
C2536 C2534 1.415 . S
C2536 C2541 1.425 . S
C2536 C2543 1.409 . S
C2537 H2529 0.930 . S
C2537 C2535 1.419 . S
C2537 C2538 1.362 . S
C2538 H2530 0.930 . S
C2538 C2537 1.362 . S
C2538 C2541 1.409 . S
C2539 H2531 0.930 . S
C2539 C2540 1.355 . S
C2539 C2541 1.415 . S
C2540 C2539 1.355 . S
C2540 C2542 1.419 . S
C2541 C2536 1.425 . S
C2541 C2538 1.409 . S
C2541 C2539 1.415 . S
C2542 H2532 0.930 . S
C2542 C2540 1.419 . S
C2542 C2543 1.362 . S
C2543 H2533 0.930 . S
C2543 C2536 1.409 . S
C2543 C2542 1.362 . S
H2544 C2550 0.930 . S
H2545 C2553 0.930 . S
H2546 C2554 0.930 . S
H2547 C2555 0.930 . S
H2548 C2558 0.930 . S
H2549 C2559 0.930 . S
C2550 H2544 0.930 . S
C2550 C2551 1.355 . S
C2550 C2552 1.415 . S
C2551 C2550 1.355 . S
C2551 C2553 1.419 . S
C2552 C2550 1.415 . S
C2552 C2557 1.425 . S
C2552 C2559 1.409 . S
C2553 H2545 0.930 . S
C2553 C2551 1.419 . S
C2553 C2554 1.362 . S
C2554 H2546 0.930 . S
C2554 C2553 1.362 . S
C2554 C2557 1.409 . S
C2555 H2547 0.930 . S
C2555 C2556 1.355 . S
C2555 C2557 1.415 . S
C2556 C2555 1.355 . S
C2556 C2558 1.419 . S
C2557 C2552 1.425 . S
C2557 C2554 1.409 . S
C2557 C2555 1.415 . S
C2558 H2548 0.930 . S
C2558 C2556 1.419 . S
C2558 C2559 1.362 . S
C2559 H2549 0.930 . S
C2559 C2552 1.409 . S
C2559 C2558 1.362 . S
H2560 C2566 0.930 . S
H2561 C2569 0.930 . S
H2562 C2570 0.930 . S
H2563 C2571 0.930 . S
H2564 C2574 0.930 . S
H2565 C2575 0.930 . S
C2566 H2560 0.930 . S
C2566 C2567 1.355 . S
C2566 C2568 1.415 . S
C2567 C2566 1.355 . S
C2567 C2569 1.419 . S
C2568 C2566 1.415 . S
C2568 C2573 1.425 . S
C2568 C2575 1.409 . S
C2569 H2561 0.930 . S
C2569 C2567 1.419 . S
C2569 C2570 1.362 . S
C2570 H2562 0.930 . S
C2570 C2569 1.362 . S
C2570 C2573 1.409 . S
C2571 H2563 0.930 . S
C2571 C2572 1.355 . S
C2571 C2573 1.415 . S
C2572 C2571 1.355 . S
C2572 C2574 1.419 . S
C2573 C2568 1.425 . S
C2573 C2570 1.409 . S
C2573 C2571 1.415 . S
C2574 H2564 0.930 . S
C2574 C2572 1.419 . S
C2574 C2575 1.362 . S
C2575 H2565 0.930 . S
C2575 C2568 1.409 . S
C2575 C2574 1.362 . S
H2576 C2582 0.930 . S
H2577 C2585 0.930 . S
H2578 C2586 0.930 . S
H2579 C2587 0.930 . S
H2580 C2590 0.930 . S
H2581 C2591 0.930 . S
C2582 H2576 0.930 . S
C2582 C2583 1.355 . S
C2582 C2584 1.415 . S
C2583 C2582 1.355 . S
C2583 C2585 1.419 . S
C2584 C2582 1.415 . S
C2584 C2589 1.425 . S
C2584 C2591 1.409 . S
C2585 H2577 0.930 . S
C2585 C2583 1.419 . S
C2585 C2586 1.362 . S
C2586 H2578 0.930 . S
C2586 C2585 1.362 . S
C2586 C2589 1.409 . S
C2587 H2579 0.930 . S
C2587 C2588 1.355 . S
C2587 C2589 1.415 . S
C2588 C2587 1.355 . S
C2588 C2590 1.419 . S
C2589 C2584 1.425 . S
C2589 C2586 1.409 . S
C2589 C2587 1.415 . S
C2590 H2580 0.930 . S
C2590 C2588 1.419 . S
C2590 C2591 1.362 . S
C2591 H2581 0.930 . S
C2591 C2584 1.409 . S
C2591 C2590 1.362 . S
H2592 C2598 0.930 . S
H2593 C2601 0.930 . S
H2594 C2602 0.930 . S
H2595 C2603 0.930 . S
H2596 C2606 0.930 . S
H2597 C2607 0.930 . S
C2598 H2592 0.930 . S
C2598 C2599 1.355 . S
C2598 C2600 1.415 . S
C2599 C2598 1.355 . S
C2599 C2601 1.419 . S
C2600 C2598 1.415 . S
C2600 C2605 1.425 . S
C2600 C2607 1.409 . S
C2601 H2593 0.930 . S
C2601 C2599 1.419 . S
C2601 C2602 1.362 . S
C2602 H2594 0.930 . S
C2602 C2601 1.362 . S
C2602 C2605 1.409 . S
C2603 H2595 0.930 . S
C2603 C2604 1.355 . S
C2603 C2605 1.415 . S
C2604 C2603 1.355 . S
C2604 C2606 1.419 . S
C2605 C2600 1.425 . S
C2605 C2602 1.409 . S
C2605 C2603 1.415 . S
C2606 H2596 0.930 . S
C2606 C2604 1.419 . S
C2606 C2607 1.362 . S
C2607 H2597 0.930 . S
C2607 C2600 1.409 . S
C2607 C2606 1.362 . S
H2608 C2614 0.930 . S
H2609 C2617 0.930 . S
H2610 C2618 0.930 . S
H2611 C2619 0.930 . S
H2612 C2622 0.930 . S
H2613 C2623 0.930 . S
C2614 H2608 0.930 . S
C2614 C2615 1.355 . S
C2614 C2616 1.415 . S
C2615 C2614 1.355 . S
C2615 C2617 1.419 . S
C2616 C2614 1.415 . S
C2616 C2621 1.425 . S
C2616 C2623 1.409 . S
C2617 H2609 0.930 . S
C2617 C2615 1.419 . S
C2617 C2618 1.362 . S
C2618 H2610 0.930 . S
C2618 C2617 1.362 . S
C2618 C2621 1.409 . S
C2619 H2611 0.930 . S
C2619 C2620 1.355 . S
C2619 C2621 1.415 . S
C2620 C2619 1.355 . S
C2620 C2622 1.419 . S
C2621 C2616 1.425 . S
C2621 C2618 1.409 . S
C2621 C2619 1.415 . S
C2622 H2612 0.930 . S
C2622 C2620 1.419 . S
C2622 C2623 1.362 . S
C2623 H2613 0.930 . S
C2623 C2616 1.409 . S
C2623 C2622 1.362 . S
H2624 C2630 0.930 . S
H2625 C2633 0.930 . S
H2626 C2634 0.930 . S
H2627 C2635 0.930 . S
H2628 C2638 0.930 . S
H2629 C2639 0.930 . S
C2630 H2624 0.930 . S
C2630 C2631 1.355 . S
C2630 C2632 1.415 . S
C2631 C2630 1.355 . S
C2631 C2633 1.419 . S
C2632 C2630 1.415 . S
C2632 C2637 1.425 . S
C2632 C2639 1.409 . S
C2633 H2625 0.930 . S
C2633 C2631 1.419 . S
C2633 C2634 1.362 . S
C2634 H2626 0.930 . S
C2634 C2633 1.362 . S
C2634 C2637 1.409 . S
C2635 H2627 0.930 . S
C2635 C2636 1.355 . S
C2635 C2637 1.415 . S
C2636 C2635 1.355 . S
C2636 C2638 1.419 . S
C2637 C2632 1.425 . S
C2637 C2634 1.409 . S
C2637 C2635 1.415 . S
C2638 H2628 0.930 . S
C2638 C2636 1.419 . S
C2638 C2639 1.362 . S
C2639 H2629 0.930 . S
C2639 C2632 1.409 . S
C2639 C2638 1.362 . S
H2640 C2646 0.930 . S
H2641 C2649 0.930 . S
H2642 C2650 0.930 . S
H2643 C2651 0.930 . S
H2644 C2654 0.930 . S
H2645 C2655 0.930 . S
C2646 H2640 0.930 . S
C2646 C2647 1.355 . S
C2646 C2648 1.415 . S
C2647 C2646 1.355 . S
C2647 C2649 1.419 . S
C2648 C2646 1.415 . S
C2648 C2653 1.425 . S
C2648 C2655 1.409 . S
C2649 H2641 0.930 . S
C2649 C2647 1.419 . S
C2649 C2650 1.362 . S
C2650 H2642 0.930 . S
C2650 C2649 1.362 . S
C2650 C2653 1.409 . S
C2651 H2643 0.930 . S
C2651 C2652 1.355 . S
C2651 C2653 1.415 . S
C2652 C2651 1.355 . S
C2652 C2654 1.419 . S
C2653 C2648 1.425 . S
C2653 C2650 1.409 . S
C2653 C2651 1.415 . S
C2654 H2644 0.930 . S
C2654 C2652 1.419 . S
C2654 C2655 1.362 . S
C2655 H2645 0.930 . S
C2655 C2648 1.409 . S
C2655 C2654 1.362 . S
H2656 C2662 0.930 . S
H2657 C2665 0.930 . S
H2658 C2666 0.930 . S
H2659 C2667 0.930 . S
H2660 C2670 0.930 . S
H2661 C2671 0.930 . S
C2662 H2656 0.930 . S
C2662 C2663 1.355 . S
C2662 C2664 1.415 . S
C2663 C2662 1.355 . S
C2663 C2665 1.419 . S
C2664 C2662 1.415 . S
C2664 C2669 1.425 . S
C2664 C2671 1.409 . S
C2665 H2657 0.930 . S
C2665 C2663 1.419 . S
C2665 C2666 1.362 . S
C2666 H2658 0.930 . S
C2666 C2665 1.362 . S
C2666 C2669 1.409 . S
C2667 H2659 0.930 . S
C2667 C2668 1.355 . S
C2667 C2669 1.415 . S
C2668 C2667 1.355 . S
C2668 C2670 1.419 . S
C2669 C2664 1.425 . S
C2669 C2666 1.409 . S
C2669 C2667 1.415 . S
C2670 H2660 0.930 . S
C2670 C2668 1.419 . S
C2670 C2671 1.362 . S
C2671 H2661 0.930 . S
C2671 C2664 1.409 . S
C2671 C2670 1.362 . S
H2672 C2678 0.930 . S
H2673 C2681 0.930 . S
H2674 C2682 0.930 . S
H2675 C2683 0.930 . S
H2676 C2686 0.930 . S
H2677 C2687 0.930 . S
C2678 H2672 0.930 . S
C2678 C2679 1.355 . S
C2678 C2680 1.415 . S
C2679 C2678 1.355 . S
C2679 C2681 1.419 . S
C2680 C2678 1.415 . S
C2680 C2685 1.425 . S
C2680 C2687 1.409 . S
C2681 H2673 0.930 . S
C2681 C2679 1.419 . S
C2681 C2682 1.362 . S
C2682 H2674 0.930 . S
C2682 C2681 1.362 . S
C2682 C2685 1.409 . S
C2683 H2675 0.930 . S
C2683 C2684 1.355 . S
C2683 C2685 1.415 . S
C2684 C2683 1.355 . S
C2684 C2686 1.419 . S
C2685 C2680 1.425 . S
C2685 C2682 1.409 . S
C2685 C2683 1.415 . S
C2686 H2676 0.930 . S
C2686 C2684 1.419 . S
C2686 C2687 1.362 . S
C2687 H2677 0.930 . S
C2687 C2680 1.409 . S
C2687 C2686 1.362 . S
H2688 C2694 0.930 . S
H2689 C2697 0.930 . S
H2690 C2698 0.930 . S
H2691 C2699 0.930 . S
H2692 C2702 0.930 . S
H2693 C2703 0.930 . S
C2694 H2688 0.930 . S
C2694 C2695 1.355 . S
C2694 C2696 1.415 . S
C2695 C2694 1.355 . S
C2695 C2697 1.419 . S
C2696 C2694 1.415 . S
C2696 C2701 1.425 . S
C2696 C2703 1.409 . S
C2697 H2689 0.930 . S
C2697 C2695 1.419 . S
C2697 C2698 1.362 . S
C2698 H2690 0.930 . S
C2698 C2697 1.362 . S
C2698 C2701 1.409 . S
C2699 H2691 0.930 . S
C2699 C2700 1.355 . S
C2699 C2701 1.415 . S
C2700 C2699 1.355 . S
C2700 C2702 1.419 . S
C2701 C2696 1.425 . S
C2701 C2698 1.409 . S
C2701 C2699 1.415 . S
C2702 H2692 0.930 . S
C2702 C2700 1.419 . S
C2702 C2703 1.362 . S
C2703 H2693 0.930 . S
C2703 C2696 1.409 . S
C2703 C2702 1.362 . S
H2704 C2710 0.930 . S
H2705 C2713 0.930 . S
H2706 C2714 0.930 . S
H2707 C2715 0.930 . S
H2708 C2718 0.930 . S
H2709 C2719 0.930 . S
C2710 H2704 0.930 . S
C2710 C2711 1.355 . S
C2710 C2712 1.415 . S
C2711 C2710 1.355 . S
C2711 C2713 1.419 . S
C2712 C2710 1.415 . S
C2712 C2717 1.425 . S
C2712 C2719 1.409 . S
C2713 H2705 0.930 . S
C2713 C2711 1.419 . S
C2713 C2714 1.362 . S
C2714 H2706 0.930 . S
C2714 C2713 1.362 . S
C2714 C2717 1.409 . S
C2715 H2707 0.930 . S
C2715 C2716 1.355 . S
C2715 C2717 1.415 . S
C2716 C2715 1.355 . S
C2716 C2718 1.419 . S
C2717 C2712 1.425 . S
C2717 C2714 1.409 . S
C2717 C2715 1.415 . S
C2718 H2708 0.930 . S
C2718 C2716 1.419 . S
C2718 C2719 1.362 . S
C2719 H2709 0.930 . S
C2719 C2712 1.409 . S
C2719 C2718 1.362 . S
H2720 C2726 0.930 . S
H2721 C2729 0.930 . S
H2722 C2730 0.930 . S
H2723 C2731 0.930 . S
H2724 C2734 0.930 . S
H2725 C2735 0.930 . S
C2726 H2720 0.930 . S
C2726 C2727 1.355 . S
C2726 C2728 1.415 . S
C2727 C2726 1.355 . S
C2727 C2729 1.419 . S
C2728 C2726 1.415 . S
C2728 C2733 1.425 . S
C2728 C2735 1.409 . S
C2729 H2721 0.930 . S
C2729 C2727 1.419 . S
C2729 C2730 1.362 . S
C2730 H2722 0.930 . S
C2730 C2729 1.362 . S
C2730 C2733 1.409 . S
C2731 H2723 0.930 . S
C2731 C2732 1.355 . S
C2731 C2733 1.415 . S
C2732 C2731 1.355 . S
C2732 C2734 1.419 . S
C2733 C2728 1.425 . S
C2733 C2730 1.409 . S
C2733 C2731 1.415 . S
C2734 H2724 0.930 . S
C2734 C2732 1.419 . S
C2734 C2735 1.362 . S
C2735 H2725 0.930 . S
C2735 C2728 1.409 . S
C2735 C2734 1.362 . S
H2736 C2742 0.930 . S
H2737 C2745 0.930 . S
H2738 C2746 0.930 . S
H2739 C2747 0.930 . S
H2740 C2750 0.930 . S
H2741 C2751 0.930 . S
C2742 H2736 0.930 . S
C2742 C2743 1.355 . S
C2742 C2744 1.415 . S
C2743 C2742 1.355 . S
C2743 C2745 1.419 . S
C2744 C2742 1.415 . S
C2744 C2749 1.425 . S
C2744 C2751 1.409 . S
C2745 H2737 0.930 . S
C2745 C2743 1.419 . S
C2745 C2746 1.362 . S
C2746 H2738 0.930 . S
C2746 C2745 1.362 . S
C2746 C2749 1.409 . S
C2747 H2739 0.930 . S
C2747 C2748 1.355 . S
C2747 C2749 1.415 . S
C2748 C2747 1.355 . S
C2748 C2750 1.419 . S
C2749 C2744 1.425 . S
C2749 C2746 1.409 . S
C2749 C2747 1.415 . S
C2750 H2740 0.930 . S
C2750 C2748 1.419 . S
C2750 C2751 1.362 . S
C2751 H2741 0.930 . S
C2751 C2744 1.409 . S
C2751 C2750 1.362 . S
H2752 C2758 0.930 . S
H2753 C2761 0.930 . S
H2754 C2762 0.930 . S
H2755 C2763 0.930 . S
H2756 C2766 0.930 . S
H2757 C2767 0.930 . S
C2758 H2752 0.930 . S
C2758 C2759 1.355 . S
C2758 C2760 1.415 . S
C2759 C2758 1.355 . S
C2759 C2761 1.419 . S
C2760 C2758 1.415 . S
C2760 C2765 1.425 . S
C2760 C2767 1.409 . S
C2761 H2753 0.930 . S
C2761 C2759 1.419 . S
C2761 C2762 1.362 . S
C2762 H2754 0.930 . S
C2762 C2761 1.362 . S
C2762 C2765 1.409 . S
C2763 H2755 0.930 . S
C2763 C2764 1.355 . S
C2763 C2765 1.415 . S
C2764 C2763 1.355 . S
C2764 C2766 1.419 . S
C2765 C2760 1.425 . S
C2765 C2762 1.409 . S
C2765 C2763 1.415 . S
C2766 H2756 0.930 . S
C2766 C2764 1.419 . S
C2766 C2767 1.362 . S
C2767 H2757 0.930 . S
C2767 C2760 1.409 . S
C2767 C2766 1.362 . S
H2768 C2774 0.930 . S
H2769 C2777 0.930 . S
H2770 C2778 0.930 . S
H2771 C2779 0.930 . S
H2772 C2782 0.930 . S
H2773 C2783 0.930 . S
C2774 H2768 0.930 . S
C2774 C2775 1.355 . S
C2774 C2776 1.415 . S
C2775 C2774 1.355 . S
C2775 C2777 1.419 . S
C2776 C2774 1.415 . S
C2776 C2781 1.425 . S
C2776 C2783 1.409 . S
C2777 H2769 0.930 . S
C2777 C2775 1.419 . S
C2777 C2778 1.362 . S
C2778 H2770 0.930 . S
C2778 C2777 1.362 . S
C2778 C2781 1.409 . S
C2779 H2771 0.930 . S
C2779 C2780 1.355 . S
C2779 C2781 1.415 . S
C2780 C2779 1.355 . S
C2780 C2782 1.419 . S
C2781 C2776 1.425 . S
C2781 C2778 1.409 . S
C2781 C2779 1.415 . S
C2782 H2772 0.930 . S
C2782 C2780 1.419 . S
C2782 C2783 1.362 . S
C2783 H2773 0.930 . S
C2783 C2776 1.409 . S
C2783 C2782 1.362 . S
H2784 C2790 0.930 . S
H2785 C2793 0.930 . S
H2786 C2794 0.930 . S
H2787 C2795 0.930 . S
H2788 C2798 0.930 . S
H2789 C2799 0.930 . S
C2790 H2784 0.930 . S
C2790 C2791 1.355 . S
C2790 C2792 1.415 . S
C2791 C2790 1.355 . S
C2791 C2793 1.419 . S
C2792 C2790 1.415 . S
C2792 C2797 1.425 . S
C2792 C2799 1.409 . S
C2793 H2785 0.930 . S
C2793 C2791 1.419 . S
C2793 C2794 1.362 . S
C2794 H2786 0.930 . S
C2794 C2793 1.362 . S
C2794 C2797 1.409 . S
C2795 H2787 0.930 . S
C2795 C2796 1.355 . S
C2795 C2797 1.415 . S
C2796 C2795 1.355 . S
C2796 C2798 1.419 . S
C2797 C2792 1.425 . S
C2797 C2794 1.409 . S
C2797 C2795 1.415 . S
C2798 H2788 0.930 . S
C2798 C2796 1.419 . S
C2798 C2799 1.362 . S
C2799 H2789 0.930 . S
C2799 C2792 1.409 . S
C2799 C2798 1.362 . S
H2800 C2806 0.930 . S
H2801 C2809 0.930 . S
H2802 C2810 0.930 . S
H2803 C2811 0.930 . S
H2804 C2814 0.930 . S
H2805 C2815 0.930 . S
C2806 H2800 0.930 . S
C2806 C2807 1.355 . S
C2806 C2808 1.415 . S
C2807 C2806 1.355 . S
C2807 C2809 1.419 . S
C2808 C2806 1.415 . S
C2808 C2813 1.425 . S
C2808 C2815 1.409 . S
C2809 H2801 0.930 . S
C2809 C2807 1.419 . S
C2809 C2810 1.362 . S
C2810 H2802 0.930 . S
C2810 C2809 1.362 . S
C2810 C2813 1.409 . S
C2811 H2803 0.930 . S
C2811 C2812 1.355 . S
C2811 C2813 1.415 . S
C2812 C2811 1.355 . S
C2812 C2814 1.419 . S
C2813 C2808 1.425 . S
C2813 C2810 1.409 . S
C2813 C2811 1.415 . S
C2814 H2804 0.930 . S
C2814 C2812 1.419 . S
C2814 C2815 1.362 . S
C2815 H2805 0.930 . S
C2815 C2808 1.409 . S
C2815 C2814 1.362 . S
H2816 C2822 0.930 . S
H2817 C2825 0.930 . S
H2818 C2826 0.930 . S
H2819 C2827 0.930 . S
H2820 C2830 0.930 . S
H2821 C2831 0.930 . S
C2822 H2816 0.930 . S
C2822 C2823 1.355 . S
C2822 C2824 1.415 . S
C2823 C2822 1.355 . S
C2823 C2825 1.419 . S
C2824 C2822 1.415 . S
C2824 C2829 1.425 . S
C2824 C2831 1.409 . S
C2825 H2817 0.930 . S
C2825 C2823 1.419 . S
C2825 C2826 1.362 . S
C2826 H2818 0.930 . S
C2826 C2825 1.362 . S
C2826 C2829 1.409 . S
C2827 H2819 0.930 . S
C2827 C2828 1.355 . S
C2827 C2829 1.415 . S
C2828 C2827 1.355 . S
C2828 C2830 1.419 . S
C2829 C2824 1.425 . S
C2829 C2826 1.409 . S
C2829 C2827 1.415 . S
C2830 H2820 0.930 . S
C2830 C2828 1.419 . S
C2830 C2831 1.362 . S
C2831 H2821 0.930 . S
C2831 C2824 1.409 . S
C2831 C2830 1.362 . S
H2832 C2838 0.930 . S
H2833 C2841 0.930 . S
H2834 C2842 0.930 . S
H2835 C2843 0.930 . S
H2836 C2846 0.930 . S
H2837 C2847 0.930 . S
C2838 H2832 0.930 . S
C2838 C2839 1.355 . S
C2838 C2840 1.415 . S
C2839 C2838 1.355 . S
C2839 C2841 1.419 . S
C2840 C2838 1.415 . S
C2840 C2845 1.425 . S
C2840 C2847 1.409 . S
C2841 H2833 0.930 . S
C2841 C2839 1.419 . S
C2841 C2842 1.362 . S
C2842 H2834 0.930 . S
C2842 C2841 1.362 . S
C2842 C2845 1.409 . S
C2843 H2835 0.930 . S
C2843 C2844 1.355 . S
C2843 C2845 1.415 . S
C2844 C2843 1.355 . S
C2844 C2846 1.419 . S
C2845 C2840 1.425 . S
C2845 C2842 1.409 . S
C2845 C2843 1.415 . S
C2846 H2836 0.930 . S
C2846 C2844 1.419 . S
C2846 C2847 1.362 . S
C2847 H2837 0.930 . S
C2847 C2840 1.409 . S
C2847 C2846 1.362 . S
H2848 C2854 0.930 . S
H2849 C2857 0.930 . S
H2850 C2858 0.930 . S
H2851 C2859 0.930 . S
H2852 C2862 0.930 . S
H2853 C2863 0.930 . S
C2854 H2848 0.930 . S
C2854 C2855 1.355 . S
C2854 C2856 1.415 . S
C2855 C2854 1.355 . S
C2855 C2857 1.419 . S
C2856 C2854 1.415 . S
C2856 C2861 1.425 . S
C2856 C2863 1.409 . S
C2857 H2849 0.930 . S
C2857 C2855 1.419 . S
C2857 C2858 1.362 . S
C2858 H2850 0.930 . S
C2858 C2857 1.362 . S
C2858 C2861 1.409 . S
C2859 H2851 0.930 . S
C2859 C2860 1.355 . S
C2859 C2861 1.415 . S
C2860 C2859 1.355 . S
C2860 C2862 1.419 . S
C2861 C2856 1.425 . S
C2861 C2858 1.409 . S
C2861 C2859 1.415 . S
C2862 H2852 0.930 . S
C2862 C2860 1.419 . S
C2862 C2863 1.362 . S
C2863 H2853 0.930 . S
C2863 C2856 1.409 . S
C2863 C2862 1.362 . S
H2864 C2870 0.930 . S
H2865 C2873 0.930 . S
H2866 C2874 0.930 . S
H2867 C2875 0.930 . S
H2868 C2878 0.930 . S
H2869 C2879 0.930 . S
C2870 H2864 0.930 . S
C2870 C2871 1.355 . S
C2870 C2872 1.415 . S
C2871 C2870 1.355 . S
C2871 C2873 1.419 . S
C2872 C2870 1.415 . S
C2872 C2877 1.425 . S
C2872 C2879 1.409 . S
C2873 H2865 0.930 . S
C2873 C2871 1.419 . S
C2873 C2874 1.362 . S
C2874 H2866 0.930 . S
C2874 C2873 1.362 . S
C2874 C2877 1.409 . S
C2875 H2867 0.930 . S
C2875 C2876 1.355 . S
C2875 C2877 1.415 . S
C2876 C2875 1.355 . S
C2876 C2878 1.419 . S
C2877 C2872 1.425 . S
C2877 C2874 1.409 . S
C2877 C2875 1.415 . S
C2878 H2868 0.930 . S
C2878 C2876 1.419 . S
C2878 C2879 1.362 . S
C2879 H2869 0.930 . S
C2879 C2872 1.409 . S
C2879 C2878 1.362 . S
H2880 C2886 0.930 . S
H2881 C2889 0.930 . S
H2882 C2890 0.930 . S
H2883 C2891 0.930 . S
H2884 C2894 0.930 . S
H2885 C2895 0.930 . S
C2886 H2880 0.930 . S
C2886 C2887 1.355 . S
C2886 C2888 1.415 . S
C2887 C2886 1.355 . S
C2887 C2889 1.419 . S
C2888 C2886 1.415 . S
C2888 C2893 1.425 . S
C2888 C2895 1.409 . S
C2889 H2881 0.930 . S
C2889 C2887 1.419 . S
C2889 C2890 1.362 . S
C2890 H2882 0.930 . S
C2890 C2889 1.362 . S
C2890 C2893 1.409 . S
C2891 H2883 0.930 . S
C2891 C2892 1.355 . S
C2891 C2893 1.415 . S
C2892 C2891 1.355 . S
C2892 C2894 1.419 . S
C2893 C2888 1.425 . S
C2893 C2890 1.409 . S
C2893 C2891 1.415 . S
C2894 H2884 0.930 . S
C2894 C2892 1.419 . S
C2894 C2895 1.362 . S
C2895 H2885 0.930 . S
C2895 C2888 1.409 . S
C2895 C2894 1.362 . S
H2896 C2902 0.930 . S
H2897 C2905 0.930 . S
H2898 C2906 0.930 . S
H2899 C2907 0.930 . S
H2900 C2910 0.930 . S
H2901 C2911 0.930 . S
C2902 H2896 0.930 . S
C2902 C2903 1.355 . S
C2902 C2904 1.415 . S
C2903 C2902 1.355 . S
C2903 C2905 1.419 . S
C2904 C2902 1.415 . S
C2904 C2909 1.425 . S
C2904 C2911 1.409 . S
C2905 H2897 0.930 . S
C2905 C2903 1.419 . S
C2905 C2906 1.362 . S
C2906 H2898 0.930 . S
C2906 C2905 1.362 . S
C2906 C2909 1.409 . S
C2907 H2899 0.930 . S
C2907 C2908 1.355 . S
C2907 C2909 1.415 . S
C2908 C2907 1.355 . S
C2908 C2910 1.419 . S
C2909 C2904 1.425 . S
C2909 C2906 1.409 . S
C2909 C2907 1.415 . S
C2910 H2900 0.930 . S
C2910 C2908 1.419 . S
C2910 C2911 1.362 . S
C2911 H2901 0.930 . S
C2911 C2904 1.409 . S
C2911 C2910 1.362 . S
H2912 C2918 0.930 . S
H2913 C2921 0.930 . S
H2914 C2922 0.930 . S
H2915 C2923 0.930 . S
H2916 C2926 0.930 . S
H2917 C2927 0.930 . S
C2918 H2912 0.930 . S
C2918 C2919 1.355 . S
C2918 C2920 1.415 . S
C2919 C2918 1.355 . S
C2919 C2921 1.419 . S
C2920 C2918 1.415 . S
C2920 C2925 1.425 . S
C2920 C2927 1.409 . S
C2921 H2913 0.930 . S
C2921 C2919 1.419 . S
C2921 C2922 1.362 . S
C2922 H2914 0.930 . S
C2922 C2921 1.362 . S
C2922 C2925 1.409 . S
C2923 H2915 0.930 . S
C2923 C2924 1.355 . S
C2923 C2925 1.415 . S
C2924 C2923 1.355 . S
C2924 C2926 1.419 . S
C2925 C2920 1.425 . S
C2925 C2922 1.409 . S
C2925 C2923 1.415 . S
C2926 H2916 0.930 . S
C2926 C2924 1.419 . S
C2926 C2927 1.362 . S
C2927 H2917 0.930 . S
C2927 C2920 1.409 . S
C2927 C2926 1.362 . S
H2928 C2934 0.930 . S
H2929 C2937 0.930 . S
H2930 C2938 0.930 . S
H2931 C2939 0.930 . S
H2932 C2942 0.930 . S
H2933 C2943 0.930 . S
C2934 H2928 0.930 . S
C2934 C2935 1.355 . S
C2934 C2936 1.415 . S
C2935 C2934 1.355 . S
C2935 C2937 1.419 . S
C2936 C2934 1.415 . S
C2936 C2941 1.425 . S
C2936 C2943 1.409 . S
C2937 H2929 0.930 . S
C2937 C2935 1.419 . S
C2937 C2938 1.362 . S
C2938 H2930 0.930 . S
C2938 C2937 1.362 . S
C2938 C2941 1.409 . S
C2939 H2931 0.930 . S
C2939 C2940 1.355 . S
C2939 C2941 1.415 . S
C2940 C2939 1.355 . S
C2940 C2942 1.419 . S
C2941 C2936 1.425 . S
C2941 C2938 1.409 . S
C2941 C2939 1.415 . S
C2942 H2932 0.930 . S
C2942 C2940 1.419 . S
C2942 C2943 1.362 . S
C2943 H2933 0.930 . S
C2943 C2936 1.409 . S
C2943 C2942 1.362 . S
H2944 C2950 0.930 . S
H2945 C2953 0.930 . S
H2946 C2954 0.930 . S
H2947 C2955 0.930 . S
H2948 C2958 0.930 . S
H2949 C2959 0.930 . S
C2950 H2944 0.930 . S
C2950 C2951 1.355 . S
C2950 C2952 1.415 . S
C2951 C2950 1.355 . S
C2951 C2953 1.419 . S
C2952 C2950 1.415 . S
C2952 C2957 1.425 . S
C2952 C2959 1.409 . S
C2953 H2945 0.930 . S
C2953 C2951 1.419 . S
C2953 C2954 1.362 . S
C2954 H2946 0.930 . S
C2954 C2953 1.362 . S
C2954 C2957 1.409 . S
C2955 H2947 0.930 . S
C2955 C2956 1.355 . S
C2955 C2957 1.415 . S
C2956 C2955 1.355 . S
C2956 C2958 1.419 . S
C2957 C2952 1.425 . S
C2957 C2954 1.409 . S
C2957 C2955 1.415 . S
C2958 H2948 0.930 . S
C2958 C2956 1.419 . S
C2958 C2959 1.362 . S
C2959 H2949 0.930 . S
C2959 C2952 1.409 . S
C2959 C2958 1.362 . S
H2960 C2966 0.930 . S
H2961 C2969 0.930 . S
H2962 C2970 0.930 . S
H2963 C2971 0.930 . S
H2964 C2974 0.930 . S
H2965 C2975 0.930 . S
C2966 H2960 0.930 . S
C2966 C2967 1.355 . S
C2966 C2968 1.415 . S
C2967 C2966 1.355 . S
C2967 C2969 1.419 . S
C2968 C2966 1.415 . S
C2968 C2973 1.425 . S
C2968 C2975 1.409 . S
C2969 H2961 0.930 . S
C2969 C2967 1.419 . S
C2969 C2970 1.362 . S
C2970 H2962 0.930 . S
C2970 C2969 1.362 . S
C2970 C2973 1.409 . S
C2971 H2963 0.930 . S
C2971 C2972 1.355 . S
C2971 C2973 1.415 . S
C2972 C2971 1.355 . S
C2972 C2974 1.419 . S
C2973 C2968 1.425 . S
C2973 C2970 1.409 . S
C2973 C2971 1.415 . S
C2974 H2964 0.930 . S
C2974 C2972 1.419 . S
C2974 C2975 1.362 . S
C2975 H2965 0.930 . S
C2975 C2968 1.409 . S
C2975 C2974 1.362 . S
H2976 C2982 0.930 . S
H2977 C2985 0.930 . S
H2978 C2986 0.930 . S
H2979 C2987 0.930 . S
H2980 C2990 0.930 . S
H2981 C2991 0.930 . S
C2982 H2976 0.930 . S
C2982 C2983 1.355 . S
C2982 C2984 1.415 . S
C2983 C2982 1.355 . S
C2983 C2985 1.419 . S
C2984 C2982 1.415 . S
C2984 C2989 1.425 . S
C2984 C2991 1.409 . S
C2985 H2977 0.930 . S
C2985 C2983 1.419 . S
C2985 C2986 1.362 . S
C2986 H2978 0.930 . S
C2986 C2985 1.362 . S
C2986 C2989 1.409 . S
C2987 H2979 0.930 . S
C2987 C2988 1.355 . S
C2987 C2989 1.415 . S
C2988 C2987 1.355 . S
C2988 C2990 1.419 . S
C2989 C2984 1.425 . S
C2989 C2986 1.409 . S
C2989 C2987 1.415 . S
C2990 H2980 0.930 . S
C2990 C2988 1.419 . S
C2990 C2991 1.362 . S
C2991 H2981 0.930 . S
C2991 C2984 1.409 . S
C2991 C2990 1.362 . S
H2992 C2998 0.930 . S
H2993 C3001 0.930 . S
H2994 C3002 0.930 . S
H2995 C3003 0.930 . S
H2996 C3006 0.930 . S
H2997 C3007 0.930 . S
C2998 H2992 0.930 . S
C2998 C2999 1.355 . S
C2998 C3000 1.415 . S
C2999 C2998 1.355 . S
C2999 C3001 1.419 . S
C3000 C2998 1.415 . S
C3000 C3005 1.425 . S
C3000 C3007 1.409 . S
C3001 H2993 0.930 . S
C3001 C2999 1.419 . S
C3001 C3002 1.362 . S
C3002 H2994 0.930 . S
C3002 C3001 1.362 . S
C3002 C3005 1.409 . S
C3003 H2995 0.930 . S
C3003 C3004 1.355 . S
C3003 C3005 1.415 . S
C3004 C3003 1.355 . S
C3004 C3006 1.419 . S
C3005 C3000 1.425 . S
C3005 C3002 1.409 . S
C3005 C3003 1.415 . S
C3006 H2996 0.930 . S
C3006 C3004 1.419 . S
C3006 C3007 1.362 . S
C3007 H2997 0.930 . S
C3007 C3000 1.409 . S
C3007 C3006 1.362 . S
H3008 C3014 0.930 . S
H3009 C3017 0.930 . S
H3010 C3018 0.930 . S
H3011 C3019 0.930 . S
H3012 C3022 0.930 . S
H3013 C3023 0.930 . S
C3014 H3008 0.930 . S
C3014 C3015 1.355 . S
C3014 C3016 1.415 . S
C3015 C3014 1.355 . S
C3015 C3017 1.419 . S
C3016 C3014 1.415 . S
C3016 C3021 1.425 . S
C3016 C3023 1.409 . S
C3017 H3009 0.930 . S
C3017 C3015 1.419 . S
C3017 C3018 1.362 . S
C3018 H3010 0.930 . S
C3018 C3017 1.362 . S
C3018 C3021 1.409 . S
C3019 H3011 0.930 . S
C3019 C3020 1.355 . S
C3019 C3021 1.415 . S
C3020 C3019 1.355 . S
C3020 C3022 1.419 . S
C3021 C3016 1.425 . S
C3021 C3018 1.409 . S
C3021 C3019 1.415 . S
C3022 H3012 0.930 . S
C3022 C3020 1.419 . S
C3022 C3023 1.362 . S
C3023 H3013 0.930 . S
C3023 C3016 1.409 . S
C3023 C3022 1.362 . S
H3024 C3030 0.930 . S
H3025 C3033 0.930 . S
H3026 C3034 0.930 . S
H3027 C3035 0.930 . S
H3028 C3038 0.930 . S
H3029 C3039 0.930 . S
C3030 H3024 0.930 . S
C3030 C3031 1.355 . S
C3030 C3032 1.415 . S
C3031 C3030 1.355 . S
C3031 C3033 1.419 . S
C3032 C3030 1.415 . S
C3032 C3037 1.425 . S
C3032 C3039 1.409 . S
C3033 H3025 0.930 . S
C3033 C3031 1.419 . S
C3033 C3034 1.362 . S
C3034 H3026 0.930 . S
C3034 C3033 1.362 . S
C3034 C3037 1.409 . S
C3035 H3027 0.930 . S
C3035 C3036 1.355 . S
C3035 C3037 1.415 . S
C3036 C3035 1.355 . S
C3036 C3038 1.419 . S
C3037 C3032 1.425 . S
C3037 C3034 1.409 . S
C3037 C3035 1.415 . S
C3038 H3028 0.930 . S
C3038 C3036 1.419 . S
C3038 C3039 1.362 . S
C3039 H3029 0.930 . S
C3039 C3032 1.409 . S
C3039 C3038 1.362 . S
H3040 C3046 0.930 . S
H3041 C3049 0.930 . S
H3042 C3050 0.930 . S
H3043 C3051 0.930 . S
H3044 C3054 0.930 . S
H3045 C3055 0.930 . S
C3046 H3040 0.930 . S
C3046 C3047 1.355 . S
C3046 C3048 1.415 . S
C3047 C3046 1.355 . S
C3047 C3049 1.419 . S
C3048 C3046 1.415 . S
C3048 C3053 1.425 . S
C3048 C3055 1.409 . S
C3049 H3041 0.930 . S
C3049 C3047 1.419 . S
C3049 C3050 1.362 . S
C3050 H3042 0.930 . S
C3050 C3049 1.362 . S
C3050 C3053 1.409 . S
C3051 H3043 0.930 . S
C3051 C3052 1.355 . S
C3051 C3053 1.415 . S
C3052 C3051 1.355 . S
C3052 C3054 1.419 . S
C3053 C3048 1.425 . S
C3053 C3050 1.409 . S
C3053 C3051 1.415 . S
C3054 H3044 0.930 . S
C3054 C3052 1.419 . S
C3054 C3055 1.362 . S
C3055 H3045 0.930 . S
C3055 C3048 1.409 . S
C3055 C3054 1.362 . S
H3056 C3062 0.930 . S
H3057 C3065 0.930 . S
H3058 C3066 0.930 . S
H3059 C3067 0.930 . S
H3060 C3070 0.930 . S
H3061 C3071 0.930 . S
C3062 H3056 0.930 . S
C3062 C3063 1.355 . S
C3062 C3064 1.415 . S
C3063 C3062 1.355 . S
C3063 C3065 1.419 . S
C3064 C3062 1.415 . S
C3064 C3069 1.425 . S
C3064 C3071 1.409 . S
C3065 H3057 0.930 . S
C3065 C3063 1.419 . S
C3065 C3066 1.362 . S
C3066 H3058 0.930 . S
C3066 C3065 1.362 . S
C3066 C3069 1.409 . S
C3067 H3059 0.930 . S
C3067 C3068 1.355 . S
C3067 C3069 1.415 . S
C3068 C3067 1.355 . S
C3068 C3070 1.419 . S
C3069 C3064 1.425 . S
C3069 C3066 1.409 . S
C3069 C3067 1.415 . S
C3070 H3060 0.930 . S
C3070 C3068 1.419 . S
C3070 C3071 1.362 . S
C3071 H3061 0.930 . S
C3071 C3064 1.409 . S
C3071 C3070 1.362 . S
H3072 C3078 0.930 . S
H3073 C3081 0.930 . S
H3074 C3082 0.930 . S
H3075 C3083 0.930 . S
H3076 C3086 0.930 . S
H3077 C3087 0.930 . S
C3078 H3072 0.930 . S
C3078 C3079 1.355 . S
C3078 C3080 1.415 . S
C3079 C3078 1.355 . S
C3079 C3081 1.419 . S
C3080 C3078 1.415 . S
C3080 C3085 1.425 . S
C3080 C3087 1.409 . S
C3081 H3073 0.930 . S
C3081 C3079 1.419 . S
C3081 C3082 1.362 . S
C3082 H3074 0.930 . S
C3082 C3081 1.362 . S
C3082 C3085 1.409 . S
C3083 H3075 0.930 . S
C3083 C3084 1.355 . S
C3083 C3085 1.415 . S
C3084 C3083 1.355 . S
C3084 C3086 1.419 . S
C3085 C3080 1.425 . S
C3085 C3082 1.409 . S
C3085 C3083 1.415 . S
C3086 H3076 0.930 . S
C3086 C3084 1.419 . S
C3086 C3087 1.362 . S
C3087 H3077 0.930 . S
C3087 C3080 1.409 . S
C3087 C3086 1.362 . S
H3088 C3094 0.930 . S
H3089 C3097 0.930 . S
H3090 C3098 0.930 . S
H3091 C3099 0.930 . S
H3092 C3102 0.930 . S
H3093 C3103 0.930 . S
C3094 H3088 0.930 . S
C3094 C3095 1.355 . S
C3094 C3096 1.415 . S
C3095 C3094 1.355 . S
C3095 C3097 1.419 . S
C3096 C3094 1.415 . S
C3096 C3101 1.425 . S
C3096 C3103 1.409 . S
C3097 H3089 0.930 . S
C3097 C3095 1.419 . S
C3097 C3098 1.362 . S
C3098 H3090 0.930 . S
C3098 C3097 1.362 . S
C3098 C3101 1.409 . S
C3099 H3091 0.930 . S
C3099 C3100 1.355 . S
C3099 C3101 1.415 . S
C3100 C3099 1.355 . S
C3100 C3102 1.419 . S
C3101 C3096 1.425 . S
C3101 C3098 1.409 . S
C3101 C3099 1.415 . S
C3102 H3092 0.930 . S
C3102 C3100 1.419 . S
C3102 C3103 1.362 . S
C3103 H3093 0.930 . S
C3103 C3096 1.409 . S
C3103 C3102 1.362 . S
H3104 C3110 0.930 . S
H3105 C3113 0.930 . S
H3106 C3114 0.930 . S
H3107 C3115 0.930 . S
H3108 C3118 0.930 . S
H3109 C3119 0.930 . S
C3110 H3104 0.930 . S
C3110 C3111 1.355 . S
C3110 C3112 1.415 . S
C3111 C3110 1.355 . S
C3111 C3113 1.419 . S
C3112 C3110 1.415 . S
C3112 C3117 1.425 . S
C3112 C3119 1.409 . S
C3113 H3105 0.930 . S
C3113 C3111 1.419 . S
C3113 C3114 1.362 . S
C3114 H3106 0.930 . S
C3114 C3113 1.362 . S
C3114 C3117 1.409 . S
C3115 H3107 0.930 . S
C3115 C3116 1.355 . S
C3115 C3117 1.415 . S
C3116 C3115 1.355 . S
C3116 C3118 1.419 . S
C3117 C3112 1.425 . S
C3117 C3114 1.409 . S
C3117 C3115 1.415 . S
C3118 H3108 0.930 . S
C3118 C3116 1.419 . S
C3118 C3119 1.362 . S
C3119 H3109 0.930 . S
C3119 C3112 1.409 . S
C3119 C3118 1.362 . S
H3120 C3126 0.930 . S
H3121 C3129 0.930 . S
H3122 C3130 0.930 . S
H3123 C3131 0.930 . S
H3124 C3134 0.930 . S
H3125 C3135 0.930 . S
C3126 H3120 0.930 . S
C3126 C3127 1.355 . S
C3126 C3128 1.415 . S
C3127 C3126 1.355 . S
C3127 C3129 1.419 . S
C3128 C3126 1.415 . S
C3128 C3133 1.425 . S
C3128 C3135 1.409 . S
C3129 H3121 0.930 . S
C3129 C3127 1.419 . S
C3129 C3130 1.362 . S
C3130 H3122 0.930 . S
C3130 C3129 1.362 . S
C3130 C3133 1.409 . S
C3131 H3123 0.930 . S
C3131 C3132 1.355 . S
C3131 C3133 1.415 . S
C3132 C3131 1.355 . S
C3132 C3134 1.419 . S
C3133 C3128 1.425 . S
C3133 C3130 1.409 . S
C3133 C3131 1.415 . S
C3134 H3124 0.930 . S
C3134 C3132 1.419 . S
C3134 C3135 1.362 . S
C3135 H3125 0.930 . S
C3135 C3128 1.409 . S
C3135 C3134 1.362 . S
H3136 C3142 0.930 . S
H3137 C3145 0.930 . S
H3138 C3146 0.930 . S
H3139 C3147 0.930 . S
H3140 C3150 0.930 . S
H3141 C3151 0.930 . S
C3142 H3136 0.930 . S
C3142 C3143 1.355 . S
C3142 C3144 1.415 . S
C3143 C3142 1.355 . S
C3143 C3145 1.419 . S
C3144 C3142 1.415 . S
C3144 C3149 1.425 . S
C3144 C3151 1.409 . S
C3145 H3137 0.930 . S
C3145 C3143 1.419 . S
C3145 C3146 1.362 . S
C3146 H3138 0.930 . S
C3146 C3145 1.362 . S
C3146 C3149 1.409 . S
C3147 H3139 0.930 . S
C3147 C3148 1.355 . S
C3147 C3149 1.415 . S
C3148 C3147 1.355 . S
C3148 C3150 1.419 . S
C3149 C3144 1.425 . S
C3149 C3146 1.409 . S
C3149 C3147 1.415 . S
C3150 H3140 0.930 . S
C3150 C3148 1.419 . S
C3150 C3151 1.362 . S
C3151 H3141 0.930 . S
C3151 C3144 1.409 . S
C3151 C3150 1.362 . S
H3152 C3158 0.930 . S
H3153 C3161 0.930 . S
H3154 C3162 0.930 . S
H3155 C3163 0.930 . S
H3156 C3166 0.930 . S
H3157 C3167 0.930 . S
C3158 H3152 0.930 . S
C3158 C3159 1.355 . S
C3158 C3160 1.415 . S
C3159 C3158 1.355 . S
C3159 C3161 1.419 . S
C3160 C3158 1.415 . S
C3160 C3165 1.425 . S
C3160 C3167 1.409 . S
C3161 H3153 0.930 . S
C3161 C3159 1.419 . S
C3161 C3162 1.362 . S
C3162 H3154 0.930 . S
C3162 C3161 1.362 . S
C3162 C3165 1.409 . S
C3163 H3155 0.930 . S
C3163 C3164 1.355 . S
C3163 C3165 1.415 . S
C3164 C3163 1.355 . S
C3164 C3166 1.419 . S
C3165 C3160 1.425 . S
C3165 C3162 1.409 . S
C3165 C3163 1.415 . S
C3166 H3156 0.930 . S
C3166 C3164 1.419 . S
C3166 C3167 1.362 . S
C3167 H3157 0.930 . S
C3167 C3160 1.409 . S
C3167 C3166 1.362 . S
H3168 C3174 0.930 . S
H3169 C3177 0.930 . S
H3170 C3178 0.930 . S
H3171 C3179 0.930 . S
H3172 C3182 0.930 . S
H3173 C3183 0.930 . S
C3174 H3168 0.930 . S
C3174 C3175 1.355 . S
C3174 C3176 1.415 . S
C3175 C3174 1.355 . S
C3175 C3177 1.419 . S
C3176 C3174 1.415 . S
C3176 C3181 1.425 . S
C3176 C3183 1.409 . S
C3177 H3169 0.930 . S
C3177 C3175 1.419 . S
C3177 C3178 1.362 . S
C3178 H3170 0.930 . S
C3178 C3177 1.362 . S
C3178 C3181 1.409 . S
C3179 H3171 0.930 . S
C3179 C3180 1.355 . S
C3179 C3181 1.415 . S
C3180 C3179 1.355 . S
C3180 C3182 1.419 . S
C3181 C3176 1.425 . S
C3181 C3178 1.409 . S
C3181 C3179 1.415 . S
C3182 H3172 0.930 . S
C3182 C3180 1.419 . S
C3182 C3183 1.362 . S
C3183 H3173 0.930 . S
C3183 C3176 1.409 . S
C3183 C3182 1.362 . S
H3184 C3190 0.930 . S
H3185 C3193 0.930 . S
H3186 C3194 0.930 . S
H3187 C3195 0.930 . S
H3188 C3198 0.930 . S
H3189 C3199 0.930 . S
C3190 H3184 0.930 . S
C3190 C3191 1.355 . S
C3190 C3192 1.415 . S
C3191 C3190 1.355 . S
C3191 C3193 1.419 . S
C3192 C3190 1.415 . S
C3192 C3197 1.425 . S
C3192 C3199 1.409 . S
C3193 H3185 0.930 . S
C3193 C3191 1.419 . S
C3193 C3194 1.362 . S
C3194 H3186 0.930 . S
C3194 C3193 1.362 . S
C3194 C3197 1.409 . S
C3195 H3187 0.930 . S
C3195 C3196 1.355 . S
C3195 C3197 1.415 . S
C3196 C3195 1.355 . S
C3196 C3198 1.419 . S
C3197 C3192 1.425 . S
C3197 C3194 1.409 . S
C3197 C3195 1.415 . S
C3198 H3188 0.930 . S
C3198 C3196 1.419 . S
C3198 C3199 1.362 . S
C3199 H3189 0.930 . S
C3199 C3192 1.409 . S
C3199 C3198 1.362 . S
H3200 C3206 0.930 . S
H3201 C3209 0.930 . S
H3202 C3210 0.930 . S
H3203 C3211 0.930 . S
H3204 C3214 0.930 . S
H3205 C3215 0.930 . S
C3206 H3200 0.930 . S
C3206 C3207 1.355 . S
C3206 C3208 1.415 . S
C3207 C3206 1.355 . S
C3207 C3209 1.419 . S
C3208 C3206 1.415 . S
C3208 C3213 1.425 . S
C3208 C3215 1.409 . S
C3209 H3201 0.930 . S
C3209 C3207 1.419 . S
C3209 C3210 1.362 . S
C3210 H3202 0.930 . S
C3210 C3209 1.362 . S
C3210 C3213 1.409 . S
C3211 H3203 0.930 . S
C3211 C3212 1.355 . S
C3211 C3213 1.415 . S
C3212 C3211 1.355 . S
C3212 C3214 1.419 . S
C3213 C3208 1.425 . S
C3213 C3210 1.409 . S
C3213 C3211 1.415 . S
C3214 H3204 0.930 . S
C3214 C3212 1.419 . S
C3214 C3215 1.362 . S
C3215 H3205 0.930 . S
C3215 C3208 1.409 . S
C3215 C3214 1.362 . S
H3216 C3222 0.930 . S
H3217 C3225 0.930 . S
H3218 C3226 0.930 . S
H3219 C3227 0.930 . S
H3220 C3230 0.930 . S
H3221 C3231 0.930 . S
C3222 H3216 0.930 . S
C3222 C3223 1.355 . S
C3222 C3224 1.415 . S
C3223 C3222 1.355 . S
C3223 C3225 1.419 . S
C3224 C3222 1.415 . S
C3224 C3229 1.425 . S
C3224 C3231 1.409 . S
C3225 H3217 0.930 . S
C3225 C3223 1.419 . S
C3225 C3226 1.362 . S
C3226 H3218 0.930 . S
C3226 C3225 1.362 . S
C3226 C3229 1.409 . S
C3227 H3219 0.930 . S
C3227 C3228 1.355 . S
C3227 C3229 1.415 . S
C3228 C3227 1.355 . S
C3228 C3230 1.419 . S
C3229 C3224 1.425 . S
C3229 C3226 1.409 . S
C3229 C3227 1.415 . S
C3230 H3220 0.930 . S
C3230 C3228 1.419 . S
C3230 C3231 1.362 . S
C3231 H3221 0.930 . S
C3231 C3224 1.409 . S
C3231 C3230 1.362 . S
H3232 C3238 0.930 . S
H3233 C3241 0.930 . S
H3234 C3242 0.930 . S
H3235 C3243 0.930 . S
H3236 C3246 0.930 . S
H3237 C3247 0.930 . S
C3238 H3232 0.930 . S
C3238 C3239 1.355 . S
C3238 C3240 1.415 . S
C3239 C3238 1.355 . S
C3239 C3241 1.419 . S
C3240 C3238 1.415 . S
C3240 C3245 1.425 . S
C3240 C3247 1.409 . S
C3241 H3233 0.930 . S
C3241 C3239 1.419 . S
C3241 C3242 1.362 . S
C3242 H3234 0.930 . S
C3242 C3241 1.362 . S
C3242 C3245 1.409 . S
C3243 H3235 0.930 . S
C3243 C3244 1.355 . S
C3243 C3245 1.415 . S
C3244 C3243 1.355 . S
C3244 C3246 1.419 . S
C3245 C3240 1.425 . S
C3245 C3242 1.409 . S
C3245 C3243 1.415 . S
C3246 H3236 0.930 . S
C3246 C3244 1.419 . S
C3246 C3247 1.362 . S
C3247 H3237 0.930 . S
C3247 C3240 1.409 . S
C3247 C3246 1.362 . S
H3248 C3254 0.930 . S
H3249 C3257 0.930 . S
H3250 C3258 0.930 . S
H3251 C3259 0.930 . S
H3252 C3262 0.930 . S
H3253 C3263 0.930 . S
C3254 H3248 0.930 . S
C3254 C3255 1.355 . S
C3254 C3256 1.415 . S
C3255 C3254 1.355 . S
C3255 C3257 1.419 . S
C3256 C3254 1.415 . S
C3256 C3261 1.425 . S
C3256 C3263 1.409 . S
C3257 H3249 0.930 . S
C3257 C3255 1.419 . S
C3257 C3258 1.362 . S
C3258 H3250 0.930 . S
C3258 C3257 1.362 . S
C3258 C3261 1.409 . S
C3259 H3251 0.930 . S
C3259 C3260 1.355 . S
C3259 C3261 1.415 . S
C3260 C3259 1.355 . S
C3260 C3262 1.419 . S
C3261 C3256 1.425 . S
C3261 C3258 1.409 . S
C3261 C3259 1.415 . S
C3262 H3252 0.930 . S
C3262 C3260 1.419 . S
C3262 C3263 1.362 . S
C3263 H3253 0.930 . S
C3263 C3256 1.409 . S
C3263 C3262 1.362 . S
H3264 C3270 0.930 . S
H3265 C3273 0.930 . S
H3266 C3274 0.930 . S
H3267 C3275 0.930 . S
H3268 C3278 0.930 . S
H3269 C3279 0.930 . S
C3270 H3264 0.930 . S
C3270 C3271 1.355 . S
C3270 C3272 1.415 . S
C3271 C3270 1.355 . S
C3271 C3273 1.419 . S
C3272 C3270 1.415 . S
C3272 C3277 1.425 . S
C3272 C3279 1.409 . S
C3273 H3265 0.930 . S
C3273 C3271 1.419 . S
C3273 C3274 1.362 . S
C3274 H3266 0.930 . S
C3274 C3273 1.362 . S
C3274 C3277 1.409 . S
C3275 H3267 0.930 . S
C3275 C3276 1.355 . S
C3275 C3277 1.415 . S
C3276 C3275 1.355 . S
C3276 C3278 1.419 . S
C3277 C3272 1.425 . S
C3277 C3274 1.409 . S
C3277 C3275 1.415 . S
C3278 H3268 0.930 . S
C3278 C3276 1.419 . S
C3278 C3279 1.362 . S
C3279 H3269 0.930 . S
C3279 C3272 1.409 . S
C3279 C3278 1.362 . S
H3280 C3286 0.930 . S
H3281 C3289 0.930 . S
H3282 C3290 0.930 . S
H3283 C3291 0.930 . S
H3284 C3294 0.930 . S
H3285 C3295 0.930 . S
C3286 H3280 0.930 . S
C3286 C3287 1.355 . S
C3286 C3288 1.415 . S
C3287 C3286 1.355 . S
C3287 C3289 1.419 . S
C3288 C3286 1.415 . S
C3288 C3293 1.425 . S
C3288 C3295 1.409 . S
C3289 H3281 0.930 . S
C3289 C3287 1.419 . S
C3289 C3290 1.362 . S
C3290 H3282 0.930 . S
C3290 C3289 1.362 . S
C3290 C3293 1.409 . S
C3291 H3283 0.930 . S
C3291 C3292 1.355 . S
C3291 C3293 1.415 . S
C3292 C3291 1.355 . S
C3292 C3294 1.419 . S
C3293 C3288 1.425 . S
C3293 C3290 1.409 . S
C3293 C3291 1.415 . S
C3294 H3284 0.930 . S
C3294 C3292 1.419 . S
C3294 C3295 1.362 . S
C3295 H3285 0.930 . S
C3295 C3288 1.409 . S
C3295 C3294 1.362 . S
H3296 C3302 0.930 . S
H3297 C3305 0.930 . S
H3298 C3306 0.930 . S
H3299 C3307 0.930 . S
H3300 C3310 0.930 . S
H3301 C3311 0.930 . S
C3302 H3296 0.930 . S
C3302 C3303 1.355 . S
C3302 C3304 1.415 . S
C3303 C3302 1.355 . S
C3303 C3305 1.419 . S
C3304 C3302 1.415 . S
C3304 C3309 1.425 . S
C3304 C3311 1.409 . S
C3305 H3297 0.930 . S
C3305 C3303 1.419 . S
C3305 C3306 1.362 . S
C3306 H3298 0.930 . S
C3306 C3305 1.362 . S
C3306 C3309 1.409 . S
C3307 H3299 0.930 . S
C3307 C3308 1.355 . S
C3307 C3309 1.415 . S
C3308 C3307 1.355 . S
C3308 C3310 1.419 . S
C3309 C3304 1.425 . S
C3309 C3306 1.409 . S
C3309 C3307 1.415 . S
C3310 H3300 0.930 . S
C3310 C3308 1.419 . S
C3310 C3311 1.362 . S
C3311 H3301 0.930 . S
C3311 C3304 1.409 . S
C3311 C3310 1.362 . S
H3312 C3318 0.930 1_655 S
H3313 C3321 0.930 . S
H3314 C3322 0.930 . S
H3315 C3323 0.930 . S
H3316 C3326 0.930 . S
H3317 C3327 0.930 . S
C3318 H3312 0.930 1_455 S
C3318 C3319 1.359 . S
C3318 C3320 1.415 . S
C3319 C3318 1.359 . S
C3319 C3321 1.440 . S
C3320 C3318 1.415 . S
C3320 C3325 1.425 . S
C3320 C3327 1.409 . S
C3321 H3313 0.930 . S
C3321 C3319 1.440 . S
C3321 C3322 1.362 . S
C3322 H3314 0.930 . S
C3322 C3321 1.362 . S
C3322 C3325 1.409 . S
C3323 H3315 0.930 . S
C3323 C3324 1.355 . S
C3323 C3325 1.415 . S
C3324 C3323 1.355 . S
C3324 C3326 1.419 . S
C3325 C3320 1.425 . S
C3325 C3322 1.409 . S
C3325 C3323 1.415 . S
C3326 H3316 0.930 . S
C3326 C3324 1.419 . S
C3326 C3327 1.362 . S
C3327 H3317 0.930 . S
C3327 C3320 1.409 . S
C3327 C3326 1.362 . S
H3328 C3334 0.930 . S
H3329 C3337 0.945 . S
H3330 C3338 0.930 . S
H3331 C3339 0.930 . S
H3332 C3342 0.930 . S
H3333 C3343 0.930 . S
C3334 H3328 0.930 . S
C3334 C3335 1.346 1_545 S
C3334 C3336 1.415 . S
C3335 C3334 1.346 1_565 S
C3335 C3337 1.419 . S
C3336 C3334 1.415 . S
C3336 C3341 1.425 . S
C3336 C3343 1.409 . S
C3337 H3329 0.945 . S
C3337 C3335 1.419 . S
C3337 C3338 1.348 1_565 S
C3338 H3330 0.930 . S
C3338 C3337 1.348 1_545 S
C3338 C3341 1.409 . S
C3339 H3331 0.930 . S
C3339 C3340 1.355 . S
C3339 C3341 1.415 . S
C3340 C3339 1.355 . S
C3340 C3342 1.419 . S
C3341 C3336 1.425 . S
C3341 C3338 1.409 . S
C3341 C3339 1.415 . S
C3342 H3332 0.930 . S
C3342 C3340 1.419 . S
C3342 C3343 1.362 . S
C3343 H3333 0.930 . S
C3343 C3336 1.409 . S
C3343 C3342 1.362 . S
H3344 C3350 0.930 . S
H3345 C3353 0.930 . S
H3346 C3354 0.930 . S
H3347 C3355 0.930 . S
H3348 C3358 0.930 . S
H3349 C3359 0.930 . S
C3350 H3344 0.930 . S
C3350 C3351 1.355 . S
C3350 C3352 1.415 . S
C3351 C3350 1.355 . S
C3351 C3353 1.419 . S
C3352 C3350 1.415 . S
C3352 C3357 1.425 . S
C3352 C3359 1.409 . S
C3353 H3345 0.930 . S
C3353 C3351 1.419 . S
C3353 C3354 1.362 . S
C3354 H3346 0.930 . S
C3354 C3353 1.362 . S
C3354 C3357 1.409 . S
C3355 H3347 0.930 . S
C3355 C3356 1.355 . S
C3355 C3357 1.415 . S
C3356 C3355 1.355 . S
C3356 C3358 1.419 . S
C3357 C3352 1.425 . S
C3357 C3354 1.409 . S
C3357 C3355 1.415 . S
C3358 H3348 0.930 . S
C3358 C3356 1.419 . S
C3358 C3359 1.362 . S
C3359 H3349 0.930 . S
C3359 C3352 1.409 . S
C3359 C3358 1.362 . S
H3360 C3366 0.930 . S
H3361 C3369 0.930 . S
H3362 C3370 0.930 . S
H3363 C3371 0.930 . S
H3364 C3374 0.930 . S
H3365 C3375 0.930 . S
C3366 H3360 0.930 . S
C3366 C3367 1.355 . S
C3366 C3368 1.415 . S
C3367 C3366 1.355 . S
C3367 C3369 1.419 . S
C3368 C3366 1.415 . S
C3368 C3373 1.425 . S
C3368 C3375 1.409 . S
C3369 H3361 0.930 . S
C3369 C3367 1.419 . S
C3369 C3370 1.362 . S
C3370 H3362 0.930 . S
C3370 C3369 1.362 . S
C3370 C3373 1.409 . S
C3371 H3363 0.930 . S
C3371 C3372 1.355 . S
C3371 C3373 1.415 . S
C3372 C3371 1.355 . S
C3372 C3374 1.419 . S
C3373 C3368 1.425 . S
C3373 C3370 1.409 . S
C3373 C3371 1.415 . S
C3374 H3364 0.930 . S
C3374 C3372 1.419 . S
C3374 C3375 1.362 . S
C3375 H3365 0.930 . S
C3375 C3368 1.409 . S
C3375 C3374 1.362 . S
H3376 C3382 0.930 . S
H3377 C3385 0.930 . S
H3378 C3386 0.930 . S
H3379 C3387 0.930 . S
H3380 C3390 0.930 . S
H3381 C3391 0.930 . S
C3382 H3376 0.930 . S
C3382 C3383 1.355 . S
C3382 C3384 1.415 . S
C3383 C3382 1.355 . S
C3383 C3385 1.419 . S
C3384 C3382 1.415 . S
C3384 C3389 1.425 . S
C3384 C3391 1.409 1_455 S
C3385 H3377 0.930 . S
C3385 C3383 1.419 . S
C3385 C3386 1.362 . S
C3386 H3378 0.930 . S
C3386 C3385 1.362 . S
C3386 C3389 1.409 . S
C3387 H3379 0.930 . S
C3387 C3388 1.355 1_455 S
C3387 C3389 1.415 . S
C3388 C3387 1.355 1_655 S
C3388 C3390 1.419 . S
C3389 C3384 1.425 . S
C3389 C3386 1.409 . S
C3389 C3387 1.415 . S
C3390 H3380 0.930 . S
C3390 C3388 1.419 . S
C3390 C3391 1.362 . S
C3391 H3381 0.930 . S
C3391 C3384 1.409 1_655 S
C3391 C3390 1.362 . S
H3392 C3398 0.930 . S
H3393 C3401 0.930 . S
H3394 C3402 0.930 . S
H3395 C3403 0.930 . S
H3396 C3406 0.930 . S
H3397 C3407 0.930 . S
C3398 H3392 0.930 . S
C3398 C3399 1.355 . S
C3398 C3400 1.415 . S
C3399 C3398 1.355 . S
C3399 C3401 1.419 . S
C3400 C3398 1.415 . S
C3400 C3405 1.425 . S
C3400 C3407 1.409 1_545 S
C3401 H3393 0.930 . S
C3401 C3399 1.419 . S
C3401 C3402 1.362 . S
C3402 H3394 0.930 . S
C3402 C3401 1.362 . S
C3402 C3405 1.409 . S
C3403 H3395 0.930 . S
C3403 C3404 1.316 1_545 S
C3403 C3405 1.415 . S
C3404 C3403 1.316 1_565 S
C3404 C3406 1.443 . S
C3405 C3400 1.425 . S
C3405 C3402 1.409 . S
C3405 C3403 1.415 . S
C3406 H3396 0.930 . S
C3406 C3404 1.443 . S
C3406 C3407 1.362 . S
C3407 H3397 0.930 . S
C3407 C3400 1.409 1_565 S
C3407 C3406 1.362 . S
H3408 C3414 0.930 . S
H3409 C3417 0.930 . S
H3410 C3418 0.930 . S
H3411 C3419 0.930 . S
H3412 C3422 0.930 . S
H3413 C3423 0.930 . S
C3414 H3408 0.930 . S
C3414 C3415 1.355 . S
C3414 C3416 1.415 . S
C3415 C3414 1.355 . S
C3415 C3417 1.419 . S
C3416 C3414 1.415 . S
C3416 C3421 1.425 . S
C3416 C3423 1.409 . S
C3417 H3409 0.930 . S
C3417 C3415 1.419 . S
C3417 C3418 1.362 . S
C3418 H3410 0.930 . S
C3418 C3417 1.362 . S
C3418 C3421 1.409 . S
C3419 H3411 0.930 . S
C3419 C3420 1.355 . S
C3419 C3421 1.415 . S
C3420 C3419 1.355 . S
C3420 C3422 1.419 . S
C3421 C3416 1.425 . S
C3421 C3418 1.409 . S
C3421 C3419 1.415 . S
C3422 H3412 0.930 . S
C3422 C3420 1.419 . S
C3422 C3423 1.362 . S
C3423 H3413 0.930 . S
C3423 C3416 1.409 . S
C3423 C3422 1.362 . S
H3424 C3430 0.930 . S
H3425 C3433 0.930 . S
H3426 C3434 0.930 . S
H3427 C3435 0.930 . S
H3428 C3438 0.930 . S
H3429 C3439 0.930 . S
C3430 H3424 0.930 . S
C3430 C3431 1.355 . S
C3430 C3432 1.415 . S
C3431 C3430 1.355 . S
C3431 C3433 1.419 . S
C3432 C3430 1.415 . S
C3432 C3437 1.425 . S
C3432 C3439 1.409 . S
C3433 H3425 0.930 . S
C3433 C3431 1.419 . S
C3433 C3434 1.362 . S
C3434 H3426 0.930 . S
C3434 C3433 1.362 . S
C3434 C3437 1.409 . S
C3435 H3427 0.930 . S
C3435 C3436 1.355 . S
C3435 C3437 1.415 . S
C3436 C3435 1.355 . S
C3436 C3438 1.419 . S
C3437 C3432 1.425 . S
C3437 C3434 1.409 . S
C3437 C3435 1.415 . S
C3438 H3428 0.930 . S
C3438 C3436 1.419 . S
C3438 C3439 1.362 . S
C3439 H3429 0.930 . S
C3439 C3432 1.409 . S
C3439 C3438 1.362 . S
H3440 C3446 0.930 . S
H3441 C3449 0.927 . S
H3442 C3450 0.930 . S
H3443 C3451 0.930 . S
H3444 C3454 0.930 . S
H3445 C3455 0.930 . S
C3446 H3440 0.930 . S
C3446 C3447 1.376 . S
C3446 C3448 1.415 . S
C3447 C3446 1.376 . S
C3447 C3449 1.418 1_545 S
C3448 C3446 1.415 . S
C3448 C3453 1.425 . S
C3448 C3455 1.409 . S
C3449 H3441 0.927 . S
C3449 C3447 1.418 1_565 S
C3449 C3450 1.365 1_565 S
C3450 H3442 0.930 . S
C3450 C3449 1.365 1_545 S
C3450 C3453 1.409 . S
C3451 H3443 0.930 . S
C3451 C3452 1.355 . S
C3451 C3453 1.415 . S
C3452 C3451 1.355 . S
C3452 C3454 1.419 . S
C3453 C3448 1.425 . S
C3453 C3450 1.409 . S
C3453 C3451 1.415 . S
C3454 H3444 0.930 . S
C3454 C3452 1.419 . S
C3454 C3455 1.362 . S
C3455 H3445 0.930 . S
C3455 C3448 1.409 . S
C3455 C3454 1.362 . S
H3456 C3462 0.930 . S
H3457 C3465 0.930 . S
H3458 C3466 0.930 . S
H3459 C3467 0.930 . S
H3460 C3470 0.930 . S
H3461 C3471 0.930 . S
C3462 H3456 0.930 . S
C3462 C3463 1.355 . S
C3462 C3464 1.415 . S
C3463 C3462 1.355 . S
C3463 C3465 1.419 . S
C3464 C3462 1.415 . S
C3464 C3469 1.425 . S
C3464 C3471 1.409 . S
C3465 H3457 0.930 . S
C3465 C3463 1.419 . S
C3465 C3466 1.362 . S
C3466 H3458 0.930 . S
C3466 C3465 1.362 . S
C3466 C3469 1.409 . S
C3467 H3459 0.930 . S
C3467 C3468 1.355 . S
C3467 C3469 1.415 . S
C3468 C3467 1.355 . S
C3468 C3470 1.419 . S
C3469 C3464 1.425 . S
C3469 C3466 1.409 . S
C3469 C3467 1.415 . S
C3470 H3460 0.930 . S
C3470 C3468 1.419 . S
C3470 C3471 1.362 . S
C3471 H3461 0.930 . S
C3471 C3464 1.409 . S
C3471 C3470 1.362 . S
H3472 C3478 0.930 . S
H3473 C3481 0.930 . S
H3474 C3482 0.930 . S
H3475 C3483 0.930 . S
H3476 C3486 0.930 . S
H3477 C3487 0.930 . S
C3478 H3472 0.930 . S
C3478 C3479 1.355 . S
C3478 C3480 1.415 . S
C3479 C3478 1.355 . S
C3479 C3481 1.419 . S
C3480 C3478 1.415 . S
C3480 C3485 1.425 . S
C3480 C3487 1.409 . S
C3481 H3473 0.930 . S
C3481 C3479 1.419 . S
C3481 C3482 1.362 . S
C3482 H3474 0.930 . S
C3482 C3481 1.362 . S
C3482 C3485 1.409 . S
C3483 H3475 0.930 . S
C3483 C3484 1.355 . S
C3483 C3485 1.415 . S
C3484 C3483 1.355 . S
C3484 C3486 1.419 . S
C3485 C3480 1.425 . S
C3485 C3482 1.409 . S
C3485 C3483 1.415 . S
C3486 H3476 0.930 . S
C3486 C3484 1.419 . S
C3486 C3487 1.362 . S
C3487 H3477 0.930 . S
C3487 C3480 1.409 . S
C3487 C3486 1.362 . S
H3488 C3494 0.930 . S
H3489 C3497 0.930 . S
H3490 C3498 0.930 . S
H3491 C3499 0.930 . S
H3492 C3502 0.930 . S
H3493 C3503 0.930 1_655 S
C3494 H3488 0.930 . S
C3494 C3495 1.355 . S
C3494 C3496 1.415 . S
C3495 C3494 1.355 . S
C3495 C3497 1.419 . S
C3496 C3494 1.415 . S
C3496 C3501 1.425 . S
C3496 C3503 1.409 . S
C3497 H3489 0.930 . S
C3497 C3495 1.419 . S
C3497 C3498 1.362 . S
C3498 H3490 0.930 . S
C3498 C3497 1.362 . S
C3498 C3501 1.409 . S
C3499 H3491 0.930 . S
C3499 C3500 1.355 . S
C3499 C3501 1.415 . S
C3500 C3499 1.355 . S
C3500 C3502 1.419 1_455 S
C3501 C3496 1.425 . S
C3501 C3498 1.409 . S
C3501 C3499 1.415 . S
C3502 H3492 0.930 . S
C3502 C3500 1.419 1_655 S
C3502 C3503 1.362 1_655 S
C3503 H3493 0.930 1_455 S
C3503 C3496 1.409 . S
C3503 C3502 1.362 1_455 S
H3504 C3510 0.930 . S
H3505 C3513 0.930 . S
H3506 C3514 0.930 . S
H3507 C3515 0.930 . S
H3508 C3518 0.930 . S
H3509 C3519 0.930 . S
C3510 H3504 0.930 . S
C3510 C3511 1.355 . S
C3510 C3512 1.415 . S
C3511 C3510 1.355 . S
C3511 C3513 1.419 . S
C3512 C3510 1.415 . S
C3512 C3517 1.425 . S
C3512 C3519 1.409 . S
C3513 H3505 0.930 . S
C3513 C3511 1.419 . S
C3513 C3514 1.362 . S
C3514 H3506 0.930 . S
C3514 C3513 1.362 . S
C3514 C3517 1.409 . S
C3515 H3507 0.930 . S
C3515 C3516 1.355 . S
C3515 C3517 1.415 . S
C3516 C3515 1.355 . S
C3516 C3518 1.419 . S
C3517 C3512 1.425 . S
C3517 C3514 1.409 . S
C3517 C3515 1.415 . S
C3518 H3508 0.930 . S
C3518 C3516 1.419 . S
C3518 C3519 1.362 . S
C3519 H3509 0.930 . S
C3519 C3512 1.409 . S
C3519 C3518 1.362 . S
H3520 C3526 0.930 . S
H3521 C3529 0.930 . S
H3522 C3530 0.930 1_655 S
H3523 C3531 0.930 . S
H3524 C3534 0.930 . S
H3525 C3535 0.930 . S
C3526 H3520 0.930 . S
C3526 C3527 1.355 . S
C3526 C3528 1.415 . S
C3527 C3526 1.355 . S
C3527 C3529 1.419 . S
C3528 C3526 1.415 . S
C3528 C3533 1.425 . S
C3528 C3535 1.409 . S
C3529 H3521 0.930 . S
C3529 C3527 1.419 . S
C3529 C3530 1.362 . S
C3530 H3522 0.930 1_455 S
C3530 C3529 1.362 . S
C3530 C3533 1.409 . S
C3531 H3523 0.930 . S
C3531 C3532 1.355 1_655 S
C3531 C3533 1.415 1_655 S
C3532 C3531 1.355 1_455 S
C3532 C3534 1.419 . S
C3533 C3528 1.425 . S
C3533 C3530 1.409 . S
C3533 C3531 1.415 1_455 S
C3534 H3524 0.930 . S
C3534 C3532 1.419 . S
C3534 C3535 1.362 . S
C3535 H3525 0.930 . S
C3535 C3528 1.409 . S
C3535 C3534 1.362 . S
H3536 C3542 0.930 . S
H3537 C3545 0.930 . S
H3538 C3546 0.930 . S
H3539 C3547 0.930 . S
H3540 C3550 0.930 . S
H3541 C3551 0.930 . S
C3542 H3536 0.930 . S
C3542 C3543 1.363 . S
C3542 C3544 1.415 . S
C3543 C3542 1.363 . S
C3543 C3545 1.416 1_545 S
C3544 C3542 1.415 . S
C3544 C3549 1.425 . S
C3544 C3551 1.409 . S
C3545 H3537 0.930 . S
C3545 C3543 1.416 1_565 S
C3545 C3546 1.362 1_565 S
C3546 H3538 0.930 . S
C3546 C3545 1.362 1_545 S
C3546 C3549 1.409 . S
C3547 H3539 0.930 . S
C3547 C3548 1.355 . S
C3547 C3549 1.415 . S
C3548 C3547 1.355 . S
C3548 C3550 1.419 . S
C3549 C3544 1.425 . S
C3549 C3546 1.409 . S
C3549 C3547 1.415 . S
C3550 H3540 0.930 . S
C3550 C3548 1.419 . S
C3550 C3551 1.362 . S
C3551 H3541 0.930 . S
C3551 C3544 1.409 . S
C3551 C3550 1.362 . S
H3552 C3558 0.930 . S
H3553 C3561 0.930 . S
H3554 C3562 0.930 . S
H3555 C3563 0.930 . S
H3556 C3566 0.930 . S
H3557 C3567 0.930 . S
C3558 H3552 0.930 . S
C3558 C3559 1.355 . S
C3558 C3560 1.415 . S
C3559 C3558 1.355 . S
C3559 C3561 1.419 . S
C3560 C3558 1.415 . S
C3560 C3565 1.425 . S
C3560 C3567 1.409 . S
C3561 H3553 0.930 . S
C3561 C3559 1.419 . S
C3561 C3562 1.362 . S
C3562 H3554 0.930 . S
C3562 C3561 1.362 . S
C3562 C3565 1.409 . S
C3563 H3555 0.930 . S
C3563 C3564 1.355 . S
C3563 C3565 1.415 . S
C3564 C3563 1.355 . S
C3564 C3566 1.419 . S
C3565 C3560 1.425 . S
C3565 C3562 1.409 . S
C3565 C3563 1.415 . S
C3566 H3556 0.930 . S
C3566 C3564 1.419 . S
C3566 C3567 1.362 . S
C3567 H3557 0.930 . S
C3567 C3560 1.409 . S
C3567 C3566 1.362 . S
H3568 C3574 0.930 . S
H3569 C3577 0.930 . S
H3570 C3578 0.930 . S
H3571 C3579 0.930 . S
H3572 C3582 0.930 . S
H3573 C3583 0.930 . S
C3574 H3568 0.930 . S
C3574 C3575 1.355 . S
C3574 C3576 1.415 . S
C3575 C3574 1.355 . S
C3575 C3577 1.419 . S
C3576 C3574 1.415 . S
C3576 C3581 1.425 . S
C3576 C3583 1.409 1_554 S
C3577 H3569 0.930 . S
C3577 C3575 1.419 . S
C3577 C3578 1.362 . S
C3578 H3570 0.930 . S
C3578 C3577 1.362 . S
C3578 C3581 1.409 . S
C3579 H3571 0.930 . S
C3579 C3580 1.301 1_554 S
C3579 C3581 1.415 . S
C3580 C3579 1.301 1_556 S
C3580 C3582 1.453 . S
C3581 C3576 1.425 . S
C3581 C3578 1.409 . S
C3581 C3579 1.415 . S
C3582 H3572 0.930 . S
C3582 C3580 1.453 . S
C3582 C3583 1.362 . S
C3583 H3573 0.930 . S
C3583 C3576 1.409 1_556 S
C3583 C3582 1.362 . S
H3584 C3590 0.930 . S
H3585 C3593 0.930 . S
H3586 C3594 0.930 . S
H3587 C3595 0.930 . S
H3588 C3598 0.930 . S
H3589 C3599 0.930 . S
C3590 H3584 0.930 . S
C3590 C3591 1.355 . S
C3590 C3592 1.415 . S
C3591 C3590 1.355 . S
C3591 C3593 1.419 . S
C3592 C3590 1.415 . S
C3592 C3597 1.425 . S
C3592 C3599 1.409 . S
C3593 H3585 0.930 . S
C3593 C3591 1.419 . S
C3593 C3594 1.362 . S
C3594 H3586 0.930 . S
C3594 C3593 1.362 . S
C3594 C3597 1.409 . S
C3595 H3587 0.930 . S
C3595 C3596 1.355 . S
C3595 C3597 1.415 . S
C3596 C3595 1.355 . S
C3596 C3598 1.419 . S
C3597 C3592 1.425 . S
C3597 C3594 1.409 . S
C3597 C3595 1.415 . S
C3598 H3588 0.930 . S
C3598 C3596 1.419 . S
C3598 C3599 1.362 . S
C3599 H3589 0.930 . S
C3599 C3592 1.409 . S
C3599 C3598 1.362 . S
H3600 C3606 0.930 . S
H3601 C3609 0.930 . S
H3602 C3610 0.930 . S
H3603 C3611 0.930 . S
H3604 C3614 0.930 . S
H3605 C3615 0.930 . S
C3606 H3600 0.930 . S
C3606 C3607 1.355 . S
C3606 C3608 1.415 . S
C3607 C3606 1.355 . S
C3607 C3609 1.419 . S
C3608 C3606 1.415 . S
C3608 C3613 1.425 . S
C3608 C3615 1.409 . S
C3609 H3601 0.930 . S
C3609 C3607 1.419 . S
C3609 C3610 1.362 . S
C3610 H3602 0.930 . S
C3610 C3609 1.362 . S
C3610 C3613 1.409 . S
C3611 H3603 0.930 . S
C3611 C3612 1.355 . S
C3611 C3613 1.415 . S
C3612 C3611 1.355 . S
C3612 C3614 1.419 . S
C3613 C3608 1.425 . S
C3613 C3610 1.409 . S
C3613 C3611 1.415 . S
C3614 H3604 0.930 . S
C3614 C3612 1.419 . S
C3614 C3615 1.362 . S
C3615 H3605 0.930 . S
C3615 C3608 1.409 . S
C3615 C3614 1.362 . S
H3616 C3622 0.930 . S
H3617 C3625 0.930 . S
H3618 C3626 0.930 . S
H3619 C3627 0.930 . S
H3620 C3630 0.930 . S
H3621 C3631 0.930 . S
C3622 H3616 0.930 . S
C3622 C3623 1.355 . S
C3622 C3624 1.415 . S
C3623 C3622 1.355 . S
C3623 C3625 1.419 . S
C3624 C3622 1.415 . S
C3624 C3629 1.425 . S
C3624 C3631 1.409 . S
C3625 H3617 0.930 . S
C3625 C3623 1.419 . S
C3625 C3626 1.362 . S
C3626 H3618 0.930 . S
C3626 C3625 1.362 . S
C3626 C3629 1.409 . S
C3627 H3619 0.930 . S
C3627 C3628 1.355 . S
C3627 C3629 1.415 . S
C3628 C3627 1.355 . S
C3628 C3630 1.419 . S
C3629 C3624 1.425 . S
C3629 C3626 1.409 . S
C3629 C3627 1.415 . S
C3630 H3620 0.930 . S
C3630 C3628 1.419 . S
C3630 C3631 1.362 . S
C3631 H3621 0.930 . S
C3631 C3624 1.409 . S
C3631 C3630 1.362 . S
H3632 C3638 0.930 . S
H3633 C3641 0.930 . S
H3634 C3642 0.930 . S
H3635 C3643 0.930 . S
H3636 C3646 0.930 . S
H3637 C3647 0.930 . S
C3638 H3632 0.930 . S
C3638 C3639 1.355 . S
C3638 C3640 1.415 . S
C3639 C3638 1.355 . S
C3639 C3641 1.419 . S
C3640 C3638 1.415 . S
C3640 C3645 1.425 . S
C3640 C3647 1.409 . S
C3641 H3633 0.930 . S
C3641 C3639 1.419 . S
C3641 C3642 1.362 . S
C3642 H3634 0.930 . S
C3642 C3641 1.362 . S
C3642 C3645 1.409 . S
C3643 H3635 0.930 . S
C3643 C3644 1.355 . S
C3643 C3645 1.415 . S
C3644 C3643 1.355 . S
C3644 C3646 1.419 . S
C3645 C3640 1.425 . S
C3645 C3642 1.409 . S
C3645 C3643 1.415 . S
C3646 H3636 0.930 . S
C3646 C3644 1.419 . S
C3646 C3647 1.362 . S
C3647 H3637 0.930 . S
C3647 C3640 1.409 . S
C3647 C3646 1.362 . S
H3648 C3654 0.930 . S
H3649 C3657 0.930 . S
H3650 C3658 0.930 . S
H3651 C3659 0.930 . S
H3652 C3662 0.930 . S
H3653 C3663 0.930 . S
C3654 H3648 0.930 . S
C3654 C3655 1.355 . S
C3654 C3656 1.415 . S
C3655 C3654 1.355 . S
C3655 C3657 1.419 . S
C3656 C3654 1.415 . S
C3656 C3661 1.425 . S
C3656 C3663 1.409 . S
C3657 H3649 0.930 . S
C3657 C3655 1.419 . S
C3657 C3658 1.362 . S
C3658 H3650 0.930 . S
C3658 C3657 1.362 . S
C3658 C3661 1.409 . S
C3659 H3651 0.930 . S
C3659 C3660 1.366 . S
C3659 C3661 1.415 . S
C3660 C3659 1.366 . S
C3660 C3662 1.416 1_554 S
C3661 C3656 1.425 . S
C3661 C3658 1.409 . S
C3661 C3659 1.415 . S
C3662 H3652 0.930 . S
C3662 C3660 1.416 1_556 S
C3662 C3663 1.362 1_556 S
C3663 H3653 0.930 . S
C3663 C3656 1.409 . S
C3663 C3662 1.362 1_554 S
H3664 C3670 0.930 . S
H3665 C3673 0.930 . S
H3666 C3674 0.930 . S
H3667 C3675 0.930 . S
H3668 C3678 0.930 . S
H3669 C3679 0.930 1_556 S
C3670 H3664 0.930 . S
C3670 C3671 1.355 1_556 S
C3670 C3672 1.415 1_556 S
C3671 C3670 1.355 1_554 S
C3671 C3673 1.419 . S
C3672 C3670 1.415 1_554 S
C3672 C3677 1.425 . S
C3672 C3679 1.409 . S
C3673 H3665 0.930 . S
C3673 C3671 1.419 . S
C3673 C3674 1.362 . S
C3674 H3666 0.930 . S
C3674 C3673 1.362 . S
C3674 C3677 1.409 . S
C3675 H3667 0.930 . S
C3675 C3676 1.355 . S
C3675 C3677 1.415 . S
C3676 C3675 1.355 . S
C3676 C3678 1.419 . S
C3677 C3672 1.425 . S
C3677 C3674 1.409 . S
C3677 C3675 1.415 . S
C3678 H3668 0.930 . S
C3678 C3676 1.419 . S
C3678 C3679 1.362 . S
C3679 H3669 0.930 1_554 S
C3679 C3672 1.409 . S
C3679 C3678 1.362 . S
H3680 C3686 0.930 . S
H3681 C3689 0.930 . S
H3682 C3690 0.930 1_556 S
H3683 C3691 0.930 . S
H3684 C3694 0.930 . S
H3685 C3695 0.930 . S
C3686 H3680 0.930 . S
C3686 C3687 1.355 . S
C3686 C3688 1.415 . S
C3687 C3686 1.355 . S
C3687 C3689 1.419 . S
C3688 C3686 1.415 . S
C3688 C3693 1.425 . S
C3688 C3695 1.409 . S
C3689 H3681 0.930 . S
C3689 C3687 1.419 . S
C3689 C3690 1.362 . S
C3690 H3682 0.930 1_554 S
C3690 C3689 1.362 . S
C3690 C3693 1.409 . S
C3691 H3683 0.930 . S
C3691 C3692 1.355 1_556 S
C3691 C3693 1.415 1_556 S
C3692 C3691 1.355 1_554 S
C3692 C3694 1.419 . S
C3693 C3688 1.425 . S
C3693 C3690 1.409 . S
C3693 C3691 1.415 1_554 S
C3694 H3684 0.930 . S
C3694 C3692 1.419 . S
C3694 C3695 1.362 . S
C3695 H3685 0.930 . S
C3695 C3688 1.409 . S
C3695 C3694 1.362 . S
H3696 C3702 0.930 . S
H3697 C3705 0.930 . S
H3698 C3706 0.930 . S
H3699 C3707 0.930 . S
H3700 C3710 0.930 . S
H3701 C3711 0.930 . S
C3702 H3696 0.930 . S
C3702 C3703 1.324 1_655 S
C3702 C3704 1.415 . S
C3703 C3702 1.324 1_455 S
C3703 C3705 1.437 . S
C3704 C3702 1.415 . S
C3704 C3709 1.425 . S
C3704 C3711 1.409 . S
C3705 H3697 0.930 . S
C3705 C3703 1.437 . S
C3705 C3706 1.362 . S
C3706 H3698 0.930 . S
C3706 C3705 1.362 . S
C3706 C3709 1.409 1_455 S
C3707 H3699 0.930 . S
C3707 C3708 1.355 . S
C3707 C3709 1.415 . S
C3708 C3707 1.355 . S
C3708 C3710 1.419 . S
C3709 C3704 1.425 . S
C3709 C3706 1.409 1_655 S
C3709 C3707 1.415 . S
C3710 H3700 0.930 . S
C3710 C3708 1.419 . S
C3710 C3711 1.362 . S
C3711 H3701 0.930 . S
C3711 C3704 1.409 . S
C3711 C3710 1.362 . S
H3712 C3718 0.930 . S
H3713 C3721 0.930 . S
H3714 C3722 0.930 . S
H3715 C3723 0.930 . S
H3716 C3726 0.930 . S
H3717 C3727 0.930 1_545 S
C3718 H3712 0.930 . S
C3718 C3719 1.355 . S
C3718 C3720 1.415 . S
C3719 C3718 1.355 . S
C3719 C3721 1.419 . S
C3720 C3718 1.415 . S
C3720 C3725 1.425 . S
C3720 C3727 1.409 . S
C3721 H3713 0.930 . S
C3721 C3719 1.419 . S
C3721 C3722 1.362 . S
C3722 H3714 0.930 . S
C3722 C3721 1.362 . S
C3722 C3725 1.409 . S
C3723 H3715 0.930 . S
C3723 C3724 1.359 1_565 S
C3723 C3725 1.415 . S
C3724 C3723 1.359 1_545 S
C3724 C3726 1.417 . S
C3725 C3720 1.425 . S
C3725 C3722 1.409 . S
C3725 C3723 1.415 . S
C3726 H3716 0.930 . S
C3726 C3724 1.417 . S
C3726 C3727 1.362 1_545 S
C3727 H3717 0.930 1_565 S
C3727 C3720 1.409 . S
C3727 C3726 1.362 1_565 S
H3728 C3734 0.930 . S
H3729 C3737 0.930 . S
H3730 C3738 0.930 . S
H3731 C3739 0.930 . S
H3732 C3742 0.930 . S
H3733 C3743 0.930 . S
C3734 H3728 0.930 . S
C3734 C3735 1.355 . S
C3734 C3736 1.415 . S
C3735 C3734 1.355 . S
C3735 C3737 1.419 . S
C3736 C3734 1.415 . S
C3736 C3741 1.425 . S
C3736 C3743 1.409 . S
C3737 H3729 0.930 . S
C3737 C3735 1.419 . S
C3737 C3738 1.362 . S
C3738 H3730 0.930 . S
C3738 C3737 1.362 . S
C3738 C3741 1.409 . S
C3739 H3731 0.930 . S
C3739 C3740 1.355 . S
C3739 C3741 1.415 . S
C3740 C3739 1.355 . S
C3740 C3742 1.419 . S
C3741 C3736 1.425 . S
C3741 C3738 1.409 . S
C3741 C3739 1.415 . S
C3742 H3732 0.930 . S
C3742 C3740 1.419 . S
C3742 C3743 1.362 . S
C3743 H3733 0.930 . S
C3743 C3736 1.409 . S
C3743 C3742 1.362 . S
H3744 C3750 0.930 . S
H3745 C3753 0.930 . S
H3746 C3754 0.930 . S
H3747 C3755 0.930 . S
H3748 C3758 0.930 . S
H3749 C3759 0.930 . S
C3750 H3744 0.930 . S
C3750 C3751 1.355 . S
C3750 C3752 1.415 . S
C3751 C3750 1.355 . S
C3751 C3753 1.419 . S
C3752 C3750 1.415 . S
C3752 C3757 1.425 . S
C3752 C3759 1.409 . S
C3753 H3745 0.930 . S
C3753 C3751 1.419 . S
C3753 C3754 1.362 . S
C3754 H3746 0.930 . S
C3754 C3753 1.362 . S
C3754 C3757 1.409 . S
C3755 H3747 0.930 . S
C3755 C3756 1.355 . S
C3755 C3757 1.415 . S
C3756 C3755 1.355 . S
C3756 C3758 1.419 . S
C3757 C3752 1.425 . S
C3757 C3754 1.409 . S
C3757 C3755 1.415 . S
C3758 H3748 0.930 . S
C3758 C3756 1.419 . S
C3758 C3759 1.362 . S
C3759 H3749 0.930 . S
C3759 C3752 1.409 . S
C3759 C3758 1.362 . S
H3760 C3766 0.930 . S
H3761 C3769 0.930 . S
H3762 C3770 0.930 1_455 S
H3763 C3771 0.930 . S
H3764 C3774 0.930 . S
H3765 C3775 0.930 . S
C3766 H3760 0.930 . S
C3766 C3767 1.355 . S
C3766 C3768 1.415 . S
C3767 C3766 1.355 . S
C3767 C3769 1.419 . S
C3768 C3766 1.415 . S
C3768 C3773 1.425 . S
C3768 C3775 1.409 . S
C3769 H3761 0.930 . S
C3769 C3767 1.419 . S
C3769 C3770 1.362 . S
C3770 H3762 0.930 1_655 S
C3770 C3769 1.362 . S
C3770 C3773 1.409 . S
C3771 H3763 0.930 . S
C3771 C3772 1.355 1_455 S
C3771 C3773 1.415 1_455 S
C3772 C3771 1.355 1_655 S
C3772 C3774 1.419 . S
C3773 C3768 1.425 . S
C3773 C3770 1.409 . S
C3773 C3771 1.415 1_655 S
C3774 H3764 0.930 . S
C3774 C3772 1.419 . S
C3774 C3775 1.362 . S
C3775 H3765 0.930 . S
C3775 C3768 1.409 . S
C3775 C3774 1.362 . S
H3776 C3782 0.930 1_545 S
H3777 C3785 0.930 . S
H3778 C3786 0.930 . S
H3779 C3787 0.930 . S
H3780 C3790 0.930 . S
H3781 C3791 0.930 . S
C3782 H3776 0.930 1_565 S
C3782 C3783 1.359 . S
C3782 C3784 1.415 . S
C3783 C3782 1.359 . S
C3783 C3785 1.435 . S
C3784 C3782 1.415 . S
C3784 C3789 1.425 . S
C3784 C3791 1.409 . S
C3785 H3777 0.930 . S
C3785 C3783 1.435 . S
C3785 C3786 1.362 . S
C3786 H3778 0.930 . S
C3786 C3785 1.362 . S
C3786 C3789 1.409 . S
C3787 H3779 0.930 . S
C3787 C3788 1.355 . S
C3787 C3789 1.415 . S
C3788 C3787 1.355 . S
C3788 C3790 1.419 . S
C3789 C3784 1.425 . S
C3789 C3786 1.409 . S
C3789 C3787 1.415 . S
C3790 H3780 0.930 . S
C3790 C3788 1.419 . S
C3790 C3791 1.362 . S
C3791 H3781 0.930 . S
C3791 C3784 1.409 . S
C3791 C3790 1.362 . S
H3792 C3798 0.930 . S
H3793 C3801 0.930 . S
H3794 C3802 0.930 . S
H3795 C3803 0.930 . S
H3796 C3806 0.930 . S
H3797 C3807 0.930 . S
C3798 H3792 0.930 . S
C3798 C3799 1.355 . S
C3798 C3800 1.415 . S
C3799 C3798 1.355 . S
C3799 C3801 1.419 . S
C3800 C3798 1.415 . S
C3800 C3805 1.425 . S
C3800 C3807 1.409 . S
C3801 H3793 0.930 . S
C3801 C3799 1.419 . S
C3801 C3802 1.362 . S
C3802 H3794 0.930 . S
C3802 C3801 1.362 . S
C3802 C3805 1.409 . S
C3803 H3795 0.930 . S
C3803 C3804 1.355 . S
C3803 C3805 1.415 . S
C3804 C3803 1.355 . S
C3804 C3806 1.419 . S
C3805 C3800 1.425 . S
C3805 C3802 1.409 . S
C3805 C3803 1.415 . S
C3806 H3796 0.930 . S
C3806 C3804 1.419 . S
C3806 C3807 1.362 . S
C3807 H3797 0.930 . S
C3807 C3800 1.409 . S
C3807 C3806 1.362 . S
H3808 C3814 0.930 . S
H3809 C3817 0.930 . S
H3810 C3818 0.930 . S
H3811 C3819 0.930 . S
H3812 C3822 0.930 . S
H3813 C3823 0.930 . S
C3814 H3808 0.930 . S
C3814 C3815 1.355 . S
C3814 C3816 1.415 . S
C3815 C3814 1.355 . S
C3815 C3817 1.419 . S
C3816 C3814 1.415 . S
C3816 C3821 1.425 . S
C3816 C3823 1.409 . S
C3817 H3809 0.930 . S
C3817 C3815 1.419 . S
C3817 C3818 1.362 . S
C3818 H3810 0.930 . S
C3818 C3817 1.362 . S
C3818 C3821 1.409 . S
C3819 H3811 0.930 . S
C3819 C3820 1.355 . S
C3819 C3821 1.415 . S
C3820 C3819 1.355 . S
C3820 C3822 1.419 . S
C3821 C3816 1.425 . S
C3821 C3818 1.409 . S
C3821 C3819 1.415 . S
C3822 H3812 0.930 . S
C3822 C3820 1.419 . S
C3822 C3823 1.362 . S
C3823 H3813 0.930 . S
C3823 C3816 1.409 . S
C3823 C3822 1.362 . S
H3824 C3830 0.930 . S
H3825 C3833 0.930 . S
H3826 C3834 0.930 . S
H3827 C3835 0.930 . S
H3828 C3838 0.930 . S
H3829 C3839 0.930 . S
C3830 H3824 0.930 . S
C3830 C3831 1.355 . S
C3830 C3832 1.415 . S
C3831 C3830 1.355 . S
C3831 C3833 1.419 . S
C3832 C3830 1.415 . S
C3832 C3837 1.425 . S
C3832 C3839 1.409 1_565 S
C3833 H3825 0.930 . S
C3833 C3831 1.419 . S
C3833 C3834 1.362 . S
C3834 H3826 0.930 . S
C3834 C3833 1.362 . S
C3834 C3837 1.409 . S
C3835 H3827 0.930 . S
C3835 C3836 1.309 1_565 S
C3835 C3837 1.415 . S
C3836 C3835 1.309 1_545 S
C3836 C3838 1.448 . S
C3837 C3832 1.425 . S
C3837 C3834 1.409 . S
C3837 C3835 1.415 . S
C3838 H3828 0.930 . S
C3838 C3836 1.448 . S
C3838 C3839 1.362 . S
C3839 H3829 0.930 . S
C3839 C3832 1.409 1_545 S
C3839 C3838 1.362 . S
H3840 C3846 0.930 . S
H3841 C3849 0.930 . S
H3842 C3850 0.930 . S
H3843 C3851 0.930 . S
H3844 C3854 0.930 . S
H3845 C3855 0.930 . S
C3846 H3840 0.930 . S
C3846 C3847 1.355 . S
C3846 C3848 1.415 . S
C3847 C3846 1.355 . S
C3847 C3849 1.419 . S
C3848 C3846 1.415 . S
C3848 C3853 1.425 . S
C3848 C3855 1.409 . S
C3849 H3841 0.930 . S
C3849 C3847 1.419 . S
C3849 C3850 1.362 . S
C3850 H3842 0.930 . S
C3850 C3849 1.362 . S
C3850 C3853 1.409 . S
C3851 H3843 0.930 . S
C3851 C3852 1.355 . S
C3851 C3853 1.415 . S
C3852 C3851 1.355 . S
C3852 C3854 1.419 . S
C3853 C3848 1.425 . S
C3853 C3850 1.409 . S
C3853 C3851 1.415 . S
C3854 H3844 0.930 . S
C3854 C3852 1.419 . S
C3854 C3855 1.362 . S
C3855 H3845 0.930 . S
C3855 C3848 1.409 . S
C3855 C3854 1.362 . S
H3856 C3862 0.930 . S
H3857 C3865 0.930 . S
H3858 C3866 0.930 . S
H3859 C3867 0.930 . S
H3860 C3870 0.930 . S
H3861 C3871 0.930 . S
C3862 H3856 0.930 . S
C3862 C3863 1.355 . S
C3862 C3864 1.415 . S
C3863 C3862 1.355 . S
C3863 C3865 1.419 . S
C3864 C3862 1.415 . S
C3864 C3869 1.425 . S
C3864 C3871 1.409 . S
C3865 H3857 0.930 . S
C3865 C3863 1.419 . S
C3865 C3866 1.362 . S
C3866 H3858 0.930 . S
C3866 C3865 1.362 . S
C3866 C3869 1.409 . S
C3867 H3859 0.930 . S
C3867 C3868 1.355 . S
C3867 C3869 1.415 . S
C3868 C3867 1.355 . S
C3868 C3870 1.419 . S
C3869 C3864 1.425 . S
C3869 C3866 1.409 . S
C3869 C3867 1.415 . S
C3870 H3860 0.930 . S
C3870 C3868 1.419 . S
C3870 C3871 1.362 . S
C3871 H3861 0.930 . S
C3871 C3864 1.409 . S
C3871 C3870 1.362 . S
H3872 C3878 0.930 . S
H3873 C3881 0.930 . S
H3874 C3882 0.930 . S
H3875 C3883 0.930 . S
H3876 C3886 0.930 . S
H3877 C3887 0.930 . S
C3878 H3872 0.930 . S
C3878 C3879 1.355 1_655 S
C3878 C3880 1.415 . S
C3879 C3878 1.355 1_455 S
C3879 C3881 1.419 . S
C3880 C3878 1.415 . S
C3880 C3885 1.425 . S
C3880 C3887 1.409 . S
C3881 H3873 0.930 . S
C3881 C3879 1.419 . S
C3881 C3882 1.362 . S
C3882 H3874 0.930 . S
C3882 C3881 1.362 . S
C3882 C3885 1.409 1_455 S
C3883 H3875 0.930 . S
C3883 C3884 1.355 . S
C3883 C3885 1.415 . S
C3884 C3883 1.355 . S
C3884 C3886 1.419 . S
C3885 C3880 1.425 . S
C3885 C3882 1.409 1_655 S
C3885 C3883 1.415 . S
C3886 H3876 0.930 . S
C3886 C3884 1.419 . S
C3886 C3887 1.362 . S
C3887 H3877 0.930 . S
C3887 C3880 1.409 . S
C3887 C3886 1.362 . S
H3888 C3894 0.930 . S
H3889 C3897 0.930 . S
H3890 C3898 0.930 . S
H3891 C3899 0.930 . S
H3892 C3902 0.930 . S
H3893 C3903 0.930 . S
C3894 H3888 0.930 . S
C3894 C3895 1.355 . S
C3894 C3896 1.415 . S
C3895 C3894 1.355 . S
C3895 C3897 1.419 . S
C3896 C3894 1.415 . S
C3896 C3901 1.425 . S
C3896 C3903 1.409 . S
C3897 H3889 0.930 . S
C3897 C3895 1.419 . S
C3897 C3898 1.362 . S
C3898 H3890 0.930 . S
C3898 C3897 1.362 . S
C3898 C3901 1.409 . S
C3899 H3891 0.930 . S
C3899 C3900 1.355 . S
C3899 C3901 1.415 . S
C3900 C3899 1.355 . S
C3900 C3902 1.419 . S
C3901 C3896 1.425 . S
C3901 C3898 1.409 . S
C3901 C3899 1.415 . S
C3902 H3892 0.930 . S
C3902 C3900 1.419 . S
C3902 C3903 1.362 . S
C3903 H3893 0.930 . S
C3903 C3896 1.409 . S
C3903 C3902 1.362 . S
H3904 C3910 0.930 . S
H3905 C3913 0.930 . S
H3906 C3914 0.930 . S
H3907 C3915 0.930 . S
H3908 C3918 0.930 . S
H3909 C3919 0.930 . S
C3910 H3904 0.930 . S
C3910 C3911 1.363 . S
C3910 C3912 1.415 . S
C3911 C3910 1.363 . S
C3911 C3913 1.416 1_655 S
C3912 C3910 1.415 . S
C3912 C3917 1.425 . S
C3912 C3919 1.409 . S
C3913 H3905 0.930 . S
C3913 C3911 1.416 1_455 S
C3913 C3914 1.362 1_455 S
C3914 H3906 0.930 . S
C3914 C3913 1.362 1_655 S
C3914 C3917 1.409 . S
C3915 H3907 0.930 . S
C3915 C3916 1.355 . S
C3915 C3917 1.415 . S
C3916 C3915 1.355 . S
C3916 C3918 1.419 . S
C3917 C3912 1.425 . S
C3917 C3914 1.409 . S
C3917 C3915 1.415 . S
C3918 H3908 0.930 . S
C3918 C3916 1.419 . S
C3918 C3919 1.362 . S
C3919 H3909 0.930 . S
C3919 C3912 1.409 . S
C3919 C3918 1.362 . S
H3920 C3926 0.930 . S
H3921 C3929 0.930 . S
H3922 C3930 0.930 . S
H3923 C3931 0.930 . S
H3924 C3934 0.930 . S
H3925 C3935 0.930 1_545 S
C3926 H3920 0.930 . S
C3926 C3927 1.355 1_545 S
C3926 C3928 1.415 1_545 S
C3927 C3926 1.355 1_565 S
C3927 C3929 1.419 . S
C3928 C3926 1.415 1_565 S
C3928 C3933 1.425 . S
C3928 C3935 1.409 . S
C3929 H3921 0.930 . S
C3929 C3927 1.419 . S
C3929 C3930 1.362 . S
C3930 H3922 0.930 . S
C3930 C3929 1.362 . S
C3930 C3933 1.409 . S
C3931 H3923 0.930 . S
C3931 C3932 1.355 . S
C3931 C3933 1.415 . S
C3932 C3931 1.355 . S
C3932 C3934 1.419 . S
C3933 C3928 1.425 . S
C3933 C3930 1.409 . S
C3933 C3931 1.415 . S
C3934 H3924 0.930 . S
C3934 C3932 1.419 . S
C3934 C3935 1.362 . S
C3935 H3925 0.930 1_565 S
C3935 C3928 1.409 . S
C3935 C3934 1.362 . S
H3936 C3942 0.930 . S
H3937 C3945 0.930 . S
H3938 C3946 0.930 . S
H3939 C3947 0.930 . S
H3940 C3950 0.930 . S
H3941 C3951 0.930 . S
C3942 H3936 0.930 . S
C3942 C3943 1.355 . S
C3942 C3944 1.415 . S
C3943 C3942 1.355 . S
C3943 C3945 1.419 . S
C3944 C3942 1.415 . S
C3944 C3949 1.425 . S
C3944 C3951 1.409 . S
C3945 H3937 0.930 . S
C3945 C3943 1.419 . S
C3945 C3946 1.362 . S
C3946 H3938 0.930 . S
C3946 C3945 1.362 . S
C3946 C3949 1.409 . S
C3947 H3939 0.930 . S
C3947 C3948 1.355 . S
C3947 C3949 1.415 . S
C3948 C3947 1.355 . S
C3948 C3950 1.419 . S
C3949 C3944 1.425 . S
C3949 C3946 1.409 . S
C3949 C3947 1.415 . S
C3950 H3940 0.930 . S
C3950 C3948 1.419 . S
C3950 C3951 1.362 . S
C3951 H3941 0.930 . S
C3951 C3944 1.409 . S
C3951 C3950 1.362 . S
H3952 C3958 0.930 . S
H3953 C3961 0.930 . S
H3954 C3962 0.930 . S
H3955 C3963 0.930 . S
H3956 C3966 0.930 . S
H3957 C3967 0.930 . S
C3958 H3952 0.930 . S
C3958 C3959 1.355 1_556 S
C3958 C3960 1.415 . S
C3959 C3958 1.355 1_554 S
C3959 C3961 1.419 . S
C3960 C3958 1.415 . S
C3960 C3965 1.425 . S
C3960 C3967 1.409 . S
C3961 H3953 0.930 . S
C3961 C3959 1.419 . S
C3961 C3962 1.362 . S
C3962 H3954 0.930 . S
C3962 C3961 1.362 . S
C3962 C3965 1.409 1_554 S
C3963 H3955 0.930 . S
C3963 C3964 1.355 . S
C3963 C3965 1.415 . S
C3964 C3963 1.355 . S
C3964 C3966 1.419 . S
C3965 C3960 1.425 . S
C3965 C3962 1.409 1_556 S
C3965 C3963 1.415 . S
C3966 H3956 0.930 . S
C3966 C3964 1.419 . S
C3966 C3967 1.362 . S
C3967 H3957 0.930 . S
C3967 C3960 1.409 . S
C3967 C3966 1.362 . S
H3968 C3974 0.930 . S
H3969 C3977 0.930 . S
H3970 C3978 0.930 . S
H3971 C3979 0.930 . S
H3972 C3982 0.930 . S
H3973 C3983 0.930 . S
C3974 H3968 0.930 . S
C3974 C3975 1.355 . S
C3974 C3976 1.415 . S
C3975 C3974 1.355 . S
C3975 C3977 1.419 . S
C3976 C3974 1.415 . S
C3976 C3981 1.425 . S
C3976 C3983 1.409 . S
C3977 H3969 0.930 . S
C3977 C3975 1.419 . S
C3977 C3978 1.362 . S
C3978 H3970 0.930 . S
C3978 C3977 1.362 . S
C3978 C3981 1.409 . S
C3979 H3971 0.930 . S
C3979 C3980 1.355 . S
C3979 C3981 1.415 . S
C3980 C3979 1.355 . S
C3980 C3982 1.419 . S
C3981 C3976 1.425 . S
C3981 C3978 1.409 . S
C3981 C3979 1.415 . S
C3982 H3972 0.930 . S
C3982 C3980 1.419 . S
C3982 C3983 1.362 . S
C3983 H3973 0.930 . S
C3983 C3976 1.409 . S
C3983 C3982 1.362 . S
H3984 C3990 0.930 . S
H3985 C3993 0.930 . S
H3986 C3994 0.930 . S
H3987 C3995 0.930 . S
H3988 C3998 0.930 . S
H3989 C3999 0.930 . S
C3990 H3984 0.930 . S
C3990 C3991 1.355 . S
C3990 C3992 1.415 . S
C3991 C3990 1.355 . S
C3991 C3993 1.419 . S
C3992 C3990 1.415 . S
C3992 C3997 1.425 . S
C3992 C3999 1.409 . S
C3993 H3985 0.930 . S
C3993 C3991 1.419 . S
C3993 C3994 1.362 . S
C3994 H3986 0.930 . S
C3994 C3993 1.362 . S
C3994 C3997 1.409 . S
C3995 H3987 0.930 . S
C3995 C3996 1.355 . S
C3995 C3997 1.415 . S
C3996 C3995 1.355 . S
C3996 C3998 1.419 . S
C3997 C3992 1.425 . S
C3997 C3994 1.409 . S
C3997 C3995 1.415 . S
C3998 H3988 0.930 . S
C3998 C3996 1.419 . S
C3998 C3999 1.362 . S
C3999 H3989 0.930 . S
C3999 C3992 1.409 . S
C3999 C3998 1.362 . S
H4000 C4006 0.930 . S
H4001 C4009 0.930 . S
H4002 C4010 0.930 . S
H4003 C4011 0.930 . S
H4004 C4014 0.930 . S
H4005 C4015 0.930 . S
C4006 H4000 0.930 . S
C4006 C4007 1.355 . S
C4006 C4008 1.415 . S
C4007 C4006 1.355 . S
C4007 C4009 1.419 . S
C4008 C4006 1.415 . S
C4008 C4013 1.425 . S
C4008 C4015 1.409 . S
C4009 H4001 0.930 . S
C4009 C4007 1.419 . S
C4009 C4010 1.362 . S
C4010 H4002 0.930 . S
C4010 C4009 1.362 . S
C4010 C4013 1.409 . S
C4011 H4003 0.930 . S
C4011 C4012 1.355 . S
C4011 C4013 1.415 . S
C4012 C4011 1.355 . S
C4012 C4014 1.419 . S
C4013 C4008 1.425 . S
C4013 C4010 1.409 . S
C4013 C4011 1.415 . S
C4014 H4004 0.930 . S
C4014 C4012 1.419 . S
C4014 C4015 1.362 . S
C4015 H4005 0.930 . S
C4015 C4008 1.409 . S
C4015 C4014 1.362 . S
H4016 C4022 0.930 . S
H4017 C4025 0.930 . S
H4018 C4026 0.930 . S
H4019 C4027 0.930 . S
H4020 C4030 0.930 . S
H4021 C4031 0.930 . S
C4022 H4016 0.930 . S
C4022 C4023 1.355 . S
C4022 C4024 1.415 . S
C4023 C4022 1.355 . S
C4023 C4025 1.419 . S
C4024 C4022 1.415 . S
C4024 C4029 1.425 . S
C4024 C4031 1.409 . S
C4025 H4017 0.930 . S
C4025 C4023 1.419 . S
C4025 C4026 1.362 . S
C4026 H4018 0.930 . S
C4026 C4025 1.362 . S
C4026 C4029 1.409 . S
C4027 H4019 0.930 . S
C4027 C4028 1.355 . S
C4027 C4029 1.415 . S
C4028 C4027 1.355 . S
C4028 C4030 1.419 . S
C4029 C4024 1.425 . S
C4029 C4026 1.409 . S
C4029 C4027 1.415 . S
C4030 H4020 0.930 . S
C4030 C4028 1.419 . S
C4030 C4031 1.362 . S
C4031 H4021 0.930 . S
C4031 C4024 1.409 . S
C4031 C4030 1.362 . S
H4032 C4038 0.930 . S
H4033 C4041 0.930 . S
H4034 C4042 0.930 . S
H4035 C4043 0.930 . S
H4036 C4046 0.930 . S
H4037 C4047 0.930 . S
C4038 H4032 0.930 . S
C4038 C4039 1.355 1_556 S
C4038 C4040 1.415 . S
C4039 C4038 1.355 1_554 S
C4039 C4041 1.419 . S
C4040 C4038 1.415 . S
C4040 C4045 1.425 . S
C4040 C4047 1.409 . S
C4041 H4033 0.930 . S
C4041 C4039 1.419 . S
C4041 C4042 1.362 . S
C4042 H4034 0.930 . S
C4042 C4041 1.362 . S
C4042 C4045 1.409 1_554 S
C4043 H4035 0.930 . S
C4043 C4044 1.355 . S
C4043 C4045 1.415 . S
C4044 C4043 1.355 . S
C4044 C4046 1.419 . S
C4045 C4040 1.425 . S
C4045 C4042 1.409 1_556 S
C4045 C4043 1.415 . S
C4046 H4036 0.930 . S
C4046 C4044 1.419 . S
C4046 C4047 1.362 . S
C4047 H4037 0.930 . S
C4047 C4040 1.409 . S
C4047 C4046 1.362 . S
H4048 C4054 0.930 . S
H4049 C4057 0.930 . S
H4050 C4058 0.930 . S
H4051 C4059 0.930 . S
H4052 C4062 0.930 . S
H4053 C4063 0.930 . S
C4054 H4048 0.930 . S
C4054 C4055 1.355 . S
C4054 C4056 1.415 . S
C4055 C4054 1.355 . S
C4055 C4057 1.419 . S
C4056 C4054 1.415 . S
C4056 C4061 1.425 . S
C4056 C4063 1.409 . S
C4057 H4049 0.930 . S
C4057 C4055 1.419 . S
C4057 C4058 1.362 . S
C4058 H4050 0.930 . S
C4058 C4057 1.362 . S
C4058 C4061 1.409 . S
C4059 H4051 0.930 . S
C4059 C4060 1.371 . S
C4059 C4061 1.415 . S
C4060 C4059 1.371 . S
C4060 C4062 1.416 1_556 S
C4061 C4056 1.425 . S
C4061 C4058 1.409 . S
C4061 C4059 1.415 . S
C4062 H4052 0.930 . S
C4062 C4060 1.416 1_554 S
C4062 C4063 1.362 1_554 S
C4063 H4053 0.930 . S
C4063 C4056 1.409 . S
C4063 C4062 1.362 1_556 S
H4064 C4070 0.930 . S
H4065 C4073 0.930 . S
H4066 C4074 0.930 . S
H4067 C4075 0.930 . S
H4068 C4078 0.930 . S
H4069 C4079 0.930 . S
C4070 H4064 0.930 . S
C4070 C4071 1.355 . S
C4070 C4072 1.415 . S
C4071 C4070 1.355 . S
C4071 C4073 1.419 . S
C4072 C4070 1.415 . S
C4072 C4077 1.425 . S
C4072 C4079 1.409 1_556 S
C4073 H4065 0.930 . S
C4073 C4071 1.419 . S
C4073 C4074 1.362 . S
C4074 H4066 0.930 . S
C4074 C4073 1.362 . S
C4074 C4077 1.409 . S
C4075 H4067 0.930 . S
C4075 C4076 1.355 1_556 S
C4075 C4077 1.415 . S
C4076 C4075 1.355 1_554 S
C4076 C4078 1.419 . S
C4077 C4072 1.425 . S
C4077 C4074 1.409 . S
C4077 C4075 1.415 . S
C4078 H4068 0.930 . S
C4078 C4076 1.419 . S
C4078 C4079 1.362 . S
C4079 H4069 0.930 . S
C4079 C4072 1.409 1_554 S
C4079 C4078 1.362 . S
C1399 C5 2.785 . S
C1404 C643 2.814 . S
C1415 C469 2.792 . S
C1420 C34 2.785 . S
C1431 C63 2.847 . S
C1436 C672 2.827 . S
C1447 C92 2.783 . S
C1452 C614 2.807 . S
C1463 C121 2.788 . S
C1468 C527 2.822 . S
C1479 C556 2.785 . S
C1484 C150 2.792 . S
C1495 C585 2.804 . S
C1500 C179 2.839 . S
C1511 C498 2.792 . S
C1516 C208 2.785 . S
C1527 C237 2.844 . S
C1532 C382 2.814 . S
C1543 C266 2.847 . S
C1548 C411 2.830 . S
C1559 C295 2.785 . S
C1564 C440 2.813 . S
C1575 C353 2.796 . S
C1580 C324 2.832 . S
C1591 C701 2.844 . S
C1596 C1339 2.813 . S
C1607 C730 2.789 . S
C1612 C1165 2.823 . S
C1623 C759 2.847 . S
C1628 C1368 2.829 . S
C1639 C788 2.794 . S
C1644 C1310 2.784 . S
C1655 C1223 2.783 . S
C1660 C817 2.804 . S
C1671 C1252 2.845 . S
C1676 C846 2.838 . S
C1687 C1281 2.844 . S
C1692 C875 2.814 . S
C1703 C904 2.845 . S
C1708 C1194 2.838 . S
C1719 C1078 2.847 . S
C1724 C933 2.833 . S
C1735 C962 2.847 . S
C1740 C1107 2.825 . S
C1751 C1136 2.785 . S
C1756 C991 2.815 . S
C1767 C1020 2.783 . S
C1772 C1049 2.799 . S
C1783 C21 1.762 . S
C1788 C1315 1.865 . S
C1799 C50 1.815 . S
C1804 C1344 1.833 . S
C1815 C1170 1.852 . S
C1820 C79 1.795 . S
C1831 C108 1.777 . S
C1836 C1373 1.860 . S
C1847 C1257 1.832 . S
C1852 C137 1.821 . S
C1863 C166 1.772 . S
C1868 C1286 1.853 . S
C1879 C195 1.821 . S
C1884 C1199 1.835 . S
C1895 C224 1.821 . S
C1900 C1228 1.835 . S
C1911 C822 1.851 . S
C1916 C253 1.796 . S
C1927 C851 1.835 . S
C1932 C282 1.821 . S
C1943 C311 1.759 . S
C1948 C880 1.863 . S
C1959 C909 1.834 . S
C1964 C340 1.813 . S
C1975 C369 1.822 . S
C1980 C706 1.834 . S
C1991 C735 1.858 . S
C1996 C398 1.764 . S
C2007 C427 1.758 . S
C2012 C764 1.864 . S
C2023 C793 1.848 . S
C2028 C456 1.802 . S
C2039 C1112 1.865 . S
C2044 C485 1.762 . S
C2055 C514 1.807 . S
C2060 C996 1.836 . S
C2071 C543 1.758 . S
C2076 C1025 1.863 . S
C2087 C572 1.788 . S
C2092 C938 1.856 . S
C2103 C601 1.759 . S
C2108 C967 1.862 . S
C2119 C1054 1.858 . S
C2124 C630 1.765 . S
C2135 C659 1.771 . S
C2140 C1083 1.863 . S
C2151 C1141 1.858 . S
C2156 C688 1.783 . S
C2167 C619 1.858 . S
C2172 C717 1.783 . S
C2183 C648 1.836 . S
C2188 C746 1.820 . S
C2199 C474 1.835 . S
C2204 C775 1.821 . S
C2215 C804 1.808 . S
C2220 C677 1.836 . S
C2231 C833 1.785 . S
C2236 C561 1.846 . S
C2247 C590 1.839 . S
C2252 C862 1.817 . S
C2263 C891 1.795 . S
C2268 C503 1.852 . S
C2279 C532 1.841 . S
C2284 C920 1.796 . S
C2295 C949 1.791 . S
C2300 C126 1.854 . S
C2311 C155 1.863 . S
C2316 C978 1.759 . S
C2327 C1007 1.786 . S
C2332 C184 1.857 . S
C2343 C1036 1.784 . S
C2348 C213 1.858 . S
C2359 C10 1.833 . S
C2364 C1065 1.816 . S
C2375 C1094 1.785 . S
C2380 C39 1.846 . S
C2391 C68 1.842 . S
C2396 C1123 1.794 . S
C2407 C1152 1.816 . S
C2412 C97 1.840 . S
C2423 C1181 1.758 . S
C2428 C416 1.864 . S
C2439 C300 1.835 . S
C2444 C1210 1.821 . S
C2455 C1239 1.761 . S
C2460 C329 1.861 . S
C2471 C242 1.856 . S
C2476 C1268 1.769 . S
C2487 C1297 1.816 . S
C2492 C271 1.839 . S
C2503 C358 1.859 . S
C2508 C1326 1.780 . S
C2519 C387 1.854 . S
C2524 C1355 1.792 . S
C2535 C445 1.861 . S
C2540 C1384 1.774 . S
C2551 C3 1.694 . S
C2556 C680 1.377 . S
C2567 C622 1.438 . S
C2572 C32 1.678 . S
C2583 C651 1.396 . S
C2588 C61 1.684 . S
C2599 C477 1.382 . S
C2604 C90 1.687 . S
C2615 C119 1.696 . S
C2620 C593 1.391 . S
C2631 C148 1.695 . S
C2636 C506 1.388 . S
C2647 C177 1.691 . S
C2652 C535 1.374 . S
C2663 C564 1.380 . S
C2668 C206 1.694 . S
C2679 C332 1.499 . S
C2684 C235 1.683 . S
C2695 C245 1.432 . S
C2700 C264 1.679 . S
C2711 C293 1.687 . S
C2716 C274 1.380 . S
C2727 C303 1.378 . S
C2732 C322 1.694 . S
C2743 C351 1.687 . S
C2748 C390 1.380 . S
C2759 C380 1.691 . S
C2764 C419 1.374 . S
C2775 C409 1.676 . S
C2780 C448 1.466 . S
C2791 C438 1.687 . S
C2796 C361 1.380 . S
C2807 C467 1.679 . S
C2812 C158 1.427 . S
C2823 C100 1.501 . S
C2828 C496 1.681 . S
C2839 C13 1.500 . S
C2844 C525 1.679 . S
C2855 C554 1.691 . S
C2860 C42 1.374 . S
C2871 C71 1.412 . S
C2876 C583 1.696 . S
C2887 C216 1.382 . S
C2892 C612 1.687 . S
C2903 C641 1.695 . S
C2908 C129 1.425 . S
C2919 C187 1.376 . S
C2924 C670 1.689 . S
C2935 C699 1.689 . S
C2940 C1376 1.481 . S
C2951 C728 1.695 . S
C2956 C1318 1.428 . S
C2967 C1347 1.405 . S
C2972 C757 1.682 . S
C2983 C1173 1.495 . S
C2988 C786 1.678 . S
C2999 C815 1.696 . S
C3004 C1289 1.391 . S
C3015 C1202 1.391 . S
C3020 C844 1.696 . S
C3031 C873 1.695 . S
C3036 C1231 1.382 . S
C3047 C1260 1.437 . S
C3052 C902 1.695 . S
C3063 C931 1.696 . S
C3068 C1028 1.411 . S
C3079 C941 1.486 . S
C3084 C960 1.677 . S
C3095 C989 1.676 . S
C3100 C970 1.466 . S
C3111 C999 1.501 . S
C3116 C1018 1.681 . S
C3127 C1047 1.676 . S
C3132 C1086 1.466 . S
C3143 C1115 1.391 . S
C3148 C1076 1.696 . S
C3159 C1144 1.486 . S
C3164 C1105 1.677 . S
C3175 C1057 1.380 . S
C3180 C1134 1.687 . S
C3191 C854 1.416 . S
C3196 C1163 1.696 . S
C3207 C796 1.417 . S
C3212 C1192 1.696 . S
C3223 C709 1.376 . S
C3228 C1221 1.690 . S
C3239 C738 1.397 . S
C3244 C1250 1.683 . S
C3255 C767 1.472 . S
C3260 C1279 1.691 . S
C3271 C1308 1.692 . S
C3276 C912 1.374 . S
C3287 C1337 1.686 . S
C3292 C825 1.492 . S
C3303 C883 1.391 . S
C3308 C1366 1.696 . S
C3319 C1023 0.870 1_455 S
C3324 C15 0.989 . S
C3335 C936 0.878 . S
C3340 C44 0.968 . S
C3351 C965 0.848 . S
C3356 C73 0.963 . S
C3367 C102 1.033 . S
C3372 C994 0.998 . S
C3383 C131 0.965 . S
C3388 C1081 0.853 . S
C3399 C160 0.964 . S
C3404 C1110 0.888 . S
C3415 C189 1.042 . S
C3420 C1139 1.019 . S
C3431 C1052 0.856 . S
C3436 C218 0.967 . S
C3447 C849 0.945 1_545 S
C3452 C247 1.025 . S
C3463 C276 0.980 . S
C3468 C878 0.884 . S
C3479 C907 0.895 . S
C3484 C305 0.985 . S
C3495 C334 0.976 . S
C3500 C820 0.880 1_455 S
C3511 C363 1.043 . S
C3516 C791 1.020 . S
C3527 C392 1.043 . S
C3532 C704 1.021 1_455 S
C3543 C733 0.950 1_545 S
C3548 C421 1.016 . S
C3559 C762 0.974 . S
C3564 C450 1.022 . S
C3575 C479 0.962 . S
C3580 C1371 0.895 . S
C3591 C1284 0.860 . S
C3596 C508 0.968 . S
C3607 C537 0.987 . S
C3612 C1197 0.901 . S
C3623 C1226 1.021 . S
C3628 C566 1.043 . S
C3639 C1255 0.866 . S
C3644 C595 0.971 . S
C3655 C624 0.981 . S
C3660 C1342 0.875 1_554 S
C3671 C1168 1.005 1_554 S
C3676 C653 1.035 . S
C3687 C682 1.038 . S
C3692 C1313 1.011 1_554 S
C3703 C327 0.884 . S
C3708 C711 0.965 . S
C3719 C740 1.008 . S
C3724 C240 0.941 . S
C3735 C769 1.035 . S
C3740 C269 1.004 . S
C3751 C298 0.928 . S
C3756 C798 0.998 . S
C3767 C827 1.021 . S
C3772 C385 0.976 1_655 S
C3783 C414 0.946 1_565 S
C3788 C856 1.022 . S
C3799 C443 0.848 . S
C3804 C885 0.962 . S
C3815 C356 0.956 . S
C3820 C914 1.011 . S
C3831 C943 0.985 . S
C3836 C153 0.935 . S
C3847 C182 0.849 . S
C3852 C972 0.964 . S
C3863 C211 0.993 . S
C3868 C1001 1.029 . S
C3879 C124 0.854 . S
C3884 C1030 0.966 . S
C3895 C95 0.950 . S
C3900 C1059 1.009 . S
C3911 C8 0.876 1_655 S
C3916 C1088 0.980 . S
C3927 C37 1.022 1_565 S
C3932 C1117 1.044 . S
C3943 C1146 1.021 . S
C3948 C66 0.972 . S
C3959 C675 0.850 . S
C3964 C1175 0.964 . S
C3975 C1204 0.990 . S
C3980 C588 0.906 . S
C3991 C1233 0.969 . S
C3996 C501 0.865 . S
C4007 C1262 1.037 . S
C4012 C530 1.006 . S
C4023 C1291 1.031 . S
C4028 C559 0.996 . S
C4039 C646 0.860 . S
C4044 C1320 0.968 . S
C4055 C1349 1.020 . S
C4060 C472 0.948 1_556 S
C4071 C1378 0.973 . S
C4076 C617 0.869 . S
