# Generated by pormake.
# Topology sra, (4)-cn, num edge types: 1
# Building blocks:
#     Node 0, Type 0, BuildingBlock: TATPOV_clean_sbu_0, # of connection points: 4
#     Node 1, Type 0, BuildingBlock: TATPOV_clean_sbu_0, # of connection points: 4
#     Node 2, Type 0, BuildingBlock: TATPOV_clean_sbu_0, # of connection points: 4
#     Node 3, Type 0, BuildingBlock: TATPOV_clean_sbu_0, # of connection points: 4
#     Node 4, Type 0, BuildingBlock: TATPOV_clean_sbu_0, # of connection points: 4
#     Node 5, Type 0, BuildingBlock: TATPOV_clean_sbu_0, # of connection points: 4
#     Node 6, Type 0, BuildingBlock: TATPOV_clean_sbu_0, # of connection points: 4
#     Node 7, Type 0, BuildingBlock: TATPOV_clean_sbu_0, # of connection points: 4
#     Edge 8, Type (0, 0), BuildingBlock: MIFKUJ_clean_linker_0, # of connection points: 2
#     Edge 9, Type (0, 0), BuildingBlock: MIFKUJ_clean_linker_0, # of connection points: 2
#     Edge 10, Type (0, 0), BuildingBlock: MIFKUJ_clean_linker_0, # of connection points: 2
#     Edge 11, Type (0, 0), BuildingBlock: MIFKUJ_clean_linker_0, # of connection points: 2
#     Edge 12, Type (0, 0), BuildingBlock: MIFKUJ_clean_linker_0, # of connection points: 2
#     Edge 13, Type (0, 0), BuildingBlock: MIFKUJ_clean_linker_0, # of connection points: 2
#     Edge 14, Type (0, 0), BuildingBlock: MIFKUJ_clean_linker_0, # of connection points: 2
#     Edge 15, Type (0, 0), BuildingBlock: MIFKUJ_clean_linker_0, # of connection points: 2
#     Edge 16, Type (0, 0), BuildingBlock: MIFKUJ_clean_linker_0, # of connection points: 2
#     Edge 17, Type (0, 0), BuildingBlock: MIFKUJ_clean_linker_0, # of connection points: 2
#     Edge 18, Type (0, 0), BuildingBlock: MIFKUJ_clean_linker_0, # of connection points: 2
#     Edge 19, Type (0, 0), BuildingBlock: MIFKUJ_clean_linker_0, # of connection points: 2
#     Edge 20, Type (0, 0), BuildingBlock: MIFKUJ_clean_linker_0, # of connection points: 2
#     Edge 21, Type (0, 0), BuildingBlock: MIFKUJ_clean_linker_0, # of connection points: 2
#     Edge 22, Type (0, 0), BuildingBlock: MIFKUJ_clean_linker_0, # of connection points: 2
#     Edge 23, Type (0, 0), BuildingBlock: MIFKUJ_clean_linker_0, # of connection points: 2
# Relax obj value: 0.056
# Max RMSD: 0.068
# Mean RMSD: 0.068
data_MOF--net-sra--node1-TATPOV_clean_sbu_0--edge1-MIFKUJ_clean_linker_0
_symmetry_space_group_name_H-M    P1
_symmetry_Int_Tables_number       1
_symmetry_cell_setting            triclinic
loop_
_symmetry_equiv_pos_as_xyz
'x, y, z'
_cell_length_a     34.295278
_cell_length_b     56.952165
_cell_length_c     53.627642
_cell_angle_alpha  90.007556
_cell_angle_beta   90.040486
_cell_angle_gamma 89.896362
loop_
_atom_site_label
_atom_site_type_symbol
_atom_site_fract_x
_atom_site_fract_y
_atom_site_fract_z
_atom_type_partial_charge
Zn0 Zn 0.9901 0.09355 0.20781 0.0
Zn1 Zn -0.00234 0.07194 0.16505 0.0
O2 O 0.05053 0.06566 0.18253 0.0
O3 O 0.04558 0.08713 0.21652 0.0
O4 O 0.00291 0.05512 0.13196 0.0
O5 O 0.95084 0.07049 0.21951 0.0
O6 O 0.95074 0.05494 0.18187 0.0
C7 C 0.06516 0.07344 0.20279 0.0
C8 C 0.97891 0.12489 0.16734 0.0
O9 O 0.98932 0.10684 0.15491 0.0
O10 O 0.97449 0.12347 0.19071 0.0
C11 C 0.02557 0.06272 0.11503 0.0
O12 O 0.04598 0.08182 0.11928 0.0
C13 C 0.93767 0.05568 0.20413 0.0
Zn14 Zn 0.02905 0.39356 0.2139 0.0
Zn15 Zn 0.02111 0.41812 0.17227 0.0
O16 O 0.97254 0.42754 0.19275 0.0
O17 O 0.97677 0.40466 0.22574 0.0
O18 O 0.01546 0.43684 0.14039 0.0
O19 O 0.07541 0.4124 0.22362 0.0
O20 O 0.07285 0.43063 0.18743 0.0
C21 C 0.95889 0.42035 0.21351 0.0
C22 C 0.02914 0.36422 0.17097 0.0
O23 O 0.02133 0.38351 0.15996 0.0
O24 O 0.03561 0.36384 0.19418 0.0
C25 C 0.03691 0.43223 0.12167 0.0
O26 O 0.06273 0.41524 0.12344 0.0
C27 C 0.08929 0.42721 0.20848 0.0
Zn28 Zn 0.01353 0.89425 0.79378 0.0
Zn29 Zn 0.02197 0.91371 0.83766 0.0
O30 O 0.07427 0.92153 0.81992 0.0
O31 O 0.06746 0.90298 0.78413 0.0
O32 O 0.02661 0.92851 0.8719 0.0
O33 O 0.97192 0.91676 0.78438 0.0
O34 O 0.97469 0.93163 0.82228 0.0
C35 C 0.08744 0.91581 0.7985 0.0
C36 C 0.00479 0.86059 0.83217 0.0
O37 O 0.0137 0.87822 0.84571 0.0
O38 O 0.00128 0.86303 0.80884 0.0
C39 C 0.04148 0.94874 0.8751 0.0
O40 O 0.05505 0.96019 0.85569 0.0
C41 C 0.95994 0.9313 0.80044 0.0
Zn42 Zn 0.01222 0.58328 0.79061 0.0
Zn43 Zn 0.01813 0.56609 0.83651 0.0
O44 O 0.96509 0.55328 0.82348 0.0
O45 O 0.96326 0.56565 0.78456 0.0
O46 O 0.02306 0.55102 0.87052 0.0
O47 O 0.06179 0.56807 0.78013 0.0
O48 O 0.06788 0.55417 0.8183 0.0
C49 C 0.94824 0.55417 0.80227 0.0
C50 C 0.01336 0.6192 0.82885 0.0
O51 O 0.01741 0.60178 0.84356 0.0
O52 O 0.01039 0.61584 0.80557 0.0
C53 C 0.00263 0.55745 0.88909 0.0
O54 O 0.97759 0.57474 0.88633 0.0
C55 C 0.08045 0.55612 0.79601 0.0
Zn56 Zn 0.51295 0.61858 0.70876 0.0
Zn57 Zn 0.51739 0.59263 0.6674 0.0
O58 O 0.56591 0.58202 0.68783 0.0
O59 O 0.55948 0.60222 0.72264 0.0
O60 O 0.51858 0.57343 0.63545 0.0
O61 O 0.46071 0.60495 0.71666 0.0
O62 O 0.46578 0.58201 0.68376 0.0
C63 C 0.57752 0.58707 0.70981 0.0
C64 C 0.51968 0.64689 0.66535 0.0
O65 O 0.51822 0.62705 0.65437 0.0
O66 O 0.51898 0.64814 0.68888 0.0
C67 C 0.54751 0.56135 0.6279 0.0
O68 O 0.5796 0.56088 0.64127 0.0
C69 C 0.44736 0.58857 0.70321 0.0
Zn70 Zn 0.53634 0.92036 0.71546 0.0
Zn71 Zn 0.53332 0.93938 0.67044 0.0
O72 O 0.48084 0.94943 0.68653 0.0
O73 O 0.48513 0.93445 0.72433 0.0
O74 O 0.53278 0.95557 0.63678 0.0
O75 O 0.58388 0.93809 0.72463 0.0
O76 O 0.58328 0.95329 0.68687 0.0
C77 C 0.46664 0.94631 0.70827 0.0
C78 C 0.53803 0.8858 0.67627 0.0
O79 O 0.53561 0.90381 0.6622 0.0
O80 O 0.53941 0.88833 0.69972 0.0
C81 C 0.51342 0.94814 0.61815 0.0
O82 O 0.49247 0.92897 0.62051 0.0
C83 C 0.59874 0.95148 0.70845 0.0
Zn84 Zn 0.52992 0.41797 0.29412 0.0
Zn85 Zn 0.52072 0.43112 0.34102 0.0
O86 O 0.57407 0.44543 0.33047 0.0
O87 O 0.57863 0.43633 0.29062 0.0
O88 O 0.51473 0.44318 0.37631 0.0
O89 O 0.48074 0.43362 0.28384 0.0
O90 O 0.47181 0.44459 0.32284 0.0
C91 C 0.59201 0.44654 0.30968 0.0
C92 C 0.52587 0.37879 0.32822 0.0
O93 O 0.52083 0.39484 0.34452 0.0
O94 O 0.5309 0.38429 0.30556 0.0
C95 C 0.54204 0.44026 0.39207 0.0
O96 O 0.57337 0.42859 0.38531 0.0
C97 C 0.46078 0.44428 0.3001 0.0
Zn98 Zn 0.51863 0.09503 0.28455 0.0
Zn99 Zn 0.51349 0.07878 0.33024 0.0
O100 O 0.46169 0.06821 0.31362 0.0
O101 O 0.46813 0.08057 0.27489 0.0
O102 O 0.50961 0.06431 0.36469 0.0
O103 O 0.56648 0.07688 0.27752 0.0
O104 O 0.56332 0.06272 0.31564 0.0
C105 C 0.4488 0.06982 0.29136 0.0
C106 C 0.52024 0.13193 0.32091 0.0
O107 O 0.51701 0.11493 0.33629 0.0
O108 O 0.52161 0.12783 0.29773 0.0
C109 C 0.52927 0.07136 0.38336 0.0
O110 O 0.55298 0.08928 0.38066 0.0
C111 C 0.57992 0.06362 0.29435 0.0
H112 H 0.08667 0.33189 0.17043 0.0
H113 H 0.08184 0.29117 0.15646 0.0
H114 H 0.96507 0.30454 0.12971 0.0
H115 H 0.97107 0.34576 0.14236 0.0
H116 H 0.03717 0.26304 0.17755 0.0
H117 H 0.93328 0.26061 0.09147 0.0
H118 H 0.92192 0.28291 0.05271 0.0
H119 H 0.04019 0.30747 0.05407 0.0
H120 H 0.05245 0.28507 0.09263 0.0
H121 H 0.93485 0.16173 0.18262 0.0
H122 H 0.94288 0.20274 0.17069 0.0
H123 H 0.02614 0.18252 0.11442 0.0
H124 H 0.01771 0.14109 0.12605 0.0
H125 H 0.97852 0.22548 0.10296 0.0
H126 H 0.06496 0.19293 0.16479 0.0
H127 H 0.08018 0.16965 0.20234 0.0
H128 H 0.00789 0.21513 0.24648 0.0
H129 H 0.99169 0.23843 0.20906 0.0
C130 C 0.0606 0.32627 0.16068 0.0
C131 C 0.02924 0.34179 0.1574 0.0
C132 C 0.05773 0.30301 0.1528 0.0
C133 C 0.02298 0.2946 0.14217 0.0
C134 C 0.99245 0.31056 0.13746 0.0
C135 C -0.00422 0.3341 0.14476 0.0
C136 C 0.01669 0.2688 0.13995 0.0
C137 C 0.02483 0.25498 0.16101 0.0
C138 C 0.00064 0.25797 0.11845 0.0
C139 C -0.00633 0.27129 0.09508 0.0
C140 C 0.95693 0.27067 0.08344 0.0
C141 C 0.95031 0.28335 0.06151 0.0
C142 C 0.98028 0.29665 0.05097 0.0
C143 C 0.01696 0.29723 0.0623 0.0
C144 C 0.02374 0.28458 0.08422 0.0
C145 C 0.95391 0.1659 0.16714 0.0
C146 C 0.97617 0.14829 0.15555 0.0
C147 C 0.95833 0.18933 0.16027 0.0
C148 C 0.98553 0.19565 0.14196 0.0
C149 C 0.00495 0.17796 0.12857 0.0
C150 C 0.00018 0.15433 0.13529 0.0
C151 C -0.00135 0.22038 0.14057 0.0
C152 C 0.99153 0.23383 0.11912 0.0
C153 C 0.01662 0.23097 0.16145 0.0
C154 C 0.02688 0.21729 0.1841 0.0
C155 C 0.05211 0.19786 0.18247 0.0
C156 C 0.06093 0.18467 0.20373 0.0
C157 C 0.04495 0.19088 0.22677 0.0
C158 C 0.02021 0.21033 0.22861 0.0
C159 C 0.01123 0.22354 0.20739 0.0
H160 H 0.0518 0.18065 0.24321 0.0
H161 H 0.97509 0.30647 0.03401 0.0
H162 H 0.96578 0.82406 0.8117 0.0
H163 H 0.96369 0.78365 0.82596 0.0
H164 H 0.03088 0.80224 0.89106 0.0
H165 H 0.03323 0.84328 0.87664 0.0
H166 H 0.06125 0.76411 0.86712 0.0
H167 H 0.9384 0.78394 0.89944 0.0
H168 H 0.87322 0.80215 0.90119 0.0
H169 H 0.83599 0.7601 0.83917 0.0
H170 H 0.9011 0.74188 0.83675 0.0
H171 H 0.03724 0.63633 0.87448 0.0
H172 H 0.03336 0.67729 0.88916 0.0
H173 H 0.9787 0.69734 0.8199 0.0
H174 H 0.98298 0.65706 0.80508 0.0
H175 H 0.94144 0.71551 0.86388 0.0
H176 H 0.07179 0.70615 0.82614 0.0
H177 H 0.13746 0.68846 0.82456 0.0
H178 H 0.15942 0.71114 0.89963 0.0
H179 H 0.09362 0.72872 0.90173 0.0
C180 C 0.97968 0.81972 0.82926 0.0
C181 C -0.00019 0.83687 0.84299 0.0
C182 C 0.97819 0.79658 0.83751 0.0
C183 C -0.00326 0.78991 0.85974 0.0
C184 C 0.01612 0.80705 0.87394 0.0
C185 C 0.01732 0.83046 0.86574 0.0
C186 C -0.00161 0.76459 0.86632 0.0
C187 C 0.03499 0.75352 0.86728 0.0
C188 C 0.96419 0.75071 0.86661 0.0
C189 C 0.92477 0.76153 0.86792 0.0
C190 C 0.91641 0.77865 0.88607 0.0
C191 C 0.87943 0.78898 0.88719 0.0
C192 C 0.85048 0.78228 0.87031 0.0
C193 C 0.85843 0.76524 0.85227 0.0
C194 C 0.89536 0.75486 0.85105 0.0
C195 C 0.0243 0.64952 0.86249 0.0
C196 C 0.01063 0.6435 0.83856 0.0
C197 C 0.0221 0.67284 0.87088 0.0
C198 C 0.0056 0.69027 0.85562 0.0
C199 C 0.99132 0.68412 0.83202 0.0
C200 C -0.00594 0.66108 0.82351 0.0
C201 C 0.00413 0.71527 0.86319 0.0
C202 C 0.96755 0.7262 0.86484 0.0
C203 C 0.03826 0.72898 0.86555 0.0
C204 C 0.07768 0.71842 0.86422 0.0
C205 C 0.0905 0.70716 0.84238 0.0
C206 C 0.12776 0.6972 0.84137 0.0
C207 C 0.15254 0.69859 0.86202 0.0
C208 C 0.14015 0.71001 0.88368 0.0
C209 C 0.1029 0.71997 0.88479 0.0
H210 H 0.18138 0.69089 0.8612 0.0
H211 H 0.82188 0.7903 0.8712 0.0
H212 H 0.46285 0.66714 0.63721 0.0
H213 H 0.46102 0.70838 0.6236 0.0
H214 H 0.57907 0.7176 0.64966 0.0
H215 H 0.58048 0.67673 0.66365 0.0
H216 H 0.46782 0.74294 0.65846 0.0
H217 H 0.62275 0.76118 0.61666 0.0
H218 H 0.66793 0.74257 0.58685 0.0
H219 H 0.57246 0.70603 0.55265 0.0
H220 H 0.52659 0.72467 0.58197 0.0
H221 H 0.54948 0.8449 0.70137 0.0
H222 H 0.54179 0.80505 0.686 0.0
H223 H 0.51669 0.83145 0.61237 0.0
H224 H 0.52443 0.87193 0.6277 0.0
H225 H 0.5671 0.79025 0.61379 0.0
H226 H 0.4423 0.81494 0.64277 0.0
H227 H 0.39642 0.83381 0.67197 0.0
H228 H 0.42784 0.78418 0.72884 0.0
H229 H 0.47435 0.76523 0.70011 0.0
C230 C 0.4888 0.67782 0.63908 0.0
C231 C 0.52194 0.66891 0.6512 0.0
C232 C 0.48771 0.70133 0.63143 0.0
C233 C 0.52 0.71603 0.63546 0.0
C234 C 0.55407 0.70652 0.64595 0.0
C235 C 0.55488 0.68321 0.65398 0.0
C236 C 0.5164 0.7419 0.63305 0.0
C237 C 0.48904 0.75329 0.64828 0.0
C238 C 0.54368 0.75543 0.61946 0.0
C239 C 0.57121 0.74428 0.60165 0.0
C240 C 0.61132 0.7493 0.60269 0.0
C241 C 0.63708 0.73871 0.58589 0.0
C242 C 0.62309 0.7231 0.5679 0.0
C243 C 0.58329 0.71807 0.56664 0.0
C244 C 0.5574 0.72861 0.58339 0.0
C245 C 0.54261 0.84239 0.68184 0.0
C246 C 0.53715 0.86169 0.66583 0.0
C247 C 0.5382 0.81954 0.6731 0.0
C248 C 0.52807 0.81534 0.64817 0.0
C249 C 0.52434 0.83439 0.63172 0.0
C250 C 0.52874 0.85746 0.64051 0.0
C251 C 0.5199 0.79092 0.64019 0.0
C252 C 0.54512 0.77988 0.62324 0.0
C253 C 0.49039 0.77763 0.65201 0.0
C254 C 0.46189 0.78869 0.66926 0.0
C255 C 0.43956 0.80811 0.66153 0.0
C256 C 0.41343 0.81882 0.67801 0.0
C257 C 0.40923 0.8102 0.70225 0.0
C258 C 0.43109 0.79082 0.71005 0.0
C259 C 0.45729 0.78006 0.69366 0.0
H260 H 0.38901 0.81854 0.71498 0.0
H261 H 0.64309 0.71492 0.55491 0.0
H262 H 0.54666 0.34189 0.29906 0.0
H263 H 0.5406 0.30029 0.30802 0.0
H264 H 0.49715 0.31614 0.38155 0.0
H265 H 0.50344 0.35843 0.37275 0.0
H266 H 0.55178 0.27646 0.37898 0.0
H267 H 0.43196 0.30141 0.34266 0.0
H268 H 0.39035 0.32288 0.31284 0.0
H269 H 0.4391 0.28324 0.25227 0.0
H270 H 0.48146 0.26178 0.28167 0.0
H271 H 0.50248 0.15034 0.36735 0.0
H272 H 0.49854 0.19227 0.37861 0.0
H273 H 0.53659 0.21097 0.3046 0.0
H274 H 0.54041 0.16983 0.29331 0.0
H275 H 0.46907 0.23351 0.31831 0.0
H276 H 0.59708 0.21478 0.35421 0.0
H277 H 0.64014 0.19392 0.38371 0.0
H278 H 0.57472 0.22159 0.44535 0.0
H279 H 0.53097 0.24238 0.41617 0.0
C280 C 0.53601 0.3367 0.31724 0.0
C281 C 0.52502 0.35356 0.33507 0.0
C282 C 0.53262 0.31283 0.32234 0.0
C283 C 0.51785 0.30514 0.34529 0.0
C284 C 0.50846 0.32177 0.36368 0.0
C285 C 0.51198 0.34587 0.35859 0.0
C286 C 0.51057 0.2797 0.34883 0.0
C287 C 0.53295 0.26703 0.36618 0.0
C288 C 0.4859 0.26745 0.33218 0.0
C289 C 0.45996 0.28002 0.31441 0.0
C290 C 0.43395 0.29734 0.32297 0.0
C291 C 0.41022 0.30951 0.30614 0.0
C292 C 0.4121 0.30443 0.28068 0.0
C293 C 0.43765 0.28714 0.272 0.0
C294 C 0.46147 0.27493 0.28876 0.0
C295 C 0.51039 0.16345 0.35364 0.0
C296 C 0.5213 0.15673 0.32934 0.0
C297 C 0.50811 0.18735 0.36009 0.0
C298 C 0.5169 0.20472 0.34233 0.0
C299 C 0.52921 0.1979 0.3185 0.0
C300 C 0.53141 0.17428 0.31209 0.0
C301 C 0.51195 0.23016 0.34745 0.0
C302 C 0.48699 0.24288 0.33169 0.0
C303 C 0.53411 0.24231 0.36559 0.0
C304 C 0.56048 0.22986 0.38302 0.0
C305 C 0.59168 0.21623 0.37405 0.0
C306 C 0.61625 0.20447 0.39071 0.0
C307 C 0.61008 0.20635 0.41639 0.0
C308 C 0.57941 0.22009 0.42546 0.0
C309 C 0.55473 0.23187 0.40887 0.0
H310 H 0.62914 0.19723 0.42925 0.0
H311 H 0.39373 0.31389 0.26767 0.0
H312 H 0.38139 0.0693 0.31846 0.0
H313 H 0.31616 0.06006 0.30265 0.0
H314 H 0.36626 0.03818 0.2325 0.0
H315 H 0.43097 0.04856 0.24785 0.0
H316 H 0.31356 0.06813 0.22371 0.0
H317 H 0.31733 0.99914 0.27379 0.0
H318 H 0.32731 0.97548 0.31177 0.0
H319 H 0.23676 0.01403 0.34901 0.0
H320 H 0.22658 0.03816 0.31138 0.0
H321 H 0.12124 0.04948 0.17633 0.0
H322 H 0.18717 0.03911 0.19053 0.0
H323 H 0.16325 0.07066 0.26205 0.0
H324 H 0.09792 0.08096 0.24822 0.0
H325 H 0.20347 0.02876 0.26647 0.0
H326 H 0.20963 0.10153 0.21879 0.0
H327 H 0.20002 0.12558 0.18102 0.0
H328 H 0.27319 0.07862 0.13929 0.0
H329 H 0.28281 0.05411 0.17678 0.0
C330 C 0.37839 0.06197 0.29993 0.0
C331 C 0.41091 0.05983 0.28425 0.0
C332 C 0.34118 0.05657 0.2909 0.0
C333 C 0.33623 0.04836 0.26634 0.0
C334 C 0.36925 0.04463 0.25142 0.0
C335 C 0.40618 0.05052 0.2602 0.0
C336 C 0.29677 0.04666 0.25511 0.0
C337 C 0.2898 0.05894 0.2328 0.0
C338 C 0.26546 0.0351 0.2671 0.0
C339 C 0.27136 0.02057 0.28978 0.0
C340 C 0.29972 0.00269 0.29013 0.0
C341 C 0.30538 0.98917 0.31159 0.0
C342 C 0.28273 0.99327 0.3328 0.0
C343 C 0.2543 0.01087 0.33257 0.0
C344 C 0.24852 0.02445 0.31116 0.0
C345 C 0.13002 0.05404 0.19511 0.0
C346 C 0.10453 0.06626 0.21104 0.0
C347 C 0.16757 0.04807 0.2032 0.0
C348 C 0.17998 0.05418 0.22732 0.0
C349 C 0.15414 0.06568 0.24343 0.0
C350 C 0.1169 0.07175 0.23536 0.0
C351 C 0.22068 0.05038 0.23546 0.0
C352 C 0.22771 0.03728 0.25718 0.0
C353 C 0.2522 0.06108 0.22294 0.0
C354 C 0.24652 0.07585 0.20047 0.0
C355 C 0.2234 0.09624 0.2015 0.0
C356 C 0.218 0.10997 0.18016 0.0
C357 C 0.23587 0.10359 0.15775 0.0
C358 C 0.25929 0.0835 0.15665 0.0
C359 C 0.26473 0.06969 0.17793 0.0
H360 H 0.23167 0.11424 0.14125 0.0
H361 H 0.28717 0.98279 0.3494 0.0
H362 H 0.61213 0.47932 0.27586 0.0
H363 H 0.67856 0.48803 0.26228 0.0
H364 H 0.72397 0.44631 0.32289 0.0
H365 H 0.65731 0.43842 0.33713 0.0
H366 H 0.77598 0.48102 0.30834 0.0
H367 H 0.69824 0.4197 0.27007 0.0
H368 H 0.63987 0.40445 0.24863 0.0
H369 H 0.65945 0.45191 0.1877 0.0
H370 H 0.71762 0.4677 0.20901 0.0
H371 H 0.92888 0.41307 0.25982 0.0
H372 H 0.86963 0.42948 0.27763 0.0
H373 H 0.84807 0.46774 0.20957 0.0
H374 H 0.90779 0.45123 0.19137 0.0
H375 H 0.78499 0.44288 0.22525 0.0
H376 H 0.87301 0.49756 0.26128 0.0
H377 H 0.93199 0.51063 0.28357 0.0
H378 H 0.89505 0.47365 0.34916 0.0
H379 H 0.8361 0.46004 0.32717 0.0
C380 C 0.6364 0.47302 0.28696 0.0
C381 C 0.62996 0.45811 0.30737 0.0
C382 C 0.67427 0.4779 0.27916 0.0
C383 C 0.70605 0.46724 0.29116 0.0
C384 C 0.69978 0.45461 0.31331 0.0
C385 C 0.66177 0.45012 0.32146 0.0
C386 C 0.74397 0.4653 0.27815 0.0
C387 C 0.77809 0.47272 0.29018 0.0
C388 C 0.74653 0.45478 0.25424 0.0
C389 C 0.71195 0.44506 0.24124 0.0
C390 C 0.68994 0.42697 0.25217 0.0
C391 C 0.65691 0.41823 0.24005 0.0
C392 C 0.64589 0.42725 0.21685 0.0
C393 C 0.66797 0.44498 0.2057 0.0
C394 C 0.70096 0.45383 0.21779 0.0
C395 C 0.91176 0.42504 0.2486 0.0
C396 C 0.92297 0.43073 0.2241 0.0
C397 C 0.87806 0.43463 0.25893 0.0
C398 C 0.85483 0.45012 0.24508 0.0
C399 C 0.86589 0.45597 0.22064 0.0
C400 C 0.89988 0.44647 0.21028 0.0
C401 C 0.81727 0.45833 0.25552 0.0
C402 C 0.78305 0.45184 0.24308 0.0
C403 C 0.81484 0.46944 0.27912 0.0
C404 C 0.85018 0.47767 0.2925 0.0
C405 C 0.87757 0.49206 0.28041 0.0
C406 C 0.91099 0.4996 0.293 0.0
C407 C 0.91729 0.49295 0.31775 0.0
C408 C 0.89013 0.47879 0.32998 0.0
C409 C 0.85667 0.47119 0.31748 0.0
H410 H 0.94318 0.4988 0.32747 0.0
H411 H 0.62032 0.42047 0.20749 0.0
H412 H 0.10872 0.92078 0.75029 0.0
H413 H 0.17081 0.93408 0.73383 0.0
H414 H 0.21353 0.94488 0.80865 0.0
H415 H 0.15018 0.93221 0.82546 0.0
H416 H 0.23897 0.97916 0.77702 0.0
H417 H 0.23643 0.89513 0.77752 0.0
H418 H 0.20971 0.85577 0.76904 0.0
H419 H 0.21275 0.86957 0.69035 0.0
H420 H 0.23899 0.90918 0.69838 0.0
H421 H 0.4403 0.9581 0.75417 0.0
H422 H 0.37253 0.96249 0.76698 0.0
H423 H 0.33577 0.95671 0.69027 0.0
H424 H 0.40402 0.95237 0.67725 0.0
H425 H 0.30558 0.9226 0.72092 0.0
H426 H 0.31635 0.00612 0.72189 0.0
H427 H 0.34596 0.04431 0.73224 0.0
H428 H 0.33162 0.03012 0.81032 0.0
H429 H 0.30244 0.99168 0.80048 0.0
C430 C 0.13122 0.92602 0.76334 0.0
C431 C 0.12491 0.92501 0.78921 0.0
C432 C 0.1667 0.93367 0.75385 0.0
C433 C 0.19704 0.93996 0.77001 0.0
C434 C 0.19046 0.93996 0.79588 0.0
C435 C 0.15445 0.93262 0.80545 0.0
C436 C 0.23609 0.94512 0.75962 0.0
C437 C 0.2538 0.96674 0.76496 0.0
C438 C 0.25498 0.92906 0.74348 0.0
C439 C 0.2393 0.90521 0.73857 0.0
C440 C 0.23112 0.88984 0.75841 0.0
C441 C 0.21611 0.86748 0.75369 0.0
C442 C 0.20944 0.8602 0.72917 0.0
C443 C 0.21788 0.87525 0.70933 0.0
C444 C 0.23284 0.89765 0.71396 0.0
C445 C 0.41786 0.95847 0.73994 0.0
C446 C 0.42724 0.95461 0.71476 0.0
C447 C 0.37917 0.96115 0.74728 0.0
C448 C 0.34917 0.95991 0.72958 0.0
C449 C 0.35862 0.9578 0.70418 0.0
C450 C 0.39753 0.95539 0.69676 0.0
C451 C 0.30856 0.95671 0.73815 0.0
C452 C 0.29059 0.93525 0.73265 0.0
C453 C 0.28995 0.97276 0.75442 0.0
C454 C 0.30742 0.99591 0.76043 0.0
C455 C 0.31979 0.01104 0.74128 0.0
C456 C 0.33645 0.03276 0.74705 0.0
C457 C 0.34073 0.03962 0.77192 0.0
C458 C 0.32829 0.02478 0.79106 0.0
C459 C 0.31163 0.00304 0.7854 0.0
H460 H 0.35364 0.05644 0.77635 0.0
H461 H 0.19782 0.84287 0.72555 0.0
H462 H 0.59366 0.5829 0.75903 0.0
H463 H 0.6525 0.56738 0.77831 0.0
H464 H 0.69814 0.54948 0.7058 0.0
H465 H 0.6383 0.56461 0.68619 0.0
H466 H 0.71781 0.5164 0.74192 0.0
H467 H 0.72402 0.59996 0.73148 0.0
H468 H 0.70103 0.64087 0.73501 0.0
H469 H 0.70028 0.63501 0.81483 0.0
H470 H 0.72274 0.59392 0.81176 0.0
H471 H 0.91999 0.53567 0.75949 0.0
H472 H 0.85155 0.52988 0.74902 0.0
H473 H 0.81937 0.54534 0.82504 0.0
H474 H 0.88834 0.55107 0.83568 0.0
H475 H 0.78935 0.57625 0.79115 0.0
H476 H 0.79432 0.49325 0.80015 0.0
H477 H 0.8206 0.45329 0.79457 0.0
H478 H 0.8048 0.4589 0.71537 0.0
H479 H 0.77896 0.49904 0.72041 0.0
C480 C 0.61601 0.57547 0.74711 0.0
C481 C 0.61174 0.57538 0.72103 0.0
C482 C 0.64957 0.56654 0.75821 0.0
C483 C 0.67994 0.55771 0.74346 0.0
C484 C 0.675 0.55631 0.71748 0.0
C485 C 0.64097 0.56504 0.70631 0.0
C486 C 0.71793 0.55209 0.75516 0.0
C487 C 0.73369 0.52947 0.75255 0.0
C488 C 0.73813 0.56907 0.76946 0.0
C489 C 0.72461 0.59378 0.77138 0.0
C490 C 0.71862 0.60733 0.74978 0.0
C491 C 0.70575 0.63056 0.7517 0.0
C492 C 0.69908 0.64051 0.77513 0.0
C493 C 0.70538 0.62727 0.79669 0.0
C494 C 0.71819 0.60401 0.79488 0.0
C495 C 0.89843 0.53697 0.77419 0.0
C496 C 0.90925 0.54408 0.79831 0.0
C497 C 0.85933 0.53351 0.76822 0.0
C498 C 0.83038 0.53724 0.78623 0.0
C499 C 0.84138 0.5423 0.81091 0.0
C500 C 0.88071 0.54549 0.817 0.0
C501 C 0.78953 0.54051 0.778 0.0
C502 C 0.77323 0.56292 0.78102 0.0
C503 C 0.76938 0.52343 0.76382 0.0
C504 C 0.7849 0.49926 0.76066 0.0
C505 C 0.79674 0.48605 0.78152 0.0
C506 C 0.8115 0.46334 0.77846 0.0
C507 C 0.81442 0.45357 0.75463 0.0
C508 C 0.80252 0.46649 0.73382 0.0
C509 C 0.78774 0.48921 0.73677 0.0
H510 H 0.82585 0.43598 0.7523 0.0
H511 H 0.68914 0.65851 0.77658 0.0
H512 H 0.62281 0.96439 0.75451 0.0
H513 H 0.68791 0.97663 0.76674 0.0
H514 H 0.7227 0.97845 0.68945 0.0
H515 H 0.65699 0.96598 0.67701 0.0
H516 H 0.76557 0.94853 0.7161 0.0
H517 H 0.72935 0.02805 0.72519 0.0
H518 H 0.68921 0.06193 0.73786 0.0
H519 H 0.70612 0.04413 0.8149 0.0
H520 H 0.74588 0.00991 0.80273 0.0
H521 H 0.95458 0.95426 0.75674 0.0
H522 H 0.89667 0.9731 0.73943 0.0
H523 H 0.83649 0.96305 0.80921 0.0
H524 H 0.89523 0.94461 0.82694 0.0
H525 H 0.81131 0.00428 0.78096 0.0
H526 H 0.83192 0.92045 0.77088 0.0
H527 H 0.87072 0.88565 0.7592 0.0
H528 H 0.88014 0.9114 0.68419 0.0
H529 H 0.8419 0.94657 0.69558 0.0
C530 C 0.644 0.968 0.74004 0.0
C531 C 0.63514 0.96384 0.71483 0.0
C532 C 0.68114 0.97528 0.74706 0.0
C533 C 0.71019 0.97852 0.72902 0.0
C534 C 0.70058 0.97614 0.70365 0.0
C535 C 0.66312 0.96902 0.69656 0.0
C536 C 0.75142 0.97965 0.73715 0.0
C537 C 0.77591 0.96123 0.72966 0.0
C538 C 0.76449 0.99574 0.75549 0.0
C539 C 0.74051 0.0163 0.763 0.0
C540 C 0.72428 0.03123 0.74483 0.0
C541 C 0.70163 0.05053 0.75193 0.0
C542 C 0.69509 0.05517 0.77717 0.0
C543 C 0.71123 0.04052 0.79536 0.0
C544 C 0.7339 0.02119 0.78837 0.0
C545 C 0.92942 0.9568 0.76866 0.0
C546 C 0.92889 0.94767 0.79298 0.0
C547 C 0.89648 0.96766 0.75879 0.0
C548 C 0.86219 0.96904 0.7729 0.0
C549 C 0.86278 0.96213 0.79806 0.0
C550 C 0.89618 0.95153 0.80814 0.0
C551 C 0.82464 0.97307 0.76003 0.0
C552 C 0.80106 0.99216 0.76681 0.0
C553 C 0.81197 0.95751 0.74112 0.0
C554 C 0.83451 0.93625 0.73415 0.0
C555 C 0.84254 0.91876 0.75195 0.0
C556 C 0.86439 0.89897 0.74538 0.0
C557 C 0.87799 0.89635 0.72098 0.0
C558 C 0.86966 0.91348 0.70309 0.0
C559 C 0.8479 0.93335 0.70959 0.0
H560 H 0.8949 0.88101 0.71592 0.0
H561 H 0.67754 0.07012 0.78262 0.0
H562 H 0.40185 0.55784 0.67638 0.0
H563 H 0.34115 0.53901 0.69015 0.0
H564 H 0.35181 0.57286 0.76177 0.0
H565 H 0.41181 0.59166 0.74833 0.0
H566 H 0.32711 0.5258 0.76526 0.0
H567 H 0.29775 0.59786 0.71811 0.0
H568 H 0.29984 0.62219 0.68006 0.0
H569 H 0.24389 0.5672 0.63862 0.0
H570 H 0.24192 0.54245 0.6764 0.0
H571 H 0.14929 0.55619 0.82138 0.0
H572 H 0.21357 0.54796 0.80369 0.0
H573 H 0.15934 0.52376 0.73567 0.0
H574 H 0.09534 0.53333 0.75288 0.0
H575 H 0.20682 0.55501 0.72428 0.0
H576 H 0.21973 0.48723 0.774 0.0
H577 H 0.21702 0.46233 0.81155 0.0
H578 H 0.30265 0.50578 0.84725 0.0
H579 H 0.30549 0.53118 0.81008 0.0
C580 C 0.39131 0.56112 0.69509 0.0
C581 C 0.41132 0.57649 0.71114 0.0
C582 C 0.35682 0.55028 0.70295 0.0
C583 C 0.34215 0.55454 0.72699 0.0
C584 C 0.36283 0.5692 0.74323 0.0
C585 C 0.3969 0.58016 0.73537 0.0
C586 C 0.30345 0.54586 0.73478 0.0
C587 C 0.30062 0.53199 0.75634 0.0
C588 C 0.26913 0.5533 0.72255 0.0
C589 C 0.27015 0.56822 0.69994 0.0
C590 C 0.28617 0.59091 0.70082 0.0
C591 C 0.28729 0.60478 0.67933 0.0
C592 C 0.27213 0.59621 0.65691 0.0
C593 C 0.25571 0.57378 0.65597 0.0
C594 C 0.25458 0.55983 0.67741 0.0
C595 C 0.15121 0.54841 0.80298 0.0
C596 C 0.11768 0.54558 0.78835 0.0
C597 C 0.18794 0.54357 0.79287 0.0
C598 C 0.19146 0.5352 0.76825 0.0
C599 C 0.15749 0.53035 0.75459 0.0
C600 C 0.12096 0.53577 0.76443 0.0
C601 C 0.22992 0.53541 0.7555 0.0
C602 C 0.23287 0.54789 0.73295 0.0
C603 C 0.26419 0.5264 0.76675 0.0
C604 C 0.26268 0.51119 0.78923 0.0
C605 C 0.2378 0.49159 0.78992 0.0
C606 C 0.23627 0.47736 0.81113 0.0
C607 C 0.25962 0.48248 0.83178 0.0
C608 C 0.2846 0.50183 0.83124 0.0
C609 C 0.28623 0.51612 0.81007 0.0
H610 H 0.25839 0.47145 0.84819 0.0
H611 H 0.27301 0.60697 0.64029 0.0
H612 H 0.62903 0.0403 0.32683 0.0
H613 H 0.69156 0.02154 0.31635 0.0
H614 H 0.67201 0.03685 0.23851 0.0
H615 H 0.61003 0.05489 0.24863 0.0
H616 H 0.70996 0.99612 0.243 0.0
H617 H 0.71994 0.07613 0.27777 0.0
H618 H 0.71128 0.10525 0.31142 0.0
H619 H 0.77896 0.0622 0.36101 0.0
H620 H 0.78765 0.03272 0.32767 0.0
H621 H 0.86987 0.04496 0.18002 0.0
H622 H 0.81121 0.02893 0.19962 0.0
H623 H 0.87636 0.01545 0.26706 0.0
H624 H 0.93434 0.03241 0.24784 0.0
H625 H 0.81971 0.04277 0.27696 0.0
H626 H 0.82791 0.97028 0.23452 0.0
H627 H 0.83739 0.9432 0.19917 0.0
H628 H 0.73709 0.97235 0.16246 0.0
H629 H 0.7273 0.99986 0.1974 0.0
C630 C 0.63783 0.03919 0.30748 0.0
C631 C 0.61507 0.04955 0.28864 0.0
C632 C 0.67346 0.02846 0.3015 0.0
C633 C 0.68666 0.02807 0.27666 0.0
C634 C 0.66249 0.03688 0.25778 0.0
C635 C 0.62718 0.0475 0.26368 0.0
C636 C 0.7274 0.02192 0.27016 0.0
C637 C 0.73421 0.00608 0.25052 0.0
C638 C 0.75912 0.03443 0.28046 0.0
C639 C 0.75399 0.05214 0.30041 0.0
C640 C 0.73276 0.07285 0.29591 0.0
C641 C 0.72787 0.08941 0.3149 0.0
C642 C 0.74444 0.08554 0.33837 0.0
C643 C 0.76604 0.06513 0.34286 0.0
C644 C 0.77095 0.0485 0.32393 0.0
C645 C 0.87186 0.03774 0.19867 0.0
C646 C 0.90623 0.04011 0.21259 0.0
C647 C 0.83841 0.02847 0.20988 0.0
C648 C 0.83929 0.02102 0.23492 0.0
C649 C 0.87488 0.02119 0.24782 0.0
C650 C 0.90796 0.03086 0.23683 0.0
C651 C 0.80234 0.01769 0.24889 0.0
C652 C 0.79619 0.03189 0.26996 0.0
C653 C 0.77136 0.00378 0.2397 0.0
C654 C 0.77694 0.9872 0.21861 0.0
C655 C 0.808 0.97103 0.21885 0.0
C656 C 0.81341 0.95558 0.19888 0.0
C657 C 0.78787 0.95606 0.17858 0.0
C658 C 0.75683 0.97198 0.17822 0.0
C659 C 0.75128 0.98747 0.19813 0.0
H660 H 0.79212 0.9441 0.16314 0.0
H661 H 0.74064 0.09838 0.35305 0.0
H662 H 0.11611 0.43428 0.25537 0.0
H663 H 0.1785 0.45055 0.26793 0.0
H664 H 0.20593 0.46553 0.19105 0.0
H665 H 0.14285 0.44899 0.17819 0.0
H666 H 0.26102 0.43911 0.21354 0.0
H667 H 0.19673 0.51053 0.23232 0.0
H668 H 0.14549 0.53627 0.24947 0.0
H669 H 0.17337 0.51318 0.32359 0.0
H670 H 0.22439 0.48702 0.30689 0.0
H671 H 0.44648 0.46544 0.25593 0.0
H672 H 0.38294 0.47578 0.23858 0.0
H673 H 0.32808 0.45717 0.30819 0.0
H674 H 0.39215 0.44747 0.32597 0.0
H675 H 0.28881 0.49327 0.28385 0.0
H676 H 0.34001 0.41608 0.26443 0.0
H677 H 0.38938 0.38838 0.24842 0.0
H678 H 0.38324 0.42091 0.17628 0.0
H679 H 0.33418 0.44902 0.19199 0.0
C680 C 0.13508 0.44137 0.2411 0.0
C681 C 0.12485 0.44008 0.21575 0.0
C682 C 0.1706 0.45095 0.24837 0.0
C683 C 0.19673 0.45947 0.23047 0.0
C684 C 0.18597 0.45919 0.20516 0.0
C685 C 0.15004 0.44974 0.19785 0.0
C686 C 0.23705 0.46526 0.2382 0.0
C687 C 0.26728 0.45152 0.22836 0.0
C688 C 0.24495 0.48093 0.25808 0.0
C689 C 0.21435 0.49672 0.2683 0.0
C690 C 0.19178 0.51081 0.25227 0.0
C691 C 0.16279 0.5255 0.26192 0.0
C692 C 0.15616 0.52635 0.2876 0.0
C693 C 0.17855 0.51252 0.3037 0.0
C694 C 0.20758 0.49779 0.29415 0.0
C695 C 0.42097 0.46418 0.26776 0.0
C696 C 0.42396 0.4553 0.29213 0.0
C697 C 0.38473 0.47011 0.25783 0.0
C698 C 0.35079 0.46669 0.2719 0.0
C699 C 0.35399 0.45984 0.29701 0.0
C700 C 0.3905 0.45427 0.30714 0.0
C701 C 0.31226 0.46682 0.25942 0.0
C702 C 0.28257 0.48146 0.2685 0.0
C703 C 0.30455 0.45179 0.23896 0.0
C704 C 0.33383 0.43482 0.22945 0.0
C705 C 0.34942 0.41742 0.2452 0.0
C706 C 0.3773 0.40164 0.23618 0.0
C707 C 0.38954 0.40293 0.21137 0.0
C708 C 0.3738 0.41997 0.19551 0.0
C709 C 0.34596 0.43583 0.20446 0.0
H710 H 0.41112 0.39069 0.20442 0.0
H711 H 0.13369 0.53773 0.29504 0.0
H712 H 0.0675 0.076 0.07402 0.0
H713 H 0.07164 0.0561 0.03372 0.0
H714 H -0.00529 0.00186 0.06046 0.0
H715 H 0.99057 0.02157 0.10093 0.0
H716 H 0.05696 0.98372 0.03481 0.0
H717 H 0.96044 0.04403 0.02234 0.0
H718 H 0.9349 0.08452 0.02297 0.0
H719 H 0.02526 0.10623 0.97266 0.0
H720 H 0.05167 0.06591 0.97199 0.0
H721 H 0.00817 0.93237 0.91814 0.0
H722 H 0.00736 0.95122 0.95906 0.0
H723 H 0.07604 0.00843 0.93006 0.0
H724 H 0.07616 0.98996 0.88892 0.0
H725 H 0.01882 0.02512 0.95712 0.0
H726 H 0.11552 0.96546 0.9689 0.0
H727 H 0.14265 0.92534 0.96837 0.0
H728 H 0.05454 0.90277 0.01987 0.0
H729 H 0.02655 0.94271 0.02045 0.0
C730 C 0.05147 0.05982 0.07138 0.0
C731 C 0.02855 0.05044 0.0907 0.0
C732 C 0.05378 0.04851 0.04828 0.0
C733 C 0.03316 0.02761 0.04398 0.0
C734 C 0.01081 0.01798 0.06335 0.0
C735 C 0.00838 0.02932 0.08645 0.0
C736 C 0.03472 0.0159 0.01923 0.0
C737 C 0.04816 0.99265 0.01784 0.0
C738 C 0.0242 0.02777 0.99703 0.0
C739 C 0.00826 0.052 0.99731 0.0
C740 C 0.97505 0.05747 0.01156 0.0
C741 C 0.96038 0.08039 0.0119 0.0
C742 C 0.9785 0.09795 0.99792 0.0
C743 C 0.01128 0.09262 0.98351 0.0
C744 C 0.02609 0.06973 0.98313 0.0
C745 C 0.02329 0.94891 0.92048 0.0
C746 C 0.04226 0.95964 0.90023 0.0
C747 C 0.02296 0.95963 0.94395 0.0
C748 C 0.04203 0.98115 0.94778 0.0
C749 C 0.06112 0.99184 0.9276 0.0
C750 C 0.06124 0.98121 0.90408 0.0
C751 C 0.04113 0.99287 0.9726 0.0
C752 C 0.02774 0.01615 0.97404 0.0
C753 C 0.05194 0.98106 0.99482 0.0
C754 C 0.06871 0.95703 0.99453 0.0
C755 C 0.10174 0.9519 0.97996 0.0
C756 C 0.11731 0.9292 0.97967 0.0
C757 C 0.10027 0.9115 0.99402 0.0
C758 C 0.06768 0.91649 0.00874 0.0
C759 C 0.05197 0.93916 0.00907 0.0
H760 H 0.11237 0.89394 0.99378 0.0
H761 H 0.9671 0.11569 0.9982 0.0
H762 H 0.96585 0.56792 0.93303 0.0
H763 H 0.9714 0.54729 0.97287 0.0
H764 H 0.0535 0.49882 0.94017 0.0
H765 H 0.04793 0.51922 0.90022 0.0
H766 H -0.00112 0.47611 0.9673 0.0
H767 H 0.08439 0.5418 0.97898 0.0
H768 H 0.10276 0.58364 0.97961 0.0
H769 H 0.01526 0.59733 0.035 0.0
H770 H -0.00401 0.55561 0.03444 0.0
H771 H 0.074 0.42429 0.07737 0.0
H772 H 0.06696 0.44614 0.03843 0.0
H773 H 0.98357 0.49232 0.07343 0.0
H774 H 0.99056 0.4706 0.1126 0.0
H775 H 0.03705 0.51653 0.04555 0.0
H776 H 0.95231 0.45067 0.03438 0.0
H777 H 0.93423 0.40879 0.03386 0.0
H778 H 0.02037 0.39541 0.97752 0.0
H779 H 0.03936 0.43718 0.97796 0.0
C780 C 0.98517 0.55291 0.93431 0.0
C781 C 0.00648 0.54525 0.91342 0.0
C782 C 0.98842 0.54119 0.95714 0.0
C783 C 0.0131 0.52162 0.95957 0.0
C784 C 0.03428 0.51388 0.93873 0.0
C785 C 0.03115 0.52563 0.91592 0.0
C786 C 0.01642 0.50896 0.98372 0.0
C787 C 0.00772 0.48489 0.98435 0.0
C788 C 0.02696 0.52053 0.00609 0.0
C789 C 0.03847 0.54563 0.00647 0.0
C790 C 0.06883 0.55377 0.99113 0.0
C791 C 0.07945 0.57746 0.99151 0.0
C792 C 0.06011 0.59315 0.00728 0.0
C793 C 0.03017 0.58517 0.02276 0.0
C794 C 0.01941 0.5615 0.02243 0.0
C795 C 0.05414 0.43909 0.07684 0.0
C796 C 0.03274 0.44564 0.09811 0.0
C797 C 0.05006 0.45152 0.05451 0.0
C798 C 0.02445 0.47072 0.05295 0.0
C799 C 0.00344 0.47753 0.07422 0.0
C800 C 0.00738 0.46504 0.09656 0.0
C801 C 0.01975 0.48367 0.02908 0.0
C802 C 0.02813 0.50778 0.02851 0.0
C803 C 0.00893 0.47214 0.00674 0.0
C804 C -0.00248 0.44702 0.00638 0.0
C805 C 0.96763 0.43877 0.02203 0.0
C806 C 0.95717 0.41505 0.02172 0.0
C807 C 0.97621 0.39944 0.00571 0.0
C808 C 0.00568 0.40752 0.98993 0.0
C809 C 0.01628 0.43122 0.99019 0.0
H810 H 0.96807 0.38109 0.0055 0.0
H811 H 0.06839 0.61147 0.00755 0.0
H812 H 0.59636 0.43841 0.42937 0.0
H813 H 0.59405 0.45771 0.46999 0.0
H814 H 0.48024 0.48566 0.45262 0.0
H815 H 0.48257 0.46666 0.41171 0.0
H816 H 0.52602 0.51894 0.47179 0.0
H817 H 0.49143 0.44047 0.4943 0.0
H818 H 0.49837 0.3974 0.49605 0.0
H819 H 0.60796 0.40464 0.53402 0.0
H820 H 0.60195 0.44778 0.5322 0.0
H821 H 0.48696 0.56013 0.59455 0.0
H822 H 0.48356 0.5385 0.55521 0.0
H823 H 0.59904 0.5109 0.56802 0.0
H824 H 0.60258 0.5323 0.60749 0.0
H825 H 0.54953 0.47703 0.55151 0.0
H826 H 0.585 0.55547 0.52744 0.0
H827 H 0.57795 0.59853 0.52567 0.0
H828 H 0.46604 0.59113 0.49061 0.0
H829 H 0.4722 0.54799 0.49248 0.0
C830 C 0.57068 0.44852 0.43421 0.0
C831 C 0.53963 0.45097 0.41725 0.0
C832 C 0.56934 0.45948 0.45753 0.0
C833 C 0.5368 0.47296 0.4645 0.0
C834 C 0.50563 0.47532 0.44767 0.0
C835 C 0.50697 0.46439 0.42432 0.0
C836 C 0.53597 0.48526 0.48897 0.0
C837 C 0.5305 0.5097 0.48925 0.0
C838 C 0.5427 0.47332 0.51174 0.0
C839 C 0.5464 0.44737 0.51291 0.0
C840 C 0.51716 0.43289 0.50285 0.0
C841 C 0.5209 0.40846 0.50388 0.0
C842 C 0.55363 0.39829 0.51508 0.0
C843 C 0.58264 0.41254 0.52532 0.0
C844 C 0.57907 0.43698 0.52432 0.0
C845 C 0.51164 0.54945 0.58903 0.0
C846 C 0.54513 0.54805 0.60415 0.0
C847 C 0.50969 0.53714 0.56649 0.0
C848 C 0.5412 0.52325 0.55855 0.0
C849 C 0.57439 0.52152 0.57377 0.0
C850 C 0.57641 0.53385 0.59629 0.0
C851 C 0.53973 0.51067 0.53428 0.0
C852 C 0.54483 0.48621 0.53404 0.0
C853 C 0.5326 0.52257 0.51155 0.0
C854 C 0.52888 0.5485 0.51034 0.0
C855 C 0.55874 0.56302 0.51954 0.0
C856 C 0.55494 0.58745 0.51848 0.0
C857 C 0.52152 0.59756 0.5081 0.0
C858 C 0.49188 0.58327 0.49868 0.0
C859 C 0.49553 0.55883 0.49972 0.0
H860 H 0.51863 0.61647 0.5073 0.0
H861 H 0.55646 0.37938 0.51586 0.0
H862 H 0.47854 0.93592 0.57407 0.0
H863 H 0.48074 0.95699 0.53438 0.0
H864 H 0.55315 0.01026 0.56778 0.0
H865 H 0.55085 0.98942 0.60762 0.0
H866 H 0.49617 0.02961 0.5396 0.0
H867 H 0.59246 0.96925 0.52961 0.0
H868 H 0.61796 0.92874 0.52974 0.0
H869 H 0.53461 0.90922 0.4737 0.0
H870 H 0.50823 0.94956 0.47349 0.0
H871 H 0.56298 0.08366 0.42778 0.0
H872 H 0.55899 0.06292 0.46763 0.0
H873 H 0.48499 0.01057 0.43401 0.0
H874 H 0.48894 0.03113 0.39405 0.0
H875 H 0.54231 0.99073 0.46222 0.0
H876 H 0.44644 0.05135 0.47204 0.0
H877 H 0.42132 0.09194 0.47191 0.0
H878 H 0.50439 0.11108 0.52827 0.0
H879 H 0.5304 0.07066 0.52848 0.0
C880 C 0.49495 0.95211 0.57301 0.0
C881 C 0.51461 0.96093 0.59404 0.0
C882 C 0.4963 0.9641 0.55025 0.0
C883 C 0.51743 0.9851 0.54802 0.0
C884 C 0.5367 0.99409 0.56905 0.0
C885 C 0.53544 0.98209 0.5918 0.0
C886 C 0.51933 0.99775 0.52378 0.0
C887 C 0.50675 0.0212 0.52275 0.0
C888 C 0.5323 0.98664 0.50166 0.0
C889 C 0.5481 0.96237 0.50173 0.0
C890 C 0.57935 0.95627 0.51747 0.0
C891 C 0.594 0.93335 0.51753 0.0
C892 C 0.57784 0.9164 0.50179 0.0
C893 C 0.54705 0.92236 0.48591 0.0
C894 C 0.53226 0.94525 0.4858 0.0
C895 C 0.54575 0.06777 0.42885 0.0
C896 C 0.52622 0.0591 0.4077 0.0
C897 C 0.5434 0.05598 0.45168 0.0
C898 C 0.52145 0.03528 0.45386 0.0
C899 C 0.50208 0.02651 0.43277 0.0
C900 C 0.50426 0.03835 0.40995 0.0
C901 C 0.51917 0.02259 0.47805 0.0
C902 C 0.5317 0.99913 0.47907 0.0
C903 C 0.50621 0.03371 0.50016 0.0
C904 C 0.49064 0.05803 0.50009 0.0
C905 C 0.45959 0.06426 0.48425 0.0
C906 C 0.44514 0.08723 0.48419 0.0
C907 C 0.46132 0.10409 0.50002 0.0
C908 C 0.49193 0.09801 0.51599 0.0
C909 C 0.50651 0.07506 0.5161 0.0
H910 H 0.45009 0.12187 0.49996 0.0
H911 H 0.58923 0.89867 0.50185 0.0
loop_
_geom_bond_atom_site_label_1
_geom_bond_atom_site_label_2
_geom_bond_distance
_geom_bond_site_symmetry_2
_ccdc_geom_bond_type
Zn0 O3 2.031 . S
Zn0 O5 2.049 1_455 S
Zn0 O10 2.067 . S
Zn1 O2 1.962 . S
Zn1 O4 1.977 1_455 S
Zn1 O6 1.996 1_455 S
Zn1 O9 1.943 . S
O2 Zn1 1.962 . S
O2 C7 1.254 . S
O3 Zn0 2.031 . S
O3 C7 1.269 . S
O4 Zn1 1.977 1_655 S
O4 C11 1.248 1_655 S
O5 Zn0 2.049 1_655 S
O5 C13 1.260 . S
O6 Zn1 1.996 1_655 S
O6 C13 1.257 . S
C7 O2 1.254 . S
C7 O3 1.269 . S
C8 O9 1.249 . S
C8 O10 1.270 . S
O9 Zn1 1.943 . S
O9 C8 1.249 . S
O10 Zn0 2.067 . S
O10 C8 1.270 . S
C11 O4 1.248 1_455 S
C11 O12 1.232 . S
O12 C11 1.232 . S
C13 O5 1.260 . S
C13 O6 1.257 . S
Zn14 O17 2.031 1_455 S
Zn14 O19 2.049 . S
Zn14 O24 2.067 . S
Zn15 O16 1.962 1_455 S
Zn15 O18 1.986 . S
Zn15 O20 1.996 . S
Zn15 O23 1.943 . S
O16 Zn15 1.962 1_655 S
O16 C21 1.254 . S
O17 Zn14 2.031 1_655 S
O17 C21 1.269 . S
O18 Zn15 1.986 . S
O18 C25 1.262 . S
O19 Zn14 2.049 . S
O19 C27 1.260 . S
O20 Zn15 1.996 . S
O20 C27 1.257 . S
C21 O16 1.254 . S
C21 O17 1.269 . S
C22 O23 1.249 . S
C22 O24 1.270 . S
O23 Zn15 1.943 . S
O23 C22 1.249 . S
O24 Zn14 2.067 . S
O24 C22 1.270 . S
C25 O18 1.262 . S
C25 O26 1.232 1_455 S
O26 C25 1.232 1_655 S
C27 O19 1.260 . S
C27 O20 1.257 . S
Zn28 O31 2.031 . S
Zn28 O33 2.049 1_455 S
Zn28 O38 2.067 . S
Zn29 O30 1.962 . S
Zn29 O32 1.977 1_455 S
Zn29 O34 1.996 1_455 S
Zn29 O37 1.943 . S
O30 Zn29 1.962 . S
O30 C35 1.254 . S
O31 Zn28 2.031 . S
O31 C35 1.269 . S
O32 Zn29 1.977 1_655 S
O32 C39 1.248 1_655 S
O33 Zn28 2.049 1_655 S
O33 C41 1.260 . S
O34 Zn29 1.996 1_655 S
O34 C41 1.257 . S
C35 O30 1.254 . S
C35 O31 1.269 . S
C36 O37 1.249 . S
C36 O38 1.270 . S
O37 Zn29 1.943 . S
O37 C36 1.249 . S
O38 Zn28 2.067 . S
O38 C36 1.270 . S
C39 O32 1.248 1_455 S
C39 O40 1.232 . S
O40 C39 1.232 . S
C41 O33 1.260 . S
C41 O34 1.257 . S
Zn42 O45 2.031 1_455 S
Zn42 O47 2.049 . S
Zn42 O52 2.067 . S
Zn43 O44 1.962 1_455 S
Zn43 O46 1.986 . S
Zn43 O48 1.996 . S
Zn43 O51 1.943 . S
O44 Zn43 1.962 1_655 S
O44 C49 1.254 . S
O45 Zn42 2.031 1_655 S
O45 C49 1.269 . S
O46 Zn43 1.986 . S
O46 C53 1.262 . S
O47 Zn42 2.049 . S
O47 C55 1.260 . S
O48 Zn43 1.996 . S
O48 C55 1.257 . S
C49 O44 1.254 . S
C49 O45 1.269 . S
C50 O51 1.249 . S
C50 O52 1.270 . S
O51 Zn43 1.943 . S
O51 C50 1.249 . S
O52 Zn42 2.067 . S
O52 C50 1.270 . S
C53 O46 1.262 . S
C53 O54 1.232 1_455 S
O54 C53 1.232 1_655 S
C55 O47 1.260 . S
C55 O48 1.257 . S
Zn56 O59 2.031 . S
Zn56 O61 2.049 . S
Zn56 O66 2.067 . S
Zn57 O58 1.962 . S
Zn57 O60 1.986 . S
Zn57 O62 1.996 . S
Zn57 O65 1.943 . S
O58 Zn57 1.962 . S
O58 C63 1.254 . S
O59 Zn56 2.031 . S
O59 C63 1.269 . S
O60 Zn57 1.986 . S
O60 C67 1.262 . S
O61 Zn56 2.049 . S
O61 C69 1.260 . S
O62 Zn57 1.996 . S
O62 C69 1.257 . S
C63 O58 1.254 . S
C63 O59 1.269 . S
C64 O65 1.249 . S
C64 O66 1.270 . S
O65 Zn57 1.943 . S
O65 C64 1.249 . S
O66 Zn56 2.067 . S
O66 C64 1.270 . S
C67 O60 1.262 . S
C67 O68 1.232 . S
O68 C67 1.232 . S
C69 O61 1.260 . S
C69 O62 1.257 . S
Zn70 O73 2.031 . S
Zn70 O75 2.049 . S
Zn70 O80 2.067 . S
Zn71 O72 1.962 . S
Zn71 O74 1.986 . S
Zn71 O76 1.996 . S
Zn71 O79 1.943 . S
O72 Zn71 1.962 . S
O72 C77 1.254 . S
O73 Zn70 2.031 . S
O73 C77 1.269 . S
O74 Zn71 1.986 . S
O74 C81 1.262 . S
O75 Zn70 2.049 . S
O75 C83 1.260 . S
O76 Zn71 1.996 . S
O76 C83 1.257 . S
C77 O72 1.254 . S
C77 O73 1.269 . S
C78 O79 1.249 . S
C78 O80 1.270 . S
O79 Zn71 1.943 . S
O79 C78 1.249 . S
O80 Zn70 2.067 . S
O80 C78 1.270 . S
C81 O74 1.262 . S
C81 O82 1.232 . S
O82 C81 1.232 . S
C83 O75 1.260 . S
C83 O76 1.257 . S
Zn84 O87 2.031 . S
Zn84 O89 2.049 . S
Zn84 O94 2.067 . S
Zn85 O86 1.962 . S
Zn85 O88 1.986 . S
Zn85 O90 1.996 . S
Zn85 O93 1.943 . S
O86 Zn85 1.962 . S
O86 C91 1.254 . S
O87 Zn84 2.031 . S
O87 C91 1.269 . S
O88 Zn85 1.986 . S
O88 C95 1.262 . S
O89 Zn84 2.049 . S
O89 C97 1.260 . S
O90 Zn85 1.996 . S
O90 C97 1.257 . S
C91 O86 1.254 . S
C91 O87 1.269 . S
C92 O93 1.249 . S
C92 O94 1.270 . S
O93 Zn85 1.943 . S
O93 C92 1.249 . S
O94 Zn84 2.067 . S
O94 C92 1.270 . S
C95 O88 1.262 . S
C95 O96 1.232 . S
O96 C95 1.232 . S
C97 O89 1.260 . S
C97 O90 1.257 . S
Zn98 O101 2.031 . S
Zn98 O103 2.049 . S
Zn98 O108 2.067 . S
Zn99 O100 1.962 . S
Zn99 O102 1.986 . S
Zn99 O104 1.996 . S
Zn99 O107 1.943 . S
O100 Zn99 1.962 . S
O100 C105 1.254 . S
O101 Zn98 2.031 . S
O101 C105 1.269 . S
O102 Zn99 1.986 . S
O102 C109 1.262 . S
O103 Zn98 2.049 . S
O103 C111 1.260 . S
O104 Zn99 1.996 . S
O104 C111 1.257 . S
C105 O100 1.254 . S
C105 O101 1.269 . S
C106 O107 1.249 . S
C106 O108 1.270 . S
O107 Zn99 1.943 . S
O107 C106 1.249 . S
O108 Zn98 2.067 . S
O108 C106 1.270 . S
C109 O102 1.262 . S
C109 O110 1.232 . S
O110 C109 1.232 . S
C111 O103 1.260 . S
C111 O104 1.257 . S
H112 C130 0.951 . S
H113 C132 0.951 . S
H114 C134 0.956 . S
H115 C135 0.951 1_655 S
H116 C137 0.950 . S
H117 C140 0.950 . S
H118 C141 0.950 . S
H119 C143 0.950 . S
H120 C144 0.950 . S
H121 C145 0.951 1_655 S
H122 C147 0.951 1_655 S
H123 C149 0.950 . S
H124 C150 0.950 . S
H125 C152 0.950 . S
H126 C155 0.950 . S
H127 C156 0.950 . S
H128 C158 0.950 . S
H129 C159 0.950 1_655 S
C130 H112 0.951 . S
C130 C131 1.366 . S
C130 C132 1.388 . S
C131 C130 1.366 . S
C131 C135 1.383 . S
C132 H113 0.951 . S
C132 C130 1.388 . S
C132 C133 1.366 . S
C133 C132 1.366 . S
C133 C134 1.408 1_455 S
C133 C136 1.499 . S
C134 H114 0.956 . S
C134 C133 1.408 1_655 S
C134 C135 1.374 1_655 S
C135 H115 0.951 1_455 S
C135 C131 1.383 . S
C135 C134 1.374 1_455 S
C136 C133 1.499 . S
C136 C137 1.373 . S
C136 C138 1.389 . S
C137 H116 0.950 . S
C137 C136 1.373 . S
C137 C153 1.377 . S
C138 C136 1.389 . S
C138 C139 1.524 . S
C138 C152 1.377 . S
C139 C138 1.524 . S
C139 C140 1.397 1_455 S
C139 C144 1.363 . S
C140 H117 0.950 . S
C140 C139 1.397 1_655 S
C140 C141 1.334 . S
C141 H118 0.950 . S
C141 C140 1.334 . S
C141 C142 1.287 . S
C142 C141 1.287 . S
C142 C143 1.524 1_655 S
C142 H161 0.913 . S
C143 H119 0.950 . S
C143 C142 1.524 1_455 S
C143 C144 1.415 . S
C144 H120 0.950 . S
C144 C139 1.363 . S
C144 C143 1.415 . S
C145 H121 0.951 1_455 S
C145 C146 1.366 . S
C145 C147 1.388 . S
C146 C145 1.366 . S
C146 C150 1.385 . S
C147 H122 0.951 1_455 S
C147 C145 1.388 . S
C147 C148 1.366 . S
C148 C147 1.366 . S
C148 C149 1.414 . S
C148 C151 1.499 . S
C149 H123 0.950 . S
C149 C148 1.414 . S
C149 C150 1.374 . S
C150 H124 0.950 . S
C150 C146 1.385 . S
C150 C149 1.374 . S
C151 C148 1.499 . S
C151 C152 1.373 . S
C151 C153 1.389 . S
C152 H125 0.950 . S
C152 C138 1.377 . S
C152 C151 1.373 . S
C153 C137 1.377 . S
C153 C151 1.389 . S
C153 C154 1.524 . S
C154 C153 1.524 . S
C154 C155 1.397 . S
C154 C159 1.363 . S
C155 H126 0.950 . S
C155 C154 1.397 . S
C155 C156 1.334 . S
C156 H127 0.950 . S
C156 C155 1.334 . S
C156 C157 1.287 . S
C157 C156 1.287 . S
C157 C158 1.524 . S
C157 H160 0.999 . S
C158 H128 0.950 . S
C158 C157 1.524 . S
C158 C159 1.415 . S
C159 H129 0.950 1_455 S
C159 C154 1.363 . S
C159 C158 1.415 . S
H160 C157 0.999 . S
H161 C142 0.913 . S
H162 C180 0.941 1_655 S
H163 C182 0.951 1_655 S
H164 C184 0.950 . S
H165 C185 0.950 . S
H166 C187 0.950 . S
H167 C190 0.950 . S
H168 C191 0.950 . S
H169 C193 0.950 . S
H170 C194 0.950 . S
H171 C195 0.951 . S
H172 C197 0.951 . S
H173 C199 0.950 1_655 S
H174 C200 0.950 1_655 S
H175 C202 0.950 . S
H176 C205 0.950 . S
H177 C206 0.950 . S
H178 C208 0.950 . S
H179 C209 0.950 . S
C180 H162 0.941 1_455 S
C180 C181 1.366 . S
C180 C182 1.388 . S
C181 C180 1.366 . S
C181 C185 1.385 . S
C182 H163 0.951 1_455 S
C182 C180 1.388 . S
C182 C183 1.366 . S
C183 C182 1.366 . S
C183 C184 1.414 . S
C183 C186 1.499 . S
C184 H164 0.950 . S
C184 C183 1.414 . S
C184 C185 1.374 . S
C185 H165 0.950 . S
C185 C181 1.385 . S
C185 C184 1.374 . S
C186 C183 1.499 . S
C186 C187 1.373 . S
C186 C188 1.389 1_455 S
C187 H166 0.950 . S
C187 C186 1.373 . S
C187 C203 1.377 . S
C188 C186 1.389 1_655 S
C188 C189 1.524 . S
C188 C202 1.377 . S
C189 C188 1.524 . S
C189 C190 1.397 . S
C189 C194 1.363 . S
C190 H167 0.950 . S
C190 C189 1.397 . S
C190 C191 1.334 . S
C191 H168 0.950 . S
C191 C190 1.334 . S
C191 C192 1.287 . S
C192 C191 1.287 . S
C192 C193 1.524 . S
C192 H211 0.913 . S
C193 H169 0.950 . S
C193 C192 1.524 . S
C193 C194 1.415 . S
C194 H170 0.950 . S
C194 C189 1.363 . S
C194 C193 1.415 . S
C195 H171 0.951 . S
C195 C196 1.366 . S
C195 C197 1.388 . S
C196 C195 1.366 . S
C196 C200 1.385 . S
C197 H172 0.951 . S
C197 C195 1.388 . S
C197 C198 1.366 . S
C198 C197 1.366 . S
C198 C199 1.414 . S
C198 C201 1.499 . S
C199 H173 0.950 1_455 S
C199 C198 1.414 . S
C199 C200 1.374 . S
C200 H174 0.950 1_455 S
C200 C196 1.385 . S
C200 C199 1.374 . S
C201 C198 1.499 . S
C201 C202 1.373 1_455 S
C201 C203 1.389 . S
C202 H175 0.950 . S
C202 C188 1.377 . S
C202 C201 1.373 1_655 S
C203 C187 1.377 . S
C203 C201 1.389 . S
C203 C204 1.524 . S
C204 C203 1.524 . S
C204 C205 1.397 . S
C204 C209 1.363 . S
C205 H176 0.950 . S
C205 C204 1.397 . S
C205 C206 1.334 . S
C206 H177 0.950 . S
C206 C205 1.334 . S
C206 C207 1.287 . S
C207 C206 1.287 . S
C207 C208 1.524 . S
C207 H210 0.999 . S
C208 H178 0.950 . S
C208 C207 1.524 . S
C208 C209 1.415 . S
C209 H179 0.950 . S
C209 C204 1.363 . S
C209 C208 1.415 . S
H210 C207 0.999 . S
H211 C192 0.913 . S
H212 C230 0.951 . S
H213 C232 0.951 . S
H214 C234 0.950 . S
H215 C235 0.950 . S
H216 C237 0.950 . S
H217 C240 0.950 . S
H218 C241 0.950 . S
H219 C243 0.950 . S
H220 C244 0.950 . S
H221 C245 0.951 . S
H222 C247 0.951 . S
H223 C249 0.950 . S
H224 C250 0.950 . S
H225 C252 0.950 . S
H226 C255 0.950 . S
H227 C256 0.950 . S
H228 C258 0.950 . S
H229 C259 0.950 . S
C230 H212 0.951 . S
C230 C231 1.366 . S
C230 C232 1.388 . S
C231 C230 1.366 . S
C231 C235 1.385 . S
C232 H213 0.951 . S
C232 C230 1.388 . S
C232 C233 1.366 . S
C233 C232 1.366 . S
C233 C234 1.414 . S
C233 C236 1.499 . S
C234 H214 0.950 . S
C234 C233 1.414 . S
C234 C235 1.374 . S
C235 H215 0.950 . S
C235 C231 1.385 . S
C235 C234 1.374 . S
C236 C233 1.499 . S
C236 C237 1.373 . S
C236 C238 1.389 . S
C237 H216 0.950 . S
C237 C236 1.373 . S
C237 C253 1.377 . S
C238 C236 1.389 . S
C238 C239 1.524 . S
C238 C252 1.377 . S
C239 C238 1.524 . S
C239 C240 1.397 . S
C239 C244 1.363 . S
C240 H217 0.950 . S
C240 C239 1.397 . S
C240 C241 1.334 . S
C241 H218 0.950 . S
C241 C240 1.334 . S
C241 C242 1.287 . S
C242 C241 1.287 . S
C242 C243 1.524 . S
C242 H261 0.913 . S
C243 H219 0.950 . S
C243 C242 1.524 . S
C243 C244 1.415 . S
C244 H220 0.950 . S
C244 C239 1.363 . S
C244 C243 1.415 . S
C245 H221 0.951 . S
C245 C246 1.366 . S
C245 C247 1.388 . S
C246 C245 1.366 . S
C246 C250 1.385 . S
C247 H222 0.951 . S
C247 C245 1.388 . S
C247 C248 1.366 . S
C248 C247 1.366 . S
C248 C249 1.414 . S
C248 C251 1.499 . S
C249 H223 0.950 . S
C249 C248 1.414 . S
C249 C250 1.374 . S
C250 H224 0.950 . S
C250 C246 1.385 . S
C250 C249 1.374 . S
C251 C248 1.499 . S
C251 C252 1.373 . S
C251 C253 1.389 . S
C252 H225 0.950 . S
C252 C238 1.377 . S
C252 C251 1.373 . S
C253 C237 1.377 . S
C253 C251 1.389 . S
C253 C254 1.524 . S
C254 C253 1.524 . S
C254 C255 1.397 . S
C254 C259 1.363 . S
C255 H226 0.950 . S
C255 C254 1.397 . S
C255 C256 1.334 . S
C256 H227 0.950 . S
C256 C255 1.334 . S
C256 C257 1.287 . S
C257 C256 1.287 . S
C257 C258 1.524 . S
C257 H260 0.999 . S
C258 H228 0.950 . S
C258 C257 1.524 . S
C258 C259 1.415 . S
C259 H229 0.950 . S
C259 C254 1.363 . S
C259 C258 1.415 . S
H260 C257 0.999 . S
H261 C242 0.913 . S
H262 C280 0.951 . S
H263 C282 0.951 . S
H264 C284 0.950 . S
H265 C285 0.950 . S
H266 C287 0.950 . S
H267 C290 0.950 . S
H268 C291 0.950 . S
H269 C293 0.950 . S
H270 C294 0.950 . S
H271 C295 0.951 . S
H272 C297 0.951 . S
H273 C299 0.950 . S
H274 C300 0.950 . S
H275 C302 0.950 . S
H276 C305 0.950 . S
H277 C306 0.950 . S
H278 C308 0.950 . S
H279 C309 0.950 . S
C280 H262 0.951 . S
C280 C281 1.366 . S
C280 C282 1.388 . S
C281 C280 1.366 . S
C281 C285 1.385 . S
C282 H263 0.951 . S
C282 C280 1.388 . S
C282 C283 1.366 . S
C283 C282 1.366 . S
C283 C284 1.414 . S
C283 C286 1.499 . S
C284 H264 0.950 . S
C284 C283 1.414 . S
C284 C285 1.374 . S
C285 H265 0.950 . S
C285 C281 1.385 . S
C285 C284 1.374 . S
C286 C283 1.499 . S
C286 C287 1.373 . S
C286 C288 1.389 . S
C287 H266 0.950 . S
C287 C286 1.373 . S
C287 C303 1.377 . S
C288 C286 1.389 . S
C288 C289 1.524 . S
C288 C302 1.377 . S
C289 C288 1.524 . S
C289 C290 1.397 . S
C289 C294 1.363 . S
C290 H267 0.950 . S
C290 C289 1.397 . S
C290 C291 1.334 . S
C291 H268 0.950 . S
C291 C290 1.334 . S
C291 C292 1.287 . S
C292 C291 1.287 . S
C292 C293 1.524 . S
C292 H311 0.913 . S
C293 H269 0.950 . S
C293 C292 1.524 . S
C293 C294 1.415 . S
C294 H270 0.950 . S
C294 C289 1.363 . S
C294 C293 1.415 . S
C295 H271 0.951 . S
C295 C296 1.366 . S
C295 C297 1.388 . S
C296 C295 1.366 . S
C296 C300 1.385 . S
C297 H272 0.951 . S
C297 C295 1.388 . S
C297 C298 1.366 . S
C298 C297 1.366 . S
C298 C299 1.414 . S
C298 C301 1.499 . S
C299 H273 0.950 . S
C299 C298 1.414 . S
C299 C300 1.374 . S
C300 H274 0.950 . S
C300 C296 1.385 . S
C300 C299 1.374 . S
C301 C298 1.499 . S
C301 C302 1.373 . S
C301 C303 1.389 . S
C302 H275 0.950 . S
C302 C288 1.377 . S
C302 C301 1.373 . S
C303 C287 1.377 . S
C303 C301 1.389 . S
C303 C304 1.524 . S
C304 C303 1.524 . S
C304 C305 1.397 . S
C304 C309 1.363 . S
C305 H276 0.950 . S
C305 C304 1.397 . S
C305 C306 1.334 . S
C306 H277 0.950 . S
C306 C305 1.334 . S
C306 C307 1.287 . S
C307 C306 1.287 . S
C307 C308 1.524 . S
C307 H310 0.999 . S
C308 H278 0.950 . S
C308 C307 1.524 . S
C308 C309 1.415 . S
C309 H279 0.950 . S
C309 C304 1.363 . S
C309 C308 1.415 . S
H310 C307 0.999 . S
H311 C292 0.913 . S
H312 C330 0.951 . S
H313 C332 0.951 . S
H314 C334 0.950 . S
H315 C335 0.950 . S
H316 C337 0.950 . S
H317 C340 0.950 . S
H318 C341 0.950 . S
H319 C343 0.950 . S
H320 C344 0.950 . S
H321 C345 0.951 . S
H322 C347 0.951 . S
H323 C349 0.950 . S
H324 C350 0.950 . S
H325 C352 0.950 . S
H326 C355 0.950 . S
H327 C356 0.950 . S
H328 C358 0.950 . S
H329 C359 0.950 . S
C330 H312 0.951 . S
C330 C331 1.366 . S
C330 C332 1.388 . S
C331 C330 1.366 . S
C331 C335 1.385 . S
C332 H313 0.951 . S
C332 C330 1.388 . S
C332 C333 1.366 . S
C333 C332 1.366 . S
C333 C334 1.414 . S
C333 C336 1.499 . S
C334 H314 0.950 . S
C334 C333 1.414 . S
C334 C335 1.374 . S
C335 H315 0.950 . S
C335 C331 1.385 . S
C335 C334 1.374 . S
C336 C333 1.499 . S
C336 C337 1.373 . S
C336 C338 1.389 . S
C337 H316 0.950 . S
C337 C336 1.373 . S
C337 C353 1.377 . S
C338 C336 1.389 . S
C338 C339 1.524 . S
C338 C352 1.377 . S
C339 C338 1.524 . S
C339 C340 1.397 . S
C339 C344 1.363 . S
C340 H317 0.950 . S
C340 C339 1.397 . S
C340 C341 1.334 . S
C341 H318 0.950 . S
C341 C340 1.334 . S
C341 C342 1.287 . S
C342 C341 1.287 . S
C342 C343 1.524 . S
C342 H361 0.913 . S
C343 H319 0.950 . S
C343 C342 1.524 . S
C343 C344 1.415 . S
C344 H320 0.950 . S
C344 C339 1.363 . S
C344 C343 1.415 . S
C345 H321 0.951 . S
C345 C346 1.366 . S
C345 C347 1.388 . S
C346 C345 1.366 . S
C346 C350 1.385 . S
C347 H322 0.951 . S
C347 C345 1.388 . S
C347 C348 1.366 . S
C348 C347 1.366 . S
C348 C349 1.414 . S
C348 C351 1.499 . S
C349 H323 0.950 . S
C349 C348 1.414 . S
C349 C350 1.374 . S
C350 H324 0.950 . S
C350 C346 1.385 . S
C350 C349 1.374 . S
C351 C348 1.499 . S
C351 C352 1.373 . S
C351 C353 1.389 . S
C352 H325 0.950 . S
C352 C338 1.377 . S
C352 C351 1.373 . S
C353 C337 1.377 . S
C353 C351 1.389 . S
C353 C354 1.524 . S
C354 C353 1.524 . S
C354 C355 1.397 . S
C354 C359 1.363 . S
C355 H326 0.950 . S
C355 C354 1.397 . S
C355 C356 1.334 . S
C356 H327 0.950 . S
C356 C355 1.334 . S
C356 C357 1.287 . S
C357 C356 1.287 . S
C357 C358 1.524 . S
C357 H360 0.999 . S
C358 H328 0.950 . S
C358 C357 1.524 . S
C358 C359 1.415 . S
C359 H329 0.950 . S
C359 C354 1.363 . S
C359 C358 1.415 . S
H360 C357 0.999 . S
H361 C342 0.913 . S
H362 C380 0.951 . S
H363 C382 0.951 . S
H364 C384 0.950 . S
H365 C385 0.950 . S
H366 C387 0.950 . S
H367 C390 0.950 . S
H368 C391 0.950 . S
H369 C393 0.950 . S
H370 C394 0.950 . S
H371 C395 0.951 . S
H372 C397 0.951 . S
H373 C399 0.950 . S
H374 C400 0.950 . S
H375 C402 0.950 . S
H376 C405 0.950 . S
H377 C406 0.950 . S
H378 C408 0.950 . S
H379 C409 0.950 . S
C380 H362 0.951 . S
C380 C381 1.366 . S
C380 C382 1.388 . S
C381 C380 1.366 . S
C381 C385 1.385 . S
C382 H363 0.951 . S
C382 C380 1.388 . S
C382 C383 1.366 . S
C383 C382 1.366 . S
C383 C384 1.414 . S
C383 C386 1.499 . S
C384 H364 0.950 . S
C384 C383 1.414 . S
C384 C385 1.374 . S
C385 H365 0.950 . S
C385 C381 1.385 . S
C385 C384 1.374 . S
C386 C383 1.499 . S
C386 C387 1.373 . S
C386 C388 1.389 . S
C387 H366 0.950 . S
C387 C386 1.373 . S
C387 C403 1.377 . S
C388 C386 1.389 . S
C388 C389 1.524 . S
C388 C402 1.377 . S
C389 C388 1.524 . S
C389 C390 1.397 . S
C389 C394 1.363 . S
C390 H367 0.950 . S
C390 C389 1.397 . S
C390 C391 1.334 . S
C391 H368 0.950 . S
C391 C390 1.334 . S
C391 C392 1.287 . S
C392 C391 1.287 . S
C392 C393 1.524 . S
C392 H411 0.913 . S
C393 H369 0.950 . S
C393 C392 1.524 . S
C393 C394 1.415 . S
C394 H370 0.950 . S
C394 C389 1.363 . S
C394 C393 1.415 . S
C395 H371 0.951 . S
C395 C396 1.366 . S
C395 C397 1.388 . S
C396 C395 1.366 . S
C396 C400 1.385 . S
C397 H372 0.951 . S
C397 C395 1.388 . S
C397 C398 1.366 . S
C398 C397 1.366 . S
C398 C399 1.414 . S
C398 C401 1.499 . S
C399 H373 0.950 . S
C399 C398 1.414 . S
C399 C400 1.374 . S
C400 H374 0.950 . S
C400 C396 1.385 . S
C400 C399 1.374 . S
C401 C398 1.499 . S
C401 C402 1.373 . S
C401 C403 1.389 . S
C402 H375 0.950 . S
C402 C388 1.377 . S
C402 C401 1.373 . S
C403 C387 1.377 . S
C403 C401 1.389 . S
C403 C404 1.524 . S
C404 C403 1.524 . S
C404 C405 1.397 . S
C404 C409 1.363 . S
C405 H376 0.950 . S
C405 C404 1.397 . S
C405 C406 1.334 . S
C406 H377 0.950 . S
C406 C405 1.334 . S
C406 C407 1.287 . S
C407 C406 1.287 . S
C407 C408 1.524 . S
C407 H410 0.999 . S
C408 H378 0.950 . S
C408 C407 1.524 . S
C408 C409 1.415 . S
C409 H379 0.950 . S
C409 C404 1.363 . S
C409 C408 1.415 . S
H410 C407 0.999 . S
H411 C392 0.913 . S
H412 C430 0.951 . S
H413 C432 0.951 . S
H414 C434 0.950 . S
H415 C435 0.950 . S
H416 C437 0.950 . S
H417 C440 0.950 . S
H418 C441 0.950 . S
H419 C443 0.950 . S
H420 C444 0.950 . S
H421 C445 0.951 . S
H422 C447 0.951 . S
H423 C449 0.950 . S
H424 C450 0.950 . S
H425 C452 0.950 . S
H426 C455 0.950 . S
H427 C456 0.950 1_545 S
H428 C458 0.950 . S
H429 C459 0.950 . S
C430 H412 0.951 . S
C430 C431 1.366 . S
C430 C432 1.388 . S
C431 C430 1.366 . S
C431 C435 1.385 . S
C432 H413 0.951 . S
C432 C430 1.388 . S
C432 C433 1.366 . S
C433 C432 1.366 . S
C433 C434 1.414 . S
C433 C436 1.499 . S
C434 H414 0.950 . S
C434 C433 1.414 . S
C434 C435 1.374 . S
C435 H415 0.950 . S
C435 C431 1.385 . S
C435 C434 1.374 . S
C436 C433 1.499 . S
C436 C437 1.373 . S
C436 C438 1.389 . S
C437 H416 0.950 . S
C437 C436 1.373 . S
C437 C453 1.377 . S
C438 C436 1.389 . S
C438 C439 1.524 . S
C438 C452 1.377 . S
C439 C438 1.524 . S
C439 C440 1.397 . S
C439 C444 1.363 . S
C440 H417 0.950 . S
C440 C439 1.397 . S
C440 C441 1.334 . S
C441 H418 0.950 . S
C441 C440 1.334 . S
C441 C442 1.287 . S
C442 C441 1.287 . S
C442 C443 1.524 . S
C442 H461 0.913 . S
C443 H419 0.950 . S
C443 C442 1.524 . S
C443 C444 1.415 . S
C444 H420 0.950 . S
C444 C439 1.363 . S
C444 C443 1.415 . S
C445 H421 0.951 . S
C445 C446 1.366 . S
C445 C447 1.388 . S
C446 C445 1.366 . S
C446 C450 1.385 . S
C447 H422 0.951 . S
C447 C445 1.388 . S
C447 C448 1.366 . S
C448 C447 1.366 . S
C448 C449 1.414 . S
C448 C451 1.499 . S
C449 H423 0.950 . S
C449 C448 1.414 . S
C449 C450 1.374 . S
C450 H424 0.950 . S
C450 C446 1.385 . S
C450 C449 1.374 . S
C451 C448 1.499 . S
C451 C452 1.373 . S
C451 C453 1.389 . S
C452 H425 0.950 . S
C452 C438 1.377 . S
C452 C451 1.373 . S
C453 C437 1.377 . S
C453 C451 1.389 . S
C453 C454 1.524 . S
C454 C453 1.524 . S
C454 C455 1.397 . S
C454 C459 1.363 . S
C455 H426 0.950 . S
C455 C454 1.397 . S
C455 C456 1.334 . S
C456 H427 0.950 1_565 S
C456 C455 1.334 . S
C456 C457 1.287 1_565 S
C457 C456 1.287 1_545 S
C457 C458 1.524 . S
C457 H460 0.999 . S
C458 H428 0.950 . S
C458 C457 1.524 . S
C458 C459 1.415 1_545 S
C459 H429 0.950 . S
C459 C454 1.363 . S
C459 C458 1.415 1_565 S
H460 C457 0.999 . S
H461 C442 0.913 . S
H462 C480 0.951 . S
H463 C482 0.951 . S
H464 C484 0.950 . S
H465 C485 0.950 . S
H466 C487 0.950 . S
H467 C490 0.950 . S
H468 C491 0.950 . S
H469 C493 0.950 . S
H470 C494 0.950 . S
H471 C495 0.951 . S
H472 C497 0.951 . S
H473 C499 0.950 . S
H474 C500 0.950 . S
H475 C502 0.950 . S
H476 C505 0.950 . S
H477 C506 0.950 . S
H478 C508 0.950 . S
H479 C509 0.950 . S
C480 H462 0.951 . S
C480 C481 1.366 . S
C480 C482 1.388 . S
C481 C480 1.366 . S
C481 C485 1.385 . S
C482 H463 0.951 . S
C482 C480 1.388 . S
C482 C483 1.366 . S
C483 C482 1.366 . S
C483 C484 1.414 . S
C483 C486 1.499 . S
C484 H464 0.950 . S
C484 C483 1.414 . S
C484 C485 1.374 . S
C485 H465 0.950 . S
C485 C481 1.385 . S
C485 C484 1.374 . S
C486 C483 1.499 . S
C486 C487 1.373 . S
C486 C488 1.389 . S
C487 H466 0.950 . S
C487 C486 1.373 . S
C487 C503 1.377 . S
C488 C486 1.389 . S
C488 C489 1.524 . S
C488 C502 1.377 . S
C489 C488 1.524 . S
C489 C490 1.397 . S
C489 C494 1.363 . S
C490 H467 0.950 . S
C490 C489 1.397 . S
C490 C491 1.334 . S
C491 H468 0.950 . S
C491 C490 1.334 . S
C491 C492 1.287 . S
C492 C491 1.287 . S
C492 C493 1.524 . S
C492 H511 0.913 . S
C493 H469 0.950 . S
C493 C492 1.524 . S
C493 C494 1.415 . S
C494 H470 0.950 . S
C494 C489 1.363 . S
C494 C493 1.415 . S
C495 H471 0.951 . S
C495 C496 1.366 . S
C495 C497 1.388 . S
C496 C495 1.366 . S
C496 C500 1.385 . S
C497 H472 0.951 . S
C497 C495 1.388 . S
C497 C498 1.366 . S
C498 C497 1.366 . S
C498 C499 1.414 . S
C498 C501 1.499 . S
C499 H473 0.950 . S
C499 C498 1.414 . S
C499 C500 1.374 . S
C500 H474 0.950 . S
C500 C496 1.385 . S
C500 C499 1.374 . S
C501 C498 1.499 . S
C501 C502 1.373 . S
C501 C503 1.389 . S
C502 H475 0.950 . S
C502 C488 1.377 . S
C502 C501 1.373 . S
C503 C487 1.377 . S
C503 C501 1.389 . S
C503 C504 1.524 . S
C504 C503 1.524 . S
C504 C505 1.397 . S
C504 C509 1.363 . S
C505 H476 0.950 . S
C505 C504 1.397 . S
C505 C506 1.334 . S
C506 H477 0.950 . S
C506 C505 1.334 . S
C506 C507 1.287 . S
C507 C506 1.287 . S
C507 C508 1.524 . S
C507 H510 0.999 . S
C508 H478 0.950 . S
C508 C507 1.524 . S
C508 C509 1.415 . S
C509 H479 0.950 . S
C509 C504 1.363 . S
C509 C508 1.415 . S
H510 C507 0.999 . S
H511 C492 0.913 . S
H512 C530 0.951 . S
H513 C532 0.951 . S
H514 C534 0.950 . S
H515 C535 0.950 . S
H516 C537 0.950 . S
H517 C540 0.950 . S
H518 C541 0.943 1_545 S
H519 C543 0.950 . S
H520 C544 0.950 . S
H521 C545 0.951 . S
H522 C547 0.951 . S
H523 C549 0.950 . S
H524 C550 0.950 . S
H525 C552 0.950 . S
H526 C555 0.950 . S
H527 C556 0.950 . S
H528 C558 0.950 . S
H529 C559 0.950 . S
C530 H512 0.951 . S
C530 C531 1.366 . S
C530 C532 1.388 . S
C531 C530 1.366 . S
C531 C535 1.385 . S
C532 H513 0.951 . S
C532 C530 1.388 . S
C532 C533 1.366 . S
C533 C532 1.366 . S
C533 C534 1.414 . S
C533 C536 1.499 . S
C534 H514 0.950 . S
C534 C533 1.414 . S
C534 C535 1.374 . S
C535 H515 0.950 . S
C535 C531 1.385 . S
C535 C534 1.374 . S
C536 C533 1.499 . S
C536 C537 1.373 . S
C536 C538 1.389 . S
C537 H516 0.950 . S
C537 C536 1.373 . S
C537 C553 1.377 . S
C538 C536 1.389 . S
C538 C539 1.524 . S
C538 C552 1.377 . S
C539 C538 1.524 . S
C539 C540 1.397 . S
C539 C544 1.363 . S
C540 H517 0.950 . S
C540 C539 1.397 . S
C540 C541 1.334 . S
C541 H518 0.943 1_565 S
C541 C540 1.334 . S
C541 C542 1.287 1_565 S
C542 C541 1.287 1_545 S
C542 C543 1.524 . S
C542 H561 0.913 . S
C543 H519 0.950 . S
C543 C542 1.524 . S
C543 C544 1.415 1_545 S
C544 H520 0.950 . S
C544 C539 1.363 . S
C544 C543 1.415 1_565 S
C545 H521 0.951 . S
C545 C546 1.366 . S
C545 C547 1.388 . S
C546 C545 1.366 . S
C546 C550 1.385 . S
C547 H522 0.951 . S
C547 C545 1.388 . S
C547 C548 1.366 . S
C548 C547 1.366 . S
C548 C549 1.414 . S
C548 C551 1.499 . S
C549 H523 0.950 . S
C549 C548 1.414 . S
C549 C550 1.374 . S
C550 H524 0.950 . S
C550 C546 1.385 . S
C550 C549 1.374 . S
C551 C548 1.499 . S
C551 C552 1.373 . S
C551 C553 1.389 . S
C552 H525 0.950 . S
C552 C538 1.377 . S
C552 C551 1.373 . S
C553 C537 1.377 . S
C553 C551 1.389 . S
C553 C554 1.524 . S
C554 C553 1.524 . S
C554 C555 1.397 . S
C554 C559 1.363 . S
C555 H526 0.950 . S
C555 C554 1.397 . S
C555 C556 1.334 . S
C556 H527 0.950 . S
C556 C555 1.334 . S
C556 C557 1.287 . S
C557 C556 1.287 . S
C557 C558 1.524 . S
C557 H560 0.999 . S
C558 H528 0.950 . S
C558 C557 1.524 . S
C558 C559 1.415 . S
C559 H529 0.950 . S
C559 C554 1.363 . S
C559 C558 1.415 . S
H560 C557 0.999 . S
H561 C542 0.913 . S
H562 C580 0.951 . S
H563 C582 0.951 . S
H564 C584 0.950 . S
H565 C585 0.950 . S
H566 C587 0.950 . S
H567 C590 0.950 . S
H568 C591 0.950 . S
H569 C593 0.950 . S
H570 C594 0.950 . S
H571 C595 0.951 . S
H572 C597 0.951 . S
H573 C599 0.950 . S
H574 C600 0.950 . S
H575 C602 0.950 . S
H576 C605 0.950 . S
H577 C606 0.950 . S
H578 C608 0.950 . S
H579 C609 0.950 . S
C580 H562 0.951 . S
C580 C581 1.366 . S
C580 C582 1.388 . S
C581 C580 1.366 . S
C581 C585 1.385 . S
C582 H563 0.951 . S
C582 C580 1.388 . S
C582 C583 1.366 . S
C583 C582 1.366 . S
C583 C584 1.414 . S
C583 C586 1.499 . S
C584 H564 0.950 . S
C584 C583 1.414 . S
C584 C585 1.374 . S
C585 H565 0.950 . S
C585 C581 1.385 . S
C585 C584 1.374 . S
C586 C583 1.499 . S
C586 C587 1.373 . S
C586 C588 1.389 . S
C587 H566 0.950 . S
C587 C586 1.373 . S
C587 C603 1.377 . S
C588 C586 1.389 . S
C588 C589 1.524 . S
C588 C602 1.377 . S
C589 C588 1.524 . S
C589 C590 1.397 . S
C589 C594 1.363 . S
C590 H567 0.950 . S
C590 C589 1.397 . S
C590 C591 1.334 . S
C591 H568 0.950 . S
C591 C590 1.334 . S
C591 C592 1.287 . S
C592 C591 1.287 . S
C592 C593 1.524 . S
C592 H611 0.913 . S
C593 H569 0.950 . S
C593 C592 1.524 . S
C593 C594 1.415 . S
C594 H570 0.950 . S
C594 C589 1.363 . S
C594 C593 1.415 . S
C595 H571 0.951 . S
C595 C596 1.366 . S
C595 C597 1.388 . S
C596 C595 1.366 . S
C596 C600 1.385 . S
C597 H572 0.951 . S
C597 C595 1.388 . S
C597 C598 1.366 . S
C598 C597 1.366 . S
C598 C599 1.414 . S
C598 C601 1.499 . S
C599 H573 0.950 . S
C599 C598 1.414 . S
C599 C600 1.374 . S
C600 H574 0.950 . S
C600 C596 1.385 . S
C600 C599 1.374 . S
C601 C598 1.499 . S
C601 C602 1.373 . S
C601 C603 1.389 . S
C602 H575 0.950 . S
C602 C588 1.377 . S
C602 C601 1.373 . S
C603 C587 1.377 . S
C603 C601 1.389 . S
C603 C604 1.524 . S
C604 C603 1.524 . S
C604 C605 1.397 . S
C604 C609 1.363 . S
C605 H576 0.950 . S
C605 C604 1.397 . S
C605 C606 1.334 . S
C606 H577 0.950 . S
C606 C605 1.334 . S
C606 C607 1.287 . S
C607 C606 1.287 . S
C607 C608 1.524 . S
C607 H610 0.999 . S
C608 H578 0.950 . S
C608 C607 1.524 . S
C608 C609 1.415 . S
C609 H579 0.950 . S
C609 C604 1.363 . S
C609 C608 1.415 . S
H610 C607 0.999 . S
H611 C592 0.913 . S
H612 C630 0.951 . S
H613 C632 0.951 . S
H614 C634 0.950 . S
H615 C635 0.950 . S
H616 C637 0.950 . S
H617 C640 0.950 . S
H618 C641 0.950 . S
H619 C643 0.950 . S
H620 C644 0.950 . S
H621 C645 0.951 . S
H622 C647 0.951 . S
H623 C649 0.950 . S
H624 C650 0.950 . S
H625 C652 0.950 . S
H626 C655 0.950 . S
H627 C656 0.950 . S
H628 C658 0.950 . S
H629 C659 0.950 . S
C630 H612 0.951 . S
C630 C631 1.366 . S
C630 C632 1.388 . S
C631 C630 1.366 . S
C631 C635 1.385 . S
C632 H613 0.951 . S
C632 C630 1.388 . S
C632 C633 1.366 . S
C633 C632 1.366 . S
C633 C634 1.414 . S
C633 C636 1.499 . S
C634 H614 0.950 . S
C634 C633 1.414 . S
C634 C635 1.374 . S
C635 H615 0.950 . S
C635 C631 1.385 . S
C635 C634 1.374 . S
C636 C633 1.499 . S
C636 C637 1.373 . S
C636 C638 1.389 . S
C637 H616 0.950 . S
C637 C636 1.373 . S
C637 C653 1.377 . S
C638 C636 1.389 . S
C638 C639 1.524 . S
C638 C652 1.377 . S
C639 C638 1.524 . S
C639 C640 1.397 . S
C639 C644 1.363 . S
C640 H617 0.950 . S
C640 C639 1.397 . S
C640 C641 1.334 . S
C641 H618 0.950 . S
C641 C640 1.334 . S
C641 C642 1.287 . S
C642 C641 1.287 . S
C642 C643 1.524 . S
C642 H661 0.913 . S
C643 H619 0.950 . S
C643 C642 1.524 . S
C643 C644 1.415 . S
C644 H620 0.950 . S
C644 C639 1.363 . S
C644 C643 1.415 . S
C645 H621 0.951 . S
C645 C646 1.366 . S
C645 C647 1.388 . S
C646 C645 1.366 . S
C646 C650 1.385 . S
C647 H622 0.951 . S
C647 C645 1.388 . S
C647 C648 1.366 . S
C648 C647 1.366 . S
C648 C649 1.414 . S
C648 C651 1.499 . S
C649 H623 0.950 . S
C649 C648 1.414 . S
C649 C650 1.374 . S
C650 H624 0.950 . S
C650 C646 1.385 . S
C650 C649 1.374 . S
C651 C648 1.499 . S
C651 C652 1.373 . S
C651 C653 1.389 . S
C652 H625 0.950 . S
C652 C638 1.377 . S
C652 C651 1.373 . S
C653 C637 1.377 . S
C653 C651 1.389 . S
C653 C654 1.524 . S
C654 C653 1.524 . S
C654 C655 1.397 . S
C654 C659 1.363 . S
C655 H626 0.950 . S
C655 C654 1.397 . S
C655 C656 1.334 . S
C656 H627 0.950 . S
C656 C655 1.334 . S
C656 C657 1.287 . S
C657 C656 1.287 . S
C657 C658 1.524 . S
C657 H660 0.999 . S
C658 H628 0.950 . S
C658 C657 1.524 . S
C658 C659 1.415 . S
C659 H629 0.950 . S
C659 C654 1.363 . S
C659 C658 1.415 . S
H660 C657 0.999 . S
H661 C642 0.913 . S
H662 C680 0.951 . S
H663 C682 0.951 . S
H664 C684 0.950 . S
H665 C685 0.950 . S
H666 C687 0.950 . S
H667 C690 0.950 . S
H668 C691 0.950 . S
H669 C693 0.950 . S
H670 C694 0.950 . S
H671 C695 0.951 . S
H672 C697 0.951 . S
H673 C699 0.950 . S
H674 C700 0.950 . S
H675 C702 0.950 . S
H676 C705 0.950 . S
H677 C706 0.950 . S
H678 C708 0.950 . S
H679 C709 0.950 . S
C680 H662 0.951 . S
C680 C681 1.366 . S
C680 C682 1.388 . S
C681 C680 1.366 . S
C681 C685 1.385 . S
C682 H663 0.951 . S
C682 C680 1.388 . S
C682 C683 1.366 . S
C683 C682 1.366 . S
C683 C684 1.414 . S
C683 C686 1.499 . S
C684 H664 0.950 . S
C684 C683 1.414 . S
C684 C685 1.374 . S
C685 H665 0.950 . S
C685 C681 1.385 . S
C685 C684 1.374 . S
C686 C683 1.499 . S
C686 C687 1.373 . S
C686 C688 1.389 . S
C687 H666 0.950 . S
C687 C686 1.373 . S
C687 C703 1.377 . S
C688 C686 1.389 . S
C688 C689 1.524 . S
C688 C702 1.377 . S
C689 C688 1.524 . S
C689 C690 1.397 . S
C689 C694 1.363 . S
C690 H667 0.950 . S
C690 C689 1.397 . S
C690 C691 1.334 . S
C691 H668 0.950 . S
C691 C690 1.334 . S
C691 C692 1.287 . S
C692 C691 1.287 . S
C692 C693 1.524 . S
C692 H711 0.913 . S
C693 H669 0.950 . S
C693 C692 1.524 . S
C693 C694 1.415 . S
C694 H670 0.950 . S
C694 C689 1.363 . S
C694 C693 1.415 . S
C695 H671 0.951 . S
C695 C696 1.366 . S
C695 C697 1.388 . S
C696 C695 1.366 . S
C696 C700 1.385 . S
C697 H672 0.951 . S
C697 C695 1.388 . S
C697 C698 1.366 . S
C698 C697 1.366 . S
C698 C699 1.414 . S
C698 C701 1.499 . S
C699 H673 0.950 . S
C699 C698 1.414 . S
C699 C700 1.374 . S
C700 H674 0.950 . S
C700 C696 1.385 . S
C700 C699 1.374 . S
C701 C698 1.499 . S
C701 C702 1.373 . S
C701 C703 1.389 . S
C702 H675 0.950 . S
C702 C688 1.377 . S
C702 C701 1.373 . S
C703 C687 1.377 . S
C703 C701 1.389 . S
C703 C704 1.524 . S
C704 C703 1.524 . S
C704 C705 1.397 . S
C704 C709 1.363 . S
C705 H676 0.950 . S
C705 C704 1.397 . S
C705 C706 1.334 . S
C706 H677 0.950 . S
C706 C705 1.334 . S
C706 C707 1.287 . S
C707 C706 1.287 . S
C707 C708 1.524 . S
C707 H710 0.999 . S
C708 H678 0.950 . S
C708 C707 1.524 . S
C708 C709 1.415 . S
C709 H679 0.950 . S
C709 C704 1.363 . S
C709 C708 1.415 . S
H710 C707 0.999 . S
H711 C692 0.913 . S
H712 C730 0.951 . S
H713 C732 0.951 . S
H714 C734 0.961 . S
H715 C735 0.947 1_655 S
H716 C737 0.950 . S
H717 C740 0.950 . S
H718 C741 0.950 . S
H719 C743 0.950 . S
H720 C744 0.950 . S
H721 C745 0.951 1_655 S
H722 C747 0.951 1_655 S
H723 C749 0.955 . S
H724 C750 0.950 . S
H725 C752 0.950 . S
H726 C755 0.950 . S
H727 C756 0.950 . S
H728 C758 0.950 . S
H729 C759 0.950 . S
C730 H712 0.951 . S
C730 C731 1.366 . S
C730 C732 1.388 . S
C731 C730 1.366 . S
C731 C735 1.388 . S
C732 H713 0.951 . S
C732 C730 1.388 . S
C732 C733 1.366 . S
C733 C732 1.366 . S
C733 C734 1.408 1_455 S
C733 C736 1.499 . S
C734 H714 0.961 . S
C734 C733 1.408 1_655 S
C734 C735 1.374 1_655 S
C735 H715 0.947 1_455 S
C735 C731 1.388 . S
C735 C734 1.374 1_455 S
C736 C733 1.499 . S
C736 C737 1.373 1_545 S
C736 C738 1.414 . S
C737 H716 0.950 . S
C737 C736 1.373 1_565 S
C737 C753 1.352 1_554 S
C738 C736 1.414 . S
C738 C739 1.523 1_454 S
C738 C752 1.352 1_554 S
C739 C738 1.523 1_656 S
C739 C740 1.387 1_556 S
C739 C744 1.374 1_655 S
C740 H717 0.950 . S
C740 C739 1.387 1_554 S
C740 C741 1.334 . S
C741 H718 0.950 . S
C741 C740 1.334 . S
C741 C742 1.287 1_554 S
C742 C741 1.287 1_556 S
C742 C743 1.524 1_655 S
C742 H761 0.913 . S
C743 H719 0.950 . S
C743 C742 1.524 1_455 S
C743 C744 1.415 . S
C744 H720 0.950 . S
C744 C739 1.374 1_455 S
C744 C743 1.415 . S
C745 H721 0.951 1_455 S
C745 C746 1.366 . S
C745 C747 1.388 . S
C746 C745 1.366 . S
C746 C750 1.385 . S
C747 H722 0.951 1_455 S
C747 C745 1.388 . S
C747 C748 1.366 . S
C748 C747 1.366 . S
C748 C749 1.414 . S
C748 C751 1.499 . S
C749 H723 0.955 . S
C749 C748 1.414 . S
C749 C750 1.374 . S
C750 H724 0.950 . S
C750 C746 1.385 . S
C750 C749 1.374 . S
C751 C748 1.499 . S
C751 C752 1.373 1_565 S
C751 C753 1.414 . S
C752 H725 0.950 . S
C752 C738 1.352 1_556 S
C752 C751 1.373 1_545 S
C753 C737 1.352 1_556 S
C753 C751 1.414 . S
C753 C754 1.523 1_556 S
C754 C753 1.523 1_554 S
C754 C755 1.387 1_554 S
C754 C759 1.374 . S
C755 H726 0.950 . S
C755 C754 1.387 1_556 S
C755 C756 1.334 . S
C756 H727 0.950 . S
C756 C755 1.334 . S
C756 C757 1.287 1_556 S
C757 C756 1.287 1_554 S
C757 C758 1.524 . S
C757 H760 0.999 . S
C758 H728 0.950 . S
C758 C757 1.524 . S
C758 C759 1.415 . S
C759 H729 0.950 . S
C759 C754 1.374 . S
C759 C758 1.415 . S
H760 C757 0.999 . S
H761 C742 0.913 . S
H762 C780 0.951 . S
H763 C782 0.951 . S
H764 C784 0.950 . S
H765 C785 0.950 . S
H766 C787 0.950 . S
H767 C790 0.950 . S
H768 C791 0.950 . S
H769 C793 0.950 . S
H770 C794 0.950 . S
H771 C795 0.951 . S
H772 C797 0.951 . S
H773 C799 0.950 . S
H774 C800 0.950 . S
H775 C802 0.950 . S
H776 C805 0.950 . S
H777 C806 0.950 . S
H778 C808 0.950 . S
H779 C809 0.950 . S
C780 H762 0.951 . S
C780 C781 1.366 . S
C780 C782 1.388 . S
C781 C780 1.366 . S
C781 C785 1.385 . S
C782 H763 0.951 . S
C782 C780 1.388 . S
C782 C783 1.366 . S
C783 C782 1.366 . S
C783 C784 1.414 . S
C783 C786 1.499 . S
C784 H764 0.950 . S
C784 C783 1.414 . S
C784 C785 1.374 . S
C785 H765 0.950 . S
C785 C781 1.385 . S
C785 C784 1.374 . S
C786 C783 1.499 . S
C786 C787 1.373 . S
C786 C788 1.389 . S
C787 H766 0.950 . S
C787 C786 1.373 . S
C787 C803 1.377 1_556 S
C788 C786 1.389 . S
C788 C789 1.524 . S
C788 C802 1.377 1_556 S
C789 C788 1.524 . S
C789 C790 1.397 . S
C789 C794 1.363 1_556 S
C790 H767 0.950 . S
C790 C789 1.397 . S
C790 C791 1.334 . S
C791 H768 0.950 . S
C791 C790 1.334 . S
C791 C792 1.287 . S
C792 C791 1.287 . S
C792 C793 1.524 1_556 S
C792 H811 0.913 . S
C793 H769 0.950 . S
C793 C792 1.524 1_554 S
C793 C794 1.415 . S
C794 H770 0.950 . S
C794 C789 1.363 1_554 S
C794 C793 1.415 . S
C795 H771 0.951 . S
C795 C796 1.366 . S
C795 C797 1.388 . S
C796 C795 1.366 . S
C796 C800 1.385 . S
C797 H772 0.951 . S
C797 C795 1.388 . S
C797 C798 1.366 . S
C798 C797 1.366 . S
C798 C799 1.414 . S
C798 C801 1.499 . S
C799 H773 0.950 . S
C799 C798 1.414 . S
C799 C800 1.374 . S
C800 H774 0.950 . S
C800 C796 1.385 . S
C800 C799 1.374 . S
C801 C798 1.499 . S
C801 C802 1.373 . S
C801 C803 1.389 . S
C802 H775 0.950 . S
C802 C788 1.377 1_554 S
C802 C801 1.373 . S
C803 C787 1.377 1_554 S
C803 C801 1.389 . S
C803 C804 1.524 1_455 S
C804 C803 1.524 1_655 S
C804 C805 1.397 . S
C804 C809 1.363 1_654 S
C805 H776 0.950 . S
C805 C804 1.397 . S
C805 C806 1.334 . S
C806 H777 0.950 . S
C806 C805 1.334 . S
C806 C807 1.287 . S
C807 C806 1.287 . S
C807 C808 1.524 1_554 S
C807 H810 0.999 . S
C808 H778 0.950 . S
C808 C807 1.524 1_556 S
C808 C809 1.415 1_655 S
C809 H779 0.950 . S
C809 C804 1.363 1_456 S
C809 C808 1.415 1_455 S
H810 C807 0.999 . S
H811 C792 0.913 . S
H812 C830 0.951 . S
H813 C832 0.951 . S
H814 C834 0.950 . S
H815 C835 0.950 . S
H816 C837 0.950 . S
H817 C840 0.950 . S
H818 C841 0.950 . S
H819 C843 0.950 . S
H820 C844 0.950 . S
H821 C845 0.951 . S
H822 C847 0.951 . S
H823 C849 0.950 . S
H824 C850 0.950 . S
H825 C852 0.950 . S
H826 C855 0.950 . S
H827 C856 0.950 . S
H828 C858 0.950 . S
H829 C859 0.950 . S
C830 H812 0.951 . S
C830 C831 1.366 . S
C830 C832 1.388 . S
C831 C830 1.366 . S
C831 C835 1.385 . S
C832 H813 0.951 . S
C832 C830 1.388 . S
C832 C833 1.366 . S
C833 C832 1.366 . S
C833 C834 1.414 . S
C833 C836 1.499 . S
C834 H814 0.950 . S
C834 C833 1.414 . S
C834 C835 1.374 . S
C835 H815 0.950 . S
C835 C831 1.385 . S
C835 C834 1.374 . S
C836 C833 1.499 . S
C836 C837 1.373 . S
C836 C838 1.389 . S
C837 H816 0.950 . S
C837 C836 1.373 . S
C837 C853 1.377 . S
C838 C836 1.389 . S
C838 C839 1.524 . S
C838 C852 1.377 . S
C839 C838 1.524 . S
C839 C840 1.397 . S
C839 C844 1.363 . S
C840 H817 0.950 . S
C840 C839 1.397 . S
C840 C841 1.334 . S
C841 H818 0.950 . S
C841 C840 1.334 . S
C841 C842 1.287 . S
C842 C841 1.287 . S
C842 C843 1.524 . S
C842 H861 0.913 . S
C843 H819 0.950 . S
C843 C842 1.524 . S
C843 C844 1.415 . S
C844 H820 0.950 . S
C844 C839 1.363 . S
C844 C843 1.415 . S
C845 H821 0.951 . S
C845 C846 1.366 . S
C845 C847 1.388 . S
C846 C845 1.366 . S
C846 C850 1.385 . S
C847 H822 0.951 . S
C847 C845 1.388 . S
C847 C848 1.366 . S
C848 C847 1.366 . S
C848 C849 1.414 . S
C848 C851 1.499 . S
C849 H823 0.950 . S
C849 C848 1.414 . S
C849 C850 1.374 . S
C850 H824 0.950 . S
C850 C846 1.385 . S
C850 C849 1.374 . S
C851 C848 1.499 . S
C851 C852 1.373 . S
C851 C853 1.389 . S
C852 H825 0.950 . S
C852 C838 1.377 . S
C852 C851 1.373 . S
C853 C837 1.377 . S
C853 C851 1.389 . S
C853 C854 1.524 . S
C854 C853 1.524 . S
C854 C855 1.397 . S
C854 C859 1.363 . S
C855 H826 0.950 . S
C855 C854 1.397 . S
C855 C856 1.334 . S
C856 H827 0.950 . S
C856 C855 1.334 . S
C856 C857 1.287 . S
C857 C856 1.287 . S
C857 C858 1.524 . S
C857 H860 0.999 . S
C858 H828 0.950 . S
C858 C857 1.524 . S
C858 C859 1.415 . S
C859 H829 0.950 . S
C859 C854 1.363 . S
C859 C858 1.415 . S
H860 C857 0.999 . S
H861 C842 0.913 . S
H862 C880 0.951 . S
H863 C882 0.951 . S
H864 C884 0.950 1_545 S
H865 C885 0.950 . S
H866 C887 0.950 . S
H867 C890 0.950 . S
H868 C891 0.950 . S
H869 C893 0.950 . S
H870 C894 0.950 . S
H871 C895 0.951 . S
H872 C897 0.951 . S
H873 C899 0.950 1_565 S
H874 C900 0.950 . S
H875 C902 0.950 . S
H876 C905 0.950 . S
H877 C906 0.950 . S
H878 C908 0.950 . S
H879 C909 0.950 . S
C880 H862 0.951 . S
C880 C881 1.366 . S
C880 C882 1.388 . S
C881 C880 1.366 . S
C881 C885 1.385 . S
C882 H863 0.951 . S
C882 C880 1.388 . S
C882 C883 1.366 . S
C883 C882 1.366 . S
C883 C884 1.414 . S
C883 C886 1.499 . S
C884 H864 0.950 1_565 S
C884 C883 1.414 . S
C884 C885 1.374 . S
C885 H865 0.950 . S
C885 C881 1.385 . S
C885 C884 1.374 . S
C886 C883 1.499 . S
C886 C887 1.373 1_565 S
C886 C888 1.389 . S
C887 H866 0.950 . S
C887 C886 1.373 1_545 S
C887 C903 1.377 . S
C888 C886 1.389 . S
C888 C889 1.524 . S
C888 C902 1.377 . S
C889 C888 1.524 . S
C889 C890 1.397 . S
C889 C894 1.363 . S
C890 H867 0.950 . S
C890 C889 1.397 . S
C890 C891 1.334 . S
C891 H868 0.950 . S
C891 C890 1.334 . S
C891 C892 1.287 . S
C892 C891 1.287 . S
C892 C893 1.524 . S
C892 H911 0.913 . S
C893 H869 0.950 . S
C893 C892 1.524 . S
C893 C894 1.415 . S
C894 H870 0.950 . S
C894 C889 1.363 . S
C894 C893 1.415 . S
C895 H871 0.951 . S
C895 C896 1.366 . S
C895 C897 1.388 . S
C896 C895 1.366 . S
C896 C900 1.385 . S
C897 H872 0.951 . S
C897 C895 1.388 . S
C897 C898 1.366 . S
C898 C897 1.366 . S
C898 C899 1.414 . S
C898 C901 1.499 . S
C899 H873 0.950 1_545 S
C899 C898 1.414 . S
C899 C900 1.374 . S
C900 H874 0.950 . S
C900 C896 1.385 . S
C900 C899 1.374 . S
C901 C898 1.499 . S
C901 C902 1.373 1_545 S
C901 C903 1.389 . S
C902 H875 0.950 . S
C902 C888 1.377 . S
C902 C901 1.373 1_565 S
C903 C887 1.377 . S
C903 C901 1.389 . S
C903 C904 1.524 . S
C904 C903 1.524 . S
C904 C905 1.397 . S
C904 C909 1.363 . S
C905 H876 0.950 . S
C905 C904 1.397 . S
C905 C906 1.334 . S
C906 H877 0.950 . S
C906 C905 1.334 . S
C906 C907 1.287 . S
C907 C906 1.287 . S
C907 C908 1.524 . S
C907 H910 0.999 . S
C908 H878 0.950 . S
C908 C907 1.524 . S
C908 C909 1.415 . S
C909 H879 0.950 . S
C909 C904 1.363 . S
C909 C908 1.415 . S
H910 C907 0.999 . S
H911 C892 0.913 . S
C131 C22 1.411 . S
C146 C8 1.412 . S
C181 C36 1.412 . S
C196 C50 1.412 . S
C231 C64 1.411 . S
C246 C78 1.412 . S
C281 C92 1.412 . S
C296 C106 1.411 . S
C331 C105 1.501 . S
C346 C7 1.501 . S
C381 C91 1.501 . S
C396 C21 1.501 . S
C431 C35 1.501 . S
C446 C77 1.501 . S
C481 C63 1.501 . S
C496 C49 1.501 . S
C531 C83 1.169 . S
C546 C41 1.170 . S
C581 C69 1.170 . S
C596 C55 1.169 . S
C631 C111 1.169 . S
C646 C13 1.168 . S
C681 C27 1.169 . S
C696 C97 1.171 . S
C731 C11 1.317 . S
C746 C39 1.317 . S
C781 C53 1.317 . S
C796 C25 1.317 . S
C831 C95 1.317 . S
C846 C67 1.317 . S
C881 C81 1.317 . S
C896 C109 1.317 . S
