# Generated by pormake.
# Topology rho, (4)-cn, num edge types: 1
# Building blocks:
#     Node 0, Type 0, BuildingBlock: CEKHIL_clean_sbu_0, # of connection points: 4
#     Node 1, Type 0, BuildingBlock: CEKHIL_clean_sbu_0, # of connection points: 4
#     Node 2, Type 0, BuildingBlock: CEKHIL_clean_sbu_0, # of connection points: 4
#     Node 3, Type 0, BuildingBlock: CEKHIL_clean_sbu_0, # of connection points: 4
#     Node 4, Type 0, BuildingBlock: CEKHIL_clean_sbu_0, # of connection points: 4
#     Node 5, Type 0, BuildingBlock: CEKHIL_clean_sbu_0, # of connection points: 4
#     Node 6, Type 0, BuildingBlock: CEKHIL_clean_sbu_0, # of connection points: 4
#     Node 7, Type 0, BuildingBlock: CEKHIL_clean_sbu_0, # of connection points: 4
#     Node 8, Type 0, BuildingBlock: CEKHIL_clean_sbu_0, # of connection points: 4
#     Node 9, Type 0, BuildingBlock: CEKHIL_clean_sbu_0, # of connection points: 4
#     Node 10, Type 0, BuildingBlock: CEKHIL_clean_sbu_0, # of connection points: 4
#     Node 11, Type 0, BuildingBlock: CEKHIL_clean_sbu_0, # of connection points: 4
#     Node 12, Type 0, BuildingBlock: CEKHIL_clean_sbu_0, # of connection points: 4
#     Node 13, Type 0, BuildingBlock: CEKHIL_clean_sbu_0, # of connection points: 4
#     Node 14, Type 0, BuildingBlock: CEKHIL_clean_sbu_0, # of connection points: 4
#     Node 15, Type 0, BuildingBlock: CEKHIL_clean_sbu_0, # of connection points: 4
#     Node 16, Type 0, BuildingBlock: CEKHIL_clean_sbu_0, # of connection points: 4
#     Node 17, Type 0, BuildingBlock: CEKHIL_clean_sbu_0, # of connection points: 4
#     Node 18, Type 0, BuildingBlock: CEKHIL_clean_sbu_0, # of connection points: 4
#     Node 19, Type 0, BuildingBlock: CEKHIL_clean_sbu_0, # of connection points: 4
#     Node 20, Type 0, BuildingBlock: CEKHIL_clean_sbu_0, # of connection points: 4
#     Node 21, Type 0, BuildingBlock: CEKHIL_clean_sbu_0, # of connection points: 4
#     Node 22, Type 0, BuildingBlock: CEKHIL_clean_sbu_0, # of connection points: 4
#     Node 23, Type 0, BuildingBlock: CEKHIL_clean_sbu_0, # of connection points: 4
#     Node 24, Type 0, BuildingBlock: CEKHIL_clean_sbu_0, # of connection points: 4
#     Node 25, Type 0, BuildingBlock: CEKHIL_clean_sbu_0, # of connection points: 4
#     Node 26, Type 0, BuildingBlock: CEKHIL_clean_sbu_0, # of connection points: 4
#     Node 27, Type 0, BuildingBlock: CEKHIL_clean_sbu_0, # of connection points: 4
#     Node 28, Type 0, BuildingBlock: CEKHIL_clean_sbu_0, # of connection points: 4
#     Node 29, Type 0, BuildingBlock: CEKHIL_clean_sbu_0, # of connection points: 4
#     Node 30, Type 0, BuildingBlock: CEKHIL_clean_sbu_0, # of connection points: 4
#     Node 31, Type 0, BuildingBlock: CEKHIL_clean_sbu_0, # of connection points: 4
#     Node 32, Type 0, BuildingBlock: CEKHIL_clean_sbu_0, # of connection points: 4
#     Node 33, Type 0, BuildingBlock: CEKHIL_clean_sbu_0, # of connection points: 4
#     Node 34, Type 0, BuildingBlock: CEKHIL_clean_sbu_0, # of connection points: 4
#     Node 35, Type 0, BuildingBlock: CEKHIL_clean_sbu_0, # of connection points: 4
#     Node 36, Type 0, BuildingBlock: CEKHIL_clean_sbu_0, # of connection points: 4
#     Node 37, Type 0, BuildingBlock: CEKHIL_clean_sbu_0, # of connection points: 4
#     Node 38, Type 0, BuildingBlock: CEKHIL_clean_sbu_0, # of connection points: 4
#     Node 39, Type 0, BuildingBlock: CEKHIL_clean_sbu_0, # of connection points: 4
#     Node 40, Type 0, BuildingBlock: CEKHIL_clean_sbu_0, # of connection points: 4
#     Node 41, Type 0, BuildingBlock: CEKHIL_clean_sbu_0, # of connection points: 4
#     Node 42, Type 0, BuildingBlock: CEKHIL_clean_sbu_0, # of connection points: 4
#     Node 43, Type 0, BuildingBlock: CEKHIL_clean_sbu_0, # of connection points: 4
#     Node 44, Type 0, BuildingBlock: CEKHIL_clean_sbu_0, # of connection points: 4
#     Node 45, Type 0, BuildingBlock: CEKHIL_clean_sbu_0, # of connection points: 4
#     Node 46, Type 0, BuildingBlock: CEKHIL_clean_sbu_0, # of connection points: 4
#     Node 47, Type 0, BuildingBlock: CEKHIL_clean_sbu_0, # of connection points: 4
#     Edge 48, Type (0, 0), BuildingBlock: XIVTED_clean_linker_0, # of connection points: 2
#     Edge 49, Type (0, 0), BuildingBlock: XIVTED_clean_linker_0, # of connection points: 2
#     Edge 50, Type (0, 0), BuildingBlock: XIVTED_clean_linker_0, # of connection points: 2
#     Edge 51, Type (0, 0), BuildingBlock: XIVTED_clean_linker_0, # of connection points: 2
#     Edge 52, Type (0, 0), BuildingBlock: XIVTED_clean_linker_0, # of connection points: 2
#     Edge 53, Type (0, 0), BuildingBlock: XIVTED_clean_linker_0, # of connection points: 2
#     Edge 54, Type (0, 0), BuildingBlock: XIVTED_clean_linker_0, # of connection points: 2
#     Edge 55, Type (0, 0), BuildingBlock: XIVTED_clean_linker_0, # of connection points: 2
#     Edge 56, Type (0, 0), BuildingBlock: XIVTED_clean_linker_0, # of connection points: 2
#     Edge 57, Type (0, 0), BuildingBlock: XIVTED_clean_linker_0, # of connection points: 2
#     Edge 58, Type (0, 0), BuildingBlock: XIVTED_clean_linker_0, # of connection points: 2
#     Edge 59, Type (0, 0), BuildingBlock: XIVTED_clean_linker_0, # of connection points: 2
#     Edge 60, Type (0, 0), BuildingBlock: XIVTED_clean_linker_0, # of connection points: 2
#     Edge 61, Type (0, 0), BuildingBlock: XIVTED_clean_linker_0, # of connection points: 2
#     Edge 62, Type (0, 0), BuildingBlock: XIVTED_clean_linker_0, # of connection points: 2
#     Edge 63, Type (0, 0), BuildingBlock: XIVTED_clean_linker_0, # of connection points: 2
#     Edge 64, Type (0, 0), BuildingBlock: XIVTED_clean_linker_0, # of connection points: 2
#     Edge 65, Type (0, 0), BuildingBlock: XIVTED_clean_linker_0, # of connection points: 2
#     Edge 66, Type (0, 0), BuildingBlock: XIVTED_clean_linker_0, # of connection points: 2
#     Edge 67, Type (0, 0), BuildingBlock: XIVTED_clean_linker_0, # of connection points: 2
#     Edge 68, Type (0, 0), BuildingBlock: XIVTED_clean_linker_0, # of connection points: 2
#     Edge 69, Type (0, 0), BuildingBlock: XIVTED_clean_linker_0, # of connection points: 2
#     Edge 70, Type (0, 0), BuildingBlock: XIVTED_clean_linker_0, # of connection points: 2
#     Edge 71, Type (0, 0), BuildingBlock: XIVTED_clean_linker_0, # of connection points: 2
#     Edge 72, Type (0, 0), BuildingBlock: XIVTED_clean_linker_0, # of connection points: 2
#     Edge 73, Type (0, 0), BuildingBlock: XIVTED_clean_linker_0, # of connection points: 2
#     Edge 74, Type (0, 0), BuildingBlock: XIVTED_clean_linker_0, # of connection points: 2
#     Edge 75, Type (0, 0), BuildingBlock: XIVTED_clean_linker_0, # of connection points: 2
#     Edge 76, Type (0, 0), BuildingBlock: XIVTED_clean_linker_0, # of connection points: 2
#     Edge 77, Type (0, 0), BuildingBlock: XIVTED_clean_linker_0, # of connection points: 2
#     Edge 78, Type (0, 0), BuildingBlock: XIVTED_clean_linker_0, # of connection points: 2
#     Edge 79, Type (0, 0), BuildingBlock: XIVTED_clean_linker_0, # of connection points: 2
#     Edge 80, Type (0, 0), BuildingBlock: XIVTED_clean_linker_0, # of connection points: 2
#     Edge 81, Type (0, 0), BuildingBlock: XIVTED_clean_linker_0, # of connection points: 2
#     Edge 82, Type (0, 0), BuildingBlock: XIVTED_clean_linker_0, # of connection points: 2
#     Edge 83, Type (0, 0), BuildingBlock: XIVTED_clean_linker_0, # of connection points: 2
#     Edge 84, Type (0, 0), BuildingBlock: XIVTED_clean_linker_0, # of connection points: 2
#     Edge 85, Type (0, 0), BuildingBlock: XIVTED_clean_linker_0, # of connection points: 2
#     Edge 86, Type (0, 0), BuildingBlock: XIVTED_clean_linker_0, # of connection points: 2
#     Edge 87, Type (0, 0), BuildingBlock: XIVTED_clean_linker_0, # of connection points: 2
#     Edge 88, Type (0, 0), BuildingBlock: XIVTED_clean_linker_0, # of connection points: 2
#     Edge 89, Type (0, 0), BuildingBlock: XIVTED_clean_linker_0, # of connection points: 2
#     Edge 90, Type (0, 0), BuildingBlock: XIVTED_clean_linker_0, # of connection points: 2
#     Edge 91, Type (0, 0), BuildingBlock: XIVTED_clean_linker_0, # of connection points: 2
#     Edge 92, Type (0, 0), BuildingBlock: XIVTED_clean_linker_0, # of connection points: 2
#     Edge 93, Type (0, 0), BuildingBlock: XIVTED_clean_linker_0, # of connection points: 2
#     Edge 94, Type (0, 0), BuildingBlock: XIVTED_clean_linker_0, # of connection points: 2
#     Edge 95, Type (0, 0), BuildingBlock: XIVTED_clean_linker_0, # of connection points: 2
#     Edge 96, Type (0, 0), BuildingBlock: XIVTED_clean_linker_0, # of connection points: 2
#     Edge 97, Type (0, 0), BuildingBlock: XIVTED_clean_linker_0, # of connection points: 2
#     Edge 98, Type (0, 0), BuildingBlock: XIVTED_clean_linker_0, # of connection points: 2
#     Edge 99, Type (0, 0), BuildingBlock: XIVTED_clean_linker_0, # of connection points: 2
#     Edge 100, Type (0, 0), BuildingBlock: XIVTED_clean_linker_0, # of connection points: 2
#     Edge 101, Type (0, 0), BuildingBlock: XIVTED_clean_linker_0, # of connection points: 2
#     Edge 102, Type (0, 0), BuildingBlock: XIVTED_clean_linker_0, # of connection points: 2
#     Edge 103, Type (0, 0), BuildingBlock: XIVTED_clean_linker_0, # of connection points: 2
#     Edge 104, Type (0, 0), BuildingBlock: XIVTED_clean_linker_0, # of connection points: 2
#     Edge 105, Type (0, 0), BuildingBlock: XIVTED_clean_linker_0, # of connection points: 2
#     Edge 106, Type (0, 0), BuildingBlock: XIVTED_clean_linker_0, # of connection points: 2
#     Edge 107, Type (0, 0), BuildingBlock: XIVTED_clean_linker_0, # of connection points: 2
#     Edge 108, Type (0, 0), BuildingBlock: XIVTED_clean_linker_0, # of connection points: 2
#     Edge 109, Type (0, 0), BuildingBlock: XIVTED_clean_linker_0, # of connection points: 2
#     Edge 110, Type (0, 0), BuildingBlock: XIVTED_clean_linker_0, # of connection points: 2
#     Edge 111, Type (0, 0), BuildingBlock: XIVTED_clean_linker_0, # of connection points: 2
#     Edge 112, Type (0, 0), BuildingBlock: XIVTED_clean_linker_0, # of connection points: 2
#     Edge 113, Type (0, 0), BuildingBlock: XIVTED_clean_linker_0, # of connection points: 2
#     Edge 114, Type (0, 0), BuildingBlock: XIVTED_clean_linker_0, # of connection points: 2
#     Edge 115, Type (0, 0), BuildingBlock: XIVTED_clean_linker_0, # of connection points: 2
#     Edge 116, Type (0, 0), BuildingBlock: XIVTED_clean_linker_0, # of connection points: 2
#     Edge 117, Type (0, 0), BuildingBlock: XIVTED_clean_linker_0, # of connection points: 2
#     Edge 118, Type (0, 0), BuildingBlock: XIVTED_clean_linker_0, # of connection points: 2
#     Edge 119, Type (0, 0), BuildingBlock: XIVTED_clean_linker_0, # of connection points: 2
#     Edge 120, Type (0, 0), BuildingBlock: XIVTED_clean_linker_0, # of connection points: 2
#     Edge 121, Type (0, 0), BuildingBlock: XIVTED_clean_linker_0, # of connection points: 2
#     Edge 122, Type (0, 0), BuildingBlock: XIVTED_clean_linker_0, # of connection points: 2
#     Edge 123, Type (0, 0), BuildingBlock: XIVTED_clean_linker_0, # of connection points: 2
#     Edge 124, Type (0, 0), BuildingBlock: XIVTED_clean_linker_0, # of connection points: 2
#     Edge 125, Type (0, 0), BuildingBlock: XIVTED_clean_linker_0, # of connection points: 2
#     Edge 126, Type (0, 0), BuildingBlock: XIVTED_clean_linker_0, # of connection points: 2
#     Edge 127, Type (0, 0), BuildingBlock: XIVTED_clean_linker_0, # of connection points: 2
#     Edge 128, Type (0, 0), BuildingBlock: XIVTED_clean_linker_0, # of connection points: 2
#     Edge 129, Type (0, 0), BuildingBlock: XIVTED_clean_linker_0, # of connection points: 2
#     Edge 130, Type (0, 0), BuildingBlock: XIVTED_clean_linker_0, # of connection points: 2
#     Edge 131, Type (0, 0), BuildingBlock: XIVTED_clean_linker_0, # of connection points: 2
#     Edge 132, Type (0, 0), BuildingBlock: XIVTED_clean_linker_0, # of connection points: 2
#     Edge 133, Type (0, 0), BuildingBlock: XIVTED_clean_linker_0, # of connection points: 2
#     Edge 134, Type (0, 0), BuildingBlock: XIVTED_clean_linker_0, # of connection points: 2
#     Edge 135, Type (0, 0), BuildingBlock: XIVTED_clean_linker_0, # of connection points: 2
#     Edge 136, Type (0, 0), BuildingBlock: XIVTED_clean_linker_0, # of connection points: 2
#     Edge 137, Type (0, 0), BuildingBlock: XIVTED_clean_linker_0, # of connection points: 2
#     Edge 138, Type (0, 0), BuildingBlock: XIVTED_clean_linker_0, # of connection points: 2
#     Edge 139, Type (0, 0), BuildingBlock: XIVTED_clean_linker_0, # of connection points: 2
#     Edge 140, Type (0, 0), BuildingBlock: XIVTED_clean_linker_0, # of connection points: 2
#     Edge 141, Type (0, 0), BuildingBlock: XIVTED_clean_linker_0, # of connection points: 2
#     Edge 142, Type (0, 0), BuildingBlock: XIVTED_clean_linker_0, # of connection points: 2
#     Edge 143, Type (0, 0), BuildingBlock: XIVTED_clean_linker_0, # of connection points: 2
# Relax obj value: 0.078
# Max RMSD: 0.092
# Mean RMSD: 0.084
data_MOF--net-rho--node1-CEKHIL_clean_sbu_0--edge1-XIVTED_clean_linker_0
_symmetry_space_group_name_H-M    P1
_symmetry_Int_Tables_number       1
_symmetry_cell_setting            triclinic
loop_
_symmetry_equiv_pos_as_xyz
'x, y, z'
_cell_length_a     72.216935
_cell_length_b     71.632726
_cell_length_c     71.606316
_cell_angle_alpha  90.163508
_cell_angle_beta   90.053115
_cell_angle_gamma 90.721783
loop_
_atom_site_label
_atom_site_type_symbol
_atom_site_fract_x
_atom_site_fract_y
_atom_site_fract_z
_atom_type_partial_charge
Co0 Co 0.10963 0.24711 0.39088 0.0
O1 O 0.13535 0.24107 0.39178 0.0
O2 O 0.11232 0.22044 0.39405 0.0
C3 C 0.11138 0.26639 0.36625 0.0
O4 O 0.08147 0.24835 0.38991 0.0
Co5 Co 0.09738 0.28821 0.39733 0.0
O6 O 0.07313 0.27848 0.3883 0.0
C7 C 0.11107 0.26576 0.42874 0.0
C8 C 0.13008 0.22383 0.39394 0.0
C9 C 0.06923 0.26108 0.38759 0.0
O10 O 0.10974 0.25087 0.41874 0.0
O11 O 0.10848 0.28216 0.42224 0.0
O12 O 0.11034 0.24844 0.36358 0.0
O13 O 0.11316 0.27171 0.38336 0.0
Co14 Co 0.75121 0.09997 0.39067 0.0
O15 O 0.74313 0.10005 0.36521 0.0
O16 O 0.72434 0.0994 0.38962 0.0
C17 C 0.77247 0.12293 0.38757 0.0
O18 O 0.75494 0.10053 0.419 0.0
Co19 Co 0.79185 0.08935 0.39963 0.0
O20 O 0.78571 0.10081 0.42407 0.0
C21 C 0.76499 0.05992 0.38912 0.0
C22 C 0.72633 0.09969 0.37155 0.0
C23 C 0.76911 0.10267 0.42979 0.0
O24 O 0.75188 0.07188 0.39012 0.0
O25 O 0.78211 0.06434 0.39114 0.0
O26 O 0.75515 0.12696 0.39005 0.0
O27 O 0.77597 0.10544 0.38527 0.0
Co28 Co 0.88804 0.74629 0.3932 0.0
O29 O 0.86225 0.75146 0.39655 0.0
O30 O 0.88468 0.77285 0.39664 0.0
C31 C 0.8845 0.72687 0.36864 0.0
O32 O 0.91603 0.74621 0.3895 0.0
Co33 Co 0.90275 0.70578 0.39753 0.0
O34 O 0.92544 0.71657 0.38607 0.0
C35 C 0.89271 0.72783 0.43093 0.0
C36 C 0.86709 0.76891 0.39796 0.0
C37 C 0.92853 0.73413 0.38559 0.0
O38 O 0.89093 0.74262 0.42095 0.0
O39 O 0.89579 0.71168 0.42395 0.0
O40 O 0.88469 0.74484 0.36608 0.0
O41 O 0.88469 0.72151 0.3858 0.0
Co42 Co 0.24692 0.89416 0.3877 0.0
O43 O 0.25536 0.89304 0.36245 0.0
O44 O 0.27388 0.89549 0.38699 0.0
C45 C 0.22607 0.87059 0.38534 0.0
O46 O 0.24253 0.89512 0.41594 0.0
Co47 Co 0.20563 0.90448 0.3945 0.0
O48 O 0.21162 0.89589 0.42007 0.0
C49 C 0.23226 0.93369 0.38336 0.0
C50 C 0.27208 0.89453 0.3689 0.0
C51 C 0.22803 0.89431 0.42645 0.0
O52 O 0.24559 0.92218 0.38578 0.0
O53 O 0.21516 0.92895 0.38465 0.0
O54 O 0.24343 0.86698 0.3883 0.0
O55 O 0.22246 0.88785 0.38205 0.0
Co56 Co 0.10618 0.74453 0.6016 0.0
O57 O 0.13184 0.75153 0.59957 0.0
O58 O 0.10856 0.77139 0.60011 0.0
C59 C 0.10935 0.72401 0.62508 0.0
O60 O 0.07813 0.7425 0.6044 0.0
Co61 Co 0.09351 0.70407 0.59266 0.0
O62 O 0.07079 0.71195 0.606 0.0
C63 C 0.10265 0.72941 0.5617 0.0
C64 C 0.12632 0.76869 0.59918 0.0
C65 C 0.0666 0.72909 0.60786 0.0
O66 O 0.10431 0.74282 0.57359 0.0
O67 O 0.09953 0.71245 0.56652 0.0
O68 O 0.10859 0.74181 0.62849 0.0
O69 O 0.11023 0.7194 0.60761 0.0
Co70 Co 0.25272 0.10741 0.60549 0.0
O71 O 0.24554 0.13293 0.60211 0.0
O72 O 0.22611 0.10877 0.60273 0.0
C73 C 0.27236 0.1127 0.62946 0.0
O74 O 0.25463 0.07936 0.60945 0.0
Co75 Co 0.2936 0.09451 0.60101 0.0
O76 O 0.28439 0.07106 0.61255 0.0
C77 C 0.27098 0.10358 0.56773 0.0
C78 C 0.22857 0.12672 0.60128 0.0
C79 C 0.26712 0.06727 0.61326 0.0
O80 O 0.25614 0.10451 0.57764 0.0
O81 O 0.28711 0.10133 0.57477 0.0
O82 O 0.25465 0.11127 0.63255 0.0
O83 O 0.27725 0.11245 0.61219 0.0
Co84 Co 0.89277 0.24785 0.60086 0.0
O85 O 0.86733 0.24046 0.6023 0.0
O86 O 0.89049 0.22074 0.59944 0.0
C87 C 0.89174 0.26826 0.62487 0.0
O88 O 0.92097 0.25131 0.59951 0.0
Co89 Co 0.90064 0.28937 0.59061 0.0
O90 O 0.92623 0.2823 0.59721 0.0
C91 C 0.88931 0.26316 0.56106 0.0
C92 C 0.87271 0.22337 0.60087 0.0
C93 C 0.932 0.26562 0.59897 0.0
O94 O 0.89063 0.24966 0.5728 0.0
O95 O 0.89131 0.28033 0.56573 0.0
O96 O 0.89401 0.2506 0.62803 0.0
O97 O 0.88833 0.27255 0.60771 0.0
Co98 Co 0.7483 0.88574 0.6067 0.0
O99 O 0.75627 0.86058 0.60274 0.0
O100 O 0.77488 0.88543 0.60344 0.0
C101 C 0.72927 0.87932 0.63079 0.0
O102 O 0.74539 0.91365 0.61096 0.0
Co103 Co 0.70685 0.89704 0.60315 0.0
O104 O 0.7154 0.9212 0.61381 0.0
C105 C 0.72914 0.88877 0.56942 0.0
C106 C 0.77295 0.86745 0.60152 0.0
C107 C 0.73257 0.92549 0.61445 0.0
O108 O 0.74425 0.88867 0.57899 0.0
O109 O 0.71308 0.89019 0.57682 0.0
O110 O 0.74693 0.8816 0.6338 0.0
O111 O 0.72419 0.87966 0.61359 0.0
Co112 Co 0.38801 0.10374 0.24275 0.0
O113 O 0.36193 0.1029 0.24788 0.0
O114 O 0.38415 0.1011 0.2692 0.0
C115 C 0.38723 0.12821 0.22329 0.0
O116 O 0.41616 0.10495 0.24281 0.0
Co117 Co 0.40284 0.09719 0.20256 0.0
O118 O 0.4265 0.10672 0.21326 0.0
C119 C 0.38915 0.0653 0.22491 0.0
C120 C 0.36655 0.10155 0.26534 0.0
C121 C 0.42924 0.10743 0.23084 0.0
O122 O 0.38817 0.0758 0.23947 0.0
O123 O 0.39314 0.07154 0.20863 0.0
O124 O 0.38744 0.13094 0.24123 0.0
O125 O 0.38578 0.11104 0.2179 0.0
Co126 Co 0.88679 0.39405 0.25162 0.0
O127 O 0.86083 0.39477 0.24561 0.0
O128 O 0.8836 0.39546 0.22489 0.0
C129 C 0.8853 0.37057 0.27239 0.0
O130 O 0.91489 0.39272 0.2522 0.0
Co131 Co 0.90114 0.40333 0.29141 0.0
O132 O 0.9247 0.39284 0.28197 0.0
C133 C 0.88968 0.43392 0.26678 0.0
C134 C 0.8659 0.39554 0.22822 0.0
C135 C 0.9277 0.39094 0.26454 0.0
O136 O 0.88771 0.4221 0.25334 0.0
O137 O 0.89374 0.42911 0.28349 0.0
O138 O 0.88549 0.36707 0.25457 0.0
O139 O 0.884 0.38798 0.27697 0.0
Co140 Co 0.60703 0.89374 0.24522 0.0
O141 O 0.63281 0.89487 0.25136 0.0
O142 O 0.60999 0.89492 0.27204 0.0
C143 C 0.60911 0.87026 0.22458 0.0
O144 O 0.57882 0.89183 0.24361 0.0
Co145 Co 0.59487 0.90321 0.20491 0.0
O146 O 0.57193 0.89002 0.213 0.0
C147 C 0.60507 0.93376 0.23056 0.0
C148 C 0.62772 0.89509 0.26871 0.0
C149 C 0.56743 0.88839 0.23014 0.0
O150 O 0.60638 0.92177 0.2438 0.0
O151 O 0.60174 0.92914 0.21358 0.0
O152 O 0.6082 0.86681 0.24234 0.0
O153 O 0.61071 0.88769 0.22005 0.0
Co154 Co 0.109 0.60075 0.25041 0.0
O155 O 0.13491 0.60034 0.2443 0.0
O156 O 0.11207 0.59942 0.22363 0.0
C157 C 0.11044 0.62423 0.27131 0.0
O158 O 0.08086 0.60177 0.25119 0.0
Co159 Co 0.09515 0.59123 0.29023 0.0
O160 O 0.07142 0.60154 0.28107 0.0
C161 C 0.10674 0.56083 0.26529 0.0
C162 C 0.12978 0.59956 0.22692 0.0
C163 C 0.06819 0.60343 0.26368 0.0
O164 O 0.10842 0.5727 0.25194 0.0
O165 O 0.10277 0.56555 0.28207 0.0
O166 O 0.11003 0.62774 0.25352 0.0
O167 O 0.11195 0.60683 0.27577 0.0
Co168 Co 0.38764 0.89092 0.74707 0.0
O169 O 0.36184 0.88897 0.74073 0.0
O170 O 0.38448 0.89325 0.7203 0.0
C171 C 0.38803 0.86651 0.76692 0.0
O172 O 0.41581 0.89275 0.74823 0.0
Co173 Co 0.4002 0.89903 0.78798 0.0
O174 O 0.42497 0.89234 0.77826 0.0
C175 C 0.38369 0.92886 0.76528 0.0
C176 C 0.36684 0.89113 0.72345 0.0
C177 C 0.42852 0.89179 0.76082 0.0
O178 O 0.3852 0.9188 0.75044 0.0
O179 O 0.38724 0.92278 0.78169 0.0
O180 O 0.38921 0.86365 0.74902 0.0
O181 O 0.38504 0.88349 0.77189 0.0
Co182 Co 0.10427 0.39328 0.74512 0.0
O183 O 0.12996 0.39503 0.75139 0.0
O184 O 0.10704 0.39503 0.77197 0.0
C185 C 0.10684 0.36956 0.72481 0.0
O186 O 0.07612 0.39093 0.74327 0.0
Co187 Co 0.09253 0.40231 0.70462 0.0
O188 O 0.06953 0.38914 0.71258 0.0
C189 C 0.10211 0.43317 0.73002 0.0
C190 C 0.12478 0.39571 0.76869 0.0
C191 C 0.06487 0.38747 0.72968 0.0
O192 O 0.10323 0.42126 0.74334 0.0
O193 O 0.09909 0.42843 0.71301 0.0
O194 O 0.10587 0.36634 0.74262 0.0
O195 O 0.10826 0.38696 0.72008 0.0
Co196 Co 0.60737 0.10278 0.74862 0.0
O197 O 0.63259 0.10679 0.74135 0.0
O198 O 0.60966 0.10128 0.72153 0.0
C199 C 0.60607 0.12673 0.76911 0.0
O200 O 0.57943 0.0986 0.75155 0.0
Co201 Co 0.59997 0.09187 0.79007 0.0
O202 O 0.57383 0.09458 0.78229 0.0
C203 C 0.6136 0.06344 0.76407 0.0
C204 C 0.62726 0.10454 0.72421 0.0
C205 C 0.5683 0.09618 0.76544 0.0
O206 O 0.61179 0.07508 0.75055 0.0
O207 O 0.611 0.06786 0.78119 0.0
O208 O 0.60378 0.12967 0.75135 0.0
O209 O 0.61102 0.11006 0.77348 0.0
Co210 Co 0.88855 0.60409 0.74436 0.0
O211 O 0.86286 0.60104 0.75049 0.0
O212 O 0.88601 0.59998 0.77083 0.0
C213 C 0.88496 0.62922 0.72605 0.0
O214 O 0.91654 0.60732 0.74329 0.0
Co215 Co 0.90208 0.60044 0.70339 0.0
O216 O 0.92572 0.61067 0.71349 0.0
C217 C 0.89147 0.5667 0.72467 0.0
C218 C 0.86828 0.59911 0.76765 0.0
C219 C 0.92905 0.61089 0.73097 0.0
O220 O 0.89045 0.57643 0.73974 0.0
O221 O 0.89439 0.57393 0.70858 0.0
O222 O 0.88597 0.63124 0.74406 0.0
O223 O 0.88463 0.61223 0.72 0.0
Co224 Co 0.24691 0.38611 0.10558 0.0
O225 O 0.25483 0.36068 0.10563 0.0
O226 O 0.27358 0.38533 0.10359 0.0
C227 C 0.22679 0.3834 0.1294 0.0
O228 O 0.24398 0.41429 0.10582 0.0
Co229 Co 0.20584 0.39645 0.09774 0.0
O230 O 0.21385 0.4218 0.10587 0.0
C231 C 0.22972 0.38261 0.06738 0.0
C232 C 0.27159 0.36727 0.10414 0.0
C233 C 0.23094 0.4263 0.10711 0.0
O234 O 0.24424 0.38507 0.07758 0.0
O235 O 0.21321 0.38459 0.07352 0.0
O236 O 0.24434 0.38584 0.13286 0.0
O237 O 0.22244 0.38116 0.11209 0.0
Co238 Co 0.25029 0.60247 0.88986 0.0
O239 O 0.24326 0.60116 0.86407 0.0
O240 O 0.22351 0.60208 0.88768 0.0
C241 C 0.27193 0.62505 0.88643 0.0
O242 O 0.25276 0.60458 0.91823 0.0
Co243 Co 0.29042 0.59224 0.9014 0.0
O244 O 0.28326 0.60523 0.92477 0.0
C245 C 0.26368 0.5623 0.89183 0.0
C246 C 0.22622 0.60136 0.86972 0.0
C247 C 0.26641 0.60733 0.92956 0.0
O248 O 0.25067 0.57439 0.8911 0.0
O249 O 0.28073 0.56676 0.89441 0.0
O250 O 0.25456 0.62935 0.88784 0.0
O251 O 0.27533 0.60743 0.88531 0.0
Co252 Co 0.39037 0.25109 0.88973 0.0
O253 O 0.36461 0.25675 0.8884 0.0
O254 O 0.38705 0.27786 0.89181 0.0
C255 C 0.39046 0.23098 0.86556 0.0
O256 O 0.41857 0.25 0.89085 0.0
Co257 Co 0.40206 0.21014 0.89819 0.0
O258 O 0.42673 0.21975 0.89042 0.0
C259 C 0.38681 0.2337 0.9281 0.0
C260 C 0.36941 0.27416 0.89018 0.0
C261 C 0.43081 0.23711 0.88958 0.0
O262 O 0.38841 0.24825 0.9177 0.0
O263 O 0.38978 0.2171 0.92223 0.0
O264 O 0.39159 0.24883 0.86244 0.0
O265 O 0.38753 0.22628 0.88265 0.0
Co266 Co 0.75208 0.39179 0.89135 0.0
O267 O 0.75925 0.39477 0.86578 0.0
O268 O 0.77892 0.39336 0.88945 0.0
C269 C 0.73124 0.36864 0.88638 0.0
O270 O 0.74939 0.38817 0.91953 0.0
Co271 Co 0.71138 0.39992 0.90282 0.0
O272 O 0.71884 0.38629 0.92565 0.0
C273 C 0.73707 0.43126 0.89526 0.0
C274 C 0.77627 0.39507 0.87155 0.0
C275 C 0.73571 0.38454 0.93056 0.0
O276 O 0.75058 0.41975 0.89416 0.0
O277 O 0.72017 0.42602 0.89728 0.0
O278 O 0.74874 0.36486 0.88774 0.0
O279 O 0.7273 0.38615 0.88622 0.0
Co280 Co 0.61048 0.74916 0.8898 0.0
O281 O 0.63609 0.7427 0.88822 0.0
O282 O 0.61298 0.72236 0.89175 0.0
C283 C 0.61051 0.76924 0.86573 0.0
O284 O 0.5824 0.75071 0.89113 0.0
Co285 Co 0.59919 0.79014 0.89851 0.0
O286 O 0.57419 0.78091 0.89114 0.0
C287 C 0.6144 0.76642 0.92825 0.0
C288 C 0.63069 0.72544 0.88996 0.0
C289 C 0.57012 0.76356 0.89018 0.0
O290 O 0.61271 0.75191 0.91773 0.0
O291 O 0.61149 0.78305 0.92254 0.0
O292 O 0.60903 0.75139 0.86262 0.0
O293 O 0.61373 0.77402 0.8828 0.0
Co294 Co 0.74949 0.60783 0.10463 0.0
O295 O 0.74236 0.63347 0.10631 0.0
O296 O 0.72284 0.60964 0.10254 0.0
C297 C 0.76953 0.6086 0.12871 0.0
O298 O 0.75168 0.57955 0.10307 0.0
Co299 Co 0.79038 0.59715 0.09623 0.0
O300 O 0.78171 0.5716 0.10275 0.0
C301 C 0.76701 0.61355 0.06689 0.0
C302 C 0.72541 0.62757 0.1043 0.0
C303 C 0.76455 0.56728 0.10367 0.0
O304 O 0.75239 0.61048 0.07675 0.0
O305 O 0.78345 0.61099 0.07301 0.0
O306 O 0.7519 0.60645 0.13191 0.0
O307 O 0.77401 0.61172 0.1116 0.0
Co308 Co 0.39097 0.74875 0.10189 0.0
O309 O 0.36528 0.74189 0.10108 0.0
O310 O 0.38841 0.72187 0.10001 0.0
C311 C 0.38871 0.7689 0.12589 0.0
O312 O 0.41914 0.75096 0.10321 0.0
Co313 Co 0.40267 0.78951 0.09318 0.0
O314 O 0.42608 0.7816 0.10515 0.0
C315 C 0.39213 0.76455 0.0622 0.0
C316 C 0.37063 0.72471 0.10009 0.0
C317 C 0.43063 0.7645 0.10635 0.0
O318 O 0.39126 0.75092 0.07384 0.0
O319 O 0.39537 0.78145 0.06722 0.0
O320 O 0.38996 0.75111 0.12899 0.0
O321 O 0.38701 0.77366 0.10856 0.0
Co322 Co 0.60844 0.24136 0.10163 0.0
O323 O 0.63422 0.24822 0.10194 0.0
O324 O 0.61109 0.26821 0.10044 0.0
C325 C 0.60951 0.22075 0.12526 0.0
O326 O 0.58024 0.23955 0.10192 0.0
Co327 Co 0.59627 0.20105 0.09155 0.0
O328 O 0.57252 0.20907 0.10276 0.0
C329 C 0.60802 0.22645 0.0615 0.0
C330 C 0.62885 0.26543 0.10114 0.0
C331 C 0.56833 0.22625 0.10426 0.0
O332 O 0.60899 0.23977 0.07356 0.0
O333 O 0.60428 0.20951 0.06597 0.0
O334 O 0.60849 0.23853 0.12861 0.0
O335 O 0.61183 0.21616 0.10792 0.0
Co336 Co 0.89292 0.75053 0.60772 0.0
O337 O 0.86796 0.7579 0.60338 0.0
O338 O 0.89209 0.77732 0.60355 0.0
C339 C 0.88618 0.73228 0.63242 0.0
O340 O 0.92069 0.74753 0.61223 0.0
Co341 Co 0.9031 0.70833 0.60517 0.0
O342 O 0.92578 0.71718 0.61822 0.0
C343 C 0.89587 0.73008 0.57083 0.0
C344 C 0.87429 0.7748 0.60161 0.0
C345 C 0.93117 0.73419 0.61777 0.0
O346 O 0.89595 0.74552 0.58013 0.0
O347 O 0.89699 0.71402 0.57854 0.0
O348 O 0.88861 0.75013 0.63488 0.0
O349 O 0.88665 0.72661 0.61538 0.0
Co350 Co 0.24333 0.89393 0.60534 0.0
O351 O 0.25135 0.89083 0.63059 0.0
O352 O 0.27027 0.89519 0.60667 0.0
C353 C 0.22263 0.87018 0.60522 0.0
O354 O 0.23938 0.89681 0.57716 0.0
Co355 Co 0.20228 0.905 0.59891 0.0
O356 O 0.20852 0.8981 0.57286 0.0
C357 C 0.22889 0.93341 0.61197 0.0
C358 C 0.26818 0.89259 0.62456 0.0
C359 C 0.22495 0.89674 0.56649 0.0
O360 O 0.24205 0.92175 0.60935 0.0
O361 O 0.21176 0.92903 0.61 0.0
O362 O 0.24009 0.86699 0.60245 0.0
O363 O 0.21872 0.88706 0.61003 0.0
Co364 Co 0.10962 0.24742 0.60501 0.0
O365 O 0.13494 0.24013 0.60573 0.0
O366 O 0.11134 0.22035 0.60271 0.0
C367 C 0.11157 0.2676 0.62919 0.0
O368 O 0.08145 0.25072 0.60426 0.0
Co369 Co 0.1018 0.28951 0.59668 0.0
O370 O 0.07651 0.28175 0.60435 0.0
C371 C 0.11479 0.26467 0.5668 0.0
C372 C 0.12921 0.22306 0.60364 0.0
C373 C 0.07061 0.2649 0.60532 0.0
O374 O 0.11142 0.25026 0.57702 0.0
O375 O 0.11371 0.28146 0.57285 0.0
O376 O 0.10906 0.24989 0.63243 0.0
O377 O 0.11451 0.27187 0.61203 0.0
Co378 Co 0.75244 0.10115 0.60797 0.0
O379 O 0.74445 0.10239 0.63348 0.0
O380 O 0.72554 0.10084 0.60919 0.0
C381 C 0.77415 0.12395 0.60993 0.0
O382 O 0.75581 0.10061 0.57961 0.0
Co383 Co 0.7929 0.08979 0.5988 0.0
O384 O 0.78648 0.10031 0.57406 0.0
C385 C 0.76586 0.06104 0.61055 0.0
C386 C 0.72759 0.10188 0.62723 0.0
C387 C 0.76981 0.10219 0.56853 0.0
O388 O 0.75281 0.07306 0.60941 0.0
O389 O 0.78298 0.06527 0.6082 0.0
O390 O 0.75682 0.12811 0.60764 0.0
O391 O 0.7774 0.10654 0.61286 0.0
Co392 Co 0.89523 0.24236 0.38509 0.0
O393 O 0.89578 0.24917 0.35915 0.0
O394 O 0.89679 0.26922 0.38276 0.0
C395 C 0.87175 0.22161 0.38294 0.0
O396 O 0.89409 0.24067 0.41348 0.0
Co397 Co 0.9038 0.20196 0.39765 0.0
O398 O 0.89372 0.21048 0.42196 0.0
C399 C 0.93442 0.22698 0.38624 0.0
C400 C 0.89654 0.2664 0.3648 0.0
C401 C 0.89217 0.22777 0.42585 0.0
O402 O 0.92304 0.24063 0.38535 0.0
O403 O 0.92929 0.21014 0.38962 0.0
O404 O 0.8684 0.23935 0.38414 0.0
O405 O 0.88897 0.21721 0.38126 0.0
Co406 Co 0.74364 0.88415 0.39192 0.0
O407 O 0.75035 0.85844 0.39471 0.0
O408 O 0.77012 0.88236 0.39521 0.0
C409 C 0.72442 0.88002 0.36747 0.0
O410 O 0.74208 0.91233 0.38887 0.0
Co411 Co 0.70278 0.89709 0.39643 0.0
O412 O 0.71238 0.92098 0.38614 0.0
C413 C 0.72509 0.88735 0.42964 0.0
C414 C 0.76734 0.86441 0.39624 0.0
C415 C 0.72968 0.92468 0.38564 0.0
O416 O 0.73989 0.88635 0.41972 0.0
O417 O 0.70898 0.88986 0.42266 0.0
O418 O 0.7422 0.88123 0.36473 0.0
O419 O 0.71922 0.87963 0.38465 0.0
Co420 Co 0.10189 0.75226 0.38527 0.0
O421 O 0.1028 0.74566 0.35924 0.0
O422 O 0.10015 0.72545 0.38248 0.0
C423 C 0.12569 0.77281 0.38477 0.0
O424 O 0.10128 0.75361 0.4137 0.0
Co425 Co 0.09293 0.79253 0.39791 0.0
O426 O 0.10099 0.78364 0.42282 0.0
C427 C 0.0628 0.76797 0.3843 0.0
C428 C 0.1014 0.7284 0.36461 0.0
C429 C 0.10223 0.76629 0.42646 0.0
O430 O 0.07414 0.75426 0.38379 0.0
O431 O 0.06782 0.78471 0.38834 0.0
O432 O 0.12877 0.75502 0.38602 0.0
O433 O 0.10863 0.77739 0.38216 0.0
Co434 Co 0.25273 0.10836 0.39046 0.0
O435 O 0.2457 0.13384 0.39394 0.0
O436 O 0.22628 0.10962 0.39429 0.0
C437 C 0.27122 0.11324 0.36567 0.0
O438 O 0.25484 0.0803 0.38667 0.0
Co439 Co 0.29397 0.09639 0.39395 0.0
O440 O 0.28472 0.0727 0.38277 0.0
C441 C 0.27219 0.10512 0.42779 0.0
C442 C 0.22883 0.12759 0.39557 0.0
C443 C 0.26752 0.06849 0.38255 0.0
O444 O 0.25715 0.10583 0.41815 0.0
O445 O 0.28821 0.10311 0.42045 0.0
O446 O 0.25341 0.11172 0.36333 0.0
O447 O 0.27685 0.11352 0.38274 0.0
Co448 Co 0.60276 0.88774 0.74392 0.0
O449 O 0.60046 0.86175 0.74986 0.0
O450 O 0.60063 0.88477 0.77063 0.0
C451 C 0.62643 0.88481 0.72395 0.0
O452 O 0.6057 0.91604 0.74293 0.0
Co453 Co 0.59505 0.90134 0.70385 0.0
O454 O 0.60667 0.92494 0.71289 0.0
C455 C 0.56365 0.89131 0.72802 0.0
C456 C 0.59976 0.86692 0.76722 0.0
C457 C 0.60845 0.92848 0.73026 0.0
O458 O 0.57508 0.88942 0.74163 0.0
O459 O 0.56886 0.89486 0.7113 0.0
O460 O 0.62944 0.88556 0.74182 0.0
O461 O 0.60923 0.88406 0.71886 0.0
Co462 Co 0.10239 0.60979 0.75273 0.0
O463 O 0.10387 0.63581 0.74608 0.0
O464 O 0.10188 0.61233 0.72593 0.0
C465 C 0.12518 0.61024 0.77419 0.0
O466 O 0.10146 0.58142 0.75387 0.0
Co467 Co 0.09141 0.59686 0.79249 0.0
O468 O 0.09959 0.57197 0.78368 0.0
C469 C 0.06262 0.6105 0.76695 0.0
C470 C 0.10311 0.63023 0.7288 0.0
C471 C 0.10164 0.56853 0.76634 0.0
O472 O 0.07461 0.61112 0.75369 0.0
O473 O 0.0668 0.60642 0.78382 0.0
O474 O 0.12907 0.60913 0.7565 0.0
O475 O 0.10796 0.61286 0.77819 0.0
Co476 Co 0.39093 0.10408 0.75181 0.0
O477 O 0.36556 0.10772 0.74532 0.0
O478 O 0.38779 0.10156 0.725 0.0
C479 C 0.39328 0.12884 0.77108 0.0
O480 O 0.41884 0.10009 0.75411 0.0
Co481 Co 0.39942 0.09533 0.7936 0.0
O482 O 0.42535 0.09774 0.78484 0.0
C483 C 0.38258 0.06639 0.76968 0.0
C484 C 0.37037 0.10493 0.72814 0.0
C485 C 0.43037 0.09848 0.76777 0.0
O486 O 0.38586 0.07651 0.7552 0.0
O487 O 0.38517 0.07221 0.78641 0.0
O488 O 0.39514 0.13113 0.75319 0.0
O489 O 0.38825 0.11233 0.77626 0.0
Co490 Co 0.88991 0.38951 0.74505 0.0
O491 O 0.8647 0.39203 0.75296 0.0
O492 O 0.88895 0.39321 0.7719 0.0
C493 C 0.88496 0.36462 0.72622 0.0
O494 O 0.91786 0.38679 0.74193 0.0
Co495 Co 0.90047 0.39347 0.70295 0.0
O496 O 0.92365 0.38163 0.71148 0.0
C497 C 0.89118 0.42689 0.72532 0.0
C498 C 0.87107 0.39393 0.76981 0.0
C499 C 0.92873 0.382 0.72854 0.0
O500 O 0.89158 0.41737 0.74057 0.0
O501 O 0.89284 0.41952 0.70909 0.0
O502 O 0.88711 0.36215 0.74408 0.0
O503 O 0.88433 0.38173 0.7209 0.0
Co504 Co 0.60202 0.10941 0.25539 0.0
O505 O 0.60289 0.13542 0.2486 0.0
O506 O 0.60122 0.11182 0.22857 0.0
C507 C 0.62501 0.11029 0.27657 0.0
O508 O 0.6017 0.08105 0.25671 0.0
Co509 Co 0.59146 0.09657 0.29526 0.0
O510 O 0.6004 0.07189 0.28665 0.0
C511 C 0.56221 0.10909 0.26972 0.0
C512 C 0.60212 0.12975 0.23135 0.0
C513 C 0.60241 0.06832 0.26932 0.0
O514 O 0.57424 0.11014 0.25653 0.0
O515 O 0.56644 0.10509 0.28661 0.0
O516 O 0.62869 0.10929 0.25884 0.0
O517 O 0.60779 0.1127 0.28081 0.0
Co518 Co 0.89482 0.6101 0.24383 0.0
O519 O 0.89461 0.63628 0.2497 0.0
O520 O 0.89625 0.61349 0.27051 0.0
C521 C 0.87128 0.6104 0.22337 0.0
O522 O 0.89452 0.58168 0.24304 0.0
Co523 Co 0.90418 0.5967 0.20385 0.0
O524 O 0.89455 0.57234 0.21306 0.0
C525 C 0.93435 0.60944 0.2286 0.0
C526 C 0.89549 0.6313 0.26708 0.0
C527 C 0.89301 0.56889 0.23044 0.0
O528 O 0.92261 0.61086 0.242 0.0
O529 O 0.92965 0.60517 0.21186 0.0
O530 O 0.86802 0.60978 0.24119 0.0
O531 O 0.88844 0.61275 0.21863 0.0
Co532 Co 0.39186 0.88882 0.24794 0.0
O533 O 0.36649 0.89043 0.25542 0.0
O534 O 0.3903 0.89205 0.27487 0.0
C535 C 0.3877 0.86416 0.22861 0.0
O536 O 0.41997 0.88699 0.24513 0.0
Co537 Co 0.4027 0.89384 0.20598 0.0
O538 O 0.42622 0.88281 0.2146 0.0
C539 C 0.39129 0.92628 0.2287 0.0
C540 C 0.37243 0.89228 0.27242 0.0
C541 C 0.43113 0.88293 0.23172 0.0
O542 O 0.39265 0.91676 0.24388 0.0
O543 O 0.39313 0.91913 0.2124 0.0
O544 O 0.38979 0.86138 0.24643 0.0
O545 O 0.3868 0.88134 0.22362 0.0
Co546 Co 0.10057 0.38407 0.24335 0.0
O547 O 0.10043 0.35788 0.24889 0.0
O548 O 0.09906 0.38056 0.26998 0.0
C549 C 0.1241 0.38353 0.22297 0.0
O550 O 0.10122 0.41249 0.24291 0.0
Co551 Co 0.09129 0.39781 0.20359 0.0
O552 O 0.10113 0.42205 0.21306 0.0
C553 C 0.06105 0.38515 0.22811 0.0
C554 C 0.09955 0.36276 0.26632 0.0
C555 C 0.10279 0.42536 0.23048 0.0
O556 O 0.07281 0.38363 0.24149 0.0
O557 O 0.06573 0.38947 0.21141 0.0
O558 O 0.12734 0.38407 0.24081 0.0
O559 O 0.10692 0.38145 0.21813 0.0
Co560 Co 0.75318 0.60833 0.89171 0.0
O561 O 0.74641 0.63384 0.88839 0.0
O562 O 0.72654 0.61062 0.89368 0.0
C563 C 0.77291 0.60693 0.86755 0.0
O564 O 0.75537 0.5802 0.89499 0.0
Co565 Co 0.79413 0.59881 0.90117 0.0
O566 O 0.78561 0.57294 0.89562 0.0
C567 C 0.77015 0.61524 0.92993 0.0
C568 C 0.72938 0.62835 0.89067 0.0
C569 C 0.76853 0.56821 0.89493 0.0
O570 O 0.75593 0.61262 0.91938 0.0
O571 O 0.78677 0.61231 0.92454 0.0
O572 O 0.75521 0.60494 0.86471 0.0
O573 O 0.77773 0.61157 0.88429 0.0
Co574 Co 0.74487 0.39149 0.10763 0.0
O575 O 0.75076 0.39365 0.13367 0.0
O576 O 0.7715 0.39328 0.11091 0.0
C577 C 0.7242 0.36792 0.11037 0.0
O578 O 0.74371 0.38867 0.07924 0.0
Co579 Co 0.70493 0.39986 0.0942 0.0
O580 O 0.71353 0.38647 0.07156 0.0
C581 C 0.73 0.43109 0.10393 0.0
C582 C 0.76803 0.39424 0.12872 0.0
C583 C 0.73063 0.38495 0.06749 0.0
O584 O 0.74331 0.41947 0.10574 0.0
O585 O 0.71325 0.426 0.1006 0.0
O586 O 0.74183 0.36454 0.10999 0.0
O587 O 0.71984 0.38535 0.11114 0.0
Co588 Co 0.60646 0.74845 0.10442 0.0
O589 O 0.63204 0.74199 0.10405 0.0
O590 O 0.60886 0.7215 0.10274 0.0
C591 C 0.60899 0.7691 0.12806 0.0
O592 O 0.57823 0.75044 0.1053 0.0
Co593 Co 0.59534 0.78964 0.09621 0.0
O594 O 0.57177 0.78105 0.10768 0.0
C595 C 0.6088 0.7653 0.06592 0.0
C596 C 0.62666 0.72469 0.10301 0.0
C597 C 0.56697 0.76388 0.1086 0.0
O598 O 0.60681 0.75079 0.07634 0.0
O599 O 0.60654 0.782 0.07184 0.0
O600 O 0.60729 0.75138 0.13169 0.0
O601 O 0.61065 0.77329 0.11068 0.0
Co602 Co 0.25162 0.60186 0.10717 0.0
O603 O 0.24533 0.6012 0.13314 0.0
O604 O 0.2249 0.60072 0.11007 0.0
C605 C 0.27272 0.6251 0.1092 0.0
O606 O 0.25336 0.60317 0.07869 0.0
Co607 Co 0.29175 0.59204 0.09516 0.0
O608 O 0.28375 0.60421 0.07169 0.0
C609 C 0.26593 0.56196 0.10617 0.0
C610 C 0.22813 0.60058 0.12797 0.0
C611 C 0.26679 0.60594 0.06712 0.0
O612 O 0.2527 0.5738 0.10668 0.0
O613 O 0.28284 0.56663 0.10318 0.0
O614 O 0.25519 0.62887 0.1083 0.0
O615 O 0.27665 0.60766 0.1109 0.0
Co616 Co 0.39315 0.24983 0.10424 0.0
O617 O 0.36766 0.25637 0.10359 0.0
O618 O 0.3909 0.27677 0.10175 0.0
C619 C 0.39054 0.23012 0.1285 0.0
O620 O 0.42134 0.24737 0.10516 0.0
Co621 Co 0.40306 0.20812 0.09681 0.0
O622 O 0.4269 0.21657 0.1079 0.0
C623 C 0.39029 0.23196 0.06604 0.0
C624 C 0.37308 0.27357 0.10192 0.0
C625 C 0.4322 0.23362 0.10856 0.0
O626 O 0.39274 0.24661 0.07623 0.0
O627 O 0.392 0.21532 0.07224 0.0
O628 O 0.39238 0.24794 0.13159 0.0
O629 O 0.38865 0.22535 0.11126 0.0
Co630 Co 0.24224 0.38633 0.89124 0.0
O631 O 0.24946 0.36072 0.88936 0.0
O632 O 0.26891 0.38469 0.89266 0.0
C633 C 0.2217 0.38574 0.86764 0.0
O634 O 0.24 0.41456 0.8928 0.0
Co635 Co 0.2016 0.39693 0.90076 0.0
O636 O 0.20997 0.42246 0.8937 0.0
C637 C 0.22601 0.38158 0.92981 0.0
C638 C 0.26643 0.36676 0.89087 0.0
C639 C 0.22709 0.42679 0.89236 0.0
O640 O 0.24019 0.38388 0.91918 0.0
O641 O 0.20935 0.3842 0.92437 0.0
O642 O 0.23928 0.38777 0.86414 0.0
O643 O 0.21748 0.38241 0.8848 0.0
Co644 Co 0.60524 0.25222 0.88596 0.0
O645 O 0.60377 0.24586 0.85984 0.0
O646 O 0.60295 0.22549 0.88305 0.0
C647 C 0.62909 0.2726 0.88362 0.0
O648 O 0.60708 0.25317 0.91434 0.0
Co649 Co 0.59799 0.29243 0.90006 0.0
O650 O 0.60777 0.28299 0.92413 0.0
C651 C 0.56647 0.26843 0.88876 0.0
C652 C 0.60262 0.22857 0.86516 0.0
C653 C 0.60908 0.26555 0.92728 0.0
O654 O 0.57751 0.25456 0.88704 0.0
O655 O 0.57208 0.28505 0.89254 0.0
O656 O 0.63213 0.25476 0.88432 0.0
O657 O 0.61192 0.27733 0.88265 0.0
Co658 Co 0.39616 0.74313 0.88493 0.0
O659 O 0.39708 0.7484 0.85862 0.0
O660 O 0.39786 0.76978 0.88103 0.0
C661 C 0.37262 0.72236 0.8836 0.0
O662 O 0.39477 0.74301 0.91339 0.0
Co663 Co 0.40467 0.70344 0.89954 0.0
O664 O 0.39451 0.71326 0.92331 0.0
C665 C 0.43543 0.72807 0.88782 0.0
C666 C 0.3979 0.76592 0.86326 0.0
C667 C 0.39293 0.7307 0.92638 0.0
O668 O 0.42393 0.74147 0.88574 0.0
O669 O 0.43039 0.71139 0.89199 0.0
O670 O 0.36935 0.74015 0.88379 0.0
O671 O 0.38985 0.71782 0.88236 0.0
H672 H 0.09976 0.3685 0.3041 0.0
H673 H 0.10609 0.25971 0.32884 0.0
H674 H 0.0999 0.32485 0.2624 0.0
H675 H 0.11118 0.3042 0.36938 0.0
H676 H 0.10196 0.28311 0.30431 0.0
H677 H 0.1018 0.34478 0.32843 0.0
C678 C 0.10013 0.35392 0.30008 0.0
C679 C 0.09975 0.34863 0.28123 0.0
C680 C 0.10397 0.28771 0.31859 0.0
C681 C 0.10215 0.32142 0.30894 0.0
C682 C 0.10634 0.27438 0.33256 0.0
C683 C 0.10901 0.28004 0.35113 0.0
C684 C 0.10423 0.30679 0.3233 0.0
C685 C 0.10918 0.29921 0.35524 0.0
C686 C 0.10134 0.34038 0.31396 0.0
C687 C 0.10024 0.32954 0.27679 0.0
N688 N 0.10682 0.31187 0.34144 0.0
N689 N 0.10147 0.31661 0.29055 0.0
H690 H 0.68907 0.10284 0.37937 0.0
H691 H 0.66157 0.10366 0.27086 0.0
H692 H 0.72766 0.09708 0.33377 0.0
H693 H 0.62145 0.11124 0.31477 0.0
H694 H 0.68561 0.09991 0.29432 0.0
H695 H 0.66366 0.10458 0.35655 0.0
C696 C 0.69218 0.10185 0.36461 0.0
C697 C 0.7105 0.09991 0.35846 0.0
C698 C 0.67156 0.10238 0.2989 0.0
C699 C 0.68167 0.1019 0.33241 0.0
C700 C 0.65782 0.10454 0.28547 0.0
C701 C 0.63951 0.10785 0.29087 0.0
C702 C 0.66705 0.10357 0.31795 0.0
C703 C 0.63544 0.10877 0.31003 0.0
C704 C 0.67771 0.10287 0.35161 0.0
C705 C 0.71377 0.09869 0.33919 0.0
N706 N 0.64913 0.10668 0.32292 0.0
N707 N 0.69955 0.09974 0.32691 0.0
H708 H 0.88723 0.73377 0.33103 0.0
H709 H 0.8956 0.62531 0.3048 0.0
H710 H 0.88553 0.68906 0.3713 0.0
H711 H 0.89404 0.66922 0.26368 0.0
H712 H 0.89321 0.64879 0.32946 0.0
H713 H 0.89068 0.71058 0.30606 0.0
C714 C 0.88754 0.71909 0.3346 0.0
C715 C 0.88609 0.71331 0.35323 0.0
C716 C 0.89343 0.65331 0.31504 0.0
C717 C 0.89011 0.68679 0.32489 0.0
C718 C 0.89483 0.6399 0.30097 0.0
C719 C 0.89496 0.64533 0.28219 0.0
C720 C 0.89215 0.67228 0.31028 0.0
C721 C 0.89394 0.66442 0.278 0.0
C722 C 0.88954 0.70587 0.32038 0.0
C723 C 0.88662 0.69414 0.35712 0.0
N724 N 0.89254 0.67722 0.29195 0.0
N725 N 0.8886 0.68159 0.34308 0.0
H726 H 0.37851 0.8902 0.31058 0.0
H727 H 0.27022 0.90015 0.33169 0.0
H728 H 0.33585 0.89932 0.26949 0.0
H729 H 0.30977 0.8918 0.37602 0.0
H730 H 0.29523 0.90127 0.30936 0.0
H731 H 0.35484 0.8921 0.33533 0.0
C732 C 0.36424 0.89272 0.30679 0.0
C733 C 0.35911 0.89444 0.28794 0.0
C734 C 0.29861 0.8992 0.32393 0.0
C735 C 0.33216 0.89664 0.31597 0.0
C736 C 0.28424 0.89851 0.33676 0.0
C737 C 0.28786 0.8957 0.35577 0.0
C738 C 0.31694 0.89692 0.32995 0.0
C739 C 0.30639 0.89392 0.36146 0.0
C740 C 0.35077 0.89377 0.32088 0.0
C741 C 0.34047 0.8977 0.28377 0.0
N742 N 0.3203 0.89443 0.34855 0.0
N743 N 0.32776 0.89864 0.29761 0.0
H744 H 0.10276 0.62276 0.69123 0.0
H745 H 0.10755 0.7307 0.66248 0.0
H746 H 0.10475 0.6683 0.73079 0.0
H747 H 0.10864 0.68576 0.62225 0.0
H748 H 0.1057 0.70784 0.68757 0.0
H749 H 0.10406 0.64538 0.66568 0.0
C750 C 0.10346 0.63751 0.69454 0.0
C751 C 0.10369 0.64366 0.71317 0.0
C752 C 0.10635 0.70293 0.67328 0.0
C753 C 0.10517 0.6696 0.68403 0.0
C754 C 0.10741 0.71599 0.65892 0.0
C755 C 0.1083 0.71012 0.64025 0.0
C756 C 0.10615 0.68379 0.66898 0.0
C757 C 0.10803 0.69088 0.63647 0.0
C758 C 0.10421 0.65041 0.67995 0.0
C759 C 0.10458 0.66293 0.71665 0.0
N760 N 0.10698 0.67838 0.65072 0.0
N761 N 0.10529 0.67519 0.70223 0.0
H762 H 0.26698 0.11027 0.66737 0.0
H763 H 0.3755 0.10339 0.69009 0.0
H764 H 0.3098 0.11361 0.62544 0.0
H765 H 0.33315 0.10819 0.73229 0.0
H766 H 0.35147 0.10543 0.66598 0.0
H767 H 0.291 0.1081 0.69145 0.0
C768 C 0.28141 0.1106 0.66325 0.0
C769 C 0.2864 0.11209 0.64441 0.0
C770 C 0.34747 0.10604 0.68054 0.0
C771 C 0.3139 0.10948 0.67173 0.0
C772 C 0.36118 0.10482 0.69427 0.0
C773 C 0.35633 0.10566 0.71319 0.0
C774 C 0.32883 0.108 0.68582 0.0
C775 C 0.33755 0.10754 0.71786 0.0
C776 C 0.29511 0.10934 0.67696 0.0
C777 C 0.30531 0.11242 0.63981 0.0
N778 N 0.3245 0.10863 0.70429 0.0
N779 N 0.31836 0.11108 0.65335 0.0
H780 H 0.88728 0.30579 0.62157 0.0
H781 H 0.89236 0.32723 0.73148 0.0
H782 H 0.8964 0.26272 0.66246 0.0
H783 H 0.87921 0.36763 0.68903 0.0
H784 H 0.89482 0.30321 0.70695 0.0
H785 H 0.88576 0.32874 0.64662 0.0
C786 C 0.88903 0.30118 0.63584 0.0
C787 C 0.89189 0.28233 0.63995 0.0
C788 C 0.89136 0.31735 0.70309 0.0
C789 C 0.89006 0.30856 0.66885 0.0
C790 C 0.8899 0.331 0.71707 0.0
C791 C 0.88562 0.34943 0.71227 0.0
C792 C 0.88852 0.32228 0.6843 0.0
C793 C 0.88263 0.35363 0.6934 0.0
C794 C 0.88812 0.31429 0.65019 0.0
C795 C 0.89413 0.27715 0.65872 0.0
N796 N 0.88418 0.34021 0.68016 0.0
N797 N 0.89312 0.2902 0.67252 0.0
H798 H 0.73361 0.88559 0.66865 0.0
H799 H 0.62407 0.88093 0.68615 0.0
H800 H 0.69275 0.87191 0.62657 0.0
H801 H 0.66361 0.88715 0.73105 0.0
H802 H 0.64961 0.87881 0.66405 0.0
H803 H 0.70867 0.88684 0.69203 0.0
C804 C 0.71946 0.88272 0.66438 0.0
C805 C 0.7152 0.87878 0.64567 0.0
C806 C 0.65275 0.88063 0.67874 0.0
C807 C 0.6868 0.88032 0.67205 0.0
C808 C 0.63815 0.8819 0.69134 0.0
C809 C 0.64175 0.88418 0.71042 0.0
C810 C 0.67111 0.88172 0.68525 0.0
C811 C 0.66026 0.88536 0.71641 0.0
C812 C 0.70526 0.88348 0.67767 0.0
C813 C 0.69667 0.87518 0.64082 0.0
N814 N 0.67429 0.88412 0.70385 0.0
N815 N 0.68319 0.87612 0.65388 0.0
H816 H 0.37197 0.10139 0.30307 0.0
H817 H 0.26419 0.10795 0.32825 0.0
H818 H 0.32893 0.10214 0.26121 0.0
H819 H 0.30867 0.11514 0.36805 0.0
H820 H 0.28726 0.10401 0.30343 0.0
H821 H 0.34841 0.10395 0.32729 0.0
C822 C 0.35755 0.10197 0.29899 0.0
C823 C 0.35239 0.10164 0.28013 0.0
C824 C 0.29191 0.10648 0.31761 0.0
C825 C 0.32534 0.10471 0.30773 0.0
C826 C 0.27877 0.10878 0.33173 0.0
C827 C 0.28455 0.11183 0.3502 0.0
C828 C 0.31087 0.10718 0.3221 0.0
C829 C 0.30359 0.11274 0.35401 0.0
C830 C 0.34409 0.10351 0.31281 0.0
C831 C 0.33349 0.10242 0.27561 0.0
N832 N 0.31605 0.11037 0.3401 0.0
N833 N 0.32062 0.10398 0.28933 0.0
H834 H 0.89743 0.2641 0.32681 0.0
H835 H 0.8869 0.37404 0.3105 0.0
H836 H 0.89525 0.30407 0.37195 0.0
H837 H 0.88926 0.33325 0.26613 0.0
H838 H 0.89083 0.34897 0.33332 0.0
H839 H 0.89556 0.2896 0.30448 0.0
C840 C 0.89663 0.27827 0.33204 0.0
C841 C 0.89643 0.28196 0.35128 0.0
C842 C 0.89051 0.34552 0.31859 0.0
C843 C 0.89418 0.31131 0.32571 0.0
C844 C 0.88824 0.35981 0.30556 0.0
C845 C 0.88768 0.3557 0.2864 0.0
C846 C 0.89222 0.327 0.31238 0.0
C847 C 0.88956 0.33705 0.28077 0.0
C848 C 0.89555 0.29285 0.31925 0.0
C849 C 0.89543 0.30061 0.35723 0.0
N850 N 0.89171 0.32341 0.29369 0.0
N851 N 0.89426 0.3146 0.34448 0.0
H852 H 0.73051 0.88642 0.33013 0.0
H853 H 0.62209 0.89152 0.30641 0.0
H854 H 0.68699 0.878 0.37064 0.0
H855 H 0.66522 0.89686 0.26498 0.0
H856 H 0.64587 0.88796 0.33047 0.0
H857 H 0.70689 0.8911 0.30603 0.0
C858 C 0.71601 0.88546 0.33392 0.0
C859 C 0.71069 0.88185 0.35238 0.0
C860 C 0.65012 0.88998 0.31611 0.0
C861 C 0.68367 0.88732 0.32506 0.0
C862 C 0.63655 0.89209 0.30241 0.0
C863 C 0.6417 0.89442 0.2837 0.0
C864 C 0.66894 0.89022 0.31102 0.0
C865 C 0.66063 0.89502 0.27925 0.0
C866 C 0.70254 0.8882 0.32021 0.0
C867 C 0.69172 0.88082 0.35658 0.0
N868 N 0.67357 0.89287 0.2928 0.0
N869 N 0.67891 0.88357 0.34305 0.0
H870 H 0.10902 0.62075 0.30941 0.0
H871 H 0.10206 0.73096 0.32663 0.0
H872 H 0.10713 0.66162 0.26531 0.0
H873 H 0.10125 0.69067 0.37134 0.0
H874 H 0.1035 0.7055 0.30406 0.0
H875 H 0.10587 0.64589 0.33241 0.0
C876 C 0.10794 0.635 0.30457 0.0
C877 C 0.10841 0.63913 0.28543 0.0
C878 C 0.10296 0.70218 0.31879 0.0
C879 C 0.10479 0.66791 0.31162 0.0
C880 C 0.10214 0.71673 0.33171 0.0
C881 C 0.1016 0.71294 0.3509 0.0
C882 C 0.10331 0.68363 0.32507 0.0
C883 C 0.10168 0.69422 0.35666 0.0
C884 C 0.10611 0.64934 0.3177 0.0
C885 C 0.10689 0.65782 0.27993 0.0
N886 N 0.10259 0.68025 0.34379 0.0
N887 N 0.10519 0.6715 0.29295 0.0
H888 H 0.32971 0.88574 0.7268 0.0
H889 H 0.30567 0.89853 0.61824 0.0
H890 H 0.37211 0.89652 0.68564 0.0
H891 H 0.26619 0.88503 0.66152 0.0
H892 H 0.33057 0.898 0.64184 0.0
H893 H 0.30653 0.88573 0.70228 0.0
C894 C 0.33417 0.88812 0.71255 0.0
C895 C 0.3529 0.89114 0.70829 0.0
C896 C 0.31643 0.89512 0.64606 0.0
C897 C 0.32623 0.89116 0.67987 0.0
C898 C 0.30225 0.8954 0.63263 0.0
C899 C 0.28382 0.89188 0.63792 0.0
C900 C 0.31203 0.89129 0.66482 0.0
C901 C 0.28015 0.88791 0.65674 0.0
C902 C 0.32088 0.88809 0.69848 0.0
C903 C 0.3578 0.89412 0.68952 0.0
N904 N 0.29406 0.88776 0.66942 0.0
N905 N 0.34452 0.89408 0.67596 0.0
H906 H 0.10313 0.33217 0.73146 0.0
H907 H 0.11513 0.30492 0.62402 0.0
H908 H 0.10935 0.37215 0.68685 0.0
H909 H 0.10467 0.26388 0.66689 0.0
H910 H 0.11289 0.32951 0.6472 0.0
H911 H 0.10337 0.30688 0.70843 0.0
C912 C 0.10449 0.33562 0.71681 0.0
C913 C 0.10632 0.35427 0.71102 0.0
C914 C 0.11102 0.31516 0.65161 0.0
C915 C 0.10663 0.32544 0.68468 0.0
C916 C 0.11231 0.30105 0.63836 0.0
C917 C 0.11007 0.28229 0.64354 0.0
C918 C 0.10756 0.31057 0.67031 0.0
C919 C 0.10649 0.27818 0.66234 0.0
C920 C 0.10462 0.32118 0.70369 0.0
C921 C 0.10798 0.35797 0.69191 0.0
N922 N 0.10539 0.29224 0.67511 0.0
N923 N 0.10816 0.34367 0.67943 0.0
H924 H 0.69006 0.09874 0.6197 0.0
H925 H 0.6637 0.11331 0.72734 0.0
H926 H 0.72911 0.10657 0.6648 0.0
H927 H 0.62252 0.09731 0.68638 0.0
H928 H 0.68716 0.11315 0.70327 0.0
H929 H 0.66459 0.09997 0.64256 0.0
C930 C 0.69328 0.10073 0.63435 0.0
C931 C 0.71175 0.10255 0.64034 0.0
C932 C 0.67303 0.10965 0.6994 0.0
C933 C 0.68283 0.10405 0.6664 0.0
C934 C 0.65954 0.10977 0.71321 0.0
C935 C 0.64108 0.10522 0.70893 0.0
C936 C 0.6682 0.10492 0.68099 0.0
C937 C 0.63661 0.10088 0.69029 0.0
C938 C 0.67876 0.10141 0.64736 0.0
C939 C 0.71513 0.10508 0.65947 0.0
N940 N 0.65013 0.10078 0.67695 0.0
N941 N 0.70087 0.10578 0.67172 0.0
H942 H 0.8926 0.7372 0.67027 0.0
H943 H 0.88039 0.62768 0.68857 0.0
H944 H 0.87587 0.69619 0.6291 0.0
H945 H 0.88863 0.66677 0.7339 0.0
H946 H 0.87961 0.65346 0.66682 0.0
H947 H 0.89164 0.71255 0.69428 0.0
C948 C 0.88859 0.7231 0.66634 0.0
C949 C 0.88448 0.71865 0.64769 0.0
C950 C 0.88154 0.65653 0.68151 0.0
C951 C 0.88345 0.69066 0.67476 0.0
C952 C 0.88205 0.64175 0.69396 0.0
C953 C 0.88459 0.6451 0.71306 0.0
C954 C 0.88369 0.67492 0.6881 0.0
C955 C 0.88663 0.66364 0.71924 0.0
C956 C 0.88808 0.70909 0.67998 0.0
C957 C 0.87937 0.70023 0.64327 0.0
N958 N 0.8862 0.67794 0.70675 0.0
N959 N 0.87909 0.68697 0.65665 0.0
H960 H 0.30888 0.37608 0.10371 0.0
H961 H 0.33658 0.26868 0.09518 0.0
H962 H 0.27042 0.3295 0.10151 0.0
H963 H 0.37763 0.31197 0.10486 0.0
H964 H 0.31272 0.29199 0.09448 0.0
H965 H 0.33467 0.35402 0.10173 0.0
C966 C 0.30587 0.36126 0.10278 0.0
C967 C 0.28749 0.35459 0.10284 0.0
C968 C 0.3269 0.29653 0.09676 0.0
C969 C 0.31674 0.32948 0.10047 0.0
C970 C 0.34061 0.28317 0.09716 0.0
C971 C 0.35913 0.28836 0.1003 0.0
C972 C 0.33158 0.31538 0.09962 0.0
C973 C 0.36348 0.3074 0.10248 0.0
C974 C 0.32057 0.34872 0.10167 0.0
C975 C 0.28434 0.3353 0.1016 0.0
N976 N 0.34973 0.3203 0.10223 0.0
N977 N 0.29878 0.32349 0.10047 0.0
H978 H 0.33544 0.72826 0.88666 0.0
H979 H 0.3092 0.61935 0.88515 0.0
H980 H 0.37578 0.6844 0.88376 0.0
H981 H 0.26868 0.66299 0.88871 0.0
H982 H 0.3338 0.64302 0.88536 0.0
H983 H 0.31079 0.70461 0.88819 0.0
C984 C 0.33911 0.71364 0.88638 0.0
C985 C 0.35766 0.70826 0.88501 0.0
C986 C 0.31954 0.64744 0.88613 0.0
C987 C 0.32956 0.68115 0.88673 0.0
C988 C 0.30548 0.63393 0.886 0.0
C989 C 0.28688 0.63924 0.88685 0.0
C990 C 0.31497 0.66642 0.88708 0.0
C991 C 0.28286 0.65831 0.88799 0.0
C992 C 0.32503 0.70015 0.88726 0.0
C993 C 0.36164 0.68915 0.88475 0.0
N994 N 0.2968 0.67123 0.88802 0.0
N995 N 0.3477 0.67628 0.88556 0.0
H996 H 0.26458 0.32915 0.88606 0.0
H997 H 0.37375 0.3123 0.89474 0.0
H998 H 0.30371 0.37435 0.89504 0.0
H999 H 0.33241 0.26913 0.88577 0.0
H1000 H 0.34901 0.33563 0.8948 0.0
H1001 H 0.28995 0.30728 0.88578 0.0
C1002 C 0.27855 0.3345 0.88798 0.0
C1003 C 0.28202 0.35361 0.8906 0.0
C1004 C 0.34544 0.32103 0.89282 0.0
C1005 C 0.31135 0.3285 0.89031 0.0
C1006 C 0.35952 0.30774 0.89278 0.0
C1007 C 0.35513 0.28875 0.89027 0.0
C1008 C 0.32693 0.31519 0.89031 0.0
C1009 C 0.33649 0.28359 0.88779 0.0
C1010 C 0.29309 0.32196 0.88782 0.0
C1011 C 0.30045 0.3597 0.89298 0.0
N1012 N 0.32315 0.2967 0.88788 0.0
N1013 N 0.31447 0.34716 0.8928 0.0
H1014 H 0.62598 0.31047 0.88317 0.0
H1015 H 0.73529 0.33064 0.88778 0.0
H1016 H 0.66649 0.26676 0.88581 0.0
H1017 H 0.69394 0.37348 0.88447 0.0
H1018 H 0.71055 0.30689 0.88741 0.0
H1019 H 0.65095 0.33367 0.88405 0.0
C1020 C 0.64016 0.30575 0.88396 0.0
C1021 C 0.64418 0.28666 0.8844 0.0
C1022 C 0.70691 0.32149 0.88677 0.0
C1023 C 0.6729 0.31318 0.88539 0.0
C1024 C 0.72102 0.33503 0.88697 0.0
C1025 C 0.71665 0.35404 0.88614 0.0
C1026 C 0.68834 0.32704 0.88574 0.0
C1027 C 0.69795 0.35898 0.88513 0.0
C1028 C 0.65442 0.31901 0.88445 0.0
C1029 C 0.66279 0.28135 0.88543 0.0
N1030 N 0.68451 0.34558 0.88495 0.0
N1031 N 0.67649 0.29455 0.88587 0.0
H1032 H 0.73232 0.66519 0.88251 0.0
H1033 H 0.62477 0.68774 0.8954 0.0
H1034 H 0.69205 0.62266 0.89714 0.0
H1035 H 0.66771 0.72863 0.88413 0.0
H1036 H 0.64832 0.66322 0.89514 0.0
H1037 H 0.70794 0.68811 0.8819 0.0
C1038 C 0.71829 0.66065 0.88561 0.0
C1039 C 0.71423 0.64198 0.88996 0.0
C1040 C 0.65251 0.67757 0.89272 0.0
C1041 C 0.68603 0.66835 0.88932 0.0
C1042 C 0.63911 0.69154 0.89286 0.0
C1043 C 0.64431 0.71025 0.88982 0.0
C1044 C 0.67115 0.68242 0.88946 0.0
C1045 C 0.66304 0.71443 0.8866 0.0
C1046 C 0.70432 0.67379 0.88526 0.0
C1047 C 0.69576 0.63694 0.89374 0.0
N1048 N 0.67572 0.70066 0.8865 0.0
N1049 N 0.68229 0.65009 0.89339 0.0
H1050 H 0.66391 0.72903 0.10156 0.0
H1051 H 0.68789 0.62026 0.10145 0.0
H1052 H 0.62117 0.68636 0.10289 0.0
H1053 H 0.72787 0.66536 0.10597 0.0
H1054 H 0.66297 0.64338 0.10053 0.0
H1055 H 0.6872 0.70507 0.10141 0.0
C1056 C 0.65939 0.71456 0.10181 0.0
C1057 C 0.64053 0.70971 0.10233 0.0
C1058 C 0.67722 0.64813 0.10173 0.0
C1059 C 0.66739 0.68193 0.10221 0.0
C1060 C 0.69142 0.63498 0.10225 0.0
C1061 C 0.70998 0.64091 0.10381 0.0
C1062 C 0.68171 0.66726 0.10269 0.0
C1063 C 0.71379 0.66011 0.10478 0.0
C1064 C 0.67277 0.70082 0.10174 0.0
C1065 C 0.63559 0.69068 0.10253 0.0
N1066 N 0.69982 0.67253 0.10419 0.0
N1067 N 0.64898 0.67742 0.10251 0.0
H1068 H 0.37657 0.68689 0.10177 0.0
H1069 H 0.26799 0.66234 0.10341 0.0
H1070 H 0.33325 0.72765 0.09752 0.0
H1071 H 0.31032 0.62081 0.10962 0.0
H1072 H 0.29206 0.68622 0.09968 0.0
H1073 H 0.35283 0.6621 0.10293 0.0
C1074 C 0.3621 0.6906 0.10097 0.0
C1075 C 0.35686 0.70934 0.09966 0.0
C1076 C 0.29612 0.67189 0.10184 0.0
C1077 C 0.32973 0.6812 0.10103 0.0
C1078 C 0.28237 0.65826 0.104 0.0
C1079 C 0.28719 0.63961 0.10692 0.0
C1080 C 0.31486 0.66686 0.10263 0.0
C1081 C 0.30603 0.63507 0.10746 0.0
C1082 C 0.34857 0.67648 0.10167 0.0
C1083 C 0.33793 0.7134 0.09865 0.0
N1084 N 0.31921 0.64862 0.10538 0.0
N1085 N 0.32508 0.69946 0.09942 0.0
H1086 H 0.73004 0.33049 0.10745 0.0
H1087 H 0.62225 0.30309 0.10149 0.0
H1088 H 0.68646 0.37113 0.10919 0.0
H1089 H 0.66647 0.26311 0.10165 0.0
H1090 H 0.64536 0.32839 0.10324 0.0
H1091 H 0.70674 0.30572 0.10438 0.0
C1092 C 0.71554 0.3342 0.1072 0.0
C1093 C 0.71016 0.35287 0.10863 0.0
C1094 C 0.64998 0.31408 0.10285 0.0
C1095 C 0.68336 0.32459 0.10509 0.0
C1096 C 0.6368 0.29965 0.10182 0.0
C1097 C 0.64245 0.28098 0.10147 0.0
C1098 C 0.66891 0.30977 0.10351 0.0
C1099 C 0.66148 0.2773 0.10193 0.0
C1100 C 0.70223 0.32005 0.10543 0.0
C1101 C 0.69119 0.35689 0.10818 0.0
N1102 N 0.674 0.29155 0.10296 0.0
N1103 N 0.67845 0.34284 0.10646 0.0
H1104 H 0.60129 0.87276 0.80504 0.0
H1105 H 0.60239 0.76349 0.82876 0.0
H1106 H 0.59635 0.82917 0.76351 0.0
H1107 H 0.6113 0.80706 0.86968 0.0
H1108 H 0.59765 0.7874 0.80493 0.0
H1109 H 0.60223 0.84887 0.82938 0.0
C1110 C 0.60027 0.85818 0.80107 0.0
C1111 C 0.59888 0.85292 0.78225 0.0
C1112 C 0.6006 0.79172 0.81915 0.0
C1113 C 0.60003 0.82556 0.80992 0.0
C1114 C 0.60332 0.77808 0.83272 0.0
C1115 C 0.60735 0.78332 0.85116 0.0
C1116 C 0.60191 0.8107 0.82409 0.0
C1117 C 0.60831 0.80241 0.85559 0.0
C1118 C 0.60085 0.84455 0.81494 0.0
C1119 C 0.59756 0.83384 0.77785 0.0
N1120 N 0.60565 0.81541 0.84214 0.0
N1121 N 0.59826 0.82085 0.79158 0.0
H1122 H 0.22884 0.59767 0.83204 0.0
H1123 H 0.12076 0.61122 0.8122 0.0
H1124 H 0.18877 0.6048 0.8761 0.0
H1125 H 0.16205 0.60403 0.76934 0.0
H1126 H 0.14491 0.60793 0.836 0.0
H1127 H 0.20403 0.59884 0.80914 0.0
C1128 C 0.21477 0.59943 0.83692 0.0
C1129 C 0.21088 0.60122 0.85603 0.0
C1130 C 0.14866 0.60703 0.82139 0.0
C1131 C 0.18227 0.60265 0.82973 0.0
C1132 C 0.1349 0.60892 0.8078 0.0
C1133 C 0.13944 0.60797 0.78877 0.0
C1134 C 0.16707 0.60417 0.81586 0.0
C1135 C 0.15793 0.60491 0.78385 0.0
C1136 C 0.20058 0.60011 0.8238 0.0
C1137 C 0.19237 0.60339 0.8615 0.0
N1138 N 0.17105 0.60317 0.7973 0.0
N1139 N 0.17873 0.60413 0.84838 0.0
H1140 H 0.39512 0.12587 0.8088 0.0
H1141 H 0.39571 0.23596 0.8278 0.0
H1142 H 0.39768 0.16633 0.7643 0.0
H1143 H 0.39186 0.19353 0.87036 0.0
H1144 H 0.39918 0.21127 0.80417 0.0
H1145 H 0.39704 0.15107 0.83149 0.0
C1146 C 0.39619 0.1401 0.8038 0.0
C1147 C 0.39606 0.14406 0.78467 0.0
C1148 C 0.39769 0.20745 0.81872 0.0
C1149 C 0.39807 0.17312 0.81062 0.0
C1150 C 0.3957 0.22149 0.83216 0.0
C1151 C 0.39336 0.21675 0.85102 0.0
C1152 C 0.39737 0.18864 0.82428 0.0
C1153 C 0.39351 0.19784 0.85598 0.0
C1154 C 0.39728 0.15453 0.81678 0.0
C1155 C 0.39766 0.16274 0.77897 0.0
N1156 N 0.39541 0.18453 0.84271 0.0
N1157 N 0.39842 0.17666 0.79193 0.0
H1158 H 0.83485 0.40312 0.76794 0.0
H1159 H 0.81391 0.39074 0.87705 0.0
H1160 H 0.87794 0.39072 0.80763 0.0
H1161 H 0.7734 0.40414 0.83497 0.0
H1162 H 0.83825 0.39246 0.85298 0.0
H1163 H 0.81286 0.40549 0.79338 0.0
C1164 C 0.83971 0.40092 0.78207 0.0
C1165 C 0.85822 0.39655 0.78564 0.0
C1166 C 0.82403 0.39512 0.84912 0.0
C1167 C 0.83292 0.39911 0.81509 0.0
C1168 C 0.81016 0.39417 0.86283 0.0
C1169 C 0.79158 0.39712 0.85797 0.0
C1170 C 0.81918 0.39912 0.83054 0.0
C1171 C 0.78748 0.40155 0.83937 0.0
C1172 C 0.82711 0.4023 0.79666 0.0
C1173 C 0.86375 0.39407 0.80429 0.0
N1174 N 0.80111 0.40233 0.8264 0.0
N1175 N 0.85108 0.39522 0.81836 0.0
H1176 H 0.60953 0.18249 0.12249 0.0
H1177 H 0.60219 0.16783 0.23319 0.0
H1178 H 0.60534 0.22743 0.16247 0.0
H1179 H 0.60269 0.12212 0.1938 0.0
H1180 H 0.60329 0.18978 0.20722 0.0
H1181 H 0.607 0.15999 0.14815 0.0
C1182 C 0.60807 0.18761 0.13665 0.0
C1183 C 0.60772 0.20684 0.14037 0.0
C1184 C 0.60313 0.17495 0.20421 0.0
C1185 C 0.60483 0.18127 0.16974 0.0
C1186 C 0.60251 0.1624 0.21906 0.0
C1187 C 0.60239 0.14312 0.21566 0.0
C1188 C 0.60371 0.1682 0.18578 0.0
C1189 C 0.60278 0.13689 0.19705 0.0
C1190 C 0.60661 0.17478 0.15128 0.0
C1191 C 0.60573 0.21273 0.15896 0.0
N1192 N 0.60348 0.1494 0.1828 0.0
N1193 N 0.60441 0.20001 0.17292 0.0
H1194 H 0.87451 0.60979 0.18544 0.0
H1195 H 0.76515 0.60371 0.1666 0.0
H1196 H 0.83411 0.6064 0.22973 0.0
H1197 H 0.80672 0.60987 0.1237 0.0
H1198 H 0.78994 0.6025 0.1901 0.0
H1199 H 0.84952 0.60759 0.1626 0.0
C1200 C 0.86036 0.60854 0.19035 0.0
C1201 C 0.85635 0.6084 0.20947 0.0
C1202 C 0.79357 0.60403 0.17551 0.0
C1203 C 0.82762 0.60592 0.18343 0.0
C1204 C 0.77945 0.60471 0.16214 0.0
C1205 C 0.7839 0.60698 0.14322 0.0
C1206 C 0.81217 0.60561 0.16982 0.0
C1207 C 0.80263 0.60818 0.13814 0.0
C1208 C 0.84608 0.60728 0.17731 0.0
C1209 C 0.83778 0.60664 0.21507 0.0
N1210 N 0.81603 0.60753 0.15134 0.0
N1211 N 0.82406 0.60555 0.20209 0.0
H1212 H 0.38632 0.80672 0.12307 0.0
H1213 H 0.3929 0.82626 0.23329 0.0
H1214 H 0.39221 0.76257 0.16344 0.0
H1215 H 0.38297 0.86818 0.19138 0.0
H1216 H 0.39366 0.80247 0.20841 0.0
H1217 H 0.38634 0.82943 0.14844 0.0
C1218 C 0.38765 0.80181 0.13729 0.0
C1219 C 0.38921 0.78275 0.14117 0.0
C1220 C 0.39131 0.8169 0.20474 0.0
C1221 C 0.3892 0.80869 0.17039 0.0
C1222 C 0.39086 0.83044 0.21892 0.0
C1223 C 0.38791 0.84921 0.21439 0.0
C1224 C 0.38882 0.82229 0.18603 0.0
C1225 C 0.38536 0.8539 0.19556 0.0
C1226 C 0.38763 0.81478 0.15181 0.0
C1227 C 0.39093 0.77717 0.15987 0.0
N1228 N 0.3859 0.84058 0.18214 0.0
N1229 N 0.39086 0.79009 0.17384 0.0
H1230 H 0.23075 0.38865 0.16732 0.0
H1231 H 0.12121 0.38298 0.18499 0.0
H1232 H 0.18969 0.38047 0.12411 0.0
H1233 H 0.16123 0.38724 0.22965 0.0
H1234 H 0.14645 0.38403 0.1624 0.0
H1235 H 0.20573 0.38992 0.19052 0.0
C1236 C 0.21652 0.38716 0.16273 0.0
C1237 C 0.21228 0.38442 0.1438 0.0
C1238 C 0.14975 0.38477 0.17714 0.0
C1239 C 0.18375 0.38591 0.17005 0.0
C1240 C 0.13532 0.38419 0.19003 0.0
C1241 C 0.13916 0.38492 0.20919 0.0
C1242 C 0.16816 0.38608 0.18346 0.0
C1243 C 0.15769 0.38657 0.21497 0.0
C1244 C 0.20226 0.38789 0.17593 0.0
C1245 C 0.19362 0.3826 0.13855 0.0
N1246 N 0.17154 0.38703 0.20215 0.0
N1247 N 0.18009 0.38336 0.15159 0.0
H1248 H 0.76682 0.5974 0.83102 0.0
H1249 H 0.87472 0.59861 0.80534 0.0
H1250 H 0.81049 0.60798 0.87102 0.0
H1251 H 0.83086 0.59484 0.76444 0.0
H1252 H 0.85146 0.59795 0.83015 0.0
H1253 H 0.79024 0.59255 0.80688 0.0
C1254 C 0.78133 0.59863 0.83472 0.0
C1255 C 0.78675 0.60326 0.85297 0.0
C1256 C 0.84694 0.59715 0.81574 0.0
C1257 C 0.81356 0.5977 0.82554 0.0
C1258 C 0.86022 0.59748 0.80159 0.0
C1259 C 0.85468 0.59697 0.78283 0.0
C1260 C 0.82805 0.5963 0.81104 0.0
C1261 C 0.83572 0.59544 0.77874 0.0
C1262 C 0.79469 0.59585 0.82096 0.0
C1263 C 0.80572 0.60456 0.85708 0.0
N1264 N 0.82307 0.59527 0.79273 0.0
N1265 N 0.81845 0.60188 0.84344 0.0
H1266 H 0.38883 0.87048 0.80472 0.0
H1267 H 0.39916 0.7615 0.82536 0.0
H1268 H 0.39376 0.82903 0.76121 0.0
H1269 H 0.3974 0.80385 0.86831 0.0
H1270 H 0.39812 0.78591 0.80164 0.0
H1271 H 0.39278 0.84622 0.82806 0.0
C1272 C 0.39079 0.85625 0.80005 0.0
C1273 C 0.3909 0.85175 0.78096 0.0
C1274 C 0.39804 0.78988 0.81624 0.0
C1275 C 0.39539 0.8238 0.80774 0.0
C1276 C 0.39863 0.77595 0.82981 0.0
C1277 C 0.39827 0.78065 0.84886 0.0
C1278 C 0.39701 0.80866 0.82174 0.0
C1279 C 0.39765 0.79959 0.85379 0.0
C1280 C 0.39307 0.84239 0.81343 0.0
C1281 C 0.39355 0.83308 0.77578 0.0
N1282 N 0.39695 0.81289 0.84031 0.0
N1283 N 0.39561 0.81975 0.78911 0.0
H1284 H 0.18432 0.38374 0.87247 0.0
H1285 H 0.16185 0.40132 0.76484 0.0
H1286 H 0.22613 0.39424 0.83063 0.0
H1287 H 0.11962 0.39208 0.80655 0.0
H1288 H 0.18539 0.40043 0.78912 0.0
H1289 H 0.16037 0.38812 0.84891 0.0
C1290 C 0.18847 0.387 0.85831 0.0
C1291 C 0.20724 0.38855 0.85345 0.0
C1292 C 0.17099 0.39868 0.79303 0.0
C1293 C 0.17988 0.39358 0.82642 0.0
C1294 C 0.15751 0.39918 0.77916 0.0
C1295 C 0.13875 0.39662 0.78369 0.0
C1296 C 0.16572 0.39549 0.8116 0.0
C1297 C 0.13394 0.39406 0.80247 0.0
C1298 C 0.17477 0.38953 0.84488 0.0
C1299 C 0.21181 0.39284 0.83493 0.0
N1300 N 0.14738 0.39343 0.81576 0.0
N1301 N 0.1982 0.39515 0.82206 0.0
H1302 H 0.59782 0.1634 0.7633 0.0
H1303 H 0.60285 0.1909 0.87179 0.0
H1304 H 0.60875 0.12377 0.8071 0.0
H1305 H 0.59952 0.23116 0.82722 0.0
H1306 H 0.60204 0.16575 0.84858 0.0
H1307 H 0.59534 0.18804 0.78683 0.0
C1308 C 0.59962 0.15987 0.77788 0.0
C1309 C 0.60362 0.14154 0.78325 0.0
C1310 C 0.60143 0.18009 0.84389 0.0
C1311 C 0.60082 0.16966 0.81027 0.0
C1312 C 0.60187 0.19445 0.85714 0.0
C1313 C 0.60136 0.21315 0.85142 0.0
C1314 C 0.60041 0.18447 0.8248 0.0
C1315 C 0.60005 0.21694 0.83225 0.0
C1316 C 0.59823 0.17394 0.79131 0.0
C1317 C 0.60575 0.13774 0.80234 0.0
N1318 N 0.59966 0.20273 0.81964 0.0
N1319 N 0.60437 0.15169 0.81516 0.0
H1320 H 0.87197 0.39562 0.19035 0.0
H1321 H 0.76373 0.39806 0.16624 0.0
H1322 H 0.82836 0.39734 0.23147 0.0
H1323 H 0.80589 0.39369 0.12382 0.0
H1324 H 0.78771 0.39934 0.19005 0.0
H1325 H 0.8485 0.3963 0.16557 0.0
C1326 C 0.85747 0.39618 0.19416 0.0
C1327 C 0.8521 0.39636 0.213 0.0
C1328 C 0.79179 0.39813 0.17555 0.0
C1329 C 0.82525 0.39716 0.18479 0.0
C1330 C 0.77807 0.3974 0.16191 0.0
C1331 C 0.7828 0.39568 0.14299 0.0
C1332 C 0.81049 0.3971 0.17034 0.0
C1333 C 0.80164 0.39498 0.13825 0.0
C1334 C 0.84411 0.39657 0.18002 0.0
C1335 C 0.83315 0.39712 0.21715 0.0
N1336 N 0.81483 0.39563 0.15186 0.0
N1337 N 0.82045 0.39747 0.20318 0.0
H1338 H 0.60537 0.83286 0.23089 0.0
H1339 H 0.61062 0.80654 0.12258 0.0
H1340 H 0.61031 0.87333 0.18657 0.0
H1341 H 0.60517 0.76524 0.16608 0.0
H1342 H 0.60958 0.83108 0.146 0.0
H1343 H 0.60433 0.80788 0.20758 0.0
C1344 C 0.6062 0.83649 0.21624 0.0
C1345 C 0.60802 0.85517 0.21061 0.0
C1346 C 0.60857 0.81667 0.15049 0.0
C1347 C 0.60685 0.82669 0.18393 0.0
C1348 C 0.60916 0.80262 0.1371 0.0
C1349 C 0.60802 0.78381 0.14241 0.0
C1350 C 0.60689 0.81195 0.16941 0.0
C1351 C 0.60613 0.77958 0.16142 0.0
C1352 C 0.6056 0.82222 0.20296 0.0
C1353 C 0.60898 0.8591 0.19149 0.0
N1354 N 0.60568 0.79358 0.17429 0.0
N1355 N 0.60843 0.84496 0.17883 0.0
H1356 H 0.12374 0.59874 0.18898 0.0
H1357 H 0.23217 0.59944 0.16564 0.0
H1358 H 0.16734 0.59911 0.23025 0.0
H1359 H 0.19024 0.59992 0.12265 0.0
H1360 H 0.20808 0.59857 0.18923 0.0
H1361 H 0.1473 0.59843 0.16427 0.0
C1362 C 0.13824 0.59872 0.19284 0.0
C1363 C 0.1436 0.599 0.2117 0.0
C1364 C 0.20405 0.59885 0.17466 0.0
C1365 C 0.17052 0.59865 0.1836 0.0
C1366 C 0.21784 0.59935 0.16113 0.0
C1367 C 0.21322 0.5998 0.14211 0.0
C1368 C 0.18536 0.59881 0.16925 0.0
C1369 C 0.1944 0.59961 0.13717 0.0
C1370 C 0.15166 0.59855 0.17874 0.0
C1371 C 0.16255 0.59894 0.21592 0.0
N1372 N 0.18112 0.59916 0.15068 0.0
N1373 N 0.17528 0.5988 0.202 0.0
H1374 H 0.39342 0.23527 0.16654 0.0
H1375 H 0.3901 0.12523 0.18562 0.0
H1376 H 0.38992 0.19259 0.12394 0.0
H1377 H 0.38914 0.16592 0.23018 0.0
H1378 H 0.39252 0.15036 0.16307 0.0
H1379 H 0.39411 0.21067 0.19042 0.0
C1380 C 0.39287 0.22077 0.16223 0.0
C1381 C 0.39154 0.21594 0.14328 0.0
C1382 C 0.39181 0.15388 0.17777 0.0
C1383 C 0.39237 0.18794 0.17028 0.0
C1384 C 0.39043 0.1395 0.19067 0.0
C1385 C 0.3893 0.14352 0.20977 0.0
C1386 C 0.39198 0.1725 0.18396 0.0
C1387 C 0.3899 0.16227 0.21553 0.0
C1388 C 0.39325 0.20677 0.17582 0.0
C1389 C 0.3909 0.19699 0.13839 0.0
N1390 N 0.39112 0.17614 0.20263 0.0
N1391 N 0.39129 0.18373 0.15179 0.0
H1392 H 0.87948 0.81275 0.60692 0.0
H1393 H 0.77195 0.83151 0.58951 0.0
H1394 H 0.83947 0.77159 0.58806 0.0
H1395 H 0.81009 0.87531 0.6062 0.0
H1396 H 0.79772 0.81032 0.58626 0.0
H1397 H 0.85562 0.83688 0.60408 0.0
C1398 C 0.86579 0.80886 0.60195 0.0
C1399 C 0.86134 0.79014 0.59797 0.0
C1400 C 0.80058 0.82457 0.59055 0.0
C1401 C 0.83417 0.81743 0.59474 0.0
C1402 C 0.78581 0.83669 0.59245 0.0
C1403 C 0.78887 0.85513 0.59833 0.0
C1404 C 0.81863 0.8308 0.5948 0.0
C1405 C 0.80716 0.86114 0.60171 0.0
C1406 C 0.8522 0.82258 0.60039 0.0
C1407 C 0.84344 0.7858 0.59157 0.0
N1408 N 0.82139 0.84893 0.6001 0.0
N1409 N 0.83054 0.79928 0.59029 0.0
H1410 H 0.83461 0.22699 0.38755 0.0
H1411 H 0.80968 0.11781 0.38402 0.0
H1412 H 0.87526 0.18375 0.38143 0.0
H1413 H 0.76887 0.1607 0.39142 0.0
H1414 H 0.83394 0.14183 0.38354 0.0
H1415 H 0.81031 0.20297 0.38943 0.0
C1416 C 0.83842 0.21243 0.38662 0.0
C1417 C 0.85695 0.20732 0.38429 0.0
C1418 C 0.81969 0.14601 0.38531 0.0
C1419 C 0.82928 0.17981 0.38643 0.0
C1420 C 0.80583 0.1323 0.38558 0.0
C1421 C 0.78725 0.1373 0.38771 0.0
C1422 C 0.81493 0.16488 0.38714 0.0
C1423 C 0.78304 0.15626 0.38971 0.0
C1424 C 0.82455 0.19874 0.38771 0.0
C1425 C 0.86113 0.18829 0.3832 0.0
N1426 N 0.79678 0.16938 0.38933 0.0
N1427 N 0.8474 0.17522 0.38425 0.0
H1428 H 0.80479 0.87184 0.39638 0.0
H1429 H 0.83036 0.76377 0.40486 0.0
H1430 H 0.76482 0.82689 0.40182 0.0
H1431 H 0.87157 0.8071 0.39651 0.0
H1432 H 0.80658 0.78743 0.40662 0.0
H1433 H 0.82978 0.84909 0.399 0.0
C1434 C 0.80128 0.85722 0.39823 0.0
C1435 C 0.7827 0.85122 0.39874 0.0
C1436 C 0.82081 0.79184 0.40447 0.0
C1437 C 0.81113 0.82521 0.40177 0.0
C1438 C 0.83443 0.77831 0.40346 0.0
C1439 C 0.85296 0.78346 0.40036 0.0
C1440 C 0.82566 0.81075 0.40225 0.0
C1441 C 0.85742 0.80253 0.39884 0.0
C1442 C 0.81553 0.84426 0.39971 0.0
C1443 C 0.77893 0.83214 0.4012 0.0
N1444 N 0.84382 0.81552 0.39965 0.0
N1445 N 0.79299 0.81985 0.40256 0.0
H1446 H 0.16273 0.76707 0.39022 0.0
H1447 H 0.18898 0.87557 0.38134 0.0
H1448 H 0.12276 0.81066 0.38241 0.0
H1449 H 0.2295 0.83298 0.39142 0.0
H1450 H 0.16457 0.85182 0.38226 0.0
H1451 H 0.18741 0.79081 0.39133 0.0
C1452 C 0.15914 0.78164 0.3888 0.0
C1453 C 0.14069 0.78692 0.38615 0.0
C1454 C 0.17878 0.84762 0.38432 0.0
C1455 C 0.1688 0.81409 0.38737 0.0
C1456 C 0.19274 0.8612 0.38379 0.0
C1457 C 0.21129 0.85622 0.38626 0.0
C1458 C 0.18337 0.82888 0.3873 0.0
C1459 C 0.21535 0.83739 0.38941 0.0
C1460 C 0.17323 0.79517 0.38944 0.0
C1461 C 0.13681 0.80597 0.38443 0.0
N1462 N 0.20149 0.82437 0.38979 0.0
N1463 N 0.15075 0.81885 0.38501 0.0
H1464 H 0.19135 0.12015 0.39411 0.0
H1465 H 0.16681 0.22851 0.40054 0.0
H1466 H 0.23118 0.16479 0.4027 0.0
H1467 H 0.12489 0.18563 0.39315 0.0
H1468 H 0.1901 0.20458 0.40342 0.0
H1469 H 0.16635 0.14306 0.39582 0.0
C1470 C 0.19482 0.13472 0.39652 0.0
C1471 C 0.21337 0.14063 0.39808 0.0
C1472 C 0.17583 0.2003 0.40121 0.0
C1473 C 0.18499 0.16676 0.40001 0.0
C1474 C 0.16249 0.214 0.39951 0.0
C1475 C 0.14391 0.20905 0.39641 0.0
C1476 C 0.17066 0.1814 0.39964 0.0
C1477 C 0.13911 0.19002 0.39545 0.0
C1478 C 0.18057 0.14776 0.39746 0.0
C1479 C 0.21711 0.15962 0.40122 0.0
N1480 N 0.15246 0.17683 0.39691 0.0
N1481 N 0.20308 0.17197 0.40199 0.0
H1482 H 0.19113 0.11905 0.60369 0.0
H1483 H 0.16605 0.2273 0.59833 0.0
H1484 H 0.2304 0.16406 0.59486 0.0
H1485 H 0.12379 0.1846 0.60443 0.0
H1486 H 0.18927 0.20343 0.59595 0.0
H1487 H 0.16587 0.14178 0.6028 0.0
C1488 C 0.19443 0.13366 0.60142 0.0
C1489 C 0.21292 0.13971 0.59948 0.0
C1490 C 0.17496 0.19913 0.59778 0.0
C1491 C 0.18422 0.16565 0.5985 0.0
C1492 C 0.16161 0.21283 0.59921 0.0
C1493 C 0.14291 0.20797 0.60175 0.0
C1494 C 0.16976 0.18024 0.59904 0.0
C1495 C 0.13808 0.18893 0.60254 0.0
C1496 C 0.18002 0.1466 0.60095 0.0
C1497 C 0.21641 0.15876 0.59657 0.0
N1498 N 0.15148 0.17569 0.60132 0.0
N1499 N 0.20224 0.17098 0.59625 0.0
H1500 H 0.8116 0.11846 0.61198 0.0
H1501 H 0.8355 0.22684 0.59868 0.0
H1502 H 0.77099 0.16126 0.60335 0.0
H1503 H 0.87795 0.1852 0.60328 0.0
H1504 H 0.812 0.20248 0.60016 0.0
H1505 H 0.83626 0.14208 0.60877 0.0
C1506 C 0.80787 0.13282 0.6094 0.0
C1507 C 0.78921 0.13794 0.60799 0.0
C1508 C 0.82642 0.19855 0.6008 0.0
C1509 C 0.8173 0.16495 0.60429 0.0
C1510 C 0.83992 0.21251 0.59997 0.0
C1511 C 0.85877 0.20807 0.60095 0.0
C1512 C 0.83166 0.17988 0.60271 0.0
C1513 C 0.86357 0.18922 0.6025 0.0
C1514 C 0.82195 0.14627 0.60754 0.0
C1515 C 0.78517 0.1567 0.60459 0.0
N1516 N 0.85007 0.17576 0.60343 0.0
N1517 N 0.79908 0.1695 0.6029 0.0
H1518 H 0.22753 0.83379 0.59534 0.0
H1519 H 0.11983 0.8063 0.6019 0.0
H1520 H 0.18508 0.87335 0.60921 0.0
H1521 H 0.16363 0.76656 0.59426 0.0
H1522 H 0.14301 0.8316 0.60187 0.0
H1523 H 0.20376 0.80947 0.59214 0.0
C1524 C 0.21318 0.83736 0.59768 0.0
C1525 C 0.20827 0.85557 0.60268 0.0
C1526 C 0.14751 0.81734 0.60014 0.0
C1527 C 0.18095 0.8278 0.59904 0.0
C1528 C 0.13429 0.80291 0.60011 0.0
C1529 C 0.13983 0.7843 0.59819 0.0
C1530 C 0.16636 0.81308 0.59815 0.0
C1531 C 0.15874 0.78069 0.5959 0.0
C1532 C 0.19961 0.82347 0.59585 0.0
C1533 C 0.18947 0.85945 0.60544 0.0
N1534 N 0.17131 0.79493 0.59599 0.0
N1535 N 0.17647 0.84565 0.60364 0.0
H1536 H 0.12392 0.29298 0.45216 0.0
H1537 H 0.10843 0.23371 0.54468 0.0
H1538 H 0.10818 0.23463 0.451 0.0
H1539 H 0.13043 0.29003 0.54323 0.0
H1540 H 0.11106 0.2322 0.51056 0.0
H1541 H 0.1289 0.29084 0.4856 0.0
C1542 C 0.12155 0.27967 0.45895 0.0
C1543 C 0.11537 0.26403 0.44881 0.0
C1544 C 0.11553 0.24478 0.51778 0.0
C1545 C 0.121 0.26146 0.48729 0.0
C1546 C 0.11407 0.24563 0.53724 0.0
C1547 C 0.11885 0.26216 0.54676 0.0
C1548 C 0.1218 0.26056 0.50791 0.0
C1549 C 0.12619 0.27714 0.53645 0.0
C1550 C 0.12449 0.27842 0.47808 0.0
C1551 C 0.11284 0.24707 0.45833 0.0
N1552 N 0.12724 0.27604 0.51761 0.0
N1553 N 0.11543 0.24628 0.47713 0.0
H1554 H 0.7387 0.09507 0.54698 0.0
H1555 H 0.79327 0.1204 0.45301 0.0
H1556 H 0.79438 0.11748 0.54414 0.0
H1557 H 0.73924 0.094 0.45242 0.0
H1558 H 0.79127 0.12357 0.4867 0.0
H1559 H 0.73617 0.09834 0.51284 0.0
C1560 C 0.75028 0.10088 0.53923 0.0
C1561 C 0.76688 0.10575 0.54838 0.0
C1562 C 0.77974 0.11717 0.47929 0.0
C1563 C 0.76406 0.10958 0.50954 0.0
C1564 C 0.78089 0.11535 0.46 0.0
C1565 C 0.76653 0.10666 0.44991 0.0
C1566 C 0.76419 0.11004 0.48878 0.0
C1567 C 0.75068 0.1007 0.4597 0.0
C1568 C 0.74885 0.10269 0.51978 0.0
C1569 C 0.78143 0.11323 0.53768 0.0
N1570 N 0.75003 0.10226 0.47868 0.0
N1571 N 0.7797 0.11481 0.51891 0.0
H1572 H 0.89135 0.75959 0.45284 0.0
H1573 H 0.89359 0.7003 0.54721 0.0
H1574 H 0.89177 0.69936 0.45606 0.0
H1575 H 0.89481 0.76065 0.54731 0.0
H1576 H 0.89163 0.70049 0.51356 0.0
H1577 H 0.89123 0.76101 0.48712 0.0
C1578 C 0.89132 0.74669 0.4607 0.0
C1579 C 0.89169 0.72932 0.45151 0.0
C1580 C 0.89231 0.71375 0.52084 0.0
C1581 C 0.89156 0.73089 0.49056 0.0
C1582 C 0.89346 0.71367 0.54017 0.0
C1583 C 0.89446 0.73051 0.55021 0.0
C1584 C 0.8922 0.73078 0.51123 0.0
C1585 C 0.89412 0.74733 0.54015 0.0
C1586 C 0.89129 0.74753 0.48023 0.0
C1587 C 0.89163 0.71309 0.46242 0.0
N1588 N 0.89307 0.74705 0.52115 0.0
N1589 N 0.89162 0.7143 0.48128 0.0
H1590 H 0.25904 0.89963 0.44896 0.0
H1591 H 0.19726 0.89236 0.54109 0.0
H1592 H 0.20107 0.88421 0.45091 0.0
H1593 H 0.25685 0.89735 0.54466 0.0
H1594 H 0.19949 0.89027 0.50762 0.0
H1595 H 0.2598 0.89906 0.48342 0.0
C1596 C 0.24657 0.89594 0.45656 0.0
C1597 C 0.22991 0.89221 0.44698 0.0
C1598 C 0.21218 0.89172 0.51559 0.0
C1599 C 0.23067 0.89165 0.48616 0.0
C1600 C 0.21092 0.893 0.53487 0.0
C1601 C 0.22691 0.89509 0.54589 0.0
C1602 C 0.22957 0.89258 0.50689 0.0
C1603 C 0.24416 0.89574 0.53675 0.0
C1604 C 0.24701 0.89567 0.47619 0.0
C1605 C 0.21419 0.88749 0.45756 0.0
N1606 N 0.24505 0.89458 0.51771 0.0
N1607 N 0.21496 0.88748 0.47644 0.0
H1608 H 0.099 0.70586 0.53137 0.0
H1609 H 0.10784 0.78873 0.45702 0.0
H1610 H 0.10936 0.76362 0.54594 0.0
H1611 H 0.10062 0.73086 0.44121 0.0
H1612 H 0.10917 0.77941 0.48965 0.0
H1613 H 0.10023 0.71436 0.49832 0.0
C1614 C 0.10159 0.7203 0.52767 0.0
C1615 C 0.10399 0.73404 0.54155 0.0
C1616 C 0.10736 0.76871 0.47907 0.0
C1617 C 0.10539 0.74385 0.50369 0.0
C1618 C 0.10659 0.77404 0.46038 0.0
C1619 C 0.10402 0.76058 0.44628 0.0
C1620 C 0.10548 0.74978 0.48383 0.0
C1621 C 0.10259 0.74174 0.45157 0.0
C1622 C 0.1023 0.72514 0.50877 0.0
C1623 C 0.10734 0.75253 0.53582 0.0
N1624 N 0.10324 0.73691 0.46993 0.0
N1625 N 0.10787 0.75687 0.51739 0.0
H1626 H 0.30108 0.1063 0.45222 0.0
H1627 H 0.23984 0.10597 0.54526 0.0
H1628 H 0.24125 0.10641 0.45049 0.0
H1629 H 0.29961 0.10419 0.54308 0.0
H1630 H 0.23922 0.10734 0.51093 0.0
H1631 H 0.29994 0.10685 0.4859 0.0
C1632 C 0.28763 0.10647 0.4589 0.0
C1633 C 0.27123 0.10621 0.44841 0.0
C1634 C 0.25241 0.10668 0.51808 0.0
C1635 C 0.26983 0.10682 0.48741 0.0
C1636 C 0.25279 0.10591 0.53764 0.0
C1637 C 0.2698 0.10489 0.54713 0.0
C1638 C 0.26915 0.10648 0.50808 0.0
C1639 C 0.28613 0.10488 0.53652 0.0
C1640 C 0.287 0.10679 0.47825 0.0
C1641 C 0.25426 0.10656 0.45802 0.0
N1642 N 0.28536 0.10563 0.51768 0.0
N1643 N 0.25398 0.10678 0.47705 0.0
H1644 H 0.88838 0.28713 0.53117 0.0
H1645 H 0.88536 0.20472 0.45562 0.0
H1646 H 0.88393 0.22861 0.54515 0.0
H1647 H 0.89141 0.263 0.44121 0.0
H1648 H 0.88198 0.21356 0.4883 0.0
H1649 H 0.88657 0.27886 0.49811 0.0
C1650 C 0.88687 0.27255 0.52734 0.0
C1651 C 0.8865 0.25854 0.54104 0.0
C1652 C 0.88396 0.22443 0.47799 0.0
C1653 C 0.8845 0.249 0.50311 0.0
C1654 C 0.88591 0.2194 0.45928 0.0
C1655 C 0.88887 0.23312 0.44558 0.0
C1656 C 0.88501 0.24334 0.48316 0.0
C1657 C 0.88926 0.25192 0.45125 0.0
C1658 C 0.88587 0.26785 0.50843 0.0
C1659 C 0.88444 0.2399 0.53514 0.0
N1660 N 0.88749 0.25646 0.46961 0.0
N1661 N 0.88365 0.23569 0.51665 0.0
H1662 H 0.69669 0.88669 0.45459 0.0
H1663 H 0.75984 0.88682 0.54636 0.0
H1664 H 0.75644 0.88528 0.4517 0.0
H1665 H 0.7 0.88771 0.54536 0.0
H1666 H 0.75976 0.88539 0.51203 0.0
H1667 H 0.69852 0.88612 0.48822 0.0
C1668 C 0.71026 0.88621 0.46101 0.0
C1669 C 0.72645 0.88612 0.45021 0.0
C1670 C 0.74671 0.88585 0.51944 0.0
C1671 C 0.72865 0.88548 0.48915 0.0
C1672 C 0.74673 0.88667 0.539 0.0
C1673 C 0.72991 0.88746 0.54882 0.0
C1674 C 0.72976 0.88581 0.50979 0.0
C1675 C 0.71335 0.8872 0.53854 0.0
C1676 C 0.7113 0.88588 0.48034 0.0
C1677 C 0.7436 0.88539 0.45948 0.0
N1678 N 0.71374 0.88643 0.51969 0.0
N1679 N 0.74427 0.88518 0.47849 0.0
H1680 H 0.4423 0.10492 0.26681 0.0
H1681 H 0.54789 0.12026 0.23623 0.0
H1682 H 0.46003 0.1166 0.21039 0.0
H1683 H 0.53148 0.1041 0.29196 0.0
H1684 H 0.5154 0.12228 0.22754 0.0
H1685 H 0.47449 0.10776 0.27718 0.0
C1686 C 0.45291 0.10821 0.25661 0.0
C1687 C 0.44843 0.11035 0.23765 0.0
C1688 C 0.51888 0.11837 0.2417 0.0
C1689 C 0.48529 0.11361 0.24945 0.0
C1690 C 0.53747 0.11721 0.2467 0.0
C1691 C 0.54249 0.11181 0.26483 0.0
C1692 C 0.50511 0.11405 0.25487 0.0
C1693 C 0.5283 0.10822 0.27779 0.0
C1694 C 0.47129 0.1098 0.26255 0.0
C1695 C 0.46279 0.11464 0.22511 0.0
N1696 N 0.51024 0.10928 0.27252 0.0
N1697 N 0.48055 0.11605 0.23122 0.0
H1698 H 0.88494 0.53869 0.20827 0.0
H1699 H 0.89431 0.46402 0.29038 0.0
H1700 H 0.8947 0.55413 0.26583 0.0
H1701 H 0.88109 0.44984 0.23318 0.0
H1702 H 0.89322 0.4971 0.28217 0.0
H1703 H 0.88221 0.50615 0.21764 0.0
C1704 C 0.88646 0.53527 0.22291 0.0
C1705 C 0.8902 0.54922 0.23626 0.0
C1706 C 0.89045 0.48673 0.27146 0.0
C1707 C 0.88712 0.51179 0.2471 0.0
C1708 C 0.89107 0.46782 0.27613 0.0
C1709 C 0.88792 0.45405 0.26243 0.0
C1710 C 0.88671 0.49193 0.25296 0.0
C1711 C 0.88373 0.45988 0.24421 0.0
C1712 C 0.88486 0.51664 0.22826 0.0
C1713 C 0.89185 0.54387 0.25504 0.0
N1714 N 0.88336 0.47834 0.24001 0.0
N1715 N 0.89043 0.52556 0.25989 0.0
H1716 H 0.54516 0.86575 0.20947 0.0
H1717 H 0.45236 0.89533 0.26143 0.0
H1718 H 0.54559 0.89894 0.25982 0.0
H1719 H 0.45489 0.86244 0.21095 0.0
H1720 H 0.48619 0.893 0.26444 0.0
H1721 H 0.51209 0.86037 0.21322 0.0
C1722 C 0.53825 0.87179 0.22144 0.0
C1723 C 0.54804 0.88304 0.2342 0.0
C1724 C 0.47926 0.88608 0.25288 0.0
C1725 C 0.50993 0.87721 0.23848 0.0
C1726 C 0.45997 0.88735 0.2512 0.0
C1727 C 0.45086 0.87934 0.23574 0.0
C1728 C 0.48937 0.87665 0.23906 0.0
C1729 C 0.46137 0.86914 0.22289 0.0
C1730 C 0.51934 0.86871 0.22361 0.0
C1731 C 0.53848 0.89026 0.24963 0.0
N1732 N 0.48 0.86824 0.22476 0.0
N1733 N 0.51983 0.88749 0.25118 0.0
H1734 H 0.11617 0.54517 0.23173 0.0
H1735 H 0.10183 0.43974 0.26613 0.0
H1736 H 0.10186 0.53056 0.28846 0.0
H1737 H 0.1106 0.45577 0.20867 0.0
H1738 H 0.10491 0.47257 0.27534 0.0
H1739 H 0.11736 0.51212 0.2239 0.0
C1740 C 0.11335 0.53504 0.2426 0.0
C1741 C 0.10874 0.54074 0.26077 0.0
C1742 C 0.10624 0.46885 0.26073 0.0
C1743 C 0.11005 0.5027 0.25181 0.0
C1744 C 0.10453 0.45011 0.25546 0.0
C1745 C 0.1058 0.44496 0.23656 0.0
C1746 C 0.10933 0.48254 0.24703 0.0
C1747 C 0.10934 0.45904 0.22338 0.0
C1748 C 0.11403 0.51612 0.23809 0.0
C1749 C 0.10538 0.52686 0.27424 0.0
N1750 N 0.11091 0.47714 0.22886 0.0
N1751 N 0.106 0.50849 0.26946 0.0
H1752 H 0.44326 0.89491 0.72546 0.0
H1753 H 0.54739 0.88217 0.76129 0.0
H1754 H 0.45869 0.88554 0.78294 0.0
H1755 H 0.53402 0.89692 0.70442 0.0
H1756 H 0.51455 0.88108 0.7686 0.0
H1757 H 0.47602 0.89355 0.71672 0.0
C1758 C 0.45348 0.8925 0.73623 0.0
C1759 C 0.44816 0.89044 0.755 0.0
C1760 C 0.51875 0.88453 0.7545 0.0
C1761 C 0.48563 0.88884 0.74506 0.0
C1762 C 0.53756 0.88516 0.75028 0.0
C1763 C 0.54357 0.88978 0.73221 0.0
C1764 C 0.5057 0.88855 0.7406 0.0
C1765 C 0.53007 0.89335 0.71856 0.0
C1766 C 0.47218 0.89176 0.73123 0.0
C1767 C 0.46206 0.88734 0.76832 0.0
N1768 N 0.51175 0.89274 0.72305 0.0
N1769 N 0.48009 0.88666 0.7631 0.0
H1770 H 0.11 0.44847 0.7642 0.0
H1771 H 0.10134 0.55444 0.73059 0.0
H1772 H 0.09837 0.46378 0.70709 0.0
H1773 H 0.10625 0.53763 0.78825 0.0
H1774 H 0.10298 0.52166 0.72116 0.0
H1775 H 0.11148 0.48136 0.77257 0.0
C1776 C 0.10778 0.45873 0.75336 0.0
C1777 C 0.1039 0.45325 0.7349 0.0
C1778 C 0.10376 0.52518 0.73586 0.0
C1779 C 0.10559 0.49117 0.74451 0.0
C1780 C 0.10287 0.5439 0.74127 0.0
C1781 C 0.10355 0.54884 0.76028 0.0
C1782 C 0.10543 0.51128 0.74953 0.0
C1783 C 0.10553 0.53453 0.77345 0.0
C1784 C 0.10863 0.47756 0.75819 0.0
C1785 C 0.10132 0.4673 0.72151 0.0
N1786 N 0.10637 0.51644 0.76783 0.0
N1787 N 0.10214 0.48561 0.7266 0.0
H1788 H 0.4513 0.11151 0.73786 0.0
H1789 H 0.54449 0.07478 0.78521 0.0
H1790 H 0.45516 0.08064 0.78936 0.0
H1791 H 0.54619 0.11276 0.73857 0.0
H1792 H 0.5111 0.07336 0.78298 0.0
H1793 H 0.48526 0.10925 0.73435 0.0
C1794 C 0.45923 0.10415 0.74829 0.0
C1795 C 0.45042 0.09647 0.76406 0.0
C1796 C 0.51863 0.08203 0.77313 0.0
C1797 C 0.48891 0.09371 0.76007 0.0
C1798 C 0.53778 0.08285 0.77442 0.0
C1799 C 0.54813 0.09417 0.76227 0.0
C1800 C 0.50947 0.09281 0.75973 0.0
C1801 C 0.53866 0.10396 0.74829 0.0
C1802 C 0.47855 0.10292 0.74631 0.0
C1803 C 0.46131 0.08707 0.77714 0.0
N1804 N 0.51975 0.10327 0.74754 0.0
N1805 N 0.47985 0.08601 0.77486 0.0
H1806 H 0.89023 0.54461 0.75613 0.0
H1807 H 0.88487 0.45036 0.69622 0.0
H1808 H 0.88849 0.54179 0.69587 0.0
H1809 H 0.89265 0.45036 0.75606 0.0
H1810 H 0.88329 0.48406 0.69679 0.0
H1811 H 0.88848 0.51041 0.75721 0.0
C1812 C 0.88939 0.53685 0.74314 0.0
C1813 C 0.88963 0.54613 0.72586 0.0
C1814 C 0.88532 0.47677 0.70985 0.0
C1815 C 0.88758 0.5071 0.72706 0.0
C1816 C 0.88624 0.45743 0.70955 0.0
C1817 C 0.88912 0.44742 0.72612 0.0
C1818 C 0.88732 0.4864 0.72682 0.0
C1819 C 0.89052 0.45749 0.74294 0.0
C1820 C 0.88842 0.51734 0.74379 0.0
C1821 C 0.8885 0.53533 0.70952 0.0
N1822 N 0.88972 0.47649 0.74286 0.0
N1823 N 0.88756 0.51645 0.71054 0.0
H1824 H 0.28948 0.53217 0.10609 0.0
H1825 H 0.20778 0.45605 0.11161 0.0
H1826 H 0.23166 0.54595 0.11166 0.0
H1827 H 0.2657 0.44219 0.10765 0.0
H1828 H 0.21643 0.48902 0.1134 0.0
H1829 H 0.28118 0.49915 0.10838 0.0
C1830 C 0.27505 0.52829 0.10787 0.0
C1831 C 0.26125 0.54192 0.10852 0.0
C1832 C 0.22725 0.47876 0.11223 0.0
C1833 C 0.25165 0.50405 0.11111 0.0
C1834 C 0.22233 0.4599 0.11119 0.0
C1835 C 0.23602 0.44628 0.10932 0.0
C1836 C 0.24601 0.48409 0.11132 0.0
C1837 C 0.25465 0.45216 0.10899 0.0
C1838 C 0.27032 0.5094 0.10918 0.0
C1839 C 0.24279 0.53599 0.11095 0.0
N1840 N 0.25908 0.47063 0.10986 0.0
N1841 N 0.23853 0.5175 0.11205 0.0
H1842 H 0.28681 0.53219 0.8921 0.0
H1843 H 0.20416 0.45688 0.88933 0.0
H1844 H 0.22904 0.54658 0.88785 0.0
H1845 H 0.26201 0.44237 0.8916 0.0
H1846 H 0.21309 0.48976 0.88772 0.0
H1847 H 0.27805 0.49922 0.89082 0.0
C1848 C 0.27228 0.52846 0.89084 0.0
C1849 C 0.25864 0.54225 0.8902 0.0
C1850 C 0.22384 0.47939 0.88851 0.0
C1851 C 0.24852 0.50443 0.88877 0.0
C1852 C 0.21875 0.46057 0.88946 0.0
C1853 C 0.23234 0.44677 0.89072 0.0
C1854 C 0.24266 0.48452 0.88889 0.0
C1855 C 0.25103 0.45247 0.89071 0.0
C1856 C 0.2673 0.5096 0.8901 0.0
C1857 C 0.24005 0.53649 0.88847 0.0
N1858 N 0.25562 0.47091 0.8899 0.0
N1859 N 0.23555 0.51803 0.88791 0.0
H1860 H 0.45969 0.21409 0.88191 0.0
H1861 H 0.53796 0.29318 0.89316 0.0
H1862 H 0.44721 0.27196 0.89264 0.0
H1863 H 0.54885 0.23537 0.88035 0.0
H1864 H 0.50474 0.28628 0.89181 0.0
H1865 H 0.49236 0.22226 0.88011 0.0
C1866 C 0.46379 0.22857 0.88386 0.0
C1867 C 0.45061 0.24235 0.88757 0.0
C1868 C 0.51442 0.27515 0.8892 0.0
C1869 C 0.48828 0.25181 0.88552 0.0
C1870 C 0.53341 0.27907 0.88997 0.0
C1871 C 0.54629 0.26481 0.88698 0.0
C1872 C 0.50826 0.25686 0.88545 0.0
C1873 C 0.53952 0.24681 0.88286 0.0
C1874 C 0.48252 0.23322 0.88279 0.0
C1875 C 0.45686 0.26087 0.88979 0.0
N1876 N 0.521 0.24336 0.8823 0.0
N1877 N 0.47528 0.26505 0.88885 0.0
H1878 H 0.79234 0.53886 0.89272 0.0
H1879 H 0.71273 0.46038 0.89696 0.0
H1880 H 0.73405 0.55141 0.8957 0.0
H1881 H 0.77103 0.44851 0.89182 0.0
H1882 H 0.72012 0.49371 0.89631 0.0
H1883 H 0.78459 0.50572 0.8922 0.0
C1884 C 0.77788 0.53468 0.89326 0.0
C1885 C 0.76383 0.54803 0.89431 0.0
C1886 C 0.73128 0.4838 0.89529 0.0
C1887 C 0.75486 0.5099 0.89372 0.0
C1888 C 0.72709 0.46474 0.89567 0.0
C1889 C 0.74128 0.45154 0.8945 0.0
C1890 C 0.7498 0.48977 0.89377 0.0
C1891 C 0.75961 0.45811 0.89281 0.0
C1892 C 0.77348 0.5157 0.89294 0.0
C1893 C 0.74536 0.54167 0.8949 0.0
N1894 N 0.76333 0.47674 0.89253 0.0
N1895 N 0.74142 0.52305 0.89464 0.0
H1896 H 0.46479 0.70434 0.89202 0.0
H1897 H 0.54051 0.78629 0.88436 0.0
H1898 H 0.45188 0.76182 0.88002 0.0
H1899 H 0.55461 0.72834 0.89169 0.0
H1900 H 0.50798 0.77726 0.88222 0.0
H1901 H 0.49773 0.71252 0.89126 0.0
C1902 C 0.46884 0.71865 0.88911 0.0
C1903 C 0.45547 0.73242 0.88619 0.0
C1904 C 0.51818 0.76649 0.88423 0.0
C1905 C 0.4932 0.74186 0.88538 0.0
C1906 C 0.5368 0.77164 0.8855 0.0
C1907 C 0.55037 0.75807 0.8883 0.0
C1908 C 0.51298 0.74762 0.88586 0.0
C1909 C 0.54465 0.7393 0.88955 0.0
C1910 C 0.48767 0.7233 0.88869 0.0
C1911 C 0.46162 0.75071 0.88245 0.0
N1912 N 0.52637 0.73463 0.88841 0.0
N1913 N 0.48 0.7549 0.88225 0.0
H1914 H 0.7875 0.53743 0.10791 0.0
H1915 H 0.7063 0.46071 0.10093 0.0
H1916 H 0.72971 0.55136 0.10248 0.0
H1917 H 0.76389 0.44772 0.10988 0.0
H1918 H 0.71436 0.49394 0.10197 0.0
H1919 H 0.77884 0.5045 0.10911 0.0
C1920 C 0.77296 0.5336 0.107 0.0
C1921 C 0.75932 0.54726 0.10501 0.0
C1922 C 0.7252 0.4838 0.10377 0.0
C1923 C 0.74931 0.5094 0.10636 0.0
C1924 C 0.72062 0.4648 0.10317 0.0
C1925 C 0.73444 0.45132 0.10523 0.0
C1926 C 0.74374 0.48939 0.10639 0.0
C1927 C 0.75275 0.45753 0.10815 0.0
C1928 C 0.76803 0.51474 0.10771 0.0
C1929 C 0.74072 0.54136 0.104 0.0
N1930 N 0.75685 0.47608 0.10856 0.0
N1931 N 0.73627 0.52286 0.1046 0.0
H1932 H 0.54464 0.78377 0.13125 0.0
H1933 H 0.45118 0.73378 0.09656 0.0
H1934 H 0.54465 0.73504 0.09573 0.0
H1935 H 0.45464 0.78631 0.12608 0.0
H1936 H 0.48478 0.73013 0.1008 0.0
H1937 H 0.51127 0.78063 0.13462 0.0
C1938 C 0.53758 0.77226 0.12428 0.0
C1939 C 0.54735 0.75983 0.11293 0.0
C1940 C 0.47809 0.74231 0.10653 0.0
C1941 C 0.50893 0.75631 0.11645 0.0
C1942 C 0.45894 0.74437 0.10417 0.0
C1943 C 0.4502 0.76052 0.11072 0.0
C1944 C 0.48838 0.75641 0.11566 0.0
C1945 C 0.46086 0.7738 0.1205 0.0
C1946 C 0.51849 0.77047 0.12619 0.0
C1947 C 0.53756 0.74498 0.10452 0.0
N1948 N 0.47934 0.7715 0.12255 0.0
N1949 N 0.51877 0.7438 0.10617 0.0
H1950 H 0.54931 0.25824 0.09571 0.0
H1951 H 0.4538 0.21374 0.1318 0.0
H1952 H 0.54294 0.20446 0.12209 0.0
H1953 H 0.45563 0.26088 0.09448 0.0
H1954 H 0.48737 0.21501 0.13425 0.0
H1955 H 0.51601 0.2636 0.1003 0.0
C1956 C 0.54097 0.24769 0.10266 0.0
C1957 C 0.54882 0.23077 0.10831 0.0
C1958 C 0.4805 0.22523 0.12564 0.0
C1959 C 0.511 0.23687 0.11374 0.0
C1960 C 0.46132 0.22454 0.12428 0.0
C1961 C 0.45199 0.23703 0.11267 0.0
C1962 C 0.49058 0.23835 0.11512 0.0
C1963 C 0.46236 0.25094 0.10351 0.0
C1964 C 0.52201 0.25074 0.10523 0.0
C1965 C 0.53743 0.21757 0.11725 0.0
N1966 N 0.48122 0.25105 0.10466 0.0
N1967 N 0.51915 0.22089 0.11961 0.0
H1968 H 0.60514 0.7339 0.04374 0.0
H1969 H 0.62978 0.79198 0.95194 0.0
H1970 H 0.62377 0.79141 0.04282 0.0
H1971 H 0.60868 0.73536 0.95006 0.0
H1972 H 0.63257 0.78966 0.98566 0.0
H1973 H 0.61079 0.73197 0.00995 0.0
C1974 C 0.61059 0.74603 0.03649 0.0
C1975 C 0.61365 0.76294 0.04602 0.0
C1976 C 0.62747 0.77764 0.97793 0.0
C1977 C 0.62021 0.76081 0.00762 0.0
C1978 C 0.62587 0.77898 0.95864 0.0
C1979 C 0.61867 0.76396 0.94823 0.0
C1980 C 0.62157 0.76125 0.987 0.0
C1981 C 0.61416 0.74732 0.95761 0.0
C1982 C 0.61379 0.74492 0.01725 0.0
C1983 C 0.62083 0.77819 0.036 0.0
N1984 N 0.61539 0.7465 0.97656 0.0
N1985 N 0.62373 0.77678 0.01739 0.0
H1986 H 0.28825 0.62815 0.95253 0.0
H1987 H 0.23616 0.59657 0.04577 0.0
H1988 H 0.23672 0.59707 0.9516 0.0
H1989 H 0.28871 0.62579 0.04354 0.0
H1990 H 0.23292 0.60077 0.0118 0.0
H1991 H 0.2853 0.63191 0.98613 0.0
C1992 C 0.27618 0.62226 0.95943 0.0
C1993 C 0.26285 0.61206 0.94932 0.0
C1994 C 0.24501 0.60647 0.01885 0.0
C1995 C 0.25949 0.61599 0.98803 0.0
C1996 C 0.24683 0.60414 0.03821 0.0
C1997 C 0.26287 0.61057 0.0474 0.0
C1998 C 0.25929 0.61542 0.00878 0.0
C1999 C 0.27627 0.62029 0.03697 0.0
C2000 C 0.27449 0.6244 0.97865 0.0
C2001 C 0.24734 0.60498 0.95893 0.0
N2002 N 0.27423 0.62227 0.01828 0.0
N2003 N 0.24623 0.60679 0.97786 0.0
H2004 H 0.37477 0.20592 0.04296 0.0
H2005 H 0.39101 0.26507 0.95009 0.0
H2006 H 0.395 0.2629 0.04368 0.0
H2007 H 0.37293 0.20742 0.95177 0.0
H2008 H 0.38807 0.26661 0.98421 0.0
H2009 H 0.36958 0.2083 0.00958 0.0
C2010 C 0.3781 0.21899 0.03608 0.0
C2011 C 0.38567 0.23412 0.04607 0.0
C2012 C 0.38454 0.25372 0.97703 0.0
C2013 C 0.37982 0.23694 0.00763 0.0
C2014 C 0.38615 0.25285 0.95758 0.0
C2015 C 0.38254 0.23599 0.94813 0.0
C2016 C 0.3792 0.23764 0.98697 0.0
C2017 C 0.37622 0.22061 0.9585 0.0
C2018 C 0.37506 0.22037 0.01698 0.0
C2019 C 0.38931 0.25083 0.03646 0.0
N2020 N 0.37492 0.22177 0.97733 0.0
N2021 N 0.38659 0.25172 0.01767 0.0
H2022 H 0.71027 0.36296 0.04419 0.0
H2023 H 0.7656 0.39395 0.95281 0.0
H2024 H 0.7611 0.39516 0.04654 0.0
H2025 H 0.71351 0.36379 0.95319 0.0
H2026 H 0.76771 0.38986 0.98684 0.0
H2027 H 0.71485 0.35827 0.01088 0.0
C2028 C 0.72253 0.36891 0.03768 0.0
C2029 C 0.73517 0.37973 0.04806 0.0
C2030 C 0.75599 0.3839 0.97939 0.0
C2031 C 0.7404 0.37468 0.0097 0.0
C2032 C 0.75483 0.38614 0.95998 0.0
C2033 C 0.7392 0.37946 0.95024 0.0
C2034 C 0.74147 0.37482 0.98897 0.0
C2035 C 0.72564 0.36947 0.96019 0.0
C2036 C 0.72516 0.36622 0.01862 0.0
C2037 C 0.75097 0.38682 0.03898 0.0
N2038 N 0.72701 0.36762 0.97897 0.0
N2039 N 0.75299 0.38446 0.02019 0.0
H2040 H 0.61709 0.28711 0.95799 0.0
H2041 H 0.60503 0.20334 0.03079 0.0
H2042 H 0.60725 0.22985 0.94127 0.0
H2043 H 0.61702 0.2605 0.04649 0.0
H2044 H 0.6076 0.21222 -0.00208 0.0
H2045 H 0.61901 0.27706 0.99039 0.0
C2046 C 0.61543 0.27239 0.96109 0.0
C2047 C 0.61184 0.25935 0.94682 0.0
C2048 C 0.60977 0.22278 0.00858 0.0
C2049 C 0.61394 0.24772 0.98409 0.0
C2050 C 0.60831 0.21772 0.02738 0.0
C2051 C 0.61066 0.2312 0.04151 0.0
C2052 C 0.61357 0.24146 0.00385 0.0
C2053 C 0.61495 0.24961 0.03615 0.0
C2054 C 0.61654 0.26666 0.97964 0.0
C2055 C 0.60997 0.24044 0.95178 0.0
N2056 N 0.61616 0.25419 0.0178 0.0
N2057 N 0.61089 0.23522 0.97 0.0
H2058 H 0.79281 0.63133 0.04552 0.0
H2059 H 0.73805 0.61312 0.95045 0.0
H2060 H 0.73696 0.60919 0.04354 0.0
H2061 H 0.7957 0.62944 0.95439 0.0
H2062 H 0.73505 0.61768 0.98422 0.0
H2063 H 0.79152 0.63697 0.01211 0.0
C2064 C 0.78019 0.62777 0.03805 0.0
C2065 C 0.76511 0.61939 0.04724 0.0
C2066 C 0.74827 0.62049 0.97762 0.0
C2067 C 0.7636 0.62567 0.00883 0.0
C2068 C 0.75 0.61794 0.95835 0.0
C2069 C 0.76726 0.62055 0.94965 0.0
C2070 C 0.76389 0.62576 0.98816 0.0
C2071 C 0.78222 0.6269 0.96054 0.0
C2072 C 0.77945 0.63103 0.01895 0.0
C2073 C 0.74898 0.61548 0.03693 0.0
N2074 N 0.78022 0.6291 0.97923 0.0
N2075 N 0.74874 0.61837 0.01816 0.0
H2076 H 0.3953 0.76633 0.94091 0.0
H2077 H 0.38221 0.73114 0.04619 0.0
H2078 H 0.38396 0.70914 0.95657 0.0
H2079 H 0.39668 0.78809 0.03212 0.0
H2080 H 0.38005 0.72373 0.01308 0.0
H2081 H 0.39303 0.77541 0.97384 0.0
C2082 C 0.39217 0.75571 0.95121 0.0
C2083 C 0.39 0.73689 0.94593 0.0
C2084 C 0.38364 0.73787 0.01719 0.0
C2085 C 0.38743 0.74721 0.98362 0.0
C2086 C 0.3849 0.74214 0.03616 0.0
C2087 C 0.38981 0.76025 0.04203 0.0
C2088 C 0.38736 0.75177 0.00387 0.0
C2089 C 0.39293 0.77391 0.02828 0.0
C2090 C 0.39093 0.7609 0.97002 0.0
C2091 C 0.38594 0.72377 0.95993 0.0
N2092 N 0.39177 0.76936 0.00984 0.0
N2093 N 0.38489 0.72916 0.97808 0.0
H2094 H 0.26037 0.38741 0.04491 0.0
H2095 H 0.20127 0.36499 0.95328 0.0
H2096 H 0.20384 0.36703 0.04437 0.0
H2097 H 0.25714 0.38705 0.95137 0.0
H2098 H 0.20433 0.36079 0.98679 0.0
H2099 H 0.26171 0.38281 0.01095 0.0
C2100 C 0.24835 0.38175 0.03771 0.0
C2101 C 0.23185 0.37794 0.04741 0.0
C2102 C 0.21602 0.36641 0.97909 0.0
C2103 C 0.2333 0.37263 0.00877 0.0
C2104 C 0.21426 0.36883 0.95993 0.0
C2105 C 0.22885 0.3767 0.9496 0.0
C2106 C 0.23241 0.37215 0.98812 0.0
C2107 C 0.24549 0.38108 0.95888 0.0
C2108 C 0.24911 0.37916 0.01835 0.0
C2109 C 0.21673 0.37054 0.03742 0.0
N2110 N 0.24673 0.37903 0.97772 0.0
N2111 N 0.21778 0.36828 0.01868 0.0
H2112 H 0.04806 0.62091 0.73323 0.0
H2113 H 0.94295 0.60936 0.76665 0.0
H2114 H 0.03222 0.60765 0.78988 0.0
H2115 H 0.95933 0.6199 0.70959 0.0
H2116 H 0.97536 0.61206 0.77614 0.0
H2117 H 0.01547 0.62392 0.72511 0.0
C2118 C 0.03776 0.61872 0.74401 0.0
C2119 C 0.04295 0.61382 0.76224 0.0
C2120 C 0.97183 0.61391 0.76156 0.0
C2121 C 0.00549 0.61721 0.75297 0.0
C2122 C 0.95331 0.6124 0.75612 0.0
C2123 C 0.94837 0.6142 0.73724 0.0
C2124 C 0.98555 0.61725 0.74804 0.0
C2125 C 0.96244 0.61822 0.72428 0.0
C2126 C 0.01912 0.62045 0.73935 0.0
C2127 C 0.02892 0.61134 0.77562 0.0
N2128 N 0.98037 0.61948 0.7299 0.0
N2129 N 0.01083 0.61293 0.77068 0.0
H2130 H 0.38501 0.95145 0.73419 0.0
H2131 H 0.3674 0.04275 0.79546 0.0
H2132 H 0.37054 0.95154 0.79269 0.0
H2133 H 0.38547 0.04478 0.73802 0.0
H2134 H 0.363 0.00915 0.79258 0.0
H2135 H 0.38006 0.98527 0.73336 0.0
C2136 C 0.38055 0.95851 0.74677 0.0
C2137 C 0.37852 0.94871 0.76362 0.0
C2138 C 0.36776 0.01693 0.78052 0.0
C2139 C 0.37283 0.98726 0.76276 0.0
C2140 C 0.37028 0.03615 0.78216 0.0
C2141 C 0.37714 0.04657 0.76706 0.0
C2142 C 0.37233 0.00792 0.76372 0.0
C2143 C 0.38031 0.03727 0.75008 0.0
C2144 C 0.37777 0.97781 0.7463 0.0
C2145 C 0.37263 0.95855 0.77947 0.0
N2146 N 0.37816 0.0184 0.74895 0.0
N2147 N 0.37016 0.97725 0.77867 0.0
H2148 H 0.04342 0.39645 0.76017 0.0
H2149 H 0.95183 0.36029 0.70821 0.0
H2150 H 0.04202 0.36653 0.70781 0.0
H2151 H 0.95034 0.39456 0.75782 0.0
H2152 H 0.98514 0.35741 0.71182 0.0
H2153 H 0.00983 0.39117 0.76329 0.0
C2154 C 0.03611 0.3885 0.74953 0.0
C2155 C 0.04542 0.38219 0.73355 0.0
C2156 C 0.97758 0.36545 0.72206 0.0
C2157 C 0.00723 0.3761 0.73701 0.0
C2158 C 0.95853 0.36709 0.71999 0.0
C2159 C 0.94835 0.37796 0.73254 0.0
C2160 C 0.9867 0.37496 0.73665 0.0
C2161 C 0.95771 0.38616 0.74775 0.0
C2162 C 0.01697 0.38555 0.75127 0.0
C2163 C 0.03533 0.37195 0.72018 0.0
N2164 N 0.97646 0.38476 0.74922 0.0
N2165 N 0.01683 0.36937 0.72215 0.0
H2166 H 0.61073 0.94305 0.76578 0.0
H2167 H 0.62105 0.04818 0.72973 0.0
H2168 H 0.6163 0.95842 0.70774 0.0
H2169 H 0.61437 0.03339 0.78781 0.0
H2170 H 0.6231 0.01513 0.7219 0.0
H2171 H 0.61558 0.97576 0.77452 0.0
C2172 C 0.6131 0.95324 0.75487 0.0
C2173 C 0.61287 0.94795 0.73597 0.0
C2174 C 0.62134 0.01911 0.73639 0.0
C2175 C 0.61842 0.98545 0.7459 0.0
C2176 C 0.62019 0.03802 0.74089 0.0
C2177 C 0.61729 0.04364 0.75945 0.0
C2178 C 0.61949 0.00565 0.75051 0.0
C2179 C 0.61646 0.02976 0.77329 0.0
C2180 C 0.61587 0.97193 0.75988 0.0
C2181 C 0.61615 0.96181 0.72248 0.0
N2182 N 0.61736 0.01142 0.76851 0.0
N2183 N 0.61865 0.9799 0.7277 0.0
H2184 H 0.94129 0.39104 0.22871 0.0
H2185 H 0.04572 0.37453 0.26144 0.0
H2186 H 0.9579 0.38263 0.28601 0.0
H2187 H 0.03087 0.39035 0.20525 0.0
H2188 H 0.01304 0.37342 0.26964 0.0
H2189 H 0.97345 0.38699 0.219 0.0
C2190 C 0.95164 0.38822 0.23925 0.0
C2191 C 0.94687 0.38735 0.25825 0.0
C2192 C 0.01691 0.37705 0.25548 0.0
C2193 C 0.98369 0.38268 0.24718 0.0
C2194 C 0.03561 0.37767 0.25076 0.0
C2195 C 0.04114 0.38276 0.23265 0.0
C2196 C 0.00354 0.38156 0.24205 0.0
C2197 C 0.0273 0.38648 0.21941 0.0
C2198 C 0.97001 0.38594 0.23368 0.0
C2199 C 0.96091 0.38361 0.27123 0.0
N2200 N 0.00914 0.38593 0.22442 0.0
N2201 N 0.97866 0.38149 0.26547 0.0
H2202 H 0.60799 0.0378 0.29154 0.0
H2203 H 0.60211 0.96424 0.20743 0.0
H2204 H 0.60241 0.05388 0.23374 0.0
H2205 H 0.61191 0.9492 0.26496 0.0
H2206 H 0.60322 0.99718 0.21647 0.0
H2207 H 0.61044 0.00532 0.28176 0.0
C2208 C 0.60733 0.03454 0.27678 0.0
C2209 C 0.60487 0.04865 0.26347 0.0
C2210 C 0.60522 0.98665 0.22708 0.0
C2211 C 0.60762 0.01133 0.25214 0.0
C2212 C 0.60459 0.96782 0.22193 0.0
C2213 C 0.60678 0.95384 0.23546 0.0
C2214 C 0.608 0.99157 0.24589 0.0
C2215 C 0.61002 0.95941 0.25403 0.0
C2216 C 0.60876 0.01595 0.27119 0.0
C2217 C 0.60425 0.0435 0.24451 0.0
N2218 N 0.61042 0.97779 0.25868 0.0
N2219 N 0.6055 0.02526 0.23943 0.0
H2220 H 0.0541 0.60354 0.22801 0.0
H2221 H 0.94996 0.61925 0.26217 0.0
H2222 H 0.03822 0.61133 0.28563 0.0
H2223 H 0.96433 0.6049 0.20539 0.0
H2224 H 0.98275 0.62019 0.27014 0.0
H2225 H 0.0218 0.60759 0.21874 0.0
C2226 C 0.04388 0.60622 0.23871 0.0
C2227 C 0.0489 0.60693 0.25766 0.0
C2228 C 0.97875 0.61692 0.2559 0.0
C2229 C 0.01191 0.61159 0.24711 0.0
C2230 C 0.95999 0.6164 0.25131 0.0
C2231 C 0.95429 0.61178 0.23309 0.0
C2232 C 0.992 0.61278 0.24223 0.0
C2233 C 0.96802 0.60841 0.21964 0.0
C2234 C 0.02543 0.6085 0.2334 0.0
C2235 C 0.03502 0.61049 0.27088 0.0
N2236 N 0.98622 0.60885 0.22451 0.0
N2237 N 0.01718 0.61261 0.26536 0.0
H2238 H 0.38921 0.04439 0.25714 0.0
H2239 H 0.37966 0.94851 0.20045 0.0
H2240 H 0.3827 0.03972 0.19734 0.0
H2241 H 0.39467 0.95034 0.25885 0.0
H2242 H 0.3763 0.98208 0.20068 0.0
H2243 H 0.38708 0.01025 0.25945 0.0
C2244 C 0.38716 0.03624 0.24454 0.0
C2245 C 0.38632 0.04493 0.22698 0.0
C2246 C 0.38029 0.97522 0.2135 0.0
C2247 C 0.38384 0.00602 0.22957 0.0
C2248 C 0.38225 0.95598 0.21339 0.0
C2249 C 0.38777 0.94657 0.2296 0.0
C2250 C 0.38395 0.98535 0.22991 0.0
C2251 C 0.39052 0.95705 0.246 0.0
C2252 C 0.386 0.01677 0.24588 0.0
C2253 C 0.38364 0.03367 0.21114 0.0
N2254 N 0.38877 0.97597 0.24571 0.0
N2255 N 0.38257 0.01486 0.21282 0.0
H2256 H 0.73128 0.0458 0.61656 0.0
H2257 H 0.76753 0.94083 0.6163 0.0
H2258 H 0.78901 0.03106 0.61283 0.0
H2259 H 0.70976 0.95536 0.62001 0.0
H2260 H 0.77581 0.9739 0.61815 0.0
H2261 H 0.72331 0.01285 0.62069 0.0
C2262 C 0.74231 0.03568 0.61669 0.0
C2263 C 0.76085 0.04125 0.61415 0.0
C2264 C 0.76133 0.96984 0.6187 0.0
C2265 C 0.75177 0.00346 0.61888 0.0
C2266 C 0.75658 0.95093 0.61767 0.0
C2267 C 0.7379 0.94526 0.61776 0.0
C2268 C 0.74732 0.98322 0.61976 0.0
C2269 C 0.72434 0.95904 0.61972 0.0
C2270 C 0.73773 0.01685 0.61908 0.0
C2271 C 0.77451 0.02747 0.61459 0.0
N2272 N 0.72932 0.97737 0.62046 0.0
N2273 N 0.76968 0.00922 0.61678 0.0
H2274 H 0.73062 0.04485 0.3819 0.0
H2275 H 0.76504 0.93932 0.38588 0.0
H2276 H 0.7879 0.0296 0.38891 0.0
H2277 H 0.70789 0.95494 0.37865 0.0
H2278 H 0.77407 0.97223 0.38419 0.0
H2279 H 0.72244 0.01194 0.37811 0.0
C2280 C 0.74151 0.03461 0.3826 0.0
C2281 C 0.75997 0.04005 0.38593 0.0
C2282 C 0.75957 0.96843 0.38284 0.0
C2283 C 0.75065 0.00224 0.38158 0.0
C2284 C 0.75439 0.94962 0.38377 0.0
C2285 C 0.73563 0.94431 0.38264 0.0
C2286 C 0.74591 0.98206 0.38079 0.0
C2287 C 0.7225 0.95833 0.37979 0.0
C2288 C 0.73681 0.01579 0.38039 0.0
C2289 C 0.77347 0.0261 0.3865 0.0
N2290 N 0.72787 0.97654 0.37912 0.0
N2291 N 0.76852 0.00784 0.38448 0.0
H2292 H 0.94319 0.76965 0.38885 0.0
H2293 H 0.04677 0.73524 0.37219 0.0
H2294 H 0.95767 0.71336 0.37337 0.0
H2295 H 0.03334 0.79153 0.38868 0.0
H2296 H 0.01384 0.72809 0.36923 0.0
H2297 H 0.97572 0.77901 0.38545 0.0
C2298 C 0.95314 0.7593 0.38455 0.0
C2299 C 0.94769 0.74062 0.38164 0.0
C2300 C 0.01808 0.74205 0.37338 0.0
C2301 C 0.98493 0.75124 0.37781 0.0
C2302 C 0.03692 0.74615 0.3751 0.0
C2303 C 0.04289 0.76397 0.38092 0.0
C2304 C 0.00502 0.7558 0.3776 0.0
C2305 C 0.02941 0.77756 0.38428 0.0
C2306 C 0.97172 0.76465 0.38265 0.0
C2307 C 0.96122 0.72786 0.37602 0.0
N2308 N 0.01111 0.77315 0.38273 0.0
N2309 N 0.97918 0.73338 0.37443 0.0
H2310 H 0.29006 0.03922 0.37385 0.0
H2311 H 0.20851 0.96311 0.38009 0.0
H2312 H 0.23258 0.05291 0.38239 0.0
H2313 H 0.26663 0.9496 0.37817 0.0
H2314 H 0.21668 0.99603 0.3764 0.0
H2315 H 0.2812 0.00643 0.37073 0.0
C2316 C 0.27555 0.03539 0.37494 0.0
C2317 C 0.26208 0.04887 0.37868 0.0
C2318 C 0.22763 0.98584 0.37668 0.0
C2319 C 0.25187 0.01124 0.37515 0.0
C2320 C 0.22299 0.96701 0.37878 0.0
C2321 C 0.23692 0.95353 0.3797 0.0
C2322 C 0.24633 0.99127 0.37547 0.0
C2323 C 0.25542 0.95948 0.37776 0.0
C2324 C 0.27051 0.01662 0.37317 0.0
C2325 C 0.24348 0.04301 0.37972 0.0
N2326 N 0.25958 0.97791 0.37586 0.0
N2327 N 0.23894 0.02461 0.37813 0.0
H2328 H 0.04021 0.28341 0.37828 0.0
H2329 H 0.96351 0.20279 0.3894 0.0
H2330 H 0.0534 0.22604 0.3904 0.0
H2331 H 0.95115 0.26051 0.37796 0.0
H2332 H 0.99652 0.21039 0.38751 0.0
H2333 H 0.00767 0.27457 0.37575 0.0
C2334 C 0.0363 0.26891 0.38036 0.0
C2335 C 0.04961 0.25548 0.38476 0.0
C2336 C 0.98657 0.22135 0.38531 0.0
C2337 C 0.01218 0.24526 0.3819 0.0
C2338 C 0.96769 0.21704 0.38638 0.0
C2339 C 0.95446 0.23106 0.38399 0.0
C2340 C 0.99229 0.23982 0.38184 0.0
C2341 C 0.96079 0.24924 0.38005 0.0
C2342 C 0.01767 0.26387 0.37889 0.0
C2343 C 0.04365 0.23689 0.38707 0.0
N2344 N 0.97922 0.25309 0.3792 0.0
N2345 N 0.02534 0.23235 0.38575 0.0
H2346 H 0.2891 0.03747 0.62161 0.0
H2347 H 0.20573 0.96331 0.61576 0.0
H2348 H 0.23183 0.05255 0.61421 0.0
H2349 H 0.26348 0.94844 0.6182 0.0
H2350 H 0.21464 0.99605 0.61982 0.0
H2351 H 0.27948 0.00493 0.62503 0.0
C2352 C 0.27448 0.034 0.62084 0.0
C2353 C 0.26128 0.0478 0.61733 0.0
C2354 C 0.22534 0.9856 0.61961 0.0
C2355 C 0.25019 0.01045 0.6212 0.0
C2356 C 0.22027 0.96687 0.61731 0.0
C2357 C 0.23388 0.95306 0.61635 0.0
C2358 C 0.24416 0.99059 0.62096 0.0
C2359 C 0.25249 0.95857 0.6186 0.0
C2360 C 0.269 0.01537 0.6228 0.0
C2361 C 0.24252 0.0424 0.6167 0.0
N2362 N 0.25708 0.97691 0.62064 0.0
N2363 N 0.23756 0.02413 0.61844 0.0
H2364 H 0.9582 0.29197 0.59149 0.0
H2365 H 0.04921 0.23238 0.60162 0.0
H2366 H 0.95267 0.23416 0.6079 0.0
H2367 H 0.04518 0.2916 0.61226 0.0
H2368 H 0.01498 0.23044 0.6005 0.0
H2369 H 0.99135 0.28969 0.59391 0.0
C2370 C 0.96391 0.27873 0.59574 0.0
C2371 C 0.95243 0.26332 0.59984 0.0
C2372 C 0.02176 0.24374 0.60324 0.0
C2373 C 0.99101 0.26067 0.60268 0.0
C2374 C 0.04124 0.24487 0.6039 0.0
C2375 C 0.05019 0.26224 0.60672 0.0
C2376 C 0.01139 0.26011 0.60521 0.0
C2377 C 0.03911 0.27794 0.60969 0.0
C2378 C 0.98297 0.27747 0.59713 0.0
C2379 C 0.96096 0.24645 0.60479 0.0
N2380 N 0.02046 0.2765 0.60865 0.0
N2381 N 0.97984 0.24556 0.60615 0.0
H2382 H 0.04679 0.76101 0.60115 0.0
H2383 H 0.95368 0.7142 0.64038 0.0
H2384 H 0.04277 0.70698 0.62746 0.0
H2385 H 0.95373 0.76238 0.60435 0.0
H2386 H 0.98731 0.71614 0.64207 0.0
H2387 H 0.01381 0.76589 0.60788 0.0
C2388 C 0.03905 0.75031 0.60856 0.0
C2389 C 0.04743 0.73343 0.6135 0.0
C2390 C 0.98001 0.72646 0.63395 0.0
C2391 C 0.00995 0.73898 0.62134 0.0
C2392 C 0.96078 0.72538 0.63303 0.0
C2393 C 0.95093 0.73794 0.62192 0.0
C2394 C 0.98956 0.74005 0.62353 0.0
C2395 C 0.96083 0.75234 0.61297 0.0
C2396 C 0.02026 0.75309 0.61235 0.0
C2397 C 0.0368 0.72006 0.6231 0.0
N2398 N 0.97968 0.75282 0.61368 0.0
N2399 N 0.01864 0.72309 0.6266 0.0
loop_
_geom_bond_atom_site_label_1
_geom_bond_atom_site_label_2
_geom_bond_distance
_geom_bond_site_symmetry_2
_ccdc_geom_bond_type
Co0 O1 2.216 . S
Co0 O2 2.091 . S
Co0 O4 2.004 . S
Co0 O10 2.021 . S
Co0 O12 2.137 . S
Co0 O13 2.244 . S
O1 Co0 2.216 . S
O1 C8 1.247 . S
O2 Co0 2.091 . S
O2 C8 1.261 . S
C3 O12 1.247 . S
C3 O13 1.272 . S
O4 Co0 2.004 . S
O4 C9 1.259 . S
Co5 O6 2.061 . S
Co5 O11 2.052 . S
Co5 O13 2.135 . S
O6 Co5 2.061 . S
O6 C9 1.235 . S
C7 O10 1.238 . S
C7 O11 1.241 . S
C8 O1 1.247 . S
C8 O2 1.261 . S
C9 O4 1.259 . S
C9 O6 1.235 . S
O10 Co0 2.021 . S
O10 C7 1.238 . S
O11 Co5 2.052 . S
O11 C7 1.241 . S
O12 Co0 2.137 . S
O12 C3 1.247 . S
O13 Co0 2.244 . S
O13 C3 1.272 . S
O13 Co5 2.135 . S
Co14 O15 2.216 . S
Co14 O16 2.091 . S
Co14 O18 2.004 . S
Co14 O24 2.021 . S
Co14 O26 2.137 . S
Co14 O27 2.244 . S
O15 Co14 2.216 . S
O15 C22 1.247 . S
O16 Co14 2.091 . S
O16 C22 1.261 . S
C17 O26 1.247 . S
C17 O27 1.272 . S
O18 Co14 2.004 . S
O18 C23 1.259 . S
Co19 O20 2.061 . S
Co19 O25 2.052 . S
Co19 O27 2.135 . S
O20 Co19 2.061 . S
O20 C23 1.235 . S
C21 O24 1.238 . S
C21 O25 1.241 . S
C22 O15 1.247 . S
C22 O16 1.261 . S
C23 O18 1.259 . S
C23 O20 1.235 . S
O24 Co14 2.021 . S
O24 C21 1.238 . S
O25 Co19 2.052 . S
O25 C21 1.241 . S
O26 Co14 2.137 . S
O26 C17 1.247 . S
O27 Co14 2.244 . S
O27 C17 1.272 . S
O27 Co19 2.135 . S
Co28 O29 2.216 . S
Co28 O30 2.091 . S
Co28 O32 2.004 . S
Co28 O38 2.021 . S
Co28 O40 2.137 . S
Co28 O41 2.244 . S
O29 Co28 2.216 . S
O29 C36 1.247 . S
O30 Co28 2.091 . S
O30 C36 1.261 . S
C31 O40 1.247 . S
C31 O41 1.272 . S
O32 Co28 2.004 . S
O32 C37 1.259 . S
Co33 O34 2.061 . S
Co33 O39 2.052 . S
Co33 O41 2.135 . S
O34 Co33 2.061 . S
O34 C37 1.235 . S
C35 O38 1.238 . S
C35 O39 1.241 . S
C36 O29 1.247 . S
C36 O30 1.261 . S
C37 O32 1.259 . S
C37 O34 1.235 . S
O38 Co28 2.021 . S
O38 C35 1.238 . S
O39 Co33 2.052 . S
O39 C35 1.241 . S
O40 Co28 2.137 . S
O40 C31 1.247 . S
O41 Co28 2.244 . S
O41 C31 1.272 . S
O41 Co33 2.135 . S
Co42 O43 2.216 . S
Co42 O44 2.091 . S
Co42 O46 2.004 . S
Co42 O52 2.021 . S
Co42 O54 2.137 . S
Co42 O55 2.244 . S
O43 Co42 2.216 . S
O43 C50 1.247 . S
O44 Co42 2.091 . S
O44 C50 1.261 . S
C45 O54 1.247 . S
C45 O55 1.272 . S
O46 Co42 2.004 . S
O46 C51 1.259 . S
Co47 O48 2.061 . S
Co47 O53 2.052 . S
Co47 O55 2.135 . S
O48 Co47 2.061 . S
O48 C51 1.235 . S
C49 O52 1.238 . S
C49 O53 1.241 . S
C50 O43 1.247 . S
C50 O44 1.261 . S
C51 O46 1.259 . S
C51 O48 1.235 . S
O52 Co42 2.021 . S
O52 C49 1.238 . S
O53 Co47 2.052 . S
O53 C49 1.241 . S
O54 Co42 2.137 . S
O54 C45 1.247 . S
O55 Co42 2.244 . S
O55 C45 1.272 . S
O55 Co47 2.135 . S
Co56 O57 2.216 . S
Co56 O58 2.091 . S
Co56 O60 2.004 . S
Co56 O66 2.021 . S
Co56 O68 2.137 . S
Co56 O69 2.244 . S
O57 Co56 2.216 . S
O57 C64 1.247 . S
O58 Co56 2.091 . S
O58 C64 1.261 . S
C59 O68 1.247 . S
C59 O69 1.272 . S
O60 Co56 2.004 . S
O60 C65 1.259 . S
Co61 O62 2.061 . S
Co61 O67 2.052 . S
Co61 O69 2.135 . S
O62 Co61 2.061 . S
O62 C65 1.235 . S
C63 O66 1.238 . S
C63 O67 1.241 . S
C64 O57 1.247 . S
C64 O58 1.261 . S
C65 O60 1.259 . S
C65 O62 1.235 . S
O66 Co56 2.021 . S
O66 C63 1.238 . S
O67 Co61 2.052 . S
O67 C63 1.241 . S
O68 Co56 2.137 . S
O68 C59 1.247 . S
O69 Co56 2.244 . S
O69 C59 1.272 . S
O69 Co61 2.135 . S
Co70 O71 2.216 . S
Co70 O72 2.091 . S
Co70 O74 2.004 . S
Co70 O80 2.021 . S
Co70 O82 2.137 . S
Co70 O83 2.244 . S
O71 Co70 2.216 . S
O71 C78 1.247 . S
O72 Co70 2.091 . S
O72 C78 1.261 . S
C73 O82 1.247 . S
C73 O83 1.272 . S
O74 Co70 2.004 . S
O74 C79 1.259 . S
Co75 O76 2.061 . S
Co75 O81 2.052 . S
Co75 O83 2.135 . S
O76 Co75 2.061 . S
O76 C79 1.235 . S
C77 O80 1.238 . S
C77 O81 1.241 . S
C78 O71 1.247 . S
C78 O72 1.261 . S
C79 O74 1.259 . S
C79 O76 1.235 . S
O80 Co70 2.021 . S
O80 C77 1.238 . S
O81 Co75 2.052 . S
O81 C77 1.241 . S
O82 Co70 2.137 . S
O82 C73 1.247 . S
O83 Co70 2.244 . S
O83 C73 1.272 . S
O83 Co75 2.135 . S
Co84 O85 2.216 . S
Co84 O86 2.091 . S
Co84 O88 2.004 . S
Co84 O94 2.021 . S
Co84 O96 2.137 . S
Co84 O97 2.244 . S
O85 Co84 2.216 . S
O85 C92 1.247 . S
O86 Co84 2.091 . S
O86 C92 1.261 . S
C87 O96 1.247 . S
C87 O97 1.272 . S
O88 Co84 2.004 . S
O88 C93 1.259 . S
Co89 O90 2.061 . S
Co89 O95 2.052 . S
Co89 O97 2.135 . S
O90 Co89 2.061 . S
O90 C93 1.235 . S
C91 O94 1.238 . S
C91 O95 1.241 . S
C92 O85 1.247 . S
C92 O86 1.261 . S
C93 O88 1.259 . S
C93 O90 1.235 . S
O94 Co84 2.021 . S
O94 C91 1.238 . S
O95 Co89 2.052 . S
O95 C91 1.241 . S
O96 Co84 2.137 . S
O96 C87 1.247 . S
O97 Co84 2.244 . S
O97 C87 1.272 . S
O97 Co89 2.135 . S
Co98 O99 2.216 . S
Co98 O100 2.091 . S
Co98 O102 2.004 . S
Co98 O108 2.021 . S
Co98 O110 2.137 . S
Co98 O111 2.244 . S
O99 Co98 2.216 . S
O99 C106 1.247 . S
O100 Co98 2.091 . S
O100 C106 1.261 . S
C101 O110 1.247 . S
C101 O111 1.272 . S
O102 Co98 2.004 . S
O102 C107 1.259 . S
Co103 O104 2.061 . S
Co103 O109 2.052 . S
Co103 O111 2.135 . S
O104 Co103 2.061 . S
O104 C107 1.235 . S
C105 O108 1.238 . S
C105 O109 1.241 . S
C106 O99 1.247 . S
C106 O100 1.261 . S
C107 O102 1.259 . S
C107 O104 1.235 . S
O108 Co98 2.021 . S
O108 C105 1.238 . S
O109 Co103 2.052 . S
O109 C105 1.241 . S
O110 Co98 2.137 . S
O110 C101 1.247 . S
O111 Co98 2.244 . S
O111 C101 1.272 . S
O111 Co103 2.135 . S
Co112 O113 2.216 . S
Co112 O114 2.091 . S
Co112 O116 2.004 . S
Co112 O122 2.021 . S
Co112 O124 2.137 . S
Co112 O125 2.244 . S
O113 Co112 2.216 . S
O113 C120 1.247 . S
O114 Co112 2.091 . S
O114 C120 1.261 . S
C115 O124 1.247 . S
C115 O125 1.272 . S
O116 Co112 2.004 . S
O116 C121 1.259 . S
Co117 O118 2.061 . S
Co117 O123 2.052 . S
Co117 O125 2.135 . S
O118 Co117 2.061 . S
O118 C121 1.235 . S
C119 O122 1.238 . S
C119 O123 1.241 . S
C120 O113 1.247 . S
C120 O114 1.261 . S
C121 O116 1.259 . S
C121 O118 1.235 . S
O122 Co112 2.021 . S
O122 C119 1.238 . S
O123 Co117 2.052 . S
O123 C119 1.241 . S
O124 Co112 2.137 . S
O124 C115 1.247 . S
O125 Co112 2.244 . S
O125 C115 1.272 . S
O125 Co117 2.135 . S
Co126 O127 2.216 . S
Co126 O128 2.091 . S
Co126 O130 2.004 . S
Co126 O136 2.021 . S
Co126 O138 2.137 . S
Co126 O139 2.244 . S
O127 Co126 2.216 . S
O127 C134 1.247 . S
O128 Co126 2.091 . S
O128 C134 1.261 . S
C129 O138 1.247 . S
C129 O139 1.272 . S
O130 Co126 2.004 . S
O130 C135 1.259 . S
Co131 O132 2.061 . S
Co131 O137 2.052 . S
Co131 O139 2.135 . S
O132 Co131 2.061 . S
O132 C135 1.235 . S
C133 O136 1.238 . S
C133 O137 1.241 . S
C134 O127 1.247 . S
C134 O128 1.261 . S
C135 O130 1.259 . S
C135 O132 1.235 . S
O136 Co126 2.021 . S
O136 C133 1.238 . S
O137 Co131 2.052 . S
O137 C133 1.241 . S
O138 Co126 2.137 . S
O138 C129 1.247 . S
O139 Co126 2.244 . S
O139 C129 1.272 . S
O139 Co131 2.135 . S
Co140 O141 2.216 . S
Co140 O142 2.091 . S
Co140 O144 2.004 . S
Co140 O150 2.021 . S
Co140 O152 2.137 . S
Co140 O153 2.244 . S
O141 Co140 2.216 . S
O141 C148 1.247 . S
O142 Co140 2.091 . S
O142 C148 1.261 . S
C143 O152 1.247 . S
C143 O153 1.272 . S
O144 Co140 2.004 . S
O144 C149 1.259 . S
Co145 O146 2.061 . S
Co145 O151 2.052 . S
Co145 O153 2.135 . S
O146 Co145 2.061 . S
O146 C149 1.235 . S
C147 O150 1.238 . S
C147 O151 1.241 . S
C148 O141 1.247 . S
C148 O142 1.261 . S
C149 O144 1.259 . S
C149 O146 1.235 . S
O150 Co140 2.021 . S
O150 C147 1.238 . S
O151 Co145 2.052 . S
O151 C147 1.241 . S
O152 Co140 2.137 . S
O152 C143 1.247 . S
O153 Co140 2.244 . S
O153 C143 1.272 . S
O153 Co145 2.135 . S
Co154 O155 2.216 . S
Co154 O156 2.091 . S
Co154 O158 2.004 . S
Co154 O164 2.021 . S
Co154 O166 2.137 . S
Co154 O167 2.244 . S
O155 Co154 2.216 . S
O155 C162 1.247 . S
O156 Co154 2.091 . S
O156 C162 1.261 . S
C157 O166 1.247 . S
C157 O167 1.272 . S
O158 Co154 2.004 . S
O158 C163 1.259 . S
Co159 O160 2.061 . S
Co159 O165 2.052 . S
Co159 O167 2.135 . S
O160 Co159 2.061 . S
O160 C163 1.235 . S
C161 O164 1.238 . S
C161 O165 1.241 . S
C162 O155 1.247 . S
C162 O156 1.261 . S
C163 O158 1.259 . S
C163 O160 1.235 . S
O164 Co154 2.021 . S
O164 C161 1.238 . S
O165 Co159 2.052 . S
O165 C161 1.241 . S
O166 Co154 2.137 . S
O166 C157 1.247 . S
O167 Co154 2.244 . S
O167 C157 1.272 . S
O167 Co159 2.135 . S
Co168 O169 2.216 . S
Co168 O170 2.091 . S
Co168 O172 2.004 . S
Co168 O178 2.021 . S
Co168 O180 2.137 . S
Co168 O181 2.244 . S
O169 Co168 2.216 . S
O169 C176 1.247 . S
O170 Co168 2.091 . S
O170 C176 1.261 . S
C171 O180 1.247 . S
C171 O181 1.272 . S
O172 Co168 2.004 . S
O172 C177 1.259 . S
Co173 O174 2.061 . S
Co173 O179 2.052 . S
Co173 O181 2.135 . S
O174 Co173 2.061 . S
O174 C177 1.235 . S
C175 O178 1.238 . S
C175 O179 1.241 . S
C176 O169 1.247 . S
C176 O170 1.261 . S
C177 O172 1.259 . S
C177 O174 1.235 . S
O178 Co168 2.021 . S
O178 C175 1.238 . S
O179 Co173 2.052 . S
O179 C175 1.241 . S
O180 Co168 2.137 . S
O180 C171 1.247 . S
O181 Co168 2.244 . S
O181 C171 1.272 . S
O181 Co173 2.135 . S
Co182 O183 2.216 . S
Co182 O184 2.091 . S
Co182 O186 2.004 . S
Co182 O192 2.021 . S
Co182 O194 2.137 . S
Co182 O195 2.244 . S
O183 Co182 2.216 . S
O183 C190 1.247 . S
O184 Co182 2.091 . S
O184 C190 1.261 . S
C185 O194 1.247 . S
C185 O195 1.272 . S
O186 Co182 2.004 . S
O186 C191 1.259 . S
Co187 O188 2.061 . S
Co187 O193 2.052 . S
Co187 O195 2.135 . S
O188 Co187 2.061 . S
O188 C191 1.235 . S
C189 O192 1.238 . S
C189 O193 1.241 . S
C190 O183 1.247 . S
C190 O184 1.261 . S
C191 O186 1.259 . S
C191 O188 1.235 . S
O192 Co182 2.021 . S
O192 C189 1.238 . S
O193 Co187 2.052 . S
O193 C189 1.241 . S
O194 Co182 2.137 . S
O194 C185 1.247 . S
O195 Co182 2.244 . S
O195 C185 1.272 . S
O195 Co187 2.135 . S
Co196 O197 2.216 . S
Co196 O198 2.091 . S
Co196 O200 2.004 . S
Co196 O206 2.021 . S
Co196 O208 2.137 . S
Co196 O209 2.244 . S
O197 Co196 2.216 . S
O197 C204 1.247 . S
O198 Co196 2.091 . S
O198 C204 1.261 . S
C199 O208 1.247 . S
C199 O209 1.272 . S
O200 Co196 2.004 . S
O200 C205 1.259 . S
Co201 O202 2.061 . S
Co201 O207 2.052 . S
Co201 O209 2.135 . S
O202 Co201 2.061 . S
O202 C205 1.235 . S
C203 O206 1.238 . S
C203 O207 1.241 . S
C204 O197 1.247 . S
C204 O198 1.261 . S
C205 O200 1.259 . S
C205 O202 1.235 . S
O206 Co196 2.021 . S
O206 C203 1.238 . S
O207 Co201 2.052 . S
O207 C203 1.241 . S
O208 Co196 2.137 . S
O208 C199 1.247 . S
O209 Co196 2.244 . S
O209 C199 1.272 . S
O209 Co201 2.135 . S
Co210 O211 2.216 . S
Co210 O212 2.091 . S
Co210 O214 2.004 . S
Co210 O220 2.021 . S
Co210 O222 2.137 . S
Co210 O223 2.244 . S
O211 Co210 2.216 . S
O211 C218 1.247 . S
O212 Co210 2.091 . S
O212 C218 1.261 . S
C213 O222 1.247 . S
C213 O223 1.272 . S
O214 Co210 2.004 . S
O214 C219 1.259 . S
Co215 O216 2.061 . S
Co215 O221 2.052 . S
Co215 O223 2.135 . S
O216 Co215 2.061 . S
O216 C219 1.235 . S
C217 O220 1.238 . S
C217 O221 1.241 . S
C218 O211 1.247 . S
C218 O212 1.261 . S
C219 O214 1.259 . S
C219 O216 1.235 . S
O220 Co210 2.021 . S
O220 C217 1.238 . S
O221 Co215 2.052 . S
O221 C217 1.241 . S
O222 Co210 2.137 . S
O222 C213 1.247 . S
O223 Co210 2.244 . S
O223 C213 1.272 . S
O223 Co215 2.135 . S
Co224 O225 2.216 . S
Co224 O226 2.091 . S
Co224 O228 2.004 . S
Co224 O234 2.021 . S
Co224 O236 2.137 . S
Co224 O237 2.244 . S
O225 Co224 2.216 . S
O225 C232 1.247 . S
O226 Co224 2.091 . S
O226 C232 1.261 . S
C227 O236 1.247 . S
C227 O237 1.272 . S
O228 Co224 2.004 . S
O228 C233 1.259 . S
Co229 O230 2.061 . S
Co229 O235 2.052 . S
Co229 O237 2.135 . S
O230 Co229 2.061 . S
O230 C233 1.235 . S
C231 O234 1.238 . S
C231 O235 1.241 . S
C232 O225 1.247 . S
C232 O226 1.261 . S
C233 O228 1.259 . S
C233 O230 1.235 . S
O234 Co224 2.021 . S
O234 C231 1.238 . S
O235 Co229 2.052 . S
O235 C231 1.241 . S
O236 Co224 2.137 . S
O236 C227 1.247 . S
O237 Co224 2.244 . S
O237 C227 1.272 . S
O237 Co229 2.135 . S
Co238 O239 2.216 . S
Co238 O240 2.091 . S
Co238 O242 2.004 . S
Co238 O248 2.021 . S
Co238 O250 2.137 . S
Co238 O251 2.244 . S
O239 Co238 2.216 . S
O239 C246 1.247 . S
O240 Co238 2.091 . S
O240 C246 1.261 . S
C241 O250 1.247 . S
C241 O251 1.272 . S
O242 Co238 2.004 . S
O242 C247 1.259 . S
Co243 O244 2.061 . S
Co243 O249 2.052 . S
Co243 O251 2.135 . S
O244 Co243 2.061 . S
O244 C247 1.235 . S
C245 O248 1.238 . S
C245 O249 1.241 . S
C246 O239 1.247 . S
C246 O240 1.261 . S
C247 O242 1.259 . S
C247 O244 1.235 . S
O248 Co238 2.021 . S
O248 C245 1.238 . S
O249 Co243 2.052 . S
O249 C245 1.241 . S
O250 Co238 2.137 . S
O250 C241 1.247 . S
O251 Co238 2.244 . S
O251 C241 1.272 . S
O251 Co243 2.135 . S
Co252 O253 2.216 . S
Co252 O254 2.091 . S
Co252 O256 2.004 . S
Co252 O262 2.021 . S
Co252 O264 2.137 . S
Co252 O265 2.244 . S
O253 Co252 2.216 . S
O253 C260 1.247 . S
O254 Co252 2.091 . S
O254 C260 1.261 . S
C255 O264 1.247 . S
C255 O265 1.272 . S
O256 Co252 2.004 . S
O256 C261 1.259 . S
Co257 O258 2.061 . S
Co257 O263 2.052 . S
Co257 O265 2.135 . S
O258 Co257 2.061 . S
O258 C261 1.235 . S
C259 O262 1.238 . S
C259 O263 1.241 . S
C260 O253 1.247 . S
C260 O254 1.261 . S
C261 O256 1.259 . S
C261 O258 1.235 . S
O262 Co252 2.021 . S
O262 C259 1.238 . S
O263 Co257 2.052 . S
O263 C259 1.241 . S
O264 Co252 2.137 . S
O264 C255 1.247 . S
O265 Co252 2.244 . S
O265 C255 1.272 . S
O265 Co257 2.135 . S
Co266 O267 2.216 . S
Co266 O268 2.091 . S
Co266 O270 2.004 . S
Co266 O276 2.021 . S
Co266 O278 2.137 . S
Co266 O279 2.244 . S
O267 Co266 2.216 . S
O267 C274 1.247 . S
O268 Co266 2.091 . S
O268 C274 1.261 . S
C269 O278 1.247 . S
C269 O279 1.272 . S
O270 Co266 2.004 . S
O270 C275 1.259 . S
Co271 O272 2.061 . S
Co271 O277 2.052 . S
Co271 O279 2.135 . S
O272 Co271 2.061 . S
O272 C275 1.235 . S
C273 O276 1.238 . S
C273 O277 1.241 . S
C274 O267 1.247 . S
C274 O268 1.261 . S
C275 O270 1.259 . S
C275 O272 1.235 . S
O276 Co266 2.021 . S
O276 C273 1.238 . S
O277 Co271 2.052 . S
O277 C273 1.241 . S
O278 Co266 2.137 . S
O278 C269 1.247 . S
O279 Co266 2.244 . S
O279 C269 1.272 . S
O279 Co271 2.135 . S
Co280 O281 2.216 . S
Co280 O282 2.091 . S
Co280 O284 2.004 . S
Co280 O290 2.021 . S
Co280 O292 2.137 . S
Co280 O293 2.244 . S
O281 Co280 2.216 . S
O281 C288 1.247 . S
O282 Co280 2.091 . S
O282 C288 1.261 . S
C283 O292 1.247 . S
C283 O293 1.272 . S
O284 Co280 2.004 . S
O284 C289 1.259 . S
Co285 O286 2.061 . S
Co285 O291 2.052 . S
Co285 O293 2.135 . S
O286 Co285 2.061 . S
O286 C289 1.235 . S
C287 O290 1.238 . S
C287 O291 1.241 . S
C288 O281 1.247 . S
C288 O282 1.261 . S
C289 O284 1.259 . S
C289 O286 1.235 . S
O290 Co280 2.021 . S
O290 C287 1.238 . S
O291 Co285 2.052 . S
O291 C287 1.241 . S
O292 Co280 2.137 . S
O292 C283 1.247 . S
O293 Co280 2.244 . S
O293 C283 1.272 . S
O293 Co285 2.135 . S
Co294 O295 2.216 . S
Co294 O296 2.091 . S
Co294 O298 2.004 . S
Co294 O304 2.021 . S
Co294 O306 2.137 . S
Co294 O307 2.244 . S
O295 Co294 2.216 . S
O295 C302 1.247 . S
O296 Co294 2.091 . S
O296 C302 1.261 . S
C297 O306 1.247 . S
C297 O307 1.272 . S
O298 Co294 2.004 . S
O298 C303 1.259 . S
Co299 O300 2.061 . S
Co299 O305 2.052 . S
Co299 O307 2.135 . S
O300 Co299 2.061 . S
O300 C303 1.235 . S
C301 O304 1.238 . S
C301 O305 1.241 . S
C302 O295 1.247 . S
C302 O296 1.261 . S
C303 O298 1.259 . S
C303 O300 1.235 . S
O304 Co294 2.021 . S
O304 C301 1.238 . S
O305 Co299 2.052 . S
O305 C301 1.241 . S
O306 Co294 2.137 . S
O306 C297 1.247 . S
O307 Co294 2.244 . S
O307 C297 1.272 . S
O307 Co299 2.135 . S
Co308 O309 2.216 . S
Co308 O310 2.091 . S
Co308 O312 2.004 . S
Co308 O318 2.021 . S
Co308 O320 2.137 . S
Co308 O321 2.244 . S
O309 Co308 2.216 . S
O309 C316 1.247 . S
O310 Co308 2.091 . S
O310 C316 1.261 . S
C311 O320 1.247 . S
C311 O321 1.272 . S
O312 Co308 2.004 . S
O312 C317 1.259 . S
Co313 O314 2.061 . S
Co313 O319 2.052 . S
Co313 O321 2.135 . S
O314 Co313 2.061 . S
O314 C317 1.235 . S
C315 O318 1.238 . S
C315 O319 1.241 . S
C316 O309 1.247 . S
C316 O310 1.261 . S
C317 O312 1.259 . S
C317 O314 1.235 . S
O318 Co308 2.021 . S
O318 C315 1.238 . S
O319 Co313 2.052 . S
O319 C315 1.241 . S
O320 Co308 2.137 . S
O320 C311 1.247 . S
O321 Co308 2.244 . S
O321 C311 1.272 . S
O321 Co313 2.135 . S
Co322 O323 2.216 . S
Co322 O324 2.091 . S
Co322 O326 2.004 . S
Co322 O332 2.021 . S
Co322 O334 2.137 . S
Co322 O335 2.244 . S
O323 Co322 2.216 . S
O323 C330 1.247 . S
O324 Co322 2.091 . S
O324 C330 1.261 . S
C325 O334 1.247 . S
C325 O335 1.272 . S
O326 Co322 2.004 . S
O326 C331 1.259 . S
Co327 O328 2.061 . S
Co327 O333 2.052 . S
Co327 O335 2.135 . S
O328 Co327 2.061 . S
O328 C331 1.235 . S
C329 O332 1.238 . S
C329 O333 1.241 . S
C330 O323 1.247 . S
C330 O324 1.261 . S
C331 O326 1.259 . S
C331 O328 1.235 . S
O332 Co322 2.021 . S
O332 C329 1.238 . S
O333 Co327 2.052 . S
O333 C329 1.241 . S
O334 Co322 2.137 . S
O334 C325 1.247 . S
O335 Co322 2.244 . S
O335 C325 1.272 . S
O335 Co327 2.135 . S
Co336 O337 2.216 . S
Co336 O338 2.091 . S
Co336 O340 2.004 . S
Co336 O346 2.021 . S
Co336 O348 2.137 . S
Co336 O349 2.244 . S
O337 Co336 2.216 . S
O337 C344 1.247 . S
O338 Co336 2.091 . S
O338 C344 1.261 . S
C339 O348 1.247 . S
C339 O349 1.272 . S
O340 Co336 2.004 . S
O340 C345 1.259 . S
Co341 O342 2.061 . S
Co341 O347 2.052 . S
Co341 O349 2.135 . S
O342 Co341 2.061 . S
O342 C345 1.235 . S
C343 O346 1.238 . S
C343 O347 1.241 . S
C344 O337 1.247 . S
C344 O338 1.261 . S
C345 O340 1.259 . S
C345 O342 1.235 . S
O346 Co336 2.021 . S
O346 C343 1.238 . S
O347 Co341 2.052 . S
O347 C343 1.241 . S
O348 Co336 2.137 . S
O348 C339 1.247 . S
O349 Co336 2.244 . S
O349 C339 1.272 . S
O349 Co341 2.135 . S
Co350 O351 2.216 . S
Co350 O352 2.091 . S
Co350 O354 2.004 . S
Co350 O360 2.021 . S
Co350 O362 2.137 . S
Co350 O363 2.244 . S
O351 Co350 2.216 . S
O351 C358 1.247 . S
O352 Co350 2.091 . S
O352 C358 1.261 . S
C353 O362 1.247 . S
C353 O363 1.272 . S
O354 Co350 2.004 . S
O354 C359 1.259 . S
Co355 O356 2.061 . S
Co355 O361 2.052 . S
Co355 O363 2.135 . S
O356 Co355 2.061 . S
O356 C359 1.235 . S
C357 O360 1.238 . S
C357 O361 1.241 . S
C358 O351 1.247 . S
C358 O352 1.261 . S
C359 O354 1.259 . S
C359 O356 1.235 . S
O360 Co350 2.021 . S
O360 C357 1.238 . S
O361 Co355 2.052 . S
O361 C357 1.241 . S
O362 Co350 2.137 . S
O362 C353 1.247 . S
O363 Co350 2.244 . S
O363 C353 1.272 . S
O363 Co355 2.135 . S
Co364 O365 2.216 . S
Co364 O366 2.091 . S
Co364 O368 2.004 . S
Co364 O374 2.021 . S
Co364 O376 2.137 . S
Co364 O377 2.244 . S
O365 Co364 2.216 . S
O365 C372 1.247 . S
O366 Co364 2.091 . S
O366 C372 1.261 . S
C367 O376 1.247 . S
C367 O377 1.272 . S
O368 Co364 2.004 . S
O368 C373 1.259 . S
Co369 O370 2.061 . S
Co369 O375 2.052 . S
Co369 O377 2.135 . S
O370 Co369 2.061 . S
O370 C373 1.235 . S
C371 O374 1.238 . S
C371 O375 1.241 . S
C372 O365 1.247 . S
C372 O366 1.261 . S
C373 O368 1.259 . S
C373 O370 1.235 . S
O374 Co364 2.021 . S
O374 C371 1.238 . S
O375 Co369 2.052 . S
O375 C371 1.241 . S
O376 Co364 2.137 . S
O376 C367 1.247 . S
O377 Co364 2.244 . S
O377 C367 1.272 . S
O377 Co369 2.135 . S
Co378 O379 2.216 . S
Co378 O380 2.091 . S
Co378 O382 2.004 . S
Co378 O388 2.021 . S
Co378 O390 2.137 . S
Co378 O391 2.244 . S
O379 Co378 2.216 . S
O379 C386 1.247 . S
O380 Co378 2.091 . S
O380 C386 1.261 . S
C381 O390 1.247 . S
C381 O391 1.272 . S
O382 Co378 2.004 . S
O382 C387 1.259 . S
Co383 O384 2.061 . S
Co383 O389 2.052 . S
Co383 O391 2.135 . S
O384 Co383 2.061 . S
O384 C387 1.235 . S
C385 O388 1.238 . S
C385 O389 1.241 . S
C386 O379 1.247 . S
C386 O380 1.261 . S
C387 O382 1.259 . S
C387 O384 1.235 . S
O388 Co378 2.021 . S
O388 C385 1.238 . S
O389 Co383 2.052 . S
O389 C385 1.241 . S
O390 Co378 2.137 . S
O390 C381 1.247 . S
O391 Co378 2.244 . S
O391 C381 1.272 . S
O391 Co383 2.135 . S
Co392 O393 2.216 . S
Co392 O394 2.091 . S
Co392 O396 2.004 . S
Co392 O402 2.021 . S
Co392 O404 2.137 . S
Co392 O405 2.244 . S
O393 Co392 2.216 . S
O393 C400 1.247 . S
O394 Co392 2.091 . S
O394 C400 1.261 . S
C395 O404 1.247 . S
C395 O405 1.272 . S
O396 Co392 2.004 . S
O396 C401 1.259 . S
Co397 O398 2.061 . S
Co397 O403 2.052 . S
Co397 O405 2.135 . S
O398 Co397 2.061 . S
O398 C401 1.235 . S
C399 O402 1.238 . S
C399 O403 1.241 . S
C400 O393 1.247 . S
C400 O394 1.261 . S
C401 O396 1.259 . S
C401 O398 1.235 . S
O402 Co392 2.021 . S
O402 C399 1.238 . S
O403 Co397 2.052 . S
O403 C399 1.241 . S
O404 Co392 2.137 . S
O404 C395 1.247 . S
O405 Co392 2.244 . S
O405 C395 1.272 . S
O405 Co397 2.135 . S
Co406 O407 2.216 . S
Co406 O408 2.091 . S
Co406 O410 2.004 . S
Co406 O416 2.021 . S
Co406 O418 2.137 . S
Co406 O419 2.244 . S
O407 Co406 2.216 . S
O407 C414 1.247 . S
O408 Co406 2.091 . S
O408 C414 1.261 . S
C409 O418 1.247 . S
C409 O419 1.272 . S
O410 Co406 2.004 . S
O410 C415 1.259 . S
Co411 O412 2.061 . S
Co411 O417 2.052 . S
Co411 O419 2.135 . S
O412 Co411 2.061 . S
O412 C415 1.235 . S
C413 O416 1.238 . S
C413 O417 1.241 . S
C414 O407 1.247 . S
C414 O408 1.261 . S
C415 O410 1.259 . S
C415 O412 1.235 . S
O416 Co406 2.021 . S
O416 C413 1.238 . S
O417 Co411 2.052 . S
O417 C413 1.241 . S
O418 Co406 2.137 . S
O418 C409 1.247 . S
O419 Co406 2.244 . S
O419 C409 1.272 . S
O419 Co411 2.135 . S
Co420 O421 2.216 . S
Co420 O422 2.091 . S
Co420 O424 2.004 . S
Co420 O430 2.021 . S
Co420 O432 2.137 . S
Co420 O433 2.244 . S
O421 Co420 2.216 . S
O421 C428 1.247 . S
O422 Co420 2.091 . S
O422 C428 1.261 . S
C423 O432 1.247 . S
C423 O433 1.272 . S
O424 Co420 2.004 . S
O424 C429 1.259 . S
Co425 O426 2.061 . S
Co425 O431 2.052 . S
Co425 O433 2.135 . S
O426 Co425 2.061 . S
O426 C429 1.235 . S
C427 O430 1.238 . S
C427 O431 1.241 . S
C428 O421 1.247 . S
C428 O422 1.261 . S
C429 O424 1.259 . S
C429 O426 1.235 . S
O430 Co420 2.021 . S
O430 C427 1.238 . S
O431 Co425 2.052 . S
O431 C427 1.241 . S
O432 Co420 2.137 . S
O432 C423 1.247 . S
O433 Co420 2.244 . S
O433 C423 1.272 . S
O433 Co425 2.135 . S
Co434 O435 2.216 . S
Co434 O436 2.091 . S
Co434 O438 2.004 . S
Co434 O444 2.021 . S
Co434 O446 2.137 . S
Co434 O447 2.244 . S
O435 Co434 2.216 . S
O435 C442 1.247 . S
O436 Co434 2.091 . S
O436 C442 1.261 . S
C437 O446 1.247 . S
C437 O447 1.272 . S
O438 Co434 2.004 . S
O438 C443 1.259 . S
Co439 O440 2.061 . S
Co439 O445 2.052 . S
Co439 O447 2.135 . S
O440 Co439 2.061 . S
O440 C443 1.235 . S
C441 O444 1.238 . S
C441 O445 1.241 . S
C442 O435 1.247 . S
C442 O436 1.261 . S
C443 O438 1.259 . S
C443 O440 1.235 . S
O444 Co434 2.021 . S
O444 C441 1.238 . S
O445 Co439 2.052 . S
O445 C441 1.241 . S
O446 Co434 2.137 . S
O446 C437 1.247 . S
O447 Co434 2.244 . S
O447 C437 1.272 . S
O447 Co439 2.135 . S
Co448 O449 2.216 . S
Co448 O450 2.091 . S
Co448 O452 2.004 . S
Co448 O458 2.021 . S
Co448 O460 2.137 . S
Co448 O461 2.244 . S
O449 Co448 2.216 . S
O449 C456 1.247 . S
O450 Co448 2.091 . S
O450 C456 1.261 . S
C451 O460 1.247 . S
C451 O461 1.272 . S
O452 Co448 2.004 . S
O452 C457 1.259 . S
Co453 O454 2.061 . S
Co453 O459 2.052 . S
Co453 O461 2.135 . S
O454 Co453 2.061 . S
O454 C457 1.235 . S
C455 O458 1.238 . S
C455 O459 1.241 . S
C456 O449 1.247 . S
C456 O450 1.261 . S
C457 O452 1.259 . S
C457 O454 1.235 . S
O458 Co448 2.021 . S
O458 C455 1.238 . S
O459 Co453 2.052 . S
O459 C455 1.241 . S
O460 Co448 2.137 . S
O460 C451 1.247 . S
O461 Co448 2.244 . S
O461 C451 1.272 . S
O461 Co453 2.135 . S
Co462 O463 2.216 . S
Co462 O464 2.091 . S
Co462 O466 2.004 . S
Co462 O472 2.021 . S
Co462 O474 2.137 . S
Co462 O475 2.244 . S
O463 Co462 2.216 . S
O463 C470 1.247 . S
O464 Co462 2.091 . S
O464 C470 1.261 . S
C465 O474 1.247 . S
C465 O475 1.272 . S
O466 Co462 2.004 . S
O466 C471 1.259 . S
Co467 O468 2.061 . S
Co467 O473 2.052 . S
Co467 O475 2.135 . S
O468 Co467 2.061 . S
O468 C471 1.235 . S
C469 O472 1.238 . S
C469 O473 1.241 . S
C470 O463 1.247 . S
C470 O464 1.261 . S
C471 O466 1.259 . S
C471 O468 1.235 . S
O472 Co462 2.021 . S
O472 C469 1.238 . S
O473 Co467 2.052 . S
O473 C469 1.241 . S
O474 Co462 2.137 . S
O474 C465 1.247 . S
O475 Co462 2.244 . S
O475 C465 1.272 . S
O475 Co467 2.135 . S
Co476 O477 2.216 . S
Co476 O478 2.091 . S
Co476 O480 2.004 . S
Co476 O486 2.021 . S
Co476 O488 2.137 . S
Co476 O489 2.244 . S
O477 Co476 2.216 . S
O477 C484 1.247 . S
O478 Co476 2.091 . S
O478 C484 1.261 . S
C479 O488 1.247 . S
C479 O489 1.272 . S
O480 Co476 2.004 . S
O480 C485 1.259 . S
Co481 O482 2.061 . S
Co481 O487 2.052 . S
Co481 O489 2.135 . S
O482 Co481 2.061 . S
O482 C485 1.235 . S
C483 O486 1.238 . S
C483 O487 1.241 . S
C484 O477 1.247 . S
C484 O478 1.261 . S
C485 O480 1.259 . S
C485 O482 1.235 . S
O486 Co476 2.021 . S
O486 C483 1.238 . S
O487 Co481 2.052 . S
O487 C483 1.241 . S
O488 Co476 2.137 . S
O488 C479 1.247 . S
O489 Co476 2.244 . S
O489 C479 1.272 . S
O489 Co481 2.135 . S
Co490 O491 2.216 . S
Co490 O492 2.091 . S
Co490 O494 2.004 . S
Co490 O500 2.021 . S
Co490 O502 2.137 . S
Co490 O503 2.244 . S
O491 Co490 2.216 . S
O491 C498 1.247 . S
O492 Co490 2.091 . S
O492 C498 1.261 . S
C493 O502 1.247 . S
C493 O503 1.272 . S
O494 Co490 2.004 . S
O494 C499 1.259 . S
Co495 O496 2.061 . S
Co495 O501 2.052 . S
Co495 O503 2.135 . S
O496 Co495 2.061 . S
O496 C499 1.235 . S
C497 O500 1.238 . S
C497 O501 1.241 . S
C498 O491 1.247 . S
C498 O492 1.261 . S
C499 O494 1.259 . S
C499 O496 1.235 . S
O500 Co490 2.021 . S
O500 C497 1.238 . S
O501 Co495 2.052 . S
O501 C497 1.241 . S
O502 Co490 2.137 . S
O502 C493 1.247 . S
O503 Co490 2.244 . S
O503 C493 1.272 . S
O503 Co495 2.135 . S
Co504 O505 2.216 . S
Co504 O506 2.091 . S
Co504 O508 2.004 . S
Co504 O514 2.021 . S
Co504 O516 2.137 . S
Co504 O517 2.244 . S
O505 Co504 2.216 . S
O505 C512 1.247 . S
O506 Co504 2.091 . S
O506 C512 1.261 . S
C507 O516 1.247 . S
C507 O517 1.272 . S
O508 Co504 2.004 . S
O508 C513 1.259 . S
Co509 O510 2.061 . S
Co509 O515 2.052 . S
Co509 O517 2.135 . S
O510 Co509 2.061 . S
O510 C513 1.235 . S
C511 O514 1.238 . S
C511 O515 1.241 . S
C512 O505 1.247 . S
C512 O506 1.261 . S
C513 O508 1.259 . S
C513 O510 1.235 . S
O514 Co504 2.021 . S
O514 C511 1.238 . S
O515 Co509 2.052 . S
O515 C511 1.241 . S
O516 Co504 2.137 . S
O516 C507 1.247 . S
O517 Co504 2.244 . S
O517 C507 1.272 . S
O517 Co509 2.135 . S
Co518 O519 2.216 . S
Co518 O520 2.091 . S
Co518 O522 2.004 . S
Co518 O528 2.021 . S
Co518 O530 2.137 . S
Co518 O531 2.244 . S
O519 Co518 2.216 . S
O519 C526 1.247 . S
O520 Co518 2.091 . S
O520 C526 1.261 . S
C521 O530 1.247 . S
C521 O531 1.272 . S
O522 Co518 2.004 . S
O522 C527 1.259 . S
Co523 O524 2.061 . S
Co523 O529 2.052 . S
Co523 O531 2.135 . S
O524 Co523 2.061 . S
O524 C527 1.235 . S
C525 O528 1.238 . S
C525 O529 1.241 . S
C526 O519 1.247 . S
C526 O520 1.261 . S
C527 O522 1.259 . S
C527 O524 1.235 . S
O528 Co518 2.021 . S
O528 C525 1.238 . S
O529 Co523 2.052 . S
O529 C525 1.241 . S
O530 Co518 2.137 . S
O530 C521 1.247 . S
O531 Co518 2.244 . S
O531 C521 1.272 . S
O531 Co523 2.135 . S
Co532 O533 2.216 . S
Co532 O534 2.091 . S
Co532 O536 2.004 . S
Co532 O542 2.021 . S
Co532 O544 2.137 . S
Co532 O545 2.244 . S
O533 Co532 2.216 . S
O533 C540 1.247 . S
O534 Co532 2.091 . S
O534 C540 1.261 . S
C535 O544 1.247 . S
C535 O545 1.272 . S
O536 Co532 2.004 . S
O536 C541 1.259 . S
Co537 O538 2.061 . S
Co537 O543 2.052 . S
Co537 O545 2.135 . S
O538 Co537 2.061 . S
O538 C541 1.235 . S
C539 O542 1.238 . S
C539 O543 1.241 . S
C540 O533 1.247 . S
C540 O534 1.261 . S
C541 O536 1.259 . S
C541 O538 1.235 . S
O542 Co532 2.021 . S
O542 C539 1.238 . S
O543 Co537 2.052 . S
O543 C539 1.241 . S
O544 Co532 2.137 . S
O544 C535 1.247 . S
O545 Co532 2.244 . S
O545 C535 1.272 . S
O545 Co537 2.135 . S
Co546 O547 2.216 . S
Co546 O548 2.091 . S
Co546 O550 2.004 . S
Co546 O556 2.021 . S
Co546 O558 2.137 . S
Co546 O559 2.244 . S
O547 Co546 2.216 . S
O547 C554 1.247 . S
O548 Co546 2.091 . S
O548 C554 1.261 . S
C549 O558 1.247 . S
C549 O559 1.272 . S
O550 Co546 2.004 . S
O550 C555 1.259 . S
Co551 O552 2.061 . S
Co551 O557 2.052 . S
Co551 O559 2.135 . S
O552 Co551 2.061 . S
O552 C555 1.235 . S
C553 O556 1.238 . S
C553 O557 1.241 . S
C554 O547 1.247 . S
C554 O548 1.261 . S
C555 O550 1.259 . S
C555 O552 1.235 . S
O556 Co546 2.021 . S
O556 C553 1.238 . S
O557 Co551 2.052 . S
O557 C553 1.241 . S
O558 Co546 2.137 . S
O558 C549 1.247 . S
O559 Co546 2.244 . S
O559 C549 1.272 . S
O559 Co551 2.135 . S
Co560 O561 2.216 . S
Co560 O562 2.091 . S
Co560 O564 2.004 . S
Co560 O570 2.021 . S
Co560 O572 2.137 . S
Co560 O573 2.244 . S
O561 Co560 2.216 . S
O561 C568 1.247 . S
O562 Co560 2.091 . S
O562 C568 1.261 . S
C563 O572 1.247 . S
C563 O573 1.272 . S
O564 Co560 2.004 . S
O564 C569 1.259 . S
Co565 O566 2.061 . S
Co565 O571 2.052 . S
Co565 O573 2.135 . S
O566 Co565 2.061 . S
O566 C569 1.235 . S
C567 O570 1.238 . S
C567 O571 1.241 . S
C568 O561 1.247 . S
C568 O562 1.261 . S
C569 O564 1.259 . S
C569 O566 1.235 . S
O570 Co560 2.021 . S
O570 C567 1.238 . S
O571 Co565 2.052 . S
O571 C567 1.241 . S
O572 Co560 2.137 . S
O572 C563 1.247 . S
O573 Co560 2.244 . S
O573 C563 1.272 . S
O573 Co565 2.135 . S
Co574 O575 2.216 . S
Co574 O576 2.091 . S
Co574 O578 2.004 . S
Co574 O584 2.021 . S
Co574 O586 2.137 . S
Co574 O587 2.244 . S
O575 Co574 2.216 . S
O575 C582 1.247 . S
O576 Co574 2.091 . S
O576 C582 1.261 . S
C577 O586 1.247 . S
C577 O587 1.272 . S
O578 Co574 2.004 . S
O578 C583 1.259 . S
Co579 O580 2.061 . S
Co579 O585 2.052 . S
Co579 O587 2.135 . S
O580 Co579 2.061 . S
O580 C583 1.235 . S
C581 O584 1.238 . S
C581 O585 1.241 . S
C582 O575 1.247 . S
C582 O576 1.261 . S
C583 O578 1.259 . S
C583 O580 1.235 . S
O584 Co574 2.021 . S
O584 C581 1.238 . S
O585 Co579 2.052 . S
O585 C581 1.241 . S
O586 Co574 2.137 . S
O586 C577 1.247 . S
O587 Co574 2.244 . S
O587 C577 1.272 . S
O587 Co579 2.135 . S
Co588 O589 2.216 . S
Co588 O590 2.091 . S
Co588 O592 2.004 . S
Co588 O598 2.021 . S
Co588 O600 2.137 . S
Co588 O601 2.244 . S
O589 Co588 2.216 . S
O589 C596 1.247 . S
O590 Co588 2.091 . S
O590 C596 1.261 . S
C591 O600 1.247 . S
C591 O601 1.272 . S
O592 Co588 2.004 . S
O592 C597 1.259 . S
Co593 O594 2.061 . S
Co593 O599 2.052 . S
Co593 O601 2.135 . S
O594 Co593 2.061 . S
O594 C597 1.235 . S
C595 O598 1.238 . S
C595 O599 1.241 . S
C596 O589 1.247 . S
C596 O590 1.261 . S
C597 O592 1.259 . S
C597 O594 1.235 . S
O598 Co588 2.021 . S
O598 C595 1.238 . S
O599 Co593 2.052 . S
O599 C595 1.241 . S
O600 Co588 2.137 . S
O600 C591 1.247 . S
O601 Co588 2.244 . S
O601 C591 1.272 . S
O601 Co593 2.135 . S
Co602 O603 2.216 . S
Co602 O604 2.091 . S
Co602 O606 2.004 . S
Co602 O612 2.021 . S
Co602 O614 2.137 . S
Co602 O615 2.244 . S
O603 Co602 2.216 . S
O603 C610 1.247 . S
O604 Co602 2.091 . S
O604 C610 1.261 . S
C605 O614 1.247 . S
C605 O615 1.272 . S
O606 Co602 2.004 . S
O606 C611 1.259 . S
Co607 O608 2.061 . S
Co607 O613 2.052 . S
Co607 O615 2.135 . S
O608 Co607 2.061 . S
O608 C611 1.235 . S
C609 O612 1.238 . S
C609 O613 1.241 . S
C610 O603 1.247 . S
C610 O604 1.261 . S
C611 O606 1.259 . S
C611 O608 1.235 . S
O612 Co602 2.021 . S
O612 C609 1.238 . S
O613 Co607 2.052 . S
O613 C609 1.241 . S
O614 Co602 2.137 . S
O614 C605 1.247 . S
O615 Co602 2.244 . S
O615 C605 1.272 . S
O615 Co607 2.135 . S
Co616 O617 2.216 . S
Co616 O618 2.091 . S
Co616 O620 2.004 . S
Co616 O626 2.021 . S
Co616 O628 2.137 . S
Co616 O629 2.244 . S
O617 Co616 2.216 . S
O617 C624 1.247 . S
O618 Co616 2.091 . S
O618 C624 1.261 . S
C619 O628 1.247 . S
C619 O629 1.272 . S
O620 Co616 2.004 . S
O620 C625 1.259 . S
Co621 O622 2.061 . S
Co621 O627 2.052 . S
Co621 O629 2.135 . S
O622 Co621 2.061 . S
O622 C625 1.235 . S
C623 O626 1.238 . S
C623 O627 1.241 . S
C624 O617 1.247 . S
C624 O618 1.261 . S
C625 O620 1.259 . S
C625 O622 1.235 . S
O626 Co616 2.021 . S
O626 C623 1.238 . S
O627 Co621 2.052 . S
O627 C623 1.241 . S
O628 Co616 2.137 . S
O628 C619 1.247 . S
O629 Co616 2.244 . S
O629 C619 1.272 . S
O629 Co621 2.135 . S
Co630 O631 2.216 . S
Co630 O632 2.091 . S
Co630 O634 2.004 . S
Co630 O640 2.021 . S
Co630 O642 2.137 . S
Co630 O643 2.244 . S
O631 Co630 2.216 . S
O631 C638 1.247 . S
O632 Co630 2.091 . S
O632 C638 1.261 . S
C633 O642 1.247 . S
C633 O643 1.272 . S
O634 Co630 2.004 . S
O634 C639 1.259 . S
Co635 O636 2.061 . S
Co635 O641 2.052 . S
Co635 O643 2.135 . S
O636 Co635 2.061 . S
O636 C639 1.235 . S
C637 O640 1.238 . S
C637 O641 1.241 . S
C638 O631 1.247 . S
C638 O632 1.261 . S
C639 O634 1.259 . S
C639 O636 1.235 . S
O640 Co630 2.021 . S
O640 C637 1.238 . S
O641 Co635 2.052 . S
O641 C637 1.241 . S
O642 Co630 2.137 . S
O642 C633 1.247 . S
O643 Co630 2.244 . S
O643 C633 1.272 . S
O643 Co635 2.135 . S
Co644 O645 2.216 . S
Co644 O646 2.091 . S
Co644 O648 2.004 . S
Co644 O654 2.021 . S
Co644 O656 2.137 . S
Co644 O657 2.244 . S
O645 Co644 2.216 . S
O645 C652 1.247 . S
O646 Co644 2.091 . S
O646 C652 1.261 . S
C647 O656 1.247 . S
C647 O657 1.272 . S
O648 Co644 2.004 . S
O648 C653 1.259 . S
Co649 O650 2.061 . S
Co649 O655 2.052 . S
Co649 O657 2.135 . S
O650 Co649 2.061 . S
O650 C653 1.235 . S
C651 O654 1.238 . S
C651 O655 1.241 . S
C652 O645 1.247 . S
C652 O646 1.261 . S
C653 O648 1.259 . S
C653 O650 1.235 . S
O654 Co644 2.021 . S
O654 C651 1.238 . S
O655 Co649 2.052 . S
O655 C651 1.241 . S
O656 Co644 2.137 . S
O656 C647 1.247 . S
O657 Co644 2.244 . S
O657 C647 1.272 . S
O657 Co649 2.135 . S
Co658 O659 2.216 . S
Co658 O660 2.091 . S
Co658 O662 2.004 . S
Co658 O668 2.021 . S
Co658 O670 2.137 . S
Co658 O671 2.244 . S
O659 Co658 2.216 . S
O659 C666 1.247 . S
O660 Co658 2.091 . S
O660 C666 1.261 . S
C661 O670 1.247 . S
C661 O671 1.272 . S
O662 Co658 2.004 . S
O662 C667 1.259 . S
Co663 O664 2.061 . S
Co663 O669 2.052 . S
Co663 O671 2.135 . S
O664 Co663 2.061 . S
O664 C667 1.235 . S
C665 O668 1.238 . S
C665 O669 1.241 . S
C666 O659 1.247 . S
C666 O660 1.261 . S
C667 O662 1.259 . S
C667 O664 1.235 . S
O668 Co658 2.021 . S
O668 C665 1.238 . S
O669 Co663 2.052 . S
O669 C665 1.241 . S
O670 Co658 2.137 . S
O670 C661 1.247 . S
O671 Co658 2.244 . S
O671 C661 1.272 . S
O671 Co663 2.135 . S
H672 C678 0.930 . S
H673 C682 0.930 . S
H674 C687 0.929 . S
H675 C685 0.929 . S
H676 C680 0.929 . S
H677 C686 0.929 . S
C678 H672 0.930 . S
C678 C679 1.367 . S
C678 C686 1.378 . S
C679 C678 1.367 . S
C679 C687 1.433 . S
C680 H676 0.929 . S
C680 C682 1.378 . S
C680 C684 1.350 . S
C681 C684 1.463 . S
C681 C686 1.350 . S
C681 N689 1.427 . S
C682 H673 0.930 . S
C682 C680 1.378 . S
C682 C683 1.367 . S
C683 C682 1.367 . S
C683 C685 1.433 . S
C684 C680 1.350 . S
C684 C681 1.463 . S
C684 N688 1.427 . S
C685 H675 0.929 . S
C685 C683 1.433 . S
C685 N688 1.384 . S
C686 H677 0.929 . S
C686 C678 1.378 . S
C686 C681 1.350 . S
C687 H674 0.929 . S
C687 C679 1.433 . S
C687 N689 1.384 . S
N688 C684 1.427 . S
N688 C685 1.384 . S
N689 C681 1.427 . S
N689 C687 1.384 . S
H690 C696 0.930 . S
H691 C700 0.930 . S
H692 C705 0.929 . S
H693 C703 0.929 . S
H694 C698 0.929 . S
H695 C704 0.929 . S
C696 H690 0.930 . S
C696 C697 1.367 . S
C696 C704 1.378 . S
C697 C696 1.367 . S
C697 C705 1.433 . S
C698 H694 0.929 . S
C698 C700 1.378 . S
C698 C702 1.350 . S
C699 C702 1.463 . S
C699 C704 1.350 . S
C699 N707 1.427 . S
C700 H691 0.930 . S
C700 C698 1.378 . S
C700 C701 1.367 . S
C701 C700 1.367 . S
C701 C703 1.433 . S
C702 C698 1.350 . S
C702 C699 1.463 . S
C702 N706 1.427 . S
C703 H693 0.929 . S
C703 C701 1.433 . S
C703 N706 1.384 . S
C704 H695 0.929 . S
C704 C696 1.378 . S
C704 C699 1.350 . S
C705 H692 0.929 . S
C705 C697 1.433 . S
C705 N707 1.384 . S
N706 C702 1.427 . S
N706 C703 1.384 . S
N707 C699 1.427 . S
N707 C705 1.384 . S
H708 C714 0.930 . S
H709 C718 0.930 . S
H710 C723 0.929 . S
H711 C721 0.929 . S
H712 C716 0.929 . S
H713 C722 0.929 . S
C714 H708 0.930 . S
C714 C715 1.367 . S
C714 C722 1.378 . S
C715 C714 1.367 . S
C715 C723 1.433 . S
C716 H712 0.929 . S
C716 C718 1.378 . S
C716 C720 1.350 . S
C717 C720 1.463 . S
C717 C722 1.350 . S
C717 N725 1.427 . S
C718 H709 0.930 . S
C718 C716 1.378 . S
C718 C719 1.367 . S
C719 C718 1.367 . S
C719 C721 1.433 . S
C720 C716 1.350 . S
C720 C717 1.463 . S
C720 N724 1.427 . S
C721 H711 0.929 . S
C721 C719 1.433 . S
C721 N724 1.384 . S
C722 H713 0.929 . S
C722 C714 1.378 . S
C722 C717 1.350 . S
C723 H710 0.929 . S
C723 C715 1.433 . S
C723 N725 1.384 . S
N724 C720 1.427 . S
N724 C721 1.384 . S
N725 C717 1.427 . S
N725 C723 1.384 . S
H726 C732 0.930 . S
H727 C736 0.930 . S
H728 C741 0.929 . S
H729 C739 0.929 . S
H730 C734 0.929 . S
H731 C740 0.929 . S
C732 H726 0.930 . S
C732 C733 1.367 . S
C732 C740 1.378 . S
C733 C732 1.367 . S
C733 C741 1.433 . S
C734 H730 0.929 . S
C734 C736 1.378 . S
C734 C738 1.350 . S
C735 C738 1.463 . S
C735 C740 1.350 . S
C735 N743 1.427 . S
C736 H727 0.930 . S
C736 C734 1.378 . S
C736 C737 1.367 . S
C737 C736 1.367 . S
C737 C739 1.433 . S
C738 C734 1.350 . S
C738 C735 1.463 . S
C738 N742 1.427 . S
C739 H729 0.929 . S
C739 C737 1.433 . S
C739 N742 1.384 . S
C740 H731 0.929 . S
C740 C732 1.378 . S
C740 C735 1.350 . S
C741 H728 0.929 . S
C741 C733 1.433 . S
C741 N743 1.384 . S
N742 C738 1.427 . S
N742 C739 1.384 . S
N743 C735 1.427 . S
N743 C741 1.384 . S
H744 C750 0.930 . S
H745 C754 0.930 . S
H746 C759 0.929 . S
H747 C757 0.929 . S
H748 C752 0.929 . S
H749 C758 0.929 . S
C750 H744 0.930 . S
C750 C751 1.367 . S
C750 C758 1.378 . S
C751 C750 1.367 . S
C751 C759 1.433 . S
C752 H748 0.929 . S
C752 C754 1.378 . S
C752 C756 1.350 . S
C753 C756 1.463 . S
C753 C758 1.350 . S
C753 N761 1.427 . S
C754 H745 0.930 . S
C754 C752 1.378 . S
C754 C755 1.367 . S
C755 C754 1.367 . S
C755 C757 1.433 . S
C756 C752 1.350 . S
C756 C753 1.463 . S
C756 N760 1.427 . S
C757 H747 0.929 . S
C757 C755 1.433 . S
C757 N760 1.384 . S
C758 H749 0.929 . S
C758 C750 1.378 . S
C758 C753 1.350 . S
C759 H746 0.929 . S
C759 C751 1.433 . S
C759 N761 1.384 . S
N760 C756 1.427 . S
N760 C757 1.384 . S
N761 C753 1.427 . S
N761 C759 1.384 . S
H762 C768 0.930 . S
H763 C772 0.930 . S
H764 C777 0.929 . S
H765 C775 0.929 . S
H766 C770 0.929 . S
H767 C776 0.929 . S
C768 H762 0.930 . S
C768 C769 1.367 . S
C768 C776 1.378 . S
C769 C768 1.367 . S
C769 C777 1.433 . S
C770 H766 0.929 . S
C770 C772 1.378 . S
C770 C774 1.350 . S
C771 C774 1.463 . S
C771 C776 1.350 . S
C771 N779 1.427 . S
C772 H763 0.930 . S
C772 C770 1.378 . S
C772 C773 1.367 . S
C773 C772 1.367 . S
C773 C775 1.433 . S
C774 C770 1.350 . S
C774 C771 1.463 . S
C774 N778 1.427 . S
C775 H765 0.929 . S
C775 C773 1.433 . S
C775 N778 1.384 . S
C776 H767 0.929 . S
C776 C768 1.378 . S
C776 C771 1.350 . S
C777 H764 0.929 . S
C777 C769 1.433 . S
C777 N779 1.384 . S
N778 C774 1.427 . S
N778 C775 1.384 . S
N779 C771 1.427 . S
N779 C777 1.384 . S
H780 C786 0.930 . S
H781 C790 0.930 . S
H782 C795 0.929 . S
H783 C793 0.929 . S
H784 C788 0.929 . S
H785 C794 0.929 . S
C786 H780 0.930 . S
C786 C787 1.367 . S
C786 C794 1.378 . S
C787 C786 1.367 . S
C787 C795 1.433 . S
C788 H784 0.929 . S
C788 C790 1.378 . S
C788 C792 1.350 . S
C789 C792 1.463 . S
C789 C794 1.350 . S
C789 N797 1.427 . S
C790 H781 0.930 . S
C790 C788 1.378 . S
C790 C791 1.367 . S
C791 C790 1.367 . S
C791 C793 1.433 . S
C792 C788 1.350 . S
C792 C789 1.463 . S
C792 N796 1.427 . S
C793 H783 0.929 . S
C793 C791 1.433 . S
C793 N796 1.384 . S
C794 H785 0.929 . S
C794 C786 1.378 . S
C794 C789 1.350 . S
C795 H782 0.929 . S
C795 C787 1.433 . S
C795 N797 1.384 . S
N796 C792 1.427 . S
N796 C793 1.384 . S
N797 C789 1.427 . S
N797 C795 1.384 . S
H798 C804 0.930 . S
H799 C808 0.930 . S
H800 C813 0.929 . S
H801 C811 0.929 . S
H802 C806 0.929 . S
H803 C812 0.929 . S
C804 H798 0.930 . S
C804 C805 1.367 . S
C804 C812 1.378 . S
C805 C804 1.367 . S
C805 C813 1.433 . S
C806 H802 0.929 . S
C806 C808 1.378 . S
C806 C810 1.350 . S
C807 C810 1.463 . S
C807 C812 1.350 . S
C807 N815 1.427 . S
C808 H799 0.930 . S
C808 C806 1.378 . S
C808 C809 1.367 . S
C809 C808 1.367 . S
C809 C811 1.433 . S
C810 C806 1.350 . S
C810 C807 1.463 . S
C810 N814 1.427 . S
C811 H801 0.929 . S
C811 C809 1.433 . S
C811 N814 1.384 . S
C812 H803 0.929 . S
C812 C804 1.378 . S
C812 C807 1.350 . S
C813 H800 0.929 . S
C813 C805 1.433 . S
C813 N815 1.384 . S
N814 C810 1.427 . S
N814 C811 1.384 . S
N815 C807 1.427 . S
N815 C813 1.384 . S
H816 C822 0.930 . S
H817 C826 0.930 . S
H818 C831 0.929 . S
H819 C829 0.929 . S
H820 C824 0.929 . S
H821 C830 0.929 . S
C822 H816 0.930 . S
C822 C823 1.367 . S
C822 C830 1.378 . S
C823 C822 1.367 . S
C823 C831 1.433 . S
C824 H820 0.929 . S
C824 C826 1.378 . S
C824 C828 1.350 . S
C825 C828 1.463 . S
C825 C830 1.350 . S
C825 N833 1.427 . S
C826 H817 0.930 . S
C826 C824 1.378 . S
C826 C827 1.367 . S
C827 C826 1.367 . S
C827 C829 1.433 . S
C828 C824 1.350 . S
C828 C825 1.463 . S
C828 N832 1.427 . S
C829 H819 0.929 . S
C829 C827 1.433 . S
C829 N832 1.384 . S
C830 H821 0.929 . S
C830 C822 1.378 . S
C830 C825 1.350 . S
C831 H818 0.929 . S
C831 C823 1.433 . S
C831 N833 1.384 . S
N832 C828 1.427 . S
N832 C829 1.384 . S
N833 C825 1.427 . S
N833 C831 1.384 . S
H834 C840 0.930 . S
H835 C844 0.930 . S
H836 C849 0.929 . S
H837 C847 0.929 . S
H838 C842 0.929 . S
H839 C848 0.929 . S
C840 H834 0.930 . S
C840 C841 1.367 . S
C840 C848 1.378 . S
C841 C840 1.367 . S
C841 C849 1.433 . S
C842 H838 0.929 . S
C842 C844 1.378 . S
C842 C846 1.350 . S
C843 C846 1.463 . S
C843 C848 1.350 . S
C843 N851 1.427 . S
C844 H835 0.930 . S
C844 C842 1.378 . S
C844 C845 1.367 . S
C845 C844 1.367 . S
C845 C847 1.433 . S
C846 C842 1.350 . S
C846 C843 1.463 . S
C846 N850 1.427 . S
C847 H837 0.929 . S
C847 C845 1.433 . S
C847 N850 1.384 . S
C848 H839 0.929 . S
C848 C840 1.378 . S
C848 C843 1.350 . S
C849 H836 0.929 . S
C849 C841 1.433 . S
C849 N851 1.384 . S
N850 C846 1.427 . S
N850 C847 1.384 . S
N851 C843 1.427 . S
N851 C849 1.384 . S
H852 C858 0.930 . S
H853 C862 0.930 . S
H854 C867 0.929 . S
H855 C865 0.929 . S
H856 C860 0.929 . S
H857 C866 0.929 . S
C858 H852 0.930 . S
C858 C859 1.367 . S
C858 C866 1.378 . S
C859 C858 1.367 . S
C859 C867 1.433 . S
C860 H856 0.929 . S
C860 C862 1.378 . S
C860 C864 1.350 . S
C861 C864 1.463 . S
C861 C866 1.350 . S
C861 N869 1.427 . S
C862 H853 0.930 . S
C862 C860 1.378 . S
C862 C863 1.367 . S
C863 C862 1.367 . S
C863 C865 1.433 . S
C864 C860 1.350 . S
C864 C861 1.463 . S
C864 N868 1.427 . S
C865 H855 0.929 . S
C865 C863 1.433 . S
C865 N868 1.384 . S
C866 H857 0.929 . S
C866 C858 1.378 . S
C866 C861 1.350 . S
C867 H854 0.929 . S
C867 C859 1.433 . S
C867 N869 1.384 . S
N868 C864 1.427 . S
N868 C865 1.384 . S
N869 C861 1.427 . S
N869 C867 1.384 . S
H870 C876 0.930 . S
H871 C880 0.930 . S
H872 C885 0.929 . S
H873 C883 0.929 . S
H874 C878 0.929 . S
H875 C884 0.929 . S
C876 H870 0.930 . S
C876 C877 1.367 . S
C876 C884 1.378 . S
C877 C876 1.367 . S
C877 C885 1.433 . S
C878 H874 0.929 . S
C878 C880 1.378 . S
C878 C882 1.350 . S
C879 C882 1.463 . S
C879 C884 1.350 . S
C879 N887 1.427 . S
C880 H871 0.930 . S
C880 C878 1.378 . S
C880 C881 1.367 . S
C881 C880 1.367 . S
C881 C883 1.433 . S
C882 C878 1.350 . S
C882 C879 1.463 . S
C882 N886 1.427 . S
C883 H873 0.929 . S
C883 C881 1.433 . S
C883 N886 1.384 . S
C884 H875 0.929 . S
C884 C876 1.378 . S
C884 C879 1.350 . S
C885 H872 0.929 . S
C885 C877 1.433 . S
C885 N887 1.384 . S
N886 C882 1.427 . S
N886 C883 1.384 . S
N887 C879 1.427 . S
N887 C885 1.384 . S
H888 C894 0.930 . S
H889 C898 0.930 . S
H890 C903 0.929 . S
H891 C901 0.929 . S
H892 C896 0.929 . S
H893 C902 0.929 . S
C894 H888 0.930 . S
C894 C895 1.367 . S
C894 C902 1.378 . S
C895 C894 1.367 . S
C895 C903 1.433 . S
C896 H892 0.929 . S
C896 C898 1.378 . S
C896 C900 1.350 . S
C897 C900 1.463 . S
C897 C902 1.350 . S
C897 N905 1.427 . S
C898 H889 0.930 . S
C898 C896 1.378 . S
C898 C899 1.367 . S
C899 C898 1.367 . S
C899 C901 1.433 . S
C900 C896 1.350 . S
C900 C897 1.463 . S
C900 N904 1.427 . S
C901 H891 0.929 . S
C901 C899 1.433 . S
C901 N904 1.384 . S
C902 H893 0.929 . S
C902 C894 1.378 . S
C902 C897 1.350 . S
C903 H890 0.929 . S
C903 C895 1.433 . S
C903 N905 1.384 . S
N904 C900 1.427 . S
N904 C901 1.384 . S
N905 C897 1.427 . S
N905 C903 1.384 . S
H906 C912 0.930 . S
H907 C916 0.930 . S
H908 C921 0.929 . S
H909 C919 0.929 . S
H910 C914 0.929 . S
H911 C920 0.929 . S
C912 H906 0.930 . S
C912 C913 1.367 . S
C912 C920 1.378 . S
C913 C912 1.367 . S
C913 C921 1.433 . S
C914 H910 0.929 . S
C914 C916 1.378 . S
C914 C918 1.350 . S
C915 C918 1.463 . S
C915 C920 1.350 . S
C915 N923 1.427 . S
C916 H907 0.930 . S
C916 C914 1.378 . S
C916 C917 1.367 . S
C917 C916 1.367 . S
C917 C919 1.433 . S
C918 C914 1.350 . S
C918 C915 1.463 . S
C918 N922 1.427 . S
C919 H909 0.929 . S
C919 C917 1.433 . S
C919 N922 1.384 . S
C920 H911 0.929 . S
C920 C912 1.378 . S
C920 C915 1.350 . S
C921 H908 0.929 . S
C921 C913 1.433 . S
C921 N923 1.384 . S
N922 C918 1.427 . S
N922 C919 1.384 . S
N923 C915 1.427 . S
N923 C921 1.384 . S
H924 C930 0.930 . S
H925 C934 0.930 . S
H926 C939 0.929 . S
H927 C937 0.929 . S
H928 C932 0.929 . S
H929 C938 0.929 . S
C930 H924 0.930 . S
C930 C931 1.367 . S
C930 C938 1.378 . S
C931 C930 1.367 . S
C931 C939 1.433 . S
C932 H928 0.929 . S
C932 C934 1.378 . S
C932 C936 1.350 . S
C933 C936 1.463 . S
C933 C938 1.350 . S
C933 N941 1.427 . S
C934 H925 0.930 . S
C934 C932 1.378 . S
C934 C935 1.367 . S
C935 C934 1.367 . S
C935 C937 1.433 . S
C936 C932 1.350 . S
C936 C933 1.463 . S
C936 N940 1.427 . S
C937 H927 0.929 . S
C937 C935 1.433 . S
C937 N940 1.384 . S
C938 H929 0.929 . S
C938 C930 1.378 . S
C938 C933 1.350 . S
C939 H926 0.929 . S
C939 C931 1.433 . S
C939 N941 1.384 . S
N940 C936 1.427 . S
N940 C937 1.384 . S
N941 C933 1.427 . S
N941 C939 1.384 . S
H942 C948 0.930 . S
H943 C952 0.930 . S
H944 C957 0.929 . S
H945 C955 0.929 . S
H946 C950 0.929 . S
H947 C956 0.929 . S
C948 H942 0.930 . S
C948 C949 1.367 . S
C948 C956 1.378 . S
C949 C948 1.367 . S
C949 C957 1.433 . S
C950 H946 0.929 . S
C950 C952 1.378 . S
C950 C954 1.350 . S
C951 C954 1.463 . S
C951 C956 1.350 . S
C951 N959 1.427 . S
C952 H943 0.930 . S
C952 C950 1.378 . S
C952 C953 1.367 . S
C953 C952 1.367 . S
C953 C955 1.433 . S
C954 C950 1.350 . S
C954 C951 1.463 . S
C954 N958 1.427 . S
C955 H945 0.929 . S
C955 C953 1.433 . S
C955 N958 1.384 . S
C956 H947 0.929 . S
C956 C948 1.378 . S
C956 C951 1.350 . S
C957 H944 0.929 . S
C957 C949 1.433 . S
C957 N959 1.384 . S
N958 C954 1.427 . S
N958 C955 1.384 . S
N959 C951 1.427 . S
N959 C957 1.384 . S
H960 C966 0.930 . S
H961 C970 0.930 . S
H962 C975 0.929 . S
H963 C973 0.929 . S
H964 C968 0.929 . S
H965 C974 0.929 . S
C966 H960 0.930 . S
C966 C967 1.367 . S
C966 C974 1.378 . S
C967 C966 1.367 . S
C967 C975 1.433 . S
C968 H964 0.929 . S
C968 C970 1.378 . S
C968 C972 1.350 . S
C969 C972 1.463 . S
C969 C974 1.350 . S
C969 N977 1.427 . S
C970 H961 0.930 . S
C970 C968 1.378 . S
C970 C971 1.367 . S
C971 C970 1.367 . S
C971 C973 1.433 . S
C972 C968 1.350 . S
C972 C969 1.463 . S
C972 N976 1.427 . S
C973 H963 0.929 . S
C973 C971 1.433 . S
C973 N976 1.384 . S
C974 H965 0.929 . S
C974 C966 1.378 . S
C974 C969 1.350 . S
C975 H962 0.929 . S
C975 C967 1.433 . S
C975 N977 1.384 . S
N976 C972 1.427 . S
N976 C973 1.384 . S
N977 C969 1.427 . S
N977 C975 1.384 . S
H978 C984 0.930 . S
H979 C988 0.930 . S
H980 C993 0.929 . S
H981 C991 0.929 . S
H982 C986 0.929 . S
H983 C992 0.929 . S
C984 H978 0.930 . S
C984 C985 1.367 . S
C984 C992 1.378 . S
C985 C984 1.367 . S
C985 C993 1.433 . S
C986 H982 0.929 . S
C986 C988 1.378 . S
C986 C990 1.350 . S
C987 C990 1.463 . S
C987 C992 1.350 . S
C987 N995 1.427 . S
C988 H979 0.930 . S
C988 C986 1.378 . S
C988 C989 1.367 . S
C989 C988 1.367 . S
C989 C991 1.433 . S
C990 C986 1.350 . S
C990 C987 1.463 . S
C990 N994 1.427 . S
C991 H981 0.929 . S
C991 C989 1.433 . S
C991 N994 1.384 . S
C992 H983 0.929 . S
C992 C984 1.378 . S
C992 C987 1.350 . S
C993 H980 0.929 . S
C993 C985 1.433 . S
C993 N995 1.384 . S
N994 C990 1.427 . S
N994 C991 1.384 . S
N995 C987 1.427 . S
N995 C993 1.384 . S
H996 C1002 0.930 . S
H997 C1006 0.930 . S
H998 C1011 0.929 . S
H999 C1009 0.929 . S
H1000 C1004 0.929 . S
H1001 C1010 0.929 . S
C1002 H996 0.930 . S
C1002 C1003 1.367 . S
C1002 C1010 1.378 . S
C1003 C1002 1.367 . S
C1003 C1011 1.433 . S
C1004 H1000 0.929 . S
C1004 C1006 1.378 . S
C1004 C1008 1.350 . S
C1005 C1008 1.463 . S
C1005 C1010 1.350 . S
C1005 N1013 1.427 . S
C1006 H997 0.930 . S
C1006 C1004 1.378 . S
C1006 C1007 1.367 . S
C1007 C1006 1.367 . S
C1007 C1009 1.433 . S
C1008 C1004 1.350 . S
C1008 C1005 1.463 . S
C1008 N1012 1.427 . S
C1009 H999 0.929 . S
C1009 C1007 1.433 . S
C1009 N1012 1.384 . S
C1010 H1001 0.929 . S
C1010 C1002 1.378 . S
C1010 C1005 1.350 . S
C1011 H998 0.929 . S
C1011 C1003 1.433 . S
C1011 N1013 1.384 . S
N1012 C1008 1.427 . S
N1012 C1009 1.384 . S
N1013 C1005 1.427 . S
N1013 C1011 1.384 . S
H1014 C1020 0.930 . S
H1015 C1024 0.930 . S
H1016 C1029 0.929 . S
H1017 C1027 0.929 . S
H1018 C1022 0.929 . S
H1019 C1028 0.929 . S
C1020 H1014 0.930 . S
C1020 C1021 1.367 . S
C1020 C1028 1.378 . S
C1021 C1020 1.367 . S
C1021 C1029 1.433 . S
C1022 H1018 0.929 . S
C1022 C1024 1.378 . S
C1022 C1026 1.350 . S
C1023 C1026 1.463 . S
C1023 C1028 1.350 . S
C1023 N1031 1.427 . S
C1024 H1015 0.930 . S
C1024 C1022 1.378 . S
C1024 C1025 1.367 . S
C1025 C1024 1.367 . S
C1025 C1027 1.433 . S
C1026 C1022 1.350 . S
C1026 C1023 1.463 . S
C1026 N1030 1.427 . S
C1027 H1017 0.929 . S
C1027 C1025 1.433 . S
C1027 N1030 1.384 . S
C1028 H1019 0.929 . S
C1028 C1020 1.378 . S
C1028 C1023 1.350 . S
C1029 H1016 0.929 . S
C1029 C1021 1.433 . S
C1029 N1031 1.384 . S
N1030 C1026 1.427 . S
N1030 C1027 1.384 . S
N1031 C1023 1.427 . S
N1031 C1029 1.384 . S
H1032 C1038 0.930 . S
H1033 C1042 0.930 . S
H1034 C1047 0.929 . S
H1035 C1045 0.929 . S
H1036 C1040 0.929 . S
H1037 C1046 0.929 . S
C1038 H1032 0.930 . S
C1038 C1039 1.367 . S
C1038 C1046 1.378 . S
C1039 C1038 1.367 . S
C1039 C1047 1.433 . S
C1040 H1036 0.929 . S
C1040 C1042 1.378 . S
C1040 C1044 1.350 . S
C1041 C1044 1.463 . S
C1041 C1046 1.350 . S
C1041 N1049 1.427 . S
C1042 H1033 0.930 . S
C1042 C1040 1.378 . S
C1042 C1043 1.367 . S
C1043 C1042 1.367 . S
C1043 C1045 1.433 . S
C1044 C1040 1.350 . S
C1044 C1041 1.463 . S
C1044 N1048 1.427 . S
C1045 H1035 0.929 . S
C1045 C1043 1.433 . S
C1045 N1048 1.384 . S
C1046 H1037 0.929 . S
C1046 C1038 1.378 . S
C1046 C1041 1.350 . S
C1047 H1034 0.929 . S
C1047 C1039 1.433 . S
C1047 N1049 1.384 . S
N1048 C1044 1.427 . S
N1048 C1045 1.384 . S
N1049 C1041 1.427 . S
N1049 C1047 1.384 . S
H1050 C1056 0.930 . S
H1051 C1060 0.930 . S
H1052 C1065 0.929 . S
H1053 C1063 0.929 . S
H1054 C1058 0.929 . S
H1055 C1064 0.929 . S
C1056 H1050 0.930 . S
C1056 C1057 1.367 . S
C1056 C1064 1.378 . S
C1057 C1056 1.367 . S
C1057 C1065 1.433 . S
C1058 H1054 0.929 . S
C1058 C1060 1.378 . S
C1058 C1062 1.350 . S
C1059 C1062 1.463 . S
C1059 C1064 1.350 . S
C1059 N1067 1.427 . S
C1060 H1051 0.930 . S
C1060 C1058 1.378 . S
C1060 C1061 1.367 . S
C1061 C1060 1.367 . S
C1061 C1063 1.433 . S
C1062 C1058 1.350 . S
C1062 C1059 1.463 . S
C1062 N1066 1.427 . S
C1063 H1053 0.929 . S
C1063 C1061 1.433 . S
C1063 N1066 1.384 . S
C1064 H1055 0.929 . S
C1064 C1056 1.378 . S
C1064 C1059 1.350 . S
C1065 H1052 0.929 . S
C1065 C1057 1.433 . S
C1065 N1067 1.384 . S
N1066 C1062 1.427 . S
N1066 C1063 1.384 . S
N1067 C1059 1.427 . S
N1067 C1065 1.384 . S
H1068 C1074 0.930 . S
H1069 C1078 0.930 . S
H1070 C1083 0.929 . S
H1071 C1081 0.929 . S
H1072 C1076 0.929 . S
H1073 C1082 0.929 . S
C1074 H1068 0.930 . S
C1074 C1075 1.367 . S
C1074 C1082 1.378 . S
C1075 C1074 1.367 . S
C1075 C1083 1.433 . S
C1076 H1072 0.929 . S
C1076 C1078 1.378 . S
C1076 C1080 1.350 . S
C1077 C1080 1.463 . S
C1077 C1082 1.350 . S
C1077 N1085 1.427 . S
C1078 H1069 0.930 . S
C1078 C1076 1.378 . S
C1078 C1079 1.367 . S
C1079 C1078 1.367 . S
C1079 C1081 1.433 . S
C1080 C1076 1.350 . S
C1080 C1077 1.463 . S
C1080 N1084 1.427 . S
C1081 H1071 0.929 . S
C1081 C1079 1.433 . S
C1081 N1084 1.384 . S
C1082 H1073 0.929 . S
C1082 C1074 1.378 . S
C1082 C1077 1.350 . S
C1083 H1070 0.929 . S
C1083 C1075 1.433 . S
C1083 N1085 1.384 . S
N1084 C1080 1.427 . S
N1084 C1081 1.384 . S
N1085 C1077 1.427 . S
N1085 C1083 1.384 . S
H1086 C1092 0.930 . S
H1087 C1096 0.930 . S
H1088 C1101 0.929 . S
H1089 C1099 0.929 . S
H1090 C1094 0.929 . S
H1091 C1100 0.929 . S
C1092 H1086 0.930 . S
C1092 C1093 1.367 . S
C1092 C1100 1.378 . S
C1093 C1092 1.367 . S
C1093 C1101 1.433 . S
C1094 H1090 0.929 . S
C1094 C1096 1.378 . S
C1094 C1098 1.350 . S
C1095 C1098 1.463 . S
C1095 C1100 1.350 . S
C1095 N1103 1.427 . S
C1096 H1087 0.930 . S
C1096 C1094 1.378 . S
C1096 C1097 1.367 . S
C1097 C1096 1.367 . S
C1097 C1099 1.433 . S
C1098 C1094 1.350 . S
C1098 C1095 1.463 . S
C1098 N1102 1.427 . S
C1099 H1089 0.929 . S
C1099 C1097 1.433 . S
C1099 N1102 1.384 . S
C1100 H1091 0.929 . S
C1100 C1092 1.378 . S
C1100 C1095 1.350 . S
C1101 H1088 0.929 . S
C1101 C1093 1.433 . S
C1101 N1103 1.384 . S
N1102 C1098 1.427 . S
N1102 C1099 1.384 . S
N1103 C1095 1.427 . S
N1103 C1101 1.384 . S
H1104 C1110 0.930 . S
H1105 C1114 0.930 . S
H1106 C1119 0.929 . S
H1107 C1117 0.929 . S
H1108 C1112 0.929 . S
H1109 C1118 0.929 . S
C1110 H1104 0.930 . S
C1110 C1111 1.367 . S
C1110 C1118 1.378 . S
C1111 C1110 1.367 . S
C1111 C1119 1.433 . S
C1112 H1108 0.929 . S
C1112 C1114 1.378 . S
C1112 C1116 1.350 . S
C1113 C1116 1.463 . S
C1113 C1118 1.350 . S
C1113 N1121 1.427 . S
C1114 H1105 0.930 . S
C1114 C1112 1.378 . S
C1114 C1115 1.367 . S
C1115 C1114 1.367 . S
C1115 C1117 1.433 . S
C1116 C1112 1.350 . S
C1116 C1113 1.463 . S
C1116 N1120 1.427 . S
C1117 H1107 0.929 . S
C1117 C1115 1.433 . S
C1117 N1120 1.384 . S
C1118 H1109 0.929 . S
C1118 C1110 1.378 . S
C1118 C1113 1.350 . S
C1119 H1106 0.929 . S
C1119 C1111 1.433 . S
C1119 N1121 1.384 . S
N1120 C1116 1.427 . S
N1120 C1117 1.384 . S
N1121 C1113 1.427 . S
N1121 C1119 1.384 . S
H1122 C1128 0.930 . S
H1123 C1132 0.930 . S
H1124 C1137 0.929 . S
H1125 C1135 0.929 . S
H1126 C1130 0.929 . S
H1127 C1136 0.929 . S
C1128 H1122 0.930 . S
C1128 C1129 1.367 . S
C1128 C1136 1.378 . S
C1129 C1128 1.367 . S
C1129 C1137 1.433 . S
C1130 H1126 0.929 . S
C1130 C1132 1.378 . S
C1130 C1134 1.350 . S
C1131 C1134 1.463 . S
C1131 C1136 1.350 . S
C1131 N1139 1.427 . S
C1132 H1123 0.930 . S
C1132 C1130 1.378 . S
C1132 C1133 1.367 . S
C1133 C1132 1.367 . S
C1133 C1135 1.433 . S
C1134 C1130 1.350 . S
C1134 C1131 1.463 . S
C1134 N1138 1.427 . S
C1135 H1125 0.929 . S
C1135 C1133 1.433 . S
C1135 N1138 1.384 . S
C1136 H1127 0.929 . S
C1136 C1128 1.378 . S
C1136 C1131 1.350 . S
C1137 H1124 0.929 . S
C1137 C1129 1.433 . S
C1137 N1139 1.384 . S
N1138 C1134 1.427 . S
N1138 C1135 1.384 . S
N1139 C1131 1.427 . S
N1139 C1137 1.384 . S
H1140 C1146 0.930 . S
H1141 C1150 0.930 . S
H1142 C1155 0.929 . S
H1143 C1153 0.929 . S
H1144 C1148 0.929 . S
H1145 C1154 0.929 . S
C1146 H1140 0.930 . S
C1146 C1147 1.367 . S
C1146 C1154 1.378 . S
C1147 C1146 1.367 . S
C1147 C1155 1.433 . S
C1148 H1144 0.929 . S
C1148 C1150 1.378 . S
C1148 C1152 1.350 . S
C1149 C1152 1.463 . S
C1149 C1154 1.350 . S
C1149 N1157 1.427 . S
C1150 H1141 0.930 . S
C1150 C1148 1.378 . S
C1150 C1151 1.367 . S
C1151 C1150 1.367 . S
C1151 C1153 1.433 . S
C1152 C1148 1.350 . S
C1152 C1149 1.463 . S
C1152 N1156 1.427 . S
C1153 H1143 0.929 . S
C1153 C1151 1.433 . S
C1153 N1156 1.384 . S
C1154 H1145 0.929 . S
C1154 C1146 1.378 . S
C1154 C1149 1.350 . S
C1155 H1142 0.929 . S
C1155 C1147 1.433 . S
C1155 N1157 1.384 . S
N1156 C1152 1.427 . S
N1156 C1153 1.384 . S
N1157 C1149 1.427 . S
N1157 C1155 1.384 . S
H1158 C1164 0.930 . S
H1159 C1168 0.930 . S
H1160 C1173 0.929 . S
H1161 C1171 0.929 . S
H1162 C1166 0.929 . S
H1163 C1172 0.929 . S
C1164 H1158 0.930 . S
C1164 C1165 1.367 . S
C1164 C1172 1.378 . S
C1165 C1164 1.367 . S
C1165 C1173 1.433 . S
C1166 H1162 0.929 . S
C1166 C1168 1.378 . S
C1166 C1170 1.350 . S
C1167 C1170 1.463 . S
C1167 C1172 1.350 . S
C1167 N1175 1.427 . S
C1168 H1159 0.930 . S
C1168 C1166 1.378 . S
C1168 C1169 1.367 . S
C1169 C1168 1.367 . S
C1169 C1171 1.433 . S
C1170 C1166 1.350 . S
C1170 C1167 1.463 . S
C1170 N1174 1.427 . S
C1171 H1161 0.929 . S
C1171 C1169 1.433 . S
C1171 N1174 1.384 . S
C1172 H1163 0.929 . S
C1172 C1164 1.378 . S
C1172 C1167 1.350 . S
C1173 H1160 0.929 . S
C1173 C1165 1.433 . S
C1173 N1175 1.384 . S
N1174 C1170 1.427 . S
N1174 C1171 1.384 . S
N1175 C1167 1.427 . S
N1175 C1173 1.384 . S
H1176 C1182 0.930 . S
H1177 C1186 0.930 . S
H1178 C1191 0.929 . S
H1179 C1189 0.929 . S
H1180 C1184 0.929 . S
H1181 C1190 0.929 . S
C1182 H1176 0.930 . S
C1182 C1183 1.367 . S
C1182 C1190 1.378 . S
C1183 C1182 1.367 . S
C1183 C1191 1.433 . S
C1184 H1180 0.929 . S
C1184 C1186 1.378 . S
C1184 C1188 1.350 . S
C1185 C1188 1.463 . S
C1185 C1190 1.350 . S
C1185 N1193 1.427 . S
C1186 H1177 0.930 . S
C1186 C1184 1.378 . S
C1186 C1187 1.367 . S
C1187 C1186 1.367 . S
C1187 C1189 1.433 . S
C1188 C1184 1.350 . S
C1188 C1185 1.463 . S
C1188 N1192 1.427 . S
C1189 H1179 0.929 . S
C1189 C1187 1.433 . S
C1189 N1192 1.384 . S
C1190 H1181 0.929 . S
C1190 C1182 1.378 . S
C1190 C1185 1.350 . S
C1191 H1178 0.929 . S
C1191 C1183 1.433 . S
C1191 N1193 1.384 . S
N1192 C1188 1.427 . S
N1192 C1189 1.384 . S
N1193 C1185 1.427 . S
N1193 C1191 1.384 . S
H1194 C1200 0.930 . S
H1195 C1204 0.930 . S
H1196 C1209 0.929 . S
H1197 C1207 0.929 . S
H1198 C1202 0.929 . S
H1199 C1208 0.929 . S
C1200 H1194 0.930 . S
C1200 C1201 1.367 . S
C1200 C1208 1.378 . S
C1201 C1200 1.367 . S
C1201 C1209 1.433 . S
C1202 H1198 0.929 . S
C1202 C1204 1.378 . S
C1202 C1206 1.350 . S
C1203 C1206 1.463 . S
C1203 C1208 1.350 . S
C1203 N1211 1.427 . S
C1204 H1195 0.930 . S
C1204 C1202 1.378 . S
C1204 C1205 1.367 . S
C1205 C1204 1.367 . S
C1205 C1207 1.433 . S
C1206 C1202 1.350 . S
C1206 C1203 1.463 . S
C1206 N1210 1.427 . S
C1207 H1197 0.929 . S
C1207 C1205 1.433 . S
C1207 N1210 1.384 . S
C1208 H1199 0.929 . S
C1208 C1200 1.378 . S
C1208 C1203 1.350 . S
C1209 H1196 0.929 . S
C1209 C1201 1.433 . S
C1209 N1211 1.384 . S
N1210 C1206 1.427 . S
N1210 C1207 1.384 . S
N1211 C1203 1.427 . S
N1211 C1209 1.384 . S
H1212 C1218 0.930 . S
H1213 C1222 0.930 . S
H1214 C1227 0.929 . S
H1215 C1225 0.929 . S
H1216 C1220 0.929 . S
H1217 C1226 0.929 . S
C1218 H1212 0.930 . S
C1218 C1219 1.367 . S
C1218 C1226 1.378 . S
C1219 C1218 1.367 . S
C1219 C1227 1.433 . S
C1220 H1216 0.929 . S
C1220 C1222 1.378 . S
C1220 C1224 1.350 . S
C1221 C1224 1.463 . S
C1221 C1226 1.350 . S
C1221 N1229 1.427 . S
C1222 H1213 0.930 . S
C1222 C1220 1.378 . S
C1222 C1223 1.367 . S
C1223 C1222 1.367 . S
C1223 C1225 1.433 . S
C1224 C1220 1.350 . S
C1224 C1221 1.463 . S
C1224 N1228 1.427 . S
C1225 H1215 0.929 . S
C1225 C1223 1.433 . S
C1225 N1228 1.384 . S
C1226 H1217 0.929 . S
C1226 C1218 1.378 . S
C1226 C1221 1.350 . S
C1227 H1214 0.929 . S
C1227 C1219 1.433 . S
C1227 N1229 1.384 . S
N1228 C1224 1.427 . S
N1228 C1225 1.384 . S
N1229 C1221 1.427 . S
N1229 C1227 1.384 . S
H1230 C1236 0.930 . S
H1231 C1240 0.930 . S
H1232 C1245 0.929 . S
H1233 C1243 0.929 . S
H1234 C1238 0.929 . S
H1235 C1244 0.929 . S
C1236 H1230 0.930 . S
C1236 C1237 1.367 . S
C1236 C1244 1.378 . S
C1237 C1236 1.367 . S
C1237 C1245 1.433 . S
C1238 H1234 0.929 . S
C1238 C1240 1.378 . S
C1238 C1242 1.350 . S
C1239 C1242 1.463 . S
C1239 C1244 1.350 . S
C1239 N1247 1.427 . S
C1240 H1231 0.930 . S
C1240 C1238 1.378 . S
C1240 C1241 1.367 . S
C1241 C1240 1.367 . S
C1241 C1243 1.433 . S
C1242 C1238 1.350 . S
C1242 C1239 1.463 . S
C1242 N1246 1.427 . S
C1243 H1233 0.929 . S
C1243 C1241 1.433 . S
C1243 N1246 1.384 . S
C1244 H1235 0.929 . S
C1244 C1236 1.378 . S
C1244 C1239 1.350 . S
C1245 H1232 0.929 . S
C1245 C1237 1.433 . S
C1245 N1247 1.384 . S
N1246 C1242 1.427 . S
N1246 C1243 1.384 . S
N1247 C1239 1.427 . S
N1247 C1245 1.384 . S
H1248 C1254 0.930 . S
H1249 C1258 0.930 . S
H1250 C1263 0.929 . S
H1251 C1261 0.929 . S
H1252 C1256 0.929 . S
H1253 C1262 0.929 . S
C1254 H1248 0.930 . S
C1254 C1255 1.367 . S
C1254 C1262 1.378 . S
C1255 C1254 1.367 . S
C1255 C1263 1.433 . S
C1256 H1252 0.929 . S
C1256 C1258 1.378 . S
C1256 C1260 1.350 . S
C1257 C1260 1.463 . S
C1257 C1262 1.350 . S
C1257 N1265 1.427 . S
C1258 H1249 0.930 . S
C1258 C1256 1.378 . S
C1258 C1259 1.367 . S
C1259 C1258 1.367 . S
C1259 C1261 1.433 . S
C1260 C1256 1.350 . S
C1260 C1257 1.463 . S
C1260 N1264 1.427 . S
C1261 H1251 0.929 . S
C1261 C1259 1.433 . S
C1261 N1264 1.384 . S
C1262 H1253 0.929 . S
C1262 C1254 1.378 . S
C1262 C1257 1.350 . S
C1263 H1250 0.929 . S
C1263 C1255 1.433 . S
C1263 N1265 1.384 . S
N1264 C1260 1.427 . S
N1264 C1261 1.384 . S
N1265 C1257 1.427 . S
N1265 C1263 1.384 . S
H1266 C1272 0.930 . S
H1267 C1276 0.930 . S
H1268 C1281 0.929 . S
H1269 C1279 0.929 . S
H1270 C1274 0.929 . S
H1271 C1280 0.929 . S
C1272 H1266 0.930 . S
C1272 C1273 1.367 . S
C1272 C1280 1.378 . S
C1273 C1272 1.367 . S
C1273 C1281 1.433 . S
C1274 H1270 0.929 . S
C1274 C1276 1.378 . S
C1274 C1278 1.350 . S
C1275 C1278 1.463 . S
C1275 C1280 1.350 . S
C1275 N1283 1.427 . S
C1276 H1267 0.930 . S
C1276 C1274 1.378 . S
C1276 C1277 1.367 . S
C1277 C1276 1.367 . S
C1277 C1279 1.433 . S
C1278 C1274 1.350 . S
C1278 C1275 1.463 . S
C1278 N1282 1.427 . S
C1279 H1269 0.929 . S
C1279 C1277 1.433 . S
C1279 N1282 1.384 . S
C1280 H1271 0.929 . S
C1280 C1272 1.378 . S
C1280 C1275 1.350 . S
C1281 H1268 0.929 . S
C1281 C1273 1.433 . S
C1281 N1283 1.384 . S
N1282 C1278 1.427 . S
N1282 C1279 1.384 . S
N1283 C1275 1.427 . S
N1283 C1281 1.384 . S
H1284 C1290 0.930 . S
H1285 C1294 0.930 . S
H1286 C1299 0.929 . S
H1287 C1297 0.929 . S
H1288 C1292 0.929 . S
H1289 C1298 0.929 . S
C1290 H1284 0.930 . S
C1290 C1291 1.367 . S
C1290 C1298 1.378 . S
C1291 C1290 1.367 . S
C1291 C1299 1.433 . S
C1292 H1288 0.929 . S
C1292 C1294 1.378 . S
C1292 C1296 1.350 . S
C1293 C1296 1.463 . S
C1293 C1298 1.350 . S
C1293 N1301 1.427 . S
C1294 H1285 0.930 . S
C1294 C1292 1.378 . S
C1294 C1295 1.367 . S
C1295 C1294 1.367 . S
C1295 C1297 1.433 . S
C1296 C1292 1.350 . S
C1296 C1293 1.463 . S
C1296 N1300 1.427 . S
C1297 H1287 0.929 . S
C1297 C1295 1.433 . S
C1297 N1300 1.384 . S
C1298 H1289 0.929 . S
C1298 C1290 1.378 . S
C1298 C1293 1.350 . S
C1299 H1286 0.929 . S
C1299 C1291 1.433 . S
C1299 N1301 1.384 . S
N1300 C1296 1.427 . S
N1300 C1297 1.384 . S
N1301 C1293 1.427 . S
N1301 C1299 1.384 . S
H1302 C1308 0.930 . S
H1303 C1312 0.930 . S
H1304 C1317 0.929 . S
H1305 C1315 0.929 . S
H1306 C1310 0.929 . S
H1307 C1316 0.929 . S
C1308 H1302 0.930 . S
C1308 C1309 1.367 . S
C1308 C1316 1.378 . S
C1309 C1308 1.367 . S
C1309 C1317 1.433 . S
C1310 H1306 0.929 . S
C1310 C1312 1.378 . S
C1310 C1314 1.350 . S
C1311 C1314 1.463 . S
C1311 C1316 1.350 . S
C1311 N1319 1.427 . S
C1312 H1303 0.930 . S
C1312 C1310 1.378 . S
C1312 C1313 1.367 . S
C1313 C1312 1.367 . S
C1313 C1315 1.433 . S
C1314 C1310 1.350 . S
C1314 C1311 1.463 . S
C1314 N1318 1.427 . S
C1315 H1305 0.929 . S
C1315 C1313 1.433 . S
C1315 N1318 1.384 . S
C1316 H1307 0.929 . S
C1316 C1308 1.378 . S
C1316 C1311 1.350 . S
C1317 H1304 0.929 . S
C1317 C1309 1.433 . S
C1317 N1319 1.384 . S
N1318 C1314 1.427 . S
N1318 C1315 1.384 . S
N1319 C1311 1.427 . S
N1319 C1317 1.384 . S
H1320 C1326 0.930 . S
H1321 C1330 0.930 . S
H1322 C1335 0.929 . S
H1323 C1333 0.929 . S
H1324 C1328 0.929 . S
H1325 C1334 0.929 . S
C1326 H1320 0.930 . S
C1326 C1327 1.367 . S
C1326 C1334 1.378 . S
C1327 C1326 1.367 . S
C1327 C1335 1.433 . S
C1328 H1324 0.929 . S
C1328 C1330 1.378 . S
C1328 C1332 1.350 . S
C1329 C1332 1.463 . S
C1329 C1334 1.350 . S
C1329 N1337 1.427 . S
C1330 H1321 0.930 . S
C1330 C1328 1.378 . S
C1330 C1331 1.367 . S
C1331 C1330 1.367 . S
C1331 C1333 1.433 . S
C1332 C1328 1.350 . S
C1332 C1329 1.463 . S
C1332 N1336 1.427 . S
C1333 H1323 0.929 . S
C1333 C1331 1.433 . S
C1333 N1336 1.384 . S
C1334 H1325 0.929 . S
C1334 C1326 1.378 . S
C1334 C1329 1.350 . S
C1335 H1322 0.929 . S
C1335 C1327 1.433 . S
C1335 N1337 1.384 . S
N1336 C1332 1.427 . S
N1336 C1333 1.384 . S
N1337 C1329 1.427 . S
N1337 C1335 1.384 . S
H1338 C1344 0.930 . S
H1339 C1348 0.930 . S
H1340 C1353 0.929 . S
H1341 C1351 0.929 . S
H1342 C1346 0.929 . S
H1343 C1352 0.929 . S
C1344 H1338 0.930 . S
C1344 C1345 1.367 . S
C1344 C1352 1.378 . S
C1345 C1344 1.367 . S
C1345 C1353 1.433 . S
C1346 H1342 0.929 . S
C1346 C1348 1.378 . S
C1346 C1350 1.350 . S
C1347 C1350 1.463 . S
C1347 C1352 1.350 . S
C1347 N1355 1.427 . S
C1348 H1339 0.930 . S
C1348 C1346 1.378 . S
C1348 C1349 1.367 . S
C1349 C1348 1.367 . S
C1349 C1351 1.433 . S
C1350 C1346 1.350 . S
C1350 C1347 1.463 . S
C1350 N1354 1.427 . S
C1351 H1341 0.929 . S
C1351 C1349 1.433 . S
C1351 N1354 1.384 . S
C1352 H1343 0.929 . S
C1352 C1344 1.378 . S
C1352 C1347 1.350 . S
C1353 H1340 0.929 . S
C1353 C1345 1.433 . S
C1353 N1355 1.384 . S
N1354 C1350 1.427 . S
N1354 C1351 1.384 . S
N1355 C1347 1.427 . S
N1355 C1353 1.384 . S
H1356 C1362 0.930 . S
H1357 C1366 0.930 . S
H1358 C1371 0.929 . S
H1359 C1369 0.929 . S
H1360 C1364 0.929 . S
H1361 C1370 0.929 . S
C1362 H1356 0.930 . S
C1362 C1363 1.367 . S
C1362 C1370 1.378 . S
C1363 C1362 1.367 . S
C1363 C1371 1.433 . S
C1364 H1360 0.929 . S
C1364 C1366 1.378 . S
C1364 C1368 1.350 . S
C1365 C1368 1.463 . S
C1365 C1370 1.350 . S
C1365 N1373 1.427 . S
C1366 H1357 0.930 . S
C1366 C1364 1.378 . S
C1366 C1367 1.367 . S
C1367 C1366 1.367 . S
C1367 C1369 1.433 . S
C1368 C1364 1.350 . S
C1368 C1365 1.463 . S
C1368 N1372 1.427 . S
C1369 H1359 0.929 . S
C1369 C1367 1.433 . S
C1369 N1372 1.384 . S
C1370 H1361 0.929 . S
C1370 C1362 1.378 . S
C1370 C1365 1.350 . S
C1371 H1358 0.929 . S
C1371 C1363 1.433 . S
C1371 N1373 1.384 . S
N1372 C1368 1.427 . S
N1372 C1369 1.384 . S
N1373 C1365 1.427 . S
N1373 C1371 1.384 . S
H1374 C1380 0.930 . S
H1375 C1384 0.930 . S
H1376 C1389 0.929 . S
H1377 C1387 0.929 . S
H1378 C1382 0.929 . S
H1379 C1388 0.929 . S
C1380 H1374 0.930 . S
C1380 C1381 1.367 . S
C1380 C1388 1.378 . S
C1381 C1380 1.367 . S
C1381 C1389 1.433 . S
C1382 H1378 0.929 . S
C1382 C1384 1.378 . S
C1382 C1386 1.350 . S
C1383 C1386 1.463 . S
C1383 C1388 1.350 . S
C1383 N1391 1.427 . S
C1384 H1375 0.930 . S
C1384 C1382 1.378 . S
C1384 C1385 1.367 . S
C1385 C1384 1.367 . S
C1385 C1387 1.433 . S
C1386 C1382 1.350 . S
C1386 C1383 1.463 . S
C1386 N1390 1.427 . S
C1387 H1377 0.929 . S
C1387 C1385 1.433 . S
C1387 N1390 1.384 . S
C1388 H1379 0.929 . S
C1388 C1380 1.378 . S
C1388 C1383 1.350 . S
C1389 H1376 0.929 . S
C1389 C1381 1.433 . S
C1389 N1391 1.384 . S
N1390 C1386 1.427 . S
N1390 C1387 1.384 . S
N1391 C1383 1.427 . S
N1391 C1389 1.384 . S
H1392 C1398 0.930 . S
H1393 C1402 0.930 . S
H1394 C1407 0.929 . S
H1395 C1405 0.929 . S
H1396 C1400 0.929 . S
H1397 C1406 0.929 . S
C1398 H1392 0.930 . S
C1398 C1399 1.367 . S
C1398 C1406 1.378 . S
C1399 C1398 1.367 . S
C1399 C1407 1.433 . S
C1400 H1396 0.929 . S
C1400 C1402 1.378 . S
C1400 C1404 1.350 . S
C1401 C1404 1.463 . S
C1401 C1406 1.350 . S
C1401 N1409 1.427 . S
C1402 H1393 0.930 . S
C1402 C1400 1.378 . S
C1402 C1403 1.367 . S
C1403 C1402 1.367 . S
C1403 C1405 1.433 . S
C1404 C1400 1.350 . S
C1404 C1401 1.463 . S
C1404 N1408 1.427 . S
C1405 H1395 0.929 . S
C1405 C1403 1.433 . S
C1405 N1408 1.384 . S
C1406 H1397 0.929 . S
C1406 C1398 1.378 . S
C1406 C1401 1.350 . S
C1407 H1394 0.929 . S
C1407 C1399 1.433 . S
C1407 N1409 1.384 . S
N1408 C1404 1.427 . S
N1408 C1405 1.384 . S
N1409 C1401 1.427 . S
N1409 C1407 1.384 . S
H1410 C1416 0.930 . S
H1411 C1420 0.930 . S
H1412 C1425 0.929 . S
H1413 C1423 0.929 . S
H1414 C1418 0.929 . S
H1415 C1424 0.929 . S
C1416 H1410 0.930 . S
C1416 C1417 1.367 . S
C1416 C1424 1.378 . S
C1417 C1416 1.367 . S
C1417 C1425 1.433 . S
C1418 H1414 0.929 . S
C1418 C1420 1.378 . S
C1418 C1422 1.350 . S
C1419 C1422 1.463 . S
C1419 C1424 1.350 . S
C1419 N1427 1.427 . S
C1420 H1411 0.930 . S
C1420 C1418 1.378 . S
C1420 C1421 1.367 . S
C1421 C1420 1.367 . S
C1421 C1423 1.433 . S
C1422 C1418 1.350 . S
C1422 C1419 1.463 . S
C1422 N1426 1.427 . S
C1423 H1413 0.929 . S
C1423 C1421 1.433 . S
C1423 N1426 1.384 . S
C1424 H1415 0.929 . S
C1424 C1416 1.378 . S
C1424 C1419 1.350 . S
C1425 H1412 0.929 . S
C1425 C1417 1.433 . S
C1425 N1427 1.384 . S
N1426 C1422 1.427 . S
N1426 C1423 1.384 . S
N1427 C1419 1.427 . S
N1427 C1425 1.384 . S
H1428 C1434 0.930 . S
H1429 C1438 0.930 . S
H1430 C1443 0.929 . S
H1431 C1441 0.929 . S
H1432 C1436 0.929 . S
H1433 C1442 0.929 . S
C1434 H1428 0.930 . S
C1434 C1435 1.367 . S
C1434 C1442 1.378 . S
C1435 C1434 1.367 . S
C1435 C1443 1.433 . S
C1436 H1432 0.929 . S
C1436 C1438 1.378 . S
C1436 C1440 1.350 . S
C1437 C1440 1.463 . S
C1437 C1442 1.350 . S
C1437 N1445 1.427 . S
C1438 H1429 0.930 . S
C1438 C1436 1.378 . S
C1438 C1439 1.367 . S
C1439 C1438 1.367 . S
C1439 C1441 1.433 . S
C1440 C1436 1.350 . S
C1440 C1437 1.463 . S
C1440 N1444 1.427 . S
C1441 H1431 0.929 . S
C1441 C1439 1.433 . S
C1441 N1444 1.384 . S
C1442 H1433 0.929 . S
C1442 C1434 1.378 . S
C1442 C1437 1.350 . S
C1443 H1430 0.929 . S
C1443 C1435 1.433 . S
C1443 N1445 1.384 . S
N1444 C1440 1.427 . S
N1444 C1441 1.384 . S
N1445 C1437 1.427 . S
N1445 C1443 1.384 . S
H1446 C1452 0.930 . S
H1447 C1456 0.930 . S
H1448 C1461 0.929 . S
H1449 C1459 0.929 . S
H1450 C1454 0.929 . S
H1451 C1460 0.929 . S
C1452 H1446 0.930 . S
C1452 C1453 1.367 . S
C1452 C1460 1.378 . S
C1453 C1452 1.367 . S
C1453 C1461 1.433 . S
C1454 H1450 0.929 . S
C1454 C1456 1.378 . S
C1454 C1458 1.350 . S
C1455 C1458 1.463 . S
C1455 C1460 1.350 . S
C1455 N1463 1.427 . S
C1456 H1447 0.930 . S
C1456 C1454 1.378 . S
C1456 C1457 1.367 . S
C1457 C1456 1.367 . S
C1457 C1459 1.433 . S
C1458 C1454 1.350 . S
C1458 C1455 1.463 . S
C1458 N1462 1.427 . S
C1459 H1449 0.929 . S
C1459 C1457 1.433 . S
C1459 N1462 1.384 . S
C1460 H1451 0.929 . S
C1460 C1452 1.378 . S
C1460 C1455 1.350 . S
C1461 H1448 0.929 . S
C1461 C1453 1.433 . S
C1461 N1463 1.384 . S
N1462 C1458 1.427 . S
N1462 C1459 1.384 . S
N1463 C1455 1.427 . S
N1463 C1461 1.384 . S
H1464 C1470 0.930 . S
H1465 C1474 0.930 . S
H1466 C1479 0.929 . S
H1467 C1477 0.929 . S
H1468 C1472 0.929 . S
H1469 C1478 0.929 . S
C1470 H1464 0.930 . S
C1470 C1471 1.367 . S
C1470 C1478 1.378 . S
C1471 C1470 1.367 . S
C1471 C1479 1.433 . S
C1472 H1468 0.929 . S
C1472 C1474 1.378 . S
C1472 C1476 1.350 . S
C1473 C1476 1.463 . S
C1473 C1478 1.350 . S
C1473 N1481 1.427 . S
C1474 H1465 0.930 . S
C1474 C1472 1.378 . S
C1474 C1475 1.367 . S
C1475 C1474 1.367 . S
C1475 C1477 1.433 . S
C1476 C1472 1.350 . S
C1476 C1473 1.463 . S
C1476 N1480 1.427 . S
C1477 H1467 0.929 . S
C1477 C1475 1.433 . S
C1477 N1480 1.384 . S
C1478 H1469 0.929 . S
C1478 C1470 1.378 . S
C1478 C1473 1.350 . S
C1479 H1466 0.929 . S
C1479 C1471 1.433 . S
C1479 N1481 1.384 . S
N1480 C1476 1.427 . S
N1480 C1477 1.384 . S
N1481 C1473 1.427 . S
N1481 C1479 1.384 . S
H1482 C1488 0.930 . S
H1483 C1492 0.930 . S
H1484 C1497 0.929 . S
H1485 C1495 0.929 . S
H1486 C1490 0.929 . S
H1487 C1496 0.929 . S
C1488 H1482 0.930 . S
C1488 C1489 1.367 . S
C1488 C1496 1.378 . S
C1489 C1488 1.367 . S
C1489 C1497 1.433 . S
C1490 H1486 0.929 . S
C1490 C1492 1.378 . S
C1490 C1494 1.350 . S
C1491 C1494 1.463 . S
C1491 C1496 1.350 . S
C1491 N1499 1.427 . S
C1492 H1483 0.930 . S
C1492 C1490 1.378 . S
C1492 C1493 1.367 . S
C1493 C1492 1.367 . S
C1493 C1495 1.433 . S
C1494 C1490 1.350 . S
C1494 C1491 1.463 . S
C1494 N1498 1.427 . S
C1495 H1485 0.929 . S
C1495 C1493 1.433 . S
C1495 N1498 1.384 . S
C1496 H1487 0.929 . S
C1496 C1488 1.378 . S
C1496 C1491 1.350 . S
C1497 H1484 0.929 . S
C1497 C1489 1.433 . S
C1497 N1499 1.384 . S
N1498 C1494 1.427 . S
N1498 C1495 1.384 . S
N1499 C1491 1.427 . S
N1499 C1497 1.384 . S
H1500 C1506 0.930 . S
H1501 C1510 0.930 . S
H1502 C1515 0.929 . S
H1503 C1513 0.929 . S
H1504 C1508 0.929 . S
H1505 C1514 0.929 . S
C1506 H1500 0.930 . S
C1506 C1507 1.367 . S
C1506 C1514 1.378 . S
C1507 C1506 1.367 . S
C1507 C1515 1.433 . S
C1508 H1504 0.929 . S
C1508 C1510 1.378 . S
C1508 C1512 1.350 . S
C1509 C1512 1.463 . S
C1509 C1514 1.350 . S
C1509 N1517 1.427 . S
C1510 H1501 0.930 . S
C1510 C1508 1.378 . S
C1510 C1511 1.367 . S
C1511 C1510 1.367 . S
C1511 C1513 1.433 . S
C1512 C1508 1.350 . S
C1512 C1509 1.463 . S
C1512 N1516 1.427 . S
C1513 H1503 0.929 . S
C1513 C1511 1.433 . S
C1513 N1516 1.384 . S
C1514 H1505 0.929 . S
C1514 C1506 1.378 . S
C1514 C1509 1.350 . S
C1515 H1502 0.929 . S
C1515 C1507 1.433 . S
C1515 N1517 1.384 . S
N1516 C1512 1.427 . S
N1516 C1513 1.384 . S
N1517 C1509 1.427 . S
N1517 C1515 1.384 . S
H1518 C1524 0.930 . S
H1519 C1528 0.930 . S
H1520 C1533 0.929 . S
H1521 C1531 0.929 . S
H1522 C1526 0.929 . S
H1523 C1532 0.929 . S
C1524 H1518 0.930 . S
C1524 C1525 1.367 . S
C1524 C1532 1.378 . S
C1525 C1524 1.367 . S
C1525 C1533 1.433 . S
C1526 H1522 0.929 . S
C1526 C1528 1.378 . S
C1526 C1530 1.350 . S
C1527 C1530 1.463 . S
C1527 C1532 1.350 . S
C1527 N1535 1.427 . S
C1528 H1519 0.930 . S
C1528 C1526 1.378 . S
C1528 C1529 1.367 . S
C1529 C1528 1.367 . S
C1529 C1531 1.433 . S
C1530 C1526 1.350 . S
C1530 C1527 1.463 . S
C1530 N1534 1.427 . S
C1531 H1521 0.929 . S
C1531 C1529 1.433 . S
C1531 N1534 1.384 . S
C1532 H1523 0.929 . S
C1532 C1524 1.378 . S
C1532 C1527 1.350 . S
C1533 H1520 0.929 . S
C1533 C1525 1.433 . S
C1533 N1535 1.384 . S
N1534 C1530 1.427 . S
N1534 C1531 1.384 . S
N1535 C1527 1.427 . S
N1535 C1533 1.384 . S
H1536 C1542 0.930 . S
H1537 C1546 0.930 . S
H1538 C1551 0.929 . S
H1539 C1549 0.929 . S
H1540 C1544 0.929 . S
H1541 C1550 0.929 . S
C1542 H1536 0.930 . S
C1542 C1543 1.367 . S
C1542 C1550 1.378 . S
C1543 C1542 1.367 . S
C1543 C1551 1.433 . S
C1544 H1540 0.929 . S
C1544 C1546 1.378 . S
C1544 C1548 1.350 . S
C1545 C1548 1.463 . S
C1545 C1550 1.350 . S
C1545 N1553 1.427 . S
C1546 H1537 0.930 . S
C1546 C1544 1.378 . S
C1546 C1547 1.367 . S
C1547 C1546 1.367 . S
C1547 C1549 1.433 . S
C1548 C1544 1.350 . S
C1548 C1545 1.463 . S
C1548 N1552 1.427 . S
C1549 H1539 0.929 . S
C1549 C1547 1.433 . S
C1549 N1552 1.384 . S
C1550 H1541 0.929 . S
C1550 C1542 1.378 . S
C1550 C1545 1.350 . S
C1551 H1538 0.929 . S
C1551 C1543 1.433 . S
C1551 N1553 1.384 . S
N1552 C1548 1.427 . S
N1552 C1549 1.384 . S
N1553 C1545 1.427 . S
N1553 C1551 1.384 . S
H1554 C1560 0.930 . S
H1555 C1564 0.930 . S
H1556 C1569 0.929 . S
H1557 C1567 0.929 . S
H1558 C1562 0.929 . S
H1559 C1568 0.929 . S
C1560 H1554 0.930 . S
C1560 C1561 1.367 . S
C1560 C1568 1.378 . S
C1561 C1560 1.367 . S
C1561 C1569 1.433 . S
C1562 H1558 0.929 . S
C1562 C1564 1.378 . S
C1562 C1566 1.350 . S
C1563 C1566 1.463 . S
C1563 C1568 1.350 . S
C1563 N1571 1.427 . S
C1564 H1555 0.930 . S
C1564 C1562 1.378 . S
C1564 C1565 1.367 . S
C1565 C1564 1.367 . S
C1565 C1567 1.433 . S
C1566 C1562 1.350 . S
C1566 C1563 1.463 . S
C1566 N1570 1.427 . S
C1567 H1557 0.929 . S
C1567 C1565 1.433 . S
C1567 N1570 1.384 . S
C1568 H1559 0.929 . S
C1568 C1560 1.378 . S
C1568 C1563 1.350 . S
C1569 H1556 0.929 . S
C1569 C1561 1.433 . S
C1569 N1571 1.384 . S
N1570 C1566 1.427 . S
N1570 C1567 1.384 . S
N1571 C1563 1.427 . S
N1571 C1569 1.384 . S
H1572 C1578 0.930 . S
H1573 C1582 0.930 . S
H1574 C1587 0.929 . S
H1575 C1585 0.929 . S
H1576 C1580 0.929 . S
H1577 C1586 0.929 . S
C1578 H1572 0.930 . S
C1578 C1579 1.367 . S
C1578 C1586 1.378 . S
C1579 C1578 1.367 . S
C1579 C1587 1.433 . S
C1580 H1576 0.929 . S
C1580 C1582 1.378 . S
C1580 C1584 1.350 . S
C1581 C1584 1.463 . S
C1581 C1586 1.350 . S
C1581 N1589 1.427 . S
C1582 H1573 0.930 . S
C1582 C1580 1.378 . S
C1582 C1583 1.367 . S
C1583 C1582 1.367 . S
C1583 C1585 1.433 . S
C1584 C1580 1.350 . S
C1584 C1581 1.463 . S
C1584 N1588 1.427 . S
C1585 H1575 0.929 . S
C1585 C1583 1.433 . S
C1585 N1588 1.384 . S
C1586 H1577 0.929 . S
C1586 C1578 1.378 . S
C1586 C1581 1.350 . S
C1587 H1574 0.929 . S
C1587 C1579 1.433 . S
C1587 N1589 1.384 . S
N1588 C1584 1.427 . S
N1588 C1585 1.384 . S
N1589 C1581 1.427 . S
N1589 C1587 1.384 . S
H1590 C1596 0.930 . S
H1591 C1600 0.930 . S
H1592 C1605 0.929 . S
H1593 C1603 0.929 . S
H1594 C1598 0.929 . S
H1595 C1604 0.929 . S
C1596 H1590 0.930 . S
C1596 C1597 1.367 . S
C1596 C1604 1.378 . S
C1597 C1596 1.367 . S
C1597 C1605 1.433 . S
C1598 H1594 0.929 . S
C1598 C1600 1.378 . S
C1598 C1602 1.350 . S
C1599 C1602 1.463 . S
C1599 C1604 1.350 . S
C1599 N1607 1.427 . S
C1600 H1591 0.930 . S
C1600 C1598 1.378 . S
C1600 C1601 1.367 . S
C1601 C1600 1.367 . S
C1601 C1603 1.433 . S
C1602 C1598 1.350 . S
C1602 C1599 1.463 . S
C1602 N1606 1.427 . S
C1603 H1593 0.929 . S
C1603 C1601 1.433 . S
C1603 N1606 1.384 . S
C1604 H1595 0.929 . S
C1604 C1596 1.378 . S
C1604 C1599 1.350 . S
C1605 H1592 0.929 . S
C1605 C1597 1.433 . S
C1605 N1607 1.384 . S
N1606 C1602 1.427 . S
N1606 C1603 1.384 . S
N1607 C1599 1.427 . S
N1607 C1605 1.384 . S
H1608 C1614 0.930 . S
H1609 C1618 0.930 . S
H1610 C1623 0.929 . S
H1611 C1621 0.929 . S
H1612 C1616 0.929 . S
H1613 C1622 0.929 . S
C1614 H1608 0.930 . S
C1614 C1615 1.367 . S
C1614 C1622 1.378 . S
C1615 C1614 1.367 . S
C1615 C1623 1.433 . S
C1616 H1612 0.929 . S
C1616 C1618 1.378 . S
C1616 C1620 1.350 . S
C1617 C1620 1.463 . S
C1617 C1622 1.350 . S
C1617 N1625 1.427 . S
C1618 H1609 0.930 . S
C1618 C1616 1.378 . S
C1618 C1619 1.367 . S
C1619 C1618 1.367 . S
C1619 C1621 1.433 . S
C1620 C1616 1.350 . S
C1620 C1617 1.463 . S
C1620 N1624 1.427 . S
C1621 H1611 0.929 . S
C1621 C1619 1.433 . S
C1621 N1624 1.384 . S
C1622 H1613 0.929 . S
C1622 C1614 1.378 . S
C1622 C1617 1.350 . S
C1623 H1610 0.929 . S
C1623 C1615 1.433 . S
C1623 N1625 1.384 . S
N1624 C1620 1.427 . S
N1624 C1621 1.384 . S
N1625 C1617 1.427 . S
N1625 C1623 1.384 . S
H1626 C1632 0.930 . S
H1627 C1636 0.930 . S
H1628 C1641 0.929 . S
H1629 C1639 0.929 . S
H1630 C1634 0.929 . S
H1631 C1640 0.929 . S
C1632 H1626 0.930 . S
C1632 C1633 1.367 . S
C1632 C1640 1.378 . S
C1633 C1632 1.367 . S
C1633 C1641 1.433 . S
C1634 H1630 0.929 . S
C1634 C1636 1.378 . S
C1634 C1638 1.350 . S
C1635 C1638 1.463 . S
C1635 C1640 1.350 . S
C1635 N1643 1.427 . S
C1636 H1627 0.930 . S
C1636 C1634 1.378 . S
C1636 C1637 1.367 . S
C1637 C1636 1.367 . S
C1637 C1639 1.433 . S
C1638 C1634 1.350 . S
C1638 C1635 1.463 . S
C1638 N1642 1.427 . S
C1639 H1629 0.929 . S
C1639 C1637 1.433 . S
C1639 N1642 1.384 . S
C1640 H1631 0.929 . S
C1640 C1632 1.378 . S
C1640 C1635 1.350 . S
C1641 H1628 0.929 . S
C1641 C1633 1.433 . S
C1641 N1643 1.384 . S
N1642 C1638 1.427 . S
N1642 C1639 1.384 . S
N1643 C1635 1.427 . S
N1643 C1641 1.384 . S
H1644 C1650 0.930 . S
H1645 C1654 0.930 . S
H1646 C1659 0.929 . S
H1647 C1657 0.929 . S
H1648 C1652 0.929 . S
H1649 C1658 0.929 . S
C1650 H1644 0.930 . S
C1650 C1651 1.367 . S
C1650 C1658 1.378 . S
C1651 C1650 1.367 . S
C1651 C1659 1.433 . S
C1652 H1648 0.929 . S
C1652 C1654 1.378 . S
C1652 C1656 1.350 . S
C1653 C1656 1.463 . S
C1653 C1658 1.350 . S
C1653 N1661 1.427 . S
C1654 H1645 0.930 . S
C1654 C1652 1.378 . S
C1654 C1655 1.367 . S
C1655 C1654 1.367 . S
C1655 C1657 1.433 . S
C1656 C1652 1.350 . S
C1656 C1653 1.463 . S
C1656 N1660 1.427 . S
C1657 H1647 0.929 . S
C1657 C1655 1.433 . S
C1657 N1660 1.384 . S
C1658 H1649 0.929 . S
C1658 C1650 1.378 . S
C1658 C1653 1.350 . S
C1659 H1646 0.929 . S
C1659 C1651 1.433 . S
C1659 N1661 1.384 . S
N1660 C1656 1.427 . S
N1660 C1657 1.384 . S
N1661 C1653 1.427 . S
N1661 C1659 1.384 . S
H1662 C1668 0.930 . S
H1663 C1672 0.930 . S
H1664 C1677 0.929 . S
H1665 C1675 0.929 . S
H1666 C1670 0.929 . S
H1667 C1676 0.929 . S
C1668 H1662 0.930 . S
C1668 C1669 1.367 . S
C1668 C1676 1.378 . S
C1669 C1668 1.367 . S
C1669 C1677 1.433 . S
C1670 H1666 0.929 . S
C1670 C1672 1.378 . S
C1670 C1674 1.350 . S
C1671 C1674 1.463 . S
C1671 C1676 1.350 . S
C1671 N1679 1.427 . S
C1672 H1663 0.930 . S
C1672 C1670 1.378 . S
C1672 C1673 1.367 . S
C1673 C1672 1.367 . S
C1673 C1675 1.433 . S
C1674 C1670 1.350 . S
C1674 C1671 1.463 . S
C1674 N1678 1.427 . S
C1675 H1665 0.929 . S
C1675 C1673 1.433 . S
C1675 N1678 1.384 . S
C1676 H1667 0.929 . S
C1676 C1668 1.378 . S
C1676 C1671 1.350 . S
C1677 H1664 0.929 . S
C1677 C1669 1.433 . S
C1677 N1679 1.384 . S
N1678 C1674 1.427 . S
N1678 C1675 1.384 . S
N1679 C1671 1.427 . S
N1679 C1677 1.384 . S
H1680 C1686 0.930 . S
H1681 C1690 0.930 . S
H1682 C1695 0.929 . S
H1683 C1693 0.929 . S
H1684 C1688 0.929 . S
H1685 C1694 0.929 . S
C1686 H1680 0.930 . S
C1686 C1687 1.367 . S
C1686 C1694 1.378 . S
C1687 C1686 1.367 . S
C1687 C1695 1.433 . S
C1688 H1684 0.929 . S
C1688 C1690 1.378 . S
C1688 C1692 1.350 . S
C1689 C1692 1.463 . S
C1689 C1694 1.350 . S
C1689 N1697 1.427 . S
C1690 H1681 0.930 . S
C1690 C1688 1.378 . S
C1690 C1691 1.367 . S
C1691 C1690 1.367 . S
C1691 C1693 1.433 . S
C1692 C1688 1.350 . S
C1692 C1689 1.463 . S
C1692 N1696 1.427 . S
C1693 H1683 0.929 . S
C1693 C1691 1.433 . S
C1693 N1696 1.384 . S
C1694 H1685 0.929 . S
C1694 C1686 1.378 . S
C1694 C1689 1.350 . S
C1695 H1682 0.929 . S
C1695 C1687 1.433 . S
C1695 N1697 1.384 . S
N1696 C1692 1.427 . S
N1696 C1693 1.384 . S
N1697 C1689 1.427 . S
N1697 C1695 1.384 . S
H1698 C1704 0.930 . S
H1699 C1708 0.930 . S
H1700 C1713 0.929 . S
H1701 C1711 0.929 . S
H1702 C1706 0.929 . S
H1703 C1712 0.929 . S
C1704 H1698 0.930 . S
C1704 C1705 1.367 . S
C1704 C1712 1.378 . S
C1705 C1704 1.367 . S
C1705 C1713 1.433 . S
C1706 H1702 0.929 . S
C1706 C1708 1.378 . S
C1706 C1710 1.350 . S
C1707 C1710 1.463 . S
C1707 C1712 1.350 . S
C1707 N1715 1.427 . S
C1708 H1699 0.930 . S
C1708 C1706 1.378 . S
C1708 C1709 1.367 . S
C1709 C1708 1.367 . S
C1709 C1711 1.433 . S
C1710 C1706 1.350 . S
C1710 C1707 1.463 . S
C1710 N1714 1.427 . S
C1711 H1701 0.929 . S
C1711 C1709 1.433 . S
C1711 N1714 1.384 . S
C1712 H1703 0.929 . S
C1712 C1704 1.378 . S
C1712 C1707 1.350 . S
C1713 H1700 0.929 . S
C1713 C1705 1.433 . S
C1713 N1715 1.384 . S
N1714 C1710 1.427 . S
N1714 C1711 1.384 . S
N1715 C1707 1.427 . S
N1715 C1713 1.384 . S
H1716 C1722 0.930 . S
H1717 C1726 0.930 . S
H1718 C1731 0.929 . S
H1719 C1729 0.929 . S
H1720 C1724 0.929 . S
H1721 C1730 0.929 . S
C1722 H1716 0.930 . S
C1722 C1723 1.367 . S
C1722 C1730 1.378 . S
C1723 C1722 1.367 . S
C1723 C1731 1.433 . S
C1724 H1720 0.929 . S
C1724 C1726 1.378 . S
C1724 C1728 1.350 . S
C1725 C1728 1.463 . S
C1725 C1730 1.350 . S
C1725 N1733 1.427 . S
C1726 H1717 0.930 . S
C1726 C1724 1.378 . S
C1726 C1727 1.367 . S
C1727 C1726 1.367 . S
C1727 C1729 1.433 . S
C1728 C1724 1.350 . S
C1728 C1725 1.463 . S
C1728 N1732 1.427 . S
C1729 H1719 0.929 . S
C1729 C1727 1.433 . S
C1729 N1732 1.384 . S
C1730 H1721 0.929 . S
C1730 C1722 1.378 . S
C1730 C1725 1.350 . S
C1731 H1718 0.929 . S
C1731 C1723 1.433 . S
C1731 N1733 1.384 . S
N1732 C1728 1.427 . S
N1732 C1729 1.384 . S
N1733 C1725 1.427 . S
N1733 C1731 1.384 . S
H1734 C1740 0.930 . S
H1735 C1744 0.930 . S
H1736 C1749 0.929 . S
H1737 C1747 0.929 . S
H1738 C1742 0.929 . S
H1739 C1748 0.929 . S
C1740 H1734 0.930 . S
C1740 C1741 1.367 . S
C1740 C1748 1.378 . S
C1741 C1740 1.367 . S
C1741 C1749 1.433 . S
C1742 H1738 0.929 . S
C1742 C1744 1.378 . S
C1742 C1746 1.350 . S
C1743 C1746 1.463 . S
C1743 C1748 1.350 . S
C1743 N1751 1.427 . S
C1744 H1735 0.930 . S
C1744 C1742 1.378 . S
C1744 C1745 1.367 . S
C1745 C1744 1.367 . S
C1745 C1747 1.433 . S
C1746 C1742 1.350 . S
C1746 C1743 1.463 . S
C1746 N1750 1.427 . S
C1747 H1737 0.929 . S
C1747 C1745 1.433 . S
C1747 N1750 1.384 . S
C1748 H1739 0.929 . S
C1748 C1740 1.378 . S
C1748 C1743 1.350 . S
C1749 H1736 0.929 . S
C1749 C1741 1.433 . S
C1749 N1751 1.384 . S
N1750 C1746 1.427 . S
N1750 C1747 1.384 . S
N1751 C1743 1.427 . S
N1751 C1749 1.384 . S
H1752 C1758 0.930 . S
H1753 C1762 0.930 . S
H1754 C1767 0.929 . S
H1755 C1765 0.929 . S
H1756 C1760 0.929 . S
H1757 C1766 0.929 . S
C1758 H1752 0.930 . S
C1758 C1759 1.367 . S
C1758 C1766 1.378 . S
C1759 C1758 1.367 . S
C1759 C1767 1.433 . S
C1760 H1756 0.929 . S
C1760 C1762 1.378 . S
C1760 C1764 1.350 . S
C1761 C1764 1.463 . S
C1761 C1766 1.350 . S
C1761 N1769 1.427 . S
C1762 H1753 0.930 . S
C1762 C1760 1.378 . S
C1762 C1763 1.367 . S
C1763 C1762 1.367 . S
C1763 C1765 1.433 . S
C1764 C1760 1.350 . S
C1764 C1761 1.463 . S
C1764 N1768 1.427 . S
C1765 H1755 0.929 . S
C1765 C1763 1.433 . S
C1765 N1768 1.384 . S
C1766 H1757 0.929 . S
C1766 C1758 1.378 . S
C1766 C1761 1.350 . S
C1767 H1754 0.929 . S
C1767 C1759 1.433 . S
C1767 N1769 1.384 . S
N1768 C1764 1.427 . S
N1768 C1765 1.384 . S
N1769 C1761 1.427 . S
N1769 C1767 1.384 . S
H1770 C1776 0.930 . S
H1771 C1780 0.930 . S
H1772 C1785 0.929 . S
H1773 C1783 0.929 . S
H1774 C1778 0.929 . S
H1775 C1784 0.929 . S
C1776 H1770 0.930 . S
C1776 C1777 1.367 . S
C1776 C1784 1.378 . S
C1777 C1776 1.367 . S
C1777 C1785 1.433 . S
C1778 H1774 0.929 . S
C1778 C1780 1.378 . S
C1778 C1782 1.350 . S
C1779 C1782 1.463 . S
C1779 C1784 1.350 . S
C1779 N1787 1.427 . S
C1780 H1771 0.930 . S
C1780 C1778 1.378 . S
C1780 C1781 1.367 . S
C1781 C1780 1.367 . S
C1781 C1783 1.433 . S
C1782 C1778 1.350 . S
C1782 C1779 1.463 . S
C1782 N1786 1.427 . S
C1783 H1773 0.929 . S
C1783 C1781 1.433 . S
C1783 N1786 1.384 . S
C1784 H1775 0.929 . S
C1784 C1776 1.378 . S
C1784 C1779 1.350 . S
C1785 H1772 0.929 . S
C1785 C1777 1.433 . S
C1785 N1787 1.384 . S
N1786 C1782 1.427 . S
N1786 C1783 1.384 . S
N1787 C1779 1.427 . S
N1787 C1785 1.384 . S
H1788 C1794 0.930 . S
H1789 C1798 0.930 . S
H1790 C1803 0.929 . S
H1791 C1801 0.929 . S
H1792 C1796 0.929 . S
H1793 C1802 0.929 . S
C1794 H1788 0.930 . S
C1794 C1795 1.367 . S
C1794 C1802 1.378 . S
C1795 C1794 1.367 . S
C1795 C1803 1.433 . S
C1796 H1792 0.929 . S
C1796 C1798 1.378 . S
C1796 C1800 1.350 . S
C1797 C1800 1.463 . S
C1797 C1802 1.350 . S
C1797 N1805 1.427 . S
C1798 H1789 0.930 . S
C1798 C1796 1.378 . S
C1798 C1799 1.367 . S
C1799 C1798 1.367 . S
C1799 C1801 1.433 . S
C1800 C1796 1.350 . S
C1800 C1797 1.463 . S
C1800 N1804 1.427 . S
C1801 H1791 0.929 . S
C1801 C1799 1.433 . S
C1801 N1804 1.384 . S
C1802 H1793 0.929 . S
C1802 C1794 1.378 . S
C1802 C1797 1.350 . S
C1803 H1790 0.929 . S
C1803 C1795 1.433 . S
C1803 N1805 1.384 . S
N1804 C1800 1.427 . S
N1804 C1801 1.384 . S
N1805 C1797 1.427 . S
N1805 C1803 1.384 . S
H1806 C1812 0.930 . S
H1807 C1816 0.930 . S
H1808 C1821 0.929 . S
H1809 C1819 0.929 . S
H1810 C1814 0.929 . S
H1811 C1820 0.929 . S
C1812 H1806 0.930 . S
C1812 C1813 1.367 . S
C1812 C1820 1.378 . S
C1813 C1812 1.367 . S
C1813 C1821 1.433 . S
C1814 H1810 0.929 . S
C1814 C1816 1.378 . S
C1814 C1818 1.350 . S
C1815 C1818 1.463 . S
C1815 C1820 1.350 . S
C1815 N1823 1.427 . S
C1816 H1807 0.930 . S
C1816 C1814 1.378 . S
C1816 C1817 1.367 . S
C1817 C1816 1.367 . S
C1817 C1819 1.433 . S
C1818 C1814 1.350 . S
C1818 C1815 1.463 . S
C1818 N1822 1.427 . S
C1819 H1809 0.929 . S
C1819 C1817 1.433 . S
C1819 N1822 1.384 . S
C1820 H1811 0.929 . S
C1820 C1812 1.378 . S
C1820 C1815 1.350 . S
C1821 H1808 0.929 . S
C1821 C1813 1.433 . S
C1821 N1823 1.384 . S
N1822 C1818 1.427 . S
N1822 C1819 1.384 . S
N1823 C1815 1.427 . S
N1823 C1821 1.384 . S
H1824 C1830 0.930 . S
H1825 C1834 0.930 . S
H1826 C1839 0.929 . S
H1827 C1837 0.929 . S
H1828 C1832 0.929 . S
H1829 C1838 0.929 . S
C1830 H1824 0.930 . S
C1830 C1831 1.367 . S
C1830 C1838 1.378 . S
C1831 C1830 1.367 . S
C1831 C1839 1.433 . S
C1832 H1828 0.929 . S
C1832 C1834 1.378 . S
C1832 C1836 1.350 . S
C1833 C1836 1.463 . S
C1833 C1838 1.350 . S
C1833 N1841 1.427 . S
C1834 H1825 0.930 . S
C1834 C1832 1.378 . S
C1834 C1835 1.367 . S
C1835 C1834 1.367 . S
C1835 C1837 1.433 . S
C1836 C1832 1.350 . S
C1836 C1833 1.463 . S
C1836 N1840 1.427 . S
C1837 H1827 0.929 . S
C1837 C1835 1.433 . S
C1837 N1840 1.384 . S
C1838 H1829 0.929 . S
C1838 C1830 1.378 . S
C1838 C1833 1.350 . S
C1839 H1826 0.929 . S
C1839 C1831 1.433 . S
C1839 N1841 1.384 . S
N1840 C1836 1.427 . S
N1840 C1837 1.384 . S
N1841 C1833 1.427 . S
N1841 C1839 1.384 . S
H1842 C1848 0.930 . S
H1843 C1852 0.930 . S
H1844 C1857 0.929 . S
H1845 C1855 0.929 . S
H1846 C1850 0.929 . S
H1847 C1856 0.929 . S
C1848 H1842 0.930 . S
C1848 C1849 1.367 . S
C1848 C1856 1.378 . S
C1849 C1848 1.367 . S
C1849 C1857 1.433 . S
C1850 H1846 0.929 . S
C1850 C1852 1.378 . S
C1850 C1854 1.350 . S
C1851 C1854 1.463 . S
C1851 C1856 1.350 . S
C1851 N1859 1.427 . S
C1852 H1843 0.930 . S
C1852 C1850 1.378 . S
C1852 C1853 1.367 . S
C1853 C1852 1.367 . S
C1853 C1855 1.433 . S
C1854 C1850 1.350 . S
C1854 C1851 1.463 . S
C1854 N1858 1.427 . S
C1855 H1845 0.929 . S
C1855 C1853 1.433 . S
C1855 N1858 1.384 . S
C1856 H1847 0.929 . S
C1856 C1848 1.378 . S
C1856 C1851 1.350 . S
C1857 H1844 0.929 . S
C1857 C1849 1.433 . S
C1857 N1859 1.384 . S
N1858 C1854 1.427 . S
N1858 C1855 1.384 . S
N1859 C1851 1.427 . S
N1859 C1857 1.384 . S
H1860 C1866 0.930 . S
H1861 C1870 0.930 . S
H1862 C1875 0.929 . S
H1863 C1873 0.929 . S
H1864 C1868 0.929 . S
H1865 C1874 0.929 . S
C1866 H1860 0.930 . S
C1866 C1867 1.367 . S
C1866 C1874 1.378 . S
C1867 C1866 1.367 . S
C1867 C1875 1.433 . S
C1868 H1864 0.929 . S
C1868 C1870 1.378 . S
C1868 C1872 1.350 . S
C1869 C1872 1.463 . S
C1869 C1874 1.350 . S
C1869 N1877 1.427 . S
C1870 H1861 0.930 . S
C1870 C1868 1.378 . S
C1870 C1871 1.367 . S
C1871 C1870 1.367 . S
C1871 C1873 1.433 . S
C1872 C1868 1.350 . S
C1872 C1869 1.463 . S
C1872 N1876 1.427 . S
C1873 H1863 0.929 . S
C1873 C1871 1.433 . S
C1873 N1876 1.384 . S
C1874 H1865 0.929 . S
C1874 C1866 1.378 . S
C1874 C1869 1.350 . S
C1875 H1862 0.929 . S
C1875 C1867 1.433 . S
C1875 N1877 1.384 . S
N1876 C1872 1.427 . S
N1876 C1873 1.384 . S
N1877 C1869 1.427 . S
N1877 C1875 1.384 . S
H1878 C1884 0.930 . S
H1879 C1888 0.930 . S
H1880 C1893 0.929 . S
H1881 C1891 0.929 . S
H1882 C1886 0.929 . S
H1883 C1892 0.929 . S
C1884 H1878 0.930 . S
C1884 C1885 1.367 . S
C1884 C1892 1.378 . S
C1885 C1884 1.367 . S
C1885 C1893 1.433 . S
C1886 H1882 0.929 . S
C1886 C1888 1.378 . S
C1886 C1890 1.350 . S
C1887 C1890 1.463 . S
C1887 C1892 1.350 . S
C1887 N1895 1.427 . S
C1888 H1879 0.930 . S
C1888 C1886 1.378 . S
C1888 C1889 1.367 . S
C1889 C1888 1.367 . S
C1889 C1891 1.433 . S
C1890 C1886 1.350 . S
C1890 C1887 1.463 . S
C1890 N1894 1.427 . S
C1891 H1881 0.929 . S
C1891 C1889 1.433 . S
C1891 N1894 1.384 . S
C1892 H1883 0.929 . S
C1892 C1884 1.378 . S
C1892 C1887 1.350 . S
C1893 H1880 0.929 . S
C1893 C1885 1.433 . S
C1893 N1895 1.384 . S
N1894 C1890 1.427 . S
N1894 C1891 1.384 . S
N1895 C1887 1.427 . S
N1895 C1893 1.384 . S
H1896 C1902 0.930 . S
H1897 C1906 0.930 . S
H1898 C1911 0.929 . S
H1899 C1909 0.929 . S
H1900 C1904 0.929 . S
H1901 C1910 0.929 . S
C1902 H1896 0.930 . S
C1902 C1903 1.367 . S
C1902 C1910 1.378 . S
C1903 C1902 1.367 . S
C1903 C1911 1.433 . S
C1904 H1900 0.929 . S
C1904 C1906 1.378 . S
C1904 C1908 1.350 . S
C1905 C1908 1.463 . S
C1905 C1910 1.350 . S
C1905 N1913 1.427 . S
C1906 H1897 0.930 . S
C1906 C1904 1.378 . S
C1906 C1907 1.367 . S
C1907 C1906 1.367 . S
C1907 C1909 1.433 . S
C1908 C1904 1.350 . S
C1908 C1905 1.463 . S
C1908 N1912 1.427 . S
C1909 H1899 0.929 . S
C1909 C1907 1.433 . S
C1909 N1912 1.384 . S
C1910 H1901 0.929 . S
C1910 C1902 1.378 . S
C1910 C1905 1.350 . S
C1911 H1898 0.929 . S
C1911 C1903 1.433 . S
C1911 N1913 1.384 . S
N1912 C1908 1.427 . S
N1912 C1909 1.384 . S
N1913 C1905 1.427 . S
N1913 C1911 1.384 . S
H1914 C1920 0.930 . S
H1915 C1924 0.930 . S
H1916 C1929 0.929 . S
H1917 C1927 0.929 . S
H1918 C1922 0.929 . S
H1919 C1928 0.929 . S
C1920 H1914 0.930 . S
C1920 C1921 1.367 . S
C1920 C1928 1.378 . S
C1921 C1920 1.367 . S
C1921 C1929 1.433 . S
C1922 H1918 0.929 . S
C1922 C1924 1.378 . S
C1922 C1926 1.350 . S
C1923 C1926 1.463 . S
C1923 C1928 1.350 . S
C1923 N1931 1.427 . S
C1924 H1915 0.930 . S
C1924 C1922 1.378 . S
C1924 C1925 1.367 . S
C1925 C1924 1.367 . S
C1925 C1927 1.433 . S
C1926 C1922 1.350 . S
C1926 C1923 1.463 . S
C1926 N1930 1.427 . S
C1927 H1917 0.929 . S
C1927 C1925 1.433 . S
C1927 N1930 1.384 . S
C1928 H1919 0.929 . S
C1928 C1920 1.378 . S
C1928 C1923 1.350 . S
C1929 H1916 0.929 . S
C1929 C1921 1.433 . S
C1929 N1931 1.384 . S
N1930 C1926 1.427 . S
N1930 C1927 1.384 . S
N1931 C1923 1.427 . S
N1931 C1929 1.384 . S
H1932 C1938 0.930 . S
H1933 C1942 0.930 . S
H1934 C1947 0.929 . S
H1935 C1945 0.929 . S
H1936 C1940 0.929 . S
H1937 C1946 0.929 . S
C1938 H1932 0.930 . S
C1938 C1939 1.367 . S
C1938 C1946 1.378 . S
C1939 C1938 1.367 . S
C1939 C1947 1.433 . S
C1940 H1936 0.929 . S
C1940 C1942 1.378 . S
C1940 C1944 1.350 . S
C1941 C1944 1.463 . S
C1941 C1946 1.350 . S
C1941 N1949 1.427 . S
C1942 H1933 0.930 . S
C1942 C1940 1.378 . S
C1942 C1943 1.367 . S
C1943 C1942 1.367 . S
C1943 C1945 1.433 . S
C1944 C1940 1.350 . S
C1944 C1941 1.463 . S
C1944 N1948 1.427 . S
C1945 H1935 0.929 . S
C1945 C1943 1.433 . S
C1945 N1948 1.384 . S
C1946 H1937 0.929 . S
C1946 C1938 1.378 . S
C1946 C1941 1.350 . S
C1947 H1934 0.929 . S
C1947 C1939 1.433 . S
C1947 N1949 1.384 . S
N1948 C1944 1.427 . S
N1948 C1945 1.384 . S
N1949 C1941 1.427 . S
N1949 C1947 1.384 . S
H1950 C1956 0.930 . S
H1951 C1960 0.930 . S
H1952 C1965 0.929 . S
H1953 C1963 0.929 . S
H1954 C1958 0.929 . S
H1955 C1964 0.929 . S
C1956 H1950 0.930 . S
C1956 C1957 1.367 . S
C1956 C1964 1.378 . S
C1957 C1956 1.367 . S
C1957 C1965 1.433 . S
C1958 H1954 0.929 . S
C1958 C1960 1.378 . S
C1958 C1962 1.350 . S
C1959 C1962 1.463 . S
C1959 C1964 1.350 . S
C1959 N1967 1.427 . S
C1960 H1951 0.930 . S
C1960 C1958 1.378 . S
C1960 C1961 1.367 . S
C1961 C1960 1.367 . S
C1961 C1963 1.433 . S
C1962 C1958 1.350 . S
C1962 C1959 1.463 . S
C1962 N1966 1.427 . S
C1963 H1953 0.929 . S
C1963 C1961 1.433 . S
C1963 N1966 1.384 . S
C1964 H1955 0.929 . S
C1964 C1956 1.378 . S
C1964 C1959 1.350 . S
C1965 H1952 0.929 . S
C1965 C1957 1.433 . S
C1965 N1967 1.384 . S
N1966 C1962 1.427 . S
N1966 C1963 1.384 . S
N1967 C1959 1.427 . S
N1967 C1965 1.384 . S
H1968 C1974 0.930 . S
H1969 C1978 0.930 . S
H1970 C1983 0.929 . S
H1971 C1981 0.929 . S
H1972 C1976 0.929 . S
H1973 C1982 0.929 . S
C1974 H1968 0.930 . S
C1974 C1975 1.367 . S
C1974 C1982 1.378 . S
C1975 C1974 1.367 . S
C1975 C1983 1.433 . S
C1976 H1972 0.929 . S
C1976 C1978 1.378 . S
C1976 C1980 1.350 . S
C1977 C1980 1.463 1_554 S
C1977 C1982 1.350 . S
C1977 N1985 1.427 . S
C1978 H1969 0.930 . S
C1978 C1976 1.378 . S
C1978 C1979 1.367 . S
C1979 C1978 1.367 . S
C1979 C1981 1.433 . S
C1980 C1976 1.350 . S
C1980 C1977 1.463 1_556 S
C1980 N1984 1.427 . S
C1981 H1971 0.929 . S
C1981 C1979 1.433 . S
C1981 N1984 1.384 . S
C1982 H1973 0.929 . S
C1982 C1974 1.378 . S
C1982 C1977 1.350 . S
C1983 H1970 0.929 . S
C1983 C1975 1.433 . S
C1983 N1985 1.384 . S
N1984 C1980 1.427 . S
N1984 C1981 1.384 . S
N1985 C1977 1.427 . S
N1985 C1983 1.384 . S
H1986 C1992 0.930 . S
H1987 C1996 0.930 . S
H1988 C2001 0.929 . S
H1989 C1999 0.929 . S
H1990 C1994 0.929 . S
H1991 C2000 0.929 . S
C1992 H1986 0.930 . S
C1992 C1993 1.367 . S
C1992 C2000 1.378 . S
C1993 C1992 1.367 . S
C1993 C2001 1.433 . S
C1994 H1990 0.929 . S
C1994 C1996 1.378 . S
C1994 C1998 1.350 . S
C1995 C1998 1.463 1_556 S
C1995 C2000 1.350 . S
C1995 N2003 1.427 . S
C1996 H1987 0.930 . S
C1996 C1994 1.378 . S
C1996 C1997 1.367 . S
C1997 C1996 1.367 . S
C1997 C1999 1.433 . S
C1998 C1994 1.350 . S
C1998 C1995 1.463 1_554 S
C1998 N2002 1.427 . S
C1999 H1989 0.929 . S
C1999 C1997 1.433 . S
C1999 N2002 1.384 . S
C2000 H1991 0.929 . S
C2000 C1992 1.378 . S
C2000 C1995 1.350 . S
C2001 H1988 0.929 . S
C2001 C1993 1.433 . S
C2001 N2003 1.384 . S
N2002 C1998 1.427 . S
N2002 C1999 1.384 . S
N2003 C1995 1.427 . S
N2003 C2001 1.384 . S
H2004 C2010 0.930 . S
H2005 C2014 0.930 . S
H2006 C2019 0.929 . S
H2007 C2017 0.929 . S
H2008 C2012 0.929 . S
H2009 C2018 0.929 . S
C2010 H2004 0.930 . S
C2010 C2011 1.367 . S
C2010 C2018 1.378 . S
C2011 C2010 1.367 . S
C2011 C2019 1.433 . S
C2012 H2008 0.929 . S
C2012 C2014 1.378 . S
C2012 C2016 1.350 . S
C2013 C2016 1.463 1_554 S
C2013 C2018 1.350 . S
C2013 N2021 1.427 . S
C2014 H2005 0.930 . S
C2014 C2012 1.378 . S
C2014 C2015 1.367 . S
C2015 C2014 1.367 . S
C2015 C2017 1.433 . S
C2016 C2012 1.350 . S
C2016 C2013 1.463 1_556 S
C2016 N2020 1.427 . S
C2017 H2007 0.929 . S
C2017 C2015 1.433 . S
C2017 N2020 1.384 . S
C2018 H2009 0.929 . S
C2018 C2010 1.378 . S
C2018 C2013 1.350 . S
C2019 H2006 0.929 . S
C2019 C2011 1.433 . S
C2019 N2021 1.384 . S
N2020 C2016 1.427 . S
N2020 C2017 1.384 . S
N2021 C2013 1.427 . S
N2021 C2019 1.384 . S
H2022 C2028 0.930 . S
H2023 C2032 0.930 . S
H2024 C2037 0.929 . S
H2025 C2035 0.929 . S
H2026 C2030 0.929 . S
H2027 C2036 0.929 . S
C2028 H2022 0.930 . S
C2028 C2029 1.367 . S
C2028 C2036 1.378 . S
C2029 C2028 1.367 . S
C2029 C2037 1.433 . S
C2030 H2026 0.929 . S
C2030 C2032 1.378 . S
C2030 C2034 1.350 . S
C2031 C2034 1.463 1_554 S
C2031 C2036 1.350 . S
C2031 N2039 1.427 . S
C2032 H2023 0.930 . S
C2032 C2030 1.378 . S
C2032 C2033 1.367 . S
C2033 C2032 1.367 . S
C2033 C2035 1.433 . S
C2034 C2030 1.350 . S
C2034 C2031 1.463 1_556 S
C2034 N2038 1.427 . S
C2035 H2025 0.929 . S
C2035 C2033 1.433 . S
C2035 N2038 1.384 . S
C2036 H2027 0.929 . S
C2036 C2028 1.378 . S
C2036 C2031 1.350 . S
C2037 H2024 0.929 . S
C2037 C2029 1.433 . S
C2037 N2039 1.384 . S
N2038 C2034 1.427 . S
N2038 C2035 1.384 . S
N2039 C2031 1.427 . S
N2039 C2037 1.384 . S
H2040 C2046 0.930 . S
H2041 C2050 0.930 . S
H2042 C2055 0.929 . S
H2043 C2053 0.929 . S
H2044 C2048 0.929 . S
H2045 C2054 0.929 . S
C2046 H2040 0.930 . S
C2046 C2047 1.367 . S
C2046 C2054 1.378 . S
C2047 C2046 1.367 . S
C2047 C2055 1.433 . S
C2048 H2044 0.929 . S
C2048 C2050 1.378 . S
C2048 C2052 1.350 . S
C2049 C2052 1.463 1_556 S
C2049 C2054 1.350 . S
C2049 N2057 1.427 . S
C2050 H2041 0.930 . S
C2050 C2048 1.378 . S
C2050 C2051 1.367 . S
C2051 C2050 1.367 . S
C2051 C2053 1.433 . S
C2052 C2048 1.350 . S
C2052 C2049 1.463 1_554 S
C2052 N2056 1.427 . S
C2053 H2043 0.929 . S
C2053 C2051 1.433 . S
C2053 N2056 1.384 . S
C2054 H2045 0.929 . S
C2054 C2046 1.378 . S
C2054 C2049 1.350 . S
C2055 H2042 0.929 . S
C2055 C2047 1.433 . S
C2055 N2057 1.384 . S
N2056 C2052 1.427 . S
N2056 C2053 1.384 . S
N2057 C2049 1.427 . S
N2057 C2055 1.384 . S
H2058 C2064 0.930 . S
H2059 C2068 0.930 . S
H2060 C2073 0.929 . S
H2061 C2071 0.929 . S
H2062 C2066 0.929 . S
H2063 C2072 0.929 . S
C2064 H2058 0.930 . S
C2064 C2065 1.367 . S
C2064 C2072 1.378 . S
C2065 C2064 1.367 . S
C2065 C2073 1.433 . S
C2066 H2062 0.929 . S
C2066 C2068 1.378 . S
C2066 C2070 1.350 . S
C2067 C2070 1.463 1_554 S
C2067 C2072 1.350 . S
C2067 N2075 1.427 . S
C2068 H2059 0.930 . S
C2068 C2066 1.378 . S
C2068 C2069 1.367 . S
C2069 C2068 1.367 . S
C2069 C2071 1.433 . S
C2070 C2066 1.350 . S
C2070 C2067 1.463 1_556 S
C2070 N2074 1.427 . S
C2071 H2061 0.929 . S
C2071 C2069 1.433 . S
C2071 N2074 1.384 . S
C2072 H2063 0.929 . S
C2072 C2064 1.378 . S
C2072 C2067 1.350 . S
C2073 H2060 0.929 . S
C2073 C2065 1.433 . S
C2073 N2075 1.384 . S
N2074 C2070 1.427 . S
N2074 C2071 1.384 . S
N2075 C2067 1.427 . S
N2075 C2073 1.384 . S
H2076 C2082 0.930 . S
H2077 C2086 0.930 . S
H2078 C2091 0.929 . S
H2079 C2089 0.929 . S
H2080 C2084 0.929 . S
H2081 C2090 0.929 . S
C2082 H2076 0.930 . S
C2082 C2083 1.367 . S
C2082 C2090 1.378 . S
C2083 C2082 1.367 . S
C2083 C2091 1.433 . S
C2084 H2080 0.929 . S
C2084 C2086 1.378 . S
C2084 C2088 1.350 . S
C2085 C2088 1.463 1_556 S
C2085 C2090 1.350 . S
C2085 N2093 1.427 . S
C2086 H2077 0.930 . S
C2086 C2084 1.378 . S
C2086 C2087 1.367 . S
C2087 C2086 1.367 . S
C2087 C2089 1.433 . S
C2088 C2084 1.350 . S
C2088 C2085 1.463 1_554 S
C2088 N2092 1.427 . S
C2089 H2079 0.929 . S
C2089 C2087 1.433 . S
C2089 N2092 1.384 . S
C2090 H2081 0.929 . S
C2090 C2082 1.378 . S
C2090 C2085 1.350 . S
C2091 H2078 0.929 . S
C2091 C2083 1.433 . S
C2091 N2093 1.384 . S
N2092 C2088 1.427 . S
N2092 C2089 1.384 . S
N2093 C2085 1.427 . S
N2093 C2091 1.384 . S
H2094 C2100 0.930 . S
H2095 C2104 0.930 . S
H2096 C2109 0.929 . S
H2097 C2107 0.929 . S
H2098 C2102 0.929 . S
H2099 C2108 0.929 . S
C2100 H2094 0.930 . S
C2100 C2101 1.367 . S
C2100 C2108 1.378 . S
C2101 C2100 1.367 . S
C2101 C2109 1.433 . S
C2102 H2098 0.929 . S
C2102 C2104 1.378 . S
C2102 C2106 1.350 . S
C2103 C2106 1.463 1_554 S
C2103 C2108 1.350 . S
C2103 N2111 1.427 . S
C2104 H2095 0.930 . S
C2104 C2102 1.378 . S
C2104 C2105 1.367 . S
C2105 C2104 1.367 . S
C2105 C2107 1.433 . S
C2106 C2102 1.350 . S
C2106 C2103 1.463 1_556 S
C2106 N2110 1.427 . S
C2107 H2097 0.929 . S
C2107 C2105 1.433 . S
C2107 N2110 1.384 . S
C2108 H2099 0.929 . S
C2108 C2100 1.378 . S
C2108 C2103 1.350 . S
C2109 H2096 0.929 . S
C2109 C2101 1.433 . S
C2109 N2111 1.384 . S
N2110 C2106 1.427 . S
N2110 C2107 1.384 . S
N2111 C2103 1.427 . S
N2111 C2109 1.384 . S
H2112 C2118 0.930 . S
H2113 C2122 0.930 . S
H2114 C2127 0.929 . S
H2115 C2125 0.929 . S
H2116 C2120 0.929 . S
H2117 C2126 0.929 . S
C2118 H2112 0.930 . S
C2118 C2119 1.367 . S
C2118 C2126 1.378 . S
C2119 C2118 1.367 . S
C2119 C2127 1.433 . S
C2120 H2116 0.929 . S
C2120 C2122 1.378 . S
C2120 C2124 1.350 . S
C2121 C2124 1.463 1_455 S
C2121 C2126 1.350 . S
C2121 N2129 1.427 . S
C2122 H2113 0.930 . S
C2122 C2120 1.378 . S
C2122 C2123 1.367 . S
C2123 C2122 1.367 . S
C2123 C2125 1.433 . S
C2124 C2120 1.350 . S
C2124 C2121 1.463 1_655 S
C2124 N2128 1.427 . S
C2125 H2115 0.929 . S
C2125 C2123 1.433 . S
C2125 N2128 1.384 . S
C2126 H2117 0.929 . S
C2126 C2118 1.378 . S
C2126 C2121 1.350 . S
C2127 H2114 0.929 . S
C2127 C2119 1.433 . S
C2127 N2129 1.384 . S
N2128 C2124 1.427 . S
N2128 C2125 1.384 . S
N2129 C2121 1.427 . S
N2129 C2127 1.384 . S
H2130 C2136 0.930 . S
H2131 C2140 0.930 . S
H2132 C2145 0.929 . S
H2133 C2143 0.929 . S
H2134 C2138 0.929 . S
H2135 C2144 0.929 . S
C2136 H2130 0.930 . S
C2136 C2137 1.367 . S
C2136 C2144 1.378 . S
C2137 C2136 1.367 . S
C2137 C2145 1.433 . S
C2138 H2134 0.929 . S
C2138 C2140 1.378 . S
C2138 C2142 1.350 . S
C2139 C2142 1.463 1_565 S
C2139 C2144 1.350 . S
C2139 N2147 1.427 . S
C2140 H2131 0.930 . S
C2140 C2138 1.378 . S
C2140 C2141 1.367 . S
C2141 C2140 1.367 . S
C2141 C2143 1.433 . S
C2142 C2138 1.350 . S
C2142 C2139 1.463 1_545 S
C2142 N2146 1.427 . S
C2143 H2133 0.929 . S
C2143 C2141 1.433 . S
C2143 N2146 1.384 . S
C2144 H2135 0.929 . S
C2144 C2136 1.378 . S
C2144 C2139 1.350 . S
C2145 H2132 0.929 . S
C2145 C2137 1.433 . S
C2145 N2147 1.384 . S
N2146 C2142 1.427 . S
N2146 C2143 1.384 . S
N2147 C2139 1.427 . S
N2147 C2145 1.384 . S
H2148 C2154 0.930 . S
H2149 C2158 0.930 . S
H2150 C2163 0.929 . S
H2151 C2161 0.929 . S
H2152 C2156 0.929 . S
H2153 C2162 0.929 . S
C2154 H2148 0.930 . S
C2154 C2155 1.367 . S
C2154 C2162 1.378 . S
C2155 C2154 1.367 . S
C2155 C2163 1.433 . S
C2156 H2152 0.929 . S
C2156 C2158 1.378 . S
C2156 C2160 1.350 . S
C2157 C2160 1.463 1_455 S
C2157 C2162 1.350 . S
C2157 N2165 1.427 . S
C2158 H2149 0.930 . S
C2158 C2156 1.378 . S
C2158 C2159 1.367 . S
C2159 C2158 1.367 . S
C2159 C2161 1.433 . S
C2160 C2156 1.350 . S
C2160 C2157 1.463 1_655 S
C2160 N2164 1.427 . S
C2161 H2151 0.929 . S
C2161 C2159 1.433 . S
C2161 N2164 1.384 . S
C2162 H2153 0.929 . S
C2162 C2154 1.378 . S
C2162 C2157 1.350 . S
C2163 H2150 0.929 . S
C2163 C2155 1.433 . S
C2163 N2165 1.384 . S
N2164 C2160 1.427 . S
N2164 C2161 1.384 . S
N2165 C2157 1.427 . S
N2165 C2163 1.384 . S
H2166 C2172 0.930 . S
H2167 C2176 0.930 . S
H2168 C2181 0.929 . S
H2169 C2179 0.929 . S
H2170 C2174 0.929 . S
H2171 C2180 0.929 . S
C2172 H2166 0.930 . S
C2172 C2173 1.367 . S
C2172 C2180 1.378 . S
C2173 C2172 1.367 . S
C2173 C2181 1.433 . S
C2174 H2170 0.929 . S
C2174 C2176 1.378 . S
C2174 C2178 1.350 . S
C2175 C2178 1.463 1_565 S
C2175 C2180 1.350 . S
C2175 N2183 1.427 . S
C2176 H2167 0.930 . S
C2176 C2174 1.378 . S
C2176 C2177 1.367 . S
C2177 C2176 1.367 . S
C2177 C2179 1.433 . S
C2178 C2174 1.350 . S
C2178 C2175 1.463 1_545 S
C2178 N2182 1.427 . S
C2179 H2169 0.929 . S
C2179 C2177 1.433 . S
C2179 N2182 1.384 . S
C2180 H2171 0.929 . S
C2180 C2172 1.378 . S
C2180 C2175 1.350 . S
C2181 H2168 0.929 . S
C2181 C2173 1.433 . S
C2181 N2183 1.384 . S
N2182 C2178 1.427 . S
N2182 C2179 1.384 . S
N2183 C2175 1.427 . S
N2183 C2181 1.384 . S
H2184 C2190 0.930 . S
H2185 C2194 0.930 . S
H2186 C2199 0.929 . S
H2187 C2197 0.929 . S
H2188 C2192 0.929 . S
H2189 C2198 0.929 . S
C2190 H2184 0.930 . S
C2190 C2191 1.367 . S
C2190 C2198 1.378 . S
C2191 C2190 1.367 . S
C2191 C2199 1.433 . S
C2192 H2188 0.929 . S
C2192 C2194 1.378 . S
C2192 C2196 1.350 . S
C2193 C2196 1.463 1_655 S
C2193 C2198 1.350 . S
C2193 N2201 1.427 . S
C2194 H2185 0.930 . S
C2194 C2192 1.378 . S
C2194 C2195 1.367 . S
C2195 C2194 1.367 . S
C2195 C2197 1.433 . S
C2196 C2192 1.350 . S
C2196 C2193 1.463 1_455 S
C2196 N2200 1.427 . S
C2197 H2187 0.929 . S
C2197 C2195 1.433 . S
C2197 N2200 1.384 . S
C2198 H2189 0.929 . S
C2198 C2190 1.378 . S
C2198 C2193 1.350 . S
C2199 H2186 0.929 . S
C2199 C2191 1.433 . S
C2199 N2201 1.384 . S
N2200 C2196 1.427 . S
N2200 C2197 1.384 . S
N2201 C2193 1.427 . S
N2201 C2199 1.384 . S
H2202 C2208 0.930 . S
H2203 C2212 0.930 . S
H2204 C2217 0.929 . S
H2205 C2215 0.929 . S
H2206 C2210 0.929 . S
H2207 C2216 0.929 . S
C2208 H2202 0.930 . S
C2208 C2209 1.367 . S
C2208 C2216 1.378 . S
C2209 C2208 1.367 . S
C2209 C2217 1.433 . S
C2210 H2206 0.929 . S
C2210 C2212 1.378 . S
C2210 C2214 1.350 . S
C2211 C2214 1.463 1_545 S
C2211 C2216 1.350 . S
C2211 N2219 1.427 . S
C2212 H2203 0.930 . S
C2212 C2210 1.378 . S
C2212 C2213 1.367 . S
C2213 C2212 1.367 . S
C2213 C2215 1.433 . S
C2214 C2210 1.350 . S
C2214 C2211 1.463 1_565 S
C2214 N2218 1.427 . S
C2215 H2205 0.929 . S
C2215 C2213 1.433 . S
C2215 N2218 1.384 . S
C2216 H2207 0.929 . S
C2216 C2208 1.378 . S
C2216 C2211 1.350 . S
C2217 H2204 0.929 . S
C2217 C2209 1.433 . S
C2217 N2219 1.384 . S
N2218 C2214 1.427 . S
N2218 C2215 1.384 . S
N2219 C2211 1.427 . S
N2219 C2217 1.384 . S
H2220 C2226 0.930 . S
H2221 C2230 0.930 . S
H2222 C2235 0.929 . S
H2223 C2233 0.929 . S
H2224 C2228 0.929 . S
H2225 C2234 0.929 . S
C2226 H2220 0.930 . S
C2226 C2227 1.367 . S
C2226 C2234 1.378 . S
C2227 C2226 1.367 . S
C2227 C2235 1.433 . S
C2228 H2224 0.929 . S
C2228 C2230 1.378 . S
C2228 C2232 1.350 . S
C2229 C2232 1.463 1_455 S
C2229 C2234 1.350 . S
C2229 N2237 1.427 . S
C2230 H2221 0.930 . S
C2230 C2228 1.378 . S
C2230 C2231 1.367 . S
C2231 C2230 1.367 . S
C2231 C2233 1.433 . S
C2232 C2228 1.350 . S
C2232 C2229 1.463 1_655 S
C2232 N2236 1.427 . S
C2233 H2223 0.929 . S
C2233 C2231 1.433 . S
C2233 N2236 1.384 . S
C2234 H2225 0.929 . S
C2234 C2226 1.378 . S
C2234 C2229 1.350 . S
C2235 H2222 0.929 . S
C2235 C2227 1.433 . S
C2235 N2237 1.384 . S
N2236 C2232 1.427 . S
N2236 C2233 1.384 . S
N2237 C2229 1.427 . S
N2237 C2235 1.384 . S
H2238 C2244 0.930 . S
H2239 C2248 0.930 . S
H2240 C2253 0.929 . S
H2241 C2251 0.929 . S
H2242 C2246 0.929 . S
H2243 C2252 0.929 . S
C2244 H2238 0.930 . S
C2244 C2245 1.367 . S
C2244 C2252 1.378 . S
C2245 C2244 1.367 . S
C2245 C2253 1.433 . S
C2246 H2242 0.929 . S
C2246 C2248 1.378 . S
C2246 C2250 1.350 . S
C2247 C2250 1.463 1_545 S
C2247 C2252 1.350 . S
C2247 N2255 1.427 . S
C2248 H2239 0.930 . S
C2248 C2246 1.378 . S
C2248 C2249 1.367 . S
C2249 C2248 1.367 . S
C2249 C2251 1.433 . S
C2250 C2246 1.350 . S
C2250 C2247 1.463 1_565 S
C2250 N2254 1.427 . S
C2251 H2241 0.929 . S
C2251 C2249 1.433 . S
C2251 N2254 1.384 . S
C2252 H2243 0.929 . S
C2252 C2244 1.378 . S
C2252 C2247 1.350 . S
C2253 H2240 0.929 . S
C2253 C2245 1.433 . S
C2253 N2255 1.384 . S
N2254 C2250 1.427 . S
N2254 C2251 1.384 . S
N2255 C2247 1.427 . S
N2255 C2253 1.384 . S
H2256 C2262 0.930 . S
H2257 C2266 0.930 . S
H2258 C2271 0.929 . S
H2259 C2269 0.929 . S
H2260 C2264 0.929 . S
H2261 C2270 0.929 . S
C2262 H2256 0.930 . S
C2262 C2263 1.367 . S
C2262 C2270 1.378 . S
C2263 C2262 1.367 . S
C2263 C2271 1.433 . S
C2264 H2260 0.929 . S
C2264 C2266 1.378 . S
C2264 C2268 1.350 . S
C2265 C2268 1.463 1_545 S
C2265 C2270 1.350 . S
C2265 N2273 1.427 . S
C2266 H2257 0.930 . S
C2266 C2264 1.378 . S
C2266 C2267 1.367 . S
C2267 C2266 1.367 . S
C2267 C2269 1.433 . S
C2268 C2264 1.350 . S
C2268 C2265 1.463 1_565 S
C2268 N2272 1.427 . S
C2269 H2259 0.929 . S
C2269 C2267 1.433 . S
C2269 N2272 1.384 . S
C2270 H2261 0.929 . S
C2270 C2262 1.378 . S
C2270 C2265 1.350 . S
C2271 H2258 0.929 . S
C2271 C2263 1.433 . S
C2271 N2273 1.384 . S
N2272 C2268 1.427 . S
N2272 C2269 1.384 . S
N2273 C2265 1.427 . S
N2273 C2271 1.384 . S
H2274 C2280 0.930 . S
H2275 C2284 0.930 . S
H2276 C2289 0.929 . S
H2277 C2287 0.929 . S
H2278 C2282 0.929 . S
H2279 C2288 0.929 . S
C2280 H2274 0.930 . S
C2280 C2281 1.367 . S
C2280 C2288 1.378 . S
C2281 C2280 1.367 . S
C2281 C2289 1.433 . S
C2282 H2278 0.929 . S
C2282 C2284 1.378 . S
C2282 C2286 1.350 . S
C2283 C2286 1.463 1_545 S
C2283 C2288 1.350 . S
C2283 N2291 1.427 . S
C2284 H2275 0.930 . S
C2284 C2282 1.378 . S
C2284 C2285 1.367 . S
C2285 C2284 1.367 . S
C2285 C2287 1.433 . S
C2286 C2282 1.350 . S
C2286 C2283 1.463 1_565 S
C2286 N2290 1.427 . S
C2287 H2277 0.929 . S
C2287 C2285 1.433 . S
C2287 N2290 1.384 . S
C2288 H2279 0.929 . S
C2288 C2280 1.378 . S
C2288 C2283 1.350 . S
C2289 H2276 0.929 . S
C2289 C2281 1.433 . S
C2289 N2291 1.384 . S
N2290 C2286 1.427 . S
N2290 C2287 1.384 . S
N2291 C2283 1.427 . S
N2291 C2289 1.384 . S
H2292 C2298 0.930 . S
H2293 C2302 0.930 . S
H2294 C2307 0.929 . S
H2295 C2305 0.929 . S
H2296 C2300 0.929 . S
H2297 C2306 0.929 . S
C2298 H2292 0.930 . S
C2298 C2299 1.367 . S
C2298 C2306 1.378 . S
C2299 C2298 1.367 . S
C2299 C2307 1.433 . S
C2300 H2296 0.929 . S
C2300 C2302 1.378 . S
C2300 C2304 1.350 . S
C2301 C2304 1.463 1_655 S
C2301 C2306 1.350 . S
C2301 N2309 1.427 . S
C2302 H2293 0.930 . S
C2302 C2300 1.378 . S
C2302 C2303 1.367 . S
C2303 C2302 1.367 . S
C2303 C2305 1.433 . S
C2304 C2300 1.350 . S
C2304 C2301 1.463 1_455 S
C2304 N2308 1.427 . S
C2305 H2295 0.929 . S
C2305 C2303 1.433 . S
C2305 N2308 1.384 . S
C2306 H2297 0.929 . S
C2306 C2298 1.378 . S
C2306 C2301 1.350 . S
C2307 H2294 0.929 . S
C2307 C2299 1.433 . S
C2307 N2309 1.384 . S
N2308 C2304 1.427 . S
N2308 C2305 1.384 . S
N2309 C2301 1.427 . S
N2309 C2307 1.384 . S
H2310 C2316 0.930 . S
H2311 C2320 0.930 . S
H2312 C2325 0.929 . S
H2313 C2323 0.929 . S
H2314 C2318 0.929 . S
H2315 C2324 0.929 . S
C2316 H2310 0.930 . S
C2316 C2317 1.367 . S
C2316 C2324 1.378 . S
C2317 C2316 1.367 . S
C2317 C2325 1.433 . S
C2318 H2314 0.929 . S
C2318 C2320 1.378 . S
C2318 C2322 1.350 . S
C2319 C2322 1.463 1_545 S
C2319 C2324 1.350 . S
C2319 N2327 1.427 . S
C2320 H2311 0.930 . S
C2320 C2318 1.378 . S
C2320 C2321 1.367 . S
C2321 C2320 1.367 . S
C2321 C2323 1.433 . S
C2322 C2318 1.350 . S
C2322 C2319 1.463 1_565 S
C2322 N2326 1.427 . S
C2323 H2313 0.929 . S
C2323 C2321 1.433 . S
C2323 N2326 1.384 . S
C2324 H2315 0.929 . S
C2324 C2316 1.378 . S
C2324 C2319 1.350 . S
C2325 H2312 0.929 . S
C2325 C2317 1.433 . S
C2325 N2327 1.384 . S
N2326 C2322 1.427 . S
N2326 C2323 1.384 . S
N2327 C2319 1.427 . S
N2327 C2325 1.384 . S
H2328 C2334 0.930 . S
H2329 C2338 0.930 . S
H2330 C2343 0.929 . S
H2331 C2341 0.929 . S
H2332 C2336 0.929 . S
H2333 C2342 0.929 . S
C2334 H2328 0.930 . S
C2334 C2335 1.367 . S
C2334 C2342 1.378 . S
C2335 C2334 1.367 . S
C2335 C2343 1.433 . S
C2336 H2332 0.929 . S
C2336 C2338 1.378 . S
C2336 C2340 1.350 . S
C2337 C2340 1.463 1_455 S
C2337 C2342 1.350 . S
C2337 N2345 1.427 . S
C2338 H2329 0.930 . S
C2338 C2336 1.378 . S
C2338 C2339 1.367 . S
C2339 C2338 1.367 . S
C2339 C2341 1.433 . S
C2340 C2336 1.350 . S
C2340 C2337 1.463 1_655 S
C2340 N2344 1.427 . S
C2341 H2331 0.929 . S
C2341 C2339 1.433 . S
C2341 N2344 1.384 . S
C2342 H2333 0.929 . S
C2342 C2334 1.378 . S
C2342 C2337 1.350 . S
C2343 H2330 0.929 . S
C2343 C2335 1.433 . S
C2343 N2345 1.384 . S
N2344 C2340 1.427 . S
N2344 C2341 1.384 . S
N2345 C2337 1.427 . S
N2345 C2343 1.384 . S
H2346 C2352 0.930 . S
H2347 C2356 0.930 . S
H2348 C2361 0.929 . S
H2349 C2359 0.929 . S
H2350 C2354 0.929 . S
H2351 C2360 0.929 . S
C2352 H2346 0.930 . S
C2352 C2353 1.367 . S
C2352 C2360 1.378 . S
C2353 C2352 1.367 . S
C2353 C2361 1.433 . S
C2354 H2350 0.929 . S
C2354 C2356 1.378 . S
C2354 C2358 1.350 . S
C2355 C2358 1.463 1_545 S
C2355 C2360 1.350 . S
C2355 N2363 1.427 . S
C2356 H2347 0.930 . S
C2356 C2354 1.378 . S
C2356 C2357 1.367 . S
C2357 C2356 1.367 . S
C2357 C2359 1.433 . S
C2358 C2354 1.350 . S
C2358 C2355 1.463 1_565 S
C2358 N2362 1.427 . S
C2359 H2349 0.929 . S
C2359 C2357 1.433 . S
C2359 N2362 1.384 . S
C2360 H2351 0.929 . S
C2360 C2352 1.378 . S
C2360 C2355 1.350 . S
C2361 H2348 0.929 . S
C2361 C2353 1.433 . S
C2361 N2363 1.384 . S
N2362 C2358 1.427 . S
N2362 C2359 1.384 . S
N2363 C2355 1.427 . S
N2363 C2361 1.384 . S
H2364 C2370 0.930 . S
H2365 C2374 0.930 . S
H2366 C2379 0.929 . S
H2367 C2377 0.929 . S
H2368 C2372 0.929 . S
H2369 C2378 0.929 . S
C2370 H2364 0.930 . S
C2370 C2371 1.367 . S
C2370 C2378 1.378 . S
C2371 C2370 1.367 . S
C2371 C2379 1.433 . S
C2372 H2368 0.929 . S
C2372 C2374 1.378 . S
C2372 C2376 1.350 . S
C2373 C2376 1.463 1_655 S
C2373 C2378 1.350 . S
C2373 N2381 1.427 . S
C2374 H2365 0.930 . S
C2374 C2372 1.378 . S
C2374 C2375 1.367 . S
C2375 C2374 1.367 . S
C2375 C2377 1.433 . S
C2376 C2372 1.350 . S
C2376 C2373 1.463 1_455 S
C2376 N2380 1.427 . S
C2377 H2367 0.929 . S
C2377 C2375 1.433 . S
C2377 N2380 1.384 . S
C2378 H2369 0.929 . S
C2378 C2370 1.378 . S
C2378 C2373 1.350 . S
C2379 H2366 0.929 . S
C2379 C2371 1.433 . S
C2379 N2381 1.384 . S
N2380 C2376 1.427 . S
N2380 C2377 1.384 . S
N2381 C2373 1.427 . S
N2381 C2379 1.384 . S
H2382 C2388 0.930 . S
H2383 C2392 0.930 . S
H2384 C2397 0.929 . S
H2385 C2395 0.929 . S
H2386 C2390 0.929 . S
H2387 C2396 0.929 . S
C2388 H2382 0.930 . S
C2388 C2389 1.367 . S
C2388 C2396 1.378 . S
C2389 C2388 1.367 . S
C2389 C2397 1.433 . S
C2390 H2386 0.929 . S
C2390 C2392 1.378 . S
C2390 C2394 1.350 . S
C2391 C2394 1.463 1_455 S
C2391 C2396 1.350 . S
C2391 N2399 1.427 . S
C2392 H2383 0.930 . S
C2392 C2390 1.378 . S
C2392 C2393 1.367 . S
C2393 C2392 1.367 . S
C2393 C2395 1.433 . S
C2394 C2390 1.350 . S
C2394 C2391 1.463 1_655 S
C2394 N2398 1.427 . S
C2395 H2385 0.929 . S
C2395 C2393 1.433 . S
C2395 N2398 1.384 . S
C2396 H2387 0.929 . S
C2396 C2388 1.378 . S
C2396 C2391 1.350 . S
C2397 H2384 0.929 . S
C2397 C2389 1.433 . S
C2397 N2399 1.384 . S
N2398 C2394 1.427 . S
N2398 C2395 1.384 . S
N2399 C2391 1.427 . S
N2399 C2397 1.384 . S
C679 C554 1.284 . S
C683 C3 1.281 . S
C697 C22 1.304 . S
C701 C507 1.306 . S
C715 C31 1.278 . S
C719 C526 1.278 . S
C733 C540 1.271 . S
C737 C50 1.267 . S
C751 C470 1.191 . S
C755 C59 1.189 . S
C769 C73 1.314 . S
C773 C484 1.321 . S
C787 C87 1.219 . S
C791 C493 1.210 . S
C805 C101 1.355 . S
C809 C451 1.354 . S
C823 C120 1.360 . S
C827 C437 1.352 . S
C841 C400 1.238 . S
C845 C129 1.235 . S
C859 C409 1.301 . S
C863 C148 1.300 . S
C877 C157 1.231 . S
C881 C428 1.234 . S
C895 C176 1.200 . S
C899 C358 1.195 . S
C913 C185 1.250 . S
C917 C367 1.247 . S
C931 C386 1.139 . S
C935 C204 1.142 . S
C949 C339 1.322 . S
C953 C213 1.319 . S
C967 C232 1.360 . S
C971 C624 1.362 . S
C985 C661 1.331 . S
C989 C241 1.335 . S
C1003 C638 1.327 . S
C1007 C260 1.323 . S
C1021 C647 1.260 . S
C1025 C269 1.253 . S
C1039 C568 1.300 . S
C1043 C288 1.297 . S
C1057 C596 1.335 . S
C1061 C302 1.331 . S
C1075 C316 1.216 . S
C1079 C605 1.218 . S
C1093 C577 1.156 . S
C1097 C330 1.160 . S
C1111 C456 1.282 . S
C1115 C283 1.284 . S
C1129 C246 1.310 . S
C1133 C465 1.306 . S
C1147 C479 1.301 . S
C1151 C255 1.296 . S
C1165 C498 1.279 . S
C1169 C274 1.278 . S
C1183 C325 1.198 . S
C1187 C512 1.204 . S
C1201 C521 1.340 . S
C1205 C297 1.341 . S
C1219 C311 1.222 . S
C1223 C535 1.212 . S
C1237 C227 1.354 . S
C1241 C549 1.353 . S
C1255 C563 1.351 . S
C1259 C218 1.358 . S
C1273 C171 1.254 . S
C1277 C666 1.251 . S
C1291 C633 1.306 . S
C1295 C190 1.304 . S
C1309 C199 1.167 . S
C1313 C652 1.167 . S
C1327 C134 1.140 . S
C1331 C582 1.136 . S
C1345 C143 1.250 . S
C1349 C591 1.255 . S
C1363 C162 1.155 . S
C1367 C610 1.159 . S
C1381 C619 1.320 . S
C1385 C115 1.321 . S
C1399 C344 1.355 . S
C1403 C106 1.360 . S
C1417 C395 1.320 . S
C1421 C17 1.325 . S
C1435 C414 1.293 . S
C1439 C36 1.291 . S
C1453 C423 1.260 . S
C1457 C45 1.265 . S
C1471 C442 1.292 . S
C1475 C8 1.297 . S
C1489 C78 1.299 . S
C1493 C372 1.302 . S
C1507 C381 1.209 . S
C1511 C92 1.207 . S
C1525 C353 1.165 . S
C1529 C64 1.163 . S
C1543 C7 1.487 . S
C1547 C371 1.497 . S
C1561 C387 1.405 . S
C1565 C23 1.396 . S
C1579 C35 1.500 . S
C1583 C343 1.490 . S
C1597 C51 1.400 . S
C1601 C359 1.388 . S
C1615 C63 1.436 . S
C1619 C429 1.439 . S
C1633 C441 1.494 . S
C1637 C77 1.504 . S
C1651 C91 1.443 . S
C1655 C401 1.446 . S
C1669 C413 1.506 . S
C1673 C105 1.515 . S
C1687 C121 1.531 . S
C1691 C511 1.535 . S
C1705 C527 1.453 . S
C1709 C133 1.457 . S
C1723 C149 1.484 . S
C1727 C541 1.483 . S
C1741 C161 1.471 . S
C1745 C555 1.462 . S
C1759 C177 1.492 . S
C1763 C455 1.492 . S
C1777 C189 1.452 . S
C1781 C471 1.451 . S
C1795 C485 1.439 . S
C1799 C205 1.431 . S
C1813 C217 1.496 . S
C1817 C497 1.501 . S
C1831 C609 1.475 . S
C1835 C233 1.481 . S
C1849 C245 1.479 . S
C1853 C639 1.481 . S
C1867 C261 1.500 . S
C1871 C651 1.501 . S
C1885 C569 1.448 . S
C1889 C273 1.445 . S
C1903 C665 1.499 . S
C1907 C289 1.498 . S
C1921 C303 1.453 . S
C1925 C581 1.455 . S
C1939 C597 1.467 . S
C1943 C317 1.467 . S
C1957 C331 1.445 . S
C1961 C625 1.460 . S
C1975 C595 1.498 . S
C1979 C287 1.498 . S
C1993 C247 1.409 . S
C1997 C611 1.403 . S
C2011 C623 1.499 . S
C2015 C259 1.504 . S
C2029 C583 1.392 . S
C2033 C275 1.387 . S
C2047 C653 1.434 . S
C2051 C329 1.435 . S
C2065 C301 1.507 . S
C2069 C567 1.504 . S
C2083 C667 1.460 . S
C2087 C315 1.456 . S
C2101 C231 1.512 . S
C2105 C637 1.520 . S
C2119 C469 1.537 . S
C2123 C219 1.535 . S
C2137 C175 1.488 . S
C2141 C483 1.472 . S
C2155 C191 1.479 . S
C2159 C499 1.485 . S
C2173 C457 1.433 . S
C2177 C203 1.441 . S
C2191 C135 1.464 . S
C2195 C553 1.462 . S
C2209 C513 1.443 . S
C2213 C147 1.446 . S
C2227 C163 1.459 . S
C2231 C525 1.459 . S
C2245 C119 1.502 . S
C2249 C539 1.497 . S
C2263 C385 1.481 . S
C2267 C107 1.478 . S
C2281 C21 1.469 . S
C2285 C415 1.482 . S
C2299 C37 1.489 . S
C2303 C427 1.482 . S
C2317 C443 1.450 . S
C2321 C49 1.439 . S
C2335 C9 1.498 . S
C2339 C399 1.492 . S
C2353 C79 1.437 . S
C2357 C357 1.428 . S
C2371 C93 1.453 . S
C2375 C373 1.466 . S
C2389 C65 1.453 . S
C2393 C345 1.450 . S
