# Generated by pormake.
# Topology qtz-x, (6)-cn, num edge types: 1
# Building blocks:
#     Node 0, Type 0, BuildingBlock: KUMBOL_clean_sbu_0, # of connection points: 6
#     Node 1, Type 0, BuildingBlock: KUMBOL_clean_sbu_0, # of connection points: 6
#     Node 2, Type 0, BuildingBlock: KUMBOL_clean_sbu_0, # of connection points: 6
#     Edge 3, Type (0, 0), BuildingBlock: AJUNOK_clean_linker_0, # of connection points: 2
#     Edge 4, Type (0, 0), BuildingBlock: AJUNOK_clean_linker_0, # of connection points: 2
#     Edge 5, Type (0, 0), BuildingBlock: AJUNOK_clean_linker_0, # of connection points: 2
#     Edge 6, Type (0, 0), BuildingBlock: AJUNOK_clean_linker_0, # of connection points: 2
#     Edge 7, Type (0, 0), BuildingBlock: AJUNOK_clean_linker_0, # of connection points: 2
#     Edge 8, Type (0, 0), BuildingBlock: AJUNOK_clean_linker_0, # of connection points: 2
#     Edge 9, Type (0, 0), BuildingBlock: AJUNOK_clean_linker_0, # of connection points: 2
#     Edge 10, Type (0, 0), BuildingBlock: AJUNOK_clean_linker_0, # of connection points: 2
#     Edge 11, Type (0, 0), BuildingBlock: AJUNOK_clean_linker_0, # of connection points: 2
# Relax obj value: 0.163
# Max RMSD: 0.286
# Mean RMSD: 0.286
data_MOF--net-qtz-x--node1-KUMBOL_clean_sbu_0--edge1-AJUNOK_clean_linker_0
_symmetry_space_group_name_H-M    P1
_symmetry_Int_Tables_number       1
_symmetry_cell_setting            triclinic
loop_
_symmetry_equiv_pos_as_xyz
'x, y, z'
_cell_length_a     11.635292
_cell_length_b     11.616648
_cell_length_c     41.596657
_cell_angle_alpha  90.315475
_cell_angle_beta   89.752864
_cell_angle_gamma 120.2139
loop_
_atom_site_label
_atom_site_type_symbol
_atom_site_fract_x
_atom_site_fract_y
_atom_site_fract_z
_atom_type_partial_charge
Gd0 Gd 0.00148 0.44707 0.14213 0.0
Gd1 Gd 0.26862 0.57903 0.19851 0.0
C2 C 0.7034 0.81569 0.16837 0.0
C3 C 0.7978 0.70474 0.19829 0.0
C4 C 0.56224 0.62682 0.20175 0.0
C5 C 0.57686 0.72382 0.18036 0.0
C6 C 0.67242 0.61584 0.211 0.0
C7 C 0.81274 0.80547 0.17761 0.0
C8 C 0.71705 0.91594 0.14764 0.0
C9 C 0.60585 0.92542 0.14019 0.0
N10 N 0.4685 0.73167 0.17231 0.0
C11 C 0.48253 0.8341 0.15331 0.0
H12 H 0.39937 0.84621 0.14737 0.0
C13 C 0.4216 0.45054 0.23629 0.0
N14 N 0.44004 0.54278 0.21356 0.0
C15 C 0.52692 0.43373 0.24572 0.0
C16 C 0.65236 0.51541 0.23255 0.0
H17 H 0.3251 0.38938 0.24706 0.0
H18 H 0.90863 0.87597 0.16885 0.0
H19 H 0.8351 0.1734 0.18734 0.0
H20 H 0.81311 -0.01237 0.13776 0.0
H21 H 0.61518 0.00419 0.1247 0.0
H22 H 0.8838 0.69745 0.20418 0.0
H23 H -0.0186 0.66119 0.09188 0.0
H24 H 0.45104 0.11944 0.20709 0.0
H25 H 0.61737 0.04965 0.21409 0.0
H26 H 0.44116 0.45509 0.14363 0.0
H27 H 0.51124 0.35756 0.26293 0.0
H28 H 0.7318 0.4988 0.239 0.0
H29 H 0.39081 0.27361 0.18118 0.0
H30 H 0.82549 0.74173 0.08063 0.0
N31 N 0.79813 0.32177 0.16844 0.0
C32 C 0.54775 0.1762 0.19592 0.0
C33 C 0.64134 0.13651 0.19999 0.0
C34 C 0.57837 0.28528 0.17629 0.0
C35 C 0.70604 0.35766 0.16283 0.0
C36 C 0.76527 0.20822 0.18509 0.0
N37 N 0.85733 0.5233 0.12759 0.0
C38 C 0.73628 0.46118 0.14173 0.0
C39 C 0.79875 0.66203 0.09766 0.0
C40 C 0.67408 0.60038 0.11236 0.0
C41 C 0.88674 0.6167 0.10419 0.0
C42 C 0.64017 0.49591 0.13388 0.0
H43 H 0.60474 0.6335 0.10674 0.0
O44 O 0.00546 0.43065 0.09007 0.0
O45 O 0.21559 0.52192 0.14731 0.0
O46 O 0.22805 0.74595 0.185 0.0
O47 O 0.03302 0.65281 0.15516 0.0
O48 O 0.16018 0.61081 0.1128 0.0
O49 O 0.8907 0.25419 0.11863 0.0
O50 O 0.26317 0.57193 0.2509 0.0
O51 O 0.05013 0.48881 0.19434 0.0
O52 O 0.04489 0.27956 0.15531 0.0
O53 O 0.24537 0.37773 0.1837 0.0
O54 O 0.12159 0.39655 0.22402 0.0
O55 O 0.32649 0.75779 0.22674 0.0
C56 C 0.25736 0.59866 0.12325 0.0
C57 C 0.51424 0.42614 0.14798 0.0
C58 C 0.4846 0.3224 0.1693 0.0
C59 C 0.91923 0.30395 0.08978 0.0
C60 C 0.80752 0.2627 0.06747 0.0
C61 C 0.6824 0.23449 0.07889 0.0
C62 C 0.82924 0.26273 0.0342 0.0
C63 C 0.72795 0.23958 0.01226 0.0
C64 C 0.58234 0.21357 0.05745 0.0
C65 C 0.60534 0.21845 0.02446 0.0
C66 C 0.13413 0.756 0.16959 0.0
C67 C 0.01718 0.40024 0.21592 0.0
C68 C 0.31741 0.69983 0.25411 0.0
C69 C 0.43444 0.76345 0.27526 0.0
C70 C 0.56236 0.83847 0.26197 0.0
C71 C 0.4199 0.74116 0.30867 0.0
C72 C 0.53315 0.79277 0.32836 0.0
C73 C 0.67427 0.89221 0.28155 0.0
C74 C 0.66001 0.87027 0.31455 0.0
C75 C 0.14496 0.27323 0.16894 0.0
H76 H 0.6626 0.23139 0.10433 0.0
H77 H 0.92581 0.28365 0.02551 0.0
H78 H 0.48744 0.19616 0.06642 0.0
H79 H 0.52771 0.20956 0.00862 0.0
H80 H 0.57611 0.85378 0.23637 0.0
H81 H 0.32182 0.68046 0.31908 0.0
H82 H 0.77244 0.94914 0.27107 0.0
H83 H 0.74856 0.91221 0.32935 0.0
Gd84 Gd 0.77412 0.12155 0.47449 0.0
Gd85 Gd 0.63989 0.86289 0.53271 0.0
C86 C 0.40227 0.43833 0.49589 0.0
C87 C 0.1887 0.36497 0.52095 0.0
C88 C 0.36948 0.58904 0.53019 0.0
C89 C 0.45161 0.56483 0.51013 0.0
C90 C 0.2386 0.48754 0.53657 0.0
C91 C 0.26972 0.34096 0.50058 0.0
C92 C 0.48786 0.41185 0.47786 0.0
C93 C 0.62134 0.50868 0.47558 0.0
N94 N 0.58084 0.66119 0.50608 0.0
C95 C 0.66703 0.63275 0.49022 0.0
H96 H 0.7709 0.70518 0.48772 0.0
C97 C 0.349 0.72976 0.5685 0.0
N98 N 0.41973 0.70872 0.54507 0.0
C99 C 0.21758 0.63327 0.57483 0.0
C100 C 0.16148 0.51256 0.55832 0.0
H101 H 0.39382 0.82278 0.58169 0.0
H102 H 0.22868 0.24801 0.48798 0.0
H103 H 0.65411 0.27478 0.5219 0.0
H104 H 0.45291 0.31571 0.46652 0.0
H105 H 0.68947 0.48791 0.46252 0.0
H106 H 0.08562 0.29054 0.52313 0.0
H107 H 0.00861 0.15664 0.42326 0.0
H108 H 0.95649 0.68088 0.53277 0.0
H109 H 0.73238 0.49489 0.54591 0.0
H110 H 0.29797 0.72307 0.46172 0.0
H111 H 0.15965 0.65201 0.5923 0.0
H112 H 0.05853 0.44006 0.56249 0.0
H113 H 0.16124 0.76111 0.50054 0.0
H114 H 0.22625 0.33445 0.40334 0.0
N115 N 0.84006 0.32741 0.49973 0.0
C116 C 0.9246 0.58225 0.52332 0.0
C117 C 0.79841 0.4777 0.53083 0.0
C118 C 0.00553 0.55939 0.50242 0.0
C119 C 0.96131 0.42932 0.4913 0.0
C120 C 0.75528 0.35198 0.51749 0.0
N121 N -0.01209 0.28078 0.4577 0.0
C122 C 0.03648 0.40592 0.46912 0.0
C123 C 0.17453 0.35586 0.422 0.0
C124 C 0.22804 0.48479 0.43418 0.0
C125 C 0.05246 0.25508 0.43368 0.0
C126 C 0.15813 0.51165 0.45765 0.0
H127 H 0.32193 0.56271 0.42491 0.0
O128 O 0.76402 0.11299 0.42217 0.0
O129 O 0.63385 0.90462 0.48056 0.0
O130 O 0.84616 0.89692 0.51808 0.0
O131 O 0.94891 0.09229 0.48749 0.0
O132 O 0.78872 0.96071 0.44875 0.0
O133 O 0.67387 0.20757 0.44841 0.0
O134 O 0.77619 0.90677 0.57272 0.0
O135 O 0.77587 0.08009 0.52699 0.0
O136 O 0.56504 0.08197 0.48635 0.0
O137 O 0.47159 0.90752 0.52289 0.0
O138 O 0.61605 0.01955 0.55775 0.0
O139 O 0.59058 0.72516 0.57306 0.0
C140 C 0.67575 0.86289 0.45767 0.0
C141 C 0.20428 0.64042 0.4696 0.0
C142 C 0.1276 0.66319 0.49184 0.0
C143 C 0.7105 0.18749 0.42028 0.0
C144 C 0.78156 0.30452 0.39929 0.0
C145 C 0.86393 0.43044 0.4129 0.0
C146 C 0.78113 0.28894 0.36572 0.0
C147 C 0.86972 0.3969 0.34629 0.0
C148 C 0.95951 0.53359 0.3944 0.0
C149 C 0.96518 0.51585 0.36149 0.0
C150 C 0.95177 -0.00673 0.50287 0.0
C151 C 0.72872 0.11946 0.54921 0.0
C152 C 0.69462 0.80449 0.58963 0.0
C153 C 0.67084 0.83009 0.62319 0.0
C154 C 0.647 0.93448 0.6303 0.0
C155 C 0.66721 0.74798 0.64841 0.0
C156 C 0.64541 0.77516 0.6802 0.0
C157 C 0.62837 0.96274 0.66173 0.0
C158 C 0.63015 0.88495 0.68661 0.0
C159 C 0.46436 -0.00324 0.50446 0.0
H160 H 0.85756 0.44818 0.43805 0.0
H161 H 0.71332 0.19307 0.35502 0.0
H162 H 0.02875 0.62782 0.40556 0.0
H163 H 0.04398 0.59662 0.34801 0.0
H164 H 0.64174 -0.00554 0.61182 0.0
H165 H 0.67953 0.66315 0.64338 0.0
H166 H 0.61182 0.04476 0.66681 0.0
H167 H 0.61631 0.90855 0.71081 0.0
Gd168 Gd 0.72071 0.34776 0.80928 0.0
Gd169 Gd 0.58982 0.48406 0.86631 0.0
C170 C 0.36314 0.67944 0.82888 0.0
C171 C 0.48232 0.89567 0.85458 0.0
C172 C 0.55563 0.73624 0.86207 0.0
C173 C 0.45205 0.64467 0.84259 0.0
C174 C 0.57028 0.86174 0.86854 0.0
C175 C 0.37931 0.80476 0.83498 0.0
C176 C 0.26 0.58769 0.80936 0.0
C177 C 0.24356 0.46183 0.80491 0.0
N178 N 0.4356 0.52135 0.83783 0.0
C179 C 0.33002 0.42883 0.81997 0.0
H180 H 0.31242 0.32992 0.81579 0.0
C181 C 0.73287 0.78268 0.89771 0.0
N182 N 0.63904 0.70124 0.87579 0.0
C183 C 0.75395 0.90964 0.90381 0.0
C184 C 0.6744 0.95014 0.88847 0.0
H185 H 0.79199 0.74922 0.91024 0.0
H186 H 0.31376 0.8323 0.82397 0.0
H187 H -0.0011 0.48543 0.8552 0.0
H188 H 0.19119 0.61223 0.79813 0.0
H189 H 0.16274 0.38897 0.79029 0.0
H190 H 0.49422 -0.00752 0.85829 0.0
H191 H 0.51237 0.09471 0.76332 0.0
H192 H 0.10328 0.18817 0.8722 0.0
H193 H 0.14348 0.41616 0.88089 0.0
H194 H 0.78888 0.81933 0.80937 0.0
H195 H 0.8323 0.97664 0.91993 0.0
H196 H 0.69703 0.05096 0.89152 0.0
H197 H 0.97127 0.97075 0.84512 0.0
H198 H 0.45455 0.86253 0.75233 0.0
N199 N 0.86505 0.29315 0.83569 0.0
C200 C 0.03609 0.21685 0.86184 0.0
C201 C 0.05894 0.34525 0.86684 0.0
C202 C 0.92998 0.12888 0.84235 0.0
C203 C 0.84386 0.16926 0.8299 0.0
C204 C 0.97539 0.38361 0.85236 0.0
N205 N 0.66296 0.12924 0.79712 0.0
C206 C 0.74028 0.08509 0.80985 0.0
C207 C 0.53648 0.92476 0.76816 0.0
C208 C 0.61364 0.87658 0.78149 0.0
C209 C 0.56731 0.05466 0.77498 0.0
C210 C 0.72003 0.95849 0.80166 0.0
H211 H 0.58834 0.77562 0.77643 0.0
O212 O 0.71991 0.34896 0.75694 0.0
O213 O 0.64366 0.48604 0.81461 0.0
O214 O 0.41964 0.27592 0.85373 0.0
O215 O 0.51405 0.17584 0.82273 0.0
O216 O 0.5511 0.33314 0.78138 0.0
O217 O 0.90641 0.4388 0.78234 0.0
O218 O 0.50552 0.35474 0.90804 0.0
O219 O 0.67594 0.35245 0.86146 0.0
O220 O 0.88657 0.56123 0.81965 0.0
O221 O 0.80249 0.65444 0.85584 0.0
O222 O 0.77328 0.51683 0.89113 0.0
O223 O 0.50278 0.53608 0.90673 0.0
C224 C 0.56475 0.44494 0.79085 0.0
C225 C 0.80454 0.91731 0.81444 0.0
C226 C 0.90858 0.00262 0.83474 0.0
C227 C 0.84805 0.40294 0.75445 0.0
C228 C 0.89362 0.33504 0.7322 0.0
C229 C 0.93063 0.24554 0.74394 0.0
C230 C 0.88801 0.35005 0.69879 0.0
C231 C 0.91266 0.27094 0.67713 0.0
C232 C 0.95128 0.16424 0.72294 0.0
C233 C 0.93963 0.17454 0.68993 0.0
C234 C 0.41152 0.17214 0.83808 0.0
C235 C 0.76321 0.40449 0.88332 0.0
C236 C 0.48332 0.43685 0.92435 0.0
C237 C 0.53636 0.46967 0.95755 0.0
C238 C 0.66689 0.49994 0.96406 0.0
C239 C 0.45961 0.47738 0.98288 0.0
C240 C 0.51301 0.51024 0.01418 0.0
C241 C 0.71811 0.5293 0.99503 0.0
C242 C 0.64066 0.53218 0.02005 0.0
C243 C 0.89989 0.66232 0.83736 0.0
H244 H 0.94058 0.23597 0.76935 0.0
H245 H 0.86157 0.42109 0.68985 0.0
H246 H 0.97416 0.0913 0.73232 0.0
H247 H 0.94817 0.10361 0.67464 0.0
H248 H 0.73077 0.50221 0.94545 0.0
H249 H 0.3605 0.46001 0.97826 0.0
H250 H 0.8184 0.55044 0.99965 0.0
H251 H 0.68131 0.5541 0.04391 0.0
C252 C 0.12778 0.94649 0.14036 0.0
C253 C 0.14304 0.8907 0.16911 0.0
C254 C 0.12681 0.06869 0.14032 0.0
C255 C 0.14092 0.1407 0.16901 0.0
H256 H 0.11459 0.89453 0.11779 0.0
H257 H 0.11474 0.10687 0.11767 0.0
S258 S 0.1977 0.04653 0.24998 0.0
N259 N 0.18689 0.92691 0.2263 0.0
N260 N 0.1748 0.14734 0.22655 0.0
C261 C 0.15845 0.08674 0.19759 0.0
C262 C 0.16359 0.96542 0.19749 0.0
C263 C 0.26217 0.98423 0.53241 0.0
C264 C 0.33723 0.00253 0.50408 0.0
C265 C 0.13658 0.9771 0.53175 0.0
C266 C 0.08035 -0.01029 0.50287 0.0
H267 H 0.29973 0.97302 0.55525 0.0
H268 H 0.08321 0.96194 0.55412 0.0
S269 S 0.22932 0.02696 0.42173 0.0
N270 N 0.34086 0.0267 0.44609 0.0
N271 N 0.10646 0.01043 0.44495 0.0
C272 C 0.15282 0.00437 0.4744 0.0
C273 C 0.28105 0.01332 0.47504 0.0
C274 C 0.09367 0.85609 0.86612 0.0
C275 C 0.03242 0.78983 0.83714 0.0
C276 C 0.21295 0.98141 0.86621 0.0
C277 C 0.27913 0.04442 0.83747 0.0
H278 H 0.04723 0.81225 0.8889 0.0
H279 H 0.25386 0.02914 0.88902 0.0
S280 S 0.15776 0.91803 0.75516 0.0
N281 N 0.04668 0.80085 0.77886 0.0
N282 N 0.26807 0.03446 0.77923 0.0
C283 C 0.2175 0.98072 0.80842 0.0
C284 C 0.09626 0.85337 0.80824 0.0
C285 C 0.3716 0.4303 0.06335 0.0
C286 C 0.44255 0.53169 0.04092 0.0
C287 C 0.31663 0.45433 0.09086 0.0
C288 C 0.3354 0.58183 0.0975 0.0
H289 H 0.35849 0.33205 0.05956 0.0
H290 H 0.25691 0.37164 0.10668 0.0
S291 S 0.50925 0.87827 0.04509 0.0
N292 N 0.52643 0.76224 0.02628 0.0
N293 N 0.42223 0.80738 0.07792 0.0
C294 C 0.40456 0.68304 0.07482 0.0
C295 C 0.4594 0.65826 0.04669 0.0
C296 C 0.85361 0.27031 0.29534 0.0
C297 C 0.86975 0.38618 0.3105 0.0
C298 C 0.88366 0.27071 0.26258 0.0
C299 C 0.93381 0.38737 0.24402 0.0
H300 H 0.82793 0.18203 0.30922 0.0
H301 H 0.88058 0.18302 0.25249 0.0
S302 S 0.97539 0.70993 0.27154 0.0
N303 N 0.91217 0.61137 0.30281 0.0
N304 N -0.00712 0.6195 0.24327 0.0
C305 C 0.94297 0.50088 0.25853 0.0
C306 C 0.90394 0.49792 0.29117 0.0
C307 C 0.70679 0.64306 0.75702 0.0
C308 C 0.58009 0.53443 0.76415 0.0
C309 C 0.72938 0.71902 0.72917 0.0
C310 C 0.62683 0.68511 0.70693 0.0
H311 H 0.78929 0.66824 0.77287 0.0
H312 H 0.82691 0.8051 0.72511 0.0
S313 S 0.28345 0.39911 0.71161 0.0
N314 N 0.3555 0.38851 0.7447 0.0
N315 N 0.39731 0.53235 0.69245 0.0
C316 C 0.50154 0.57379 0.71294 0.0
C317 C 0.47848 0.49734 0.7414 0.0
C318 C 0.88126 0.39122 0.9315 0.0
C319 C 0.77046 0.32767 0.91091 0.0
C320 C 0.87204 0.35462 0.96398 0.0
C321 C 0.75233 0.25083 0.9768 0.0
H322 H 0.9706 0.47976 0.92348 0.0
H323 H 0.95489 0.41662 0.9796 0.0
S324 S 0.44725 0.02774 0.93103 0.0
N325 N 0.54421 0.14288 0.90495 0.0
N326 N 0.53432 0.06323 0.96442 0.0
C327 C 0.64887 0.17369 0.95525 0.0
C328 C 0.65562 0.21511 0.92276 0.0
C329 C 0.47299 0.82064 0.38463 0.0
C330 C 0.52425 0.7638 0.36319 0.0
C331 C 0.50573 0.83382 0.41749 0.0
C332 C 0.5911 0.79128 0.42978 0.0
H333 H 0.41896 0.86702 0.37554 0.0
H334 H 0.47759 0.89227 0.43239 0.0
S335 S 0.73559 0.62154 0.38335 0.0
N336 N 0.64653 0.64754 0.35681 0.0
N337 N 0.71723 0.68197 0.41771 0.0
C338 C 0.63202 0.72355 0.40882 0.0
C339 C 0.59594 0.70717 0.37573 0.0
C340 C 0.79161 0.29101 0.62907 0.0
C341 C 0.89622 0.27666 0.64155 0.0
C342 C 0.75058 0.25811 0.59694 0.0
C343 C 0.80971 0.20599 0.57631 0.0
H344 H 0.73248 0.31553 0.64475 0.0
H345 H 0.66215 0.25911 0.58931 0.0
S346 S 0.10869 0.18161 0.59523 0.0
N347 N 0.08026 0.24214 0.62827 0.0
N348 N -0.01031 0.15835 0.57004 0.0
C349 C 0.92235 0.20366 0.58772 0.0
C350 C 0.96912 0.24514 0.61974 0.0
loop_
_geom_bond_atom_site_label_1
_geom_bond_atom_site_label_2
_geom_bond_distance
_geom_bond_site_symmetry_2
_ccdc_geom_bond_type
Gd0 N31 2.661 . S
Gd0 N37 2.601 . S
Gd0 O44 2.545 . S
Gd0 O45 2.606 1_655 S
Gd0 O47 2.429 . S
Gd0 O48 2.545 . S
Gd0 O49 2.412 . S
Gd0 O51 2.362 . S
Gd0 O52 2.324 . S
Gd0 C59 2.828 . S
Gd1 N10 2.661 . S
Gd1 N14 2.601 . S
Gd1 O45 2.362 . S
Gd1 O46 2.324 . S
Gd1 O50 2.545 . S
Gd1 O51 2.606 1_455 S
Gd1 O53 2.429 . S
Gd1 O54 2.545 . S
Gd1 O55 2.412 . S
Gd1 C68 2.828 . S
C2 C5 1.417 . S
C2 C7 1.431 . S
C2 C8 1.412 . S
C3 C6 1.437 . S
C3 C7 1.317 . S
C3 H22 0.929 . S
C4 C5 1.426 . S
C4 C6 1.413 . S
C4 N14 1.359 . S
C5 C2 1.417 . S
C5 C4 1.426 . S
C5 N10 1.350 . S
C6 C3 1.437 . S
C6 C4 1.413 . S
C6 C16 1.391 . S
C7 C2 1.431 . S
C7 C3 1.317 . S
C7 H18 0.930 . S
C8 C2 1.412 . S
C8 C9 1.355 . S
C8 H20 0.930 . S
C9 C8 1.355 . S
C9 C11 1.402 . S
C9 H21 0.930 . S
N10 Gd1 2.661 . S
N10 C5 1.350 . S
N10 C11 1.307 . S
C11 C9 1.402 . S
C11 N10 1.307 . S
C11 H12 0.930 . S
H12 C11 0.930 . S
C13 N14 1.334 . S
C13 C15 1.394 . S
C13 H17 0.930 . S
N14 Gd1 2.601 . S
N14 C4 1.359 . S
N14 C13 1.334 . S
C15 C13 1.394 . S
C15 C16 1.359 . S
C15 H27 0.930 . S
C16 C6 1.391 . S
C16 C15 1.359 . S
C16 H28 0.929 . S
H17 C13 0.930 . S
H18 C7 0.930 . S
H19 C36 0.930 . S
H20 C8 0.930 . S
H21 C9 0.930 . S
H22 C3 0.929 . S
H23 C41 0.930 . S
H24 C32 0.930 . S
H25 C33 0.930 . S
H26 C57 0.929 . S
H27 C15 0.930 . S
H28 C16 0.929 . S
H29 C58 0.930 . S
H30 C39 0.930 . S
N31 Gd0 2.661 . S
N31 C35 1.350 . S
N31 C36 1.307 . S
C32 H24 0.930 . S
C32 C33 1.355 . S
C32 C34 1.412 1_565 S
C33 H25 0.930 . S
C33 C32 1.355 . S
C33 C36 1.402 1_565 S
C34 C32 1.412 1_545 S
C34 C35 1.417 . S
C34 C58 1.431 . S
C35 N31 1.350 . S
C35 C34 1.417 . S
C35 C38 1.426 . S
C36 H19 0.930 . S
C36 N31 1.307 . S
C36 C33 1.402 1_545 S
N37 Gd0 2.601 . S
N37 C38 1.359 . S
N37 C41 1.334 . S
C38 C35 1.426 . S
C38 N37 1.359 . S
C38 C42 1.413 . S
C39 H30 0.930 . S
C39 C40 1.359 . S
C39 C41 1.394 . S
C40 C39 1.359 . S
C40 C42 1.391 . S
C40 H43 0.929 . S
C41 H23 0.930 . S
C41 N37 1.334 . S
C41 C39 1.394 . S
C42 C38 1.413 . S
C42 C40 1.391 . S
C42 C57 1.437 . S
H43 C40 0.929 . S
O44 Gd0 2.545 . S
O44 C59 1.258 . S
O45 Gd0 2.606 1_455 S
O45 Gd1 2.362 . S
O45 C56 1.284 . S
O46 Gd1 2.324 . S
O46 C66 1.254 . S
O47 Gd0 2.429 . S
O47 C66 1.268 1_655 S
O48 Gd0 2.545 . S
O48 C56 1.250 1_655 S
O49 Gd0 2.412 . S
O49 C59 1.252 . S
O50 Gd1 2.545 . S
O50 C68 1.258 . S
O51 Gd0 2.362 . S
O51 Gd1 2.606 1_655 S
O51 C67 1.284 . S
O52 Gd0 2.324 . S
O52 C75 1.254 . S
O53 Gd1 2.429 . S
O53 C75 1.268 1_455 S
O54 Gd1 2.545 . S
O54 C67 1.250 1_455 S
O55 Gd1 2.412 . S
O55 C68 1.252 . S
C56 O45 1.284 . S
C56 O48 1.250 1_455 S
C57 H26 0.929 . S
C57 C42 1.437 . S
C57 C58 1.317 . S
C58 H29 0.930 . S
C58 C34 1.431 . S
C58 C57 1.317 . S
C59 Gd0 2.828 . S
C59 O44 1.258 . S
C59 O49 1.252 . S
C59 C60 1.497 . S
C60 C59 1.497 . S
C60 C61 1.395 . S
C60 C62 1.380 . S
C61 C60 1.395 . S
C61 C64 1.398 . S
C61 H76 0.930 . S
C62 C60 1.380 . S
C62 C63 1.391 . S
C62 H77 0.930 . S
C63 C62 1.391 . S
C63 C65 1.387 1_554 S
C64 C61 1.398 . S
C64 C65 1.380 1_554 S
C64 H78 0.938 . S
C65 C63 1.387 1_556 S
C65 C64 1.380 1_556 S
C65 H79 0.930 . S
C66 O46 1.254 . S
C66 O47 1.268 1_455 S
C67 O51 1.284 . S
C67 O54 1.250 1_655 S
C68 Gd1 2.828 . S
C68 O50 1.258 . S
C68 O55 1.252 . S
C68 C69 1.497 . S
C69 C68 1.497 . S
C69 C70 1.395 . S
C69 C71 1.380 . S
C70 C69 1.395 . S
C70 C73 1.398 . S
C70 H80 0.930 . S
C71 C69 1.380 . S
C71 C72 1.391 . S
C71 H81 0.930 . S
C72 C71 1.391 . S
C72 C74 1.387 . S
C73 C70 1.398 . S
C73 C74 1.380 . S
C73 H82 0.930 . S
C74 C72 1.387 . S
C74 C73 1.380 . S
C74 H83 0.930 . S
C75 O52 1.254 . S
C75 O53 1.268 1_655 S
H76 C61 0.930 . S
H77 C62 0.930 . S
H78 C64 0.938 . S
H79 C65 0.930 . S
H80 C70 0.930 . S
H81 C71 0.930 . S
H82 C73 0.930 . S
H83 C74 0.930 . S
Gd84 N115 2.661 . S
Gd84 N121 2.601 1_655 S
Gd84 O128 2.545 1_655 S
Gd84 O129 2.606 . S
Gd84 O131 2.429 1_655 S
Gd84 O132 2.545 . S
Gd84 O133 2.412 . S
Gd84 O135 2.362 . S
Gd84 O136 2.324 . S
Gd84 C143 2.828 . S
Gd85 N94 2.661 1_545 S
Gd85 N98 2.601 1_545 S
Gd85 O129 2.362 . S
Gd85 O130 2.324 . S
Gd85 O134 2.545 1_545 S
Gd85 O135 2.606 . S
Gd85 O137 2.429 . S
Gd85 O138 2.545 . S
Gd85 O139 2.412 1_545 S
Gd85 C152 2.828 1_545 S
C86 C89 1.417 . S
C86 C91 1.431 . S
C86 C92 1.412 . S
C87 C90 1.437 . S
C87 C91 1.317 . S
C87 H106 0.929 . S
C88 C89 1.426 . S
C88 C90 1.413 . S
C88 N98 1.359 . S
C89 C86 1.417 . S
C89 C88 1.426 . S
C89 N94 1.350 . S
C90 C87 1.437 . S
C90 C88 1.413 . S
C90 C100 1.391 . S
C91 C86 1.431 . S
C91 C87 1.317 . S
C91 H102 0.930 . S
C92 C86 1.412 . S
C92 C93 1.355 . S
C92 H104 0.930 . S
C93 C92 1.355 . S
C93 C95 1.402 . S
C93 H105 0.930 . S
N94 Gd85 2.661 1_565 S
N94 C89 1.350 . S
N94 C95 1.307 . S
C95 C93 1.402 . S
C95 N94 1.307 . S
C95 H96 0.930 . S
H96 C95 0.930 . S
C97 N98 1.334 . S
C97 C99 1.394 . S
C97 H101 0.930 . S
N98 Gd85 2.601 1_565 S
N98 C88 1.359 . S
N98 C97 1.334 . S
C99 C97 1.394 . S
C99 C100 1.359 . S
C99 H111 0.930 . S
C100 C90 1.391 . S
C100 C99 1.359 . S
C100 H112 0.929 . S
H101 C97 0.930 . S
H102 C91 0.930 . S
H103 C120 0.930 . S
H104 C92 0.930 . S
H105 C93 0.930 . S
H106 C87 0.929 . S
H107 C125 0.930 . S
H108 C116 0.930 . S
H109 C117 0.930 . S
H110 C141 0.929 . S
H111 C99 0.930 . S
H112 C100 0.929 . S
H113 C142 0.930 . S
H114 C123 0.930 . S
N115 Gd84 2.661 . S
N115 C119 1.350 1_655 S
N115 C120 1.307 . S
C116 H108 0.930 . S
C116 C117 1.355 . S
C116 C118 1.412 1_655 S
C117 H109 0.930 . S
C117 C116 1.355 . S
C117 C120 1.402 . S
C118 C116 1.412 1_455 S
C118 C119 1.417 . S
C118 C142 1.431 . S
C119 N115 1.350 1_455 S
C119 C118 1.417 . S
C119 C122 1.426 . S
C120 H103 0.930 . S
C120 N115 1.307 . S
C120 C117 1.402 . S
N121 Gd84 2.601 1_455 S
N121 C122 1.359 . S
N121 C125 1.334 . S
C122 C119 1.426 . S
C122 N121 1.359 . S
C122 C126 1.413 . S
C123 H114 0.930 . S
C123 C124 1.359 . S
C123 C125 1.394 . S
C124 C123 1.359 . S
C124 C126 1.391 . S
C124 H127 0.929 . S
C125 H107 0.930 . S
C125 N121 1.334 . S
C125 C123 1.394 . S
C126 C122 1.413 . S
C126 C124 1.391 . S
C126 C141 1.437 . S
H127 C124 0.929 . S
O128 Gd84 2.545 1_455 S
O128 C143 1.258 1_455 S
O129 Gd84 2.606 . S
O129 Gd85 2.362 . S
O129 C140 1.284 . S
O130 Gd85 2.324 . S
O130 C150 1.254 1_655 S
O131 Gd84 2.429 1_455 S
O131 C150 1.268 . S
O132 Gd84 2.545 . S
O132 C140 1.250 . S
O133 Gd84 2.412 . S
O133 C143 1.252 . S
O134 Gd85 2.545 1_565 S
O134 C152 1.258 . S
O135 Gd84 2.362 . S
O135 Gd85 2.606 . S
O135 C151 1.284 . S
O136 Gd84 2.324 . S
O136 C159 1.254 . S
O137 Gd85 2.429 . S
O137 C159 1.268 . S
O138 Gd85 2.545 . S
O138 C151 1.250 . S
O139 Gd85 2.412 1_565 S
O139 C152 1.252 . S
C140 O129 1.284 . S
C140 O132 1.250 . S
C141 H110 0.929 . S
C141 C126 1.437 . S
C141 C142 1.317 . S
C142 H113 0.930 . S
C142 C118 1.431 . S
C142 C141 1.317 . S
C143 Gd84 2.828 . S
C143 O128 1.258 1_655 S
C143 O133 1.252 . S
C143 C144 1.497 . S
C144 C143 1.497 . S
C144 C145 1.395 1_655 S
C144 C146 1.380 . S
C145 C144 1.395 1_455 S
C145 C148 1.398 . S
C145 H160 0.930 . S
C146 C144 1.380 . S
C146 C147 1.391 . S
C146 H161 0.930 . S
C147 C146 1.391 . S
C147 C149 1.387 1_655 S
C148 C145 1.398 . S
C148 C149 1.380 . S
C148 H162 0.930 . S
C149 C147 1.387 1_455 S
C149 C148 1.380 . S
C149 H163 0.930 . S
C150 O130 1.254 1_455 S
C150 O131 1.268 . S
C151 O135 1.284 . S
C151 O138 1.250 . S
C152 Gd85 2.828 1_565 S
C152 O134 1.258 . S
C152 O139 1.252 . S
C152 C153 1.497 . S
C153 C152 1.497 . S
C153 C154 1.395 . S
C153 C155 1.380 . S
C154 C153 1.395 . S
C154 C157 1.398 . S
C154 H164 0.930 . S
C155 C153 1.380 . S
C155 C156 1.391 . S
C155 H165 0.930 . S
C156 C155 1.391 . S
C156 C158 1.387 . S
C157 C154 1.398 . S
C157 C158 1.380 . S
C157 H166 0.930 . S
C158 C156 1.387 . S
C158 C157 1.380 . S
C158 H167 0.930 . S
C159 O136 1.254 . S
C159 O137 1.268 . S
H160 C145 0.930 . S
H161 C146 0.930 . S
H162 C148 0.930 . S
H163 C149 0.930 . S
H164 C154 0.930 . S
H165 C155 0.930 . S
H166 C157 0.930 . S
H167 C158 0.930 . S
Gd168 N199 2.661 1_655 S
Gd168 N205 2.601 . S
Gd168 O212 2.545 . S
Gd168 O213 2.606 . S
Gd168 O215 2.429 . S
Gd168 O216 2.545 . S
Gd168 O217 2.412 1_655 S
Gd168 O219 2.362 . S
Gd168 O220 2.324 1_655 S
Gd168 C227 2.828 . S
Gd169 N178 2.661 . S
Gd169 N182 2.601 . S
Gd169 O213 2.362 . S
Gd169 O214 2.324 . S
Gd169 O218 2.545 . S
Gd169 O219 2.606 . S
Gd169 O221 2.429 . S
Gd169 O222 2.545 . S
Gd169 O223 2.412 . S
Gd169 C236 2.828 . S
C170 C173 1.417 . S
C170 C175 1.431 . S
C170 C176 1.412 . S
C171 C174 1.437 . S
C171 C175 1.317 . S
C171 H190 0.929 1_565 S
C172 C173 1.426 . S
C172 C174 1.413 . S
C172 N182 1.359 . S
C173 C170 1.417 . S
C173 C172 1.426 . S
C173 N178 1.350 . S
C174 C171 1.437 . S
C174 C172 1.413 . S
C174 C184 1.391 1_565 S
C175 C170 1.431 . S
C175 C171 1.317 . S
C175 H186 0.930 . S
C176 C170 1.412 . S
C176 C177 1.355 . S
C176 H188 0.930 . S
C177 C176 1.355 . S
C177 C179 1.402 . S
C177 H189 0.930 . S
N178 Gd169 2.661 . S
N178 C173 1.350 . S
N178 C179 1.307 . S
C179 C177 1.402 . S
C179 N178 1.307 . S
C179 H180 0.930 . S
H180 C179 0.930 . S
C181 N182 1.334 . S
C181 C183 1.394 . S
C181 H185 0.930 . S
N182 Gd169 2.601 . S
N182 C172 1.359 . S
N182 C181 1.334 . S
C183 C181 1.394 . S
C183 C184 1.359 1_565 S
C183 H195 0.930 1_565 S
C184 C174 1.391 1_545 S
C184 C183 1.359 1_545 S
C184 H196 0.929 . S
H185 C181 0.930 . S
H186 C175 0.930 . S
H187 C204 0.930 . S
H188 C176 0.930 . S
H189 C177 0.930 . S
H190 C171 0.929 1_545 S
H191 C209 0.930 . S
H192 C200 0.930 . S
H193 C201 0.930 . S
H194 C225 0.929 . S
H195 C183 0.930 1_545 S
H196 C184 0.929 . S
H197 C226 0.930 . S
H198 C207 0.930 . S
N199 Gd168 2.661 1_455 S
N199 C203 1.350 . S
N199 C204 1.307 . S
C200 H192 0.930 . S
C200 C201 1.355 . S
C200 C202 1.412 . S
C201 H193 0.930 . S
C201 C200 1.355 . S
C201 C204 1.402 . S
C202 C200 1.412 . S
C202 C203 1.417 . S
C202 C226 1.431 1_545 S
C203 N199 1.350 . S
C203 C202 1.417 . S
C203 C206 1.426 1_455 S
C204 H187 0.930 . S
C204 N199 1.307 . S
C204 C201 1.402 . S
N205 Gd168 2.601 . S
N205 C206 1.359 . S
N205 C209 1.334 1_545 S
C206 C203 1.426 1_655 S
C206 N205 1.359 . S
C206 C210 1.413 1_545 S
C207 H198 0.930 . S
C207 C208 1.359 . S
C207 C209 1.394 . S
C208 C207 1.359 . S
C208 C210 1.391 . S
C208 H211 0.929 . S
C209 H191 0.930 . S
C209 N205 1.334 1_565 S
C209 C207 1.394 . S
C210 C206 1.413 1_565 S
C210 C208 1.391 . S
C210 C225 1.437 . S
H211 C208 0.929 . S
O212 Gd168 2.545 . S
O212 C227 1.258 . S
O213 Gd168 2.606 . S
O213 Gd169 2.362 . S
O213 C224 1.284 . S
O214 Gd169 2.324 . S
O214 C234 1.254 . S
O215 Gd168 2.429 . S
O215 C234 1.268 . S
O216 Gd168 2.545 . S
O216 C224 1.250 . S
O217 Gd168 2.412 1_455 S
O217 C227 1.252 1_455 S
O218 Gd169 2.545 . S
O218 C236 1.258 . S
O219 Gd168 2.362 . S
O219 Gd169 2.606 . S
O219 C235 1.284 . S
O220 Gd168 2.324 1_455 S
O220 C243 1.254 . S
O221 Gd169 2.429 . S
O221 C243 1.268 1_655 S
O222 Gd169 2.545 . S
O222 C235 1.250 . S
O223 Gd169 2.412 . S
O223 C236 1.252 . S
C224 O213 1.284 . S
C224 O216 1.250 . S
C225 H194 0.929 . S
C225 C210 1.437 . S
C225 C226 1.317 1_655 S
C226 H197 0.930 . S
C226 C202 1.431 1_565 S
C226 C225 1.317 1_455 S
C227 Gd168 2.828 . S
C227 O212 1.258 . S
C227 O217 1.252 1_655 S
C227 C228 1.497 1_655 S
C228 C227 1.497 1_455 S
C228 C229 1.395 1_455 S
C228 C230 1.380 . S
C229 C228 1.395 1_655 S
C229 C232 1.398 1_655 S
C229 H244 0.930 . S
C230 C228 1.380 . S
C230 C231 1.391 . S
C230 H245 0.930 . S
C231 C230 1.391 . S
C231 C233 1.387 . S
C232 C229 1.398 1_455 S
C232 C233 1.380 . S
C232 H246 0.930 1_445 S
C233 C231 1.387 . S
C233 C232 1.380 . S
C233 H247 0.930 . S
C234 O214 1.254 . S
C234 O215 1.268 . S
C235 O219 1.284 . S
C235 O222 1.250 . S
C236 Gd169 2.828 . S
C236 O218 1.258 . S
C236 O223 1.252 . S
C236 C237 1.497 . S
C237 C236 1.497 . S
C237 C238 1.395 . S
C237 C239 1.380 . S
C238 C237 1.395 . S
C238 C241 1.398 . S
C238 H248 0.930 . S
C239 C237 1.380 . S
C239 C240 1.391 . S
C239 H249 0.930 . S
C240 C239 1.391 . S
C240 C242 1.387 1_556 S
C241 C238 1.398 . S
C241 C242 1.380 1_556 S
C241 H250 0.938 . S
C242 C240 1.387 1_554 S
C242 C241 1.380 1_554 S
C242 H251 0.930 . S
C243 O220 1.254 . S
C243 O221 1.268 1_455 S
H244 C229 0.930 . S
H245 C230 0.930 . S
H246 C232 0.930 1_665 S
H247 C233 0.930 . S
H248 C238 0.930 . S
H249 C239 0.930 . S
H250 C241 0.938 . S
H251 C242 0.930 . S
C252 C253 1.369 1_655 S
C252 C254 1.419 . S
C252 H256 0.930 . S
C253 C252 1.369 1_455 S
C253 C262 1.429 . S
C254 C252 1.419 . S
C254 C255 1.363 1_565 S
C254 H257 0.929 . S
C255 C254 1.363 1_545 S
C255 C261 1.428 1_655 S
H256 C252 0.930 . S
H257 C254 0.929 . S
S258 N259 1.613 1_545 S
S258 N260 1.610 . S
N259 S258 1.613 1_565 S
N259 C262 1.350 . S
N260 S258 1.610 . S
N260 C261 1.351 . S
C261 C255 1.428 1_455 S
C261 N260 1.351 . S
C261 C262 1.434 1_545 S
C262 C253 1.429 . S
C262 N259 1.350 . S
C262 C261 1.434 1_565 S
C263 C264 1.369 . S
C263 C265 1.419 . S
C263 H267 0.930 . S
C264 C263 1.369 . S
C264 C273 1.429 . S
C265 C263 1.419 . S
C265 C266 1.363 . S
C265 H268 0.929 . S
C266 C265 1.363 . S
C266 C272 1.428 . S
H267 C263 0.930 . S
H268 C265 0.929 . S
S269 N270 1.613 . S
S269 N271 1.610 . S
N270 S269 1.613 . S
N270 C273 1.350 . S
N271 S269 1.610 . S
N271 C272 1.351 . S
C272 C266 1.428 . S
C272 N271 1.351 . S
C272 C273 1.434 . S
C273 C264 1.429 . S
C273 N270 1.350 . S
C273 C272 1.434 . S
C274 C275 1.369 . S
C274 C276 1.419 . S
C274 H278 0.930 . S
C275 C274 1.369 . S
C275 C284 1.429 . S
C276 C274 1.419 . S
C276 C277 1.363 1_565 S
C276 H279 0.929 1_565 S
C277 C276 1.363 1_545 S
C277 C283 1.428 1_545 S
H278 C274 0.930 . S
H279 C276 0.929 1_545 S
S280 N281 1.613 . S
S280 N282 1.610 . S
N281 S280 1.613 . S
N281 C284 1.350 . S
N282 S280 1.610 . S
N282 C283 1.351 . S
C283 C277 1.428 1_565 S
C283 N282 1.351 . S
C283 C284 1.434 . S
C284 C275 1.429 . S
C284 N281 1.350 . S
C284 C283 1.434 . S
C285 C286 1.369 . S
C285 C287 1.419 . S
C285 H289 0.930 . S
C286 C285 1.369 . S
C286 C295 1.429 . S
C287 C285 1.419 . S
C287 C288 1.363 . S
C287 H290 0.929 . S
C288 C287 1.363 . S
C288 C294 1.428 . S
H289 C285 0.930 . S
H290 C287 0.929 . S
S291 N292 1.613 1_554 S
S291 N293 1.610 . S
N292 S291 1.613 1_556 S
N292 C295 1.350 1_556 S
N293 S291 1.610 . S
N293 C294 1.351 . S
C294 C288 1.428 . S
C294 N293 1.351 . S
C294 C295 1.434 . S
C295 C286 1.429 . S
C295 N292 1.350 1_554 S
C295 C294 1.434 . S
C296 C297 1.369 . S
C296 C298 1.419 . S
C296 H300 0.930 . S
C297 C296 1.369 . S
C297 C306 1.429 . S
C298 C296 1.419 . S
C298 C299 1.363 . S
C298 H301 0.929 . S
C299 C298 1.363 . S
C299 C305 1.428 . S
H300 C296 0.930 . S
H301 C298 0.929 . S
S302 N303 1.613 . S
S302 N304 1.610 . S
N303 S302 1.613 . S
N303 C306 1.350 . S
N304 S302 1.610 . S
N304 C305 1.351 . S
C305 C299 1.428 . S
C305 N304 1.351 . S
C305 C306 1.434 . S
C306 C297 1.429 . S
C306 N303 1.350 . S
C306 C305 1.434 . S
C307 C308 1.369 . S
C307 C309 1.419 . S
C307 H311 0.930 . S
C308 C307 1.369 . S
C308 C317 1.429 . S
C309 C307 1.419 . S
C309 C310 1.363 . S
C309 H312 0.929 . S
C310 C309 1.363 . S
C310 C316 1.428 . S
H311 C307 0.930 . S
H312 C309 0.929 . S
S313 N314 1.613 . S
S313 N315 1.610 . S
N314 S313 1.613 . S
N314 C317 1.350 . S
N315 S313 1.610 . S
N315 C316 1.351 . S
C316 C310 1.428 . S
C316 N315 1.351 . S
C316 C317 1.434 . S
C317 C308 1.429 . S
C317 N314 1.350 . S
C317 C316 1.434 . S
C318 C319 1.369 . S
C318 C320 1.419 . S
C318 H322 0.930 . S
C319 C318 1.369 . S
C319 C328 1.429 . S
C320 C318 1.419 . S
C320 C321 1.363 . S
C320 H323 0.929 . S
C321 C320 1.363 . S
C321 C327 1.428 1_545 S
H322 C318 0.930 . S
H323 C320 0.929 . S
S324 N325 1.613 . S
S324 N326 1.610 . S
N325 S324 1.613 . S
N325 C328 1.350 1_565 S
N326 S324 1.610 . S
N326 C327 1.351 . S
C327 C321 1.428 1_565 S
C327 N326 1.351 . S
C327 C328 1.434 1_565 S
C328 C319 1.429 . S
C328 N325 1.350 1_545 S
C328 C327 1.434 1_545 S
C329 C330 1.369 . S
C329 C331 1.419 1_565 S
C329 H333 0.930 1_565 S
C330 C329 1.369 . S
C330 C339 1.429 . S
C331 C329 1.419 1_545 S
C331 C332 1.363 1_545 S
C331 H334 0.929 . S
C332 C331 1.363 1_565 S
C332 C338 1.428 . S
H333 C329 0.930 1_545 S
H334 C331 0.929 . S
S335 N336 1.613 . S
S335 N337 1.610 . S
N336 S335 1.613 . S
N336 C339 1.350 . S
N337 S335 1.610 . S
N337 C338 1.351 . S
C338 C332 1.428 . S
C338 N337 1.351 . S
C338 C339 1.434 . S
C339 C330 1.429 . S
C339 N336 1.350 . S
C339 C338 1.434 . S
C340 C341 1.369 . S
C340 C342 1.419 1_455 S
C340 H344 0.930 1_455 S
C341 C340 1.369 . S
C341 C350 1.429 . S
C342 C340 1.419 1_655 S
C342 C343 1.363 . S
C342 H345 0.929 . S
C343 C342 1.363 . S
C343 C349 1.428 1_655 S
H344 C340 0.930 1_655 S
H345 C342 0.929 . S
S346 N347 1.613 . S
S346 N348 1.610 . S
N347 S346 1.613 . S
N347 C350 1.350 . S
N348 S346 1.610 . S
N348 C349 1.351 . S
C349 C343 1.428 1_455 S
C349 N348 1.351 . S
C349 C350 1.434 . S
C350 C341 1.429 . S
C350 N347 1.350 . S
C350 C349 1.434 . S
C253 C66 1.574 . S
C255 C75 1.563 . S
C264 C159 1.575 . S
C266 C150 1.564 . S
C275 C243 1.571 . S
C277 C234 1.567 . S
C286 C240 1.581 1_554 S
C288 C56 1.714 . S
C297 C147 1.530 . S
C299 C67 1.708 . S
C308 C224 1.716 . S
C310 C156 1.580 . S
C319 C235 1.706 . S
C321 C63 1.527 1_556 S
C330 C72 1.581 . S
C332 C140 1.719 1_565 S
C341 C231 1.530 . S
C343 C151 1.707 . S
