# Generated by pormake.
# Topology wiu, (6)-cn, num edge types: 1
# Building blocks:
#     Node 0, Type 0, BuildingBlock: BETGAK_clean_sbu_0, # of connection points: 6
#     Node 1, Type 0, BuildingBlock: BETGAK_clean_sbu_0, # of connection points: 6
#     Node 2, Type 0, BuildingBlock: BETGAK_clean_sbu_0, # of connection points: 6
#     Node 3, Type 0, BuildingBlock: BETGAK_clean_sbu_0, # of connection points: 6
#     Node 4, Type 0, BuildingBlock: BETGAK_clean_sbu_0, # of connection points: 6
#     Node 5, Type 0, BuildingBlock: BETGAK_clean_sbu_0, # of connection points: 6
#     Node 6, Type 0, BuildingBlock: BETGAK_clean_sbu_0, # of connection points: 6
#     Node 7, Type 0, BuildingBlock: BETGAK_clean_sbu_0, # of connection points: 6
#     Node 8, Type 0, BuildingBlock: BETGAK_clean_sbu_0, # of connection points: 6
#     Node 9, Type 0, BuildingBlock: BETGAK_clean_sbu_0, # of connection points: 6
#     Node 10, Type 0, BuildingBlock: BETGAK_clean_sbu_0, # of connection points: 6
#     Node 11, Type 0, BuildingBlock: BETGAK_clean_sbu_0, # of connection points: 6
#     Node 12, Type 0, BuildingBlock: BETGAK_clean_sbu_0, # of connection points: 6
#     Node 13, Type 0, BuildingBlock: BETGAK_clean_sbu_0, # of connection points: 6
#     Node 14, Type 0, BuildingBlock: BETGAK_clean_sbu_0, # of connection points: 6
#     Node 15, Type 0, BuildingBlock: BETGAK_clean_sbu_0, # of connection points: 6
#     Edge 16, Type (0, 0), BuildingBlock: AJUNOK_clean_linker_0, # of connection points: 2
#     Edge 17, Type (0, 0), BuildingBlock: AJUNOK_clean_linker_0, # of connection points: 2
#     Edge 18, Type (0, 0), BuildingBlock: AJUNOK_clean_linker_0, # of connection points: 2
#     Edge 19, Type (0, 0), BuildingBlock: AJUNOK_clean_linker_0, # of connection points: 2
#     Edge 20, Type (0, 0), BuildingBlock: AJUNOK_clean_linker_0, # of connection points: 2
#     Edge 21, Type (0, 0), BuildingBlock: AJUNOK_clean_linker_0, # of connection points: 2
#     Edge 22, Type (0, 0), BuildingBlock: AJUNOK_clean_linker_0, # of connection points: 2
#     Edge 23, Type (0, 0), BuildingBlock: AJUNOK_clean_linker_0, # of connection points: 2
#     Edge 24, Type (0, 0), BuildingBlock: AJUNOK_clean_linker_0, # of connection points: 2
#     Edge 25, Type (0, 0), BuildingBlock: AJUNOK_clean_linker_0, # of connection points: 2
#     Edge 26, Type (0, 0), BuildingBlock: AJUNOK_clean_linker_0, # of connection points: 2
#     Edge 27, Type (0, 0), BuildingBlock: AJUNOK_clean_linker_0, # of connection points: 2
#     Edge 28, Type (0, 0), BuildingBlock: AJUNOK_clean_linker_0, # of connection points: 2
#     Edge 29, Type (0, 0), BuildingBlock: AJUNOK_clean_linker_0, # of connection points: 2
#     Edge 30, Type (0, 0), BuildingBlock: AJUNOK_clean_linker_0, # of connection points: 2
#     Edge 31, Type (0, 0), BuildingBlock: AJUNOK_clean_linker_0, # of connection points: 2
#     Edge 32, Type (0, 0), BuildingBlock: AJUNOK_clean_linker_0, # of connection points: 2
#     Edge 33, Type (0, 0), BuildingBlock: AJUNOK_clean_linker_0, # of connection points: 2
#     Edge 34, Type (0, 0), BuildingBlock: AJUNOK_clean_linker_0, # of connection points: 2
#     Edge 35, Type (0, 0), BuildingBlock: AJUNOK_clean_linker_0, # of connection points: 2
#     Edge 36, Type (0, 0), BuildingBlock: AJUNOK_clean_linker_0, # of connection points: 2
#     Edge 37, Type (0, 0), BuildingBlock: AJUNOK_clean_linker_0, # of connection points: 2
#     Edge 38, Type (0, 0), BuildingBlock: AJUNOK_clean_linker_0, # of connection points: 2
#     Edge 39, Type (0, 0), BuildingBlock: AJUNOK_clean_linker_0, # of connection points: 2
#     Edge 40, Type (0, 0), BuildingBlock: AJUNOK_clean_linker_0, # of connection points: 2
#     Edge 41, Type (0, 0), BuildingBlock: AJUNOK_clean_linker_0, # of connection points: 2
#     Edge 42, Type (0, 0), BuildingBlock: AJUNOK_clean_linker_0, # of connection points: 2
#     Edge 43, Type (0, 0), BuildingBlock: AJUNOK_clean_linker_0, # of connection points: 2
#     Edge 44, Type (0, 0), BuildingBlock: AJUNOK_clean_linker_0, # of connection points: 2
#     Edge 45, Type (0, 0), BuildingBlock: AJUNOK_clean_linker_0, # of connection points: 2
#     Edge 46, Type (0, 0), BuildingBlock: AJUNOK_clean_linker_0, # of connection points: 2
#     Edge 47, Type (0, 0), BuildingBlock: AJUNOK_clean_linker_0, # of connection points: 2
#     Edge 48, Type (0, 0), BuildingBlock: AJUNOK_clean_linker_0, # of connection points: 2
#     Edge 49, Type (0, 0), BuildingBlock: AJUNOK_clean_linker_0, # of connection points: 2
#     Edge 50, Type (0, 0), BuildingBlock: AJUNOK_clean_linker_0, # of connection points: 2
#     Edge 51, Type (0, 0), BuildingBlock: AJUNOK_clean_linker_0, # of connection points: 2
#     Edge 52, Type (0, 0), BuildingBlock: AJUNOK_clean_linker_0, # of connection points: 2
#     Edge 53, Type (0, 0), BuildingBlock: AJUNOK_clean_linker_0, # of connection points: 2
#     Edge 54, Type (0, 0), BuildingBlock: AJUNOK_clean_linker_0, # of connection points: 2
#     Edge 55, Type (0, 0), BuildingBlock: AJUNOK_clean_linker_0, # of connection points: 2
#     Edge 56, Type (0, 0), BuildingBlock: AJUNOK_clean_linker_0, # of connection points: 2
#     Edge 57, Type (0, 0), BuildingBlock: AJUNOK_clean_linker_0, # of connection points: 2
#     Edge 58, Type (0, 0), BuildingBlock: AJUNOK_clean_linker_0, # of connection points: 2
#     Edge 59, Type (0, 0), BuildingBlock: AJUNOK_clean_linker_0, # of connection points: 2
#     Edge 60, Type (0, 0), BuildingBlock: AJUNOK_clean_linker_0, # of connection points: 2
#     Edge 61, Type (0, 0), BuildingBlock: AJUNOK_clean_linker_0, # of connection points: 2
#     Edge 62, Type (0, 0), BuildingBlock: AJUNOK_clean_linker_0, # of connection points: 2
#     Edge 63, Type (0, 0), BuildingBlock: AJUNOK_clean_linker_0, # of connection points: 2
# Relax obj value: 0.731
# Max RMSD: 0.339
# Mean RMSD: 0.339
data_MOF--net-wiu--node1-BETGAK_clean_sbu_0--edge1-AJUNOK_clean_linker_0
_symmetry_space_group_name_H-M    P1
_symmetry_Int_Tables_number       1
_symmetry_cell_setting            triclinic
loop_
_symmetry_equiv_pos_as_xyz
'x, y, z'
_cell_length_a     28.87199
_cell_length_b     28.904986
_cell_length_c     37.18152
_cell_angle_alpha  90.068098
_cell_angle_beta   89.759478
_cell_angle_gamma 89.910758
loop_
_atom_site_label
_atom_site_type_symbol
_atom_site_fract_x
_atom_site_fract_y
_atom_site_fract_z
_atom_type_partial_charge
La0 La 0.39314 0.22096 0.4104 0.0
La1 La 0.4479 0.15179 0.37698 0.0
C2 C 0.34293 0.28119 0.44088 0.0
C3 C 0.32906 0.32686 0.42656 0.0
C4 C 0.34375 0.34022 0.392 0.0
C5 C 0.33149 0.38328 0.37789 0.0
C6 C 0.30345 0.41371 0.39774 0.0
C7 C 0.28762 0.39994 0.432 0.0
C8 C 0.3007 0.35699 0.44645 0.0
C9 C 0.47662 0.25263 0.38804 0.0
C10 C 0.43918 0.14051 0.45916 0.0
C11 C 0.51516 0.11861 0.34321 0.0
C12 C 0.56442 0.11492 0.3529 0.0
C13 C 0.58578 0.07158 0.35252 0.0
C14 C 0.63308 0.06769 0.35898 0.0
C15 C 0.66043 0.10732 0.3659 0.0
C16 C 0.63771 0.15012 0.36987 0.0
C17 C 0.59035 0.15399 0.36285 0.0
C18 C 0.36484 0.11847 0.39464 0.0
C19 C 0.3706 0.20225 0.32716 0.0
O20 O 0.32655 0.2457 0.42341 0.0
O21 O 0.38704 0.27599 0.44742 0.0
O22 O 0.437 0.27121 0.38135 0.0
O23 O 0.4681 0.2149 0.4044 0.0
O24 O 0.40365 0.16989 0.45554 0.0
O25 O 0.46836 0.1354 0.43206 0.0
O26 O 0.4992 0.16048 0.33764 0.0
O27 O 0.48676 0.09327 0.36234 0.0
O28 O 0.40234 0.09374 0.39201 0.0
O29 O 0.37522 0.15854 0.38443 0.0
O30 O 0.40751 0.17435 0.32821 0.0
O31 O 0.35808 0.22391 0.35725 0.0
H32 H 0.36444 0.31719 0.37563 0.0
H33 H 0.34328 0.39248 0.35114 0.0
H34 H 0.26545 0.42254 0.44769 0.0
H35 H 0.28851 0.34725 0.47297 0.0
H36 H 0.56629 1.04086 0.34552 0.0
H37 H 0.64834 1.03386 0.35518 0.0
H38 H 0.65723 0.18129 0.37538 0.0
H39 H 0.57454 0.18788 0.3636 0.0
La40 La 0.64505 0.63225 0.66353 0.0
La41 La 0.71754 0.68275 0.63183 0.0
C42 C 0.5837 0.58583 0.696 0.0
C43 C 0.5361 0.57406 0.68461 0.0
C44 C 0.51013 0.60529 0.66386 0.0
C45 C 0.46802 0.59191 0.64871 0.0
C46 C 0.45081 0.54699 0.65395 0.0
C47 C 0.47575 0.51638 0.6761 0.0
C48 C 0.51818 0.52973 0.69111 0.0
C49 C 0.61605 0.71561 0.63953 0.0
C50 C 0.72338 0.67926 0.71372 0.0
C51 C 0.75951 0.74492 0.59839 0.0
C52 C 0.77035 0.79274 0.60855 0.0
C53 C 0.81446 0.8101 0.60144 0.0
C54 C 0.8246 0.85614 0.60894 0.0
C55 C 0.79047 0.88613 0.62337 0.0
C56 C 0.74784 0.86704 0.63405 0.0
C57 C 0.73774 0.8208 0.62634 0.0
C58 C 0.74661 0.59894 0.65211 0.0
C59 C 0.66659 0.6068 0.58119 0.0
O60 O 0.61658 0.56734 0.67658 0.0
O61 O 0.59205 0.62943 0.70257 0.0
O62 O 0.59674 0.67626 0.63307 0.0
O63 O 0.65323 0.70672 0.6566 0.0
O64 O 0.695 0.64316 0.70952 0.0
O65 O 0.7298 0.70718 0.6863 0.0
O66 O 0.71565 0.7353 0.59309 0.0
O67 O 0.78063 0.71334 0.61736 0.0
O68 O 0.7721 0.6359 0.65177 0.0
O69 O 0.70793 0.61048 0.63976 0.0
O70 O 0.69662 0.64174 0.58323 0.0
O71 O 0.64168 0.59638 0.61028 0.0
H72 H 0.52283 0.63978 0.65851 0.0
H73 H 0.44955 0.61637 0.63199 0.0
H74 H 0.46264 0.48201 0.6816 0.0
H75 H 0.53751 0.50509 0.70708 0.0
H76 H 0.84056 0.78855 0.5887 0.0
H77 H 0.85815 0.86877 0.6005 0.0
H78 H 0.72121 0.88852 0.64607 0.0
H79 H 0.70385 0.80746 0.63288 0.0
La80 La 0.23064 0.8884 0.9109 0.0
La81 La 0.18506 0.96656 0.88164 0.0
C82 C 0.27237 0.82167 0.94092 0.0
C83 C 0.28794 0.77693 0.92564 0.0
C84 C 0.29339 0.77184 0.88824 0.0
C85 C 0.30799 0.72974 0.87347 0.0
C86 C 0.31711 0.6916 0.89571 0.0
C87 C 0.31085 0.69639 0.93312 0.0
C88 C 0.29658 0.7388 0.94797 0.0
C89 C 0.14623 0.86598 0.88591 0.0
C90 C 0.18597 0.96639 0.96338 0.0
C91 C 0.12839 1.01786 0.84959 0.0
C92 C 0.08131 1.0335 0.85819 0.0
C93 C 1.05731 1.01593 0.88814 0.0
C94 C 1.00987 1.02465 0.89236 0.0
C95 C 0.98622 1.05135 0.86682 0.0
C96 C 1.01202 0.07336 0.83941 0.0
C97 C 1.05905 1.0641 0.83497 0.0
C98 C 0.27048 0.98721 0.90429 0.0
C99 C 0.25815 0.91346 0.82929 0.0
O100 O 0.29299 0.85828 0.92829 0.0
O101 O 0.2277 0.82792 0.94266 0.0
O102 O 0.1848 0.84539 0.87832 0.0
O103 O 0.15685 0.90218 0.9039 0.0
O104 O 0.22034 0.93583 0.95875 0.0
O105 O 0.15914 0.97589 0.93599 0.0
O106 O 0.13299 0.97351 0.84284 0.0
O107 O 0.1607 1.0334 0.87084 0.0
O108 O 0.23568 1.01563 0.9047 0.0
O109 O 0.25634 0.95085 0.88967 0.0
O110 O 0.22474 0.9452 0.83225 0.0
O111 O 0.26706 0.88665 0.85757 0.0
H112 H 0.28631 0.80043 0.87035 0.0
H113 H 0.31164 0.72684 0.84454 0.0
H114 H 0.31758 0.66749 0.95088 0.0
H115 H 0.29229 0.74182 0.97685 0.0
H116 H 0.07457 0.99326 0.90696 0.0
H117 H 0.99095 1.00762 0.91376 0.0
H118 H 0.99506 0.09381 0.8189 0.0
H119 H 0.07729 0.07855 0.81206 0.0
La120 La 0.98467 0.47635 1.16109 0.0
La121 La 0.90631 0.43422 1.13425 0.0
C122 C 1.05261 0.51585 1.19106 0.0
C123 C 0.10038 0.52545 1.17833 0.0
C124 C 0.12532 0.49303 1.15758 0.0
C125 C 0.16838 0.50463 1.14251 0.0
C126 C 0.18698 0.54914 1.14724 0.0
C127 C 0.16283 0.58077 1.16927 0.0
C128 C 0.11998 0.56909 1.18452 0.0
C129 C 1.0066 0.39255 1.13334 0.0
C130 C 0.90838 0.43321 1.21511 0.0
C131 C 0.84258 0.39292 1.10235 0.0
C132 C 0.80101 0.41379 1.08578 0.0
C133 C 0.76169 0.42413 1.10698 0.0
C134 C 0.72216 0.44344 1.09155 0.0
C135 C 0.72072 0.45224 1.05449 0.0
C136 C 0.76129 0.44491 1.03387 0.0
C137 C 0.80085 0.42578 1.04931 0.0
C138 C 0.88682 0.52057 1.15698 0.0
C139 C 0.95885 0.5045 1.0803 0.0
O140 O 1.01997 0.53781 1.17403 0.0
O141 O 1.04141 0.47267 1.19652 0.0
O142 O 1.02691 0.43132 1.12658 0.0
O143 O 0.97103 0.40243 1.15235 0.0
O144 O 0.9373 0.46856 1.20962 0.0
O145 O 0.90103 0.40539 1.18795 0.0
O146 O 0.84451 0.39715 1.13717 0.0
O147 O 0.88285 0.40095 1.08713 0.0
O148 O 0.85926 0.48561 1.15908 0.0
O149 O 0.92255 0.50564 1.14192 0.0
O150 O 0.92754 0.47104 1.08381 0.0
O151 O 0.98604 0.51361 1.10827 0.0
H152 H 0.11118 0.45903 1.15235 0.0
H153 H 0.1865 0.47922 1.12628 0.0
H154 H 0.17696 0.61479 1.17454 0.0
H155 H 0.1016 0.59458 1.20054 0.0
H156 H 0.76084 0.41613 1.13542 0.0
H157 H 0.69158 0.44843 1.1081 0.0
H158 H 0.76161 0.45041 1.00509 0.0
H159 H 0.83077 0.41907 1.03241 0.0
La160 La 0.68913 0.96268 1.12211 0.0
La161 La 0.73457 0.88864 1.08958 0.0
C162 C 0.64674 1.00778 1.16848 0.0
C163 C 0.66979 1.02741 1.20037 0.0
C164 C 0.70773 1.05773 1.19648 0.0
C165 C 0.73429 0.07035 1.22621 0.0
C166 C 0.72429 1.05212 0.26029 0.0
C167 C 0.68626 1.02188 0.26405 0.0
C168 C 0.65936 1.00976 1.23447 0.0
C169 C 0.77166 0.98866 1.09733 0.0
C170 C 0.76667 0.90956 1.17034 0.0
C171 C 0.7773 0.82543 1.05595 0.0
C172 C 0.79144 0.77979 1.06982 0.0
C173 C 0.7827 0.76889 1.10603 0.0
C174 C 0.7971 0.72671 1.12034 0.0
C175 C 0.82044 0.69447 1.09875 0.0
C176 C 0.82927 0.70508 1.06243 0.0
C177 C 0.81468 0.74754 1.04799 0.0
C178 C 0.65127 0.86244 1.11609 0.0
C179 C 0.68564 0.96813 1.04076 0.0
O180 O 0.65877 1.02568 1.13747 0.0
O181 O 0.6456 0.96238 1.16751 0.0
O182 O 0.73547 1.01517 1.09888 0.0
O183 O 0.76066 0.95069 1.11124 0.0
O184 O 0.73364 0.94147 1.16855 0.0
O185 O 0.7741 0.88345 1.14138 0.0
O186 O 0.79764 0.86063 1.07109 0.0
O187 O 0.73275 0.83221 1.05364 0.0
O188 O 0.69065 0.84263 1.12185 0.0
O189 O 0.66048 0.89953 1.09894 0.0
O190 O 0.72074 0.93803 1.04361 0.0
O191 O 0.66005 0.97668 1.06941 0.0
H192 H 0.71749 0.07129 1.17039 0.0
H193 H 0.76233 0.09477 1.22265 0.0
H194 H 0.67602 1.00874 0.29015 0.0
H195 H 0.63084 0.98588 1.23814 0.0
H196 H 0.76545 0.79337 1.12355 0.0
H197 H 0.79128 0.71986 1.14858 0.0
H198 H 0.84765 0.68069 1.04542 0.0
H199 H 0.82194 0.75537 1.02005 0.0
La200 La 0.40985 0.43099 0.86676 0.0
La201 La 0.48512 0.47809 0.83833 0.0
C202 C 0.34967 0.38698 0.90062 0.0
C203 C 0.30645 0.40706 0.91546 0.0
C204 C 0.26902 0.41772 0.8926 0.0
C205 C 0.22839 0.43722 0.90633 0.0
C206 C 0.22407 0.4462 0.94323 0.0
C207 C 0.26265 0.43836 0.96564 0.0
C208 C 0.30329 0.41891 0.95191 0.0
C209 C 0.38337 0.51438 0.84262 0.0
C210 C 0.45832 0.50599 0.91888 0.0
C211 C 0.54916 0.52258 0.80703 0.0
C212 C 0.59724 0.53363 0.81816 0.0
C213 C 0.62779 0.49879 0.82954 0.0
C214 C 0.6706 0.50998 0.84484 0.0
C215 C 0.68426 0.55641 0.8486 0.0
C216 C 0.65476 0.59117 0.83518 0.0
C217 C 0.6116 0.57992 0.82044 0.0
C218 C 0.51219 0.39571 0.8665 0.0
C219 C 0.41164 0.42955 0.78549 0.0
O220 O 0.35248 0.38706 0.86568 0.0
O221 O 0.38869 0.39979 0.91546 0.0
O222 O 0.35838 0.47751 0.84248 0.0
O223 O 0.42062 0.50334 0.85738 0.0
O224 O 0.4303 0.46965 0.91642 0.0
O225 O 0.48389 0.51697 0.89033 0.0
O226 O 0.51671 0.54187 0.82636 0.0
O227 O 0.53942 0.47932 0.80022 0.0
O228 O 0.53112 0.43559 0.87173 0.0
O229 O 0.47598 0.40349 0.84798 0.0
O230 O 0.43861 0.4664 0.79053 0.0
O231 O 0.40508 0.40186 0.81293 0.0
H232 H 0.27051 0.41001 0.86411 0.0
H233 H 0.19922 0.44239 0.88854 0.0
H234 H 0.26043 0.44386 0.99441 0.0
H235 H 0.33176 0.41205 0.97003 0.0
H236 H 0.61814 0.46288 0.82724 0.0
H237 H 0.69253 0.48227 0.8545 0.0
H238 H 0.66488 0.6272 0.83621 0.0
H239 H 0.58898 0.6075 0.81148 0.0
La240 La 0.94073 0.14405 0.62433 0.0
La241 La 0.89967 0.22108 0.59265 0.0
C242 C 0.97964 0.08894 0.66645 0.0
C243 C 0.95629 1.06496 0.6962 0.0
C244 C 0.98175 1.04472 0.72384 0.0
C245 C 0.959 1.02906 0.7547 0.0
C246 C 0.91058 1.0343 0.75859 0.0
C247 C 0.88486 1.05154 0.72978 0.0
C248 C 0.90762 1.06627 0.69861 0.0
C249 C 0.8564 0.12319 0.59948 0.0
C250 C 0.868 0.20103 0.67356 0.0
C251 C 0.85953 0.28745 0.56081 0.0
C252 C 0.84542 0.33354 0.57452 0.0
C253 C 0.86061 0.3489 0.60837 0.0
C254 C 0.84634 0.39174 0.62209 0.0
C255 C 0.81608 0.42009 0.60246 0.0
C256 C 0.8005 0.40454 0.56867 0.0
C257 C 0.81523 0.36174 0.55475 0.0
C258 C 0.98196 0.24374 0.62194 0.0
C259 C 0.94624 0.14079 0.54266 0.0
O260 O 0.96526 0.07704 0.63455 0.0
O261 O 0.98241 0.13399 0.66996 0.0
O262 O 0.89162 0.09565 0.59978 0.0
O263 O 0.86953 0.16017 0.61382 0.0
O264 O 0.90093 0.16916 0.67202 0.0
O265 O 0.85966 0.22588 0.64423 0.0
O266 O 0.83786 0.25238 0.575 0.0
O267 O 0.904 0.27961 0.559 0.0
O268 O 0.94295 0.26452 0.62694 0.0
O269 O 0.97313 0.20726 0.60367 0.0
O270 O 0.91356 0.17361 0.54507 0.0
O271 O 0.9699 0.13018 0.57166 0.0
H272 H 1.01921 1.04329 0.72244 0.0
H273 H 0.97981 1.01644 0.7768 0.0
H274 H 0.84776 1.05628 0.73229 0.0
H275 H 0.88746 0.08127 0.67718 0.0
H276 H 0.88307 0.32753 0.62453 0.0
H277 H 0.85814 0.40223 0.64849 0.0
H278 H 0.77698 0.42558 0.55299 0.0
H279 H 0.80269 0.35049 0.52875 0.0
La280 La 0.22342 0.68114 0.37208 0.0
La281 La 0.14739 0.63591 0.34086 0.0
C282 C 0.2677 0.72657 0.41693 0.0
C283 C 0.28134 0.70834 0.4523 0.0
C284 C 0.31006 0.66899 0.45511 0.0
C285 C 0.31428 0.64567 0.48785 0.0
C286 C 0.28883 0.66033 0.51795 0.0
C287 C 0.26141 0.70057 0.5152 0.0
C288 C 0.25799 0.72438 0.4829 0.0
C289 C 0.24645 0.59653 0.34973 0.0
C290 C 0.16835 0.60663 0.42235 0.0
C291 C 0.08396 0.59228 0.30877 0.0
C292 C 1.03804 0.57901 0.32288 0.0
C293 C 1.02421 0.59435 0.35715 0.0
C294 C 0.98152 0.58138 0.3716 0.0
C295 C 0.95196 0.55214 0.35232 0.0
C296 C 0.96592 0.53615 0.31814 0.0
C297 C 1.0086 0.54978 0.30339 0.0
C298 C 0.12339 0.71983 0.36686 0.0
C299 C 0.22843 0.68131 0.29054 0.0
O300 O 0.28755 0.70738 0.38889 0.0
O301 O 0.22281 0.73122 0.41282 0.0
O302 O 0.27433 0.63172 0.34992 0.0
O303 O 0.20892 0.61006 0.36322 0.0
O304 O 0.20085 0.63904 0.41974 0.0
O305 O 0.14196 0.59875 0.39371 0.0
O306 O 0.11894 0.57233 0.32452 0.0
O307 O 0.09095 0.63664 0.30514 0.0
O308 O 0.10182 0.68144 0.37231 0.0
O309 O 0.16009 0.70968 0.34924 0.0
O310 O 0.19682 0.64768 0.29423 0.0
O311 O 0.2384 0.70723 0.31858 0.0
H312 H 0.32828 0.65535 0.43188 0.0
H313 H 0.33733 0.6162 0.48966 0.0
H314 H 0.24313 0.71448 0.53827 0.0
H315 H 0.23552 0.75439 0.48148 0.0
H316 H 1.04672 0.61582 0.37314 0.0
H317 H 0.97208 0.59334 0.39828 0.0
H318 H 0.94379 0.5132 0.3029 0.0
H319 H 1.0188 0.53715 0.27707 0.0
La320 La 0.88797 0.72096 0.91487 0.0
La321 La 0.94205 0.65345 0.87838 0.0
C322 C 0.83261 0.78518 0.93381 0.0
C323 C 0.82686 0.83316 0.92046 0.0
C324 C 0.80655 0.8671 0.94247 0.0
C325 C 0.80044 0.91238 0.92972 0.0
C326 C 0.81415 0.92449 0.89458 0.0
C327 C 0.83522 0.89064 0.87281 0.0
C328 C 0.84176 0.84553 0.88569 0.0
C329 C 0.97779 0.74743 0.90641 0.0
C330 C 0.93402 0.64361 0.9619 0.0
C331 C 1.00847 0.62298 0.8416 0.0
C332 C 1.05575 0.64101 0.837 0.0
C333 C 0.09332 0.61301 0.84599 0.0
C334 C 0.13836 0.62957 0.84258 0.0
C335 C 0.14738 0.67494 0.82985 0.0
C336 C 0.109 0.70375 0.82306 0.0
C337 C 1.06384 0.68678 0.82598 0.0
C338 C 0.8636 0.61485 0.90177 0.0
C339 C 0.86254 0.69695 0.83155 0.0
O340 O 0.82223 0.75234 0.91136 0.0
O341 O 0.87123 0.77599 0.95016 0.0
O342 O 0.95229 0.75344 0.9344 0.0
O343 O 0.95199 0.72739 0.88361 0.0
O344 O 0.89521 0.66833 0.95846 0.0
O345 O 0.96423 0.64425 0.9349 0.0
O346 O 0.9751 0.64807 0.82825 0.0
O347 O 0.99843 0.60773 0.87374 0.0
O348 O 0.90174 0.59243 0.89502 0.0
O349 O 0.87063 0.65593 0.89219 0.0
O350 O 0.89206 0.66202 0.83432 0.0
O351 O 0.86045 0.72817 0.85817 0.0
H352 H 0.79512 0.85852 0.96944 0.0
H353 H 0.78404 0.93776 0.94709 0.0
H354 H 0.84676 0.89911 0.84585 0.0
H355 H 0.85827 0.82025 0.86835 0.0
H356 H 0.08789 0.57782 0.85512 0.0
H357 H 0.16579 0.60515 0.84816 0.0
H358 H 0.1133 0.73935 0.81503 0.0
H359 H 1.0353 0.70988 0.82007 0.0
La360 La 0.15289 0.13583 1.16315 0.0
La361 La 0.21942 0.18871 1.12273 0.0
C362 C 0.08782 0.0834 1.1845 0.0
C363 C 1.04289 0.06974 1.16845 0.0
C364 C 1.00147 0.08634 1.1837 0.0
C365 C 0.95874 0.07589 1.16815 0.0
C366 C 0.95629 1.04821 1.1371 0.0
C367 C 0.99768 1.03103 1.12206 0.0
C368 C 1.04057 1.04185 1.13744 0.0
C369 C 0.12722 0.22518 1.15243 0.0
C370 C 0.23618 0.17783 1.20689 0.0
C371 C 0.24661 0.25857 1.08901 0.0
C372 C 0.21973 0.29433 1.07062 0.0
C373 C 0.23636 0.33962 1.07025 0.0
C374 C 0.20934 0.37518 1.05626 0.0
C375 C 0.16459 0.36637 1.0426 0.0
C376 C 0.14739 0.32088 1.04442 0.0
C377 C 0.17486 0.28511 1.05806 0.0
C378 C 0.25798 0.11049 1.14579 0.0
C379 C 0.17102 0.1099 1.07832 0.0
O380 O 0.12559 0.06855 1.16919 0.0
O381 O 0.09162 0.12673 1.1932 0.0
O382 O 0.12465 0.20254 1.18213 0.0
O383 O 0.14551 0.1975 1.12981 0.0
O384 O 0.20523 0.14368 1.20639 0.0
O385 O 0.24151 0.20465 1.17827 0.0
O386 O 0.24636 0.21697 1.07493 0.0
O387 O 0.23971 0.25799 1.12374 0.0
O388 O 0.28104 0.14759 1.13704 0.0
O389 O 0.21635 0.1182 1.13775 0.0
O390 O 0.20209 0.14359 1.07729 0.0
O391 O 0.1447 0.10433 1.10778 0.0
H392 H 1.00216 0.10774 1.20764 0.0
H393 H 0.92755 0.08896 1.18083 0.0
H394 H 0.99687 1.00949 1.09821 0.0
H395 H 0.0718 1.02857 1.12489 0.0
H396 H 0.27049 0.34748 1.08061 0.0
H397 H 0.22497 0.4091 1.05451 0.0
H398 H 0.11325 0.3127 1.03431 0.0
H399 H 0.16076 0.25044 1.0594 0.0
La400 La 0.73434 0.38916 0.41247 0.0
La401 La 0.69064 0.46599 0.38282 0.0
C402 C 0.77702 0.32426 0.44378 0.0
C403 C 0.79036 0.27839 0.42964 0.0
C404 C 0.77984 0.26651 0.39396 0.0
C405 C 0.79358 0.22387 0.3797 0.0
C406 C 0.8187 0.19218 0.40064 0.0
C407 C 0.8289 0.20414 0.43657 0.0
C408 C 0.81491 0.24687 0.45091 0.0
C409 C 0.6511 0.36557 0.38405 0.0
C410 C 0.68708 0.46643 0.46396 0.0
C411 C 0.65074 0.52386 0.34451 0.0
C412 C 0.67478 0.55896 0.32253 0.0
C413 C 0.70325 0.59273 0.33875 0.0
C414 C 0.72654 0.62544 0.31785 0.0
C415 C 0.72209 0.62482 0.28039 0.0
C416 C 0.69601 0.58926 0.26418 0.0
C417 C 0.67248 0.55684 0.28503 0.0
C418 C 0.7749 0.48826 0.40721 0.0
C419 C 0.7663 0.41394 0.33215 0.0
O420 O 0.79743 0.35914 0.42824 0.0
O421 O 0.73267 0.33176 0.44741 0.0
O422 O 0.69006 0.34437 0.37951 0.0
O423 O 0.66041 0.40163 0.40241 0.0
O424 O 0.72238 0.43688 0.45994 0.0
O425 O 0.66057 0.47426 0.43603 0.0
O426 O 0.65517 0.52889 0.37921 0.0
O427 O 0.65587 0.48064 0.33439 0.0
O428 O 0.73917 0.51513 0.40781 0.0
O429 O 0.76179 0.45167 0.39254 0.0
O430 O 0.73252 0.44513 0.33454 0.0
O431 O 0.77385 0.38684 0.36045 0.0
H432 H 0.76126 0.2904 0.37692 0.0
H433 H 0.78415 0.21575 0.35229 0.0
H434 H 0.84826 0.1807 0.45354 0.0
H435 H 0.82361 0.25544 0.47844 0.0
H436 H 0.70688 0.59469 0.36768 0.0
H437 H 0.74603 0.65258 0.33099 0.0
H438 H 0.69119 0.58823 1.23534 0.0
H439 H 0.65174 0.53067 0.27185 0.0
La440 La 0.47915 0.97598 0.6605 0.0
La441 La 0.4042 0.928 0.62898 0.0
C442 C 0.54259 1.02092 0.69174 0.0
C443 C 0.58777 1.03693 0.67755 0.0
C444 C 0.59371 1.04459 0.64047 0.0
C445 C 0.63654 1.05859 0.62663 0.0
C446 C 0.67454 1.065 0.64952 0.0
C447 C 0.66879 1.05686 0.68662 0.0
C448 C 0.62569 1.04309 0.70053 0.0
C449 C 0.50458 0.89145 0.63609 0.0
C450 C 0.39851 0.93163 0.71109 0.0
C451 C 0.358 0.86782 0.59731 0.0
C452 C 0.34277 0.82248 0.61009 0.0
C453 C 0.29917 0.80637 0.60021 0.0
C454 C 0.28572 0.76176 0.60936 0.0
C455 C 0.31629 0.73197 0.62788 0.0
C456 C 0.35746 0.75058 0.64182 0.0
C457 C 0.37071 0.79561 0.63287 0.0
C458 C 0.37919 1.01271 0.64982 0.0
C459 C 0.45771 1.00116 0.57766 0.0
O460 O 0.50609 1.03989 0.67745 0.0
O461 O 0.53758 0.97625 0.69449 0.0
O462 O 0.52619 0.92992 0.63067 0.0
O463 O 0.46763 0.902 0.65326 0.0
O464 O 0.42957 0.96566 0.7073 0.0
O465 O 0.3905 0.90446 0.68347 0.0
O466 O 0.40274 0.87294 0.59231 0.0
O467 O 0.33913 0.90276 0.61418 0.0
O468 O 0.35209 0.97696 0.6499 0.0
O469 O 0.41719 0.99958 0.63688 0.0
O470 O 0.42698 0.96688 0.57987 0.0
O471 O 0.48267 1.01127 0.60674 0.0
H472 H 0.5653 1.0395 0.62204 0.0
H473 H 0.64015 1.06368 0.5979 0.0
H474 H 0.69757 1.06148 0.70488 0.0
H475 H 0.62204 1.03705 0.72915 0.0
H476 H 0.27647 0.82741 0.58378 0.0
H477 H 0.25348 0.74939 0.59823 0.0
H478 H 0.38146 0.72887 0.65648 0.0
H479 H 0.40382 0.80847 0.64214 0.0
La480 La 0.19113 0.46087 0.62253 0.0
La481 La 0.23508 0.38745 0.58926 0.0
C482 C 0.15081 0.51131 0.66707 0.0
C483 C 0.17517 0.54254 0.69198 0.0
C484 C 0.21214 0.56997 0.67941 0.0
C485 C 0.23619 0.59911 0.70262 0.0
C486 C 0.22434 0.60073 0.73904 0.0
C487 C 0.18888 0.57157 0.75204 0.0
C488 C 0.16448 0.54272 0.72867 0.0
C489 C 0.27389 0.48726 0.59692 0.0
C490 C 0.27077 0.40905 0.66897 0.0
C491 C 0.27451 0.3231 0.555 0.0
C492 C 0.29034 0.27796 0.5691 0.0
C493 C 0.27872 0.2366 0.55146 0.0
C494 C 0.29089 0.19375 0.56644 0.0
C495 C 0.31511 0.19175 0.59914 0.0
C496 C 0.32618 0.23312 0.61687 0.0
C497 C 0.31393 0.27568 0.60208 0.0
C498 C 0.15525 0.35951 0.62021 0.0
C499 C 0.18611 0.46754 0.54118 0.0
O500 O 0.15455 0.52207 0.63307 0.0
O501 O 0.15713 0.467 0.67262 0.0
O502 O 0.23748 0.51321 0.59886 0.0
O503 O 0.26257 0.44921 0.61025 0.0
O504 O 0.23616 0.43936 0.66847 0.0
O505 O 0.27812 0.38391 0.63943 0.0
O506 O 0.29609 0.35948 0.56715 0.0
O507 O 0.22981 0.3295 0.5549 0.0
O508 O 0.19562 0.34107 0.62432 0.0
O509 O 0.1614 0.3966 0.60212 0.0
O510 O 0.22048 0.43665 0.54342 0.0
O511 O 0.16095 0.4754 0.57013 0.0
H512 H 0.22204 0.5696 0.65142 0.0
H513 H 0.26323 0.62125 0.69204 0.0
H514 H 0.17825 0.57293 0.77999 0.0
H515 H 0.13686 0.52119 0.73913 0.0
H516 H 0.25993 0.23746 0.52631 0.0
H517 H 0.28201 0.16227 0.55226 0.0
H518 H 0.3443 0.2325 0.64232 0.0
H519 H 0.32271 0.3068 0.61676 0.0
La520 La 0.91437 0.931 0.37209 0.0
La521 La 0.98529 0.97886 0.33715 0.0
C522 C 0.87308 0.88628 0.41935 0.0
C523 C 0.85732 0.90716 0.45347 0.0
C524 C 0.83107 0.9483 0.45342 0.0
C525 C 0.82348 0.97311 0.48518 0.0
C526 C 0.84126 0.95678 0.51784 0.0
C527 C 0.86752 0.91552 0.5177 0.0
C528 C 0.87552 0.89113 0.48592 0.0
C529 C 0.88424 1.01329 0.34918 0.0
C530 C 0.96727 1.00983 0.4186 0.0
C531 C 1.04814 1.02223 0.30395 0.0
C532 C 0.09401 1.03753 0.31755 0.0
C533 C 0.13471 1.02716 0.29831 0.0
C534 C 0.17833 1.03808 0.31259 0.0
C535 C 0.18215 1.05956 0.34649 0.0
C536 C 0.14135 0.07052 0.36541 0.0
C537 C 0.09789 1.05946 0.35125 0.0
C538 C 1.01509 0.89769 0.36471 0.0
C539 C 0.90432 0.92924 0.29019 0.0
O540 O 0.8524 0.90095 0.39025 0.0
O541 O 0.91819 0.88463 0.41544 0.0
O542 O 0.85955 0.9761 0.35157 0.0
O543 O 0.92343 1.00308 0.36134 0.0
O544 O 0.93984 0.973 0.4189 0.0
O545 O 0.98797 1.02074 0.38776 0.0
O546 O 1.01174 1.04212 0.31809 0.0
O547 O 1.04232 0.97762 0.30137 0.0
O548 O 1.03405 0.9377 0.36922 0.0
O549 O 0.9775 0.90475 0.34769 0.0
O550 O 0.93491 0.96396 0.2922 0.0
O551 O 0.89739 0.90338 0.31899 0.0
H552 H 0.81693 0.9618 0.42869 0.0
H553 H 0.80324 1.00464 0.48421 0.0
H554 H 0.88099 0.9011 0.54238 0.0
H555 H 0.89662 0.86011 0.4866 0.0
H556 H 0.13279 1.01011 0.27239 0.0
H557 H 0.20906 1.03005 0.29698 0.0
H558 H 0.14306 0.08704 0.39153 0.0
H559 H 0.06736 0.06757 0.36706 0.0
La560 La 0.44422 0.65326 1.12103 0.0
La561 La 0.38978 0.72202 1.08679 0.0
C562 C 0.51214 0.62106 1.1547 0.0
C563 C 0.55636 0.6429 1.16363 0.0
C564 C 0.59657 0.6162 1.16377 0.0
C565 C 0.63883 0.63637 1.17236 0.0
C566 C 0.6419 0.68397 1.18098 0.0
C567 C 0.60171 0.71122 1.1781 0.0
C568 C 0.55921 0.69074 1.16997 0.0
C569 C 0.36576 0.61496 1.09798 0.0
C570 C 0.36547 0.69618 1.16998 0.0
C571 C 0.33271 0.78475 1.06823 0.0
C572 C 0.32801 0.83442 1.07707 0.0
C573 C 0.36314 0.85817 1.09554 0.0
C574 C 0.35578 0.90355 1.1079 0.0
C575 C 0.31291 0.92557 1.10247 0.0
C576 C 0.27853 0.90224 1.08282 0.0
C577 C 0.286 0.85711 1.0703 0.0
C578 C 0.47983 0.74831 1.09539 0.0
C579 C 0.43339 0.64475 1.03775 0.0
O580 O 0.47551 0.63829 1.17049 0.0
O581 O 0.50552 0.61411 1.12046 0.0
O582 O 0.40389 0.59238 1.10412 0.0
O583 O 0.37256 0.65596 1.10805 0.0
O584 O 0.39645 0.66249 1.16685 0.0
O585 O 0.36146 0.72711 1.14342 0.0
O586 O 0.32671 0.75689 1.09519 0.0
O587 O 0.3683 0.77215 1.04892 0.0
O588 O 0.45394 0.75669 1.06818 0.0
O589 O 0.45392 0.72737 1.11768 0.0
O590 O 0.39525 0.67008 1.04248 0.0
O591 O 0.46437 0.64432 1.06392 0.0
H592 H 0.59514 0.57944 1.15813 0.0
H593 H 0.66847 0.61358 1.17426 0.0
H594 H 0.60269 0.7481 1.18302 0.0
H595 H 0.52853 0.71229 1.1688 0.0
H596 H 0.3957 0.8411 1.10136 0.0
H597 H 0.38286 0.92075 1.12288 0.0
H598 H 0.24546 0.91869 1.07771 0.0
H599 H 0.25841 0.83941 1.05623 0.0
La600 La 0.71906 0.18676 0.8783 0.0
La601 La 0.65288 0.1345 0.83961 0.0
C602 C 0.74822 0.25347 0.91492 0.0
C603 C 0.72161 0.29085 0.93169 0.0
C604 C 0.74202 0.33421 0.93578 0.0
C605 C 0.7158 0.37135 0.94832 0.0
C606 C 0.66832 0.36601 0.95666 0.0
C607 C 0.64782 0.3224 0.952 0.0
C608 C 0.67429 0.28508 0.93958 0.0
C609 C 0.75872 0.1098 0.85379 0.0
C610 C 0.67081 0.10821 0.92345 0.0
C611 C 0.58901 0.08126 0.81787 0.0
C612 C 0.54374 0.06759 0.83364 0.0
C613 C 0.50253 0.08232 0.81716 0.0
C614 C 0.45938 0.0717 0.8323 0.0
C615 C 0.45646 1.04554 0.86401 0.0
C616 C 0.49761 1.03087 0.88063 0.0
C617 C 0.54083 1.04185 0.86567 0.0
C618 C 0.6276 0.22408 0.84984 0.0
C619 C 0.73253 0.17934 0.79409 0.0
O620 O 0.74203 0.21208 0.92815 0.0
O621 O 0.74674 0.25364 0.87988 0.0
O622 O 0.78068 0.14778 0.86146 0.0
O623 O 0.71719 0.11568 0.86327 0.0
O624 O 0.70428 0.13942 0.92298 0.0
O625 O 0.64254 0.10469 0.89516 0.0
O626 O 0.62663 0.06676 0.8335 0.0
O627 O 0.59265 0.12451 0.80894 0.0
O628 O 0.62447 0.20104 0.82033 0.0
O629 O 0.64536 0.19662 0.87262 0.0
O630 O 0.70508 0.1425 0.79607 0.0
O631 O 0.73503 0.20738 0.82226 0.0
H632 H 0.77825 0.33938 0.92924 0.0
H633 H 0.73343 0.40388 0.95266 0.0
H634 H 0.61168 0.31702 0.95867 0.0
H635 H 0.65769 0.25187 0.93572 0.0
H636 H 0.50371 0.10228 0.79252 0.0
H637 H 0.42824 0.0831 0.8188 0.0
H638 H 0.4963 1.0108 0.9052 0.0
H639 H 0.57184 1.03023 0.87926 0.0
C640 C 0.52476 0.32303 0.36883 0.0
C641 C 0.52179 0.28059 0.38793 0.0
C642 C 0.56555 0.35084 0.36845 0.0
C643 C 0.60611 0.33779 0.38698 0.0
H644 H 0.49509 0.33501 0.35372 0.0
H645 H 0.56554 0.38248 0.35288 0.0
S646 S 0.61671 0.2324 0.44382 0.0
N647 N 0.56329 0.22935 0.42822 0.0
N648 N 0.6395 0.27979 0.4264 0.0
C649 C 0.60349 0.29581 0.40658 0.0
C650 C 0.56173 0.2679 0.40741 0.0
C651 C 0.54571 0.76447 0.62075 0.0
C652 C 0.5882 0.76101 0.63975 0.0
C653 C 0.51813 0.80551 0.62065 0.0
C654 C 0.53146 0.8459 0.63934 0.0
H655 H 0.53354 0.73499 0.60549 0.0
H656 H 0.48655 0.80587 0.60503 0.0
S657 S 0.63669 0.85518 0.69636 0.0
N658 N 0.6393 0.80177 0.68058 0.0
N659 N 0.58961 0.87854 0.6789 0.0
C660 C 0.57339 0.84276 0.65891 0.0
C661 C 0.601 0.80072 0.65954 0.0
C662 C 0.10363 0.78832 0.88827 0.0
C663 C 0.10172 0.83739 0.89007 0.0
C664 C 1.06387 0.75988 0.89301 0.0
C665 C 1.01929 0.77851 0.89846 0.0
H666 H 0.13665 0.77127 0.88412 0.0
H667 H 0.0684 0.72273 0.89356 0.0
S668 S 0.99385 0.90395 0.90758 0.0
N669 N 1.05026 0.90261 0.89985 0.0
N670 N 0.97616 0.84966 0.90734 0.0
C671 C 1.01671 0.82732 0.90079 0.0
C672 C 1.05741 0.85642 0.89673 0.0
C673 C 0.11204 0.30839 1.13138 0.0
C674 C 0.09491 0.26584 1.1443 0.0
C675 C 0.08307 0.34785 1.12679 0.0
C676 C 1.03519 0.3478 1.13582 0.0
H677 H 0.1487 0.3119 1.12608 0.0
H678 H 0.09901 0.37933 1.117 0.0
S679 S 0.97245 0.24538 1.17151 0.0
N680 N 1.02609 0.22647 1.16616 0.0
N681 N 0.97252 0.30006 1.15852 0.0
C682 C 1.01761 0.30541 1.1489 0.0
C683 C 1.04709 0.26499 1.1531 0.0
C684 C 0.56212 0.85186 1.11614 0.0
C685 C 0.6072 0.83333 1.11151 0.0
C686 C 0.52139 0.82417 1.11232 0.0
C687 C 0.52335 0.77645 1.10345 0.0
H688 H 0.55821 0.88809 1.12296 0.0
H689 H 0.48791 0.84054 1.11587 0.0
S690 S 0.63173 0.71149 1.08437 0.0
N691 N 0.65007 0.76365 1.09551 0.0
N692 N 0.57464 0.71347 1.08712 0.0
C693 C 0.56797 0.758 1.09771 0.0
C694 C 0.60933 0.78572 1.10217 0.0
C695 C 0.54927 0.26593 0.85707 0.0
C696 C 0.59838 0.26705 0.85756 0.0
C697 C 0.52164 0.30684 0.86042 0.0
C698 C 0.54153 0.35126 0.86475 0.0
H699 H 0.53191 0.23308 0.8534 0.0
H700 H 0.48432 0.30361 0.85934 0.0
S701 S 0.66855 0.37409 0.86316 0.0
N702 N 0.66507 0.31741 0.85858 0.0
N703 N 0.61475 0.3926 0.86785 0.0
C704 C 0.59072 0.35245 0.86528 0.0
C705 C 0.61856 0.31109 0.86082 0.0
C706 C 0.0665 0.34894 0.62244 0.0
C707 C 0.1113 0.32951 0.62021 0.0
C708 C 1.0258 0.32104 0.62333 0.0
C709 C 1.02705 0.27189 0.62113 0.0
H710 H 1.06276 0.38617 0.62406 0.0
H711 H 0.99272 0.33856 0.62545 0.0
S712 S 0.13511 0.20281 0.61355 0.0
N713 N 0.15372 0.25677 0.61542 0.0
N714 N 0.07801 0.20561 0.61588 0.0
C715 C 0.07152 0.25205 0.61828 0.0
C716 C 0.1131 0.28033 0.61815 0.0
C717 C 1.04787 0.76689 0.36733 0.0
C718 C 0.09708 0.76596 0.36599 0.0
C719 C 1.02181 0.80881 0.36639 0.0
C720 C 1.04328 0.85262 0.36499 0.0
H721 H 1.02893 0.73464 0.36878 0.0
H722 H 0.98436 0.80679 0.36727 0.0
S723 S 0.1711 0.87067 0.36111 0.0
N724 N 0.16576 0.8138 0.36262 0.0
N725 N 0.11787 0.89173 0.36216 0.0
C726 C 0.09252 0.85223 0.3639 0.0
C727 C 0.11897 0.80945 0.36404 0.0
C728 C 0.72568 0.13707 0.33079 0.0
C729 C 0.71114 0.10583 0.35767 0.0
C730 C 0.74206 0.11975 0.29795 0.0
C731 C 0.74598 0.07166 0.29305 0.0
H732 H 0.71419 0.17272 0.33119 0.0
H733 H 0.74237 0.14295 0.27509 0.0
S734 S 0.74982 0.98472 0.36579 0.0
N735 N 0.73026 1.03228 0.3854 0.0
N736 N 0.76062 0.99871 0.32347 0.0
C737 C 0.74945 1.04435 0.32416 0.0
C738 C 0.73312 1.06244 0.3575 0.0
C739 C 0.8408 0.9544 0.61491 0.0
C740 C 0.79535 0.93685 0.61714 0.0
C741 C 0.85645 0.97326 0.58229 0.0
C742 C 0.82592 0.97636 0.5529 0.0
H743 H 0.8665 0.94349 0.6343 0.0
H744 H 0.89345 0.97643 0.57801 0.0
S745 S 0.69793 0.97427 0.55958 0.0
N746 N 0.71622 0.95238 0.59799 0.0
N747 N 0.74507 0.98809 0.53673 0.0
C748 C 0.77831 0.97625 0.56079 0.0
C749 C 0.76277 0.95686 0.59381 0.0
C750 C 0.9235 0.99991 0.84952 0.0
C751 C 0.93587 1.04473 0.86092 0.0
C752 C 0.90153 0.99397 0.81629 0.0
C753 C 0.89087 1.0329 0.79529 0.0
H754 H 0.93982 0.9699 0.86137 0.0
H755 H 0.90217 0.95992 0.80408 0.0
S756 S 0.88644 0.15401 0.8269 0.0
N757 N 0.91408 0.12576 0.85897 0.0
N758 N 0.8714 0.11464 0.79691 0.0
C759 C 0.88763 0.07571 0.813 0.0
C760 C 0.91058 0.08174 0.84647 0.0
C761 C 0.64572 0.41693 1.04175 0.0
C762 C 0.67545 0.4548 1.03573 0.0
C763 C 0.63054 0.39059 1.01251 0.0
C764 C 0.64452 0.40285 0.97752 0.0
H765 H 0.64298 0.40145 1.06819 0.0
H766 H 0.61714 0.35633 1.01803 0.0
S767 S 0.68886 0.51713 0.9497 0.0
N768 N 0.69385 0.51675 0.99398 0.0
N769 N 0.66413 0.46757 0.93873 0.0
C770 C 0.65758 0.44909 0.97193 0.0
C771 C 0.67353 0.47557 1.00165 0.0
C772 C 0.14876 0.41088 0.95427 0.0
C773 C 0.17748 0.4495 0.95996 0.0
C774 C 0.13135 0.38655 0.98387 0.0
C775 C 0.14227 0.40143 1.01891 0.0
H776 H 0.14846 0.39353 0.92843 0.0
H777 H 0.11858 0.35191 0.97902 0.0
S778 S 0.18179 0.51886 1.04336 0.0
N779 N 0.19159 0.51474 0.99963 0.0
N780 N 0.15651 0.4699 1.05534 0.0
C781 C 0.15399 0.44838 1.02293 0.0
C782 C 0.1726 0.47266 0.99294 0.0
C783 C 0.35058 0.66338 0.60064 0.0
C784 C 0.31303 0.68154 0.62056 0.0
C785 C 0.34262 0.64346 0.56694 0.0
C786 C 0.29711 0.64036 0.55401 0.0
H787 H 0.38578 0.67361 0.60667 0.0
H788 H 0.37186 0.63972 0.54881 0.0
S789 S 0.19002 0.6508 0.60798 0.0
N790 N 0.23122 0.67181 0.63403 0.0
N791 N 0.21629 0.63221 0.57112 0.0
C792 C 0.26105 0.64169 0.57946 0.0
C793 C 0.26915 0.66273 0.61346 0.0
C794 C 0.25143 0.62984 0.79794 0.0
C795 C 0.24017 0.63929 0.76192 0.0
C796 C 0.2311 0.65634 0.82547 0.0
C797 C 0.19512 0.68733 0.81666 0.0
H798 H 0.2686 0.59775 0.80492 0.0
H799 H 0.23412 0.64392 0.85277 0.0
S800 S 0.18768 0.7479 0.729 0.0
N801 N 0.21783 0.70045 0.72065 0.0
N802 N 0.17697 0.74747 0.77268 0.0
C803 C 0.19897 0.70791 0.78243 0.0
C804 C 0.22147 0.68295 0.75441 0.0
C805 C 0.75012 0.65899 1.22367 0.0
C806 C 0.73306 0.66628 0.25871 0.0
C807 C 0.72578 0.67715 1.19434 0.0
C808 C 0.68384 0.70107 1.20019 0.0
H809 H 0.77514 0.63173 1.21863 0.0
H810 H 0.73358 0.66359 1.16792 0.0
S811 S 0.64958 0.75679 0.28618 0.0
N812 N 0.69122 0.72023 0.29702 0.0
N813 N 0.64415 0.75289 1.2421 0.0
C814 C 0.67789 0.72162 1.23426 0.0
C815 C 0.70344 0.7042 0.26394 0.0
C816 C 0.243 0.4714 0.37982 0.0
C817 C 0.28998 0.45926 0.38232 0.0
C818 C 0.22943 0.51472 0.36654 0.0
C819 C 0.26229 0.5482 0.35597 0.0
H820 H 0.2165 0.44737 0.38857 0.0
H821 H 0.19278 0.52272 0.36607 0.0
S822 S 0.38982 0.53256 0.35585 0.0
N823 N 0.3695 0.48313 0.37158 0.0
N824 N 0.34404 0.56504 0.34734 0.0
C825 C 0.30939 0.53585 0.35711 0.0
C826 C 0.3232 0.49136 0.37022 0.0
C827 C 0.36787 0.56166 0.63764 0.0
C828 C 0.40693 0.53257 0.63623 0.0
C829 C 0.32564 0.54847 0.6222 0.0
C830 C 0.32067 0.5056 0.60479 0.0
H831 H 0.36936 0.59405 0.65225 0.0
H832 H 0.29609 0.57083 0.62595 0.0
S833 S 0.41311 0.41811 0.59117 0.0
N834 N 0.43869 0.46009 0.61375 0.0
N835 N 0.35901 0.43506 0.58543 0.0
C836 C 0.35983 0.47688 0.60209 0.0
C837 C 0.40293 0.49031 0.61771 0.0
C838 C 0.30931 0.60558 0.88808 0.0
C839 C 0.3328 0.64688 0.87982 0.0
C840 C 0.32363 0.56302 0.87351 0.0
C841 C 0.36275 0.56003 0.85088 0.0
H842 H 0.2796 0.60619 0.90597 0.0
H843 H 0.30529 0.53199 0.88152 0.0
S844 S 0.43715 0.65737 0.82183 0.0
N845 N 0.39708 0.68188 0.84739 0.0
N846 N 0.42489 0.60158 0.8212 0.0
C847 C 0.3864 0.60092 0.84233 0.0
C848 C 0.37126 0.64439 0.8565 0.0
C849 C 0.2708 0.53442 1.13103 0.0
C850 C 0.23122 0.56294 1.12922 0.0
C851 C 0.3141 0.54969 1.11812 0.0
C852 C 0.31923 0.59389 1.10271 0.0
H853 H 0.26891 0.50118 1.14437 0.0
H854 H 0.34413 0.52789 1.12233 0.0
S855 S 0.22472 0.67754 1.08459 0.0
N856 N 0.19886 0.63437 1.10561 0.0
N857 N 0.27989 0.66288 1.08159 0.0
C858 C 0.27921 0.62087 1.09795 0.0
C859 C 0.23535 0.60552 1.11118 0.0
C860 C 0.82199 0.5756 1.14254 0.0
C861 C 0.86963 0.56748 1.14768 0.0
C862 C 0.80623 0.61668 1.12644 0.0
C863 C 0.83749 0.65097 1.11501 0.0
H864 H 0.79682 0.54932 1.14954 0.0
H865 H 0.76947 0.62108 1.12193 0.0
S866 S 0.96503 0.64823 1.1242 0.0
N867 N 0.94747 0.5988 1.14175 0.0
N868 N 0.91761 0.6753 1.11112 0.0
C869 C 0.88485 0.64395 1.12083 0.0
C870 C 0.90092 0.60251 1.13744 0.0
C871 C 0.76978 0.54313 0.85783 0.0
C872 C 0.72927 0.56839 0.86611 0.0
C873 C 0.81304 0.55578 0.87199 0.0
C874 C 0.8175 0.59426 0.89495 0.0
H875 H 0.76848 0.51457 0.83898 0.0
H876 H 0.84349 0.53697 0.86311 0.0
S877 S 0.72185 0.66774 0.92937 0.0
N878 N 0.69612 0.6304 0.9024 0.0
N879 N 0.77753 0.65471 0.92803 0.0
C880 C 0.77712 0.61814 0.90503 0.0
C881 C 0.73307 0.6052 0.89082 0.0
C882 C 0.75183 0.47453 0.61942 0.0
C883 C 0.79953 0.46498 0.61773 0.0
C884 C 0.73522 0.51681 0.63289 0.0
C885 C 0.76558 0.5519 0.64458 0.0
H886 H 0.72706 0.44915 0.61006 0.0
H887 H 0.69815 0.52261 0.63288 0.0
S888 S 0.89378 0.54361 0.64677 0.0
N889 N 0.87704 0.49339 0.63007 0.0
N890 N 0.84586 0.57322 0.65481 0.0
C891 C 0.81337 0.5423 0.644 0.0
C892 C 0.8303 0.49887 0.63065 0.0
C893 C 0.85629 0.47447 0.38761 0.0
C894 C 0.82199 0.506 0.39915 0.0
C895 C 0.89801 0.48968 0.37235 0.0
C896 C 0.90751 0.53704 0.36864 0.0
H897 H 0.85013 0.43756 0.38902 0.0
H898 H 0.92295 0.46415 0.36322 0.0
S899 S 0.83063 0.63398 0.39584 0.0
N900 N 0.80126 0.58704 0.40676 0.0
N901 N 0.88013 0.61557 0.37854 0.0
C902 C 0.87446 0.56905 0.38126 0.0
C903 C 0.83167 0.55356 0.39653 0.0
C904 C 0.82 1.01098 0.90035 0.0
C905 C 0.80531 0.97208 0.88065 0.0
C906 C 0.80808 1.05607 0.88965 0.0
C907 C 0.78036 1.06391 0.85921 0.0
H908 H 0.83998 1.00643 0.92469 0.0
H909 H 0.81847 0.0848 0.90651 0.0
S910 S 0.73478 0.97454 0.79744 0.0
N911 N 0.76363 0.94485 0.82802 0.0
N912 N 0.74017 1.02956 0.80875 0.0
C913 C 0.7668 1.02562 0.83863 0.0
C914 C 0.7796 0.97973 0.84909 0.0
C915 C 0.85616 0.97418 1.1046 0.0
C916 C 0.81975 1.00624 1.10062 0.0
C917 C 0.90061 0.9883 1.11492 0.0
C918 C 0.91051 1.03509 1.1218 0.0
H919 H 0.84976 0.9375 1.10133 0.0
H920 H 0.92682 0.96205 1.11921 0.0
S921 S 0.82899 0.13352 1.11136 0.0
N922 N 0.7977 0.08747 1.10151 0.0
N923 N 0.88139 0.11404 1.12068 0.0
C924 C 0.87515 0.06784 1.11601 0.0
C925 C 0.82982 1.05345 1.10535 0.0
C926 C 0.84466 1.0633 0.39407 0.0
C927 C 0.8636 1.05813 0.35944 0.0
C928 C 0.82957 0.1064 0.40676 0.0
C929 C 0.8335 0.14648 0.38552 0.0
H930 H 0.84261 1.03395 0.41193 0.0
H931 H 0.81496 0.10827 0.4336 0.0
S932 S 0.88294 0.15128 0.29305 0.0
N933 N 0.88637 0.09607 0.30416 0.0
N934 N 0.85927 0.17787 0.32795 0.0
C935 C 0.85255 0.14165 0.35062 0.0
C936 C 0.86755 0.09739 0.33769 0.0
C937 C 0.80385 1.06636 0.62946 0.0
C938 C 0.80935 0.1056 0.60748 0.0
C939 C 0.76028 1.05363 0.64301 0.0
C940 C 0.7203 0.07914 0.63457 0.0
H941 H 0.83371 1.04644 0.63761 0.0
H942 H 0.75789 1.02358 0.66031 0.0
S943 S 0.71611 0.18504 0.57832 0.0
N944 N 0.77138 0.17019 0.5783 0.0
N945 N 0.68911 0.14574 0.60286 0.0
C946 C 0.72519 0.11801 0.61208 0.0
C947 C 0.76977 0.13138 0.59881 0.0
C948 C 0.29947 0.11088 0.62118 0.0
C949 C 0.33094 0.14695 0.61421 0.0
C950 C 0.31467 0.06822 0.6351 0.0
C951 C 0.36191 1.06013 0.6422 0.0
H952 H 0.26299 0.11557 0.61555 0.0
H953 H 0.28951 1.0409 0.63895 0.0
S954 S 0.45787 0.14377 0.62841 0.0
N955 N 0.41112 0.17191 0.61538 0.0
N956 N 0.43951 0.0926 0.64186 0.0
C957 C 0.39329 0.09653 0.63608 0.0
C958 C 0.3779 0.13965 0.62192 0.0
C959 C 0.23606 0.11693 0.37497 0.0
C960 C 0.22832 0.07198 0.36176 0.0
C961 C 0.27979 0.13058 0.38747 0.0
C962 C 0.31766 0.09982 0.38765 0.0
H963 H 0.20846 0.14233 0.37456 0.0
H964 H 0.28432 0.16611 0.39601 0.0
S965 S 0.31427 0.9764 0.36006 0.0
N966 N 0.26119 0.99539 0.35262 0.0
N967 N 0.34335 1.02097 0.37617 0.0
C968 C 0.30983 1.054 0.37632 0.0
C969 C 0.26527 1.04018 0.36325 0.0
C970 C 0.31845 1.05531 1.12178 0.0
C971 C 0.27752 1.06311 1.14171 0.0
C972 C 0.33104 1.01042 1.11042 0.0
C973 C 0.3029 0.97196 1.11832 0.0
H974 H 0.33942 0.08425 1.11301 0.0
H975 H 0.36161 1.00616 1.09374 0.0
S976 S 0.19755 0.9728 1.17567 0.0
N977 N 0.21319 1.02765 1.17339 0.0
N978 N 0.23603 0.94392 1.15149 0.0
C979 C 0.26391 0.979 1.1404 0.0
C980 C 0.25149 1.02438 1.15225 0.0
C981 C 0.37539 1.0636 0.88549 0.0
C982 C 0.41051 1.03095 0.87823 0.0
C983 C 0.33071 1.04958 0.8963 0.0
C984 C 0.31945 1.00237 0.89969 0.0
H985 H 0.38229 0.10017 0.88217 0.0
H986 H 0.3044 0.0758 0.90048 0.0
S987 S 0.3994 0.90351 0.88365 0.0
N988 N 0.43119 0.9497 0.87544 0.0
N989 N 0.34801 0.92338 0.8956 0.0
C990 C 0.35486 0.9697 0.89336 0.0
C991 C 0.40013 0.98394 0.88261 0.0
C992 C 0.34984 0.1824 0.26175 0.0
C993 C 0.33627 0.19901 0.29601 0.0
C994 C 0.31749 0.17583 1.23342 0.0
C995 C 0.26947 0.18387 1.23805 0.0
H996 H 0.38593 0.1744 1.25666 0.0
H997 H 0.33022 0.16366 1.20764 0.0
S998 S 0.21449 0.22732 0.32181 0.0
N999 N 0.27004 0.22408 0.332 0.0
N1000 N 0.21022 0.20966 0.2797 0.0
C1001 C 0.25525 0.20008 0.27203 0.0
C1002 C 0.28821 0.20811 0.3006 0.0
C1003 C 0.63829 0.51524 0.50767 0.0
C1004 C 0.68225 0.49864 0.49634 0.0
C1005 C 0.63314 0.54961 0.53494 0.0
C1006 C 0.67173 0.57109 0.55115 0.0
H1007 H 0.60734 0.50153 0.49526 0.0
H1008 H 0.59855 0.56014 0.54284 0.0
S1009 S 0.7947 0.54075 0.5318 0.0
N1010 N 0.76514 0.50635 0.50486 0.0
N1011 N 0.75581 0.57166 0.55401 0.0
C1012 C 0.71584 0.55484 0.54001 0.0
C1013 C 0.721 0.51871 0.51328 0.0
C1014 C 0.31149 0.8794 0.78016 0.0
C1015 C 0.29431 0.918 0.79937 0.0
C1016 C 0.34576 0.88399 0.75266 0.0
C1017 C 0.36647 0.92708 0.74382 0.0
H1018 H 0.29758 0.84539 0.78582 0.0
H1019 H 0.35601 0.85323 0.73797 0.0
S1020 S 0.33691 1.03858 0.78819 0.0
N1021 N 0.30262 1.00082 0.80826 0.0
N1022 N 0.36755 1.0089 0.75845 0.0
C1023 C 0.35085 0.96557 0.76393 0.0
C1024 C 0.31493 0.96116 0.79107 0.0
C1025 C 0.90363 0.58858 1.01093 0.0
C1026 C 0.94148 0.61018 0.99344 0.0
C1027 C 0.90978 0.55399 1.0378 0.0
C1028 C 0.95413 0.53951 1.04961 0.0
H1029 H 0.86866 0.59762 1.00316 0.0
H1030 H 0.87914 0.53896 1.04996 0.0
S1031 S 1.06523 0.58591 1.0143 0.0
N1032 N 1.02557 0.61394 0.99088 0.0
N1033 N 1.03667 0.55149 1.04203 0.0
C1034 C 0.99225 0.56168 1.03314 0.0
C1035 C 0.98607 0.59599 1.00502 0.0
C1036 C 0.85089 0.88044 1.24934 0.0
C1037 C 0.87214 0.92344 0.2577 0.0
C1038 C 0.818 0.87542 1.22092 0.0
C1039 C 0.80299 0.91352 1.20014 0.0
H1040 H 0.85974 0.85014 0.26499 0.0
H1041 H 0.80334 0.84159 1.21586 0.0
S1042 S 0.84706 1.0337 1.2103 0.0
N1043 N 0.87544 1.00458 1.24137 0.0
N1044 N 0.81323 0.99583 1.19007 0.0
C1045 C 0.82389 0.95656 1.20828 0.0
C1046 C 0.85829 0.96135 1.23632 0.0
C1047 C 0.48323 0.60022 0.99157 0.0
C1048 C 0.43905 0.61119 1.0061 0.0
C1049 C 0.48945 0.56676 0.96367 0.0
C1050 C 0.45214 0.5406 0.94981 0.0
H1051 H 0.51349 0.61801 1.00169 0.0
H1052 H 0.52405 0.56082 0.95326 0.0
S1053 S 0.32921 0.5544 0.97872 0.0
N1054 N 0.35721 0.59249 1.0036 0.0
N1055 N 0.36887 0.52896 0.95334 0.0
C1056 C 0.40788 0.55089 0.96444 0.0
C1057 C 0.40138 0.58605 0.99186 0.0
C1058 C 0.7776 0.14984 0.73926 0.0
C1059 C 0.76477 0.18697 0.76198 0.0
C1060 C 0.81062 0.15513 0.71119 0.0
C1061 C 0.83241 0.19789 0.7037 0.0
H1062 H 0.76284 0.11588 0.74369 0.0
H1063 H 0.8189 0.12523 0.69486 0.0
S1064 S 0.81017 0.30704 0.75338 0.0
N1065 N 0.77657 0.26896 0.77387 0.0
N1066 N 0.83701 0.27861 0.7208 0.0
C1067 C 0.81905 0.23563 0.72537 0.0
C1068 C 0.78597 0.23019 0.75449 0.0
C1069 C 0.13788 0.52048 0.4998 0.0
C1070 C 0.18102 0.50003 0.5089 0.0
C1071 C 0.13341 0.554 0.47178 0.0
C1072 C 0.17218 0.5706 0.45236 0.0
H1073 H 0.10705 0.51043 0.51449 0.0
H1074 H 0.09939 0.56778 0.46589 0.0
S1075 S 0.29308 0.52888 0.46495 0.0
N1076 N 0.26311 0.49912 0.49488 0.0
N1077 N 0.25534 0.56252 0.44431 0.0
C1078 C 0.21542 0.55055 0.46134 0.0
C1079 C 0.21969 0.51544 0.4889 0.0
C1080 C 0.77402 0.64622 0.76393 0.0
C1081 C 0.75463 0.68499 0.74647 0.0
C1082 C 0.80868 0.6508 0.79077 0.0
C1083 C 0.82539 0.69442 0.80247 0.0
H1084 H 0.76365 0.61176 0.75585 0.0
H1085 H 0.82247 0.61948 0.80261 0.0
S1086 S 0.78421 0.80741 0.76749 0.0
N1087 N 0.75447 0.76907 0.74404 0.0
N1088 N 0.81727 0.77738 0.79518 0.0
C1089 C 0.80499 0.73352 0.78629 0.0
C1090 C 0.77054 0.72888 0.75822 0.0
C1091 C 0.1391 1.01324 1.00959 0.0
C1092 C 0.18257 0.99809 0.99602 0.0
C1093 C 0.13512 1.04827 1.0365 0.0
C1094 C 0.1743 0.0718 1.04991 0.0
H1095 H 0.10767 0.99812 0.99903 0.0
H1096 H 0.10095 1.05795 1.04603 0.0
S1097 S 0.29623 1.04619 1.02321 0.0
N1098 N 0.26554 1.00945 0.9991 0.0
N1099 N 0.25843 0.07595 1.04741 0.0
C1100 C 0.21789 1.0568 1.03651 0.0
C1101 C 0.22193 1.02007 1.01026 0.0
C1102 C 0.86085 0.38539 0.2602 0.0
C1103 C 0.87621 0.42922 1.24781 0.0
C1104 C 0.8262 0.3804 0.2874 0.0
C1105 C 0.80318 0.41894 0.30267 0.0
H1106 H 0.87565 0.35433 1.24853 0.0
H1107 H 0.81658 0.34589 0.29588 0.0
S1108 S 0.82979 0.54176 0.2805 0.0
N1109 N 0.86546 0.51208 1.25433 0.0
N1110 N 0.80005 0.50303 0.30362 0.0
C1111 C 0.81832 0.46298 0.29062 0.0
C1112 C 0.8546 0.46803 0.26381 0.0
C1113 C 0.49212 1.05709 0.53045 0.0
C1114 C 0.45327 1.0367 0.54739 0.0
C1115 C 0.48739 0.09084 0.50268 0.0
C1116 C 0.44364 0.10788 0.49141 0.0
H1117 H 0.52657 1.04619 0.53817 0.0
H1118 H 0.51854 0.10381 0.4899 0.0
S1119 S 0.33078 0.06875 0.5288 0.0
N1120 N 0.36926 1.03784 0.55111 0.0
N1121 N 0.36072 0.10187 0.50103 0.0
C1122 C 0.4047 0.08895 0.50913 0.0
C1123 C 0.40942 1.05351 0.53642 0.0
C1124 C 0.3662 0.38063 0.73971 0.0
C1125 C 0.37993 0.42456 0.75297 0.0
C1126 C 0.33209 0.37548 0.71228 0.0
C1127 C 0.30806 0.41386 0.69788 0.0
H1128 H 0.38185 0.34974 0.7508 0.0
H1129 H 0.32353 0.341 0.70306 0.0
S1130 S 0.33023 0.53648 0.72344 0.0
N1131 N 0.36686 0.50703 0.74846 0.0
N1132 N 0.3019 0.49779 0.69934 0.0
C1133 C 0.3216 0.45789 0.71103 0.0
C1134 C 0.35745 0.4631 0.7378 0.0
C1135 C 0.9564 1.06069 0.51491 0.0
C1136 C 0.95162 0.10911 0.50992 0.0
C1137 C 0.96171 1.02927 0.48572 0.0
C1138 C 0.96452 1.0444 0.44969 0.0
H1139 H 0.9551 1.04658 0.54188 0.0
H1140 H 0.96386 0.99262 0.49154 0.0
S1141 S 0.95268 0.16716 0.42089 0.0
N1142 N 0.94831 0.17 0.4652 0.0
N1143 N 0.96032 0.11194 0.41089 0.0
C1144 C 0.95985 0.09276 0.44421 0.0
C1145 C 0.9529 0.12466 0.47397 0.0
C1146 C 0.27749 0.72848 1.24587 0.0
C1147 C 0.25936 0.68528 0.25727 0.0
C1148 C 0.3106 0.7323 1.21743 0.0
C1149 C 0.3291 0.69293 1.19989 0.0
H1150 H 0.2661 0.75983 0.25923 0.0
H1151 H 0.32279 0.76635 1.20986 0.0
S1152 S 0.29397 0.5715 1.21926 0.0
N1153 N 0.26244 0.60242 1.2476 0.0
N1154 N 0.32528 0.60901 1.19618 0.0
C1155 C 0.31111 0.64961 1.21106 0.0
C1156 C 0.27635 0.64593 1.23906 0.0
C1157 C 0.71967 1.02068 0.99242 0.0
C1158 C 0.68045 0.99978 1.00825 0.0
C1159 C 0.71571 1.05563 0.96579 0.0
C1160 C 0.67236 0.07102 0.95254 0.0
H1161 H 0.75394 1.01127 1.00168 0.0
H1162 H 0.74732 0.07068 0.95532 0.0
S1163 S 0.55856 1.02586 0.98314 0.0
N1164 N 0.59633 0.99703 1.00784 0.0
N1165 N 0.58923 1.06022 0.95673 0.0
C1166 C 0.63287 1.0492 0.96715 0.0
C1167 C 0.63683 1.01455 0.99518 0.0
loop_
_geom_bond_atom_site_label_1
_geom_bond_atom_site_label_2
_geom_bond_distance
_geom_bond_site_symmetry_2
_ccdc_geom_bond_type
La0 C2 2.928 . S
La0 O20 2.521 . S
La0 O21 2.628 . S
La0 O22 2.554 . S
La0 O23 2.757 . S
La0 O24 2.470 . S
La0 O29 2.482 . S
La0 O31 2.503 . S
La1 C11 2.928 . S
La1 O23 2.482 . S
La1 O25 2.503 . S
La1 O26 2.521 . S
La1 O27 2.628 . S
La1 O28 2.554 . S
La1 O29 2.757 . S
La1 O30 2.470 . S
C2 La0 2.928 . S
C2 C3 1.503 . S
C2 O20 1.261 . S
C2 O21 1.243 . S
C3 C2 1.503 . S
C3 C4 1.394 . S
C3 C8 1.373 . S
C4 C3 1.394 . S
C4 C5 1.380 . S
C4 H32 0.930 . S
C5 C4 1.380 . S
C5 C6 1.376 . S
C5 H33 0.930 . S
C6 C5 1.376 . S
C6 C7 1.370 . S
C7 C6 1.370 . S
C7 C8 1.396 . S
C7 H34 0.929 . S
C8 C3 1.373 . S
C8 C7 1.396 . S
C8 H35 0.929 . S
C9 O22 1.240 . S
C9 O23 1.289 . S
C10 O24 1.258 . S
C10 O25 1.256 . S
C11 La1 2.928 . S
C11 C12 1.503 . S
C11 O26 1.261 . S
C11 O27 1.243 . S
C12 C11 1.503 . S
C12 C13 1.394 1_545 S
C12 C17 1.373 . S
C13 C12 1.394 1_565 S
C13 C14 1.380 . S
C13 H36 0.930 . S
C14 C13 1.380 . S
C14 C15 1.376 . S
C14 H37 0.930 . S
C15 C14 1.376 . S
C15 C16 1.370 1_565 S
C16 C15 1.370 1_545 S
C16 C17 1.396 . S
C16 H38 0.929 1_554 S
C17 C12 1.373 . S
C17 C16 1.396 . S
C17 H39 0.929 . S
C18 O28 1.240 . S
C18 O29 1.289 . S
C19 O30 1.258 . S
C19 O31 1.256 . S
O20 La0 2.521 . S
O20 C2 1.261 . S
O21 La0 2.628 . S
O21 C2 1.243 . S
O22 La0 2.554 . S
O22 C9 1.240 . S
O23 La0 2.757 . S
O23 La1 2.482 . S
O23 C9 1.289 . S
O24 La0 2.470 . S
O24 C10 1.258 . S
O25 La1 2.503 . S
O25 C10 1.256 . S
O26 La1 2.521 . S
O26 C11 1.261 . S
O27 La1 2.628 . S
O27 C11 1.243 . S
O28 La1 2.554 . S
O28 C18 1.240 . S
O29 La0 2.482 . S
O29 La1 2.757 . S
O29 C18 1.289 . S
O30 La1 2.470 . S
O30 C19 1.258 . S
O31 La0 2.503 . S
O31 C19 1.256 . S
H32 C4 0.930 . S
H33 C5 0.930 . S
H34 C7 0.929 . S
H35 C8 0.929 . S
H36 C13 0.930 . S
H37 C14 0.930 . S
H38 C16 0.929 1_556 S
H39 C17 0.929 . S
La40 C42 2.928 . S
La40 O60 2.521 . S
La40 O61 2.628 . S
La40 O62 2.554 . S
La40 O63 2.757 . S
La40 O64 2.470 . S
La40 O69 2.482 . S
La40 O71 2.503 . S
La41 C51 2.928 . S
La41 O63 2.482 . S
La41 O65 2.503 . S
La41 O66 2.521 . S
La41 O67 2.628 . S
La41 O68 2.554 . S
La41 O69 2.757 . S
La41 O70 2.470 . S
C42 La40 2.928 . S
C42 C43 1.503 . S
C42 O60 1.261 . S
C42 O61 1.243 . S
C43 C42 1.503 . S
C43 C44 1.394 . S
C43 C48 1.373 . S
C44 C43 1.394 . S
C44 C45 1.380 . S
C44 H72 0.930 . S
C45 C44 1.380 . S
C45 C46 1.376 . S
C45 H73 0.930 . S
C46 C45 1.376 . S
C46 C47 1.370 . S
C47 C46 1.370 . S
C47 C48 1.396 . S
C47 H74 0.929 . S
C48 C43 1.373 . S
C48 C47 1.396 . S
C48 H75 0.929 . S
C49 O62 1.240 . S
C49 O63 1.289 . S
C50 O64 1.258 . S
C50 O65 1.256 . S
C51 La41 2.928 . S
C51 C52 1.503 . S
C51 O66 1.261 . S
C51 O67 1.243 . S
C52 C51 1.503 . S
C52 C53 1.394 . S
C52 C57 1.373 . S
C53 C52 1.394 . S
C53 C54 1.380 . S
C53 H76 0.930 . S
C54 C53 1.380 . S
C54 C55 1.376 . S
C54 H77 0.930 . S
C55 C54 1.376 . S
C55 C56 1.370 . S
C56 C55 1.370 . S
C56 C57 1.396 . S
C56 H78 0.929 . S
C57 C52 1.373 . S
C57 C56 1.396 . S
C57 H79 0.929 . S
C58 O68 1.240 . S
C58 O69 1.289 . S
C59 O70 1.258 . S
C59 O71 1.256 . S
O60 La40 2.521 . S
O60 C42 1.261 . S
O61 La40 2.628 . S
O61 C42 1.243 . S
O62 La40 2.554 . S
O62 C49 1.240 . S
O63 La40 2.757 . S
O63 La41 2.482 . S
O63 C49 1.289 . S
O64 La40 2.470 . S
O64 C50 1.258 . S
O65 La41 2.503 . S
O65 C50 1.256 . S
O66 La41 2.521 . S
O66 C51 1.261 . S
O67 La41 2.628 . S
O67 C51 1.243 . S
O68 La41 2.554 . S
O68 C58 1.240 . S
O69 La40 2.482 . S
O69 La41 2.757 . S
O69 C58 1.289 . S
O70 La41 2.470 . S
O70 C59 1.258 . S
O71 La40 2.503 . S
O71 C59 1.256 . S
H72 C44 0.930 . S
H73 C45 0.930 . S
H74 C47 0.929 . S
H75 C48 0.929 . S
H76 C53 0.930 . S
H77 C54 0.930 . S
H78 C56 0.929 . S
H79 C57 0.929 . S
La80 C82 2.928 . S
La80 O100 2.521 . S
La80 O101 2.628 . S
La80 O102 2.554 . S
La80 O103 2.757 . S
La80 O104 2.470 . S
La80 O109 2.482 . S
La80 O111 2.503 . S
La81 C91 2.928 . S
La81 O103 2.482 . S
La81 O105 2.503 . S
La81 O106 2.521 . S
La81 O107 2.628 . S
La81 O108 2.554 . S
La81 O109 2.757 . S
La81 O110 2.470 . S
C82 La80 2.928 . S
C82 C83 1.503 . S
C82 O100 1.261 . S
C82 O101 1.243 . S
C83 C82 1.503 . S
C83 C84 1.394 . S
C83 C88 1.373 . S
C84 C83 1.394 . S
C84 C85 1.380 . S
C84 H112 0.930 . S
C85 C84 1.380 . S
C85 C86 1.376 . S
C85 H113 0.930 . S
C86 C85 1.376 . S
C86 C87 1.370 . S
C87 C86 1.370 . S
C87 C88 1.396 . S
C87 H114 0.929 . S
C88 C83 1.373 . S
C88 C87 1.396 . S
C88 H115 0.929 . S
C89 O102 1.240 . S
C89 O103 1.289 . S
C90 O104 1.258 . S
C90 O105 1.256 . S
C91 La81 2.928 . S
C91 C92 1.503 . S
C91 O106 1.261 . S
C91 O107 1.243 . S
C92 C91 1.503 . S
C92 C93 1.394 1_565 S
C92 C97 1.373 . S
C93 C92 1.394 1_545 S
C93 C94 1.380 . S
C93 H116 0.930 . S
C94 C93 1.380 . S
C94 C95 1.376 . S
C94 H117 0.930 . S
C95 C94 1.376 . S
C95 C96 1.370 1_545 S
C96 C95 1.370 1_565 S
C96 C97 1.396 . S
C96 H118 0.929 . S
C97 C92 1.373 . S
C97 C96 1.396 . S
C97 H119 0.929 . S
C98 O108 1.240 . S
C98 O109 1.289 . S
C99 O110 1.258 . S
C99 O111 1.256 . S
O100 La80 2.521 . S
O100 C82 1.261 . S
O101 La80 2.628 . S
O101 C82 1.243 . S
O102 La80 2.554 . S
O102 C89 1.240 . S
O103 La80 2.757 . S
O103 La81 2.482 . S
O103 C89 1.289 . S
O104 La80 2.470 . S
O104 C90 1.258 . S
O105 La81 2.503 . S
O105 C90 1.256 . S
O106 La81 2.521 . S
O106 C91 1.261 . S
O107 La81 2.628 . S
O107 C91 1.243 . S
O108 La81 2.554 . S
O108 C98 1.240 . S
O109 La80 2.482 . S
O109 La81 2.757 . S
O109 C98 1.289 . S
O110 La81 2.470 . S
O110 C99 1.258 . S
O111 La80 2.503 . S
O111 C99 1.256 . S
H112 C84 0.930 . S
H113 C85 0.930 . S
H114 C87 0.929 . S
H115 C88 0.929 . S
H116 C93 0.930 . S
H117 C94 0.930 . S
H118 C96 0.929 . S
H119 C97 0.929 . S
La120 C122 2.928 1_655 S
La120 O140 2.521 1_655 S
La120 O141 2.628 . S
La120 O142 2.554 . S
La120 O143 2.757 . S
La120 O144 2.470 . S
La120 O149 2.482 . S
La120 O151 2.503 . S
La121 C131 2.928 . S
La121 O143 2.482 . S
La121 O145 2.503 . S
La121 O146 2.521 . S
La121 O147 2.628 . S
La121 O148 2.554 . S
La121 O149 2.757 . S
La121 O150 2.470 . S
C122 La120 2.928 1_455 S
C122 C123 1.503 . S
C122 O140 1.261 . S
C122 O141 1.243 1_455 S
C123 C122 1.503 . S
C123 C124 1.394 . S
C123 C128 1.373 . S
C124 C123 1.394 . S
C124 C125 1.380 . S
C124 H152 0.930 . S
C125 C124 1.380 . S
C125 C126 1.376 . S
C125 H153 0.930 . S
C126 C125 1.376 . S
C126 C127 1.370 . S
C127 C126 1.370 . S
C127 C128 1.396 . S
C127 H154 0.929 . S
C128 C123 1.373 . S
C128 C127 1.396 . S
C128 H155 0.929 1_455 S
C129 O142 1.240 . S
C129 O143 1.289 . S
C130 O144 1.258 . S
C130 O145 1.256 . S
C131 La121 2.928 . S
C131 C132 1.503 . S
C131 O146 1.261 . S
C131 O147 1.243 . S
C132 C131 1.503 . S
C132 C133 1.394 . S
C132 C137 1.373 . S
C133 C132 1.394 . S
C133 C134 1.380 . S
C133 H156 0.930 . S
C134 C133 1.380 . S
C134 C135 1.376 . S
C134 H157 0.930 . S
C135 C134 1.376 . S
C135 C136 1.370 . S
C136 C135 1.370 . S
C136 C137 1.396 . S
C136 H158 0.929 . S
C137 C132 1.373 . S
C137 C136 1.396 . S
C137 H159 0.929 . S
C138 O148 1.240 . S
C138 O149 1.289 . S
C139 O150 1.258 . S
C139 O151 1.256 . S
O140 La120 2.521 1_455 S
O140 C122 1.261 . S
O141 La120 2.628 . S
O141 C122 1.243 1_655 S
O142 La120 2.554 . S
O142 C129 1.240 . S
O143 La120 2.757 . S
O143 La121 2.482 . S
O143 C129 1.289 . S
O144 La120 2.470 . S
O144 C130 1.258 . S
O145 La121 2.503 . S
O145 C130 1.256 . S
O146 La121 2.521 . S
O146 C131 1.261 . S
O147 La121 2.628 . S
O147 C131 1.243 . S
O148 La121 2.554 . S
O148 C138 1.240 . S
O149 La120 2.482 . S
O149 La121 2.757 . S
O149 C138 1.289 . S
O150 La121 2.470 . S
O150 C139 1.258 . S
O151 La120 2.503 . S
O151 C139 1.256 . S
H152 C124 0.930 . S
H153 C125 0.930 . S
H154 C127 0.929 . S
H155 C128 0.929 1_655 S
H156 C133 0.930 . S
H157 C134 0.930 . S
H158 C136 0.929 . S
H159 C137 0.929 . S
La160 C162 2.928 . S
La160 O180 2.521 . S
La160 O181 2.628 . S
La160 O182 2.554 . S
La160 O183 2.757 . S
La160 O184 2.470 . S
La160 O189 2.482 . S
La160 O191 2.503 . S
La161 C171 2.928 . S
La161 O183 2.482 . S
La161 O185 2.503 . S
La161 O186 2.521 . S
La161 O187 2.628 . S
La161 O188 2.554 . S
La161 O189 2.757 . S
La161 O190 2.470 . S
C162 La160 2.928 . S
C162 C163 1.503 . S
C162 O180 1.261 . S
C162 O181 1.243 . S
C163 C162 1.503 . S
C163 C164 1.394 1_565 S
C163 C168 1.373 . S
C164 C163 1.394 1_545 S
C164 C165 1.380 . S
C164 H192 0.930 . S
C165 C164 1.380 . S
C165 C166 1.376 . S
C165 H193 0.930 . S
C166 C165 1.376 . S
C166 C167 1.370 1_545 S
C167 C166 1.370 1_565 S
C167 C168 1.396 . S
C167 H194 0.929 1_556 S
C168 C163 1.373 . S
C168 C167 1.396 . S
C168 H195 0.929 . S
C169 O182 1.240 . S
C169 O183 1.289 . S
C170 O184 1.258 . S
C170 O185 1.256 . S
C171 La161 2.928 . S
C171 C172 1.503 . S
C171 O186 1.261 . S
C171 O187 1.243 . S
C172 C171 1.503 . S
C172 C173 1.394 . S
C172 C177 1.373 . S
C173 C172 1.394 . S
C173 C174 1.380 . S
C173 H196 0.930 . S
C174 C173 1.380 . S
C174 C175 1.376 . S
C174 H197 0.930 . S
C175 C174 1.376 . S
C175 C176 1.370 . S
C176 C175 1.370 . S
C176 C177 1.396 . S
C176 H198 0.929 . S
C177 C172 1.373 . S
C177 C176 1.396 . S
C177 H199 0.929 . S
C178 O188 1.240 . S
C178 O189 1.289 . S
C179 O190 1.258 . S
C179 O191 1.256 . S
O180 La160 2.521 . S
O180 C162 1.261 . S
O181 La160 2.628 . S
O181 C162 1.243 . S
O182 La160 2.554 . S
O182 C169 1.240 . S
O183 La160 2.757 . S
O183 La161 2.482 . S
O183 C169 1.289 . S
O184 La160 2.470 . S
O184 C170 1.258 . S
O185 La161 2.503 . S
O185 C170 1.256 . S
O186 La161 2.521 . S
O186 C171 1.261 . S
O187 La161 2.628 . S
O187 C171 1.243 . S
O188 La161 2.554 . S
O188 C178 1.240 . S
O189 La160 2.482 . S
O189 La161 2.757 . S
O189 C178 1.289 . S
O190 La161 2.470 . S
O190 C179 1.258 . S
O191 La160 2.503 . S
O191 C179 1.256 . S
H192 C164 0.930 . S
H193 C165 0.930 . S
H194 C167 0.929 1_554 S
H195 C168 0.929 . S
H196 C173 0.930 . S
H197 C174 0.930 . S
H198 C176 0.929 . S
H199 C177 0.929 . S
La200 C202 2.928 . S
La200 O220 2.521 . S
La200 O221 2.628 . S
La200 O222 2.554 . S
La200 O223 2.757 . S
La200 O224 2.470 . S
La200 O229 2.482 . S
La200 O231 2.503 . S
La201 C211 2.928 . S
La201 O223 2.482 . S
La201 O225 2.503 . S
La201 O226 2.521 . S
La201 O227 2.628 . S
La201 O228 2.554 . S
La201 O229 2.757 . S
La201 O230 2.470 . S
C202 La200 2.928 . S
C202 C203 1.503 . S
C202 O220 1.261 . S
C202 O221 1.243 . S
C203 C202 1.503 . S
C203 C204 1.394 . S
C203 C208 1.373 . S
C204 C203 1.394 . S
C204 C205 1.380 . S
C204 H232 0.930 . S
C205 C204 1.380 . S
C205 C206 1.376 . S
C205 H233 0.930 . S
C206 C205 1.376 . S
C206 C207 1.370 . S
C207 C206 1.370 . S
C207 C208 1.396 . S
C207 H234 0.929 . S
C208 C203 1.373 . S
C208 C207 1.396 . S
C208 H235 0.929 . S
C209 O222 1.240 . S
C209 O223 1.289 . S
C210 O224 1.258 . S
C210 O225 1.256 . S
C211 La201 2.928 . S
C211 C212 1.503 . S
C211 O226 1.261 . S
C211 O227 1.243 . S
C212 C211 1.503 . S
C212 C213 1.394 . S
C212 C217 1.373 . S
C213 C212 1.394 . S
C213 C214 1.380 . S
C213 H236 0.930 . S
C214 C213 1.380 . S
C214 C215 1.376 . S
C214 H237 0.930 . S
C215 C214 1.376 . S
C215 C216 1.370 . S
C216 C215 1.370 . S
C216 C217 1.396 . S
C216 H238 0.929 . S
C217 C212 1.373 . S
C217 C216 1.396 . S
C217 H239 0.929 . S
C218 O228 1.240 . S
C218 O229 1.289 . S
C219 O230 1.258 . S
C219 O231 1.256 . S
O220 La200 2.521 . S
O220 C202 1.261 . S
O221 La200 2.628 . S
O221 C202 1.243 . S
O222 La200 2.554 . S
O222 C209 1.240 . S
O223 La200 2.757 . S
O223 La201 2.482 . S
O223 C209 1.289 . S
O224 La200 2.470 . S
O224 C210 1.258 . S
O225 La201 2.503 . S
O225 C210 1.256 . S
O226 La201 2.521 . S
O226 C211 1.261 . S
O227 La201 2.628 . S
O227 C211 1.243 . S
O228 La201 2.554 . S
O228 C218 1.240 . S
O229 La200 2.482 . S
O229 La201 2.757 . S
O229 C218 1.289 . S
O230 La201 2.470 . S
O230 C219 1.258 . S
O231 La200 2.503 . S
O231 C219 1.256 . S
H232 C204 0.930 . S
H233 C205 0.930 . S
H234 C207 0.929 . S
H235 C208 0.929 . S
H236 C213 0.930 . S
H237 C214 0.930 . S
H238 C216 0.929 . S
H239 C217 0.929 . S
La240 C242 2.928 . S
La240 O260 2.521 . S
La240 O261 2.628 . S
La240 O262 2.554 . S
La240 O263 2.757 . S
La240 O264 2.470 . S
La240 O269 2.482 . S
La240 O271 2.503 . S
La241 C251 2.928 . S
La241 O263 2.482 . S
La241 O265 2.503 . S
La241 O266 2.521 . S
La241 O267 2.628 . S
La241 O268 2.554 . S
La241 O269 2.757 . S
La241 O270 2.470 . S
C242 La240 2.928 . S
C242 C243 1.503 . S
C242 O260 1.261 . S
C242 O261 1.243 . S
C243 C242 1.503 . S
C243 C244 1.394 1_545 S
C243 C248 1.373 . S
C244 C243 1.394 1_565 S
C244 C245 1.380 . S
C244 H272 0.930 . S
C245 C244 1.380 . S
C245 C246 1.376 . S
C245 H273 0.930 . S
C246 C245 1.376 . S
C246 C247 1.370 1_565 S
C247 C246 1.370 1_545 S
C247 C248 1.396 . S
C247 H274 0.929 . S
C248 C243 1.373 . S
C248 C247 1.396 . S
C248 H275 0.929 . S
C249 O262 1.240 . S
C249 O263 1.289 . S
C250 O264 1.258 . S
C250 O265 1.256 . S
C251 La241 2.928 . S
C251 C252 1.503 . S
C251 O266 1.261 . S
C251 O267 1.243 . S
C252 C251 1.503 . S
C252 C253 1.394 . S
C252 C257 1.373 . S
C253 C252 1.394 . S
C253 C254 1.380 . S
C253 H276 0.930 . S
C254 C253 1.380 . S
C254 C255 1.376 . S
C254 H277 0.930 . S
C255 C254 1.376 . S
C255 C256 1.370 . S
C256 C255 1.370 . S
C256 C257 1.396 . S
C256 H278 0.929 . S
C257 C252 1.373 . S
C257 C256 1.396 . S
C257 H279 0.929 . S
C258 O268 1.240 . S
C258 O269 1.289 . S
C259 O270 1.258 . S
C259 O271 1.256 . S
O260 La240 2.521 . S
O260 C242 1.261 . S
O261 La240 2.628 . S
O261 C242 1.243 . S
O262 La240 2.554 . S
O262 C249 1.240 . S
O263 La240 2.757 . S
O263 La241 2.482 . S
O263 C249 1.289 . S
O264 La240 2.470 . S
O264 C250 1.258 . S
O265 La241 2.503 . S
O265 C250 1.256 . S
O266 La241 2.521 . S
O266 C251 1.261 . S
O267 La241 2.628 . S
O267 C251 1.243 . S
O268 La241 2.554 . S
O268 C258 1.240 . S
O269 La240 2.482 . S
O269 La241 2.757 . S
O269 C258 1.289 . S
O270 La241 2.470 . S
O270 C259 1.258 . S
O271 La240 2.503 . S
O271 C259 1.256 . S
H272 C244 0.930 . S
H273 C245 0.930 . S
H274 C247 0.929 . S
H275 C248 0.929 . S
H276 C253 0.930 . S
H277 C254 0.930 . S
H278 C256 0.929 . S
H279 C257 0.929 . S
La280 C282 2.928 . S
La280 O300 2.521 . S
La280 O301 2.628 . S
La280 O302 2.554 . S
La280 O303 2.757 . S
La280 O304 2.470 . S
La280 O309 2.482 . S
La280 O311 2.503 . S
La281 C291 2.928 1_455 S
La281 O303 2.482 . S
La281 O305 2.503 . S
La281 O306 2.521 1_455 S
La281 O307 2.628 . S
La281 O308 2.554 . S
La281 O309 2.757 . S
La281 O310 2.470 . S
C282 La280 2.928 . S
C282 C283 1.503 . S
C282 O300 1.261 . S
C282 O301 1.243 . S
C283 C282 1.503 . S
C283 C284 1.394 . S
C283 C288 1.373 . S
C284 C283 1.394 . S
C284 C285 1.380 . S
C284 H312 0.930 . S
C285 C284 1.380 . S
C285 C286 1.376 . S
C285 H313 0.930 . S
C286 C285 1.376 . S
C286 C287 1.370 . S
C287 C286 1.370 . S
C287 C288 1.396 . S
C287 H314 0.929 . S
C288 C283 1.373 . S
C288 C287 1.396 . S
C288 H315 0.929 . S
C289 O302 1.240 . S
C289 O303 1.289 . S
C290 O304 1.258 . S
C290 O305 1.256 . S
C291 La281 2.928 1_655 S
C291 C292 1.503 . S
C291 O306 1.261 . S
C291 O307 1.243 1_655 S
C292 C291 1.503 . S
C292 C293 1.394 . S
C292 C297 1.373 . S
C293 C292 1.394 . S
C293 C294 1.380 . S
C293 H316 0.930 . S
C294 C293 1.380 . S
C294 C295 1.376 . S
C294 H317 0.930 . S
C295 C294 1.376 . S
C295 C296 1.370 . S
C296 C295 1.370 . S
C296 C297 1.396 . S
C296 H318 0.929 . S
C297 C292 1.373 . S
C297 C296 1.396 . S
C297 H319 0.929 1_655 S
C298 O308 1.240 . S
C298 O309 1.289 . S
C299 O310 1.258 . S
C299 O311 1.256 . S
O300 La280 2.521 . S
O300 C282 1.261 . S
O301 La280 2.628 . S
O301 C282 1.243 . S
O302 La280 2.554 . S
O302 C289 1.240 . S
O303 La280 2.757 . S
O303 La281 2.482 . S
O303 C289 1.289 . S
O304 La280 2.470 . S
O304 C290 1.258 . S
O305 La281 2.503 . S
O305 C290 1.256 . S
O306 La281 2.521 1_655 S
O306 C291 1.261 . S
O307 La281 2.628 . S
O307 C291 1.243 1_455 S
O308 La281 2.554 . S
O308 C298 1.240 . S
O309 La280 2.482 . S
O309 La281 2.757 . S
O309 C298 1.289 . S
O310 La281 2.470 . S
O310 C299 1.258 . S
O311 La280 2.503 . S
O311 C299 1.256 . S
H312 C284 0.930 . S
H313 C285 0.930 . S
H314 C287 0.929 . S
H315 C288 0.929 . S
H316 C293 0.930 . S
H317 C294 0.930 . S
H318 C296 0.929 . S
H319 C297 0.929 1_455 S
La320 C322 2.928 . S
La320 O340 2.521 . S
La320 O341 2.628 . S
La320 O342 2.554 . S
La320 O343 2.757 . S
La320 O344 2.470 . S
La320 O349 2.482 . S
La320 O351 2.503 . S
La321 C331 2.928 . S
La321 O343 2.482 . S
La321 O345 2.503 . S
La321 O346 2.521 . S
La321 O347 2.628 . S
La321 O348 2.554 . S
La321 O349 2.757 . S
La321 O350 2.470 . S
C322 La320 2.928 . S
C322 C323 1.503 . S
C322 O340 1.261 . S
C322 O341 1.243 . S
C323 C322 1.503 . S
C323 C324 1.394 . S
C323 C328 1.373 . S
C324 C323 1.394 . S
C324 C325 1.380 . S
C324 H352 0.930 . S
C325 C324 1.380 . S
C325 C326 1.376 . S
C325 H353 0.930 . S
C326 C325 1.376 . S
C326 C327 1.370 . S
C327 C326 1.370 . S
C327 C328 1.396 . S
C327 H354 0.929 . S
C328 C323 1.373 . S
C328 C327 1.396 . S
C328 H355 0.929 . S
C329 O342 1.240 . S
C329 O343 1.289 . S
C330 O344 1.258 . S
C330 O345 1.256 . S
C331 La321 2.928 . S
C331 C332 1.503 . S
C331 O346 1.261 . S
C331 O347 1.243 . S
C332 C331 1.503 . S
C332 C333 1.394 . S
C332 C337 1.373 . S
C333 C332 1.394 . S
C333 C334 1.380 . S
C333 H356 0.930 . S
C334 C333 1.380 . S
C334 C335 1.376 . S
C334 H357 0.930 . S
C335 C334 1.376 . S
C335 C336 1.370 . S
C336 C335 1.370 . S
C336 C337 1.396 . S
C336 H358 0.929 . S
C337 C332 1.373 . S
C337 C336 1.396 . S
C337 H359 0.929 . S
C338 O348 1.240 . S
C338 O349 1.289 . S
C339 O350 1.258 . S
C339 O351 1.256 . S
O340 La320 2.521 . S
O340 C322 1.261 . S
O341 La320 2.628 . S
O341 C322 1.243 . S
O342 La320 2.554 . S
O342 C329 1.240 . S
O343 La320 2.757 . S
O343 La321 2.482 . S
O343 C329 1.289 . S
O344 La320 2.470 . S
O344 C330 1.258 . S
O345 La321 2.503 . S
O345 C330 1.256 . S
O346 La321 2.521 . S
O346 C331 1.261 . S
O347 La321 2.628 . S
O347 C331 1.243 . S
O348 La321 2.554 . S
O348 C338 1.240 . S
O349 La320 2.482 . S
O349 La321 2.757 . S
O349 C338 1.289 . S
O350 La321 2.470 . S
O350 C339 1.258 . S
O351 La320 2.503 . S
O351 C339 1.256 . S
H352 C324 0.930 . S
H353 C325 0.930 . S
H354 C327 0.929 . S
H355 C328 0.929 . S
H356 C333 0.930 . S
H357 C334 0.930 . S
H358 C336 0.929 . S
H359 C337 0.929 . S
La360 C362 2.928 1_445 S
La360 O380 2.521 1_455 S
La360 O381 2.628 1_545 S
La360 O382 2.554 . S
La360 O383 2.757 . S
La360 O384 2.470 . S
La360 O389 2.482 . S
La360 O391 2.503 . S
La361 C371 2.928 . S
La361 O383 2.482 . S
La361 O385 2.503 . S
La361 O386 2.521 . S
La361 O387 2.628 . S
La361 O388 2.554 . S
La361 O389 2.757 . S
La361 O390 2.470 . S
C362 La360 2.928 1_665 S
C362 C363 1.503 . S
C362 O380 1.261 1_565 S
C362 O381 1.243 1_655 S
C363 C362 1.503 . S
C363 C364 1.394 . S
C363 C368 1.373 . S
C364 C363 1.394 . S
C364 C365 1.380 . S
C364 H392 0.930 1_565 S
C365 C364 1.380 . S
C365 C366 1.376 . S
C365 H393 0.930 . S
C366 C365 1.376 . S
C366 C367 1.370 . S
C367 C366 1.370 . S
C367 C368 1.396 . S
C367 H394 0.929 . S
C368 C363 1.373 . S
C368 C367 1.396 . S
C368 H395 0.929 1_655 S
C369 O382 1.240 . S
C369 O383 1.289 . S
C370 O384 1.258 . S
C370 O385 1.256 . S
C371 La361 2.928 . S
C371 C372 1.503 . S
C371 O386 1.261 . S
C371 O387 1.243 . S
C372 C371 1.503 . S
C372 C373 1.394 . S
C372 C377 1.373 . S
C373 C372 1.394 . S
C373 C374 1.380 . S
C373 H396 0.930 . S
C374 C373 1.380 . S
C374 C375 1.376 . S
C374 H397 0.930 . S
C375 C374 1.376 . S
C375 C376 1.370 . S
C376 C375 1.370 . S
C376 C377 1.396 . S
C376 H398 0.929 . S
C377 C372 1.373 . S
C377 C376 1.396 . S
C377 H399 0.929 . S
C378 O388 1.240 1_565 S
C378 O389 1.289 1_565 S
C379 O390 1.258 . S
C379 O391 1.256 . S
O380 La360 2.521 1_655 S
O380 C362 1.261 1_545 S
O381 La360 2.628 1_565 S
O381 C362 1.243 1_455 S
O382 La360 2.554 . S
O382 C369 1.240 . S
O383 La360 2.757 . S
O383 La361 2.482 . S
O383 C369 1.289 . S
O384 La360 2.470 . S
O384 C370 1.258 . S
O385 La361 2.503 . S
O385 C370 1.256 . S
O386 La361 2.521 . S
O386 C371 1.261 . S
O387 La361 2.628 . S
O387 C371 1.243 . S
O388 La361 2.554 . S
O388 C378 1.240 1_545 S
O389 La360 2.482 . S
O389 La361 2.757 . S
O389 C378 1.289 1_545 S
O390 La361 2.470 . S
O390 C379 1.258 . S
O391 La360 2.503 . S
O391 C379 1.256 . S
H392 C364 0.930 1_545 S
H393 C365 0.930 . S
H394 C367 0.929 . S
H395 C368 0.929 1_455 S
H396 C373 0.930 . S
H397 C374 0.930 . S
H398 C376 0.929 . S
H399 C377 0.929 . S
La400 C402 2.928 . S
La400 O420 2.521 . S
La400 O421 2.628 . S
La400 O422 2.554 . S
La400 O423 2.757 . S
La400 O424 2.470 . S
La400 O429 2.482 . S
La400 O431 2.503 . S
La401 C411 2.928 . S
La401 O423 2.482 . S
La401 O425 2.503 . S
La401 O426 2.521 . S
La401 O427 2.628 . S
La401 O428 2.554 . S
La401 O429 2.757 . S
La401 O430 2.470 . S
C402 La400 2.928 . S
C402 C403 1.503 . S
C402 O420 1.261 . S
C402 O421 1.243 . S
C403 C402 1.503 . S
C403 C404 1.394 . S
C403 C408 1.373 . S
C404 C403 1.394 . S
C404 C405 1.380 . S
C404 H432 0.930 . S
C405 C404 1.380 . S
C405 C406 1.376 . S
C405 H433 0.930 . S
C406 C405 1.376 . S
C406 C407 1.370 . S
C407 C406 1.370 . S
C407 C408 1.396 . S
C407 H434 0.929 . S
C408 C403 1.373 . S
C408 C407 1.396 . S
C408 H435 0.929 . S
C409 O422 1.240 . S
C409 O423 1.289 . S
C410 O424 1.258 . S
C410 O425 1.256 . S
C411 La401 2.928 . S
C411 C412 1.503 . S
C411 O426 1.261 . S
C411 O427 1.243 . S
C412 C411 1.503 . S
C412 C413 1.394 . S
C412 C417 1.373 . S
C413 C412 1.394 . S
C413 C414 1.380 . S
C413 H436 0.930 . S
C414 C413 1.380 . S
C414 C415 1.376 . S
C414 H437 0.930 . S
C415 C414 1.376 . S
C415 C416 1.370 . S
C416 C415 1.370 . S
C416 C417 1.396 . S
C416 H438 0.929 1_554 S
C417 C412 1.373 . S
C417 C416 1.396 . S
C417 H439 0.929 . S
C418 O428 1.240 . S
C418 O429 1.289 . S
C419 O430 1.258 . S
C419 O431 1.256 . S
O420 La400 2.521 . S
O420 C402 1.261 . S
O421 La400 2.628 . S
O421 C402 1.243 . S
O422 La400 2.554 . S
O422 C409 1.240 . S
O423 La400 2.757 . S
O423 La401 2.482 . S
O423 C409 1.289 . S
O424 La400 2.470 . S
O424 C410 1.258 . S
O425 La401 2.503 . S
O425 C410 1.256 . S
O426 La401 2.521 . S
O426 C411 1.261 . S
O427 La401 2.628 . S
O427 C411 1.243 . S
O428 La401 2.554 . S
O428 C418 1.240 . S
O429 La400 2.482 . S
O429 La401 2.757 . S
O429 C418 1.289 . S
O430 La401 2.470 . S
O430 C419 1.258 . S
O431 La400 2.503 . S
O431 C419 1.256 . S
H432 C404 0.930 . S
H433 C405 0.930 . S
H434 C407 0.929 . S
H435 C408 0.929 . S
H436 C413 0.930 . S
H437 C414 0.930 . S
H438 C416 0.929 1_556 S
H439 C417 0.929 . S
La440 C442 2.928 1_565 S
La440 O460 2.521 . S
La440 O461 2.628 1_565 S
La440 O462 2.554 . S
La440 O463 2.757 . S
La440 O464 2.470 . S
La440 O469 2.482 . S
La440 O471 2.503 . S
La441 C451 2.928 . S
La441 O463 2.482 . S
La441 O465 2.503 . S
La441 O466 2.521 . S
La441 O467 2.628 . S
La441 O468 2.554 . S
La441 O469 2.757 . S
La441 O470 2.470 . S
C442 La440 2.928 1_545 S
C442 C443 1.503 . S
C442 O460 1.261 1_545 S
C442 O461 1.243 . S
C443 C442 1.503 . S
C443 C444 1.394 . S
C443 C448 1.373 . S
C444 C443 1.394 . S
C444 C445 1.380 . S
C444 H472 0.930 1_545 S
C445 C444 1.380 . S
C445 C446 1.376 . S
C445 H473 0.930 . S
C446 C445 1.376 . S
C446 C447 1.370 . S
C447 C446 1.370 . S
C447 C448 1.396 . S
C447 H474 0.929 . S
C448 C443 1.373 . S
C448 C447 1.396 . S
C448 H475 0.929 . S
C449 O462 1.240 . S
C449 O463 1.289 . S
C450 O464 1.258 . S
C450 O465 1.256 . S
C451 La441 2.928 . S
C451 C452 1.503 . S
C451 O466 1.261 . S
C451 O467 1.243 . S
C452 C451 1.503 . S
C452 C453 1.394 . S
C452 C457 1.373 . S
C453 C452 1.394 . S
C453 C454 1.380 . S
C453 H476 0.930 . S
C454 C453 1.380 . S
C454 C455 1.376 . S
C454 H477 0.930 . S
C455 C454 1.376 . S
C455 C456 1.370 . S
C456 C455 1.370 . S
C456 C457 1.396 . S
C456 H478 0.929 . S
C457 C452 1.373 . S
C457 C456 1.396 . S
C457 H479 0.929 . S
C458 O468 1.240 1_545 S
C458 O469 1.289 1_545 S
C459 O470 1.258 . S
C459 O471 1.256 . S
O460 La440 2.521 . S
O460 C442 1.261 1_565 S
O461 La440 2.628 1_545 S
O461 C442 1.243 . S
O462 La440 2.554 . S
O462 C449 1.240 . S
O463 La440 2.757 . S
O463 La441 2.482 . S
O463 C449 1.289 . S
O464 La440 2.470 . S
O464 C450 1.258 . S
O465 La441 2.503 . S
O465 C450 1.256 . S
O466 La441 2.521 . S
O466 C451 1.261 . S
O467 La441 2.628 . S
O467 C451 1.243 . S
O468 La441 2.554 . S
O468 C458 1.240 1_565 S
O469 La440 2.482 . S
O469 La441 2.757 . S
O469 C458 1.289 1_565 S
O470 La441 2.470 . S
O470 C459 1.258 . S
O471 La440 2.503 . S
O471 C459 1.256 . S
H472 C444 0.930 1_565 S
H473 C445 0.930 . S
H474 C447 0.929 . S
H475 C448 0.929 . S
H476 C453 0.930 . S
H477 C454 0.930 . S
H478 C456 0.929 . S
H479 C457 0.929 . S
La480 C482 2.928 . S
La480 O500 2.521 . S
La480 O501 2.628 . S
La480 O502 2.554 . S
La480 O503 2.757 . S
La480 O504 2.470 . S
La480 O509 2.482 . S
La480 O511 2.503 . S
La481 C491 2.928 . S
La481 O503 2.482 . S
La481 O505 2.503 . S
La481 O506 2.521 . S
La481 O507 2.628 . S
La481 O508 2.554 . S
La481 O509 2.757 . S
La481 O510 2.470 . S
C482 La480 2.928 . S
C482 C483 1.503 . S
C482 O500 1.261 . S
C482 O501 1.243 . S
C483 C482 1.503 . S
C483 C484 1.394 . S
C483 C488 1.373 . S
C484 C483 1.394 . S
C484 C485 1.380 . S
C484 H512 0.930 . S
C485 C484 1.380 . S
C485 C486 1.376 . S
C485 H513 0.930 . S
C486 C485 1.376 . S
C486 C487 1.370 . S
C487 C486 1.370 . S
C487 C488 1.396 . S
C487 H514 0.929 . S
C488 C483 1.373 . S
C488 C487 1.396 . S
C488 H515 0.929 . S
C489 O502 1.240 . S
C489 O503 1.289 . S
C490 O504 1.258 . S
C490 O505 1.256 . S
C491 La481 2.928 . S
C491 C492 1.503 . S
C491 O506 1.261 . S
C491 O507 1.243 . S
C492 C491 1.503 . S
C492 C493 1.394 . S
C492 C497 1.373 . S
C493 C492 1.394 . S
C493 C494 1.380 . S
C493 H516 0.930 . S
C494 C493 1.380 . S
C494 C495 1.376 . S
C494 H517 0.930 . S
C495 C494 1.376 . S
C495 C496 1.370 . S
C496 C495 1.370 . S
C496 C497 1.396 . S
C496 H518 0.929 . S
C497 C492 1.373 . S
C497 C496 1.396 . S
C497 H519 0.929 . S
C498 O508 1.240 . S
C498 O509 1.289 . S
C499 O510 1.258 . S
C499 O511 1.256 . S
O500 La480 2.521 . S
O500 C482 1.261 . S
O501 La480 2.628 . S
O501 C482 1.243 . S
O502 La480 2.554 . S
O502 C489 1.240 . S
O503 La480 2.757 . S
O503 La481 2.482 . S
O503 C489 1.289 . S
O504 La480 2.470 . S
O504 C490 1.258 . S
O505 La481 2.503 . S
O505 C490 1.256 . S
O506 La481 2.521 . S
O506 C491 1.261 . S
O507 La481 2.628 . S
O507 C491 1.243 . S
O508 La481 2.554 . S
O508 C498 1.240 . S
O509 La480 2.482 . S
O509 La481 2.757 . S
O509 C498 1.289 . S
O510 La481 2.470 . S
O510 C499 1.258 . S
O511 La480 2.503 . S
O511 C499 1.256 . S
H512 C484 0.930 . S
H513 C485 0.930 . S
H514 C487 0.929 . S
H515 C488 0.929 . S
H516 C493 0.930 . S
H517 C494 0.930 . S
H518 C496 0.929 . S
H519 C497 0.929 . S
La520 C522 2.928 . S
La520 O540 2.521 . S
La520 O541 2.628 . S
La520 O542 2.554 . S
La520 O543 2.757 . S
La520 O544 2.470 . S
La520 O549 2.482 . S
La520 O551 2.503 . S
La521 C531 2.928 1_665 S
La521 O543 2.482 . S
La521 O545 2.503 . S
La521 O546 2.521 1_655 S
La521 O547 2.628 1_565 S
La521 O548 2.554 . S
La521 O549 2.757 . S
La521 O550 2.470 . S
C522 La520 2.928 . S
C522 C523 1.503 . S
C522 O540 1.261 . S
C522 O541 1.243 . S
C523 C522 1.503 . S
C523 C524 1.394 . S
C523 C528 1.373 . S
C524 C523 1.394 . S
C524 C525 1.380 . S
C524 H552 0.930 . S
C525 C524 1.380 . S
C525 C526 1.376 . S
C525 H553 0.930 . S
C526 C525 1.376 . S
C526 C527 1.370 . S
C527 C526 1.370 . S
C527 C528 1.396 . S
C527 H554 0.929 . S
C528 C523 1.373 . S
C528 C527 1.396 . S
C528 H555 0.929 . S
C529 O542 1.240 1_545 S
C529 O543 1.289 1_545 S
C530 O544 1.258 . S
C530 O545 1.256 . S
C531 La521 2.928 1_445 S
C531 C532 1.503 . S
C531 O546 1.261 1_545 S
C531 O547 1.243 1_455 S
C532 C531 1.503 . S
C532 C533 1.394 . S
C532 C537 1.373 . S
C533 C532 1.394 . S
C533 C534 1.380 . S
C533 H556 0.930 1_545 S
C534 C533 1.380 . S
C534 C535 1.376 . S
C534 H557 0.930 . S
C535 C534 1.376 . S
C535 C536 1.370 . S
C536 C535 1.370 . S
C536 C537 1.396 . S
C536 H558 0.929 . S
C537 C532 1.373 . S
C537 C536 1.396 . S
C537 H559 0.929 1_455 S
C538 O548 1.240 . S
C538 O549 1.289 . S
C539 O550 1.258 . S
C539 O551 1.256 . S
O540 La520 2.521 . S
O540 C522 1.261 . S
O541 La520 2.628 . S
O541 C522 1.243 . S
O542 La520 2.554 . S
O542 C529 1.240 1_565 S
O543 La520 2.757 . S
O543 La521 2.482 . S
O543 C529 1.289 1_565 S
O544 La520 2.470 . S
O544 C530 1.258 . S
O545 La521 2.503 . S
O545 C530 1.256 . S
O546 La521 2.521 1_455 S
O546 C531 1.261 1_565 S
O547 La521 2.628 1_545 S
O547 C531 1.243 1_655 S
O548 La521 2.554 . S
O548 C538 1.240 . S
O549 La520 2.482 . S
O549 La521 2.757 . S
O549 C538 1.289 . S
O550 La521 2.470 . S
O550 C539 1.258 . S
O551 La520 2.503 . S
O551 C539 1.256 . S
H552 C524 0.930 . S
H553 C525 0.930 . S
H554 C527 0.929 . S
H555 C528 0.929 . S
H556 C533 0.930 1_565 S
H557 C534 0.930 . S
H558 C536 0.929 . S
H559 C537 0.929 1_655 S
La560 C562 2.928 . S
La560 O580 2.521 . S
La560 O581 2.628 . S
La560 O582 2.554 . S
La560 O583 2.757 . S
La560 O584 2.470 . S
La560 O589 2.482 . S
La560 O591 2.503 . S
La561 C571 2.928 . S
La561 O583 2.482 . S
La561 O585 2.503 . S
La561 O586 2.521 . S
La561 O587 2.628 . S
La561 O588 2.554 . S
La561 O589 2.757 . S
La561 O590 2.470 . S
C562 La560 2.928 . S
C562 C563 1.503 . S
C562 O580 1.261 . S
C562 O581 1.243 . S
C563 C562 1.503 . S
C563 C564 1.394 . S
C563 C568 1.373 . S
C564 C563 1.394 . S
C564 C565 1.380 . S
C564 H592 0.930 . S
C565 C564 1.380 . S
C565 C566 1.376 . S
C565 H593 0.930 . S
C566 C565 1.376 . S
C566 C567 1.370 . S
C567 C566 1.370 . S
C567 C568 1.396 . S
C567 H594 0.929 1_556 S
C568 C563 1.373 . S
C568 C567 1.396 . S
C568 H595 0.929 . S
C569 O582 1.240 . S
C569 O583 1.289 . S
C570 O584 1.258 . S
C570 O585 1.256 . S
C571 La561 2.928 . S
C571 C572 1.503 . S
C571 O586 1.261 . S
C571 O587 1.243 . S
C572 C571 1.503 . S
C572 C573 1.394 . S
C572 C577 1.373 . S
C573 C572 1.394 . S
C573 C574 1.380 . S
C573 H596 0.930 . S
C574 C573 1.380 . S
C574 C575 1.376 . S
C574 H597 0.930 . S
C575 C574 1.376 . S
C575 C576 1.370 . S
C576 C575 1.370 . S
C576 C577 1.396 . S
C576 H598 0.929 . S
C577 C572 1.373 . S
C577 C576 1.396 . S
C577 H599 0.929 . S
C578 O588 1.240 . S
C578 O589 1.289 . S
C579 O590 1.258 . S
C579 O591 1.256 . S
O580 La560 2.521 . S
O580 C562 1.261 . S
O581 La560 2.628 . S
O581 C562 1.243 . S
O582 La560 2.554 . S
O582 C569 1.240 . S
O583 La560 2.757 . S
O583 La561 2.482 . S
O583 C569 1.289 . S
O584 La560 2.470 . S
O584 C570 1.258 . S
O585 La561 2.503 . S
O585 C570 1.256 . S
O586 La561 2.521 . S
O586 C571 1.261 . S
O587 La561 2.628 . S
O587 C571 1.243 . S
O588 La561 2.554 . S
O588 C578 1.240 . S
O589 La560 2.482 . S
O589 La561 2.757 . S
O589 C578 1.289 . S
O590 La561 2.470 . S
O590 C579 1.258 . S
O591 La560 2.503 . S
O591 C579 1.256 . S
H592 C564 0.930 . S
H593 C565 0.930 . S
H594 C567 0.929 1_554 S
H595 C568 0.929 . S
H596 C573 0.930 . S
H597 C574 0.930 . S
H598 C576 0.929 . S
H599 C577 0.929 . S
La600 C602 2.928 . S
La600 O620 2.521 . S
La600 O621 2.628 . S
La600 O622 2.554 . S
La600 O623 2.757 . S
La600 O624 2.470 . S
La600 O629 2.482 . S
La600 O631 2.503 . S
La601 C611 2.928 1_545 S
La601 O623 2.482 . S
La601 O625 2.503 . S
La601 O626 2.521 . S
La601 O627 2.628 1_545 S
La601 O628 2.554 . S
La601 O629 2.757 . S
La601 O630 2.470 . S
C602 La600 2.928 . S
C602 C603 1.503 . S
C602 O620 1.261 . S
C602 O621 1.243 . S
C603 C602 1.503 . S
C603 C604 1.394 . S
C603 C608 1.373 . S
C604 C603 1.394 . S
C604 C605 1.380 . S
C604 H632 0.930 . S
C605 C604 1.380 . S
C605 C606 1.376 . S
C605 H633 0.930 . S
C606 C605 1.376 . S
C606 C607 1.370 . S
C607 C606 1.370 . S
C607 C608 1.396 . S
C607 H634 0.929 . S
C608 C603 1.373 . S
C608 C607 1.396 . S
C608 H635 0.929 . S
C609 O622 1.240 1_565 S
C609 O623 1.289 1_565 S
C610 O624 1.258 . S
C610 O625 1.256 . S
C611 La601 2.928 1_565 S
C611 C612 1.503 . S
C611 O626 1.261 1_565 S
C611 O627 1.243 . S
C612 C611 1.503 . S
C612 C613 1.394 . S
C612 C617 1.373 . S
C613 C612 1.394 . S
C613 C614 1.380 . S
C613 H636 0.930 1_565 S
C614 C613 1.380 . S
C614 C615 1.376 . S
C614 H637 0.930 . S
C615 C614 1.376 . S
C615 C616 1.370 . S
C616 C615 1.370 . S
C616 C617 1.396 . S
C616 H638 0.929 . S
C617 C612 1.373 . S
C617 C616 1.396 . S
C617 H639 0.929 . S
C618 O628 1.240 . S
C618 O629 1.289 . S
C619 O630 1.258 . S
C619 O631 1.256 . S
O620 La600 2.521 . S
O620 C602 1.261 . S
O621 La600 2.628 . S
O621 C602 1.243 . S
O622 La600 2.554 . S
O622 C609 1.240 1_545 S
O623 La600 2.757 . S
O623 La601 2.482 . S
O623 C609 1.289 1_545 S
O624 La600 2.470 . S
O624 C610 1.258 . S
O625 La601 2.503 . S
O625 C610 1.256 . S
O626 La601 2.521 . S
O626 C611 1.261 1_545 S
O627 La601 2.628 1_565 S
O627 C611 1.243 . S
O628 La601 2.554 . S
O628 C618 1.240 . S
O629 La600 2.482 . S
O629 La601 2.757 . S
O629 C618 1.289 . S
O630 La601 2.470 . S
O630 C619 1.258 . S
O631 La600 2.503 . S
O631 C619 1.256 . S
H632 C604 0.930 . S
H633 C605 0.930 . S
H634 C607 0.929 . S
H635 C608 0.929 . S
H636 C613 0.930 1_545 S
H637 C614 0.930 . S
H638 C616 0.929 . S
H639 C617 0.929 . S
C640 C641 1.369 . S
C640 C642 1.419 . S
C640 H644 0.930 . S
C641 C640 1.369 . S
C641 C650 1.429 . S
C642 C640 1.419 . S
C642 C643 1.363 . S
C642 H645 0.929 . S
C643 C642 1.363 . S
C643 C649 1.428 . S
H644 C640 0.930 . S
H645 C642 0.929 . S
S646 N647 1.613 . S
S646 N648 1.610 . S
N647 S646 1.613 . S
N647 C650 1.350 . S
N648 S646 1.610 . S
N648 C649 1.351 . S
C649 C643 1.428 . S
C649 N648 1.351 . S
C649 C650 1.434 . S
C650 C641 1.429 . S
C650 N647 1.350 . S
C650 C649 1.434 . S
C651 C652 1.369 . S
C651 C653 1.419 . S
C651 H655 0.930 . S
C652 C651 1.369 . S
C652 C661 1.429 . S
C653 C651 1.419 . S
C653 C654 1.363 . S
C653 H656 0.929 . S
C654 C653 1.363 . S
C654 C660 1.428 . S
H655 C651 0.930 . S
H656 C653 0.929 . S
S657 N658 1.613 . S
S657 N659 1.610 . S
N658 S657 1.613 . S
N658 C661 1.350 . S
N659 S657 1.610 . S
N659 C660 1.351 . S
C660 C654 1.428 . S
C660 N659 1.351 . S
C660 C661 1.434 . S
C661 C652 1.429 . S
C661 N658 1.350 . S
C661 C660 1.434 . S
C662 C663 1.369 . S
C662 C664 1.419 1_455 S
C662 H666 0.930 . S
C663 C662 1.369 . S
C663 C672 1.429 . S
C664 C662 1.419 1_655 S
C664 C665 1.363 . S
C664 H667 0.929 . S
C665 C664 1.363 . S
C665 C671 1.428 . S
H666 C662 0.930 . S
H667 C664 0.929 . S
S668 N669 1.613 1_655 S
S668 N670 1.610 . S
N669 S668 1.613 1_455 S
N669 C672 1.350 . S
N670 S668 1.610 . S
N670 C671 1.351 . S
C671 C665 1.428 . S
C671 N670 1.351 . S
C671 C672 1.434 1_655 S
C672 C663 1.429 . S
C672 N669 1.350 . S
C672 C671 1.434 1_455 S
C673 C674 1.369 . S
C673 C675 1.419 . S
C673 H677 0.930 . S
C674 C673 1.369 . S
C674 C683 1.429 1_455 S
C675 C673 1.419 . S
C675 C676 1.363 1_455 S
C675 H678 0.929 . S
C676 C675 1.363 1_655 S
C676 C682 1.428 . S
H677 C673 0.930 . S
H678 C675 0.929 . S
S679 N680 1.613 . S
S679 N681 1.610 . S
N680 S679 1.613 . S
N680 C683 1.350 . S
N681 S679 1.610 . S
N681 C682 1.351 . S
C682 C676 1.428 . S
C682 N681 1.351 . S
C682 C683 1.434 . S
C683 C674 1.429 1_655 S
C683 N680 1.350 . S
C683 C682 1.434 . S
C684 C685 1.369 . S
C684 C686 1.419 . S
C684 H688 0.930 . S
C685 C684 1.369 . S
C685 C694 1.429 . S
C686 C684 1.419 . S
C686 C687 1.363 . S
C686 H689 0.929 . S
C687 C686 1.363 . S
C687 C693 1.428 . S
H688 C684 0.930 . S
H689 C686 0.929 . S
S690 N691 1.613 . S
S690 N692 1.610 . S
N691 S690 1.613 . S
N691 C694 1.350 . S
N692 S690 1.610 . S
N692 C693 1.351 . S
C693 C687 1.428 . S
C693 N692 1.351 . S
C693 C694 1.434 . S
C694 C685 1.429 . S
C694 N691 1.350 . S
C694 C693 1.434 . S
C695 C696 1.369 . S
C695 C697 1.419 . S
C695 H699 0.930 . S
C696 C695 1.369 . S
C696 C705 1.429 . S
C697 C695 1.419 . S
C697 C698 1.363 . S
C697 H700 0.929 . S
C698 C697 1.363 . S
C698 C704 1.428 . S
H699 C695 0.930 . S
H700 C697 0.929 . S
S701 N702 1.613 . S
S701 N703 1.610 . S
N702 S701 1.613 . S
N702 C705 1.350 . S
N703 S701 1.610 . S
N703 C704 1.351 . S
C704 C698 1.428 . S
C704 N703 1.351 . S
C704 C705 1.434 . S
C705 C696 1.429 . S
C705 N702 1.350 . S
C705 C704 1.434 . S
C706 C707 1.369 . S
C706 C708 1.419 1_455 S
C706 H710 0.930 . S
C707 C706 1.369 . S
C707 C716 1.429 . S
C708 C706 1.419 1_655 S
C708 C709 1.363 . S
C708 H711 0.929 . S
C709 C708 1.363 . S
C709 C715 1.428 . S
H710 C706 0.930 . S
H711 C708 0.929 . S
S712 N713 1.613 . S
S712 N714 1.610 1_455 S
N713 S712 1.613 . S
N713 C716 1.350 . S
N714 S712 1.610 1_655 S
N714 C715 1.351 . S
C715 C709 1.428 . S
C715 N714 1.351 . S
C715 C716 1.434 1_655 S
C716 C707 1.429 . S
C716 N713 1.350 . S
C716 C715 1.434 1_455 S
C717 C718 1.369 1_655 S
C717 C719 1.419 . S
C717 H721 0.930 . S
C718 C717 1.369 1_455 S
C718 C727 1.429 . S
C719 C717 1.419 . S
C719 C720 1.363 . S
C719 H722 0.929 . S
C720 C719 1.363 . S
C720 C726 1.428 1_655 S
H721 C717 0.930 . S
H722 C719 0.929 . S
S723 N724 1.613 . S
S723 N725 1.610 . S
N724 S723 1.613 . S
N724 C727 1.350 . S
N725 S723 1.610 . S
N725 C726 1.351 . S
C726 C720 1.428 1_455 S
C726 N725 1.351 . S
C726 C727 1.434 . S
C727 C718 1.429 . S
C727 N724 1.350 . S
C727 C726 1.434 . S
C728 C729 1.369 1_545 S
C728 C730 1.419 . S
C728 H732 0.930 . S
C729 C728 1.369 1_565 S
C729 C738 1.429 1_556 S
C730 C728 1.419 . S
C730 C731 1.363 1_556 S
C730 H733 0.929 . S
C731 C730 1.363 1_554 S
C731 C737 1.428 1_545 S
H732 C728 0.930 . S
H733 C730 0.929 . S
S734 N735 1.613 . S
S734 N736 1.610 . S
N735 S734 1.613 . S
N735 C738 1.350 . S
N736 S734 1.610 . S
N736 C737 1.351 . S
C737 C731 1.428 1_565 S
C737 N736 1.351 . S
C737 C738 1.434 . S
C738 C729 1.429 1_554 S
C738 N735 1.350 . S
C738 C737 1.434 . S
C739 C740 1.369 . S
C739 C741 1.419 . S
C739 H743 0.930 . S
C740 C739 1.369 . S
C740 C749 1.429 . S
C741 C739 1.419 . S
C741 C742 1.363 . S
C741 H744 0.929 . S
C742 C741 1.363 . S
C742 C748 1.428 . S
H743 C739 0.930 . S
H744 C741 0.929 . S
S745 N746 1.613 . S
S745 N747 1.610 . S
N746 S745 1.613 . S
N746 C749 1.350 . S
N747 S745 1.610 . S
N747 C748 1.351 . S
C748 C742 1.428 . S
C748 N747 1.351 . S
C748 C749 1.434 . S
C749 C740 1.429 . S
C749 N746 1.350 . S
C749 C748 1.434 . S
C750 C751 1.369 1_565 S
C750 C752 1.399 1_455 S
C750 H754 0.930 . S
C751 C750 1.369 1_545 S
C751 C760 1.413 1_455 S
C752 C750 1.399 1_655 S
C752 C753 1.383 . S
C752 H755 0.928 1_655 S
C753 C752 1.383 . S
C753 C759 1.428 1_565 S
H754 C750 0.930 . S
H755 C752 0.928 1_455 S
S756 N757 1.613 . S
S756 N758 1.610 . S
N757 S756 1.613 . S
N757 C760 1.352 . S
N758 S756 1.610 . S
N758 C759 1.351 . S
C759 C753 1.428 1_545 S
C759 N758 1.351 . S
C759 C760 1.450 . S
C760 C751 1.413 1_655 S
C760 N757 1.352 . S
C760 C759 1.450 . S
C761 C762 1.369 . S
C761 C763 1.419 . S
C761 H765 0.930 . S
C762 C761 1.369 . S
C762 C771 1.429 . S
C763 C761 1.419 . S
C763 C764 1.363 . S
C763 H766 0.929 . S
C764 C763 1.363 . S
C764 C770 1.428 . S
H765 C761 0.930 . S
H766 C763 0.929 . S
S767 N768 1.613 . S
S767 N769 1.610 . S
N768 S767 1.613 . S
N768 C771 1.350 . S
N769 S767 1.610 . S
N769 C770 1.351 . S
C770 C764 1.428 . S
C770 N769 1.351 . S
C770 C771 1.434 . S
C771 C762 1.429 . S
C771 N768 1.350 . S
C771 C770 1.434 . S
C772 C773 1.369 . S
C772 C774 1.419 . S
C772 H776 0.930 . S
C773 C772 1.369 . S
C773 C782 1.429 . S
C774 C772 1.419 . S
C774 C775 1.363 . S
C774 H777 0.929 . S
C775 C774 1.363 . S
C775 C781 1.428 . S
H776 C772 0.930 . S
H777 C774 0.929 . S
S778 N779 1.613 . S
S778 N780 1.610 . S
N779 S778 1.613 . S
N779 C782 1.350 . S
N780 S778 1.610 . S
N780 C781 1.351 . S
C781 C775 1.428 . S
C781 N780 1.351 . S
C781 C782 1.434 . S
C782 C773 1.429 . S
C782 N779 1.350 . S
C782 C781 1.434 . S
C783 C784 1.369 . S
C783 C785 1.419 . S
C783 H787 0.930 . S
C784 C783 1.369 . S
C784 C793 1.429 . S
C785 C783 1.419 . S
C785 C786 1.363 . S
C785 H788 0.929 . S
C786 C785 1.363 . S
C786 C792 1.428 . S
H787 C783 0.930 . S
H788 C785 0.929 . S
S789 N790 1.613 . S
S789 N791 1.610 . S
N790 S789 1.613 . S
N790 C793 1.350 . S
N791 S789 1.610 . S
N791 C792 1.351 . S
C792 C786 1.428 . S
C792 N791 1.351 . S
C792 C793 1.434 . S
C793 C784 1.429 . S
C793 N790 1.350 . S
C793 C792 1.434 . S
C794 C795 1.369 . S
C794 C796 1.419 1_455 S
C794 H798 0.930 . S
C795 C794 1.369 . S
C795 C804 1.429 . S
C796 C794 1.419 1_655 S
C796 C797 1.363 . S
C796 H799 0.929 . S
C797 C796 1.363 . S
C797 C803 1.428 . S
H798 C794 0.930 . S
H799 C796 0.929 . S
S800 N801 1.613 . S
S800 N802 1.610 1_455 S
N801 S800 1.613 . S
N801 C804 1.350 . S
N802 S800 1.610 1_655 S
N802 C803 1.351 . S
C803 C797 1.428 . S
C803 N802 1.351 . S
C803 C804 1.434 1_655 S
C804 C795 1.429 . S
C804 N801 1.350 . S
C804 C803 1.434 1_455 S
C805 C806 1.369 . S
C805 C807 1.419 . S
C805 H809 0.930 . S
C806 C805 1.369 . S
C806 C815 1.429 1_556 S
C807 C805 1.419 . S
C807 C808 1.363 1_556 S
C807 H810 0.929 . S
C808 C807 1.363 1_554 S
C808 C814 1.428 . S
H809 C805 0.930 . S
H810 C807 0.929 . S
S811 N812 1.613 . S
S811 N813 1.610 . S
N812 S811 1.613 . S
N812 C815 1.350 . S
N813 S811 1.610 . S
N813 C814 1.351 . S
C814 C808 1.428 . S
C814 N813 1.351 . S
C814 C815 1.434 . S
C815 C806 1.429 1_554 S
C815 N812 1.350 . S
C815 C814 1.434 . S
C816 C817 1.369 . S
C816 C818 1.419 . S
C816 H820 0.930 . S
C817 C816 1.369 . S
C817 C826 1.429 . S
C818 C816 1.419 . S
C818 C819 1.363 . S
C818 H821 0.929 . S
C819 C818 1.363 . S
C819 C825 1.428 . S
H820 C816 0.930 . S
H821 C818 0.929 . S
S822 N823 1.613 . S
S822 N824 1.610 . S
N823 S822 1.613 . S
N823 C826 1.350 . S
N824 S822 1.610 . S
N824 C825 1.351 . S
C825 C819 1.428 . S
C825 N824 1.351 . S
C825 C826 1.434 . S
C826 C817 1.429 . S
C826 N823 1.350 . S
C826 C825 1.434 . S
C827 C828 1.369 . S
C827 C829 1.419 . S
C827 H831 0.930 . S
C828 C827 1.369 . S
C828 C837 1.429 . S
C829 C827 1.419 . S
C829 C830 1.363 . S
C829 H832 0.929 . S
C830 C829 1.363 . S
C830 C836 1.428 . S
H831 C827 0.930 . S
H832 C829 0.929 . S
S833 N834 1.613 . S
S833 N835 1.610 . S
N834 S833 1.613 . S
N834 C837 1.350 . S
N835 S833 1.610 . S
N835 C836 1.351 . S
C836 C830 1.428 . S
C836 N835 1.351 . S
C836 C837 1.434 . S
C837 C828 1.429 . S
C837 N834 1.350 . S
C837 C836 1.434 . S
C838 C839 1.369 . S
C838 C840 1.419 . S
C838 H842 0.930 . S
C839 C838 1.369 . S
C839 C848 1.429 . S
C840 C838 1.419 . S
C840 C841 1.363 . S
C840 H843 0.929 . S
C841 C840 1.363 . S
C841 C847 1.428 . S
H842 C838 0.930 . S
H843 C840 0.929 . S
S844 N845 1.613 . S
S844 N846 1.610 . S
N845 S844 1.613 . S
N845 C848 1.350 . S
N846 S844 1.610 . S
N846 C847 1.351 . S
C847 C841 1.428 . S
C847 N846 1.351 . S
C847 C848 1.434 . S
C848 C839 1.429 . S
C848 N845 1.350 . S
C848 C847 1.434 . S
C849 C850 1.369 . S
C849 C851 1.419 . S
C849 H853 0.930 . S
C850 C849 1.369 . S
C850 C859 1.429 . S
C851 C849 1.419 . S
C851 C852 1.363 . S
C851 H854 0.929 . S
C852 C851 1.363 . S
C852 C858 1.428 . S
H853 C849 0.930 . S
H854 C851 0.929 . S
S855 N856 1.613 . S
S855 N857 1.610 . S
N856 S855 1.613 . S
N856 C859 1.350 . S
N857 S855 1.610 . S
N857 C858 1.351 . S
C858 C852 1.428 . S
C858 N857 1.351 . S
C858 C859 1.434 . S
C859 C850 1.429 . S
C859 N856 1.350 . S
C859 C858 1.434 . S
C860 C861 1.369 . S
C860 C862 1.419 . S
C860 H864 0.930 . S
C861 C860 1.369 . S
C861 C870 1.429 . S
C862 C860 1.419 . S
C862 C863 1.363 . S
C862 H865 0.929 . S
C863 C862 1.363 . S
C863 C869 1.428 . S
H864 C860 0.930 . S
H865 C862 0.929 . S
S866 N867 1.613 . S
S866 N868 1.610 . S
N867 S866 1.613 . S
N867 C870 1.350 . S
N868 S866 1.610 . S
N868 C869 1.351 . S
C869 C863 1.428 . S
C869 N868 1.351 . S
C869 C870 1.434 . S
C870 C861 1.429 . S
C870 N867 1.350 . S
C870 C869 1.434 . S
C871 C872 1.369 . S
C871 C873 1.419 . S
C871 H875 0.930 . S
C872 C871 1.369 . S
C872 C881 1.429 . S
C873 C871 1.419 . S
C873 C874 1.363 . S
C873 H876 0.929 . S
C874 C873 1.363 . S
C874 C880 1.428 . S
H875 C871 0.930 . S
H876 C873 0.929 . S
S877 N878 1.613 . S
S877 N879 1.610 . S
N878 S877 1.613 . S
N878 C881 1.350 . S
N879 S877 1.610 . S
N879 C880 1.351 . S
C880 C874 1.428 . S
C880 N879 1.351 . S
C880 C881 1.434 . S
C881 C872 1.429 . S
C881 N878 1.350 . S
C881 C880 1.434 . S
C882 C883 1.369 . S
C882 C884 1.419 . S
C882 H886 0.930 . S
C883 C882 1.369 . S
C883 C892 1.429 . S
C884 C882 1.419 . S
C884 C885 1.363 . S
C884 H887 0.929 . S
C885 C884 1.363 . S
C885 C891 1.428 . S
H886 C882 0.930 . S
H887 C884 0.929 . S
S888 N889 1.613 . S
S888 N890 1.610 . S
N889 S888 1.613 . S
N889 C892 1.350 . S
N890 S888 1.610 . S
N890 C891 1.351 . S
C891 C885 1.428 . S
C891 N890 1.351 . S
C891 C892 1.434 . S
C892 C883 1.429 . S
C892 N889 1.350 . S
C892 C891 1.434 . S
C893 C894 1.369 . S
C893 C895 1.419 . S
C893 H897 0.930 . S
C894 C893 1.369 . S
C894 C903 1.429 . S
C895 C893 1.419 . S
C895 C896 1.363 . S
C895 H898 0.929 . S
C896 C895 1.363 . S
C896 C902 1.428 . S
H897 C893 0.930 . S
H898 C895 0.929 . S
S899 N900 1.613 . S
S899 N901 1.610 . S
N900 S899 1.613 . S
N900 C903 1.350 . S
N901 S899 1.610 . S
N901 C902 1.351 . S
C902 C896 1.428 . S
C902 N901 1.351 . S
C902 C903 1.434 . S
C903 C894 1.429 . S
C903 N900 1.350 . S
C903 C902 1.434 . S
C904 C905 1.369 . S
C904 C906 1.419 . S
C904 H908 0.930 . S
C905 C904 1.369 . S
C905 C914 1.429 . S
C906 C904 1.419 . S
C906 C907 1.363 . S
C906 H909 0.929 . S
C907 C906 1.363 . S
C907 C913 1.428 . S
H908 C904 0.930 . S
H909 C906 0.929 . S
S910 N911 1.613 . S
S910 N912 1.610 . S
N911 S910 1.613 . S
N911 C914 1.350 . S
N912 S910 1.610 . S
N912 C913 1.351 . S
C913 C907 1.428 . S
C913 N912 1.351 . S
C913 C914 1.434 . S
C914 C905 1.429 . S
C914 N911 1.350 . S
C914 C913 1.434 . S
C915 C916 1.369 . S
C915 C917 1.419 . S
C915 H919 0.930 . S
C916 C915 1.369 . S
C916 C925 1.429 . S
C917 C915 1.419 . S
C917 C918 1.363 . S
C917 H920 0.929 . S
C918 C917 1.363 . S
C918 C924 1.428 . S
H919 C915 0.930 . S
H920 C917 0.929 . S
S921 N922 1.613 . S
S921 N923 1.610 . S
N922 S921 1.613 . S
N922 C925 1.350 . S
N923 S921 1.610 . S
N923 C924 1.351 . S
C924 C918 1.428 . S
C924 N923 1.351 . S
C924 C925 1.434 . S
C925 C916 1.429 . S
C925 N922 1.350 . S
C925 C924 1.434 . S
C926 C927 1.369 . S
C926 C928 1.419 . S
C926 H930 0.930 . S
C927 C926 1.369 . S
C927 C936 1.429 . S
C928 C926 1.419 . S
C928 C929 1.363 . S
C928 H931 0.929 . S
C929 C928 1.363 . S
C929 C935 1.428 . S
H930 C926 0.930 . S
H931 C928 0.929 . S
S932 N933 1.613 . S
S932 N934 1.610 . S
N933 S932 1.613 . S
N933 C936 1.350 . S
N934 S932 1.610 . S
N934 C935 1.351 . S
C935 C929 1.428 . S
C935 N934 1.351 . S
C935 C936 1.434 . S
C936 C927 1.429 . S
C936 N933 1.350 . S
C936 C935 1.434 . S
C937 C938 1.369 . S
C937 C939 1.419 . S
C937 H941 0.930 . S
C938 C937 1.369 . S
C938 C947 1.429 . S
C939 C937 1.419 . S
C939 C940 1.363 . S
C939 H942 0.929 . S
C940 C939 1.363 . S
C940 C946 1.428 . S
H941 C937 0.930 . S
H942 C939 0.929 . S
S943 N944 1.613 . S
S943 N945 1.610 . S
N944 S943 1.613 . S
N944 C947 1.350 . S
N945 S943 1.610 . S
N945 C946 1.351 . S
C946 C940 1.428 . S
C946 N945 1.351 . S
C946 C947 1.434 . S
C947 C938 1.429 . S
C947 N944 1.350 . S
C947 C946 1.434 . S
C948 C949 1.369 . S
C948 C950 1.419 . S
C948 H952 0.930 . S
C949 C948 1.369 . S
C949 C958 1.429 . S
C950 C948 1.419 . S
C950 C951 1.363 . S
C950 H953 0.929 . S
C951 C950 1.363 . S
C951 C957 1.428 . S
H952 C948 0.930 . S
H953 C950 0.929 . S
S954 N955 1.613 . S
S954 N956 1.610 . S
N955 S954 1.613 . S
N955 C958 1.350 . S
N956 S954 1.610 . S
N956 C957 1.351 . S
C957 C951 1.428 . S
C957 N956 1.351 . S
C957 C958 1.434 . S
C958 C949 1.429 . S
C958 N955 1.350 . S
C958 C957 1.434 . S
C959 C960 1.369 . S
C959 C961 1.419 . S
C959 H963 0.930 . S
C960 C959 1.369 . S
C960 C969 1.429 . S
C961 C959 1.419 . S
C961 C962 1.363 . S
C961 H964 0.929 . S
C962 C961 1.363 . S
C962 C968 1.428 . S
H963 C959 0.930 . S
H964 C961 0.929 . S
S965 N966 1.613 1_565 S
S965 N967 1.610 1_565 S
N966 S965 1.613 1_545 S
N966 C969 1.350 . S
N967 S965 1.610 1_545 S
N967 C968 1.351 . S
C968 C962 1.428 . S
C968 N967 1.351 . S
C968 C969 1.434 . S
C969 C960 1.429 . S
C969 N966 1.350 . S
C969 C968 1.434 . S
C970 C971 1.369 . S
C970 C972 1.419 . S
C970 H974 0.930 . S
C971 C970 1.369 . S
C971 C980 1.429 . S
C972 C970 1.419 . S
C972 C973 1.363 . S
C972 H975 0.929 . S
C973 C972 1.363 . S
C973 C979 1.428 . S
H974 C970 0.930 . S
H975 C972 0.929 . S
S976 N977 1.613 . S
S976 N978 1.610 . S
N977 S976 1.613 . S
N977 C980 1.350 . S
N978 S976 1.610 . S
N978 C979 1.351 . S
C979 C973 1.428 . S
C979 N978 1.351 . S
C979 C980 1.434 . S
C980 C971 1.429 . S
C980 N977 1.350 . S
C980 C979 1.434 . S
C981 C982 1.369 . S
C981 C983 1.419 . S
C981 H985 0.930 . S
C982 C981 1.369 . S
C982 C991 1.429 . S
C983 C981 1.419 . S
C983 C984 1.363 . S
C983 H986 0.929 . S
C984 C983 1.363 . S
C984 C990 1.428 . S
H985 C981 0.930 . S
H986 C983 0.929 . S
S987 N988 1.613 . S
S987 N989 1.610 . S
N988 S987 1.613 . S
N988 C991 1.350 . S
N989 S987 1.610 . S
N989 C990 1.351 . S
C990 C984 1.428 . S
C990 N989 1.351 . S
C990 C991 1.434 . S
C991 C982 1.429 . S
C991 N988 1.350 . S
C991 C990 1.434 . S
C992 C993 1.369 . S
C992 C994 1.419 . S
C992 H996 0.930 . S
C993 C992 1.369 . S
C993 C1002 1.429 . S
C994 C992 1.419 . S
C994 C995 1.363 . S
C994 H997 0.929 . S
C995 C994 1.363 . S
C995 C1001 1.428 . S
H996 C992 0.930 . S
H997 C994 0.929 . S
S998 N999 1.613 . S
S998 N1000 1.610 1_554 S
N999 S998 1.613 . S
N999 C1002 1.350 1_554 S
N1000 S998 1.610 1_556 S
N1000 C1001 1.351 . S
C1001 C995 1.428 . S
C1001 N1000 1.351 . S
C1001 C1002 1.434 . S
C1002 C993 1.429 . S
C1002 N999 1.350 1_556 S
C1002 C1001 1.434 . S
C1003 C1004 1.369 . S
C1003 C1005 1.419 . S
C1003 H1007 0.930 . S
C1004 C1003 1.369 . S
C1004 C1013 1.429 . S
C1005 C1003 1.419 . S
C1005 C1006 1.363 . S
C1005 H1008 0.929 . S
C1006 C1005 1.363 . S
C1006 C1012 1.428 . S
H1007 C1003 0.930 . S
H1008 C1005 0.929 . S
S1009 N1010 1.613 . S
S1009 N1011 1.610 . S
N1010 S1009 1.613 . S
N1010 C1013 1.350 . S
N1011 S1009 1.610 . S
N1011 C1012 1.351 . S
C1012 C1006 1.428 . S
C1012 N1011 1.351 . S
C1012 C1013 1.434 . S
C1013 C1004 1.429 . S
C1013 N1010 1.350 . S
C1013 C1012 1.434 . S
C1014 C1015 1.369 . S
C1014 C1016 1.419 . S
C1014 H1018 0.930 . S
C1015 C1014 1.369 . S
C1015 C1024 1.429 . S
C1016 C1014 1.419 . S
C1016 C1017 1.363 . S
C1016 H1019 0.929 . S
C1017 C1016 1.363 . S
C1017 C1023 1.428 . S
H1018 C1014 0.930 . S
H1019 C1016 0.929 . S
S1020 N1021 1.613 . S
S1020 N1022 1.610 . S
N1021 S1020 1.613 . S
N1021 C1024 1.350 . S
N1022 S1020 1.610 . S
N1022 C1023 1.351 . S
C1023 C1017 1.428 . S
C1023 N1022 1.351 . S
C1023 C1024 1.434 . S
C1024 C1015 1.429 . S
C1024 N1021 1.350 . S
C1024 C1023 1.434 . S
C1025 C1026 1.369 . S
C1025 C1027 1.419 . S
C1025 H1029 0.930 . S
C1026 C1025 1.369 . S
C1026 C1035 1.429 . S
C1027 C1025 1.419 . S
C1027 C1028 1.363 . S
C1027 H1030 0.929 . S
C1028 C1027 1.363 . S
C1028 C1034 1.428 . S
H1029 C1025 0.930 . S
H1030 C1027 0.929 . S
S1031 N1032 1.613 . S
S1031 N1033 1.610 . S
N1032 S1031 1.613 . S
N1032 C1035 1.350 . S
N1033 S1031 1.610 . S
N1033 C1034 1.351 . S
C1034 C1028 1.428 . S
C1034 N1033 1.351 . S
C1034 C1035 1.434 . S
C1035 C1026 1.429 . S
C1035 N1032 1.350 . S
C1035 C1034 1.434 . S
C1036 C1037 1.369 . S
C1036 C1038 1.419 . S
C1036 H1040 0.930 . S
C1037 C1036 1.369 . S
C1037 C1046 1.429 . S
C1038 C1036 1.419 . S
C1038 C1039 1.363 . S
C1038 H1041 0.929 . S
C1039 C1038 1.363 . S
C1039 C1045 1.433 . S
H1040 C1036 0.930 . S
H1041 C1038 0.929 . S
S1042 N1043 1.613 1_556 S
S1042 N1044 1.610 . S
N1043 S1042 1.613 1_554 S
N1043 C1046 1.350 . S
N1044 S1042 1.610 . S
N1044 C1045 1.333 1_556 S
C1045 C1039 1.433 . S
C1045 N1044 1.333 1_554 S
C1045 C1046 1.448 . S
C1046 C1037 1.429 . S
C1046 N1043 1.350 . S
C1046 C1045 1.448 . S
C1047 C1048 1.369 . S
C1047 C1049 1.419 . S
C1047 H1051 0.930 . S
C1048 C1047 1.369 . S
C1048 C1057 1.429 . S
C1049 C1047 1.419 . S
C1049 C1050 1.363 . S
C1049 H1052 0.929 . S
C1050 C1049 1.363 . S
C1050 C1056 1.428 . S
H1051 C1047 0.930 . S
H1052 C1049 0.929 . S
S1053 N1054 1.613 . S
S1053 N1055 1.610 . S
N1054 S1053 1.613 . S
N1054 C1057 1.350 . S
N1055 S1053 1.610 . S
N1055 C1056 1.351 . S
C1056 C1050 1.428 . S
C1056 N1055 1.351 . S
C1056 C1057 1.434 . S
C1057 C1048 1.429 . S
C1057 N1054 1.350 . S
C1057 C1056 1.434 . S
C1058 C1059 1.369 . S
C1058 C1060 1.419 . S
C1058 H1062 0.930 . S
C1059 C1058 1.369 . S
C1059 C1068 1.429 . S
C1060 C1058 1.419 . S
C1060 C1061 1.363 . S
C1060 H1063 0.929 . S
C1061 C1060 1.363 . S
C1061 C1067 1.428 . S
H1062 C1058 0.930 . S
H1063 C1060 0.929 . S
S1064 N1065 1.613 . S
S1064 N1066 1.610 . S
N1065 S1064 1.613 . S
N1065 C1068 1.350 . S
N1066 S1064 1.610 . S
N1066 C1067 1.351 . S
C1067 C1061 1.428 . S
C1067 N1066 1.351 . S
C1067 C1068 1.434 . S
C1068 C1059 1.429 . S
C1068 N1065 1.350 . S
C1068 C1067 1.434 . S
C1069 C1070 1.369 . S
C1069 C1071 1.419 . S
C1069 H1073 0.930 . S
C1070 C1069 1.369 . S
C1070 C1079 1.429 . S
C1071 C1069 1.419 . S
C1071 C1072 1.363 . S
C1071 H1074 0.929 . S
C1072 C1071 1.363 . S
C1072 C1078 1.428 . S
H1073 C1069 0.930 . S
H1074 C1071 0.929 . S
S1075 N1076 1.613 . S
S1075 N1077 1.610 . S
N1076 S1075 1.613 . S
N1076 C1079 1.350 . S
N1077 S1075 1.610 . S
N1077 C1078 1.351 . S
C1078 C1072 1.428 . S
C1078 N1077 1.351 . S
C1078 C1079 1.434 . S
C1079 C1070 1.429 . S
C1079 N1076 1.350 . S
C1079 C1078 1.434 . S
C1080 C1081 1.369 . S
C1080 C1082 1.419 . S
C1080 H1084 0.930 . S
C1081 C1080 1.369 . S
C1081 C1090 1.429 . S
C1082 C1080 1.419 . S
C1082 C1083 1.363 . S
C1082 H1085 0.929 . S
C1083 C1082 1.363 . S
C1083 C1089 1.428 . S
H1084 C1080 0.930 . S
H1085 C1082 0.929 . S
S1086 N1087 1.613 . S
S1086 N1088 1.610 . S
N1087 S1086 1.613 . S
N1087 C1090 1.350 . S
N1088 S1086 1.610 . S
N1088 C1089 1.351 . S
C1089 C1083 1.428 . S
C1089 N1088 1.351 . S
C1089 C1090 1.434 . S
C1090 C1081 1.429 . S
C1090 N1087 1.350 . S
C1090 C1089 1.434 . S
C1091 C1092 1.369 . S
C1091 C1093 1.419 . S
C1091 H1095 0.930 . S
C1092 C1091 1.369 . S
C1092 C1101 1.429 . S
C1093 C1091 1.419 . S
C1093 C1094 1.363 . S
C1093 H1096 0.929 . S
C1094 C1093 1.363 . S
C1094 C1100 1.428 . S
H1095 C1091 0.930 . S
H1096 C1093 0.929 . S
S1097 N1098 1.613 . S
S1097 N1099 1.610 1_565 S
N1098 S1097 1.613 . S
N1098 C1101 1.350 . S
N1099 S1097 1.610 1_545 S
N1099 C1100 1.351 1_545 S
C1100 C1094 1.428 . S
C1100 N1099 1.351 1_565 S
C1100 C1101 1.434 . S
C1101 C1092 1.429 . S
C1101 N1098 1.350 . S
C1101 C1100 1.434 . S
C1102 C1103 1.369 . S
C1102 C1104 1.419 . S
C1102 H1106 0.930 . S
C1103 C1102 1.369 . S
C1103 C1112 1.429 . S
C1104 C1102 1.419 . S
C1104 C1105 1.363 . S
C1104 H1107 0.929 1_556 S
C1105 C1104 1.363 . S
C1105 C1111 1.428 . S
H1106 C1102 0.930 . S
H1107 C1104 0.929 1_554 S
S1108 N1109 1.613 . S
S1108 N1110 1.610 . S
N1109 S1108 1.613 . S
N1109 C1112 1.350 . S
N1110 S1108 1.610 . S
N1110 C1111 1.351 . S
C1111 C1105 1.428 . S
C1111 N1110 1.351 . S
C1111 C1112 1.434 . S
C1112 C1103 1.429 . S
C1112 N1109 1.350 . S
C1112 C1111 1.434 . S
C1113 C1114 1.369 . S
C1113 C1115 1.419 . S
C1113 H1117 0.930 . S
C1114 C1113 1.369 . S
C1114 C1123 1.429 . S
C1115 C1113 1.419 . S
C1115 C1116 1.363 . S
C1115 H1118 0.929 . S
C1116 C1115 1.363 . S
C1116 C1122 1.428 . S
H1117 C1113 0.930 . S
H1118 C1115 0.929 . S
S1119 N1120 1.613 . S
S1119 N1121 1.610 1_565 S
N1120 S1119 1.613 . S
N1120 C1123 1.350 1_565 S
N1121 S1119 1.610 1_545 S
N1121 C1122 1.351 . S
C1122 C1116 1.428 . S
C1122 N1121 1.351 . S
C1122 C1123 1.434 . S
C1123 C1114 1.429 . S
C1123 N1120 1.350 1_545 S
C1123 C1122 1.434 . S
C1124 C1125 1.369 . S
C1124 C1126 1.419 . S
C1124 H1128 0.930 . S
C1125 C1124 1.369 . S
C1125 C1134 1.429 . S
C1126 C1124 1.419 . S
C1126 C1127 1.363 . S
C1126 H1129 0.929 . S
C1127 C1126 1.363 . S
C1127 C1133 1.428 . S
H1128 C1124 0.930 . S
H1129 C1126 0.929 . S
S1130 N1131 1.613 . S
S1130 N1132 1.610 . S
N1131 S1130 1.613 . S
N1131 C1134 1.350 . S
N1132 S1130 1.610 . S
N1132 C1133 1.351 . S
C1133 C1127 1.428 . S
C1133 N1132 1.351 . S
C1133 C1134 1.434 . S
C1134 C1125 1.429 . S
C1134 N1131 1.350 . S
C1134 C1133 1.434 . S
C1135 C1136 1.369 . S
C1135 C1137 1.419 . S
C1135 H1139 0.930 . S
C1136 C1135 1.369 . S
C1136 C1145 1.429 . S
C1137 C1135 1.419 . S
C1137 C1138 1.363 . S
C1137 H1140 0.929 1_545 S
C1138 C1137 1.363 . S
C1138 C1144 1.428 . S
H1139 C1135 0.930 . S
H1140 C1137 0.929 1_565 S
S1141 N1142 1.613 . S
S1141 N1143 1.610 . S
N1142 S1141 1.613 . S
N1142 C1145 1.350 . S
N1143 S1141 1.610 . S
N1143 C1144 1.351 . S
C1144 C1138 1.428 . S
C1144 N1143 1.351 . S
C1144 C1145 1.434 . S
C1145 C1136 1.429 . S
C1145 N1142 1.350 . S
C1145 C1144 1.434 . S
C1146 C1147 1.369 . S
C1146 C1148 1.419 . S
C1146 H1150 0.930 . S
C1147 C1146 1.369 . S
C1147 C1156 1.429 . S
C1148 C1146 1.419 . S
C1148 C1149 1.363 . S
C1148 H1151 0.929 . S
C1149 C1148 1.363 . S
C1149 C1155 1.428 . S
H1150 C1146 0.930 . S
H1151 C1148 0.929 . S
S1152 N1153 1.613 1_556 S
S1152 N1154 1.610 . S
N1153 S1152 1.613 1_554 S
N1153 C1156 1.350 . S
N1154 S1152 1.610 . S
N1154 C1155 1.351 1_556 S
C1155 C1149 1.428 . S
C1155 N1154 1.351 1_554 S
C1155 C1156 1.434 . S
C1156 C1147 1.429 . S
C1156 N1153 1.350 . S
C1156 C1155 1.434 . S
C1157 C1158 1.369 . S
C1157 C1159 1.419 . S
C1157 H1161 0.930 . S
C1158 C1157 1.369 . S
C1158 C1167 1.429 . S
C1159 C1157 1.419 . S
C1159 C1160 1.363 . S
C1159 H1162 0.929 1_565 S
C1160 C1159 1.363 . S
C1160 C1166 1.428 . S
H1161 C1157 0.930 . S
H1162 C1159 0.929 1_545 S
S1163 N1164 1.613 . S
S1163 N1165 1.610 . S
N1164 S1163 1.613 . S
N1164 C1167 1.350 . S
N1165 S1163 1.610 . S
N1165 C1166 1.351 . S
C1166 C1160 1.428 . S
C1166 N1165 1.351 . S
C1166 C1167 1.434 . S
C1167 C1158 1.429 . S
C1167 N1164 1.350 . S
C1167 C1166 1.434 . S
C641 C9 3.019 . S
C643 C409 3.017 . S
C652 C49 3.020 . S
C654 C449 3.017 . S
C663 C89 3.018 . S
C665 C329 3.017 . S
C674 C369 3.017 . S
C676 C129 3.019 . S
C685 C178 3.017 . S
C687 C578 3.020 . S
C696 C618 3.019 . S
C698 C218 3.018 . S
C707 C498 3.017 . S
C709 C258 3.018 . S
C718 C298 3.020 . S
C720 C538 3.017 . S
C729 C15 1.439 1_556 S
C731 C166 1.446 1_554 S
C740 C55 1.444 . S
C742 C526 1.443 . S
C751 C95 1.446 . S
C753 C246 1.440 . S
C762 C135 1.450 . S
C764 C606 1.439 . S
C773 C206 1.451 . S
C775 C375 1.437 . S
C784 C455 1.435 . S
C786 C286 1.449 . S
C795 C486 1.440 . S
C797 C335 1.446 . S
C806 C415 1.445 1_556 S
C808 C566 1.442 1_554 S
C817 C6 1.612 . S
C819 C289 1.880 . S
C828 C46 1.600 . S
C830 C489 1.888 . S
C839 C86 1.599 . S
C841 C209 1.888 . S
C850 C126 1.602 . S
C852 C569 1.887 . S
C861 C138 1.889 . S
C863 C175 1.601 . S
C872 C215 1.607 . S
C874 C338 1.886 . S
C883 C255 1.608 . S
C885 C58 1.881 . S
C894 C418 1.878 . S
C896 C295 1.611 . S
C905 C326 1.614 . S
C907 C609 1.881 . S
C916 C169 1.889 . S
C918 C366 1.600 . S
C927 C529 1.888 . S
C929 C406 1.600 . S
C938 C249 1.889 . S
C940 C446 1.603 . S
C949 C495 1.614 . S
C951 C458 1.880 . S
C960 C535 1.598 . S
C962 C18 1.887 . S
C971 C378 1.889 . S
C973 C575 1.602 . S
C982 C615 1.613 . S
C984 C98 1.880 . S
C993 C19 4.041 1_556 S
C995 C370 4.110 . S
C1004 C410 4.110 . S
C1006 C59 4.042 . S
C1015 C99 4.047 . S
C1017 C450 4.106 . S
C1026 C330 4.106 . S
C1028 C139 4.045 . S
C1037 C539 4.110 . S
C1039 C170 4.042 1_554 S
C1048 C579 4.106 . S
C1050 C210 4.046 . S
C1059 C619 4.107 . S
C1061 C250 4.045 . S
C1070 C499 4.109 . S
C1072 C290 4.044 . S
C1081 C50 4.106 . S
C1083 C339 4.046 . S
C1092 C90 4.109 . S
C1094 C379 4.044 1_565 S
C1103 C130 4.107 . S
C1105 C419 4.045 1_556 S
C1114 C459 4.046 1_545 S
C1116 C10 4.107 . S
C1125 C219 4.110 . S
C1127 C490 4.042 . S
C1136 C259 4.109 . S
C1138 C530 4.043 1_545 S
C1147 C299 4.110 . S
C1149 C570 4.043 1_554 S
C1158 C179 4.110 . S
C1160 C610 4.042 1_565 S
