# Generated by pormake.
# Topology sxb, (6)-cn, num edge types: 1
# Building blocks:
#     Node 0, Type 0, BuildingBlock: KUMBUR_clean_sbu_1, # of connection points: 6
#     Node 1, Type 0, BuildingBlock: KUMBUR_clean_sbu_1, # of connection points: 6
#     Node 2, Type 0, BuildingBlock: KUMBUR_clean_sbu_1, # of connection points: 6
#     Node 3, Type 0, BuildingBlock: KUMBUR_clean_sbu_1, # of connection points: 6
#     Edge 4, Type (0, 0), BuildingBlock: UVAHIK_clean_linker_0, # of connection points: 2
#     Edge 5, Type (0, 0), BuildingBlock: UVAHIK_clean_linker_0, # of connection points: 2
#     Edge 6, Type (0, 0), BuildingBlock: UVAHIK_clean_linker_0, # of connection points: 2
#     Edge 7, Type (0, 0), BuildingBlock: UVAHIK_clean_linker_0, # of connection points: 2
#     Edge 8, Type (0, 0), BuildingBlock: UVAHIK_clean_linker_0, # of connection points: 2
#     Edge 9, Type (0, 0), BuildingBlock: UVAHIK_clean_linker_0, # of connection points: 2
#     Edge 10, Type (0, 0), BuildingBlock: UVAHIK_clean_linker_0, # of connection points: 2
#     Edge 11, Type (0, 0), BuildingBlock: UVAHIK_clean_linker_0, # of connection points: 2
#     Edge 12, Type (0, 0), BuildingBlock: UVAHIK_clean_linker_0, # of connection points: 2
#     Edge 13, Type (0, 0), BuildingBlock: UVAHIK_clean_linker_0, # of connection points: 2
#     Edge 14, Type (0, 0), BuildingBlock: UVAHIK_clean_linker_0, # of connection points: 2
#     Edge 15, Type (0, 0), BuildingBlock: UVAHIK_clean_linker_0, # of connection points: 2
# Relax obj value: 0.009
# Max RMSD: 0.047
# Mean RMSD: 0.047
data_MOF--net-sxb--node1-KUMBUR_clean_sbu_1--edge1-UVAHIK_clean_linker_0
_symmetry_space_group_name_H-M    P1
_symmetry_Int_Tables_number       1
_symmetry_cell_setting            triclinic
loop_
_symmetry_equiv_pos_as_xyz
'x, y, z'
_cell_length_a     19.58927
_cell_length_b     55.422408
_cell_length_c     38.575792
_cell_angle_alpha  115.4606
_cell_angle_beta   89.95776
_cell_angle_gamma 89.968801
loop_
_atom_site_label
_atom_site_type_symbol
_atom_site_fract_x
_atom_site_fract_y
_atom_site_fract_z
_atom_type_partial_charge
Tb0 Tb 1.00746 0.9663 0.97953 0.0
C1 C 0.12832 0.08193 0.04321 0.0
N2 N 0.08316 0.06928 0.05654 0.0
C3 C 0.13926 0.08754 0.11774 0.0
C4 C 0.18235 0.09719 0.06631 0.0
C5 C 0.0866 0.07253 0.09367 0.0
C6 C 0.18764 0.09977 0.10394 0.0
C7 C 0.16701 0.0914 0.99068 0.0
C8 C 0.12081 0.07893 0.00587 0.0
C9 C 0.22139 0.10648 0.01344 0.0
C10 C 0.22903 0.10937 0.05117 0.0
Tb11 Tb 0.99717 0.04671 0.01551 0.0
N12 N 0.0679 0.064 0.98461 0.0
C13 C 0.15684 0.0885 0.9532 0.0
C14 C 0.05549 0.06253 0.9489 0.0
C15 C 0.10042 0.07422 0.93238 0.0
H16 H 0.04833 0.064 0.10511 0.0
H17 H 0.09075 0.07263 0.90385 0.0
H18 H 1.0095 0.94515 0.88279 0.0
H19 H 0.84124 0.93925 0.06809 0.0
H20 H 1.00969 0.0532 0.93352 0.0
H21 H 0.19126 0.09772 0.94044 0.0
H22 H 0.94453 0.95893 0.05329 0.0
H23 H 0.14211 0.08988 0.14704 0.0
H24 H 0.25756 0.11613 0.00223 0.0
H25 H 0.27101 0.12115 0.06844 0.0
H26 H 0.9278 0.92576 0.83005 0.0
H27 H 0.22834 0.1114 0.12267 0.0
H28 H 0.75178 0.91909 0.01862 0.0
N29 N 0.93923 0.94653 0.92611 0.0
C30 C 0.87878 0.93685 0.9323 0.0
C31 C 0.91276 0.92927 0.85884 0.0
C32 C 0.83164 0.92417 0.90228 0.0
C33 C 0.95846 0.94113 0.88936 0.0
C34 C 0.84853 0.92122 0.86545 0.0
N35 N 0.91232 0.9505 0.99665 0.0
C36 C 0.90542 0.95022 0.03173 0.0
C37 C 0.80602 0.92693 0.97557 0.0
C38 C 0.86581 0.93816 0.96841 0.0
C39 C 0.79695 0.9276 0.01201 0.0
C40 C 0.84727 0.93903 0.04007 0.0
H41 H 0.81369 0.91165 0.84162 0.0
H42 H 0.73343 0.90436 0.88697 0.0
H43 H 0.71108 0.90675 0.95116 0.0
O44 O 0.05795 0.9458 0.0071 0.0
O45 O 0.91174 0.98864 0.00475 0.0
O46 O 0.91195 0.02116 0.98363 0.0
O47 O 0.03892 0.92649 0.9467 0.0
O48 O 0.03761 0.99312 0.03817 0.0
O49 O 0.97011 0.03103 0.05756 0.0
O50 O 0.9538 0.07894 0.00823 0.0
O51 O 0.09888 0.02972 0.01834 0.0
O52 O 0.10423 0.9847 0.97458 0.0
O53 O 0.9338 0.07386 0.05929 0.0
O54 O 0.97632 0.01933 0.95545 0.0
O55 O 0.04333 0.98178 0.93872 0.0
C56 C 0.87836 1.00524 0.99469 0.0
C57 C 0.13391 0.91141 0.96975 0.0
C58 C 0.20787 0.87627 0.97154 0.0
C59 C 0.26321 0.88763 0.96053 0.0
C60 C 0.18961 0.92212 0.9583 0.0
C61 C 0.25397 0.91032 0.95391 0.0
C62 C 0.14308 0.88842 0.97611 0.0
C63 C 1.0017 0.01241 0.06438 0.0
C64 C 0.06612 0.92409 0.97574 0.0
C65 C 0.77045 0.91396 0.90962 0.0
C66 C 0.75779 0.91523 0.94615 0.0
C67 C 0.13318 0.00777 0.99678 0.0
C68 C 0.93748 0.11848 0.06432 0.0
C69 C 0.92267 0.16425 0.07067 0.0
C70 C 0.96268 0.17357 0.1042 0.0
C71 C 0.97688 0.12845 0.09793 0.0
C72 C 0.91012 0.13652 0.05094 0.0
C73 C 0.98937 0.15581 0.11764 0.0
C74 C 1.01737 1.00103 0.93135 0.0
C75 C 0.92622 0.0894 0.04202 0.0
H76 H 0.31352 0.8787 0.95639 0.0
H77 H 0.18331 0.93958 0.95284 0.0
H78 H 0.29687 0.91874 0.9452 0.0
H79 H 0.09995 0.88023 0.98509 0.0
H80 H 0.97265 0.19471 0.12043 0.0
H81 H 0.99815 0.11519 0.10903 0.0
H82 H 0.88024 0.12887 0.02476 0.0
H83 H 1.01986 0.16331 0.14354 0.0
Tb84 Tb 0.0367 0.04805 0.5174 0.0
C85 C 0.15611 0.93887 0.43142 0.0
N86 N 0.09508 0.94835 0.42565 0.0
C87 C 0.12048 0.93144 0.35827 0.0
C88 C 0.20298 0.92643 0.40111 0.0
C89 C 0.07511 0.94307 0.38907 0.0
C90 C 0.18522 0.92354 0.36443 0.0
C91 C 0.23007 0.92881 0.47402 0.0
C92 C 0.16982 0.94003 0.46733 0.0
C93 C 0.27813 0.91741 0.44436 0.0
C94 C 0.26473 0.91632 0.40801 0.0
Tb95 Tb 0.02724 0.96772 0.47935 0.0
N96 N 0.12329 0.95197 0.49574 0.0
C97 C 0.2396 0.92908 0.51019 0.0
C98 C 0.13055 0.95121 0.53049 0.0
C99 C 0.18919 0.94003 0.53838 0.0
H100 H 0.02376 0.94707 0.38291 0.0
H101 H 0.19553 0.9399 0.56617 0.0
H102 H 0.97486 0.06656 0.60479 0.0
H103 H 0.96688 0.07524 0.40306 0.0
H104 H 0.09137 0.95956 0.55216 0.0
H105 H 0.28513 0.92056 0.51643 0.0
H106 H 0.04252 0.05715 0.43716 0.0
H107 H 0.10483 0.928 0.32962 0.0
H108 H 0.32519 0.90895 0.44901 0.0
H109 H 0.30155 0.9069 0.38514 0.0
H110 H 0.87405 0.0911 0.64193 0.0
H111 H 0.2198 0.91414 0.34038 0.0
H112 H 0.85789 0.09694 0.43277 0.0
N113 N 0.94566 0.07018 0.55414 0.0
C114 C 0.902 0.08153 0.53809 0.0
C115 C 0.881 0.08832 0.61261 0.0
C116 C 0.84403 0.09575 0.55814 0.0
C117 C 0.93781 0.07433 0.59149 0.0
C118 C 0.83344 0.0988 0.59572 0.0
N119 N 0.97351 0.06545 0.48361 0.0
C120 C 0.99348 0.06519 0.44949 0.0
C121 C 0.87236 0.09035 0.48369 0.0
C122 C 0.91596 0.07874 0.50138 0.0
C123 C 0.89008 0.08835 0.4474 0.0
C124 C 0.95142 0.07603 0.43048 0.0
H125 H 0.78951 0.10962 0.61215 0.0
H126 H 0.75409 0.11752 0.55503 0.0
H127 H 0.77894 0.11285 0.48983 0.0
O128 O 0.07427 0.08458 0.51939 0.0
O129 O 0.93656 0.0303 0.5213 0.0
O130 O 0.93109 0.98645 0.47413 0.0
O131 O 0.1044 0.07074 0.56204 0.0
O132 O 0.05975 0.02145 0.45719 0.0
O133 O 0.99204 0.98404 0.43934 0.0
O134 O 0.97712 0.94671 0.50627 0.0
O135 O 0.122 0.99055 0.50565 0.0
O136 O 0.12278 0.02333 0.48496 0.0
O137 O 0.99582 0.92798 0.44583 0.0
O138 O 0.99553 0.99297 0.53832 0.0
O139 O 0.05945 0.0319 0.55945 0.0
C140 C 0.90192 0.00914 0.49761 0.0
C141 C 0.15324 0.11335 0.56941 0.0
C142 C 0.20855 0.15396 0.57204 0.0
C143 C 0.2376 0.15804 0.6075 0.0
C144 C 0.18351 0.11806 0.60473 0.0
C145 C 0.22507 0.14027 0.6236 0.0
C146 C 0.16549 0.13156 0.55322 0.0
C147 C 1.01926 1.0033 0.43245 0.0
C148 C 0.11001 0.08924 0.5499 0.0
C149 C 0.79924 0.10666 0.54022 0.0
C150 C 0.81336 0.10397 0.50307 0.0
C151 C 0.15598 0.00702 0.49551 0.0
C152 C 0.9014 0.91239 0.46882 0.0
C153 C 0.82812 0.87706 0.47063 0.0
C154 C 0.77229 0.88861 0.46033 0.0
C155 C 0.84511 0.92335 0.45828 0.0
C156 C 0.89285 0.88919 0.47477 0.0
C157 C 0.78089 0.91152 0.45417 0.0
C158 C 0.02876 0.01274 0.56531 0.0
C159 C 0.96903 0.92519 0.47469 0.0
H160 H 0.26967 0.17523 0.62312 0.0
H161 H 0.17498 0.10456 0.61792 0.0
H162 H 0.2478 0.14375 0.65092 0.0
H163 H 0.14289 0.12804 0.52583 0.0
H164 H 0.72203 0.87971 0.45645 0.0
H165 H 0.85082 0.94105 0.45335 0.0
H166 H 0.93639 0.88088 0.48322 0.0
H167 H 0.73755 0.92012 0.44611 0.0
Tb168 Tb 0.52462 0.46607 0.97161 0.0
C169 C 0.63698 0.58233 0.07808 0.0
N170 N 0.57522 0.57158 0.0794 0.0
C171 C 0.57907 0.59202 0.14823 0.0
C172 C 0.67281 0.59812 0.11196 0.0
C173 C 0.54536 0.57656 0.11382 0.0
C174 C 0.6432 0.60276 0.14732 0.0
C175 C 0.72862 0.58788 0.03975 0.0
C176 C 0.66456 0.57729 0.04248 0.0
C177 C 0.76463 0.60361 0.07343 0.0
C178 C 0.73682 0.6087 0.10944 0.0
Tb179 Tb 0.5258 0.54679 0.02134 0.0
N180 N 0.62944 0.56109 0.01046 0.0
C181 C 0.75462 0.58219 0.00324 0.0
C182 C 0.65306 0.55649 0.97488 0.0
C183 C 0.71638 0.56662 0.97069 0.0
H184 H 0.49476 0.56921 0.11482 0.0
H185 H 0.73545 0.56255 0.94237 0.0
H186 H 0.49555 0.45052 0.87982 0.0
H187 H 0.38138 0.44626 0.07689 0.0
H188 H 0.62334 0.54517 0.94968 0.0
H189 H 0.80373 0.58992 -0.00012 0.0
H190 H 0.48248 0.45909 0.05126 0.0
H191 H 0.55529 0.59585 0.17544 0.0
H192 H 0.81405 0.61189 0.07194 0.0
H193 H 0.7652 0.62086 0.13516 0.0
H194 H 0.40353 0.42952 0.83279 0.0
H195 H 0.66909 0.61479 0.17403 0.0
H196 H 0.27951 0.4286 0.0359 0.0
N197 N 0.44295 0.44717 0.92573 0.0
C198 C 0.38678 0.4378 0.93671 0.0
C199 C 0.39799 0.43189 0.862 0.0
C200 C 0.33304 0.42558 0.9108 0.0
C201 C 0.44976 0.44406 0.88882 0.0
C202 C 0.33925 0.42269 0.87305 0.0
N203 N 0.43526 0.4536 -0.00124 0.0
C204 C 0.43683 0.4538 0.03426 0.0
C205 C 0.3243 0.43255 0.98728 0.0
C206 C 0.3823 0.44156 0.97461 0.0
C207 C 0.32306 0.43529 0.02503 0.0
C208 C 0.38019 0.44547 0.04837 0.0
H209 H 0.29908 0.4134 0.85226 0.0
H210 H 0.2326 0.40778 0.90414 0.0
H211 H 0.22512 0.41369 0.97101 0.0
O212 O 0.56855 0.43611 0.98586 0.0
O213 O 0.43263 0.48856 0.96856 0.0
O214 O 0.43 0.52726 0.02472 0.0
O215 O 0.55995 0.43073 0.92684 0.0
O216 O 0.55261 0.48799 0.03267 0.0
O217 O 0.48815 0.52669 0.05522 0.0
O218 O 0.48989 0.56906 0.99252 0.0
O219 O 0.6235 0.52651 0.02111 0.0
O220 O 0.62345 0.48427 0.97009 0.0
O221 O 0.48134 0.5845 0.05375 0.0
O222 O 0.50612 0.525 0.95969 0.0
O223 O 0.56311 0.48441 0.93534 0.0
C224 C 0.39855 0.50751 0.99653 0.0
C225 C 0.61103 0.39354 0.93493 0.0
C226 C 0.65765 0.35535 0.94339 0.0
C227 C 0.66879 0.34204 0.90367 0.0
C228 C 0.62311 0.37963 0.89522 0.0
C229 C 0.65181 0.35415 0.87983 0.0
C230 C 0.62889 0.38128 0.95917 0.0
C231 C 0.52154 0.50805 0.06074 0.0
C232 C 0.57911 0.42046 0.94978 0.0
C233 C 0.27463 0.41709 0.92355 0.0
C234 C 0.27024 0.42058 0.96169 0.0
C235 C 0.65536 0.50507 0.99618 0.0
C236 C 0.39854 0.59862 0.02186 0.0
C237 C 0.32483 0.63194 0.01452 0.0
C238 C 0.26752 0.61789 0.01828 0.0
C239 C 0.34063 0.58504 0.02536 0.0
C240 C 0.39054 0.62203 0.01639 0.0
C241 C 0.27552 0.59463 0.02355 0.0
C242 C 0.53789 0.50526 0.93172 0.0
C243 C 0.46752 0.5886 0.02377 0.0
H244 H 0.69091 0.32218 0.89109 0.0
H245 H 0.61023 0.38841 0.87583 0.0
H246 H 0.66076 0.3437 0.84923 0.0
H247 H 0.61999 0.39161 0.98983 0.0
H248 H 0.21629 0.62506 0.01775 0.0
H249 H 0.34589 0.56714 0.0297 0.0
H250 H 0.43552 0.63227 0.01317 0.0
H251 H 0.23102 0.58407 0.02646 0.0
Tb252 Tb 0.51412 0.54643 0.52011 0.0
C253 C 0.65289 0.43683 0.44151 0.0
N254 N 0.59852 0.44611 0.42894 0.0
C255 C 0.64863 0.43018 0.36626 0.0
C256 C 0.70827 0.42432 0.417 0.0
C257 C 0.59511 0.44265 0.39174 0.0
C258 C 0.70558 0.42105 0.37896 0.0
C259 C 0.70963 0.43185 0.49385 0.0
C260 C 0.65376 0.4409 0.4796 0.0
C261 C 0.76544 0.41967 0.46971 0.0
C262 C 0.76474 0.41591 0.43138 0.0
Tb263 Tb 0.51376 0.46556 0.47272 0.0
N264 N 0.59909 0.45303 0.50228 0.0
C265 C 0.7069 0.43465 0.53162 0.0
C266 C 0.59348 0.45316 0.53765 0.0
C267 C 0.64791 0.44485 0.55333 0.0
H268 H 0.55084 0.44922 0.38157 0.0
H269 H 0.64356 0.44564 0.58178 0.0
H270 H 0.54515 0.57002 0.61372 0.0
H271 H 0.30503 0.56121 0.44007 0.0
H272 H 0.54629 0.45847 0.55332 0.0
H273 H 0.7487 0.42793 0.54368 0.0
H274 H 0.4167 0.54368 0.44791 0.0
H275 H 0.64587 0.42756 0.33683 0.0
H276 H 0.80899 0.41277 0.48027 0.0
H277 H 0.80802 0.4064 0.41307 0.0
H278 H 0.48494 0.59767 0.67412 0.0
H279 H 0.74712 0.41154 0.35921 0.0
H280 H 0.2372 0.58962 0.49732 0.0
N281 N 0.46492 0.57205 0.57798 0.0
C282 C 0.40341 0.58289 0.57635 0.0
C283 C 0.4612 0.59349 0.6468 0.0
C284 C 0.36779 0.59924 0.61008 0.0
C285 C 0.49472 0.57746 0.61253 0.0
C286 C 0.39734 0.60435 0.6456 0.0
N287 N 0.41076 0.56066 0.50877 0.0
C288 C 0.38717 0.55552 0.473 0.0
C289 C 0.31209 0.58806 0.53756 0.0
C290 C 0.37589 0.57739 0.5406 0.0
C291 C 0.28612 0.58186 0.50091 0.0
C292 C 0.32411 0.5657 0.46851 0.0
H293 H 0.3716 0.61682 0.6722 0.0
H294 H 0.27585 0.62252 0.63285 0.0
H295 H 0.22709 0.61271 0.56938 0.0
O296 O 0.55001 0.56805 0.49029 0.0
O297 O 0.41589 0.52664 0.5204 0.0
O298 O 0.41603 0.48411 0.47015 0.0
O299 O 0.55925 0.58413 0.55152 0.0
O300 O 0.53468 0.52377 0.45867 0.0
O301 O 0.4776 0.48324 0.43515 0.0
O302 O 0.46564 0.43598 0.48658 0.0
O303 O 0.60661 0.48739 0.46899 0.0
O304 O 0.60942 0.52684 0.52416 0.0
O305 O 0.47921 0.43039 0.42775 0.0
O306 O 0.48518 0.48861 0.53353 0.0
O307 O 0.55081 0.52694 0.555 0.0
C308 C 0.38403 0.50508 0.49588 0.0
C309 C 0.64124 0.59788 0.51868 0.0
C310 C 0.71411 0.63141 0.51124 0.0
C311 C 0.77176 0.6172 0.51427 0.0
C312 C 0.6995 0.58414 0.52132 0.0
C313 C 0.76435 0.59377 0.51914 0.0
C314 C 0.64863 0.62146 0.51356 0.0
C315 C 0.50312 0.50384 0.43099 0.0
C316 C 0.57252 0.58785 0.52116 0.0
C317 C 0.30406 0.60992 0.60725 0.0
C318 C 0.27631 0.60435 0.57109 0.0
C319 C 0.64072 0.50664 0.49651 0.0
C320 C 0.42185 0.39397 0.43459 0.0
C321 C 0.36978 0.35578 0.44111 0.0
C322 C 0.35146 0.34503 0.40214 0.0
C323 C 0.40282 0.38243 0.39565 0.0
C324 C 0.40573 0.38034 0.45735 0.0
C325 C 0.36809 0.3582 0.37966 0.0
C326 C 0.51687 0.50869 0.56118 0.0
C327 C 0.4563 0.42044 0.45036 0.0
H328 H 0.82286 0.62438 0.51345 0.0
H329 H 0.69473 0.56606 0.52527 0.0
H330 H 0.80914 0.5831 0.52144 0.0
H331 H 0.60336 0.63181 0.51097 0.0
H332 H 0.32463 0.32614 0.38885 0.0
H333 H 0.41416 0.39229 0.3774 0.0
H334 H 0.4199 0.38891 0.48741 0.0
H335 H 0.35372 0.34962 0.34967 0.0
C336 C 0.35883 0.67904 0.02707 0.0
C337 C 0.31544 0.65689 0.009 0.0
C338 C 0.34798 0.70273 0.02304 0.0
C339 C 0.25671 0.73001 0.96249 0.0
H340 H 0.28628 0.79812 0.05 0.0
C341 C 0.17126 0.83044 0.96314 0.0
C342 C 0.21802 0.85172 0.97781 0.0
C343 C 0.18272 0.80689 0.96742 0.0
C344 C 0.27829 0.77927 0.02518 0.0
H345 H 0.22754 0.64234 0.97149 0.0
H346 H 0.20749 0.68364 0.96547 0.0
H347 H 0.30816 0.75673 0.05593 0.0
H348 H 0.31253 0.86513 0.00954 0.0
H349 H 0.33247 0.82413 0.017 0.0
H350 H 0.22603 0.75264 0.93194 0.0
C351 C 0.25053 0.6827 0.98245 0.0
C352 C 0.29109 0.75547 0.02852 0.0
C353 C 0.26152 0.65903 0.98635 0.0
C354 C 0.27579 0.84905 0.99755 0.0
C355 C 0.28693 0.82561 0.00213 0.0
C356 C 0.24349 0.75381 0.95925 0.0
C357 C 0.29335 0.70499 0.00087 0.0
C358 C 0.28053 0.73045 0.99721 0.0
C359 C 0.24089 0.80411 0.98681 0.0
C360 C 0.25414 0.77876 0.99053 0.0
H361 H 0.40052 0.6783 0.045 0.0
H362 H 0.38271 0.71926 0.03726 0.0
H363 H 0.24909 0.71124 0.9375 0.0
H364 H 0.12649 0.83174 0.94757 0.0
H365 H 0.14583 0.79085 0.95561 0.0
C366 C 0.63536 0.32054 0.96681 0.0
C367 C 0.67678 0.34128 0.96708 0.0
C368 C 0.65975 0.30288 0.98125 0.0
C369 C 0.82287 0.27531 0.9965 0.0
H370 H 0.71078 0.24497 0.05064 0.0
C371 C 0.93448 0.20514 0.05826 0.0
C372 C 0.89448 0.18364 0.05681 0.0
C373 C 0.90733 0.22434 0.04758 0.0
C374 C 0.74259 0.25297 0.0351 0.0
H375 H 0.77553 0.3602 0.98309 0.0
H376 H 0.81817 0.32969 0.00901 0.0
H377 H 0.66395 0.27982 0.03474 0.0
H378 H 0.79445 0.16537 0.04223 0.0
H379 H 0.74724 0.19865 0.023 0.0
H380 H 0.90125 0.24836 0.99645 0.0
C381 C 0.76683 0.32692 0.99755 0.0
C382 C 0.71575 0.27307 0.0261 0.0
C383 C 0.74219 0.34467 0.98328 0.0
C384 C 0.82687 0.18156 0.04354 0.0
C385 C 0.79955 0.20086 0.03295 0.0
C386 C 0.84963 0.25521 0.00542 0.0
C387 C 0.7266 0.30535 0.99581 0.0
C388 C 0.75556 0.28456 0.00672 0.0
C389 C 0.83926 0.22265 0.0351 0.0
C390 C 0.80997 0.24375 0.0249 0.0
H391 H 0.5853 0.31719 0.95365 0.0
H392 H 0.62749 0.28642 0.97905 0.0
H393 H 0.85464 0.2832 0.9808 0.0
H394 H 0.98702 0.20724 0.06783 0.0
H395 H 0.93946 0.24086 0.04995 0.0
C396 C 0.17252 0.18362 0.54036 0.0
C397 C 0.22417 0.17337 0.5556 0.0
C398 C 0.18691 0.20403 0.52899 0.0
C399 C 0.31438 0.25778 0.54466 0.0
H400 H 0.23048 0.25978 0.45507 0.0
C401 C 0.40043 0.33139 0.48114 0.0
C402 C 0.3506 0.34052 0.46343 0.0
C403 C 0.38368 0.31249 0.49508 0.0
C404 C 0.25371 0.25983 0.48056 0.0
H405 H 0.33234 0.1755 0.56849 0.0
H406 H 0.35737 0.21062 0.54847 0.0
H407 H 0.20377 0.22329 0.47204 0.0
H408 H 0.24344 0.33839 0.44873 0.0
H409 H 0.21377 0.30628 0.47394 0.0
H410 H 0.36447 0.29429 0.55312 0.0
C411 C 0.3053 0.20357 0.54631 0.0
C412 C 0.23837 0.23878 0.49026 0.0
C413 C 0.29095 0.18329 0.55766 0.0
C414 C 0.28304 0.33159 0.46203 0.0
C415 C 0.26623 0.31291 0.47611 0.0
C416 C 0.32967 0.27886 0.53499 0.0
C417 C 0.25336 0.21464 0.53247 0.0
C418 C 0.26868 0.23735 0.52236 0.0
C419 C 0.31663 0.30241 0.49175 0.0
C420 C 0.29964 0.28022 0.50275 0.0
H421 H 0.12048 0.1766 0.5386 0.0
H422 H 0.14544 0.21209 0.51865 0.0
H423 H 0.33789 0.2577 0.57 0.0
H424 H 0.45304 0.33768 0.4822 0.0
H425 H 0.42405 0.30486 0.50677 0.0
C426 C 0.86537 0.83113 0.46188 0.0
C427 C 0.8184 0.85238 0.47671 0.0
C428 C 0.85419 0.80747 0.46595 0.0
C429 C 0.75842 0.77935 0.52324 0.0
H430 H 0.7894 0.71156 0.43534 0.0
C431 C 0.67946 0.67862 0.5243 0.0
C432 C 0.723 0.6565 0.50596 0.0
C433 C 0.68999 0.70243 0.52052 0.0
C434 C 0.78128 0.73026 0.46041 0.0
H435 H 0.72384 0.86558 0.50862 0.0
H436 H 0.70436 0.82442 0.51566 0.0
H437 H 0.81216 0.75313 0.43023 0.0
H438 H 0.81078 0.64219 0.46817 0.0
H439 H 0.83034 0.68366 0.46266 0.0
H440 H 0.72836 0.75656 0.55362 0.0
C441 C 0.74987 0.826 0.50081 0.0
C442 C 0.79434 0.75416 0.45742 0.0
C443 C 0.76074 0.84954 0.49645 0.0
C444 C 0.7767 0.65883 0.48328 0.0
C445 C 0.7874 0.68263 0.47966 0.0
C446 C 0.7458 0.75543 0.52633 0.0
C447 C 0.79608 0.80452 0.48531 0.0
C448 C 0.78306 0.77905 0.48877 0.0
C449 C 0.74445 0.70487 0.49834 0.0
C450 C 0.75701 0.73049 0.49495 0.0
H451 H 0.91007 0.83253 0.4463 0.0
H452 H 0.89126 0.79148 0.454 0.0
H453 H 0.74991 0.79812 0.54812 0.0
H454 H 0.63791 0.67777 0.54227 0.0
H455 H 0.65512 0.71891 0.53494 0.0
C456 C 0.24601 0.02604 0.98744 0.0
C457 C 0.20921 0.00859 -0.0018 0.0
C458 C 0.31782 0.02604 0.98747 0.0
C459 C 0.46899 0.00706 0.02856 0.0
H460 H 0.5662 0.00913 0.9424 0.0
C461 C 0.7644 0.99385 0.01496 0.0
C462 C 0.80179 1.00616 0.99585 0.0
C463 C 0.69263 0.99407 0.01515 0.0
C464 C 0.54044 0.00902 0.96714 0.0
H465 H 0.21887 0.97759 0.01777 0.0
H466 H 0.3441 0.97754 0.01803 0.0
H467 H 0.44191 0.01031 0.94358 0.0
H468 H 0.79178 0.02954 0.96329 0.0
H469 H 0.66757 0.03118 0.96515 0.0
H470 H 0.56687 1.00651 0.0528 0.0
C471 C 0.31767 0.99137 0.00966 0.0
C472 C 0.46863 0.00957 0.96767 0.0
C473 C 0.24587 0.99122 0.00923 0.0
C474 C 0.76505 0.01953 0.97799 0.0
C475 C 0.69323 0.02019 0.97871 0.0
C476 C 0.5408 0.0069 0.02833 0.0
C477 C 0.35486 0.0087 -0.00141 0.0
C478 C 0.43171 0.00849 -0.0017 0.0
C479 C 0.65544 0.00729 0.99707 0.0
C480 C 0.57811 0.00775 0.99753 0.0
H481 H 0.21934 0.0392 0.97797 0.0
H482 H 0.34439 0.03977 0.97894 0.0
H483 H 0.44256 1.00654 0.0529 0.0
H484 H 0.79058 0.98415 0.03014 0.0
H485 H 0.66656 0.98358 0.02931 0.0
C486 C 0.26974 0.02097 0.47873 0.0
C487 C 0.23262 0.00782 0.49679 0.0
C488 C 0.34158 0.02152 0.4795 0.0
C489 C 0.49371 0.00835 0.52948 0.0
H490 H 0.59298 0.01102 0.44428 0.0
C491 C 0.78937 0.99306 0.51124 0.0
C492 C 0.82585 0.00994 0.49919 0.0
C493 C 0.71751 0.99315 0.51169 0.0
C494 C 0.56621 0.01051 0.46852 0.0
H495 H 0.24326 0.98617 0.53158 0.0
H496 H 0.36736 0.98542 0.53091 0.0
H497 H 0.46873 0.00999 0.44317 0.0
H498 H 0.81532 0.03949 0.47699 0.0
H499 H 0.69033 0.04007 0.47817 0.0
H500 H 0.59186 0.00813 0.55419 0.0
C501 C 0.34153 0.99579 0.51649 0.0
C502 C 0.49437 0.01003 0.46802 0.0
C503 C 0.26971 0.99566 0.51621 0.0
C504 C 0.78881 0.02678 0.48733 0.0
C505 C 0.71698 0.02676 0.48747 0.0
C506 C 0.56559 0.00847 0.52971 0.0
C507 C 0.3791 0.00874 0.49813 0.0
C508 C 0.45651 0.00905 0.49856 0.0
C509 C 0.68005 0.00993 0.49963 0.0
C510 C 0.60307 0.00966 0.49932 0.0
H511 H 0.24328 0.03087 0.4638 0.0
H512 H 0.36748 0.03232 0.46574 0.0
H513 H 0.46752 0.00815 0.55406 0.0
H514 H 0.81654 0.97978 0.52041 0.0
H515 H 0.69125 0.97968 0.52082 0.0
C516 C 0.76835 0.52241 0.02889 0.0
C517 C 0.73166 0.50506 0.99633 0.0
C518 C 0.84002 0.52263 0.02887 0.0
C519 C 0.9906 0.5044 0.96406 0.0
H520 H 0.08878 0.50763 0.05311 0.0
C521 C 0.28582 0.49276 0.96213 0.0
C522 C 0.32231 0.507 0.99627 0.0
C523 C 0.21416 0.49214 0.96209 0.0
C524 C 0.06255 0.50714 0.02813 0.0
H525 H 0.74241 0.47427 0.93814 0.0
H526 H 0.86716 0.47463 0.93813 0.0
H527 H 0.96442 0.50787 0.05333 0.0
H528 H 0.31137 0.53221 0.05716 0.0
H529 H 0.18708 0.53225 0.05694 0.0
H530 H 0.08831 0.50422 0.93905 0.0
C531 C 0.84044 0.48824 0.96365 0.0
C532 C 0.99086 0.50719 0.02826 0.0
C533 C 0.76876 0.48788 0.96377 0.0
C534 C 0.28509 0.52095 0.0303 0.0
C535 C 0.21345 0.5207 0.03021 0.0
C536 C 0.0623 0.50463 0.96406 0.0
C537 C 0.87718 0.50557 0.99622 0.0
C538 C 0.95379 0.50575 0.99619 0.0
C539 C 0.17659 0.5062 0.99612 0.0
C540 C 0.09965 0.50594 0.99607 0.0
H541 H 0.74173 0.53575 0.05462 0.0
H542 H 0.86636 0.53643 0.05436 0.0
H543 H 0.96393 0.50364 0.93903 0.0
H544 H 0.31262 0.48228 0.93524 0.0
H545 H 0.18838 0.48042 0.93526 0.0
C546 C 0.27081 0.52291 0.52815 0.0
C547 C 0.30772 0.5051 0.49597 0.0
C548 C 0.19914 0.52305 0.52812 0.0
C549 C 0.04865 0.50331 0.46332 0.0
H550 H 0.95072 0.50846 0.55356 0.0
C551 C 0.75354 0.49131 0.46222 0.0
C552 C 0.71697 0.50612 0.49617 0.0
C553 C 0.82523 0.4908 0.46211 0.0
C554 C 0.97686 0.50742 0.52822 0.0
H555 H 0.29731 0.47342 0.43843 0.0
H556 H 0.17259 0.47364 0.43841 0.0
H557 H 0.07506 0.50893 0.55369 0.0
H558 H 0.72782 0.53249 0.55665 0.0
H559 H 0.85207 0.53268 0.55627 0.0
H560 H 0.95085 0.50233 0.43801 0.0
C561 C 0.19913 0.48767 0.46364 0.0
C562 C 0.04855 0.50761 0.52831 0.0
C563 C 0.27082 0.4874 0.46377 0.0
C564 C 0.75414 0.52076 0.52994 0.0
C565 C 0.82578 0.5206 0.52977 0.0
C566 C 0.97694 0.50339 0.46335 0.0
C567 C 0.16218 0.50545 0.49584 0.0
C568 C 0.08556 0.50549 0.49584 0.0
C569 C 0.86273 0.50553 0.49589 0.0
C570 C 0.93967 0.50539 0.49578 0.0
H571 H 0.29727 0.53666 0.55362 0.0
H572 H 0.17263 0.53719 0.55332 0.0
H573 H 0.07525 0.502 0.43795 0.0
H574 H 0.72679 0.48032 0.43549 0.0
H575 H 0.85109 0.47865 0.43546 0.0
C576 C 0.95053 0.99958 0.37557 0.0
C577 C 1.0141 1.00193 0.39343 0.0
C578 C 0.94566 1.00125 0.34036 0.0
C579 C 0.0475 0.02346 0.27658 0.0
H580 H 0.90734 0.98592 0.20189 0.0
C581 C 0.05694 1.0049 0.11722 0.0
C582 C 1.00005 0.01359 0.10346 0.0
C583 C 0.05543 1.00475 0.15335 0.0
C584 C 0.94636 0.99667 0.22269 0.0
H585 H 0.12266 1.00642 0.38798 0.0
H586 H 0.11528 0.00762 0.32581 0.0
H587 H 0.91191 0.98167 0.26237 0.0
H588 H 0.89656 0.02855 0.11646 0.0
H589 H 0.89315 0.02746 0.1796 0.0
H590 H 0.0837 0.03728 0.23578 0.0
C591 C 0.06838 1.00586 0.33938 0.0
C592 C 0.94897 0.99437 0.25751 0.0
C593 C 0.07293 1.00484 0.37488 0.0
C594 C 0.94133 0.02202 0.12656 0.0
C595 C 0.9392 0.02121 0.16245 0.0
C596 C 0.0457 0.02526 0.24152 0.0
C597 C 1.00455 1.00472 0.32187 0.0
C598 C 0.99999 0.00757 0.28494 0.0
C599 C 0.99641 0.01265 0.17619 0.0
C600 C 0.99536 0.01182 0.21417 0.0
H601 H 0.90438 0.99759 0.38963 0.0
H602 H 0.89546 1.00058 0.3283 0.0
H603 H 0.08633 0.03467 0.29712 0.0
H604 H 0.10291 0.99829 0.10004 0.0
H605 H 0.10009 0.99797 0.1632 0.0
C606 C 0.96473 1.00116 0.87264 0.0
C607 C 0.02339 0.99906 0.89205 0.0
C608 C 0.97002 1.00129 0.83659 0.0
C609 C 0.07663 0.02176 0.77841 0.0
H610 H 0.976 0.97055 0.69152 0.0
C611 C 0.08809 0.02213 0.62759 0.0
C612 C 0.03024 0.01327 0.60401 0.0
C613 C 0.09116 0.02 0.66254 0.0
C614 C 1.00351 0.98539 0.71552 0.0
H615 H 0.13349 0.99569 0.8895 0.0
H616 H 0.14309 0.99689 0.82654 0.0
H617 H 0.97396 0.96723 0.75241 0.0
H618 H 0.9291 0.9964 0.59918 0.0
H619 H 0.93236 0.99418 0.66063 0.0
H620 H 0.10345 0.04091 0.74253 0.0
C621 C 0.09305 0.99792 0.83906 0.0
C622 C 1.00285 0.98322 0.75033 0.0
C623 C 0.08757 0.99702 0.87477 0.0
C624 C 0.97471 1.00314 0.6166 0.0
C625 C 0.97705 1.00158 0.65179 0.0
C626 C 0.07614 0.02433 0.74377 0.0
C627 C 0.03423 1.00006 0.81968 0.0
C628 C 0.03904 1.00145 0.78216 0.0
C629 C 0.03582 0.00944 0.67506 0.0
C630 C 0.03896 1.00632 0.71182 0.0
H631 H 0.91471 1.0028 0.88549 0.0
H632 H 0.92398 1.00305 0.8223 0.0
H633 H 0.10449 0.03622 0.80271 0.0
H634 H 0.13196 0.02975 0.61834 0.0
H635 H 0.13771 0.026 0.67916 0.0
C636 C 0.53499 0.52413 0.3865 0.0
C637 C 0.50119 0.50388 0.3926 0.0
C638 C 0.53407 0.5244 0.35055 0.0
C639 C 0.51273 0.48129 0.24807 0.0
H640 H 0.48573 0.54843 0.24112 0.0
C641 C 0.56846 0.49435 0.10998 0.0
C642 C 0.51958 0.50845 0.0993 0.0
C643 C 0.56435 0.49357 0.14565 0.0
C644 C 0.49294 0.52951 0.24257 0.0
H645 H 0.43905 0.46821 0.36554 0.0
H646 H 0.43805 0.46863 0.3024 0.0
H647 H 0.47911 0.54722 0.30352 0.0
H648 H 0.42749 0.53244 0.11735 0.0
H649 H 0.42117 0.53152 0.17988 0.0
H650 H 0.52652 0.4636 0.18704 0.0
C651 C 0.4656 0.48416 0.32562 0.0
C652 C 0.48968 0.52885 0.2783 0.0
C653 C 0.46608 0.48397 0.36179 0.0
C654 C 0.46681 0.52189 0.12508 0.0
C655 C 0.46299 0.52128 0.16083 0.0
C656 C 0.51645 0.48198 0.21232 0.0
C657 C 0.49955 0.50442 0.3197 0.0
C658 C 0.4999 0.50477 0.28147 0.0
C659 C 0.51149 0.507 0.17142 0.0
C660 C 0.50686 0.50613 0.20924 0.0
H661 H 0.56274 0.53978 0.40943 0.0
H662 H 0.56146 0.54008 0.34676 0.0
H663 H 0.52132 0.46249 0.24968 0.0
H664 H 0.60968 0.48379 0.09066 0.0
H665 H 0.60289 0.48265 0.15322 0.0
C666 C 0.57137 0.5231 0.62562 0.0
C667 C 0.51829 0.50974 0.60011 0.0
C668 C 0.57486 0.52295 0.66167 0.0
C669 C 0.54442 0.53188 0.7439 0.0
H670 H 0.51838 0.46483 0.75123 0.0
C671 C 0.50473 0.52585 0.8878 0.0
C672 C 0.53994 0.50576 0.89363 0.0
C673 C 0.50515 0.52637 0.85199 0.0
C674 C 0.52627 0.48364 0.74955 0.0
H675 H 0.42695 0.4859 0.59242 0.0
H676 H 0.43343 0.48544 0.65542 0.0
H677 H 0.51177 0.46589 0.68858 0.0
H678 H 0.60457 0.47079 0.86637 0.0
H679 H 0.60444 0.47154 0.80343 0.0
H680 H 0.55873 0.54966 0.80482 0.0
C681 C 0.4724 0.49596 0.6474 0.0
C682 C 0.52175 0.4843 0.71381 0.0
C683 C 0.46851 0.49634 0.61147 0.0
C684 C 0.57629 0.48636 0.86278 0.0
C685 C 0.57616 0.48675 0.82674 0.0
C686 C 0.54831 0.53126 0.77965 0.0
C687 C 0.52577 0.50918 0.67279 0.0
C688 C 0.53064 0.50845 0.71066 0.0
C689 C 0.54051 0.50677 0.82103 0.0
C690 C 0.53908 0.50716 0.78286 0.0
H691 H 0.61122 0.53318 0.61742 0.0
H692 H 0.61697 0.53306 0.6805 0.0
H693 H 0.55112 0.55079 0.74233 0.0
H694 H 0.47609 0.54115 0.9108 0.0
H695 H 0.4766 0.54186 0.84834 0.0
loop_
_geom_bond_atom_site_label_1
_geom_bond_atom_site_label_2
_geom_bond_distance
_geom_bond_site_symmetry_2
_ccdc_geom_bond_type
Tb0 N29 2.617 . S
Tb0 N35 2.572 . S
Tb0 O44 2.465 1_655 S
Tb0 O45 2.387 . S
Tb0 O47 2.428 1_655 S
Tb0 O48 2.308 1_556 S
Tb0 O52 2.349 1_655 S
Tb0 O55 2.393 1_655 S
Tb0 C64 2.802 1_655 S
C1 N2 1.379 . S
C1 C4 1.416 . S
C1 C8 1.424 . S
N2 C1 1.379 . S
N2 C5 1.334 . S
N2 Tb11 2.617 . S
C3 C5 1.390 . S
C3 C6 1.339 . S
C3 H23 0.930 . S
C4 C1 1.416 . S
C4 C6 1.416 . S
C4 C10 1.448 . S
C5 N2 1.334 . S
C5 C3 1.390 . S
C5 H16 0.930 . S
C6 C3 1.339 . S
C6 C4 1.416 . S
C6 H27 0.930 . S
C7 C8 1.413 . S
C7 C9 1.427 . S
C7 C13 1.416 . S
C8 C1 1.424 . S
C8 C7 1.413 . S
C8 N12 1.361 . S
C9 C7 1.427 . S
C9 C10 1.328 . S
C9 H24 0.929 . S
C10 C4 1.448 . S
C10 C9 1.328 . S
C10 H25 0.930 . S
Tb11 N2 2.617 . S
Tb11 N12 2.572 . S
Tb11 O46 2.349 1_455 S
Tb11 O49 2.393 1_455 S
Tb11 O50 2.465 1_455 S
Tb11 O51 2.387 . S
Tb11 O53 2.428 1_455 S
Tb11 O54 2.308 1_554 S
Tb11 C75 2.802 1_455 S
N12 C8 1.361 . S
N12 Tb11 2.572 . S
N12 C14 1.340 1_554 S
C13 C7 1.416 . S
C13 C15 1.332 1_554 S
C13 H21 0.931 1_554 S
C14 N12 1.340 1_556 S
C14 C15 1.407 . S
C14 H20 0.930 . S
C15 C13 1.332 1_556 S
C15 C14 1.407 . S
C15 H17 0.929 . S
H16 C5 0.930 . S
H17 C15 0.929 . S
H18 C33 0.930 . S
H19 C40 0.929 . S
H20 C14 0.930 . S
H21 C13 0.931 1_556 S
H22 C36 0.930 . S
H23 C3 0.930 . S
H24 C9 0.929 . S
H25 C10 0.930 . S
H26 C31 0.930 . S
H27 C6 0.930 . S
H28 C39 0.931 1_554 S
N29 Tb0 2.617 . S
N29 C30 1.379 . S
N29 C33 1.334 . S
C30 N29 1.379 . S
C30 C32 1.416 . S
C30 C38 1.424 . S
C31 H26 0.930 . S
C31 C33 1.390 . S
C31 C34 1.339 . S
C32 C30 1.416 . S
C32 C34 1.416 . S
C32 C65 1.448 . S
C33 H18 0.930 . S
C33 N29 1.334 . S
C33 C31 1.390 . S
C34 C31 1.339 . S
C34 C32 1.416 . S
C34 H41 0.930 . S
N35 Tb0 2.572 . S
N35 C36 1.340 1_556 S
N35 C38 1.361 . S
C36 H22 0.930 . S
C36 N35 1.340 1_554 S
C36 C40 1.407 . S
C37 C38 1.413 . S
C37 C39 1.416 . S
C37 C66 1.427 . S
C38 C30 1.424 . S
C38 N35 1.361 . S
C38 C37 1.413 . S
C39 H28 0.931 1_556 S
C39 C37 1.416 . S
C39 C40 1.332 1_556 S
C40 H19 0.929 . S
C40 C36 1.407 . S
C40 C39 1.332 1_554 S
H41 C34 0.930 . S
H42 C65 0.930 . S
H43 C66 0.929 . S
O44 Tb0 2.465 1_455 S
O44 C64 1.264 . S
O45 Tb0 2.387 . S
O45 C56 1.264 1_565 S
O46 Tb11 2.349 1_655 S
O46 C56 1.243 1_554 S
O47 Tb0 2.428 1_455 S
O47 C64 1.256 . S
O48 Tb0 2.308 1_554 S
O48 C63 1.266 1_565 S
O49 Tb11 2.393 1_655 S
O49 C63 1.248 . S
O50 Tb11 2.465 1_655 S
O50 C75 1.264 . S
O51 Tb11 2.387 . S
O51 C67 1.264 1_545 S
O52 Tb0 2.349 1_455 S
O52 C67 1.243 1_556 S
O53 Tb11 2.428 1_655 S
O53 C75 1.256 . S
O54 Tb11 2.308 1_556 S
O54 C74 1.266 1_545 S
O55 Tb0 2.393 1_455 S
O55 C74 1.248 . S
C56 O45 1.264 1_545 S
C56 O46 1.243 1_556 S
C57 C60 1.399 . S
C57 C62 1.383 . S
C57 C64 1.496 . S
C58 C59 1.399 . S
C58 C62 1.389 . S
C59 C58 1.399 . S
C59 C61 1.380 . S
C59 H76 0.929 . S
C60 C57 1.399 . S
C60 C61 1.392 . S
C60 H77 0.929 . S
C61 C59 1.380 . S
C61 C60 1.392 . S
C61 H78 0.929 . S
C62 C57 1.383 . S
C62 C58 1.389 . S
C62 H79 0.931 1_556 S
C63 O48 1.266 1_545 S
C63 O49 1.248 . S
C64 Tb0 2.802 1_455 S
C64 O44 1.264 . S
C64 O47 1.256 . S
C64 C57 1.496 . S
C65 C32 1.448 . S
C65 H42 0.930 . S
C65 C66 1.328 . S
C66 C37 1.427 . S
C66 H43 0.929 . S
C66 C65 1.328 . S
C67 O51 1.264 1_565 S
C67 O52 1.243 1_554 S
C68 C71 1.399 . S
C68 C72 1.383 . S
C68 C75 1.496 . S
C69 C70 1.399 . S
C69 C72 1.389 . S
C70 C69 1.399 . S
C70 C73 1.380 . S
C70 H80 0.929 . S
C71 C68 1.399 . S
C71 C73 1.392 . S
C71 H81 0.929 . S
C72 C68 1.383 . S
C72 C69 1.389 . S
C72 H82 0.931 1_554 S
C73 C70 1.380 . S
C73 C71 1.392 . S
C73 H83 0.929 . S
C74 O54 1.266 1_565 S
C74 O55 1.248 . S
C75 Tb11 2.802 1_655 S
C75 O50 1.264 . S
C75 O53 1.256 . S
C75 C68 1.496 . S
H76 C59 0.929 . S
H77 C60 0.929 . S
H78 C61 0.929 . S
H79 C62 0.931 1_554 S
H80 C70 0.929 . S
H81 C71 0.929 . S
H82 C72 0.931 1_556 S
H83 C73 0.929 . S
Tb84 N113 2.617 . S
Tb84 N119 2.572 . S
Tb84 O128 2.465 1_655 S
Tb84 O129 2.387 . S
Tb84 O131 2.428 1_655 S
Tb84 O132 2.308 . S
Tb84 O136 2.349 1_655 S
Tb84 O139 2.393 1_655 S
Tb84 C148 2.802 1_655 S
C85 N86 1.379 . S
C85 C88 1.416 . S
C85 C92 1.424 . S
N86 C85 1.379 . S
N86 C89 1.334 . S
N86 Tb95 2.617 . S
C87 C89 1.390 . S
C87 C90 1.339 . S
C87 H107 0.930 . S
C88 C85 1.416 . S
C88 C90 1.416 . S
C88 C94 1.448 . S
C89 N86 1.334 . S
C89 C87 1.390 . S
C89 H100 0.930 . S
C90 C87 1.339 . S
C90 C88 1.416 . S
C90 H111 0.930 . S
C91 C92 1.413 . S
C91 C93 1.427 . S
C91 C97 1.416 . S
C92 C85 1.424 . S
C92 C91 1.413 . S
C92 N96 1.361 . S
C93 C91 1.427 . S
C93 C94 1.328 . S
C93 H108 0.929 . S
C94 C88 1.448 . S
C94 C93 1.328 . S
C94 H109 0.930 . S
Tb95 N86 2.617 . S
Tb95 N96 2.572 . S
Tb95 O130 2.349 1_455 S
Tb95 O133 2.393 1_455 S
Tb95 O134 2.465 1_455 S
Tb95 O135 2.387 . S
Tb95 O137 2.428 1_455 S
Tb95 O138 2.308 . S
Tb95 C159 2.802 1_455 S
N96 C92 1.361 . S
N96 Tb95 2.572 . S
N96 C98 1.340 . S
C97 C91 1.416 . S
C97 C99 1.332 . S
C97 H105 0.931 . S
C98 N96 1.340 . S
C98 C99 1.407 . S
C98 H104 0.930 . S
C99 C97 1.332 . S
C99 C98 1.407 . S
C99 H101 0.929 . S
H100 C89 0.930 . S
H101 C99 0.929 . S
H102 C117 0.930 . S
H103 C124 0.929 . S
H104 C98 0.930 . S
H105 C97 0.931 . S
H106 C120 0.930 . S
H107 C87 0.930 . S
H108 C93 0.929 . S
H109 C94 0.930 . S
H110 C115 0.930 . S
H111 C90 0.930 . S
H112 C123 0.931 . S
N113 Tb84 2.617 . S
N113 C114 1.379 . S
N113 C117 1.334 . S
C114 N113 1.379 . S
C114 C116 1.416 . S
C114 C122 1.424 . S
C115 H110 0.930 . S
C115 C117 1.390 . S
C115 C118 1.339 . S
C116 C114 1.416 . S
C116 C118 1.416 . S
C116 C149 1.448 . S
C117 H102 0.930 . S
C117 N113 1.334 . S
C117 C115 1.390 . S
C118 C115 1.339 . S
C118 C116 1.416 . S
C118 H125 0.930 . S
N119 Tb84 2.572 . S
N119 C120 1.340 . S
N119 C122 1.361 . S
C120 H106 0.930 . S
C120 N119 1.340 . S
C120 C124 1.407 . S
C121 C122 1.413 . S
C121 C123 1.416 . S
C121 C150 1.427 . S
C122 C114 1.424 . S
C122 N119 1.361 . S
C122 C121 1.413 . S
C123 H112 0.931 . S
C123 C121 1.416 . S
C123 C124 1.332 . S
C124 H103 0.929 . S
C124 C120 1.407 . S
C124 C123 1.332 . S
H125 C118 0.930 . S
H126 C149 0.930 . S
H127 C150 0.929 . S
O128 Tb84 2.465 1_455 S
O128 C148 1.264 . S
O129 Tb84 2.387 . S
O129 C140 1.264 1_545 S
O130 Tb95 2.349 1_655 S
O130 C140 1.243 . S
O131 Tb84 2.428 1_455 S
O131 C148 1.256 . S
O132 Tb84 2.308 . S
O132 C147 1.266 1_545 S
O133 Tb95 2.393 1_655 S
O133 C147 1.248 . S
O134 Tb95 2.465 1_655 S
O134 C159 1.264 . S
O135 Tb95 2.387 . S
O135 C151 1.264 1_565 S
O136 Tb84 2.349 1_455 S
O136 C151 1.243 . S
O137 Tb95 2.428 1_655 S
O137 C159 1.256 . S
O138 Tb95 2.308 . S
O138 C158 1.266 1_565 S
O139 Tb84 2.393 1_455 S
O139 C158 1.248 . S
C140 O129 1.264 1_565 S
C140 O130 1.243 . S
C141 C144 1.399 . S
C141 C146 1.383 . S
C141 C148 1.496 . S
C142 C143 1.399 . S
C142 C146 1.389 . S
C143 C142 1.399 . S
C143 C145 1.380 . S
C143 H160 0.929 . S
C144 C141 1.399 . S
C144 C145 1.392 . S
C144 H161 0.929 . S
C145 C143 1.380 . S
C145 C144 1.392 . S
C145 H162 0.929 . S
C146 C141 1.383 . S
C146 C142 1.389 . S
C146 H163 0.931 . S
C147 O132 1.266 1_565 S
C147 O133 1.248 . S
C148 Tb84 2.802 1_455 S
C148 O128 1.264 . S
C148 O131 1.256 . S
C148 C141 1.496 . S
C149 C116 1.448 . S
C149 H126 0.930 . S
C149 C150 1.328 . S
C150 C121 1.427 . S
C150 H127 0.929 . S
C150 C149 1.328 . S
C151 O135 1.264 1_545 S
C151 O136 1.243 . S
C152 C155 1.399 . S
C152 C156 1.383 . S
C152 C159 1.496 . S
C153 C154 1.399 . S
C153 C156 1.389 . S
C154 C153 1.399 . S
C154 C157 1.380 . S
C154 H164 0.929 . S
C155 C152 1.399 . S
C155 C157 1.392 . S
C155 H165 0.929 . S
C156 C152 1.383 . S
C156 C153 1.389 . S
C156 H166 0.931 . S
C157 C154 1.380 . S
C157 C155 1.392 . S
C157 H167 0.929 . S
C158 O138 1.266 1_545 S
C158 O139 1.248 . S
C159 Tb95 2.802 1_655 S
C159 O134 1.264 . S
C159 O137 1.256 . S
C159 C152 1.496 . S
H160 C143 0.929 . S
H161 C144 0.929 . S
H162 C145 0.929 . S
H163 C146 0.931 . S
H164 C154 0.929 . S
H165 C155 0.929 . S
H166 C156 0.931 . S
H167 C157 0.929 . S
Tb168 N197 2.617 . S
Tb168 N203 2.572 . S
Tb168 O212 2.465 . S
Tb168 O213 2.387 . S
Tb168 O215 2.428 . S
Tb168 O216 2.308 1_556 S
Tb168 O220 2.349 . S
Tb168 O223 2.393 . S
Tb168 C232 2.802 . S
C169 N170 1.379 . S
C169 C172 1.416 . S
C169 C176 1.424 . S
N170 C169 1.379 . S
N170 C173 1.334 . S
N170 Tb179 2.617 . S
C171 C173 1.390 . S
C171 C174 1.339 . S
C171 H191 0.930 . S
C172 C169 1.416 . S
C172 C174 1.416 . S
C172 C178 1.448 . S
C173 N170 1.334 . S
C173 C171 1.390 . S
C173 H184 0.930 . S
C174 C171 1.339 . S
C174 C172 1.416 . S
C174 H195 0.930 . S
C175 C176 1.413 . S
C175 C177 1.427 . S
C175 C181 1.416 . S
C176 C169 1.424 . S
C176 C175 1.413 . S
C176 N180 1.361 . S
C177 C175 1.427 . S
C177 C178 1.328 . S
C177 H192 0.929 . S
C178 C172 1.448 . S
C178 C177 1.328 . S
C178 H193 0.930 . S
Tb179 N170 2.617 . S
Tb179 N180 2.572 . S
Tb179 O214 2.349 . S
Tb179 O217 2.393 . S
Tb179 O218 2.465 . S
Tb179 O219 2.387 . S
Tb179 O221 2.428 . S
Tb179 O222 2.308 1_554 S
Tb179 C243 2.802 . S
N180 C176 1.361 . S
N180 Tb179 2.572 . S
N180 C182 1.340 1_554 S
C181 C175 1.416 . S
C181 C183 1.332 1_554 S
C181 H189 0.931 1_554 S
C182 N180 1.340 1_556 S
C182 C183 1.407 . S
C182 H188 0.930 . S
C183 C181 1.332 1_556 S
C183 C182 1.407 . S
C183 H185 0.929 . S
H184 C173 0.930 . S
H185 C183 0.929 . S
H186 C201 0.930 . S
H187 C208 0.929 . S
H188 C182 0.930 . S
H189 C181 0.931 1_556 S
H190 C204 0.930 . S
H191 C171 0.930 . S
H192 C177 0.929 . S
H193 C178 0.930 . S
H194 C199 0.930 . S
H195 C174 0.930 . S
H196 C207 0.931 1_554 S
N197 Tb168 2.617 . S
N197 C198 1.379 . S
N197 C201 1.334 . S
C198 N197 1.379 . S
C198 C200 1.416 . S
C198 C206 1.424 . S
C199 H194 0.930 . S
C199 C201 1.390 . S
C199 C202 1.339 . S
C200 C198 1.416 . S
C200 C202 1.416 . S
C200 C233 1.448 . S
C201 H186 0.930 . S
C201 N197 1.334 . S
C201 C199 1.390 . S
C202 C199 1.339 . S
C202 C200 1.416 . S
C202 H209 0.930 . S
N203 Tb168 2.572 . S
N203 C204 1.340 1_556 S
N203 C206 1.361 . S
C204 H190 0.930 . S
C204 N203 1.340 1_554 S
C204 C208 1.407 . S
C205 C206 1.413 . S
C205 C207 1.416 . S
C205 C234 1.427 . S
C206 C198 1.424 . S
C206 N203 1.361 . S
C206 C205 1.413 . S
C207 H196 0.931 1_556 S
C207 C205 1.416 . S
C207 C208 1.332 1_556 S
C208 H187 0.929 . S
C208 C204 1.407 . S
C208 C207 1.332 1_554 S
H209 C202 0.930 . S
H210 C233 0.930 . S
H211 C234 0.929 . S
O212 Tb168 2.465 . S
O212 C232 1.264 . S
O213 Tb168 2.387 . S
O213 C224 1.264 . S
O214 Tb179 2.349 . S
O214 C224 1.243 1_554 S
O215 Tb168 2.428 . S
O215 C232 1.256 . S
O216 Tb168 2.308 1_554 S
O216 C231 1.266 . S
O217 Tb179 2.393 . S
O217 C231 1.248 . S
O218 Tb179 2.465 . S
O218 C243 1.264 . S
O219 Tb179 2.387 . S
O219 C235 1.264 . S
O220 Tb168 2.349 . S
O220 C235 1.243 1_556 S
O221 Tb179 2.428 . S
O221 C243 1.256 . S
O222 Tb179 2.308 1_556 S
O222 C242 1.266 . S
O223 Tb168 2.393 . S
O223 C242 1.248 . S
C224 O213 1.264 . S
C224 O214 1.243 1_556 S
C225 C228 1.399 . S
C225 C230 1.383 . S
C225 C232 1.496 . S
C226 C227 1.399 . S
C226 C230 1.389 . S
C227 C226 1.399 . S
C227 C229 1.380 . S
C227 H244 0.929 . S
C228 C225 1.399 . S
C228 C229 1.392 . S
C228 H245 0.929 . S
C229 C227 1.380 . S
C229 C228 1.392 . S
C229 H246 0.929 . S
C230 C225 1.383 . S
C230 C226 1.389 . S
C230 H247 0.931 1_556 S
C231 O216 1.266 . S
C231 O217 1.248 . S
C232 Tb168 2.802 . S
C232 O212 1.264 . S
C232 O215 1.256 . S
C232 C225 1.496 . S
C233 C200 1.448 . S
C233 H210 0.930 . S
C233 C234 1.328 . S
C234 C205 1.427 . S
C234 H211 0.929 . S
C234 C233 1.328 . S
C235 O219 1.264 . S
C235 O220 1.243 1_554 S
C236 C239 1.399 . S
C236 C240 1.383 . S
C236 C243 1.496 . S
C237 C238 1.399 . S
C237 C240 1.389 . S
C238 C237 1.399 . S
C238 C241 1.380 . S
C238 H248 0.929 . S
C239 C236 1.399 . S
C239 C241 1.392 . S
C239 H249 0.929 . S
C240 C236 1.383 . S
C240 C237 1.389 . S
C240 H250 0.931 1_554 S
C241 C238 1.380 . S
C241 C239 1.392 . S
C241 H251 0.929 . S
C242 O222 1.266 . S
C242 O223 1.248 . S
C243 Tb179 2.802 . S
C243 O218 1.264 . S
C243 O221 1.256 . S
C243 C236 1.496 . S
H244 C227 0.929 . S
H245 C228 0.929 . S
H246 C229 0.929 . S
H247 C230 0.931 1_554 S
H248 C238 0.929 . S
H249 C239 0.929 . S
H250 C240 0.931 1_556 S
H251 C241 0.929 . S
Tb252 N281 2.617 . S
Tb252 N287 2.572 . S
Tb252 O296 2.465 . S
Tb252 O297 2.387 . S
Tb252 O299 2.428 . S
Tb252 O300 2.308 . S
Tb252 O304 2.349 . S
Tb252 O307 2.393 . S
Tb252 C316 2.802 . S
C253 N254 1.379 . S
C253 C256 1.416 . S
C253 C260 1.424 . S
N254 C253 1.379 . S
N254 C257 1.334 . S
N254 Tb263 2.617 . S
C255 C257 1.390 . S
C255 C258 1.339 . S
C255 H275 0.930 . S
C256 C253 1.416 . S
C256 C258 1.416 . S
C256 C262 1.448 . S
C257 N254 1.334 . S
C257 C255 1.390 . S
C257 H268 0.930 . S
C258 C255 1.339 . S
C258 C256 1.416 . S
C258 H279 0.930 . S
C259 C260 1.413 . S
C259 C261 1.427 . S
C259 C265 1.416 . S
C260 C253 1.424 . S
C260 C259 1.413 . S
C260 N264 1.361 . S
C261 C259 1.427 . S
C261 C262 1.328 . S
C261 H276 0.929 . S
C262 C256 1.448 . S
C262 C261 1.328 . S
C262 H277 0.930 . S
Tb263 N254 2.617 . S
Tb263 N264 2.572 . S
Tb263 O298 2.349 . S
Tb263 O301 2.393 . S
Tb263 O302 2.465 . S
Tb263 O303 2.387 . S
Tb263 O305 2.428 . S
Tb263 O306 2.308 . S
Tb263 C327 2.802 . S
N264 C260 1.361 . S
N264 Tb263 2.572 . S
N264 C266 1.340 . S
C265 C259 1.416 . S
C265 C267 1.332 . S
C265 H273 0.931 . S
C266 N264 1.340 . S
C266 C267 1.407 . S
C266 H272 0.930 . S
C267 C265 1.332 . S
C267 C266 1.407 . S
C267 H269 0.929 . S
H268 C257 0.930 . S
H269 C267 0.929 . S
H270 C285 0.930 . S
H271 C292 0.929 . S
H272 C266 0.930 . S
H273 C265 0.931 . S
H274 C288 0.930 . S
H275 C255 0.930 . S
H276 C261 0.929 . S
H277 C262 0.930 . S
H278 C283 0.930 . S
H279 C258 0.930 . S
H280 C291 0.931 . S
N281 Tb252 2.617 . S
N281 C282 1.379 . S
N281 C285 1.334 . S
C282 N281 1.379 . S
C282 C284 1.416 . S
C282 C290 1.424 . S
C283 H278 0.930 . S
C283 C285 1.390 . S
C283 C286 1.339 . S
C284 C282 1.416 . S
C284 C286 1.416 . S
C284 C317 1.448 . S
C285 H270 0.930 . S
C285 N281 1.334 . S
C285 C283 1.390 . S
C286 C283 1.339 . S
C286 C284 1.416 . S
C286 H293 0.930 . S
N287 Tb252 2.572 . S
N287 C288 1.340 . S
N287 C290 1.361 . S
C288 H274 0.930 . S
C288 N287 1.340 . S
C288 C292 1.407 . S
C289 C290 1.413 . S
C289 C291 1.416 . S
C289 C318 1.427 . S
C290 C282 1.424 . S
C290 N287 1.361 . S
C290 C289 1.413 . S
C291 H280 0.931 . S
C291 C289 1.416 . S
C291 C292 1.332 . S
C292 H271 0.929 . S
C292 C288 1.407 . S
C292 C291 1.332 . S
H293 C286 0.930 . S
H294 C317 0.930 . S
H295 C318 0.929 . S
O296 Tb252 2.465 . S
O296 C316 1.264 . S
O297 Tb252 2.387 . S
O297 C308 1.264 . S
O298 Tb263 2.349 . S
O298 C308 1.243 . S
O299 Tb252 2.428 . S
O299 C316 1.256 . S
O300 Tb252 2.308 . S
O300 C315 1.266 . S
O301 Tb263 2.393 . S
O301 C315 1.248 . S
O302 Tb263 2.465 . S
O302 C327 1.264 . S
O303 Tb263 2.387 . S
O303 C319 1.264 . S
O304 Tb252 2.349 . S
O304 C319 1.243 . S
O305 Tb263 2.428 . S
O305 C327 1.256 . S
O306 Tb263 2.308 . S
O306 C326 1.266 . S
O307 Tb252 2.393 . S
O307 C326 1.248 . S
C308 O297 1.264 . S
C308 O298 1.243 . S
C309 C312 1.399 . S
C309 C314 1.383 . S
C309 C316 1.496 . S
C310 C311 1.399 . S
C310 C314 1.389 . S
C311 C310 1.399 . S
C311 C313 1.380 . S
C311 H328 0.929 . S
C312 C309 1.399 . S
C312 C313 1.392 . S
C312 H329 0.929 . S
C313 C311 1.380 . S
C313 C312 1.392 . S
C313 H330 0.929 . S
C314 C309 1.383 . S
C314 C310 1.389 . S
C314 H331 0.931 . S
C315 O300 1.266 . S
C315 O301 1.248 . S
C316 Tb252 2.802 . S
C316 O296 1.264 . S
C316 O299 1.256 . S
C316 C309 1.496 . S
C317 C284 1.448 . S
C317 H294 0.930 . S
C317 C318 1.328 . S
C318 C289 1.427 . S
C318 H295 0.929 . S
C318 C317 1.328 . S
C319 O303 1.264 . S
C319 O304 1.243 . S
C320 C323 1.399 . S
C320 C324 1.383 . S
C320 C327 1.496 . S
C321 C322 1.399 . S
C321 C324 1.389 . S
C322 C321 1.399 . S
C322 C325 1.380 . S
C322 H332 0.929 . S
C323 C320 1.399 . S
C323 C325 1.392 . S
C323 H333 0.929 . S
C324 C320 1.383 . S
C324 C321 1.389 . S
C324 H334 0.931 . S
C325 C322 1.380 . S
C325 C323 1.392 . S
C325 H335 0.929 . S
C326 O306 1.266 . S
C326 O307 1.248 . S
C327 Tb263 2.802 . S
C327 O302 1.264 . S
C327 O305 1.256 . S
C327 C320 1.496 . S
H328 C311 0.929 . S
H329 C312 0.929 . S
H330 C313 0.929 . S
H331 C314 0.931 . S
H332 C322 0.929 . S
H333 C323 0.929 . S
H334 C324 0.931 . S
H335 C325 0.929 . S
C336 C337 1.349 1_554 S
C336 C338 1.327 . S
C336 H361 0.950 . S
C337 C336 1.349 1_556 S
C337 C353 1.349 . S
C338 C336 1.327 . S
C338 C357 1.420 1_554 S
C338 H362 0.950 . S
C339 C356 1.574 . S
C339 C358 1.365 . S
C339 H363 0.949 . S
H340 C344 0.949 . S
C341 C342 1.349 1_556 S
C341 C343 1.327 . S
C341 H364 0.950 . S
C342 C341 1.349 1_554 S
C342 C354 1.349 . S
C343 C341 1.327 . S
C343 C359 1.401 1_556 S
C343 H365 0.950 . S
C344 H340 0.949 . S
C344 C352 1.574 . S
C344 C360 1.385 . S
H345 C353 0.950 . S
H346 C351 0.950 . S
H347 C352 0.949 . S
H348 C354 0.950 . S
H349 C355 0.950 . S
H350 C356 0.949 . S
C351 H346 0.950 . S
C351 C353 1.327 . S
C351 C357 1.433 . S
C352 C344 1.574 . S
C352 H347 0.949 . S
C352 C358 1.370 1_554 S
C353 C337 1.349 . S
C353 H345 0.950 . S
C353 C351 1.327 . S
C354 C342 1.349 . S
C354 H348 0.950 . S
C354 C355 1.327 . S
C355 H349 0.950 . S
C355 C354 1.327 . S
C355 C359 1.442 . S
C356 C339 1.574 . S
C356 H350 0.949 . S
C356 C360 1.358 1_556 S
C357 C338 1.420 1_556 S
C357 C351 1.433 . S
C357 C358 1.529 . S
C358 C339 1.365 . S
C358 C352 1.370 1_556 S
C358 C357 1.529 . S
C359 C343 1.401 1_554 S
C359 C355 1.442 . S
C359 C360 1.529 . S
C360 C344 1.385 . S
C360 C356 1.358 1_554 S
C360 C359 1.529 . S
H361 C336 0.950 . S
H362 C338 0.950 . S
H363 C339 0.949 . S
H364 C341 0.950 . S
H365 C343 0.950 . S
C366 C367 1.349 . S
C366 C368 1.327 . S
C366 H391 0.950 . S
C367 C366 1.349 . S
C367 C383 1.349 1_554 S
C368 C366 1.327 . S
C368 C387 1.442 . S
C368 H392 0.950 . S
C369 C386 1.574 . S
C369 C388 1.358 1_556 S
C369 H393 0.949 . S
H370 C374 0.949 . S
C371 C372 1.349 . S
C371 C373 1.327 . S
C371 H394 0.950 . S
C372 C371 1.349 . S
C372 C384 1.349 1_556 S
C373 C371 1.327 . S
C373 C389 1.433 . S
C373 H395 0.950 . S
C374 H370 0.949 . S
C374 C382 1.574 . S
C374 C390 1.370 1_554 S
H375 C383 0.950 . S
H376 C381 0.950 . S
H377 C382 0.949 . S
H378 C384 0.950 . S
H379 C385 0.950 . S
H380 C386 0.949 . S
C381 H376 0.950 . S
C381 C383 1.327 . S
C381 C387 1.400 1_556 S
C382 C374 1.574 . S
C382 H377 0.949 . S
C382 C388 1.385 . S
C383 C367 1.349 1_556 S
C383 H375 0.950 . S
C383 C381 1.327 . S
C384 C372 1.349 1_554 S
C384 H378 0.950 . S
C384 C385 1.327 . S
C385 H379 0.950 . S
C385 C384 1.327 . S
C385 C389 1.419 1_554 S
C386 C369 1.574 . S
C386 H380 0.949 . S
C386 C390 1.365 . S
C387 C368 1.442 . S
C387 C381 1.400 1_554 S
C387 C388 1.529 . S
C388 C369 1.358 1_554 S
C388 C382 1.385 . S
C388 C387 1.529 . S
C389 C373 1.433 . S
C389 C385 1.419 1_556 S
C389 C390 1.529 . S
C390 C374 1.370 1_556 S
C390 C386 1.365 . S
C390 C389 1.529 . S
H391 C366 0.950 . S
H392 C368 0.950 . S
H393 C369 0.949 . S
H394 C371 0.950 . S
H395 C373 0.950 . S
C396 C397 1.349 . S
C396 C398 1.327 . S
C396 H421 0.950 . S
C397 C396 1.349 . S
C397 C413 1.349 . S
C398 C396 1.327 . S
C398 C417 1.429 . S
C398 H422 0.950 . S
C399 C416 1.574 . S
C399 C418 1.368 . S
C399 H423 0.949 . S
H400 C404 0.949 . S
C401 C402 1.349 . S
C401 C403 1.327 . S
C401 H424 0.950 . S
C402 C401 1.349 . S
C402 C414 1.349 . S
C403 C401 1.327 . S
C403 C419 1.429 . S
C403 H425 0.950 . S
C404 H400 0.949 . S
C404 C412 1.574 . S
C404 C420 1.368 . S
H405 C413 0.950 . S
H406 C411 0.950 . S
H407 C412 0.949 . S
H408 C414 0.950 . S
H409 C415 0.950 . S
H410 C416 0.949 . S
C411 H406 0.950 . S
C411 C413 1.327 . S
C411 C417 1.429 . S
C412 C404 1.574 . S
C412 H407 0.949 . S
C412 C418 1.368 . S
C413 C397 1.349 . S
C413 H405 0.950 . S
C413 C411 1.327 . S
C414 C402 1.349 . S
C414 H408 0.950 . S
C414 C415 1.327 . S
C415 H409 0.950 . S
C415 C414 1.327 . S
C415 C419 1.429 . S
C416 C399 1.574 . S
C416 H410 0.949 . S
C416 C420 1.368 . S
C417 C398 1.429 . S
C417 C411 1.429 . S
C417 C418 1.523 . S
C418 C399 1.368 . S
C418 C412 1.368 . S
C418 C417 1.523 . S
C419 C403 1.429 . S
C419 C415 1.429 . S
C419 C420 1.523 . S
C420 C404 1.368 . S
C420 C416 1.368 . S
C420 C419 1.523 . S
H421 C396 0.950 . S
H422 C398 0.950 . S
H423 C399 0.949 . S
H424 C401 0.950 . S
H425 C403 0.950 . S
C426 C427 1.349 . S
C426 C428 1.327 . S
C426 H451 0.950 . S
C427 C426 1.349 . S
C427 C443 1.349 . S
C428 C426 1.327 . S
C428 C447 1.429 . S
C428 H452 0.950 . S
C429 C446 1.574 . S
C429 C448 1.368 . S
C429 H453 0.949 . S
H430 C434 0.949 . S
C431 C432 1.349 . S
C431 C433 1.327 . S
C431 H454 0.950 . S
C432 C431 1.349 . S
C432 C444 1.349 . S
C433 C431 1.327 . S
C433 C449 1.429 . S
C433 H455 0.950 . S
C434 H430 0.949 . S
C434 C442 1.574 . S
C434 C450 1.368 . S
H435 C443 0.950 . S
H436 C441 0.950 . S
H437 C442 0.949 . S
H438 C444 0.950 . S
H439 C445 0.950 . S
H440 C446 0.949 . S
C441 H436 0.950 . S
C441 C443 1.327 . S
C441 C447 1.429 . S
C442 C434 1.574 . S
C442 H437 0.949 . S
C442 C448 1.368 . S
C443 C427 1.349 . S
C443 H435 0.950 . S
C443 C441 1.327 . S
C444 C432 1.349 . S
C444 H438 0.950 . S
C444 C445 1.327 . S
C445 H439 0.950 . S
C445 C444 1.327 . S
C445 C449 1.429 . S
C446 C429 1.574 . S
C446 H440 0.949 . S
C446 C450 1.368 . S
C447 C428 1.429 . S
C447 C441 1.429 . S
C447 C448 1.523 . S
C448 C429 1.368 . S
C448 C442 1.368 . S
C448 C447 1.523 . S
C449 C433 1.429 . S
C449 C445 1.429 . S
C449 C450 1.523 . S
C450 C434 1.368 . S
C450 C446 1.368 . S
C450 C449 1.523 . S
H451 C426 0.950 . S
H452 C428 0.950 . S
H453 C429 0.949 . S
H454 C431 0.950 . S
H455 C433 0.950 . S
C456 C457 1.352 1_546 S
C456 C458 1.327 . S
C456 H481 0.950 . S
C457 C456 1.352 1_564 S
C457 C473 1.346 . S
C458 C456 1.327 . S
C458 C477 1.407 1_546 S
C458 H482 0.950 . S
C459 C476 1.574 . S
C459 C478 1.371 . S
C459 H483 0.949 . S
H460 C464 0.949 . S
C461 C462 1.364 1_565 S
C461 C463 1.327 . S
C461 H484 0.950 . S
C462 C461 1.364 1_545 S
C462 C474 1.334 1_554 S
C463 C461 1.327 . S
C463 C479 1.439 1_565 S
C463 H485 0.950 . S
C464 H460 0.949 . S
C464 C472 1.574 . S
C464 C480 1.360 1_556 S
H465 C473 0.950 . S
H466 C471 0.950 . S
H467 C472 0.949 . S
H468 C474 0.950 . S
H469 C475 0.950 . S
H470 C476 0.949 . S
C471 H466 0.950 . S
C471 C473 1.327 . S
C471 C477 1.453 . S
C472 C464 1.574 . S
C472 H467 0.949 . S
C472 C478 1.365 1_546 S
C473 C457 1.346 . S
C473 H465 0.950 . S
C473 C471 1.327 . S
C474 C462 1.334 1_556 S
C474 H468 0.950 . S
C474 C475 1.327 . S
C475 H469 0.950 . S
C475 C474 1.327 . S
C475 C479 1.418 1_556 S
C476 C459 1.574 . S
C476 H470 0.949 . S
C476 C480 1.377 1_565 S
C477 C458 1.407 1_564 S
C477 C471 1.453 . S
C477 C478 1.522 . S
C478 C459 1.371 . S
C478 C472 1.365 1_564 S
C478 C477 1.522 . S
C479 C463 1.439 1_545 S
C479 C475 1.418 1_554 S
C479 C480 1.523 . S
C480 C464 1.360 1_554 S
C480 C476 1.377 1_545 S
C480 C479 1.523 . S
H481 C456 0.950 . S
H482 C458 0.950 . S
H483 C459 0.949 . S
H484 C461 0.950 . S
H485 C463 0.950 . S
C486 C487 1.349 . S
C486 C488 1.327 . S
C486 H511 0.950 . S
C487 C486 1.349 . S
C487 C503 1.349 1_545 S
C488 C486 1.327 . S
C488 C507 1.429 . S
C488 H512 0.950 . S
C489 C506 1.574 . S
C489 C508 1.368 1_565 S
C489 H513 0.949 . S
H490 C494 0.949 . S
C491 C492 1.349 . S
C491 C493 1.327 . S
C491 H514 0.950 . S
C492 C491 1.349 . S
C492 C504 1.349 1_565 S
C493 C491 1.327 . S
C493 C509 1.455 . S
C493 H515 0.950 . S
C494 H490 0.949 . S
C494 C502 1.574 . S
C494 C510 1.370 1_545 S
H495 C503 0.950 . S
H496 C501 0.950 . S
H497 C502 0.949 . S
H498 C504 0.950 . S
H499 C505 0.950 . S
H500 C506 0.949 . S
C501 H496 0.950 . S
C501 C503 1.327 . S
C501 C507 1.429 1_565 S
C502 C494 1.574 . S
C502 H497 0.949 . S
C502 C508 1.368 . S
C503 C487 1.349 1_565 S
C503 H495 0.950 . S
C503 C501 1.327 . S
C504 C492 1.349 1_545 S
C504 H498 0.950 . S
C504 C505 1.327 . S
C505 H499 0.950 . S
C505 C504 1.327 . S
C505 C509 1.404 1_545 S
C506 C489 1.574 . S
C506 H500 0.949 . S
C506 C510 1.367 . S
C507 C488 1.429 . S
C507 C501 1.429 1_545 S
C507 C508 1.523 . S
C508 C489 1.368 1_545 S
C508 C502 1.368 . S
C508 C507 1.523 . S
C509 C493 1.455 . S
C509 C505 1.404 1_565 S
C509 C510 1.522 . S
C510 C494 1.370 1_565 S
C510 C506 1.367 . S
C510 C509 1.522 . S
H511 C486 0.950 . S
H512 C488 0.950 . S
H513 C489 0.949 . S
H514 C491 0.950 . S
H515 C493 0.950 . S
C516 C517 1.347 . S
C516 C518 1.327 . S
C516 H541 0.950 . S
C517 C516 1.347 . S
C517 C533 1.351 1_554 S
C518 C516 1.327 . S
C518 C537 1.430 . S
C518 H542 0.950 . S
C519 C536 1.574 1_655 S
C519 C538 1.364 1_556 S
C519 H543 0.949 . S
H520 C524 0.949 . S
C521 C522 1.334 1_556 S
C521 C523 1.327 . S
C521 H544 0.950 . S
C522 C521 1.334 1_554 S
C522 C534 1.364 . S
C523 C521 1.327 . S
C523 C539 1.418 1_556 S
C523 H545 0.950 . S
C524 H520 0.949 . S
C524 C532 1.574 1_455 S
C524 C540 1.377 . S
H525 C533 0.950 . S
H526 C531 0.950 . S
H527 C532 0.949 . S
H528 C534 0.950 . S
H529 C535 0.950 . S
H530 C536 0.949 . S
C531 H526 0.950 . S
C531 C533 1.327 . S
C531 C537 1.427 1_556 S
C532 C524 1.574 1_655 S
C532 H527 0.949 . S
C532 C538 1.373 . S
C533 C517 1.351 1_556 S
C533 H525 0.950 . S
C533 C531 1.327 . S
C534 C522 1.364 . S
C534 H528 0.950 . S
C534 C535 1.327 . S
C535 H529 0.950 . S
C535 C534 1.327 . S
C535 C539 1.439 . S
C536 C519 1.574 1_455 S
C536 H530 0.949 . S
C536 C540 1.360 1_556 S
C537 C518 1.430 . S
C537 C531 1.427 1_554 S
C537 C538 1.523 . S
C538 C519 1.364 1_554 S
C538 C532 1.373 . S
C538 C537 1.523 . S
C539 C523 1.418 1_554 S
C539 C535 1.439 . S
C539 C540 1.523 . S
C540 C524 1.377 . S
C540 C536 1.360 1_554 S
C540 C539 1.523 . S
H541 C516 0.950 . S
H542 C518 0.950 . S
H543 C519 0.949 . S
H544 C521 0.950 . S
H545 C523 0.950 . S
C546 C547 1.349 . S
C546 C548 1.327 . S
C546 H571 0.950 . S
C547 C546 1.349 . S
C547 C563 1.349 . S
C548 C546 1.327 . S
C548 C567 1.429 . S
C548 H572 0.950 . S
C549 C566 1.574 1_455 S
C549 C568 1.368 . S
C549 H573 0.949 . S
H550 C554 0.949 . S
C551 C552 1.349 . S
C551 C553 1.327 . S
C551 H574 0.950 . S
C552 C551 1.349 . S
C552 C564 1.349 . S
C553 C551 1.327 . S
C553 C569 1.429 . S
C553 H575 0.950 . S
C554 H550 0.949 . S
C554 C562 1.574 1_655 S
C554 C570 1.368 . S
H555 C563 0.950 . S
H556 C561 0.950 . S
H557 C562 0.949 . S
H558 C564 0.950 . S
H559 C565 0.950 . S
H560 C566 0.949 . S
C561 H556 0.950 . S
C561 C563 1.327 . S
C561 C567 1.429 . S
C562 C554 1.574 1_455 S
C562 H557 0.949 . S
C562 C568 1.368 . S
C563 C547 1.349 . S
C563 H555 0.950 . S
C563 C561 1.327 . S
C564 C552 1.349 . S
C564 H558 0.950 . S
C564 C565 1.327 . S
C565 H559 0.950 . S
C565 C564 1.327 . S
C565 C569 1.429 . S
C566 C549 1.574 1_655 S
C566 H560 0.949 . S
C566 C570 1.368 . S
C567 C548 1.429 . S
C567 C561 1.429 . S
C567 C568 1.523 . S
C568 C549 1.368 . S
C568 C562 1.368 . S
C568 C567 1.523 . S
C569 C553 1.429 . S
C569 C565 1.429 . S
C569 C570 1.523 . S
C570 C554 1.368 . S
C570 C566 1.368 . S
C570 C569 1.523 . S
H571 C546 0.950 . S
H572 C548 0.950 . S
H573 C549 0.949 . S
H574 C551 0.950 . S
H575 C553 0.950 . S
C576 C577 1.332 1_565 S
C576 C578 1.327 . S
C576 H601 0.950 . S
C577 C576 1.332 1_545 S
C577 C593 1.388 1_655 S
C578 C576 1.327 . S
C578 C597 1.397 1_565 S
C578 H602 0.950 . S
C579 C596 1.574 . S
C579 C598 1.395 1_455 S
C579 H603 0.949 . S
H580 C584 0.949 . S
C581 C582 1.353 1_455 S
C581 C583 1.327 . S
C581 H604 0.950 . S
C582 C581 1.353 1_655 S
C582 C594 1.340 1_545 S
C583 C581 1.327 . S
C583 C599 1.445 1_455 S
C583 H605 0.950 . S
C584 H580 0.949 . S
C584 C592 1.574 . S
C584 C600 1.348 1_565 S
H585 C593 0.950 . S
H586 C591 0.950 . S
H587 C592 0.949 . S
H588 C594 0.950 . S
H589 C595 0.950 . S
H590 C596 0.949 . S
C591 H586 0.950 . S
C591 C593 1.327 . S
C591 C597 1.442 1_455 S
C592 C584 1.574 . S
C592 H587 0.949 . S
C592 C598 1.353 1_565 S
C593 C577 1.388 1_455 S
C593 H585 0.950 . S
C593 C591 1.327 . S
C594 C582 1.340 1_565 S
C594 H588 0.950 . S
C594 C595 1.327 . S
C595 H589 0.950 . S
C595 C594 1.327 . S
C595 C599 1.422 1_565 S
C596 C579 1.574 . S
C596 H590 0.949 . S
C596 C600 1.380 1_455 S
C597 C578 1.397 1_545 S
C597 C591 1.442 1_655 S
C597 C598 1.525 . S
C598 C579 1.395 1_655 S
C598 C592 1.353 1_545 S
C598 C597 1.525 . S
C599 C583 1.445 1_655 S
C599 C595 1.422 1_545 S
C599 C600 1.525 . S
C600 C584 1.348 1_545 S
C600 C596 1.380 1_655 S
C600 C599 1.525 . S
H601 C576 0.950 . S
H602 C578 0.950 . S
H603 C579 0.949 . S
H604 C581 0.950 . S
H605 C583 0.950 . S
C606 C607 1.331 1_665 S
C606 C608 1.327 . S
C606 H631 0.950 . S
C607 C606 1.331 1_445 S
C607 C623 1.389 . S
C608 C606 1.327 . S
C608 C627 1.396 1_665 S
C608 H632 0.950 . S
C609 C626 1.574 . S
C609 C628 1.397 . S
C609 H633 0.949 . S
H610 C614 0.949 . S
C611 C612 1.355 . S
C611 C613 1.327 . S
C611 H634 0.950 . S
C612 C611 1.355 . S
C612 C624 1.338 1_445 S
C613 C611 1.327 . S
C613 C629 1.447 . S
C613 H635 0.950 . S
C614 H610 0.949 . S
C614 C622 1.574 . S
C614 C630 1.346 1_665 S
H615 C623 0.950 . S
H616 C621 0.950 . S
H617 C622 0.949 . S
H618 C624 0.950 . S
H619 C625 0.950 . S
H620 C626 0.949 . S
C621 H616 0.950 . S
C621 C623 1.327 . S
C621 C627 1.443 . S
C622 C614 1.574 . S
C622 H617 0.949 . S
C622 C628 1.352 1_665 S
C623 C607 1.389 . S
C623 H615 0.950 . S
C623 C621 1.327 . S
C624 C612 1.338 1_665 S
C624 H618 0.950 . S
C624 C625 1.327 . S
C625 H619 0.950 . S
C625 C624 1.327 . S
C625 C629 1.420 1_665 S
C626 C609 1.574 . S
C626 H620 0.949 . S
C626 C630 1.382 . S
C627 C608 1.396 1_445 S
C627 C621 1.443 . S
C627 C628 1.525 . S
C628 C609 1.397 . S
C628 C622 1.352 1_445 S
C628 C627 1.525 . S
C629 C613 1.447 . S
C629 C625 1.420 1_445 S
C629 C630 1.525 . S
C630 C614 1.346 1_445 S
C630 C626 1.382 . S
C630 C629 1.525 . S
H631 C606 0.950 . S
H632 C608 0.950 . S
H633 C609 0.949 . S
H634 C611 0.950 . S
H635 C613 0.950 . S
C636 C637 1.349 . S
C636 C638 1.327 . S
C636 H661 0.950 . S
C637 C636 1.349 . S
C637 C653 1.349 . S
C638 C636 1.327 . S
C638 C657 1.429 . S
C638 H662 0.950 . S
C639 C656 1.574 . S
C639 C658 1.368 . S
C639 H663 0.949 . S
H640 C644 0.949 . S
C641 C642 1.349 . S
C641 C643 1.327 . S
C641 H664 0.950 . S
C642 C641 1.349 . S
C642 C654 1.349 . S
C643 C641 1.327 . S
C643 C659 1.429 . S
C643 H665 0.950 . S
C644 H640 0.949 . S
C644 C652 1.574 . S
C644 C660 1.368 . S
H645 C653 0.950 . S
H646 C651 0.950 . S
H647 C652 0.949 . S
H648 C654 0.950 . S
H649 C655 0.950 . S
H650 C656 0.949 . S
C651 H646 0.950 . S
C651 C653 1.327 . S
C651 C657 1.429 . S
C652 C644 1.574 . S
C652 H647 0.949 . S
C652 C658 1.368 . S
C653 C637 1.349 . S
C653 H645 0.950 . S
C653 C651 1.327 . S
C654 C642 1.349 . S
C654 H648 0.950 . S
C654 C655 1.327 . S
C655 H649 0.950 . S
C655 C654 1.327 . S
C655 C659 1.429 . S
C656 C639 1.574 . S
C656 H650 0.949 . S
C656 C660 1.368 . S
C657 C638 1.429 . S
C657 C651 1.429 . S
C657 C658 1.523 . S
C658 C639 1.368 . S
C658 C652 1.368 . S
C658 C657 1.523 . S
C659 C643 1.429 . S
C659 C655 1.429 . S
C659 C660 1.523 . S
C660 C644 1.368 . S
C660 C656 1.368 . S
C660 C659 1.523 . S
H661 C636 0.950 . S
H662 C638 0.950 . S
H663 C639 0.949 . S
H664 C641 0.950 . S
H665 C643 0.950 . S
C666 C667 1.349 . S
C666 C668 1.327 . S
C666 H691 0.950 . S
C667 C666 1.349 . S
C667 C683 1.349 . S
C668 C666 1.327 . S
C668 C687 1.429 . S
C668 H692 0.950 . S
C669 C686 1.574 . S
C669 C688 1.368 . S
C669 H693 0.949 . S
H670 C674 0.949 . S
C671 C672 1.349 . S
C671 C673 1.327 . S
C671 H694 0.950 . S
C672 C671 1.349 . S
C672 C684 1.349 . S
C673 C671 1.327 . S
C673 C689 1.429 . S
C673 H695 0.950 . S
C674 H670 0.949 . S
C674 C682 1.574 . S
C674 C690 1.368 . S
H675 C683 0.950 . S
H676 C681 0.950 . S
H677 C682 0.949 . S
H678 C684 0.950 . S
H679 C685 0.950 . S
H680 C686 0.949 . S
C681 H676 0.950 . S
C681 C683 1.327 . S
C681 C687 1.429 . S
C682 C674 1.574 . S
C682 H677 0.949 . S
C682 C688 1.368 . S
C683 C667 1.349 . S
C683 H675 0.950 . S
C683 C681 1.327 . S
C684 C672 1.349 . S
C684 H678 0.950 . S
C684 C685 1.327 . S
C685 H679 0.950 . S
C685 C684 1.327 . S
C685 C689 1.429 . S
C686 C669 1.574 . S
C686 H680 0.949 . S
C686 C690 1.368 . S
C687 C668 1.429 . S
C687 C681 1.429 . S
C687 C688 1.523 . S
C688 C669 1.368 . S
C688 C682 1.368 . S
C688 C687 1.523 . S
C689 C673 1.429 . S
C689 C685 1.429 . S
C689 C690 1.523 . S
C690 C674 1.368 . S
C690 C686 1.368 . S
C690 C689 1.523 . S
H691 C666 0.950 . S
H692 C668 0.950 . S
H693 C669 0.949 . S
H694 C671 0.950 . S
H695 C673 0.950 . S
C337 C237 1.383 1_556 S
C342 C58 1.383 1_554 S
C367 C226 1.383 1_554 S
C372 C69 1.383 1_556 S
C397 C142 1.383 . S
C402 C321 1.383 . S
C427 C153 1.383 . S
C432 C310 1.383 . S
C457 C67 1.939 . S
C462 C56 1.938 1_554 S
C487 C151 1.939 . S
C492 C140 1.939 . S
C517 C235 1.939 . S
C522 C224 1.938 1_554 S
C547 C308 1.939 . S
C552 C319 1.939 . S
C577 C147 1.454 1_545 S
C582 C63 1.486 . S
C607 C74 1.454 1_545 S
C612 C158 1.486 . S
C637 C315 1.480 . S
C642 C231 1.480 . S
C667 C326 1.479 . S
C672 C242 1.479 . S
