# Generated by pormake.
# Topology sxa, (6)-cn, num edge types: 1
# Building blocks:
#     Node 0, Type 0, BuildingBlock: UKALOJ_clean_sbu_0, # of connection points: 6
#     Node 1, Type 0, BuildingBlock: UKALOJ_clean_sbu_0, # of connection points: 6
#     Node 2, Type 0, BuildingBlock: UKALOJ_clean_sbu_0, # of connection points: 6
#     Node 3, Type 0, BuildingBlock: UKALOJ_clean_sbu_0, # of connection points: 6
#     Edge 4, Type (0, 0), BuildingBlock: MIFKUJ_clean_linker_0, # of connection points: 2
#     Edge 5, Type (0, 0), BuildingBlock: MIFKUJ_clean_linker_0, # of connection points: 2
#     Edge 6, Type (0, 0), BuildingBlock: MIFKUJ_clean_linker_0, # of connection points: 2
#     Edge 7, Type (0, 0), BuildingBlock: MIFKUJ_clean_linker_0, # of connection points: 2
#     Edge 8, Type (0, 0), BuildingBlock: MIFKUJ_clean_linker_0, # of connection points: 2
#     Edge 9, Type (0, 0), BuildingBlock: MIFKUJ_clean_linker_0, # of connection points: 2
#     Edge 10, Type (0, 0), BuildingBlock: MIFKUJ_clean_linker_0, # of connection points: 2
#     Edge 11, Type (0, 0), BuildingBlock: MIFKUJ_clean_linker_0, # of connection points: 2
#     Edge 12, Type (0, 0), BuildingBlock: MIFKUJ_clean_linker_0, # of connection points: 2
#     Edge 13, Type (0, 0), BuildingBlock: MIFKUJ_clean_linker_0, # of connection points: 2
#     Edge 14, Type (0, 0), BuildingBlock: MIFKUJ_clean_linker_0, # of connection points: 2
#     Edge 15, Type (0, 0), BuildingBlock: MIFKUJ_clean_linker_0, # of connection points: 2
# Relax obj value: 0.150
# Max RMSD: 0.199
# Mean RMSD: 0.199
data_MOF--net-sxa--node1-UKALOJ_clean_sbu_0--edge1-MIFKUJ_clean_linker_0
_symmetry_space_group_name_H-M    P1
_symmetry_Int_Tables_number       1
_symmetry_cell_setting            triclinic
loop_
_symmetry_equiv_pos_as_xyz
'x, y, z'
_cell_length_a     30.89798
_cell_length_b     46.535043
_cell_length_c     19.771966
_cell_angle_alpha  90.021391
_cell_angle_beta   89.88651
_cell_angle_gamma 90.510952
loop_
_atom_site_label
_atom_site_type_symbol
_atom_site_fract_x
_atom_site_fract_y
_atom_site_fract_z
_atom_type_partial_charge
Zn0 Zn -0.00695 0.80606 0.23077 0.0
O1 O 0.0568 0.80778 0.26911 0.0
C2 C 0.02383 0.78236 0.10034 0.0
Zn3 Zn -0.00504 0.75715 0.23008 0.0
C4 C 0.07773 0.7849 0.28054 0.0
O5 O 0.05978 0.76067 0.26878 0.0
C6 C 0.91108 0.77952 0.18362 0.0
O7 O 0.96879 0.75729 0.33024 0.0
O8 O 0.96703 0.80476 0.33043 0.0
N9 N 0.00162 0.71212 0.22635 0.0
C10 C 0.97849 0.69012 0.19874 0.0
C11 C 0.04024 0.67356 0.2245 0.0
N12 N 0.0398 0.70146 0.24253 0.0
N13 N 0.00235 0.66569 0.19596 0.0
C14 C 0.97964 0.86963 0.177 0.0
C15 C 0.01303 0.89424 0.25145 0.0
N16 N -0.00783 0.85109 0.22609 0.0
N17 N 0.01271 0.86663 0.27226 0.0
N18 N -0.0075 0.8969 0.19166 0.0
H19 H 0.97229 0.87206 0.06896 0.0
H20 H 0.92285 0.86717 0.11575 0.0
H21 H 0.95814 0.83743 0.10454 0.0
C22 C 0.95732 0.86086 0.11283 0.0
C23 C 0.9317 0.69219 0.18022 0.0
H24 H 0.91443 0.7046 0.2196 0.0
H25 H 0.91617 0.67067 0.17685 0.0
H26 H 0.9286 0.7035 0.1311 0.0
O27 O 0.93096 0.75602 0.19298 0.0
O28 O 0.93028 0.80333 0.19439 0.0
C29 C 0.95848 0.78081 0.35936 0.0
O30 O 0.01706 0.80551 0.13226 0.0
O31 O 0.01873 0.7584 0.13005 0.0
Zn32 Zn 0.49494 0.27406 0.22611 0.0
O33 O 0.42941 0.27018 0.25901 0.0
C34 C 0.46543 0.29877 0.09708 0.0
Zn35 Zn 0.49019 0.32266 0.23142 0.0
C36 C 0.40784 0.29254 0.27416 0.0
O37 O 0.42539 0.31732 0.26746 0.0
C38 C 0.57699 0.30397 0.18871 0.0
O39 O 0.51428 0.32186 0.33237 0.0
O40 O 0.51615 0.27454 0.32776 0.0
N41 N 0.48472 0.36757 0.23114 0.0
C42 C 0.49104 0.3869 0.18064 0.0
C43 C 0.47111 0.41044 0.26737 0.0
N44 N 0.47239 0.38239 0.28494 0.0
N45 N 0.48233 0.41394 0.2019 0.0
C46 C 0.48388 0.20916 0.18026 0.0
C47 C 0.53417 0.18862 0.23476 0.0
N48 N 0.50251 0.22943 0.22015 0.0
N49 N 0.53366 0.21644 0.25407 0.0
N50 N 0.50345 0.1834 0.18789 0.0
H51 H 0.42604 0.23249 0.15751 0.0
H52 H 0.42404 0.1946 0.13611 0.0
H53 H 0.45512 0.21918 0.08518 0.0
C54 C 0.44481 0.21418 0.13753 0.0
C55 C 0.5081 0.37957 0.11172 0.0
H56 H 0.52815 0.39749 0.09133 0.0
H57 H 0.4805 0.37587 0.07693 0.0
H58 H 0.52778 0.35987 0.11279 0.0
O59 O 0.55457 0.32633 0.19843 0.0
O60 O 0.5596 0.27928 0.19546 0.0
C61 C 0.52328 0.29785 0.35993 0.0
O62 O 0.47555 0.2752 0.12482 0.0
O63 O 0.46731 0.32185 0.13116 0.0
Zn64 Zn -0.00936 0.3061 0.79243 0.0
O65 O 0.92518 0.30575 0.76014 0.0
C66 C 0.96369 0.28168 0.92481 0.0
Zn67 Zn 0.98795 0.2573 0.79223 0.0
C68 C 0.90387 0.28255 0.7508 0.0
O69 O 0.92221 0.25851 0.76077 0.0
C70 C 0.0745 0.28117 0.82778 0.0
O71 O 0.01002 0.2583 0.68942 0.0
O72 O 0.01271 0.3057 0.69105 0.0
N73 N 0.98597 0.21221 0.79431 0.0
C74 C -0.00559 0.1932 0.84448 0.0
C75 C 0.97112 0.16906 0.76057 0.0
N76 N 0.97157 0.19701 0.74229 0.0
N77 N 0.98495 0.16587 0.82484 0.0
C78 C 0.0018 0.37026 0.84477 0.0
C79 C 0.96762 0.39346 0.76953 0.0
N80 N 0.9898 0.3511 0.79636 0.0
N81 N 0.96882 0.36577 0.74965 0.0
N82 N 0.98794 0.39714 0.82935 0.0
H83 H 0.0097 0.37238 0.95281 0.0
H84 H 0.05921 0.37017 0.90479 0.0
H85 H 0.02689 0.33883 0.91549 0.0
C86 C 0.02532 0.36229 0.90824 0.0
C87 C 0.01389 0.20143 0.91121 0.0
H88 H 0.033 0.22155 0.90702 0.0
H89 H 0.03514 0.18414 0.93023 0.0
H90 H 0.98759 0.20501 0.94847 0.0
O91 O 0.05323 0.25783 0.82079 0.0
O92 O 0.05546 0.30515 0.82193 0.0
C93 C 0.01985 0.28204 0.6605 0.0
O94 O 0.9702 0.30492 0.89288 0.0
O95 O 0.96761 0.25785 0.89432 0.0
Zn96 Zn 0.49214 0.82224 0.79611 0.0
O97 O 0.47332 0.82182 0.69297 0.0
C98 C 0.40361 0.80262 0.82936 0.0
Zn99 Zn 0.48663 0.77358 0.79951 0.0
C100 C 0.46283 0.79816 0.66442 0.0
O101 O 0.46718 0.77457 0.69651 0.0
C102 C 0.51132 0.79788 0.93212 0.0
O103 O 0.55264 0.77054 0.7695 0.0
O104 O 0.55864 0.81773 0.76813 0.0
N105 N 0.47879 0.72889 0.8047 0.0
C106 C 0.49883 0.70852 0.84196 0.0
C107 C 0.44464 0.68837 0.795 0.0
N108 N 0.44525 0.71614 0.77544 0.0
N109 N 0.47766 0.68287 0.83751 0.0
C110 C 0.48885 0.88654 0.84745 0.0
C111 C 0.51791 0.90985 0.76648 0.0
N112 N 0.4984 0.8672 0.79837 0.0
N113 N 0.51641 0.88188 0.74817 0.0
N114 N 0.50115 0.9135 0.82897 0.0
H115 H 0.44628 0.85925 0.90707 0.0
H116 H 0.44375 0.89698 0.92689 0.0
H117 H 0.48947 0.87603 0.9527 0.0
C118 C 0.46551 0.87923 0.91187 0.0
C119 C 0.54034 0.71352 0.87933 0.0
H120 H 0.55879 0.73174 0.85732 0.0
H121 H 0.56051 0.69391 0.87815 0.0
H122 H 0.53305 0.71872 0.93269 0.0
O123 O 0.50414 0.77418 0.90222 0.0
O124 O 0.50915 0.82115 0.89889 0.0
C125 C 0.57555 0.79308 0.75953 0.0
O126 O 0.42642 0.82511 0.82029 0.0
O127 O 0.42123 0.77807 0.82666 0.0
H128 H 0.05103 0.41794 0.91558 0.0
H129 H 0.04907 0.46228 0.98156 0.0
H130 H 0.92644 0.48352 0.8924 0.0
H131 H 0.92659 0.43816 0.82961 0.0
H132 H -0.00183 0.52925 0.89226 0.0
H133 H 0.91721 0.46413 0.03813 0.0
H134 H 0.90787 0.41922 0.10286 0.0
H135 H 0.02074 0.43959 0.22031 0.0
H136 H 0.03105 0.48453 0.15577 0.0
H137 H 0.95472 0.65417 0.08182 0.0
H138 H 0.94701 0.60813 0.02415 0.0
H139 H 0.03111 0.56906 0.17109 0.0
H140 H 0.03517 0.61446 0.23274 0.0
H141 H 0.97757 0.5311 0.14107 0.0
H142 H 0.06334 0.59307 1.00115 0.0
H143 H 0.08144 0.63666 0.93564 0.0
H144 H 0.97233 0.62129 0.806 0.0
H145 H 0.95325 0.57778 0.8713 0.0
C146 C 0.02283 0.43129 0.91151 0.0
C147 C 0.98824 0.42365 0.86849 0.0
C148 C 0.02214 0.45705 0.94864 0.0
C149 C 0.98748 0.4762 0.94233 0.0
C150 C 0.95351 0.4691 0.89826 0.0
C151 C 0.95373 0.44312 0.86227 0.0
C152 C 0.98682 0.50375 0.98121 0.0
C153 C -0.00691 0.52976 0.94656 0.0
C154 C 0.98169 0.50436 0.05229 0.0
C155 C 0.97515 0.47755 0.09167 0.0
C156 C 0.94025 0.45893 0.07737 0.0
C157 C 0.93474 0.43348 0.11408 0.0
C158 C 0.96379 0.42649 0.16544 0.0
C159 C -0.0017 0.44501 0.18043 0.0
C160 C 0.00396 0.47049 0.14388 0.0
C161 C 0.97 0.63559 0.10378 0.0
C162 C -0.00552 0.63807 0.16358 0.0
C163 C 0.96661 0.60921 0.06941 0.0
C164 C 0.98922 0.58483 0.09189 0.0
C165 C 0.01318 0.58723 0.1521 0.0
C166 C 0.01566 0.61337 0.18737 0.0
C167 C 0.98891 0.55713 0.05232 0.0
C168 C 0.98257 0.5309 0.08677 0.0
C169 C -0.00483 0.55627 0.98107 0.0
C170 C 0.00661 0.58235 0.94155 0.0
C171 C 0.04305 0.5991 0.95894 0.0
C172 C 0.0535 0.62377 0.92182 0.0
C173 C 0.02798 0.63178 0.86682 0.0
C174 C -0.00798 0.61508 0.84869 0.0
C175 C 0.98139 0.59041 0.8857 0.0
H176 H 0.03612 0.6509 0.83815 0.0
H177 H 0.95947 0.40676 0.19374 0.0
H178 H 0.45343 0.42437 0.07425 0.0
H179 H 0.45625 0.46994 0.01269 0.0
H180 H 0.51453 0.51106 0.18592 0.0
H181 H 0.51206 0.46521 0.24743 0.0
H182 H 0.45313 0.54446 0.13352 0.0
H183 H 0.57456 0.49329 0.04341 0.0
H184 H 0.61135 0.4522 0.99036 0.0
H185 H 0.53094 0.46021 0.81463 0.0
H186 H 0.49321 0.50111 0.86706 0.0
H187 H 0.50598 0.67474 0.96749 0.0
H188 H 0.51174 0.62939 0.028 0.0
H189 H 0.46337 0.58411 0.85303 0.0
H190 H 0.46056 0.62946 0.79054 0.0
H191 H 0.52225 0.55278 0.90767 0.0
H192 H 0.39872 0.60203 0.99759 0.0
H193 H 0.35991 0.64246 0.04999 0.0
H194 H 0.44175 0.63741 0.22477 0.0
H195 H 0.48139 0.59715 0.17304 0.0
C196 C 0.4678 0.44291 0.09869 0.0
C197 C 0.48382 0.44089 0.16509 0.0
C198 C 0.46913 0.4691 0.06355 0.0
C199 C 0.4864 0.49403 0.09391 0.0
C200 C 0.50131 0.49222 0.16096 0.0
C201 C 0.49996 0.466 0.19612 0.0
C202 C 0.48835 0.52198 0.05614 0.0
C203 C 0.46882 0.54634 0.08458 0.0
C204 C 0.50784 0.52451 0.99137 0.0
C205 C 0.5308 0.50011 0.95944 0.0
C206 C 0.56452 0.48617 0.99364 0.0
C207 C 0.58557 0.46293 0.96366 0.0
C208 C 0.57342 0.45356 0.89923 0.0
C209 C 0.54028 0.46748 0.86456 0.0
C210 C 0.51908 0.49071 0.89437 0.0
C211 C 0.49816 0.65517 0.94071 0.0
C212 C 0.48398 0.6559 0.87305 0.0
C213 C 0.50046 0.62909 0.97618 0.0
C214 C 0.48733 0.60306 0.94586 0.0
C215 C 0.47375 0.6037 0.87801 0.0
C216 C 0.472 0.62972 0.84227 0.0
C217 C 0.48685 0.57533 0.98489 0.0
C218 C 0.50663 0.55097 0.95668 0.0
C219 C 0.46731 0.57274 0.04971 0.0
C220 C 0.44328 0.59677 0.08116 0.0
C221 C 0.4086 0.60966 0.04703 0.0
C222 C 0.38643 0.63253 0.07663 0.0
C223 C 0.39844 0.64255 0.14059 0.0
C224 C 0.43253 0.62965 0.17519 0.0
C225 C 0.45483 0.60679 0.14579 0.0
H226 H 0.38127 0.66027 0.16341 0.0
H227 H 0.58974 0.43556 0.8761 0.0
H228 H 0.48594 0.96602 0.77604 0.0
H229 H 0.48392 1.01223 0.8358 0.0
H230 H 0.50979 0.96903 0.02396 0.0
H231 H 0.51377 0.92317 0.96423 0.0
H232 H 0.44315 1.00962 0.03563 0.0
H233 H 0.58845 1.00478 0.95062 0.0
H234 H 0.64502 0.99896 0.86371 0.0
H235 H 0.59638 0.07195 0.75602 0.0
H236 H 0.53907 0.07795 0.84186 0.0
H237 H 0.50529 0.12978 0.23968 0.0
H238 H 0.50135 0.08417 0.17757 0.0
H239 H 0.48649 0.13068 0.99059 0.0
H240 H 0.49129 0.17621 0.05255 0.0
H241 H 0.545 0.08871 0.97622 0.0
H242 H 0.40102 0.09475 0.06155 0.0
H243 H 0.34395 0.10089 0.14752 0.0
H244 H 0.38862 1.02617 0.2529 0.0
H245 H 0.44643 1.01983 0.16805 0.0
C246 C 0.49108 0.96636 0.83019 0.0
C247 C 0.49861 0.94057 0.86537 0.0
C248 C 0.48993 0.99281 0.86435 0.0
C249 C 0.49642 0.99421 0.93466 0.0
C250 C 0.50401 0.96855 0.96995 0.0
C251 C 0.5057 0.94215 0.93567 0.0
C252 C 0.4961 1.02242 0.97119 0.0
C253 C 0.46576 1.02678 0.02316 0.0
C254 C 0.52483 0.0452 0.95402 0.0
C255 C 0.55916 0.04161 0.90224 0.0
C256 C 0.58955 1.01942 0.90806 0.0
C257 C 0.6218 1.01612 0.85907 0.0
C258 C 0.62421 1.03501 0.80426 0.0
C259 C 0.59442 0.05729 0.79843 0.0
C260 C 0.56206 0.06067 0.84726 0.0
C261 C 0.50062 0.13021 0.18543 0.0
C262 C 0.49745 0.15664 0.15142 0.0
C263 C 0.49827 0.10412 0.14989 0.0
C264 C 0.49305 0.10379 0.0792 0.0
C265 C 0.49015 0.13022 0.04505 0.0
C266 C 0.49223 0.15631 0.0807 0.0
C267 C 0.49206 0.07596 0.0409 0.0
C268 C 0.52222 0.07163 0.98861 0.0
C269 C 0.46303 0.05326 0.05761 0.0
C270 C 0.42835 0.05699 0.1088 0.0
C271 C 0.39893 0.07977 0.10338 0.0
C272 C 0.3664 0.08326 0.15185 0.0
C273 C 0.36273 0.06398 0.20573 0.0
C274 C 0.39155 0.04112 0.21117 0.0
C275 C 0.42418 1.03755 0.16288 0.0
H276 H 0.33751 0.06671 0.24319 0.0
H277 H 0.64923 1.03244 0.7664 0.0
H278 H 0.92467 0.91724 0.11749 0.0
H279 H 0.92315 0.96121 0.04955 0.0
H280 H 0.05378 0.98122 0.11139 0.0
H281 H 0.05599 0.93656 0.17644 0.0
H282 H 0.92664 1.01498 0.07703 0.0
H283 H 0.10771 1.01944 0.9949 0.0
H284 H 0.16604 0.98602 0.96384 0.0
H285 H 0.07164 0.92206 0.90802 0.0
H286 H 0.01279 0.95515 0.93828 0.0
H287 H 0.96875 0.15582 0.95943 0.0
H288 H 0.9714 0.10998 0.01858 0.0
H289 H 0.00185 0.0672 0.83106 0.0
H290 H 0.00271 0.11356 0.77275 0.0
H291 H 0.04556 0.04267 0.92065 0.0
H292 H 0.89634 0.06656 0.90978 0.0
H293 H 0.83133 0.0963 0.9244 0.0
H294 H 0.85071 0.09715 0.13939 0.0
H295 H 0.91619 0.0677 0.12596 0.0
C296 C 0.95346 0.93055 0.11511 0.0
C297 C -0.00912 0.92287 0.15111 0.0
C298 C 0.95238 0.95603 0.07696 0.0
C299 C 0.98859 0.9746 0.07401 0.0
C300 C 0.02566 0.96716 0.11112 0.0
C301 C 0.0268 0.94167 0.14892 0.0
C302 C 0.98739 1.00198 0.03369 0.0
C303 C 0.95271 1.02097 0.04288 0.0
C304 C 0.02063 1.00979 0.98743 0.0
C305 C 0.05587 0.98971 0.96947 0.0
C306 C 0.09942 0.99827 0.97588 0.0
C307 C 0.13257 0.97937 0.95845 0.0
C308 C 0.12255 0.95193 0.93407 0.0
C309 C 0.07936 0.94331 0.92703 0.0
C310 C 0.0461 0.96209 0.94455 0.0
C311 C 0.97757 0.13694 0.93099 0.0
C312 C 0.98696 0.13877 0.86135 0.0
C313 C 0.97801 0.11039 0.96479 0.0
C314 C 0.98629 0.08468 0.9296 0.0
C315 C -0.00449 0.08648 0.85998 0.0
C316 C -0.00423 0.11308 0.82643 0.0
C317 C 0.98522 0.05601 0.96498 0.0
C318 C 0.0195 1.03675 0.95488 0.0
C319 C 0.95077 0.04748 1.00843 0.0
C320 C 0.91139 0.06515 0.01678 0.0
C321 C 0.8869 0.07325 0.96013 0.0
C322 C 0.84995 0.09003 0.96821 0.0
C323 C 0.83696 0.09867 0.03277 0.0
C324 C 0.86084 0.09048 0.0894 0.0
C325 C 0.89786 0.07372 0.0816 0.0
H326 H 0.80834 0.11166 0.03892 0.0
H327 H 0.14826 0.93733 0.92062 0.0
H328 H 0.43596 0.75208 0.58845 0.0
H329 H 0.37872 0.75197 0.50333 0.0
H330 H 0.37346 0.84443 0.51278 0.0
H331 H 0.43076 0.84481 0.59765 0.0
H332 H 0.2964 0.8175 0.54551 0.0
H333 H 0.40093 0.81367 0.36773 0.0
H334 H 0.4647 0.79528 0.3071 0.0
H335 H 0.40237 0.71301 0.28482 0.0
H336 H 0.33827 0.73082 0.34596 0.0
H337 H 0.12169 0.83293 0.32215 0.0
H338 H 0.19354 0.83582 0.3729 0.0
H339 H 0.20687 0.74403 0.35342 0.0
H340 H 0.13466 0.74088 0.30255 0.0
H341 H 0.28225 0.77223 0.31945 0.0
H342 H 0.18384 0.77006 0.50174 0.0
H343 H 0.12252 0.78197 0.57612 0.0
H344 H 0.17415 0.86707 0.60447 0.0
H345 H 0.23557 0.85579 0.5294 0.0
C346 C 0.4237 0.77248 0.57081 0.0
C347 C 0.43768 0.79844 0.60053 0.0
C348 C 0.39098 0.77237 0.52196 0.0
C349 C 0.37166 0.79819 0.50196 0.0
C350 C 0.38791 0.82426 0.52756 0.0
C351 C 0.42084 0.82442 0.57597 0.0
C352 C 0.33052 0.79764 0.4632 0.0
C353 C 0.29342 0.80814 0.49543 0.0
C354 C 0.32652 0.78431 0.39917 0.0
C355 C 0.36491 0.77353 0.36203 0.0
C356 C 0.40093 0.79158 0.35044 0.0
C357 C 0.43714 0.78127 0.31588 0.0
C358 C 0.4377 0.75296 0.29241 0.0
C359 C 0.40193 0.73493 0.30315 0.0
C360 C 0.3656 0.74514 0.33764 0.0
C361 C 0.13986 0.81332 0.32836 0.0
C362 C 0.1222 0.78663 0.30871 0.0
C363 C 0.18097 0.81502 0.35752 0.0
C364 C 0.20548 0.79012 0.36751 0.0
C365 C 0.18855 0.76352 0.34619 0.0
C366 C 0.14718 0.76175 0.31741 0.0
C367 C 0.24807 0.79195 0.40224 0.0
C368 C 0.2853 0.78176 0.36929 0.0
C369 C 0.25218 0.80469 0.46696 0.0
C370 C 0.21394 0.81224 0.5088 0.0
C371 C 0.18169 0.79151 0.52265 0.0
C372 C 0.14704 0.79809 0.56532 0.0
C373 C 0.14432 0.82531 0.59473 0.0
C374 C 0.17622 0.84602 0.58145 0.0
C375 C 0.21097 0.83955 0.53883 0.0
H376 H 0.11758 0.83031 0.62804 0.0
H377 H 0.4658 0.74502 0.26575 0.0
H378 H 0.04086 0.23635 0.57868 0.0
H379 H 0.09858 0.23505 0.49363 0.0
H380 H 0.12064 0.32599 0.52057 0.0
H381 H 0.06215 0.32769 0.60304 0.0
H382 H 0.13467 0.31193 0.39292 0.0
H383 H 0.16981 0.27026 0.61183 0.0
H384 H 0.16355 0.23455 0.7028 0.0
H385 H 0.19838 0.1674 0.56497 0.0
H386 H 0.2037 0.2026 0.4721 0.0
H387 H 0.35583 0.33521 0.32271 0.0
H388 H 0.28379 0.33045 0.37234 0.0
H389 H 0.28585 0.23901 0.33653 0.0
H390 H 0.35876 0.2435 0.28897 0.0
H391 H 0.25578 0.24824 0.45666 0.0
H392 H 0.22283 0.28563 0.24017 0.0
H393 H 0.22863 0.31839 0.14258 0.0
H394 H 0.18845 0.38898 0.26703 0.0
H395 H 0.18312 0.35673 0.36574 0.0
C396 C 0.05715 0.25623 0.56503 0.0
C397 C 0.04709 0.28206 0.59839 0.0
C398 C 0.0904 0.25542 0.51669 0.0
C399 C 0.11491 0.28027 0.502 0.0
C400 C 0.10255 0.30646 0.53125 0.0
C401 C 0.06894 0.30738 0.57862 0.0
C402 C 0.15567 0.27896 0.46149 0.0
C403 C 0.1612 0.29807 0.40704 0.0
C404 C 0.18997 0.26017 0.47827 0.0
C405 C 0.18687 0.23913 0.53465 0.0
C406 C 0.17602 0.2479 0.6006 0.0
C407 C 0.17262 0.22772 0.65265 0.0
C408 C 0.1807 0.19875 0.6399 0.0
C409 C 0.19211 0.18986 0.57485 0.0
C410 C 0.19522 0.20992 0.5224 0.0
C411 C 0.34094 0.31408 0.325 0.0
C412 C 0.36313 0.28975 0.30154 0.0
C413 C 0.2995 0.3114 0.3531 0.0
C414 C 0.27885 0.28441 0.35738 0.0
C415 C 0.30091 0.26008 0.33377 0.0
C416 C 0.3426 0.2627 0.30634 0.0
C417 C 0.23503 0.28155 0.38885 0.0
C418 C 0.22904 0.26178 0.44176 0.0
C419 C 0.20006 0.29929 0.36988 0.0
C420 C 0.20286 0.31877 0.31052 0.0
C421 C 0.2155 0.30818 0.24687 0.0
C422 C 0.21868 0.32666 0.19133 0.0
C423 C 0.20897 0.35576 0.19863 0.0
C424 C 0.19598 0.36643 0.26147 0.0
C425 C 0.19283 0.34805 0.31723 0.0
H426 H 0.21144 0.37003 0.15556 0.0
H427 H 0.17808 0.18319 0.68042 0.0
H428 H 0.84678 0.23773 0.73425 0.0
H429 H 0.77373 0.2394 0.68735 0.0
H430 H 0.78571 0.33128 0.66342 0.0
H431 H 0.85826 0.3299 0.71216 0.0
H432 H 0.70608 0.31807 0.703 0.0
H433 H 0.80026 0.28544 0.52386 0.0
H434 H 0.85517 0.25468 0.47019 0.0
H435 H 0.77605 0.18007 0.50835 0.0
H436 H 0.72075 0.21045 0.56253 0.0
H437 H 0.56466 0.34237 0.42433 0.0
H438 H 0.61988 0.33853 0.51192 0.0
H439 H 0.59515 0.24736 0.5266 0.0
H440 H 0.54055 0.25093 0.43803 0.0
H441 H 0.67671 0.25689 0.5027 0.0
H442 H 0.57556 0.29417 0.66083 0.0
H443 H 0.52106 0.32736 0.70654 0.0
H444 H 0.61401 0.39647 0.70189 0.0
H445 H 0.66894 0.36381 0.65517 0.0
C446 C 0.83378 0.25833 0.71946 0.0
C447 C 0.8586 0.28363 0.72623 0.0
C448 C 0.79202 0.25924 0.69241 0.0
C449 C 0.77445 0.28541 0.67062 0.0
C450 C 0.79855 0.31083 0.67967 0.0
C451 C 0.84016 0.30997 0.70727 0.0
C452 C 0.73189 0.28614 0.63553 0.0
C453 C 0.69974 0.30494 0.65872 0.0
C454 C 0.72316 0.26854 0.57875 0.0
C455 C 0.75668 0.25013 0.54779 0.0
C456 C 0.79481 0.26244 0.52132 0.0
C457 C 0.82591 0.2451 0.49066 0.0
C458 C 0.81917 0.21543 0.48607 0.0
C459 C 0.78128 0.20304 0.51212 0.0
C460 C 0.75004 0.22031 0.54276 0.0
C461 C 0.56999 0.32164 0.44763 0.0
C462 C 0.54843 0.29691 0.4237 0.0
C463 C 0.6016 0.31948 0.49797 0.0
C464 C 0.61181 0.29263 0.52598 0.0
C465 C 0.588 0.26829 0.50562 0.0
C466 C 0.55667 0.27039 0.45504 0.0
C467 C 0.65098 0.28931 0.56892 0.0
C468 C 0.68268 0.26993 0.54722 0.0
C469 C 0.65935 0.30677 0.6262 0.0
C470 C 0.62631 0.32655 0.65395 0.0
C471 C 0.5843 0.3165 0.66895 0.0
C472 C 0.55334 0.33521 0.69517 0.0
C473 C 0.56404 0.36401 0.70698 0.0
C474 C 0.60576 0.37415 0.69267 0.0
C475 C 0.63684 0.35554 0.66639 0.0
H476 H 0.54004 0.37846 0.72734 0.0
H477 H 0.84324 0.20204 0.46216 0.0
H478 H 0.92921 0.82659 0.43341 0.0
H479 H 0.87147 0.82625 0.51797 0.0
H480 H 0.86474 0.73377 0.50731 0.0
H481 H 0.9223 0.7339 0.42235 0.0
H482 H 0.78703 0.75663 0.48802 0.0
H483 H 0.89946 0.76819 0.65039 0.0
H484 H 0.96433 0.78945 0.7036 0.0
H485 H 0.89829 0.86958 0.72814 0.0
H486 H 0.83321 0.84895 0.67408 0.0
H487 H 0.62068 0.74398 0.73208 0.0
H488 H 0.69219 0.74004 0.67999 0.0
H489 H 0.70422 0.83241 0.67608 0.0
H490 H 0.63284 0.83658 0.72885 0.0
H491 H 0.78123 0.80696 0.70905 0.0
H492 H 0.67218 0.79654 0.53557 0.0
H493 H 0.60652 0.77492 0.48523 0.0
H494 H 0.66715 0.69226 0.4832 0.0
H495 H 0.73303 0.71335 0.53414 0.0
C496 C 0.91626 0.8061 0.45021 0.0
C497 C 0.93039 0.78028 0.42064 0.0
C498 C 0.8832 0.80594 0.49881 0.0
C499 C 0.86358 0.77998 0.51911 0.0
C500 C 0.87924 0.75408 0.49239 0.0
C501 C 0.91241 0.7542 0.44399 0.0
C502 C 0.824 0.78007 0.56249 0.0
C503 C 0.78612 0.76718 0.53694 0.0
C504 C 0.82227 0.79447 0.62562 0.0
C505 C 0.86156 0.80709 0.65744 0.0
C506 C 0.89889 0.79044 0.66643 0.0
C507 C 0.93569 0.80236 0.69692 0.0
C508 C 0.93548 0.83087 0.71906 0.0
C509 C 0.89844 0.84751 0.71086 0.0
C510 C 0.86157 0.83571 0.68033 0.0
C511 C 0.63865 0.7635 0.72082 0.0
C512 C 0.6207 0.79062 0.73404 0.0
C513 C 0.67956 0.76119 0.69086 0.0
C514 C 0.70336 0.78594 0.67308 0.0
C515 C 0.68645 0.81301 0.68911 0.0
C516 C 0.6455 0.81535 0.7191 0.0
C517 C 0.74458 0.78364 0.63424 0.0
C518 C 0.78251 0.79621 0.66039 0.0
C519 C 0.7465 0.76901 0.5715 0.0
C520 C 0.70731 0.75645 0.53939 0.0
C521 C 0.67141 0.77373 0.52469 0.0
C522 C 0.63418 0.76158 0.49602 0.0
C523 C 0.63259 0.7322 0.48147 0.0
C524 C 0.66839 0.71499 0.49477 0.0
C525 C 0.7057 0.72703 0.52344 0.0
H526 H 0.60361 0.72277 0.4599 0.0
H527 H 0.96398 0.84005 0.74273 0.0
H528 H 0.34573 0.75932 0.85393 0.0
H529 H 0.26707 0.76248 0.85617 0.0
H530 H 0.27556 0.85363 0.81747 0.0
H531 H 0.35453 0.85081 0.81659 0.0
H532 H 0.22311 0.84183 0.91986 0.0
H533 H 0.24004 0.8069 0.69645 0.0
H534 H 0.26922 0.77533 0.60767 0.0
H535 H 0.20359 0.70282 0.69525 0.0
H536 H 0.17604 0.73335 0.78707 0.0
H537 H 0.01407 0.82588 1.01007 0.0
H538 H 0.05907 0.83441 0.91039 0.0
H539 H 0.11682 0.75104 0.93571 0.0
H540 H 0.07099 0.74201 0.03402 0.0
H541 H 0.1255 0.77282 0.80238 0.0
H542 H 0.15473 0.80167 0.04173 0.0
H543 H 0.12803 0.82549 0.14518 0.0
H544 H 0.10742 0.9032 0.0334 0.0
H545 H 0.13367 0.87966 0.92891 0.0
C546 C 0.33091 0.78006 0.84604 0.0
C547 C 0.35628 0.80483 0.83544 0.0
C548 C 0.28595 0.78176 0.8463 0.0
C549 C 0.26556 0.80816 0.83507 0.0
C550 C 0.29077 0.833 0.82521 0.0
C551 C 0.33582 0.83136 0.82535 0.0
C552 C 0.21806 0.81 0.84084 0.0
C553 C 0.20153 0.82756 0.8922 0.0
C554 C 0.19006 0.79101 0.80531 0.0
C555 C 0.20587 0.77258 0.74901 0.0
C556 C 0.23206 0.78419 0.69731 0.0
C557 C 0.24841 0.76645 0.64641 0.0
C558 C 0.23797 0.73722 0.64541 0.0
C559 C 0.2115 0.72553 0.69585 0.0
C560 C 0.19565 0.74303 0.74758 0.0
C561 C 0.03513 0.80892 0.99267 0.0
C562 C 0.04059 0.78378 0.03098 0.0
C563 C 0.06035 0.81368 0.93524 0.0
C564 C 0.09204 0.79372 0.91725 0.0
C565 C 0.09267 0.76679 0.94923 0.0
C566 C 0.06689 0.76179 1.00597 0.0
C567 C 0.13183 0.80352 0.88296 0.0
C568 C 0.14689 0.78823 0.82677 0.0
C569 C 0.15905 0.82407 0.91475 0.0
C570 C 0.14603 0.83896 0.97779 0.0
C571 C 0.14476 0.8239 0.03941 0.0
C572 C 0.12956 0.8373 0.09805 0.0
C573 C 0.11599 0.86585 0.09571 0.0
C574 C 0.11793 0.88111 0.03488 0.0
C575 C 0.133 0.86777 0.97599 0.0
H576 H 0.10396 0.87615 0.14103 0.0
H577 H 0.25051 0.72361 0.60566 0.0
H578 H 0.13056 0.32676 0.83333 0.0
H579 H 0.20935 0.32524 0.83641 0.0
H580 H 0.20439 0.23251 0.83403 0.0
H581 H 0.12556 0.23381 0.83326 0.0
H582 H 0.25051 0.25028 0.93191 0.0
H583 H 0.25399 0.27165 0.69478 0.0
H584 H 0.23643 0.29675 0.58826 0.0
H585 H 0.27983 0.37669 0.67347 0.0
H586 H 0.29863 0.35212 0.77979 0.0
H587 H 0.46581 0.25532 1.0044 0.0
H588 H 0.41292 0.24903 0.91396 0.0
H589 H 0.36904 0.33577 0.9446 0.0
H590 H 0.42078 0.34196 0.03633 0.0
H591 H 0.35513 0.312 0.80673 0.0
H592 H 0.32518 0.29456 0.04728 0.0
H593 H 0.33678 0.27316 0.15964 0.0
H594 H 0.33652 0.18877 0.07156 0.0
H595 H 0.32521 0.20985 0.9583 0.0
C596 C 0.14625 0.30604 0.83355 0.0
C597 C 0.12189 0.2804 0.8338 0.0
C598 C 0.19132 0.30521 0.83373 0.0
C599 C 0.21276 0.27876 0.83345 0.0
C600 C 0.18846 0.25315 0.83332 0.0
C601 C 0.14342 0.25395 0.83375 0.0
C602 C 0.25983 0.27789 0.84542 0.0
C603 C 0.27362 0.26286 0.90265 0.0
C604 C 0.28976 0.29507 0.80867 0.0
C605 C 0.27752 0.31005 0.74538 0.0
C606 C 0.25951 0.29461 0.69095 0.0
C607 C 0.24944 0.30871 0.63058 0.0
C608 C 0.2566 0.33827 0.6244 0.0
C609 C 0.27423 0.3538 0.67835 0.0
C610 C 0.2849 0.33977 0.73849 0.0
C611 C 0.44568 0.27329 0.99067 0.0
C612 C 0.44578 0.2986 0.02941 0.0
C613 C 0.41606 0.26981 0.93825 0.0
C614 C 0.38672 0.29176 0.92394 0.0
C615 C 0.39151 0.31861 0.95526 0.0
C616 C 0.42089 0.32202 1.00809 0.0
C617 C 0.34488 0.28453 0.89289 0.0
C618 C 0.33217 0.29825 0.8332 0.0
C619 C 0.3154 0.26639 0.92753 0.0
C620 C 0.32508 0.25376 0.99446 0.0
C621 C 0.32827 0.27148 0.05182 0.0
C622 C 0.3345 0.2594 0.11569 0.0
C623 C 0.33717 0.2296 0.12283 0.0
C624 C 0.33425 0.21184 0.06595 0.0
C625 C 0.32802 0.22384 1.00191 0.0
H626 H 0.34171 0.22025 0.17239 0.0
H627 H 0.24866 0.34912 0.57768 0.0
H628 H 0.63311 0.26081 0.1607 0.0
H629 H 0.71163 0.2641 0.15305 0.0
H630 H 0.70614 0.35572 0.18517 0.0
H631 H 0.62706 0.35273 0.19175 0.0
H632 H 0.76062 0.34194 0.08439 0.0
H633 H 0.74124 0.31349 0.31186 0.0
H634 H 0.70759 0.28551 0.40392 0.0
H635 H 0.76207 0.20801 0.32392 0.0
H636 H 0.79528 0.23541 0.23032 0.0
H637 H 0.97274 0.32538 0.01527 0.0
H638 H 0.92383 0.33467 0.10963 0.0
H639 H 0.86572 0.25081 0.08287 0.0
H640 H 0.91531 0.24105 0.98987 0.0
H641 H 0.85188 0.27414 0.21422 0.0
H642 H 0.83483 0.30121 0.96986 0.0
H643 H 0.86629 0.32521 0.86955 0.0
H644 H 0.8808 0.40354 0.98245 0.0
H645 H 0.8495 0.37985 0.08357 0.0
C646 C 0.64849 0.28171 0.16575 0.0
C647 C 0.62394 0.30649 0.17704 0.0
C648 C 0.6934 0.2835 0.16217 0.0
C649 C 0.71464 0.31003 0.17061 0.0
C650 C 0.69025 0.33501 0.17958 0.0
C651 C 0.64516 0.33326 0.18289 0.0
C652 C 0.7623 0.31143 0.16636 0.0
C653 C 0.78084 0.32794 0.11449 0.0
C654 C 0.78858 0.29304 0.20557 0.0
C655 C 0.77061 0.27656 0.26374 0.0
C656 C 0.746 0.29047 0.31375 0.0
C657 C 0.72691 0.27468 0.36617 0.0
C658 C 0.73245 0.24496 0.36946 0.0
C659 C 0.75767 0.23103 0.32105 0.0
C660 C 0.77671 0.2467 0.26834 0.0
C661 C 0.95086 0.30843 0.03159 0.0
C662 C 0.94638 0.28297 0.99388 0.0
C663 C 0.92325 0.31368 0.0859 0.0
C664 C 0.89037 0.2938 0.10139 0.0
C665 C 0.89072 0.26652 0.07109 0.0
C666 C 0.91881 0.26106 0.01747 0.0
C667 C 0.84938 0.30379 0.13095 0.0
C668 C 0.832 0.28933 0.18698 0.0
C669 C 0.82395 0.32404 0.09568 0.0
C670 C 0.84004 0.33882 0.03406 0.0
C671 C 0.8445 0.32361 0.97304 0.0
C672 C 0.86241 0.3371 0.91618 0.0
C673 C 0.87564 0.36586 0.9197 0.0
C674 C 0.87059 0.38126 0.9799 0.0
C675 C 0.8527 0.36784 0.03693 0.0
H676 H 0.88976 0.37623 0.87579 0.0
H677 H 0.71713 0.23267 0.40939 0.0
H678 H 0.85398 0.73406 0.18306 0.0
H679 H 0.7757 0.73605 0.16393 0.0
H680 H 0.78582 0.82739 0.12904 0.0
H681 H 0.86352 0.82562 0.14701 0.0
H682 H 0.71144 0.76736 0.23135 0.0
H683 H 0.72117 0.84444 0.99812 0.0
H684 H 0.76772 0.85324 0.89863 0.0
H685 H 0.81583 0.76714 0.91089 0.0
H686 H 0.76909 0.75765 1.00972 0.0
H687 H 0.54059 0.84425 1.00377 0.0
H688 H 0.59653 0.84211 0.08949 0.0
H689 H 0.58066 0.75012 0.1012 0.0
H690 H 0.52306 0.75221 0.01739 0.0
H691 H 0.65697 0.80799 0.01626 0.0
H692 H 0.64623 0.72838 0.23786 0.0
H693 H 0.59526 0.71484 0.32882 0.0
H694 H 0.54528 0.80062 0.33166 0.0
H695 H 0.59576 0.81464 0.24048 0.0
C696 C 0.83956 0.75446 0.17048 0.0
C697 C 0.86488 0.77965 0.16616 0.0
C698 C 0.79489 0.7556 0.16039 0.0
C699 C 0.77529 0.78185 0.14519 0.0
C700 C 0.80056 0.80691 0.14038 0.0
C701 C 0.84495 0.80582 0.15049 0.0
C702 C 0.72853 0.78344 0.13237 0.0
C703 C 0.69928 0.77597 0.18416 0.0
C704 C 0.7131 0.79479 0.07088 0.0
C705 C 0.74195 0.80046 0.01196 0.0
C706 C 0.74166 0.82737 0.97959 0.0
C707 C 0.76806 0.83247 0.92324 0.0
C708 C 0.79482 0.8108 0.89857 0.0
C709 C 0.79523 0.78396 0.93022 0.0
C710 C 0.76885 0.77873 0.98652 0.0
C711 C 0.54718 0.82372 0.02707 0.0
C712 C 0.52956 0.79812 1.00089 0.0
C713 C 0.57898 0.82259 0.0767 0.0
C714 C 0.59358 0.79588 0.09959 0.0
C715 C 0.57013 0.77092 0.08333 0.0
C716 C 0.53782 0.77209 0.0343 0.0
C717 C 0.6397 0.79309 0.11613 0.0
C718 C 0.66898 0.79984 0.06406 0.0
C719 C 0.65468 0.78055 0.17651 0.0
C720 C 0.62457 0.77247 0.23196 0.0
C721 C 0.62442 0.74437 0.25799 0.0
C722 C 0.59549 0.73658 0.30942 0.0
C723 C 0.56687 0.75682 0.33577 0.0
C724 C 0.56719 0.7849 0.31083 0.0
C725 C 0.59583 0.79274 0.25906 0.0
H726 H 0.54456 0.75077 0.37569 0.0
H727 H 0.81515 0.81477 0.85484 0.0
loop_
_geom_bond_atom_site_label_1
_geom_bond_atom_site_label_2
_geom_bond_distance
_geom_bond_site_symmetry_2
_ccdc_geom_bond_type
Zn0 O1 2.055 1_655 S
Zn0 O8 2.046 . S
Zn0 N16 2.036 . S
Zn0 O28 2.053 . S
Zn0 O30 2.066 1_655 S
O1 Zn0 2.055 1_455 S
O1 C4 1.259 . S
C2 O30 1.256 . S
C2 O31 1.244 . S
Zn3 O5 2.046 . S
Zn3 O7 2.055 1_455 S
Zn3 N9 2.036 . S
Zn3 O27 2.066 1_455 S
Zn3 O31 2.053 . S
C4 O1 1.259 . S
C4 O5 1.254 . S
O5 Zn3 2.046 . S
O5 C4 1.254 . S
C6 O27 1.256 . S
C6 O28 1.244 . S
O7 Zn3 2.055 1_655 S
O7 C29 1.259 . S
O8 Zn0 2.046 . S
O8 C29 1.254 . S
N9 Zn3 2.036 . S
N9 C10 1.298 1_455 S
N9 N12 1.398 . S
C10 N9 1.298 1_655 S
C10 N13 1.367 . S
C10 C23 1.481 . S
C11 N12 1.299 . S
C11 N13 1.379 1_455 S
N12 N9 1.398 . S
N12 C11 1.299 . S
N13 C10 1.367 . S
N13 C11 1.379 1_655 S
C14 N16 1.298 1_455 S
C14 N18 1.367 . S
C14 C22 1.481 . S
C15 N17 1.299 . S
C15 N18 1.379 1_655 S
N16 Zn0 2.036 . S
N16 C14 1.298 1_655 S
N16 N17 1.398 . S
N17 C15 1.299 . S
N17 N16 1.398 . S
N18 C14 1.367 . S
N18 C15 1.379 1_455 S
H19 C22 0.980 . S
H20 C22 0.981 . S
H21 C22 0.981 . S
C22 C14 1.481 . S
C22 H19 0.980 . S
C22 H20 0.981 . S
C22 H21 0.981 . S
C23 C10 1.481 . S
C23 H24 0.980 . S
C23 H25 0.981 . S
C23 H26 0.981 . S
H24 C23 0.980 . S
H25 C23 0.981 . S
H26 C23 0.981 . S
O27 Zn3 2.066 1_655 S
O27 C6 1.256 . S
O28 Zn0 2.053 . S
O28 C6 1.244 . S
C29 O7 1.259 . S
C29 O8 1.254 . S
O30 Zn0 2.066 1_455 S
O30 C2 1.256 . S
O31 C2 1.244 . S
O31 Zn3 2.053 . S
Zn32 O33 2.055 . S
Zn32 O40 2.046 . S
Zn32 N48 2.036 . S
Zn32 O60 2.053 . S
Zn32 O62 2.066 . S
O33 Zn32 2.055 . S
O33 C36 1.259 . S
C34 O62 1.256 . S
C34 O63 1.244 . S
Zn35 O37 2.046 . S
Zn35 O39 2.055 . S
Zn35 N41 2.036 . S
Zn35 O59 2.066 . S
Zn35 O63 2.053 . S
C36 O33 1.259 . S
C36 O37 1.254 . S
O37 Zn35 2.046 . S
O37 C36 1.254 . S
C38 O59 1.256 . S
C38 O60 1.244 . S
O39 Zn35 2.055 . S
O39 C61 1.259 . S
O40 Zn32 2.046 . S
O40 C61 1.254 . S
N41 Zn35 2.036 . S
N41 C42 1.298 . S
N41 N44 1.398 . S
C42 N41 1.298 . S
C42 N45 1.367 . S
C42 C55 1.481 . S
C43 N44 1.299 . S
C43 N45 1.379 . S
N44 N41 1.398 . S
N44 C43 1.299 . S
N45 C42 1.367 . S
N45 C43 1.379 . S
C46 N48 1.298 . S
C46 N50 1.367 . S
C46 C54 1.481 . S
C47 N49 1.299 . S
C47 N50 1.379 . S
N48 Zn32 2.036 . S
N48 C46 1.298 . S
N48 N49 1.398 . S
N49 C47 1.299 . S
N49 N48 1.398 . S
N50 C46 1.367 . S
N50 C47 1.379 . S
H51 C54 0.980 . S
H52 C54 0.981 . S
H53 C54 0.981 . S
C54 C46 1.481 . S
C54 H51 0.980 . S
C54 H52 0.981 . S
C54 H53 0.981 . S
C55 C42 1.481 . S
C55 H56 0.980 . S
C55 H57 0.981 . S
C55 H58 0.981 . S
H56 C55 0.980 . S
H57 C55 0.981 . S
H58 C55 0.981 . S
O59 Zn35 2.066 . S
O59 C38 1.256 . S
O60 Zn32 2.053 . S
O60 C38 1.244 . S
C61 O39 1.259 . S
C61 O40 1.254 . S
O62 Zn32 2.066 . S
O62 C34 1.256 . S
O63 C34 1.244 . S
O63 Zn35 2.053 . S
Zn64 O65 2.055 1_455 S
Zn64 O72 2.046 . S
Zn64 N80 2.036 . S
Zn64 O92 2.053 . S
Zn64 O94 2.066 1_455 S
O65 Zn64 2.055 1_655 S
O65 C68 1.259 . S
C66 O94 1.256 . S
C66 O95 1.244 . S
Zn67 O69 2.046 . S
Zn67 O71 2.055 1_655 S
Zn67 N73 2.036 . S
Zn67 O91 2.066 1_655 S
Zn67 O95 2.053 . S
C68 O65 1.259 . S
C68 O69 1.254 . S
O69 Zn67 2.046 . S
O69 C68 1.254 . S
C70 O91 1.256 . S
C70 O92 1.244 . S
O71 Zn67 2.055 1_455 S
O71 C93 1.259 . S
O72 Zn64 2.046 . S
O72 C93 1.254 . S
N73 Zn67 2.036 . S
N73 C74 1.298 1_655 S
N73 N76 1.398 . S
C74 N73 1.298 1_455 S
C74 N77 1.367 . S
C74 C87 1.481 . S
C75 N76 1.299 . S
C75 N77 1.379 1_655 S
N76 N73 1.398 . S
N76 C75 1.299 . S
N77 C74 1.367 . S
N77 C75 1.379 1_455 S
C78 N80 1.298 1_655 S
C78 N82 1.367 . S
C78 C86 1.481 . S
C79 N81 1.299 . S
C79 N82 1.379 1_455 S
N80 Zn64 2.036 . S
N80 C78 1.298 1_455 S
N80 N81 1.398 . S
N81 C79 1.299 . S
N81 N80 1.398 . S
N82 C78 1.367 . S
N82 C79 1.379 1_655 S
H83 C86 0.980 . S
H84 C86 0.981 . S
H85 C86 0.981 . S
C86 C78 1.481 . S
C86 H83 0.980 . S
C86 H84 0.981 . S
C86 H85 0.981 . S
C87 C74 1.481 . S
C87 H88 0.980 . S
C87 H89 0.981 . S
C87 H90 0.981 . S
H88 C87 0.980 . S
H89 C87 0.981 . S
H90 C87 0.981 . S
O91 Zn67 2.066 1_455 S
O91 C70 1.256 . S
O92 Zn64 2.053 . S
O92 C70 1.244 . S
C93 O71 1.259 . S
C93 O72 1.254 . S
O94 Zn64 2.066 1_655 S
O94 C66 1.256 . S
O95 C66 1.244 . S
O95 Zn67 2.053 . S
Zn96 O97 2.055 . S
Zn96 O104 2.046 . S
Zn96 N112 2.036 . S
Zn96 O124 2.053 . S
Zn96 O126 2.066 . S
O97 Zn96 2.055 . S
O97 C100 1.259 . S
C98 O126 1.256 . S
C98 O127 1.244 . S
Zn99 O101 2.046 . S
Zn99 O103 2.055 . S
Zn99 N105 2.036 . S
Zn99 O123 2.066 . S
Zn99 O127 2.053 . S
C100 O97 1.259 . S
C100 O101 1.254 . S
O101 Zn99 2.046 . S
O101 C100 1.254 . S
C102 O123 1.256 . S
C102 O124 1.244 . S
O103 Zn99 2.055 . S
O103 C125 1.259 . S
O104 Zn96 2.046 . S
O104 C125 1.254 . S
N105 Zn99 2.036 . S
N105 C106 1.298 . S
N105 N108 1.398 . S
C106 N105 1.298 . S
C106 N109 1.367 . S
C106 C119 1.481 . S
C107 N108 1.299 . S
C107 N109 1.379 . S
N108 N105 1.398 . S
N108 C107 1.299 . S
N109 C106 1.367 . S
N109 C107 1.379 . S
C110 N112 1.298 . S
C110 N114 1.367 . S
C110 C118 1.481 . S
C111 N113 1.299 . S
C111 N114 1.379 . S
N112 Zn96 2.036 . S
N112 C110 1.298 . S
N112 N113 1.398 . S
N113 C111 1.299 . S
N113 N112 1.398 . S
N114 C110 1.367 . S
N114 C111 1.379 . S
H115 C118 0.980 . S
H116 C118 0.981 . S
H117 C118 0.981 . S
C118 C110 1.481 . S
C118 H115 0.980 . S
C118 H116 0.981 . S
C118 H117 0.981 . S
C119 C106 1.481 . S
C119 H120 0.980 . S
C119 H121 0.981 . S
C119 H122 0.981 . S
H120 C119 0.980 . S
H121 C119 0.981 . S
H122 C119 0.981 . S
O123 Zn99 2.066 . S
O123 C102 1.256 . S
O124 Zn96 2.053 . S
O124 C102 1.244 . S
C125 O103 1.259 . S
C125 O104 1.254 . S
O126 Zn96 2.066 . S
O126 C98 1.256 . S
O127 C98 1.244 . S
O127 Zn99 2.053 . S
H128 C146 0.951 . S
H129 C148 0.951 . S
H130 C150 0.950 . S
H131 C151 0.950 . S
H132 C153 0.950 . S
H133 C156 0.950 1_655 S
H134 C157 0.950 . S
H135 C159 0.950 . S
H136 C160 0.950 . S
H137 C161 0.951 . S
H138 C163 0.951 . S
H139 C165 0.950 . S
H140 C166 0.950 . S
H141 C168 0.950 . S
H142 C171 0.950 . S
H143 C172 0.950 . S
H144 C174 0.950 . S
H145 C175 0.950 . S
C146 H128 0.951 . S
C146 C147 1.366 1_455 S
C146 C148 1.388 . S
C147 C146 1.366 1_655 S
C147 C151 1.385 . S
C148 H129 0.951 . S
C148 C146 1.388 . S
C148 C149 1.366 1_455 S
C149 C148 1.366 1_655 S
C149 C150 1.414 . S
C149 C152 1.499 . S
C150 H130 0.950 . S
C150 C149 1.414 . S
C150 C151 1.374 . S
C151 H131 0.950 . S
C151 C147 1.385 . S
C151 C150 1.374 . S
C152 C149 1.499 . S
C152 C153 1.373 . S
C152 C154 1.389 1_656 S
C153 H132 0.950 . S
C153 C152 1.373 . S
C153 C169 1.377 . S
C154 C152 1.389 1_454 S
C154 C155 1.524 . S
C154 C168 1.377 . S
C155 C154 1.524 . S
C155 C156 1.397 . S
C155 C160 1.363 . S
C156 H133 0.950 1_455 S
C156 C155 1.397 . S
C156 C157 1.334 . S
C157 H134 0.950 . S
C157 C156 1.334 . S
C157 C158 1.287 . S
C158 C157 1.287 . S
C158 C159 1.524 . S
C158 H177 0.913 . S
C159 H135 0.950 . S
C159 C158 1.524 . S
C159 C160 1.415 . S
C160 H136 0.950 . S
C160 C155 1.363 . S
C160 C159 1.415 . S
C161 H137 0.951 . S
C161 C162 1.366 . S
C161 C163 1.388 . S
C162 C161 1.366 . S
C162 C166 1.385 1_655 S
C163 H138 0.951 . S
C163 C161 1.388 . S
C163 C164 1.366 . S
C164 C163 1.366 . S
C164 C165 1.414 1_655 S
C164 C167 1.499 . S
C165 H139 0.950 . S
C165 C164 1.414 1_455 S
C165 C166 1.374 . S
C166 H140 0.950 . S
C166 C162 1.385 1_455 S
C166 C165 1.374 . S
C167 C164 1.499 . S
C167 C168 1.373 1_655 S
C167 C169 1.389 1_554 S
C168 H141 0.950 . S
C168 C154 1.377 . S
C168 C167 1.373 1_455 S
C169 C153 1.377 . S
C169 C167 1.389 1_556 S
C169 C170 1.524 . S
C170 C169 1.524 . S
C170 C171 1.397 . S
C170 C175 1.363 . S
C171 H142 0.950 . S
C171 C170 1.397 . S
C171 C172 1.334 . S
C172 H143 0.950 . S
C172 C171 1.334 . S
C172 C173 1.287 . S
C173 C172 1.287 . S
C173 C174 1.524 . S
C173 H176 0.999 . S
C174 H144 0.950 . S
C174 C173 1.524 . S
C174 C175 1.415 . S
C175 H145 0.950 . S
C175 C170 1.363 . S
C175 C174 1.415 . S
H176 C173 0.999 . S
H177 C158 0.913 . S
H178 C196 0.951 . S
H179 C198 0.951 . S
H180 C200 0.950 . S
H181 C201 0.950 . S
H182 C203 0.950 . S
H183 C206 0.950 . S
H184 C207 0.950 . S
H185 C209 0.950 . S
H186 C210 0.950 . S
H187 C211 0.951 . S
H188 C213 0.951 . S
H189 C215 0.950 . S
H190 C216 0.950 . S
H191 C218 0.950 . S
H192 C221 0.950 . S
H193 C222 0.950 . S
H194 C224 0.950 . S
H195 C225 0.950 . S
C196 H178 0.951 . S
C196 C197 1.366 . S
C196 C198 1.388 . S
C197 C196 1.366 . S
C197 C201 1.385 . S
C198 H179 0.951 . S
C198 C196 1.388 . S
C198 C199 1.366 . S
C199 C198 1.366 . S
C199 C200 1.414 . S
C199 C202 1.499 . S
C200 H180 0.950 . S
C200 C199 1.414 . S
C200 C201 1.374 . S
C201 H181 0.950 . S
C201 C197 1.385 . S
C201 C200 1.374 . S
C202 C199 1.499 . S
C202 C203 1.373 . S
C202 C204 1.389 1_554 S
C203 H182 0.950 . S
C203 C202 1.373 . S
C203 C219 1.377 . S
C204 C202 1.389 1_556 S
C204 C205 1.524 . S
C204 C218 1.377 . S
C205 C204 1.524 . S
C205 C206 1.397 . S
C205 C210 1.363 . S
C206 H183 0.950 . S
C206 C205 1.397 . S
C206 C207 1.334 . S
C207 H184 0.950 . S
C207 C206 1.334 . S
C207 C208 1.287 . S
C208 C207 1.287 . S
C208 C209 1.524 . S
C208 H227 0.913 . S
C209 H185 0.950 . S
C209 C208 1.524 . S
C209 C210 1.415 . S
C210 H186 0.950 . S
C210 C205 1.363 . S
C210 C209 1.415 . S
C211 H187 0.951 . S
C211 C212 1.366 . S
C211 C213 1.388 . S
C212 C211 1.366 . S
C212 C216 1.385 . S
C213 H188 0.951 . S
C213 C211 1.388 . S
C213 C214 1.366 . S
C214 C213 1.366 . S
C214 C215 1.414 . S
C214 C217 1.499 . S
C215 H189 0.950 . S
C215 C214 1.414 . S
C215 C216 1.374 . S
C216 H190 0.950 . S
C216 C212 1.385 . S
C216 C215 1.374 . S
C217 C214 1.499 . S
C217 C218 1.373 . S
C217 C219 1.389 1_556 S
C218 H191 0.950 . S
C218 C204 1.377 . S
C218 C217 1.373 . S
C219 C203 1.377 . S
C219 C217 1.389 1_554 S
C219 C220 1.524 . S
C220 C219 1.524 . S
C220 C221 1.397 . S
C220 C225 1.363 . S
C221 H192 0.950 . S
C221 C220 1.397 . S
C221 C222 1.334 . S
C222 H193 0.950 . S
C222 C221 1.334 . S
C222 C223 1.287 . S
C223 C222 1.287 . S
C223 C224 1.524 . S
C223 H226 0.999 . S
C224 H194 0.950 . S
C224 C223 1.524 . S
C224 C225 1.415 . S
C225 H195 0.950 . S
C225 C220 1.363 . S
C225 C224 1.415 . S
H226 C223 0.999 . S
H227 C208 0.913 . S
H228 C246 0.951 . S
H229 C248 0.951 . S
H230 C250 0.950 1_554 S
H231 C251 0.950 . S
H232 C253 0.950 . S
H233 C256 0.950 . S
H234 C257 0.950 . S
H235 C259 0.950 . S
H236 C260 0.950 . S
H237 C261 0.951 . S
H238 C263 0.951 . S
H239 C265 0.950 1_556 S
H240 C266 0.950 . S
H241 C268 0.950 . S
H242 C271 0.950 . S
H243 C272 0.950 . S
H244 C274 0.950 . S
H245 C275 0.950 . S
C246 H228 0.951 . S
C246 C247 1.366 . S
C246 C248 1.388 . S
C247 C246 1.366 . S
C247 C251 1.385 . S
C248 H229 0.951 . S
C248 C246 1.388 . S
C248 C249 1.366 . S
C249 C248 1.366 . S
C249 C250 1.414 . S
C249 C252 1.499 . S
C250 H230 0.950 1_556 S
C250 C249 1.414 . S
C250 C251 1.374 . S
C251 H231 0.950 . S
C251 C247 1.385 . S
C251 C250 1.374 . S
C252 C249 1.499 . S
C252 C253 1.373 1_556 S
C252 C254 1.389 . S
C253 H232 0.950 . S
C253 C252 1.373 1_554 S
C253 C269 1.377 1_565 S
C254 C252 1.389 . S
C254 C255 1.524 . S
C254 C268 1.377 1_565 S
C255 C254 1.524 . S
C255 C256 1.397 . S
C255 C260 1.363 1_565 S
C256 H233 0.950 . S
C256 C255 1.397 . S
C256 C257 1.334 . S
C257 H234 0.950 . S
C257 C256 1.334 . S
C257 C258 1.287 . S
C258 C257 1.287 . S
C258 C259 1.524 1_565 S
C258 H277 0.913 . S
C259 H235 0.950 . S
C259 C258 1.524 1_545 S
C259 C260 1.415 . S
C260 H236 0.950 . S
C260 C255 1.363 1_545 S
C260 C259 1.415 . S
C261 H237 0.951 . S
C261 C262 1.366 . S
C261 C263 1.388 . S
C262 C261 1.366 . S
C262 C266 1.385 . S
C263 H238 0.951 . S
C263 C261 1.388 . S
C263 C264 1.366 . S
C264 C263 1.366 . S
C264 C265 1.414 . S
C264 C267 1.499 . S
C265 H239 0.950 1_554 S
C265 C264 1.414 . S
C265 C266 1.374 . S
C266 H240 0.950 . S
C266 C262 1.385 . S
C266 C265 1.374 . S
C267 C264 1.499 . S
C267 C268 1.373 1_554 S
C267 C269 1.389 . S
C268 H241 0.950 . S
C268 C254 1.377 1_545 S
C268 C267 1.373 1_556 S
C269 C253 1.377 1_545 S
C269 C267 1.389 . S
C269 C270 1.524 . S
C270 C269 1.524 . S
C270 C271 1.397 . S
C270 C275 1.363 1_545 S
C271 H242 0.950 . S
C271 C270 1.397 . S
C271 C272 1.334 . S
C272 H243 0.950 . S
C272 C271 1.334 . S
C272 C273 1.287 . S
C273 C272 1.287 . S
C273 C274 1.524 1_545 S
C273 H276 0.999 . S
C274 H244 0.950 . S
C274 C273 1.524 1_565 S
C274 C275 1.415 . S
C275 H245 0.950 . S
C275 C270 1.363 1_565 S
C275 C274 1.415 . S
H276 C273 0.999 . S
H277 C258 0.913 . S
H278 C296 0.951 . S
H279 C298 0.951 1_556 S
H280 C300 0.950 . S
H281 C301 0.950 . S
H282 C303 0.950 . S
H283 C306 0.950 1_554 S
H284 C307 0.959 . S
H285 C309 0.950 . S
H286 C310 0.950 . S
H287 C311 0.951 . S
H288 C313 0.951 1_554 S
H289 C315 0.950 . S
H290 C316 0.950 . S
H291 C318 0.950 . S
H292 C321 0.950 1_556 S
H293 C322 0.959 . S
H294 C324 0.950 . S
H295 C325 0.950 . S
C296 H278 0.951 . S
C296 C297 1.366 . S
C296 C298 1.388 . S
C297 C296 1.366 . S
C297 C301 1.385 . S
C298 H279 0.951 1_554 S
C298 C296 1.388 . S
C298 C299 1.366 . S
C299 C298 1.366 . S
C299 C300 1.414 . S
C299 C302 1.499 . S
C300 H280 0.950 . S
C300 C299 1.414 . S
C300 C301 1.374 . S
C301 H281 0.950 . S
C301 C297 1.385 . S
C301 C300 1.374 . S
C302 C299 1.499 . S
C302 C303 1.373 1_455 S
C302 C304 1.389 1_554 S
C303 H282 0.950 . S
C303 C302 1.373 1_655 S
C303 C319 1.377 1_565 S
C304 C302 1.389 1_556 S
C304 C305 1.524 . S
C304 C318 1.377 1_565 S
C305 C304 1.524 . S
C305 C306 1.397 . S
C305 C310 1.363 . S
C306 H283 0.950 1_556 S
C306 C305 1.397 . S
C306 C307 1.334 . S
C307 H284 0.959 . S
C307 C306 1.334 . S
C307 C308 1.287 . S
C308 C307 1.287 . S
C308 C309 1.524 . S
C308 H327 0.913 . S
C309 H285 0.950 . S
C309 C308 1.524 . S
C309 C310 1.415 . S
C310 H286 0.950 . S
C310 C305 1.363 . S
C310 C309 1.415 . S
C311 H287 0.951 . S
C311 C312 1.366 . S
C311 C313 1.388 . S
C312 C311 1.366 . S
C312 C316 1.385 . S
C313 H288 0.951 1_556 S
C313 C311 1.388 . S
C313 C314 1.366 . S
C314 C313 1.366 . S
C314 C315 1.414 . S
C314 C317 1.499 . S
C315 H289 0.950 . S
C315 C314 1.414 . S
C315 C316 1.374 . S
C316 H290 0.950 . S
C316 C312 1.385 . S
C316 C315 1.374 . S
C317 C314 1.499 . S
C317 C318 1.373 . S
C317 C319 1.389 1_456 S
C318 H291 0.950 . S
C318 C304 1.377 1_545 S
C318 C317 1.373 . S
C319 C303 1.377 1_545 S
C319 C317 1.389 1_654 S
C319 C320 1.524 . S
C320 C319 1.524 . S
C320 C321 1.397 . S
C320 C325 1.363 . S
C321 H292 0.950 1_554 S
C321 C320 1.397 . S
C321 C322 1.334 . S
C322 H293 0.959 . S
C322 C321 1.334 . S
C322 C323 1.287 . S
C323 C322 1.287 . S
C323 C324 1.524 . S
C323 H326 0.999 . S
C324 H294 0.950 . S
C324 C323 1.524 . S
C324 C325 1.415 . S
C325 H295 0.950 . S
C325 C320 1.363 . S
C325 C324 1.415 . S
H326 C323 0.999 . S
H327 C308 0.913 . S
H328 C346 0.951 . S
H329 C348 0.951 . S
H330 C350 0.950 . S
H331 C351 0.950 . S
H332 C353 0.950 . S
H333 C356 0.950 . S
H334 C357 0.950 . S
H335 C359 0.950 . S
H336 C360 0.950 . S
H337 C361 0.951 . S
H338 C363 0.951 . S
H339 C365 0.950 . S
H340 C366 0.950 . S
H341 C368 0.950 . S
H342 C371 0.950 . S
H343 C372 0.950 . S
H344 C374 0.950 . S
H345 C375 0.950 . S
C346 H328 0.951 . S
C346 C347 1.366 . S
C346 C348 1.388 . S
C347 C346 1.366 . S
C347 C351 1.385 . S
C348 H329 0.951 . S
C348 C346 1.388 . S
C348 C349 1.366 . S
C349 C348 1.366 . S
C349 C350 1.414 . S
C349 C352 1.499 . S
C350 H330 0.950 . S
C350 C349 1.414 . S
C350 C351 1.374 . S
C351 H331 0.950 . S
C351 C347 1.385 . S
C351 C350 1.374 . S
C352 C349 1.499 . S
C352 C353 1.373 . S
C352 C354 1.389 . S
C353 H332 0.950 . S
C353 C352 1.373 . S
C353 C369 1.377 . S
C354 C352 1.389 . S
C354 C355 1.524 . S
C354 C368 1.377 . S
C355 C354 1.524 . S
C355 C356 1.397 . S
C355 C360 1.363 . S
C356 H333 0.950 . S
C356 C355 1.397 . S
C356 C357 1.334 . S
C357 H334 0.950 . S
C357 C356 1.334 . S
C357 C358 1.287 . S
C358 C357 1.287 . S
C358 C359 1.524 . S
C358 H377 0.913 . S
C359 H335 0.950 . S
C359 C358 1.524 . S
C359 C360 1.415 . S
C360 H336 0.950 . S
C360 C355 1.363 . S
C360 C359 1.415 . S
C361 H337 0.951 . S
C361 C362 1.366 . S
C361 C363 1.388 . S
C362 C361 1.366 . S
C362 C366 1.385 . S
C363 H338 0.951 . S
C363 C361 1.388 . S
C363 C364 1.366 . S
C364 C363 1.366 . S
C364 C365 1.414 . S
C364 C367 1.499 . S
C365 H339 0.950 . S
C365 C364 1.414 . S
C365 C366 1.374 . S
C366 H340 0.950 . S
C366 C362 1.385 . S
C366 C365 1.374 . S
C367 C364 1.499 . S
C367 C368 1.373 . S
C367 C369 1.389 . S
C368 H341 0.950 . S
C368 C354 1.377 . S
C368 C367 1.373 . S
C369 C353 1.377 . S
C369 C367 1.389 . S
C369 C370 1.524 . S
C370 C369 1.524 . S
C370 C371 1.397 . S
C370 C375 1.363 . S
C371 H342 0.950 . S
C371 C370 1.397 . S
C371 C372 1.334 . S
C372 H343 0.950 . S
C372 C371 1.334 . S
C372 C373 1.287 . S
C373 C372 1.287 . S
C373 C374 1.524 . S
C373 H376 0.999 . S
C374 H344 0.950 . S
C374 C373 1.524 . S
C374 C375 1.415 . S
C375 H345 0.950 . S
C375 C370 1.363 . S
C375 C374 1.415 . S
H376 C373 0.999 . S
H377 C358 0.913 . S
H378 C396 0.951 . S
H379 C398 0.951 . S
H380 C400 0.950 . S
H381 C401 0.950 . S
H382 C403 0.950 . S
H383 C406 0.950 . S
H384 C407 0.950 . S
H385 C409 0.950 . S
H386 C410 0.950 . S
H387 C411 0.951 . S
H388 C413 0.951 . S
H389 C415 0.950 . S
H390 C416 0.950 . S
H391 C418 0.950 . S
H392 C421 0.950 . S
H393 C422 0.950 . S
H394 C424 0.950 . S
H395 C425 0.950 . S
C396 H378 0.951 . S
C396 C397 1.366 . S
C396 C398 1.388 . S
C397 C396 1.366 . S
C397 C401 1.385 . S
C398 H379 0.951 . S
C398 C396 1.388 . S
C398 C399 1.366 . S
C399 C398 1.366 . S
C399 C400 1.414 . S
C399 C402 1.499 . S
C400 H380 0.950 . S
C400 C399 1.414 . S
C400 C401 1.374 . S
C401 H381 0.950 . S
C401 C397 1.385 . S
C401 C400 1.374 . S
C402 C399 1.499 . S
C402 C403 1.373 . S
C402 C404 1.389 . S
C403 H382 0.950 . S
C403 C402 1.373 . S
C403 C419 1.377 . S
C404 C402 1.389 . S
C404 C405 1.524 . S
C404 C418 1.377 . S
C405 C404 1.524 . S
C405 C406 1.397 . S
C405 C410 1.363 . S
C406 H383 0.950 . S
C406 C405 1.397 . S
C406 C407 1.334 . S
C407 H384 0.950 . S
C407 C406 1.334 . S
C407 C408 1.287 . S
C408 C407 1.287 . S
C408 C409 1.524 . S
C408 H427 0.913 . S
C409 H385 0.950 . S
C409 C408 1.524 . S
C409 C410 1.415 . S
C410 H386 0.950 . S
C410 C405 1.363 . S
C410 C409 1.415 . S
C411 H387 0.951 . S
C411 C412 1.366 . S
C411 C413 1.388 . S
C412 C411 1.366 . S
C412 C416 1.385 . S
C413 H388 0.951 . S
C413 C411 1.388 . S
C413 C414 1.366 . S
C414 C413 1.366 . S
C414 C415 1.414 . S
C414 C417 1.499 . S
C415 H389 0.950 . S
C415 C414 1.414 . S
C415 C416 1.374 . S
C416 H390 0.950 . S
C416 C412 1.385 . S
C416 C415 1.374 . S
C417 C414 1.499 . S
C417 C418 1.373 . S
C417 C419 1.389 . S
C418 H391 0.950 . S
C418 C404 1.377 . S
C418 C417 1.373 . S
C419 C403 1.377 . S
C419 C417 1.389 . S
C419 C420 1.524 . S
C420 C419 1.524 . S
C420 C421 1.397 . S
C420 C425 1.363 . S
C421 H392 0.950 . S
C421 C420 1.397 . S
C421 C422 1.334 . S
C422 H393 0.950 . S
C422 C421 1.334 . S
C422 C423 1.287 . S
C423 C422 1.287 . S
C423 C424 1.524 . S
C423 H426 0.999 . S
C424 H394 0.950 . S
C424 C423 1.524 . S
C424 C425 1.415 . S
C425 H395 0.950 . S
C425 C420 1.363 . S
C425 C424 1.415 . S
H426 C423 0.999 . S
H427 C408 0.913 . S
H428 C446 0.951 . S
H429 C448 0.951 . S
H430 C450 0.950 . S
H431 C451 0.950 . S
H432 C453 0.950 . S
H433 C456 0.950 . S
H434 C457 0.950 . S
H435 C459 0.950 . S
H436 C460 0.950 . S
H437 C461 0.951 . S
H438 C463 0.951 . S
H439 C465 0.950 . S
H440 C466 0.950 . S
H441 C468 0.950 . S
H442 C471 0.950 . S
H443 C472 0.950 . S
H444 C474 0.950 . S
H445 C475 0.950 . S
C446 H428 0.951 . S
C446 C447 1.366 . S
C446 C448 1.388 . S
C447 C446 1.366 . S
C447 C451 1.385 . S
C448 H429 0.951 . S
C448 C446 1.388 . S
C448 C449 1.366 . S
C449 C448 1.366 . S
C449 C450 1.414 . S
C449 C452 1.499 . S
C450 H430 0.950 . S
C450 C449 1.414 . S
C450 C451 1.374 . S
C451 H431 0.950 . S
C451 C447 1.385 . S
C451 C450 1.374 . S
C452 C449 1.499 . S
C452 C453 1.373 . S
C452 C454 1.389 . S
C453 H432 0.950 . S
C453 C452 1.373 . S
C453 C469 1.377 . S
C454 C452 1.389 . S
C454 C455 1.524 . S
C454 C468 1.377 . S
C455 C454 1.524 . S
C455 C456 1.397 . S
C455 C460 1.363 . S
C456 H433 0.950 . S
C456 C455 1.397 . S
C456 C457 1.334 . S
C457 H434 0.950 . S
C457 C456 1.334 . S
C457 C458 1.287 . S
C458 C457 1.287 . S
C458 C459 1.524 . S
C458 H477 0.913 . S
C459 H435 0.950 . S
C459 C458 1.524 . S
C459 C460 1.415 . S
C460 H436 0.950 . S
C460 C455 1.363 . S
C460 C459 1.415 . S
C461 H437 0.951 . S
C461 C462 1.366 . S
C461 C463 1.388 . S
C462 C461 1.366 . S
C462 C466 1.385 . S
C463 H438 0.951 . S
C463 C461 1.388 . S
C463 C464 1.366 . S
C464 C463 1.366 . S
C464 C465 1.414 . S
C464 C467 1.499 . S
C465 H439 0.950 . S
C465 C464 1.414 . S
C465 C466 1.374 . S
C466 H440 0.950 . S
C466 C462 1.385 . S
C466 C465 1.374 . S
C467 C464 1.499 . S
C467 C468 1.373 . S
C467 C469 1.389 . S
C468 H441 0.950 . S
C468 C454 1.377 . S
C468 C467 1.373 . S
C469 C453 1.377 . S
C469 C467 1.389 . S
C469 C470 1.524 . S
C470 C469 1.524 . S
C470 C471 1.397 . S
C470 C475 1.363 . S
C471 H442 0.950 . S
C471 C470 1.397 . S
C471 C472 1.334 . S
C472 H443 0.950 . S
C472 C471 1.334 . S
C472 C473 1.287 . S
C473 C472 1.287 . S
C473 C474 1.524 . S
C473 H476 0.999 . S
C474 H444 0.950 . S
C474 C473 1.524 . S
C474 C475 1.415 . S
C475 H445 0.950 . S
C475 C470 1.363 . S
C475 C474 1.415 . S
H476 C473 0.999 . S
H477 C458 0.913 . S
H478 C496 0.951 . S
H479 C498 0.951 . S
H480 C500 0.950 . S
H481 C501 0.950 . S
H482 C503 0.950 . S
H483 C506 0.950 . S
H484 C507 0.950 . S
H485 C509 0.950 . S
H486 C510 0.950 . S
H487 C511 0.951 . S
H488 C513 0.951 . S
H489 C515 0.950 . S
H490 C516 0.950 . S
H491 C518 0.950 . S
H492 C521 0.950 . S
H493 C522 0.950 . S
H494 C524 0.950 . S
H495 C525 0.950 . S
C496 H478 0.951 . S
C496 C497 1.366 . S
C496 C498 1.388 . S
C497 C496 1.366 . S
C497 C501 1.385 . S
C498 H479 0.951 . S
C498 C496 1.388 . S
C498 C499 1.366 . S
C499 C498 1.366 . S
C499 C500 1.414 . S
C499 C502 1.499 . S
C500 H480 0.950 . S
C500 C499 1.414 . S
C500 C501 1.374 . S
C501 H481 0.950 . S
C501 C497 1.385 . S
C501 C500 1.374 . S
C502 C499 1.499 . S
C502 C503 1.373 . S
C502 C504 1.389 . S
C503 H482 0.950 . S
C503 C502 1.373 . S
C503 C519 1.377 . S
C504 C502 1.389 . S
C504 C505 1.524 . S
C504 C518 1.377 . S
C505 C504 1.524 . S
C505 C506 1.397 . S
C505 C510 1.363 . S
C506 H483 0.950 . S
C506 C505 1.397 . S
C506 C507 1.334 . S
C507 H484 0.950 . S
C507 C506 1.334 . S
C507 C508 1.287 . S
C508 C507 1.287 . S
C508 C509 1.524 . S
C508 H527 0.913 . S
C509 H485 0.950 . S
C509 C508 1.524 . S
C509 C510 1.415 . S
C510 H486 0.950 . S
C510 C505 1.363 . S
C510 C509 1.415 . S
C511 H487 0.951 . S
C511 C512 1.366 . S
C511 C513 1.388 . S
C512 C511 1.366 . S
C512 C516 1.385 . S
C513 H488 0.951 . S
C513 C511 1.388 . S
C513 C514 1.366 . S
C514 C513 1.366 . S
C514 C515 1.414 . S
C514 C517 1.499 . S
C515 H489 0.950 . S
C515 C514 1.414 . S
C515 C516 1.374 . S
C516 H490 0.950 . S
C516 C512 1.385 . S
C516 C515 1.374 . S
C517 C514 1.499 . S
C517 C518 1.373 . S
C517 C519 1.389 . S
C518 H491 0.950 . S
C518 C504 1.377 . S
C518 C517 1.373 . S
C519 C503 1.377 . S
C519 C517 1.389 . S
C519 C520 1.524 . S
C520 C519 1.524 . S
C520 C521 1.397 . S
C520 C525 1.363 . S
C521 H492 0.950 . S
C521 C520 1.397 . S
C521 C522 1.334 . S
C522 H493 0.950 . S
C522 C521 1.334 . S
C522 C523 1.287 . S
C523 C522 1.287 . S
C523 C524 1.524 . S
C523 H526 0.999 . S
C524 H494 0.950 . S
C524 C523 1.524 . S
C524 C525 1.415 . S
C525 H495 0.950 . S
C525 C520 1.363 . S
C525 C524 1.415 . S
H526 C523 0.999 . S
H527 C508 0.913 . S
H528 C546 0.951 . S
H529 C548 0.951 . S
H530 C550 0.950 . S
H531 C551 0.950 . S
H532 C553 0.950 . S
H533 C556 0.950 . S
H534 C557 0.950 . S
H535 C559 0.950 . S
H536 C560 0.950 . S
H537 C561 0.951 . S
H538 C563 0.951 . S
H539 C565 0.950 . S
H540 C566 0.950 . S
H541 C568 0.950 . S
H542 C571 0.950 . S
H543 C572 0.950 . S
H544 C574 0.950 . S
H545 C575 0.950 . S
C546 H528 0.951 . S
C546 C547 1.366 . S
C546 C548 1.388 . S
C547 C546 1.366 . S
C547 C551 1.385 . S
C548 H529 0.951 . S
C548 C546 1.388 . S
C548 C549 1.366 . S
C549 C548 1.366 . S
C549 C550 1.414 . S
C549 C552 1.499 . S
C550 H530 0.950 . S
C550 C549 1.414 . S
C550 C551 1.374 . S
C551 H531 0.950 . S
C551 C547 1.385 . S
C551 C550 1.374 . S
C552 C549 1.499 . S
C552 C553 1.373 1_556 S
C552 C554 1.389 . S
C553 H532 0.950 . S
C553 C552 1.373 1_554 S
C553 C569 1.377 . S
C554 C552 1.389 . S
C554 C555 1.524 . S
C554 C568 1.377 . S
C555 C554 1.524 . S
C555 C556 1.397 . S
C555 C560 1.363 . S
C556 H533 0.950 . S
C556 C555 1.397 . S
C556 C557 1.334 . S
C557 H534 0.950 . S
C557 C556 1.334 . S
C557 C558 1.287 . S
C558 C557 1.287 . S
C558 C559 1.524 . S
C558 H577 0.913 . S
C559 H535 0.950 . S
C559 C558 1.524 . S
C559 C560 1.415 . S
C560 H536 0.950 . S
C560 C555 1.363 . S
C560 C559 1.415 . S
C561 H537 0.951 . S
C561 C562 1.366 . S
C561 C563 1.388 . S
C562 C561 1.366 . S
C562 C566 1.385 . S
C563 H538 0.951 . S
C563 C561 1.388 . S
C563 C564 1.366 . S
C564 C563 1.366 . S
C564 C565 1.414 . S
C564 C567 1.499 . S
C565 H539 0.950 . S
C565 C564 1.414 . S
C565 C566 1.374 . S
C566 H540 0.950 . S
C566 C562 1.385 . S
C566 C565 1.374 . S
C567 C564 1.499 . S
C567 C568 1.373 1_554 S
C567 C569 1.389 . S
C568 H541 0.950 . S
C568 C554 1.377 . S
C568 C567 1.373 1_556 S
C569 C553 1.377 . S
C569 C567 1.389 . S
C569 C570 1.524 . S
C570 C569 1.524 . S
C570 C571 1.397 . S
C570 C575 1.363 . S
C571 H542 0.950 . S
C571 C570 1.397 . S
C571 C572 1.334 . S
C572 H543 0.950 . S
C572 C571 1.334 . S
C572 C573 1.287 . S
C573 C572 1.287 . S
C573 C574 1.524 . S
C573 H576 0.999 . S
C574 H544 0.950 . S
C574 C573 1.524 . S
C574 C575 1.415 . S
C575 H545 0.950 . S
C575 C570 1.363 . S
C575 C574 1.415 . S
H576 C573 0.999 . S
H577 C558 0.913 . S
H578 C596 0.951 . S
H579 C598 0.951 1_554 S
H580 C600 0.950 . S
H581 C601 0.950 . S
H582 C603 0.950 . S
H583 C606 0.950 . S
H584 C607 0.950 . S
H585 C609 0.950 . S
H586 C610 0.950 1_554 S
H587 C611 0.951 . S
H588 C613 0.951 1_556 S
H589 C615 0.950 . S
H590 C616 0.950 . S
H591 C618 0.950 . S
H592 C621 0.950 . S
H593 C622 0.950 . S
H594 C624 0.950 . S
H595 C625 0.950 1_556 S
C596 H578 0.951 . S
C596 C597 1.366 . S
C596 C598 1.388 . S
C597 C596 1.366 . S
C597 C601 1.385 . S
C598 H579 0.951 1_556 S
C598 C596 1.388 . S
C598 C599 1.366 . S
C599 C598 1.366 . S
C599 C600 1.414 . S
C599 C602 1.499 . S
C600 H580 0.950 . S
C600 C599 1.414 . S
C600 C601 1.374 . S
C601 H581 0.950 . S
C601 C597 1.385 . S
C601 C600 1.374 . S
C602 C599 1.499 . S
C602 C603 1.376 . S
C602 C604 1.389 . S
C603 H582 0.950 . S
C603 C602 1.376 . S
C603 C619 1.374 1_556 S
C604 C602 1.389 . S
C604 C605 1.524 . S
C604 C618 1.374 1_556 S
C605 C604 1.524 . S
C605 C606 1.397 . S
C605 C610 1.363 . S
C606 H583 0.950 . S
C606 C605 1.397 . S
C606 C607 1.334 . S
C607 H584 0.950 . S
C607 C606 1.334 . S
C607 C608 1.287 . S
C608 C607 1.287 . S
C608 C609 1.524 . S
C608 H627 0.913 . S
C609 H585 0.950 . S
C609 C608 1.524 . S
C609 C610 1.415 . S
C610 H586 0.950 1_556 S
C610 C605 1.363 . S
C610 C609 1.415 . S
C611 H587 0.951 . S
C611 C612 1.366 . S
C611 C613 1.388 . S
C612 C611 1.366 . S
C612 C616 1.385 . S
C613 H588 0.951 1_554 S
C613 C611 1.388 . S
C613 C614 1.366 . S
C614 C613 1.366 . S
C614 C615 1.414 . S
C614 C617 1.499 . S
C615 H589 0.950 . S
C615 C614 1.414 . S
C615 C616 1.374 . S
C616 H590 0.950 . S
C616 C612 1.385 . S
C616 C615 1.374 . S
C617 C614 1.499 . S
C617 C618 1.376 . S
C617 C619 1.389 . S
C618 H591 0.950 . S
C618 C604 1.374 1_554 S
C618 C617 1.376 . S
C619 C603 1.374 1_554 S
C619 C617 1.389 . S
C619 C620 1.524 . S
C620 C619 1.524 . S
C620 C621 1.397 . S
C620 C625 1.363 . S
C621 H592 0.950 . S
C621 C620 1.397 . S
C621 C622 1.334 . S
C622 H593 0.950 . S
C622 C621 1.334 . S
C622 C623 1.287 . S
C623 C622 1.287 . S
C623 C624 1.524 . S
C623 H626 0.999 . S
C624 H594 0.950 . S
C624 C623 1.524 . S
C624 C625 1.415 . S
C625 H595 0.950 1_554 S
C625 C620 1.363 . S
C625 C624 1.415 . S
H626 C623 0.999 . S
H627 C608 0.913 . S
H628 C646 0.951 . S
H629 C648 0.951 . S
H630 C650 0.950 . S
H631 C651 0.950 . S
H632 C653 0.950 . S
H633 C656 0.950 . S
H634 C657 0.950 . S
H635 C659 0.950 . S
H636 C660 0.950 . S
H637 C661 0.951 . S
H638 C663 0.951 . S
H639 C665 0.950 . S
H640 C666 0.950 . S
H641 C668 0.950 . S
H642 C671 0.950 . S
H643 C672 0.950 . S
H644 C674 0.950 . S
H645 C675 0.950 . S
C646 H628 0.951 . S
C646 C647 1.366 . S
C646 C648 1.388 . S
C647 C646 1.366 . S
C647 C651 1.385 . S
C648 H629 0.951 . S
C648 C646 1.388 . S
C648 C649 1.366 . S
C649 C648 1.366 . S
C649 C650 1.414 . S
C649 C652 1.499 . S
C650 H630 0.950 . S
C650 C649 1.414 . S
C650 C651 1.374 . S
C651 H631 0.950 . S
C651 C647 1.385 . S
C651 C650 1.374 . S
C652 C649 1.499 . S
C652 C653 1.373 1_554 S
C652 C654 1.389 . S
C653 H632 0.950 . S
C653 C652 1.373 1_556 S
C653 C669 1.377 . S
C654 C652 1.389 . S
C654 C655 1.524 . S
C654 C668 1.377 . S
C655 C654 1.524 . S
C655 C656 1.397 . S
C655 C660 1.363 . S
C656 H633 0.950 . S
C656 C655 1.397 . S
C656 C657 1.334 . S
C657 H634 0.950 . S
C657 C656 1.334 . S
C657 C658 1.287 . S
C658 C657 1.287 . S
C658 C659 1.524 . S
C658 H677 0.913 . S
C659 H635 0.950 . S
C659 C658 1.524 . S
C659 C660 1.415 . S
C660 H636 0.950 . S
C660 C655 1.363 . S
C660 C659 1.415 . S
C661 H637 0.951 . S
C661 C662 1.366 . S
C661 C663 1.388 . S
C662 C661 1.366 . S
C662 C666 1.385 . S
C663 H638 0.951 . S
C663 C661 1.388 . S
C663 C664 1.366 . S
C664 C663 1.366 . S
C664 C665 1.414 . S
C664 C667 1.499 . S
C665 H639 0.950 . S
C665 C664 1.414 . S
C665 C666 1.374 . S
C666 H640 0.950 . S
C666 C662 1.385 . S
C666 C665 1.374 . S
C667 C664 1.499 . S
C667 C668 1.373 1_556 S
C667 C669 1.389 . S
C668 H641 0.950 . S
C668 C654 1.377 . S
C668 C667 1.373 1_554 S
C669 C653 1.377 . S
C669 C667 1.389 . S
C669 C670 1.524 . S
C670 C669 1.524 . S
C670 C671 1.397 . S
C670 C675 1.363 . S
C671 H642 0.950 . S
C671 C670 1.397 . S
C671 C672 1.334 . S
C672 H643 0.950 . S
C672 C671 1.334 . S
C672 C673 1.287 . S
C673 C672 1.287 . S
C673 C674 1.524 . S
C673 H676 0.999 . S
C674 H644 0.950 . S
C674 C673 1.524 . S
C674 C675 1.415 . S
C675 H645 0.950 . S
C675 C670 1.363 . S
C675 C674 1.415 . S
H676 C673 0.999 . S
H677 C658 0.913 . S
H678 C696 0.951 1_556 S
H679 C698 0.951 . S
H680 C700 0.950 . S
H681 C701 0.950 . S
H682 C703 0.950 . S
H683 C706 0.950 1_554 S
H684 C707 0.950 . S
H685 C709 0.950 . S
H686 C710 0.950 . S
H687 C711 0.951 1_554 S
H688 C713 0.951 . S
H689 C715 0.950 . S
H690 C716 0.950 . S
H691 C718 0.950 . S
H692 C721 0.950 1_556 S
H693 C722 0.950 . S
H694 C724 0.950 . S
H695 C725 0.950 . S
C696 H678 0.951 1_554 S
C696 C697 1.366 . S
C696 C698 1.388 1_554 S
C697 C696 1.366 . S
C697 C701 1.385 . S
C698 H679 0.951 . S
C698 C696 1.388 1_556 S
C698 C699 1.366 1_556 S
C699 C698 1.366 1_554 S
C699 C700 1.414 . S
C699 C702 1.499 . S
C700 H680 0.950 . S
C700 C699 1.414 . S
C700 C701 1.374 . S
C701 H681 0.950 . S
C701 C697 1.385 . S
C701 C700 1.374 . S
C702 C699 1.499 . S
C702 C703 1.373 . S
C702 C704 1.389 1_554 S
C703 H682 0.950 . S
C703 C702 1.373 . S
C703 C719 1.377 . S
C704 C702 1.389 1_556 S
C704 C705 1.524 . S
C704 C718 1.377 . S
C705 C704 1.524 . S
C705 C706 1.397 . S
C705 C710 1.363 . S
C706 H683 0.950 1_556 S
C706 C705 1.397 . S
C706 C707 1.334 . S
C707 H684 0.950 . S
C707 C706 1.334 . S
C707 C708 1.287 . S
C708 C707 1.287 . S
C708 C709 1.524 . S
C708 H727 0.913 . S
C709 H685 0.950 . S
C709 C708 1.524 . S
C709 C710 1.415 . S
C710 H686 0.950 . S
C710 C705 1.363 . S
C710 C709 1.415 . S
C711 H687 0.951 1_556 S
C711 C712 1.366 . S
C711 C713 1.388 1_556 S
C712 C711 1.366 . S
C712 C716 1.385 . S
C713 H688 0.951 . S
C713 C711 1.388 1_554 S
C713 C714 1.366 1_554 S
C714 C713 1.366 1_556 S
C714 C715 1.414 . S
C714 C717 1.499 . S
C715 H689 0.950 . S
C715 C714 1.414 . S
C715 C716 1.374 . S
C716 H690 0.950 . S
C716 C712 1.385 . S
C716 C715 1.374 . S
C717 C714 1.499 . S
C717 C718 1.373 . S
C717 C719 1.389 1_556 S
C718 H691 0.950 . S
C718 C704 1.377 . S
C718 C717 1.373 . S
C719 C703 1.377 . S
C719 C717 1.389 1_554 S
C719 C720 1.524 . S
C720 C719 1.524 . S
C720 C721 1.397 . S
C720 C725 1.363 . S
C721 H692 0.950 1_554 S
C721 C720 1.397 . S
C721 C722 1.334 . S
C722 H693 0.950 . S
C722 C721 1.334 . S
C722 C723 1.287 . S
C723 C722 1.287 . S
C723 C724 1.524 . S
C723 H726 0.999 . S
C724 H694 0.950 . S
C724 C723 1.524 . S
C724 C725 1.415 . S
C725 H695 0.950 . S
C725 C720 1.363 . S
C725 C724 1.415 . S
H726 C723 0.999 . S
H727 C708 0.913 . S
C147 N82 2.000 . S
C162 N13 2.000 . S
C197 N45 2.000 . S
C212 N109 2.000 . S
C247 N114 2.000 . S
C262 N50 1.999 . S
C297 N18 1.999 . S
C312 N77 2.000 . S
C347 C100 1.603 . S
C362 C4 1.603 . S
C397 C93 1.603 . S
C412 C36 1.603 . S
C447 C68 1.603 . S
C462 C61 1.603 . S
C497 C29 1.603 . S
C512 C125 1.603 . S
C547 C98 0.467 . S
C562 C2 0.467 . S
C597 C70 0.467 . S
C612 C34 0.467 . S
C647 C38 0.467 . S
C662 C66 0.467 . S
C697 C6 0.466 . S
C712 C102 0.466 . S
