# Generated by pormake.
# Topology sxg, (6)-cn, num edge types: 1
# Building blocks:
#     Node 0, Type 0, BuildingBlock: KUMBOL_clean_sbu_0, # of connection points: 6
#     Node 1, Type 0, BuildingBlock: KUMBOL_clean_sbu_0, # of connection points: 6
#     Node 2, Type 0, BuildingBlock: KUMBOL_clean_sbu_0, # of connection points: 6
#     Node 3, Type 0, BuildingBlock: KUMBOL_clean_sbu_0, # of connection points: 6
#     Node 4, Type 0, BuildingBlock: KUMBOL_clean_sbu_0, # of connection points: 6
#     Node 5, Type 0, BuildingBlock: KUMBOL_clean_sbu_0, # of connection points: 6
#     Node 6, Type 0, BuildingBlock: KUMBOL_clean_sbu_0, # of connection points: 6
#     Node 7, Type 0, BuildingBlock: KUMBOL_clean_sbu_0, # of connection points: 6
#     Node 8, Type 0, BuildingBlock: KUMBOL_clean_sbu_0, # of connection points: 6
#     Node 9, Type 0, BuildingBlock: KUMBOL_clean_sbu_0, # of connection points: 6
#     Node 10, Type 0, BuildingBlock: KUMBOL_clean_sbu_0, # of connection points: 6
#     Node 11, Type 0, BuildingBlock: KUMBOL_clean_sbu_0, # of connection points: 6
#     Node 12, Type 0, BuildingBlock: KUMBOL_clean_sbu_0, # of connection points: 6
#     Node 13, Type 0, BuildingBlock: KUMBOL_clean_sbu_0, # of connection points: 6
#     Node 14, Type 0, BuildingBlock: KUMBOL_clean_sbu_0, # of connection points: 6
#     Node 15, Type 0, BuildingBlock: KUMBOL_clean_sbu_0, # of connection points: 6
#     Node 16, Type 0, BuildingBlock: KUMBOL_clean_sbu_0, # of connection points: 6
#     Node 17, Type 0, BuildingBlock: KUMBOL_clean_sbu_0, # of connection points: 6
#     Node 18, Type 0, BuildingBlock: KUMBOL_clean_sbu_0, # of connection points: 6
#     Node 19, Type 0, BuildingBlock: KUMBOL_clean_sbu_0, # of connection points: 6
#     Node 20, Type 0, BuildingBlock: KUMBOL_clean_sbu_0, # of connection points: 6
#     Node 21, Type 0, BuildingBlock: KUMBOL_clean_sbu_0, # of connection points: 6
#     Node 22, Type 0, BuildingBlock: KUMBOL_clean_sbu_0, # of connection points: 6
#     Node 23, Type 0, BuildingBlock: KUMBOL_clean_sbu_0, # of connection points: 6
#     Edge 24, Type (0, 0), None
#     Edge 25, Type (0, 0), None
#     Edge 26, Type (0, 0), None
#     Edge 27, Type (0, 0), None
#     Edge 28, Type (0, 0), None
#     Edge 29, Type (0, 0), None
#     Edge 30, Type (0, 0), None
#     Edge 31, Type (0, 0), None
#     Edge 32, Type (0, 0), None
#     Edge 33, Type (0, 0), None
#     Edge 34, Type (0, 0), None
#     Edge 35, Type (0, 0), None
#     Edge 36, Type (0, 0), None
#     Edge 37, Type (0, 0), None
#     Edge 38, Type (0, 0), None
#     Edge 39, Type (0, 0), None
#     Edge 40, Type (0, 0), None
#     Edge 41, Type (0, 0), None
#     Edge 42, Type (0, 0), None
#     Edge 43, Type (0, 0), None
#     Edge 44, Type (0, 0), None
#     Edge 45, Type (0, 0), None
#     Edge 46, Type (0, 0), None
#     Edge 47, Type (0, 0), None
#     Edge 48, Type (0, 0), None
#     Edge 49, Type (0, 0), None
#     Edge 50, Type (0, 0), None
#     Edge 51, Type (0, 0), None
#     Edge 52, Type (0, 0), None
#     Edge 53, Type (0, 0), None
#     Edge 54, Type (0, 0), None
#     Edge 55, Type (0, 0), None
#     Edge 56, Type (0, 0), None
#     Edge 57, Type (0, 0), None
#     Edge 58, Type (0, 0), None
#     Edge 59, Type (0, 0), None
#     Edge 60, Type (0, 0), None
#     Edge 61, Type (0, 0), None
#     Edge 62, Type (0, 0), None
#     Edge 63, Type (0, 0), None
#     Edge 64, Type (0, 0), None
#     Edge 65, Type (0, 0), None
#     Edge 66, Type (0, 0), None
#     Edge 67, Type (0, 0), None
#     Edge 68, Type (0, 0), None
#     Edge 69, Type (0, 0), None
#     Edge 70, Type (0, 0), None
#     Edge 71, Type (0, 0), None
#     Edge 72, Type (0, 0), None
#     Edge 73, Type (0, 0), None
#     Edge 74, Type (0, 0), None
#     Edge 75, Type (0, 0), None
#     Edge 76, Type (0, 0), None
#     Edge 77, Type (0, 0), None
#     Edge 78, Type (0, 0), None
#     Edge 79, Type (0, 0), None
#     Edge 80, Type (0, 0), None
#     Edge 81, Type (0, 0), None
#     Edge 82, Type (0, 0), None
#     Edge 83, Type (0, 0), None
#     Edge 84, Type (0, 0), None
#     Edge 85, Type (0, 0), None
#     Edge 86, Type (0, 0), None
#     Edge 87, Type (0, 0), None
#     Edge 88, Type (0, 0), None
#     Edge 89, Type (0, 0), None
#     Edge 90, Type (0, 0), None
#     Edge 91, Type (0, 0), None
#     Edge 92, Type (0, 0), None
#     Edge 93, Type (0, 0), None
#     Edge 94, Type (0, 0), None
#     Edge 95, Type (0, 0), None
# Relax obj value: 0.152
# Max RMSD: 0.245
# Mean RMSD: 0.245
data_MOF--net-sxg--node1-KUMBOL_clean_sbu_0--edge1-none
_symmetry_space_group_name_H-M    P1
_symmetry_Int_Tables_number       1
_symmetry_cell_setting            triclinic
loop_
_symmetry_equiv_pos_as_xyz
'x, y, z'
_cell_length_a     28.439226
_cell_length_b     28.439288
_cell_length_c     28.439219
_cell_angle_alpha  90.000001
_cell_angle_beta   90.000001
_cell_angle_gamma 90.000001
loop_
_atom_site_label
_atom_site_type_symbol
_atom_site_fract_x
_atom_site_fract_y
_atom_site_fract_z
_atom_type_partial_charge
Gd0 Gd 0.10613 0.34989 0.34476 0.0
Gd1 Gd 0.02638 0.43291 0.29842 0.0
C2 C 0.05448 0.52701 0.15961 0.0
C3 C 0.06865 0.63274 0.19088 0.0
C4 C 0.04791 0.53417 0.26543 0.0
C5 C 0.04814 0.50136 0.21475 0.0
C6 C 0.06068 0.62066 0.25103 0.0
C7 C 0.06481 0.58787 0.14838 0.0
C8 C 0.04068 0.49777 0.12348 0.0
C9 C 0.02889 0.45082 0.13267 0.0
N10 N 0.03923 0.45543 0.21831 0.0
C11 C 0.02932 0.43058 0.17802 0.0
H12 H 1.01816 0.3946 0.17997 0.0
C13 C 0.04122 0.54617 0.3562 0.0
N14 N 0.0412 0.51487 0.31258 0.0
C15 C 0.05346 0.63656 0.34497 0.0
C16 C 0.06022 0.65668 0.2929 0.0
H17 H 0.03611 0.5258 0.38862 0.0
H18 H 0.07303 0.59726 0.11343 0.0
H19 H 0.09468 0.44516 0.44167 0.0
H20 H 0.03914 0.51102 0.08784 0.0
H21 H 0.01884 0.42882 0.10326 0.0
H22 H 0.07661 0.66794 0.17972 0.0
H23 H 0.0455 0.2531 0.29915 0.0
H24 H 0.10866 0.36401 0.59347 0.0
H25 H 0.10886 0.44456 0.53679 0.0
H26 H 0.07402 0.17978 0.54817 0.0
H27 H 0.05807 0.6642 0.37087 0.0
H28 H 0.06556 0.69384 0.28671 0.0
H29 H 0.09044 0.25338 0.59327 0.0
H30 H 0.04331 0.17533 0.3223 0.0
N31 N 0.08589 0.36456 0.4251 0.0
C32 C 0.10187 0.36029 0.55646 0.0
C33 C 0.103 0.41102 0.52012 0.0
C34 C 0.09118 0.30423 0.53132 0.0
C35 C 0.08016 0.31222 0.44312 0.0
C36 C 0.09453 0.41105 0.45772 0.0
N37 N 0.06436 0.28078 0.3659 0.0
C38 C 0.06873 0.27073 0.41172 0.0
C39 C 0.04663 0.2011 0.34971 0.0
C40 C 0.0524 0.18669 0.39604 0.0
C41 C 0.04963 0.24718 0.33585 0.0
C42 C 0.06328 0.21871 0.43466 0.0
H43 H 0.04863 0.14913 0.39918 0.0
O44 O 0.15226 0.2974 0.31259 0.0
O45 O 0.09456 0.39284 0.28081 0.0
O46 O 1.01199 0.36493 0.25632 0.0
O47 O 0.0779 0.32156 0.27504 0.0
O48 O 0.1614 0.39414 0.30959 0.0
O49 O 0.1636 0.31412 0.3838 0.0
O50 O 0.95248 0.44162 0.31938 0.0
O51 O 0.02819 0.36822 0.34651 0.0
O52 O 0.13563 0.42094 0.37149 0.0
O53 O 0.09107 0.47553 0.32951 0.0
O54 O 0.99919 0.42846 0.37325 0.0
O55 O 0.97017 0.45201 0.24807 0.0
C56 C 0.1378 0.40475 0.27223 0.0
C57 C 0.07566 0.21058 0.52484 0.0
C58 C 0.08722 0.25561 0.55595 0.0
C59 C 0.17616 0.28637 0.3499 0.0
C60 C 0.184 0.2339 0.35908 0.0
C61 C 0.15397 0.20234 0.3364 0.0
C62 C 0.22266 0.21349 0.385 0.0
C63 C 0.2273 0.16282 0.39012 0.0
C64 C 0.15521 0.15463 0.34607 0.0
C65 C 0.19095 0.13517 0.37252 0.0
C66 C 0.03938 0.32796 0.24919 0.0
C67 C 1.00463 0.38416 0.38191 0.0
C68 C 0.93629 0.45288 0.27811 0.0
C69 C 0.901 0.49251 0.27518 0.0
C70 C 0.90393 0.52806 0.30893 0.0
C71 C 0.86294 0.49443 0.24178 0.0
C72 C 0.82904 0.53195 0.24325 0.0
C73 C 0.87062 0.56372 0.31122 0.0
C74 C 0.83436 0.56599 0.27886 0.0
C75 C 0.12677 0.46549 0.35893 0.0
H76 H 0.12936 0.21435 0.31027 0.0
H77 H 0.24966 0.23637 0.39901 0.0
H78 H 0.12901 0.13211 0.33161 0.0
H79 H 0.19199 0.09773 0.37542 0.0
H80 H 0.93139 0.52698 0.33511 0.0
H81 H 0.8597 0.46712 0.21546 0.0
H82 H 0.8725 0.59012 0.33841 0.0
H83 H 0.81022 0.59522 0.28232 0.0
Gd84 Gd 0.4312 0.68744 0.84476 0.0
Gd85 Gd 0.51095 0.60442 0.79842 0.0
C86 C 0.48286 0.51032 0.65961 0.0
C87 C 0.46868 0.40459 0.69088 0.0
C88 C 0.48942 0.50317 0.76543 0.0
C89 C 0.4892 0.53597 0.71475 0.0
C90 C 0.47666 0.41667 0.75103 0.0
C91 C 0.47253 0.44946 0.64838 0.0
C92 C 0.49665 0.53957 0.62348 0.0
C93 C 0.50845 0.58652 0.63267 0.0
N94 N 0.49811 0.58191 0.71831 0.0
C95 C 0.50802 0.60676 0.67802 0.0
H96 H 0.51918 0.64273 0.67997 0.0
C97 C 0.49611 0.49116 0.8562 0.0
N98 N 0.49614 0.52246 0.81258 0.0
C99 C 0.48387 0.40077 0.84497 0.0
C100 C 0.47711 0.38065 0.7929 0.0
H101 H 0.50123 0.51154 0.88862 0.0
H102 H 0.4643 0.44007 0.61343 0.0
H103 H 0.44265 0.59217 0.94167 0.0
H104 H 0.4982 0.52631 0.58784 0.0
H105 H 0.5185 0.60852 0.60326 0.0
H106 H 0.46072 0.36939 0.67972 0.0
H107 H 0.49183 0.78424 0.79915 0.0
H108 H 0.42867 0.67332 0.09347 0.0
H109 H 0.42847 0.59278 0.03679 0.0
H110 H 0.46331 0.85755 0.04817 0.0
H111 H 0.47926 0.37313 0.87087 0.0
H112 H 0.47178 0.3435 0.78671 0.0
H113 H 0.44689 0.78396 0.09327 0.0
H114 H 0.49402 0.862 0.8223 0.0
N115 N 0.45145 0.67277 0.9251 0.0
C116 C 0.43547 0.67704 0.05646 0.0
C117 C 0.43433 0.62631 0.02012 0.0
C118 C 0.44615 0.7331 0.03132 0.0
C119 C 0.45718 0.72511 0.94312 0.0
C120 C 0.44281 0.62629 0.95772 0.0
N121 N 0.47298 0.75655 0.8659 0.0
C122 C 0.4686 0.7666 0.91172 0.0
C123 C 0.4907 0.83623 0.84971 0.0
C124 C 0.48494 0.85064 0.89604 0.0
C125 C 0.48771 0.79015 0.83585 0.0
C126 C 0.47405 0.81862 0.93466 0.0
H127 H 0.48871 0.88821 0.89918 0.0
O128 O 0.38507 0.73993 0.81259 0.0
O129 O 0.44278 0.6445 0.78081 0.0
O130 O 0.52535 0.67241 0.75632 0.0
O131 O 0.45943 0.71578 0.77504 0.0
O132 O 0.37594 0.64319 0.80959 0.0
O133 O 0.37374 0.72322 0.8838 0.0
O134 O 0.58486 0.59571 0.81938 0.0
O135 O 0.50914 0.66911 0.84651 0.0
O136 O 0.4017 0.6164 0.87149 0.0
O137 O 0.44627 0.5618 0.82951 0.0
O138 O 0.53814 0.60887 0.87325 0.0
O139 O 0.56716 0.58532 0.74807 0.0
C140 C 0.39953 0.63259 0.77223 0.0
C141 C 0.46167 0.82676 0.02484 0.0
C142 C 0.45012 0.78172 0.05595 0.0
C143 C 0.36117 0.75096 0.8499 0.0
C144 C 0.35333 0.80344 0.85908 0.0
C145 C 0.38336 0.83499 0.8364 0.0
C146 C 0.31467 0.82384 0.885 0.0
C147 C 0.31003 0.87451 0.89012 0.0
C148 C 0.38212 0.8827 0.84607 0.0
C149 C 0.34638 0.90216 0.87252 0.0
C150 C 0.49796 0.70937 0.74919 0.0
C151 C 0.53271 0.65318 0.88191 0.0
C152 C 0.60104 0.58445 0.77811 0.0
C153 C 0.63633 0.54482 0.77518 0.0
C154 C 0.6334 0.50927 0.80893 0.0
C155 C 0.67439 0.54291 0.74178 0.0
C156 C 0.7083 0.50538 0.74325 0.0
C157 C 0.66672 0.47361 0.81122 0.0
C158 C 0.70297 0.47134 0.77886 0.0
C159 C 0.41057 0.57184 0.85893 0.0
H160 H 0.40798 0.82298 0.81027 0.0
H161 H 0.28767 0.80096 0.89901 0.0
H162 H 0.40833 0.90522 0.83161 0.0
H163 H 0.34534 0.9396 0.87542 0.0
H164 H 0.60595 0.51035 0.83511 0.0
H165 H 0.67763 0.57021 0.71546 0.0
H166 H 0.66484 0.44721 0.83841 0.0
H167 H 0.72712 0.44212 0.78232 0.0
Gd168 Gd 0.60613 0.18744 0.69258 0.0
Gd169 Gd 0.52638 0.10442 0.73892 0.0
C170 C 0.55448 1.01032 0.87773 0.0
C171 C 0.56865 0.90459 0.84645 0.0
C172 C 0.54791 1.00317 0.77191 0.0
C173 C 0.54814 0.03597 0.82258 0.0
C174 C 0.56068 0.91667 0.78631 0.0
C175 C 0.56481 0.94946 0.88896 0.0
C176 C 0.54068 0.03957 0.91385 0.0
C177 C 0.52889 0.08652 0.90466 0.0
N178 N 0.53923 0.08191 0.81902 0.0
C179 C 0.52932 0.10676 0.85932 0.0
H180 H 0.51816 0.14273 0.85737 0.0
C181 C 0.54122 0.99116 0.68113 0.0
N182 N 0.5412 0.02246 0.72475 0.0
C183 C 0.55346 0.90077 0.69236 0.0
C184 C 0.56022 0.88065 0.74444 0.0
H185 H 0.53611 1.01154 0.64871 0.0
H186 H 0.57303 0.94007 0.9239 0.0
H187 H 0.59468 0.09217 0.59567 0.0
H188 H 0.53914 0.02631 0.94949 0.0
H189 H 0.51884 0.10852 0.93407 0.0
H190 H 0.57661 0.86939 0.85762 0.0
H191 H 0.5455 0.28424 0.73818 0.0
H192 H 0.60866 0.17332 0.44387 0.0
H193 H 0.60886 0.09278 0.50054 0.0
H194 H 0.57402 0.35755 0.48917 0.0
H195 H 0.55807 0.87313 0.66647 0.0
H196 H 0.56556 0.8435 0.75062 0.0
H197 H 0.59044 0.28396 0.44406 0.0
H198 H 0.54331 0.362 0.71503 0.0
N199 N 0.58589 0.17277 0.61224 0.0
C200 C 0.60187 0.17704 0.48088 0.0
C201 C 0.603 0.12631 0.51722 0.0
C202 C 0.59118 0.2331 0.50601 0.0
C203 C 0.58016 0.22511 0.59421 0.0
C204 C 0.59453 0.12629 0.57961 0.0
N205 N 0.56436 0.25655 0.67143 0.0
C206 C 0.56873 0.2666 0.62561 0.0
C207 C 0.54663 0.33623 0.68762 0.0
C208 C 0.5524 0.35064 0.6413 0.0
C209 C 0.54963 0.29015 0.70149 0.0
C210 C 0.56328 0.31862 0.60268 0.0
H211 H 0.54863 0.38821 0.63815 0.0
O212 O 0.65226 0.23993 0.72475 0.0
O213 O 0.59456 0.1445 0.75653 0.0
O214 O 0.51199 0.17241 0.78102 0.0
O215 O 0.5779 0.21578 0.7623 0.0
O216 O 0.6614 0.14319 0.72774 0.0
O217 O 0.6636 0.22322 0.65353 0.0
O218 O 0.45248 0.09571 0.71796 0.0
O219 O 0.52819 0.16911 0.69082 0.0
O220 O 0.63563 0.1164 0.66585 0.0
O221 O 0.59107 0.0618 0.70782 0.0
O222 O 0.49919 0.10887 0.66408 0.0
O223 O 0.47017 0.08532 0.78927 0.0
C224 C 0.6378 0.13259 0.76511 0.0
C225 C 0.57566 0.32676 0.5125 0.0
C226 C 0.58722 0.28172 0.48138 0.0
C227 C 0.67616 0.25096 0.68743 0.0
C228 C 0.684 0.30344 0.67825 0.0
C229 C 0.65397 0.33499 0.70094 0.0
C230 C 0.72266 0.32384 0.65233 0.0
C231 C 0.7273 0.37451 0.64722 0.0
C232 C 0.65521 0.3827 0.69127 0.0
C233 C 0.69095 0.40216 0.66482 0.0
C234 C 0.53938 0.20937 0.78815 0.0
C235 C 0.50463 0.15318 0.65542 0.0
C236 C 0.43629 0.08445 0.75922 0.0
C237 C 0.401 0.04482 0.76215 0.0
C238 C 0.40393 1.00927 0.7284 0.0
C239 C 0.36294 0.04291 0.79556 0.0
C240 C 0.32904 1.00538 0.79409 0.0
C241 C 0.37062 0.97361 0.72612 0.0
C242 C 0.33436 0.97134 0.75848 0.0
C243 C 0.62677 0.07184 0.6784 0.0
H244 H 0.62936 0.32298 0.72706 0.0
H245 H 0.74966 0.30096 0.63832 0.0
H246 H 0.62901 0.40522 0.70572 0.0
H247 H 0.69199 0.4396 0.66192 0.0
H248 H 0.43139 1.01035 0.70222 0.0
H249 H 0.3597 0.07021 0.82187 0.0
H250 H 0.3725 0.94721 0.69892 0.0
H251 H 0.31022 0.94212 0.75501 0.0
Gd252 Gd 0.9312 0.84989 0.19258 0.0
Gd253 Gd 1.01095 0.93291 0.23892 0.0
C254 C 0.98286 0.02701 0.37773 0.0
C255 C 0.96868 0.13274 0.34645 0.0
C256 C 0.98942 0.03417 0.27191 0.0
C257 C 0.9892 1.00136 0.32258 0.0
C258 C 0.97666 0.12066 0.28631 0.0
C259 C 0.97253 0.08787 0.38896 0.0
C260 C 0.99665 0.99777 0.41385 0.0
C261 C 1.00845 0.95082 0.40466 0.0
N262 N 0.99811 0.95543 0.31902 0.0
C263 C 1.00802 0.93058 0.35932 0.0
H264 H 0.01918 0.8946 0.35737 0.0
C265 C 0.99611 0.04617 0.18113 0.0
N266 N 0.99614 1.01487 0.22475 0.0
C267 C 0.98387 0.13656 0.19236 0.0
C268 C 0.97711 0.15668 0.24444 0.0
H269 H 1.00123 0.0258 0.14871 0.0
H270 H 0.9643 0.09726 0.4239 0.0
H271 H 0.94265 0.94516 0.09567 0.0
H272 H 0.9982 1.01102 0.44949 0.0
H273 H 1.0185 0.92882 0.43407 0.0
H274 H 0.96072 0.16794 0.35762 0.0
H275 H 0.99183 0.7531 0.23818 0.0
H276 H 0.92867 0.86401 0.94387 0.0
H277 H 0.92847 0.94456 1.00054 0.0
H278 H 0.96331 0.67978 0.98917 0.0
H279 H 0.97926 0.1642 0.16647 0.0
H280 H 0.97178 0.19384 0.25062 0.0
H281 H 0.94689 0.75338 0.94406 0.0
H282 H 0.99402 0.67533 0.21503 0.0
N283 N 0.95145 0.86456 0.11224 0.0
C284 C 0.93547 0.86029 0.98088 0.0
C285 C 0.93433 0.91102 1.01722 0.0
C286 C 0.94615 0.80423 1.00601 0.0
C287 C 0.95718 0.81222 0.09421 0.0
C288 C 0.94281 0.91105 0.07961 0.0
N289 N 0.97298 0.78079 0.17143 0.0
C290 C 0.9686 0.77073 0.12561 0.0
C291 C 0.9907 0.7011 0.18762 0.0
C292 C 0.98494 0.68669 0.1413 0.0
C293 C 0.98771 0.74718 0.20149 0.0
C294 C 0.97405 0.71871 0.10268 0.0
H295 H 0.98871 0.64913 0.13815 0.0
O296 O 0.88507 0.7974 0.22475 0.0
O297 O 0.94278 0.89284 0.25653 0.0
O298 O 0.02535 0.86493 0.28102 0.0
O299 O 0.95943 0.82156 0.2623 0.0
O300 O 0.87594 0.89414 0.22774 0.0
O301 O 0.87374 0.81412 0.15353 0.0
O302 O 0.08486 0.94162 0.21796 0.0
O303 O 1.00914 0.86822 0.19082 0.0
O304 O 0.9017 0.92094 0.16585 0.0
O305 O 0.94627 0.97553 0.20782 0.0
O306 O 0.03814 0.92846 0.16408 0.0
O307 O 0.06716 0.95201 0.28927 0.0
C308 C 0.89953 0.90475 0.26511 0.0
C309 C 0.96167 0.71058 1.0125 0.0
C310 C 0.95012 0.75561 0.98138 0.0
C311 C 0.86117 0.78637 0.18743 0.0
C312 C 0.85333 0.7339 0.17825 0.0
C313 C 0.88336 0.70234 0.20094 0.0
C314 C 0.81467 0.71349 0.15233 0.0
C315 C 0.81003 0.66282 0.14722 0.0
C316 C 0.88212 0.65463 0.19127 0.0
C317 C 0.84638 0.63517 0.16482 0.0
C318 C 0.99796 0.82796 0.28815 0.0
C319 C 0.03271 0.88416 0.15542 0.0
C320 C 0.10104 0.95288 0.25922 0.0
C321 C 0.13633 0.99251 0.26215 0.0
C322 C 0.1334 0.02806 0.2284 0.0
C323 C 0.17439 0.99443 0.29556 0.0
C324 C 0.2083 0.03195 0.29409 0.0
C325 C 0.16672 0.06372 0.22612 0.0
C326 C 0.20297 0.06599 0.25848 0.0
C327 C 0.91057 0.96549 0.1784 0.0
H328 H 0.90798 0.71435 0.22706 0.0
H329 H 0.78767 0.73637 0.13832 0.0
H330 H 0.90833 0.63211 0.20572 0.0
H331 H 0.84534 0.59773 0.16192 0.0
H332 H 0.10595 0.02698 0.20222 0.0
H333 H 0.17763 0.96712 0.32187 0.0
H334 H 0.16484 0.09012 0.19892 0.0
H335 H 0.22712 0.09522 0.25501 0.0
Gd336 Gd 0.34476 0.10613 0.34989 0.0
Gd337 Gd 0.29841 0.02639 0.43291 0.0
C338 C 0.1596 0.05448 0.52701 0.0
C339 C 0.19088 0.06865 0.63274 0.0
C340 C 0.26543 0.04792 0.53416 0.0
C341 C 0.21475 0.04814 0.50136 0.0
C342 C 0.25103 0.06068 0.62066 0.0
C343 C 0.14837 0.06481 0.58787 0.0
C344 C 0.12348 0.04069 0.49777 0.0
C345 C 0.13267 0.02889 0.45081 0.0
N346 N 0.21831 0.03923 0.45543 0.0
C347 C 0.17801 0.02932 0.43057 0.0
H348 H 0.17997 1.01816 0.3946 0.0
C349 C 0.3562 0.04122 0.54617 0.0
N350 N 0.31258 0.0412 0.51487 0.0
C351 C 0.34497 0.05346 0.63656 0.0
C352 C 0.29289 0.06022 0.65668 0.0
H353 H 0.38862 0.03611 0.52579 0.0
H354 H 0.11343 0.07303 0.59726 0.0
H355 H 0.44167 0.09468 0.44516 0.0
H356 H 0.08784 0.03914 0.51102 0.0
H357 H 0.10326 0.01884 0.42882 0.0
H358 H 0.17971 0.07661 0.66794 0.0
H359 H 0.29916 0.04551 0.25309 0.0
H360 H 0.59347 0.10867 0.36401 0.0
H361 H 0.53679 0.10887 0.44456 0.0
H362 H 0.54817 0.07403 0.17978 0.0
H363 H 0.37087 0.05807 0.6642 0.0
H364 H 0.28671 0.06555 0.69384 0.0
H365 H 0.59327 0.09046 0.25337 0.0
H366 H 0.32231 0.04332 0.17533 0.0
N367 N 0.4251 0.08589 0.36456 0.0
C368 C 0.55646 0.10187 0.36029 0.0
C369 C 0.52012 0.103 0.41102 0.0
C370 C 0.53133 0.09119 0.30423 0.0
C371 C 0.44312 0.08016 0.31222 0.0
C372 C 0.45772 0.09453 0.41105 0.0
N373 N 0.36591 0.06436 0.28078 0.0
C374 C 0.41172 0.06873 0.27073 0.0
C375 C 0.34972 0.04663 0.2011 0.0
C376 C 0.39604 0.0524 0.18669 0.0
C377 C 0.33585 0.04963 0.24718 0.0
C378 C 0.43466 0.06328 0.21871 0.0
H379 H 0.39919 0.04862 0.14912 0.0
O380 O 0.31259 0.15226 0.2974 0.0
O381 O 0.28078 0.09455 0.39281 0.0
O382 O 0.25631 1.01198 0.36492 0.0
O383 O 0.27504 0.0779 0.32156 0.0
O384 O 0.30964 0.16145 0.39413 0.0
O385 O 0.3838 0.16359 0.3141 0.0
O386 O 0.31937 0.95248 0.44161 0.0
O387 O 0.34651 0.0282 0.36822 0.0
O388 O 0.37149 0.13563 0.42094 0.0
O389 O 0.32951 0.09107 0.47553 0.0
O390 O 0.37325 0.99919 0.42846 0.0
O391 O 0.24806 0.97018 0.45202 0.0
C392 C 0.27229 0.13782 0.40469 0.0
C393 C 0.52484 0.07567 0.21058 0.0
C394 C 0.55596 0.08723 0.25561 0.0
C395 C 0.3499 0.17615 0.28636 0.0
C396 C 0.35908 0.184 0.23389 0.0
C397 C 0.33639 0.15397 0.20233 0.0
C398 C 0.385 0.22266 0.21349 0.0
C399 C 0.39012 0.2273 0.16282 0.0
C400 C 0.34606 0.15521 0.15462 0.0
C401 C 0.37252 0.19095 0.13516 0.0
C402 C 0.24919 0.03937 0.32795 0.0
C403 C 0.38191 1.00463 0.38416 0.0
C404 C 0.2781 0.9363 0.45288 0.0
C405 C 0.27518 0.901 0.49251 0.0
C406 C 0.30893 0.90394 0.52805 0.0
C407 C 0.24178 0.86294 0.49442 0.0
C408 C 0.24325 0.82904 0.53194 0.0
C409 C 0.31122 0.87062 0.56371 0.0
C410 C 0.27886 0.83436 0.56598 0.0
C411 C 0.35893 0.12676 0.46549 0.0
H412 H 0.31026 0.12936 0.21434 0.0
H413 H 0.39901 0.24966 0.23637 0.0
H414 H 0.33161 0.12901 0.13211 0.0
H415 H 0.37542 0.19199 0.09772 0.0
H416 H 0.33511 0.93139 0.52698 0.0
H417 H 0.21546 0.8597 0.46711 0.0
H418 H 0.33841 0.8725 0.59012 0.0
H419 H 0.28232 0.81022 0.59521 0.0
Gd420 Gd 0.19258 0.9312 0.84989 0.0
Gd421 Gd 0.23892 1.01095 0.93291 0.0
C422 C 0.37773 0.98285 0.02701 0.0
C423 C 0.34646 0.96868 0.13274 0.0
C424 C 0.27191 0.98942 0.03416 0.0
C425 C 0.32258 0.98919 1.00136 0.0
C426 C 0.28631 0.97666 0.12066 0.0
C427 C 0.38896 0.97253 0.08787 0.0
C428 C 0.41386 0.99665 0.99777 0.0
C429 C 0.40467 1.00844 0.95081 0.0
N430 N 0.31903 0.9981 0.95543 0.0
C431 C 0.35932 1.00801 0.93057 0.0
H432 H 0.35737 0.01917 0.8946 0.0
C433 C 0.18113 0.99611 0.04617 0.0
N434 N 0.22476 0.99613 1.01487 0.0
C435 C 0.19237 0.98387 0.13656 0.0
C436 C 0.24444 0.97712 0.15668 0.0
H437 H 0.14871 1.00122 0.02579 0.0
H438 H 0.4239 0.9643 0.09726 0.0
H439 H 0.09567 0.94265 0.94516 0.0
H440 H 0.44949 0.99819 1.01102 0.0
H441 H 0.43408 1.01849 0.92882 0.0
H442 H 0.35762 0.96072 0.16794 0.0
H443 H 0.23818 0.99182 0.75309 0.0
H444 H 0.94387 0.92866 0.86401 0.0
H445 H 1.00054 0.92847 0.94456 0.0
H446 H 0.98916 0.96331 0.67978 0.0
H447 H 0.16647 0.97926 0.1642 0.0
H448 H 0.25062 0.97178 0.19384 0.0
H449 H 0.94406 0.94687 0.75337 0.0
H450 H 0.21503 0.99402 0.67533 0.0
N451 N 0.11224 0.95145 0.86456 0.0
C452 C 0.98088 0.93546 0.86029 0.0
C453 C 1.01722 0.93433 0.91102 0.0
C454 C 1.00601 0.94615 0.80423 0.0
C455 C 0.09421 0.95718 0.81222 0.0
C456 C 0.07961 0.94281 0.91105 0.0
N457 N 0.17143 0.97297 0.78078 0.0
C458 C 0.12561 0.9686 0.77073 0.0
C459 C 0.18762 0.9907 0.7011 0.0
C460 C 0.14129 0.98493 0.68669 0.0
C461 C 0.20148 0.9877 0.74718 0.0
C462 C 0.10268 0.97405 0.71871 0.0
H463 H 0.13815 0.98871 0.64912 0.0
O464 O 0.22475 0.88508 0.7974 0.0
O465 O 0.25655 0.94278 0.89281 0.0
O466 O 0.28102 0.02535 0.86492 0.0
O467 O 0.2623 0.95943 0.82156 0.0
O468 O 0.2277 0.87589 0.89413 0.0
O469 O 0.15353 0.87374 0.8141 0.0
O470 O 0.21797 0.08486 0.94161 0.0
O471 O 0.19082 1.00914 0.86822 0.0
O472 O 0.16584 0.90171 0.92094 0.0
O473 O 0.20783 0.94626 0.97553 0.0
O474 O 0.16409 0.03814 0.92846 0.0
O475 O 0.28927 0.06716 0.95202 0.0
C476 C 0.26505 0.89952 0.90469 0.0
C477 C 1.01249 0.96167 0.71058 0.0
C478 C 0.98138 0.95011 0.75561 0.0
C479 C 0.18743 0.86118 0.78636 0.0
C480 C 0.17826 0.85334 0.73389 0.0
C481 C 0.20094 0.88336 0.70233 0.0
C482 C 0.15234 0.81468 0.71349 0.0
C483 C 0.14722 0.81003 0.66282 0.0
C484 C 0.19127 0.88212 0.65462 0.0
C485 C 0.16482 0.84638 0.63516 0.0
C486 C 0.28814 0.99797 0.82795 0.0
C487 C 0.15542 0.03271 0.88416 0.0
C488 C 0.25923 0.10104 0.95288 0.0
C489 C 0.26216 0.13633 0.99251 0.0
C490 C 0.22841 0.1334 0.02805 0.0
C491 C 0.29556 0.17439 0.99442 0.0
C492 C 0.29409 0.20829 0.03194 0.0
C493 C 0.22612 0.16671 0.06371 0.0
C494 C 0.25848 0.20297 0.06598 0.0
C495 C 0.17841 0.91057 0.96549 0.0
H496 H 0.22707 0.90798 0.71434 0.0
H497 H 0.13833 0.78768 0.73637 0.0
H498 H 0.20573 0.90833 0.63211 0.0
H499 H 0.16192 0.84534 0.59772 0.0
H500 H 0.20223 0.10594 0.02698 0.0
H501 H 0.32188 0.17763 0.96711 0.0
H502 H 0.19893 0.16483 0.09012 0.0
H503 H 0.25501 0.22712 0.09521 0.0
Gd504 Gd 0.84476 0.4312 0.68744 0.0
Gd505 Gd 0.79841 0.51095 0.60443 0.0
C506 C 0.6596 0.48285 0.51032 0.0
C507 C 0.69088 0.46868 0.4046 0.0
C508 C 0.76543 0.48942 0.50317 0.0
C509 C 0.71475 0.48919 0.53598 0.0
C510 C 0.75103 0.47666 0.41667 0.0
C511 C 0.64837 0.47253 0.44947 0.0
C512 C 0.62348 0.49665 0.53957 0.0
C513 C 0.63267 0.50844 0.58652 0.0
N514 N 0.71831 0.4981 0.58191 0.0
C515 C 0.67801 0.50801 0.60676 0.0
H516 H 0.67997 0.51917 0.64274 0.0
C517 C 0.8562 0.49611 0.49116 0.0
N518 N 0.81258 0.49613 0.52247 0.0
C519 C 0.84497 0.48387 0.40078 0.0
C520 C 0.79289 0.47712 0.38065 0.0
H521 H 0.88862 0.50122 0.51154 0.0
H522 H 0.61343 0.4643 0.44007 0.0
H523 H 0.94167 0.44265 0.59217 0.0
H524 H 0.58784 0.49819 0.52631 0.0
H525 H 0.60326 0.51849 0.60852 0.0
H526 H 0.67971 0.46072 0.36939 0.0
H527 H 0.79916 0.49182 0.78424 0.0
H528 H 0.09347 0.42866 0.67332 0.0
H529 H 0.03679 0.42847 0.59278 0.0
H530 H 0.04817 0.46331 0.85755 0.0
H531 H 0.87087 0.47926 0.37314 0.0
H532 H 0.78671 0.47178 0.3435 0.0
H533 H 0.09327 0.44687 0.78396 0.0
H534 H 0.82231 0.49402 0.86201 0.0
N535 N 0.9251 0.45145 0.67278 0.0
C536 C 0.05646 0.43546 0.67704 0.0
C537 C 0.02012 0.43433 0.62631 0.0
C538 C 0.03133 0.44615 0.73311 0.0
C539 C 0.94312 0.45718 0.72511 0.0
C540 C 0.95772 0.44281 0.62629 0.0
N541 N 0.86591 0.47297 0.75655 0.0
C542 C 0.91172 0.4686 0.7666 0.0
C543 C 0.84972 0.4907 0.83624 0.0
C544 C 0.89604 0.48493 0.85065 0.0
C545 C 0.83585 0.4877 0.79016 0.0
C546 C 0.93466 0.47405 0.81862 0.0
H547 H 0.89919 0.48871 0.88821 0.0
O548 O 0.81259 0.38508 0.73994 0.0
O549 O 0.78078 0.44278 0.64452 0.0
O550 O 0.75631 0.52535 0.67241 0.0
O551 O 0.77504 0.45943 0.71578 0.0
O552 O 0.80964 0.37589 0.6432 0.0
O553 O 0.8838 0.37374 0.72323 0.0
O554 O 0.81937 0.58486 0.59572 0.0
O555 O 0.84651 0.50914 0.66911 0.0
O556 O 0.87149 0.40171 0.6164 0.0
O557 O 0.82951 0.44626 0.56181 0.0
O558 O 0.87325 0.53814 0.60887 0.0
O559 O 0.74806 0.56716 0.58532 0.0
C560 C 0.77229 0.39952 0.63265 0.0
C561 C 0.02484 0.46167 0.82676 0.0
C562 C 0.05596 0.45011 0.78173 0.0
C563 C 0.8499 0.36118 0.75097 0.0
C564 C 0.85908 0.35334 0.80345 0.0
C565 C 0.83639 0.38336 0.835 0.0
C566 C 0.885 0.31468 0.82385 0.0
C567 C 0.89012 0.31003 0.87452 0.0
C568 C 0.84606 0.38212 0.88272 0.0
C569 C 0.87252 0.34638 0.90217 0.0
C570 C 0.74919 0.49797 0.70938 0.0
C571 C 0.88191 0.53271 0.65317 0.0
C572 C 0.7781 0.60104 0.58446 0.0
C573 C 0.77518 0.63633 0.54483 0.0
C574 C 0.80893 0.6334 0.50928 0.0
C575 C 0.74178 0.67439 0.54291 0.0
C576 C 0.74325 0.70829 0.50539 0.0
C577 C 0.81122 0.66671 0.47362 0.0
C578 C 0.77886 0.70297 0.47135 0.0
C579 C 0.85893 0.41057 0.57184 0.0
H580 H 0.81026 0.40798 0.82299 0.0
H581 H 0.89901 0.28768 0.80097 0.0
H582 H 0.83161 0.40833 0.90523 0.0
H583 H 0.87542 0.34534 0.93961 0.0
H584 H 0.83511 0.60594 0.51036 0.0
H585 H 0.71546 0.67763 0.57022 0.0
H586 H 0.83841 0.66483 0.44722 0.0
H587 H 0.78232 0.72712 0.44212 0.0
Gd588 Gd 0.69258 0.60613 0.18744 0.0
Gd589 Gd 0.73892 0.52639 0.10443 0.0
C590 C 0.87773 0.55448 1.01032 0.0
C591 C 0.84646 0.56865 0.9046 0.0
C592 C 0.77191 0.54792 1.00317 0.0
C593 C 0.82258 0.54814 0.03598 0.0
C594 C 0.78631 0.56068 0.91667 0.0
C595 C 0.88896 0.56481 0.94947 0.0
C596 C 0.91386 0.54069 0.03957 0.0
C597 C 0.90467 0.52889 0.08652 0.0
N598 N 0.81903 0.53923 0.08191 0.0
C599 C 0.85932 0.52932 0.10676 0.0
H600 H 0.85737 0.51816 0.14274 0.0
C601 C 0.68113 0.54122 0.99116 0.0
N602 N 0.72476 0.5412 0.02247 0.0
C603 C 0.69237 0.55346 0.90078 0.0
C604 C 0.74444 0.56022 0.88065 0.0
H605 H 0.64871 0.53611 1.01154 0.0
H606 H 0.9239 0.57303 0.94007 0.0
H607 H 0.59567 0.59468 0.09217 0.0
H608 H 0.94949 0.53914 0.02631 0.0
H609 H 0.93408 0.51884 0.10852 0.0
H610 H 0.85762 0.57661 0.86939 0.0
H611 H 0.73818 0.54551 0.28424 0.0
H612 H 0.44387 0.60867 0.17332 0.0
H613 H 0.50054 0.60887 0.09278 0.0
H614 H 0.48916 0.57403 0.35755 0.0
H615 H 0.66647 0.55807 0.87314 0.0
H616 H 0.75062 0.56555 0.8435 0.0
H617 H 0.44406 0.59046 0.28396 0.0
H618 H 0.71503 0.54332 0.36201 0.0
N619 N 0.61224 0.58589 0.17278 0.0
C620 C 0.48088 0.60187 0.17704 0.0
C621 C 0.51722 0.603 0.12631 0.0
C622 C 0.50601 0.59119 0.23311 0.0
C623 C 0.59421 0.58016 0.22511 0.0
C624 C 0.57961 0.59453 0.12629 0.0
N625 N 0.67143 0.56436 0.25655 0.0
C626 C 0.62561 0.56873 0.2666 0.0
C627 C 0.68762 0.54663 0.33624 0.0
C628 C 0.64129 0.5524 0.35065 0.0
C629 C 0.70148 0.54963 0.29016 0.0
C630 C 0.60268 0.56328 0.31862 0.0
H631 H 0.63815 0.54862 0.38821 0.0
O632 O 0.72475 0.65226 0.23994 0.0
O633 O 0.75655 0.59455 0.14452 0.0
O634 O 0.78102 0.51198 0.17241 0.0
O635 O 0.7623 0.5779 0.21578 0.0
O636 O 0.7277 0.66145 0.1432 0.0
O637 O 0.65353 0.66359 0.22323 0.0
O638 O 0.71797 0.45248 0.09572 0.0
O639 O 0.69082 0.5282 0.16911 0.0
O640 O 0.66584 0.63563 0.1164 0.0
O641 O 0.70783 0.59107 0.06181 0.0
O642 O 0.66409 0.49919 0.10887 0.0
O643 O 0.78927 0.47018 0.08532 0.0
C644 C 0.76505 0.63782 0.13265 0.0
C645 C 0.51249 0.57567 0.32676 0.0
C646 C 0.48138 0.58723 0.28173 0.0
C647 C 0.68743 0.67615 0.25097 0.0
C648 C 0.67826 0.684 0.30345 0.0
C649 C 0.70094 0.65397 0.335 0.0
C650 C 0.65234 0.72266 0.32385 0.0
C651 C 0.64722 0.7273 0.37452 0.0
C652 C 0.69127 0.65521 0.38272 0.0
C653 C 0.66482 0.69095 0.40217 0.0
C654 C 0.78814 0.53937 0.20938 0.0
C655 C 0.65542 0.50463 0.15317 0.0
C656 C 0.75923 0.4363 0.08446 0.0
C657 C 0.76216 0.401 0.04483 0.0
C658 C 0.72841 0.40394 1.00928 0.0
C659 C 0.79556 0.36294 0.04291 0.0
C660 C 0.79409 0.32904 1.00539 0.0
C661 C 0.72612 0.37062 0.97362 0.0
C662 C 0.75848 0.33436 0.97135 0.0
C663 C 0.67841 0.62676 0.07184 0.0
H664 H 0.72707 0.62936 0.32299 0.0
H665 H 0.63833 0.74966 0.30097 0.0
H666 H 0.70573 0.62901 0.40523 0.0
H667 H 0.66192 0.69199 0.43961 0.0
H668 H 0.70223 0.43139 1.01036 0.0
H669 H 0.82188 0.3597 0.07022 0.0
H670 H 0.69893 0.3725 0.94722 0.0
H671 H 0.75501 0.31022 0.94212 0.0
Gd672 Gd 0.3499 0.34476 0.10613 0.0
Gd673 Gd 0.43291 0.29841 0.02638 0.0
C674 C 0.52701 0.15961 0.05448 0.0
C675 C 0.63274 0.19088 0.06865 0.0
C676 C 0.53416 0.26543 0.04792 0.0
C677 C 0.50136 0.21475 0.04814 0.0
C678 C 0.62066 0.25103 0.06068 0.0
C679 C 0.58787 0.14838 0.06481 0.0
C680 C 0.49777 0.12348 0.04069 0.0
C681 C 0.45082 0.13267 0.02889 0.0
N682 N 0.45543 0.21831 0.03923 0.0
C683 C 0.43058 0.17802 0.02932 0.0
H684 H 0.3946 0.17997 1.01816 0.0
C685 C 0.54617 0.3562 0.04122 0.0
N686 N 0.51487 0.31258 0.04121 0.0
C687 C 0.63656 0.34497 0.05346 0.0
C688 C 0.65668 0.2929 0.06022 0.0
H689 H 0.52579 0.38862 0.03611 0.0
H690 H 0.59726 0.11344 0.07303 0.0
H691 H 0.44516 0.44167 0.09468 0.0
H692 H 0.51103 0.08784 0.03914 0.0
H693 H 0.42882 0.10326 0.01884 0.0
H694 H 0.66794 0.17972 0.07661 0.0
H695 H 0.25308 0.29915 0.04553 0.0
H696 H 0.36401 0.59346 0.10867 0.0
H697 H 0.44455 0.53679 0.10886 0.0
H698 H 0.17978 0.54817 0.07402 0.0
H699 H 0.6642 0.37087 0.05807 0.0
H700 H 0.69383 0.28672 0.06556 0.0
H701 H 0.25337 0.59327 0.09045 0.0
H702 H 0.17532 0.3223 0.04333 0.0
N703 N 0.36456 0.4251 0.08589 0.0
C704 C 0.36029 0.55646 0.10187 0.0
C705 C 0.41102 0.52011 0.103 0.0
C706 C 0.30422 0.53132 0.09118 0.0
C707 C 0.31222 0.44312 0.08016 0.0
C708 C 0.41104 0.45772 0.09452 0.0
N709 N 0.28078 0.3659 0.06437 0.0
C710 C 0.27073 0.41172 0.06873 0.0
C711 C 0.20109 0.34971 0.04664 0.0
C712 C 0.18669 0.39604 0.0524 0.0
C713 C 0.24717 0.33585 0.04964 0.0
C714 C 0.21871 0.43466 0.06328 0.0
H715 H 0.14912 0.39918 0.04863 0.0
O716 O 0.29741 0.31258 0.15227 0.0
O717 O 0.39282 0.28078 0.09455 0.0
O718 O 0.36492 0.25631 1.01198 0.0
O719 O 0.32156 0.27504 0.07789 0.0
O720 O 0.39414 0.30963 0.16144 0.0
O721 O 0.3141 0.3838 0.16359 0.0
O722 O 0.44162 0.31937 0.95247 0.0
O723 O 0.36822 0.34651 0.02819 0.0
O724 O 0.42094 0.37149 0.13563 0.0
O725 O 0.47553 0.32951 0.09107 0.0
O726 O 0.42846 0.37325 0.99919 0.0
O727 O 0.45202 0.24806 0.97018 0.0
C728 C 0.40469 0.27228 0.13781 0.0
C729 C 0.21057 0.52484 0.07566 0.0
C730 C 0.25561 0.55595 0.08722 0.0
C731 C 0.28637 0.3499 0.17616 0.0
C732 C 0.23389 0.35907 0.18399 0.0
C733 C 0.20234 0.33636 0.15398 0.0
C734 C 0.21349 0.38501 0.22264 0.0
C735 C 0.16282 0.39011 0.22727 0.0
C736 C 0.15463 0.34602 0.15521 0.0
C737 C 0.13516 0.37249 0.19094 0.0
C738 C 0.32795 0.24919 0.03936 0.0
C739 C 0.38416 0.38191 1.00463 0.0
C740 C 0.45288 0.27811 0.9363 0.0
C741 C 0.49251 0.27518 0.901 0.0
C742 C 0.52806 0.30893 0.90393 0.0
C743 C 0.49443 0.24177 0.86294 0.0
C744 C 0.53195 0.24324 0.82904 0.0
C745 C 0.56372 0.31122 0.87061 0.0
C746 C 0.56599 0.27885 0.83436 0.0
C747 C 0.46549 0.35893 0.12676 0.0
H748 H 0.21436 0.31023 0.12937 0.0
H749 H 0.23636 0.39904 0.24963 0.0
H750 H 0.13212 0.33155 0.12901 0.0
H751 H 0.09772 0.3754 0.19197 0.0
H752 H 0.52698 0.33511 0.93138 0.0
H753 H 0.46713 0.21546 0.85971 0.0
H754 H 0.59012 0.33841 0.87249 0.0
H755 H 0.59522 0.28232 0.81022 0.0
Gd756 Gd 0.8499 0.19258 0.9312 0.0
Gd757 Gd 0.93291 0.23892 1.01095 0.0
C758 C 0.02701 0.37773 0.98285 0.0
C759 C 0.13274 0.34645 0.96868 0.0
C760 C 0.03416 0.2719 0.98942 0.0
C761 C 1.00136 0.32258 0.98919 0.0
C762 C 0.12066 0.2863 0.97666 0.0
C763 C 0.08787 0.38895 0.97253 0.0
C764 C 0.99777 0.41385 0.99665 0.0
C765 C 0.95082 0.40466 1.00845 0.0
N766 N 0.95543 0.31902 0.9981 0.0
C767 C 0.93058 0.35932 1.00802 0.0
H768 H 0.8946 0.35736 0.01918 0.0
C769 C 0.04617 0.18113 0.99611 0.0
N770 N 1.01487 0.22475 0.99613 0.0
C771 C 0.13656 0.19236 0.98387 0.0
C772 C 0.15668 0.24444 0.97712 0.0
H773 H 0.02579 0.14871 1.00122 0.0
H774 H 0.09726 0.4239 0.9643 0.0
H775 H 0.94516 0.09567 0.94266 0.0
H776 H 1.01103 0.44949 0.99819 0.0
H777 H 0.92882 0.43407 1.0185 0.0
H778 H 0.16794 0.35761 0.96072 0.0
H779 H 0.75308 0.23818 0.99181 0.0
H780 H 0.86401 0.94387 0.92867 0.0
H781 H 0.94455 1.00054 0.92847 0.0
H782 H 0.67978 0.98916 0.96331 0.0
H783 H 0.1642 0.16646 0.97927 0.0
H784 H 0.19383 0.25062 0.97178 0.0
H785 H 0.75337 0.94406 0.94688 0.0
H786 H 0.67532 0.21503 0.99401 0.0
N787 N 0.86456 0.11224 0.95145 0.0
C788 C 0.86029 0.98088 0.93547 0.0
C789 C 0.91102 1.01722 0.93433 0.0
C790 C 0.80422 1.00601 0.94615 0.0
C791 C 0.81222 0.09421 0.95718 0.0
C792 C 0.91104 0.07961 0.94281 0.0
N793 N 0.78078 0.17143 0.97297 0.0
C794 C 0.77073 0.12561 0.9686 0.0
C795 C 0.70109 0.18762 0.99069 0.0
C796 C 0.68669 0.1413 0.98493 0.0
C797 C 0.74717 0.20149 0.98769 0.0
C798 C 0.71871 0.10268 0.97405 0.0
H799 H 0.64912 0.13815 0.98871 0.0
O800 O 0.79741 0.22475 0.88507 0.0
O801 O 0.89282 0.25655 0.94279 0.0
O802 O 0.86492 0.28102 0.02536 0.0
O803 O 0.82156 0.2623 0.95944 0.0
O804 O 0.89414 0.2277 0.87589 0.0
O805 O 0.8141 0.15353 0.87375 0.0
O806 O 0.94162 0.21796 0.08486 0.0
O807 O 0.86822 0.19082 1.00914 0.0
O808 O 0.92094 0.16584 0.90171 0.0
O809 O 0.97553 0.20783 0.94626 0.0
O810 O 0.92846 0.16408 0.03814 0.0
O811 O 0.95202 0.28927 0.06716 0.0
C812 C 0.90469 0.26505 0.89952 0.0
C813 C 0.71057 1.01249 0.96167 0.0
C814 C 0.75561 0.98138 0.95012 0.0
C815 C 0.78637 0.18743 0.86118 0.0
C816 C 0.73389 0.17826 0.85334 0.0
C817 C 0.70234 0.20097 0.88336 0.0
C818 C 0.71349 0.15233 0.8147 0.0
C819 C 0.66282 0.14722 0.81006 0.0
C820 C 0.65463 0.19131 0.88212 0.0
C821 C 0.63516 0.16484 0.8464 0.0
C822 C 0.82795 0.28814 0.99797 0.0
C823 C 0.88416 0.15542 0.03271 0.0
C824 C 0.95288 0.25923 0.10104 0.0
C825 C 0.99251 0.26216 0.13633 0.0
C826 C 0.02806 0.2284 0.1334 0.0
C827 C 0.99443 0.29556 0.17439 0.0
C828 C 0.03195 0.29409 0.20829 0.0
C829 C 0.06372 0.22612 0.16672 0.0
C830 C 0.06599 0.25848 0.20297 0.0
C831 C 0.96549 0.17841 0.91057 0.0
H832 H 0.71436 0.2271 0.90796 0.0
H833 H 0.73636 0.13829 0.78771 0.0
H834 H 0.63212 0.20578 0.90832 0.0
H835 H 0.59772 0.16193 0.84537 0.0
H836 H 0.02698 0.20222 0.10595 0.0
H837 H 0.96713 0.32188 0.17763 0.0
H838 H 0.09012 0.19892 0.16484 0.0
H839 H 0.09522 0.25501 0.22712 0.0
Gd840 Gd 0.68744 0.84476 0.4312 0.0
Gd841 Gd 0.60443 0.79841 0.51095 0.0
C842 C 0.51032 0.65961 0.48285 0.0
C843 C 0.4046 0.69088 0.46868 0.0
C844 C 0.50317 0.76543 0.48942 0.0
C845 C 0.53598 0.71475 0.48919 0.0
C846 C 0.41668 0.75103 0.47666 0.0
C847 C 0.44947 0.64838 0.47253 0.0
C848 C 0.53957 0.62348 0.49665 0.0
C849 C 0.58652 0.63267 0.50845 0.0
N850 N 0.58191 0.71831 0.4981 0.0
C851 C 0.60676 0.67802 0.50802 0.0
H852 H 0.64274 0.67997 0.51918 0.0
C853 C 0.49116 0.8562 0.49611 0.0
N854 N 0.52247 0.81258 0.49613 0.0
C855 C 0.40078 0.84497 0.48387 0.0
C856 C 0.38065 0.7929 0.47712 0.0
H857 H 0.51154 0.88862 0.50122 0.0
H858 H 0.44007 0.61344 0.4643 0.0
H859 H 0.59218 0.94167 0.44266 0.0
H860 H 0.52631 0.58784 0.49819 0.0
H861 H 0.60852 0.60326 0.5185 0.0
H862 H 0.36939 0.67972 0.46072 0.0
H863 H 0.78425 0.79915 0.49181 0.0
H864 H 0.67332 0.09346 0.42867 0.0
H865 H 0.59278 0.03679 0.42847 0.0
H866 H 0.85756 0.04817 0.46331 0.0
H867 H 0.37314 0.87087 0.47927 0.0
H868 H 0.3435 0.78672 0.47178 0.0
H869 H 0.78396 0.09327 0.44688 0.0
H870 H 0.86201 0.8223 0.49401 0.0
N871 N 0.67278 0.9251 0.45145 0.0
C872 C 0.67705 0.05646 0.43547 0.0
C873 C 0.62632 0.02011 0.43433 0.0
C874 C 0.73311 0.03132 0.44615 0.0
C875 C 0.72512 0.94312 0.45718 0.0
C876 C 0.62629 0.95772 0.44281 0.0
N877 N 0.75656 0.8659 0.47297 0.0
C878 C 0.76661 0.91172 0.4686 0.0
C879 C 0.83624 0.84971 0.49069 0.0
C880 C 0.85065 0.89604 0.48493 0.0
C881 C 0.79016 0.83585 0.48769 0.0
C882 C 0.81862 0.93466 0.47405 0.0
H883 H 0.88821 0.89918 0.48871 0.0
O884 O 0.73993 0.81258 0.38507 0.0
O885 O 0.64452 0.78078 0.44279 0.0
O886 O 0.67241 0.75631 0.52536 0.0
O887 O 0.71578 0.77504 0.45944 0.0
O888 O 0.6432 0.80963 0.37589 0.0
O889 O 0.72323 0.8838 0.37375 0.0
O890 O 0.59572 0.81937 0.58486 0.0
O891 O 0.66911 0.84651 0.50914 0.0
O892 O 0.6164 0.87149 0.40171 0.0
O893 O 0.56181 0.82951 0.44626 0.0
O894 O 0.60887 0.87325 0.53814 0.0
O895 O 0.58531 0.74806 0.56716 0.0
C896 C 0.63265 0.77228 0.39952 0.0
C897 C 0.82676 0.02484 0.46167 0.0
C898 C 0.78173 0.05595 0.45012 0.0
C899 C 0.75097 0.8499 0.36118 0.0
C900 C 0.80344 0.85907 0.35334 0.0
C901 C 0.83499 0.83636 0.38336 0.0
C902 C 0.82385 0.88501 0.3147 0.0
C903 C 0.87452 0.89011 0.31006 0.0
C904 C 0.88271 0.84602 0.38212 0.0
C905 C 0.90217 0.87249 0.3464 0.0
C906 C 0.70938 0.74919 0.49797 0.0
C907 C 0.65318 0.88191 0.53271 0.0
C908 C 0.58445 0.77811 0.60104 0.0
C909 C 0.54482 0.77518 0.63633 0.0
C910 C 0.50928 0.80893 0.6334 0.0
C911 C 0.5429 0.74177 0.67439 0.0
C912 C 0.50538 0.74324 0.70829 0.0
C913 C 0.47362 0.81122 0.66672 0.0
C914 C 0.47134 0.77885 0.70297 0.0
C915 C 0.57184 0.85893 0.41057 0.0
H916 H 0.82298 0.81023 0.40796 0.0
H917 H 0.80097 0.89904 0.28771 0.0
H918 H 0.90522 0.83155 0.40832 0.0
H919 H 0.93961 0.8754 0.34537 0.0
H920 H 0.51035 0.83511 0.60595 0.0
H921 H 0.57021 0.71546 0.67763 0.0
H922 H 0.44721 0.83841 0.66484 0.0
H923 H 0.44212 0.78232 0.72712 0.0
Gd924 Gd 0.18744 0.69258 0.60613 0.0
Gd925 Gd 0.10443 0.73892 0.52638 0.0
C926 C 1.01032 0.87773 0.55448 0.0
C927 C 0.9046 0.84645 0.56865 0.0
C928 C 1.00317 0.7719 0.54792 0.0
C929 C 0.03598 0.82258 0.54814 0.0
C930 C 0.91668 0.7863 0.56068 0.0
C931 C 0.94947 0.88895 0.56481 0.0
C932 C 0.03957 0.91385 0.54069 0.0
C933 C 0.08652 0.90466 0.52889 0.0
N934 N 0.08191 0.81902 0.53923 0.0
C935 C 0.10676 0.85932 0.52932 0.0
H936 H 0.14274 0.85736 0.51816 0.0
C937 C 0.99116 0.68113 0.54122 0.0
N938 N 0.02247 0.72475 0.54121 0.0
C939 C 0.90078 0.69236 0.55346 0.0
C940 C 0.88065 0.74444 0.56022 0.0
H941 H 1.01154 0.64871 0.53611 0.0
H942 H 0.94007 0.9239 0.57303 0.0
H943 H 0.09218 0.59567 0.59468 0.0
H944 H 0.02631 0.94949 0.53914 0.0
H945 H 0.10852 0.93407 0.51884 0.0
H946 H 0.86939 0.85761 0.57661 0.0
H947 H 0.28425 0.73818 0.54553 0.0
H948 H 0.17332 0.44387 0.60867 0.0
H949 H 0.09278 0.50054 0.60886 0.0
H950 H 0.35756 0.48916 0.57402 0.0
H951 H 0.87314 0.66646 0.55807 0.0
H952 H 0.8435 0.75062 0.56556 0.0
H953 H 0.28396 0.44406 0.59045 0.0
H954 H 0.36201 0.71503 0.54333 0.0
N955 N 0.17278 0.61224 0.58589 0.0
C956 C 0.17705 0.48088 0.60187 0.0
C957 C 0.12632 0.51722 0.603 0.0
C958 C 0.23311 0.50601 0.59118 0.0
C959 C 0.22512 0.59421 0.58016 0.0
C960 C 0.12629 0.57961 0.59452 0.0
N961 N 0.25656 0.67143 0.56437 0.0
C962 C 0.26661 0.62561 0.56873 0.0
C963 C 0.33624 0.68762 0.54664 0.0
C964 C 0.35065 0.6413 0.5524 0.0
C965 C 0.29016 0.70149 0.54964 0.0
C966 C 0.31862 0.60268 0.56328 0.0
H967 H 0.38821 0.63815 0.54863 0.0
O968 O 0.23993 0.72475 0.65227 0.0
O969 O 0.14452 0.75655 0.59455 0.0
O970 O 0.17241 0.78102 0.51198 0.0
O971 O 0.21578 0.7623 0.57789 0.0
O972 O 0.1432 0.7277 0.66144 0.0
O973 O 0.22323 0.65353 0.66359 0.0
O974 O 0.09572 0.71796 0.45247 0.0
O975 O 0.16911 0.69082 0.52819 0.0
O976 O 0.1164 0.66584 0.63563 0.0
O977 O 0.06181 0.70783 0.59107 0.0
O978 O 0.10887 0.66408 0.49919 0.0
O979 O 0.08531 0.78927 0.47018 0.0
C980 C 0.13265 0.76505 0.63781 0.0
C981 C 0.32676 0.51249 0.57566 0.0
C982 C 0.28173 0.48138 0.58722 0.0
C983 C 0.25097 0.68743 0.67616 0.0
C984 C 0.30344 0.67826 0.68399 0.0
C985 C 0.33499 0.70097 0.65398 0.0
C986 C 0.32385 0.65233 0.72264 0.0
C987 C 0.37452 0.64722 0.72727 0.0
C988 C 0.38271 0.69131 0.65521 0.0
C989 C 0.40217 0.66484 0.69094 0.0
C990 C 0.20938 0.78814 0.53936 0.0
C991 C 0.15318 0.65542 0.50463 0.0
C992 C 0.08445 0.75923 0.4363 0.0
C993 C 0.04482 0.76216 0.401 0.0
C994 C 1.00928 0.7284 0.40393 0.0
C995 C 0.0429 0.79556 0.36294 0.0
C996 C 1.00538 0.79409 0.32904 0.0
C997 C 0.97362 0.72612 0.37061 0.0
C998 C 0.97134 0.75848 0.33436 0.0
C999 C 0.07184 0.67841 0.62676 0.0
H1000 H 0.32298 0.7271 0.62937 0.0
H1001 H 0.30097 0.63829 0.74963 0.0
H1002 H 0.40522 0.70578 0.62901 0.0
H1003 H 0.43961 0.66193 0.69197 0.0
H1004 H 1.01035 0.70222 0.43138 0.0
H1005 H 0.07021 0.82188 0.35971 0.0
H1006 H 0.94721 0.69892 0.37249 0.0
H1007 H 0.94212 0.75501 0.31022 0.0
Gd1008 Gd 1.01094 0.60445 0.73892 0.0
Gd1009 Gd 0.93115 0.68745 0.69258 0.0
C1010 C 0.94613 0.73306 0.50602 0.0
C1011 C 0.96162 0.82672 0.51249 0.0
C1012 C 0.96859 0.76658 0.62562 0.0
C1013 C 0.95718 0.72508 0.59423 0.0
C1014 C 0.97403 0.8186 0.60267 0.0
C1015 C 0.95007 0.78167 0.48138 0.0
C1016 C 0.93546 0.67698 0.4809 0.0
C1017 C 0.93435 0.62626 0.51726 0.0
N1018 N 0.95147 0.67275 0.61227 0.0
C1019 C 0.94284 0.62625 0.57965 0.0
H1020 H 0.94269 0.59214 0.59572 0.0
C1021 C 0.98765 0.79016 0.7015 0.0
N1022 N 0.97294 0.75655 0.67144 0.0
C1023 C 0.99068 0.83624 0.68761 0.0
C1024 C 0.98492 0.85063 0.64128 0.0
H1025 H 0.99176 0.78425 0.73819 0.0
H1026 H 0.94682 0.7839 0.44407 0.0
H1027 H 0.01922 0.64276 0.85736 0.0
H1028 H 0.92867 0.67326 0.4439 0.0
H1029 H 0.9285 0.59272 0.50059 0.0
H1030 H 0.96325 0.85751 0.48915 0.0
H1031 H 1.00125 0.51152 0.64873 0.0
H1032 H 0.99824 0.52634 0.9495 0.0
H1033 H 1.01856 0.60854 0.93407 0.0
H1034 H 0.96072 0.36943 0.85767 0.0
H1035 H 0.99402 0.86202 0.71501 0.0
H1036 H 0.98872 0.88819 0.63812 0.0
H1037 H 0.96425 0.44014 0.92393 0.0
H1038 H 0.97929 0.37312 0.66653 0.0
N1039 N 0.9981 0.58194 0.81903 0.0
C1040 C 0.99668 0.5396 0.91386 0.0
C1041 C 1.00848 0.58655 0.90467 0.0
C1042 C 0.98283 0.51037 0.87775 0.0
C1043 C 0.98918 0.53601 0.8226 0.0
C1044 C 1.00803 0.60679 0.85932 0.0
N1045 N 0.99613 0.52247 0.72477 0.0
C1046 C 0.98942 0.50319 0.77193 0.0
C1047 C 0.9839 0.40077 0.69242 0.0
C1048 C 0.97714 0.38066 0.7445 0.0
C1049 C 0.99613 0.49116 0.68116 0.0
C1050 C 0.97667 0.4167 0.78635 0.0
H1051 H 0.9718 0.34351 0.75069 0.0
O1052 O 0.08486 0.59573 0.71797 0.0
O1053 O 1.00913 0.66924 0.6908 0.0
O1054 O 0.90165 0.61638 0.66586 0.0
O1055 O 0.94629 0.56181 0.70781 0.0
O1056 O 0.03817 0.60885 0.66413 0.0
O1057 O 0.06715 0.58533 0.78927 0.0
O1058 O 0.88502 0.73995 0.72474 0.0
O1059 O 0.94275 0.64451 0.75641 0.0
O1060 O 0.02532 0.67243 0.78101 0.0
O1061 O 0.95938 0.71577 0.76232 0.0
O1062 O 0.87593 0.64311 0.7278 0.0
O1063 O 0.87369 0.72323 0.65353 0.0
C1064 C 0.0328 0.65317 0.65553 0.0
C1065 C 0.96869 0.40463 0.8465 0.0
C1066 C 0.97252 0.44951 0.88899 0.0
C1067 C 0.10103 0.58446 0.75924 0.0
C1068 C 0.13632 0.54482 0.76216 0.0
C1069 C 0.13339 0.50929 0.7284 0.0
C1070 C 0.17439 0.54289 0.79556 0.0
C1071 C 0.20829 0.50536 0.79408 0.0
C1072 C 0.16671 0.47363 0.7261 0.0
C1073 C 0.20296 0.47134 0.75846 0.0
C1074 C 0.91056 0.57182 0.67842 0.0
C1075 C 0.89957 0.6325 0.76513 0.0
C1076 C 0.86113 0.75099 0.68742 0.0
C1077 C 0.85331 0.80347 0.67824 0.0
C1078 C 0.88333 0.83501 0.70095 0.0
C1079 C 0.81469 0.82389 0.65228 0.0
C1080 C 0.81005 0.87456 0.64717 0.0
C1081 C 0.8821 0.88273 0.6913 0.0
C1082 C 0.84638 0.90221 0.66482 0.0
C1083 C 0.99792 0.70938 0.78816 0.0
H1084 H 0.10595 0.51038 0.70221 0.0
H1085 H 0.17763 0.57019 0.82189 0.0
H1086 H 0.16484 0.44724 0.69889 0.0
H1087 H 0.22711 0.44211 0.75499 0.0
H1088 H 0.90793 0.823 0.72709 0.0
H1089 H 0.7877 0.80101 0.63824 0.0
H1090 H 0.90829 0.90524 0.70579 0.0
H1091 H 0.84534 0.93964 0.66194 0.0
Gd1092 Gd 0.52639 0.43288 0.23892 0.0
Gd1093 Gd 0.60619 0.34988 0.19258 0.0
C1094 C 0.5912 0.30428 1.00602 0.0
C1095 C 0.57571 0.21062 1.01249 0.0
C1096 C 0.56874 0.27075 0.12562 0.0
C1097 C 0.58016 0.31225 0.09423 0.0
C1098 C 0.56331 0.21874 0.10267 0.0
C1099 C 0.58726 0.25566 0.98138 0.0
C1100 C 0.60187 0.36035 0.9809 0.0
C1101 C 0.60298 0.41107 1.01726 0.0
N1102 N 0.58586 0.36459 0.11227 0.0
C1103 C 0.59449 0.41108 0.07965 0.0
H1104 H 0.59464 0.44519 0.09572 0.0
C1105 C 0.54968 0.24717 0.2015 0.0
N1106 N 0.5644 0.28078 0.17144 0.0
C1107 C 0.54666 0.20109 0.18761 0.0
C1108 C 0.55241 0.1867 0.14128 0.0
H1109 H 0.54557 0.25308 0.23819 0.0
H1110 H 0.59052 0.25343 0.94407 0.0
H1111 H 0.51812 0.39457 0.35736 0.0
H1112 H 0.60867 0.36408 0.9439 0.0
H1113 H 0.60884 0.44461 1.00059 0.0
H1114 H 0.57408 0.17982 0.98915 0.0
H1115 H 0.53609 0.52581 0.14873 0.0
H1116 H 0.53909 0.51099 0.4495 0.0
H1117 H 0.51877 0.42879 0.43407 0.0
H1118 H 0.57661 0.6679 0.35767 0.0
H1119 H 0.54331 0.17532 0.21501 0.0
H1120 H 0.54862 0.14914 0.13812 0.0
H1121 H 0.57309 0.59719 0.42393 0.0
H1122 H 0.55805 0.66421 0.16653 0.0
N1123 N 0.53924 0.45539 0.31903 0.0
C1124 C 0.54066 0.49773 0.41386 0.0
C1125 C 0.52885 0.45078 0.40467 0.0
C1126 C 0.55451 0.52696 0.37775 0.0
C1127 C 0.54816 0.50132 0.3226 0.0
C1128 C 0.5293 0.43054 0.35932 0.0
N1129 N 0.5412 0.51486 0.22477 0.0
C1130 C 0.54792 0.53414 0.27193 0.0
C1131 C 0.55343 0.63656 0.19242 0.0
C1132 C 0.5602 0.65667 0.2445 0.0
C1133 C 0.5412 0.54618 0.18116 0.0
C1134 C 0.56067 0.62064 0.28635 0.0
H1135 H 0.56554 0.69382 0.25069 0.0
O1136 O 0.45248 0.4416 0.21797 0.0
O1137 O 0.5282 0.36809 0.1908 0.0
O1138 O 0.63568 0.42096 0.16586 0.0
O1139 O 0.59104 0.47552 0.20781 0.0
O1140 O 0.49916 0.42849 0.16413 0.0
O1141 O 0.47019 0.45201 0.28927 0.0
O1142 O 0.65232 0.29739 0.22474 0.0
O1143 O 0.59458 0.39283 0.25641 0.0
O1144 O 0.51201 0.3649 0.28101 0.0
O1145 O 0.57796 0.32156 0.26232 0.0
O1146 O 0.6614 0.39422 0.2278 0.0
O1147 O 0.66365 0.3141 0.15353 0.0
C1148 C 0.50453 0.38417 0.15553 0.0
C1149 C 0.56865 0.6327 0.3465 0.0
C1150 C 0.56481 0.58782 0.38899 0.0
C1151 C 0.4363 0.45287 0.25924 0.0
C1152 C 0.40101 0.49251 0.26216 0.0
C1153 C 0.40394 0.52804 0.2284 0.0
C1154 C 0.36295 0.49444 0.29556 0.0
C1155 C 0.32905 0.53197 0.29408 0.0
C1156 C 0.37062 0.5637 0.2261 0.0
C1157 C 0.33437 0.566 0.25846 0.0
C1158 C 0.62677 0.46551 0.17842 0.0
C1159 C 0.63776 0.40484 0.26513 0.0
C1160 C 0.6762 0.28635 0.18742 0.0
C1161 C 0.68402 0.23386 0.17824 0.0
C1162 C 0.654 0.20232 0.20095 0.0
C1163 C 0.72265 0.21345 0.15228 0.0
C1164 C 0.72728 0.16277 0.14717 0.0
C1165 C 0.65524 0.1546 0.1913 0.0
C1166 C 0.69096 0.13513 0.16482 0.0
C1167 C 0.53942 0.32795 0.28816 0.0
H1168 H 0.43139 0.52695 0.20221 0.0
H1169 H 0.35971 0.46714 0.32189 0.0
H1170 H 0.37249 0.59009 0.19889 0.0
H1171 H 0.31023 0.59522 0.25499 0.0
H1172 H 0.62941 0.21434 0.22709 0.0
H1173 H 0.74964 0.23632 0.13824 0.0
H1174 H 0.62905 0.1321 0.20579 0.0
H1175 H 0.692 0.09769 0.16194 0.0
Gd1176 Gd 0.51094 0.93288 0.29842 0.0
Gd1177 Gd 0.43115 0.84988 0.34476 0.0
C1178 C 0.44613 0.80428 0.53131 0.0
C1179 C 0.46162 0.71062 0.52485 0.0
C1180 C 0.46859 0.77075 0.41172 0.0
C1181 C 0.45718 0.81225 0.44311 0.0
C1182 C 0.47403 0.71874 0.43466 0.0
C1183 C 0.45007 0.75566 0.55595 0.0
C1184 C 0.43546 0.86035 0.55643 0.0
C1185 C 0.43435 0.91107 0.52008 0.0
N1186 N 0.45147 0.86459 0.42507 0.0
C1187 C 0.44284 0.91108 0.45768 0.0
H1188 H 0.44269 0.94519 0.44162 0.0
C1189 C 0.48765 0.74717 0.33584 0.0
N1190 N 0.47294 0.78078 0.36589 0.0
C1191 C 0.49068 0.70109 0.34972 0.0
C1192 C 0.48492 0.6867 0.39605 0.0
H1193 H 0.49176 0.75308 0.29914 0.0
H1194 H 0.44682 0.75343 0.59327 0.0
H1195 H 0.51922 0.89457 0.17997 0.0
H1196 H 0.42867 0.86408 0.59344 0.0
H1197 H 0.4285 0.94461 0.53674 0.0
H1198 H 0.46325 0.67982 0.54818 0.0
H1199 H 0.50125 0.02581 0.38861 0.0
H1200 H 0.49824 1.01099 0.08784 0.0
H1201 H 0.51856 0.92879 0.10327 0.0
H1202 H 0.46072 0.1679 0.17966 0.0
H1203 H 0.49402 0.67532 0.32232 0.0
H1204 H 0.48872 0.64914 0.39921 0.0
H1205 H 0.46425 0.09719 0.1134 0.0
H1206 H 0.47929 0.16421 0.3708 0.0
N1207 N 0.4981 0.95539 0.2183 0.0
C1208 C 0.49668 0.99773 0.12347 0.0
C1209 C 0.50848 0.95078 0.13267 0.0
C1210 C 0.48283 0.02696 0.15959 0.0
C1211 C 0.48918 1.00132 0.21474 0.0
C1212 C 0.50803 0.93054 0.17801 0.0
N1213 N 0.49613 1.01486 0.31257 0.0
C1214 C 0.48942 0.03414 0.26541 0.0
C1215 C 0.4839 0.13656 0.34492 0.0
C1216 C 0.47714 0.15667 0.29284 0.0
C1217 C 0.49613 0.04618 0.35618 0.0
C1218 C 0.47667 0.12064 0.25098 0.0
H1219 H 0.4718 0.19382 0.28665 0.0
O1220 O 0.58486 0.9416 0.31936 0.0
O1221 O 0.50913 0.86809 0.34654 0.0
O1222 O 0.40165 0.92096 0.37147 0.0
O1223 O 0.44629 0.97552 0.32953 0.0
O1224 O 0.53817 0.92849 0.37321 0.0
O1225 O 0.56715 0.95201 0.24806 0.0
O1226 O 0.38502 0.79739 0.31259 0.0
O1227 O 0.44275 0.89283 0.28092 0.0
O1228 O 0.52532 0.8649 0.25632 0.0
O1229 O 0.45938 0.82156 0.27502 0.0
O1230 O 0.37593 0.89422 0.30954 0.0
O1231 O 0.37369 0.8141 0.3838 0.0
C1232 C 0.5328 0.88417 0.38181 0.0
C1233 C 0.46869 0.1327 0.19083 0.0
C1234 C 0.47252 0.08782 0.14834 0.0
C1235 C 0.60103 0.95287 0.2781 0.0
C1236 C 0.63632 0.99251 0.27517 0.0
C1237 C 0.63339 0.02804 0.30894 0.0
C1238 C 0.67439 0.99444 0.24177 0.0
C1239 C 0.70829 0.03197 0.24325 0.0
C1240 C 0.66671 0.0637 0.31124 0.0
C1241 C 0.70296 0.066 0.27887 0.0
C1242 C 0.41056 0.96551 0.35891 0.0
C1243 C 0.39957 0.90484 0.2722 0.0
C1244 C 0.36113 0.78635 0.34991 0.0
C1245 C 0.35331 0.73386 0.3591 0.0
C1246 C 0.38333 0.70232 0.33638 0.0
C1247 C 0.31469 0.71345 0.38505 0.0
C1248 C 0.31005 0.66277 0.39016 0.0
C1249 C 0.3821 0.6546 0.34604 0.0
C1250 C 0.34638 0.63513 0.37251 0.0
C1251 C 0.49792 0.82795 0.24918 0.0
H1252 H 0.60595 0.02695 0.33512 0.0
H1253 H 0.67763 0.96714 0.21545 0.0
H1254 H 0.66484 0.09009 0.33845 0.0
H1255 H 0.72711 0.09522 0.28235 0.0
H1256 H 0.40793 0.71434 0.31025 0.0
H1257 H 0.2877 0.73632 0.3991 0.0
H1258 H 0.40829 0.6321 0.33155 0.0
H1259 H 0.34534 0.59769 0.3754 0.0
Gd1260 Gd 0.02639 0.10445 0.79842 0.0
Gd1261 Gd 0.10619 0.18745 0.84476 0.0
C1262 C 0.0912 0.23306 0.03131 0.0
C1263 C 0.07571 0.32672 0.02485 0.0
C1264 C 0.06874 0.26658 0.91172 0.0
C1265 C 0.08016 0.22508 0.94311 0.0
C1266 C 0.06331 0.3186 0.93466 0.0
C1267 C 0.08726 0.28167 0.05595 0.0
C1268 C 0.10187 0.17698 0.05643 0.0
C1269 C 0.10298 0.12626 0.02008 0.0
N1270 N 0.08586 0.17275 0.92507 0.0
C1271 C 0.09449 0.12625 0.95768 0.0
H1272 H 0.09464 0.09214 0.94162 0.0
C1273 C 0.04968 0.29016 0.83584 0.0
N1274 N 0.0644 0.25655 0.86589 0.0
C1275 C 0.04666 0.33624 0.84972 0.0
C1276 C 0.05241 0.35063 0.89605 0.0
H1277 H 0.04557 0.28425 0.79914 0.0
H1278 H 0.09052 0.2839 0.09327 0.0
H1279 H 1.01812 0.14276 0.67997 0.0
H1280 H 0.10867 0.17326 0.09344 0.0
H1281 H 0.10884 0.09272 0.03674 0.0
H1282 H 0.07408 0.35751 0.04818 0.0
H1283 H 0.03609 1.01152 0.88861 0.0
H1284 H 0.03909 0.02634 0.58784 0.0
H1285 H 0.01877 0.10854 0.60327 0.0
H1286 H 0.07661 0.86943 0.67966 0.0
H1287 H 0.04331 0.36202 0.82232 0.0
H1288 H 0.04862 0.38819 0.89921 0.0
H1289 H 0.07309 0.94014 0.6134 0.0
H1290 H 0.05805 0.87312 0.8708 0.0
N1291 N 0.03924 0.08194 0.7183 0.0
C1292 C 0.04066 0.0396 0.62347 0.0
C1293 C 0.02885 0.08655 0.63267 0.0
C1294 C 0.05451 1.01037 0.65959 0.0
C1295 C 0.04816 0.03601 0.71474 0.0
C1296 C 0.0293 0.10679 0.67801 0.0
N1297 N 0.0412 0.02247 0.81257 0.0
C1298 C 0.04792 1.00319 0.76541 0.0
C1299 C 0.05343 0.90077 0.84492 0.0
C1300 C 0.0602 0.88066 0.79284 0.0
C1301 C 0.0412 0.99116 0.85618 0.0
C1302 C 0.06067 0.9167 0.75098 0.0
H1303 H 0.06554 0.84351 0.78665 0.0
O1304 O 0.95248 0.09573 0.81936 0.0
O1305 O 0.0282 0.16924 0.84654 0.0
O1306 O 0.13568 0.11638 0.87147 0.0
O1307 O 0.09104 0.06181 0.82953 0.0
O1308 O 0.99916 0.10885 0.87321 0.0
O1309 O 0.97019 0.08533 0.74806 0.0
O1310 O 0.15232 0.23995 0.81259 0.0
O1311 O 0.09458 0.14451 0.78092 0.0
O1312 O 1.01201 0.17243 0.75632 0.0
O1313 O 0.07796 0.21577 0.77502 0.0
O1314 O 0.1614 0.14311 0.80954 0.0
O1315 O 0.16365 0.22323 0.8838 0.0
C1316 C 1.00453 0.15317 0.88181 0.0
C1317 C 0.06865 0.90463 0.69083 0.0
C1318 C 0.06481 0.94951 0.64834 0.0
C1319 C 0.9363 0.08446 0.7781 0.0
C1320 C 0.90101 0.04482 0.77517 0.0
C1321 C 0.90394 1.00929 0.80894 0.0
C1322 C 0.86295 0.04289 0.74177 0.0
C1323 C 0.82905 1.00536 0.74325 0.0
C1324 C 0.87062 0.97363 0.81124 0.0
C1325 C 0.83437 0.97134 0.77887 0.0
C1326 C 0.12677 0.07182 0.85891 0.0
C1327 C 0.13776 0.1325 0.7722 0.0
C1328 C 0.1762 0.25099 0.84991 0.0
C1329 C 0.18402 0.30347 0.8591 0.0
C1330 C 0.154 0.33501 0.83638 0.0
C1331 C 0.22265 0.32389 0.88505 0.0
C1332 C 0.22728 0.37456 0.89016 0.0
C1333 C 0.15524 0.38273 0.84604 0.0
C1334 C 0.19096 0.40221 0.87251 0.0
C1335 C 0.03942 0.20938 0.74918 0.0
H1336 H 0.93139 1.01038 0.83512 0.0
H1337 H 0.85971 0.07019 0.71545 0.0
H1338 H 0.87249 0.94724 0.83845 0.0
H1339 H 0.81023 0.94211 0.78235 0.0
H1340 H 0.12941 0.323 0.81025 0.0
H1341 H 0.24964 0.30101 0.8991 0.0
H1342 H 0.12905 0.40524 0.83155 0.0
H1343 H 0.192 0.43964 0.8754 0.0
Gd1344 Gd 0.73892 1.01094 0.60445 0.0
Gd1345 Gd 0.69258 0.93114 0.68745 0.0
C1346 C 0.50602 0.94612 0.73306 0.0
C1347 C 0.51248 0.96162 0.82672 0.0
C1348 C 0.62562 0.96859 0.76659 0.0
C1349 C 0.59423 0.95718 0.72509 0.0
C1350 C 0.60267 0.97403 0.8186 0.0
C1351 C 0.48138 0.95006 0.78168 0.0
C1352 C 0.4809 0.93545 0.67699 0.0
C1353 C 0.51726 0.93435 0.62626 0.0
N1354 N 0.61227 0.95147 0.67275 0.0
C1355 C 0.57965 0.94284 0.62626 0.0
H1356 H 0.59572 0.94269 0.59215 0.0
C1357 C 0.70149 0.98765 0.79017 0.0
N1358 N 0.67144 0.97293 0.75656 0.0
C1359 C 0.68761 0.99067 0.83624 0.0
C1360 C 0.64128 0.98492 0.85063 0.0
H1361 H 0.73819 0.99175 0.78426 0.0
H1362 H 0.44406 0.94679 0.78391 0.0
H1363 H 0.85737 0.01921 0.64276 0.0
H1364 H 0.44389 0.92866 0.67326 0.0
H1365 H 0.50059 0.92849 0.59272 0.0
H1366 H 0.48915 0.96324 0.85751 0.0
H1367 H 0.64873 1.00124 0.51153 0.0
H1368 H 0.9495 0.99824 0.52635 0.0
H1369 H 0.93407 1.01856 0.60855 0.0
H1370 H 0.85767 0.96072 0.36943 0.0
H1371 H 0.71501 0.99402 0.86202 0.0
H1372 H 0.63812 0.98872 0.8882 0.0
H1373 H 0.92394 0.96425 0.44015 0.0
H1374 H 0.66653 0.97929 0.37313 0.0
N1375 N 0.81904 0.99809 0.58195 0.0
C1376 C 0.91387 0.99667 0.53961 0.0
C1377 C 0.90467 1.00848 0.58655 0.0
C1378 C 0.87775 0.98282 0.51037 0.0
C1379 C 0.8226 0.98917 0.53602 0.0
C1380 C 0.85932 1.00802 0.60679 0.0
N1381 N 0.72477 0.99613 0.52248 0.0
C1382 C 0.77193 0.98941 0.5032 0.0
C1383 C 0.69242 0.9839 0.40078 0.0
C1384 C 0.7445 0.97714 0.38067 0.0
C1385 C 0.68116 0.99613 0.49116 0.0
C1386 C 0.78635 0.97667 0.4167 0.0
H1387 H 0.75069 0.9718 0.34351 0.0
O1388 O 0.71798 0.08486 0.59575 0.0
O1389 O 0.6908 1.00913 0.66924 0.0
O1390 O 0.66586 0.90165 0.61638 0.0
O1391 O 0.70782 0.94629 0.56182 0.0
O1392 O 0.66413 0.03817 0.60885 0.0
O1393 O 0.78928 0.06714 0.58533 0.0
O1394 O 0.72475 0.88502 0.73996 0.0
O1395 O 0.75644 0.94276 0.64453 0.0
O1396 O 0.78102 0.02533 0.67244 0.0
O1397 O 0.76232 0.95938 0.71578 0.0
O1398 O 0.72775 0.87588 0.64313 0.0
O1399 O 0.65353 0.87369 0.72324 0.0
C1400 C 0.65553 0.0328 0.65316 0.0
C1401 C 0.8465 0.96869 0.40463 0.0
C1402 C 0.889 0.97252 0.44952 0.0
C1403 C 0.75925 0.10103 0.58447 0.0
C1404 C 0.76217 0.13632 0.54483 0.0
C1405 C 0.7284 0.13339 0.5093 0.0
C1406 C 0.79557 0.17439 0.5429 0.0
C1407 C 0.79408 0.20829 0.50537 0.0
C1408 C 0.7261 0.16671 0.47364 0.0
C1409 C 0.75846 0.20296 0.47135 0.0
C1410 C 0.67843 0.91056 0.57183 0.0
C1411 C 0.76507 0.89955 0.63256 0.0
C1412 C 0.68743 0.86113 0.751 0.0
C1413 C 0.67824 0.85332 0.80348 0.0
C1414 C 0.70096 0.88333 0.83503 0.0
C1415 C 0.65229 0.81469 0.82389 0.0
C1416 C 0.64717 0.81005 0.87457 0.0
C1417 C 0.6913 0.8821 0.88274 0.0
C1418 C 0.66483 0.84638 0.90222 0.0
C1419 C 0.78815 0.99793 0.70939 0.0
H1420 H 0.70222 0.10594 0.51039 0.0
H1421 H 0.82189 0.17763 0.5702 0.0
H1422 H 0.69889 0.16484 0.44725 0.0
H1423 H 0.75499 0.2271 0.44212 0.0
H1424 H 0.7271 0.90793 0.82301 0.0
H1425 H 0.63824 0.7877 0.80102 0.0
H1426 H 0.70579 0.90828 0.90525 0.0
H1427 H 0.66194 0.84534 0.93965 0.0
Gd1428 Gd 0.79841 0.0264 0.10445 0.0
Gd1429 Gd 0.84475 0.10619 0.18745 0.0
C1430 C 0.03131 0.09121 0.23306 0.0
C1431 C 0.02485 0.07572 0.32672 0.0
C1432 C 0.91172 0.06874 0.26659 0.0
C1433 C 0.94311 0.08016 0.22509 0.0
C1434 C 0.93467 0.0633 0.3186 0.0
C1435 C 0.05595 0.08727 0.28168 0.0
C1436 C 0.05643 0.10188 0.17698 0.0
C1437 C 0.02008 0.10299 0.12626 0.0
N1438 N 0.92507 0.08586 0.17275 0.0
C1439 C 0.95768 0.0945 0.12626 0.0
H1440 H 0.94162 0.09464 0.09215 0.0
C1441 C 0.83584 0.04969 0.29017 0.0
N1442 N 0.8659 0.0644 0.25656 0.0
C1443 C 0.84973 0.04666 0.33624 0.0
C1444 C 0.89606 0.05241 0.35063 0.0
H1445 H 0.79914 0.04558 0.28426 0.0
H1446 H 0.09327 0.09054 0.28391 0.0
H1447 H 0.67997 1.01812 0.14276 0.0
H1448 H 0.09344 0.10867 0.17326 0.0
H1449 H 0.03674 0.10884 0.09272 0.0
H1450 H 0.04818 0.07409 0.35751 0.0
H1451 H 0.8886 0.03609 1.01153 0.0
H1452 H 0.58783 0.03909 0.02635 0.0
H1453 H 0.60326 0.01877 0.10855 0.0
H1454 H 0.67966 0.07661 0.86943 0.0
H1455 H 0.82233 0.04331 0.36202 0.0
H1456 H 0.89922 0.04861 0.3882 0.0
H1457 H 0.6134 0.07309 0.94015 0.0
H1458 H 0.8708 0.05804 0.87313 0.0
N1459 N 0.7183 0.03924 0.08195 0.0
C1460 C 0.62347 0.04066 0.03961 0.0
C1461 C 0.63266 0.02885 0.08655 0.0
C1462 C 0.65958 0.05451 1.01037 0.0
C1463 C 0.71474 0.04817 0.03602 0.0
C1464 C 0.67801 0.02931 0.10679 0.0
N1465 N 0.81256 0.0412 0.02248 0.0
C1466 C 0.7654 0.04792 1.0032 0.0
C1467 C 0.84492 0.05343 0.90078 0.0
C1468 C 0.79284 0.0602 0.88067 0.0
C1469 C 0.85617 0.04121 0.99116 0.0
C1470 C 0.75098 0.06067 0.9167 0.0
H1471 H 0.78665 0.06553 0.84351 0.0
O1472 O 0.81935 0.95248 0.09575 0.0
O1473 O 0.84654 0.0282 0.16924 0.0
O1474 O 0.87147 0.13568 0.11638 0.0
O1475 O 0.82952 0.09104 0.06182 0.0
O1476 O 0.8732 0.99916 0.10885 0.0
O1477 O 0.74806 0.97019 0.08533 0.0
O1478 O 0.81259 0.15231 0.23996 0.0
O1479 O 0.7809 0.09458 0.14453 0.0
O1480 O 0.75632 1.01201 0.17244 0.0
O1481 O 0.77502 0.07795 0.21578 0.0
O1482 O 0.80958 0.16146 0.14313 0.0
O1483 O 0.8838 0.16364 0.22324 0.0
C1484 C 0.88181 1.00453 0.15316 0.0
C1485 C 0.69083 0.06865 0.90463 0.0
C1486 C 0.64834 0.06481 0.94952 0.0
C1487 C 0.77809 0.93631 0.08447 0.0
C1488 C 0.77517 0.90101 0.04483 0.0
C1489 C 0.80893 0.90394 1.0093 0.0
C1490 C 0.74177 0.86295 0.0429 0.0
C1491 C 0.74325 0.82905 1.00537 0.0
C1492 C 0.81124 0.87062 0.97364 0.0
C1493 C 0.77887 0.83437 0.97135 0.0
C1494 C 0.85891 0.12677 0.07183 0.0
C1495 C 0.77226 0.13778 0.13256 0.0
C1496 C 0.84991 0.1762 0.251 0.0
C1497 C 0.85909 0.18402 0.30348 0.0
C1498 C 0.83638 0.154 0.33503 0.0
C1499 C 0.88505 0.22264 0.32389 0.0
C1500 C 0.89016 0.22728 0.37457 0.0
C1501 C 0.84603 0.15524 0.38274 0.0
C1502 C 0.87251 0.19095 0.40222 0.0
C1503 C 0.74918 0.03941 0.20939 0.0
H1504 H 0.83512 0.93139 1.01039 0.0
H1505 H 0.71544 0.8597 0.0702 0.0
H1506 H 0.83844 0.87249 0.94725 0.0
H1507 H 0.78235 0.81023 0.94212 0.0
H1508 H 0.81024 0.12941 0.32301 0.0
H1509 H 0.89909 0.24963 0.30102 0.0
H1510 H 0.83154 0.12905 0.40525 0.0
H1511 H 0.87539 0.19199 0.43965 0.0
Gd1512 Gd 0.23892 0.5264 0.43288 0.0
Gd1513 Gd 0.19258 0.60619 0.34988 0.0
C1514 C 1.00602 0.59121 0.30428 0.0
C1515 C 1.01248 0.57572 0.21062 0.0
C1516 C 0.12562 0.56874 0.27075 0.0
C1517 C 0.09423 0.58016 0.31225 0.0
C1518 C 0.10267 0.5633 0.21873 0.0
C1519 C 0.98138 0.58727 0.25566 0.0
C1520 C 0.9809 0.60188 0.36035 0.0
C1521 C 1.01726 0.60299 0.41107 0.0
N1522 N 0.11227 0.58586 0.36458 0.0
C1523 C 0.07965 0.5945 0.41108 0.0
H1524 H 0.09572 0.59464 0.44519 0.0
C1525 C 0.20149 0.54969 0.24717 0.0
N1526 N 0.17144 0.5644 0.28078 0.0
C1527 C 0.18761 0.54666 0.20109 0.0
C1528 C 0.14128 0.55241 0.1867 0.0
H1529 H 0.23819 0.54558 0.25307 0.0
H1530 H 0.94406 0.59054 0.25343 0.0
H1531 H 0.35737 0.51812 0.39457 0.0
H1532 H 0.94389 0.60867 0.36408 0.0
H1533 H 1.00059 0.60884 0.44461 0.0
H1534 H 0.98915 0.57409 0.17982 0.0
H1535 H 0.14873 0.53609 0.5258 0.0
H1536 H 0.4495 0.53909 0.51099 0.0
H1537 H 0.43407 0.51877 0.42879 0.0
H1538 H 0.35767 0.57661 0.6679 0.0
H1539 H 0.21501 0.54331 0.17531 0.0
H1540 H 0.13812 0.54861 0.14914 0.0
H1541 H 0.42394 0.57309 0.59719 0.0
H1542 H 0.16653 0.55804 0.66421 0.0
N1543 N 0.31904 0.53924 0.45539 0.0
C1544 C 0.41387 0.54066 0.49773 0.0
C1545 C 0.40467 0.52885 0.45078 0.0
C1546 C 0.37775 0.55451 0.52696 0.0
C1547 C 0.3226 0.54817 0.50132 0.0
C1548 C 0.35932 0.52931 0.43054 0.0
N1549 N 0.22477 0.5412 0.51485 0.0
C1550 C 0.27193 0.54792 0.53414 0.0
C1551 C 0.19242 0.55343 0.63656 0.0
C1552 C 0.2445 0.5602 0.65667 0.0
C1553 C 0.18116 0.54121 0.54617 0.0
C1554 C 0.28635 0.56067 0.62064 0.0
H1555 H 0.25069 0.56553 0.69382 0.0
O1556 O 0.21798 0.45248 0.44159 0.0
O1557 O 0.1908 0.5282 0.36809 0.0
O1558 O 0.16586 0.63568 0.42096 0.0
O1559 O 0.20782 0.59104 0.47552 0.0
O1560 O 0.16413 0.49916 0.42849 0.0
O1561 O 0.28928 0.47019 0.45201 0.0
O1562 O 0.22475 0.65231 0.29738 0.0
O1563 O 0.25644 0.59458 0.39281 0.0
O1564 O 0.28102 0.51201 0.3649 0.0
O1565 O 0.26232 0.57795 0.32156 0.0
O1566 O 0.22775 0.66146 0.39421 0.0
O1567 O 0.15353 0.66364 0.31409 0.0
C1568 C 0.15553 0.50453 0.38417 0.0
C1569 C 0.3465 0.56865 0.6327 0.0
C1570 C 0.389 0.56481 0.58782 0.0
C1571 C 0.25925 0.43631 0.45287 0.0
C1572 C 0.26217 0.40101 0.4925 0.0
C1573 C 0.2284 0.40394 0.52803 0.0
C1574 C 0.29557 0.36295 0.49444 0.0
C1575 C 0.29408 0.32905 0.53196 0.0
C1576 C 0.2261 0.37062 0.5637 0.0
C1577 C 0.25846 0.33437 0.56599 0.0
C1578 C 0.17843 0.62677 0.46551 0.0
C1579 C 0.26507 0.63778 0.40478 0.0
C1580 C 0.18743 0.6762 0.28634 0.0
C1581 C 0.17824 0.68402 0.23386 0.0
C1582 C 0.20096 0.654 0.20231 0.0
C1583 C 0.15229 0.72264 0.21344 0.0
C1584 C 0.14717 0.72728 0.16277 0.0
C1585 C 0.1913 0.65524 0.15459 0.0
C1586 C 0.16483 0.69095 0.13512 0.0
C1587 C 0.28815 0.53941 0.32795 0.0
H1588 H 0.20222 0.43139 0.52694 0.0
H1589 H 0.32189 0.3597 0.46714 0.0
H1590 H 0.19889 0.37249 0.59008 0.0
H1591 H 0.25499 0.31023 0.59522 0.0
H1592 H 0.2271 0.62941 0.21433 0.0
H1593 H 0.13824 0.74963 0.23631 0.0
H1594 H 0.20579 0.62905 0.13209 0.0
H1595 H 0.16194 0.69199 0.09768 0.0
Gd1596 Gd 0.29841 0.51094 0.93288 0.0
Gd1597 Gd 0.34475 0.43114 0.84988 0.0
C1598 C 0.53131 0.44612 0.80428 0.0
C1599 C 0.52485 0.46162 0.71062 0.0
C1600 C 0.41172 0.46859 0.77075 0.0
C1601 C 0.44311 0.45718 0.81225 0.0
C1602 C 0.43467 0.47403 0.71873 0.0
C1603 C 0.55595 0.45006 0.75566 0.0
C1604 C 0.55643 0.43545 0.86035 0.0
C1605 C 0.52008 0.43435 0.91107 0.0
N1606 N 0.42507 0.45147 0.86458 0.0
C1607 C 0.45768 0.44284 0.91108 0.0
H1608 H 0.44162 0.44269 0.94519 0.0
C1609 C 0.33584 0.48765 0.74717 0.0
N1610 N 0.3659 0.47293 0.78078 0.0
C1611 C 0.34973 0.49067 0.70109 0.0
C1612 C 0.39606 0.48492 0.6867 0.0
H1613 H 0.29914 0.49175 0.75307 0.0
H1614 H 0.59327 0.44679 0.75343 0.0
H1615 H 0.17997 0.51921 0.89457 0.0
H1616 H 0.59344 0.42866 0.86408 0.0
H1617 H 0.53674 0.42849 0.94461 0.0
H1618 H 0.54818 0.46324 0.67982 0.0
H1619 H 0.3886 0.50124 0.0258 0.0
H1620 H 0.08783 0.49824 1.01099 0.0
H1621 H 0.10326 0.51856 0.92879 0.0
H1622 H 0.17966 0.46072 0.1679 0.0
H1623 H 0.32233 0.49402 0.67531 0.0
H1624 H 0.39922 0.48872 0.64914 0.0
H1625 H 0.1134 0.46425 0.09719 0.0
H1626 H 0.3708 0.47929 0.16421 0.0
N1627 N 0.2183 0.49809 0.95539 0.0
C1628 C 0.12347 0.49667 0.99773 0.0
C1629 C 0.13266 0.50848 0.95078 0.0
C1630 C 0.15958 0.48282 0.02696 0.0
C1631 C 0.21474 0.48917 1.00132 0.0
C1632 C 0.17801 0.50802 0.93054 0.0
N1633 N 0.31256 0.49613 1.01485 0.0
C1634 C 0.2654 0.48941 0.03414 0.0
C1635 C 0.34491 0.4839 0.13656 0.0
C1636 C 0.29284 0.47714 0.15667 0.0
C1637 C 0.35617 0.49613 0.04617 0.0
C1638 C 0.25098 0.47667 0.12064 0.0
H1639 H 0.28665 0.4718 0.19382 0.0
O1640 O 0.31935 0.58486 0.94159 0.0
O1641 O 0.34654 0.50913 0.86809 0.0
O1642 O 0.37147 0.40165 0.92096 0.0
O1643 O 0.32952 0.44629 0.97552 0.0
O1644 O 0.3732 0.53817 0.92849 0.0
O1645 O 0.24806 0.56714 0.95201 0.0
O1646 O 0.31259 0.38502 0.79738 0.0
O1647 O 0.2809 0.44276 0.8928 0.0
O1648 O 0.25632 0.52533 0.8649 0.0
O1649 O 0.27502 0.45938 0.82156 0.0
O1650 O 0.30958 0.37588 0.89421 0.0
O1651 O 0.3838 0.37369 0.81409 0.0
C1652 C 0.38181 0.5328 0.88417 0.0
C1653 C 0.19083 0.46869 0.1327 0.0
C1654 C 0.14834 0.47252 0.08782 0.0
C1655 C 0.27809 0.60103 0.95287 0.0
C1656 C 0.27517 0.63632 0.9925 0.0
C1657 C 0.30893 0.63339 0.02803 0.0
C1658 C 0.24177 0.67439 0.99444 0.0
C1659 C 0.24325 0.70829 0.03196 0.0
C1660 C 0.31124 0.66671 0.0637 0.0
C1661 C 0.27887 0.70296 0.06599 0.0
C1662 C 0.35891 0.41056 0.96551 0.0
C1663 C 0.27226 0.39955 0.90478 0.0
C1664 C 0.34991 0.36113 0.78634 0.0
C1665 C 0.35909 0.35332 0.73386 0.0
C1666 C 0.33638 0.38333 0.70231 0.0
C1667 C 0.38505 0.31469 0.71344 0.0
C1668 C 0.39016 0.31005 0.66277 0.0
C1669 C 0.34603 0.3821 0.65459 0.0
C1670 C 0.37251 0.34638 0.63512 0.0
C1671 C 0.24918 0.49793 0.82795 0.0
H1672 H 0.33512 0.60594 0.02694 0.0
H1673 H 0.21544 0.67763 0.96714 0.0
H1674 H 0.33844 0.66484 0.09008 0.0
H1675 H 0.28235 0.7271 0.09522 0.0
H1676 H 0.31024 0.40793 0.71433 0.0
H1677 H 0.39909 0.2877 0.73631 0.0
H1678 H 0.33154 0.40828 0.63209 0.0
H1679 H 0.37539 0.34534 0.59768 0.0
Gd1680 Gd 0.60445 0.73892 1.01094 0.0
Gd1681 Gd 0.68745 0.69258 0.93115 0.0
C1682 C 0.73306 0.50602 0.94613 0.0
C1683 C 0.82672 0.51249 0.96162 0.0
C1684 C 0.76659 0.62562 0.96859 0.0
C1685 C 0.72509 0.59423 0.95718 0.0
C1686 C 0.8186 0.60267 0.97403 0.0
C1687 C 0.78168 0.48138 0.95007 0.0
C1688 C 0.67699 0.4809 0.93546 0.0
C1689 C 0.62626 0.51726 0.93435 0.0
N1690 N 0.67275 0.61227 0.95147 0.0
C1691 C 0.62626 0.57965 0.94284 0.0
H1692 H 0.59215 0.59572 0.9427 0.0
C1693 C 0.79017 0.7015 0.98764 0.0
N1694 N 0.75656 0.67144 0.97293 0.0
C1695 C 0.83625 0.68761 0.99067 0.0
C1696 C 0.85064 0.64128 0.98492 0.0
H1697 H 0.78427 0.7382 0.99174 0.0
H1698 H 0.78391 0.44406 0.9468 0.0
H1699 H 0.64276 0.85736 0.01922 0.0
H1700 H 0.67326 0.44389 0.92867 0.0
H1701 H 0.59273 0.50059 0.9285 0.0
H1702 H 0.85751 0.48915 0.96325 0.0
H1703 H 0.51153 0.64873 1.00124 0.0
H1704 H 0.52634 0.9495 0.99824 0.0
H1705 H 0.60854 0.93407 1.01857 0.0
H1706 H 0.36943 0.85767 0.96072 0.0
H1707 H 0.86203 0.71501 0.99401 0.0
H1708 H 0.8882 0.63812 0.98872 0.0
H1709 H 0.44014 0.92393 0.96425 0.0
H1710 H 0.37313 0.66653 0.97929 0.0
N1711 N 0.58195 0.81903 0.9981 0.0
C1712 C 0.53961 0.91386 0.99667 0.0
C1713 C 0.58655 0.90467 1.00848 0.0
C1714 C 0.51037 0.87775 0.98282 0.0
C1715 C 0.53602 0.82259 0.98917 0.0
C1716 C 0.60679 0.85932 1.00803 0.0
N1717 N 0.52248 0.72477 0.99613 0.0
C1718 C 0.5032 0.77192 0.98941 0.0
C1719 C 0.40078 0.69241 0.98391 0.0
C1720 C 0.38067 0.74449 0.97714 0.0
C1721 C 0.49116 0.68115 0.99613 0.0
C1722 C 0.4167 0.78635 0.97667 0.0
H1723 H 0.34351 0.75068 0.9718 0.0
O1724 O 0.59574 0.71798 0.08486 0.0
O1725 O 0.66924 0.6908 1.00913 0.0
O1726 O 0.61638 0.66586 0.90166 0.0
O1727 O 0.56182 0.70781 0.94629 0.0
O1728 O 0.60885 0.66413 0.03817 0.0
O1729 O 0.58532 0.78928 0.06714 0.0
O1730 O 0.73994 0.72475 0.88501 0.0
O1731 O 0.64453 0.75643 0.94276 0.0
O1732 O 0.67244 0.78101 0.02533 0.0
O1733 O 0.71578 0.76232 0.95939 0.0
O1734 O 0.64312 0.72775 0.87588 0.0
O1735 O 0.72324 0.65353 0.8737 0.0
C1736 C 0.65317 0.65552 0.0328 0.0
C1737 C 0.40463 0.8465 0.96869 0.0
C1738 C 0.44952 0.88899 0.97252 0.0
C1739 C 0.58446 0.75924 0.10103 0.0
C1740 C 0.54482 0.76216 0.13633 0.0
C1741 C 0.5093 0.7284 0.1334 0.0
C1742 C 0.54289 0.79557 0.17439 0.0
C1743 C 0.50536 0.79409 0.20828 0.0
C1744 C 0.47363 0.7261 0.16671 0.0
C1745 C 0.47134 0.75846 0.20296 0.0
C1746 C 0.57183 0.67843 0.91057 0.0
C1747 C 0.63256 0.76507 0.89956 0.0
C1748 C 0.75099 0.68743 0.86114 0.0
C1749 C 0.80347 0.67825 0.85332 0.0
C1750 C 0.83502 0.70099 0.88333 0.0
C1751 C 0.82389 0.65228 0.81471 0.0
C1752 C 0.87457 0.64718 0.81008 0.0
C1753 C 0.88274 0.69134 0.8821 0.0
C1754 C 0.90222 0.66485 0.8464 0.0
C1755 C 0.70939 0.78815 0.99793 0.0
H1756 H 0.51039 0.70221 0.10595 0.0
H1757 H 0.57019 0.82189 0.17763 0.0
H1758 H 0.44725 0.69889 0.16485 0.0
H1759 H 0.44211 0.75499 0.22711 0.0
H1760 H 0.82299 0.72713 0.90792 0.0
H1761 H 0.80103 0.6382 0.78773 0.0
H1762 H 0.90523 0.70585 0.90828 0.0
H1763 H 0.93965 0.66196 0.84536 0.0
Gd1764 Gd 0.10445 0.79841 0.02639 0.0
Gd1765 Gd 0.18745 0.84475 0.10619 0.0
C1766 C 0.23306 0.03131 0.0912 0.0
C1767 C 0.32672 0.02485 0.07571 0.0
C1768 C 0.26659 0.91172 0.06874 0.0
C1769 C 0.22509 0.9431 0.08016 0.0
C1770 C 0.3186 0.93466 0.06331 0.0
C1771 C 0.28168 0.05595 0.08727 0.0
C1772 C 0.17699 0.05643 0.10188 0.0
C1773 C 0.12626 0.02007 0.10298 0.0
N1774 N 0.17275 0.92507 0.08586 0.0
C1775 C 0.12626 0.95768 0.09449 0.0
H1776 H 0.09215 0.94162 0.09464 0.0
C1777 C 0.29017 0.83584 0.0497 0.0
N1778 N 0.25656 0.86589 0.0644 0.0
C1779 C 0.33625 0.84972 0.04667 0.0
C1780 C 0.35064 0.89605 0.05241 0.0
H1781 H 0.28427 0.79914 0.0456 0.0
H1782 H 0.28391 0.09327 0.09053 0.0
H1783 H 0.14276 0.67997 1.01811 0.0
H1784 H 0.17326 0.09344 0.10867 0.0
H1785 H 0.09273 0.03674 0.10884 0.0
H1786 H 0.35751 0.04818 0.07408 0.0
H1787 H 1.01153 0.8886 0.03609 0.0
H1788 H 0.02634 0.58784 0.0391 0.0
H1789 H 0.10854 0.60326 0.01877 0.0
H1790 H 0.86943 0.67967 0.07661 0.0
H1791 H 0.36203 0.82232 0.04332 0.0
H1792 H 0.3882 0.89921 0.04862 0.0
H1793 H 0.94014 0.6134 0.07309 0.0
H1794 H 0.87313 0.8708 0.05804 0.0
N1795 N 0.08195 0.7183 0.03924 0.0
C1796 C 0.03961 0.62347 0.04066 0.0
C1797 C 0.08655 0.63267 0.02885 0.0
C1798 C 1.01037 0.65959 0.05451 0.0
C1799 C 0.03602 0.71474 0.04817 0.0
C1800 C 0.10679 0.67801 0.02931 0.0
N1801 N 0.02248 0.81257 0.04121 0.0
C1802 C 1.0032 0.76541 0.04792 0.0
C1803 C 0.90078 0.84492 0.05343 0.0
C1804 C 0.88067 0.79284 0.0602 0.0
C1805 C 0.99116 0.85618 0.04121 0.0
C1806 C 0.9167 0.75099 0.06067 0.0
H1807 H 0.84351 0.78665 0.06554 0.0
O1808 O 0.09574 0.81935 0.95247 0.0
O1809 O 0.16924 0.84653 0.0282 0.0
O1810 O 0.11638 0.87147 0.13568 0.0
O1811 O 0.06182 0.82952 0.09104 0.0
O1812 O 0.10885 0.8732 0.99916 0.0
O1813 O 0.08532 0.74806 0.97019 0.0
O1814 O 0.23994 0.81258 0.15232 0.0
O1815 O 0.14453 0.7809 0.09457 0.0
O1816 O 0.17244 0.75632 1.012 0.0
O1817 O 0.21578 0.77502 0.07795 0.0
O1818 O 0.14312 0.80958 0.16145 0.0
O1819 O 0.22324 0.8838 0.16364 0.0
C1820 C 0.15317 0.88181 1.00453 0.0
C1821 C 0.90463 0.69084 0.06865 0.0
C1822 C 0.94952 0.64834 0.06482 0.0
C1823 C 0.08446 0.77809 0.9363 0.0
C1824 C 0.04482 0.77517 0.90101 0.0
C1825 C 1.0093 0.80894 0.90394 0.0
C1826 C 0.04289 0.74176 0.86295 0.0
C1827 C 1.00536 0.74325 0.82905 0.0
C1828 C 0.97363 0.81124 0.87062 0.0
C1829 C 0.97134 0.77887 0.83437 0.0
C1830 C 0.07183 0.85891 0.12677 0.0
C1831 C 0.13256 0.77226 0.13777 0.0
C1832 C 0.25099 0.84991 0.1762 0.0
C1833 C 0.30347 0.85908 0.18401 0.0
C1834 C 0.33502 0.83634 0.15401 0.0
C1835 C 0.32389 0.88506 0.22262 0.0
C1836 C 0.37457 0.89015 0.22725 0.0
C1837 C 0.38274 0.84599 0.15524 0.0
C1838 C 0.40222 0.87248 0.19094 0.0
C1839 C 0.20939 0.74918 0.0394 0.0
H1840 H 1.01039 0.83512 0.93138 0.0
H1841 H 0.07019 0.71544 0.85971 0.0
H1842 H 0.94725 0.83845 0.87249 0.0
H1843 H 0.94211 0.78234 0.81023 0.0
H1844 H 0.32299 0.8102 0.12942 0.0
H1845 H 0.30103 0.89913 0.2496 0.0
H1846 H 0.40523 0.83149 0.12905 0.0
H1847 H 0.43965 0.87538 0.19197 0.0
Gd1848 Gd 0.43288 0.23892 0.52639 0.0
Gd1849 Gd 0.34988 0.19258 0.60619 0.0
C1850 C 0.30427 1.00602 0.5912 0.0
C1851 C 0.21061 1.01249 0.57571 0.0
C1852 C 0.27074 0.12562 0.56874 0.0
C1853 C 0.31224 0.09423 0.58016 0.0
C1854 C 0.21873 0.10267 0.56331 0.0
C1855 C 0.25565 0.98138 0.58727 0.0
C1856 C 0.36035 0.9809 0.60188 0.0
C1857 C 0.41107 1.01726 0.60298 0.0
N1858 N 0.36458 0.11227 0.58586 0.0
C1859 C 0.41108 0.07965 0.59449 0.0
H1860 H 0.44519 0.09572 0.59464 0.0
C1861 C 0.24716 0.2015 0.5497 0.0
N1862 N 0.28078 0.17144 0.5644 0.0
C1863 C 0.20109 0.18761 0.54667 0.0
C1864 C 0.1867 0.14128 0.55241 0.0
H1865 H 0.25307 0.2382 0.5456 0.0
H1866 H 0.25342 0.94406 0.59053 0.0
H1867 H 0.39458 0.35736 0.51811 0.0
H1868 H 0.36408 0.94389 0.60867 0.0
H1869 H 0.44461 1.00059 0.60884 0.0
H1870 H 0.17982 0.98915 0.57408 0.0
H1871 H 0.5258 0.14873 0.53609 0.0
H1872 H 0.51099 0.4495 0.5391 0.0
H1873 H 0.42879 0.43407 0.51877 0.0
H1874 H 0.6679 0.35767 0.57661 0.0
H1875 H 0.17531 0.21501 0.54332 0.0
H1876 H 0.14913 0.13812 0.54862 0.0
H1877 H 0.59719 0.42393 0.57309 0.0
H1878 H 0.66421 0.16653 0.55804 0.0
N1879 N 0.45539 0.31903 0.53924 0.0
C1880 C 0.49773 0.41386 0.54066 0.0
C1881 C 0.45078 0.40467 0.52885 0.0
C1882 C 0.52696 0.37775 0.55451 0.0
C1883 C 0.50132 0.32259 0.54817 0.0
C1884 C 0.43054 0.35932 0.52931 0.0
N1885 N 0.51485 0.22477 0.54121 0.0
C1886 C 0.53414 0.27192 0.54792 0.0
C1887 C 0.63656 0.19241 0.55343 0.0
C1888 C 0.65667 0.24449 0.5602 0.0
C1889 C 0.54617 0.18115 0.54121 0.0
C1890 C 0.62064 0.28635 0.56067 0.0
H1891 H 0.69382 0.25068 0.56554 0.0
O1892 O 0.44159 0.21798 0.45247 0.0
O1893 O 0.36809 0.1908 0.5282 0.0
O1894 O 0.42096 0.16586 0.63568 0.0
O1895 O 0.47552 0.20781 0.59104 0.0
O1896 O 0.42849 0.16413 0.49916 0.0
O1897 O 0.45201 0.28928 0.47019 0.0
O1898 O 0.29739 0.22475 0.65232 0.0
O1899 O 0.39281 0.25643 0.59457 0.0
O1900 O 0.3649 0.28101 0.512 0.0
O1901 O 0.32156 0.26232 0.57795 0.0
O1902 O 0.39421 0.22775 0.66145 0.0
O1903 O 0.31409 0.15353 0.66363 0.0
C1904 C 0.38417 0.15552 0.50453 0.0
C1905 C 0.6327 0.3465 0.56865 0.0
C1906 C 0.58782 0.38899 0.56482 0.0
C1907 C 0.45287 0.25924 0.4363 0.0
C1908 C 0.49251 0.26216 0.40101 0.0
C1909 C 0.52804 0.2284 0.40394 0.0
C1910 C 0.49445 0.29557 0.36295 0.0
C1911 C 0.53197 0.29409 0.32905 0.0
C1912 C 0.5637 0.2261 0.37062 0.0
C1913 C 0.566 0.25846 0.33437 0.0
C1914 C 0.46551 0.17843 0.62677 0.0
C1915 C 0.40478 0.26507 0.63777 0.0
C1916 C 0.28634 0.18743 0.6762 0.0
C1917 C 0.23386 0.17825 0.68401 0.0
C1918 C 0.20232 0.20099 0.65401 0.0
C1919 C 0.21344 0.15228 0.72262 0.0
C1920 C 0.16276 0.14718 0.72725 0.0
C1921 C 0.1546 0.19134 0.65524 0.0
C1922 C 0.13512 0.16485 0.69094 0.0
C1923 C 0.32795 0.28815 0.5394 0.0
H1924 H 0.52695 0.20221 0.43138 0.0
H1925 H 0.46715 0.32189 0.35971 0.0
H1926 H 0.59009 0.19889 0.37249 0.0
H1927 H 0.59523 0.25499 0.31023 0.0
H1928 H 0.21434 0.22713 0.62942 0.0
H1929 H 0.23631 0.1382 0.7496 0.0
H1930 H 0.1321 0.20585 0.62905 0.0
H1931 H 0.09768 0.16196 0.69197 0.0
Gd1932 Gd 0.93288 0.29841 0.51094 0.0
Gd1933 Gd 0.84988 0.34475 0.43115 0.0
C1934 C 0.80427 0.53131 0.44613 0.0
C1935 C 0.71061 0.52485 0.46162 0.0
C1936 C 0.77074 0.41172 0.46859 0.0
C1937 C 0.81224 0.4431 0.45718 0.0
C1938 C 0.71873 0.43466 0.47403 0.0
C1939 C 0.75565 0.55595 0.45007 0.0
C1940 C 0.86035 0.55643 0.43546 0.0
C1941 C 0.91107 0.52007 0.43435 0.0
N1942 N 0.86458 0.42507 0.45147 0.0
C1943 C 0.91108 0.45768 0.44284 0.0
H1944 H 0.94519 0.44162 0.4427 0.0
C1945 C 0.74716 0.33584 0.48764 0.0
N1946 N 0.78078 0.36589 0.47293 0.0
C1947 C 0.70109 0.34972 0.49067 0.0
C1948 C 0.6867 0.39605 0.48492 0.0
H1949 H 0.75307 0.29914 0.49174 0.0
H1950 H 0.75342 0.59327 0.4468 0.0
H1951 H 0.89458 0.17997 0.51922 0.0
H1952 H 0.86408 0.59344 0.42867 0.0
H1953 H 0.94461 0.53674 0.4285 0.0
H1954 H 0.67982 0.54818 0.46325 0.0
H1955 H 0.0258 0.3886 0.50124 0.0
H1956 H 1.01099 0.08784 0.49824 0.0
H1957 H 0.92879 0.10326 0.51857 0.0
H1958 H 0.1679 0.17967 0.46072 0.0
H1959 H 0.67531 0.32232 0.49401 0.0
H1960 H 0.64913 0.39921 0.48872 0.0
H1961 H 0.09719 0.1134 0.46425 0.0
H1962 H 0.16421 0.3708 0.47929 0.0
N1963 N 0.95539 0.2183 0.4981 0.0
C1964 C 0.99773 0.12347 0.49667 0.0
C1965 C 0.95078 0.13267 0.50848 0.0
C1966 C 0.02696 0.15959 0.48282 0.0
C1967 C 1.00132 0.21474 0.48917 0.0
C1968 C 0.93054 0.17801 0.50803 0.0
N1969 N 1.01485 0.31257 0.49613 0.0
C1970 C 0.03414 0.26541 0.48941 0.0
C1971 C 0.13656 0.34492 0.48391 0.0
C1972 C 0.15667 0.29284 0.47714 0.0
C1973 C 0.04617 0.35618 0.49613 0.0
C1974 C 0.12064 0.25099 0.47667 0.0
H1975 H 0.19382 0.28665 0.4718 0.0
O1976 O 0.94159 0.31935 0.58486 0.0
O1977 O 0.86809 0.34653 0.50913 0.0
O1978 O 0.92096 0.37147 0.40166 0.0
O1979 O 0.97552 0.32952 0.44629 0.0
O1980 O 0.92849 0.3732 0.53817 0.0
O1981 O 0.95201 0.24806 0.56714 0.0
O1982 O 0.79739 0.31258 0.38501 0.0
O1983 O 0.89281 0.2809 0.44276 0.0
O1984 O 0.8649 0.25632 0.52533 0.0
O1985 O 0.82156 0.27502 0.45939 0.0
O1986 O 0.89421 0.30958 0.37588 0.0
O1987 O 0.81409 0.3838 0.3737 0.0
C1988 C 0.88417 0.38181 0.5328 0.0
C1989 C 0.1327 0.19084 0.46869 0.0
C1990 C 0.08782 0.14834 0.47252 0.0
C1991 C 0.95287 0.27809 0.60103 0.0
C1992 C 0.99251 0.27517 0.63633 0.0
C1993 C 0.02804 0.30894 0.6334 0.0
C1994 C 0.99445 0.24176 0.67439 0.0
C1995 C 0.03197 0.24325 0.70828 0.0
C1996 C 0.0637 0.31124 0.66671 0.0
C1997 C 0.066 0.27887 0.70296 0.0
C1998 C 0.96551 0.35891 0.41057 0.0
C1999 C 0.90478 0.27226 0.39956 0.0
C2000 C 0.78634 0.34991 0.36114 0.0
C2001 C 0.73386 0.35908 0.35332 0.0
C2002 C 0.70232 0.33634 0.38333 0.0
C2003 C 0.71344 0.38506 0.31471 0.0
C2004 C 0.66276 0.39015 0.31008 0.0
C2005 C 0.6546 0.34599 0.3821 0.0
C2006 C 0.63512 0.37248 0.3464 0.0
C2007 C 0.82795 0.24918 0.49793 0.0
H2008 H 0.02695 0.33512 0.60595 0.0
H2009 H 0.96715 0.21544 0.67763 0.0
H2010 H 0.09009 0.33845 0.66485 0.0
H2011 H 0.09523 0.28234 0.72711 0.0
H2012 H 0.71434 0.3102 0.40792 0.0
H2013 H 0.73631 0.39913 0.28773 0.0
H2014 H 0.6321 0.33149 0.40828 0.0
H2015 H 0.59768 0.37538 0.34536 0.0
loop_
_geom_bond_atom_site_label_1
_geom_bond_atom_site_label_2
_geom_bond_distance
_geom_bond_site_symmetry_2
_ccdc_geom_bond_type
Gd0 N31 2.661 . S
Gd0 N37 2.601 . S
Gd0 O44 2.545 . S
Gd0 O45 2.606 . S
Gd0 O47 2.429 . S
Gd0 O48 2.545 . S
Gd0 O49 2.412 . S
Gd0 O51 2.372 . S
Gd0 O52 2.324 . S
Gd0 C59 2.828 . S
Gd1 N10 2.661 . S
Gd1 N14 2.601 . S
Gd1 O45 2.362 . S
Gd1 O46 2.324 1_455 S
Gd1 O50 2.545 1_455 S
Gd1 O51 2.609 . S
Gd1 O53 2.429 . S
Gd1 O54 2.545 1_455 S
Gd1 O55 2.412 1_455 S
Gd1 C68 2.828 1_455 S
C2 C5 1.417 . S
C2 C7 1.431 . S
C2 C8 1.412 . S
C3 C6 1.437 . S
C3 C7 1.317 . S
C3 H22 0.929 . S
C4 C5 1.426 . S
C4 C6 1.413 . S
C4 N14 1.359 . S
C5 C2 1.417 . S
C5 C4 1.426 . S
C5 N10 1.350 . S
C6 C3 1.437 . S
C6 C4 1.413 . S
C6 C16 1.391 . S
C7 C2 1.431 . S
C7 C3 1.317 . S
C7 H18 0.930 . S
C8 C2 1.412 . S
C8 C9 1.355 . S
C8 H20 0.930 . S
C9 C8 1.355 . S
C9 C11 1.402 . S
C9 H21 0.930 . S
N10 Gd1 2.661 . S
N10 C5 1.350 . S
N10 C11 1.307 . S
C11 C9 1.402 . S
C11 N10 1.307 . S
C11 H12 0.930 . S
H12 C11 0.930 . S
C13 N14 1.334 . S
C13 C15 1.394 . S
C13 H17 0.930 . S
N14 Gd1 2.601 . S
N14 C4 1.359 . S
N14 C13 1.334 . S
C15 C13 1.394 . S
C15 C16 1.359 . S
C15 H27 0.930 . S
C16 C6 1.391 . S
C16 C15 1.359 . S
C16 H28 0.929 . S
H17 C13 0.930 . S
H18 C7 0.930 . S
H19 C36 0.930 . S
H20 C8 0.930 . S
H21 C9 0.930 . S
H22 C3 0.929 . S
H23 C41 0.926 1_455 S
H24 C32 0.930 1_655 S
H25 C33 0.930 . S
H26 C57 0.929 . S
H27 C15 0.930 . S
H28 C16 0.929 . S
H29 C58 0.930 . S
H30 C39 0.930 . S
N31 Gd0 2.661 . S
N31 C35 1.350 . S
N31 C36 1.307 . S
C32 H24 0.930 1_455 S
C32 C33 1.355 . S
C32 C34 1.412 1_455 S
C33 H25 0.930 . S
C33 C32 1.355 . S
C33 C36 1.402 . S
C34 C32 1.412 1_655 S
C34 C35 1.417 1_655 S
C34 C58 1.431 . S
C35 N31 1.350 . S
C35 C34 1.417 1_455 S
C35 C38 1.426 1_455 S
C36 H19 0.930 . S
C36 N31 1.307 . S
C36 C33 1.402 . S
N37 Gd0 2.601 . S
N37 C38 1.359 1_455 S
N37 C41 1.331 1_455 S
C38 C35 1.426 1_655 S
C38 N37 1.359 1_655 S
C38 C42 1.413 . S
C39 H30 0.930 . S
C39 C40 1.359 . S
C39 C41 1.401 . S
C40 C39 1.359 . S
C40 C42 1.391 . S
C40 H43 0.929 . S
C41 H23 0.926 1_655 S
C41 N37 1.331 1_655 S
C41 C39 1.401 . S
C42 C38 1.413 . S
C42 C40 1.391 . S
C42 C57 1.437 . S
H43 C40 0.929 . S
O44 Gd0 2.545 . S
O44 C59 1.258 . S
O45 Gd0 2.606 . S
O45 Gd1 2.362 . S
O45 C56 1.284 . S
O46 Gd1 2.324 1_655 S
O46 C66 1.254 . S
O47 Gd0 2.429 . S
O47 C66 1.268 1_455 S
O48 Gd0 2.545 . S
O48 C56 1.250 . S
O49 Gd0 2.412 . S
O49 C59 1.252 . S
O50 Gd1 2.545 1_655 S
O50 C68 1.258 . S
O51 Gd0 2.372 . S
O51 Gd1 2.609 . S
O51 C67 1.274 1_455 S
O52 Gd0 2.324 . S
O52 C75 1.254 . S
O53 Gd1 2.429 . S
O53 C75 1.268 . S
O54 Gd1 2.545 1_655 S
O54 C67 1.250 . S
O55 Gd1 2.412 1_655 S
O55 C68 1.252 . S
C56 O45 1.284 . S
C56 O48 1.250 . S
C57 H26 0.929 . S
C57 C42 1.437 . S
C57 C58 1.317 . S
C58 H29 0.930 . S
C58 C34 1.431 . S
C58 C57 1.317 . S
C59 Gd0 2.828 . S
C59 O44 1.258 . S
C59 O49 1.252 . S
C59 C60 1.497 . S
C60 C59 1.497 . S
C60 C61 1.395 . S
C60 C62 1.380 . S
C61 C60 1.395 . S
C61 C64 1.398 . S
C61 H76 0.930 . S
C62 C60 1.380 . S
C62 C63 1.391 . S
C62 H77 0.930 . S
C63 C62 1.391 . S
C63 C65 1.387 . S
C64 C61 1.398 . S
C64 C65 1.380 . S
C64 H78 0.930 . S
C65 C63 1.387 . S
C65 C64 1.380 . S
C65 H79 0.930 . S
C66 O46 1.254 . S
C66 O47 1.268 1_655 S
C67 O51 1.274 1_655 S
C67 O54 1.250 . S
C68 Gd1 2.828 1_655 S
C68 O50 1.258 . S
C68 O55 1.252 . S
C68 C69 1.497 . S
C69 C68 1.497 . S
C69 C70 1.395 . S
C69 C71 1.380 . S
C70 C69 1.395 . S
C70 C73 1.398 . S
C70 H80 0.930 . S
C71 C69 1.380 . S
C71 C72 1.391 . S
C71 H81 0.930 . S
C72 C71 1.391 . S
C72 C74 1.387 . S
C73 C70 1.398 . S
C73 C74 1.380 . S
C73 H82 0.930 . S
C74 C72 1.387 . S
C74 C73 1.380 . S
C74 H83 0.930 . S
C75 O52 1.254 . S
C75 O53 1.268 . S
H76 C61 0.930 . S
H77 C62 0.930 . S
H78 C64 0.930 . S
H79 C65 0.930 . S
H80 C70 0.930 . S
H81 C71 0.930 . S
H82 C73 0.930 . S
H83 C74 0.930 . S
Gd84 N115 2.661 . S
Gd84 N121 2.601 . S
Gd84 O128 2.545 . S
Gd84 O129 2.606 . S
Gd84 O131 2.429 . S
Gd84 O132 2.545 . S
Gd84 O133 2.412 . S
Gd84 O135 2.362 . S
Gd84 O136 2.324 . S
Gd84 C143 2.828 . S
Gd85 N94 2.661 . S
Gd85 N98 2.601 . S
Gd85 O129 2.362 . S
Gd85 O130 2.324 . S
Gd85 O134 2.545 . S
Gd85 O135 2.606 . S
Gd85 O137 2.429 . S
Gd85 O138 2.545 . S
Gd85 O139 2.412 . S
Gd85 C152 2.828 . S
C86 C89 1.417 . S
C86 C91 1.431 . S
C86 C92 1.412 . S
C87 C90 1.437 . S
C87 C91 1.317 . S
C87 H106 0.929 . S
C88 C89 1.426 . S
C88 C90 1.413 . S
C88 N98 1.359 . S
C89 C86 1.417 . S
C89 C88 1.426 . S
C89 N94 1.350 . S
C90 C87 1.437 . S
C90 C88 1.413 . S
C90 C100 1.391 . S
C91 C86 1.431 . S
C91 C87 1.317 . S
C91 H102 0.930 . S
C92 C86 1.412 . S
C92 C93 1.355 . S
C92 H104 0.930 . S
C93 C92 1.355 . S
C93 C95 1.402 . S
C93 H105 0.930 . S
N94 Gd85 2.661 . S
N94 C89 1.350 . S
N94 C95 1.307 . S
C95 C93 1.402 . S
C95 N94 1.307 . S
C95 H96 0.930 . S
H96 C95 0.930 . S
C97 N98 1.334 . S
C97 C99 1.394 . S
C97 H101 0.930 . S
N98 Gd85 2.601 . S
N98 C88 1.359 . S
N98 C97 1.334 . S
C99 C97 1.394 . S
C99 C100 1.359 . S
C99 H111 0.930 . S
C100 C90 1.391 . S
C100 C99 1.359 . S
C100 H112 0.929 . S
H101 C97 0.930 . S
H102 C91 0.930 . S
H103 C120 0.930 . S
H104 C92 0.930 . S
H105 C93 0.930 . S
H106 C87 0.929 . S
H107 C125 0.930 . S
H108 C116 0.930 1_554 S
H109 C117 0.930 . S
H110 C141 0.929 . S
H111 C99 0.930 . S
H112 C100 0.929 . S
H113 C142 0.930 . S
H114 C123 0.930 . S
N115 Gd84 2.661 . S
N115 C119 1.350 . S
N115 C120 1.307 . S
C116 H108 0.930 1_556 S
C116 C117 1.355 . S
C116 C118 1.412 . S
C117 H109 0.930 . S
C117 C116 1.355 . S
C117 C120 1.402 . S
C118 C116 1.412 . S
C118 C119 1.417 . S
C118 C142 1.431 . S
C119 N115 1.350 . S
C119 C118 1.417 . S
C119 C122 1.426 . S
C120 H103 0.930 . S
C120 N115 1.307 . S
C120 C117 1.402 . S
N121 Gd84 2.601 . S
N121 C122 1.359 . S
N121 C125 1.334 . S
C122 C119 1.426 . S
C122 N121 1.359 . S
C122 C126 1.413 . S
C123 H114 0.930 . S
C123 C124 1.359 . S
C123 C125 1.394 . S
C124 C123 1.359 . S
C124 C126 1.391 . S
C124 H127 0.929 . S
C125 H107 0.930 . S
C125 N121 1.334 . S
C125 C123 1.394 . S
C126 C122 1.413 . S
C126 C124 1.391 . S
C126 C141 1.437 . S
H127 C124 0.929 . S
O128 Gd84 2.545 . S
O128 C143 1.258 . S
O129 Gd84 2.606 . S
O129 Gd85 2.362 . S
O129 C140 1.284 . S
O130 Gd85 2.324 . S
O130 C150 1.254 . S
O131 Gd84 2.429 . S
O131 C150 1.268 . S
O132 Gd84 2.545 . S
O132 C140 1.250 . S
O133 Gd84 2.412 . S
O133 C143 1.252 . S
O134 Gd85 2.545 . S
O134 C152 1.258 . S
O135 Gd84 2.362 . S
O135 Gd85 2.606 . S
O135 C151 1.284 . S
O136 Gd84 2.324 . S
O136 C159 1.254 . S
O137 Gd85 2.429 . S
O137 C159 1.268 . S
O138 Gd85 2.545 . S
O138 C151 1.250 . S
O139 Gd85 2.412 . S
O139 C152 1.252 . S
C140 O129 1.284 . S
C140 O132 1.250 . S
C141 H110 0.929 . S
C141 C126 1.437 . S
C141 C142 1.317 . S
C142 H113 0.930 . S
C142 C118 1.431 . S
C142 C141 1.317 . S
C143 Gd84 2.828 . S
C143 O128 1.258 . S
C143 O133 1.252 . S
C143 C144 1.497 . S
C144 C143 1.497 . S
C144 C145 1.395 . S
C144 C146 1.380 . S
C145 C144 1.395 . S
C145 C148 1.398 . S
C145 H160 0.930 . S
C146 C144 1.380 . S
C146 C147 1.391 . S
C146 H161 0.930 . S
C147 C146 1.391 . S
C147 C149 1.387 . S
C148 C145 1.398 . S
C148 C149 1.380 . S
C148 H162 0.930 . S
C149 C147 1.387 . S
C149 C148 1.380 . S
C149 H163 0.930 . S
C150 O130 1.254 . S
C150 O131 1.268 . S
C151 O135 1.284 . S
C151 O138 1.250 . S
C152 Gd85 2.828 . S
C152 O134 1.258 . S
C152 O139 1.252 . S
C152 C153 1.497 . S
C153 C152 1.497 . S
C153 C154 1.395 . S
C153 C155 1.380 . S
C154 C153 1.395 . S
C154 C157 1.398 . S
C154 H164 0.930 . S
C155 C153 1.380 . S
C155 C156 1.391 . S
C155 H165 0.930 . S
C156 C155 1.391 . S
C156 C158 1.387 . S
C157 C154 1.398 . S
C157 C158 1.380 . S
C157 H166 0.930 . S
C158 C156 1.387 . S
C158 C157 1.380 . S
C158 H167 0.930 . S
C159 O136 1.254 . S
C159 O137 1.268 . S
H160 C145 0.930 . S
H161 C146 0.930 . S
H162 C148 0.930 . S
H163 C149 0.930 . S
H164 C154 0.930 . S
H165 C155 0.930 . S
H166 C157 0.930 . S
H167 C158 0.930 . S
Gd168 N199 2.661 . S
Gd168 N205 2.601 . S
Gd168 O212 2.545 . S
Gd168 O213 2.606 . S
Gd168 O215 2.429 . S
Gd168 O216 2.545 . S
Gd168 O217 2.412 . S
Gd168 O219 2.362 . S
Gd168 O220 2.324 . S
Gd168 C227 2.828 . S
Gd169 N178 2.661 . S
Gd169 N182 2.601 . S
Gd169 O213 2.362 . S
Gd169 O214 2.324 . S
Gd169 O218 2.545 . S
Gd169 O219 2.606 . S
Gd169 O221 2.429 . S
Gd169 O222 2.545 . S
Gd169 O223 2.412 . S
Gd169 C236 2.828 . S
C170 C173 1.417 . S
C170 C175 1.431 . S
C170 C176 1.412 . S
C171 C174 1.437 . S
C171 C175 1.317 1_565 S
C171 H190 0.929 . S
C172 C173 1.426 . S
C172 C174 1.413 1_545 S
C172 N182 1.359 . S
C173 C170 1.417 . S
C173 C172 1.426 . S
C173 N178 1.350 . S
C174 C171 1.437 . S
C174 C172 1.413 1_565 S
C174 C184 1.391 . S
C175 C170 1.431 . S
C175 C171 1.317 1_545 S
C175 H186 0.930 . S
C176 C170 1.412 . S
C176 C177 1.355 . S
C176 H188 0.930 . S
C177 C176 1.355 . S
C177 C179 1.402 . S
C177 H189 0.930 . S
N178 Gd169 2.661 . S
N178 C173 1.350 . S
N178 C179 1.307 . S
C179 C177 1.402 . S
C179 N178 1.307 . S
C179 H180 0.930 . S
H180 C179 0.930 . S
C181 N182 1.334 . S
C181 C183 1.394 1_545 S
C181 H185 0.930 . S
N182 Gd169 2.601 . S
N182 C172 1.359 . S
N182 C181 1.334 . S
C183 C181 1.394 1_565 S
C183 C184 1.359 . S
C183 H195 0.930 . S
C184 C174 1.391 . S
C184 C183 1.359 . S
C184 H196 0.929 . S
H185 C181 0.930 . S
H186 C175 0.930 . S
H187 C204 0.930 . S
H188 C176 0.930 . S
H189 C177 0.930 . S
H190 C171 0.929 . S
H191 C209 0.930 . S
H192 C200 0.930 . S
H193 C201 0.930 . S
H194 C225 0.929 . S
H195 C183 0.930 . S
H196 C184 0.929 . S
H197 C226 0.930 . S
H198 C207 0.930 . S
N199 Gd168 2.661 . S
N199 C203 1.350 . S
N199 C204 1.307 . S
C200 H192 0.930 . S
C200 C201 1.355 . S
C200 C202 1.412 . S
C201 H193 0.930 . S
C201 C200 1.355 . S
C201 C204 1.402 . S
C202 C200 1.412 . S
C202 C203 1.417 . S
C202 C226 1.431 . S
C203 N199 1.350 . S
C203 C202 1.417 . S
C203 C206 1.426 . S
C204 H187 0.930 . S
C204 N199 1.307 . S
C204 C201 1.402 . S
N205 Gd168 2.601 . S
N205 C206 1.359 . S
N205 C209 1.334 . S
C206 C203 1.426 . S
C206 N205 1.359 . S
C206 C210 1.413 . S
C207 H198 0.930 . S
C207 C208 1.359 . S
C207 C209 1.394 . S
C208 C207 1.359 . S
C208 C210 1.391 . S
C208 H211 0.929 . S
C209 H191 0.930 . S
C209 N205 1.334 . S
C209 C207 1.394 . S
C210 C206 1.413 . S
C210 C208 1.391 . S
C210 C225 1.437 . S
H211 C208 0.929 . S
O212 Gd168 2.545 . S
O212 C227 1.258 . S
O213 Gd168 2.606 . S
O213 Gd169 2.362 . S
O213 C224 1.284 . S
O214 Gd169 2.324 . S
O214 C234 1.254 . S
O215 Gd168 2.429 . S
O215 C234 1.268 . S
O216 Gd168 2.545 . S
O216 C224 1.250 . S
O217 Gd168 2.412 . S
O217 C227 1.252 . S
O218 Gd169 2.545 . S
O218 C236 1.258 . S
O219 Gd168 2.362 . S
O219 Gd169 2.606 . S
O219 C235 1.284 . S
O220 Gd168 2.324 . S
O220 C243 1.254 . S
O221 Gd169 2.429 . S
O221 C243 1.268 . S
O222 Gd169 2.545 . S
O222 C235 1.250 . S
O223 Gd169 2.412 . S
O223 C236 1.252 . S
C224 O213 1.284 . S
C224 O216 1.250 . S
C225 H194 0.929 . S
C225 C210 1.437 . S
C225 C226 1.317 . S
C226 H197 0.930 . S
C226 C202 1.431 . S
C226 C225 1.317 . S
C227 Gd168 2.828 . S
C227 O212 1.258 . S
C227 O217 1.252 . S
C227 C228 1.497 . S
C228 C227 1.497 . S
C228 C229 1.395 . S
C228 C230 1.380 . S
C229 C228 1.395 . S
C229 C232 1.398 . S
C229 H244 0.930 . S
C230 C228 1.380 . S
C230 C231 1.391 . S
C230 H245 0.930 . S
C231 C230 1.391 . S
C231 C233 1.387 . S
C232 C229 1.398 . S
C232 C233 1.380 . S
C232 H246 0.930 . S
C233 C231 1.387 . S
C233 C232 1.380 . S
C233 H247 0.930 . S
C234 O214 1.254 . S
C234 O215 1.268 . S
C235 O219 1.284 . S
C235 O222 1.250 . S
C236 Gd169 2.828 . S
C236 O218 1.258 . S
C236 O223 1.252 . S
C236 C237 1.497 . S
C237 C236 1.497 . S
C237 C238 1.395 1_545 S
C237 C239 1.380 . S
C238 C237 1.395 1_565 S
C238 C241 1.398 . S
C238 H248 0.930 . S
C239 C237 1.380 . S
C239 C240 1.391 1_545 S
C239 H249 0.930 . S
C240 C239 1.391 1_565 S
C240 C242 1.387 . S
C241 C238 1.398 . S
C241 C242 1.380 . S
C241 H250 0.930 . S
C242 C240 1.387 . S
C242 C241 1.380 . S
C242 H251 0.930 . S
C243 O220 1.254 . S
C243 O221 1.268 . S
H244 C229 0.930 . S
H245 C230 0.930 . S
H246 C232 0.930 . S
H247 C233 0.930 . S
H248 C238 0.930 . S
H249 C239 0.930 . S
H250 C241 0.930 . S
H251 C242 0.930 . S
Gd252 N283 2.661 . S
Gd252 N289 2.601 . S
Gd252 O296 2.545 . S
Gd252 O297 2.606 . S
Gd252 O299 2.429 . S
Gd252 O300 2.545 . S
Gd252 O301 2.412 . S
Gd252 O303 2.372 . S
Gd252 O304 2.324 . S
Gd252 C311 2.828 . S
Gd253 N262 2.661 . S
Gd253 N266 2.601 . S
Gd253 O297 2.362 . S
Gd253 O298 2.324 1_655 S
Gd253 O302 2.545 1_655 S
Gd253 O303 2.609 . S
Gd253 O305 2.429 . S
Gd253 O306 2.545 1_655 S
Gd253 O307 2.412 1_655 S
Gd253 C320 2.828 1_655 S
C254 C257 1.417 . S
C254 C259 1.431 . S
C254 C260 1.412 . S
C255 C258 1.437 . S
C255 C259 1.317 1_545 S
C255 H274 0.929 . S
C256 C257 1.426 . S
C256 C258 1.413 1_565 S
C256 N266 1.359 . S
C257 C254 1.417 . S
C257 C256 1.426 . S
C257 N262 1.350 . S
C258 C255 1.437 . S
C258 C256 1.413 1_545 S
C258 C268 1.391 . S
C259 C254 1.431 . S
C259 C255 1.317 1_565 S
C259 H270 0.930 . S
C260 C254 1.412 . S
C260 C261 1.355 . S
C260 H272 0.930 . S
C261 C260 1.355 . S
C261 C263 1.402 . S
C261 H273 0.930 . S
N262 Gd253 2.661 . S
N262 C257 1.350 . S
N262 C263 1.307 . S
C263 C261 1.402 . S
C263 N262 1.307 . S
C263 H264 0.930 . S
H264 C263 0.930 . S
C265 N266 1.334 . S
C265 C267 1.394 1_565 S
C265 H269 0.930 . S
N266 Gd253 2.601 . S
N266 C256 1.359 . S
N266 C265 1.334 . S
C267 C265 1.394 1_545 S
C267 C268 1.359 . S
C267 H279 0.930 . S
C268 C258 1.391 . S
C268 C267 1.359 . S
C268 H280 0.929 . S
H269 C265 0.930 . S
H270 C259 0.930 . S
H271 C288 0.930 . S
H272 C260 0.930 . S
H273 C261 0.930 . S
H274 C255 0.929 . S
H275 C293 0.926 1_655 S
H276 C284 0.930 1_456 S
H277 C285 0.930 . S
H278 C309 0.929 . S
H279 C267 0.930 . S
H280 C268 0.929 . S
H281 C310 0.930 . S
H282 C291 0.930 . S
N283 Gd252 2.661 . S
N283 C287 1.350 . S
N283 C288 1.307 . S
C284 H276 0.930 1_654 S
C284 C285 1.355 . S
C284 C286 1.412 1_655 S
C285 H277 0.930 . S
C285 C284 1.355 . S
C285 C288 1.402 . S
C286 C284 1.412 1_455 S
C286 C287 1.417 1_455 S
C286 C310 1.431 . S
C287 N283 1.350 . S
C287 C286 1.417 1_655 S
C287 C290 1.426 1_655 S
C288 H271 0.930 . S
C288 N283 1.307 . S
C288 C285 1.402 . S
N289 Gd252 2.601 . S
N289 C290 1.359 1_655 S
N289 C293 1.331 1_655 S
C290 C287 1.426 1_455 S
C290 N289 1.359 1_455 S
C290 C294 1.413 . S
C291 H282 0.930 . S
C291 C292 1.359 . S
C291 C293 1.401 . S
C292 C291 1.359 . S
C292 C294 1.391 . S
C292 H295 0.929 . S
C293 H275 0.926 1_455 S
C293 N289 1.331 1_455 S
C293 C291 1.401 . S
C294 C290 1.413 . S
C294 C292 1.391 . S
C294 C309 1.437 . S
H295 C292 0.929 . S
O296 Gd252 2.545 . S
O296 C311 1.258 . S
O297 Gd252 2.606 . S
O297 Gd253 2.362 . S
O297 C308 1.284 . S
O298 Gd253 2.324 1_455 S
O298 C318 1.254 . S
O299 Gd252 2.429 . S
O299 C318 1.268 1_655 S
O300 Gd252 2.545 . S
O300 C308 1.250 . S
O301 Gd252 2.412 . S
O301 C311 1.252 . S
O302 Gd253 2.545 1_455 S
O302 C320 1.258 . S
O303 Gd252 2.372 . S
O303 Gd253 2.609 . S
O303 C319 1.274 1_655 S
O304 Gd252 2.324 . S
O304 C327 1.254 . S
O305 Gd253 2.429 . S
O305 C327 1.268 . S
O306 Gd253 2.545 1_455 S
O306 C319 1.250 . S
O307 Gd253 2.412 1_455 S
O307 C320 1.252 . S
C308 O297 1.284 . S
C308 O300 1.250 . S
C309 H278 0.929 . S
C309 C294 1.437 . S
C309 C310 1.317 . S
C310 H281 0.930 . S
C310 C286 1.431 . S
C310 C309 1.317 . S
C311 Gd252 2.828 . S
C311 O296 1.258 . S
C311 O301 1.252 . S
C311 C312 1.497 . S
C312 C311 1.497 . S
C312 C313 1.395 . S
C312 C314 1.380 . S
C313 C312 1.395 . S
C313 C316 1.398 . S
C313 H328 0.930 . S
C314 C312 1.380 . S
C314 C315 1.391 . S
C314 H329 0.930 . S
C315 C314 1.391 . S
C315 C317 1.387 . S
C316 C313 1.398 . S
C316 C317 1.380 . S
C316 H330 0.930 . S
C317 C315 1.387 . S
C317 C316 1.380 . S
C317 H331 0.930 . S
C318 O298 1.254 . S
C318 O299 1.268 1_455 S
C319 O303 1.274 1_455 S
C319 O306 1.250 . S
C320 Gd253 2.828 1_455 S
C320 O302 1.258 . S
C320 O307 1.252 . S
C320 C321 1.497 . S
C321 C320 1.497 . S
C321 C322 1.395 1_565 S
C321 C323 1.380 . S
C322 C321 1.395 1_545 S
C322 C325 1.398 . S
C322 H332 0.930 . S
C323 C321 1.380 . S
C323 C324 1.391 1_565 S
C323 H333 0.930 . S
C324 C323 1.391 1_545 S
C324 C326 1.387 . S
C325 C322 1.398 . S
C325 C326 1.380 . S
C325 H334 0.930 . S
C326 C324 1.387 . S
C326 C325 1.380 . S
C326 H335 0.930 . S
C327 O304 1.254 . S
C327 O305 1.268 . S
H328 C313 0.930 . S
H329 C314 0.930 . S
H330 C316 0.930 . S
H331 C317 0.930 . S
H332 C322 0.930 . S
H333 C323 0.930 . S
H334 C325 0.930 . S
H335 C326 0.930 . S
Gd336 N367 2.661 . S
Gd336 N373 2.601 . S
Gd336 O380 2.545 . S
Gd336 O381 2.606 . S
Gd336 O383 2.429 . S
Gd336 O384 2.545 . S
Gd336 O385 2.412 . S
Gd336 O387 2.372 . S
Gd336 O388 2.324 . S
Gd336 C395 2.828 . S
Gd337 N346 2.661 . S
Gd337 N350 2.601 . S
Gd337 O381 2.362 . S
Gd337 O382 2.324 1_545 S
Gd337 O386 2.545 1_545 S
Gd337 O387 2.609 . S
Gd337 O389 2.429 . S
Gd337 O390 2.545 1_545 S
Gd337 O391 2.412 1_545 S
Gd337 C404 2.828 1_545 S
C338 C341 1.417 . S
C338 C343 1.431 . S
C338 C344 1.412 . S
C339 C342 1.437 . S
C339 C343 1.317 . S
C339 H358 0.929 . S
C340 C341 1.426 . S
C340 C342 1.413 . S
C340 N350 1.359 . S
C341 C338 1.417 . S
C341 C340 1.426 . S
C341 N346 1.350 . S
C342 C339 1.437 . S
C342 C340 1.413 . S
C342 C352 1.391 . S
C343 C338 1.431 . S
C343 C339 1.317 . S
C343 H354 0.930 . S
C344 C338 1.412 . S
C344 C345 1.355 . S
C344 H356 0.930 . S
C345 C344 1.355 . S
C345 C347 1.402 . S
C345 H357 0.930 . S
N346 Gd337 2.661 . S
N346 C341 1.350 . S
N346 C347 1.307 . S
C347 C345 1.402 . S
C347 N346 1.307 . S
C347 H348 0.930 . S
H348 C347 0.930 . S
C349 N350 1.334 . S
C349 C351 1.394 . S
C349 H353 0.930 . S
N350 Gd337 2.601 . S
N350 C340 1.359 . S
N350 C349 1.334 . S
C351 C349 1.394 . S
C351 C352 1.359 . S
C351 H363 0.930 . S
C352 C342 1.391 . S
C352 C351 1.359 . S
C352 H364 0.929 . S
H353 C349 0.930 . S
H354 C343 0.930 . S
H355 C372 0.930 . S
H356 C344 0.930 . S
H357 C345 0.930 . S
H358 C339 0.929 . S
H359 C377 0.926 1_545 S
H360 C368 0.930 1_565 S
H361 C369 0.930 . S
H362 C393 0.929 . S
H363 C351 0.930 . S
H364 C352 0.929 . S
H365 C394 0.930 . S
H366 C375 0.930 . S
N367 Gd336 2.661 . S
N367 C371 1.350 . S
N367 C372 1.307 . S
C368 H360 0.930 1_545 S
C368 C369 1.355 . S
C368 C370 1.412 1_545 S
C369 H361 0.930 . S
C369 C368 1.355 . S
C369 C372 1.402 . S
C370 C368 1.412 1_565 S
C370 C371 1.417 1_565 S
C370 C394 1.431 . S
C371 N367 1.350 . S
C371 C370 1.417 1_545 S
C371 C374 1.426 1_545 S
C372 H355 0.930 . S
C372 N367 1.307 . S
C372 C369 1.402 . S
N373 Gd336 2.601 . S
N373 C374 1.359 1_545 S
N373 C377 1.331 1_545 S
C374 C371 1.426 1_565 S
C374 N373 1.359 1_565 S
C374 C378 1.413 . S
C375 H366 0.930 . S
C375 C376 1.359 . S
C375 C377 1.401 . S
C376 C375 1.359 . S
C376 C378 1.391 . S
C376 H379 0.929 . S
C377 H359 0.926 1_565 S
C377 N373 1.331 1_565 S
C377 C375 1.401 . S
C378 C374 1.413 . S
C378 C376 1.391 . S
C378 C393 1.437 . S
H379 C376 0.929 . S
O380 Gd336 2.545 . S
O380 C395 1.258 . S
O381 Gd336 2.606 . S
O381 Gd337 2.362 . S
O381 C392 1.284 . S
O382 Gd337 2.324 1_565 S
O382 C402 1.254 . S
O383 Gd336 2.429 . S
O383 C402 1.268 1_545 S
O384 Gd336 2.545 . S
O384 C392 1.250 . S
O385 Gd336 2.412 . S
O385 C395 1.252 . S
O386 Gd337 2.545 1_565 S
O386 C404 1.258 . S
O387 Gd336 2.372 . S
O387 Gd337 2.609 . S
O387 C403 1.274 1_545 S
O388 Gd336 2.324 . S
O388 C411 1.254 . S
O389 Gd337 2.429 . S
O389 C411 1.268 . S
O390 Gd337 2.545 1_565 S
O390 C403 1.250 . S
O391 Gd337 2.412 1_565 S
O391 C404 1.252 . S
C392 O381 1.284 . S
C392 O384 1.250 . S
C393 H362 0.929 . S
C393 C378 1.437 . S
C393 C394 1.317 . S
C394 H365 0.930 . S
C394 C370 1.431 . S
C394 C393 1.317 . S
C395 Gd336 2.828 . S
C395 O380 1.258 . S
C395 O385 1.252 . S
C395 C396 1.497 . S
C396 C395 1.497 . S
C396 C397 1.395 . S
C396 C398 1.380 . S
C397 C396 1.395 . S
C397 C400 1.398 . S
C397 H412 0.930 . S
C398 C396 1.380 . S
C398 C399 1.391 . S
C398 H413 0.930 . S
C399 C398 1.391 . S
C399 C401 1.387 . S
C400 C397 1.398 . S
C400 C401 1.380 . S
C400 H414 0.930 . S
C401 C399 1.387 . S
C401 C400 1.380 . S
C401 H415 0.930 . S
C402 O382 1.254 . S
C402 O383 1.268 1_565 S
C403 O387 1.274 1_565 S
C403 O390 1.250 . S
C404 Gd337 2.828 1_565 S
C404 O386 1.258 . S
C404 O391 1.252 . S
C404 C405 1.497 . S
C405 C404 1.497 . S
C405 C406 1.395 . S
C405 C407 1.380 . S
C406 C405 1.395 . S
C406 C409 1.398 . S
C406 H416 0.930 . S
C407 C405 1.380 . S
C407 C408 1.391 . S
C407 H417 0.930 . S
C408 C407 1.391 . S
C408 C410 1.387 . S
C409 C406 1.398 . S
C409 C410 1.380 . S
C409 H418 0.930 . S
C410 C408 1.387 . S
C410 C409 1.380 . S
C410 H419 0.930 . S
C411 O388 1.254 . S
C411 O389 1.268 . S
H412 C397 0.930 . S
H413 C398 0.930 . S
H414 C400 0.930 . S
H415 C401 0.930 . S
H416 C406 0.930 . S
H417 C407 0.930 . S
H418 C409 0.930 . S
H419 C410 0.930 . S
Gd420 N451 2.661 . S
Gd420 N457 2.601 . S
Gd420 O464 2.545 . S
Gd420 O465 2.606 . S
Gd420 O467 2.429 . S
Gd420 O468 2.545 . S
Gd420 O469 2.412 . S
Gd420 O471 2.372 . S
Gd420 O472 2.324 . S
Gd420 C479 2.828 . S
Gd421 N430 2.661 . S
Gd421 N434 2.601 . S
Gd421 O465 2.362 . S
Gd421 O466 2.324 1_565 S
Gd421 O470 2.545 1_565 S
Gd421 O471 2.609 . S
Gd421 O473 2.429 . S
Gd421 O474 2.545 1_565 S
Gd421 O475 2.412 1_565 S
Gd421 C488 2.828 1_565 S
C422 C425 1.417 . S
C422 C427 1.431 . S
C422 C428 1.412 . S
C423 C426 1.437 . S
C423 C427 1.317 1_554 S
C423 H442 0.929 . S
C424 C425 1.426 . S
C424 C426 1.413 1_556 S
C424 N434 1.359 . S
C425 C422 1.417 . S
C425 C424 1.426 . S
C425 N430 1.350 . S
C426 C423 1.437 . S
C426 C424 1.413 1_554 S
C426 C436 1.391 . S
C427 C422 1.431 . S
C427 C423 1.317 1_556 S
C427 H438 0.930 . S
C428 C422 1.412 . S
C428 C429 1.355 . S
C428 H440 0.930 . S
C429 C428 1.355 . S
C429 C431 1.402 . S
C429 H441 0.930 . S
N430 Gd421 2.661 . S
N430 C425 1.350 . S
N430 C431 1.307 . S
C431 C429 1.402 . S
C431 N430 1.307 . S
C431 H432 0.930 . S
H432 C431 0.930 . S
C433 N434 1.334 . S
C433 C435 1.394 1_556 S
C433 H437 0.930 . S
N434 Gd421 2.601 . S
N434 C424 1.359 . S
N434 C433 1.334 . S
C435 C433 1.394 1_554 S
C435 C436 1.359 . S
C435 H447 0.930 . S
C436 C426 1.391 . S
C436 C435 1.359 . S
C436 H448 0.929 . S
H437 C433 0.930 . S
H438 C427 0.930 . S
H439 C456 0.930 . S
H440 C428 0.930 . S
H441 C429 0.930 . S
H442 C423 0.929 . S
H443 C461 0.926 1_565 S
H444 C452 0.930 1_645 S
H445 C453 0.930 . S
H446 C477 0.929 . S
H447 C435 0.930 . S
H448 C436 0.929 . S
H449 C478 0.930 . S
H450 C459 0.930 . S
N451 Gd420 2.661 . S
N451 C455 1.350 . S
N451 C456 1.307 . S
C452 H444 0.930 1_465 S
C452 C453 1.355 . S
C452 C454 1.412 1_565 S
C453 H445 0.930 . S
C453 C452 1.355 . S
C453 C456 1.402 . S
C454 C452 1.412 1_545 S
C454 C455 1.417 1_545 S
C454 C478 1.431 . S
C455 N451 1.350 . S
C455 C454 1.417 1_565 S
C455 C458 1.426 1_565 S
C456 H439 0.930 . S
C456 N451 1.307 . S
C456 C453 1.402 . S
N457 Gd420 2.601 . S
N457 C458 1.359 1_565 S
N457 C461 1.331 1_565 S
C458 C455 1.426 1_545 S
C458 N457 1.359 1_545 S
C458 C462 1.413 . S
C459 H450 0.930 . S
C459 C460 1.359 . S
C459 C461 1.401 . S
C460 C459 1.359 . S
C460 C462 1.391 . S
C460 H463 0.929 . S
C461 H443 0.926 1_545 S
C461 N457 1.331 1_545 S
C461 C459 1.401 . S
C462 C458 1.413 . S
C462 C460 1.391 . S
C462 C477 1.437 . S
H463 C460 0.929 . S
O464 Gd420 2.545 . S
O464 C479 1.258 . S
O465 Gd420 2.606 . S
O465 Gd421 2.362 . S
O465 C476 1.284 . S
O466 Gd421 2.324 1_545 S
O466 C486 1.254 . S
O467 Gd420 2.429 . S
O467 C486 1.268 1_565 S
O468 Gd420 2.545 . S
O468 C476 1.250 . S
O469 Gd420 2.412 . S
O469 C479 1.252 . S
O470 Gd421 2.545 1_545 S
O470 C488 1.258 . S
O471 Gd420 2.372 . S
O471 Gd421 2.609 . S
O471 C487 1.274 1_565 S
O472 Gd420 2.324 . S
O472 C495 1.254 . S
O473 Gd421 2.429 . S
O473 C495 1.268 . S
O474 Gd421 2.545 1_545 S
O474 C487 1.250 . S
O475 Gd421 2.412 1_545 S
O475 C488 1.252 . S
C476 O465 1.284 . S
C476 O468 1.250 . S
C477 H446 0.929 . S
C477 C462 1.437 . S
C477 C478 1.317 . S
C478 H449 0.930 . S
C478 C454 1.431 . S
C478 C477 1.317 . S
C479 Gd420 2.828 . S
C479 O464 1.258 . S
C479 O469 1.252 . S
C479 C480 1.497 . S
C480 C479 1.497 . S
C480 C481 1.395 . S
C480 C482 1.380 . S
C481 C480 1.395 . S
C481 C484 1.398 . S
C481 H496 0.930 . S
C482 C480 1.380 . S
C482 C483 1.391 . S
C482 H497 0.930 . S
C483 C482 1.391 . S
C483 C485 1.387 . S
C484 C481 1.398 . S
C484 C485 1.380 . S
C484 H498 0.930 . S
C485 C483 1.387 . S
C485 C484 1.380 . S
C485 H499 0.930 . S
C486 O466 1.254 . S
C486 O467 1.268 1_545 S
C487 O471 1.274 1_545 S
C487 O474 1.250 . S
C488 Gd421 2.828 1_545 S
C488 O470 1.258 . S
C488 O475 1.252 . S
C488 C489 1.497 . S
C489 C488 1.497 . S
C489 C490 1.395 1_556 S
C489 C491 1.380 . S
C490 C489 1.395 1_554 S
C490 C493 1.398 . S
C490 H500 0.930 . S
C491 C489 1.380 . S
C491 C492 1.391 1_556 S
C491 H501 0.930 . S
C492 C491 1.391 1_554 S
C492 C494 1.387 . S
C493 C490 1.398 . S
C493 C494 1.380 . S
C493 H502 0.930 . S
C494 C492 1.387 . S
C494 C493 1.380 . S
C494 H503 0.930 . S
C495 O472 1.254 . S
C495 O473 1.268 . S
H496 C481 0.930 . S
H497 C482 0.930 . S
H498 C484 0.930 . S
H499 C485 0.930 . S
H500 C490 0.930 . S
H501 C491 0.930 . S
H502 C493 0.930 . S
H503 C494 0.930 . S
Gd504 N535 2.661 . S
Gd504 N541 2.601 . S
Gd504 O548 2.545 . S
Gd504 O549 2.606 . S
Gd504 O551 2.429 . S
Gd504 O552 2.545 . S
Gd504 O553 2.412 . S
Gd504 O555 2.362 . S
Gd504 O556 2.324 . S
Gd504 C563 2.828 . S
Gd505 N514 2.661 . S
Gd505 N518 2.601 . S
Gd505 O549 2.362 . S
Gd505 O550 2.324 . S
Gd505 O554 2.545 . S
Gd505 O555 2.606 . S
Gd505 O557 2.429 . S
Gd505 O558 2.545 . S
Gd505 O559 2.412 . S
Gd505 C572 2.828 . S
C506 C509 1.417 . S
C506 C511 1.431 . S
C506 C512 1.412 . S
C507 C510 1.437 . S
C507 C511 1.317 . S
C507 H526 0.929 . S
C508 C509 1.426 . S
C508 C510 1.413 . S
C508 N518 1.359 . S
C509 C506 1.417 . S
C509 C508 1.426 . S
C509 N514 1.350 . S
C510 C507 1.437 . S
C510 C508 1.413 . S
C510 C520 1.391 . S
C511 C506 1.431 . S
C511 C507 1.317 . S
C511 H522 0.930 . S
C512 C506 1.412 . S
C512 C513 1.355 . S
C512 H524 0.930 . S
C513 C512 1.355 . S
C513 C515 1.402 . S
C513 H525 0.930 . S
N514 Gd505 2.661 . S
N514 C509 1.350 . S
N514 C515 1.307 . S
C515 C513 1.402 . S
C515 N514 1.307 . S
C515 H516 0.930 . S
H516 C515 0.930 . S
C517 N518 1.334 . S
C517 C519 1.394 . S
C517 H521 0.930 . S
N518 Gd505 2.601 . S
N518 C508 1.359 . S
N518 C517 1.334 . S
C519 C517 1.394 . S
C519 C520 1.359 . S
C519 H531 0.930 . S
C520 C510 1.391 . S
C520 C519 1.359 . S
C520 H532 0.929 . S
H521 C517 0.930 . S
H522 C511 0.930 . S
H523 C540 0.930 . S
H524 C512 0.930 . S
H525 C513 0.930 . S
H526 C507 0.929 . S
H527 C545 0.930 . S
H528 C536 0.930 1_455 S
H529 C537 0.930 . S
H530 C561 0.929 . S
H531 C519 0.930 . S
H532 C520 0.929 . S
H533 C562 0.930 . S
H534 C543 0.930 . S
N535 Gd504 2.661 . S
N535 C539 1.350 . S
N535 C540 1.307 . S
C536 H528 0.930 1_655 S
C536 C537 1.355 . S
C536 C538 1.412 . S
C537 H529 0.930 . S
C537 C536 1.355 . S
C537 C540 1.402 . S
C538 C536 1.412 . S
C538 C539 1.417 . S
C538 C562 1.431 . S
C539 N535 1.350 . S
C539 C538 1.417 . S
C539 C542 1.426 . S
C540 H523 0.930 . S
C540 N535 1.307 . S
C540 C537 1.402 . S
N541 Gd504 2.601 . S
N541 C542 1.359 . S
N541 C545 1.334 . S
C542 C539 1.426 . S
C542 N541 1.359 . S
C542 C546 1.413 . S
C543 H534 0.930 . S
C543 C544 1.359 . S
C543 C545 1.394 . S
C544 C543 1.359 . S
C544 C546 1.391 . S
C544 H547 0.929 . S
C545 H527 0.930 . S
C545 N541 1.334 . S
C545 C543 1.394 . S
C546 C542 1.413 . S
C546 C544 1.391 . S
C546 C561 1.437 . S
H547 C544 0.929 . S
O548 Gd504 2.545 . S
O548 C563 1.258 . S
O549 Gd504 2.606 . S
O549 Gd505 2.362 . S
O549 C560 1.284 . S
O550 Gd505 2.324 . S
O550 C570 1.254 . S
O551 Gd504 2.429 . S
O551 C570 1.268 . S
O552 Gd504 2.545 . S
O552 C560 1.250 . S
O553 Gd504 2.412 . S
O553 C563 1.252 . S
O554 Gd505 2.545 . S
O554 C572 1.258 . S
O555 Gd504 2.362 . S
O555 Gd505 2.606 . S
O555 C571 1.284 . S
O556 Gd504 2.324 . S
O556 C579 1.254 . S
O557 Gd505 2.429 . S
O557 C579 1.268 . S
O558 Gd505 2.545 . S
O558 C571 1.250 . S
O559 Gd505 2.412 . S
O559 C572 1.252 . S
C560 O549 1.284 . S
C560 O552 1.250 . S
C561 H530 0.929 . S
C561 C546 1.437 . S
C561 C562 1.317 . S
C562 H533 0.930 . S
C562 C538 1.431 . S
C562 C561 1.317 . S
C563 Gd504 2.828 . S
C563 O548 1.258 . S
C563 O553 1.252 . S
C563 C564 1.497 . S
C564 C563 1.497 . S
C564 C565 1.395 . S
C564 C566 1.380 . S
C565 C564 1.395 . S
C565 C568 1.398 . S
C565 H580 0.930 . S
C566 C564 1.380 . S
C566 C567 1.391 . S
C566 H581 0.930 . S
C567 C566 1.391 . S
C567 C569 1.387 . S
C568 C565 1.398 . S
C568 C569 1.380 . S
C568 H582 0.930 . S
C569 C567 1.387 . S
C569 C568 1.380 . S
C569 H583 0.930 . S
C570 O550 1.254 . S
C570 O551 1.268 . S
C571 O555 1.284 . S
C571 O558 1.250 . S
C572 Gd505 2.828 . S
C572 O554 1.258 . S
C572 O559 1.252 . S
C572 C573 1.497 . S
C573 C572 1.497 . S
C573 C574 1.395 . S
C573 C575 1.380 . S
C574 C573 1.395 . S
C574 C577 1.398 . S
C574 H584 0.930 . S
C575 C573 1.380 . S
C575 C576 1.391 . S
C575 H585 0.930 . S
C576 C575 1.391 . S
C576 C578 1.387 . S
C577 C574 1.398 . S
C577 C578 1.380 . S
C577 H586 0.930 . S
C578 C576 1.387 . S
C578 C577 1.380 . S
C578 H587 0.930 . S
C579 O556 1.254 . S
C579 O557 1.268 . S
H580 C565 0.930 . S
H581 C566 0.930 . S
H582 C568 0.930 . S
H583 C569 0.930 . S
H584 C574 0.930 . S
H585 C575 0.930 . S
H586 C577 0.930 . S
H587 C578 0.930 . S
Gd588 N619 2.661 . S
Gd588 N625 2.601 . S
Gd588 O632 2.545 . S
Gd588 O633 2.606 . S
Gd588 O635 2.429 . S
Gd588 O636 2.545 . S
Gd588 O637 2.412 . S
Gd588 O639 2.362 . S
Gd588 O640 2.324 . S
Gd588 C647 2.828 . S
Gd589 N598 2.661 . S
Gd589 N602 2.601 . S
Gd589 O633 2.362 . S
Gd589 O634 2.324 . S
Gd589 O638 2.545 . S
Gd589 O639 2.606 . S
Gd589 O641 2.429 . S
Gd589 O642 2.545 . S
Gd589 O643 2.412 . S
Gd589 C656 2.828 . S
C590 C593 1.417 . S
C590 C595 1.431 . S
C590 C596 1.412 . S
C591 C594 1.437 . S
C591 C595 1.317 1_556 S
C591 H610 0.929 . S
C592 C593 1.426 . S
C592 C594 1.413 1_554 S
C592 N602 1.359 . S
C593 C590 1.417 . S
C593 C592 1.426 . S
C593 N598 1.350 . S
C594 C591 1.437 . S
C594 C592 1.413 1_556 S
C594 C604 1.391 . S
C595 C590 1.431 . S
C595 C591 1.317 1_554 S
C595 H606 0.930 . S
C596 C590 1.412 . S
C596 C597 1.355 . S
C596 H608 0.930 . S
C597 C596 1.355 . S
C597 C599 1.402 . S
C597 H609 0.930 . S
N598 Gd589 2.661 . S
N598 C593 1.350 . S
N598 C599 1.307 . S
C599 C597 1.402 . S
C599 N598 1.307 . S
C599 H600 0.930 . S
H600 C599 0.930 . S
C601 N602 1.334 . S
C601 C603 1.394 1_554 S
C601 H605 0.930 . S
N602 Gd589 2.601 . S
N602 C592 1.359 . S
N602 C601 1.334 . S
C603 C601 1.394 1_556 S
C603 C604 1.359 . S
C603 H615 0.930 . S
C604 C594 1.391 . S
C604 C603 1.359 . S
C604 H616 0.929 . S
H605 C601 0.930 . S
H606 C595 0.930 . S
H607 C624 0.930 . S
H608 C596 0.930 . S
H609 C597 0.930 . S
H610 C591 0.929 . S
H611 C629 0.930 . S
H612 C620 0.930 . S
H613 C621 0.930 . S
H614 C645 0.929 . S
H615 C603 0.930 . S
H616 C604 0.929 . S
H617 C646 0.930 . S
H618 C627 0.930 . S
N619 Gd588 2.661 . S
N619 C623 1.350 . S
N619 C624 1.307 . S
C620 H612 0.930 . S
C620 C621 1.355 . S
C620 C622 1.412 . S
C621 H613 0.930 . S
C621 C620 1.355 . S
C621 C624 1.402 . S
C622 C620 1.412 . S
C622 C623 1.417 . S
C622 C646 1.431 . S
C623 N619 1.350 . S
C623 C622 1.417 . S
C623 C626 1.426 . S
C624 H607 0.930 . S
C624 N619 1.307 . S
C624 C621 1.402 . S
N625 Gd588 2.601 . S
N625 C626 1.359 . S
N625 C629 1.334 . S
C626 C623 1.426 . S
C626 N625 1.359 . S
C626 C630 1.413 . S
C627 H618 0.930 . S
C627 C628 1.359 . S
C627 C629 1.394 . S
C628 C627 1.359 . S
C628 C630 1.391 . S
C628 H631 0.929 . S
C629 H611 0.930 . S
C629 N625 1.334 . S
C629 C627 1.394 . S
C630 C626 1.413 . S
C630 C628 1.391 . S
C630 C645 1.437 . S
H631 C628 0.929 . S
O632 Gd588 2.545 . S
O632 C647 1.258 . S
O633 Gd588 2.606 . S
O633 Gd589 2.362 . S
O633 C644 1.284 . S
O634 Gd589 2.324 . S
O634 C654 1.254 . S
O635 Gd588 2.429 . S
O635 C654 1.268 . S
O636 Gd588 2.545 . S
O636 C644 1.250 . S
O637 Gd588 2.412 . S
O637 C647 1.252 . S
O638 Gd589 2.545 . S
O638 C656 1.258 . S
O639 Gd588 2.362 . S
O639 Gd589 2.606 . S
O639 C655 1.284 . S
O640 Gd588 2.324 . S
O640 C663 1.254 . S
O641 Gd589 2.429 . S
O641 C663 1.268 . S
O642 Gd589 2.545 . S
O642 C655 1.250 . S
O643 Gd589 2.412 . S
O643 C656 1.252 . S
C644 O633 1.284 . S
C644 O636 1.250 . S
C645 H614 0.929 . S
C645 C630 1.437 . S
C645 C646 1.317 . S
C646 H617 0.930 . S
C646 C622 1.431 . S
C646 C645 1.317 . S
C647 Gd588 2.828 . S
C647 O632 1.258 . S
C647 O637 1.252 . S
C647 C648 1.497 . S
C648 C647 1.497 . S
C648 C649 1.395 . S
C648 C650 1.380 . S
C649 C648 1.395 . S
C649 C652 1.398 . S
C649 H664 0.930 . S
C650 C648 1.380 . S
C650 C651 1.391 . S
C650 H665 0.930 . S
C651 C650 1.391 . S
C651 C653 1.387 . S
C652 C649 1.398 . S
C652 C653 1.380 . S
C652 H666 0.930 . S
C653 C651 1.387 . S
C653 C652 1.380 . S
C653 H667 0.930 . S
C654 O634 1.254 . S
C654 O635 1.268 . S
C655 O639 1.284 . S
C655 O642 1.250 . S
C656 Gd589 2.828 . S
C656 O638 1.258 . S
C656 O643 1.252 . S
C656 C657 1.497 . S
C657 C656 1.497 . S
C657 C658 1.395 1_554 S
C657 C659 1.380 . S
C658 C657 1.395 1_556 S
C658 C661 1.398 . S
C658 H668 0.930 . S
C659 C657 1.380 . S
C659 C660 1.391 1_554 S
C659 H669 0.930 . S
C660 C659 1.391 1_556 S
C660 C662 1.387 . S
C661 C658 1.398 . S
C661 C662 1.380 . S
C661 H670 0.930 . S
C662 C660 1.387 . S
C662 C661 1.380 . S
C662 H671 0.930 . S
C663 O640 1.254 . S
C663 O641 1.268 . S
H664 C649 0.930 . S
H665 C650 0.930 . S
H666 C652 0.930 . S
H667 C653 0.930 . S
H668 C658 0.930 . S
H669 C659 0.930 . S
H670 C661 0.930 . S
H671 C662 0.930 . S
Gd672 N703 2.661 . S
Gd672 N709 2.601 . S
Gd672 O716 2.545 . S
Gd672 O717 2.606 . S
Gd672 O719 2.429 . S
Gd672 O720 2.545 . S
Gd672 O721 2.412 . S
Gd672 O723 2.372 . S
Gd672 O724 2.324 . S
Gd672 C731 2.828 . S
Gd673 N682 2.661 . S
Gd673 N686 2.601 . S
Gd673 O717 2.362 . S
Gd673 O718 2.324 1_554 S
Gd673 O722 2.545 1_554 S
Gd673 O723 2.609 . S
Gd673 O725 2.429 . S
Gd673 O726 2.545 1_554 S
Gd673 O727 2.412 1_554 S
Gd673 C740 2.828 1_554 S
C674 C677 1.417 . S
C674 C679 1.431 . S
C674 C680 1.412 . S
C675 C678 1.437 . S
C675 C679 1.317 . S
C675 H694 0.929 . S
C676 C677 1.426 . S
C676 C678 1.413 . S
C676 N686 1.359 . S
C677 C674 1.417 . S
C677 C676 1.426 . S
C677 N682 1.350 . S
C678 C675 1.437 . S
C678 C676 1.413 . S
C678 C688 1.391 . S
C679 C674 1.431 . S
C679 C675 1.317 . S
C679 H690 0.930 . S
C680 C674 1.412 . S
C680 C681 1.355 . S
C680 H692 0.930 . S
C681 C680 1.355 . S
C681 C683 1.402 . S
C681 H693 0.930 . S
N682 Gd673 2.661 . S
N682 C677 1.350 . S
N682 C683 1.307 . S
C683 C681 1.402 . S
C683 N682 1.307 . S
C683 H684 0.930 . S
H684 C683 0.930 . S
C685 N686 1.334 . S
C685 C687 1.394 . S
C685 H689 0.930 . S
N686 Gd673 2.601 . S
N686 C676 1.359 . S
N686 C685 1.334 . S
C687 C685 1.394 . S
C687 C688 1.359 . S
C687 H699 0.930 . S
C688 C678 1.391 . S
C688 C687 1.359 . S
C688 H700 0.929 . S
H689 C685 0.930 . S
H690 C679 0.930 . S
H691 C708 0.930 . S
H692 C680 0.930 . S
H693 C681 0.930 . S
H694 C675 0.929 . S
H695 C713 0.926 1_554 S
H696 C704 0.930 1_556 S
H697 C705 0.930 . S
H698 C729 0.929 . S
H699 C687 0.930 . S
H700 C688 0.929 . S
H701 C730 0.930 . S
H702 C711 0.930 . S
N703 Gd672 2.661 . S
N703 C707 1.350 . S
N703 C708 1.307 . S
C704 H696 0.930 1_554 S
C704 C705 1.355 . S
C704 C706 1.412 1_554 S
C705 H697 0.930 . S
C705 C704 1.355 . S
C705 C708 1.402 . S
C706 C704 1.412 1_556 S
C706 C707 1.417 1_556 S
C706 C730 1.431 . S
C707 N703 1.350 . S
C707 C706 1.417 1_554 S
C707 C710 1.426 1_554 S
C708 H691 0.930 . S
C708 N703 1.307 . S
C708 C705 1.402 . S
N709 Gd672 2.601 . S
N709 C710 1.359 1_554 S
N709 C713 1.331 1_554 S
C710 C707 1.426 1_556 S
C710 N709 1.359 1_556 S
C710 C714 1.413 . S
C711 H702 0.930 . S
C711 C712 1.359 . S
C711 C713 1.401 . S
C712 C711 1.359 . S
C712 C714 1.391 . S
C712 H715 0.929 . S
C713 H695 0.926 1_556 S
C713 N709 1.331 1_556 S
C713 C711 1.401 . S
C714 C710 1.413 . S
C714 C712 1.391 . S
C714 C729 1.437 . S
H715 C712 0.929 . S
O716 Gd672 2.545 . S
O716 C731 1.258 . S
O717 Gd672 2.606 . S
O717 Gd673 2.362 . S
O717 C728 1.284 . S
O718 Gd673 2.324 1_556 S
O718 C738 1.254 . S
O719 Gd672 2.429 . S
O719 C738 1.268 1_554 S
O720 Gd672 2.545 . S
O720 C728 1.250 . S
O721 Gd672 2.412 . S
O721 C731 1.252 . S
O722 Gd673 2.545 1_556 S
O722 C740 1.258 . S
O723 Gd672 2.372 . S
O723 Gd673 2.609 . S
O723 C739 1.274 1_554 S
O724 Gd672 2.324 . S
O724 C747 1.254 . S
O725 Gd673 2.429 . S
O725 C747 1.268 . S
O726 Gd673 2.545 1_556 S
O726 C739 1.250 . S
O727 Gd673 2.412 1_556 S
O727 C740 1.252 . S
C728 O717 1.284 . S
C728 O720 1.250 . S
C729 H698 0.929 . S
C729 C714 1.437 . S
C729 C730 1.317 . S
C730 H701 0.930 . S
C730 C706 1.431 . S
C730 C729 1.317 . S
C731 Gd672 2.828 . S
C731 O716 1.258 . S
C731 O721 1.252 . S
C731 C732 1.497 . S
C732 C731 1.497 . S
C732 C733 1.395 . S
C732 C734 1.380 . S
C733 C732 1.395 . S
C733 C736 1.398 . S
C733 H748 0.930 . S
C734 C732 1.380 . S
C734 C735 1.391 . S
C734 H749 0.930 . S
C735 C734 1.391 . S
C735 C737 1.387 . S
C736 C733 1.398 . S
C736 C737 1.380 . S
C736 H750 0.930 . S
C737 C735 1.387 . S
C737 C736 1.380 . S
C737 H751 0.930 . S
C738 O718 1.254 . S
C738 O719 1.268 1_556 S
C739 O723 1.274 1_556 S
C739 O726 1.250 . S
C740 Gd673 2.828 1_556 S
C740 O722 1.258 . S
C740 O727 1.252 . S
C740 C741 1.497 . S
C741 C740 1.497 . S
C741 C742 1.395 . S
C741 C743 1.380 . S
C742 C741 1.395 . S
C742 C745 1.398 . S
C742 H752 0.930 . S
C743 C741 1.380 . S
C743 C744 1.391 . S
C743 H753 0.930 . S
C744 C743 1.391 . S
C744 C746 1.387 . S
C745 C742 1.398 . S
C745 C746 1.380 . S
C745 H754 0.930 . S
C746 C744 1.387 . S
C746 C745 1.380 . S
C746 H755 0.930 . S
C747 O724 1.254 . S
C747 O725 1.268 . S
H748 C733 0.930 . S
H749 C734 0.930 . S
H750 C736 0.930 . S
H751 C737 0.930 . S
H752 C742 0.930 . S
H753 C743 0.930 . S
H754 C745 0.930 . S
H755 C746 0.930 . S
Gd756 N787 2.661 . S
Gd756 N793 2.601 . S
Gd756 O800 2.545 . S
Gd756 O801 2.606 . S
Gd756 O803 2.429 . S
Gd756 O804 2.545 . S
Gd756 O805 2.412 . S
Gd756 O807 2.372 . S
Gd756 O808 2.324 . S
Gd756 C815 2.828 . S
Gd757 N766 2.661 . S
Gd757 N770 2.601 . S
Gd757 O801 2.362 . S
Gd757 O802 2.324 1_556 S
Gd757 O806 2.545 1_556 S
Gd757 O807 2.609 . S
Gd757 O809 2.429 . S
Gd757 O810 2.545 1_556 S
Gd757 O811 2.412 1_556 S
Gd757 C824 2.828 1_556 S
C758 C761 1.417 . S
C758 C763 1.431 . S
C758 C764 1.412 . S
C759 C762 1.437 . S
C759 C763 1.317 1_455 S
C759 H778 0.929 . S
C760 C761 1.426 . S
C760 C762 1.413 1_655 S
C760 N770 1.359 . S
C761 C758 1.417 . S
C761 C760 1.426 . S
C761 N766 1.350 . S
C762 C759 1.437 . S
C762 C760 1.413 1_455 S
C762 C772 1.391 . S
C763 C758 1.431 . S
C763 C759 1.317 1_655 S
C763 H774 0.930 . S
C764 C758 1.412 . S
C764 C765 1.355 . S
C764 H776 0.930 . S
C765 C764 1.355 . S
C765 C767 1.402 . S
C765 H777 0.930 . S
N766 Gd757 2.661 . S
N766 C761 1.350 . S
N766 C767 1.307 . S
C767 C765 1.402 . S
C767 N766 1.307 . S
C767 H768 0.930 . S
H768 C767 0.930 . S
C769 N770 1.334 . S
C769 C771 1.394 1_655 S
C769 H773 0.930 . S
N770 Gd757 2.601 . S
N770 C760 1.359 . S
N770 C769 1.334 . S
C771 C769 1.394 1_455 S
C771 C772 1.359 . S
C771 H783 0.930 . S
C772 C762 1.391 . S
C772 C771 1.359 . S
C772 H784 0.929 . S
H773 C769 0.930 . S
H774 C763 0.930 . S
H775 C792 0.930 . S
H776 C764 0.930 . S
H777 C765 0.930 . S
H778 C759 0.929 . S
H779 C797 0.926 1_556 S
H780 C788 0.930 1_564 S
H781 C789 0.930 . S
H782 C813 0.929 . S
H783 C771 0.930 . S
H784 C772 0.929 . S
H785 C814 0.930 . S
H786 C795 0.930 . S
N787 Gd756 2.661 . S
N787 C791 1.350 . S
N787 C792 1.307 . S
C788 H780 0.930 1_546 S
C788 C789 1.355 . S
C788 C790 1.412 1_556 S
C789 H781 0.930 . S
C789 C788 1.355 . S
C789 C792 1.402 . S
C790 C788 1.412 1_554 S
C790 C791 1.417 1_554 S
C790 C814 1.431 . S
C791 N787 1.350 . S
C791 C790 1.417 1_556 S
C791 C794 1.426 1_556 S
C792 H775 0.930 . S
C792 N787 1.307 . S
C792 C789 1.402 . S
N793 Gd756 2.601 . S
N793 C794 1.359 1_556 S
N793 C797 1.331 1_556 S
C794 C791 1.426 1_554 S
C794 N793 1.359 1_554 S
C794 C798 1.413 . S
C795 H786 0.930 . S
C795 C796 1.359 . S
C795 C797 1.401 . S
C796 C795 1.359 . S
C796 C798 1.391 . S
C796 H799 0.929 . S
C797 H779 0.926 1_554 S
C797 N793 1.331 1_554 S
C797 C795 1.401 . S
C798 C794 1.413 . S
C798 C796 1.391 . S
C798 C813 1.437 . S
H799 C796 0.929 . S
O800 Gd756 2.545 . S
O800 C815 1.258 . S
O801 Gd756 2.606 . S
O801 Gd757 2.362 . S
O801 C812 1.284 . S
O802 Gd757 2.324 1_554 S
O802 C822 1.254 . S
O803 Gd756 2.429 . S
O803 C822 1.268 1_556 S
O804 Gd756 2.545 . S
O804 C812 1.250 . S
O805 Gd756 2.412 . S
O805 C815 1.252 . S
O806 Gd757 2.545 1_554 S
O806 C824 1.258 . S
O807 Gd756 2.372 . S
O807 Gd757 2.609 . S
O807 C823 1.274 1_556 S
O808 Gd756 2.324 . S
O808 C831 1.254 . S
O809 Gd757 2.429 . S
O809 C831 1.268 . S
O810 Gd757 2.545 1_554 S
O810 C823 1.250 . S
O811 Gd757 2.412 1_554 S
O811 C824 1.252 . S
C812 O801 1.284 . S
C812 O804 1.250 . S
C813 H782 0.929 . S
C813 C798 1.437 . S
C813 C814 1.317 . S
C814 H785 0.930 . S
C814 C790 1.431 . S
C814 C813 1.317 . S
C815 Gd756 2.828 . S
C815 O800 1.258 . S
C815 O805 1.252 . S
C815 C816 1.497 . S
C816 C815 1.497 . S
C816 C817 1.395 . S
C816 C818 1.380 . S
C817 C816 1.395 . S
C817 C820 1.398 . S
C817 H832 0.930 . S
C818 C816 1.380 . S
C818 C819 1.391 . S
C818 H833 0.930 . S
C819 C818 1.391 . S
C819 C821 1.387 . S
C820 C817 1.398 . S
C820 C821 1.380 . S
C820 H834 0.930 . S
C821 C819 1.387 . S
C821 C820 1.380 . S
C821 H835 0.930 . S
C822 O802 1.254 . S
C822 O803 1.268 1_554 S
C823 O807 1.274 1_554 S
C823 O810 1.250 . S
C824 Gd757 2.828 1_554 S
C824 O806 1.258 . S
C824 O811 1.252 . S
C824 C825 1.497 . S
C825 C824 1.497 . S
C825 C826 1.395 1_655 S
C825 C827 1.380 . S
C826 C825 1.395 1_455 S
C826 C829 1.398 . S
C826 H836 0.930 . S
C827 C825 1.380 . S
C827 C828 1.391 1_655 S
C827 H837 0.930 . S
C828 C827 1.391 1_455 S
C828 C830 1.387 . S
C829 C826 1.398 . S
C829 C830 1.380 . S
C829 H838 0.930 . S
C830 C828 1.387 . S
C830 C829 1.380 . S
C830 H839 0.930 . S
C831 O808 1.254 . S
C831 O809 1.268 . S
H832 C817 0.930 . S
H833 C818 0.930 . S
H834 C820 0.930 . S
H835 C821 0.930 . S
H836 C826 0.930 . S
H837 C827 0.930 . S
H838 C829 0.930 . S
H839 C830 0.930 . S
Gd840 N871 2.661 . S
Gd840 N877 2.601 . S
Gd840 O884 2.545 . S
Gd840 O885 2.606 . S
Gd840 O887 2.429 . S
Gd840 O888 2.545 . S
Gd840 O889 2.412 . S
Gd840 O891 2.362 . S
Gd840 O892 2.324 . S
Gd840 C899 2.828 . S
Gd841 N850 2.661 . S
Gd841 N854 2.601 . S
Gd841 O885 2.362 . S
Gd841 O886 2.324 . S
Gd841 O890 2.545 . S
Gd841 O891 2.606 . S
Gd841 O893 2.429 . S
Gd841 O894 2.545 . S
Gd841 O895 2.412 . S
Gd841 C908 2.828 . S
C842 C845 1.417 . S
C842 C847 1.431 . S
C842 C848 1.412 . S
C843 C846 1.437 . S
C843 C847 1.317 . S
C843 H862 0.929 . S
C844 C845 1.426 . S
C844 C846 1.413 . S
C844 N854 1.359 . S
C845 C842 1.417 . S
C845 C844 1.426 . S
C845 N850 1.350 . S
C846 C843 1.437 . S
C846 C844 1.413 . S
C846 C856 1.391 . S
C847 C842 1.431 . S
C847 C843 1.317 . S
C847 H858 0.930 . S
C848 C842 1.412 . S
C848 C849 1.355 . S
C848 H860 0.930 . S
C849 C848 1.355 . S
C849 C851 1.402 . S
C849 H861 0.930 . S
N850 Gd841 2.661 . S
N850 C845 1.350 . S
N850 C851 1.307 . S
C851 C849 1.402 . S
C851 N850 1.307 . S
C851 H852 0.930 . S
H852 C851 0.930 . S
C853 N854 1.334 . S
C853 C855 1.394 . S
C853 H857 0.930 . S
N854 Gd841 2.601 . S
N854 C844 1.359 . S
N854 C853 1.334 . S
C855 C853 1.394 . S
C855 C856 1.359 . S
C855 H867 0.930 . S
C856 C846 1.391 . S
C856 C855 1.359 . S
C856 H868 0.929 . S
H857 C853 0.930 . S
H858 C847 0.930 . S
H859 C876 0.930 . S
H860 C848 0.930 . S
H861 C849 0.930 . S
H862 C843 0.929 . S
H863 C881 0.930 . S
H864 C872 0.930 1_545 S
H865 C873 0.930 . S
H866 C897 0.929 . S
H867 C855 0.930 . S
H868 C856 0.929 . S
H869 C898 0.930 . S
H870 C879 0.930 . S
N871 Gd840 2.661 . S
N871 C875 1.350 . S
N871 C876 1.307 . S
C872 H864 0.930 1_565 S
C872 C873 1.355 . S
C872 C874 1.412 . S
C873 H865 0.930 . S
C873 C872 1.355 . S
C873 C876 1.402 . S
C874 C872 1.412 . S
C874 C875 1.417 . S
C874 C898 1.431 . S
C875 N871 1.350 . S
C875 C874 1.417 . S
C875 C878 1.426 . S
C876 H859 0.930 . S
C876 N871 1.307 . S
C876 C873 1.402 . S
N877 Gd840 2.601 . S
N877 C878 1.359 . S
N877 C881 1.334 . S
C878 C875 1.426 . S
C878 N877 1.359 . S
C878 C882 1.413 . S
C879 H870 0.930 . S
C879 C880 1.359 . S
C879 C881 1.394 . S
C880 C879 1.359 . S
C880 C882 1.391 . S
C880 H883 0.929 . S
C881 H863 0.930 . S
C881 N877 1.334 . S
C881 C879 1.394 . S
C882 C878 1.413 . S
C882 C880 1.391 . S
C882 C897 1.437 . S
H883 C880 0.929 . S
O884 Gd840 2.545 . S
O884 C899 1.258 . S
O885 Gd840 2.606 . S
O885 Gd841 2.362 . S
O885 C896 1.284 . S
O886 Gd841 2.324 . S
O886 C906 1.254 . S
O887 Gd840 2.429 . S
O887 C906 1.268 . S
O888 Gd840 2.545 . S
O888 C896 1.250 . S
O889 Gd840 2.412 . S
O889 C899 1.252 . S
O890 Gd841 2.545 . S
O890 C908 1.258 . S
O891 Gd840 2.362 . S
O891 Gd841 2.606 . S
O891 C907 1.284 . S
O892 Gd840 2.324 . S
O892 C915 1.254 . S
O893 Gd841 2.429 . S
O893 C915 1.268 . S
O894 Gd841 2.545 . S
O894 C907 1.250 . S
O895 Gd841 2.412 . S
O895 C908 1.252 . S
C896 O885 1.284 . S
C896 O888 1.250 . S
C897 H866 0.929 . S
C897 C882 1.437 . S
C897 C898 1.317 . S
C898 H869 0.930 . S
C898 C874 1.431 . S
C898 C897 1.317 . S
C899 Gd840 2.828 . S
C899 O884 1.258 . S
C899 O889 1.252 . S
C899 C900 1.497 . S
C900 C899 1.497 . S
C900 C901 1.395 . S
C900 C902 1.380 . S
C901 C900 1.395 . S
C901 C904 1.398 . S
C901 H916 0.930 . S
C902 C900 1.380 . S
C902 C903 1.391 . S
C902 H917 0.930 . S
C903 C902 1.391 . S
C903 C905 1.387 . S
C904 C901 1.398 . S
C904 C905 1.380 . S
C904 H918 0.930 . S
C905 C903 1.387 . S
C905 C904 1.380 . S
C905 H919 0.930 . S
C906 O886 1.254 . S
C906 O887 1.268 . S
C907 O891 1.284 . S
C907 O894 1.250 . S
C908 Gd841 2.828 . S
C908 O890 1.258 . S
C908 O895 1.252 . S
C908 C909 1.497 . S
C909 C908 1.497 . S
C909 C910 1.395 . S
C909 C911 1.380 . S
C910 C909 1.395 . S
C910 C913 1.398 . S
C910 H920 0.930 . S
C911 C909 1.380 . S
C911 C912 1.391 . S
C911 H921 0.930 . S
C912 C911 1.391 . S
C912 C914 1.387 . S
C913 C910 1.398 . S
C913 C914 1.380 . S
C913 H922 0.930 . S
C914 C912 1.387 . S
C914 C913 1.380 . S
C914 H923 0.930 . S
C915 O892 1.254 . S
C915 O893 1.268 . S
H916 C901 0.930 . S
H917 C902 0.930 . S
H918 C904 0.930 . S
H919 C905 0.930 . S
H920 C910 0.930 . S
H921 C911 0.930 . S
H922 C913 0.930 . S
H923 C914 0.930 . S
Gd924 N955 2.661 . S
Gd924 N961 2.601 . S
Gd924 O968 2.545 . S
Gd924 O969 2.606 . S
Gd924 O971 2.429 . S
Gd924 O972 2.545 . S
Gd924 O973 2.412 . S
Gd924 O975 2.362 . S
Gd924 O976 2.324 . S
Gd924 C983 2.828 . S
Gd925 N934 2.661 . S
Gd925 N938 2.601 . S
Gd925 O969 2.362 . S
Gd925 O970 2.324 . S
Gd925 O974 2.545 . S
Gd925 O975 2.606 . S
Gd925 O977 2.429 . S
Gd925 O978 2.545 . S
Gd925 O979 2.412 . S
Gd925 C992 2.828 . S
C926 C929 1.417 . S
C926 C931 1.431 . S
C926 C932 1.412 . S
C927 C930 1.437 . S
C927 C931 1.317 1_655 S
C927 H946 0.929 . S
C928 C929 1.426 . S
C928 C930 1.413 1_455 S
C928 N938 1.359 . S
C929 C926 1.417 . S
C929 C928 1.426 . S
C929 N934 1.350 . S
C930 C927 1.437 . S
C930 C928 1.413 1_655 S
C930 C940 1.391 . S
C931 C926 1.431 . S
C931 C927 1.317 1_455 S
C931 H942 0.930 . S
C932 C926 1.412 . S
C932 C933 1.355 . S
C932 H944 0.930 . S
C933 C932 1.355 . S
C933 C935 1.402 . S
C933 H945 0.930 . S
N934 Gd925 2.661 . S
N934 C929 1.350 . S
N934 C935 1.307 . S
C935 C933 1.402 . S
C935 N934 1.307 . S
C935 H936 0.930 . S
H936 C935 0.930 . S
C937 N938 1.334 . S
C937 C939 1.394 1_455 S
C937 H941 0.930 . S
N938 Gd925 2.601 . S
N938 C928 1.359 . S
N938 C937 1.334 . S
C939 C937 1.394 1_655 S
C939 C940 1.359 . S
C939 H951 0.930 . S
C940 C930 1.391 . S
C940 C939 1.359 . S
C940 H952 0.929 . S
H941 C937 0.930 . S
H942 C931 0.930 . S
H943 C960 0.930 . S
H944 C932 0.930 . S
H945 C933 0.930 . S
H946 C927 0.929 . S
H947 C965 0.930 . S
H948 C956 0.930 . S
H949 C957 0.930 . S
H950 C981 0.929 . S
H951 C939 0.930 . S
H952 C940 0.929 . S
H953 C982 0.930 . S
H954 C963 0.930 . S
N955 Gd924 2.661 . S
N955 C959 1.350 . S
N955 C960 1.307 . S
C956 H948 0.930 . S
C956 C957 1.355 . S
C956 C958 1.412 . S
C957 H949 0.930 . S
C957 C956 1.355 . S
C957 C960 1.402 . S
C958 C956 1.412 . S
C958 C959 1.417 . S
C958 C982 1.431 . S
C959 N955 1.350 . S
C959 C958 1.417 . S
C959 C962 1.426 . S
C960 H943 0.930 . S
C960 N955 1.307 . S
C960 C957 1.402 . S
N961 Gd924 2.601 . S
N961 C962 1.359 . S
N961 C965 1.334 . S
C962 C959 1.426 . S
C962 N961 1.359 . S
C962 C966 1.413 . S
C963 H954 0.930 . S
C963 C964 1.359 . S
C963 C965 1.394 . S
C964 C963 1.359 . S
C964 C966 1.391 . S
C964 H967 0.929 . S
C965 H947 0.930 . S
C965 N961 1.334 . S
C965 C963 1.394 . S
C966 C962 1.413 . S
C966 C964 1.391 . S
C966 C981 1.437 . S
H967 C964 0.929 . S
O968 Gd924 2.545 . S
O968 C983 1.258 . S
O969 Gd924 2.606 . S
O969 Gd925 2.362 . S
O969 C980 1.284 . S
O970 Gd925 2.324 . S
O970 C990 1.254 . S
O971 Gd924 2.429 . S
O971 C990 1.268 . S
O972 Gd924 2.545 . S
O972 C980 1.250 . S
O973 Gd924 2.412 . S
O973 C983 1.252 . S
O974 Gd925 2.545 . S
O974 C992 1.258 . S
O975 Gd924 2.362 . S
O975 Gd925 2.606 . S
O975 C991 1.284 . S
O976 Gd924 2.324 . S
O976 C999 1.254 . S
O977 Gd925 2.429 . S
O977 C999 1.268 . S
O978 Gd925 2.545 . S
O978 C991 1.250 . S
O979 Gd925 2.412 . S
O979 C992 1.252 . S
C980 O969 1.284 . S
C980 O972 1.250 . S
C981 H950 0.929 . S
C981 C966 1.437 . S
C981 C982 1.317 . S
C982 H953 0.930 . S
C982 C958 1.431 . S
C982 C981 1.317 . S
C983 Gd924 2.828 . S
C983 O968 1.258 . S
C983 O973 1.252 . S
C983 C984 1.497 . S
C984 C983 1.497 . S
C984 C985 1.395 . S
C984 C986 1.380 . S
C985 C984 1.395 . S
C985 C988 1.398 . S
C985 H1000 0.930 . S
C986 C984 1.380 . S
C986 C987 1.391 . S
C986 H1001 0.930 . S
C987 C986 1.391 . S
C987 C989 1.387 . S
C988 C985 1.398 . S
C988 C989 1.380 . S
C988 H1002 0.930 . S
C989 C987 1.387 . S
C989 C988 1.380 . S
C989 H1003 0.930 . S
C990 O970 1.254 . S
C990 O971 1.268 . S
C991 O975 1.284 . S
C991 O978 1.250 . S
C992 Gd925 2.828 . S
C992 O974 1.258 . S
C992 O979 1.252 . S
C992 C993 1.497 . S
C993 C992 1.497 . S
C993 C994 1.395 1_455 S
C993 C995 1.380 . S
C994 C993 1.395 1_655 S
C994 C997 1.398 . S
C994 H1004 0.930 . S
C995 C993 1.380 . S
C995 C996 1.391 1_455 S
C995 H1005 0.930 . S
C996 C995 1.391 1_655 S
C996 C998 1.387 . S
C997 C994 1.398 . S
C997 C998 1.380 . S
C997 H1006 0.930 . S
C998 C996 1.387 . S
C998 C997 1.380 . S
C998 H1007 0.930 . S
C999 O976 1.254 . S
C999 O977 1.268 . S
H1000 C985 0.930 . S
H1001 C986 0.930 . S
H1002 C988 0.930 . S
H1003 C989 0.930 . S
H1004 C994 0.930 . S
H1005 C995 0.930 . S
H1006 C997 0.930 . S
H1007 C998 0.930 . S
Gd1008 N1039 2.661 . S
Gd1008 N1045 2.601 . S
Gd1008 O1052 2.545 1_655 S
Gd1008 O1053 2.609 . S
Gd1008 O1055 2.429 . S
Gd1008 O1056 2.545 1_655 S
Gd1008 O1057 2.412 1_655 S
Gd1008 O1059 2.362 . S
Gd1008 O1060 2.324 1_655 S
Gd1008 C1067 2.828 1_655 S
Gd1009 N1018 2.661 . S
Gd1009 N1022 2.601 . S
Gd1009 O1053 2.372 . S
Gd1009 O1054 2.324 . S
Gd1009 O1058 2.545 . S
Gd1009 O1059 2.606 . S
Gd1009 O1061 2.429 . S
Gd1009 O1062 2.545 . S
Gd1009 O1063 2.412 . S
Gd1009 C1076 2.828 . S
C1010 C1013 1.417 1_455 S
C1010 C1015 1.431 . S
C1010 C1016 1.412 1_455 S
C1011 C1014 1.437 . S
C1011 C1015 1.317 . S
C1011 H1030 0.929 . S
C1012 C1013 1.426 1_455 S
C1012 C1014 1.413 . S
C1012 N1022 1.359 1_455 S
C1013 C1010 1.417 1_655 S
C1013 C1012 1.426 1_655 S
C1013 N1018 1.350 . S
C1014 C1011 1.437 . S
C1014 C1012 1.413 . S
C1014 C1024 1.391 . S
C1015 C1010 1.431 . S
C1015 C1011 1.317 . S
C1015 H1026 0.930 . S
C1016 C1010 1.412 1_655 S
C1016 C1017 1.355 . S
C1016 H1028 0.930 1_655 S
C1017 C1016 1.355 . S
C1017 C1019 1.402 . S
C1017 H1029 0.930 . S
N1018 Gd1009 2.661 . S
N1018 C1013 1.350 . S
N1018 C1019 1.307 . S
C1019 C1017 1.402 . S
C1019 N1018 1.307 . S
C1019 H1020 0.930 . S
H1020 C1019 0.930 . S
C1021 N1022 1.331 1_455 S
C1021 C1023 1.401 . S
C1021 H1025 0.926 1_455 S
N1022 Gd1009 2.601 . S
N1022 C1012 1.359 1_655 S
N1022 C1021 1.331 1_655 S
C1023 C1021 1.401 . S
C1023 C1024 1.359 . S
C1023 H1035 0.930 . S
C1024 C1014 1.391 . S
C1024 C1023 1.359 . S
C1024 H1036 0.929 . S
H1025 C1021 0.926 1_655 S
H1026 C1015 0.930 . S
H1027 C1044 0.930 . S
H1028 C1016 0.930 1_455 S
H1029 C1017 0.930 . S
H1030 C1011 0.929 . S
H1031 C1049 0.930 . S
H1032 C1040 0.930 . S
H1033 C1041 0.930 . S
H1034 C1065 0.929 . S
H1035 C1023 0.930 . S
H1036 C1024 0.929 . S
H1037 C1066 0.930 . S
H1038 C1047 0.930 . S
N1039 Gd1008 2.661 . S
N1039 C1043 1.350 . S
N1039 C1044 1.307 . S
C1040 H1032 0.930 . S
C1040 C1041 1.355 . S
C1040 C1042 1.412 . S
C1041 H1033 0.930 . S
C1041 C1040 1.355 . S
C1041 C1044 1.402 . S
C1042 C1040 1.412 . S
C1042 C1043 1.417 . S
C1042 C1066 1.431 . S
C1043 N1039 1.350 . S
C1043 C1042 1.417 . S
C1043 C1046 1.426 . S
C1044 H1027 0.930 . S
C1044 N1039 1.307 . S
C1044 C1041 1.402 . S
N1045 Gd1008 2.601 . S
N1045 C1046 1.359 . S
N1045 C1049 1.334 . S
C1046 C1043 1.426 . S
C1046 N1045 1.359 . S
C1046 C1050 1.413 . S
C1047 H1038 0.930 . S
C1047 C1048 1.359 . S
C1047 C1049 1.394 . S
C1048 C1047 1.359 . S
C1048 C1050 1.391 . S
C1048 H1051 0.929 . S
C1049 H1031 0.930 . S
C1049 N1045 1.334 . S
C1049 C1047 1.394 . S
C1050 C1046 1.413 . S
C1050 C1048 1.391 . S
C1050 C1065 1.437 . S
H1051 C1048 0.929 . S
O1052 Gd1008 2.545 1_455 S
O1052 C1067 1.258 . S
O1053 Gd1008 2.609 . S
O1053 Gd1009 2.372 . S
O1053 C1064 1.274 1_655 S
O1054 Gd1009 2.324 . S
O1054 C1074 1.254 . S
O1055 Gd1008 2.429 . S
O1055 C1074 1.268 . S
O1056 Gd1008 2.545 1_455 S
O1056 C1064 1.250 . S
O1057 Gd1008 2.412 1_455 S
O1057 C1067 1.252 . S
O1058 Gd1009 2.545 . S
O1058 C1076 1.258 . S
O1059 Gd1008 2.362 . S
O1059 Gd1009 2.606 . S
O1059 C1075 1.284 . S
O1060 Gd1008 2.324 1_455 S
O1060 C1083 1.254 . S
O1061 Gd1009 2.429 . S
O1061 C1083 1.268 1_655 S
O1062 Gd1009 2.545 . S
O1062 C1075 1.250 . S
O1063 Gd1009 2.412 . S
O1063 C1076 1.252 . S
C1064 O1053 1.274 1_455 S
C1064 O1056 1.250 . S
C1065 H1034 0.929 . S
C1065 C1050 1.437 . S
C1065 C1066 1.317 . S
C1066 H1037 0.930 . S
C1066 C1042 1.431 . S
C1066 C1065 1.317 . S
C1067 Gd1008 2.828 1_455 S
C1067 O1052 1.258 . S
C1067 O1057 1.252 . S
C1067 C1068 1.497 . S
C1068 C1067 1.497 . S
C1068 C1069 1.395 . S
C1068 C1070 1.380 . S
C1069 C1068 1.395 . S
C1069 C1072 1.398 . S
C1069 H1084 0.930 . S
C1070 C1068 1.380 . S
C1070 C1071 1.391 . S
C1070 H1085 0.930 . S
C1071 C1070 1.391 . S
C1071 C1073 1.387 . S
C1072 C1069 1.398 . S
C1072 C1073 1.380 . S
C1072 H1086 0.930 . S
C1073 C1071 1.387 . S
C1073 C1072 1.380 . S
C1073 H1087 0.930 . S
C1074 O1054 1.254 . S
C1074 O1055 1.268 . S
C1075 O1059 1.284 . S
C1075 O1062 1.250 . S
C1076 Gd1009 2.828 . S
C1076 O1058 1.258 . S
C1076 O1063 1.252 . S
C1076 C1077 1.497 . S
C1077 C1076 1.497 . S
C1077 C1078 1.395 . S
C1077 C1079 1.380 . S
C1078 C1077 1.395 . S
C1078 C1081 1.398 . S
C1078 H1088 0.930 . S
C1079 C1077 1.380 . S
C1079 C1080 1.391 . S
C1079 H1089 0.930 . S
C1080 C1079 1.391 . S
C1080 C1082 1.387 . S
C1081 C1078 1.398 . S
C1081 C1082 1.380 . S
C1081 H1090 0.930 . S
C1082 C1080 1.387 . S
C1082 C1081 1.380 . S
C1082 H1091 0.930 . S
C1083 O1060 1.254 . S
C1083 O1061 1.268 1_455 S
H1084 C1069 0.930 . S
H1085 C1070 0.930 . S
H1086 C1072 0.930 . S
H1087 C1073 0.930 . S
H1088 C1078 0.930 . S
H1089 C1079 0.930 . S
H1090 C1081 0.930 . S
H1091 C1082 0.930 . S
Gd1092 N1123 2.661 . S
Gd1092 N1129 2.601 . S
Gd1092 O1136 2.545 . S
Gd1092 O1137 2.606 . S
Gd1092 O1139 2.429 . S
Gd1092 O1140 2.545 . S
Gd1092 O1141 2.412 . S
Gd1092 O1143 2.362 . S
Gd1092 O1144 2.324 . S
Gd1092 C1151 2.828 . S
Gd1093 N1102 2.661 . S
Gd1093 N1106 2.601 . S
Gd1093 O1137 2.362 . S
Gd1093 O1138 2.324 . S
Gd1093 O1142 2.545 . S
Gd1093 O1143 2.606 . S
Gd1093 O1145 2.429 . S
Gd1093 O1146 2.545 . S
Gd1093 O1147 2.412 . S
Gd1093 C1160 2.828 . S
C1094 C1097 1.417 . S
C1094 C1099 1.431 . S
C1094 C1100 1.412 . S
C1095 C1098 1.437 . S
C1095 C1099 1.317 . S
C1095 H1114 0.929 . S
C1096 C1097 1.426 . S
C1096 C1098 1.413 . S
C1096 N1106 1.359 . S
C1097 C1094 1.417 . S
C1097 C1096 1.426 . S
C1097 N1102 1.350 . S
C1098 C1095 1.437 . S
C1098 C1096 1.413 . S
C1098 C1108 1.391 . S
C1099 C1094 1.431 . S
C1099 C1095 1.317 . S
C1099 H1110 0.930 . S
C1100 C1094 1.412 . S
C1100 C1101 1.355 . S
C1100 H1112 0.930 1_554 S
C1101 C1100 1.355 . S
C1101 C1103 1.402 . S
C1101 H1113 0.930 . S
N1102 Gd1093 2.661 . S
N1102 C1097 1.350 . S
N1102 C1103 1.307 . S
C1103 C1101 1.402 . S
C1103 N1102 1.307 . S
C1103 H1104 0.930 . S
H1104 C1103 0.930 . S
C1105 N1106 1.334 . S
C1105 C1107 1.394 . S
C1105 H1109 0.930 . S
N1106 Gd1093 2.601 . S
N1106 C1096 1.359 . S
N1106 C1105 1.334 . S
C1107 C1105 1.394 . S
C1107 C1108 1.359 . S
C1107 H1119 0.930 . S
C1108 C1098 1.391 . S
C1108 C1107 1.359 . S
C1108 H1120 0.929 . S
H1109 C1105 0.930 . S
H1110 C1099 0.930 . S
H1111 C1128 0.930 . S
H1112 C1100 0.930 1_556 S
H1113 C1101 0.930 . S
H1114 C1095 0.929 . S
H1115 C1133 0.930 . S
H1116 C1124 0.930 . S
H1117 C1125 0.930 . S
H1118 C1149 0.929 . S
H1119 C1107 0.930 . S
H1120 C1108 0.929 . S
H1121 C1150 0.930 . S
H1122 C1131 0.930 . S
N1123 Gd1092 2.661 . S
N1123 C1127 1.350 . S
N1123 C1128 1.307 . S
C1124 H1116 0.930 . S
C1124 C1125 1.355 . S
C1124 C1126 1.412 . S
C1125 H1117 0.930 . S
C1125 C1124 1.355 . S
C1125 C1128 1.402 . S
C1126 C1124 1.412 . S
C1126 C1127 1.417 . S
C1126 C1150 1.431 . S
C1127 N1123 1.350 . S
C1127 C1126 1.417 . S
C1127 C1130 1.426 . S
C1128 H1111 0.930 . S
C1128 N1123 1.307 . S
C1128 C1125 1.402 . S
N1129 Gd1092 2.601 . S
N1129 C1130 1.359 . S
N1129 C1133 1.334 . S
C1130 C1127 1.426 . S
C1130 N1129 1.359 . S
C1130 C1134 1.413 . S
C1131 H1122 0.930 . S
C1131 C1132 1.359 . S
C1131 C1133 1.394 . S
C1132 C1131 1.359 . S
C1132 C1134 1.391 . S
C1132 H1135 0.929 . S
C1133 H1115 0.930 . S
C1133 N1129 1.334 . S
C1133 C1131 1.394 . S
C1134 C1130 1.413 . S
C1134 C1132 1.391 . S
C1134 C1149 1.437 . S
H1135 C1132 0.929 . S
O1136 Gd1092 2.545 . S
O1136 C1151 1.258 . S
O1137 Gd1092 2.606 . S
O1137 Gd1093 2.362 . S
O1137 C1148 1.284 . S
O1138 Gd1093 2.324 . S
O1138 C1158 1.254 . S
O1139 Gd1092 2.429 . S
O1139 C1158 1.268 . S
O1140 Gd1092 2.545 . S
O1140 C1148 1.250 . S
O1141 Gd1092 2.412 . S
O1141 C1151 1.252 . S
O1142 Gd1093 2.545 . S
O1142 C1160 1.258 . S
O1143 Gd1092 2.362 . S
O1143 Gd1093 2.606 . S
O1143 C1159 1.284 . S
O1144 Gd1092 2.324 . S
O1144 C1167 1.254 . S
O1145 Gd1093 2.429 . S
O1145 C1167 1.268 . S
O1146 Gd1093 2.545 . S
O1146 C1159 1.250 . S
O1147 Gd1093 2.412 . S
O1147 C1160 1.252 . S
C1148 O1137 1.284 . S
C1148 O1140 1.250 . S
C1149 H1118 0.929 . S
C1149 C1134 1.437 . S
C1149 C1150 1.317 . S
C1150 H1121 0.930 . S
C1150 C1126 1.431 . S
C1150 C1149 1.317 . S
C1151 Gd1092 2.828 . S
C1151 O1136 1.258 . S
C1151 O1141 1.252 . S
C1151 C1152 1.497 . S
C1152 C1151 1.497 . S
C1152 C1153 1.395 . S
C1152 C1154 1.380 . S
C1153 C1152 1.395 . S
C1153 C1156 1.398 . S
C1153 H1168 0.930 . S
C1154 C1152 1.380 . S
C1154 C1155 1.391 . S
C1154 H1169 0.930 . S
C1155 C1154 1.391 . S
C1155 C1157 1.387 . S
C1156 C1153 1.398 . S
C1156 C1157 1.380 . S
C1156 H1170 0.930 . S
C1157 C1155 1.387 . S
C1157 C1156 1.380 . S
C1157 H1171 0.930 . S
C1158 O1138 1.254 . S
C1158 O1139 1.268 . S
C1159 O1143 1.284 . S
C1159 O1146 1.250 . S
C1160 Gd1093 2.828 . S
C1160 O1142 1.258 . S
C1160 O1147 1.252 . S
C1160 C1161 1.497 . S
C1161 C1160 1.497 . S
C1161 C1162 1.395 . S
C1161 C1163 1.380 . S
C1162 C1161 1.395 . S
C1162 C1165 1.398 . S
C1162 H1172 0.930 . S
C1163 C1161 1.380 . S
C1163 C1164 1.391 . S
C1163 H1173 0.930 . S
C1164 C1163 1.391 . S
C1164 C1166 1.387 . S
C1165 C1162 1.398 . S
C1165 C1166 1.380 . S
C1165 H1174 0.930 . S
C1166 C1164 1.387 . S
C1166 C1165 1.380 . S
C1166 H1175 0.930 . S
C1167 O1144 1.254 . S
C1167 O1145 1.268 . S
H1168 C1153 0.930 . S
H1169 C1154 0.930 . S
H1170 C1156 0.930 . S
H1171 C1157 0.930 . S
H1172 C1162 0.930 . S
H1173 C1163 0.930 . S
H1174 C1165 0.930 . S
H1175 C1166 0.930 . S
Gd1176 N1207 2.661 . S
Gd1176 N1213 2.601 . S
Gd1176 O1220 2.545 . S
Gd1176 O1221 2.606 . S
Gd1176 O1223 2.429 . S
Gd1176 O1224 2.545 . S
Gd1176 O1225 2.412 . S
Gd1176 O1227 2.362 . S
Gd1176 O1228 2.324 . S
Gd1176 C1235 2.828 . S
Gd1177 N1186 2.661 . S
Gd1177 N1190 2.601 . S
Gd1177 O1221 2.362 . S
Gd1177 O1222 2.324 . S
Gd1177 O1226 2.545 . S
Gd1177 O1227 2.606 . S
Gd1177 O1229 2.429 . S
Gd1177 O1230 2.545 . S
Gd1177 O1231 2.412 . S
Gd1177 C1244 2.828 . S
C1178 C1181 1.417 . S
C1178 C1183 1.431 . S
C1178 C1184 1.412 . S
C1179 C1182 1.437 . S
C1179 C1183 1.317 . S
C1179 H1198 0.929 . S
C1180 C1181 1.426 . S
C1180 C1182 1.413 . S
C1180 N1190 1.359 . S
C1181 C1178 1.417 . S
C1181 C1180 1.426 . S
C1181 N1186 1.350 . S
C1182 C1179 1.437 . S
C1182 C1180 1.413 . S
C1182 C1192 1.391 . S
C1183 C1178 1.431 . S
C1183 C1179 1.317 . S
C1183 H1194 0.930 . S
C1184 C1178 1.412 . S
C1184 C1185 1.355 . S
C1184 H1196 0.930 . S
C1185 C1184 1.355 . S
C1185 C1187 1.402 . S
C1185 H1197 0.930 . S
N1186 Gd1177 2.661 . S
N1186 C1181 1.350 . S
N1186 C1187 1.307 . S
C1187 C1185 1.402 . S
C1187 N1186 1.307 . S
C1187 H1188 0.930 . S
H1188 C1187 0.930 . S
C1189 N1190 1.334 . S
C1189 C1191 1.394 . S
C1189 H1193 0.930 . S
N1190 Gd1177 2.601 . S
N1190 C1180 1.359 . S
N1190 C1189 1.334 . S
C1191 C1189 1.394 . S
C1191 C1192 1.359 . S
C1191 H1203 0.930 . S
C1192 C1182 1.391 . S
C1192 C1191 1.359 . S
C1192 H1204 0.929 . S
H1193 C1189 0.930 . S
H1194 C1183 0.930 . S
H1195 C1212 0.930 . S
H1196 C1184 0.930 . S
H1197 C1185 0.930 . S
H1198 C1179 0.929 . S
H1199 C1217 0.930 . S
H1200 C1208 0.930 . S
H1201 C1209 0.930 . S
H1202 C1233 0.929 . S
H1203 C1191 0.930 . S
H1204 C1192 0.929 . S
H1205 C1234 0.930 . S
H1206 C1215 0.930 . S
N1207 Gd1176 2.661 . S
N1207 C1211 1.350 . S
N1207 C1212 1.307 . S
C1208 H1200 0.930 . S
C1208 C1209 1.355 . S
C1208 C1210 1.412 . S
C1209 H1201 0.930 . S
C1209 C1208 1.355 . S
C1209 C1212 1.402 . S
C1210 C1208 1.412 . S
C1210 C1211 1.417 . S
C1210 C1234 1.431 . S
C1211 N1207 1.350 . S
C1211 C1210 1.417 . S
C1211 C1214 1.426 . S
C1212 H1195 0.930 . S
C1212 N1207 1.307 . S
C1212 C1209 1.402 . S
N1213 Gd1176 2.601 . S
N1213 C1214 1.359 . S
N1213 C1217 1.334 . S
C1214 C1211 1.426 . S
C1214 N1213 1.359 . S
C1214 C1218 1.413 1_565 S
C1215 H1206 0.930 . S
C1215 C1216 1.359 . S
C1215 C1217 1.394 1_545 S
C1216 C1215 1.359 . S
C1216 C1218 1.391 . S
C1216 H1219 0.929 . S
C1217 H1199 0.930 . S
C1217 N1213 1.334 . S
C1217 C1215 1.394 1_565 S
C1218 C1214 1.413 1_545 S
C1218 C1216 1.391 . S
C1218 C1233 1.437 . S
H1219 C1216 0.929 . S
O1220 Gd1176 2.545 . S
O1220 C1235 1.258 . S
O1221 Gd1176 2.606 . S
O1221 Gd1177 2.362 . S
O1221 C1232 1.284 . S
O1222 Gd1177 2.324 . S
O1222 C1242 1.254 . S
O1223 Gd1176 2.429 . S
O1223 C1242 1.268 . S
O1224 Gd1176 2.545 . S
O1224 C1232 1.250 . S
O1225 Gd1176 2.412 . S
O1225 C1235 1.252 . S
O1226 Gd1177 2.545 . S
O1226 C1244 1.258 . S
O1227 Gd1176 2.362 . S
O1227 Gd1177 2.606 . S
O1227 C1243 1.284 . S
O1228 Gd1176 2.324 . S
O1228 C1251 1.254 . S
O1229 Gd1177 2.429 . S
O1229 C1251 1.268 . S
O1230 Gd1177 2.545 . S
O1230 C1243 1.250 . S
O1231 Gd1177 2.412 . S
O1231 C1244 1.252 . S
C1232 O1221 1.284 . S
C1232 O1224 1.250 . S
C1233 H1202 0.929 . S
C1233 C1218 1.437 . S
C1233 C1234 1.317 1_545 S
C1234 H1205 0.930 . S
C1234 C1210 1.431 . S
C1234 C1233 1.317 1_565 S
C1235 Gd1176 2.828 . S
C1235 O1220 1.258 . S
C1235 O1225 1.252 . S
C1235 C1236 1.497 . S
C1236 C1235 1.497 . S
C1236 C1237 1.395 1_565 S
C1236 C1238 1.380 . S
C1237 C1236 1.395 1_545 S
C1237 C1240 1.398 . S
C1237 H1252 0.930 . S
C1238 C1236 1.380 . S
C1238 C1239 1.391 1_565 S
C1238 H1253 0.930 . S
C1239 C1238 1.391 1_545 S
C1239 C1241 1.387 . S
C1240 C1237 1.398 . S
C1240 C1241 1.380 . S
C1240 H1254 0.930 . S
C1241 C1239 1.387 . S
C1241 C1240 1.380 . S
C1241 H1255 0.930 . S
C1242 O1222 1.254 . S
C1242 O1223 1.268 . S
C1243 O1227 1.284 . S
C1243 O1230 1.250 . S
C1244 Gd1177 2.828 . S
C1244 O1226 1.258 . S
C1244 O1231 1.252 . S
C1244 C1245 1.497 . S
C1245 C1244 1.497 . S
C1245 C1246 1.395 . S
C1245 C1247 1.380 . S
C1246 C1245 1.395 . S
C1246 C1249 1.398 . S
C1246 H1256 0.930 . S
C1247 C1245 1.380 . S
C1247 C1248 1.391 . S
C1247 H1257 0.930 . S
C1248 C1247 1.391 . S
C1248 C1250 1.387 . S
C1249 C1246 1.398 . S
C1249 C1250 1.380 . S
C1249 H1258 0.930 . S
C1250 C1248 1.387 . S
C1250 C1249 1.380 . S
C1250 H1259 0.930 . S
C1251 O1228 1.254 . S
C1251 O1229 1.268 . S
H1252 C1237 0.930 . S
H1253 C1238 0.930 . S
H1254 C1240 0.930 . S
H1255 C1241 0.930 . S
H1256 C1246 0.930 . S
H1257 C1247 0.930 . S
H1258 C1249 0.930 . S
H1259 C1250 0.930 . S
Gd1260 N1291 2.661 . S
Gd1260 N1297 2.601 . S
Gd1260 O1304 2.545 1_455 S
Gd1260 O1305 2.609 . S
Gd1260 O1307 2.429 . S
Gd1260 O1308 2.545 1_455 S
Gd1260 O1309 2.412 1_455 S
Gd1260 O1311 2.362 . S
Gd1260 O1312 2.324 1_455 S
Gd1260 C1319 2.828 1_455 S
Gd1261 N1270 2.661 . S
Gd1261 N1274 2.601 . S
Gd1261 O1305 2.372 . S
Gd1261 O1306 2.324 . S
Gd1261 O1310 2.545 . S
Gd1261 O1311 2.606 . S
Gd1261 O1313 2.429 . S
Gd1261 O1314 2.545 . S
Gd1261 O1315 2.412 . S
Gd1261 C1328 2.828 . S
C1262 C1265 1.417 1_655 S
C1262 C1267 1.431 . S
C1262 C1268 1.412 1_655 S
C1263 C1266 1.437 . S
C1263 C1267 1.317 . S
C1263 H1282 0.929 . S
C1264 C1265 1.426 1_655 S
C1264 C1266 1.413 . S
C1264 N1274 1.359 1_655 S
C1265 C1262 1.417 1_455 S
C1265 C1264 1.426 1_455 S
C1265 N1270 1.350 . S
C1266 C1263 1.437 . S
C1266 C1264 1.413 . S
C1266 C1276 1.391 . S
C1267 C1262 1.431 . S
C1267 C1263 1.317 . S
C1267 H1278 0.930 . S
C1268 C1262 1.412 1_455 S
C1268 C1269 1.355 . S
C1268 H1280 0.930 1_456 S
C1269 C1268 1.355 . S
C1269 C1271 1.402 . S
C1269 H1281 0.930 . S
N1270 Gd1261 2.661 . S
N1270 C1265 1.350 . S
N1270 C1271 1.307 . S
C1271 C1269 1.402 . S
C1271 N1270 1.307 . S
C1271 H1272 0.930 . S
H1272 C1271 0.930 . S
C1273 N1274 1.331 1_655 S
C1273 C1275 1.401 . S
C1273 H1277 0.926 1_655 S
N1274 Gd1261 2.601 . S
N1274 C1264 1.359 1_455 S
N1274 C1273 1.331 1_455 S
C1275 C1273 1.401 . S
C1275 C1276 1.359 . S
C1275 H1287 0.930 . S
C1276 C1266 1.391 . S
C1276 C1275 1.359 . S
C1276 H1288 0.929 . S
H1277 C1273 0.926 1_455 S
H1278 C1267 0.930 . S
H1279 C1296 0.930 . S
H1280 C1268 0.930 1_654 S
H1281 C1269 0.930 . S
H1282 C1263 0.929 . S
H1283 C1301 0.930 . S
H1284 C1292 0.930 . S
H1285 C1293 0.930 . S
H1286 C1317 0.929 . S
H1287 C1275 0.930 . S
H1288 C1276 0.929 . S
H1289 C1318 0.930 . S
H1290 C1299 0.930 . S
N1291 Gd1260 2.661 . S
N1291 C1295 1.350 . S
N1291 C1296 1.307 . S
C1292 H1284 0.930 . S
C1292 C1293 1.355 . S
C1292 C1294 1.412 . S
C1293 H1285 0.930 . S
C1293 C1292 1.355 . S
C1293 C1296 1.402 . S
C1294 C1292 1.412 . S
C1294 C1295 1.417 . S
C1294 C1318 1.431 . S
C1295 N1291 1.350 . S
C1295 C1294 1.417 . S
C1295 C1298 1.426 . S
C1296 H1279 0.930 . S
C1296 N1291 1.307 . S
C1296 C1293 1.402 . S
N1297 Gd1260 2.601 . S
N1297 C1298 1.359 . S
N1297 C1301 1.334 . S
C1298 C1295 1.426 . S
C1298 N1297 1.359 . S
C1298 C1302 1.413 1_545 S
C1299 H1290 0.930 . S
C1299 C1300 1.359 . S
C1299 C1301 1.394 1_565 S
C1300 C1299 1.359 . S
C1300 C1302 1.391 . S
C1300 H1303 0.929 . S
C1301 H1283 0.930 . S
C1301 N1297 1.334 . S
C1301 C1299 1.394 1_545 S
C1302 C1298 1.413 1_565 S
C1302 C1300 1.391 . S
C1302 C1317 1.437 . S
H1303 C1300 0.929 . S
O1304 Gd1260 2.545 1_655 S
O1304 C1319 1.258 . S
O1305 Gd1260 2.609 . S
O1305 Gd1261 2.372 . S
O1305 C1316 1.274 1_455 S
O1306 Gd1261 2.324 . S
O1306 C1326 1.254 . S
O1307 Gd1260 2.429 . S
O1307 C1326 1.268 . S
O1308 Gd1260 2.545 1_655 S
O1308 C1316 1.250 . S
O1309 Gd1260 2.412 1_655 S
O1309 C1319 1.252 . S
O1310 Gd1261 2.545 . S
O1310 C1328 1.258 . S
O1311 Gd1260 2.362 . S
O1311 Gd1261 2.606 . S
O1311 C1327 1.284 . S
O1312 Gd1260 2.324 1_655 S
O1312 C1335 1.254 . S
O1313 Gd1261 2.429 . S
O1313 C1335 1.268 1_455 S
O1314 Gd1261 2.545 . S
O1314 C1327 1.250 . S
O1315 Gd1261 2.412 . S
O1315 C1328 1.252 . S
C1316 O1305 1.274 1_655 S
C1316 O1308 1.250 . S
C1317 H1286 0.929 . S
C1317 C1302 1.437 . S
C1317 C1318 1.317 1_565 S
C1318 H1289 0.930 . S
C1318 C1294 1.431 . S
C1318 C1317 1.317 1_545 S
C1319 Gd1260 2.828 1_655 S
C1319 O1304 1.258 . S
C1319 O1309 1.252 . S
C1319 C1320 1.497 . S
C1320 C1319 1.497 . S
C1320 C1321 1.395 1_545 S
C1320 C1322 1.380 . S
C1321 C1320 1.395 1_565 S
C1321 C1324 1.398 . S
C1321 H1336 0.930 . S
C1322 C1320 1.380 . S
C1322 C1323 1.391 1_545 S
C1322 H1337 0.930 . S
C1323 C1322 1.391 1_565 S
C1323 C1325 1.387 . S
C1324 C1321 1.398 . S
C1324 C1325 1.380 . S
C1324 H1338 0.930 . S
C1325 C1323 1.387 . S
C1325 C1324 1.380 . S
C1325 H1339 0.930 . S
C1326 O1306 1.254 . S
C1326 O1307 1.268 . S
C1327 O1311 1.284 . S
C1327 O1314 1.250 . S
C1328 Gd1261 2.828 . S
C1328 O1310 1.258 . S
C1328 O1315 1.252 . S
C1328 C1329 1.497 . S
C1329 C1328 1.497 . S
C1329 C1330 1.395 . S
C1329 C1331 1.380 . S
C1330 C1329 1.395 . S
C1330 C1333 1.398 . S
C1330 H1340 0.930 . S
C1331 C1329 1.380 . S
C1331 C1332 1.391 . S
C1331 H1341 0.930 . S
C1332 C1331 1.391 . S
C1332 C1334 1.387 . S
C1333 C1330 1.398 . S
C1333 C1334 1.380 . S
C1333 H1342 0.930 . S
C1334 C1332 1.387 . S
C1334 C1333 1.380 . S
C1334 H1343 0.930 . S
C1335 O1312 1.254 . S
C1335 O1313 1.268 1_655 S
H1336 C1321 0.930 . S
H1337 C1322 0.930 . S
H1338 C1324 0.930 . S
H1339 C1325 0.930 . S
H1340 C1330 0.930 . S
H1341 C1331 0.930 . S
H1342 C1333 0.930 . S
H1343 C1334 0.930 . S
Gd1344 N1375 2.661 . S
Gd1344 N1381 2.601 . S
Gd1344 O1388 2.545 1_565 S
Gd1344 O1389 2.609 . S
Gd1344 O1391 2.429 . S
Gd1344 O1392 2.545 1_565 S
Gd1344 O1393 2.412 1_565 S
Gd1344 O1395 2.362 . S
Gd1344 O1396 2.324 1_565 S
Gd1344 C1403 2.828 1_565 S
Gd1345 N1354 2.661 . S
Gd1345 N1358 2.601 . S
Gd1345 O1389 2.372 . S
Gd1345 O1390 2.324 . S
Gd1345 O1394 2.545 . S
Gd1345 O1395 2.606 . S
Gd1345 O1397 2.429 . S
Gd1345 O1398 2.545 . S
Gd1345 O1399 2.412 . S
Gd1345 C1412 2.828 . S
C1346 C1349 1.417 1_545 S
C1346 C1351 1.431 . S
C1346 C1352 1.412 1_545 S
C1347 C1350 1.437 . S
C1347 C1351 1.317 . S
C1347 H1366 0.929 . S
C1348 C1349 1.426 1_545 S
C1348 C1350 1.413 . S
C1348 N1358 1.359 1_545 S
C1349 C1346 1.417 1_565 S
C1349 C1348 1.426 1_565 S
C1349 N1354 1.350 . S
C1350 C1347 1.437 . S
C1350 C1348 1.413 . S
C1350 C1360 1.391 . S
C1351 C1346 1.431 . S
C1351 C1347 1.317 . S
C1351 H1362 0.930 . S
C1352 C1346 1.412 1_565 S
C1352 C1353 1.355 . S
C1352 H1364 0.930 1_565 S
C1353 C1352 1.355 . S
C1353 C1355 1.402 . S
C1353 H1365 0.930 . S
N1354 Gd1345 2.661 . S
N1354 C1349 1.350 . S
N1354 C1355 1.307 . S
C1355 C1353 1.402 . S
C1355 N1354 1.307 . S
C1355 H1356 0.930 . S
H1356 C1355 0.930 . S
C1357 N1358 1.331 1_545 S
C1357 C1359 1.401 . S
C1357 H1361 0.926 1_545 S
N1358 Gd1345 2.601 . S
N1358 C1348 1.359 1_565 S
N1358 C1357 1.331 1_565 S
C1359 C1357 1.401 . S
C1359 C1360 1.359 . S
C1359 H1371 0.930 . S
C1360 C1350 1.391 . S
C1360 C1359 1.359 . S
C1360 H1372 0.929 . S
H1361 C1357 0.926 1_565 S
H1362 C1351 0.930 . S
H1363 C1380 0.930 . S
H1364 C1352 0.930 1_545 S
H1365 C1353 0.930 . S
H1366 C1347 0.929 . S
H1367 C1385 0.930 . S
H1368 C1376 0.930 . S
H1369 C1377 0.930 . S
H1370 C1401 0.929 . S
H1371 C1359 0.930 . S
H1372 C1360 0.929 . S
H1373 C1402 0.930 . S
H1374 C1383 0.930 . S
N1375 Gd1344 2.661 . S
N1375 C1379 1.350 . S
N1375 C1380 1.307 . S
C1376 H1368 0.930 . S
C1376 C1377 1.355 . S
C1376 C1378 1.412 . S
C1377 H1369 0.930 . S
C1377 C1376 1.355 . S
C1377 C1380 1.402 . S
C1378 C1376 1.412 . S
C1378 C1379 1.417 . S
C1378 C1402 1.431 . S
C1379 N1375 1.350 . S
C1379 C1378 1.417 . S
C1379 C1382 1.426 . S
C1380 H1363 0.930 . S
C1380 N1375 1.307 . S
C1380 C1377 1.402 . S
N1381 Gd1344 2.601 . S
N1381 C1382 1.359 . S
N1381 C1385 1.334 . S
C1382 C1379 1.426 . S
C1382 N1381 1.359 . S
C1382 C1386 1.413 . S
C1383 H1374 0.930 . S
C1383 C1384 1.359 . S
C1383 C1385 1.394 . S
C1384 C1383 1.359 . S
C1384 C1386 1.391 . S
C1384 H1387 0.929 . S
C1385 H1367 0.930 . S
C1385 N1381 1.334 . S
C1385 C1383 1.394 . S
C1386 C1382 1.413 . S
C1386 C1384 1.391 . S
C1386 C1401 1.437 . S
H1387 C1384 0.929 . S
O1388 Gd1344 2.545 1_545 S
O1388 C1403 1.258 . S
O1389 Gd1344 2.609 . S
O1389 Gd1345 2.372 . S
O1389 C1400 1.274 1_565 S
O1390 Gd1345 2.324 . S
O1390 C1410 1.254 . S
O1391 Gd1344 2.429 . S
O1391 C1410 1.268 . S
O1392 Gd1344 2.545 1_545 S
O1392 C1400 1.250 . S
O1393 Gd1344 2.412 1_545 S
O1393 C1403 1.252 . S
O1394 Gd1345 2.545 . S
O1394 C1412 1.258 . S
O1395 Gd1344 2.362 . S
O1395 Gd1345 2.606 . S
O1395 C1411 1.284 . S
O1396 Gd1344 2.324 1_545 S
O1396 C1419 1.254 . S
O1397 Gd1345 2.429 . S
O1397 C1419 1.268 1_565 S
O1398 Gd1345 2.545 . S
O1398 C1411 1.250 . S
O1399 Gd1345 2.412 . S
O1399 C1412 1.252 . S
C1400 O1389 1.274 1_545 S
C1400 O1392 1.250 . S
C1401 H1370 0.929 . S
C1401 C1386 1.437 . S
C1401 C1402 1.317 . S
C1402 H1373 0.930 . S
C1402 C1378 1.431 . S
C1402 C1401 1.317 . S
C1403 Gd1344 2.828 1_545 S
C1403 O1388 1.258 . S
C1403 O1393 1.252 . S
C1403 C1404 1.497 . S
C1404 C1403 1.497 . S
C1404 C1405 1.395 . S
C1404 C1406 1.380 . S
C1405 C1404 1.395 . S
C1405 C1408 1.398 . S
C1405 H1420 0.930 . S
C1406 C1404 1.380 . S
C1406 C1407 1.391 . S
C1406 H1421 0.930 . S
C1407 C1406 1.391 . S
C1407 C1409 1.387 . S
C1408 C1405 1.398 . S
C1408 C1409 1.380 . S
C1408 H1422 0.930 . S
C1409 C1407 1.387 . S
C1409 C1408 1.380 . S
C1409 H1423 0.930 . S
C1410 O1390 1.254 . S
C1410 O1391 1.268 . S
C1411 O1395 1.284 . S
C1411 O1398 1.250 . S
C1412 Gd1345 2.828 . S
C1412 O1394 1.258 . S
C1412 O1399 1.252 . S
C1412 C1413 1.497 . S
C1413 C1412 1.497 . S
C1413 C1414 1.395 . S
C1413 C1415 1.380 . S
C1414 C1413 1.395 . S
C1414 C1417 1.398 . S
C1414 H1424 0.930 . S
C1415 C1413 1.380 . S
C1415 C1416 1.391 . S
C1415 H1425 0.930 . S
C1416 C1415 1.391 . S
C1416 C1418 1.387 . S
C1417 C1414 1.398 . S
C1417 C1418 1.380 . S
C1417 H1426 0.930 . S
C1418 C1416 1.387 . S
C1418 C1417 1.380 . S
C1418 H1427 0.930 . S
C1419 O1396 1.254 . S
C1419 O1397 1.268 1_545 S
H1420 C1405 0.930 . S
H1421 C1406 0.930 . S
H1422 C1408 0.930 . S
H1423 C1409 0.930 . S
H1424 C1414 0.930 . S
H1425 C1415 0.930 . S
H1426 C1417 0.930 . S
H1427 C1418 0.930 . S
Gd1428 N1459 2.661 . S
Gd1428 N1465 2.601 . S
Gd1428 O1472 2.545 1_545 S
Gd1428 O1473 2.609 . S
Gd1428 O1475 2.429 . S
Gd1428 O1476 2.545 1_545 S
Gd1428 O1477 2.412 1_545 S
Gd1428 O1479 2.362 . S
Gd1428 O1480 2.324 1_545 S
Gd1428 C1487 2.828 1_545 S
Gd1429 N1438 2.661 . S
Gd1429 N1442 2.601 . S
Gd1429 O1473 2.372 . S
Gd1429 O1474 2.324 . S
Gd1429 O1478 2.545 . S
Gd1429 O1479 2.606 . S
Gd1429 O1481 2.429 . S
Gd1429 O1482 2.545 . S
Gd1429 O1483 2.412 . S
Gd1429 C1496 2.828 . S
C1430 C1433 1.417 1_565 S
C1430 C1435 1.431 . S
C1430 C1436 1.412 1_565 S
C1431 C1434 1.437 . S
C1431 C1435 1.317 . S
C1431 H1450 0.929 . S
C1432 C1433 1.426 1_565 S
C1432 C1434 1.413 . S
C1432 N1442 1.359 1_565 S
C1433 C1430 1.417 1_545 S
C1433 C1432 1.426 1_545 S
C1433 N1438 1.350 . S
C1434 C1431 1.437 . S
C1434 C1432 1.413 . S
C1434 C1444 1.391 . S
C1435 C1430 1.431 . S
C1435 C1431 1.317 . S
C1435 H1446 0.930 . S
C1436 C1430 1.412 1_545 S
C1436 C1437 1.355 . S
C1436 H1448 0.930 1_645 S
C1437 C1436 1.355 . S
C1437 C1439 1.402 . S
C1437 H1449 0.930 . S
N1438 Gd1429 2.661 . S
N1438 C1433 1.350 . S
N1438 C1439 1.307 . S
C1439 C1437 1.402 . S
C1439 N1438 1.307 . S
C1439 H1440 0.930 . S
H1440 C1439 0.930 . S
C1441 N1442 1.331 1_565 S
C1441 C1443 1.401 . S
C1441 H1445 0.926 1_565 S
N1442 Gd1429 2.601 . S
N1442 C1432 1.359 1_545 S
N1442 C1441 1.331 1_545 S
C1443 C1441 1.401 . S
C1443 C1444 1.359 . S
C1443 H1455 0.930 . S
C1444 C1434 1.391 . S
C1444 C1443 1.359 . S
C1444 H1456 0.929 . S
H1445 C1441 0.926 1_545 S
H1446 C1435 0.930 . S
H1447 C1464 0.930 . S
H1448 C1436 0.930 1_465 S
H1449 C1437 0.930 . S
H1450 C1431 0.929 . S
H1451 C1469 0.930 . S
H1452 C1460 0.930 . S
H1453 C1461 0.930 . S
H1454 C1485 0.929 . S
H1455 C1443 0.930 . S
H1456 C1444 0.929 . S
H1457 C1486 0.930 . S
H1458 C1467 0.930 . S
N1459 Gd1428 2.661 . S
N1459 C1463 1.350 . S
N1459 C1464 1.307 . S
C1460 H1452 0.930 . S
C1460 C1461 1.355 . S
C1460 C1462 1.412 . S
C1461 H1453 0.930 . S
C1461 C1460 1.355 . S
C1461 C1464 1.402 . S
C1462 C1460 1.412 . S
C1462 C1463 1.417 . S
C1462 C1486 1.431 . S
C1463 N1459 1.350 . S
C1463 C1462 1.417 . S
C1463 C1466 1.426 . S
C1464 H1447 0.930 . S
C1464 N1459 1.307 . S
C1464 C1461 1.402 . S
N1465 Gd1428 2.601 . S
N1465 C1466 1.359 . S
N1465 C1469 1.334 . S
C1466 C1463 1.426 . S
C1466 N1465 1.359 . S
C1466 C1470 1.413 1_554 S
C1467 H1458 0.930 . S
C1467 C1468 1.359 . S
C1467 C1469 1.394 1_556 S
C1468 C1467 1.359 . S
C1468 C1470 1.391 . S
C1468 H1471 0.929 . S
C1469 H1451 0.930 . S
C1469 N1465 1.334 . S
C1469 C1467 1.394 1_554 S
C1470 C1466 1.413 1_556 S
C1470 C1468 1.391 . S
C1470 C1485 1.437 . S
H1471 C1468 0.929 . S
O1472 Gd1428 2.545 1_565 S
O1472 C1487 1.258 . S
O1473 Gd1428 2.609 . S
O1473 Gd1429 2.372 . S
O1473 C1484 1.274 1_545 S
O1474 Gd1429 2.324 . S
O1474 C1494 1.254 . S
O1475 Gd1428 2.429 . S
O1475 C1494 1.268 . S
O1476 Gd1428 2.545 1_565 S
O1476 C1484 1.250 . S
O1477 Gd1428 2.412 1_565 S
O1477 C1487 1.252 . S
O1478 Gd1429 2.545 . S
O1478 C1496 1.258 . S
O1479 Gd1428 2.362 . S
O1479 Gd1429 2.606 . S
O1479 C1495 1.284 . S
O1480 Gd1428 2.324 1_565 S
O1480 C1503 1.254 . S
O1481 Gd1429 2.429 . S
O1481 C1503 1.268 1_545 S
O1482 Gd1429 2.545 . S
O1482 C1495 1.250 . S
O1483 Gd1429 2.412 . S
O1483 C1496 1.252 . S
C1484 O1473 1.274 1_565 S
C1484 O1476 1.250 . S
C1485 H1454 0.929 . S
C1485 C1470 1.437 . S
C1485 C1486 1.317 1_556 S
C1486 H1457 0.930 . S
C1486 C1462 1.431 . S
C1486 C1485 1.317 1_554 S
C1487 Gd1428 2.828 1_565 S
C1487 O1472 1.258 . S
C1487 O1477 1.252 . S
C1487 C1488 1.497 . S
C1488 C1487 1.497 . S
C1488 C1489 1.395 1_554 S
C1488 C1490 1.380 . S
C1489 C1488 1.395 1_556 S
C1489 C1492 1.398 . S
C1489 H1504 0.930 . S
C1490 C1488 1.380 . S
C1490 C1491 1.391 1_554 S
C1490 H1505 0.930 . S
C1491 C1490 1.391 1_556 S
C1491 C1493 1.387 . S
C1492 C1489 1.398 . S
C1492 C1493 1.380 . S
C1492 H1506 0.930 . S
C1493 C1491 1.387 . S
C1493 C1492 1.380 . S
C1493 H1507 0.930 . S
C1494 O1474 1.254 . S
C1494 O1475 1.268 . S
C1495 O1479 1.284 . S
C1495 O1482 1.250 . S
C1496 Gd1429 2.828 . S
C1496 O1478 1.258 . S
C1496 O1483 1.252 . S
C1496 C1497 1.497 . S
C1497 C1496 1.497 . S
C1497 C1498 1.395 . S
C1497 C1499 1.380 . S
C1498 C1497 1.395 . S
C1498 C1501 1.398 . S
C1498 H1508 0.930 . S
C1499 C1497 1.380 . S
C1499 C1500 1.391 . S
C1499 H1509 0.930 . S
C1500 C1499 1.391 . S
C1500 C1502 1.387 . S
C1501 C1498 1.398 . S
C1501 C1502 1.380 . S
C1501 H1510 0.930 . S
C1502 C1500 1.387 . S
C1502 C1501 1.380 . S
C1502 H1511 0.930 . S
C1503 O1480 1.254 . S
C1503 O1481 1.268 1_565 S
H1504 C1489 0.930 . S
H1505 C1490 0.930 . S
H1506 C1492 0.930 . S
H1507 C1493 0.930 . S
H1508 C1498 0.930 . S
H1509 C1499 0.930 . S
H1510 C1501 0.930 . S
H1511 C1502 0.930 . S
Gd1512 N1543 2.661 . S
Gd1512 N1549 2.601 . S
Gd1512 O1556 2.545 . S
Gd1512 O1557 2.606 . S
Gd1512 O1559 2.429 . S
Gd1512 O1560 2.545 . S
Gd1512 O1561 2.412 . S
Gd1512 O1563 2.362 . S
Gd1512 O1564 2.324 . S
Gd1512 C1571 2.828 . S
Gd1513 N1522 2.661 . S
Gd1513 N1526 2.601 . S
Gd1513 O1557 2.362 . S
Gd1513 O1558 2.324 . S
Gd1513 O1562 2.545 . S
Gd1513 O1563 2.606 . S
Gd1513 O1565 2.429 . S
Gd1513 O1566 2.545 . S
Gd1513 O1567 2.412 . S
Gd1513 C1580 2.828 . S
C1514 C1517 1.417 . S
C1514 C1519 1.431 . S
C1514 C1520 1.412 . S
C1515 C1518 1.437 . S
C1515 C1519 1.317 . S
C1515 H1534 0.929 . S
C1516 C1517 1.426 . S
C1516 C1518 1.413 . S
C1516 N1526 1.359 . S
C1517 C1514 1.417 . S
C1517 C1516 1.426 . S
C1517 N1522 1.350 . S
C1518 C1515 1.437 . S
C1518 C1516 1.413 . S
C1518 C1528 1.391 . S
C1519 C1514 1.431 . S
C1519 C1515 1.317 . S
C1519 H1530 0.930 . S
C1520 C1514 1.412 . S
C1520 C1521 1.355 . S
C1520 H1532 0.930 1_455 S
C1521 C1520 1.355 . S
C1521 C1523 1.402 . S
C1521 H1533 0.930 . S
N1522 Gd1513 2.661 . S
N1522 C1517 1.350 . S
N1522 C1523 1.307 . S
C1523 C1521 1.402 . S
C1523 N1522 1.307 . S
C1523 H1524 0.930 . S
H1524 C1523 0.930 . S
C1525 N1526 1.334 . S
C1525 C1527 1.394 . S
C1525 H1529 0.930 . S
N1526 Gd1513 2.601 . S
N1526 C1516 1.359 . S
N1526 C1525 1.334 . S
C1527 C1525 1.394 . S
C1527 C1528 1.359 . S
C1527 H1539 0.930 . S
C1528 C1518 1.391 . S
C1528 C1527 1.359 . S
C1528 H1540 0.929 . S
H1529 C1525 0.930 . S
H1530 C1519 0.930 . S
H1531 C1548 0.930 . S
H1532 C1520 0.930 1_655 S
H1533 C1521 0.930 . S
H1534 C1515 0.929 . S
H1535 C1553 0.930 . S
H1536 C1544 0.930 . S
H1537 C1545 0.930 . S
H1538 C1569 0.929 . S
H1539 C1527 0.930 . S
H1540 C1528 0.929 . S
H1541 C1570 0.930 . S
H1542 C1551 0.930 . S
N1543 Gd1512 2.661 . S
N1543 C1547 1.350 . S
N1543 C1548 1.307 . S
C1544 H1536 0.930 . S
C1544 C1545 1.355 . S
C1544 C1546 1.412 . S
C1545 H1537 0.930 . S
C1545 C1544 1.355 . S
C1545 C1548 1.402 . S
C1546 C1544 1.412 . S
C1546 C1547 1.417 . S
C1546 C1570 1.431 . S
C1547 N1543 1.350 . S
C1547 C1546 1.417 . S
C1547 C1550 1.426 . S
C1548 H1531 0.930 . S
C1548 N1543 1.307 . S
C1548 C1545 1.402 . S
N1549 Gd1512 2.601 . S
N1549 C1550 1.359 . S
N1549 C1553 1.334 . S
C1550 C1547 1.426 . S
C1550 N1549 1.359 . S
C1550 C1554 1.413 . S
C1551 H1542 0.930 . S
C1551 C1552 1.359 . S
C1551 C1553 1.394 . S
C1552 C1551 1.359 . S
C1552 C1554 1.391 . S
C1552 H1555 0.929 . S
C1553 H1535 0.930 . S
C1553 N1549 1.334 . S
C1553 C1551 1.394 . S
C1554 C1550 1.413 . S
C1554 C1552 1.391 . S
C1554 C1569 1.437 . S
H1555 C1552 0.929 . S
O1556 Gd1512 2.545 . S
O1556 C1571 1.258 . S
O1557 Gd1512 2.606 . S
O1557 Gd1513 2.362 . S
O1557 C1568 1.284 . S
O1558 Gd1513 2.324 . S
O1558 C1578 1.254 . S
O1559 Gd1512 2.429 . S
O1559 C1578 1.268 . S
O1560 Gd1512 2.545 . S
O1560 C1568 1.250 . S
O1561 Gd1512 2.412 . S
O1561 C1571 1.252 . S
O1562 Gd1513 2.545 . S
O1562 C1580 1.258 . S
O1563 Gd1512 2.362 . S
O1563 Gd1513 2.606 . S
O1563 C1579 1.284 . S
O1564 Gd1512 2.324 . S
O1564 C1587 1.254 . S
O1565 Gd1513 2.429 . S
O1565 C1587 1.268 . S
O1566 Gd1513 2.545 . S
O1566 C1579 1.250 . S
O1567 Gd1513 2.412 . S
O1567 C1580 1.252 . S
C1568 O1557 1.284 . S
C1568 O1560 1.250 . S
C1569 H1538 0.929 . S
C1569 C1554 1.437 . S
C1569 C1570 1.317 . S
C1570 H1541 0.930 . S
C1570 C1546 1.431 . S
C1570 C1569 1.317 . S
C1571 Gd1512 2.828 . S
C1571 O1556 1.258 . S
C1571 O1561 1.252 . S
C1571 C1572 1.497 . S
C1572 C1571 1.497 . S
C1572 C1573 1.395 . S
C1572 C1574 1.380 . S
C1573 C1572 1.395 . S
C1573 C1576 1.398 . S
C1573 H1588 0.930 . S
C1574 C1572 1.380 . S
C1574 C1575 1.391 . S
C1574 H1589 0.930 . S
C1575 C1574 1.391 . S
C1575 C1577 1.387 . S
C1576 C1573 1.398 . S
C1576 C1577 1.380 . S
C1576 H1590 0.930 . S
C1577 C1575 1.387 . S
C1577 C1576 1.380 . S
C1577 H1591 0.930 . S
C1578 O1558 1.254 . S
C1578 O1559 1.268 . S
C1579 O1563 1.284 . S
C1579 O1566 1.250 . S
C1580 Gd1513 2.828 . S
C1580 O1562 1.258 . S
C1580 O1567 1.252 . S
C1580 C1581 1.497 . S
C1581 C1580 1.497 . S
C1581 C1582 1.395 . S
C1581 C1583 1.380 . S
C1582 C1581 1.395 . S
C1582 C1585 1.398 . S
C1582 H1592 0.930 . S
C1583 C1581 1.380 . S
C1583 C1584 1.391 . S
C1583 H1593 0.930 . S
C1584 C1583 1.391 . S
C1584 C1586 1.387 . S
C1585 C1582 1.398 . S
C1585 C1586 1.380 . S
C1585 H1594 0.930 . S
C1586 C1584 1.387 . S
C1586 C1585 1.380 . S
C1586 H1595 0.930 . S
C1587 O1564 1.254 . S
C1587 O1565 1.268 . S
H1588 C1573 0.930 . S
H1589 C1574 0.930 . S
H1590 C1576 0.930 . S
H1591 C1577 0.930 . S
H1592 C1582 0.930 . S
H1593 C1583 0.930 . S
H1594 C1585 0.930 . S
H1595 C1586 0.930 . S
Gd1596 N1627 2.661 . S
Gd1596 N1633 2.601 . S
Gd1596 O1640 2.545 . S
Gd1596 O1641 2.606 . S
Gd1596 O1643 2.429 . S
Gd1596 O1644 2.545 . S
Gd1596 O1645 2.412 . S
Gd1596 O1647 2.362 . S
Gd1596 O1648 2.324 . S
Gd1596 C1655 2.828 . S
Gd1597 N1606 2.661 . S
Gd1597 N1610 2.601 . S
Gd1597 O1641 2.362 . S
Gd1597 O1642 2.324 . S
Gd1597 O1646 2.545 . S
Gd1597 O1647 2.606 . S
Gd1597 O1649 2.429 . S
Gd1597 O1650 2.545 . S
Gd1597 O1651 2.412 . S
Gd1597 C1664 2.828 . S
C1598 C1601 1.417 . S
C1598 C1603 1.431 . S
C1598 C1604 1.412 . S
C1599 C1602 1.437 . S
C1599 C1603 1.317 . S
C1599 H1618 0.929 . S
C1600 C1601 1.426 . S
C1600 C1602 1.413 . S
C1600 N1610 1.359 . S
C1601 C1598 1.417 . S
C1601 C1600 1.426 . S
C1601 N1606 1.350 . S
C1602 C1599 1.437 . S
C1602 C1600 1.413 . S
C1602 C1612 1.391 . S
C1603 C1598 1.431 . S
C1603 C1599 1.317 . S
C1603 H1614 0.930 . S
C1604 C1598 1.412 . S
C1604 C1605 1.355 . S
C1604 H1616 0.930 . S
C1605 C1604 1.355 . S
C1605 C1607 1.402 . S
C1605 H1617 0.930 . S
N1606 Gd1597 2.661 . S
N1606 C1601 1.350 . S
N1606 C1607 1.307 . S
C1607 C1605 1.402 . S
C1607 N1606 1.307 . S
C1607 H1608 0.930 . S
H1608 C1607 0.930 . S
C1609 N1610 1.334 . S
C1609 C1611 1.394 . S
C1609 H1613 0.930 . S
N1610 Gd1597 2.601 . S
N1610 C1600 1.359 . S
N1610 C1609 1.334 . S
C1611 C1609 1.394 . S
C1611 C1612 1.359 . S
C1611 H1623 0.930 . S
C1612 C1602 1.391 . S
C1612 C1611 1.359 . S
C1612 H1624 0.929 . S
H1613 C1609 0.930 . S
H1614 C1603 0.930 . S
H1615 C1632 0.930 . S
H1616 C1604 0.930 . S
H1617 C1605 0.930 . S
H1618 C1599 0.929 . S
H1619 C1637 0.930 . S
H1620 C1628 0.930 . S
H1621 C1629 0.930 . S
H1622 C1653 0.929 . S
H1623 C1611 0.930 . S
H1624 C1612 0.929 . S
H1625 C1654 0.930 . S
H1626 C1635 0.930 . S
N1627 Gd1596 2.661 . S
N1627 C1631 1.350 . S
N1627 C1632 1.307 . S
C1628 H1620 0.930 . S
C1628 C1629 1.355 . S
C1628 C1630 1.412 . S
C1629 H1621 0.930 . S
C1629 C1628 1.355 . S
C1629 C1632 1.402 . S
C1630 C1628 1.412 . S
C1630 C1631 1.417 . S
C1630 C1654 1.431 . S
C1631 N1627 1.350 . S
C1631 C1630 1.417 . S
C1631 C1634 1.426 . S
C1632 H1615 0.930 . S
C1632 N1627 1.307 . S
C1632 C1629 1.402 . S
N1633 Gd1596 2.601 . S
N1633 C1634 1.359 . S
N1633 C1637 1.334 . S
C1634 C1631 1.426 . S
C1634 N1633 1.359 . S
C1634 C1638 1.413 1_556 S
C1635 H1626 0.930 . S
C1635 C1636 1.359 . S
C1635 C1637 1.394 1_554 S
C1636 C1635 1.359 . S
C1636 C1638 1.391 . S
C1636 H1639 0.929 . S
C1637 H1619 0.930 . S
C1637 N1633 1.334 . S
C1637 C1635 1.394 1_556 S
C1638 C1634 1.413 1_554 S
C1638 C1636 1.391 . S
C1638 C1653 1.437 . S
H1639 C1636 0.929 . S
O1640 Gd1596 2.545 . S
O1640 C1655 1.258 . S
O1641 Gd1596 2.606 . S
O1641 Gd1597 2.362 . S
O1641 C1652 1.284 . S
O1642 Gd1597 2.324 . S
O1642 C1662 1.254 . S
O1643 Gd1596 2.429 . S
O1643 C1662 1.268 . S
O1644 Gd1596 2.545 . S
O1644 C1652 1.250 . S
O1645 Gd1596 2.412 . S
O1645 C1655 1.252 . S
O1646 Gd1597 2.545 . S
O1646 C1664 1.258 . S
O1647 Gd1596 2.362 . S
O1647 Gd1597 2.606 . S
O1647 C1663 1.284 . S
O1648 Gd1596 2.324 . S
O1648 C1671 1.254 . S
O1649 Gd1597 2.429 . S
O1649 C1671 1.268 . S
O1650 Gd1597 2.545 . S
O1650 C1663 1.250 . S
O1651 Gd1597 2.412 . S
O1651 C1664 1.252 . S
C1652 O1641 1.284 . S
C1652 O1644 1.250 . S
C1653 H1622 0.929 . S
C1653 C1638 1.437 . S
C1653 C1654 1.317 1_554 S
C1654 H1625 0.930 . S
C1654 C1630 1.431 . S
C1654 C1653 1.317 1_556 S
C1655 Gd1596 2.828 . S
C1655 O1640 1.258 . S
C1655 O1645 1.252 . S
C1655 C1656 1.497 . S
C1656 C1655 1.497 . S
C1656 C1657 1.395 1_556 S
C1656 C1658 1.380 . S
C1657 C1656 1.395 1_554 S
C1657 C1660 1.398 . S
C1657 H1672 0.930 . S
C1658 C1656 1.380 . S
C1658 C1659 1.391 1_556 S
C1658 H1673 0.930 . S
C1659 C1658 1.391 1_554 S
C1659 C1661 1.387 . S
C1660 C1657 1.398 . S
C1660 C1661 1.380 . S
C1660 H1674 0.930 . S
C1661 C1659 1.387 . S
C1661 C1660 1.380 . S
C1661 H1675 0.930 . S
C1662 O1642 1.254 . S
C1662 O1643 1.268 . S
C1663 O1647 1.284 . S
C1663 O1650 1.250 . S
C1664 Gd1597 2.828 . S
C1664 O1646 1.258 . S
C1664 O1651 1.252 . S
C1664 C1665 1.497 . S
C1665 C1664 1.497 . S
C1665 C1666 1.395 . S
C1665 C1667 1.380 . S
C1666 C1665 1.395 . S
C1666 C1669 1.398 . S
C1666 H1676 0.930 . S
C1667 C1665 1.380 . S
C1667 C1668 1.391 . S
C1667 H1677 0.930 . S
C1668 C1667 1.391 . S
C1668 C1670 1.387 . S
C1669 C1666 1.398 . S
C1669 C1670 1.380 . S
C1669 H1678 0.930 . S
C1670 C1668 1.387 . S
C1670 C1669 1.380 . S
C1670 H1679 0.930 . S
C1671 O1648 1.254 . S
C1671 O1649 1.268 . S
H1672 C1657 0.930 . S
H1673 C1658 0.930 . S
H1674 C1660 0.930 . S
H1675 C1661 0.930 . S
H1676 C1666 0.930 . S
H1677 C1667 0.930 . S
H1678 C1669 0.930 . S
H1679 C1670 0.930 . S
Gd1680 N1711 2.661 . S
Gd1680 N1717 2.601 . S
Gd1680 O1724 2.545 1_556 S
Gd1680 O1725 2.609 . S
Gd1680 O1727 2.429 . S
Gd1680 O1728 2.545 1_556 S
Gd1680 O1729 2.412 1_556 S
Gd1680 O1731 2.362 . S
Gd1680 O1732 2.324 1_556 S
Gd1680 C1739 2.828 1_556 S
Gd1681 N1690 2.661 . S
Gd1681 N1694 2.601 . S
Gd1681 O1725 2.372 . S
Gd1681 O1726 2.324 . S
Gd1681 O1730 2.545 . S
Gd1681 O1731 2.606 . S
Gd1681 O1733 2.429 . S
Gd1681 O1734 2.545 . S
Gd1681 O1735 2.412 . S
Gd1681 C1748 2.828 . S
C1682 C1685 1.417 1_554 S
C1682 C1687 1.431 . S
C1682 C1688 1.412 1_554 S
C1683 C1686 1.437 . S
C1683 C1687 1.317 . S
C1683 H1702 0.929 . S
C1684 C1685 1.426 1_554 S
C1684 C1686 1.413 . S
C1684 N1694 1.359 1_554 S
C1685 C1682 1.417 1_556 S
C1685 C1684 1.426 1_556 S
C1685 N1690 1.350 . S
C1686 C1683 1.437 . S
C1686 C1684 1.413 . S
C1686 C1696 1.391 . S
C1687 C1682 1.431 . S
C1687 C1683 1.317 . S
C1687 H1698 0.930 . S
C1688 C1682 1.412 1_556 S
C1688 C1689 1.355 . S
C1688 H1700 0.930 1_556 S
C1689 C1688 1.355 . S
C1689 C1691 1.402 . S
C1689 H1701 0.930 . S
N1690 Gd1681 2.661 . S
N1690 C1685 1.350 . S
N1690 C1691 1.307 . S
C1691 C1689 1.402 . S
C1691 N1690 1.307 . S
C1691 H1692 0.930 . S
H1692 C1691 0.930 . S
C1693 N1694 1.331 1_554 S
C1693 C1695 1.401 . S
C1693 H1697 0.926 1_554 S
N1694 Gd1681 2.601 . S
N1694 C1684 1.359 1_556 S
N1694 C1693 1.331 1_556 S
C1695 C1693 1.401 . S
C1695 C1696 1.359 . S
C1695 H1707 0.930 . S
C1696 C1686 1.391 . S
C1696 C1695 1.359 . S
C1696 H1708 0.929 . S
H1697 C1693 0.926 1_556 S
H1698 C1687 0.930 . S
H1699 C1716 0.930 . S
H1700 C1688 0.930 1_554 S
H1701 C1689 0.930 . S
H1702 C1683 0.929 . S
H1703 C1721 0.930 . S
H1704 C1712 0.930 . S
H1705 C1713 0.930 . S
H1706 C1737 0.929 . S
H1707 C1695 0.930 . S
H1708 C1696 0.929 . S
H1709 C1738 0.930 . S
H1710 C1719 0.930 . S
N1711 Gd1680 2.661 . S
N1711 C1715 1.350 . S
N1711 C1716 1.307 . S
C1712 H1704 0.930 . S
C1712 C1713 1.355 . S
C1712 C1714 1.412 . S
C1713 H1705 0.930 . S
C1713 C1712 1.355 . S
C1713 C1716 1.402 . S
C1714 C1712 1.412 . S
C1714 C1715 1.417 . S
C1714 C1738 1.431 . S
C1715 N1711 1.350 . S
C1715 C1714 1.417 . S
C1715 C1718 1.426 . S
C1716 H1699 0.930 . S
C1716 N1711 1.307 . S
C1716 C1713 1.402 . S
N1717 Gd1680 2.601 . S
N1717 C1718 1.359 . S
N1717 C1721 1.334 . S
C1718 C1715 1.426 . S
C1718 N1717 1.359 . S
C1718 C1722 1.413 . S
C1719 H1710 0.930 . S
C1719 C1720 1.359 . S
C1719 C1721 1.394 . S
C1720 C1719 1.359 . S
C1720 C1722 1.391 . S
C1720 H1723 0.929 . S
C1721 H1703 0.930 . S
C1721 N1717 1.334 . S
C1721 C1719 1.394 . S
C1722 C1718 1.413 . S
C1722 C1720 1.391 . S
C1722 C1737 1.437 . S
H1723 C1720 0.929 . S
O1724 Gd1680 2.545 1_554 S
O1724 C1739 1.258 . S
O1725 Gd1680 2.609 . S
O1725 Gd1681 2.372 . S
O1725 C1736 1.274 1_556 S
O1726 Gd1681 2.324 . S
O1726 C1746 1.254 . S
O1727 Gd1680 2.429 . S
O1727 C1746 1.268 . S
O1728 Gd1680 2.545 1_554 S
O1728 C1736 1.250 . S
O1729 Gd1680 2.412 1_554 S
O1729 C1739 1.252 . S
O1730 Gd1681 2.545 . S
O1730 C1748 1.258 . S
O1731 Gd1680 2.362 . S
O1731 Gd1681 2.606 . S
O1731 C1747 1.284 . S
O1732 Gd1680 2.324 1_554 S
O1732 C1755 1.254 . S
O1733 Gd1681 2.429 . S
O1733 C1755 1.268 1_556 S
O1734 Gd1681 2.545 . S
O1734 C1747 1.250 . S
O1735 Gd1681 2.412 . S
O1735 C1748 1.252 . S
C1736 O1725 1.274 1_554 S
C1736 O1728 1.250 . S
C1737 H1706 0.929 . S
C1737 C1722 1.437 . S
C1737 C1738 1.317 . S
C1738 H1709 0.930 . S
C1738 C1714 1.431 . S
C1738 C1737 1.317 . S
C1739 Gd1680 2.828 1_554 S
C1739 O1724 1.258 . S
C1739 O1729 1.252 . S
C1739 C1740 1.497 . S
C1740 C1739 1.497 . S
C1740 C1741 1.395 . S
C1740 C1742 1.380 . S
C1741 C1740 1.395 . S
C1741 C1744 1.398 . S
C1741 H1756 0.930 . S
C1742 C1740 1.380 . S
C1742 C1743 1.391 . S
C1742 H1757 0.930 . S
C1743 C1742 1.391 . S
C1743 C1745 1.387 . S
C1744 C1741 1.398 . S
C1744 C1745 1.380 . S
C1744 H1758 0.930 . S
C1745 C1743 1.387 . S
C1745 C1744 1.380 . S
C1745 H1759 0.930 . S
C1746 O1726 1.254 . S
C1746 O1727 1.268 . S
C1747 O1731 1.284 . S
C1747 O1734 1.250 . S
C1748 Gd1681 2.828 . S
C1748 O1730 1.258 . S
C1748 O1735 1.252 . S
C1748 C1749 1.497 . S
C1749 C1748 1.497 . S
C1749 C1750 1.395 . S
C1749 C1751 1.380 . S
C1750 C1749 1.395 . S
C1750 C1753 1.398 . S
C1750 H1760 0.930 . S
C1751 C1749 1.380 . S
C1751 C1752 1.391 . S
C1751 H1761 0.930 . S
C1752 C1751 1.391 . S
C1752 C1754 1.387 . S
C1753 C1750 1.398 . S
C1753 C1754 1.380 . S
C1753 H1762 0.930 . S
C1754 C1752 1.387 . S
C1754 C1753 1.380 . S
C1754 H1763 0.930 . S
C1755 O1732 1.254 . S
C1755 O1733 1.268 1_554 S
H1756 C1741 0.930 . S
H1757 C1742 0.930 . S
H1758 C1744 0.930 . S
H1759 C1745 0.930 . S
H1760 C1750 0.930 . S
H1761 C1751 0.930 . S
H1762 C1753 0.930 . S
H1763 C1754 0.930 . S
Gd1764 N1795 2.661 . S
Gd1764 N1801 2.601 . S
Gd1764 O1808 2.545 1_554 S
Gd1764 O1809 2.609 . S
Gd1764 O1811 2.429 . S
Gd1764 O1812 2.545 1_554 S
Gd1764 O1813 2.412 1_554 S
Gd1764 O1815 2.362 . S
Gd1764 O1816 2.324 1_554 S
Gd1764 C1823 2.828 1_554 S
Gd1765 N1774 2.661 . S
Gd1765 N1778 2.601 . S
Gd1765 O1809 2.372 . S
Gd1765 O1810 2.324 . S
Gd1765 O1814 2.545 . S
Gd1765 O1815 2.606 . S
Gd1765 O1817 2.429 . S
Gd1765 O1818 2.545 . S
Gd1765 O1819 2.412 . S
Gd1765 C1832 2.828 . S
C1766 C1769 1.417 1_556 S
C1766 C1771 1.431 . S
C1766 C1772 1.412 1_556 S
C1767 C1770 1.437 . S
C1767 C1771 1.317 . S
C1767 H1786 0.929 . S
C1768 C1769 1.426 1_556 S
C1768 C1770 1.413 . S
C1768 N1778 1.359 1_556 S
C1769 C1766 1.417 1_554 S
C1769 C1768 1.426 1_554 S
C1769 N1774 1.350 . S
C1770 C1767 1.437 . S
C1770 C1768 1.413 . S
C1770 C1780 1.391 . S
C1771 C1766 1.431 . S
C1771 C1767 1.317 . S
C1771 H1782 0.930 . S
C1772 C1766 1.412 1_554 S
C1772 C1773 1.355 . S
C1772 H1784 0.930 1_564 S
C1773 C1772 1.355 . S
C1773 C1775 1.402 . S
C1773 H1785 0.930 . S
N1774 Gd1765 2.661 . S
N1774 C1769 1.350 . S
N1774 C1775 1.307 . S
C1775 C1773 1.402 . S
C1775 N1774 1.307 . S
C1775 H1776 0.930 . S
H1776 C1775 0.930 . S
C1777 N1778 1.331 1_556 S
C1777 C1779 1.401 . S
C1777 H1781 0.926 1_556 S
N1778 Gd1765 2.601 . S
N1778 C1768 1.359 1_554 S
N1778 C1777 1.331 1_554 S
C1779 C1777 1.401 . S
C1779 C1780 1.359 . S
C1779 H1791 0.930 . S
C1780 C1770 1.391 . S
C1780 C1779 1.359 . S
C1780 H1792 0.929 . S
H1781 C1777 0.926 1_554 S
H1782 C1771 0.930 . S
H1783 C1800 0.930 . S
H1784 C1772 0.930 1_546 S
H1785 C1773 0.930 . S
H1786 C1767 0.929 . S
H1787 C1805 0.930 . S
H1788 C1796 0.930 . S
H1789 C1797 0.930 . S
H1790 C1821 0.929 . S
H1791 C1779 0.930 . S
H1792 C1780 0.929 . S
H1793 C1822 0.930 . S
H1794 C1803 0.930 . S
N1795 Gd1764 2.661 . S
N1795 C1799 1.350 . S
N1795 C1800 1.307 . S
C1796 H1788 0.930 . S
C1796 C1797 1.355 . S
C1796 C1798 1.412 . S
C1797 H1789 0.930 . S
C1797 C1796 1.355 . S
C1797 C1800 1.402 . S
C1798 C1796 1.412 . S
C1798 C1799 1.417 . S
C1798 C1822 1.431 . S
C1799 N1795 1.350 . S
C1799 C1798 1.417 . S
C1799 C1802 1.426 . S
C1800 H1783 0.930 . S
C1800 N1795 1.307 . S
C1800 C1797 1.402 . S
N1801 Gd1764 2.601 . S
N1801 C1802 1.359 . S
N1801 C1805 1.334 . S
C1802 C1799 1.426 . S
C1802 N1801 1.359 . S
C1802 C1806 1.413 1_455 S
C1803 H1794 0.930 . S
C1803 C1804 1.359 . S
C1803 C1805 1.394 1_655 S
C1804 C1803 1.359 . S
C1804 C1806 1.391 . S
C1804 H1807 0.929 . S
C1805 H1787 0.930 . S
C1805 N1801 1.334 . S
C1805 C1803 1.394 1_455 S
C1806 C1802 1.413 1_655 S
C1806 C1804 1.391 . S
C1806 C1821 1.437 . S
H1807 C1804 0.929 . S
O1808 Gd1764 2.545 1_556 S
O1808 C1823 1.258 . S
O1809 Gd1764 2.609 . S
O1809 Gd1765 2.372 . S
O1809 C1820 1.274 1_554 S
O1810 Gd1765 2.324 . S
O1810 C1830 1.254 . S
O1811 Gd1764 2.429 . S
O1811 C1830 1.268 . S
O1812 Gd1764 2.545 1_556 S
O1812 C1820 1.250 . S
O1813 Gd1764 2.412 1_556 S
O1813 C1823 1.252 . S
O1814 Gd1765 2.545 . S
O1814 C1832 1.258 . S
O1815 Gd1764 2.362 . S
O1815 Gd1765 2.606 . S
O1815 C1831 1.284 . S
O1816 Gd1764 2.324 1_556 S
O1816 C1839 1.254 . S
O1817 Gd1765 2.429 . S
O1817 C1839 1.268 1_554 S
O1818 Gd1765 2.545 . S
O1818 C1831 1.250 . S
O1819 Gd1765 2.412 . S
O1819 C1832 1.252 . S
C1820 O1809 1.274 1_556 S
C1820 O1812 1.250 . S
C1821 H1790 0.929 . S
C1821 C1806 1.437 . S
C1821 C1822 1.317 1_655 S
C1822 H1793 0.930 . S
C1822 C1798 1.431 . S
C1822 C1821 1.317 1_455 S
C1823 Gd1764 2.828 1_556 S
C1823 O1808 1.258 . S
C1823 O1813 1.252 . S
C1823 C1824 1.497 . S
C1824 C1823 1.497 . S
C1824 C1825 1.395 1_455 S
C1824 C1826 1.380 . S
C1825 C1824 1.395 1_655 S
C1825 C1828 1.398 . S
C1825 H1840 0.930 . S
C1826 C1824 1.380 . S
C1826 C1827 1.391 1_455 S
C1826 H1841 0.930 . S
C1827 C1826 1.391 1_655 S
C1827 C1829 1.387 . S
C1828 C1825 1.398 . S
C1828 C1829 1.380 . S
C1828 H1842 0.930 . S
C1829 C1827 1.387 . S
C1829 C1828 1.380 . S
C1829 H1843 0.930 . S
C1830 O1810 1.254 . S
C1830 O1811 1.268 . S
C1831 O1815 1.284 . S
C1831 O1818 1.250 . S
C1832 Gd1765 2.828 . S
C1832 O1814 1.258 . S
C1832 O1819 1.252 . S
C1832 C1833 1.497 . S
C1833 C1832 1.497 . S
C1833 C1834 1.395 . S
C1833 C1835 1.380 . S
C1834 C1833 1.395 . S
C1834 C1837 1.398 . S
C1834 H1844 0.930 . S
C1835 C1833 1.380 . S
C1835 C1836 1.391 . S
C1835 H1845 0.930 . S
C1836 C1835 1.391 . S
C1836 C1838 1.387 . S
C1837 C1834 1.398 . S
C1837 C1838 1.380 . S
C1837 H1846 0.930 . S
C1838 C1836 1.387 . S
C1838 C1837 1.380 . S
C1838 H1847 0.930 . S
C1839 O1816 1.254 . S
C1839 O1817 1.268 1_556 S
H1840 C1825 0.930 . S
H1841 C1826 0.930 . S
H1842 C1828 0.930 . S
H1843 C1829 0.930 . S
H1844 C1834 0.930 . S
H1845 C1835 0.930 . S
H1846 C1837 0.930 . S
H1847 C1838 0.930 . S
Gd1848 N1879 2.661 . S
Gd1848 N1885 2.601 . S
Gd1848 O1892 2.545 . S
Gd1848 O1893 2.606 . S
Gd1848 O1895 2.429 . S
Gd1848 O1896 2.545 . S
Gd1848 O1897 2.412 . S
Gd1848 O1899 2.362 . S
Gd1848 O1900 2.324 . S
Gd1848 C1907 2.828 . S
Gd1849 N1858 2.661 . S
Gd1849 N1862 2.601 . S
Gd1849 O1893 2.362 . S
Gd1849 O1894 2.324 . S
Gd1849 O1898 2.545 . S
Gd1849 O1899 2.606 . S
Gd1849 O1901 2.429 . S
Gd1849 O1902 2.545 . S
Gd1849 O1903 2.412 . S
Gd1849 C1916 2.828 . S
C1850 C1853 1.417 . S
C1850 C1855 1.431 . S
C1850 C1856 1.412 . S
C1851 C1854 1.437 . S
C1851 C1855 1.317 . S
C1851 H1870 0.929 . S
C1852 C1853 1.426 . S
C1852 C1854 1.413 . S
C1852 N1862 1.359 . S
C1853 C1850 1.417 . S
C1853 C1852 1.426 . S
C1853 N1858 1.350 . S
C1854 C1851 1.437 . S
C1854 C1852 1.413 . S
C1854 C1864 1.391 . S
C1855 C1850 1.431 . S
C1855 C1851 1.317 . S
C1855 H1866 0.930 . S
C1856 C1850 1.412 . S
C1856 C1857 1.355 . S
C1856 H1868 0.930 1_545 S
C1857 C1856 1.355 . S
C1857 C1859 1.402 . S
C1857 H1869 0.930 . S
N1858 Gd1849 2.661 . S
N1858 C1853 1.350 . S
N1858 C1859 1.307 . S
C1859 C1857 1.402 . S
C1859 N1858 1.307 . S
C1859 H1860 0.930 . S
H1860 C1859 0.930 . S
C1861 N1862 1.334 . S
C1861 C1863 1.394 . S
C1861 H1865 0.930 . S
N1862 Gd1849 2.601 . S
N1862 C1852 1.359 . S
N1862 C1861 1.334 . S
C1863 C1861 1.394 . S
C1863 C1864 1.359 . S
C1863 H1875 0.930 . S
C1864 C1854 1.391 . S
C1864 C1863 1.359 . S
C1864 H1876 0.929 . S
H1865 C1861 0.930 . S
H1866 C1855 0.930 . S
H1867 C1884 0.930 . S
H1868 C1856 0.930 1_565 S
H1869 C1857 0.930 . S
H1870 C1851 0.929 . S
H1871 C1889 0.930 . S
H1872 C1880 0.930 . S
H1873 C1881 0.930 . S
H1874 C1905 0.929 . S
H1875 C1863 0.930 . S
H1876 C1864 0.929 . S
H1877 C1906 0.930 . S
H1878 C1887 0.930 . S
N1879 Gd1848 2.661 . S
N1879 C1883 1.350 . S
N1879 C1884 1.307 . S
C1880 H1872 0.930 . S
C1880 C1881 1.355 . S
C1880 C1882 1.412 . S
C1881 H1873 0.930 . S
C1881 C1880 1.355 . S
C1881 C1884 1.402 . S
C1882 C1880 1.412 . S
C1882 C1883 1.417 . S
C1882 C1906 1.431 . S
C1883 N1879 1.350 . S
C1883 C1882 1.417 . S
C1883 C1886 1.426 . S
C1884 H1867 0.930 . S
C1884 N1879 1.307 . S
C1884 C1881 1.402 . S
N1885 Gd1848 2.601 . S
N1885 C1886 1.359 . S
N1885 C1889 1.334 . S
C1886 C1883 1.426 . S
C1886 N1885 1.359 . S
C1886 C1890 1.413 . S
C1887 H1878 0.930 . S
C1887 C1888 1.359 . S
C1887 C1889 1.394 . S
C1888 C1887 1.359 . S
C1888 C1890 1.391 . S
C1888 H1891 0.929 . S
C1889 H1871 0.930 . S
C1889 N1885 1.334 . S
C1889 C1887 1.394 . S
C1890 C1886 1.413 . S
C1890 C1888 1.391 . S
C1890 C1905 1.437 . S
H1891 C1888 0.929 . S
O1892 Gd1848 2.545 . S
O1892 C1907 1.258 . S
O1893 Gd1848 2.606 . S
O1893 Gd1849 2.362 . S
O1893 C1904 1.284 . S
O1894 Gd1849 2.324 . S
O1894 C1914 1.254 . S
O1895 Gd1848 2.429 . S
O1895 C1914 1.268 . S
O1896 Gd1848 2.545 . S
O1896 C1904 1.250 . S
O1897 Gd1848 2.412 . S
O1897 C1907 1.252 . S
O1898 Gd1849 2.545 . S
O1898 C1916 1.258 . S
O1899 Gd1848 2.362 . S
O1899 Gd1849 2.606 . S
O1899 C1915 1.284 . S
O1900 Gd1848 2.324 . S
O1900 C1923 1.254 . S
O1901 Gd1849 2.429 . S
O1901 C1923 1.268 . S
O1902 Gd1849 2.545 . S
O1902 C1915 1.250 . S
O1903 Gd1849 2.412 . S
O1903 C1916 1.252 . S
C1904 O1893 1.284 . S
C1904 O1896 1.250 . S
C1905 H1874 0.929 . S
C1905 C1890 1.437 . S
C1905 C1906 1.317 . S
C1906 H1877 0.930 . S
C1906 C1882 1.431 . S
C1906 C1905 1.317 . S
C1907 Gd1848 2.828 . S
C1907 O1892 1.258 . S
C1907 O1897 1.252 . S
C1907 C1908 1.497 . S
C1908 C1907 1.497 . S
C1908 C1909 1.395 . S
C1908 C1910 1.380 . S
C1909 C1908 1.395 . S
C1909 C1912 1.398 . S
C1909 H1924 0.930 . S
C1910 C1908 1.380 . S
C1910 C1911 1.391 . S
C1910 H1925 0.930 . S
C1911 C1910 1.391 . S
C1911 C1913 1.387 . S
C1912 C1909 1.398 . S
C1912 C1913 1.380 . S
C1912 H1926 0.930 . S
C1913 C1911 1.387 . S
C1913 C1912 1.380 . S
C1913 H1927 0.930 . S
C1914 O1894 1.254 . S
C1914 O1895 1.268 . S
C1915 O1899 1.284 . S
C1915 O1902 1.250 . S
C1916 Gd1849 2.828 . S
C1916 O1898 1.258 . S
C1916 O1903 1.252 . S
C1916 C1917 1.497 . S
C1917 C1916 1.497 . S
C1917 C1918 1.395 . S
C1917 C1919 1.380 . S
C1918 C1917 1.395 . S
C1918 C1921 1.398 . S
C1918 H1928 0.930 . S
C1919 C1917 1.380 . S
C1919 C1920 1.391 . S
C1919 H1929 0.930 . S
C1920 C1919 1.391 . S
C1920 C1922 1.387 . S
C1921 C1918 1.398 . S
C1921 C1922 1.380 . S
C1921 H1930 0.930 . S
C1922 C1920 1.387 . S
C1922 C1921 1.380 . S
C1922 H1931 0.930 . S
C1923 O1900 1.254 . S
C1923 O1901 1.268 . S
H1924 C1909 0.930 . S
H1925 C1910 0.930 . S
H1926 C1912 0.930 . S
H1927 C1913 0.930 . S
H1928 C1918 0.930 . S
H1929 C1919 0.930 . S
H1930 C1921 0.930 . S
H1931 C1922 0.930 . S
Gd1932 N1963 2.661 . S
Gd1932 N1969 2.601 . S
Gd1932 O1976 2.545 . S
Gd1932 O1977 2.606 . S
Gd1932 O1979 2.429 . S
Gd1932 O1980 2.545 . S
Gd1932 O1981 2.412 . S
Gd1932 O1983 2.362 . S
Gd1932 O1984 2.324 . S
Gd1932 C1991 2.828 . S
Gd1933 N1942 2.661 . S
Gd1933 N1946 2.601 . S
Gd1933 O1977 2.362 . S
Gd1933 O1978 2.324 . S
Gd1933 O1982 2.545 . S
Gd1933 O1983 2.606 . S
Gd1933 O1985 2.429 . S
Gd1933 O1986 2.545 . S
Gd1933 O1987 2.412 . S
Gd1933 C2000 2.828 . S
C1934 C1937 1.417 . S
C1934 C1939 1.431 . S
C1934 C1940 1.412 . S
C1935 C1938 1.437 . S
C1935 C1939 1.317 . S
C1935 H1954 0.929 . S
C1936 C1937 1.426 . S
C1936 C1938 1.413 . S
C1936 N1946 1.359 . S
C1937 C1934 1.417 . S
C1937 C1936 1.426 . S
C1937 N1942 1.350 . S
C1938 C1935 1.437 . S
C1938 C1936 1.413 . S
C1938 C1948 1.391 . S
C1939 C1934 1.431 . S
C1939 C1935 1.317 . S
C1939 H1950 0.930 . S
C1940 C1934 1.412 . S
C1940 C1941 1.355 . S
C1940 H1952 0.930 . S
C1941 C1940 1.355 . S
C1941 C1943 1.402 . S
C1941 H1953 0.930 . S
N1942 Gd1933 2.661 . S
N1942 C1937 1.350 . S
N1942 C1943 1.307 . S
C1943 C1941 1.402 . S
C1943 N1942 1.307 . S
C1943 H1944 0.930 . S
H1944 C1943 0.930 . S
C1945 N1946 1.334 . S
C1945 C1947 1.394 . S
C1945 H1949 0.930 . S
N1946 Gd1933 2.601 . S
N1946 C1936 1.359 . S
N1946 C1945 1.334 . S
C1947 C1945 1.394 . S
C1947 C1948 1.359 . S
C1947 H1959 0.930 . S
C1948 C1938 1.391 . S
C1948 C1947 1.359 . S
C1948 H1960 0.929 . S
H1949 C1945 0.930 . S
H1950 C1939 0.930 . S
H1951 C1968 0.930 . S
H1952 C1940 0.930 . S
H1953 C1941 0.930 . S
H1954 C1935 0.929 . S
H1955 C1973 0.930 . S
H1956 C1964 0.930 . S
H1957 C1965 0.930 . S
H1958 C1989 0.929 . S
H1959 C1947 0.930 . S
H1960 C1948 0.929 . S
H1961 C1990 0.930 . S
H1962 C1971 0.930 . S
N1963 Gd1932 2.661 . S
N1963 C1967 1.350 . S
N1963 C1968 1.307 . S
C1964 H1956 0.930 . S
C1964 C1965 1.355 . S
C1964 C1966 1.412 . S
C1965 H1957 0.930 . S
C1965 C1964 1.355 . S
C1965 C1968 1.402 . S
C1966 C1964 1.412 . S
C1966 C1967 1.417 . S
C1966 C1990 1.431 . S
C1967 N1963 1.350 . S
C1967 C1966 1.417 . S
C1967 C1970 1.426 . S
C1968 H1951 0.930 . S
C1968 N1963 1.307 . S
C1968 C1965 1.402 . S
N1969 Gd1932 2.601 . S
N1969 C1970 1.359 . S
N1969 C1973 1.334 . S
C1970 C1967 1.426 . S
C1970 N1969 1.359 . S
C1970 C1974 1.413 1_655 S
C1971 H1962 0.930 . S
C1971 C1972 1.359 . S
C1971 C1973 1.394 1_455 S
C1972 C1971 1.359 . S
C1972 C1974 1.391 . S
C1972 H1975 0.929 . S
C1973 H1955 0.930 . S
C1973 N1969 1.334 . S
C1973 C1971 1.394 1_655 S
C1974 C1970 1.413 1_455 S
C1974 C1972 1.391 . S
C1974 C1989 1.437 . S
H1975 C1972 0.929 . S
O1976 Gd1932 2.545 . S
O1976 C1991 1.258 . S
O1977 Gd1932 2.606 . S
O1977 Gd1933 2.362 . S
O1977 C1988 1.284 . S
O1978 Gd1933 2.324 . S
O1978 C1998 1.254 . S
O1979 Gd1932 2.429 . S
O1979 C1998 1.268 . S
O1980 Gd1932 2.545 . S
O1980 C1988 1.250 . S
O1981 Gd1932 2.412 . S
O1981 C1991 1.252 . S
O1982 Gd1933 2.545 . S
O1982 C2000 1.258 . S
O1983 Gd1932 2.362 . S
O1983 Gd1933 2.606 . S
O1983 C1999 1.284 . S
O1984 Gd1932 2.324 . S
O1984 C2007 1.254 . S
O1985 Gd1933 2.429 . S
O1985 C2007 1.268 . S
O1986 Gd1933 2.545 . S
O1986 C1999 1.250 . S
O1987 Gd1933 2.412 . S
O1987 C2000 1.252 . S
C1988 O1977 1.284 . S
C1988 O1980 1.250 . S
C1989 H1958 0.929 . S
C1989 C1974 1.437 . S
C1989 C1990 1.317 1_455 S
C1990 H1961 0.930 . S
C1990 C1966 1.431 . S
C1990 C1989 1.317 1_655 S
C1991 Gd1932 2.828 . S
C1991 O1976 1.258 . S
C1991 O1981 1.252 . S
C1991 C1992 1.497 . S
C1992 C1991 1.497 . S
C1992 C1993 1.395 1_655 S
C1992 C1994 1.380 . S
C1993 C1992 1.395 1_455 S
C1993 C1996 1.398 . S
C1993 H2008 0.930 . S
C1994 C1992 1.380 . S
C1994 C1995 1.391 1_655 S
C1994 H2009 0.930 . S
C1995 C1994 1.391 1_455 S
C1995 C1997 1.387 . S
C1996 C1993 1.398 . S
C1996 C1997 1.380 . S
C1996 H2010 0.930 . S
C1997 C1995 1.387 . S
C1997 C1996 1.380 . S
C1997 H2011 0.930 . S
C1998 O1978 1.254 . S
C1998 O1979 1.268 . S
C1999 O1983 1.284 . S
C1999 O1986 1.250 . S
C2000 Gd1933 2.828 . S
C2000 O1982 1.258 . S
C2000 O1987 1.252 . S
C2000 C2001 1.497 . S
C2001 C2000 1.497 . S
C2001 C2002 1.395 . S
C2001 C2003 1.380 . S
C2002 C2001 1.395 . S
C2002 C2005 1.398 . S
C2002 H2012 0.930 . S
C2003 C2001 1.380 . S
C2003 C2004 1.391 . S
C2003 H2013 0.930 . S
C2004 C2003 1.391 . S
C2004 C2006 1.387 . S
C2005 C2002 1.398 . S
C2005 C2006 1.380 . S
C2005 H2014 0.930 . S
C2006 C2004 1.387 . S
C2006 C2005 1.380 . S
C2006 H2015 0.930 . S
C2007 O1984 1.254 . S
C2007 O1985 1.268 . S
H2008 C1993 0.930 . S
H2009 C1994 0.930 . S
H2010 C1996 0.930 . S
H2011 C1997 0.930 . S
H2012 C2002 0.930 . S
H2013 C2003 0.930 . S
H2014 C2005 0.930 . S
H2015 C2006 0.930 . S
C75 C1568 3.340 . S
C1652 C159 3.340 . S
C243 C1400 3.340 . S
C327 C1484 3.340 . S
C1904 C411 3.340 . S
C495 C1820 3.340 . S
C1988 C579 3.340 . S
C663 C1736 3.340 . S
C747 C1148 3.340 . S
C831 C1316 3.340 . S
C1232 C915 3.340 . S
C999 C1064 3.340 . S
C1074 C571 3.340 . S
C1158 C655 3.340 . S
C1242 C403 3.340 . S
C487 C1326 3.340 . S
C1410 C907 3.340 . S
C823 C1494 3.340 . S
C991 C1578 3.340 . S
C739 C1662 3.340 . S
C151 C1746 3.340 . S
C319 C1830 3.340 . S
C235 C1914 3.340 . S
C1998 C67 3.340 . S
C392 C63 1.558 . S
C476 C147 1.558 . S
C560 C231 1.558 . S
C644 C315 1.558 . S
C399 C728 1.558 . S
C483 C980 1.558 . S
C567 C812 1.558 . S
C651 C896 1.558 . S
C735 C56 1.558 . S
C819 C224 1.558 . S
C903 C308 1.558 . S
C140 C987 1.558 . S
C1411 C1080 1.558 . S
C1495 C1164 1.558 . S
C1248 C1579 1.558 . S
C1332 C1663 1.558 . S
C1747 C1416 1.558 . S
C1500 C1999 1.558 . S
C1831 C1584 1.558 . S
C1668 C1915 1.558 . S
C1075 C1752 1.558 . S
C1836 C1243 1.558 . S
C1920 C1327 1.558 . S
C1159 C2004 1.558 . S
C66 C828 2.068 1_655 S
C912 C150 2.068 . S
C744 C234 2.068 . S
C996 C318 2.068 1_655 S
C402 C324 2.068 1_565 S
C240 C486 2.068 1_565 S
C570 C156 2.068 . S
C72 C654 2.068 . S
C738 C492 2.068 1_556 S
C822 C660 2.068 1_554 S
C906 C576 2.068 . S
C990 C408 2.068 . S
C1083 C1827 2.068 1_455 S
C1167 C1911 2.068 . S
C1743 C1251 2.068 . S
C1995 C1335 2.068 1_455 S
C1419 C1323 2.068 1_545 S
C1503 C1239 2.068 1_565 S
C1155 C1587 2.068 . S
C1671 C1071 2.068 . S
C1755 C1491 2.068 1_554 S
C1659 C1839 2.068 1_554 S
C1923 C1575 2.068 . S
C2007 C1407 2.068 . S
