# Generated by pormake.
# Topology ske, (6)-cn, num edge types: 1
# Building blocks:
#     Node 0, Type 0, BuildingBlock: KUMJIN_clean_sbu_0, # of connection points: 6
#     Node 1, Type 0, BuildingBlock: KUMJIN_clean_sbu_0, # of connection points: 6
#     Node 2, Type 0, BuildingBlock: KUMJIN_clean_sbu_0, # of connection points: 6
#     Node 3, Type 0, BuildingBlock: KUMJIN_clean_sbu_0, # of connection points: 6
#     Node 4, Type 0, BuildingBlock: KUMJIN_clean_sbu_0, # of connection points: 6
#     Node 5, Type 0, BuildingBlock: KUMJIN_clean_sbu_0, # of connection points: 6
#     Node 6, Type 0, BuildingBlock: KUMJIN_clean_sbu_0, # of connection points: 6
#     Node 7, Type 0, BuildingBlock: KUMJIN_clean_sbu_0, # of connection points: 6
#     Edge 8, Type (0, 0), BuildingBlock: UVAHIK_clean_linker_0, # of connection points: 2
#     Edge 9, Type (0, 0), BuildingBlock: UVAHIK_clean_linker_0, # of connection points: 2
#     Edge 10, Type (0, 0), BuildingBlock: UVAHIK_clean_linker_0, # of connection points: 2
#     Edge 11, Type (0, 0), BuildingBlock: UVAHIK_clean_linker_0, # of connection points: 2
#     Edge 12, Type (0, 0), BuildingBlock: UVAHIK_clean_linker_0, # of connection points: 2
#     Edge 13, Type (0, 0), BuildingBlock: UVAHIK_clean_linker_0, # of connection points: 2
#     Edge 14, Type (0, 0), BuildingBlock: UVAHIK_clean_linker_0, # of connection points: 2
#     Edge 15, Type (0, 0), BuildingBlock: UVAHIK_clean_linker_0, # of connection points: 2
#     Edge 16, Type (0, 0), BuildingBlock: UVAHIK_clean_linker_0, # of connection points: 2
#     Edge 17, Type (0, 0), BuildingBlock: UVAHIK_clean_linker_0, # of connection points: 2
#     Edge 18, Type (0, 0), BuildingBlock: UVAHIK_clean_linker_0, # of connection points: 2
#     Edge 19, Type (0, 0), BuildingBlock: UVAHIK_clean_linker_0, # of connection points: 2
#     Edge 20, Type (0, 0), BuildingBlock: UVAHIK_clean_linker_0, # of connection points: 2
#     Edge 21, Type (0, 0), BuildingBlock: UVAHIK_clean_linker_0, # of connection points: 2
#     Edge 22, Type (0, 0), BuildingBlock: UVAHIK_clean_linker_0, # of connection points: 2
#     Edge 23, Type (0, 0), BuildingBlock: UVAHIK_clean_linker_0, # of connection points: 2
#     Edge 24, Type (0, 0), BuildingBlock: UVAHIK_clean_linker_0, # of connection points: 2
#     Edge 25, Type (0, 0), BuildingBlock: UVAHIK_clean_linker_0, # of connection points: 2
#     Edge 26, Type (0, 0), BuildingBlock: UVAHIK_clean_linker_0, # of connection points: 2
#     Edge 27, Type (0, 0), BuildingBlock: UVAHIK_clean_linker_0, # of connection points: 2
#     Edge 28, Type (0, 0), BuildingBlock: UVAHIK_clean_linker_0, # of connection points: 2
#     Edge 29, Type (0, 0), BuildingBlock: UVAHIK_clean_linker_0, # of connection points: 2
#     Edge 30, Type (0, 0), BuildingBlock: UVAHIK_clean_linker_0, # of connection points: 2
#     Edge 31, Type (0, 0), BuildingBlock: UVAHIK_clean_linker_0, # of connection points: 2
# Relax obj value: 0.199
# Max RMSD: 0.281
# Mean RMSD: 0.219
data_MOF--net-ske--node1-KUMJIN_clean_sbu_0--edge1-UVAHIK_clean_linker_0
_symmetry_space_group_name_H-M    P1
_symmetry_Int_Tables_number       1
_symmetry_cell_setting            triclinic
loop_
_symmetry_equiv_pos_as_xyz
'x, y, z'
_cell_length_a     115.08522
_cell_length_b     39.315553
_cell_length_c     18.935841
_cell_angle_alpha  100.21801
_cell_angle_beta   89.815054
_cell_angle_gamma 102.56432
loop_
_atom_site_label
_atom_site_type_symbol
_atom_site_fract_x
_atom_site_fract_y
_atom_site_fract_z
_atom_type_partial_charge
Eu0 Eu 0.1161 0.24691 0.58119 0.0
C1 C 0.16168 0.29881 0.43755 0.0
C2 C 0.15927 0.25731 0.32482 0.0
C3 C 0.17023 0.31797 0.3297 0.0
C4 C 0.15699 0.2654 0.39844 0.0
C5 C 0.16871 0.3251 0.40408 0.0
C6 C 0.16554 0.2841 0.29014 0.0
C7 C 0.17369 0.36154 0.52146 0.0
N8 N 0.16032 0.30451 0.50958 0.0
C9 C 0.16675 0.3345 0.55224 0.0
C10 C 0.17449 0.3571 0.44691 0.0
Eu11 Eu 0.14813 0.25766 0.55738 0.0
N12 N 0.15105 0.24001 0.43367 0.0
C13 C 0.14786 0.20553 0.39964 0.0
C14 C 0.15563 0.22222 0.28897 0.0
C15 C 0.15009 0.19612 0.3269 0.0
H16 H 0.16608 0.33799 0.60995 0.0
H17 H 0.14742 0.16879 0.3 0.0
H18 H 0.16717 0.27854 0.23331 0.0
H19 H 0.17842 0.38574 0.55522 0.0
H20 H 0.14359 0.18512 0.4282 0.0
H21 H 0.09867 0.36119 0.70951 0.0
H22 H 0.15727 0.21489 0.23254 0.0
H23 H 0.11505 0.17064 0.64473 0.0
H24 H 0.10526 0.32148 0.60944 0.0
H25 H 0.1114 0.14773 0.75596 0.0
H26 H 0.17545 0.33801 0.30283 0.0
H27 H 0.09769 0.34649 0.8313 0.0
H28 H 0.09904 0.30267 0.91023 0.0
H29 H 0.17996 0.37796 0.42322 0.0
H30 H 0.10202 0.24389 0.92206 0.0
N31 N 0.10928 0.28634 0.67496 0.0
C32 C 0.10528 0.31528 0.66286 0.0
C33 C 0.10084 0.3293 0.78779 0.0
C34 C 0.10367 0.29772 0.79838 0.0
C35 C 0.10139 0.3377 0.71924 0.0
C36 C 0.10776 0.27624 0.73989 0.0
H37 H 0.10618 0.18567 0.86441 0.0
N38 N 0.11294 0.22266 0.68849 0.0
C39 C 0.11097 0.17482 0.75449 0.0
C40 C 0.10943 0.24319 0.74651 0.0
C41 C 0.11331 0.18837 0.69122 0.0
C42 C 0.10797 0.19622 0.8154 0.0
C43 C 0.10705 0.23074 0.81186 0.0
O44 O 0.10147 0.2012 0.54615 0.0
O45 O 0.1302 0.24355 0.49837 0.0
O46 O 0.14351 0.30927 0.54593 0.0
O47 O 0.12478 0.30627 0.59495 0.0
O48 O 0.11687 0.26955 0.47871 0.0
O49 O 0.09859 0.25348 0.54726 0.0
O50 O 0.16452 0.26938 0.62487 0.0
O51 O 0.1335 0.24871 0.63681 0.0
O52 O 0.1198 0.19277 0.53543 0.0
O53 O 0.14007 0.20023 0.56032 0.0
O54 O 0.14822 0.28931 0.6702 0.0
O55 O 0.15981 0.2202 0.55012 0.0
C56 C 0.12628 0.25961 0.45373 0.0
C57 C 0.08232 0.21109 0.57877 0.0
C58 C 0.0615 0.21529 0.59863 0.0
C59 C 0.07226 0.22392 0.56262 0.0
C60 C 0.06103 0.19337 0.65037 0.0
C61 C 0.08153 0.18969 0.63145 0.0
C62 C 0.07096 0.18093 0.66674 0.0
C63 C 0.13468 0.32392 0.57057 0.0
C64 C 0.09361 0.22007 0.54105 0.0
C65 C 0.10366 0.25281 0.87123 0.0
C66 C 0.10201 0.2863 0.86457 0.0
C67 C 0.13821 0.27228 0.68981 0.0
C68 C 0.18035 0.24583 0.57065 0.0
C69 C 0.1897 0.24185 0.61449 0.0
C70 C 0.20141 0.24549 0.58919 0.0
C71 C 0.20363 0.25423 0.52074 0.0
C72 C 0.18286 0.25371 0.50211 0.0
C73 C 0.19442 0.25825 0.47769 0.0
C74 C 0.1294 0.18003 0.54217 0.0
C75 C 0.16796 0.24094 0.59507 0.0
H76 H 0.07288 0.24083 0.52276 0.0
H77 H 0.0529 0.18524 0.67775 0.0
H78 H 0.08904 0.17942 0.64527 0.0
H79 H 0.07044 0.16415 0.70674 0.0
H80 H 0.1878 0.23511 0.66703 0.0
H81 H 0.21253 0.25801 0.50034 0.0
H82 H 0.17588 0.25597 0.46692 0.0
H83 H 0.19622 0.26462 0.42485 0.0
Eu84 Eu 0.86383 0.25109 0.54941 0.0
C85 C 0.90833 0.22137 0.68081 0.0
C86 C 0.91017 0.25786 0.79973 0.0
C87 C 0.91686 0.20253 0.78073 0.0
C88 C 0.90651 0.25155 0.72656 0.0
C89 C 0.91392 0.19732 0.70716 0.0
C90 C 0.91498 0.23267 0.8269 0.0
C91 C 0.91477 0.16725 0.58481 0.0
N92 N 0.90552 0.21698 0.60963 0.0
C93 C 0.90927 0.19179 0.56109 0.0
C94 C 0.91687 0.16957 0.65829 0.0
Eu95 Eu 0.89582 0.25893 0.57585 0.0
N96 N 0.90189 0.27576 0.69895 0.0
C97 C 0.90181 0.30804 0.74002 0.0
C98 C 0.90927 0.28983 0.8431 0.0
C99 C 0.9053 0.31528 0.81277 0.0
H100 H 0.90765 0.19001 0.50423 0.0
H101 H 0.90486 0.34047 0.84552 0.0
H102 H 0.91766 0.23689 0.88315 0.0
H103 H 0.91737 0.1466 0.54648 0.0
H104 H 0.89879 0.3282 0.71819 0.0
H105 H 0.8538 0.16869 0.28272 0.0
H106 H 0.91194 0.29556 0.89954 0.0
H107 H 0.85585 0.32698 0.61743 0.0
H108 H 0.86077 0.18283 0.40928 0.0
H109 H 0.84677 0.37174 0.5752 0.0
H110 H 0.921 0.18403 0.80206 0.0
H111 H 0.84609 0.21257 0.22859 0.0
H112 H 0.84056 0.27169 0.24413 0.0
H113 H 0.92118 0.15061 0.67651 0.0
H114 H 0.83862 0.32677 0.32349 0.0
N115 N 0.8574 0.23478 0.42702 0.0
C116 C 0.85743 0.20231 0.3868 0.0
C117 C 0.84914 0.21898 0.28441 0.0
C118 C 0.84853 0.25147 0.32689 0.0
C119 C 0.85347 0.19413 0.31479 0.0
C120 C 0.85269 0.25861 0.3992 0.0
H121 H 0.84079 0.3641 0.44696 0.0
N122 N 0.85525 0.29511 0.51375 0.0
C123 C 0.84811 0.34885 0.53767 0.0
C124 C 0.85156 0.28962 0.44385 0.0
C125 C 0.85321 0.32351 0.56142 0.0
C126 C 0.84477 0.34446 0.46521 0.0
C127 C 0.84632 0.31436 0.41747 0.0
O128 O 0.84788 0.25379 0.61221 0.0
O129 O 0.87824 0.25108 0.62978 0.0
O130 O 0.88706 0.20176 0.57597 0.0
O131 O 0.86753 0.1956 0.53347 0.0
O132 O 0.86579 0.27966 0.66628 0.0
O133 O 0.84931 0.20451 0.54419 0.0
O134 O 0.90582 0.29191 0.50422 0.0
O135 O 0.88133 0.2559 0.49524 0.0
O136 O 0.874 0.30369 0.52747 0.0
O137 O 0.89097 0.31314 0.60049 0.0
O138 O 0.89375 0.22632 0.46215 0.0
O139 O 0.91533 0.27525 0.58428 0.0
C140 C 0.87498 0.26925 0.68525 0.0
C141 C 0.83006 0.21759 0.55391 0.0
C142 C 0.80895 0.21792 0.57162 0.0
C143 C 0.82067 0.22278 0.59995 0.0
C144 C 0.80686 0.20882 0.49681 0.0
C145 C 0.82761 0.20813 0.47946 0.0
C146 C 0.81613 0.20408 0.45128 0.0
C147 C 0.87643 0.18244 0.55297 0.0
C148 C 0.84233 0.22175 0.58337 0.0
C149 C 0.84258 0.30795 0.34488 0.0
C150 C 0.84369 0.27658 0.29969 0.0
C151 C 0.88448 0.23617 0.44149 0.0
C152 C 0.92446 0.27717 0.47274 0.0
C153 C 0.93646 0.27916 0.49236 0.0
C154 C 0.94427 0.26617 0.44181 0.0
C155 C 0.93975 0.25097 0.37153 0.0
C156 C 0.92035 0.26233 0.4018 0.0
C157 C 0.92795 0.24931 0.35183 0.0
C158 C 0.88347 0.32486 0.56288 0.0
C159 C 0.9162 0.28932 0.527 0.0
H160 H 0.82242 0.22975 0.6575 0.0
H161 H 0.79802 0.20549 0.47335 0.0
H162 H 0.83453 0.20355 0.44271 0.0
H163 H 0.81439 0.19697 0.3938 0.0
H164 H 0.93969 0.29096 0.54681 0.0
H165 H 0.94528 0.23976 0.33161 0.0
H166 H 0.91122 0.26041 0.3848 0.0
H167 H 0.92464 0.23755 0.29757 0.0
Eu168 Eu 0.15048 0.76498 0.49219 0.0
C169 C 0.1065 0.66195 0.32511 0.0
C170 C 0.10457 0.68467 0.21558 0.0
C171 C 0.09825 0.62155 0.21538 0.0
C172 C 0.10831 0.69029 0.28851 0.0
C173 C 0.10111 0.62749 0.28919 0.0
C174 C 0.09996 0.65008 0.17869 0.0
C175 C 0.10024 0.60796 0.40347 0.0
N176 N 0.1091 0.66847 0.39692 0.0
C177 C 0.10549 0.64252 0.43691 0.0
C178 C 0.09825 0.60025 0.32912 0.0
Eu179 Eu 0.11862 0.72757 0.44675 0.0
N180 N 0.11268 0.72362 0.32555 0.0
C181 C 0.11218 0.75241 0.29544 0.0
C182 C 0.10501 0.7141 0.18276 0.0
C183 C 0.10857 0.74811 0.22336 0.0
H184 H 0.10696 0.64805 0.49439 0.0
H185 H 0.10857 0.77106 0.19911 0.0
H186 H 0.09723 0.64527 0.12241 0.0
H187 H 0.09773 0.58729 0.43508 0.0
H188 H 0.11481 0.77887 0.3259 0.0
H189 H 0.16141 0.72478 0.74106 0.0
H190 H 0.10222 0.71088 0.12692 0.0
H191 H 0.15921 0.84522 0.44636 0.0
H192 H 0.15501 0.71626 0.61386 0.0
H193 H 0.1672 0.90727 0.50468 0.0
H194 H 0.09425 0.59518 0.18679 0.0
H195 H 0.16703 0.78525 0.81318 0.0
H196 H 0.17081 0.85103 0.8176 0.0
H197 H 0.09411 0.57346 0.30344 0.0
H198 H 0.17239 0.90086 0.75306 0.0
N199 N 0.15663 0.77114 0.61406 0.0
C200 C 0.15746 0.74275 0.64454 0.0
C201 C 0.16421 0.78164 0.7573 0.0
C202 C 0.16405 0.81077 0.72455 0.0
C203 C 0.16109 0.74749 0.71672 0.0
C204 C 0.16027 0.80457 0.65168 0.0
H205 H 0.17135 0.92204 0.63597 0.0
N206 N 0.15849 0.82516 0.54392 0.0
C207 C 0.16551 0.88653 0.53653 0.0
C208 C 0.1612 0.83254 0.61547 0.0
C209 C 0.161 0.85133 0.50364 0.0
C210 C 0.16779 0.89478 0.6107 0.0
C211 C 0.16587 0.86757 0.65096 0.0
O212 O 0.16607 0.77585 0.4266 0.0
O213 O 0.13676 0.74176 0.40173 0.0
O214 O 0.1278 0.68162 0.42481 0.0
O215 O 0.14586 0.70514 0.48999 0.0
O216 O 0.1501 0.78379 0.38547 0.0
O217 O 0.16496 0.73698 0.49497 0.0
O218 O 0.10849 0.75184 0.53217 0.0
O219 O 0.13241 0.74825 0.53619 0.0
O220 O 0.1398 0.80701 0.52516 0.0
O221 O 0.12404 0.78633 0.44131 0.0
O222 O 0.11929 0.70454 0.54832 0.0
O223 O 0.0997 0.72693 0.43043 0.0
C224 C 0.14079 0.76124 0.35644 0.0
C225 C 0.18417 0.7701 0.47621 0.0
C226 C 0.20557 0.77335 0.46134 0.0
C227 C 0.19355 0.75751 0.43981 0.0
C228 C 0.20791 0.80206 0.5195 0.0
C229 C 0.18686 0.79823 0.53459 0.0
C230 C 0.19864 0.8141 0.55596 0.0
C231 C 0.13771 0.6781 0.45527 0.0
C232 C 0.17161 0.75483 0.45217 0.0
C233 C 0.16892 0.8741 0.72464 0.0
C234 C 0.16802 0.84572 0.76138 0.0
C235 C 0.12862 0.7269 0.57866 0.0
C236 C 0.08806 0.72388 0.53271 0.0
C237 C 0.07678 0.73125 0.5235 0.0
C238 C 0.06678 0.71407 0.55702 0.0
C239 C 0.0683 0.68953 0.60012 0.0
C240 C 0.0893 0.69915 0.57569 0.0
C241 C 0.07947 0.68218 0.60921 0.0
C242 C 0.1308 0.81205 0.48798 0.0
C243 C 0.09837 0.74156 0.49609 0.0
H244 H 0.19144 0.73544 0.39527 0.0
H245 H 0.21694 0.81582 0.53642 0.0
H246 H 0.17988 0.80824 0.56325 0.0
H247 H 0.20058 0.83614 0.6006 0.0
H248 H 0.07579 0.74995 0.48942 0.0
H249 H 0.06088 0.6763 0.62766 0.0
H250 H 0.09783 0.6929 0.58356 0.0
H251 H 0.08052 0.66327 0.64254 0.0
Eu252 Eu 0.86353 0.72855 0.48867 0.0
C253 C 0.90223 0.78718 0.32153 0.0
C254 C 0.90531 0.73566 0.23838 0.0
C255 C 0.90764 0.79191 0.19834 0.0
C256 C 0.90243 0.7515 0.3074 0.0
C257 C 0.9051 0.80785 0.26722 0.0
C258 C 0.90775 0.75591 0.18396 0.0
C259 C 0.90405 0.85957 0.35436 0.0
N260 N 0.89975 0.80208 0.38875 0.0
C261 C 0.9015 0.83827 0.40654 0.0
C262 C 0.90563 0.84421 0.284 0.0
Eu263 Eu 0.89557 0.76342 0.47462 0.0
N264 N 0.89982 0.7322 0.36062 0.0
C265 C 0.9008 0.69757 0.34902 0.0
C266 C 0.90569 0.69983 0.22582 0.0
C267 C 0.90353 0.68083 0.28163 0.0
H268 H 0.90146 0.85148 0.46147 0.0
H269 H 0.90414 0.65332 0.2731 0.0
H270 H 0.90983 0.74401 0.13065 0.0
H271 H 0.90512 0.888 0.36898 0.0
H272 H 0.89987 0.68249 0.39137 0.0
H273 H 0.8561 0.82516 0.72224 0.0
H274 H 0.90782 0.68677 0.17363 0.0
H275 H 0.85312 0.63968 0.46361 0.0
H276 H 0.86061 0.80477 0.59806 0.0
H277 H 0.84678 0.59302 0.53579 0.0
H278 H 0.90972 0.80734 0.15605 0.0
H279 H 0.85119 0.78266 0.80532 0.0
H280 H 0.84763 0.72001 0.82497 0.0
H281 H 0.90776 0.86087 0.2438 0.0
H282 H 0.84556 0.65679 0.77484 0.0
N283 N 0.859 0.75085 0.60894 0.0
C284 C 0.8588 0.78566 0.63287 0.0
C285 C 0.85326 0.77341 0.75036 0.0
C286 C 0.85288 0.73757 0.72502 0.0
C287 C 0.85606 0.79746 0.70371 0.0
C288 C 0.85568 0.72687 0.65288 0.0
H289 H 0.84516 0.60918 0.66714 0.0
N290 N 0.85635 0.68191 0.55393 0.0
C291 C 0.8491 0.62054 0.56184 0.0
C292 C 0.85458 0.69137 0.62489 0.0
C293 C 0.85283 0.64711 0.52129 0.0
C294 C 0.84821 0.62977 0.63588 0.0
C295 C 0.85057 0.66556 0.66799 0.0
O296 O 0.84693 0.69814 0.43203 0.0
O297 O 0.87771 0.74926 0.41431 0.0
O298 O 0.88739 0.8105 0.50633 0.0
O299 O 0.86711 0.78723 0.48119 0.0
O300 O 0.86539 0.70255 0.37402 0.0
O301 O 0.84874 0.75372 0.47327 0.0
O302 O 0.91182 0.8011 0.51887 0.0
O303 O 0.88134 0.74347 0.54846 0.0
O304 O 0.87243 0.68176 0.47048 0.0
O305 O 0.89248 0.70741 0.49913 0.0
O306 O 0.89452 0.7868 0.59268 0.0
O307 O 0.91214 0.7458 0.48892 0.0
C308 C 0.8743 0.72587 0.35833 0.0
C309 C 0.82944 0.71729 0.47008 0.0
C310 C 0.80822 0.71733 0.45956 0.0
C311 C 0.8198 0.72371 0.43257 0.0
C312 C 0.80647 0.70419 0.52417 0.0
C313 C 0.8274 0.70433 0.53439 0.0
C314 C 0.816 0.6978 0.56115 0.0
C315 C 0.87641 0.81413 0.49734 0.0
C316 C 0.84158 0.72447 0.44253 0.0
C317 C 0.84848 0.67622 0.74077 0.0
C318 C 0.8496 0.71218 0.7692 0.0
C319 C 0.88504 0.76492 0.60648 0.0
C320 C 0.92984 0.78774 0.47402 0.0
C321 C 0.94024 0.7784 0.49604 0.0
C322 C 0.95118 0.78965 0.46401 0.0
C323 C 0.95147 0.80925 0.40849 0.0
C324 C 0.93049 0.80778 0.41908 0.0
C325 C 0.94119 0.81812 0.38618 0.0
C326 C 0.88339 0.67963 0.4861 0.0
C327 C 0.91846 0.77783 0.5099 0.0
H328 H 0.82137 0.73405 0.38317 0.0
H329 H 0.79768 0.69834 0.54577 0.0
H330 H 0.8346 0.69916 0.56393 0.0
H331 H 0.81453 0.68762 0.61071 0.0
H332 H 0.9399 0.76338 0.53907 0.0
H333 H 0.95969 0.81774 0.38216 0.0
H334 H 0.92281 0.81603 0.40206 0.0
H335 H 0.94153 0.83345 0.34373 0.0
Eu336 Eu 0.61782 0.73341 0.06769 0.0
C337 C 0.66315 0.8225 0.95556 0.0
C338 C 0.66521 0.79161 0.83523 0.0
C339 C 0.67221 0.85557 0.86494 0.0
C340 C 0.66129 0.79134 0.90583 0.0
C341 C 0.66883 0.8549 0.9361 0.0
C342 C 0.6704 0.82398 0.81459 0.0
C343 C 0.6682 0.88308 0.05994 0.0
N344 N 0.6599 0.82086 0.02403 0.0
C345 C 0.66265 0.8503 0.07673 0.0
C346 C 0.67119 0.88548 0.98917 0.0
Eu347 Eu 0.6501 0.76473 0.04788 0.0
N348 N 0.65641 0.76048 0.92791 0.0
C349 C 0.65598 0.72877 0.88346 0.0
C350 C 0.66414 0.75926 0.78819 0.0
C351 C 0.65967 0.72769 0.81278 0.0
H352 H 0.66028 0.84862 0.13143 0.0
H353 H 0.65901 0.70249 0.77726 0.0
H354 H 0.67334 0.82475 0.76036 0.0
H355 H 0.67014 0.90648 0.10155 0.0
H356 H 0.65252 0.70415 0.9015 0.0
H357 H 0.60903 0.79784 0.33604 0.0
H358 H 0.667 0.75833 0.73344 0.0
H359 H 0.60869 0.64827 0.98765 0.0
H360 H 0.61569 0.79503 0.21142 0.0
H361 H 0.5991 0.59074 0.02051 0.0
H362 H 0.67648 0.88025 0.84876 0.0
H363 H 0.60106 0.74252 0.38185 0.0
H364 H 0.59502 0.67606 0.35779 0.0
H365 H 0.67553 0.91089 0.97637 0.0
H366 H 0.59237 0.61979 0.27217 0.0
N367 N 0.61185 0.73872 0.18777 0.0
C368 C 0.61222 0.77073 0.23088 0.0
C369 C 0.60398 0.74113 0.32715 0.0
C370 C 0.60305 0.70843 0.2814 0.0
C371 C 0.60845 0.77242 0.30146 0.0
C372 C 0.60703 0.70807 0.2108 0.0
H373 H 0.5937 0.58779 0.1462 0.0
N374 N 0.60906 0.67705 0.09424 0.0
C375 C 0.60095 0.61456 0.06107 0.0
C376 C 0.60562 0.67631 0.16276 0.0
C377 C 0.60638 0.64707 0.04264 0.0
C378 C 0.59794 0.613 0.13214 0.0
C379 C 0.60009 0.64416 0.18377 0.0
O380 O 0.60205 0.71808 0.99543 0.0
O381 O 0.63207 0.75 0.9919 0.0
O382 O 0.64099 0.80707 0.02632 0.0
O383 O 0.62324 0.79442 0.08599 0.0
O384 O 0.61843 0.70834 0.94942 0.0
O385 O 0.6034 0.76235 0.08302 0.0
O386 O 0.66595 0.77899 0.11986 0.0
O387 O 0.63578 0.74864 0.12404 0.0
O388 O 0.6274 0.69089 0.08617 0.0
O389 O 0.64415 0.70463 1.01917 0.0
O390 O 0.64916 0.79101 0.16512 0.0
O391 O 0.66306 0.73107 0.04011 0.0
C392 C 0.62814 0.72876 0.93433 0.0
C393 C 0.58404 0.72663 0.05027 0.0
C394 C 0.56329 0.73207 0.06653 0.0
C395 C 0.57508 0.74605 0.0479 0.0
C396 C 0.56067 0.69866 0.08718 0.0
C397 C 0.58097 0.69313 0.06997 0.0
C398 C 0.56944 0.67942 0.08874 0.0
C399 C 0.63131 0.81595 0.05443 0.0
C400 C 0.59652 0.74083 0.0319 0.0
C401 C 0.59654 0.64426 0.25483 0.0
C402 C 0.59803 0.67632 0.30356 0.0
C403 C 0.63954 0.77057 0.18092 0.0
C404 C 0.68303 0.76093 0.07069 0.0
C405 C 0.6919 0.75221 0.11098 0.0
C406 C 0.70393 0.75967 0.09145 0.0
C407 C 0.70692 0.77642 0.03203 0.0
C408 C 0.68633 0.77756 1.01178 0.0
C409 C 0.69817 0.78531 0.9927 0.0
C410 C 0.63663 0.68227 0.05139 0.0
C411 C 0.67038 0.75242 0.08933 0.0
H412 H 0.57727 0.77178 0.03203 0.0
H413 H 0.55171 0.68687 0.10049 0.0
H414 H 0.5874 0.67709 0.07002 0.0
H415 H 0.56725 0.65351 0.10375 0.0
H416 H 0.68941 0.73919 0.15641 0.0
H417 H 0.71608 0.78307 1.01639 0.0
H418 H 0.67975 0.7845 0.98031 0.0
H419 H 0.70059 0.79825 0.94718 0.0
Eu420 Eu 0.36507 0.7518 0.05915 0.0
C421 C 0.40995 0.72658 0.1958 0.0
C422 C 0.41125 0.76317 0.31437 0.0
C423 C 0.41857 0.7089 0.29696 0.0
C424 C 0.40774 0.75641 0.24089 0.0
C425 C 0.41578 0.70331 0.22312 0.0
C426 C 0.4163 0.73872 0.34246 0.0
C427 C 0.41714 0.67335 0.10128 0.0
N428 N 0.4073 0.72186 0.12438 0.0
C429 C 0.4114 0.6971 0.0766 0.0
C430 C 0.41912 0.67598 0.17498 0.0
Eu431 Eu 0.39714 0.76238 0.08873 0.0
N432 N 0.40287 0.77988 0.21239 0.0
C433 C 0.40239 0.81197 0.25301 0.0
C434 C 0.40995 0.79488 0.35717 0.0
C435 C 0.40573 0.81965 0.32602 0.0
H436 H 0.40987 0.69506 1.01957 0.0
H437 H 0.40499 0.84466 0.35833 0.0
H438 H 0.41886 0.74327 0.39895 0.0
H439 H 0.42003 0.65303 0.06352 0.0
H440 H 0.39919 0.83167 0.23067 0.0
H441 H 0.35613 0.672 0.78961 0.0
H442 H 0.4125 0.80094 0.41381 0.0
H443 H 0.35617 0.82586 0.12985 0.0
H444 H 0.36276 0.68513 0.91688 0.0
H445 H 0.34673 0.8703 0.08922 0.0
H446 H 0.42288 0.69099 0.31902 0.0
H447 H 0.34825 0.716 0.73686 0.0
H448 H 0.34223 0.77448 0.75445 0.0
H449 H 0.42362 0.65763 0.19395 0.0
H450 H 0.33961 0.82825 0.83584 0.0
N451 N 0.35905 0.73668 0.93611 0.0
C452 C 0.35936 0.70465 0.89485 0.0
C453 C 0.35116 0.72198 0.79292 0.0
C454 C 0.35025 0.75392 0.83649 0.0
C455 C 0.35559 0.69705 0.82252 0.0
C456 C 0.35422 0.76049 0.90906 0.0
H457 H 0.34112 0.86396 0.96074 0.0
N458 N 0.35613 0.79548 0.0251 0.0
C459 C 0.34839 0.84812 0.05088 0.0
C460 C 0.35267 0.79069 0.95491 0.0
C461 C 0.3537 0.82295 0.07372 0.0
C462 C 0.34526 0.84447 0.97827 0.0
C463 C 0.34723 0.81525 0.92942 0.0
O464 O 0.34896 0.75172 0.12145 0.0
O465 O 0.37942 0.7526 0.14072 0.0
O466 O 0.38886 0.70444 0.08623 0.0
O467 O 0.36934 0.69715 0.04232 0.0
O468 O 0.36652 0.77961 0.17652 0.0
O469 O 0.35081 0.7042 0.04885 0.0
O470 O 0.40681 0.79855 0.02183 0.0
O471 O 0.38275 0.75808 1.00677 0.0
O472 O 0.37479 0.80501 0.03828 0.0
O473 O 0.39161 0.81572 0.11302 0.0
O474 O 0.39573 0.73049 0.97451 0.0
O475 O 0.41664 0.77877 0.09543 0.0
C476 C 0.37586 0.77007 0.19606 0.0
C477 C 0.33142 0.71624 0.05914 0.0
C478 C 0.31021 0.71615 0.07545 0.0
C479 C 0.32175 0.7186 0.10457 0.0
C480 C 0.30869 0.71238 1.00042 0.0
C481 C 0.32939 0.71096 0.98452 0.0
C482 C 0.31817 0.70951 0.9556 0.0
C483 C 0.37835 0.68453 0.06204 0.0
C484 C 0.34361 0.72 0.08935 0.0
C485 C 0.34372 0.80953 0.85655 0.0
C486 C 0.34522 0.77893 0.8102 0.0
C487 C 0.38628 0.73917 0.95313 0.0
C488 C 0.42566 0.78695 0.98573 0.0
C489 C 0.43784 0.79084 1.00374 0.0
C490 C 0.44589 0.78188 0.95076 0.0
C491 C 0.44148 0.76872 0.87962 0.0
C492 C 0.42159 0.77402 0.91408 0.0
C493 C 0.42946 0.76496 0.86162 0.0
C494 C 0.38407 0.82681 0.07449 0.0
C495 C 0.41729 0.79571 0.0422 0.0
H496 H 0.32322 0.72182 0.16207 0.0
H497 H 0.30015 0.71181 0.97589 0.0
H498 H 0.33645 0.70794 0.94809 0.0
H499 H 0.3168 0.70613 0.89801 0.0
H500 H 0.44103 0.80111 0.05883 0.0
H501 H 0.44728 0.76077 0.83773 0.0
H502 H 0.41232 0.7707 0.89842 0.0
H503 H 0.42621 0.75475 0.80669 0.0
Eu504 Eu 0.64937 0.24515 0.97689 0.0
C505 C 0.60251 0.18324 0.82038 0.0
C506 C 0.6043 0.21456 0.72019 0.0
C507 C 0.59328 0.1534 0.70394 0.0
C508 C 0.60706 0.21351 0.79231 0.0
C509 C 0.59516 0.15343 0.77716 0.0
C510 C 0.59783 0.18394 0.67552 0.0
C511 C 0.59029 0.12852 0.88421 0.0
N512 N 0.6042 0.18432 0.89168 0.0
C513 C 0.59751 0.15887 0.92485 0.0
C514 C 0.58935 0.12537 0.80971 0.0
Eu515 Eu 0.61736 0.23531 0.95546 0.0
N516 N 0.61325 0.24285 0.83694 0.0
C517 C 0.61579 0.27483 0.81468 0.0
C518 C 0.6076 0.24678 0.69601 0.0
C519 C 0.61308 0.27721 0.744 0.0
H520 H 0.5981 0.16166 0.98265 0.0
H521 H 0.61536 0.30248 0.72636 0.0
H522 H 0.59585 0.18411 0.61969 0.0
H523 H 0.5854 0.10774 0.91036 0.0
H524 H 0.62005 0.29875 0.85022 0.0
H525 H 0.67089 0.13862 1.01868 0.0
H526 H 0.6056 0.24869 0.64116 0.0
H527 H 0.64783 0.31964 0.09403 0.0
H528 H 0.66183 0.17413 0.94864 0.0
H529 H 0.65262 0.34569 0.22067 0.0
H530 H 0.58783 0.13051 0.66966 0.0
H531 H 0.67331 0.15604 0.15078 0.0
H532 H 0.6718 0.20028 0.26148 0.0
H533 H 0.58363 0.10203 0.77836 0.0
H534 H 0.66724 0.25726 0.31594 0.0
N535 N 0.65828 0.20971 0.04059 0.0
C536 C 0.66266 0.1816 1.0065 0.0
C537 C 0.66917 0.17142 0.12036 0.0
C538 C 0.66569 0.20203 0.15431 0.0
C539 C 0.66784 0.16152 0.04588 0.0
C540 C 0.66032 0.22111 0.11225 0.0
H541 H 0.6606 0.3122 0.30061 0.0
N542 N 0.65302 0.2714 0.10019 0.0
C543 C 0.65408 0.31956 0.19958 0.0
C544 C 0.65778 0.25315 0.1428 0.0
C545 C 0.65134 0.30453 0.12732 0.0
C546 C 0.65858 0.3006 0.24451 0.0
C547 C 0.66051 0.26702 0.21636 0.0
O548 O 0.66442 0.28987 0.97579 0.0
O549 O 0.63459 0.24499 0.89785 0.0
O550 O 0.62089 0.17972 0.94075 0.0
O551 O 0.64105 0.18687 0.97188 0.0
O552 O 0.64645 0.21298 0.86424 0.0
O553 O 0.66537 0.23854 0.9173 0.0
O554 O 0.61022 0.26867 0.0423 0.0
O555 O 0.63252 0.2462 0.03701 0.0
O556 O 0.64629 0.29918 0.96558 0.0
O557 O 0.62569 0.29347 0.96591 0.0
O558 O 0.61733 0.20808 0.05113 0.0
O559 O 0.59865 0.23954 0.95334 0.0
C560 C 0.63736 0.22378 0.84486 0.0
C561 C 0.68324 0.27433 0.9739 0.0
C562 C 0.70403 0.26887 0.96255 0.0
C563 C 0.69275 0.26693 0.93086 0.0
C564 C 0.70565 0.27862 0.03761 0.0
C565 C 0.68519 0.28414 0.04868 0.0
C566 C 0.6963 0.28622 0.08012 0.0
C567 C 0.63029 0.16713 0.9536 0.0
C568 C 0.67125 0.27066 0.94126 0.0
C569 C 0.66527 0.24728 0.25917 0.0
C570 C 0.66783 0.2148 0.22822 0.0
C571 C 0.62776 0.22476 0.07778 0.0
C572 C 0.58995 0.24748 0.06635 0.0
C573 C 0.57826 0.25138 0.05479 0.0
C574 C 0.56919 0.2407 0.1017 0.0
C575 C 0.57199 0.22569 0.15985 0.0
C576 C 0.5925 0.23258 0.12504 0.0
C577 C 0.58355 0.2217 0.17126 0.0
C578 C 0.63667 0.31254 0.96738 0.0
C579 C 0.59932 0.25895 1.01672 0.0
H580 H 0.6913 0.25907 0.87319 0.0
H581 H 0.71423 0.28081 0.06354 0.0
H582 H 0.67812 0.29022 0.08304 0.0
H583 H 0.69769 0.2938 0.1378 0.0
H584 H 0.57631 0.26324 1.00998 0.0
H585 H 0.5652 0.2167 0.19624 0.0
H586 H 0.6014 0.22939 0.13548 0.0
H587 H 0.58559 0.21012 0.2162 0.0
Eu588 Eu 0.36372 0.22942 0.98303 0.0
C589 C 0.40232 0.28371 0.81232 0.0
C590 C 0.40539 0.23105 0.73281 0.0
C591 C 0.40768 0.28613 0.68817 0.0
C592 C 0.40254 0.24803 0.80094 0.0
C593 C 0.40515 0.30321 0.75609 0.0
C594 C 0.4078 0.25014 0.67655 0.0
C595 C 0.40395 0.35609 0.83929 0.0
N596 N 0.39982 0.29975 0.87863 0.0
C597 C 0.40144 0.33596 0.89348 0.0
C598 C 0.4056 0.33956 0.76993 0.0
Eu599 Eu 0.39583 0.26308 0.96817 0.0
N600 N 0.39998 0.22987 0.85596 0.0
C601 C 0.40106 0.19536 0.84707 0.0
C602 C 0.40578 0.19528 0.72296 0.0
C603 C 0.40373 0.1775 0.78059 0.0
H604 H 0.40133 0.35021 0.94749 0.0
H605 H 0.4044 0.15009 0.77425 0.0
H606 H 0.40986 0.23736 0.62393 0.0
H607 H 0.40494 0.38455 0.85161 0.0
H608 H 0.40032 0.18126 0.89092 0.0
H609 H 0.35667 0.32429 0.22059 0.0
H610 H 0.40789 0.18136 0.67152 0.0
H611 H 0.35267 0.14086 0.95357 0.0
H612 H 0.36113 0.30502 0.09578 0.0
H613 H 0.34597 0.09322 0.02308 0.0
H614 H 0.40972 0.30064 0.64444 0.0
H615 H 0.3516 0.28076 0.30146 0.0
H616 H 0.34778 0.21757 0.31802 0.0
H617 H 0.40769 0.35531 0.72819 0.0
H618 H 0.34531 0.15455 0.26478 0.0
N619 N 0.35927 0.25066 0.10403 0.0
C620 C 0.35921 0.28544 0.12954 0.0
C621 C 0.35364 0.27199 0.24619 0.0
C622 C 0.35311 0.23622 0.21922 0.0
C623 C 0.35651 0.29662 0.20078 0.0
C624 C 0.35586 0.22616 0.14675 0.0
H625 H 0.34451 0.10791 0.15482 0.0
N626 N 0.35614 0.18205 0.04567 0.0
C627 C 0.34848 0.1205 0.05043 0.0
C628 C 0.3545 0.19078 0.11696 0.0
C629 C 0.35238 0.1476 1.01137 0.0
C630 C 0.34769 0.1289 0.12471 0.0
C631 C 0.35033 0.16444 0.15861 0.0
O632 O 0.34693 0.20044 0.92641 0.0
O633 O 0.37794 0.24964 0.90831 0.0
O634 O 0.38804 0.3109 1.00022 0.0
O635 O 0.36762 0.28849 0.97889 0.0
O636 O 0.36548 0.2032 0.8684 0.0
O637 O 0.34934 0.25616 0.96777 0.0
O638 O 0.41214 0.30139 1.00918 0.0
O639 O 0.38155 0.24403 0.04243 0.0
O640 O 0.37245 0.18221 0.96619 0.0
O641 O 0.39252 0.2075 0.99516 0.0
O642 O 0.39496 0.28669 0.08639 0.0
O643 O 0.41241 0.24588 0.98458 0.0
C644 C 0.37445 0.22624 0.85245 0.0
C645 C 0.32979 0.22141 0.96561 0.0
C646 C 0.30862 0.22222 0.95579 0.0
C647 C 0.3201 0.22698 0.92713 0.0
C648 C 0.30702 0.21145 0.02283 0.0
C649 C 0.32788 0.2107 0.03223 0.0
C650 C 0.31658 0.20572 0.06055 0.0
C651 C 0.37706 0.31503 0.99377 0.0
C652 C 0.3419 0.22744 0.93718 0.0
C653 C 0.34834 0.1744 0.23178 0.0
C654 C 0.34969 0.21025 0.262 0.0
C655 C 0.38536 0.26534 0.10044 0.0
C656 C 0.43013 0.28696 0.96657 0.0
C657 C 0.4406 0.2793 0.99214 0.0
C658 C 0.45156 0.28969 0.95963 0.0
C659 C 0.45181 0.3067 0.90012 0.0
C660 C 0.43074 0.30448 0.90772 0.0
C661 C 0.44146 0.31391 0.87436 0.0
C662 C 0.38336 0.17987 0.98262 0.0
C663 C 0.41875 0.27806 1.00292 0.0
H664 H 0.32154 0.2355 0.8758 0.0
H665 H 0.29831 0.20696 0.04579 0.0
H666 H 0.33512 0.20619 0.06249 0.0
H667 H 0.31523 0.19733 0.11198 0.0
H668 H 0.44029 0.26633 0.03828 0.0
H669 H 0.46005 0.31449 0.87346 0.0
H670 H 0.423 0.31152 0.88803 0.0
H671 H 0.44177 0.32729 0.82889 0.0
C672 C 0.21346 0.25518 0.7053 0.0
C673 C 0.21145 0.23991 0.63221 0.0
C674 C 0.22368 0.2528 0.74274 0.0
C675 C 0.24815 0.20348 0.73274 0.0
H676 H 0.26537 0.28752 0.86022 0.0
C677 C 0.29588 0.21378 0.8432 0.0
C678 C 0.29818 0.22787 0.91663 0.0
C679 C 0.28538 0.21603 0.80872 0.0
C680 C 0.26062 0.26371 0.82525 0.0
H681 H 0.21828 0.20854 0.54236 0.0
H682 H 0.23605 0.20489 0.60669 0.0
H683 H 0.24646 0.28821 0.80321 0.0
H684 H 0.29151 0.25692 1.01044 0.0
H685 H 0.27324 0.26069 0.95065 0.0
H686 H 0.26236 0.17908 0.75431 0.0
C687 C 0.22979 0.21862 0.63559 0.0
C688 C 0.24974 0.26405 0.79277 0.0
C689 C 0.21963 0.22104 0.59838 0.0
C690 C 0.28995 0.24543 0.95399 0.0
C691 C 0.27951 0.24786 0.91953 0.0
C692 C 0.25904 0.20318 0.765 0.0
C693 C 0.23208 0.23489 0.70801 0.0
C694 C 0.24337 0.23398 0.74577 0.0
C695 C 0.27698 0.23269 0.84674 0.0
C696 C 0.26545 0.23332 0.81149 0.0
H697 H 0.20735 0.26997 0.73287 0.0
H698 H 0.22506 0.26522 0.79875 0.0
H699 H 0.24342 0.17961 0.69787 0.0
H700 H 0.302 0.19996 0.81297 0.0
H701 H 0.28379 0.20449 0.75233 0.0
C702 C 0.72152 0.24013 0.9414 0.0
C703 C 0.71422 0.26087 0.91868 0.0
C704 C 0.73167 0.23477 0.90418 0.0
C705 C 0.74914 0.21223 0.79412 0.0
H706 H 0.76988 0.29196 0.73054 0.0
C707 C 0.78794 0.19613 0.60584 0.0
C708 C 0.79871 0.22167 0.6186 0.0
C709 C 0.77789 0.20068 0.64491 0.0
C710 C 0.76424 0.2695 0.74849 0.0
H711 H 0.71181 0.29176 0.83803 0.0
H712 H 0.72957 0.28223 0.77246 0.0
H713 H 0.75158 0.29989 0.79092 0.0
H714 H 0.80744 0.27174 0.68362 0.0
H715 H 0.78981 0.27976 0.7525 0.0
H716 H 0.76178 0.18187 0.7522 0.0
C717 C 0.72745 0.27036 0.81964 0.0
C718 C 0.75366 0.27393 0.78226 0.0
C719 C 0.7172 0.27549 0.85667 0.0
C720 C 0.79928 0.25153 0.67283 0.0
C721 C 0.78916 0.25627 0.71166 0.0
C722 C 0.75965 0.20775 0.75997 0.0
C723 C 0.73486 0.25014 0.8433 0.0
C724 C 0.74598 0.24535 0.8056 0.0
C725 C 0.7783 0.231 0.69772 0.0
C726 C 0.76734 0.23629 0.73661 0.0
H727 H 0.71942 0.22823 0.98859 0.0
H728 H 0.73719 0.21927 0.92429 0.0
H729 H 0.7434 0.18957 0.81089 0.0
H730 H 0.78723 0.1727 0.56479 0.0
H731 H 0.76969 0.18082 0.63225 0.0
C732 C 0.28825 0.69792 0.09582 0.0
C733 C 0.29966 0.71757 0.12163 0.0
C734 C 0.27813 0.70163 0.13472 0.0
C735 C 0.26652 0.72261 0.30985 0.0
H736 H 0.24255 0.75588 0.21432 0.0
C737 C 0.22649 0.76321 0.46113 0.0
C738 C 0.21577 0.76113 0.42317 0.0
C739 C 0.23651 0.7556 0.42527 0.0
C740 C 0.24897 0.74582 0.24159 0.0
H741 H 0.30926 0.75528 0.21143 0.0
H742 H 0.2915 0.76038 0.28099 0.0
H743 H 0.26048 0.7467 0.15227 0.0
H744 H 0.20719 0.74733 0.31698 0.0
H745 H 0.22435 0.73175 0.25507 0.0
H746 H 0.25491 0.72005 0.39796 0.0
C747 C 0.29052 0.74267 0.2295 0.0
C748 C 0.25932 0.74095 0.20606 0.0
C749 C 0.30068 0.73956 0.18976 0.0
C750 C 0.21522 0.74923 0.34841 0.0
C751 C 0.22521 0.7409 0.31257 0.0
C752 C 0.25603 0.72667 0.34491 0.0
C753 C 0.27913 0.72432 0.20146 0.0
C754 C 0.26823 0.72955 0.23999 0.0
C755 C 0.23611 0.74473 0.35023 0.0
C756 C 0.2471 0.73864 0.3116 0.0
H757 H 0.28706 0.67978 0.04489 0.0
H758 H 0.26947 0.68676 0.11248 0.0
H759 H 0.27321 0.71338 0.33679 0.0
H760 H 0.22725 0.7713 0.51893 0.0
H761 H 0.24467 0.75932 0.45673 0.0
C762 C 0.72234 0.73558 0.09513 0.0
C763 C 0.71353 0.75059 0.1322 0.0
C764 C 0.73214 0.73053 0.13207 0.0
C765 C 0.75005 0.76471 0.30088 0.0
H766 H 0.7637 0.68263 0.24225 0.0
C767 C 0.78914 0.73869 0.45966 0.0
C768 C 0.79784 0.72379 0.42098 0.0
C769 C 0.7789 0.74223 0.4248 0.0
C770 C 0.7601 0.70596 0.25872 0.0
H771 H 0.70791 0.77095 0.23757 0.0
H772 H 0.72502 0.76178 0.30257 0.0
H773 H 0.74531 0.68623 0.18328 0.0
H774 H 0.80267 0.70173 0.31466 0.0
H775 H 0.78488 0.70858 0.25341 0.0
H776 H 0.76488 0.78459 0.37594 0.0
C777 C 0.7244 0.75432 0.24461 0.0
C778 C 0.74952 0.70796 0.22506 0.0
C779 C 0.71453 0.75921 0.20753 0.0
C780 C 0.79619 0.71348 0.34607 0.0
C781 C 0.78591 0.71699 0.3111 0.0
C782 C 0.76064 0.76275 0.33448 0.0
C783 C 0.73342 0.7404 0.20718 0.0
C784 C 0.74437 0.73742 0.2455 0.0
C785 C 0.77706 0.73105 0.35016 0.0
C786 C 0.76584 0.73339 0.31373 0.0
H787 H 0.72177 0.72832 0.03712 0.0
H788 H 0.73893 0.71999 0.10136 0.0
H789 H 0.74646 0.78808 0.31717 0.0
H790 H 0.7902 0.74738 0.5173 0.0
H791 H 0.77227 0.75293 0.45681 0.0
C792 C 0.13476 0.87545 0.55029 0.0
C793 C 0.12873 0.84845 0.49568 0.0
C794 C 0.13344 0.91025 0.55514 0.0
C795 C 0.12353 0.97011 0.44778 0.0
H796 H 0.12635 0.03222 0.63337 0.0
C797 C 0.1184 0.11735 0.49496 0.0
C798 C 0.12815 0.14122 0.53356 0.0
C799 C 0.11729 0.0807 0.48889 0.0
C800 C 0.12553 0.01512 0.58121 0.0
H801 H 0.11601 0.83667 0.40557 0.0
H802 H 0.11333 0.89707 0.41571 0.0
H803 H 0.12612 0.96965 0.62708 0.0
H804 H 0.14428 0.14538 0.59672 0.0
H805 H 0.14217 0.08177 0.5873 0.0
H806 H 0.12277 0.01599 0.4025 0.0
C807 C 0.11946 0.89163 0.45328 0.0
C808 C 0.12549 0.97929 0.57742 0.0
C809 C 0.12092 0.85684 0.44783 0.0
C810 C 0.1367 0.12775 0.56616 0.0
C811 C 0.13547 0.09133 0.56127 0.0
C812 C 0.12338 0.00593 0.45173 0.0
C813 C 0.12581 0.91893 0.5065 0.0
C814 C 0.12476 0.95641 0.51059 0.0
C815 C 0.12576 0.06744 0.52273 0.0
C816 C 0.12463 0.02886 0.51841 0.0
H817 H 0.14062 0.86985 0.58917 0.0
H818 H 0.13862 0.93044 0.59633 0.0
H819 H 0.1231 0.95354 0.39528 0.0
H820 H 0.11168 0.12697 0.46926 0.0
H821 H 0.10972 0.06274 0.4589 0.0
C822 C 0.87959 0.37289 0.50275 0.0
C823 C 0.88583 0.3627 0.55626 0.0
C824 C 0.88136 0.40825 0.49579 0.0
C825 C 0.89171 0.49922 0.59447 0.0
H826 H 0.88994 0.52132 0.40358 0.0
C827 C 0.89475 0.6418 0.53822 0.0
C828 C 0.88548 0.64458 0.49282 0.0
C829 C 0.89642 0.60852 0.54662 0.0
C830 C 0.89045 0.51554 0.4572 0.0
H831 H 0.89908 0.38179 0.64354 0.0
H832 H 0.90233 0.44419 0.63069 0.0
H833 H 0.89048 0.46124 0.41728 0.0
H834 H 0.87093 0.61487 0.41924 0.0
H835 H 0.87393 0.55684 0.43333 0.0
H836 H 0.89161 0.5538 0.63399 0.0
C837 C 0.89591 0.42453 0.59485 0.0
C838 C 0.89074 0.48114 0.46515 0.0
C839 C 0.8941 0.38883 0.60198 0.0
C840 C 0.87807 0.61354 0.45505 0.0
C841 C 0.87985 0.58035 0.46267 0.0
C842 C 0.89154 0.53384 0.58643 0.0
C843 C 0.88954 0.43458 0.54153 0.0
C844 C 0.89101 0.47227 0.53384 0.0
C845 C 0.889 0.57749 0.50877 0.0
C846 C 0.89057 0.54205 0.51769 0.0
H847 H 0.87328 0.35353 0.46573 0.0
H848 H 0.87613 0.41497 0.45502 0.0
H849 H 0.89185 0.49326 0.6481 0.0
H850 H 0.90056 0.66532 0.56828 0.0
H851 H 0.90356 0.60703 0.58229 0.0
C852 C 0.883 0.87882 0.54435 0.0
C853 C 0.8746 0.85064 0.50468 0.0
C854 C 0.88197 0.91368 0.54744 0.0
C855 C 0.86139 0.97046 0.51959 0.0
H856 H 0.891 0.03779 0.5042 0.0
C857 C 0.86533 0.12005 0.50438 0.0
C858 C 0.87458 0.14365 0.54801 0.0
C859 C 0.86427 0.08337 0.49666 0.0
C860 C 0.88267 0.01934 0.50891 0.0
H861 H 0.85821 0.83674 0.43965 0.0
H862 H 0.85645 0.89815 0.44453 0.0
H863 H 0.89104 0.97534 0.49459 0.0
H864 H 0.88932 0.14718 0.62208 0.0
H865 H 0.88761 0.0837 0.60752 0.0
H866 H 0.85307 0.01501 0.53387 0.0
C867 C 0.86382 0.89309 0.47337 0.0
C868 C 0.88269 0.98357 0.5036 0.0
C869 C 0.86484 0.85798 0.47048 0.0
C870 C 0.88237 0.12985 0.58602 0.0
C871 C 0.88136 0.09342 0.57798 0.0
C872 C 0.86136 0.00645 0.52458 0.0
C873 C 0.87253 0.92133 0.51075 0.0
C874 C 0.87211 0.95881 0.51054 0.0
C875 C 0.87245 0.0698 0.53226 0.0
C876 C 0.87207 0.03129 0.52087 0.0
H877 H 0.89047 0.874 0.5727 0.0
H878 H 0.88864 0.93474 0.57841 0.0
H879 H 0.8531 0.95202 0.52524 0.0
H880 H 0.85912 0.12987 0.47481 0.0
H881 H 0.85729 0.06569 0.46119 0.0
C882 C 0.13166 0.61216 0.41541 0.0
C883 C 0.13884 0.64169 0.45976 0.0
C884 C 0.13153 0.57782 0.42634 0.0
C885 C 0.13738 0.50716 0.43975 0.0
H886 H 0.13726 0.49193 0.63672 0.0
C887 C 0.14295 0.37534 0.51094 0.0
C888 C 0.13552 0.3612 0.56261 0.0
C889 C 0.14341 0.40963 0.49937 0.0
C890 C 0.1372 0.4957 0.58145 0.0
H891 H 0.15206 0.65798 0.54767 0.0
H892 H 0.15196 0.59824 0.56592 0.0
H893 H 0.1381 0.55133 0.61232 0.0
H894 H 0.12313 0.37289 0.64489 0.0
H895 H 0.12375 0.43287 0.62393 0.0
H896 H 0.13632 0.45149 0.40881 0.0
C897 C 0.1462 0.60168 0.52385 0.0
C898 C 0.13782 0.5298 0.56744 0.0
C899 C 0.14634 0.63597 0.51286 0.0
C900 C 0.12875 0.38264 0.60374 0.0
C901 C 0.12922 0.41717 0.59226 0.0
C902 C 0.1368 0.47311 0.45375 0.0
C903 C 0.13863 0.57223 0.48169 0.0
C904 C 0.13796 0.53595 0.49642 0.0
C905 C 0.13646 0.43087 0.53926 0.0
C906 C 0.13675 0.467 0.52476 0.0
H907 H 0.12596 0.61558 0.37307 0.0
H908 H 0.12559 0.55574 0.39285 0.0
H909 H 0.13754 0.511 0.38448 0.0
H910 H 0.14825 0.35964 0.47786 0.0
H911 H 0.14923 0.41953 0.45902 0.0
C912 C 0.64679 0.63345 1.00007 0.0
C913 C 0.63844 0.64575 0.04647 0.0
C914 C 0.64817 0.59855 0.99363 0.0
C915 C 0.64047 0.51914 0.08209 0.0
H916 H 0.6456 0.46843 0.89349 0.0
C917 C 0.62906 0.36751 1.00405 0.0
C918 C 0.63814 0.35129 0.97413 0.0
C919 C 0.63045 0.40417 1.01398 0.0
C920 C 0.64431 0.48245 0.94655 0.0
H921 H 0.62545 0.63145 0.12539 0.0
H922 H 0.62726 0.57038 0.1111 0.0
H923 H 0.64539 0.53133 0.90957 0.0
H924 H 0.65571 0.36077 0.92998 0.0
H925 H 0.65796 0.42533 0.94539 0.0
H926 H 0.63876 0.46958 0.1178 0.0
C927 C 0.63295 0.58765 0.0804 0.0
C928 C 0.64423 0.51852 0.95602 0.0
C929 C 0.63173 0.62264 0.08766 0.0
C930 C 0.64858 0.37256 0.95323 0.0
C931 C 0.64986 0.40936 0.96186 0.0
C932 C 0.64034 0.48302 0.07228 0.0
C933 C 0.64115 0.57501 0.03303 0.0
C934 C 0.64213 0.53726 0.02378 0.0
C935 C 0.64084 0.42543 0.9931 0.0
C936 C 0.64211 0.46428 1.0043 0.0
H937 H 0.65223 0.65064 0.96812 0.0
H938 H 0.65475 0.5901 0.95775 0.0
H939 H 0.63914 0.53274 0.13543 0.0
H940 H 0.62094 0.35194 0.02122 0.0
H941 H 0.62333 0.41595 0.03763 0.0
C942 C 0.3943 0.89129 0.1127 0.0
C943 C 0.38615 0.86457 0.06738 0.0
C944 C 0.3959 0.92682 0.10456 0.0
C945 C 0.3904 0.98169 0.97202 0.0
H946 H 0.39125 0.05578 0.13825 0.0
C947 C 0.37785 0.11366 0.95492 0.0
C948 C 0.38531 0.14491 0.99148 0.0
C949 C 0.37952 0.08062 0.96449 0.0
C950 C 0.39117 0.03541 0.0914 0.0
H951 H 0.37357 0.85431 0.97662 0.0
H952 H 0.37604 0.91537 0.96431 0.0
H953 H 0.39163 0.9957 0.1551 0.0
H954 H 0.40036 0.16615 0.06699 0.0
H955 H 0.40318 0.10817 0.08435 0.0
H956 H 0.38948 0.021 0.90842 0.0
C957 C 0.38135 0.90925 1.0055 0.0
C958 C 0.39143 0.00105 0.10101 0.0
C959 C 0.3798 0.87408 1.01341 0.0
C960 C 0.39451 0.14247 0.03777 0.0
C961 C 0.39608 0.10936 0.04813 0.0
C962 C 0.39002 0.01582 0.9625 0.0
C963 C 0.38943 0.93614 0.05064 0.0
C964 C 0.39075 0.97359 0.04135 0.0
C965 C 0.38861 0.07812 1.0114 0.0
C966 C 0.39015 0.04285 0.02203 0.0
H967 H 0.39936 0.88481 0.15458 0.0
H968 H 0.40225 0.94692 0.14 0.0
H969 H 0.39017 0.96141 0.92483 0.0
H970 H 0.37075 0.11472 0.91848 0.0
H971 H 0.37356 0.05696 0.93595 0.0
C972 C 0.38396 0.37953 0.04324 0.0
C973 C 0.37532 0.35173 1.00423 0.0
C974 C 0.38259 0.41439 0.05228 0.0
C975 C 0.36867 0.47349 0.97042 0.0
H976 H 0.3765 0.53554 0.1552 0.0
C977 C 0.36702 0.62226 1.01605 0.0
C978 C 0.37657 0.64573 0.05724 0.0
C979 C 0.36547 0.58561 1.01151 0.0
C980 C 0.37437 0.51866 0.10308 0.0
H981 H 0.35839 0.33863 0.94479 0.0
H982 H 0.35606 0.40002 0.96011 0.0
H983 H 0.37621 0.47266 0.14399 0.0
H984 H 0.3917 0.64905 0.12816 0.0
H985 H 0.38928 0.58553 0.11833 0.0
H986 H 0.36719 0.51969 0.92895 0.0
C987 C 0.36389 0.39461 0.98353 0.0
C988 C 0.37416 0.48262 0.09678 0.0
C989 C 0.36519 0.35953 0.9751 0.0
C990 C 0.38441 0.63178 0.0946 0.0
C991 C 0.38289 0.59527 0.08994 0.0
C992 C 0.36894 0.50966 0.97662 0.0
C993 C 0.37259 0.42237 0.02223 0.0
C994 C 0.37154 0.45978 0.03014 0.0
C995 C 0.37341 0.57169 0.04833 0.0
C996 C 0.37203 0.53279 0.04276 0.0
H997 H 0.39181 0.37439 0.06696 0.0
H998 H 0.38951 0.43525 0.08171 0.0
H999 H 0.3667 0.45653 0.91826 0.0
H1000 H 0.36076 0.63213 0.98691 0.0
H1001 H 0.358 0.56821 0.97963 0.0
C1002 C 0.61826 0.11232 0.98884 0.0
C1003 C 0.62835 0.12911 0.95623 0.0
C1004 C 0.61687 0.07709 0.99737 0.0
C1005 C 0.62623 0.99478 0.92704 0.0
H1006 H 0.62031 0.97197 0.11694 0.0
C1007 C 0.63665 0.87006 0.99945 0.0
C1008 C 0.62928 0.85088 0.04495 0.0
C1009 C 0.63498 0.90263 0.9881 0.0
C1010 C 0.62173 0.9777 0.06331 0.0
H1011 H 0.64484 0.12237 0.90624 0.0
H1012 H 0.64235 0.06048 0.92007 0.0
H1013 H 0.62026 0.03165 0.09628 0.0
H1014 H 0.61416 0.85097 0.11348 0.0
H1015 H 0.61105 0.90831 0.09247 0.0
H1016 H 0.6277 0.94115 0.89359 0.0
C1017 C 0.6355 0.07457 0.93895 0.0
C1018 C 0.62174 0.01189 0.05157 0.0
C1019 C 0.63696 0.10996 0.93135 0.0
C1020 C 0.62004 0.86515 0.07844 0.0
C1021 C 0.6183 0.89801 0.06662 0.0
C1022 C 0.62609 0.96061 0.93849 0.0
C1023 C 0.62549 0.05791 0.9727 0.0
C1024 C 0.62429 0.02094 0.98372 0.0
C1025 C 0.62573 0.91699 0.02085 0.0
C1026 C 0.62419 0.9519 1.00723 0.0
H1027 H 0.61166 0.12678 1.01031 0.0
H1028 H 0.60908 0.06488 0.02354 0.0
H1029 H 0.628 0.00089 0.87392 0.0
H1030 H 0.64373 0.85986 0.97149 0.0
H1031 H 0.64105 0.91671 0.95379 0.0
C1032 C 0.13264 0.29222 0.35238 0.0
C1033 C 0.12933 0.25991 0.37701 0.0
C1034 C 0.13392 0.29315 0.27871 0.0
C1035 C 0.12564 0.2364 0.09439 0.0
H1036 H 0.14766 0.31395 0.03186 0.0
C1037 C 0.13663 0.23849 0.79247 0.0
C1038 C 0.13653 0.27004 0.76738 0.0
C1039 C 0.13583 0.23702 0.8662 0.0
C1040 C 0.14139 0.29219 0.0483 0.0
H1041 H 0.12372 0.20328 0.34244 0.0
H1042 H 0.1264 0.20434 0.21466 0.0
H1043 H 0.14654 0.31114 0.15937 0.0
H1044 H 0.13635 0.32541 0.8009 0.0
H1045 H 0.13495 0.323 0.92954 0.0
H1046 H 0.12084 0.21701 0.98246 0.0
C1047 C 0.12814 0.22934 0.25176 0.0
C1048 C 0.14068 0.2906 0.12202 0.0
C1049 C 0.12683 0.22854 0.32558 0.0
C1050 C 0.13614 0.30049 0.81831 0.0
C1051 C 0.13543 0.29913 0.89212 0.0
C1052 C 0.12652 0.2377 0.02059 0.0
C1053 C 0.13168 0.2617 0.22658 0.0
C1054 C 0.13272 0.26281 0.14687 0.0
C1055 C 0.13518 0.2673 0.9173 0.0
C1056 C 0.13435 0.26573 0.9963 0.0
H1057 H 0.13404 0.31695 0.3902 0.0
H1058 H 0.1363 0.3188 0.26281 0.0
H1059 H 0.1192 0.21485 0.11003 0.0
H1060 H 0.13743 0.21494 0.75499 0.0
H1061 H 0.13587 0.21219 0.88332 0.0
C1062 C 0.88492 0.21204 0.30898 0.0
C1063 C 0.88275 0.23882 0.36406 0.0
C1064 C 0.88405 0.21488 0.23612 0.0
C1065 C 0.88423 0.28139 0.1152 0.0
H1066 H 0.87244 0.19801 0.97026 0.0
C1067 C 0.87479 0.29207 0.81807 0.0
C1068 C 0.87689 0.2657 0.76192 0.0
C1069 C 0.87579 0.28867 0.89044 0.0
C1070 C 0.87592 0.22162 1.00958 0.0
H1071 H 0.87845 0.29052 0.38466 0.0
H1072 H 0.87667 0.29529 0.25826 0.0
H1073 H 0.87328 0.19253 0.09637 0.0
H1074 H 0.88119 0.21405 0.73866 0.0
H1075 H 0.88314 0.20817 0.86473 0.0
H1076 H 0.88689 0.31049 0.02854 0.0
C1077 C 0.87905 0.27186 0.27102 0.0
C1078 C 0.87639 0.21847 0.08258 0.0
C1079 C 0.87991 0.26894 0.34396 0.0
C1080 C 0.87977 0.23528 0.7804 0.0
C1081 C 0.88074 0.23177 0.85304 0.0
C1082 C 0.88377 0.28454 0.04227 0.0
C1083 C 0.88115 0.24491 0.21551 0.0
C1084 C 0.88053 0.2483 0.13698 0.0
C1085 C 0.87876 0.25843 0.90961 0.0
C1086 C 0.87957 0.25475 0.98788 0.0
H1087 H 0.88734 0.18877 0.32236 0.0
H1088 H 0.88596 0.19375 0.19594 0.0
H1089 H 0.88771 0.30502 0.15447 0.0
H1090 H 0.87234 0.31555 0.80592 0.0
H1091 H 0.87394 0.30958 0.93139 0.0
C1092 C 0.13569 0.72188 0.23363 0.0
C1093 C 0.13812 0.75564 0.27752 0.0
C1094 C 0.13454 0.71818 0.15821 0.0
C1095 C 0.13946 0.71917 0.99763 0.0
H1096 H 0.12486 0.78413 0.91586 0.0
C1097 C 0.13 0.70147 0.68955 0.0
C1098 C 0.13108 0.73162 0.6576 0.0
C1099 C 0.13106 0.70444 0.76439 0.0
C1100 C 0.12913 0.76603 0.93742 0.0
H1101 H 0.14165 0.81185 0.27622 0.0
H1102 H 0.13955 0.8056 0.14627 0.0
H1103 H 0.12578 0.78791 0.04566 0.0
H1104 H 0.13359 0.78868 0.67999 0.0
H1105 H 0.13566 0.79421 0.81086 0.0
H1106 H 0.14286 0.69739 0.88943 0.0
C1107 C 0.13825 0.7818 0.16929 0.0
C1108 C 0.12963 0.76813 1.0124 0.0
C1109 C 0.13951 0.78544 0.24412 0.0
C1110 C 0.13302 0.765 0.70277 0.0
C1111 C 0.13403 0.76802 0.77803 0.0
C1112 C 0.13897 0.71711 0.92261 0.0
C1113 C 0.13579 0.74815 0.12471 0.0
C1114 C 0.13484 0.74482 0.04401 0.0
C1115 C 0.13304 0.73774 0.81028 0.0
C1116 C 0.1338 0.7405 0.89098 0.0
H1117 H 0.13487 0.69842 0.25749 0.0
H1118 H 0.13258 0.69177 0.12621 0.0
H1119 H 0.14372 0.70107 1.01933 0.0
H1120 H 0.12823 0.67531 0.65634 0.0
H1121 H 0.12998 0.68037 0.7863 0.0
C1122 C 0.88367 0.78842 0.73737 0.0
C1123 C 0.88287 0.75901 0.68176 0.0
C1124 C 0.88248 0.78425 0.80938 0.0
C1125 C 0.88508 0.72271 0.93453 0.0
H1126 H 0.86747 0.78038 0.06101 0.0
C1127 C 0.87563 0.70107 0.22778 0.0
C1128 C 0.8758 0.73071 0.28196 0.0
C1129 C 0.87642 0.70435 0.15509 0.0
C1130 C 0.87258 0.76434 0.02703 0.0
H1131 H 0.88114 0.70219 0.65911 0.0
H1132 H 0.87902 0.69466 0.78505 0.0
H1133 H 0.86887 0.78547 0.9346 0.0
H1134 H 0.876 0.78673 0.30138 0.0
H1135 H 0.8776 0.79285 0.17483 0.0
H1136 H 0.88892 0.70185 0.02696 0.0
C1137 C 0.88034 0.72108 0.77286 0.0
C1138 C 0.87335 0.76722 0.954 0.0
C1139 C 0.8814 0.72528 0.70043 0.0
C1140 C 0.87622 0.76356 0.26118 0.0
C1141 C 0.87697 0.76689 0.18825 0.0
C1142 C 0.88435 0.71994 1.00766 0.0
C1143 C 0.88077 0.75054 0.8286 0.0
C1144 C 0.87965 0.74653 0.9064 0.0
C1145 C 0.87718 0.73735 0.13378 0.0
C1146 C 0.87807 0.74068 0.05539 0.0
H1147 H 0.88514 0.81486 0.72498 0.0
H1148 H 0.88314 0.80771 0.85026 0.0
H1149 H 0.89016 0.70667 0.90031 0.0
H1150 H 0.87497 0.67519 0.2418 0.0
H1151 H 0.87625 0.68072 0.11546 0.0
C1152 C 0.63429 0.73152 0.27581 0.0
C1153 C 0.63745 0.76536 0.25713 0.0
C1154 C 0.63327 0.72751 0.34845 0.0
C1155 C 0.63079 0.77838 0.53545 0.0
H1156 H 0.64036 0.69921 0.59622 0.0
C1157 C 0.63386 0.76791 0.84011 0.0
C1158 C 0.63053 0.73403 0.85848 0.0
C1159 C 0.63499 0.77203 0.76757 0.0
C1160 C 0.63751 0.72136 0.58052 0.0
H1161 H 0.64246 0.82137 0.30109 0.0
H1162 H 0.64077 0.81464 0.42663 0.0
H1163 H 0.6413 0.70496 0.47015 0.0
H1164 H 0.62539 0.6781 0.81412 0.0
H1165 H 0.62732 0.68501 0.68876 0.0
H1166 H 0.62701 0.79479 0.64586 0.0
C1167 C 0.63873 0.791 0.38565 0.0
C1168 C 0.63803 0.72464 0.5075 0.0
C1169 C 0.63977 0.79493 0.31327 0.0
C1170 C 0.62821 0.70454 0.80217 0.0
C1171 C 0.62938 0.70858 0.72991 0.0
C1172 C 0.63027 0.77511 0.60849 0.0
C1173 C 0.63549 0.75722 0.40496 0.0
C1174 C 0.63469 0.75324 0.48335 0.0
C1175 C 0.63274 0.7424 0.7109 0.0
C1176 C 0.6336 0.74649 0.6326 0.0
H1177 H 0.63273 0.70806 0.23431 0.0
H1178 H 0.63065 0.701 0.36015 0.0
H1179 H 0.62793 0.80052 0.51977 0.0
H1180 H 0.63542 0.79132 0.8817 0.0
H1181 H 0.6377 0.79856 0.75606 0.0
C1182 C 0.38156 0.77161 0.85538 0.0
C1183 C 0.38458 0.74176 0.87566 0.0
C1184 C 0.38065 0.77438 0.78238 0.0
C1185 C 0.37813 0.7206 0.59427 0.0
H1186 H 0.38778 0.81261 0.53904 0.0
C1187 C 0.38102 0.73683 0.29158 0.0
C1188 C 0.37781 0.76675 0.27284 0.0
C1189 C 0.38208 0.73355 0.3643 0.0
C1190 C 0.38489 0.78664 0.55312 0.0
H1191 H 0.38952 0.69219 0.83427 0.0
H1192 H 0.38805 0.69692 0.70776 0.0
H1193 H 0.38886 0.8076 0.66513 0.0
H1194 H 0.37273 0.81587 0.31648 0.0
H1195 H 0.37452 0.81033 0.44211 0.0
H1196 H 0.37417 0.69967 0.48212 0.0
C1197 C 0.38602 0.7179 0.74781 0.0
C1198 C 0.38551 0.78375 0.62614 0.0
C1199 C 0.38694 0.71521 0.82073 0.0
C1200 C 0.37545 0.7928 0.32882 0.0
C1201 C 0.37655 0.78965 0.40127 0.0
C1202 C 0.37752 0.72349 0.52118 0.0
C1203 C 0.38288 0.74757 0.72699 0.0
C1204 C 0.38212 0.75068 0.64836 0.0
C1205 C 0.37988 0.75997 0.4207 0.0
C1206 C 0.38085 0.75659 0.49906 0.0
H1207 H 0.37997 0.79304 0.896 0.0
H1208 H 0.3781 0.79754 0.76949 0.0
H1209 H 0.37524 0.69464 0.60838 0.0
H1210 H 0.38264 0.71583 0.24997 0.0
H1211 H 0.38475 0.71037 0.37621 0.0
C1212 C 0.62989 0.25715 0.20571 0.0
C1213 C 0.63063 0.22692 0.15535 0.0
C1214 C 0.63101 0.2576 0.2799 0.0
C1215 C 0.63931 0.20485 0.4147 0.0
H1216 H 0.62357 0.26614 0.54619 0.0
C1217 C 0.6324 0.19303 0.71693 0.0
C1218 C 0.63548 0.22474 0.76731 0.0
C1219 C 0.63189 0.19347 0.64281 0.0
C1220 C 0.62807 0.24896 0.51027 0.0
H1221 H 0.63219 0.17246 0.14351 0.0
H1222 H 0.63387 0.17256 0.272 0.0
H1223 H 0.62245 0.26636 0.41784 0.0
H1224 H 0.64133 0.28164 0.7788 0.0
H1225 H 0.64003 0.28262 0.64967 0.0
H1226 H 0.64444 0.18651 0.50793 0.0
C1227 C 0.63306 0.19686 0.25519 0.0
C1228 C 0.62753 0.24922 0.43608 0.0
C1229 C 0.63206 0.19663 0.18102 0.0
C1230 C 0.63843 0.25686 0.74156 0.0
C1231 C 0.63777 0.25738 0.66751 0.0
C1232 C 0.63962 0.20406 0.48875 0.0
C1233 C 0.63252 0.22734 0.30644 0.0
C1234 C 0.63317 0.22725 0.38654 0.0
C1235 C 0.63452 0.22568 0.61695 0.0
C1236 C 0.63405 0.2262 0.53771 0.0
H1237 H 0.62824 0.28038 0.18768 0.0
H1238 H 0.63068 0.2819 0.3162 0.0
H1239 H 0.64405 0.18803 0.37982 0.0
H1240 H 0.63044 0.16781 0.73498 0.0
H1241 H 0.62937 0.16855 0.60562 0.0
C1242 C 0.38159 0.22562 0.19427 0.0
C1243 C 0.38319 0.25943 0.17574 0.0
C1244 C 0.38051 0.22138 0.26668 0.0
C1245 C 0.37362 0.26757 0.44784 0.0
H1246 H 0.38897 0.20176 0.52084 0.0
C1247 C 0.37627 0.26377 0.75505 0.0
C1248 C 0.37592 0.23099 0.77599 0.0
C1249 C 0.37702 0.26704 0.68208 0.0
C1250 C 0.38445 0.21997 0.50154 0.0
H1251 H 0.38574 0.31532 0.21924 0.0
H1252 H 0.38368 0.30808 0.34449 0.0
H1253 H 0.39028 0.20664 0.39424 0.0
H1254 H 0.37515 0.17549 0.73603 0.0
H1255 H 0.37641 0.1809 0.60961 0.0
H1256 H 0.36769 0.28076 0.55472 0.0
C1257 C 0.38293 0.28463 0.30349 0.0
C1258 C 0.38523 0.22278 0.42843 0.0
C1259 C 0.38414 0.28884 0.2315 0.0
C1260 C 0.37576 0.20132 0.72188 0.0
C1261 C 0.37655 0.20455 0.64914 0.0
C1262 C 0.37278 0.26463 0.52083 0.0
C1263 C 0.38106 0.25084 0.32254 0.0
C1264 C 0.37988 0.24677 0.4003 0.0
C1265 C 0.37727 0.2375 0.62768 0.0
C1266 C 0.3782 0.24082 0.54925 0.0
H1267 H 0.38121 0.20251 0.15285 0.0
H1268 H 0.37907 0.19491 0.27875 0.0
H1269 H 0.36919 0.28597 0.42841 0.0
H1270 H 0.37604 0.28695 0.79517 0.0
H1271 H 0.37762 0.29298 0.6686 0.0
C1272 C 0.04743 0.23026 0.51197 0.0
C1273 C 0.05062 0.22816 0.58248 0.0
C1274 C 0.0366 0.23895 0.49678 0.0
C1275 C 0.01108 0.27397 0.58517 0.0
H1276 H 0.99412 0.22544 0.4066 0.0
C1277 C 0.96035 0.262 0.52923 0.0
C1278 C 0.95701 0.26757 0.46139 0.0
C1279 C 0.97215 0.26071 0.54486 0.0
C1280 C 0.99878 0.23943 0.45649 0.0
H1281 H 0.04511 0.23596 0.69288 0.0
H1282 H 0.0262 0.24917 0.66628 0.0
H1283 H 0.01398 0.21718 0.43095 0.0
H1284 H 0.96383 0.27819 0.35851 0.0
H1285 H 0.98417 0.27478 0.38513 0.0
H1286 H 0.99556 0.29503 0.61142 0.0
C1287 C 0.03205 0.24464 0.62237 0.0
C1288 C 0.01025 0.2349 0.4704 0.0
C1289 C 0.04289 0.23641 0.63759 0.0
C1290 C 0.96591 0.27284 0.41062 0.0
C1291 C 0.97762 0.27106 0.42589 0.0
C1292 C 0.99953 0.27804 0.57167 0.0
C1293 C 0.02861 0.24557 0.55159 0.0
C1294 C 0.01659 0.25196 0.53514 0.0
C1295 C 0.98087 0.26457 0.49284 0.0
C1296 C 0.99323 0.26076 0.50722 0.0
H1297 H 0.05309 0.22405 0.46797 0.0
H1298 H 0.03447 0.24011 0.44176 0.0
H1299 H 0.01568 0.28824 0.63497 0.0
H1300 H 0.95379 0.25746 0.56956 0.0
H1301 H 0.97437 0.25549 0.59687 0.0
C1302 C 0.97282 0.80902 0.49989 0.0
C1303 C 0.96246 0.78185 0.48778 0.0
C1304 C 0.98385 0.8015 0.51259 0.0
C1305 C 0.99877 0.73348 0.56031 0.0
H1306 H 0.02494 0.78169 0.4597 0.0
C1307 C 0.0445 0.69407 0.5398 0.0
C1308 C 0.05478 0.72161 0.54782 0.0
C1309 C 0.03318 0.70117 0.53404 0.0
C1310 C 0.01778 0.7683 0.48889 0.0
H1311 H 0.95545 0.7257 0.48279 0.0
H1312 H 0.97483 0.71231 0.50454 0.0
H1313 H 1.00529 0.79431 0.45002 0.0
H1314 H 0.06114 0.77833 0.55607 0.0
H1315 H 0.04141 0.79073 0.54573 0.0
H1316 H 0.01132 0.70729 0.59874 0.0
C1317 C 0.97439 0.73955 0.50465 0.0
C1318 C 1.00649 0.77555 0.48342 0.0
C1319 C 0.96329 0.74716 0.49225 0.0
C1320 C 0.05345 0.75642 0.54897 0.0
C1321 C 0.04211 0.76352 0.54315 0.0
C1322 C 0.01009 0.72618 0.56573 0.0
C1323 C 0.98485 0.76654 0.51315 0.0
C1324 C 0.99684 0.75839 0.51931 0.0
C1325 C 0.03183 0.736 0.53596 0.0
C1326 C 0.01975 0.74358 0.53021 0.0
H1327 H 0.97242 0.83612 0.49796 0.0
H1328 H 0.99165 0.8231 0.52088 0.0
H1329 H 0.99159 0.72003 0.58921 0.0
H1330 H 0.04519 0.66686 0.53742 0.0
H1331 H 0.02548 0.67925 0.52722 0.0
C1332 C 0.55117 0.76364 1.00039 0.0
C1333 C 0.55337 0.75064 0.06239 0.0
C1334 C 0.5405 0.77445 0.99121 0.0
C1335 C 0.51341 0.79446 0.0872 0.0
H1336 H 0.49813 0.76141 0.89795 0.0
C1337 C 0.46252 0.77646 0.0324 0.0
C1338 C 0.45881 0.78549 0.96874 0.0
C1339 C 0.47457 0.77732 0.04602 0.0
C1340 C 0.50232 0.77126 0.95095 0.0
H1341 H 0.54652 0.74149 0.16573 0.0
H1342 H 0.52798 0.75957 0.14952 0.0
H1343 H 0.51844 0.75558 0.91754 0.0
H1344 H 0.46511 0.80442 0.87151 0.0
H1345 H 0.48599 0.80545 0.89485 0.0
H1346 H 0.49707 0.80904 0.12084 0.0
C1347 C 0.53441 0.76169 0.1078 0.0
C1348 C 0.51402 0.76806 0.96219 0.0
C1349 C 0.54504 0.75101 0.11694 0.0
C1350 C 0.46755 0.79646 0.9203 0.0
C1351 C 0.47956 0.79713 0.93371 0.0
C1352 C 0.50166 0.79741 0.07603 0.0
C1353 C 0.5318 0.77258 0.04391 0.0
C1354 C 0.51972 0.77924 0.03067 0.0
C1355 C 0.48322 0.7871 0.99623 0.0
C1356 C 0.49592 0.78555 1.00789 0.0
H1357 H 0.55738 0.76361 0.9573 0.0
H1358 H 0.53893 0.78335 0.94187 0.0
H1359 H 0.51753 0.80395 0.14043 0.0
H1360 H 0.45606 0.76753 0.07064 0.0
H1361 H 0.47705 0.76914 0.09446 0.0
C1362 C 0.46392 0.25039 0.99933 0.0
C1363 C 0.4629 0.28392 0.9875 0.0
C1364 C 0.47504 0.24454 1.01777 0.0
C1365 C 0.50544 0.29107 0.08914 0.0
H1366 H 0.51503 0.20813 0.98451 0.0
C1367 C 0.55037 0.25713 0.14985 0.0
C1368 C 0.55683 0.2453 0.09081 0.0
C1369 C 0.53869 0.26079 0.14035 0.0
C1370 C 0.5125 0.23149 1.01395 0.0
H1371 H 0.47254 0.33795 0.98915 0.0
H1372 H 0.49181 0.32788 0.02139 0.0
H1373 H 0.49488 0.21629 0.96555 0.0
H1374 H 0.556 0.22792 0.97535 0.0
H1375 H 0.53564 0.23478 0.95858 0.0
H1376 H 0.5231 0.30675 0.13631 0.0
C1377 C 0.48411 0.30603 1.01638 0.0
C1378 C 0.50091 0.23594 1.00378 0.0
C1379 C 0.47308 0.31175 0.99739 0.0
C1380 C 0.55132 0.23736 0.02189 0.0
C1381 C 0.5396 0.24089 1.01241 0.0
C1382 C 0.51699 0.28655 0.09958 0.0
C1383 C 0.48529 0.27224 0.02568 0.0
C1384 C 0.49728 0.26599 0.04068 0.0
C1385 C 0.53314 0.25266 0.07156 0.0
C1386 C 0.52071 0.25687 0.06164 0.0
H1387 H 0.45623 0.22844 0.99179 0.0
H1388 H 0.47563 0.21829 0.02527 0.0
H1389 H 0.50291 0.31438 0.11884 0.0
H1390 H 0.55438 0.26384 0.2036 0.0
H1391 H 0.53396 0.26965 0.18715 0.0
loop_
_geom_bond_atom_site_label_1
_geom_bond_atom_site_label_2
_geom_bond_distance
_geom_bond_site_symmetry_2
_ccdc_geom_bond_type
Eu0 N31 2.657 . S
Eu0 N38 2.609 . S
Eu0 O44 2.558 . S
Eu0 O45 2.612 . S
Eu0 O47 2.339 . S
Eu0 O48 2.563 . S
Eu0 O49 2.419 . S
Eu0 O51 2.380 . S
Eu0 O52 2.432 . S
Eu0 C64 2.848 . S
C1 C4 1.429 . S
C1 C5 1.411 . S
C1 N8 1.377 . S
C2 C4 1.420 . S
C2 C6 1.423 . S
C2 C14 1.392 . S
C3 C5 1.420 . S
C3 C6 1.351 . S
C3 H26 0.931 . S
C4 C1 1.429 . S
C4 C2 1.420 . S
C4 N12 1.362 . S
C5 C1 1.411 . S
C5 C3 1.420 . S
C5 C10 1.395 . S
C6 C2 1.423 . S
C6 C3 1.351 . S
C6 H18 0.930 . S
C7 C9 1.400 . S
C7 C10 1.386 . S
C7 H19 0.930 . S
N8 C1 1.377 . S
N8 C9 1.321 . S
N8 Eu11 2.609 . S
C9 C7 1.400 . S
C9 N8 1.321 . S
C9 H16 0.930 . S
C10 C5 1.395 . S
C10 C7 1.386 . S
C10 H29 0.930 . S
Eu11 N8 2.609 . S
Eu11 N12 2.657 . S
Eu11 O45 2.380 . S
Eu11 O46 2.432 . S
Eu11 O50 2.558 . S
Eu11 O51 2.612 . S
Eu11 O53 2.339 . S
Eu11 O54 2.563 . S
Eu11 O55 2.419 . S
Eu11 C75 2.848 . S
N12 C4 1.362 . S
N12 Eu11 2.657 . S
N12 C13 1.334 . S
C13 N12 1.334 . S
C13 C15 1.413 . S
C13 H20 0.929 . S
C14 C2 1.392 . S
C14 C15 1.367 . S
C14 H22 0.930 . S
C15 C13 1.413 . S
C15 C14 1.367 . S
C15 H17 0.930 . S
H16 C9 0.930 . S
H17 C15 0.930 . S
H18 C6 0.930 . S
H19 C7 0.930 . S
H20 C13 0.929 . S
H21 C35 0.930 . S
H22 C14 0.930 . S
H23 C41 0.930 . S
H24 C32 0.929 . S
H25 C39 0.930 . S
H26 C3 0.931 . S
H27 C33 0.930 . S
H28 C66 0.930 . S
H29 C10 0.930 . S
H30 C65 0.931 . S
N31 Eu0 2.657 . S
N31 C32 1.334 . S
N31 C36 1.362 . S
C32 H24 0.929 . S
C32 N31 1.334 . S
C32 C35 1.413 . S
C33 H27 0.930 . S
C33 C34 1.392 . S
C33 C35 1.367 . S
C34 C33 1.392 . S
C34 C36 1.420 . S
C34 C66 1.423 . S
C35 H21 0.930 . S
C35 C32 1.413 . S
C35 C33 1.367 . S
C36 N31 1.362 . S
C36 C34 1.420 . S
C36 C40 1.429 . S
H37 C42 0.930 . S
N38 Eu0 2.609 . S
N38 C40 1.377 . S
N38 C41 1.321 . S
C39 H25 0.930 . S
C39 C41 1.400 . S
C39 C42 1.386 . S
C40 C36 1.429 . S
C40 N38 1.377 . S
C40 C43 1.411 . S
C41 H23 0.930 . S
C41 N38 1.321 . S
C41 C39 1.400 . S
C42 H37 0.930 . S
C42 C39 1.386 . S
C42 C43 1.395 . S
C43 C40 1.411 . S
C43 C42 1.395 . S
C43 C65 1.420 . S
O44 Eu0 2.558 . S
O44 C64 1.257 . S
O45 Eu0 2.612 . S
O45 Eu11 2.380 . S
O45 C56 1.276 . S
O46 Eu11 2.432 . S
O46 C63 1.264 . S
O47 Eu0 2.339 . S
O47 C63 1.254 . S
O48 Eu0 2.563 . S
O48 C56 1.235 . S
O49 Eu0 2.419 . S
O49 C64 1.249 . S
O50 Eu11 2.558 . S
O50 C75 1.257 . S
O51 Eu0 2.380 . S
O51 Eu11 2.612 . S
O51 C67 1.276 . S
O52 Eu0 2.432 . S
O52 C74 1.264 . S
O53 Eu11 2.339 . S
O53 C74 1.254 . S
O54 Eu11 2.563 . S
O54 C67 1.235 . S
O55 Eu11 2.419 . S
O55 C75 1.249 . S
C56 O45 1.276 . S
C56 O48 1.235 . S
C57 C59 1.393 . S
C57 C61 1.395 . S
C57 C64 1.492 . S
C58 C59 1.392 . S
C58 C60 1.386 . S
C59 C57 1.393 . S
C59 C58 1.392 . S
C59 H76 0.930 . S
C60 C58 1.386 . S
C60 C62 1.395 . S
C60 H77 0.930 . S
C61 C57 1.395 . S
C61 C62 1.379 . S
C61 H78 0.930 . S
C62 C60 1.395 . S
C62 C61 1.379 . S
C62 H79 0.930 . S
C63 O46 1.264 . S
C63 O47 1.254 . S
C64 Eu0 2.848 . S
C64 O44 1.257 . S
C64 O49 1.249 . S
C64 C57 1.492 . S
C65 H30 0.931 . S
C65 C43 1.420 . S
C65 C66 1.351 . S
C66 H28 0.930 . S
C66 C34 1.423 . S
C66 C65 1.351 . S
C67 O51 1.276 . S
C67 O54 1.235 . S
C68 C69 1.393 . S
C68 C72 1.395 . S
C68 C75 1.492 . S
C69 C68 1.393 . S
C69 C70 1.392 . S
C69 H80 0.930 . S
C70 C69 1.392 . S
C70 C71 1.386 . S
C71 C70 1.386 . S
C71 C73 1.395 . S
C71 H81 0.930 . S
C72 C68 1.395 . S
C72 C73 1.379 . S
C72 H82 0.930 . S
C73 C71 1.395 . S
C73 C72 1.379 . S
C73 H83 0.930 . S
C74 O52 1.264 . S
C74 O53 1.254 . S
C75 Eu11 2.848 . S
C75 O50 1.257 . S
C75 O55 1.249 . S
C75 C68 1.492 . S
H76 C59 0.930 . S
H77 C60 0.930 . S
H78 C61 0.930 . S
H79 C62 0.930 . S
H80 C69 0.930 . S
H81 C71 0.930 . S
H82 C72 0.930 . S
H83 C73 0.930 . S
Eu84 N115 2.657 . S
Eu84 N122 2.609 . S
Eu84 O128 2.558 . S
Eu84 O129 2.612 . S
Eu84 O131 2.339 . S
Eu84 O132 2.563 . S
Eu84 O133 2.419 . S
Eu84 O135 2.380 . S
Eu84 O136 2.432 . S
Eu84 C148 2.848 . S
C85 C88 1.429 . S
C85 C89 1.411 . S
C85 N92 1.377 . S
C86 C88 1.420 . S
C86 C90 1.423 . S
C86 C98 1.392 . S
C87 C89 1.420 . S
C87 C90 1.351 . S
C87 H110 0.931 . S
C88 C85 1.429 . S
C88 C86 1.420 . S
C88 N96 1.362 . S
C89 C85 1.411 . S
C89 C87 1.420 . S
C89 C94 1.395 . S
C90 C86 1.423 . S
C90 C87 1.351 . S
C90 H102 0.930 . S
C91 C93 1.400 . S
C91 C94 1.386 . S
C91 H103 0.930 . S
N92 C85 1.377 . S
N92 C93 1.321 . S
N92 Eu95 2.609 . S
C93 C91 1.400 . S
C93 N92 1.321 . S
C93 H100 0.930 . S
C94 C89 1.395 . S
C94 C91 1.386 . S
C94 H113 0.930 . S
Eu95 N92 2.609 . S
Eu95 N96 2.657 . S
Eu95 O129 2.380 . S
Eu95 O130 2.432 . S
Eu95 O134 2.558 . S
Eu95 O135 2.612 . S
Eu95 O137 2.339 . S
Eu95 O138 2.563 . S
Eu95 O139 2.419 . S
Eu95 C159 2.848 . S
N96 C88 1.362 . S
N96 Eu95 2.657 . S
N96 C97 1.334 . S
C97 N96 1.334 . S
C97 C99 1.413 . S
C97 H104 0.929 . S
C98 C86 1.392 . S
C98 C99 1.367 . S
C98 H106 0.930 . S
C99 C97 1.413 . S
C99 C98 1.367 . S
C99 H101 0.930 . S
H100 C93 0.930 . S
H101 C99 0.930 . S
H102 C90 0.930 . S
H103 C91 0.930 . S
H104 C97 0.929 . S
H105 C119 0.930 . S
H106 C98 0.930 . S
H107 C125 0.930 . S
H108 C116 0.929 . S
H109 C123 0.930 . S
H110 C87 0.931 . S
H111 C117 0.930 . S
H112 C150 0.930 . S
H113 C94 0.930 . S
H114 C149 0.931 . S
N115 Eu84 2.657 . S
N115 C116 1.334 . S
N115 C120 1.362 . S
C116 H108 0.929 . S
C116 N115 1.334 . S
C116 C119 1.413 . S
C117 H111 0.930 . S
C117 C118 1.392 . S
C117 C119 1.367 . S
C118 C117 1.392 . S
C118 C120 1.420 . S
C118 C150 1.423 . S
C119 H105 0.930 . S
C119 C116 1.413 . S
C119 C117 1.367 . S
C120 N115 1.362 . S
C120 C118 1.420 . S
C120 C124 1.429 . S
H121 C126 0.930 . S
N122 Eu84 2.609 . S
N122 C124 1.377 . S
N122 C125 1.321 . S
C123 H109 0.930 . S
C123 C125 1.400 . S
C123 C126 1.386 . S
C124 C120 1.429 . S
C124 N122 1.377 . S
C124 C127 1.411 . S
C125 H107 0.930 . S
C125 N122 1.321 . S
C125 C123 1.400 . S
C126 H121 0.930 . S
C126 C123 1.386 . S
C126 C127 1.395 . S
C127 C124 1.411 . S
C127 C126 1.395 . S
C127 C149 1.420 . S
O128 Eu84 2.558 . S
O128 C148 1.257 . S
O129 Eu84 2.612 . S
O129 Eu95 2.380 . S
O129 C140 1.276 . S
O130 Eu95 2.432 . S
O130 C147 1.264 . S
O131 Eu84 2.339 . S
O131 C147 1.254 . S
O132 Eu84 2.563 . S
O132 C140 1.235 . S
O133 Eu84 2.419 . S
O133 C148 1.249 . S
O134 Eu95 2.558 . S
O134 C159 1.257 . S
O135 Eu84 2.380 . S
O135 Eu95 2.612 . S
O135 C151 1.276 . S
O136 Eu84 2.432 . S
O136 C158 1.264 . S
O137 Eu95 2.339 . S
O137 C158 1.254 . S
O138 Eu95 2.563 . S
O138 C151 1.235 . S
O139 Eu95 2.419 . S
O139 C159 1.249 . S
C140 O129 1.276 . S
C140 O132 1.235 . S
C141 C143 1.393 . S
C141 C145 1.395 . S
C141 C148 1.492 . S
C142 C143 1.392 . S
C142 C144 1.386 . S
C143 C141 1.393 . S
C143 C142 1.392 . S
C143 H160 0.930 . S
C144 C142 1.386 . S
C144 C146 1.395 . S
C144 H161 0.930 . S
C145 C141 1.395 . S
C145 C146 1.379 . S
C145 H162 0.930 . S
C146 C144 1.395 . S
C146 C145 1.379 . S
C146 H163 0.930 . S
C147 O130 1.264 . S
C147 O131 1.254 . S
C148 Eu84 2.848 . S
C148 O128 1.257 . S
C148 O133 1.249 . S
C148 C141 1.492 . S
C149 H114 0.931 . S
C149 C127 1.420 . S
C149 C150 1.351 . S
C150 H112 0.930 . S
C150 C118 1.423 . S
C150 C149 1.351 . S
C151 O135 1.276 . S
C151 O138 1.235 . S
C152 C153 1.393 . S
C152 C156 1.395 . S
C152 C159 1.492 . S
C153 C152 1.393 . S
C153 C154 1.392 . S
C153 H164 0.930 . S
C154 C153 1.392 . S
C154 C155 1.386 . S
C155 C154 1.386 . S
C155 C157 1.395 . S
C155 H165 0.930 . S
C156 C152 1.395 . S
C156 C157 1.379 . S
C156 H166 0.930 . S
C157 C155 1.395 . S
C157 C156 1.379 . S
C157 H167 0.930 . S
C158 O136 1.264 . S
C158 O137 1.254 . S
C159 Eu95 2.848 . S
C159 O134 1.257 . S
C159 O139 1.249 . S
C159 C152 1.492 . S
H160 C143 0.930 . S
H161 C144 0.930 . S
H162 C145 0.930 . S
H163 C146 0.930 . S
H164 C153 0.930 . S
H165 C155 0.930 . S
H166 C156 0.930 . S
H167 C157 0.930 . S
Eu168 N199 2.657 . S
Eu168 N206 2.609 . S
Eu168 O212 2.558 . S
Eu168 O213 2.612 . S
Eu168 O215 2.339 . S
Eu168 O216 2.563 . S
Eu168 O217 2.419 . S
Eu168 O219 2.380 . S
Eu168 O220 2.432 . S
Eu168 C232 2.848 . S
C169 C172 1.429 . S
C169 C173 1.411 . S
C169 N176 1.377 . S
C170 C172 1.420 . S
C170 C174 1.423 . S
C170 C182 1.392 . S
C171 C173 1.420 . S
C171 C174 1.351 . S
C171 H194 0.931 . S
C172 C169 1.429 . S
C172 C170 1.420 . S
C172 N180 1.362 . S
C173 C169 1.411 . S
C173 C171 1.420 . S
C173 C178 1.395 . S
C174 C170 1.423 . S
C174 C171 1.351 . S
C174 H186 0.930 . S
C175 C177 1.400 . S
C175 C178 1.386 . S
C175 H187 0.930 . S
N176 C169 1.377 . S
N176 C177 1.321 . S
N176 Eu179 2.609 . S
C177 C175 1.400 . S
C177 N176 1.321 . S
C177 H184 0.930 . S
C178 C173 1.395 . S
C178 C175 1.386 . S
C178 H197 0.930 . S
Eu179 N176 2.609 . S
Eu179 N180 2.657 . S
Eu179 O213 2.380 . S
Eu179 O214 2.432 . S
Eu179 O218 2.558 . S
Eu179 O219 2.612 . S
Eu179 O221 2.339 . S
Eu179 O222 2.563 . S
Eu179 O223 2.419 . S
Eu179 C243 2.848 . S
N180 C172 1.362 . S
N180 Eu179 2.657 . S
N180 C181 1.334 . S
C181 N180 1.334 . S
C181 C183 1.413 . S
C181 H188 0.929 . S
C182 C170 1.392 . S
C182 C183 1.367 . S
C182 H190 0.930 . S
C183 C181 1.413 . S
C183 C182 1.367 . S
C183 H185 0.930 . S
H184 C177 0.930 . S
H185 C183 0.930 . S
H186 C174 0.930 . S
H187 C175 0.930 . S
H188 C181 0.929 . S
H189 C203 0.930 . S
H190 C182 0.930 . S
H191 C209 0.930 . S
H192 C200 0.929 . S
H193 C207 0.930 . S
H194 C171 0.931 . S
H195 C201 0.930 . S
H196 C234 0.930 . S
H197 C178 0.930 . S
H198 C233 0.931 . S
N199 Eu168 2.657 . S
N199 C200 1.334 . S
N199 C204 1.362 . S
C200 H192 0.929 . S
C200 N199 1.334 . S
C200 C203 1.413 . S
C201 H195 0.930 . S
C201 C202 1.392 . S
C201 C203 1.367 . S
C202 C201 1.392 . S
C202 C204 1.420 . S
C202 C234 1.423 . S
C203 H189 0.930 . S
C203 C200 1.413 . S
C203 C201 1.367 . S
C204 N199 1.362 . S
C204 C202 1.420 . S
C204 C208 1.429 . S
H205 C210 0.930 . S
N206 Eu168 2.609 . S
N206 C208 1.377 . S
N206 C209 1.321 . S
C207 H193 0.930 . S
C207 C209 1.400 . S
C207 C210 1.386 . S
C208 C204 1.429 . S
C208 N206 1.377 . S
C208 C211 1.411 . S
C209 H191 0.930 . S
C209 N206 1.321 . S
C209 C207 1.400 . S
C210 H205 0.930 . S
C210 C207 1.386 . S
C210 C211 1.395 . S
C211 C208 1.411 . S
C211 C210 1.395 . S
C211 C233 1.420 . S
O212 Eu168 2.558 . S
O212 C232 1.257 . S
O213 Eu168 2.612 . S
O213 Eu179 2.380 . S
O213 C224 1.276 . S
O214 Eu179 2.432 . S
O214 C231 1.264 . S
O215 Eu168 2.339 . S
O215 C231 1.254 . S
O216 Eu168 2.563 . S
O216 C224 1.235 . S
O217 Eu168 2.419 . S
O217 C232 1.249 . S
O218 Eu179 2.558 . S
O218 C243 1.257 . S
O219 Eu168 2.380 . S
O219 Eu179 2.612 . S
O219 C235 1.276 . S
O220 Eu168 2.432 . S
O220 C242 1.264 . S
O221 Eu179 2.339 . S
O221 C242 1.254 . S
O222 Eu179 2.563 . S
O222 C235 1.235 . S
O223 Eu179 2.419 . S
O223 C243 1.249 . S
C224 O213 1.276 . S
C224 O216 1.235 . S
C225 C227 1.393 . S
C225 C229 1.395 . S
C225 C232 1.492 . S
C226 C227 1.392 . S
C226 C228 1.386 . S
C227 C225 1.393 . S
C227 C226 1.392 . S
C227 H244 0.930 . S
C228 C226 1.386 . S
C228 C230 1.395 . S
C228 H245 0.930 . S
C229 C225 1.395 . S
C229 C230 1.379 . S
C229 H246 0.930 . S
C230 C228 1.395 . S
C230 C229 1.379 . S
C230 H247 0.930 . S
C231 O214 1.264 . S
C231 O215 1.254 . S
C232 Eu168 2.848 . S
C232 O212 1.257 . S
C232 O217 1.249 . S
C232 C225 1.492 . S
C233 H198 0.931 . S
C233 C211 1.420 . S
C233 C234 1.351 . S
C234 H196 0.930 . S
C234 C202 1.423 . S
C234 C233 1.351 . S
C235 O219 1.276 . S
C235 O222 1.235 . S
C236 C237 1.393 . S
C236 C240 1.395 . S
C236 C243 1.492 . S
C237 C236 1.393 . S
C237 C238 1.392 . S
C237 H248 0.930 . S
C238 C237 1.392 . S
C238 C239 1.386 . S
C239 C238 1.386 . S
C239 C241 1.395 . S
C239 H249 0.930 . S
C240 C236 1.395 . S
C240 C241 1.379 . S
C240 H250 0.930 . S
C241 C239 1.395 . S
C241 C240 1.379 . S
C241 H251 0.930 . S
C242 O220 1.264 . S
C242 O221 1.254 . S
C243 Eu179 2.848 . S
C243 O218 1.257 . S
C243 O223 1.249 . S
C243 C236 1.492 . S
H244 C227 0.930 . S
H245 C228 0.930 . S
H246 C229 0.930 . S
H247 C230 0.930 . S
H248 C237 0.930 . S
H249 C239 0.930 . S
H250 C240 0.930 . S
H251 C241 0.930 . S
Eu252 N283 2.657 . S
Eu252 N290 2.609 . S
Eu252 O296 2.558 . S
Eu252 O297 2.612 . S
Eu252 O299 2.339 . S
Eu252 O300 2.563 . S
Eu252 O301 2.419 . S
Eu252 O303 2.380 . S
Eu252 O304 2.432 . S
Eu252 C316 2.848 . S
C253 C256 1.429 . S
C253 C257 1.411 . S
C253 N260 1.377 . S
C254 C256 1.420 . S
C254 C258 1.423 . S
C254 C266 1.392 . S
C255 C257 1.420 . S
C255 C258 1.351 . S
C255 H278 0.931 . S
C256 C253 1.429 . S
C256 C254 1.420 . S
C256 N264 1.362 . S
C257 C253 1.411 . S
C257 C255 1.420 . S
C257 C262 1.395 . S
C258 C254 1.423 . S
C258 C255 1.351 . S
C258 H270 0.930 . S
C259 C261 1.400 . S
C259 C262 1.386 . S
C259 H271 0.930 . S
N260 C253 1.377 . S
N260 C261 1.321 . S
N260 Eu263 2.609 . S
C261 C259 1.400 . S
C261 N260 1.321 . S
C261 H268 0.930 . S
C262 C257 1.395 . S
C262 C259 1.386 . S
C262 H281 0.930 . S
Eu263 N260 2.609 . S
Eu263 N264 2.657 . S
Eu263 O297 2.380 . S
Eu263 O298 2.432 . S
Eu263 O302 2.558 . S
Eu263 O303 2.612 . S
Eu263 O305 2.339 . S
Eu263 O306 2.563 . S
Eu263 O307 2.419 . S
Eu263 C327 2.848 . S
N264 C256 1.362 . S
N264 Eu263 2.657 . S
N264 C265 1.334 . S
C265 N264 1.334 . S
C265 C267 1.413 . S
C265 H272 0.929 . S
C266 C254 1.392 . S
C266 C267 1.367 . S
C266 H274 0.930 . S
C267 C265 1.413 . S
C267 C266 1.367 . S
C267 H269 0.930 . S
H268 C261 0.930 . S
H269 C267 0.930 . S
H270 C258 0.930 . S
H271 C259 0.930 . S
H272 C265 0.929 . S
H273 C287 0.930 . S
H274 C266 0.930 . S
H275 C293 0.930 . S
H276 C284 0.929 . S
H277 C291 0.930 . S
H278 C255 0.931 . S
H279 C285 0.930 . S
H280 C318 0.930 . S
H281 C262 0.930 . S
H282 C317 0.931 . S
N283 Eu252 2.657 . S
N283 C284 1.334 . S
N283 C288 1.362 . S
C284 H276 0.929 . S
C284 N283 1.334 . S
C284 C287 1.413 . S
C285 H279 0.930 . S
C285 C286 1.392 . S
C285 C287 1.367 . S
C286 C285 1.392 . S
C286 C288 1.420 . S
C286 C318 1.423 . S
C287 H273 0.930 . S
C287 C284 1.413 . S
C287 C285 1.367 . S
C288 N283 1.362 . S
C288 C286 1.420 . S
C288 C292 1.429 . S
H289 C294 0.930 . S
N290 Eu252 2.609 . S
N290 C292 1.377 . S
N290 C293 1.321 . S
C291 H277 0.930 . S
C291 C293 1.400 . S
C291 C294 1.386 . S
C292 C288 1.429 . S
C292 N290 1.377 . S
C292 C295 1.411 . S
C293 H275 0.930 . S
C293 N290 1.321 . S
C293 C291 1.400 . S
C294 H289 0.930 . S
C294 C291 1.386 . S
C294 C295 1.395 . S
C295 C292 1.411 . S
C295 C294 1.395 . S
C295 C317 1.420 . S
O296 Eu252 2.558 . S
O296 C316 1.257 . S
O297 Eu252 2.612 . S
O297 Eu263 2.380 . S
O297 C308 1.276 . S
O298 Eu263 2.432 . S
O298 C315 1.264 . S
O299 Eu252 2.339 . S
O299 C315 1.254 . S
O300 Eu252 2.563 . S
O300 C308 1.235 . S
O301 Eu252 2.419 . S
O301 C316 1.249 . S
O302 Eu263 2.558 . S
O302 C327 1.257 . S
O303 Eu252 2.380 . S
O303 Eu263 2.612 . S
O303 C319 1.276 . S
O304 Eu252 2.432 . S
O304 C326 1.264 . S
O305 Eu263 2.339 . S
O305 C326 1.254 . S
O306 Eu263 2.563 . S
O306 C319 1.235 . S
O307 Eu263 2.419 . S
O307 C327 1.249 . S
C308 O297 1.276 . S
C308 O300 1.235 . S
C309 C311 1.393 . S
C309 C313 1.395 . S
C309 C316 1.492 . S
C310 C311 1.392 . S
C310 C312 1.386 . S
C311 C309 1.393 . S
C311 C310 1.392 . S
C311 H328 0.930 . S
C312 C310 1.386 . S
C312 C314 1.395 . S
C312 H329 0.930 . S
C313 C309 1.395 . S
C313 C314 1.379 . S
C313 H330 0.930 . S
C314 C312 1.395 . S
C314 C313 1.379 . S
C314 H331 0.930 . S
C315 O298 1.264 . S
C315 O299 1.254 . S
C316 Eu252 2.848 . S
C316 O296 1.257 . S
C316 O301 1.249 . S
C316 C309 1.492 . S
C317 H282 0.931 . S
C317 C295 1.420 . S
C317 C318 1.351 . S
C318 H280 0.930 . S
C318 C286 1.423 . S
C318 C317 1.351 . S
C319 O303 1.276 . S
C319 O306 1.235 . S
C320 C321 1.393 . S
C320 C324 1.395 . S
C320 C327 1.492 . S
C321 C320 1.393 . S
C321 C322 1.392 . S
C321 H332 0.930 . S
C322 C321 1.392 . S
C322 C323 1.386 . S
C323 C322 1.386 . S
C323 C325 1.395 . S
C323 H333 0.930 . S
C324 C320 1.395 . S
C324 C325 1.379 . S
C324 H334 0.930 . S
C325 C323 1.395 . S
C325 C324 1.379 . S
C325 H335 0.930 . S
C326 O304 1.264 . S
C326 O305 1.254 . S
C327 Eu263 2.848 . S
C327 O302 1.257 . S
C327 O307 1.249 . S
C327 C320 1.492 . S
H328 C311 0.930 . S
H329 C312 0.930 . S
H330 C313 0.930 . S
H331 C314 0.930 . S
H332 C321 0.930 . S
H333 C323 0.930 . S
H334 C324 0.930 . S
H335 C325 0.930 . S
Eu336 N367 2.657 . S
Eu336 N374 2.609 . S
Eu336 O380 2.558 1_554 S
Eu336 O381 2.612 1_554 S
Eu336 O383 2.339 . S
Eu336 O384 2.563 1_554 S
Eu336 O385 2.419 1_554 S
Eu336 O387 2.380 . S
Eu336 O388 2.432 1_554 S
Eu336 C400 2.848 1_554 S
C337 C340 1.429 . S
C337 C341 1.411 . S
C337 N344 1.377 . S
C338 C340 1.420 . S
C338 C342 1.423 . S
C338 C350 1.392 . S
C339 C341 1.420 . S
C339 C342 1.351 . S
C339 H362 0.931 . S
C340 C337 1.429 . S
C340 C338 1.420 . S
C340 N348 1.362 . S
C341 C337 1.411 . S
C341 C339 1.420 . S
C341 C346 1.395 . S
C342 C338 1.423 . S
C342 C339 1.351 . S
C342 H354 0.930 . S
C343 C345 1.400 . S
C343 C346 1.386 . S
C343 H355 0.930 . S
N344 C337 1.377 . S
N344 C345 1.321 . S
N344 Eu347 2.609 . S
C345 C343 1.400 . S
C345 N344 1.321 . S
C345 H352 0.930 . S
C346 C341 1.395 . S
C346 C343 1.386 . S
C346 H365 0.930 . S
Eu347 N344 2.609 . S
Eu347 N348 2.657 . S
Eu347 O381 2.380 . S
Eu347 O382 2.432 1_556 S
Eu347 O386 2.558 1_556 S
Eu347 O387 2.612 1_556 S
Eu347 O389 2.339 . S
Eu347 O390 2.563 1_556 S
Eu347 O391 2.419 1_556 S
Eu347 C411 2.848 1_556 S
N348 C340 1.362 . S
N348 Eu347 2.657 . S
N348 C349 1.334 . S
C349 N348 1.334 . S
C349 C351 1.413 . S
C349 H356 0.929 . S
C350 C338 1.392 . S
C350 C351 1.367 . S
C350 H358 0.930 . S
C351 C349 1.413 . S
C351 C350 1.367 . S
C351 H353 0.930 . S
H352 C345 0.930 . S
H353 C351 0.930 . S
H354 C342 0.930 . S
H355 C343 0.930 . S
H356 C349 0.929 . S
H357 C371 0.930 . S
H358 C350 0.930 . S
H359 C377 0.930 . S
H360 C368 0.929 . S
H361 C375 0.930 . S
H362 C339 0.931 . S
H363 C369 0.930 . S
H364 C402 0.930 . S
H365 C346 0.930 . S
H366 C401 0.931 . S
N367 Eu336 2.657 . S
N367 C368 1.334 . S
N367 C372 1.362 . S
C368 H360 0.929 . S
C368 N367 1.334 . S
C368 C371 1.413 . S
C369 H363 0.930 . S
C369 C370 1.392 . S
C369 C371 1.367 . S
C370 C369 1.392 . S
C370 C372 1.420 . S
C370 C402 1.423 . S
C371 H357 0.930 . S
C371 C368 1.413 . S
C371 C369 1.367 . S
C372 N367 1.362 . S
C372 C370 1.420 . S
C372 C376 1.429 . S
H373 C378 0.930 . S
N374 Eu336 2.609 . S
N374 C376 1.377 . S
N374 C377 1.321 . S
C375 H361 0.930 . S
C375 C377 1.400 . S
C375 C378 1.386 . S
C376 C372 1.429 . S
C376 N374 1.377 . S
C376 C379 1.411 . S
C377 H359 0.930 . S
C377 N374 1.321 . S
C377 C375 1.400 . S
C378 H373 0.930 . S
C378 C375 1.386 . S
C378 C379 1.395 . S
C379 C376 1.411 . S
C379 C378 1.395 . S
C379 C401 1.420 . S
O380 Eu336 2.558 1_556 S
O380 C400 1.257 . S
O381 Eu336 2.612 1_556 S
O381 Eu347 2.380 . S
O381 C392 1.276 . S
O382 Eu347 2.432 1_554 S
O382 C399 1.264 . S
O383 Eu336 2.339 . S
O383 C399 1.254 . S
O384 Eu336 2.563 1_556 S
O384 C392 1.235 . S
O385 Eu336 2.419 1_556 S
O385 C400 1.249 . S
O386 Eu347 2.558 1_554 S
O386 C411 1.257 . S
O387 Eu336 2.380 . S
O387 Eu347 2.612 1_554 S
O387 C403 1.276 . S
O388 Eu336 2.432 1_556 S
O388 C410 1.264 . S
O389 Eu347 2.339 . S
O389 C410 1.254 . S
O390 Eu347 2.563 1_554 S
O390 C403 1.235 . S
O391 Eu347 2.419 1_554 S
O391 C411 1.249 . S
C392 O381 1.276 . S
C392 O384 1.235 . S
C393 C395 1.393 . S
C393 C397 1.395 . S
C393 C400 1.492 . S
C394 C395 1.392 . S
C394 C396 1.386 . S
C395 C393 1.393 . S
C395 C394 1.392 . S
C395 H412 0.930 . S
C396 C394 1.386 . S
C396 C398 1.395 . S
C396 H413 0.930 . S
C397 C393 1.395 . S
C397 C398 1.379 . S
C397 H414 0.930 . S
C398 C396 1.395 . S
C398 C397 1.379 . S
C398 H415 0.930 . S
C399 O382 1.264 . S
C399 O383 1.254 . S
C400 Eu336 2.848 1_556 S
C400 O380 1.257 . S
C400 O385 1.249 . S
C400 C393 1.492 . S
C401 H366 0.931 . S
C401 C379 1.420 . S
C401 C402 1.351 . S
C402 H364 0.930 . S
C402 C370 1.423 . S
C402 C401 1.351 . S
C403 O387 1.276 . S
C403 O390 1.235 . S
C404 C405 1.393 . S
C404 C408 1.395 . S
C404 C411 1.492 . S
C405 C404 1.393 . S
C405 C406 1.392 . S
C405 H416 0.930 . S
C406 C405 1.392 . S
C406 C407 1.386 . S
C407 C406 1.386 . S
C407 C409 1.395 . S
C407 H417 0.930 . S
C408 C404 1.395 . S
C408 C409 1.379 . S
C408 H418 0.930 . S
C409 C407 1.395 . S
C409 C408 1.379 . S
C409 H419 0.930 . S
C410 O388 1.264 . S
C410 O389 1.254 . S
C411 Eu347 2.848 1_554 S
C411 O386 1.257 . S
C411 O391 1.249 . S
C411 C404 1.492 . S
H412 C395 0.930 . S
H413 C396 0.930 . S
H414 C397 0.930 . S
H415 C398 0.930 . S
H416 C405 0.930 . S
H417 C407 0.930 . S
H418 C408 0.930 . S
H419 C409 0.930 . S
Eu420 N451 2.657 . S
Eu420 N458 2.609 . S
Eu420 O464 2.558 1_556 S
Eu420 O465 2.612 1_556 S
Eu420 O467 2.339 . S
Eu420 O468 2.563 1_556 S
Eu420 O469 2.419 1_556 S
Eu420 O471 2.380 . S
Eu420 O472 2.432 1_556 S
Eu420 C484 2.848 1_556 S
C421 C424 1.429 . S
C421 C425 1.411 . S
C421 N428 1.377 . S
C422 C424 1.420 . S
C422 C426 1.423 . S
C422 C434 1.392 . S
C423 C425 1.420 . S
C423 C426 1.351 . S
C423 H446 0.931 . S
C424 C421 1.429 . S
C424 C422 1.420 . S
C424 N432 1.362 . S
C425 C421 1.411 . S
C425 C423 1.420 . S
C425 C430 1.395 . S
C426 C422 1.423 . S
C426 C423 1.351 . S
C426 H438 0.930 . S
C427 C429 1.400 . S
C427 C430 1.386 . S
C427 H439 0.930 . S
N428 C421 1.377 . S
N428 C429 1.321 . S
N428 Eu431 2.609 . S
C429 C427 1.400 . S
C429 N428 1.321 . S
C429 H436 0.930 . S
C430 C425 1.395 . S
C430 C427 1.386 . S
C430 H449 0.930 . S
Eu431 N428 2.609 . S
Eu431 N432 2.657 . S
Eu431 O465 2.380 . S
Eu431 O466 2.432 1_554 S
Eu431 O470 2.558 1_554 S
Eu431 O471 2.612 1_554 S
Eu431 O473 2.339 . S
Eu431 O474 2.563 1_554 S
Eu431 O475 2.419 1_554 S
Eu431 C495 2.848 1_554 S
N432 C424 1.362 . S
N432 Eu431 2.657 . S
N432 C433 1.334 . S
C433 N432 1.334 . S
C433 C435 1.413 . S
C433 H440 0.929 . S
C434 C422 1.392 . S
C434 C435 1.367 . S
C434 H442 0.930 . S
C435 C433 1.413 . S
C435 C434 1.367 . S
C435 H437 0.930 . S
H436 C429 0.930 . S
H437 C435 0.930 . S
H438 C426 0.930 . S
H439 C427 0.930 . S
H440 C433 0.929 . S
H441 C455 0.930 . S
H442 C434 0.930 . S
H443 C461 0.930 . S
H444 C452 0.929 . S
H445 C459 0.930 . S
H446 C423 0.931 . S
H447 C453 0.930 . S
H448 C486 0.930 . S
H449 C430 0.930 . S
H450 C485 0.931 . S
N451 Eu420 2.657 . S
N451 C452 1.334 . S
N451 C456 1.362 . S
C452 H444 0.929 . S
C452 N451 1.334 . S
C452 C455 1.413 . S
C453 H447 0.930 . S
C453 C454 1.392 . S
C453 C455 1.367 . S
C454 C453 1.392 . S
C454 C456 1.420 . S
C454 C486 1.423 . S
C455 H441 0.930 . S
C455 C452 1.413 . S
C455 C453 1.367 . S
C456 N451 1.362 . S
C456 C454 1.420 . S
C456 C460 1.429 . S
H457 C462 0.930 . S
N458 Eu420 2.609 . S
N458 C460 1.377 . S
N458 C461 1.321 . S
C459 H445 0.930 . S
C459 C461 1.400 . S
C459 C462 1.386 . S
C460 C456 1.429 . S
C460 N458 1.377 . S
C460 C463 1.411 . S
C461 H443 0.930 . S
C461 N458 1.321 . S
C461 C459 1.400 . S
C462 H457 0.930 . S
C462 C459 1.386 . S
C462 C463 1.395 . S
C463 C460 1.411 . S
C463 C462 1.395 . S
C463 C485 1.420 . S
O464 Eu420 2.558 1_554 S
O464 C484 1.257 . S
O465 Eu420 2.612 1_554 S
O465 Eu431 2.380 . S
O465 C476 1.276 . S
O466 Eu431 2.432 1_556 S
O466 C483 1.264 . S
O467 Eu420 2.339 . S
O467 C483 1.254 . S
O468 Eu420 2.563 1_554 S
O468 C476 1.235 . S
O469 Eu420 2.419 1_554 S
O469 C484 1.249 . S
O470 Eu431 2.558 1_556 S
O470 C495 1.257 . S
O471 Eu420 2.380 . S
O471 Eu431 2.612 1_556 S
O471 C487 1.276 . S
O472 Eu420 2.432 1_554 S
O472 C494 1.264 . S
O473 Eu431 2.339 . S
O473 C494 1.254 . S
O474 Eu431 2.563 1_556 S
O474 C487 1.235 . S
O475 Eu431 2.419 1_556 S
O475 C495 1.249 . S
C476 O465 1.276 . S
C476 O468 1.235 . S
C477 C479 1.393 . S
C477 C481 1.395 . S
C477 C484 1.492 . S
C478 C479 1.392 . S
C478 C480 1.386 . S
C479 C477 1.393 . S
C479 C478 1.392 . S
C479 H496 0.930 . S
C480 C478 1.386 . S
C480 C482 1.395 . S
C480 H497 0.930 . S
C481 C477 1.395 . S
C481 C482 1.379 . S
C481 H498 0.930 . S
C482 C480 1.395 . S
C482 C481 1.379 . S
C482 H499 0.930 . S
C483 O466 1.264 . S
C483 O467 1.254 . S
C484 Eu420 2.848 1_554 S
C484 O464 1.257 . S
C484 O469 1.249 . S
C484 C477 1.492 . S
C485 H450 0.931 . S
C485 C463 1.420 . S
C485 C486 1.351 . S
C486 H448 0.930 . S
C486 C454 1.423 . S
C486 C485 1.351 . S
C487 O471 1.276 . S
C487 O474 1.235 . S
C488 C489 1.393 . S
C488 C492 1.395 . S
C488 C495 1.492 . S
C489 C488 1.393 . S
C489 C490 1.392 . S
C489 H500 0.930 . S
C490 C489 1.392 . S
C490 C491 1.386 . S
C491 C490 1.386 . S
C491 C493 1.395 . S
C491 H501 0.930 . S
C492 C488 1.395 . S
C492 C493 1.379 . S
C492 H502 0.930 . S
C493 C491 1.395 . S
C493 C492 1.379 . S
C493 H503 0.930 . S
C494 O472 1.264 . S
C494 O473 1.254 . S
C495 Eu431 2.848 1_556 S
C495 O470 1.257 . S
C495 O475 1.249 . S
C495 C488 1.492 . S
H496 C479 0.930 . S
H497 C480 0.930 . S
H498 C481 0.930 . S
H499 C482 0.930 . S
H500 C489 0.930 . S
H501 C491 0.930 . S
H502 C492 0.930 . S
H503 C493 0.930 . S
Eu504 N535 2.657 . S
Eu504 N542 2.609 . S
Eu504 O548 2.558 1_554 S
Eu504 O549 2.612 1_554 S
Eu504 O551 2.339 . S
Eu504 O552 2.563 1_554 S
Eu504 O553 2.419 1_554 S
Eu504 O555 2.380 . S
Eu504 O556 2.432 . S
Eu504 C568 2.848 1_554 S
C505 C508 1.429 . S
C505 C509 1.411 . S
C505 N512 1.377 . S
C506 C508 1.420 . S
C506 C510 1.423 . S
C506 C518 1.392 . S
C507 C509 1.420 . S
C507 C510 1.351 . S
C507 H530 0.931 . S
C508 C505 1.429 . S
C508 C506 1.420 . S
C508 N516 1.362 . S
C509 C505 1.411 . S
C509 C507 1.420 . S
C509 C514 1.395 . S
C510 C506 1.423 . S
C510 C507 1.351 . S
C510 H522 0.930 . S
C511 C513 1.400 . S
C511 C514 1.386 . S
C511 H523 0.930 . S
N512 C505 1.377 . S
N512 C513 1.321 . S
N512 Eu515 2.609 . S
C513 C511 1.400 . S
C513 N512 1.321 . S
C513 H520 0.930 . S
C514 C509 1.395 . S
C514 C511 1.386 . S
C514 H533 0.930 . S
Eu515 N512 2.609 . S
Eu515 N516 2.657 . S
Eu515 O549 2.380 . S
Eu515 O550 2.432 . S
Eu515 O554 2.558 1_556 S
Eu515 O555 2.612 1_556 S
Eu515 O557 2.339 . S
Eu515 O558 2.563 1_556 S
Eu515 O559 2.419 1_556 S
Eu515 C579 2.848 1_556 S
N516 C508 1.362 . S
N516 Eu515 2.657 . S
N516 C517 1.334 . S
C517 N516 1.334 . S
C517 C519 1.413 . S
C517 H524 0.929 . S
C518 C506 1.392 . S
C518 C519 1.367 . S
C518 H526 0.930 . S
C519 C517 1.413 . S
C519 C518 1.367 . S
C519 H521 0.930 . S
H520 C513 0.930 . S
H521 C519 0.930 . S
H522 C510 0.930 . S
H523 C511 0.930 . S
H524 C517 0.929 . S
H525 C539 0.930 . S
H526 C518 0.930 . S
H527 C545 0.930 . S
H528 C536 0.929 . S
H529 C543 0.930 . S
H530 C507 0.931 . S
H531 C537 0.930 . S
H532 C570 0.930 . S
H533 C514 0.930 . S
H534 C569 0.931 . S
N535 Eu504 2.657 . S
N535 C536 1.334 . S
N535 C540 1.362 . S
C536 H528 0.929 . S
C536 N535 1.334 . S
C536 C539 1.413 . S
C537 H531 0.930 . S
C537 C538 1.392 . S
C537 C539 1.367 . S
C538 C537 1.392 . S
C538 C540 1.420 . S
C538 C570 1.423 . S
C539 H525 0.930 . S
C539 C536 1.413 . S
C539 C537 1.367 . S
C540 N535 1.362 . S
C540 C538 1.420 . S
C540 C544 1.429 . S
H541 C546 0.930 . S
N542 Eu504 2.609 . S
N542 C544 1.377 . S
N542 C545 1.321 . S
C543 H529 0.930 . S
C543 C545 1.400 . S
C543 C546 1.386 . S
C544 C540 1.429 . S
C544 N542 1.377 . S
C544 C547 1.411 . S
C545 H527 0.930 . S
C545 N542 1.321 . S
C545 C543 1.400 . S
C546 H541 0.930 . S
C546 C543 1.386 . S
C546 C547 1.395 . S
C547 C544 1.411 . S
C547 C546 1.395 . S
C547 C569 1.420 . S
O548 Eu504 2.558 1_556 S
O548 C568 1.257 . S
O549 Eu504 2.612 1_556 S
O549 Eu515 2.380 . S
O549 C560 1.276 . S
O550 Eu515 2.432 . S
O550 C567 1.264 . S
O551 Eu504 2.339 . S
O551 C567 1.254 1_554 S
O552 Eu504 2.563 1_556 S
O552 C560 1.235 . S
O553 Eu504 2.419 1_556 S
O553 C568 1.249 . S
O554 Eu515 2.558 1_554 S
O554 C579 1.257 . S
O555 Eu504 2.380 . S
O555 Eu515 2.612 1_554 S
O555 C571 1.276 . S
O556 Eu504 2.432 . S
O556 C578 1.264 . S
O557 Eu515 2.339 . S
O557 C578 1.254 1_556 S
O558 Eu515 2.563 1_554 S
O558 C571 1.235 . S
O559 Eu515 2.419 1_554 S
O559 C579 1.249 . S
C560 O549 1.276 . S
C560 O552 1.235 . S
C561 C563 1.393 . S
C561 C565 1.395 . S
C561 C568 1.492 . S
C562 C563 1.392 . S
C562 C564 1.386 . S
C563 C561 1.393 . S
C563 C562 1.392 . S
C563 H580 0.930 . S
C564 C562 1.386 . S
C564 C566 1.395 . S
C564 H581 0.930 . S
C565 C561 1.395 . S
C565 C566 1.379 . S
C565 H582 0.930 . S
C566 C564 1.395 . S
C566 C565 1.379 . S
C566 H583 0.930 . S
C567 O550 1.264 . S
C567 O551 1.254 1_556 S
C568 Eu504 2.848 1_556 S
C568 O548 1.257 . S
C568 O553 1.249 . S
C568 C561 1.492 . S
C569 H534 0.931 . S
C569 C547 1.420 . S
C569 C570 1.351 . S
C570 H532 0.930 . S
C570 C538 1.423 . S
C570 C569 1.351 . S
C571 O555 1.276 . S
C571 O558 1.235 . S
C572 C573 1.393 . S
C572 C576 1.395 . S
C572 C579 1.492 . S
C573 C572 1.393 . S
C573 C574 1.392 . S
C573 H584 0.930 . S
C574 C573 1.392 . S
C574 C575 1.386 . S
C575 C574 1.386 . S
C575 C577 1.395 . S
C575 H585 0.930 . S
C576 C572 1.395 . S
C576 C577 1.379 . S
C576 H586 0.930 . S
C577 C575 1.395 . S
C577 C576 1.379 . S
C577 H587 0.930 . S
C578 O556 1.264 . S
C578 O557 1.254 1_554 S
C579 Eu515 2.848 1_554 S
C579 O554 1.257 . S
C579 O559 1.249 . S
C579 C572 1.492 . S
H580 C563 0.930 . S
H581 C564 0.930 . S
H582 C565 0.930 . S
H583 C566 0.930 . S
H584 C573 0.930 . S
H585 C575 0.930 . S
H586 C576 0.930 . S
H587 C577 0.930 . S
Eu588 N619 2.657 . S
Eu588 N626 2.609 . S
Eu588 O632 2.558 1_554 S
Eu588 O633 2.612 1_554 S
Eu588 O635 2.339 . S
Eu588 O636 2.563 1_554 S
Eu588 O637 2.419 1_554 S
Eu588 O639 2.380 . S
Eu588 O640 2.432 1_554 S
Eu588 C652 2.848 1_554 S
C589 C592 1.429 . S
C589 C593 1.411 . S
C589 N596 1.377 . S
C590 C592 1.420 . S
C590 C594 1.423 . S
C590 C602 1.392 . S
C591 C593 1.420 . S
C591 C594 1.351 . S
C591 H614 0.931 . S
C592 C589 1.429 . S
C592 C590 1.420 . S
C592 N600 1.362 . S
C593 C589 1.411 . S
C593 C591 1.420 . S
C593 C598 1.395 . S
C594 C590 1.423 . S
C594 C591 1.351 . S
C594 H606 0.930 . S
C595 C597 1.400 . S
C595 C598 1.386 . S
C595 H607 0.930 . S
N596 C589 1.377 . S
N596 C597 1.321 . S
N596 Eu599 2.609 . S
C597 C595 1.400 . S
C597 N596 1.321 . S
C597 H604 0.930 . S
C598 C593 1.395 . S
C598 C595 1.386 . S
C598 H617 0.930 . S
Eu599 N596 2.609 . S
Eu599 N600 2.657 . S
Eu599 O633 2.380 . S
Eu599 O634 2.432 1_556 S
Eu599 O638 2.558 1_556 S
Eu599 O639 2.612 1_556 S
Eu599 O641 2.339 . S
Eu599 O642 2.563 1_556 S
Eu599 O643 2.419 1_556 S
Eu599 C663 2.848 1_556 S
N600 C592 1.362 . S
N600 Eu599 2.657 . S
N600 C601 1.334 . S
C601 N600 1.334 . S
C601 C603 1.413 . S
C601 H608 0.929 . S
C602 C590 1.392 . S
C602 C603 1.367 . S
C602 H610 0.930 . S
C603 C601 1.413 . S
C603 C602 1.367 . S
C603 H605 0.930 . S
H604 C597 0.930 . S
H605 C603 0.930 . S
H606 C594 0.930 . S
H607 C595 0.930 . S
H608 C601 0.929 . S
H609 C623 0.930 . S
H610 C602 0.930 . S
H611 C629 0.930 . S
H612 C620 0.929 . S
H613 C627 0.930 . S
H614 C591 0.931 . S
H615 C621 0.930 . S
H616 C654 0.930 . S
H617 C598 0.930 . S
H618 C653 0.931 . S
N619 Eu588 2.657 . S
N619 C620 1.334 . S
N619 C624 1.362 . S
C620 H612 0.929 . S
C620 N619 1.334 . S
C620 C623 1.413 . S
C621 H615 0.930 . S
C621 C622 1.392 . S
C621 C623 1.367 . S
C622 C621 1.392 . S
C622 C624 1.420 . S
C622 C654 1.423 . S
C623 H609 0.930 . S
C623 C620 1.413 . S
C623 C621 1.367 . S
C624 N619 1.362 . S
C624 C622 1.420 . S
C624 C628 1.429 . S
H625 C630 0.930 . S
N626 Eu588 2.609 . S
N626 C628 1.377 . S
N626 C629 1.321 . S
C627 H613 0.930 . S
C627 C629 1.400 . S
C627 C630 1.386 . S
C628 C624 1.429 . S
C628 N626 1.377 . S
C628 C631 1.411 . S
C629 H611 0.930 . S
C629 N626 1.321 . S
C629 C627 1.400 . S
C630 H625 0.930 . S
C630 C627 1.386 . S
C630 C631 1.395 . S
C631 C628 1.411 . S
C631 C630 1.395 . S
C631 C653 1.420 . S
O632 Eu588 2.558 1_556 S
O632 C652 1.257 . S
O633 Eu588 2.612 1_556 S
O633 Eu599 2.380 . S
O633 C644 1.276 . S
O634 Eu599 2.432 1_554 S
O634 C651 1.264 . S
O635 Eu588 2.339 . S
O635 C651 1.254 . S
O636 Eu588 2.563 1_556 S
O636 C644 1.235 . S
O637 Eu588 2.419 1_556 S
O637 C652 1.249 . S
O638 Eu599 2.558 1_554 S
O638 C663 1.257 . S
O639 Eu588 2.380 . S
O639 Eu599 2.612 1_554 S
O639 C655 1.276 . S
O640 Eu588 2.432 1_556 S
O640 C662 1.264 . S
O641 Eu599 2.339 . S
O641 C662 1.254 . S
O642 Eu599 2.563 1_554 S
O642 C655 1.235 . S
O643 Eu599 2.419 1_554 S
O643 C663 1.249 . S
C644 O633 1.276 . S
C644 O636 1.235 . S
C645 C647 1.393 . S
C645 C649 1.395 . S
C645 C652 1.492 . S
C646 C647 1.392 . S
C646 C648 1.386 . S
C647 C645 1.393 . S
C647 C646 1.392 . S
C647 H664 0.930 . S
C648 C646 1.386 . S
C648 C650 1.395 . S
C648 H665 0.930 . S
C649 C645 1.395 . S
C649 C650 1.379 . S
C649 H666 0.930 . S
C650 C648 1.395 . S
C650 C649 1.379 . S
C650 H667 0.930 . S
C651 O634 1.264 . S
C651 O635 1.254 . S
C652 Eu588 2.848 1_556 S
C652 O632 1.257 . S
C652 O637 1.249 . S
C652 C645 1.492 . S
C653 H618 0.931 . S
C653 C631 1.420 . S
C653 C654 1.351 . S
C654 H616 0.930 . S
C654 C622 1.423 . S
C654 C653 1.351 . S
C655 O639 1.276 . S
C655 O642 1.235 . S
C656 C657 1.393 . S
C656 C660 1.395 . S
C656 C663 1.492 . S
C657 C656 1.393 . S
C657 C658 1.392 . S
C657 H668 0.930 . S
C658 C657 1.392 . S
C658 C659 1.386 . S
C659 C658 1.386 . S
C659 C661 1.395 . S
C659 H669 0.930 . S
C660 C656 1.395 . S
C660 C661 1.379 . S
C660 H670 0.930 . S
C661 C659 1.395 . S
C661 C660 1.379 . S
C661 H671 0.930 . S
C662 O640 1.264 . S
C662 O641 1.254 . S
C663 Eu599 2.848 1_554 S
C663 O638 1.257 . S
C663 O643 1.249 . S
C663 C656 1.492 . S
H664 C647 0.930 . S
H665 C648 0.930 . S
H666 C649 0.930 . S
H667 C650 0.930 . S
H668 C657 0.930 . S
H669 C659 0.930 . S
H670 C660 0.930 . S
H671 C661 0.930 . S
C672 C673 1.349 . S
C672 C674 1.327 . S
C672 H697 0.950 . S
C673 C672 1.349 . S
C673 C689 1.349 . S
C674 C672 1.327 . S
C674 C693 1.429 . S
C674 H698 0.950 . S
C675 C692 1.574 . S
C675 C694 1.368 . S
C675 H699 0.949 . S
H676 C680 0.949 . S
C677 C678 1.349 . S
C677 C679 1.327 . S
C677 H700 0.950 . S
C678 C677 1.349 . S
C678 C690 1.349 . S
C679 C677 1.327 . S
C679 C695 1.429 . S
C679 H701 0.950 . S
C680 H676 0.949 . S
C680 C688 1.574 . S
C680 C696 1.368 . S
H681 C689 0.950 . S
H682 C687 0.950 . S
H683 C688 0.949 . S
H684 C690 0.950 . S
H685 C691 0.950 . S
H686 C692 0.949 . S
C687 H682 0.950 . S
C687 C689 1.327 . S
C687 C693 1.429 . S
C688 C680 1.574 . S
C688 H683 0.949 . S
C688 C694 1.368 . S
C689 C673 1.349 . S
C689 H681 0.950 . S
C689 C687 1.327 . S
C690 C678 1.349 . S
C690 H684 0.950 . S
C690 C691 1.327 . S
C691 H685 0.950 . S
C691 C690 1.327 . S
C691 C695 1.429 . S
C692 C675 1.574 . S
C692 H686 0.949 . S
C692 C696 1.368 . S
C693 C674 1.429 . S
C693 C687 1.429 . S
C693 C694 1.523 . S
C694 C675 1.368 . S
C694 C688 1.368 . S
C694 C693 1.523 . S
C695 C679 1.429 . S
C695 C691 1.429 . S
C695 C696 1.523 . S
C696 C680 1.368 . S
C696 C692 1.368 . S
C696 C695 1.523 . S
H697 C672 0.950 . S
H698 C674 0.950 . S
H699 C675 0.949 . S
H700 C677 0.950 . S
H701 C679 0.950 . S
C702 C703 1.349 . S
C702 C704 1.327 . S
C702 H727 0.950 . S
C703 C702 1.349 . S
C703 C719 1.349 . S
C704 C702 1.327 . S
C704 C723 1.429 . S
C704 H728 0.950 . S
C705 C722 1.574 . S
C705 C724 1.368 . S
C705 H729 0.949 . S
H706 C710 0.949 . S
C707 C708 1.349 . S
C707 C709 1.327 . S
C707 H730 0.950 . S
C708 C707 1.349 . S
C708 C720 1.349 . S
C709 C707 1.327 . S
C709 C725 1.429 . S
C709 H731 0.950 . S
C710 H706 0.949 . S
C710 C718 1.574 . S
C710 C726 1.368 . S
H711 C719 0.950 . S
H712 C717 0.950 . S
H713 C718 0.949 . S
H714 C720 0.950 . S
H715 C721 0.950 . S
H716 C722 0.949 . S
C717 H712 0.950 . S
C717 C719 1.327 . S
C717 C723 1.429 . S
C718 C710 1.574 . S
C718 H713 0.949 . S
C718 C724 1.368 . S
C719 C703 1.349 . S
C719 H711 0.950 . S
C719 C717 1.327 . S
C720 C708 1.349 . S
C720 H714 0.950 . S
C720 C721 1.327 . S
C721 H715 0.950 . S
C721 C720 1.327 . S
C721 C725 1.429 . S
C722 C705 1.574 . S
C722 H716 0.949 . S
C722 C726 1.368 . S
C723 C704 1.429 . S
C723 C717 1.429 . S
C723 C724 1.523 . S
C724 C705 1.368 . S
C724 C718 1.368 . S
C724 C723 1.523 . S
C725 C709 1.429 . S
C725 C721 1.429 . S
C725 C726 1.523 . S
C726 C710 1.368 . S
C726 C722 1.368 . S
C726 C725 1.523 . S
H727 C702 0.950 . S
H728 C704 0.950 . S
H729 C705 0.949 . S
H730 C707 0.950 . S
H731 C709 0.950 . S
C732 C733 1.349 . S
C732 C734 1.327 . S
C732 H757 0.950 . S
C733 C732 1.349 . S
C733 C749 1.349 . S
C734 C732 1.327 . S
C734 C753 1.429 . S
C734 H758 0.950 . S
C735 C752 1.574 . S
C735 C754 1.368 . S
C735 H759 0.949 . S
H736 C740 0.949 . S
C737 C738 1.349 . S
C737 C739 1.327 . S
C737 H760 0.950 . S
C738 C737 1.349 . S
C738 C750 1.349 . S
C739 C737 1.327 . S
C739 C755 1.429 . S
C739 H761 0.950 . S
C740 H736 0.949 . S
C740 C748 1.574 . S
C740 C756 1.368 . S
H741 C749 0.950 . S
H742 C747 0.950 . S
H743 C748 0.949 . S
H744 C750 0.950 . S
H745 C751 0.950 . S
H746 C752 0.949 . S
C747 H742 0.950 . S
C747 C749 1.327 . S
C747 C753 1.429 . S
C748 C740 1.574 . S
C748 H743 0.949 . S
C748 C754 1.368 . S
C749 C733 1.349 . S
C749 H741 0.950 . S
C749 C747 1.327 . S
C750 C738 1.349 . S
C750 H744 0.950 . S
C750 C751 1.327 . S
C751 H745 0.950 . S
C751 C750 1.327 . S
C751 C755 1.429 . S
C752 C735 1.574 . S
C752 H746 0.949 . S
C752 C756 1.368 . S
C753 C734 1.429 . S
C753 C747 1.429 . S
C753 C754 1.523 . S
C754 C735 1.368 . S
C754 C748 1.368 . S
C754 C753 1.523 . S
C755 C739 1.429 . S
C755 C751 1.429 . S
C755 C756 1.523 . S
C756 C740 1.368 . S
C756 C752 1.368 . S
C756 C755 1.523 . S
H757 C732 0.950 . S
H758 C734 0.950 . S
H759 C735 0.949 . S
H760 C737 0.950 . S
H761 C739 0.950 . S
C762 C763 1.349 . S
C762 C764 1.327 . S
C762 H787 0.950 . S
C763 C762 1.349 . S
C763 C779 1.349 . S
C764 C762 1.327 . S
C764 C783 1.429 . S
C764 H788 0.950 . S
C765 C782 1.574 . S
C765 C784 1.368 . S
C765 H789 0.949 . S
H766 C770 0.949 . S
C767 C768 1.349 . S
C767 C769 1.327 . S
C767 H790 0.950 . S
C768 C767 1.349 . S
C768 C780 1.349 . S
C769 C767 1.327 . S
C769 C785 1.429 . S
C769 H791 0.950 . S
C770 H766 0.949 . S
C770 C778 1.574 . S
C770 C786 1.368 . S
H771 C779 0.950 . S
H772 C777 0.950 . S
H773 C778 0.949 . S
H774 C780 0.950 . S
H775 C781 0.950 . S
H776 C782 0.949 . S
C777 H772 0.950 . S
C777 C779 1.327 . S
C777 C783 1.429 . S
C778 C770 1.574 . S
C778 H773 0.949 . S
C778 C784 1.368 . S
C779 C763 1.349 . S
C779 H771 0.950 . S
C779 C777 1.327 . S
C780 C768 1.349 . S
C780 H774 0.950 . S
C780 C781 1.327 . S
C781 H775 0.950 . S
C781 C780 1.327 . S
C781 C785 1.429 . S
C782 C765 1.574 . S
C782 H776 0.949 . S
C782 C786 1.368 . S
C783 C764 1.429 . S
C783 C777 1.429 . S
C783 C784 1.523 . S
C784 C765 1.368 . S
C784 C778 1.368 . S
C784 C783 1.523 . S
C785 C769 1.429 . S
C785 C781 1.429 . S
C785 C786 1.523 . S
C786 C770 1.368 . S
C786 C782 1.368 . S
C786 C785 1.523 . S
H787 C762 0.950 . S
H788 C764 0.950 . S
H789 C765 0.949 . S
H790 C767 0.950 . S
H791 C769 0.950 . S
C792 C793 1.349 . S
C792 C794 1.327 . S
C792 H817 0.950 . S
C793 C792 1.349 . S
C793 C809 1.349 . S
C794 C792 1.327 . S
C794 C813 1.429 . S
C794 H818 0.950 . S
C795 C812 1.574 1_565 S
C795 C814 1.368 . S
C795 H819 0.949 . S
H796 C800 0.949 . S
C797 C798 1.349 . S
C797 C799 1.327 . S
C797 H820 0.950 . S
C798 C797 1.349 . S
C798 C810 1.349 . S
C799 C797 1.327 . S
C799 C815 1.429 . S
C799 H821 0.950 . S
C800 H796 0.949 . S
C800 C808 1.574 1_545 S
C800 C816 1.368 . S
H801 C809 0.950 . S
H802 C807 0.950 . S
H803 C808 0.949 . S
H804 C810 0.950 . S
H805 C811 0.950 . S
H806 C812 0.949 . S
C807 H802 0.950 . S
C807 C809 1.327 . S
C807 C813 1.429 . S
C808 C800 1.574 1_565 S
C808 H803 0.949 . S
C808 C814 1.368 . S
C809 C793 1.349 . S
C809 H801 0.950 . S
C809 C807 1.327 . S
C810 C798 1.349 . S
C810 H804 0.950 . S
C810 C811 1.327 . S
C811 H805 0.950 . S
C811 C810 1.327 . S
C811 C815 1.429 . S
C812 C795 1.574 1_545 S
C812 H806 0.949 . S
C812 C816 1.368 . S
C813 C794 1.429 . S
C813 C807 1.429 . S
C813 C814 1.523 . S
C814 C795 1.368 . S
C814 C808 1.368 . S
C814 C813 1.523 . S
C815 C799 1.429 . S
C815 C811 1.429 . S
C815 C816 1.523 . S
C816 C800 1.368 . S
C816 C812 1.368 . S
C816 C815 1.523 . S
H817 C792 0.950 . S
H818 C794 0.950 . S
H819 C795 0.949 . S
H820 C797 0.950 . S
H821 C799 0.950 . S
C822 C823 1.349 . S
C822 C824 1.327 . S
C822 H847 0.950 . S
C823 C822 1.349 . S
C823 C839 1.349 . S
C824 C822 1.327 . S
C824 C843 1.429 . S
C824 H848 0.950 . S
C825 C842 1.574 . S
C825 C844 1.368 . S
C825 H849 0.949 . S
H826 C830 0.949 . S
C827 C828 1.349 . S
C827 C829 1.327 . S
C827 H850 0.950 . S
C828 C827 1.349 . S
C828 C840 1.349 . S
C829 C827 1.327 . S
C829 C845 1.429 . S
C829 H851 0.950 . S
C830 H826 0.949 . S
C830 C838 1.574 . S
C830 C846 1.368 . S
H831 C839 0.950 . S
H832 C837 0.950 . S
H833 C838 0.949 . S
H834 C840 0.950 . S
H835 C841 0.950 . S
H836 C842 0.949 . S
C837 H832 0.950 . S
C837 C839 1.327 . S
C837 C843 1.429 . S
C838 C830 1.574 . S
C838 H833 0.949 . S
C838 C844 1.368 . S
C839 C823 1.349 . S
C839 H831 0.950 . S
C839 C837 1.327 . S
C840 C828 1.349 . S
C840 H834 0.950 . S
C840 C841 1.327 . S
C841 H835 0.950 . S
C841 C840 1.327 . S
C841 C845 1.429 . S
C842 C825 1.574 . S
C842 H836 0.949 . S
C842 C846 1.368 . S
C843 C824 1.429 . S
C843 C837 1.429 . S
C843 C844 1.523 . S
C844 C825 1.368 . S
C844 C838 1.368 . S
C844 C843 1.523 . S
C845 C829 1.429 . S
C845 C841 1.429 . S
C845 C846 1.523 . S
C846 C830 1.368 . S
C846 C842 1.368 . S
C846 C845 1.523 . S
H847 C822 0.950 . S
H848 C824 0.950 . S
H849 C825 0.949 . S
H850 C827 0.950 . S
H851 C829 0.950 . S
C852 C853 1.349 . S
C852 C854 1.327 . S
C852 H877 0.950 . S
C853 C852 1.349 . S
C853 C869 1.349 . S
C854 C852 1.327 . S
C854 C873 1.429 . S
C854 H878 0.950 . S
C855 C872 1.574 1_565 S
C855 C874 1.368 . S
C855 H879 0.949 . S
H856 C860 0.949 . S
C857 C858 1.349 . S
C857 C859 1.327 . S
C857 H880 0.950 . S
C858 C857 1.349 . S
C858 C870 1.349 . S
C859 C857 1.327 . S
C859 C875 1.429 . S
C859 H881 0.950 . S
C860 H856 0.949 . S
C860 C868 1.574 1_545 S
C860 C876 1.368 . S
H861 C869 0.950 . S
H862 C867 0.950 . S
H863 C868 0.949 . S
H864 C870 0.950 . S
H865 C871 0.950 . S
H866 C872 0.949 . S
C867 H862 0.950 . S
C867 C869 1.327 . S
C867 C873 1.429 . S
C868 C860 1.574 1_565 S
C868 H863 0.949 . S
C868 C874 1.368 . S
C869 C853 1.349 . S
C869 H861 0.950 . S
C869 C867 1.327 . S
C870 C858 1.349 . S
C870 H864 0.950 . S
C870 C871 1.327 . S
C871 H865 0.950 . S
C871 C870 1.327 . S
C871 C875 1.429 . S
C872 C855 1.574 1_545 S
C872 H866 0.949 . S
C872 C876 1.368 . S
C873 C854 1.429 . S
C873 C867 1.429 . S
C873 C874 1.523 . S
C874 C855 1.368 . S
C874 C868 1.368 . S
C874 C873 1.523 . S
C875 C859 1.429 . S
C875 C871 1.429 . S
C875 C876 1.523 . S
C876 C860 1.368 . S
C876 C872 1.368 . S
C876 C875 1.523 . S
H877 C852 0.950 . S
H878 C854 0.950 . S
H879 C855 0.949 . S
H880 C857 0.950 . S
H881 C859 0.950 . S
C882 C883 1.349 . S
C882 C884 1.327 . S
C882 H907 0.950 . S
C883 C882 1.349 . S
C883 C899 1.349 . S
C884 C882 1.327 . S
C884 C903 1.429 . S
C884 H908 0.950 . S
C885 C902 1.574 . S
C885 C904 1.368 . S
C885 H909 0.949 . S
H886 C890 0.949 . S
C887 C888 1.349 . S
C887 C889 1.327 . S
C887 H910 0.950 . S
C888 C887 1.349 . S
C888 C900 1.349 . S
C889 C887 1.327 . S
C889 C905 1.429 . S
C889 H911 0.950 . S
C890 H886 0.949 . S
C890 C898 1.574 . S
C890 C906 1.368 . S
H891 C899 0.950 . S
H892 C897 0.950 . S
H893 C898 0.949 . S
H894 C900 0.950 . S
H895 C901 0.950 . S
H896 C902 0.949 . S
C897 H892 0.950 . S
C897 C899 1.327 . S
C897 C903 1.429 . S
C898 C890 1.574 . S
C898 H893 0.949 . S
C898 C904 1.368 . S
C899 C883 1.349 . S
C899 H891 0.950 . S
C899 C897 1.327 . S
C900 C888 1.349 . S
C900 H894 0.950 . S
C900 C901 1.327 . S
C901 H895 0.950 . S
C901 C900 1.327 . S
C901 C905 1.429 . S
C902 C885 1.574 . S
C902 H896 0.949 . S
C902 C906 1.368 . S
C903 C884 1.429 . S
C903 C897 1.429 . S
C903 C904 1.523 . S
C904 C885 1.368 . S
C904 C898 1.368 . S
C904 C903 1.523 . S
C905 C889 1.429 . S
C905 C901 1.429 . S
C905 C906 1.523 . S
C906 C890 1.368 . S
C906 C902 1.368 . S
C906 C905 1.523 . S
H907 C882 0.950 . S
H908 C884 0.950 . S
H909 C885 0.949 . S
H910 C887 0.950 . S
H911 C889 0.950 . S
C912 C913 1.349 1_556 S
C912 C914 1.327 . S
C912 H937 0.950 . S
C913 C912 1.349 1_554 S
C913 C929 1.349 . S
C914 C912 1.327 . S
C914 C933 1.429 1_556 S
C914 H938 0.950 . S
C915 C932 1.574 . S
C915 C934 1.368 . S
C915 H939 0.949 . S
H916 C920 0.949 . S
C917 C918 1.349 . S
C917 C919 1.327 . S
C917 H940 0.950 . S
C918 C917 1.349 . S
C918 C930 1.349 . S
C919 C917 1.327 . S
C919 C935 1.429 . S
C919 H941 0.950 . S
C920 H916 0.949 . S
C920 C928 1.574 . S
C920 C936 1.368 1_556 S
H921 C929 0.950 . S
H922 C927 0.950 . S
H923 C928 0.949 . S
H924 C930 0.950 1_556 S
H925 C931 0.950 1_556 S
H926 C932 0.949 . S
C927 H922 0.950 . S
C927 C929 1.327 . S
C927 C933 1.429 . S
C928 C920 1.574 . S
C928 H923 0.949 . S
C928 C934 1.368 1_556 S
C929 C913 1.349 . S
C929 H921 0.950 . S
C929 C927 1.327 . S
C930 C918 1.349 . S
C930 H924 0.950 1_554 S
C930 C931 1.327 . S
C931 H925 0.950 1_554 S
C931 C930 1.327 . S
C931 C935 1.429 . S
C932 C915 1.574 . S
C932 H926 0.949 . S
C932 C936 1.368 . S
C933 C914 1.429 1_554 S
C933 C927 1.429 . S
C933 C934 1.523 . S
C934 C915 1.368 . S
C934 C928 1.368 1_554 S
C934 C933 1.523 . S
C935 C919 1.429 . S
C935 C931 1.429 . S
C935 C936 1.523 . S
C936 C920 1.368 1_554 S
C936 C932 1.368 . S
C936 C935 1.523 . S
H937 C912 0.950 . S
H938 C914 0.950 . S
H939 C915 0.949 . S
H940 C917 0.950 . S
H941 C919 0.950 . S
C942 C943 1.349 1_554 S
C942 C944 1.327 . S
C942 H967 0.950 . S
C943 C942 1.349 1_556 S
C943 C959 1.349 . S
C944 C942 1.327 . S
C944 C963 1.429 1_554 S
C944 H968 0.950 . S
C945 C962 1.574 1_565 S
C945 C964 1.368 . S
C945 H969 0.949 . S
H946 C950 0.949 . S
C947 C948 1.349 1_556 S
C947 C949 1.327 . S
C947 H970 0.950 . S
C948 C947 1.349 1_554 S
C948 C960 1.349 . S
C949 C947 1.327 . S
C949 C965 1.429 1_556 S
C949 H971 0.950 . S
C950 H946 0.949 . S
C950 C958 1.574 1_545 S
C950 C966 1.368 1_554 S
H951 C959 0.950 . S
H952 C957 0.950 . S
H953 C958 0.949 . S
H954 C960 0.950 . S
H955 C961 0.950 . S
H956 C962 0.949 . S
C957 H952 0.950 . S
C957 C959 1.327 . S
C957 C963 1.429 . S
C958 C950 1.574 1_565 S
C958 H953 0.949 . S
C958 C964 1.368 1_554 S
C959 C943 1.349 . S
C959 H951 0.950 . S
C959 C957 1.327 . S
C960 C948 1.349 . S
C960 H954 0.950 . S
C960 C961 1.327 . S
C961 H955 0.950 . S
C961 C960 1.327 . S
C961 C965 1.429 . S
C962 C945 1.574 1_545 S
C962 H956 0.949 . S
C962 C966 1.368 . S
C963 C944 1.429 1_556 S
C963 C957 1.429 . S
C963 C964 1.523 . S
C964 C945 1.368 . S
C964 C958 1.368 1_556 S
C964 C963 1.523 . S
C965 C949 1.429 1_554 S
C965 C961 1.429 . S
C965 C966 1.523 1_554 S
C966 C950 1.368 1_556 S
C966 C962 1.368 . S
C966 C965 1.523 1_556 S
H967 C942 0.950 . S
H968 C944 0.950 . S
H969 C945 0.949 . S
H970 C947 0.950 . S
H971 C949 0.950 . S
C972 C973 1.349 1_554 S
C972 C974 1.327 . S
C972 H997 0.950 . S
C973 C972 1.349 1_556 S
C973 C989 1.349 . S
C974 C972 1.327 . S
C974 C993 1.429 1_554 S
C974 H998 0.950 . S
C975 C992 1.574 . S
C975 C994 1.368 1_556 S
C975 H999 0.949 . S
H976 C980 0.949 . S
C977 C978 1.349 1_556 S
C977 C979 1.327 . S
C977 H1000 0.950 . S
C978 C977 1.349 1_554 S
C978 C990 1.349 . S
C979 C977 1.327 . S
C979 C995 1.429 1_556 S
C979 H1001 0.950 . S
C980 H976 0.949 . S
C980 C988 1.574 . S
C980 C996 1.368 . S
H981 C989 0.950 . S
H982 C987 0.950 . S
H983 C988 0.949 . S
H984 C990 0.950 . S
H985 C991 0.950 . S
H986 C992 0.949 . S
C987 H982 0.950 . S
C987 C989 1.327 . S
C987 C993 1.429 . S
C988 C980 1.574 . S
C988 H983 0.949 . S
C988 C994 1.368 . S
C989 C973 1.349 . S
C989 H981 0.950 . S
C989 C987 1.327 . S
C990 C978 1.349 . S
C990 H984 0.950 . S
C990 C991 1.327 . S
C991 H985 0.950 . S
C991 C990 1.327 . S
C991 C995 1.429 . S
C992 C975 1.574 . S
C992 H986 0.949 . S
C992 C996 1.368 1_556 S
C993 C974 1.429 1_556 S
C993 C987 1.429 . S
C993 C994 1.523 1_556 S
C994 C975 1.368 1_554 S
C994 C988 1.368 . S
C994 C993 1.523 1_554 S
C995 C979 1.429 1_554 S
C995 C991 1.429 . S
C995 C996 1.523 . S
C996 C980 1.368 . S
C996 C992 1.368 1_554 S
C996 C995 1.523 . S
H997 C972 0.950 . S
H998 C974 0.950 . S
H999 C975 0.949 . S
H1000 C977 0.950 . S
H1001 C979 0.950 . S
C1002 C1003 1.349 1_554 S
C1002 C1004 1.327 . S
C1002 H1027 0.950 . S
C1003 C1002 1.349 1_556 S
C1003 C1019 1.349 . S
C1004 C1002 1.327 . S
C1004 C1023 1.429 1_554 S
C1004 H1028 0.950 . S
C1005 C1022 1.574 1_545 S
C1005 C1024 1.368 . S
C1005 H1029 0.949 . S
H1006 C1010 0.949 . S
C1007 C1008 1.349 . S
C1007 C1009 1.327 . S
C1007 H1030 0.950 . S
C1008 C1007 1.349 . S
C1008 C1020 1.349 1_556 S
C1009 C1007 1.327 . S
C1009 C1025 1.429 . S
C1009 H1031 0.950 . S
C1010 H1006 0.949 . S
C1010 C1018 1.574 1_565 S
C1010 C1026 1.368 1_554 S
H1011 C1019 0.950 . S
H1012 C1017 0.950 . S
H1013 C1018 0.949 . S
H1014 C1020 0.950 . S
H1015 C1021 0.950 . S
H1016 C1022 0.949 . S
C1017 H1012 0.950 . S
C1017 C1019 1.327 . S
C1017 C1023 1.429 . S
C1018 C1010 1.574 1_545 S
C1018 H1013 0.949 . S
C1018 C1024 1.368 1_554 S
C1019 C1003 1.349 . S
C1019 H1011 0.950 . S
C1019 C1017 1.327 . S
C1020 C1008 1.349 1_554 S
C1020 H1014 0.950 . S
C1020 C1021 1.327 . S
C1021 H1015 0.950 . S
C1021 C1020 1.327 . S
C1021 C1025 1.429 1_554 S
C1022 C1005 1.574 1_565 S
C1022 H1016 0.949 . S
C1022 C1026 1.368 . S
C1023 C1004 1.429 1_556 S
C1023 C1017 1.429 . S
C1023 C1024 1.523 . S
C1024 C1005 1.368 . S
C1024 C1018 1.368 1_556 S
C1024 C1023 1.523 . S
C1025 C1009 1.429 . S
C1025 C1021 1.429 1_556 S
C1025 C1026 1.523 . S
C1026 C1010 1.368 1_556 S
C1026 C1022 1.368 . S
C1026 C1025 1.523 . S
H1027 C1002 0.950 . S
H1028 C1004 0.950 . S
H1029 C1005 0.949 . S
H1030 C1007 0.950 . S
H1031 C1009 0.950 . S
C1032 C1033 1.349 . S
C1032 C1034 1.327 . S
C1032 H1057 0.950 . S
C1033 C1032 1.349 . S
C1033 C1049 1.349 . S
C1034 C1032 1.327 . S
C1034 C1053 1.429 . S
C1034 H1058 0.950 . S
C1035 C1052 1.574 1_554 S
C1035 C1054 1.368 . S
C1035 H1059 0.949 . S
H1036 C1040 0.949 . S
C1037 C1038 1.349 . S
C1037 C1039 1.327 . S
C1037 H1060 0.950 . S
C1038 C1037 1.349 . S
C1038 C1050 1.349 . S
C1039 C1037 1.327 . S
C1039 C1055 1.429 . S
C1039 H1061 0.950 . S
C1040 H1036 0.949 . S
C1040 C1048 1.574 1_556 S
C1040 C1056 1.368 . S
H1041 C1049 0.950 . S
H1042 C1047 0.950 . S
H1043 C1048 0.949 . S
H1044 C1050 0.950 . S
H1045 C1051 0.950 . S
H1046 C1052 0.949 . S
C1047 H1042 0.950 . S
C1047 C1049 1.327 . S
C1047 C1053 1.429 . S
C1048 C1040 1.574 1_554 S
C1048 H1043 0.949 . S
C1048 C1054 1.368 . S
C1049 C1033 1.349 . S
C1049 H1041 0.950 . S
C1049 C1047 1.327 . S
C1050 C1038 1.349 . S
C1050 H1044 0.950 . S
C1050 C1051 1.327 . S
C1051 H1045 0.950 . S
C1051 C1050 1.327 . S
C1051 C1055 1.429 . S
C1052 C1035 1.574 1_556 S
C1052 H1046 0.949 . S
C1052 C1056 1.368 . S
C1053 C1034 1.429 . S
C1053 C1047 1.429 . S
C1053 C1054 1.523 . S
C1054 C1035 1.368 . S
C1054 C1048 1.368 . S
C1054 C1053 1.523 . S
C1055 C1039 1.429 . S
C1055 C1051 1.429 . S
C1055 C1056 1.523 . S
C1056 C1040 1.368 . S
C1056 C1052 1.368 . S
C1056 C1055 1.523 . S
H1057 C1032 0.950 . S
H1058 C1034 0.950 . S
H1059 C1035 0.949 . S
H1060 C1037 0.950 . S
H1061 C1039 0.950 . S
C1062 C1063 1.349 . S
C1062 C1064 1.327 . S
C1062 H1087 0.950 . S
C1063 C1062 1.349 . S
C1063 C1079 1.349 . S
C1064 C1062 1.327 . S
C1064 C1083 1.429 . S
C1064 H1088 0.950 . S
C1065 C1082 1.574 1_554 S
C1065 C1084 1.368 . S
C1065 H1089 0.949 . S
H1066 C1070 0.949 . S
C1067 C1068 1.349 . S
C1067 C1069 1.327 . S
C1067 H1090 0.950 . S
C1068 C1067 1.349 . S
C1068 C1080 1.349 . S
C1069 C1067 1.327 . S
C1069 C1085 1.429 . S
C1069 H1091 0.950 . S
C1070 H1066 0.949 . S
C1070 C1078 1.574 . S
C1070 C1086 1.368 . S
H1071 C1079 0.950 . S
H1072 C1077 0.950 . S
H1073 C1078 0.949 1_554 S
H1074 C1080 0.950 . S
H1075 C1081 0.950 . S
H1076 C1082 0.949 . S
C1077 H1072 0.950 . S
C1077 C1079 1.327 . S
C1077 C1083 1.429 . S
C1078 C1070 1.574 . S
C1078 H1073 0.949 1_556 S
C1078 C1084 1.368 1_556 S
C1079 C1063 1.349 . S
C1079 H1071 0.950 . S
C1079 C1077 1.327 . S
C1080 C1068 1.349 . S
C1080 H1074 0.950 . S
C1080 C1081 1.327 . S
C1081 H1075 0.950 . S
C1081 C1080 1.327 . S
C1081 C1085 1.429 . S
C1082 C1065 1.574 1_556 S
C1082 H1076 0.949 . S
C1082 C1086 1.368 . S
C1083 C1064 1.429 . S
C1083 C1077 1.429 . S
C1083 C1084 1.523 . S
C1084 C1065 1.368 . S
C1084 C1078 1.368 1_554 S
C1084 C1083 1.523 . S
C1085 C1069 1.429 . S
C1085 C1081 1.429 . S
C1085 C1086 1.523 . S
C1086 C1070 1.368 . S
C1086 C1082 1.368 . S
C1086 C1085 1.523 . S
H1087 C1062 0.950 . S
H1088 C1064 0.950 . S
H1089 C1065 0.949 . S
H1090 C1067 0.950 . S
H1091 C1069 0.950 . S
C1092 C1093 1.349 . S
C1092 C1094 1.327 . S
C1092 H1117 0.950 . S
C1093 C1092 1.349 . S
C1093 C1109 1.349 . S
C1094 C1092 1.327 . S
C1094 C1113 1.429 . S
C1094 H1118 0.950 . S
C1095 C1112 1.574 1_554 S
C1095 C1114 1.368 . S
C1095 H1119 0.949 . S
H1096 C1100 0.949 . S
C1097 C1098 1.349 . S
C1097 C1099 1.327 . S
C1097 H1120 0.950 . S
C1098 C1097 1.349 . S
C1098 C1110 1.349 . S
C1099 C1097 1.327 . S
C1099 C1115 1.429 . S
C1099 H1121 0.950 . S
C1100 H1096 0.949 . S
C1100 C1108 1.574 1_556 S
C1100 C1116 1.368 . S
H1101 C1109 0.950 . S
H1102 C1107 0.950 . S
H1103 C1108 0.949 . S
H1104 C1110 0.950 . S
H1105 C1111 0.950 . S
H1106 C1112 0.949 . S
C1107 H1102 0.950 . S
C1107 C1109 1.327 . S
C1107 C1113 1.429 . S
C1108 C1100 1.574 1_554 S
C1108 H1103 0.949 . S
C1108 C1114 1.368 . S
C1109 C1093 1.349 . S
C1109 H1101 0.950 . S
C1109 C1107 1.327 . S
C1110 C1098 1.349 . S
C1110 H1104 0.950 . S
C1110 C1111 1.327 . S
C1111 H1105 0.950 . S
C1111 C1110 1.327 . S
C1111 C1115 1.429 . S
C1112 C1095 1.574 1_556 S
C1112 H1106 0.949 . S
C1112 C1116 1.368 . S
C1113 C1094 1.429 . S
C1113 C1107 1.429 . S
C1113 C1114 1.523 . S
C1114 C1095 1.368 . S
C1114 C1108 1.368 . S
C1114 C1113 1.523 . S
C1115 C1099 1.429 . S
C1115 C1111 1.429 . S
C1115 C1116 1.523 . S
C1116 C1100 1.368 . S
C1116 C1112 1.368 . S
C1116 C1115 1.523 . S
H1117 C1092 0.950 . S
H1118 C1094 0.950 . S
H1119 C1095 0.949 . S
H1120 C1097 0.950 . S
H1121 C1099 0.950 . S
C1122 C1123 1.349 . S
C1122 C1124 1.327 . S
C1122 H1147 0.950 . S
C1123 C1122 1.349 . S
C1123 C1139 1.349 . S
C1124 C1122 1.327 . S
C1124 C1143 1.429 . S
C1124 H1148 0.950 . S
C1125 C1142 1.574 1_556 S
C1125 C1144 1.368 . S
C1125 H1149 0.949 . S
H1126 C1130 0.949 . S
C1127 C1128 1.349 . S
C1127 C1129 1.327 . S
C1127 H1150 0.950 . S
C1128 C1127 1.349 . S
C1128 C1140 1.349 . S
C1129 C1127 1.327 . S
C1129 C1145 1.429 . S
C1129 H1151 0.950 . S
C1130 H1126 0.949 . S
C1130 C1138 1.581 . S
C1130 C1146 1.368 . S
H1131 C1139 0.950 . S
H1132 C1137 0.950 . S
H1133 C1138 0.945 1_556 S
H1134 C1140 0.950 . S
H1135 C1141 0.950 . S
H1136 C1142 0.949 . S
C1137 H1132 0.950 . S
C1137 C1139 1.327 . S
C1137 C1143 1.429 . S
C1138 C1130 1.581 . S
C1138 H1133 0.945 1_554 S
C1138 C1144 1.366 1_554 S
C1139 C1123 1.349 . S
C1139 H1131 0.950 . S
C1139 C1137 1.327 . S
C1140 C1128 1.349 . S
C1140 H1134 0.950 . S
C1140 C1141 1.327 . S
C1141 H1135 0.950 . S
C1141 C1140 1.327 . S
C1141 C1145 1.429 . S
C1142 C1125 1.574 1_554 S
C1142 H1136 0.949 . S
C1142 C1146 1.368 . S
C1143 C1124 1.429 . S
C1143 C1137 1.429 . S
C1143 C1144 1.523 . S
C1144 C1125 1.368 . S
C1144 C1138 1.366 1_556 S
C1144 C1143 1.523 . S
C1145 C1129 1.429 . S
C1145 C1141 1.429 . S
C1145 C1146 1.523 . S
C1146 C1130 1.368 . S
C1146 C1142 1.368 . S
C1146 C1145 1.523 . S
H1147 C1122 0.950 . S
H1148 C1124 0.950 . S
H1149 C1125 0.949 . S
H1150 C1127 0.950 . S
H1151 C1129 0.950 . S
C1152 C1153 1.349 . S
C1152 C1154 1.327 . S
C1152 H1177 0.950 . S
C1153 C1152 1.349 . S
C1153 C1169 1.349 . S
C1154 C1152 1.327 . S
C1154 C1173 1.429 . S
C1154 H1178 0.950 . S
C1155 C1172 1.574 . S
C1155 C1174 1.368 . S
C1155 H1179 0.949 . S
H1156 C1160 0.949 . S
C1157 C1158 1.349 . S
C1157 C1159 1.327 . S
C1157 H1180 0.950 . S
C1158 C1157 1.349 . S
C1158 C1170 1.349 . S
C1159 C1157 1.327 . S
C1159 C1175 1.429 . S
C1159 H1181 0.950 . S
C1160 H1156 0.949 . S
C1160 C1168 1.574 . S
C1160 C1176 1.368 . S
H1161 C1169 0.950 . S
H1162 C1167 0.950 . S
H1163 C1168 0.949 . S
H1164 C1170 0.950 . S
H1165 C1171 0.950 . S
H1166 C1172 0.949 . S
C1167 H1162 0.950 . S
C1167 C1169 1.327 . S
C1167 C1173 1.429 . S
C1168 C1160 1.574 . S
C1168 H1163 0.949 . S
C1168 C1174 1.368 . S
C1169 C1153 1.349 . S
C1169 H1161 0.950 . S
C1169 C1167 1.327 . S
C1170 C1158 1.349 . S
C1170 H1164 0.950 . S
C1170 C1171 1.327 . S
C1171 H1165 0.950 . S
C1171 C1170 1.327 . S
C1171 C1175 1.429 . S
C1172 C1155 1.574 . S
C1172 H1166 0.949 . S
C1172 C1176 1.368 . S
C1173 C1154 1.429 . S
C1173 C1167 1.429 . S
C1173 C1174 1.523 . S
C1174 C1155 1.368 . S
C1174 C1168 1.368 . S
C1174 C1173 1.523 . S
C1175 C1159 1.429 . S
C1175 C1171 1.429 . S
C1175 C1176 1.523 . S
C1176 C1160 1.368 . S
C1176 C1172 1.368 . S
C1176 C1175 1.523 . S
H1177 C1152 0.950 . S
H1178 C1154 0.950 . S
H1179 C1155 0.949 . S
H1180 C1157 0.950 . S
H1181 C1159 0.950 . S
C1182 C1183 1.349 . S
C1182 C1184 1.327 . S
C1182 H1207 0.950 . S
C1183 C1182 1.349 . S
C1183 C1199 1.349 . S
C1184 C1182 1.327 . S
C1184 C1203 1.429 . S
C1184 H1208 0.950 . S
C1185 C1202 1.574 . S
C1185 C1204 1.368 . S
C1185 H1209 0.949 . S
H1186 C1190 0.949 . S
C1187 C1188 1.349 . S
C1187 C1189 1.327 . S
C1187 H1210 0.950 . S
C1188 C1187 1.349 . S
C1188 C1200 1.349 . S
C1189 C1187 1.327 . S
C1189 C1205 1.429 . S
C1189 H1211 0.950 . S
C1190 H1186 0.949 . S
C1190 C1198 1.574 . S
C1190 C1206 1.368 . S
H1191 C1199 0.950 . S
H1192 C1197 0.950 . S
H1193 C1198 0.949 . S
H1194 C1200 0.950 . S
H1195 C1201 0.950 . S
H1196 C1202 0.949 . S
C1197 H1192 0.950 . S
C1197 C1199 1.327 . S
C1197 C1203 1.429 . S
C1198 C1190 1.574 . S
C1198 H1193 0.949 . S
C1198 C1204 1.368 . S
C1199 C1183 1.349 . S
C1199 H1191 0.950 . S
C1199 C1197 1.327 . S
C1200 C1188 1.349 . S
C1200 H1194 0.950 . S
C1200 C1201 1.327 . S
C1201 H1195 0.950 . S
C1201 C1200 1.327 . S
C1201 C1205 1.429 . S
C1202 C1185 1.574 . S
C1202 H1196 0.949 . S
C1202 C1206 1.368 . S
C1203 C1184 1.429 . S
C1203 C1197 1.429 . S
C1203 C1204 1.523 . S
C1204 C1185 1.368 . S
C1204 C1198 1.368 . S
C1204 C1203 1.523 . S
C1205 C1189 1.429 . S
C1205 C1201 1.429 . S
C1205 C1206 1.523 . S
C1206 C1190 1.368 . S
C1206 C1202 1.368 . S
C1206 C1205 1.523 . S
H1207 C1182 0.950 . S
H1208 C1184 0.950 . S
H1209 C1185 0.949 . S
H1210 C1187 0.950 . S
H1211 C1189 0.950 . S
C1212 C1213 1.349 . S
C1212 C1214 1.327 . S
C1212 H1237 0.950 . S
C1213 C1212 1.349 . S
C1213 C1229 1.349 . S
C1214 C1212 1.327 . S
C1214 C1233 1.429 . S
C1214 H1238 0.950 . S
C1215 C1232 1.574 . S
C1215 C1234 1.368 . S
C1215 H1239 0.949 . S
H1216 C1220 0.949 . S
C1217 C1218 1.349 . S
C1217 C1219 1.327 . S
C1217 H1240 0.950 . S
C1218 C1217 1.349 . S
C1218 C1230 1.349 . S
C1219 C1217 1.327 . S
C1219 C1235 1.429 . S
C1219 H1241 0.950 . S
C1220 H1216 0.949 . S
C1220 C1228 1.574 . S
C1220 C1236 1.368 . S
H1221 C1229 0.950 . S
H1222 C1227 0.950 . S
H1223 C1228 0.949 . S
H1224 C1230 0.950 . S
H1225 C1231 0.950 . S
H1226 C1232 0.949 . S
C1227 H1222 0.950 . S
C1227 C1229 1.327 . S
C1227 C1233 1.429 . S
C1228 C1220 1.574 . S
C1228 H1223 0.949 . S
C1228 C1234 1.368 . S
C1229 C1213 1.349 . S
C1229 H1221 0.950 . S
C1229 C1227 1.327 . S
C1230 C1218 1.349 . S
C1230 H1224 0.950 . S
C1230 C1231 1.327 . S
C1231 H1225 0.950 . S
C1231 C1230 1.327 . S
C1231 C1235 1.429 . S
C1232 C1215 1.574 . S
C1232 H1226 0.949 . S
C1232 C1236 1.368 . S
C1233 C1214 1.429 . S
C1233 C1227 1.429 . S
C1233 C1234 1.523 . S
C1234 C1215 1.368 . S
C1234 C1228 1.368 . S
C1234 C1233 1.523 . S
C1235 C1219 1.429 . S
C1235 C1231 1.429 . S
C1235 C1236 1.523 . S
C1236 C1220 1.368 . S
C1236 C1232 1.368 . S
C1236 C1235 1.523 . S
H1237 C1212 0.950 . S
H1238 C1214 0.950 . S
H1239 C1215 0.949 . S
H1240 C1217 0.950 . S
H1241 C1219 0.950 . S
C1242 C1243 1.349 . S
C1242 C1244 1.327 . S
C1242 H1267 0.950 . S
C1243 C1242 1.349 . S
C1243 C1259 1.349 . S
C1244 C1242 1.327 . S
C1244 C1263 1.429 . S
C1244 H1268 0.950 . S
C1245 C1262 1.574 . S
C1245 C1264 1.368 . S
C1245 H1269 0.949 . S
H1246 C1250 0.949 . S
C1247 C1248 1.349 . S
C1247 C1249 1.327 . S
C1247 H1270 0.950 . S
C1248 C1247 1.349 . S
C1248 C1260 1.349 . S
C1249 C1247 1.327 . S
C1249 C1265 1.429 . S
C1249 H1271 0.950 . S
C1250 H1246 0.949 . S
C1250 C1258 1.574 . S
C1250 C1266 1.368 . S
H1251 C1259 0.950 . S
H1252 C1257 0.950 . S
H1253 C1258 0.949 . S
H1254 C1260 0.950 . S
H1255 C1261 0.950 . S
H1256 C1262 0.949 . S
C1257 H1252 0.950 . S
C1257 C1259 1.327 . S
C1257 C1263 1.429 . S
C1258 C1250 1.574 . S
C1258 H1253 0.949 . S
C1258 C1264 1.368 . S
C1259 C1243 1.349 . S
C1259 H1251 0.950 . S
C1259 C1257 1.327 . S
C1260 C1248 1.349 . S
C1260 H1254 0.950 . S
C1260 C1261 1.327 . S
C1261 H1255 0.950 . S
C1261 C1260 1.327 . S
C1261 C1265 1.429 . S
C1262 C1245 1.574 . S
C1262 H1256 0.949 . S
C1262 C1266 1.368 . S
C1263 C1244 1.429 . S
C1263 C1257 1.429 . S
C1263 C1264 1.523 . S
C1264 C1245 1.368 . S
C1264 C1258 1.368 . S
C1264 C1263 1.523 . S
C1265 C1249 1.429 . S
C1265 C1261 1.429 . S
C1265 C1266 1.523 . S
C1266 C1250 1.368 . S
C1266 C1262 1.368 . S
C1266 C1265 1.523 . S
H1267 C1242 0.950 . S
H1268 C1244 0.950 . S
H1269 C1245 0.949 . S
H1270 C1247 0.950 . S
H1271 C1249 0.950 . S
C1272 C1273 1.349 . S
C1272 C1274 1.327 . S
C1272 H1297 0.950 . S
C1273 C1272 1.349 . S
C1273 C1289 1.349 . S
C1274 C1272 1.327 . S
C1274 C1293 1.429 . S
C1274 H1298 0.950 . S
C1275 C1292 1.574 1_455 S
C1275 C1294 1.368 . S
C1275 H1299 0.949 . S
H1276 C1280 0.949 . S
C1277 C1278 1.349 . S
C1277 C1279 1.327 . S
C1277 H1300 0.950 . S
C1278 C1277 1.349 . S
C1278 C1290 1.349 . S
C1279 C1277 1.327 . S
C1279 C1295 1.429 . S
C1279 H1301 0.950 . S
C1280 H1276 0.949 . S
C1280 C1288 1.574 1_655 S
C1280 C1296 1.368 . S
H1281 C1289 0.950 . S
H1282 C1287 0.950 . S
H1283 C1288 0.949 . S
H1284 C1290 0.950 . S
H1285 C1291 0.950 . S
H1286 C1292 0.949 . S
C1287 H1282 0.950 . S
C1287 C1289 1.327 . S
C1287 C1293 1.429 . S
C1288 C1280 1.574 1_455 S
C1288 H1283 0.949 . S
C1288 C1294 1.368 . S
C1289 C1273 1.349 . S
C1289 H1281 0.950 . S
C1289 C1287 1.327 . S
C1290 C1278 1.349 . S
C1290 H1284 0.950 . S
C1290 C1291 1.327 . S
C1291 H1285 0.950 . S
C1291 C1290 1.327 . S
C1291 C1295 1.429 . S
C1292 C1275 1.574 1_655 S
C1292 H1286 0.949 . S
C1292 C1296 1.368 . S
C1293 C1274 1.429 . S
C1293 C1287 1.429 . S
C1293 C1294 1.523 . S
C1294 C1275 1.368 . S
C1294 C1288 1.368 . S
C1294 C1293 1.523 . S
C1295 C1279 1.429 . S
C1295 C1291 1.429 . S
C1295 C1296 1.523 . S
C1296 C1280 1.368 . S
C1296 C1292 1.368 . S
C1296 C1295 1.523 . S
H1297 C1272 0.950 . S
H1298 C1274 0.950 . S
H1299 C1275 0.949 . S
H1300 C1277 0.950 . S
H1301 C1279 0.950 . S
C1302 C1303 1.349 . S
C1302 C1304 1.327 . S
C1302 H1327 0.950 . S
C1303 C1302 1.349 . S
C1303 C1319 1.349 . S
C1304 C1302 1.327 . S
C1304 C1323 1.429 . S
C1304 H1328 0.950 . S
C1305 C1322 1.574 1_655 S
C1305 C1324 1.368 . S
C1305 H1329 0.949 . S
H1306 C1310 0.949 . S
C1307 C1308 1.349 . S
C1307 C1309 1.327 . S
C1307 H1330 0.950 . S
C1308 C1307 1.349 . S
C1308 C1320 1.349 . S
C1309 C1307 1.327 . S
C1309 C1325 1.429 . S
C1309 H1331 0.950 . S
C1310 H1306 0.949 . S
C1310 C1318 1.574 1_455 S
C1310 C1326 1.368 . S
H1311 C1319 0.950 . S
H1312 C1317 0.950 . S
H1313 C1318 0.949 . S
H1314 C1320 0.950 . S
H1315 C1321 0.950 . S
H1316 C1322 0.949 . S
C1317 H1312 0.950 . S
C1317 C1319 1.327 . S
C1317 C1323 1.429 . S
C1318 C1310 1.574 1_655 S
C1318 H1313 0.949 . S
C1318 C1324 1.368 . S
C1319 C1303 1.349 . S
C1319 H1311 0.950 . S
C1319 C1317 1.327 . S
C1320 C1308 1.349 . S
C1320 H1314 0.950 . S
C1320 C1321 1.327 . S
C1321 H1315 0.950 . S
C1321 C1320 1.327 . S
C1321 C1325 1.429 . S
C1322 C1305 1.574 1_455 S
C1322 H1316 0.949 . S
C1322 C1326 1.368 . S
C1323 C1304 1.429 . S
C1323 C1317 1.429 . S
C1323 C1324 1.523 . S
C1324 C1305 1.368 . S
C1324 C1318 1.368 . S
C1324 C1323 1.523 . S
C1325 C1309 1.429 . S
C1325 C1321 1.429 . S
C1325 C1326 1.523 . S
C1326 C1310 1.368 . S
C1326 C1322 1.368 . S
C1326 C1325 1.523 . S
H1327 C1302 0.950 . S
H1328 C1304 0.950 . S
H1329 C1305 0.949 . S
H1330 C1307 0.950 . S
H1331 C1309 0.950 . S
C1332 C1333 1.349 . S
C1332 C1334 1.327 . S
C1332 H1357 0.950 . S
C1333 C1332 1.349 . S
C1333 C1349 1.349 . S
C1334 C1332 1.327 . S
C1334 C1353 1.429 . S
C1334 H1358 0.950 . S
C1335 C1352 1.574 . S
C1335 C1354 1.368 . S
C1335 H1359 0.949 . S
H1336 C1340 0.949 . S
C1337 C1338 1.349 . S
C1337 C1339 1.327 . S
C1337 H1360 0.950 . S
C1338 C1337 1.349 . S
C1338 C1350 1.349 . S
C1339 C1337 1.327 . S
C1339 C1355 1.429 . S
C1339 H1361 0.950 . S
C1340 H1336 0.949 . S
C1340 C1348 1.574 . S
C1340 C1356 1.368 . S
H1341 C1349 0.950 . S
H1342 C1347 0.950 . S
H1343 C1348 0.949 . S
H1344 C1350 0.950 . S
H1345 C1351 0.950 . S
H1346 C1352 0.949 . S
C1347 H1342 0.950 . S
C1347 C1349 1.327 . S
C1347 C1353 1.429 . S
C1348 C1340 1.574 . S
C1348 H1343 0.949 . S
C1348 C1354 1.368 . S
C1349 C1333 1.349 . S
C1349 H1341 0.950 . S
C1349 C1347 1.327 . S
C1350 C1338 1.349 . S
C1350 H1344 0.950 . S
C1350 C1351 1.327 . S
C1351 H1345 0.950 . S
C1351 C1350 1.327 . S
C1351 C1355 1.429 . S
C1352 C1335 1.574 . S
C1352 H1346 0.949 . S
C1352 C1356 1.368 . S
C1353 C1334 1.429 . S
C1353 C1347 1.429 . S
C1353 C1354 1.523 . S
C1354 C1335 1.368 . S
C1354 C1348 1.368 . S
C1354 C1353 1.523 . S
C1355 C1339 1.429 . S
C1355 C1351 1.429 . S
C1355 C1356 1.523 . S
C1356 C1340 1.368 . S
C1356 C1352 1.368 . S
C1356 C1355 1.523 . S
H1357 C1332 0.950 . S
H1358 C1334 0.950 . S
H1359 C1335 0.949 . S
H1360 C1337 0.950 . S
H1361 C1339 0.950 . S
C1362 C1363 1.349 . S
C1362 C1364 1.327 . S
C1362 H1387 0.950 . S
C1363 C1362 1.349 . S
C1363 C1379 1.349 . S
C1364 C1362 1.327 . S
C1364 C1383 1.429 . S
C1364 H1388 0.950 . S
C1365 C1382 1.574 . S
C1365 C1384 1.368 . S
C1365 H1389 0.949 . S
H1366 C1370 0.949 . S
C1367 C1368 1.349 . S
C1367 C1369 1.327 . S
C1367 H1390 0.950 . S
C1368 C1367 1.349 . S
C1368 C1380 1.349 . S
C1369 C1367 1.327 . S
C1369 C1385 1.429 . S
C1369 H1391 0.950 . S
C1370 H1366 0.949 . S
C1370 C1378 1.574 . S
C1370 C1386 1.368 . S
H1371 C1379 0.950 . S
H1372 C1377 0.950 . S
H1373 C1378 0.949 . S
H1374 C1380 0.950 . S
H1375 C1381 0.950 . S
H1376 C1382 0.949 . S
C1377 H1372 0.950 . S
C1377 C1379 1.327 . S
C1377 C1383 1.429 . S
C1378 C1370 1.574 . S
C1378 H1373 0.949 . S
C1378 C1384 1.368 . S
C1379 C1363 1.349 . S
C1379 H1371 0.950 . S
C1379 C1377 1.327 . S
C1380 C1368 1.349 . S
C1380 H1374 0.950 . S
C1380 C1381 1.327 . S
C1381 H1375 0.950 . S
C1381 C1380 1.327 . S
C1381 C1385 1.429 . S
C1382 C1365 1.574 . S
C1382 H1376 0.949 . S
C1382 C1386 1.368 . S
C1383 C1364 1.429 . S
C1383 C1377 1.429 . S
C1383 C1384 1.523 . S
C1384 C1365 1.368 . S
C1384 C1378 1.368 . S
C1384 C1383 1.523 . S
C1385 C1369 1.429 . S
C1385 C1381 1.429 . S
C1385 C1386 1.523 . S
C1386 C1370 1.368 . S
C1386 C1382 1.368 . S
C1386 C1385 1.523 . S
H1387 C1362 0.950 . S
H1388 C1364 0.950 . S
H1389 C1365 0.949 . S
H1390 C1367 0.950 . S
H1391 C1369 0.950 . S
C673 C70 1.465 . S
C678 C646 1.456 . S
C703 C562 1.712 . S
C708 C142 1.561 . S
C733 C478 1.542 . S
C738 C226 1.688 . S
C763 C406 1.484 . S
C768 C310 1.474 . S
C793 C242 2.522 . S
C798 C74 2.632 . S
C823 C158 1.705 . S
C828 C326 1.749 . S
C853 C315 1.384 . S
C858 C147 1.349 . S
C883 C231 0.554 . S
C888 C63 0.533 . S
C913 C410 2.640 1_554 S
C918 C578 2.565 . S
C943 C494 1.594 1_556 S
C948 C662 1.637 1_554 S
C973 C651 1.428 1_556 S
C978 C483 1.389 1_554 S
C1003 C567 0.545 . S
C1008 C399 0.481 1_556 S
C1033 C56 1.826 . S
C1038 C67 1.826 . S
C1063 C151 1.807 . S
C1068 C140 1.807 . S
C1093 C224 1.898 . S
C1098 C235 1.898 . S
C1123 C319 1.824 . S
C1128 C308 1.824 . S
C1153 C403 1.826 . S
C1158 C392 1.826 . S
C1183 C487 1.806 . S
C1188 C476 1.806 . S
C1213 C571 1.898 . S
C1218 C560 1.898 . S
C1243 C655 1.825 . S
C1248 C644 1.825 . S
C1273 C58 2.073 . S
C1278 C154 1.900 . S
C1303 C322 1.763 . S
C1308 C238 1.805 . S
C1333 C394 2.069 . S
C1338 C490 1.903 . S
C1363 C658 1.767 . S
C1368 C574 1.802 . S
