# Generated by pormake.
# Topology vbf, (5)-cn, num edge types: 1
# Building blocks:
#     Node 0, Type 0, BuildingBlock: BEQFEK_clean_sbu_0, # of connection points: 5
#     Node 1, Type 0, BuildingBlock: BEQFEK_clean_sbu_0, # of connection points: 5
#     Node 2, Type 0, BuildingBlock: BEQFEK_clean_sbu_0, # of connection points: 5
#     Node 3, Type 0, BuildingBlock: BEQFEK_clean_sbu_0, # of connection points: 5
#     Node 4, Type 0, BuildingBlock: BEQFEK_clean_sbu_0, # of connection points: 5
#     Node 5, Type 0, BuildingBlock: BEQFEK_clean_sbu_0, # of connection points: 5
#     Node 6, Type 0, BuildingBlock: BEQFEK_clean_sbu_0, # of connection points: 5
#     Node 7, Type 0, BuildingBlock: BEQFEK_clean_sbu_0, # of connection points: 5
#     Node 8, Type 0, BuildingBlock: BEQFEK_clean_sbu_0, # of connection points: 5
#     Node 9, Type 0, BuildingBlock: BEQFEK_clean_sbu_0, # of connection points: 5
#     Node 10, Type 0, BuildingBlock: BEQFEK_clean_sbu_0, # of connection points: 5
#     Node 11, Type 0, BuildingBlock: BEQFEK_clean_sbu_0, # of connection points: 5
#     Node 12, Type 0, BuildingBlock: BEQFEK_clean_sbu_0, # of connection points: 5
#     Node 13, Type 0, BuildingBlock: BEQFEK_clean_sbu_0, # of connection points: 5
#     Node 14, Type 0, BuildingBlock: BEQFEK_clean_sbu_0, # of connection points: 5
#     Node 15, Type 0, BuildingBlock: BEQFEK_clean_sbu_0, # of connection points: 5
#     Edge 16, Type (0, 0), BuildingBlock: UVAHIK_clean_linker_0, # of connection points: 2
#     Edge 17, Type (0, 0), BuildingBlock: UVAHIK_clean_linker_0, # of connection points: 2
#     Edge 18, Type (0, 0), BuildingBlock: UVAHIK_clean_linker_0, # of connection points: 2
#     Edge 19, Type (0, 0), BuildingBlock: UVAHIK_clean_linker_0, # of connection points: 2
#     Edge 20, Type (0, 0), BuildingBlock: UVAHIK_clean_linker_0, # of connection points: 2
#     Edge 21, Type (0, 0), BuildingBlock: UVAHIK_clean_linker_0, # of connection points: 2
#     Edge 22, Type (0, 0), BuildingBlock: UVAHIK_clean_linker_0, # of connection points: 2
#     Edge 23, Type (0, 0), BuildingBlock: UVAHIK_clean_linker_0, # of connection points: 2
#     Edge 24, Type (0, 0), BuildingBlock: UVAHIK_clean_linker_0, # of connection points: 2
#     Edge 25, Type (0, 0), BuildingBlock: UVAHIK_clean_linker_0, # of connection points: 2
#     Edge 26, Type (0, 0), BuildingBlock: UVAHIK_clean_linker_0, # of connection points: 2
#     Edge 27, Type (0, 0), BuildingBlock: UVAHIK_clean_linker_0, # of connection points: 2
#     Edge 28, Type (0, 0), BuildingBlock: UVAHIK_clean_linker_0, # of connection points: 2
#     Edge 29, Type (0, 0), BuildingBlock: UVAHIK_clean_linker_0, # of connection points: 2
#     Edge 30, Type (0, 0), BuildingBlock: UVAHIK_clean_linker_0, # of connection points: 2
#     Edge 31, Type (0, 0), BuildingBlock: UVAHIK_clean_linker_0, # of connection points: 2
#     Edge 32, Type (0, 0), BuildingBlock: UVAHIK_clean_linker_0, # of connection points: 2
#     Edge 33, Type (0, 0), BuildingBlock: UVAHIK_clean_linker_0, # of connection points: 2
#     Edge 34, Type (0, 0), BuildingBlock: UVAHIK_clean_linker_0, # of connection points: 2
#     Edge 35, Type (0, 0), BuildingBlock: UVAHIK_clean_linker_0, # of connection points: 2
#     Edge 36, Type (0, 0), BuildingBlock: UVAHIK_clean_linker_0, # of connection points: 2
#     Edge 37, Type (0, 0), BuildingBlock: UVAHIK_clean_linker_0, # of connection points: 2
#     Edge 38, Type (0, 0), BuildingBlock: UVAHIK_clean_linker_0, # of connection points: 2
#     Edge 39, Type (0, 0), BuildingBlock: UVAHIK_clean_linker_0, # of connection points: 2
#     Edge 40, Type (0, 0), BuildingBlock: UVAHIK_clean_linker_0, # of connection points: 2
#     Edge 41, Type (0, 0), BuildingBlock: UVAHIK_clean_linker_0, # of connection points: 2
#     Edge 42, Type (0, 0), BuildingBlock: UVAHIK_clean_linker_0, # of connection points: 2
#     Edge 43, Type (0, 0), BuildingBlock: UVAHIK_clean_linker_0, # of connection points: 2
#     Edge 44, Type (0, 0), BuildingBlock: UVAHIK_clean_linker_0, # of connection points: 2
#     Edge 45, Type (0, 0), BuildingBlock: UVAHIK_clean_linker_0, # of connection points: 2
#     Edge 46, Type (0, 0), BuildingBlock: UVAHIK_clean_linker_0, # of connection points: 2
#     Edge 47, Type (0, 0), BuildingBlock: UVAHIK_clean_linker_0, # of connection points: 2
#     Edge 48, Type (0, 0), BuildingBlock: UVAHIK_clean_linker_0, # of connection points: 2
#     Edge 49, Type (0, 0), BuildingBlock: UVAHIK_clean_linker_0, # of connection points: 2
#     Edge 50, Type (0, 0), BuildingBlock: UVAHIK_clean_linker_0, # of connection points: 2
#     Edge 51, Type (0, 0), BuildingBlock: UVAHIK_clean_linker_0, # of connection points: 2
#     Edge 52, Type (0, 0), BuildingBlock: UVAHIK_clean_linker_0, # of connection points: 2
#     Edge 53, Type (0, 0), BuildingBlock: UVAHIK_clean_linker_0, # of connection points: 2
#     Edge 54, Type (0, 0), BuildingBlock: UVAHIK_clean_linker_0, # of connection points: 2
#     Edge 55, Type (0, 0), BuildingBlock: UVAHIK_clean_linker_0, # of connection points: 2
# Relax obj value: 0.040
# Max RMSD: 0.098
# Mean RMSD: 0.098
data_MOF--net-vbf--node1-BEQFEK_clean_sbu_0--edge1-UVAHIK_clean_linker_0
_symmetry_space_group_name_H-M    P1
_symmetry_Int_Tables_number       1
_symmetry_cell_setting            triclinic
loop_
_symmetry_equiv_pos_as_xyz
'x, y, z'
_cell_length_a     47.31677
_cell_length_b     107.11367
_cell_length_c     36.779521
_cell_angle_alpha  89.982335
_cell_angle_beta   90.00574
_cell_angle_gamma 89.997779
loop_
_atom_site_label
_atom_site_type_symbol
_atom_site_fract_x
_atom_site_fract_y
_atom_site_fract_z
_atom_type_partial_charge
Co0 Co 0.09667 0.30799 0.96299 0.0
Co1 Co 0.05987 0.28806 0.00452 0.0
C2 C 0.12345 0.28668 0.00224 0.0
O3 O 0.12554 0.29676 0.98415 0.0
O4 O 0.09944 0.28232 0.01127 0.0
C5 C 0.13727 0.32763 0.95743 0.0
O6 O 0.14364 0.32398 0.99055 0.0
C7 C 0.03961 0.27443 0.06944 0.0
C8 C 1.00005 0.26604 0.04902 0.0
C9 C 0.01695 0.26694 0.0797 0.0
N10 N 0.03598 0.2779 0.03452 0.0
N11 N 0.01229 0.27282 0.02254 0.0
C12 C 0.06493 0.27781 0.09185 0.0
H13 H 0.08272 0.28082 0.07448 0.0
H14 H 0.05955 0.2857 0.11009 0.0
H15 H 0.07153 0.26977 0.1089 0.0
C16 C 0.06274 0.32516 0.00915 0.0
N17 N 0.07072 0.31361 0.99882 0.0
N18 N 0.05511 0.30531 0.016 0.0
C19 C 0.03649 0.31135 0.03752 0.0
C20 C 0.04089 0.32411 0.03409 0.0
C21 C 0.07394 0.33698 0.99293 0.0
H22 H 0.07611 0.33592 0.96309 0.0
H23 H 0.09512 0.33894 0.00453 0.0
H24 H 0.0599 0.34503 0.99875 0.0
O25 O 0.07604 0.29906 0.92369 0.0
O26 O 0.04957 0.28513 0.95288 0.0
H27 H 0.00197 0.29858 0.04325 0.0
H28 H 0.00033 0.31178 0.0739 0.0
C29 C 0.0146 0.30502 0.06039 0.0
H30 H 0.02522 0.29945 0.08172 0.0
H31 H 0.00453 0.27395 0.99618 0.0
O32 O 0.11734 0.32218 0.94053 0.0
C33 C 0.058 0.29021 0.92344 0.0
Co34 Co 0.90547 0.69318 0.96229 0.0
Co35 Co 0.94152 0.71346 0.00326 0.0
C36 C 0.8779 0.71433 0.00127 0.0
O37 O 0.87621 0.70418 0.98348 0.0
O38 O 0.90172 0.71895 0.01002 0.0
C39 C 0.86521 0.67343 0.95664 0.0
O40 O 0.85815 0.67729 0.98931 0.0
C41 C 0.96142 0.72729 0.06786 0.0
C42 C 0.00076 0.73586 0.04732 0.0
C43 C 0.98391 0.73489 0.07802 0.0
N44 N 0.9651 0.72382 0.03298 0.0
N45 N 0.98864 0.729 0.0209 0.0
C46 C 0.9362 0.72382 0.09035 0.0
H47 H 0.91841 0.72078 0.07304 0.0
H48 H 0.94173 0.71593 0.10851 0.0
H49 H 0.92952 0.73182 0.10748 0.0
C50 C 0.93985 0.67635 0.00889 0.0
N51 N 0.93164 0.68782 0.99812 0.0
N52 N 0.947 0.69626 0.01507 0.0
C53 C 0.96573 0.69038 0.03685 0.0
C54 C 0.96163 0.67759 0.03386 0.0
C55 C 0.92875 0.66442 0.99326 0.0
H56 H 0.92684 0.66527 0.96332 0.0
H57 H 0.90745 0.66256 0.00464 0.0
H58 H 0.94271 0.6564 0.99978 0.0
O59 O 0.92557 0.70224 0.92276 0.0
O60 O 0.95163 0.71638 0.9516 0.0
H61 H 0.9997 0.70344 0.04254 0.0
H62 H 0.00193 0.69026 0.0732 0.0
C63 C 0.98736 0.6969 0.05969 0.0
H64 H 0.97651 0.70237 0.08103 0.0
H65 H 0.99641 0.72788 0.99455 0.0
O66 O 0.88541 0.67881 0.94008 0.0
C67 C 0.94327 0.71122 0.92228 0.0
Co68 Co 0.15434 0.55742 0.21332 0.0
Co69 Co 0.19082 0.53737 0.25507 0.0
C70 C 0.12741 0.53602 0.25273 0.0
O71 O 0.1255 0.54599 0.23405 0.0
O72 O 0.15132 0.53171 0.26244 0.0
C73 C 0.11012 0.57539 0.20246 0.0
O74 O 0.09792 0.56919 0.22898 0.0
C75 C 0.20998 0.52264 0.31793 0.0
C76 C 0.25301 0.51706 0.30116 0.0
C77 C 0.23383 0.51618 0.32951 0.0
N78 N 0.21511 0.52729 0.28458 0.0
N79 N 0.2408 0.52385 0.27465 0.0
C80 C 0.18206 0.52382 0.33681 0.0
H81 H 0.16541 0.5196 0.31954 0.0
H82 H 0.17679 0.53384 0.34029 0.0
H83 H 0.1817 0.51901 0.36345 0.0
C84 C 0.18752 0.57442 0.26026 0.0
N85 N 0.17999 0.56287 0.2495 0.0
N86 N 0.19534 0.55457 0.26704 0.0
C87 C 0.21323 0.56062 0.28954 0.0
C88 C 0.20885 0.5734 0.28601 0.0
C89 C 0.17613 0.58616 0.24376 0.0
H90 H 0.17703 0.58547 0.21369 0.0
H91 H 0.15365 0.58727 0.25172 0.0
H92 H 0.18816 0.59452 0.25256 0.0
O93 O 0.17509 0.54863 0.17391 0.0
O94 O 0.20091 0.53451 0.20329 0.0
H95 H 0.24931 0.54892 0.29744 0.0
H96 H 0.24556 0.56103 0.33141 0.0
C97 C 0.23399 0.55428 0.31407 0.0
H98 H 0.22262 0.54764 0.33193 0.0
H99 H 0.25007 0.52623 0.24984 0.0
O100 O 0.13442 0.57198 0.19149 0.0
C101 C 0.19286 0.53967 0.1738 0.0
Co102 Co 0.8449 0.44344 0.21203 0.0
Co103 Co 0.80889 0.46308 0.25562 0.0
C104 C 0.87193 0.46467 0.25285 0.0
O105 O 0.87344 0.45486 0.23342 0.0
O106 O 0.84824 0.46899 0.26335 0.0
C107 C 0.88937 0.42566 0.20119 0.0
O108 O 0.90081 0.43155 0.22885 0.0
C109 C 0.78923 0.47745 0.31873 0.0
C110 C 0.74546 0.48215 0.30291 0.0
C111 C 0.76493 0.48344 0.33085 0.0
N112 N 0.78425 0.47285 0.28531 0.0
N113 N 0.75814 0.47579 0.27589 0.0
C114 C 0.8158 0.47499 0.33963 0.0
H115 H 0.82616 0.46635 0.32965 0.0
H116 H 0.81129 0.47407 0.36912 0.0
H117 H 0.8306 0.48291 0.33557 0.0
C118 C 0.81204 0.42598 0.25771 0.0
N119 N 0.81953 0.43763 0.24791 0.0
N120 N 0.80476 0.44576 0.26686 0.0
C121 C 0.78753 0.43948 0.28971 0.0
C122 C 0.79154 0.42673 0.28465 0.0
C123 C 0.82253 0.41444 0.2391 0.0
H124 H 0.8227 0.41592 0.20926 0.0
H125 H 0.84454 0.41255 0.24797 0.0
H126 H 0.80919 0.40621 0.24533 0.0
O127 O 0.82388 0.45232 0.17328 0.0
O128 O 0.79849 0.46625 0.20395 0.0
H129 H 0.75133 0.45074 0.30139 0.0
H130 H 0.75813 0.43876 0.335 0.0
C131 C 0.76805 0.4456 0.31635 0.0
H132 H 0.78008 0.4524 0.33289 0.0
H133 H 0.74879 0.47323 0.25129 0.0
O134 O 0.86535 0.42917 0.1895 0.0
C135 C 0.80614 0.46128 0.17402 0.0
Co136 Co 0.09549 0.8079 0.46249 0.0
Co137 Co 0.05896 0.78785 0.50373 0.0
C138 C 0.12238 0.78675 0.50279 0.0
O139 O 0.12437 0.79673 0.48419 0.0
O140 O 0.09842 0.78234 0.51184 0.0
C141 C 0.13578 0.82771 0.4572 0.0
O142 O 0.14223 0.82411 0.49034 0.0
C143 C 0.03968 0.77312 0.56641 0.0
C144 C 0.99682 0.76738 0.54932 0.0
C145 C 0.01588 0.7666 0.57784 0.0
N146 N 0.03463 0.77771 0.53298 0.0
N147 N 0.00906 0.77418 0.52284 0.0
C148 C 0.0675 0.7744 0.58549 0.0
H149 H 0.08417 0.76997 0.56873 0.0
H150 H 0.07291 0.78444 0.5882 0.0
H151 H 0.06765 0.76985 0.61251 0.0
C152 C 0.061 0.82494 0.50838 0.0
N153 N 0.06915 0.81343 0.49789 0.0
N154 N 0.05399 0.80505 0.51542 0.0
C155 C 0.0358 0.811 0.53774 0.0
C156 C 0.03968 0.82378 0.53404 0.0
C157 C 0.0717 0.83681 0.49188 0.0
H158 H 0.07419 0.83565 0.4621 0.0
H159 H 0.09266 0.83905 0.50371 0.0
H160 H 0.05715 0.84472 0.49721 0.0
O161 O 0.07548 0.79893 0.42288 0.0
O162 O 0.04933 0.78486 0.45189 0.0
H163 H 1.00014 0.79906 0.54586 0.0
H164 H 0.00354 0.81122 0.57972 0.0
C165 C 0.01531 0.80454 0.56239 0.0
H166 H 0.02694 0.798 0.5803 0.0
H167 H 0.99988 0.77649 0.49794 0.0
O168 O 0.116 0.82215 0.4403 0.0
C169 C 0.05775 0.78997 0.42251 0.0
Co170 Co 0.90448 0.1932 0.46324 0.0
Co171 Co 0.94003 0.21354 0.50481 0.0
C172 C 0.87643 0.21411 0.50296 0.0
O173 O 0.87502 0.20402 0.4848 0.0
O174 O 0.90013 0.21882 0.51184 0.0
C175 C 0.86492 0.1732 0.45807 0.0
O176 O 0.8586 0.17682 0.49122 0.0
C177 C 0.95977 0.22748 0.56948 0.0
C178 C 0.99919 0.23597 0.54895 0.0
C179 C 0.98227 0.23508 0.57961 0.0
N180 N 0.96352 0.22394 0.53466 0.0
N181 N 0.98711 0.22908 0.5226 0.0
C182 C 0.93451 0.22406 0.59196 0.0
H183 H 0.91671 0.22103 0.57466 0.0
H184 H 0.93997 0.21618 0.61021 0.0
H185 H 0.92786 0.23209 0.609 0.0
C186 C 0.9393 0.17639 0.50945 0.0
N187 N 0.93082 0.18786 0.49892 0.0
N188 N 0.94586 0.19633 0.51625 0.0
C189 C 0.96458 0.19048 0.53811 0.0
C190 C 0.96086 0.17767 0.53471 0.0
C191 C 0.9287 0.16445 0.49333 0.0
H192 H 0.92631 0.16549 0.4635 0.0
H193 H 0.90772 0.16224 0.50514 0.0
H194 H 0.94326 0.15657 0.49903 0.0
O195 O 0.92438 0.20242 0.42387 0.0
O196 O 0.95002 0.21662 0.45312 0.0
H197 H 0.99837 0.20357 0.54469 0.0
H198 H 1.00011 0.19043 0.57555 0.0
C199 C 0.98576 0.19704 0.56153 0.0
H200 H 0.97449 0.20253 0.58247 0.0
H201 H 0.99494 0.2279 0.4963 0.0
O202 O 0.88449 0.17882 0.44092 0.0
C203 C 0.94186 0.21149 0.42365 0.0
Co204 Co 0.15488 0.05784 0.71382 0.0
Co205 Co 0.19209 0.03803 0.75516 0.0
C206 C 0.12879 0.03629 0.75365 0.0
O207 O 0.12657 0.04624 0.73495 0.0
O208 O 0.15285 0.03208 0.76317 0.0
C209 C 0.10983 0.07543 0.70245 0.0
O210 O 0.09737 0.06897 0.72821 0.0
C211 C 0.21155 0.02352 0.81781 0.0
C212 C 0.25515 0.01851 0.80207 0.0
C213 C 0.23558 0.01735 0.82992 0.0
N214 N 0.2167 0.02808 0.7844 0.0
N215 N 0.24271 0.02496 0.775 0.0
C216 C 0.1851 0.02616 0.83875 0.0
H217 H 0.17542 0.03503 0.82933 0.0
H218 H 0.18954 0.02676 0.86833 0.0
H219 H 0.16976 0.0185 0.83402 0.0
C220 C 0.18788 0.07505 0.76034 0.0
N221 N 0.18058 0.06346 0.7497 0.0
N222 N 0.1963 0.05525 0.76704 0.0
C223 C 0.21424 0.0614 0.78922 0.0
C224 C 0.20948 0.07414 0.78573 0.0
C225 C 0.17596 0.08673 0.74408 0.0
H226 H 0.1771 0.08615 0.71401 0.0
H227 H 0.15337 0.08756 0.7518 0.0
H228 H 0.18748 0.09517 0.75329 0.0
O229 O 0.17558 0.04914 0.67417 0.0
O230 O 0.20192 0.03518 0.70337 0.0
H231 H 0.25076 0.0499 0.79633 0.0
H232 H 0.24715 0.06201 0.83031 0.0
C233 C 0.23552 0.05519 0.81329 0.0
H234 H 0.22461 0.0485 0.83147 0.0
H235 H 0.25216 0.02746 0.75041 0.0
O236 O 0.1345 0.07232 0.69215 0.0
C237 C 0.19356 0.04027 0.67393 0.0
Co238 Co 0.84526 0.94361 0.71249 0.0
Co239 Co 0.81027 0.96367 0.75616 0.0
C240 C 0.87349 0.96489 0.75123 0.0
O241 O 0.87461 0.95494 0.73237 0.0
O242 O 0.84999 0.96934 0.76197 0.0
C243 C 0.88959 0.92597 0.69968 0.0
O244 O 0.90228 0.93245 0.72522 0.0
C245 C 0.79068 0.9771 0.82153 0.0
C246 C 0.75182 0.98616 0.80122 0.0
C247 C 0.76858 0.98489 0.83192 0.0
N248 N 0.7869 0.97387 0.78648 0.0
N249 N 0.76362 0.97932 0.77456 0.0
C250 C 0.8158 0.97331 0.84372 0.0
H251 H 0.83317 0.96995 0.82616 0.0
H252 H 0.80982 0.96556 0.86216 0.0
H253 H 0.82323 0.98126 0.86056 0.0
C254 C 0.81275 0.92659 0.76001 0.0
N255 N 0.82041 0.93816 0.74954 0.0
N256 N 0.80562 0.94644 0.76792 0.0
C257 C 0.78792 0.94035 0.7906 0.0
C258 C 0.79198 0.92759 0.78644 0.0
C259 C 0.82508 0.91486 0.74466 0.0
H260 H 0.82073 0.91445 0.71504 0.0
H261 H 0.84833 0.91499 0.7484 0.0
H262 H 0.81641 0.9064 0.75803 0.0
O263 O 0.82368 0.9525 0.67392 0.0
O264 O 0.79912 0.96665 0.70489 0.0
H265 H 0.75469 0.95379 0.79665 0.0
H266 H 0.74959 0.9397 0.8228 0.0
C267 C 0.7655 0.94653 0.81298 0.0
H268 H 0.77543 0.95106 0.83683 0.0
H269 H 0.75588 0.97843 0.74812 0.0
O270 O 0.86473 0.92903 0.68994 0.0
C271 C 0.80616 0.96155 0.67491 0.0
Co272 Co 0.59714 0.30739 0.46626 0.0
Co273 Co 0.55892 0.28768 0.50645 0.0
C274 C 0.62224 0.2858 0.50682 0.0
O275 O 0.62494 0.29582 0.48853 0.0
O276 O 0.59795 0.28159 0.51528 0.0
C277 C 0.64418 0.32136 0.43795 0.0
O278 O 0.65807 0.31096 0.44405 0.0
C279 C 0.53876 0.27316 0.56856 0.0
C280 C 0.49525 0.26822 0.55221 0.0
C281 C 0.51463 0.26698 0.58027 0.0
N282 N 0.53387 0.27778 0.53517 0.0
N283 N 0.50791 0.27471 0.5254 0.0
C284 C 0.56507 0.27574 0.58987 0.0
H285 H 0.57479 0.28464 0.5808 0.0
H286 H 0.56044 0.27624 0.61941 0.0
H287 H 0.58046 0.2681 0.58509 0.0
C288 C 0.56397 0.32466 0.51225 0.0
N289 N 0.57098 0.31306 0.50145 0.0
N290 N 0.55488 0.3049 0.51839 0.0
C291 C 0.53694 0.3111 0.54045 0.0
C292 C 0.54212 0.32382 0.53731 0.0
C293 C 0.57656 0.33629 0.49651 0.0
H294 H 0.57478 0.33599 0.46644 0.0
H295 H 0.59937 0.33667 0.50344 0.0
H296 H 0.56594 0.34483 0.50668 0.0
O297 O 0.57699 0.29873 0.42604 0.0
O298 O 0.5497 0.28493 0.45443 0.0
H299 H 0.50017 0.29972 0.54707 0.0
H300 H 0.50377 0.31179 0.58119 0.0
C301 C 0.51539 0.30494 0.56424 0.0
H302 H 0.52606 0.2982 0.58248 0.0
H303 H 0.49867 0.27726 0.50073 0.0
O304 O 0.61794 0.32186 0.44527 0.0
C305 C 0.55872 0.28998 0.42525 0.0
Co306 Co 0.404 0.69341 0.46319 0.0
Co307 Co 0.4403 0.71357 0.50485 0.0
C308 C 0.37689 0.71493 0.50164 0.0
O309 O 0.37516 0.70485 0.48352 0.0
O310 O 0.4007 0.71938 0.51121 0.0
C311 C 0.35901 0.67599 0.45013 0.0
O312 O 0.346 0.68276 0.47473 0.0
C313 C 0.46063 0.72687 0.56997 0.0
C314 C 0.49899 0.73618 0.54911 0.0
C315 C 0.48271 0.73471 0.58017 0.0
N316 N 0.46398 0.72381 0.53473 0.0
N317 N 0.48696 0.72941 0.52247 0.0
C318 C 0.43589 0.72288 0.59256 0.0
H319 H 0.41835 0.71953 0.57523 0.0
H320 H 0.44227 0.71506 0.61052 0.0
H321 H 0.42851 0.73071 0.60988 0.0
C322 C 0.43683 0.67652 0.51071 0.0
N323 N 0.42936 0.68806 0.49978 0.0
N324 N 0.44483 0.69637 0.5171 0.0
C325 C 0.4629 0.69032 0.53939 0.0
C326 C 0.45829 0.67756 0.53621 0.0
C327 C 0.42359 0.66478 0.49674 0.0
H328 H 0.42815 0.66384 0.46728 0.0
H329 H 0.40033 0.66536 0.50007 0.0
H330 H 0.43142 0.6564 0.51134 0.0
O331 O 0.42506 0.70219 0.42391 0.0
O332 O 0.4509 0.7163 0.45325 0.0
H333 H 0.49622 0.70382 0.54339 0.0
H334 H 0.50256 0.68967 0.56876 0.0
C335 C 0.48619 0.69649 0.56027 0.0
H336 H 0.47728 0.70092 0.58495 0.0
H337 H 0.49434 0.72866 0.49582 0.0
O338 O 0.3842 0.67879 0.44116 0.0
C339 C 0.44294 0.71111 0.42379 0.0
Co340 Co 0.65421 0.55813 0.71278 0.0
Co341 Co 0.68985 0.53812 0.75516 0.0
C342 C 0.62659 0.53724 0.75391 0.0
O343 O 0.62518 0.54714 0.73484 0.0
O344 O 0.65028 0.53266 0.76348 0.0
C345 C 0.61367 0.57775 0.70654 0.0
O346 O 0.60669 0.57399 0.73934 0.0
C347 C 0.70917 0.52423 0.81911 0.0
C348 C 0.7511 0.51745 0.8016 0.0
C349 C 0.73254 0.51748 0.83078 0.0
N350 N 0.71378 0.52799 0.78474 0.0
N351 N 0.73877 0.52382 0.77431 0.0
C352 C 0.68389 0.52803 0.84089 0.0
H353 H 0.67467 0.53678 0.82985 0.0
H354 H 0.68963 0.52939 0.86989 0.0
H355 H 0.66765 0.52058 0.83913 0.0
C356 C 0.68882 0.57524 0.75821 0.0
N357 N 0.68048 0.56372 0.74815 0.0
N358 N 0.69507 0.55535 0.76654 0.0
C359 C 0.71294 0.56134 0.78921 0.0
C360 C 0.70951 0.57411 0.78471 0.0
C361 C 0.67709 0.58708 0.74273 0.0
H362 H 0.6765 0.58646 0.71263 0.0
H363 H 0.65515 0.58834 0.75266 0.0
H364 H 0.68959 0.59536 0.75098 0.0
O365 O 0.67426 0.54898 0.67359 0.0
O366 O 0.69977 0.5349 0.70347 0.0
H367 H 0.7468 0.5483 0.79602 0.0
H368 H 0.74923 0.56178 0.82522 0.0
C369 C 0.73448 0.555 0.81262 0.0
H370 H 0.72357 0.54974 0.83444 0.0
H371 H 0.74763 0.52552 0.7488 0.0
O372 O 0.63394 0.57238 0.69011 0.0
C373 C 0.69178 0.53994 0.67378 0.0
Co374 Co 0.34702 0.44369 0.71418 0.0
Co375 Co 0.30914 0.46339 0.75493 0.0
C376 C 0.37238 0.46543 0.75396 0.0
O377 O 0.37496 0.45546 0.7354 0.0
O378 O 0.34818 0.46953 0.7632 0.0
C379 C 0.39285 0.42653 0.70214 0.0
O380 O 0.40552 0.43334 0.72695 0.0
C381 C 0.28875 0.47729 0.81811 0.0
C382 C 0.24653 0.48359 0.80025 0.0
C383 C 0.26507 0.4839 0.82944 0.0
N384 N 0.28437 0.47331 0.78391 0.0
N385 N 0.25918 0.47719 0.77327 0.0
C386 C 0.31422 0.47385 0.84007 0.0
H387 H 0.32376 0.4651 0.82956 0.0
H388 H 0.30858 0.47266 0.86916 0.0
H389 H 0.33016 0.48141 0.83777 0.0
C390 C 0.31441 0.42642 0.76101 0.0
N391 N 0.32131 0.43802 0.75 0.0
N392 N 0.30545 0.44619 0.76731 0.0
C393 C 0.28795 0.44 0.78999 0.0
C394 C 0.29308 0.42728 0.78677 0.0
C395 C 0.32818 0.41479 0.74707 0.0
H396 H 0.32436 0.41399 0.7174 0.0
H397 H 0.35133 0.41544 0.75137 0.0
H398 H 0.32014 0.40632 0.76099 0.0
O399 O 0.32627 0.45223 0.67426 0.0
O400 O 0.29937 0.46608 0.70299 0.0
H401 H 0.25285 0.45251 0.79452 0.0
H402 H 0.25052 0.43908 0.82395 0.0
C403 C 0.26513 0.44605 0.81198 0.0
H404 H 0.27487 0.45155 0.83423 0.0
H405 H 0.25045 0.47529 0.74781 0.0
O406 O 0.36773 0.42926 0.69271 0.0
C407 C 0.30802 0.46098 0.67371 0.0
Co408 Co 0.59691 0.80784 0.96323 0.0
Co409 Co 0.56034 0.78793 0.00507 0.0
C410 C 0.62386 0.78655 0.00262 0.0
O411 O 0.62591 0.7966 0.98435 0.0
O412 O 0.59988 0.78222 0.01187 0.0
C413 C 0.63834 0.82711 0.9562 0.0
O414 O 0.64629 0.82294 0.98821 0.0
C415 C 0.54002 0.77464 0.07028 0.0
C416 C 0.50177 0.76526 0.04934 0.0
C417 C 0.51804 0.76674 0.08041 0.0
N418 N 0.53664 0.77773 0.03506 0.0
N419 N 0.51372 0.7721 0.02276 0.0
C420 C 0.56471 0.77866 0.09293 0.0
H421 H 0.58215 0.78214 0.07567 0.0
H422 H 0.55818 0.78639 0.11113 0.0
H423 H 0.57226 0.7708 0.11003 0.0
C424 C 0.56289 0.82501 0.00919 0.0
N425 N 0.57096 0.81346 0.99907 0.0
N426 N 0.55563 0.80516 0.0167 0.0
C427 C 0.5373 0.81122 0.03858 0.0
C428 C 0.54142 0.82397 0.03469 0.0
C429 C 0.57544 0.8368 0.99444 0.0
H430 H 0.57501 0.83656 0.96429 0.0
H431 H 0.59779 0.83744 0.00325 0.0
H432 H 0.56414 0.84521 0.00424 0.0
O433 O 0.57629 0.79887 0.92401 0.0
O434 O 0.54995 0.78497 0.95349 0.0
H435 H 0.504 0.79773 0.04305 0.0
H436 H 0.49805 0.81182 0.06888 0.0
C437 C 0.51428 0.80501 0.05987 0.0
H438 H 0.52352 0.8005 0.08422 0.0
H439 H 0.50635 0.77284 0.9961 0.0
O440 O 0.6172 0.82211 0.94058 0.0
C441 C 0.55829 0.79 0.92395 0.0
Co442 Co 0.406 0.19353 0.9631 0.0
Co443 Co 0.44163 0.21369 0.00575 0.0
C444 C 0.37827 0.21492 0.00157 0.0
O445 O 0.37687 0.20489 0.98312 0.0
O446 O 0.40192 0.21938 0.01172 0.0
C447 C 0.36183 0.17567 0.95196 0.0
O448 O 0.34992 0.18184 0.97874 0.0
C449 C 0.46143 0.22757 0.07049 0.0
C450 C 0.50159 0.23554 0.05052 0.0
C451 C 0.48427 0.23494 0.08087 0.0
N452 N 0.46536 0.22389 0.03583 0.0
N453 N 0.48939 0.22872 0.0241 0.0
C454 C 0.43573 0.2245 0.09254 0.0
H455 H 0.41792 0.22168 0.07493 0.0
H456 H 0.44049 0.21656 0.11091 0.0
H457 H 0.42942 0.23262 0.10942 0.0
C458 C 0.43867 0.1766 0.01076 0.0
N459 N 0.4311 0.18814 0.99995 0.0
N460 N 0.44639 0.19646 0.01751 0.0
C461 C 0.46453 0.19041 0.03971 0.0
C462 C 0.4601 0.17765 0.03631 0.0
C463 C 0.42722 0.16484 0.99445 0.0
H464 H 0.4287 0.16537 0.96439 0.0
H465 H 0.40457 0.16392 0.00175 0.0
H466 H 0.43883 0.15647 0.00403 0.0
O467 O 0.4273 0.20238 0.92416 0.0
O468 O 0.45237 0.21657 0.9543 0.0
H469 H 0.4992 0.20304 0.04645 0.0
H470 H 0.49966 0.18999 0.07775 0.0
C471 C 0.48595 0.19675 0.06329 0.0
H472 H 0.47489 0.20249 0.08385 0.0
H473 H 0.49745 0.22737 0.99799 0.0
O474 O 0.38618 0.17898 0.94093 0.0
C475 C 0.4449 0.2114 0.92459 0.0
Co476 Co 0.6545 0.05779 0.2149 0.0
Co477 Co 0.69086 0.0377 0.25637 0.0
C478 C 0.62768 0.03616 0.25373 0.0
O479 O 0.62594 0.04619 0.23531 0.0
O480 O 0.65149 0.03176 0.26355 0.0
C481 C 0.6094 0.07523 0.20262 0.0
O482 O 0.59659 0.06852 0.22754 0.0
C483 C 0.71005 0.0235 0.31963 0.0
C484 C 0.75268 0.01735 0.30294 0.0
C485 C 0.73359 0.01693 0.33152 0.0
N486 N 0.715 0.02758 0.28567 0.0
N487 N 0.74042 0.02378 0.2757 0.0
C488 C 0.68423 0.02684 0.34101 0.0
H489 H 0.67487 0.03564 0.33055 0.0
H490 H 0.68938 0.0279 0.37029 0.0
H491 H 0.66835 0.01929 0.33802 0.0
C492 C 0.68717 0.07472 0.26251 0.0
N493 N 0.67984 0.06319 0.25139 0.0
N494 N 0.69504 0.05487 0.26907 0.0
C495 C 0.71256 0.06089 0.29211 0.0
C496 C 0.70812 0.07366 0.28872 0.0
C497 C 0.67421 0.08647 0.24816 0.0
H498 H 0.6785 0.08721 0.21858 0.0
H499 H 0.65097 0.08606 0.2519 0.0
H500 H 0.68246 0.09488 0.26222 0.0
O501 O 0.67553 0.0492 0.1754 0.0
O502 O 0.7013 0.03505 0.20467 0.0
H503 H 0.74734 0.04824 0.29706 0.0
H504 H 0.74938 0.06147 0.32725 0.0
C505 C 0.73486 0.05462 0.31448 0.0
H506 H 0.72462 0.04902 0.33613 0.0
H507 H 0.74961 0.02579 0.25058 0.0
O508 O 0.63444 0.07236 0.1932 0.0
C509 C 0.6934 0.04029 0.17524 0.0
Co510 Co 0.34493 0.94333 0.21128 0.0
Co511 Co 0.30933 0.96319 0.2547 0.0
C512 C 0.37271 0.9644 0.25091 0.0
O513 O 0.37429 0.95446 0.23207 0.0
O514 O 0.34897 0.96877 0.26101 0.0
C515 C 0.38594 0.92397 0.2038 0.0
O516 O 0.39375 0.928 0.23601 0.0
C517 C 0.28956 0.97657 0.32019 0.0
C518 C 0.25067 0.98558 0.29984 0.0
C519 C 0.26738 0.98432 0.33058 0.0
N520 N 0.28586 0.97335 0.28511 0.0
N521 N 0.26256 0.97877 0.27317 0.0
C522 C 0.31467 0.9728 0.34245 0.0
H523 H 0.33211 0.96947 0.32494 0.0
H524 H 0.3087 0.96502 0.36081 0.0
H525 H 0.32202 0.98074 0.35936 0.0
C526 C 0.31146 0.92609 0.25781 0.0
N527 N 0.31943 0.93766 0.24762 0.0
N528 N 0.30459 0.94594 0.26597 0.0
C529 C 0.28672 0.93987 0.28844 0.0
C530 C 0.29061 0.92712 0.28416 0.0
C531 C 0.3236 0.91431 0.24247 0.0
H532 H 0.32321 0.91473 0.21234 0.0
H533 H 0.34591 0.91346 0.2513 0.0
H534 H 0.31202 0.90592 0.25185 0.0
O535 O 0.32385 0.95242 0.17264 0.0
O536 O 0.29852 0.96635 0.20339 0.0
H537 H 0.25353 0.95332 0.29455 0.0
H538 H 0.24847 0.93927 0.32082 0.0
C539 C 0.26438 0.94607 0.31089 0.0
H540 H 0.27438 0.95062 0.33466 0.0
H541 H 0.25486 0.97789 0.24671 0.0
O542 O 0.36499 0.9291 0.1881 0.0
C543 C 0.30613 0.96139 0.17344 0.0
C544 C 0.14996 0.34045 0.90279 0.0
C545 C 0.15293 0.33802 0.94016 0.0
C546 C 0.16521 0.3501 0.88635 0.0
C547 C 0.201 0.37972 0.90542 0.0
H548 H 0.24125 0.3732 0.81559 0.0
C549 C 0.27674 0.41608 0.84247 0.0
C550 C 0.2776 0.41698 0.80448 0.0
C551 C 0.26181 0.40639 0.85923 0.0
C552 C 0.22981 0.37526 0.84037 0.0
H553 H 0.17393 0.34394 0.98967 0.0
H554 H 0.20029 0.36089 0.96097 0.0
H555 H 0.21404 0.35655 0.84417 0.0
H556 H 0.26339 0.40875 0.75401 0.0
H557 H 0.2366 0.39201 0.78303 0.0
H558 H 0.21611 0.39848 0.90137 0.0
C559 C 0.1862 0.3553 0.94444 0.0
C560 C 0.2143 0.36569 0.85679 0.0
C561 C 0.17121 0.34555 0.96081 0.0
C562 C 0.26322 0.40812 0.78341 0.0
C563 C 0.24803 0.39851 0.8001 0.0
C564 C 0.21624 0.38934 0.88879 0.0
C565 C 0.18348 0.35762 0.90701 0.0
C566 C 0.19979 0.36782 0.88951 0.0
C567 C 0.24714 0.39749 0.83826 0.0
C568 C 0.23091 0.38724 0.85606 0.0
H569 H 0.13604 0.33482 0.88611 0.0
H570 H 0.16251 0.35176 0.8575 0.0
H571 H 0.18974 0.38166 0.93043 0.0
H572 H 0.28781 0.42283 0.85916 0.0
H573 H 0.26204 0.40582 0.88861 0.0
C574 C 0.85441 0.66002 0.90257 0.0
C575 C 0.84988 0.66295 0.93936 0.0
C576 C 0.83943 0.65031 0.88603 0.0
C577 C 0.80054 0.62142 0.90555 0.0
H578 H 0.76602 0.62716 0.8114 0.0
C579 C 0.72433 0.58572 0.84032 0.0
C580 C 0.72561 0.58419 0.80252 0.0
C581 C 0.73954 0.59528 0.85722 0.0
C582 C 0.77585 0.62532 0.83744 0.0
H583 H 0.82636 0.65786 0.98779 0.0
H584 H 0.80039 0.64084 0.95891 0.0
H585 H 0.79295 0.64381 0.84037 0.0
H586 H 0.7441 0.59105 0.75263 0.0
H587 H 0.7713 0.60762 0.782 0.0
H588 H 0.78392 0.60288 0.90248 0.0
C589 C 0.81554 0.64607 0.94292 0.0
C590 C 0.79122 0.63488 0.85407 0.0
C591 C 0.83031 0.65586 0.95938 0.0
C592 C 0.74258 0.59222 0.78183 0.0
C593 C 0.75799 0.60172 0.79869 0.0
C594 C 0.78539 0.61181 0.88878 0.0
C595 C 0.81982 0.64325 0.90602 0.0
C596 C 0.80368 0.63304 0.88831 0.0
C597 C 0.75659 0.60342 0.83661 0.0
C598 C 0.7728 0.61364 0.85451 0.0
H599 H 0.86935 0.6653 0.88639 0.0
H600 H 0.84337 0.64827 0.85764 0.0
H601 H 0.8102 0.61969 0.93178 0.0
H602 H 0.7113 0.57959 0.8567 0.0
H603 H 0.7376 0.5964 0.88636 0.0
C604 C 0.9634 0.65869 0.0734 0.0
C605 C 0.97758 0.66746 0.05177 0.0
C606 C 0.97832 0.649 0.09012 0.0
C607 C 0.0436 0.63059 0.08302 0.0
H608 H 0.02861 0.62241 0.1839 0.0
C609 C 0.11004 0.59407 0.16125 0.0
C610 C 0.09565 0.58619 0.18556 0.0
C611 C 0.09622 0.60424 0.14529 0.0
C612 C 0.03282 0.62446 0.15557 0.0
H613 H 0.0181 0.67294 0.02971 0.0
H614 H 0.04439 0.65597 0.05898 0.0
H615 H 0.00319 0.63957 0.15516 0.0
H616 H 0.05541 0.58275 0.21197 0.0
H617 H 0.03118 0.60025 0.18357 0.0
H618 H 0.07283 0.61536 0.08312 0.0
C619 C 0.02178 0.65659 0.06315 0.0
C620 C 0.01829 0.63432 0.13916 0.0
C621 C 0.00685 0.66634 0.04667 0.0
C622 C 0.06717 0.58868 0.19353 0.0
C623 C 0.05331 0.59878 0.17739 0.0
C624 C 0.05799 0.62066 0.09936 0.0
C625 C 0.00768 0.64784 0.08514 0.0
C626 C 0.02346 0.63747 0.10269 0.0
C627 C 0.06764 0.60671 0.15308 0.0
C628 C 0.05274 0.61744 0.13583 0.0
H629 H 0.94077 0.65937 0.07743 0.0
H630 H 0.96683 0.64231 0.10653 0.0
H631 H 0.04779 0.63272 0.05474 0.0
H632 H 0.13206 0.59245 0.15473 0.0
H633 H 0.10807 0.61024 0.12715 0.0
C634 C 0.03898 0.34325 0.07254 0.0
C635 C 0.0249 0.33437 0.05123 0.0
C636 C 0.02402 0.35307 0.0885 0.0
C637 C 0.95134 0.36299 0.11372 0.0
H638 H 0.98614 0.39569 0.12005 0.0
C639 C 0.89055 0.40737 0.1586 0.0
C640 C 0.9044 0.41512 0.18379 0.0
C641 C 0.90491 0.39745 0.14216 0.0
C642 C 0.97624 0.38659 0.11871 0.0
H643 H 0.98455 0.32884 0.02881 0.0
H644 H 0.95828 0.34612 0.05608 0.0
H645 H 0.01178 0.37858 0.09145 0.0
H646 H 0.94417 0.41854 0.21142 0.0
H647 H 0.96921 0.40129 0.18252 0.0
H648 H 0.91561 0.37112 0.14056 0.0
C649 C 0.98072 0.34538 0.06141 0.0
C650 C 0.99095 0.37676 0.10243 0.0
C651 C 0.9957 0.33551 0.04569 0.0
C652 C 0.93289 0.41275 0.19214 0.0
C653 C 0.9473 0.40292 0.17544 0.0
C654 C 0.93653 0.37286 0.12973 0.0
C655 C 0.99468 0.35428 0.08309 0.0
C656 C 0.97877 0.36481 0.0999 0.0
C657 C 0.93347 0.39516 0.15028 0.0
C658 C 0.94889 0.38474 0.13258 0.0
H659 H 0.06155 0.34252 0.07708 0.0
H660 H 0.03543 0.35963 0.10543 0.0
H661 H 0.94144 0.35388 0.11279 0.0
H662 H 0.86859 0.40894 0.15167 0.0
H663 H 0.89378 0.39168 0.12268 0.0
C664 C 0.17004 0.84553 0.46005 0.0
C665 C 0.15121 0.83814 0.43979 0.0
C666 C 0.18482 0.8553 0.44349 0.0
C667 C 0.2107 0.86602 0.35486 0.0
H668 H 0.21522 0.89848 0.40116 0.0
C669 C 0.25869 0.90859 0.28132 0.0
C670 C 0.27473 0.91698 0.30204 0.0
C671 C 0.24343 0.89906 0.29829 0.0
C672 C 0.21454 0.88943 0.38807 0.0
H673 H 0.13308 0.83523 0.38626 0.0
H674 H 0.15908 0.85222 0.35735 0.0
H675 H 0.18918 0.88164 0.43069 0.0
H676 H 0.28746 0.9222 0.35639 0.0
H677 H 0.26145 0.90534 0.38628 0.0
H678 H 0.23645 0.87365 0.31259 0.0
C679 C 0.16243 0.85043 0.38601 0.0
C680 C 0.19953 0.8798 0.40498 0.0
C681 C 0.14744 0.84074 0.40264 0.0
C682 C 0.27519 0.91578 0.33997 0.0
C683 C 0.26013 0.90619 0.35699 0.0
C684 C 0.22594 0.87561 0.33811 0.0
C685 C 0.18129 0.8578 0.40625 0.0
C686 C 0.19737 0.86801 0.38848 0.0
C687 C 0.24404 0.8977 0.33637 0.0
C688 C 0.22799 0.88746 0.35442 0.0
H689 H 0.17339 0.84378 0.48873 0.0
H690 H 0.19938 0.86077 0.45969 0.0
H691 H 0.20973 0.85698 0.34175 0.0
H692 H 0.25774 0.9095 0.252 0.0
H693 H 0.23084 0.89288 0.28156 0.0
C694 C 0.85249 0.16024 0.40364 0.0
C695 C 0.84951 0.16271 0.44098 0.0
C696 C 0.83736 0.15053 0.38734 0.0
C697 C 0.8015 0.12091 0.4068 0.0
H698 H 0.76139 0.12738 0.31681 0.0
C699 C 0.72483 0.08481 0.34433 0.0
C700 C 0.72408 0.08383 0.30635 0.0
C701 C 0.74008 0.09442 0.36097 0.0
C702 C 0.77279 0.12533 0.34164 0.0
H703 H 0.82869 0.15678 0.49061 0.0
H704 H 0.80251 0.13973 0.46215 0.0
H705 H 0.78874 0.14401 0.34519 0.0
H706 H 0.73889 0.0918 0.2558 0.0
H707 H 0.76616 0.10843 0.28463 0.0
H708 H 0.7861 0.10219 0.40304 0.0
C709 C 0.81652 0.14534 0.44553 0.0
C710 C 0.78839 0.13489 0.35793 0.0
C711 C 0.8314 0.15514 0.46176 0.0
C712 C 0.73895 0.0925 0.28519 0.0
C713 C 0.75442 0.10204 0.30176 0.0
C714 C 0.78614 0.1113 0.39032 0.0
C715 C 0.81919 0.14299 0.40811 0.0
C716 C 0.80286 0.13279 0.39071 0.0
C717 C 0.75514 0.10316 0.3399 0.0
C718 C 0.77153 0.11339 0.35753 0.0
H719 H 0.86628 0.1659 0.38687 0.0
H720 H 0.84003 0.14886 0.3585 0.0
H721 H 0.81271 0.11899 0.43186 0.0
H722 H 0.71339 0.0782 0.36109 0.0
H723 H 0.73975 0.09508 0.39034 0.0
C724 C 0.96259 0.15857 0.57342 0.0
C725 C 0.97686 0.16756 0.55265 0.0
C726 C 0.97754 0.14888 0.5901 0.0
C727 C 0.04357 0.13096 0.58402 0.0
H728 H 0.02688 0.12195 0.68385 0.0
C729 C 0.10981 0.09438 0.66231 0.0
C730 C 0.09525 0.08622 0.68564 0.0
C731 C 0.09592 0.10455 0.64648 0.0
C732 C 0.03158 0.12423 0.6558 0.0
H733 H 0.01758 0.17344 0.53211 0.0
H734 H 0.04391 0.15647 0.56135 0.0
H735 H 0.00144 0.13914 0.65531 0.0
H736 H 0.05463 0.08229 0.71045 0.0
H737 H 0.03029 0.0998 0.68225 0.0
H738 H 0.07334 0.11592 0.58418 0.0
C739 C 0.02121 0.15692 0.56486 0.0
C740 C 0.01703 0.13411 0.6395 0.0
C741 C 0.00624 0.16666 0.54842 0.0
C742 C 0.06652 0.08844 0.69277 0.0
C743 C 0.05259 0.09854 0.67675 0.0
C744 C 0.058 0.12101 0.60023 0.0
C745 C 0.00701 0.14794 0.58596 0.0
C746 C 0.02281 0.13756 0.60341 0.0
C747 C 0.0671 0.10675 0.65342 0.0
C748 C 0.05213 0.11749 0.63631 0.0
H749 H 0.93987 0.15907 0.5768 0.0
H750 H 0.96598 0.14201 0.6058 0.0
H751 H 0.04825 0.1333 0.55601 0.0
H752 H 0.13203 0.09298 0.65647 0.0
H753 H 0.10789 0.11077 0.62911 0.0
C754 C 0.88943 0.90686 0.66018 0.0
C755 C 0.90414 0.91521 0.68276 0.0
C756 C 0.90336 0.89668 0.64447 0.0
C757 C 0.96849 0.87747 0.65337 0.0
H758 H 0.95073 0.86757 0.55457 0.0
C759 C 0.03782 0.84328 0.57107 0.0
C760 C 0.02361 0.83394 0.55162 0.0
C761 C 0.02269 0.85296 0.58748 0.0
C762 C 0.95572 0.87016 0.58231 0.0
H763 H 0.94506 0.91952 0.70621 0.0
H764 H 0.96943 0.90202 0.6782 0.0
H765 H 0.92531 0.88494 0.58232 0.0
H766 H 0.98277 0.82739 0.53324 0.0
H767 H 0.95615 0.84437 0.56191 0.0
H768 H 0.9993 0.86282 0.65297 0.0
C769 C 0.94701 0.90311 0.67325 0.0
C770 C 0.94111 0.88009 0.59828 0.0
C771 C 0.93305 0.91321 0.68916 0.0
C772 C 0.99409 0.83446 0.54846 0.0
C773 C 0.97895 0.8442 0.56459 0.0
C774 C 0.98324 0.86762 0.63728 0.0
C775 C 0.93235 0.89468 0.65079 0.0
C776 C 0.94738 0.88391 0.63399 0.0
C777 C 0.99309 0.85354 0.58435 0.0
C778 C 0.97708 0.86388 0.60156 0.0
H779 H 0.86708 0.90811 0.65491 0.0
H780 H 0.8913 0.89029 0.62774 0.0
H781 H 0.97351 0.87997 0.68115 0.0
H782 H 0.06062 0.84305 0.57369 0.0
H783 H 0.03418 0.8601 0.6022 0.0
C784 C 0.74657 0.41616 0.30314 0.0
C785 C 0.77623 0.41627 0.30207 0.0
C786 C 0.73213 0.4061 0.31867 0.0
C787 C 0.74009 0.3728 0.33975 0.0
H788 H 0.6771 0.37821 0.40533 0.0
C789 C 0.68849 0.3322 0.41826 0.0
C790 C 0.65901 0.33238 0.42282 0.0
C791 C 0.7026 0.34255 0.40395 0.0
C792 C 0.69439 0.37652 0.38668 0.0
H793 H 0.81411 0.40608 0.31648 0.0
H794 H 0.7889 0.38837 0.34324 0.0
H795 H 0.70202 0.39609 0.37959 0.0
H796 H 0.6212 0.34358 0.41587 0.0
H797 H 0.64573 0.36153 0.3901 0.0
H798 H 0.7323 0.35327 0.3462 0.0
C799 C 0.77679 0.39604 0.33201 0.0
C800 C 0.70871 0.38678 0.37204 0.0
C801 C 0.79121 0.40616 0.31679 0.0
C802 C 0.64394 0.34315 0.41278 0.0
C803 C 0.65805 0.35348 0.39822 0.0
C804 C 0.72565 0.36255 0.35414 0.0
C805 C 0.74709 0.39589 0.33303 0.0
C806 C 0.73178 0.38502 0.34853 0.0
C807 C 0.68758 0.35331 0.39358 0.0
C808 C 0.70268 0.36427 0.37792 0.0
H809 H 0.73455 0.42377 0.2914 0.0
H810 H 0.70924 0.40618 0.31866 0.0
H811 H 0.75751 0.37116 0.32125 0.0
H812 H 0.70077 0.32409 0.42595 0.0
H813 H 0.72538 0.34215 0.40142 0.0
C814 C 0.21048 0.59293 0.32297 0.0
C815 C 0.22476 0.58365 0.30341 0.0
C816 C 0.22543 0.60279 0.33876 0.0
C817 C 0.29755 0.61239 0.36736 0.0
H818 H 0.26466 0.64554 0.36591 0.0
C819 C 0.35903 0.65684 0.41072 0.0
C820 C 0.34434 0.66528 0.43307 0.0
C821 C 0.34492 0.64677 0.39462 0.0
C822 C 0.27402 0.63632 0.36678 0.0
H823 H 0.26561 0.57735 0.28442 0.0
H824 H 0.29187 0.59466 0.31152 0.0
H825 H 0.23916 0.6282 0.33835 0.0
H826 H 0.30333 0.66975 0.45605 0.0
H827 H 0.27881 0.65225 0.4279 0.0
H828 H 0.33258 0.62061 0.39549 0.0
C829 C 0.26921 0.59424 0.31544 0.0
C830 C 0.25938 0.62636 0.35108 0.0
C831 C 0.25423 0.58435 0.29982 0.0
C832 C 0.31529 0.66343 0.43897 0.0
C833 C 0.30117 0.65345 0.42266 0.0
C834 C 0.31229 0.62238 0.38286 0.0
C835 C 0.25499 0.60361 0.33506 0.0
C836 C 0.27086 0.61424 0.35135 0.0
C837 C 0.3158 0.64501 0.40028 0.0
C838 C 0.3006 0.63444 0.38294 0.0
H839 H 0.18773 0.59252 0.32616 0.0
H840 H 0.21381 0.60971 0.35416 0.0
H841 H 0.30687 0.60316 0.36853 0.0
H842 H 0.38144 0.65798 0.4057 0.0
H843 H 0.35671 0.64046 0.3773 0.0
C844 C 0.48832 0.65845 0.5325 0.0
C845 C 0.47437 0.66739 0.55372 0.0
C846 C 0.50382 0.6489 0.54903 0.0
C847 C 0.53688 0.63988 0.63717 0.0
H848 H 0.53742 0.60693 0.59351 0.0
C849 C 0.58034 0.59589 0.70973 0.0
C850 C 0.59838 0.58822 0.68916 0.0
C851 C 0.56572 0.60572 0.69327 0.0
C852 C 0.53762 0.61611 0.60584 0.0
H853 H 0.4654 0.67352 0.60851 0.0
H854 H 0.49165 0.65661 0.6377 0.0
H855 H 0.51041 0.62365 0.56499 0.0
H856 H 0.61522 0.58485 0.63518 0.0
H857 H 0.5893 0.60194 0.60637 0.0
H858 H 0.56356 0.63215 0.67856 0.0
C859 C 0.49132 0.65706 0.6083 0.0
C860 C 0.52224 0.62573 0.58944 0.0
C861 C 0.47611 0.66669 0.59169 0.0
C862 C 0.60149 0.5906 0.65178 0.0
C863 C 0.58657 0.60033 0.63524 0.0
C864 C 0.55197 0.63021 0.6538 0.0
C865 C 0.50543 0.64803 0.58719 0.0
C866 C 0.52172 0.63776 0.60482 0.0
C867 C 0.56855 0.60799 0.65583 0.0
C868 C 0.55255 0.61825 0.63823 0.0
H869 H 0.48754 0.65894 0.50309 0.0
H870 H 0.51484 0.6423 0.53182 0.0
H871 H 0.53746 0.64906 0.64948 0.0
H872 H 0.57755 0.59432 0.7386 0.0
H873 H 0.55182 0.61144 0.70973 0.0
C874 C 0.49721 0.33527 0.55 0.0
C875 C 0.52653 0.33418 0.55463 0.0
C876 C 0.48245 0.34513 0.56607 0.0
C877 C 0.48673 0.36806 0.64041 0.0
H878 H 0.43056 0.38612 0.58447 0.0
C879 C 0.43649 0.41373 0.69261 0.0
C880 C 0.40768 0.41578 0.68552 0.0
C881 C 0.45066 0.40365 0.6768 0.0
C882 C 0.44588 0.38107 0.60067 0.0
H883 H 0.56357 0.34239 0.57942 0.0
H884 H 0.53782 0.35971 0.60768 0.0
H885 H 0.45586 0.36873 0.55668 0.0
H886 H 0.37104 0.40875 0.65658 0.0
H887 H 0.39563 0.39104 0.62951 0.0
H888 H 0.47664 0.38027 0.68452 0.0
C889 C 0.52616 0.35291 0.59186 0.0
C890 C 0.46043 0.37112 0.58469 0.0
C891 C 0.54092 0.34308 0.57557 0.0
C892 C 0.3933 0.40748 0.66241 0.0
C893 C 0.40745 0.39736 0.64673 0.0
C894 C 0.47208 0.37795 0.65647 0.0
C895 C 0.49676 0.35405 0.58723 0.0
C896 C 0.48109 0.36454 0.60434 0.0
C897 C 0.43633 0.39533 0.65367 0.0
C898 C 0.45154 0.38463 0.63676 0.0
H899 H 0.48575 0.32853 0.53373 0.0
H900 H 0.45979 0.3457 0.56227 0.0
H901 H 0.50224 0.36304 0.65643 0.0
H902 H 0.44825 0.41997 0.71014 0.0
H903 H 0.473 0.40251 0.6823 0.0
C904 C 0.6731 0.84473 0.95879 0.0
C905 C 0.65349 0.83764 0.93886 0.0
C906 C 0.68754 0.85463 0.94241 0.0
C907 C 0.71169 0.86614 0.85416 0.0
H908 H 0.7166 0.89826 0.90233 0.0
C909 C 0.76037 0.90899 0.78269 0.0
C910 C 0.77596 0.9174 0.80389 0.0
C911 C 0.74501 0.89939 0.79918 0.0
C912 C 0.71585 0.88931 0.88869 0.0
H913 H 0.63368 0.83536 0.88607 0.0
H914 H 0.65926 0.85256 0.85736 0.0
H915 H 0.6909 0.88121 0.93124 0.0
H916 H 0.78797 0.92253 0.85857 0.0
H917 H 0.76202 0.9055 0.8876 0.0
H918 H 0.73721 0.87402 0.81209 0.0
C919 C 0.66337 0.85045 0.88567 0.0
C920 C 0.70099 0.87956 0.90524 0.0
C921 C 0.64865 0.84065 0.90218 0.0
C922 C 0.77599 0.91612 0.84179 0.0
C923 C 0.76094 0.90642 0.85833 0.0
C924 C 0.72687 0.87583 0.83781 0.0
C925 C 0.68294 0.85754 0.90564 0.0
C926 C 0.69869 0.86789 0.88809 0.0
C927 C 0.74519 0.89792 0.83724 0.0
C928 C 0.7291 0.88757 0.85479 0.0
H929 H 0.67726 0.84266 0.98712 0.0
H930 H 0.70267 0.85989 0.95836 0.0
H931 H 0.71056 0.85719 0.84055 0.0
H932 H 0.75982 0.90994 0.75337 0.0
H933 H 0.73271 0.89323 0.78204 0.0
C934 C 0.36084 0.15709 0.91036 0.0
C935 C 0.34681 0.1651 0.93466 0.0
C936 C 0.34641 0.14717 0.89396 0.0
C937 C 0.27504 0.13671 0.86888 0.0
H938 H 0.30856 0.1037 0.86577 0.0
C939 C 0.21132 0.09354 0.82327 0.0
C940 C 0.22542 0.08445 0.80274 0.0
C941 C 0.22639 0.10335 0.83915 0.0
C942 C 0.29903 0.11289 0.86591 0.0
H943 H 0.30664 0.16899 0.96077 0.0
H944 H 0.2815 0.15176 0.93199 0.0
H945 H 0.33465 0.12092 0.89328 0.0
H946 H 0.26598 0.07847 0.78194 0.0
H947 H 0.2924 0.09573 0.80904 0.0
H948 H 0.23961 0.1288 0.84113 0.0
C949 C 0.30361 0.15317 0.92554 0.0
C950 C 0.31399 0.12275 0.88177 0.0
C951 C 0.31808 0.16299 0.94219 0.0
C952 C 0.25476 0.08533 0.79809 0.0
C953 C 0.26984 0.09518 0.81374 0.0
C954 C 0.26018 0.12689 0.85277 0.0
C955 C 0.3176 0.14516 0.90125 0.0
C956 C 0.30208 0.13474 0.88361 0.0
C957 C 0.25586 0.10432 0.83453 0.0
C958 C 0.2719 0.11483 0.85125 0.0
H959 H 0.38299 0.15846 0.90406 0.0
H960 H 0.35768 0.14119 0.87516 0.0
H961 H 0.26549 0.1459 0.86944 0.0
H962 H 0.18867 0.09298 0.82725 0.0
H963 H 0.21495 0.11009 0.85543 0.0
C964 C 0.60931 0.09425 0.16271 0.0
C965 C 0.59478 0.08601 0.18583 0.0
C966 C 0.59532 0.1044 0.14688 0.0
C967 C 0.53085 0.12393 0.15628 0.0
H968 H 0.54709 0.133 0.05637 0.0
C969 C 0.4617 0.1585 0.07492 0.0
C970 C 0.47594 0.1674 0.05383 0.0
C971 C 0.47661 0.14874 0.09132 0.0
C972 C 0.54253 0.13065 0.08441 0.0
H973 H 0.55409 0.08192 0.21028 0.0
H974 H 0.52962 0.09941 0.18219 0.0
H975 H 0.57241 0.11566 0.08443 0.0
H976 H 0.51657 0.17309 0.03254 0.0
H977 H 0.54283 0.15604 0.06135 0.0
H978 H 0.50068 0.13883 0.156 0.0
C979 C 0.55196 0.09822 0.1768 0.0
C980 C 0.55708 0.12073 0.10054 0.0
C981 C 0.56597 0.08813 0.19276 0.0
C982 C 0.50525 0.16636 0.04903 0.0
C983 C 0.52017 0.15657 0.06524 0.0
C984 C 0.5162 0.1338 0.14007 0.0
C985 C 0.56644 0.1065 0.15369 0.0
C986 C 0.55137 0.11721 0.13666 0.0
C987 C 0.50602 0.14766 0.08664 0.0
C988 C 0.52183 0.13725 0.10394 0.0
H989 H 0.63157 0.09292 0.15699 0.0
H990 H 0.60724 0.11068 0.12964 0.0
H991 H 0.52627 0.12164 0.18434 0.0
H992 H 0.43904 0.15912 0.07877 0.0
H993 H 0.46506 0.14194 0.10727 0.0
C994 C 0.52455 0.83531 0.0898 0.0
C995 C 0.52506 0.83411 0.05188 0.0
C996 C 0.50912 0.84492 0.10616 0.0
C997 C 0.47527 0.87551 0.08563 0.0
H998 H 0.43764 0.86976 0.17779 0.0
C999 C 0.39676 0.91069 0.14941 0.0
C1000 C 0.40104 0.91346 0.18637 0.0
C1001 C 0.41149 0.90091 0.13285 0.0
C1002 C 0.44819 0.87151 0.15215 0.0
H1003 H 0.50938 0.84159 0.00114 0.0
H1004 H 0.48174 0.85821 0.0295 0.0
H1005 H 0.46374 0.8528 0.14898 0.0
H1006 H 0.42381 0.908 0.23505 0.0
H1007 H 0.44922 0.89081 0.20618 0.0
H1008 H 0.45912 0.89418 0.08864 0.0
C1009 C 0.49388 0.85203 0.04679 0.0
C1010 C 0.46327 0.86181 0.13567 0.0
C1011 C 0.50957 0.8425 0.03048 0.0
C1012 C 0.42009 0.90613 0.20651 0.0
C1013 C 0.43453 0.89625 0.19005 0.0
C1014 C 0.45991 0.88515 0.10192 0.0
C1015 C 0.49355 0.85342 0.08487 0.0
C1016 C 0.47714 0.8637 0.10225 0.0
C1017 C 0.4305 0.89358 0.15302 0.0
C1018 C 0.44633 0.88327 0.13541 0.0
H1019 H 0.5364 0.82889 0.10674 0.0
H1020 H 0.50976 0.84577 0.13548 0.0
H1021 H 0.48607 0.87741 0.06027 0.0
H1022 H 0.38223 0.91616 0.13316 0.0
H1023 H 0.40782 0.89899 0.10432 0.0
C1024 C 0.96848 0.22737 0.38687 0.0
C1025 C 0.95209 0.21643 0.38833 0.0
C1026 C 0.97684 0.23239 0.35343 0.0
C1027 C 0.95767 0.2321 0.25585 0.0
H1028 H 0.03122 0.24748 0.24342 0.0
C1029 C 0.9976 0.24917 0.11605 0.0
C1030 C 0.01122 0.26082 0.11514 0.0
C1031 C 0.99135 0.24341 0.1492 0.0
C1032 C 0.01052 0.2433 0.24657 0.0
H1033 H 0.93234 0.20199 0.35564 0.0
H1034 H 0.94733 0.2106 0.29751 0.0
H1035 H 0.01901 0.23788 0.30153 0.0
H1036 H 0.02742 0.27588 0.14864 0.0
H1037 H 0.01711 0.26574 0.20633 0.0
H1038 H 0.94921 0.2375 0.20089 0.0
C1039 C 0.95323 0.21547 0.32217 0.0
C1040 C 0.00349 0.23781 0.27989 0.0
C1041 C 0.94478 0.21048 0.35557 0.0
C1042 C 0.01809 0.26667 0.14818 0.0
C1043 C 0.01194 0.26089 0.18135 0.0
C1044 C 0.96474 0.23753 0.22253 0.0
C1045 C 0.9691 0.22656 0.32064 0.0
C1046 C 0.97694 0.23217 0.28498 0.0
C1047 C 0.99845 0.24921 0.18225 0.0
C1048 C 0.99121 0.24323 0.21752 0.0
H1049 H 0.97445 0.23223 0.41154 0.0
H1050 H 0.98876 0.24102 0.3533 0.0
H1051 H 0.93683 0.22806 0.25897 0.0
H1052 H 0.99192 0.24445 0.09105 0.0
H1053 H 0.98113 0.23436 0.14894 0.0
C1054 C 0.05487 0.79116 0.35448 0.0
C1055 C 0.04756 0.78512 0.3871 0.0
C1056 C 0.04649 0.78625 0.32098 0.0
C1057 C 0.99653 0.76391 0.27818 0.0
H1058 H 0.05102 0.76445 0.19944 0.0
C1059 C 0.98292 0.73507 0.14645 0.0
C1060 C 0.98957 0.741 0.11344 0.0
C1061 C 0.9889 0.74085 0.17963 0.0
C1062 C 0.03544 0.76436 0.22101 0.0
H1063 H 0.02526 0.76924 0.40998 0.0
H1064 H 0.0111 0.76057 0.35155 0.0
H1065 H 0.06315 0.77383 0.25769 0.0
H1066 H 0.00835 0.7575 0.08941 0.0
H1067 H 0.01891 0.76759 0.14737 0.0
H1068 H 0.96903 0.75422 0.2415 0.0
C1069 C 0.02295 0.76922 0.35187 0.0
C1070 C 0.04237 0.76976 0.25442 0.0
C1071 C 0.03122 0.77416 0.38541 0.0
C1072 C 0.00284 0.75273 0.11439 0.0
C1073 C 0.00895 0.75849 0.14757 0.0
C1074 C 0.98966 0.75845 0.2448 0.0
C1075 C 0.03071 0.77514 0.31922 0.0
C1076 C 0.02302 0.76959 0.28346 0.0
C1077 C 0.00203 0.75262 0.18057 0.0
C1078 C 0.00907 0.7586 0.21586 0.0
H1079 H 0.06726 0.79966 0.35474 0.0
H1080 H 0.0524 0.79118 0.29642 0.0
H1081 H 0.98096 0.76377 0.29976 0.0
H1082 H 0.97388 0.72581 0.14687 0.0
H1083 H 0.98391 0.73596 0.2046 0.0
C1084 C 0.23159 0.5156 0.39765 0.0
C1085 C 0.23916 0.5099 0.36468 0.0
C1086 C 0.23756 0.50978 0.4308 0.0
C1087 C 0.28542 0.48677 0.47241 0.0
H1088 H 0.23011 0.48631 0.5502 0.0
C1089 C 0.30556 0.45983 0.6056 0.0
C1090 C 0.29757 0.4657 0.63822 0.0
C1091 C 0.29706 0.46469 0.57206 0.0
C1092 C 0.2459 0.48647 0.5289 0.0
H1093 H 0.25973 0.49388 0.34046 0.0
H1094 H 0.27021 0.48367 0.39837 0.0
H1095 H 0.21812 0.49593 0.49203 0.0
H1096 H 0.27388 0.48118 0.66103 0.0
H1097 H 0.25948 0.48975 0.60258 0.0
H1098 H 0.31338 0.47752 0.50928 0.0
C1099 C 0.2595 0.4926 0.39864 0.0
C1100 C 0.23901 0.49197 0.49555 0.0
C1101 C 0.25341 0.49841 0.3655 0.0
C1102 C 0.28038 0.4764 0.63647 0.0
C1103 C 0.27198 0.48128 0.6029 0.0
C1104 C 0.29236 0.48133 0.50577 0.0
C1105 C 0.25164 0.49822 0.43168 0.0
C1106 C 0.25871 0.4922 0.46695 0.0
C1107 C 0.28046 0.47556 0.57025 0.0
C1108 C 0.27271 0.48112 0.53448 0.0
H1109 H 0.22169 0.52472 0.39789 0.0
H1110 H 0.2318 0.51448 0.45579 0.0
H1111 H 0.30123 0.48697 0.45113 0.0
H1112 H 0.31862 0.45153 0.60589 0.0
H1113 H 0.30355 0.45991 0.5475 0.0
C1114 C 0.71873 0.52399 0.63762 0.0
C1115 C 0.70225 0.53491 0.63869 0.0
C1116 C 0.72719 0.51888 0.60435 0.0
C1117 C 0.75351 0.51312 0.53062 0.0
H1118 H 0.69853 0.51323 0.45245 0.0
C1119 C 0.78011 0.4963 0.38468 0.0
C1120 C 0.75926 0.48936 0.36651 0.0
C1121 C 0.77414 0.50204 0.41799 0.0
C1122 C 0.71408 0.51303 0.47405 0.0
H1123 H 0.68262 0.54926 0.60552 0.0
H1124 H 0.69775 0.54048 0.54771 0.0
H1125 H 0.68667 0.52281 0.51037 0.0
H1126 H 0.71581 0.48303 0.3688 0.0
H1127 H 0.70546 0.49286 0.427 0.0
H1128 H 0.78059 0.50299 0.49448 0.0
C1129 C 0.70363 0.5357 0.57254 0.0
C1130 C 0.70742 0.51869 0.50715 0.0
C1131 C 0.69508 0.54078 0.60575 0.0
C1132 C 0.7323 0.48835 0.38215 0.0
C1133 C 0.72634 0.49403 0.41544 0.0
C1134 C 0.76016 0.50743 0.49746 0.0
C1135 C 0.71945 0.52459 0.57138 0.0
C1136 C 0.727 0.51879 0.53591 0.0
C1137 C 0.74714 0.501 0.43374 0.0
C1138 C 0.74046 0.50726 0.46883 0.0
H1139 H 0.72462 0.51921 0.66245 0.0
H1140 H 0.73911 0.51025 0.60449 0.0
H1141 H 0.7692 0.51313 0.55206 0.0
H1142 H 0.80083 0.49758 0.37281 0.0
H1143 H 0.7905 0.50752 0.43101 0.0
C1144 C 0.96999 0.72695 0.8851 0.0
C1145 C 0.95341 0.71607 0.88682 0.0
C1146 C 0.97813 0.73192 0.85153 0.0
C1147 C 0.95791 0.73172 0.75437 0.0
H1148 H 0.03156 0.74688 0.74066 0.0
C1149 C 0.99664 0.7488 0.614 0.0
C1150 C 0.01049 0.76039 0.61307 0.0
C1151 C 0.9906 0.74304 0.64721 0.0
C1152 C 0.01083 0.74277 0.74418 0.0
H1153 H 0.93314 0.70168 0.85448 0.0
H1154 H 0.94776 0.71021 0.7961 0.0
H1155 H 0.01987 0.73726 0.79892 0.0
H1156 H 0.02718 0.77543 0.6461 0.0
H1157 H 0.01715 0.76527 0.70413 0.0
H1158 H 0.9489 0.73721 0.69962 0.0
C1159 C 0.95397 0.71506 0.82067 0.0
C1160 C 0.00411 0.73726 0.77757 0.0
C1161 C 0.94574 0.71012 0.8542 0.0
C1162 C 0.01763 0.76624 0.64598 0.0
C1163 C 0.0117 0.76046 0.6792 0.0
C1164 C 0.96467 0.73717 0.72096 0.0
C1165 C 0.96999 0.72611 0.81888 0.0
C1166 C 0.97752 0.73171 0.78312 0.0
C1167 C 0.99809 0.74879 0.68019 0.0
C1168 C 0.99117 0.74279 0.71552 0.0
H1169 H 0.97623 0.7318 0.90966 0.0
H1170 H 0.99018 0.74051 0.8512 0.0
H1171 H 0.93704 0.72774 0.75786 0.0
H1172 H 0.99065 0.74416 0.58899 0.0
H1173 H 0.98023 0.73402 0.64705 0.0
C1174 C 0.0548 0.29142 0.85542 0.0
C1175 C 0.04748 0.28542 0.8881 0.0
C1176 C 0.04615 0.28655 0.82198 0.0
C1177 C 0.99555 0.26438 0.77951 0.0
H1178 H 0.04978 0.26468 0.70047 0.0
C1179 C 0.98116 0.23541 0.64806 0.0
C1180 C 0.98792 0.24125 0.61496 0.0
C1181 C 0.98723 0.24124 0.68117 0.0
C1182 C 0.03427 0.26465 0.72212 0.0
H1183 H 0.02486 0.26966 0.91114 0.0
H1184 H 0.01023 0.26106 0.85283 0.0
H1185 H 0.06226 0.27407 0.75857 0.0
H1186 H 0.00695 0.25766 0.5907 0.0
H1187 H 0.01766 0.26783 0.6485 0.0
H1188 H 0.96777 0.25474 0.74306 0.0
C1189 C 0.0223 0.26965 0.85305 0.0
C1190 C 0.04139 0.27006 0.75545 0.0
C1191 C 0.03084 0.27455 0.88653 0.0
C1192 C 0.00135 0.25295 0.61575 0.0
C1193 C 0.00755 0.25875 0.64884 0.0
C1194 C 0.98848 0.25891 0.7462 0.0
C1195 C 0.03008 0.27551 0.82032 0.0
C1196 C 0.02215 0.26998 0.78461 0.0
C1197 C 0.00056 0.25296 0.68194 0.0
C1198 C 0.00779 0.25897 0.71715 0.0
H1199 H 0.06742 0.29985 0.85559 0.0
H1200 H 0.05209 0.29144 0.79737 0.0
H1201 H 0.98005 0.26431 0.80117 0.0
H1202 H 0.97198 0.22618 0.64863 0.0
H1203 H 0.98216 0.23641 0.70621 0.0
C1204 C 0.2199 0.00413 0.88259 0.0
C1205 C 0.24076 0.01143 0.86564 0.0
C1206 C 0.22516 0.99853 0.91629 0.0
C1207 C 0.26968 0.00133 0.99758 0.0
H1208 H 0.25145 0.96644 0.01347 0.0
C1209 C 0.28043 0.97795 0.13829 0.0
C1210 C 0.29513 0.96653 0.13878 0.0
C1211 C 0.27175 0.98324 0.10539 0.0
C1212 C 0.25664 0.97619 0.00939 0.0
H1213 H 0.28355 0.01844 0.87022 0.0
H1214 H 0.29268 0.00875 0.92924 0.0
H1215 H 0.24059 0.97617 0.95486 0.0
H1216 H 0.31137 0.95154 0.10504 0.0
H1217 H 0.29595 0.96075 0.04766 0.0
H1218 H 0.28594 0.00135 0.05191 0.0
C1219 C 0.2722 0.00744 0.91664 0.0
C1220 C 0.25024 0.98178 0.97599 0.0
C1221 C 0.26705 0.01291 0.88279 0.0
C1222 C 0.30018 0.96036 0.10566 0.0
C1223 C 0.29122 0.96559 0.07279 0.0
C1224 C 0.27577 0.9958 0.03108 0.0
C1225 C 0.25131 1.0002 0.93376 0.0
C1226 C 0.25697 0.99437 0.96964 0.0
C1227 C 0.27728 0.97718 0.07228 0.0
C1228 C 0.26955 0.98314 0.03723 0.0
H1229 H 0.19967 0.0026 0.86959 0.0
H1230 H 0.20867 0.993 0.92887 0.0
H1231 H 0.27488 0.01109 0.99355 0.0
H1232 H 0.27615 0.98295 0.16327 0.0
H1233 H 0.26078 0.99212 0.10583 0.0
C1234 C 0.77003 0.98521 0.90041 0.0
C1235 C 0.76334 0.99109 0.86734 0.0
C1236 C 0.76419 0.99107 0.93353 0.0
C1237 C 0.71769 0.01471 0.97435 0.0
H1238 H 0.77177 0.0142 0.05355 0.0
C1239 C 0.6973 0.04162 0.10731 0.0
C1240 C 0.70424 0.03555 0.14002 0.0
C1241 C 0.7061 0.03674 0.07394 0.0
C1242 C 0.75632 0.01432 0.03184 0.0
H1243 H 0.74484 0.00764 0.84316 0.0
H1244 H 0.73457 0.01785 0.90094 0.0
H1245 H 0.78393 0.00452 0.99554 0.0
H1246 H 0.72641 0.01969 0.16322 0.0
H1247 H 0.74129 0.01109 0.10505 0.0
H1248 H 0.68986 0.02429 0.01061 0.0
C1249 C 0.74438 0.00872 0.90126 0.0
C1250 C 0.76332 0.00878 0.9986 0.0
C1251 C 0.75034 0.00288 0.86817 0.0
C1252 C 0.72072 0.02463 0.13858 0.0
C1253 C 0.7294 0.01972 0.10518 0.0
C1254 C 0.71064 0.02019 0.00759 0.0
C1255 C 0.7512 0.00287 0.93433 0.0
C1256 C 0.74406 0.00891 0.9695 0.0
C1257 C 0.72193 0.02564 0.07242 0.0
C1258 C 0.72985 0.02005 0.03679 0.0
H1259 H 0.77892 0.97593 0.90094 0.0
H1260 H 0.76915 0.98621 0.95857 0.0
H1261 H 0.70221 0.01478 0.95265 0.0
H1262 H 0.68482 0.0501 0.10739 0.0
H1263 H 0.70042 0.04167 0.04929 0.0
C1264 C 0.48289 0.26241 0.63278 0.0
C1265 C 0.50925 0.26096 0.61579 0.0
C1266 C 0.47765 0.2569 0.66656 0.0
C1267 C 0.49972 0.2313 0.7262 0.0
H1268 H 0.46403 0.25096 0.80194 0.0
C1269 C 0.45071 0.2101 0.85682 0.0
C1270 C 0.4558 0.21641 0.88971 0.0
C1271 C 0.45944 0.21525 0.82372 0.0
C1272 C 0.47419 0.24538 0.78115 0.0
H1273 H 0.55032 0.25211 0.61986 0.0
H1274 H 0.54116 0.24247 0.67901 0.0
H1275 H 0.47479 0.26059 0.74336 0.0
H1276 H 0.47469 0.23296 0.91357 0.0
H1277 H 0.48967 0.24196 0.85578 0.0
H1278 H 0.49884 0.21605 0.76398 0.0
C1279 C 0.52469 0.248 0.66638 0.0
C1280 C 0.4801 0.25086 0.74753 0.0
C1281 C 0.53005 0.25363 0.63275 0.0
C1282 C 0.47037 0.22785 0.88878 0.0
C1283 C 0.47882 0.23305 0.85567 0.0
C1284 C 0.4935 0.22577 0.75973 0.0
C1285 C 0.4985 0.24966 0.68375 0.0
C1286 C 0.49284 0.24387 0.71967 0.0
C1287 C 0.4732 0.22687 0.82278 0.0
C1288 C 0.48063 0.23276 0.78752 0.0
H1289 H 0.46644 0.26796 0.62018 0.0
H1290 H 0.45714 0.25821 0.67908 0.0
H1291 H 0.5094 0.22568 0.70514 0.0
H1292 H 0.43962 0.20125 0.85654 0.0
H1293 H 0.45465 0.21031 0.79877 0.0
C1294 C 0.53137 0.77417 0.88738 0.0
C1295 C 0.54775 0.78512 0.88873 0.0
C1296 C 0.52288 0.76917 0.85401 0.0
C1297 C 0.54167 0.76957 0.75628 0.0
H1298 H 0.46848 0.7538 0.74436 0.0
C1299 C 0.50131 0.75257 0.61674 0.0
C1300 C 0.48833 0.74077 0.61572 0.0
C1301 C 0.50752 0.7583 0.64993 0.0
C1302 C 0.48908 0.75809 0.74738 0.0
H1303 H 0.56722 0.7996 0.85593 0.0
H1304 H 0.55193 0.79103 0.79791 0.0
H1305 H 0.48069 0.76344 0.80241 0.0
H1306 H 0.47317 0.72547 0.64912 0.0
H1307 H 0.48334 0.73558 0.7069 0.0
H1308 H 0.54998 0.76426 0.70122 0.0
C1309 C 0.54619 0.78614 0.8226 0.0
C1310 C 0.49611 0.7636 0.78065 0.0
C1311 C 0.55482 0.79111 0.85594 0.0
C1312 C 0.482 0.73477 0.64872 0.0
C1313 C 0.48807 0.74053 0.68194 0.0
C1314 C 0.53458 0.76412 0.723 0.0
C1315 C 0.53042 0.77502 0.82117 0.0
C1316 C 0.52254 0.76938 0.78556 0.0
C1317 C 0.50098 0.75234 0.68291 0.0
C1318 C 0.50824 0.75829 0.71819 0.0
H1319 H 0.5256 0.76929 0.91208 0.0
H1320 H 0.51103 0.76052 0.85397 0.0
H1321 H 0.56242 0.77371 0.75925 0.0
H1322 H 0.50655 0.75743 0.5918 0.0
H1323 H 0.51728 0.76744 0.64975 0.0
C1324 C 0.80093 0.46021 0.10625 0.0
C1325 C 0.79516 0.46633 0.13922 0.0
C1326 C 0.79217 0.46534 0.07319 0.0
C1327 C 0.78896 0.48209 0.00732 0.0
H1328 H 0.71798 0.49981 0.99676 0.0
C1329 C 0.76563 0.51211 0.88119 0.0
C1330 C 0.73814 0.51187 0.86686 0.0
C1331 C 0.77152 0.50658 0.91473 0.0
C1332 C 0.73777 0.4948 0.99914 0.0
H1333 H 0.77503 0.48255 0.16327 0.0
H1334 H 0.76028 0.49164 0.10556 0.0
H1335 H 0.72918 0.48958 0.05426 0.0
H1336 H 0.69544 0.50523 0.87584 0.0
H1337 H 0.70569 0.4955 0.93436 0.0
H1338 H 0.7973 0.48701 0.95206 0.0
C1339 C 0.7712 0.48276 0.10527 0.0
C1340 C 0.74435 0.48906 0.03227 0.0
C1341 C 0.7798 0.47757 0.13839 0.0
C1342 C 0.71665 0.50589 0.88665 0.0
C1343 C 0.72257 0.50028 0.92017 0.0
C1344 C 0.78235 0.48778 0.97423 0.0
C1345 C 0.7776 0.47679 0.07221 0.0
C1346 C 0.77008 0.48266 0.0368 0.0
C1347 C 0.75013 0.50051 0.93456 0.0
C1348 C 0.75676 0.49427 0.96974 0.0
H1349 H 0.81247 0.45147 0.10586 0.0
H1350 H 0.79696 0.46035 0.04835 0.0
H1351 H 0.80914 0.47741 0.0099 0.0
H1352 H 0.7826 0.51668 0.86657 0.0
H1353 H 0.79287 0.50713 0.92521 0.0
C1354 C 0.19666 0.54092 0.10583 0.0
C1355 C 0.20338 0.53481 0.13854 0.0
C1356 C 0.20508 0.53593 0.07244 0.0
C1357 C 0.2084 0.51934 0.00608 0.0
H1358 H 0.28016 0.50237 0.99403 0.0
C1359 C 0.23195 0.48934 0.87977 0.0
C1360 C 0.25934 0.48973 0.86518 0.0
C1361 C 0.22603 0.49498 0.91316 0.0
C1362 C 0.26014 0.50718 0.99679 0.0
H1363 H 0.22478 0.51874 0.1617 0.0
H1364 H 0.23895 0.50993 0.10348 0.0
H1365 H 0.26917 0.51247 0.05171 0.0
H1366 H 0.30177 0.49681 0.87336 0.0
H1367 H 0.29148 0.50673 0.93155 0.0
H1368 H 0.19961 0.51434 0.95098 0.0
C1369 C 0.22755 0.51869 0.10363 0.0
C1370 C 0.25369 0.51284 0.03005 0.0
C1371 C 0.21928 0.52372 0.13706 0.0
C1372 C 0.28066 0.49602 0.88443 0.0
C1373 C 0.27472 0.50174 0.91776 0.0
C1374 C 0.21489 0.51373 0.97283 0.0
C1375 C 0.22028 0.52466 0.07086 0.0
C1376 C 0.22767 0.51895 0.03517 0.0
C1377 C 0.2473 0.5013 0.93254 0.0
C1378 C 0.24076 0.50751 0.9678 0.0
H1379 H 0.18464 0.54953 0.10593 0.0
H1380 H 0.19958 0.54092 0.04781 0.0
H1381 H 0.188 0.5238 0.00912 0.0
H1382 H 0.2151 0.48455 0.86554 0.0
H1383 H 0.20479 0.49428 0.92392 0.0
C1384 C 0.46988 0.7269 0.38715 0.0
C1385 C 0.45368 0.7159 0.38857 0.0
C1386 C 0.47846 0.73186 0.35376 0.0
C1387 C 0.45999 0.73126 0.25599 0.0
H1388 H 0.53275 0.74744 0.24436 0.0
C1389 C 0.49993 0.74871 0.11669 0.0
C1390 C 0.51258 0.76058 0.11586 0.0
C1391 C 0.4939 0.74288 0.14979 0.0
C1392 C 0.51228 0.74303 0.24729 0.0
H1393 H 0.43467 0.70127 0.35591 0.0
H1394 H 0.45011 0.70978 0.29783 0.0
H1395 H 0.5207 0.7377 0.30234 0.0
H1396 H 0.52733 0.77589 0.14948 0.0
H1397 H 0.51745 0.76562 0.20711 0.0
H1398 H 0.45162 0.73657 0.20093 0.0
C1399 C 0.45564 0.71474 0.32248 0.0
C1400 C 0.50534 0.73746 0.28052 0.0
C1401 C 0.44693 0.70981 0.35584 0.0
C1402 C 0.51876 0.76655 0.14894 0.0
C1403 C 0.51285 0.76069 0.18207 0.0
C1404 C 0.46699 0.73677 0.22275 0.0
C1405 C 0.47119 0.72592 0.32097 0.0
C1406 C 0.47905 0.73154 0.28534 0.0
C1407 C 0.50027 0.74881 0.18287 0.0
C1408 C 0.49316 0.74275 0.21805 0.0
H1409 H 0.47542 0.73186 0.41179 0.0
H1410 H 0.49012 0.74056 0.35365 0.0
H1411 H 0.43934 0.72702 0.25888 0.0
H1412 H 0.49482 0.74387 0.09168 0.0
H1413 H 0.48439 0.73368 0.14947 0.0
C1414 C 0.55686 0.2911 0.35711 0.0
C1415 C 0.54857 0.28526 0.38966 0.0
C1416 C 0.54842 0.28628 0.32349 0.0
C1417 C 0.49686 0.26475 0.28013 0.0
H1418 H 0.55222 0.26404 0.20242 0.0
C1419 C 0.48231 0.23552 0.14928 0.0
C1420 C 0.48989 0.24115 0.11617 0.0
C1421 C 0.48835 0.24138 0.18234 0.0
C1422 C 0.53641 0.2643 0.2237 0.0
H1423 H 0.52451 0.26985 0.41227 0.0
H1424 H 0.51026 0.26134 0.35372 0.0
H1425 H 0.56452 0.27345 0.26059 0.0
H1426 H 0.51037 0.25721 0.09185 0.0
H1427 H 0.52104 0.26743 0.14958 0.0
H1428 H 0.46894 0.25539 0.24326 0.0
C1429 C 0.52291 0.26976 0.35414 0.0
C1430 C 0.54343 0.26972 0.25706 0.0
C1431 C 0.53124 0.27461 0.38777 0.0
C1432 C 0.50412 0.25266 0.1169 0.0
C1433 C 0.5103 0.2585 0.14995 0.0
C1434 C 0.48989 0.25928 0.2468 0.0
C1435 C 0.5316 0.27547 0.32156 0.0
C1436 C 0.52378 0.26999 0.28575 0.0
C1437 C 0.50247 0.25292 0.18306 0.0
C1438 C 0.50961 0.25897 0.21824 0.0
H1439 H 0.57005 0.29936 0.35751 0.0
H1440 H 0.5551 0.29104 0.29898 0.0
H1441 H 0.48105 0.26497 0.30141 0.0
H1442 H 0.47249 0.22642 0.14992 0.0
H1443 H 0.48262 0.23671 0.2074 0.0
C1444 C 0.78065 0.97821 0.64 0.0
C1445 C 0.79479 0.96666 0.64041 0.0
C1446 C 0.77169 0.98348 0.60721 0.0
C1447 C 0.75443 0.97636 0.51197 0.0
H1448 H 0.77504 0.0109 0.49445 0.0
C1449 C 0.71753 0.00446 0.38551 0.0
C1450 C 0.73879 0.01121 0.36749 0.0
C1451 C 0.72289 0.99895 0.4193 0.0
C1452 C 0.76916 0.00125 0.49898 0.0
H1453 H 0.80967 0.95139 0.60669 0.0
H1454 H 0.79371 0.96057 0.54946 0.0
H1455 H 0.78644 0.00121 0.55278 0.0
H1456 H 0.78235 0.01736 0.37029 0.0
H1457 H 0.79164 0.00785 0.42952 0.0
H1458 H 0.73731 0.97641 0.45798 0.0
C1459 C 0.78967 0.96554 0.57458 0.0
C1460 C 0.77546 0.99574 0.53244 0.0
C1461 C 0.79894 0.96032 0.60735 0.0
C1462 C 0.76554 0.01226 0.3837 0.0
C1463 C 0.7708 0.00689 0.41766 0.0
C1464 C 0.7478 0.98193 0.47863 0.0
C1465 C 0.77634 0.97726 0.57414 0.0
C1466 C 0.76839 0.98321 0.53917 0.0
C1467 C 0.74955 1.00017 0.43579 0.0
C1468 C 0.75537 0.9944 0.47168 0.0
H1469 H 0.77706 0.98335 0.66494 0.0
H1470 H 0.76121 0.99248 0.60769 0.0
H1471 H 0.7486 0.96671 0.51652 0.0
H1472 H 0.69691 0.00326 0.37325 0.0
H1473 H 0.70613 0.99382 0.4327 0.0
C1474 C 0.19657 0.04131 0.60586 0.0
C1475 C 0.20401 0.03541 0.63864 0.0
C1476 C 0.20506 0.03633 0.57249 0.0
C1477 C 0.25534 0.01394 0.53029 0.0
H1478 H 0.2007 0.01404 0.45169 0.0
C1479 C 0.26888 0.98467 0.3991 0.0
C1480 C 0.26204 0.9905 0.36602 0.0
C1481 C 0.26302 0.99053 0.43222 0.0
C1482 C 0.21632 0.01406 0.47323 0.0
H1483 H 0.2267 0.01971 0.66194 0.0
H1484 H 0.24105 0.01092 0.60379 0.0
H1485 H 0.18858 0.02364 0.50962 0.0
H1486 H 0.24316 0.00697 0.34184 0.0
H1487 H 0.2328 0.01717 0.39962 0.0
H1488 H 0.28287 0.00414 0.49388 0.0
C1489 C 0.22901 0.01951 0.60385 0.0
C1490 C 0.2094 0.01959 0.50645 0.0
C1491 C 0.22063 0.02453 0.63724 0.0
C1492 C 0.24879 0.00224 0.36685 0.0
C1493 C 0.24279 0.00808 0.39994 0.0
C1494 C 0.2622 0.00834 0.49708 0.0
C1495 C 0.22109 0.02528 0.57103 0.0
C1496 C 0.2288 0.0196 0.53543 0.0
C1497 C 0.24981 0.00228 0.43301 0.0
C1498 C 0.24275 0.00834 0.46819 0.0
H1499 H 0.18395 0.04975 0.60589 0.0
H1500 H 0.19902 0.04115 0.54779 0.0
H1501 H 0.27095 0.01392 0.55182 0.0
H1502 H 0.27795 0.97541 0.39966 0.0
H1503 H 0.26813 0.98571 0.45726 0.0
C1504 C 0.32569 0.21575 0.00839 0.0
C1505 C 0.35196 0.22183 0.00966 0.0
C1506 C 0.30066 0.22245 0.01341 0.0
C1507 C 0.27232 0.2535 0.04301 0.0
H1508 H 0.20871 0.24361 0.9831 0.0
C1509 C 0.17615 0.28499 0.00779 0.0
C1510 C 0.14928 0.27946 0.01077 0.0
C1511 C 0.20059 0.27785 0.01279 0.0
C1512 C 0.22621 0.24639 1.00028 0.0
H1513 H 0.37267 0.23966 0.01787 0.0
H1514 H 0.32909 0.25146 0.02502 0.0
H1515 H 0.25189 0.23133 0.98174 0.0
H1516 H 0.12704 0.26219 0.02236 0.0
H1517 H 0.16981 0.24971 0.03025 0.0
H1518 H 0.24667 0.26897 0.05995 0.0
C1519 C 0.32767 0.24145 0.02124 0.0
C1520 C 0.25098 0.23932 0.99972 0.0
C1521 C 0.35273 0.2347 0.01691 0.0
C1522 C 0.1474 0.26673 0.01986 0.0
C1523 C 0.17184 0.25957 0.02424 0.0
C1524 C 0.24765 0.2607 0.04306 0.0
C1525 C 0.30124 0.23545 0.01908 0.0
C1526 C 0.27445 0.24277 0.021 0.0
C1527 C 0.19863 0.26503 0.02028 0.0
C1528 C 0.22441 0.25721 0.02165 0.0
H1529 H 0.32443 0.20581 0.0033 0.0
H1530 H 0.28084 0.21742 0.01251 0.0
H1531 H 0.28969 0.25635 0.06027 0.0
H1532 H 0.1783 0.29478 0.00097 0.0
H1533 H 0.22103 0.28226 0.00941 0.0
C1534 C 0.85259 0.73417 0.01659 0.0
C1535 C 0.85171 0.72126 0.00994 0.0
C1536 C 0.82761 0.74096 0.02119 0.0
C1537 C 0.75071 0.73878 0.0012 0.0
H1538 H 0.74734 0.7689 0.05956 0.0
C1539 C 0.64771 0.76665 0.02089 0.0
C1540 C 0.64969 0.77932 0.01114 0.0
C1541 C 0.67208 0.75945 0.02535 0.0
C1542 C 0.74806 0.7605 0.04319 0.0
H1543 H 0.82407 0.70521 0.00501 0.0
H1544 H 0.78062 0.7169 0.0147 0.0
H1545 H 0.79017 0.75616 0.06009 0.0
H1546 H 0.67885 0.7945 1.00018 0.0
H1547 H 0.72147 0.78191 0.00875 0.0
H1548 H 0.70837 0.74307 0.98489 0.0
C1549 C 0.80046 0.72193 0.01491 0.0
C1550 C 0.77262 0.75322 0.04327 0.0
C1551 C 0.82541 0.71519 0.00963 0.0
C1552 C 0.67661 0.78475 0.00753 0.0
C1553 C 0.701 0.77758 0.0126 0.0
C1554 C 0.72605 0.74593 0.00165 0.0
C1555 C 0.80115 0.73496 0.0199 0.0
C1556 C 0.77442 0.74233 0.0219 0.0
C1557 C 0.69892 0.76481 0.02079 0.0
C1558 C 0.72459 0.75692 0.02231 0.0
H1559 H 0.87254 0.73913 0.0168 0.0
H1560 H 0.82912 0.75098 0.02442 0.0
H1561 H 0.75136 0.73066 0.98372 0.0
H1562 H 0.62732 0.76217 0.02389 0.0
H1563 H 0.66995 0.74963 0.03191 0.0
C1564 C 0.07466 0.53445 0.25809 0.0
C1565 C 0.10146 0.52886 0.26123 0.0
C1566 C 0.05012 0.52739 0.26319 0.0
C1567 C 0.02403 0.49598 0.25123 0.0
H1568 H 0.96088 0.50612 0.31155 0.0
C1569 C 0.92448 0.46546 0.26001 0.0
C1570 C 0.89822 0.47154 0.26143 0.0
C1571 C 0.94953 0.47214 0.265 0.0
C1572 C 0.97815 0.50321 0.29419 0.0
H1573 H 0.12346 0.51155 0.27307 0.0
H1574 H 0.08053 0.4992 0.28113 0.0
H1575 H 0.004 0.51867 0.31076 0.0
H1576 H 0.87755 0.48936 0.27001 0.0
H1577 H 0.92118 0.50114 0.27709 0.0
H1578 H 0.99815 0.48094 0.23302 0.0
C1579 C 0.07863 0.50905 0.27497 0.0
C1580 C 0.00288 0.51038 0.29397 0.0
C1581 C 0.10317 0.51615 0.2705 0.0
C1582 C 0.89748 0.4844 0.26893 0.0
C1583 C 0.92258 0.49114 0.2732 0.0
C1584 C 0.9992 0.48895 0.25091 0.0
C1585 C 0.0519 0.51457 0.27092 0.0
C1586 C 0.02602 0.50682 0.27247 0.0
C1587 C 0.949 0.48514 0.27074 0.0
C1588 C 0.97584 0.49245 0.27235 0.0
H1589 H 0.07263 0.54423 0.25112 0.0
H1590 H 0.02973 0.53184 0.25974 0.0
H1591 H 0.04144 0.49314 0.23397 0.0
H1592 H 0.92571 0.45553 0.25473 0.0
H1593 H 0.96934 0.4671 0.26394 0.0
C1594 C 0.32444 0.71588 0.50972 0.0
C1595 C 0.35075 0.72193 0.51004 0.0
C1596 C 0.29953 0.72264 0.51496 0.0
C1597 C 0.2717 0.75389 0.54344 0.0
H1598 H 0.20741 0.74369 0.48519 0.0
C1599 C 0.17511 0.78519 0.50836 0.0
C1600 C 0.1483 0.77964 0.51172 0.0
C1601 C 0.19962 0.77811 0.51349 0.0
C1602 C 0.2251 0.74657 0.50192 0.0
H1603 H 0.37168 0.73978 0.51683 0.0
H1604 H 0.32827 0.75167 0.52438 0.0
H1605 H 0.25052 0.73138 0.48367 0.0
H1606 H 0.12622 0.7624 0.52419 0.0
H1607 H 0.16906 0.75002 0.5324 0.0
H1608 H 0.24629 0.76948 0.56009 0.0
C1609 C 0.32674 0.74165 0.52116 0.0
C1610 C 0.24983 0.73947 0.50126 0.0
C1611 C 0.3517 0.73484 0.5166 0.0
C1612 C 0.14653 0.76696 0.52142 0.0
C1613 C 0.17102 0.75985 0.52597 0.0
C1614 C 0.24705 0.76111 0.54359 0.0
C1615 C 0.30026 0.73567 0.5199 0.0
C1616 C 0.27354 0.74303 0.52195 0.0
C1617 C 0.19777 0.76532 0.52152 0.0
C1618 C 0.22356 0.75751 0.52279 0.0
H1619 H 0.32305 0.7059 0.50519 0.0
H1620 H 0.27966 0.71762 0.51479 0.0
H1621 H 0.28928 0.75683 0.56022 0.0
H1622 H 0.17718 0.79495 0.50106 0.0
H1623 H 0.22002 0.78251 0.50973 0.0
C1624 C 0.82393 0.2146 0.51149 0.0
C1625 C 0.85005 0.22082 0.5121 0.0
C1626 C 0.7988 0.22115 0.51744 0.0
C1627 C 0.77024 0.25202 0.54841 0.0
H1628 H 0.70609 0.24217 0.4894 0.0
C1629 C 0.67479 0.28381 0.51338 0.0
C1630 C 0.64775 0.27844 0.51606 0.0
C1631 C 0.69898 0.27654 0.5187 0.0
C1632 C 0.72372 0.24494 0.50638 0.0
H1633 H 0.87037 0.23875 0.52014 0.0
H1634 H 0.82664 0.25027 0.52892 0.0
H1635 H 0.74924 0.22988 0.48737 0.0
H1636 H 0.6249 0.26132 0.52758 0.0
H1637 H 0.66724 0.24859 0.53606 0.0
H1638 H 0.74479 0.2675 0.56575 0.0
C1639 C 0.82541 0.24027 0.52495 0.0
C1640 C 0.74849 0.23786 0.50541 0.0
C1641 C 0.85057 0.23367 0.51966 0.0
C1642 C 0.64541 0.26574 0.5253 0.0
C1643 C 0.66961 0.25844 0.53001 0.0
C1644 C 0.74558 0.25922 0.54886 0.0
C1645 C 0.79912 0.23413 0.52344 0.0
C1646 C 0.7722 0.24133 0.52624 0.0
C1647 C 0.6966 0.26373 0.52626 0.0
C1648 C 0.72216 0.25577 0.52771 0.0
H1649 H 0.82287 0.20466 0.50615 0.0
H1650 H 0.7791 0.21601 0.51698 0.0
H1651 H 0.78778 0.25488 0.56538 0.0
H1652 H 0.67731 0.29358 0.50645 0.0
H1653 H 0.71957 0.28082 0.51545 0.0
C1654 C 0.10501 0.0163 0.77137 0.0
C1655 C 0.10303 0.02903 0.76228 0.0
C1656 C 0.08061 0.0091 0.77565 0.0
C1657 C 0.00477 0.01013 0.7943 0.0
H1658 H 0.0004 0.98101 0.73199 0.0
C1659 C 0.89941 0.98454 0.76701 0.0
C1660 C 0.89996 0.9717 0.75928 0.0
C1661 C 0.92458 0.99119 0.77155 0.0
C1662 C 0.00134 0.98892 0.75025 0.0
H1663 H 0.0739 0.04431 0.75245 0.0
H1664 H 0.03127 0.03173 0.76079 0.0
H1665 H 0.04371 0.9932 0.73397 0.0
H1666 H 0.92724 0.95563 0.75216 0.0
H1667 H 0.97102 0.96706 0.76175 0.0
H1668 H 0.96266 0.0058 0.8112 0.0
C1669 C 0.05174 0.02735 0.7642 0.0
C1670 C 0.02619 0.99595 0.75117 0.0
C1671 C 0.07613 0.03452 0.75926 0.0
C1672 C 0.92614 0.96555 0.75764 0.0
C1673 C 0.95128 0.97215 0.76287 0.0
C1674 C 0.98003 0.00297 0.79392 0.0
C1675 C 0.05377 0.01452 0.77165 0.0
C1676 C 0.02802 0.00669 0.77286 0.0
C1677 C 0.95092 0.98512 0.76914 0.0
C1678 C 0.97783 0.99235 0.7715 0.0
H1679 H 0.1254 0.01179 0.77387 0.0
H1680 H 0.08269 0.99923 0.7816 0.0
H1681 H 0.00577 0.01834 0.81144 0.0
H1682 H 0.87955 0.98955 0.76825 0.0
H1683 H 0.92331 0.00118 0.77575 0.0
C1684 C 0.39559 0.48549 0.77221 0.0
C1685 C 0.39792 0.47279 0.76293 0.0
C1686 C 0.4198 0.49278 0.77709 0.0
C1687 C 0.49549 0.49193 0.7971 0.0
H1688 H 0.49993 0.52134 0.73593 0.0
C1689 C 0.60076 0.51768 0.7708 0.0
C1690 C 0.60021 0.53052 0.76301 0.0
C1691 C 0.57559 0.51104 0.77555 0.0
C1692 C 0.49895 0.51335 0.75389 0.0
H1693 H 0.42747 0.45766 0.75328 0.0
H1694 H 0.46975 0.47038 0.76261 0.0
H1695 H 0.4568 0.50902 0.73684 0.0
H1696 H 0.57297 0.54662 0.75629 0.0
H1697 H 0.52918 0.53522 0.76628 0.0
H1698 H 0.5374 0.4963 0.81471 0.0
C1699 C 0.44916 0.47467 0.76575 0.0
C1700 C 0.4742 0.50625 0.7542 0.0
C1701 C 0.42497 0.46742 0.76024 0.0
C1702 C 0.57405 0.5367 0.7618 0.0
C1703 C 0.54891 0.53011 0.76725 0.0
C1704 C 0.52012 0.49916 0.79732 0.0
C1705 C 0.44678 0.48747 0.77348 0.0
C1706 C 0.47237 0.4954 0.77543 0.0
C1707 C 0.54926 0.51713 0.7733 0.0
C1708 C 0.52236 0.50988 0.77531 0.0
H1709 H 0.37508 0.48991 0.77449 0.0
H1710 H 0.41744 0.50261 0.78324 0.0
H1711 H 0.49447 0.48364 0.81391 0.0
H1712 H 0.6206 0.51264 0.77173 0.0
H1713 H 0.57686 0.50105 0.77962 0.0
C1714 C 0.39725 0.98408 0.26959 0.0
C1715 C 0.39882 0.97146 0.25926 0.0
C1716 C 0.42184 0.99113 0.27412 0.0
C1717 C 0.4977 0.98963 0.29173 0.0
H1718 H 0.50169 0.01973 0.23339 0.0
C1719 C 0.60254 0.01618 0.26801 0.0
C1720 C 0.60156 0.02911 0.26185 0.0
C1721 C 0.57758 0.00931 0.27186 0.0
C1722 C 0.50085 0.01153 0.25056 0.0
H1723 H 0.42746 0.95619 0.2473 0.0
H1724 H 0.47051 0.96849 0.25602 0.0
H1725 H 0.45854 0.00743 0.23372 0.0
H1726 H 0.57379 0.04512 0.25711 0.0
H1727 H 0.5304 0.03331 0.26557 0.0
H1728 H 0.53976 0.99381 0.30923 0.0
C1729 C 0.45017 0.97291 0.26024 0.0
C1730 C 0.47611 0.00444 0.25051 0.0
C1731 C 0.42555 0.9659 0.2551 0.0
C1732 C 0.57521 0.03513 0.26134 0.0
C1733 C 0.55029 0.02832 0.2659 0.0
C1734 C 0.52235 0.99685 0.29232 0.0
C1735 C 0.4485 0.98564 0.26906 0.0
C1736 C 0.47438 0.99338 0.27081 0.0
C1737 C 0.55106 0.01526 0.2703 0.0
C1738 C 0.52437 0.00785 0.27145 0.0
H1739 H 0.377 0.98866 0.27302 0.0
H1740 H 0.42004 0.00092 0.28115 0.0
H1741 H 0.49677 0.98117 0.3078 0.0
H1742 H 0.62255 0.01127 0.26837 0.0
H1743 H 0.57916 0.99928 0.27471 0.0
loop_
_geom_bond_atom_site_label_1
_geom_bond_atom_site_label_2
_geom_bond_distance
_geom_bond_site_symmetry_2
_ccdc_geom_bond_type
Co0 O3 1.970 . S
Co0 N17 1.989 . S
Co0 O25 1.967 . S
Co0 O32 1.920 . S
Co1 O4 1.966 . S
Co1 N10 2.022 . S
Co1 N18 1.993 . S
Co1 O26 1.941 1_554 S
C2 O3 1.258 . S
C2 O4 1.263 1_556 S
O3 Co0 1.970 . S
O3 C2 1.258 . S
O4 Co1 1.966 . S
O4 C2 1.263 1_554 S
C5 O6 1.235 . S
C5 O32 1.289 . S
O6 C5 1.235 . S
C7 C9 1.400 . S
C7 N10 1.351 . S
C7 C12 1.501 . S
C8 C9 1.387 . S
C8 N11 1.341 . S
C9 C7 1.400 . S
C9 C8 1.387 . S
N10 Co1 2.022 . S
N10 C7 1.351 . S
N10 N11 1.365 . S
N11 C8 1.341 . S
N11 N10 1.365 . S
N11 H31 0.855 1_455 S
C12 C7 1.501 . S
C12 H13 0.961 . S
C12 H14 0.961 . S
C12 H15 0.960 . S
H13 C12 0.961 . S
H14 C12 0.961 . S
H15 C12 0.960 . S
C16 N17 1.342 1_554 S
C16 C20 1.401 . S
C16 C21 1.499 1_554 S
N17 Co0 1.989 . S
N17 C16 1.342 1_556 S
N17 N18 1.388 1_556 S
N18 Co1 1.993 . S
N18 N17 1.388 1_554 S
N18 C19 1.346 . S
C19 N18 1.346 . S
C19 C20 1.396 . S
C19 C29 1.510 . S
C20 C16 1.401 . S
C20 C19 1.396 . S
C21 C16 1.499 1_556 S
C21 H22 0.959 . S
C21 H23 0.971 . S
C21 H24 0.961 . S
H22 C21 0.959 . S
H23 C21 0.971 . S
H24 C21 0.961 . S
O25 Co0 1.967 . S
O25 C33 1.258 . S
O26 Co1 1.941 1_556 S
O26 C33 1.266 . S
H27 C29 0.959 . S
H28 C29 0.961 . S
C29 C19 1.510 . S
C29 H27 0.959 . S
C29 H28 0.961 . S
C29 H30 0.960 . S
H30 C29 0.960 . S
H31 N11 0.855 1_655 S
O32 Co0 1.920 . S
O32 C5 1.289 . S
C33 O25 1.258 . S
C33 O26 1.266 . S
Co34 O37 1.970 . S
Co34 N51 1.989 . S
Co34 O59 1.967 . S
Co34 O66 1.920 . S
Co35 O38 1.966 . S
Co35 N44 2.022 . S
Co35 N52 1.993 . S
Co35 O60 1.941 1_554 S
C36 O37 1.258 . S
C36 O38 1.263 1_556 S
O37 Co34 1.970 . S
O37 C36 1.258 . S
O38 Co35 1.966 . S
O38 C36 1.263 1_554 S
C39 O40 1.235 . S
C39 O66 1.289 . S
O40 C39 1.235 . S
C41 C43 1.400 . S
C41 N44 1.351 . S
C41 C46 1.501 . S
C42 C43 1.387 . S
C42 N45 1.341 . S
C43 C41 1.400 . S
C43 C42 1.387 . S
N44 Co35 2.022 . S
N44 C41 1.351 . S
N44 N45 1.365 . S
N45 C42 1.341 . S
N45 N44 1.365 . S
N45 H65 0.855 1_655 S
C46 C41 1.501 . S
C46 H47 0.961 . S
C46 H48 0.961 . S
C46 H49 0.960 . S
H47 C46 0.961 . S
H48 C46 0.961 . S
H49 C46 0.960 . S
C50 N51 1.342 1_554 S
C50 C54 1.401 . S
C50 C55 1.499 1_554 S
N51 Co34 1.989 . S
N51 C50 1.342 1_556 S
N51 N52 1.388 1_556 S
N52 Co35 1.993 . S
N52 N51 1.388 1_554 S
N52 C53 1.346 . S
C53 N52 1.346 . S
C53 C54 1.396 . S
C53 C63 1.510 . S
C54 C50 1.401 . S
C54 C53 1.396 . S
C55 C50 1.499 1_556 S
C55 H56 0.959 . S
C55 H57 0.971 . S
C55 H58 0.961 . S
H56 C55 0.959 . S
H57 C55 0.971 . S
H58 C55 0.961 . S
O59 Co34 1.967 . S
O59 C67 1.258 . S
O60 Co35 1.941 1_556 S
O60 C67 1.266 . S
H61 C63 0.959 . S
H62 C63 0.961 . S
C63 C53 1.510 . S
C63 H61 0.959 . S
C63 H62 0.961 . S
C63 H64 0.960 . S
H64 C63 0.960 . S
H65 N45 0.855 1_455 S
O66 Co34 1.920 . S
O66 C39 1.289 . S
C67 O59 1.258 . S
C67 O60 1.266 . S
Co68 O71 1.970 . S
Co68 N85 1.989 . S
Co68 O93 1.967 . S
Co68 O100 1.920 . S
Co69 O72 1.966 . S
Co69 N78 2.022 . S
Co69 N86 1.993 . S
Co69 O94 1.941 . S
C70 O71 1.258 . S
C70 O72 1.263 . S
O71 Co68 1.970 . S
O71 C70 1.258 . S
O72 Co69 1.966 . S
O72 C70 1.263 . S
C73 O74 1.235 . S
C73 O100 1.289 . S
O74 C73 1.235 . S
C75 C77 1.400 . S
C75 N78 1.351 . S
C75 C80 1.501 . S
C76 C77 1.387 . S
C76 N79 1.341 . S
C77 C75 1.400 . S
C77 C76 1.387 . S
N78 Co69 2.022 . S
N78 C75 1.351 . S
N78 N79 1.365 . S
N79 C76 1.341 . S
N79 N78 1.365 . S
N79 H99 0.862 . S
C80 C75 1.501 . S
C80 H81 0.961 . S
C80 H82 0.961 . S
C80 H83 0.960 . S
H81 C80 0.961 . S
H82 C80 0.961 . S
H83 C80 0.960 . S
C84 N85 1.342 . S
C84 C88 1.401 . S
C84 C89 1.499 . S
N85 Co68 1.989 . S
N85 C84 1.342 . S
N85 N86 1.388 . S
N86 Co69 1.993 . S
N86 N85 1.388 . S
N86 C87 1.346 . S
C87 N86 1.346 . S
C87 C88 1.396 . S
C87 C97 1.510 . S
C88 C84 1.401 . S
C88 C87 1.396 . S
C89 C84 1.499 . S
C89 H90 0.959 . S
C89 H91 0.960 . S
C89 H92 0.961 . S
H90 C89 0.959 . S
H91 C89 0.960 . S
H92 C89 0.961 . S
O93 Co68 1.967 . S
O93 C101 1.258 . S
O94 Co69 1.941 . S
O94 C101 1.266 . S
H95 C97 0.959 . S
H96 C97 0.961 . S
C97 C87 1.510 . S
C97 H95 0.959 . S
C97 H96 0.961 . S
C97 H98 0.960 . S
H98 C97 0.960 . S
H99 N79 0.862 . S
O100 Co68 1.920 . S
O100 C73 1.289 . S
C101 O93 1.258 . S
C101 O94 1.266 . S
Co102 O105 1.970 . S
Co102 N119 1.989 . S
Co102 O127 1.967 . S
Co102 O134 1.920 . S
Co103 O106 1.966 . S
Co103 N112 2.022 . S
Co103 N120 1.993 . S
Co103 O128 1.941 . S
C104 O105 1.258 . S
C104 O106 1.263 . S
O105 Co102 1.970 . S
O105 C104 1.258 . S
O106 Co103 1.966 . S
O106 C104 1.263 . S
C107 O108 1.235 . S
C107 O134 1.289 . S
O108 C107 1.235 . S
C109 C111 1.400 . S
C109 N112 1.351 . S
C109 C114 1.501 . S
C110 C111 1.387 . S
C110 N113 1.341 . S
C111 C109 1.400 . S
C111 C110 1.387 . S
N112 Co103 2.022 . S
N112 C109 1.351 . S
N112 N113 1.365 . S
N113 C110 1.341 . S
N113 N112 1.365 . S
N113 H133 0.862 . S
C114 C109 1.501 . S
C114 H115 0.961 . S
C114 H116 0.961 . S
C114 H117 0.960 . S
H115 C114 0.961 . S
H116 C114 0.961 . S
H117 C114 0.960 . S
C118 N119 1.342 . S
C118 C122 1.401 . S
C118 C123 1.499 . S
N119 Co102 1.989 . S
N119 C118 1.342 . S
N119 N120 1.388 . S
N120 Co103 1.993 . S
N120 N119 1.388 . S
N120 C121 1.346 . S
C121 N120 1.346 . S
C121 C122 1.396 . S
C121 C131 1.510 . S
C122 C118 1.401 . S
C122 C121 1.396 . S
C123 C118 1.499 . S
C123 H124 0.959 . S
C123 H125 0.960 . S
C123 H126 0.961 . S
H124 C123 0.959 . S
H125 C123 0.960 . S
H126 C123 0.961 . S
O127 Co102 1.967 . S
O127 C135 1.258 . S
O128 Co103 1.941 . S
O128 C135 1.266 . S
H129 C131 0.959 . S
H130 C131 0.961 . S
C131 C121 1.510 . S
C131 H129 0.959 . S
C131 H130 0.961 . S
C131 H132 0.960 . S
H132 C131 0.960 . S
H133 N113 0.862 . S
O134 Co102 1.920 . S
O134 C107 1.289 . S
C135 O127 1.258 . S
C135 O128 1.266 . S
Co136 O139 1.970 . S
Co136 N153 1.989 . S
Co136 O161 1.967 . S
Co136 O168 1.920 . S
Co137 O140 1.966 . S
Co137 N146 2.022 . S
Co137 N154 1.993 . S
Co137 O162 1.941 . S
C138 O139 1.258 . S
C138 O140 1.263 . S
O139 Co136 1.970 . S
O139 C138 1.258 . S
O140 Co137 1.966 . S
O140 C138 1.263 . S
C141 O142 1.235 . S
C141 O168 1.289 . S
O142 C141 1.235 . S
C143 C145 1.400 . S
C143 N146 1.351 . S
C143 C148 1.501 . S
C144 C145 1.387 . S
C144 N147 1.341 . S
C145 C143 1.400 . S
C145 C144 1.387 . S
N146 Co137 2.022 . S
N146 C143 1.351 . S
N146 N147 1.365 . S
N147 C144 1.341 . S
N147 N146 1.365 . S
N147 H167 0.855 1_455 S
C148 C143 1.501 . S
C148 H149 0.961 . S
C148 H150 0.961 . S
C148 H151 0.960 . S
H149 C148 0.961 . S
H150 C148 0.961 . S
H151 C148 0.960 . S
C152 N153 1.342 . S
C152 C156 1.401 . S
C152 C157 1.499 . S
N153 Co136 1.989 . S
N153 C152 1.342 . S
N153 N154 1.388 . S
N154 Co137 1.993 . S
N154 N153 1.388 . S
N154 C155 1.346 . S
C155 N154 1.346 . S
C155 C156 1.396 . S
C155 C165 1.510 . S
C156 C152 1.401 . S
C156 C155 1.396 . S
C157 C152 1.499 . S
C157 H158 0.959 . S
C157 H159 0.960 . S
C157 H160 0.961 . S
H158 C157 0.959 . S
H159 C157 0.960 . S
H160 C157 0.961 . S
O161 Co136 1.967 . S
O161 C169 1.258 . S
O162 Co137 1.941 . S
O162 C169 1.266 . S
H163 C165 0.959 . S
H164 C165 0.961 . S
C165 C155 1.510 . S
C165 H163 0.959 . S
C165 H164 0.961 . S
C165 H166 0.960 . S
H166 C165 0.960 . S
H167 N147 0.855 1_655 S
O168 Co136 1.920 . S
O168 C141 1.289 . S
C169 O161 1.258 . S
C169 O162 1.266 . S
Co170 O173 1.970 . S
Co170 N187 1.989 . S
Co170 O195 1.967 . S
Co170 O202 1.920 . S
Co171 O174 1.966 . S
Co171 N180 2.022 . S
Co171 N188 1.993 . S
Co171 O196 1.941 . S
C172 O173 1.258 . S
C172 O174 1.263 . S
O173 Co170 1.970 . S
O173 C172 1.258 . S
O174 Co171 1.966 . S
O174 C172 1.263 . S
C175 O176 1.235 . S
C175 O202 1.289 . S
O176 C175 1.235 . S
C177 C179 1.400 . S
C177 N180 1.351 . S
C177 C182 1.501 . S
C178 C179 1.387 . S
C178 N181 1.341 . S
C179 C177 1.400 . S
C179 C178 1.387 . S
N180 Co171 2.022 . S
N180 C177 1.351 . S
N180 N181 1.365 . S
N181 C178 1.341 . S
N181 N180 1.365 . S
N181 H201 0.855 1_655 S
C182 C177 1.501 . S
C182 H183 0.961 . S
C182 H184 0.961 . S
C182 H185 0.960 . S
H183 C182 0.961 . S
H184 C182 0.961 . S
H185 C182 0.960 . S
C186 N187 1.342 . S
C186 C190 1.401 . S
C186 C191 1.499 . S
N187 Co170 1.989 . S
N187 C186 1.342 . S
N187 N188 1.388 . S
N188 Co171 1.993 . S
N188 N187 1.388 . S
N188 C189 1.346 . S
C189 N188 1.346 . S
C189 C190 1.396 . S
C189 C199 1.510 . S
C190 C186 1.401 . S
C190 C189 1.396 . S
C191 C186 1.499 . S
C191 H192 0.959 . S
C191 H193 0.960 . S
C191 H194 0.961 . S
H192 C191 0.959 . S
H193 C191 0.960 . S
H194 C191 0.961 . S
O195 Co170 1.967 . S
O195 C203 1.258 . S
O196 Co171 1.941 . S
O196 C203 1.266 . S
H197 C199 0.959 . S
H198 C199 0.961 . S
C199 C189 1.510 . S
C199 H197 0.959 . S
C199 H198 0.961 . S
C199 H200 0.960 . S
H200 C199 0.960 . S
H201 N181 0.855 1_455 S
O202 Co170 1.920 . S
O202 C175 1.289 . S
C203 O195 1.258 . S
C203 O196 1.266 . S
Co204 O207 1.970 . S
Co204 N221 1.989 . S
Co204 O229 1.967 . S
Co204 O236 1.920 . S
Co205 O208 1.966 . S
Co205 N214 2.022 . S
Co205 N222 1.993 . S
Co205 O230 1.941 . S
C206 O207 1.258 . S
C206 O208 1.263 . S
O207 Co204 1.970 . S
O207 C206 1.258 . S
O208 Co205 1.966 . S
O208 C206 1.263 . S
C209 O210 1.235 . S
C209 O236 1.289 . S
O210 C209 1.235 . S
C211 C213 1.400 . S
C211 N214 1.351 . S
C211 C216 1.501 . S
C212 C213 1.387 . S
C212 N215 1.341 . S
C213 C211 1.400 . S
C213 C212 1.387 . S
N214 Co205 2.022 . S
N214 C211 1.351 . S
N214 N215 1.365 . S
N215 C212 1.341 . S
N215 N214 1.365 . S
N215 H235 0.862 . S
C216 C211 1.501 . S
C216 H217 0.961 . S
C216 H218 0.961 . S
C216 H219 0.960 . S
H217 C216 0.961 . S
H218 C216 0.961 . S
H219 C216 0.960 . S
C220 N221 1.342 . S
C220 C224 1.401 . S
C220 C225 1.499 . S
N221 Co204 1.989 . S
N221 C220 1.342 . S
N221 N222 1.388 . S
N222 Co205 1.993 . S
N222 N221 1.388 . S
N222 C223 1.346 . S
C223 N222 1.346 . S
C223 C224 1.396 . S
C223 C233 1.510 . S
C224 C220 1.401 . S
C224 C223 1.396 . S
C225 C220 1.499 . S
C225 H226 0.959 . S
C225 H227 0.960 . S
C225 H228 0.961 . S
H226 C225 0.959 . S
H227 C225 0.960 . S
H228 C225 0.961 . S
O229 Co204 1.967 . S
O229 C237 1.258 . S
O230 Co205 1.941 . S
O230 C237 1.266 . S
H231 C233 0.959 . S
H232 C233 0.961 . S
C233 C223 1.510 . S
C233 H231 0.959 . S
C233 H232 0.961 . S
C233 H234 0.960 . S
H234 C233 0.960 . S
H235 N215 0.862 . S
O236 Co204 1.920 . S
O236 C209 1.289 . S
C237 O229 1.258 . S
C237 O230 1.266 . S
Co238 O241 1.970 . S
Co238 N255 1.989 . S
Co238 O263 1.967 . S
Co238 O270 1.920 . S
Co239 O242 1.966 . S
Co239 N248 2.022 . S
Co239 N256 1.993 . S
Co239 O264 1.941 . S
C240 O241 1.258 . S
C240 O242 1.263 . S
O241 Co238 1.970 . S
O241 C240 1.258 . S
O242 Co239 1.966 . S
O242 C240 1.263 . S
C243 O244 1.235 . S
C243 O270 1.289 . S
O244 C243 1.235 . S
C245 C247 1.400 . S
C245 N248 1.351 . S
C245 C250 1.501 . S
C246 C247 1.387 . S
C246 N249 1.341 . S
C247 C245 1.400 . S
C247 C246 1.387 . S
N248 Co239 2.022 . S
N248 C245 1.351 . S
N248 N249 1.365 . S
N249 C246 1.341 . S
N249 N248 1.365 . S
N249 H269 0.862 . S
C250 C245 1.501 . S
C250 H251 0.961 . S
C250 H252 0.961 . S
C250 H253 0.960 . S
H251 C250 0.961 . S
H252 C250 0.961 . S
H253 C250 0.960 . S
C254 N255 1.342 . S
C254 C258 1.401 . S
C254 C259 1.499 . S
N255 Co238 1.989 . S
N255 C254 1.342 . S
N255 N256 1.388 . S
N256 Co239 1.993 . S
N256 N255 1.388 . S
N256 C257 1.346 . S
C257 N256 1.346 . S
C257 C258 1.396 . S
C257 C267 1.510 . S
C258 C254 1.401 . S
C258 C257 1.396 . S
C259 C254 1.499 . S
C259 H260 0.959 . S
C259 H261 0.960 . S
C259 H262 0.961 . S
H260 C259 0.959 . S
H261 C259 0.960 . S
H262 C259 0.961 . S
O263 Co238 1.967 . S
O263 C271 1.258 . S
O264 Co239 1.941 . S
O264 C271 1.266 . S
H265 C267 0.959 . S
H266 C267 0.961 . S
C267 C257 1.510 . S
C267 H265 0.959 . S
C267 H266 0.961 . S
C267 H268 0.960 . S
H268 C267 0.960 . S
H269 N249 0.862 . S
O270 Co238 1.920 . S
O270 C243 1.289 . S
C271 O263 1.258 . S
C271 O264 1.266 . S
Co272 O275 1.970 . S
Co272 N289 1.989 . S
Co272 O297 1.967 . S
Co272 O304 1.920 . S
Co273 O276 1.966 . S
Co273 N282 2.022 . S
Co273 N290 1.993 . S
Co273 O298 1.941 . S
C274 O275 1.258 . S
C274 O276 1.263 . S
O275 Co272 1.970 . S
O275 C274 1.258 . S
O276 Co273 1.966 . S
O276 C274 1.263 . S
C277 O278 1.235 . S
C277 O304 1.289 . S
O278 C277 1.235 . S
C279 C281 1.400 . S
C279 N282 1.351 . S
C279 C284 1.501 . S
C280 C281 1.387 . S
C280 N283 1.341 . S
C281 C279 1.400 . S
C281 C280 1.387 . S
N282 Co273 2.022 . S
N282 C279 1.351 . S
N282 N283 1.365 . S
N283 C280 1.341 . S
N283 N282 1.365 . S
N283 H303 0.862 . S
C284 C279 1.501 . S
C284 H285 0.961 . S
C284 H286 0.961 . S
C284 H287 0.960 . S
H285 C284 0.961 . S
H286 C284 0.961 . S
H287 C284 0.960 . S
C288 N289 1.342 . S
C288 C292 1.401 . S
C288 C293 1.499 . S
N289 Co272 1.989 . S
N289 C288 1.342 . S
N289 N290 1.388 . S
N290 Co273 1.993 . S
N290 N289 1.388 . S
N290 C291 1.346 . S
C291 N290 1.346 . S
C291 C292 1.396 . S
C291 C301 1.510 . S
C292 C288 1.401 . S
C292 C291 1.396 . S
C293 C288 1.499 . S
C293 H294 0.959 . S
C293 H295 0.960 . S
C293 H296 0.961 . S
H294 C293 0.959 . S
H295 C293 0.960 . S
H296 C293 0.961 . S
O297 Co272 1.967 . S
O297 C305 1.258 . S
O298 Co273 1.941 . S
O298 C305 1.266 . S
H299 C301 0.959 . S
H300 C301 0.961 . S
C301 C291 1.510 . S
C301 H299 0.959 . S
C301 H300 0.961 . S
C301 H302 0.960 . S
H302 C301 0.960 . S
H303 N283 0.862 . S
O304 Co272 1.920 . S
O304 C277 1.289 . S
C305 O297 1.258 . S
C305 O298 1.266 . S
Co306 O309 1.970 . S
Co306 N323 1.989 . S
Co306 O331 1.967 . S
Co306 O338 1.920 . S
Co307 O310 1.966 . S
Co307 N316 2.022 . S
Co307 N324 1.993 . S
Co307 O332 1.941 . S
C308 O309 1.258 . S
C308 O310 1.263 . S
O309 Co306 1.970 . S
O309 C308 1.258 . S
O310 Co307 1.966 . S
O310 C308 1.263 . S
C311 O312 1.235 . S
C311 O338 1.289 . S
O312 C311 1.235 . S
C313 C315 1.400 . S
C313 N316 1.351 . S
C313 C318 1.501 . S
C314 C315 1.387 . S
C314 N317 1.341 . S
C315 C313 1.400 . S
C315 C314 1.387 . S
N316 Co307 2.022 . S
N316 C313 1.351 . S
N316 N317 1.365 . S
N317 C314 1.341 . S
N317 N316 1.365 . S
N317 H337 0.862 . S
C318 C313 1.501 . S
C318 H319 0.961 . S
C318 H320 0.961 . S
C318 H321 0.960 . S
H319 C318 0.961 . S
H320 C318 0.961 . S
H321 C318 0.960 . S
C322 N323 1.342 . S
C322 C326 1.401 . S
C322 C327 1.499 . S
N323 Co306 1.989 . S
N323 C322 1.342 . S
N323 N324 1.388 . S
N324 Co307 1.993 . S
N324 N323 1.388 . S
N324 C325 1.346 . S
C325 N324 1.346 . S
C325 C326 1.396 . S
C325 C335 1.510 . S
C326 C322 1.401 . S
C326 C325 1.396 . S
C327 C322 1.499 . S
C327 H328 0.959 . S
C327 H329 0.960 . S
C327 H330 0.961 . S
H328 C327 0.959 . S
H329 C327 0.960 . S
H330 C327 0.961 . S
O331 Co306 1.967 . S
O331 C339 1.258 . S
O332 Co307 1.941 . S
O332 C339 1.266 . S
H333 C335 0.959 . S
H334 C335 0.961 . S
C335 C325 1.510 . S
C335 H333 0.959 . S
C335 H334 0.961 . S
C335 H336 0.960 . S
H336 C335 0.960 . S
H337 N317 0.862 . S
O338 Co306 1.920 . S
O338 C311 1.289 . S
C339 O331 1.258 . S
C339 O332 1.266 . S
Co340 O343 1.970 . S
Co340 N357 1.989 . S
Co340 O365 1.967 . S
Co340 O372 1.920 . S
Co341 O344 1.966 . S
Co341 N350 2.022 . S
Co341 N358 1.993 . S
Co341 O366 1.941 . S
C342 O343 1.258 . S
C342 O344 1.263 . S
O343 Co340 1.970 . S
O343 C342 1.258 . S
O344 Co341 1.966 . S
O344 C342 1.263 . S
C345 O346 1.235 . S
C345 O372 1.289 . S
O346 C345 1.235 . S
C347 C349 1.400 . S
C347 N350 1.351 . S
C347 C352 1.501 . S
C348 C349 1.387 . S
C348 N351 1.341 . S
C349 C347 1.400 . S
C349 C348 1.387 . S
N350 Co341 2.022 . S
N350 C347 1.351 . S
N350 N351 1.365 . S
N351 C348 1.341 . S
N351 N350 1.365 . S
N351 H371 0.862 . S
C352 C347 1.501 . S
C352 H353 0.961 . S
C352 H354 0.961 . S
C352 H355 0.960 . S
H353 C352 0.961 . S
H354 C352 0.961 . S
H355 C352 0.960 . S
C356 N357 1.342 . S
C356 C360 1.401 . S
C356 C361 1.499 . S
N357 Co340 1.989 . S
N357 C356 1.342 . S
N357 N358 1.388 . S
N358 Co341 1.993 . S
N358 N357 1.388 . S
N358 C359 1.346 . S
C359 N358 1.346 . S
C359 C360 1.396 . S
C359 C369 1.510 . S
C360 C356 1.401 . S
C360 C359 1.396 . S
C361 C356 1.499 . S
C361 H362 0.959 . S
C361 H363 0.960 . S
C361 H364 0.961 . S
H362 C361 0.959 . S
H363 C361 0.960 . S
H364 C361 0.961 . S
O365 Co340 1.967 . S
O365 C373 1.258 . S
O366 Co341 1.941 . S
O366 C373 1.266 . S
H367 C369 0.959 . S
H368 C369 0.961 . S
C369 C359 1.510 . S
C369 H367 0.959 . S
C369 H368 0.961 . S
C369 H370 0.960 . S
H370 C369 0.960 . S
H371 N351 0.862 . S
O372 Co340 1.920 . S
O372 C345 1.289 . S
C373 O365 1.258 . S
C373 O366 1.266 . S
Co374 O377 1.970 . S
Co374 N391 1.989 . S
Co374 O399 1.967 . S
Co374 O406 1.920 . S
Co375 O378 1.966 . S
Co375 N384 2.022 . S
Co375 N392 1.993 . S
Co375 O400 1.941 . S
C376 O377 1.258 . S
C376 O378 1.263 . S
O377 Co374 1.970 . S
O377 C376 1.258 . S
O378 Co375 1.966 . S
O378 C376 1.263 . S
C379 O380 1.235 . S
C379 O406 1.289 . S
O380 C379 1.235 . S
C381 C383 1.400 . S
C381 N384 1.351 . S
C381 C386 1.501 . S
C382 C383 1.387 . S
C382 N385 1.341 . S
C383 C381 1.400 . S
C383 C382 1.387 . S
N384 Co375 2.022 . S
N384 C381 1.351 . S
N384 N385 1.365 . S
N385 C382 1.341 . S
N385 N384 1.365 . S
N385 H405 0.862 . S
C386 C381 1.501 . S
C386 H387 0.961 . S
C386 H388 0.961 . S
C386 H389 0.960 . S
H387 C386 0.961 . S
H388 C386 0.961 . S
H389 C386 0.960 . S
C390 N391 1.342 . S
C390 C394 1.401 . S
C390 C395 1.499 . S
N391 Co374 1.989 . S
N391 C390 1.342 . S
N391 N392 1.388 . S
N392 Co375 1.993 . S
N392 N391 1.388 . S
N392 C393 1.346 . S
C393 N392 1.346 . S
C393 C394 1.396 . S
C393 C403 1.510 . S
C394 C390 1.401 . S
C394 C393 1.396 . S
C395 C390 1.499 . S
C395 H396 0.959 . S
C395 H397 0.960 . S
C395 H398 0.961 . S
H396 C395 0.959 . S
H397 C395 0.960 . S
H398 C395 0.961 . S
O399 Co374 1.967 . S
O399 C407 1.258 . S
O400 Co375 1.941 . S
O400 C407 1.266 . S
H401 C403 0.959 . S
H402 C403 0.961 . S
C403 C393 1.510 . S
C403 H401 0.959 . S
C403 H402 0.961 . S
C403 H404 0.960 . S
H404 C403 0.960 . S
H405 N385 0.862 . S
O406 Co374 1.920 . S
O406 C379 1.289 . S
C407 O399 1.258 . S
C407 O400 1.266 . S
Co408 O411 1.970 . S
Co408 N425 1.989 . S
Co408 O433 1.967 . S
Co408 O440 1.920 . S
Co409 O412 1.966 . S
Co409 N418 2.022 . S
Co409 N426 1.993 . S
Co409 O434 1.941 1_554 S
C410 O411 1.258 . S
C410 O412 1.263 1_556 S
O411 Co408 1.970 . S
O411 C410 1.258 . S
O412 Co409 1.966 . S
O412 C410 1.263 1_554 S
C413 O414 1.235 . S
C413 O440 1.289 . S
O414 C413 1.235 . S
C415 C417 1.400 . S
C415 N418 1.351 . S
C415 C420 1.501 . S
C416 C417 1.387 . S
C416 N419 1.341 . S
C417 C415 1.400 . S
C417 C416 1.387 . S
N418 Co409 2.022 . S
N418 C415 1.351 . S
N418 N419 1.365 . S
N419 C416 1.341 . S
N419 N418 1.365 . S
N419 H439 0.862 . S
C420 C415 1.501 . S
C420 H421 0.961 . S
C420 H422 0.961 . S
C420 H423 0.960 . S
H421 C420 0.961 . S
H422 C420 0.961 . S
H423 C420 0.960 . S
C424 N425 1.342 1_554 S
C424 C428 1.401 . S
C424 C429 1.499 1_554 S
N425 Co408 1.989 . S
N425 C424 1.342 1_556 S
N425 N426 1.388 1_556 S
N426 Co409 1.993 . S
N426 N425 1.388 1_554 S
N426 C427 1.346 . S
C427 N426 1.346 . S
C427 C428 1.396 . S
C427 C437 1.510 . S
C428 C424 1.401 . S
C428 C427 1.396 . S
C429 C424 1.499 1_556 S
C429 H430 0.959 . S
C429 H431 0.971 . S
C429 H432 0.961 . S
H430 C429 0.959 . S
H431 C429 0.971 . S
H432 C429 0.961 . S
O433 Co408 1.967 . S
O433 C441 1.258 . S
O434 Co409 1.941 1_556 S
O434 C441 1.266 . S
H435 C437 0.959 . S
H436 C437 0.961 . S
C437 C427 1.510 . S
C437 H435 0.959 . S
C437 H436 0.961 . S
C437 H438 0.960 . S
H438 C437 0.960 . S
H439 N419 0.862 . S
O440 Co408 1.920 . S
O440 C413 1.289 . S
C441 O433 1.258 . S
C441 O434 1.266 . S
Co442 O445 1.970 . S
Co442 N459 1.989 . S
Co442 O467 1.967 . S
Co442 O474 1.920 . S
Co443 O446 1.966 . S
Co443 N452 2.022 . S
Co443 N460 1.993 . S
Co443 O468 1.941 1_554 S
C444 O445 1.258 . S
C444 O446 1.263 1_556 S
O445 Co442 1.970 . S
O445 C444 1.258 . S
O446 Co443 1.966 . S
O446 C444 1.263 1_554 S
C447 O448 1.235 . S
C447 O474 1.289 . S
O448 C447 1.235 . S
C449 C451 1.400 . S
C449 N452 1.351 . S
C449 C454 1.501 . S
C450 C451 1.387 . S
C450 N453 1.341 . S
C451 C449 1.400 . S
C451 C450 1.387 . S
N452 Co443 2.022 . S
N452 C449 1.351 . S
N452 N453 1.365 . S
N453 C450 1.341 . S
N453 N452 1.365 . S
N453 H473 0.862 . S
C454 C449 1.501 . S
C454 H455 0.961 . S
C454 H456 0.961 . S
C454 H457 0.960 . S
H455 C454 0.961 . S
H456 C454 0.961 . S
H457 C454 0.960 . S
C458 N459 1.342 1_554 S
C458 C462 1.401 . S
C458 C463 1.499 1_554 S
N459 Co442 1.989 . S
N459 C458 1.342 1_556 S
N459 N460 1.388 1_556 S
N460 Co443 1.993 . S
N460 N459 1.388 1_554 S
N460 C461 1.346 . S
C461 N460 1.346 . S
C461 C462 1.396 . S
C461 C471 1.510 . S
C462 C458 1.401 . S
C462 C461 1.396 . S
C463 C458 1.499 1_556 S
C463 H464 0.959 . S
C463 H465 0.971 . S
C463 H466 0.961 . S
H464 C463 0.959 . S
H465 C463 0.971 . S
H466 C463 0.961 . S
O467 Co442 1.967 . S
O467 C475 1.258 . S
O468 Co443 1.941 1_556 S
O468 C475 1.266 . S
H469 C471 0.959 . S
H470 C471 0.961 . S
C471 C461 1.510 . S
C471 H469 0.959 . S
C471 H470 0.961 . S
C471 H472 0.960 . S
H472 C471 0.960 . S
H473 N453 0.862 . S
O474 Co442 1.920 . S
O474 C447 1.289 . S
C475 O467 1.258 . S
C475 O468 1.266 . S
Co476 O479 1.970 . S
Co476 N493 1.989 . S
Co476 O501 1.967 . S
Co476 O508 1.920 . S
Co477 O480 1.966 . S
Co477 N486 2.022 . S
Co477 N494 1.993 . S
Co477 O502 1.941 . S
C478 O479 1.258 . S
C478 O480 1.263 . S
O479 Co476 1.970 . S
O479 C478 1.258 . S
O480 Co477 1.966 . S
O480 C478 1.263 . S
C481 O482 1.235 . S
C481 O508 1.289 . S
O482 C481 1.235 . S
C483 C485 1.400 . S
C483 N486 1.351 . S
C483 C488 1.501 . S
C484 C485 1.387 . S
C484 N487 1.341 . S
C485 C483 1.400 . S
C485 C484 1.387 . S
N486 Co477 2.022 . S
N486 C483 1.351 . S
N486 N487 1.365 . S
N487 C484 1.341 . S
N487 N486 1.365 . S
N487 H507 0.862 . S
C488 C483 1.501 . S
C488 H489 0.961 . S
C488 H490 0.961 . S
C488 H491 0.960 . S
H489 C488 0.961 . S
H490 C488 0.961 . S
H491 C488 0.960 . S
C492 N493 1.342 . S
C492 C496 1.401 . S
C492 C497 1.499 . S
N493 Co476 1.989 . S
N493 C492 1.342 . S
N493 N494 1.388 . S
N494 Co477 1.993 . S
N494 N493 1.388 . S
N494 C495 1.346 . S
C495 N494 1.346 . S
C495 C496 1.396 . S
C495 C505 1.510 . S
C496 C492 1.401 . S
C496 C495 1.396 . S
C497 C492 1.499 . S
C497 H498 0.959 . S
C497 H499 0.960 . S
C497 H500 0.961 . S
H498 C497 0.959 . S
H499 C497 0.960 . S
H500 C497 0.961 . S
O501 Co476 1.967 . S
O501 C509 1.258 . S
O502 Co477 1.941 . S
O502 C509 1.266 . S
H503 C505 0.959 . S
H504 C505 0.961 . S
C505 C495 1.510 . S
C505 H503 0.959 . S
C505 H504 0.961 . S
C505 H506 0.960 . S
H506 C505 0.960 . S
H507 N487 0.862 . S
O508 Co476 1.920 . S
O508 C481 1.289 . S
C509 O501 1.258 . S
C509 O502 1.266 . S
Co510 O513 1.970 . S
Co510 N527 1.989 . S
Co510 O535 1.967 . S
Co510 O542 1.920 . S
Co511 O514 1.966 . S
Co511 N520 2.022 . S
Co511 N528 1.993 . S
Co511 O536 1.941 . S
C512 O513 1.258 . S
C512 O514 1.263 . S
O513 Co510 1.970 . S
O513 C512 1.258 . S
O514 Co511 1.966 . S
O514 C512 1.263 . S
C515 O516 1.235 . S
C515 O542 1.289 . S
O516 C515 1.235 . S
C517 C519 1.400 . S
C517 N520 1.351 . S
C517 C522 1.501 . S
C518 C519 1.387 . S
C518 N521 1.341 . S
C519 C517 1.400 . S
C519 C518 1.387 . S
N520 Co511 2.022 . S
N520 C517 1.351 . S
N520 N521 1.365 . S
N521 C518 1.341 . S
N521 N520 1.365 . S
N521 H541 0.862 . S
C522 C517 1.501 . S
C522 H523 0.961 . S
C522 H524 0.961 . S
C522 H525 0.960 . S
H523 C522 0.961 . S
H524 C522 0.961 . S
H525 C522 0.960 . S
C526 N527 1.342 . S
C526 C530 1.401 . S
C526 C531 1.499 . S
N527 Co510 1.989 . S
N527 C526 1.342 . S
N527 N528 1.388 . S
N528 Co511 1.993 . S
N528 N527 1.388 . S
N528 C529 1.346 . S
C529 N528 1.346 . S
C529 C530 1.396 . S
C529 C539 1.510 . S
C530 C526 1.401 . S
C530 C529 1.396 . S
C531 C526 1.499 . S
C531 H532 0.959 . S
C531 H533 0.960 . S
C531 H534 0.961 . S
H532 C531 0.959 . S
H533 C531 0.960 . S
H534 C531 0.961 . S
O535 Co510 1.967 . S
O535 C543 1.258 . S
O536 Co511 1.941 . S
O536 C543 1.266 . S
H537 C539 0.959 . S
H538 C539 0.961 . S
C539 C529 1.510 . S
C539 H537 0.959 . S
C539 H538 0.961 . S
C539 H540 0.960 . S
H540 C539 0.960 . S
H541 N521 0.862 . S
O542 Co510 1.920 . S
O542 C515 1.289 . S
C543 O535 1.258 . S
C543 O536 1.266 . S
C544 C545 1.349 . S
C544 C546 1.327 . S
C544 H569 0.950 . S
C545 C544 1.349 . S
C545 C561 1.349 . S
C546 C544 1.327 . S
C546 C565 1.429 . S
C546 H570 0.950 . S
C547 C564 1.574 . S
C547 C566 1.368 . S
C547 H571 0.949 . S
H548 C552 0.949 . S
C549 C550 1.349 . S
C549 C551 1.327 . S
C549 H572 0.950 . S
C550 C549 1.349 . S
C550 C562 1.349 . S
C551 C549 1.327 . S
C551 C567 1.429 . S
C551 H573 0.950 . S
C552 H548 0.949 . S
C552 C560 1.574 . S
C552 C568 1.368 . S
H553 C561 0.950 . S
H554 C559 0.950 . S
H555 C560 0.949 . S
H556 C562 0.950 . S
H557 C563 0.950 . S
H558 C564 0.949 . S
C559 H554 0.950 . S
C559 C561 1.327 . S
C559 C565 1.429 . S
C560 C552 1.574 . S
C560 H555 0.949 . S
C560 C566 1.368 . S
C561 C545 1.349 . S
C561 H553 0.950 . S
C561 C559 1.327 . S
C562 C550 1.349 . S
C562 H556 0.950 . S
C562 C563 1.327 . S
C563 H557 0.950 . S
C563 C562 1.327 . S
C563 C567 1.429 . S
C564 C547 1.574 . S
C564 H558 0.949 . S
C564 C568 1.368 . S
C565 C546 1.429 . S
C565 C559 1.429 . S
C565 C566 1.523 . S
C566 C547 1.368 . S
C566 C560 1.368 . S
C566 C565 1.523 . S
C567 C551 1.429 . S
C567 C563 1.429 . S
C567 C568 1.523 . S
C568 C552 1.368 . S
C568 C564 1.368 . S
C568 C567 1.523 . S
H569 C544 0.950 . S
H570 C546 0.950 . S
H571 C547 0.949 . S
H572 C549 0.950 . S
H573 C551 0.950 . S
C574 C575 1.349 . S
C574 C576 1.327 . S
C574 H599 0.950 . S
C575 C574 1.349 . S
C575 C591 1.349 . S
C576 C574 1.327 . S
C576 C595 1.429 . S
C576 H600 0.950 . S
C577 C594 1.574 . S
C577 C596 1.368 . S
C577 H601 0.949 . S
H578 C582 0.949 . S
C579 C580 1.349 . S
C579 C581 1.327 . S
C579 H602 0.950 . S
C580 C579 1.349 . S
C580 C592 1.349 . S
C581 C579 1.327 . S
C581 C597 1.429 . S
C581 H603 0.950 . S
C582 H578 0.949 . S
C582 C590 1.574 . S
C582 C598 1.368 . S
H583 C591 0.950 . S
H584 C589 0.950 . S
H585 C590 0.949 . S
H586 C592 0.950 . S
H587 C593 0.950 . S
H588 C594 0.949 . S
C589 H584 0.950 . S
C589 C591 1.327 . S
C589 C595 1.429 . S
C590 C582 1.574 . S
C590 H585 0.949 . S
C590 C596 1.368 . S
C591 C575 1.349 . S
C591 H583 0.950 . S
C591 C589 1.327 . S
C592 C580 1.349 . S
C592 H586 0.950 . S
C592 C593 1.327 . S
C593 H587 0.950 . S
C593 C592 1.327 . S
C593 C597 1.429 . S
C594 C577 1.574 . S
C594 H588 0.949 . S
C594 C598 1.368 . S
C595 C576 1.429 . S
C595 C589 1.429 . S
C595 C596 1.523 . S
C596 C577 1.368 . S
C596 C590 1.368 . S
C596 C595 1.523 . S
C597 C581 1.429 . S
C597 C593 1.429 . S
C597 C598 1.523 . S
C598 C582 1.368 . S
C598 C594 1.368 . S
C598 C597 1.523 . S
H599 C574 0.950 . S
H600 C576 0.950 . S
H601 C577 0.949 . S
H602 C579 0.950 . S
H603 C581 0.950 . S
C604 C605 1.349 . S
C604 C606 1.327 . S
C604 H629 0.950 . S
C605 C604 1.349 . S
C605 C621 1.349 1_655 S
C606 C604 1.327 . S
C606 C625 1.429 1_655 S
C606 H630 0.950 . S
C607 C624 1.574 . S
C607 C626 1.368 . S
C607 H631 0.949 . S
H608 C612 0.949 . S
C609 C610 1.349 . S
C609 C611 1.327 . S
C609 H632 0.950 . S
C610 C609 1.349 . S
C610 C622 1.349 . S
C611 C609 1.327 . S
C611 C627 1.429 . S
C611 H633 0.950 . S
C612 H608 0.949 . S
C612 C620 1.574 . S
C612 C628 1.368 . S
H613 C621 0.950 . S
H614 C619 0.950 . S
H615 C620 0.949 1_655 S
H616 C622 0.950 . S
H617 C623 0.950 . S
H618 C624 0.949 . S
C619 H614 0.950 . S
C619 C621 1.327 . S
C619 C625 1.429 . S
C620 C612 1.574 . S
C620 H615 0.949 1_455 S
C620 C626 1.368 . S
C621 C605 1.349 1_455 S
C621 H613 0.950 . S
C621 C619 1.327 . S
C622 C610 1.349 . S
C622 H616 0.950 . S
C622 C623 1.327 . S
C623 H617 0.950 . S
C623 C622 1.327 . S
C623 C627 1.429 . S
C624 C607 1.574 . S
C624 H618 0.949 . S
C624 C628 1.368 . S
C625 C606 1.429 1_455 S
C625 C619 1.429 . S
C625 C626 1.523 . S
C626 C607 1.368 . S
C626 C620 1.368 . S
C626 C625 1.523 . S
C627 C611 1.429 . S
C627 C623 1.429 . S
C627 C628 1.523 . S
C628 C612 1.368 . S
C628 C624 1.368 . S
C628 C627 1.523 . S
H629 C604 0.950 . S
H630 C606 0.950 . S
H631 C607 0.949 . S
H632 C609 0.950 . S
H633 C611 0.950 . S
C634 C635 1.349 . S
C634 C636 1.327 . S
C634 H659 0.950 . S
C635 C634 1.349 . S
C635 C651 1.349 1_455 S
C636 C634 1.327 . S
C636 C655 1.429 1_455 S
C636 H660 0.950 . S
C637 C654 1.574 . S
C637 C656 1.368 . S
C637 H661 0.949 . S
H638 C642 0.949 . S
C639 C640 1.349 . S
C639 C641 1.327 . S
C639 H662 0.950 . S
C640 C639 1.349 . S
C640 C652 1.349 . S
C641 C639 1.327 . S
C641 C657 1.429 . S
C641 H663 0.950 . S
C642 H638 0.949 . S
C642 C650 1.574 . S
C642 C658 1.368 . S
H643 C651 0.950 . S
H644 C649 0.950 . S
H645 C650 0.949 1_455 S
H646 C652 0.950 . S
H647 C653 0.950 . S
H648 C654 0.949 . S
C649 H644 0.950 . S
C649 C651 1.327 . S
C649 C655 1.429 . S
C650 C642 1.574 . S
C650 H645 0.949 1_655 S
C650 C656 1.368 . S
C651 C635 1.349 1_655 S
C651 H643 0.950 . S
C651 C649 1.327 . S
C652 C640 1.349 . S
C652 H646 0.950 . S
C652 C653 1.327 . S
C653 H647 0.950 . S
C653 C652 1.327 . S
C653 C657 1.429 . S
C654 C637 1.574 . S
C654 H648 0.949 . S
C654 C658 1.368 . S
C655 C636 1.429 1_655 S
C655 C649 1.429 . S
C655 C656 1.523 . S
C656 C637 1.368 . S
C656 C650 1.368 . S
C656 C655 1.523 . S
C657 C641 1.429 . S
C657 C653 1.429 . S
C657 C658 1.523 . S
C658 C642 1.368 . S
C658 C654 1.368 . S
C658 C657 1.523 . S
H659 C634 0.950 . S
H660 C636 0.950 . S
H661 C637 0.949 . S
H662 C639 0.950 . S
H663 C641 0.950 . S
C664 C665 1.349 . S
C664 C666 1.327 . S
C664 H689 0.950 . S
C665 C664 1.349 . S
C665 C681 1.349 . S
C666 C664 1.327 . S
C666 C685 1.429 . S
C666 H690 0.950 . S
C667 C684 1.574 . S
C667 C686 1.368 . S
C667 H691 0.949 . S
H668 C672 0.949 . S
C669 C670 1.349 . S
C669 C671 1.327 . S
C669 H692 0.950 . S
C670 C669 1.349 . S
C670 C682 1.349 . S
C671 C669 1.327 . S
C671 C687 1.429 . S
C671 H693 0.950 . S
C672 H668 0.949 . S
C672 C680 1.574 . S
C672 C688 1.368 . S
H673 C681 0.950 . S
H674 C679 0.950 . S
H675 C680 0.949 . S
H676 C682 0.950 . S
H677 C683 0.950 . S
H678 C684 0.949 . S
C679 H674 0.950 . S
C679 C681 1.327 . S
C679 C685 1.429 . S
C680 C672 1.574 . S
C680 H675 0.949 . S
C680 C686 1.368 . S
C681 C665 1.349 . S
C681 H673 0.950 . S
C681 C679 1.327 . S
C682 C670 1.349 . S
C682 H676 0.950 . S
C682 C683 1.327 . S
C683 H677 0.950 . S
C683 C682 1.327 . S
C683 C687 1.429 . S
C684 C667 1.574 . S
C684 H678 0.949 . S
C684 C688 1.368 . S
C685 C666 1.429 . S
C685 C679 1.429 . S
C685 C686 1.523 . S
C686 C667 1.368 . S
C686 C680 1.368 . S
C686 C685 1.523 . S
C687 C671 1.429 . S
C687 C683 1.429 . S
C687 C688 1.523 . S
C688 C672 1.368 . S
C688 C684 1.368 . S
C688 C687 1.523 . S
H689 C664 0.950 . S
H690 C666 0.950 . S
H691 C667 0.949 . S
H692 C669 0.950 . S
H693 C671 0.950 . S
C694 C695 1.349 . S
C694 C696 1.327 . S
C694 H719 0.950 . S
C695 C694 1.349 . S
C695 C711 1.349 . S
C696 C694 1.327 . S
C696 C715 1.429 . S
C696 H720 0.950 . S
C697 C714 1.574 . S
C697 C716 1.368 . S
C697 H721 0.949 . S
H698 C702 0.949 . S
C699 C700 1.349 . S
C699 C701 1.327 . S
C699 H722 0.950 . S
C700 C699 1.349 . S
C700 C712 1.349 . S
C701 C699 1.327 . S
C701 C717 1.429 . S
C701 H723 0.950 . S
C702 H698 0.949 . S
C702 C710 1.574 . S
C702 C718 1.368 . S
H703 C711 0.950 . S
H704 C709 0.950 . S
H705 C710 0.949 . S
H706 C712 0.950 . S
H707 C713 0.950 . S
H708 C714 0.949 . S
C709 H704 0.950 . S
C709 C711 1.327 . S
C709 C715 1.429 . S
C710 C702 1.574 . S
C710 H705 0.949 . S
C710 C716 1.368 . S
C711 C695 1.349 . S
C711 H703 0.950 . S
C711 C709 1.327 . S
C712 C700 1.349 . S
C712 H706 0.950 . S
C712 C713 1.327 . S
C713 H707 0.950 . S
C713 C712 1.327 . S
C713 C717 1.429 . S
C714 C697 1.574 . S
C714 H708 0.949 . S
C714 C718 1.368 . S
C715 C696 1.429 . S
C715 C709 1.429 . S
C715 C716 1.523 . S
C716 C697 1.368 . S
C716 C710 1.368 . S
C716 C715 1.523 . S
C717 C701 1.429 . S
C717 C713 1.429 . S
C717 C718 1.523 . S
C718 C702 1.368 . S
C718 C714 1.368 . S
C718 C717 1.523 . S
H719 C694 0.950 . S
H720 C696 0.950 . S
H721 C697 0.949 . S
H722 C699 0.950 . S
H723 C701 0.950 . S
C724 C725 1.349 . S
C724 C726 1.327 . S
C724 H749 0.950 . S
C725 C724 1.349 . S
C725 C741 1.349 1_655 S
C726 C724 1.327 . S
C726 C745 1.429 1_655 S
C726 H750 0.950 . S
C727 C744 1.574 . S
C727 C746 1.368 . S
C727 H751 0.949 . S
H728 C732 0.949 . S
C729 C730 1.349 . S
C729 C731 1.327 . S
C729 H752 0.950 . S
C730 C729 1.349 . S
C730 C742 1.349 . S
C731 C729 1.327 . S
C731 C747 1.429 . S
C731 H753 0.950 . S
C732 H728 0.949 . S
C732 C740 1.574 . S
C732 C748 1.368 . S
H733 C741 0.950 . S
H734 C739 0.950 . S
H735 C740 0.949 1_655 S
H736 C742 0.950 . S
H737 C743 0.950 . S
H738 C744 0.949 . S
C739 H734 0.950 . S
C739 C741 1.327 . S
C739 C745 1.429 . S
C740 C732 1.574 . S
C740 H735 0.949 1_455 S
C740 C746 1.368 . S
C741 C725 1.349 1_455 S
C741 H733 0.950 . S
C741 C739 1.327 . S
C742 C730 1.349 . S
C742 H736 0.950 . S
C742 C743 1.327 . S
C743 H737 0.950 . S
C743 C742 1.327 . S
C743 C747 1.429 . S
C744 C727 1.574 . S
C744 H738 0.949 . S
C744 C748 1.368 . S
C745 C726 1.429 1_455 S
C745 C739 1.429 . S
C745 C746 1.523 . S
C746 C727 1.368 . S
C746 C740 1.368 . S
C746 C745 1.523 . S
C747 C731 1.429 . S
C747 C743 1.429 . S
C747 C748 1.523 . S
C748 C732 1.368 . S
C748 C744 1.368 . S
C748 C747 1.523 . S
H749 C724 0.950 . S
H750 C726 0.950 . S
H751 C727 0.949 . S
H752 C729 0.950 . S
H753 C731 0.950 . S
C754 C755 1.349 . S
C754 C756 1.327 . S
C754 H779 0.950 . S
C755 C754 1.349 . S
C755 C771 1.349 . S
C756 C754 1.327 . S
C756 C775 1.429 . S
C756 H780 0.950 . S
C757 C774 1.574 . S
C757 C776 1.368 . S
C757 H781 0.949 . S
H758 C762 0.949 . S
C759 C760 1.349 . S
C759 C761 1.327 . S
C759 H782 0.950 . S
C760 C759 1.349 . S
C760 C772 1.349 1_455 S
C761 C759 1.327 . S
C761 C777 1.429 1_455 S
C761 H783 0.950 . S
C762 H758 0.949 . S
C762 C770 1.574 . S
C762 C778 1.368 . S
H763 C771 0.950 . S
H764 C769 0.950 . S
H765 C770 0.949 . S
H766 C772 0.950 . S
H767 C773 0.950 . S
H768 C774 0.949 1_455 S
C769 H764 0.950 . S
C769 C771 1.327 . S
C769 C775 1.429 . S
C770 C762 1.574 . S
C770 H765 0.949 . S
C770 C776 1.368 . S
C771 C755 1.349 . S
C771 H763 0.950 . S
C771 C769 1.327 . S
C772 C760 1.349 1_655 S
C772 H766 0.950 . S
C772 C773 1.327 . S
C773 H767 0.950 . S
C773 C772 1.327 . S
C773 C777 1.429 . S
C774 C757 1.574 . S
C774 H768 0.949 1_655 S
C774 C778 1.368 . S
C775 C756 1.429 . S
C775 C769 1.429 . S
C775 C776 1.523 . S
C776 C757 1.368 . S
C776 C770 1.368 . S
C776 C775 1.523 . S
C777 C761 1.429 1_655 S
C777 C773 1.429 . S
C777 C778 1.523 . S
C778 C762 1.368 . S
C778 C774 1.368 . S
C778 C777 1.523 . S
H779 C754 0.950 . S
H780 C756 0.950 . S
H781 C757 0.949 . S
H782 C759 0.950 . S
H783 C761 0.950 . S
C784 C785 1.349 . S
C784 C786 1.327 . S
C784 H809 0.950 . S
C785 C784 1.349 . S
C785 C801 1.349 . S
C786 C784 1.327 . S
C786 C805 1.429 . S
C786 H810 0.950 . S
C787 C804 1.574 . S
C787 C806 1.368 . S
C787 H811 0.949 . S
H788 C792 0.949 . S
C789 C790 1.349 . S
C789 C791 1.327 . S
C789 H812 0.950 . S
C790 C789 1.349 . S
C790 C802 1.349 . S
C791 C789 1.327 . S
C791 C807 1.429 . S
C791 H813 0.950 . S
C792 H788 0.949 . S
C792 C800 1.574 . S
C792 C808 1.368 . S
H793 C801 0.950 . S
H794 C799 0.950 . S
H795 C800 0.949 . S
H796 C802 0.950 . S
H797 C803 0.950 . S
H798 C804 0.949 . S
C799 H794 0.950 . S
C799 C801 1.327 . S
C799 C805 1.429 . S
C800 C792 1.574 . S
C800 H795 0.949 . S
C800 C806 1.368 . S
C801 C785 1.349 . S
C801 H793 0.950 . S
C801 C799 1.327 . S
C802 C790 1.349 . S
C802 H796 0.950 . S
C802 C803 1.327 . S
C803 H797 0.950 . S
C803 C802 1.327 . S
C803 C807 1.429 . S
C804 C787 1.574 . S
C804 H798 0.949 . S
C804 C808 1.368 . S
C805 C786 1.429 . S
C805 C799 1.429 . S
C805 C806 1.523 . S
C806 C787 1.368 . S
C806 C800 1.368 . S
C806 C805 1.523 . S
C807 C791 1.429 . S
C807 C803 1.429 . S
C807 C808 1.523 . S
C808 C792 1.368 . S
C808 C804 1.368 . S
C808 C807 1.523 . S
H809 C784 0.950 . S
H810 C786 0.950 . S
H811 C787 0.949 . S
H812 C789 0.950 . S
H813 C791 0.950 . S
C814 C815 1.349 . S
C814 C816 1.327 . S
C814 H839 0.950 . S
C815 C814 1.349 . S
C815 C831 1.349 . S
C816 C814 1.327 . S
C816 C835 1.429 . S
C816 H840 0.950 . S
C817 C834 1.574 . S
C817 C836 1.368 . S
C817 H841 0.949 . S
H818 C822 0.949 . S
C819 C820 1.349 . S
C819 C821 1.327 . S
C819 H842 0.950 . S
C820 C819 1.349 . S
C820 C832 1.349 . S
C821 C819 1.327 . S
C821 C837 1.429 . S
C821 H843 0.950 . S
C822 H818 0.949 . S
C822 C830 1.574 . S
C822 C838 1.368 . S
H823 C831 0.950 . S
H824 C829 0.950 . S
H825 C830 0.949 . S
H826 C832 0.950 . S
H827 C833 0.950 . S
H828 C834 0.949 . S
C829 H824 0.950 . S
C829 C831 1.327 . S
C829 C835 1.429 . S
C830 C822 1.574 . S
C830 H825 0.949 . S
C830 C836 1.368 . S
C831 C815 1.349 . S
C831 H823 0.950 . S
C831 C829 1.327 . S
C832 C820 1.349 . S
C832 H826 0.950 . S
C832 C833 1.327 . S
C833 H827 0.950 . S
C833 C832 1.327 . S
C833 C837 1.429 . S
C834 C817 1.574 . S
C834 H828 0.949 . S
C834 C838 1.368 . S
C835 C816 1.429 . S
C835 C829 1.429 . S
C835 C836 1.523 . S
C836 C817 1.368 . S
C836 C830 1.368 . S
C836 C835 1.523 . S
C837 C821 1.429 . S
C837 C833 1.429 . S
C837 C838 1.523 . S
C838 C822 1.368 . S
C838 C834 1.368 . S
C838 C837 1.523 . S
H839 C814 0.950 . S
H840 C816 0.950 . S
H841 C817 0.949 . S
H842 C819 0.950 . S
H843 C821 0.950 . S
C844 C845 1.349 . S
C844 C846 1.327 . S
C844 H869 0.950 . S
C845 C844 1.349 . S
C845 C861 1.349 . S
C846 C844 1.327 . S
C846 C865 1.429 . S
C846 H870 0.950 . S
C847 C864 1.574 . S
C847 C866 1.368 . S
C847 H871 0.949 . S
H848 C852 0.949 . S
C849 C850 1.349 . S
C849 C851 1.327 . S
C849 H872 0.950 . S
C850 C849 1.349 . S
C850 C862 1.349 . S
C851 C849 1.327 . S
C851 C867 1.429 . S
C851 H873 0.950 . S
C852 H848 0.949 . S
C852 C860 1.574 . S
C852 C868 1.368 . S
H853 C861 0.950 . S
H854 C859 0.950 . S
H855 C860 0.949 . S
H856 C862 0.950 . S
H857 C863 0.950 . S
H858 C864 0.949 . S
C859 H854 0.950 . S
C859 C861 1.327 . S
C859 C865 1.429 . S
C860 C852 1.574 . S
C860 H855 0.949 . S
C860 C866 1.368 . S
C861 C845 1.349 . S
C861 H853 0.950 . S
C861 C859 1.327 . S
C862 C850 1.349 . S
C862 H856 0.950 . S
C862 C863 1.327 . S
C863 H857 0.950 . S
C863 C862 1.327 . S
C863 C867 1.429 . S
C864 C847 1.574 . S
C864 H858 0.949 . S
C864 C868 1.368 . S
C865 C846 1.429 . S
C865 C859 1.429 . S
C865 C866 1.523 . S
C866 C847 1.368 . S
C866 C860 1.368 . S
C866 C865 1.523 . S
C867 C851 1.429 . S
C867 C863 1.429 . S
C867 C868 1.523 . S
C868 C852 1.368 . S
C868 C864 1.368 . S
C868 C867 1.523 . S
H869 C844 0.950 . S
H870 C846 0.950 . S
H871 C847 0.949 . S
H872 C849 0.950 . S
H873 C851 0.950 . S
C874 C875 1.349 . S
C874 C876 1.327 . S
C874 H899 0.950 . S
C875 C874 1.349 . S
C875 C891 1.349 . S
C876 C874 1.327 . S
C876 C895 1.429 . S
C876 H900 0.950 . S
C877 C894 1.574 . S
C877 C896 1.368 . S
C877 H901 0.949 . S
H878 C882 0.949 . S
C879 C880 1.349 . S
C879 C881 1.327 . S
C879 H902 0.950 . S
C880 C879 1.349 . S
C880 C892 1.349 . S
C881 C879 1.327 . S
C881 C897 1.429 . S
C881 H903 0.950 . S
C882 H878 0.949 . S
C882 C890 1.574 . S
C882 C898 1.368 . S
H883 C891 0.950 . S
H884 C889 0.950 . S
H885 C890 0.949 . S
H886 C892 0.950 . S
H887 C893 0.950 . S
H888 C894 0.949 . S
C889 H884 0.950 . S
C889 C891 1.327 . S
C889 C895 1.429 . S
C890 C882 1.574 . S
C890 H885 0.949 . S
C890 C896 1.368 . S
C891 C875 1.349 . S
C891 H883 0.950 . S
C891 C889 1.327 . S
C892 C880 1.349 . S
C892 H886 0.950 . S
C892 C893 1.327 . S
C893 H887 0.950 . S
C893 C892 1.327 . S
C893 C897 1.429 . S
C894 C877 1.574 . S
C894 H888 0.949 . S
C894 C898 1.368 . S
C895 C876 1.429 . S
C895 C889 1.429 . S
C895 C896 1.523 . S
C896 C877 1.368 . S
C896 C890 1.368 . S
C896 C895 1.523 . S
C897 C881 1.429 . S
C897 C893 1.429 . S
C897 C898 1.523 . S
C898 C882 1.368 . S
C898 C894 1.368 . S
C898 C897 1.523 . S
H899 C874 0.950 . S
H900 C876 0.950 . S
H901 C877 0.949 . S
H902 C879 0.950 . S
H903 C881 0.950 . S
C904 C905 1.349 . S
C904 C906 1.327 . S
C904 H929 0.950 . S
C905 C904 1.349 . S
C905 C921 1.349 . S
C906 C904 1.327 . S
C906 C925 1.429 . S
C906 H930 0.950 . S
C907 C924 1.574 . S
C907 C926 1.368 . S
C907 H931 0.949 . S
H908 C912 0.949 . S
C909 C910 1.349 . S
C909 C911 1.327 . S
C909 H932 0.950 . S
C910 C909 1.349 . S
C910 C922 1.349 . S
C911 C909 1.327 . S
C911 C927 1.429 . S
C911 H933 0.950 . S
C912 H908 0.949 . S
C912 C920 1.574 . S
C912 C928 1.368 . S
H913 C921 0.950 . S
H914 C919 0.950 . S
H915 C920 0.949 . S
H916 C922 0.950 . S
H917 C923 0.950 . S
H918 C924 0.949 . S
C919 H914 0.950 . S
C919 C921 1.327 . S
C919 C925 1.429 . S
C920 C912 1.574 . S
C920 H915 0.949 . S
C920 C926 1.368 . S
C921 C905 1.349 . S
C921 H913 0.950 . S
C921 C919 1.327 . S
C922 C910 1.349 . S
C922 H916 0.950 . S
C922 C923 1.327 . S
C923 H917 0.950 . S
C923 C922 1.327 . S
C923 C927 1.429 . S
C924 C907 1.574 . S
C924 H918 0.949 . S
C924 C928 1.368 . S
C925 C906 1.429 . S
C925 C919 1.429 . S
C925 C926 1.523 . S
C926 C907 1.368 . S
C926 C920 1.368 . S
C926 C925 1.523 . S
C927 C911 1.429 . S
C927 C923 1.429 . S
C927 C928 1.523 . S
C928 C912 1.368 . S
C928 C924 1.368 . S
C928 C927 1.523 . S
H929 C904 0.950 . S
H930 C906 0.950 . S
H931 C907 0.949 . S
H932 C909 0.950 . S
H933 C911 0.950 . S
C934 C935 1.349 . S
C934 C936 1.327 . S
C934 H959 0.950 . S
C935 C934 1.349 . S
C935 C951 1.349 . S
C936 C934 1.327 . S
C936 C955 1.429 . S
C936 H960 0.950 . S
C937 C954 1.574 . S
C937 C956 1.368 . S
C937 H961 0.949 . S
H938 C942 0.949 . S
C939 C940 1.349 . S
C939 C941 1.327 . S
C939 H962 0.950 . S
C940 C939 1.349 . S
C940 C952 1.349 . S
C941 C939 1.327 . S
C941 C957 1.429 . S
C941 H963 0.950 . S
C942 H938 0.949 . S
C942 C950 1.574 . S
C942 C958 1.368 . S
H943 C951 0.950 . S
H944 C949 0.950 . S
H945 C950 0.949 . S
H946 C952 0.950 . S
H947 C953 0.950 . S
H948 C954 0.949 . S
C949 H944 0.950 . S
C949 C951 1.327 . S
C949 C955 1.429 . S
C950 C942 1.574 . S
C950 H945 0.949 . S
C950 C956 1.368 . S
C951 C935 1.349 . S
C951 H943 0.950 . S
C951 C949 1.327 . S
C952 C940 1.349 . S
C952 H946 0.950 . S
C952 C953 1.327 . S
C953 H947 0.950 . S
C953 C952 1.327 . S
C953 C957 1.429 . S
C954 C937 1.574 . S
C954 H948 0.949 . S
C954 C958 1.368 . S
C955 C936 1.429 . S
C955 C949 1.429 . S
C955 C956 1.523 . S
C956 C937 1.368 . S
C956 C950 1.368 . S
C956 C955 1.523 . S
C957 C941 1.429 . S
C957 C953 1.429 . S
C957 C958 1.523 . S
C958 C942 1.368 . S
C958 C954 1.368 . S
C958 C957 1.523 . S
H959 C934 0.950 . S
H960 C936 0.950 . S
H961 C937 0.949 . S
H962 C939 0.950 . S
H963 C941 0.950 . S
C964 C965 1.349 . S
C964 C966 1.327 . S
C964 H989 0.950 . S
C965 C964 1.349 . S
C965 C981 1.349 . S
C966 C964 1.327 . S
C966 C985 1.429 . S
C966 H990 0.950 . S
C967 C984 1.574 . S
C967 C986 1.368 . S
C967 H991 0.949 . S
H968 C972 0.949 . S
C969 C970 1.349 . S
C969 C971 1.327 . S
C969 H992 0.950 . S
C970 C969 1.349 . S
C970 C982 1.349 . S
C971 C969 1.327 . S
C971 C987 1.429 . S
C971 H993 0.950 . S
C972 H968 0.949 . S
C972 C980 1.574 . S
C972 C988 1.368 . S
H973 C981 0.950 . S
H974 C979 0.950 . S
H975 C980 0.949 . S
H976 C982 0.950 . S
H977 C983 0.950 . S
H978 C984 0.949 . S
C979 H974 0.950 . S
C979 C981 1.327 . S
C979 C985 1.429 . S
C980 C972 1.574 . S
C980 H975 0.949 . S
C980 C986 1.368 . S
C981 C965 1.349 . S
C981 H973 0.950 . S
C981 C979 1.327 . S
C982 C970 1.349 . S
C982 H976 0.950 . S
C982 C983 1.327 . S
C983 H977 0.950 . S
C983 C982 1.327 . S
C983 C987 1.429 . S
C984 C967 1.574 . S
C984 H978 0.949 . S
C984 C988 1.368 . S
C985 C966 1.429 . S
C985 C979 1.429 . S
C985 C986 1.523 . S
C986 C967 1.368 . S
C986 C980 1.368 . S
C986 C985 1.523 . S
C987 C971 1.429 . S
C987 C983 1.429 . S
C987 C988 1.523 . S
C988 C972 1.368 . S
C988 C984 1.368 . S
C988 C987 1.523 . S
H989 C964 0.950 . S
H990 C966 0.950 . S
H991 C967 0.949 . S
H992 C969 0.950 . S
H993 C971 0.950 . S
C994 C995 1.349 . S
C994 C996 1.327 . S
C994 H1019 0.950 . S
C995 C994 1.349 . S
C995 C1011 1.349 . S
C996 C994 1.327 . S
C996 C1015 1.429 . S
C996 H1020 0.950 . S
C997 C1014 1.574 . S
C997 C1016 1.368 . S
C997 H1021 0.949 . S
H998 C1002 0.949 . S
C999 C1000 1.349 . S
C999 C1001 1.327 . S
C999 H1022 0.950 . S
C1000 C999 1.349 . S
C1000 C1012 1.349 . S
C1001 C999 1.327 . S
C1001 C1017 1.429 . S
C1001 H1023 0.950 . S
C1002 H998 0.949 . S
C1002 C1010 1.574 . S
C1002 C1018 1.368 . S
H1003 C1011 0.950 . S
H1004 C1009 0.950 . S
H1005 C1010 0.949 . S
H1006 C1012 0.950 . S
H1007 C1013 0.950 . S
H1008 C1014 0.949 . S
C1009 H1004 0.950 . S
C1009 C1011 1.327 . S
C1009 C1015 1.429 . S
C1010 C1002 1.574 . S
C1010 H1005 0.949 . S
C1010 C1016 1.368 . S
C1011 C995 1.349 . S
C1011 H1003 0.950 . S
C1011 C1009 1.327 . S
C1012 C1000 1.349 . S
C1012 H1006 0.950 . S
C1012 C1013 1.327 . S
C1013 H1007 0.950 . S
C1013 C1012 1.327 . S
C1013 C1017 1.429 . S
C1014 C997 1.574 . S
C1014 H1008 0.949 . S
C1014 C1018 1.368 . S
C1015 C996 1.429 . S
C1015 C1009 1.429 . S
C1015 C1016 1.523 . S
C1016 C997 1.368 . S
C1016 C1010 1.368 . S
C1016 C1015 1.523 . S
C1017 C1001 1.429 . S
C1017 C1013 1.429 . S
C1017 C1018 1.523 . S
C1018 C1002 1.368 . S
C1018 C1014 1.368 . S
C1018 C1017 1.523 . S
H1019 C994 0.950 . S
H1020 C996 0.950 . S
H1021 C997 0.949 . S
H1022 C999 0.950 . S
H1023 C1001 0.950 . S
C1024 C1025 1.349 . S
C1024 C1026 1.327 . S
C1024 H1049 0.950 . S
C1025 C1024 1.349 . S
C1025 C1041 1.349 . S
C1026 C1024 1.327 . S
C1026 C1045 1.429 . S
C1026 H1050 0.950 . S
C1027 C1044 1.574 . S
C1027 C1046 1.368 . S
C1027 H1051 0.949 . S
H1028 C1032 0.949 . S
C1029 C1030 1.349 . S
C1029 C1031 1.327 1_455 S
C1029 H1052 0.960 . S
C1030 C1029 1.349 . S
C1030 C1042 1.349 . S
C1031 C1029 1.327 1_655 S
C1031 C1047 1.429 1_655 S
C1031 H1053 0.950 . S
C1032 H1028 0.949 . S
C1032 C1040 1.574 1_455 S
C1032 C1048 1.368 1_455 S
H1033 C1041 0.950 . S
H1034 C1039 0.950 . S
H1035 C1040 0.949 1_455 S
H1036 C1042 0.950 . S
H1037 C1043 0.950 . S
H1038 C1044 0.949 . S
C1039 H1034 0.950 . S
C1039 C1041 1.327 . S
C1039 C1045 1.429 . S
C1040 C1032 1.574 1_655 S
C1040 H1035 0.949 1_655 S
C1040 C1046 1.368 . S
C1041 C1025 1.349 . S
C1041 H1033 0.950 . S
C1041 C1039 1.327 . S
C1042 C1030 1.349 . S
C1042 H1036 0.950 . S
C1042 C1043 1.327 . S
C1043 H1037 0.950 . S
C1043 C1042 1.327 . S
C1043 C1047 1.429 . S
C1044 C1027 1.574 . S
C1044 H1038 0.949 . S
C1044 C1048 1.368 . S
C1045 C1026 1.429 . S
C1045 C1039 1.429 . S
C1045 C1046 1.523 . S
C1046 C1027 1.368 . S
C1046 C1040 1.368 . S
C1046 C1045 1.523 . S
C1047 C1031 1.429 1_455 S
C1047 C1043 1.429 . S
C1047 C1048 1.523 1_455 S
C1048 C1032 1.368 1_655 S
C1048 C1044 1.368 . S
C1048 C1047 1.523 1_655 S
H1049 C1024 0.950 . S
H1050 C1026 0.950 . S
H1051 C1027 0.949 . S
H1052 C1029 0.960 . S
H1053 C1031 0.950 . S
C1054 C1055 1.349 . S
C1054 C1056 1.327 . S
C1054 H1079 0.950 . S
C1055 C1054 1.349 . S
C1055 C1071 1.349 . S
C1056 C1054 1.327 . S
C1056 C1075 1.429 . S
C1056 H1080 0.950 . S
C1057 C1074 1.574 . S
C1057 C1076 1.368 1_655 S
C1057 H1081 0.949 . S
H1058 C1062 0.949 . S
C1059 C1060 1.349 . S
C1059 C1061 1.327 . S
C1059 H1082 0.950 . S
C1060 C1059 1.349 . S
C1060 C1072 1.349 . S
C1061 C1059 1.327 . S
C1061 C1077 1.429 . S
C1061 H1083 0.950 . S
C1062 H1058 0.949 . S
C1062 C1070 1.574 . S
C1062 C1078 1.368 . S
H1063 C1071 0.950 . S
H1064 C1069 0.978 . S
H1065 C1070 0.949 . S
H1066 C1072 0.950 1_455 S
H1067 C1073 0.950 . S
H1068 C1074 0.949 . S
C1069 H1064 0.978 . S
C1069 C1071 1.327 . S
C1069 C1075 1.429 . S
C1070 C1062 1.574 . S
C1070 H1065 0.949 . S
C1070 C1076 1.368 . S
C1071 C1055 1.349 . S
C1071 H1063 0.950 . S
C1071 C1069 1.327 . S
C1072 C1060 1.349 . S
C1072 H1066 0.950 1_655 S
C1072 C1073 1.327 1_655 S
C1073 H1067 0.950 . S
C1073 C1072 1.327 1_455 S
C1073 C1077 1.429 1_455 S
C1074 C1057 1.574 . S
C1074 H1068 0.949 . S
C1074 C1078 1.368 1_655 S
C1075 C1056 1.429 . S
C1075 C1069 1.429 . S
C1075 C1076 1.523 . S
C1076 C1057 1.368 1_455 S
C1076 C1070 1.368 . S
C1076 C1075 1.523 . S
C1077 C1061 1.429 . S
C1077 C1073 1.429 1_655 S
C1077 C1078 1.523 1_655 S
C1078 C1062 1.368 . S
C1078 C1074 1.368 1_455 S
C1078 C1077 1.523 1_455 S
H1079 C1054 0.950 . S
H1080 C1056 0.950 . S
H1081 C1057 0.949 . S
H1082 C1059 0.950 . S
H1083 C1061 0.950 . S
C1084 C1085 1.349 . S
C1084 C1086 1.327 . S
C1084 H1109 0.950 . S
C1085 C1084 1.349 . S
C1085 C1101 1.349 . S
C1086 C1084 1.327 . S
C1086 C1105 1.429 . S
C1086 H1110 0.950 . S
C1087 C1104 1.574 . S
C1087 C1106 1.368 . S
C1087 H1111 0.949 . S
H1088 C1092 0.949 . S
C1089 C1090 1.349 . S
C1089 C1091 1.327 . S
C1089 H1112 0.950 . S
C1090 C1089 1.349 . S
C1090 C1102 1.349 . S
C1091 C1089 1.327 . S
C1091 C1107 1.429 . S
C1091 H1113 0.950 . S
C1092 H1088 0.949 . S
C1092 C1100 1.574 . S
C1092 C1108 1.368 . S
H1093 C1101 0.950 . S
H1094 C1099 0.950 . S
H1095 C1100 0.949 . S
H1096 C1102 0.950 . S
H1097 C1103 0.950 . S
H1098 C1104 0.949 . S
C1099 H1094 0.950 . S
C1099 C1101 1.327 . S
C1099 C1105 1.429 . S
C1100 C1092 1.574 . S
C1100 H1095 0.949 . S
C1100 C1106 1.368 . S
C1101 C1085 1.349 . S
C1101 H1093 0.950 . S
C1101 C1099 1.327 . S
C1102 C1090 1.349 . S
C1102 H1096 0.950 . S
C1102 C1103 1.327 . S
C1103 H1097 0.950 . S
C1103 C1102 1.327 . S
C1103 C1107 1.429 . S
C1104 C1087 1.574 . S
C1104 H1098 0.949 . S
C1104 C1108 1.368 . S
C1105 C1086 1.429 . S
C1105 C1099 1.429 . S
C1105 C1106 1.523 . S
C1106 C1087 1.368 . S
C1106 C1100 1.368 . S
C1106 C1105 1.523 . S
C1107 C1091 1.429 . S
C1107 C1103 1.429 . S
C1107 C1108 1.523 . S
C1108 C1092 1.368 . S
C1108 C1104 1.368 . S
C1108 C1107 1.523 . S
H1109 C1084 0.950 . S
H1110 C1086 0.950 . S
H1111 C1087 0.949 . S
H1112 C1089 0.950 . S
H1113 C1091 0.950 . S
C1114 C1115 1.349 . S
C1114 C1116 1.327 . S
C1114 H1139 0.950 . S
C1115 C1114 1.349 . S
C1115 C1131 1.349 . S
C1116 C1114 1.327 . S
C1116 C1135 1.429 . S
C1116 H1140 0.950 . S
C1117 C1134 1.574 . S
C1117 C1136 1.368 . S
C1117 H1141 0.949 . S
H1118 C1122 0.949 . S
C1119 C1120 1.349 . S
C1119 C1121 1.327 . S
C1119 H1142 0.950 . S
C1120 C1119 1.349 . S
C1120 C1132 1.349 . S
C1121 C1119 1.327 . S
C1121 C1137 1.429 . S
C1121 H1143 0.950 . S
C1122 H1118 0.949 . S
C1122 C1130 1.574 . S
C1122 C1138 1.368 . S
H1123 C1131 0.950 . S
H1124 C1129 0.950 . S
H1125 C1130 0.949 . S
H1126 C1132 0.950 . S
H1127 C1133 0.950 . S
H1128 C1134 0.949 . S
C1129 H1124 0.950 . S
C1129 C1131 1.327 . S
C1129 C1135 1.429 . S
C1130 C1122 1.574 . S
C1130 H1125 0.949 . S
C1130 C1136 1.368 . S
C1131 C1115 1.349 . S
C1131 H1123 0.950 . S
C1131 C1129 1.327 . S
C1132 C1120 1.349 . S
C1132 H1126 0.950 . S
C1132 C1133 1.327 . S
C1133 H1127 0.950 . S
C1133 C1132 1.327 . S
C1133 C1137 1.429 . S
C1134 C1117 1.574 . S
C1134 H1128 0.949 . S
C1134 C1138 1.368 . S
C1135 C1116 1.429 . S
C1135 C1129 1.429 . S
C1135 C1136 1.523 . S
C1136 C1117 1.368 . S
C1136 C1130 1.368 . S
C1136 C1135 1.523 . S
C1137 C1121 1.429 . S
C1137 C1133 1.429 . S
C1137 C1138 1.523 . S
C1138 C1122 1.368 . S
C1138 C1134 1.368 . S
C1138 C1137 1.523 . S
H1139 C1114 0.950 . S
H1140 C1116 0.950 . S
H1141 C1117 0.949 . S
H1142 C1119 0.950 . S
H1143 C1121 0.950 . S
C1144 C1145 1.349 . S
C1144 C1146 1.327 . S
C1144 H1169 0.950 . S
C1145 C1144 1.349 . S
C1145 C1161 1.349 . S
C1146 C1144 1.327 . S
C1146 C1165 1.429 . S
C1146 H1170 0.950 1_655 S
C1147 C1164 1.574 . S
C1147 C1166 1.368 . S
C1147 H1171 0.949 . S
H1148 C1152 0.949 . S
C1149 C1150 1.349 1_655 S
C1149 C1151 1.327 . S
C1149 H1172 0.950 . S
C1150 C1149 1.349 1_455 S
C1150 C1162 1.349 . S
C1151 C1149 1.327 . S
C1151 C1167 1.429 1_655 S
C1151 H1173 0.950 . S
C1152 H1148 0.949 . S
C1152 C1160 1.574 . S
C1152 C1168 1.368 1_455 S
H1153 C1161 0.950 . S
H1154 C1159 0.950 . S
H1155 C1160 0.949 . S
H1156 C1162 0.950 . S
H1157 C1163 0.950 . S
H1158 C1164 0.949 . S
C1159 H1154 0.950 . S
C1159 C1161 1.327 . S
C1159 C1165 1.429 . S
C1160 C1152 1.574 . S
C1160 H1155 0.949 . S
C1160 C1166 1.368 1_455 S
C1161 C1145 1.349 . S
C1161 H1153 0.950 . S
C1161 C1159 1.327 . S
C1162 C1150 1.349 . S
C1162 H1156 0.950 . S
C1162 C1163 1.327 . S
C1163 H1157 0.950 . S
C1163 C1162 1.327 . S
C1163 C1167 1.429 . S
C1164 C1147 1.574 . S
C1164 H1158 0.949 . S
C1164 C1168 1.368 . S
C1165 C1146 1.429 . S
C1165 C1159 1.429 . S
C1165 C1166 1.523 . S
C1166 C1147 1.368 . S
C1166 C1160 1.368 1_655 S
C1166 C1165 1.523 . S
C1167 C1151 1.429 1_455 S
C1167 C1163 1.429 . S
C1167 C1168 1.523 1_455 S
C1168 C1152 1.368 1_655 S
C1168 C1164 1.368 . S
C1168 C1167 1.523 1_655 S
H1169 C1144 0.950 . S
H1170 C1146 0.950 1_455 S
H1171 C1147 0.949 . S
H1172 C1149 0.950 . S
H1173 C1151 0.950 . S
C1174 C1175 1.349 . S
C1174 C1176 1.327 . S
C1174 H1199 0.950 . S
C1175 C1174 1.349 . S
C1175 C1191 1.349 . S
C1176 C1174 1.327 . S
C1176 C1195 1.429 . S
C1176 H1200 0.950 . S
C1177 C1194 1.574 1_455 S
C1177 C1196 1.368 . S
C1177 H1201 0.947 1_455 S
H1178 C1182 0.949 . S
C1179 C1180 1.349 . S
C1179 C1181 1.327 . S
C1179 H1202 0.950 . S
C1180 C1179 1.349 . S
C1180 C1192 1.349 . S
C1181 C1179 1.327 . S
C1181 C1197 1.429 . S
C1181 H1203 0.950 . S
C1182 H1178 0.949 . S
C1182 C1190 1.574 . S
C1182 C1198 1.368 . S
H1183 C1191 0.950 . S
H1184 C1189 0.950 . S
H1185 C1190 0.949 . S
H1186 C1192 0.950 . S
H1187 C1193 0.930 1_455 S
H1188 C1194 0.949 . S
C1189 H1184 0.950 . S
C1189 C1191 1.327 . S
C1189 C1195 1.429 . S
C1190 C1182 1.574 . S
C1190 H1185 0.949 . S
C1190 C1196 1.368 . S
C1191 C1175 1.349 . S
C1191 H1183 0.950 . S
C1191 C1189 1.327 . S
C1192 C1180 1.349 . S
C1192 H1186 0.950 . S
C1192 C1193 1.339 . S
C1193 H1187 0.930 1_655 S
C1193 C1192 1.339 . S
C1193 C1197 1.437 . S
C1194 C1177 1.574 1_655 S
C1194 H1188 0.949 . S
C1194 C1198 1.368 1_655 S
C1195 C1176 1.429 . S
C1195 C1189 1.429 . S
C1195 C1196 1.523 . S
C1196 C1177 1.368 . S
C1196 C1190 1.368 . S
C1196 C1195 1.523 . S
C1197 C1181 1.429 . S
C1197 C1193 1.437 . S
C1197 C1198 1.523 1_655 S
C1198 C1182 1.368 . S
C1198 C1194 1.368 1_455 S
C1198 C1197 1.523 1_455 S
H1199 C1174 0.950 . S
H1200 C1176 0.950 . S
H1201 C1177 0.947 1_655 S
H1202 C1179 0.950 . S
H1203 C1181 0.950 . S
C1204 C1205 1.349 . S
C1204 C1206 1.327 1_545 S
C1204 H1229 0.950 1_545 S
C1205 C1204 1.349 . S
C1205 C1221 1.349 . S
C1206 C1204 1.327 1_565 S
C1206 C1225 1.429 1_565 S
C1206 H1230 0.950 . S
C1207 C1224 1.574 1_545 S
C1207 C1226 1.368 1_544 S
C1207 H1231 0.949 . S
H1208 C1212 0.949 . S
C1209 C1210 1.349 . S
C1209 C1211 1.327 . S
C1209 H1232 0.950 . S
C1210 C1209 1.349 . S
C1210 C1222 1.349 . S
C1211 C1209 1.327 . S
C1211 C1227 1.429 . S
C1211 H1233 0.950 . S
C1212 H1208 0.949 . S
C1212 C1220 1.574 1_554 S
C1212 C1228 1.368 . S
H1213 C1221 0.950 . S
H1214 C1219 0.950 . S
H1215 C1220 0.949 . S
H1216 C1222 0.950 . S
H1217 C1223 0.950 . S
H1218 C1224 0.949 1_545 S
C1219 H1214 0.950 . S
C1219 C1221 1.327 . S
C1219 C1225 1.429 . S
C1220 C1212 1.574 1_556 S
C1220 H1215 0.949 . S
C1220 C1226 1.368 . S
C1221 C1205 1.349 . S
C1221 H1213 0.950 . S
C1221 C1219 1.327 . S
C1222 C1210 1.349 . S
C1222 H1216 0.950 . S
C1222 C1223 1.327 . S
C1223 H1217 0.950 . S
C1223 C1222 1.327 . S
C1223 C1227 1.429 . S
C1224 C1207 1.574 1_565 S
C1224 H1218 0.949 1_565 S
C1224 C1228 1.368 . S
C1225 C1206 1.429 1_545 S
C1225 C1219 1.429 . S
C1225 C1226 1.523 1_545 S
C1226 C1207 1.368 1_566 S
C1226 C1220 1.368 . S
C1226 C1225 1.523 1_565 S
C1227 C1211 1.429 . S
C1227 C1223 1.429 . S
C1227 C1228 1.523 . S
C1228 C1212 1.368 . S
C1228 C1224 1.368 . S
C1228 C1227 1.523 . S
H1229 C1204 0.950 1_565 S
H1230 C1206 0.950 . S
H1231 C1207 0.949 . S
H1232 C1209 0.950 . S
H1233 C1211 0.950 . S
C1234 C1235 1.349 . S
C1234 C1236 1.327 . S
C1234 H1259 0.950 . S
C1235 C1234 1.349 . S
C1235 C1251 1.349 . S
C1236 C1234 1.327 . S
C1236 C1255 1.429 . S
C1236 H1260 0.950 . S
C1237 C1254 1.574 1_556 S
C1237 C1256 1.368 . S
C1237 H1261 0.949 . S
H1238 C1242 0.966 . S
C1239 C1240 1.349 . S
C1239 C1241 1.327 . S
C1239 H1262 0.950 . S
C1240 C1239 1.349 . S
C1240 C1252 1.349 . S
C1241 C1239 1.327 . S
C1241 C1257 1.429 . S
C1241 H1263 0.950 . S
C1242 H1238 0.966 . S
C1242 C1250 1.574 1_545 S
C1242 C1258 1.368 . S
H1243 C1251 0.968 . S
H1244 C1249 0.950 . S
H1245 C1250 0.949 . S
H1246 C1252 0.950 . S
H1247 C1253 0.950 . S
H1248 C1254 0.949 . S
C1249 H1244 0.950 . S
C1249 C1251 1.327 1_545 S
C1249 C1255 1.429 1_545 S
C1250 C1242 1.574 1_565 S
C1250 H1245 0.949 . S
C1250 C1256 1.368 1_564 S
C1251 C1235 1.349 . S
C1251 H1243 0.968 . S
C1251 C1249 1.327 1_565 S
C1252 C1240 1.349 . S
C1252 H1246 0.950 . S
C1252 C1253 1.327 . S
C1253 H1247 0.950 . S
C1253 C1252 1.327 . S
C1253 C1257 1.429 . S
C1254 C1237 1.574 1_554 S
C1254 H1248 0.949 . S
C1254 C1258 1.368 . S
C1255 C1236 1.429 . S
C1255 C1249 1.429 1_565 S
C1255 C1256 1.523 1_565 S
C1256 C1237 1.368 . S
C1256 C1250 1.368 1_546 S
C1256 C1255 1.523 1_545 S
C1257 C1241 1.429 . S
C1257 C1253 1.429 . S
C1257 C1258 1.523 . S
C1258 C1242 1.368 . S
C1258 C1254 1.368 . S
C1258 C1257 1.523 . S
H1259 C1234 0.950 . S
H1260 C1236 0.950 . S
H1261 C1237 0.949 . S
H1262 C1239 0.950 . S
H1263 C1241 0.950 . S
C1264 C1265 1.349 . S
C1264 C1266 1.327 . S
C1264 H1289 0.950 . S
C1265 C1264 1.349 . S
C1265 C1281 1.349 . S
C1266 C1264 1.327 . S
C1266 C1285 1.429 . S
C1266 H1290 0.950 . S
C1267 C1284 1.574 . S
C1267 C1286 1.368 . S
C1267 H1291 0.949 . S
H1268 C1272 0.949 . S
C1269 C1270 1.349 . S
C1269 C1271 1.327 . S
C1269 H1292 0.950 . S
C1270 C1269 1.349 . S
C1270 C1282 1.349 . S
C1271 C1269 1.327 . S
C1271 C1287 1.429 . S
C1271 H1293 0.950 . S
C1272 H1268 0.949 . S
C1272 C1280 1.574 . S
C1272 C1288 1.368 . S
H1273 C1281 0.950 . S
H1274 C1279 0.950 . S
H1275 C1280 0.949 . S
H1276 C1282 0.950 . S
H1277 C1283 0.950 . S
H1278 C1284 0.949 . S
C1279 H1274 0.950 . S
C1279 C1281 1.327 . S
C1279 C1285 1.429 . S
C1280 C1272 1.574 . S
C1280 H1275 0.949 . S
C1280 C1286 1.368 . S
C1281 C1265 1.349 . S
C1281 H1273 0.950 . S
C1281 C1279 1.327 . S
C1282 C1270 1.349 . S
C1282 H1276 0.950 . S
C1282 C1283 1.327 . S
C1283 H1277 0.950 . S
C1283 C1282 1.327 . S
C1283 C1287 1.429 . S
C1284 C1267 1.574 . S
C1284 H1278 0.949 . S
C1284 C1288 1.368 . S
C1285 C1266 1.429 . S
C1285 C1279 1.429 . S
C1285 C1286 1.523 . S
C1286 C1267 1.368 . S
C1286 C1280 1.368 . S
C1286 C1285 1.523 . S
C1287 C1271 1.429 . S
C1287 C1283 1.429 . S
C1287 C1288 1.523 . S
C1288 C1272 1.368 . S
C1288 C1284 1.368 . S
C1288 C1287 1.523 . S
H1289 C1264 0.950 . S
H1290 C1266 0.950 . S
H1291 C1267 0.949 . S
H1292 C1269 0.950 . S
H1293 C1271 0.950 . S
C1294 C1295 1.349 . S
C1294 C1296 1.327 . S
C1294 H1319 0.950 . S
C1295 C1294 1.349 . S
C1295 C1311 1.349 . S
C1296 C1294 1.327 . S
C1296 C1315 1.429 . S
C1296 H1320 0.950 . S
C1297 C1314 1.574 . S
C1297 C1316 1.368 . S
C1297 H1321 0.949 . S
H1298 C1302 0.949 . S
C1299 C1300 1.349 . S
C1299 C1301 1.327 . S
C1299 H1322 0.950 . S
C1300 C1299 1.349 . S
C1300 C1312 1.349 . S
C1301 C1299 1.327 . S
C1301 C1317 1.429 . S
C1301 H1323 0.950 . S
C1302 H1298 0.949 . S
C1302 C1310 1.574 . S
C1302 C1318 1.368 . S
H1303 C1311 0.950 . S
H1304 C1309 0.950 . S
H1305 C1310 0.949 . S
H1306 C1312 0.950 . S
H1307 C1313 0.950 . S
H1308 C1314 0.949 . S
C1309 H1304 0.950 . S
C1309 C1311 1.327 . S
C1309 C1315 1.429 . S
C1310 C1302 1.574 . S
C1310 H1305 0.949 . S
C1310 C1316 1.368 . S
C1311 C1295 1.349 . S
C1311 H1303 0.950 . S
C1311 C1309 1.327 . S
C1312 C1300 1.349 . S
C1312 H1306 0.950 . S
C1312 C1313 1.327 . S
C1313 H1307 0.950 . S
C1313 C1312 1.327 . S
C1313 C1317 1.429 . S
C1314 C1297 1.574 . S
C1314 H1308 0.949 . S
C1314 C1318 1.368 . S
C1315 C1296 1.429 . S
C1315 C1309 1.429 . S
C1315 C1316 1.523 . S
C1316 C1297 1.368 . S
C1316 C1310 1.368 . S
C1316 C1315 1.523 . S
C1317 C1301 1.429 . S
C1317 C1313 1.429 . S
C1317 C1318 1.523 . S
C1318 C1302 1.368 . S
C1318 C1314 1.368 . S
C1318 C1317 1.523 . S
H1319 C1294 0.950 . S
H1320 C1296 0.950 . S
H1321 C1297 0.949 . S
H1322 C1299 0.950 . S
H1323 C1301 0.950 . S
C1324 C1325 1.349 . S
C1324 C1326 1.327 . S
C1324 H1349 0.950 . S
C1325 C1324 1.349 . S
C1325 C1341 1.349 . S
C1326 C1324 1.327 . S
C1326 C1345 1.429 . S
C1326 H1350 0.950 . S
C1327 C1344 1.574 . S
C1327 C1346 1.368 . S
C1327 H1351 0.949 . S
H1328 C1332 0.949 . S
C1329 C1330 1.349 . S
C1329 C1331 1.327 . S
C1329 H1352 0.950 . S
C1330 C1329 1.349 . S
C1330 C1342 1.349 . S
C1331 C1329 1.327 . S
C1331 C1347 1.429 . S
C1331 H1353 0.950 . S
C1332 H1328 0.949 . S
C1332 C1340 1.574 1_556 S
C1332 C1348 1.368 . S
H1333 C1341 0.950 . S
H1334 C1339 0.950 . S
H1335 C1340 0.949 . S
H1336 C1342 0.950 . S
H1337 C1343 0.950 . S
H1338 C1344 0.949 1_556 S
C1339 H1334 0.950 . S
C1339 C1341 1.327 . S
C1339 C1345 1.429 . S
C1340 C1332 1.574 1_554 S
C1340 H1335 0.949 . S
C1340 C1346 1.368 . S
C1341 C1325 1.349 . S
C1341 H1333 0.950 . S
C1341 C1339 1.327 . S
C1342 C1330 1.349 . S
C1342 H1336 0.950 . S
C1342 C1343 1.327 . S
C1343 H1337 0.950 . S
C1343 C1342 1.327 . S
C1343 C1347 1.429 . S
C1344 C1327 1.574 . S
C1344 H1338 0.949 1_554 S
C1344 C1348 1.368 1_554 S
C1345 C1326 1.429 . S
C1345 C1339 1.429 . S
C1345 C1346 1.523 . S
C1346 C1327 1.368 . S
C1346 C1340 1.368 . S
C1346 C1345 1.523 . S
C1347 C1331 1.429 . S
C1347 C1343 1.429 . S
C1347 C1348 1.523 . S
C1348 C1332 1.368 . S
C1348 C1344 1.368 1_556 S
C1348 C1347 1.523 . S
H1349 C1324 0.950 . S
H1350 C1326 0.950 . S
H1351 C1327 0.949 . S
H1352 C1329 0.950 . S
H1353 C1331 0.950 . S
C1354 C1355 1.349 . S
C1354 C1356 1.327 . S
C1354 H1379 0.950 . S
C1355 C1354 1.349 . S
C1355 C1371 1.349 . S
C1356 C1354 1.327 . S
C1356 C1375 1.429 . S
C1356 H1380 0.950 . S
C1357 C1374 1.574 . S
C1357 C1376 1.368 . S
C1357 H1381 0.949 . S
H1358 C1362 0.949 . S
C1359 C1360 1.349 . S
C1359 C1361 1.327 . S
C1359 H1382 0.950 . S
C1360 C1359 1.349 . S
C1360 C1372 1.349 . S
C1361 C1359 1.327 . S
C1361 C1377 1.429 . S
C1361 H1383 0.950 . S
C1362 H1358 0.949 . S
C1362 C1370 1.574 1_556 S
C1362 C1378 1.368 . S
H1363 C1371 0.950 . S
H1364 C1369 0.950 . S
H1365 C1370 0.949 . S
H1366 C1372 0.950 . S
H1367 C1373 0.950 . S
H1368 C1374 0.949 1_556 S
C1369 H1364 0.950 . S
C1369 C1371 1.327 . S
C1369 C1375 1.429 . S
C1370 C1362 1.574 1_554 S
C1370 H1365 0.949 . S
C1370 C1376 1.368 . S
C1371 C1355 1.349 . S
C1371 H1363 0.950 . S
C1371 C1369 1.327 . S
C1372 C1360 1.349 . S
C1372 H1366 0.950 . S
C1372 C1373 1.327 . S
C1373 H1367 0.950 . S
C1373 C1372 1.327 . S
C1373 C1377 1.429 . S
C1374 C1357 1.574 . S
C1374 H1368 0.949 1_554 S
C1374 C1378 1.368 1_554 S
C1375 C1356 1.429 . S
C1375 C1369 1.429 . S
C1375 C1376 1.523 . S
C1376 C1357 1.368 . S
C1376 C1370 1.368 . S
C1376 C1375 1.523 . S
C1377 C1361 1.429 . S
C1377 C1373 1.429 . S
C1377 C1378 1.523 . S
C1378 C1362 1.368 . S
C1378 C1374 1.368 1_556 S
C1378 C1377 1.523 . S
H1379 C1354 0.950 . S
H1380 C1356 0.950 . S
H1381 C1357 0.949 . S
H1382 C1359 0.950 . S
H1383 C1361 0.950 . S
C1384 C1385 1.349 . S
C1384 C1386 1.327 . S
C1384 H1409 0.950 . S
C1385 C1384 1.349 . S
C1385 C1401 1.349 . S
C1386 C1384 1.327 . S
C1386 C1405 1.429 . S
C1386 H1410 0.950 . S
C1387 C1404 1.574 . S
C1387 C1406 1.368 . S
C1387 H1411 0.949 . S
H1388 C1392 0.949 . S
C1389 C1390 1.349 . S
C1389 C1391 1.327 . S
C1389 H1412 0.950 . S
C1390 C1389 1.349 . S
C1390 C1402 1.349 . S
C1391 C1389 1.327 . S
C1391 C1407 1.429 . S
C1391 H1413 0.950 . S
C1392 H1388 0.949 . S
C1392 C1400 1.574 . S
C1392 C1408 1.368 . S
H1393 C1401 0.950 . S
H1394 C1399 0.950 . S
H1395 C1400 0.949 . S
H1396 C1402 0.950 . S
H1397 C1403 0.950 . S
H1398 C1404 0.949 . S
C1399 H1394 0.950 . S
C1399 C1401 1.327 . S
C1399 C1405 1.429 . S
C1400 C1392 1.574 . S
C1400 H1395 0.949 . S
C1400 C1406 1.368 . S
C1401 C1385 1.349 . S
C1401 H1393 0.950 . S
C1401 C1399 1.327 . S
C1402 C1390 1.349 . S
C1402 H1396 0.950 . S
C1402 C1403 1.327 . S
C1403 H1397 0.950 . S
C1403 C1402 1.327 . S
C1403 C1407 1.429 . S
C1404 C1387 1.574 . S
C1404 H1398 0.949 . S
C1404 C1408 1.368 . S
C1405 C1386 1.429 . S
C1405 C1399 1.429 . S
C1405 C1406 1.523 . S
C1406 C1387 1.368 . S
C1406 C1400 1.368 . S
C1406 C1405 1.523 . S
C1407 C1391 1.429 . S
C1407 C1403 1.429 . S
C1407 C1408 1.523 . S
C1408 C1392 1.368 . S
C1408 C1404 1.368 . S
C1408 C1407 1.523 . S
H1409 C1384 0.950 . S
H1410 C1386 0.950 . S
H1411 C1387 0.949 . S
H1412 C1389 0.950 . S
H1413 C1391 0.950 . S
C1414 C1415 1.349 . S
C1414 C1416 1.327 . S
C1414 H1439 0.950 . S
C1415 C1414 1.349 . S
C1415 C1431 1.349 . S
C1416 C1414 1.327 . S
C1416 C1435 1.429 . S
C1416 H1440 0.950 . S
C1417 C1434 1.574 . S
C1417 C1436 1.368 . S
C1417 H1441 0.949 . S
H1418 C1422 0.949 . S
C1419 C1420 1.349 . S
C1419 C1421 1.327 . S
C1419 H1442 0.950 . S
C1420 C1419 1.349 . S
C1420 C1432 1.349 . S
C1421 C1419 1.327 . S
C1421 C1437 1.429 . S
C1421 H1443 0.950 . S
C1422 H1418 0.949 . S
C1422 C1430 1.574 . S
C1422 C1438 1.368 . S
H1423 C1431 0.950 . S
H1424 C1429 0.950 . S
H1425 C1430 0.949 . S
H1426 C1432 0.950 . S
H1427 C1433 0.950 . S
H1428 C1434 0.949 . S
C1429 H1424 0.950 . S
C1429 C1431 1.327 . S
C1429 C1435 1.429 . S
C1430 C1422 1.574 . S
C1430 H1425 0.949 . S
C1430 C1436 1.368 . S
C1431 C1415 1.349 . S
C1431 H1423 0.950 . S
C1431 C1429 1.327 . S
C1432 C1420 1.349 . S
C1432 H1426 0.950 . S
C1432 C1433 1.327 . S
C1433 H1427 0.950 . S
C1433 C1432 1.327 . S
C1433 C1437 1.429 . S
C1434 C1417 1.574 . S
C1434 H1428 0.949 . S
C1434 C1438 1.368 . S
C1435 C1416 1.429 . S
C1435 C1429 1.429 . S
C1435 C1436 1.523 . S
C1436 C1417 1.368 . S
C1436 C1430 1.368 . S
C1436 C1435 1.523 . S
C1437 C1421 1.429 . S
C1437 C1433 1.429 . S
C1437 C1438 1.523 . S
C1438 C1422 1.368 . S
C1438 C1434 1.368 . S
C1438 C1437 1.523 . S
H1439 C1414 0.950 . S
H1440 C1416 0.950 . S
H1441 C1417 0.949 . S
H1442 C1419 0.950 . S
H1443 C1421 0.950 . S
C1444 C1445 1.349 . S
C1444 C1446 1.327 . S
C1444 H1469 0.950 . S
C1445 C1444 1.349 . S
C1445 C1461 1.349 . S
C1446 C1444 1.327 . S
C1446 C1465 1.429 . S
C1446 H1470 0.950 . S
C1447 C1464 1.574 . S
C1447 C1466 1.368 . S
C1447 H1471 0.949 . S
H1448 C1452 0.949 . S
C1449 C1450 1.349 . S
C1449 C1451 1.327 1_545 S
C1449 H1472 0.950 1_545 S
C1450 C1449 1.349 . S
C1450 C1462 1.349 . S
C1451 C1449 1.327 1_565 S
C1451 C1467 1.429 1_565 S
C1451 H1473 0.950 . S
C1452 H1448 0.949 . S
C1452 C1460 1.574 1_545 S
C1452 C1468 1.368 1_545 S
H1453 C1461 0.950 . S
H1454 C1459 0.950 . S
H1455 C1460 0.949 1_545 S
H1456 C1462 0.950 . S
H1457 C1463 0.950 . S
H1458 C1464 0.949 . S
C1459 H1454 0.950 . S
C1459 C1461 1.327 . S
C1459 C1465 1.429 . S
C1460 C1452 1.574 1_565 S
C1460 H1455 0.949 1_565 S
C1460 C1466 1.368 . S
C1461 C1445 1.349 . S
C1461 H1453 0.950 . S
C1461 C1459 1.327 . S
C1462 C1450 1.349 . S
C1462 H1456 0.950 . S
C1462 C1463 1.327 . S
C1463 H1457 0.950 . S
C1463 C1462 1.327 . S
C1463 C1467 1.429 . S
C1464 C1447 1.574 . S
C1464 H1458 0.949 . S
C1464 C1468 1.368 . S
C1465 C1446 1.429 . S
C1465 C1459 1.429 . S
C1465 C1466 1.523 . S
C1466 C1447 1.368 . S
C1466 C1460 1.368 . S
C1466 C1465 1.523 . S
C1467 C1451 1.429 1_545 S
C1467 C1463 1.429 . S
C1467 C1468 1.523 1_545 S
C1468 C1452 1.368 1_565 S
C1468 C1464 1.368 . S
C1468 C1467 1.523 1_565 S
H1469 C1444 0.950 . S
H1470 C1446 0.950 . S
H1471 C1447 0.949 . S
H1472 C1449 0.950 1_565 S
H1473 C1451 0.950 . S
C1474 C1475 1.349 . S
C1474 C1476 1.327 . S
C1474 H1499 0.950 . S
C1475 C1474 1.349 . S
C1475 C1491 1.349 . S
C1476 C1474 1.327 . S
C1476 C1495 1.429 . S
C1476 H1500 0.950 . S
C1477 C1494 1.574 . S
C1477 C1496 1.368 . S
C1477 H1501 0.949 . S
H1478 C1482 0.949 . S
C1479 C1480 1.349 . S
C1479 C1481 1.327 . S
C1479 H1502 0.950 . S
C1480 C1479 1.349 . S
C1480 C1492 1.349 . S
C1481 C1479 1.327 . S
C1481 C1497 1.429 . S
C1481 H1503 0.950 . S
C1482 H1478 0.949 . S
C1482 C1490 1.574 . S
C1482 C1498 1.368 . S
H1483 C1491 0.950 . S
H1484 C1489 0.950 . S
H1485 C1490 0.949 . S
H1486 C1492 0.950 . S
H1487 C1493 0.950 . S
H1488 C1494 0.949 . S
C1489 H1484 0.950 . S
C1489 C1491 1.327 . S
C1489 C1495 1.429 . S
C1490 C1482 1.574 . S
C1490 H1485 0.949 . S
C1490 C1496 1.368 . S
C1491 C1475 1.349 . S
C1491 H1483 0.950 . S
C1491 C1489 1.327 . S
C1492 C1480 1.349 . S
C1492 H1486 0.950 . S
C1492 C1493 1.327 . S
C1493 H1487 0.950 . S
C1493 C1492 1.327 . S
C1493 C1497 1.429 . S
C1494 C1477 1.574 . S
C1494 H1488 0.949 . S
C1494 C1498 1.368 . S
C1495 C1476 1.429 . S
C1495 C1489 1.429 . S
C1495 C1496 1.523 . S
C1496 C1477 1.368 . S
C1496 C1490 1.368 . S
C1496 C1495 1.523 . S
C1497 C1481 1.429 . S
C1497 C1493 1.429 . S
C1497 C1498 1.523 1_565 S
C1498 C1482 1.368 . S
C1498 C1494 1.368 . S
C1498 C1497 1.523 1_545 S
H1499 C1474 0.950 . S
H1500 C1476 0.950 . S
H1501 C1477 0.949 . S
H1502 C1479 0.950 . S
H1503 C1481 0.950 . S
C1504 C1505 1.364 . S
C1504 C1506 1.327 . S
C1504 H1529 0.950 . S
C1505 C1504 1.364 . S
C1505 C1521 1.334 1_556 S
C1506 C1504 1.327 . S
C1506 C1525 1.443 . S
C1506 H1530 0.950 . S
C1507 C1524 1.574 . S
C1507 C1526 1.353 1_554 S
C1507 H1531 0.949 . S
H1508 C1512 0.949 . S
C1509 C1510 1.334 1_554 S
C1509 C1511 1.327 . S
C1509 H1532 0.950 . S
C1510 C1509 1.334 1_556 S
C1510 C1522 1.364 . S
C1511 C1509 1.327 . S
C1511 C1527 1.414 1_554 S
C1511 H1533 0.950 . S
C1512 H1508 0.949 . S
C1512 C1520 1.574 . S
C1512 C1528 1.384 . S
H1513 C1521 0.950 . S
H1514 C1519 0.950 . S
H1515 C1520 0.949 . S
H1516 C1522 0.950 . S
H1517 C1523 0.950 . S
H1518 C1524 0.949 . S
C1519 H1514 0.950 . S
C1519 C1521 1.327 . S
C1519 C1525 1.414 1_554 S
C1520 C1512 1.574 . S
C1520 H1515 0.949 . S
C1520 C1526 1.384 . S
C1521 C1505 1.334 1_554 S
C1521 H1513 0.950 . S
C1521 C1519 1.327 . S
C1522 C1510 1.364 . S
C1522 H1516 0.950 . S
C1522 C1523 1.327 . S
C1523 H1517 0.950 . S
C1523 C1522 1.327 . S
C1523 C1527 1.443 . S
C1524 C1507 1.574 . S
C1524 H1518 0.949 . S
C1524 C1528 1.353 1_554 S
C1525 C1506 1.443 . S
C1525 C1519 1.414 1_556 S
C1525 C1526 1.523 . S
C1526 C1507 1.353 1_556 S
C1526 C1520 1.384 . S
C1526 C1525 1.523 . S
C1527 C1511 1.414 1_556 S
C1527 C1523 1.443 . S
C1527 C1528 1.523 . S
C1528 C1512 1.384 . S
C1528 C1524 1.353 1_556 S
C1528 C1527 1.523 . S
H1529 C1504 0.950 . S
H1530 C1506 0.950 . S
H1531 C1507 0.949 . S
H1532 C1509 0.950 . S
H1533 C1511 0.950 . S
C1534 C1535 1.334 1_554 S
C1534 C1536 1.327 . S
C1534 H1559 0.950 . S
C1535 C1534 1.334 1_556 S
C1535 C1551 1.364 . S
C1536 C1534 1.327 . S
C1536 C1555 1.414 1_554 S
C1536 H1560 0.950 . S
C1537 C1554 1.574 . S
C1537 C1556 1.384 . S
C1537 H1561 0.949 . S
H1538 C1542 0.949 . S
C1539 C1540 1.364 . S
C1539 C1541 1.327 . S
C1539 H1562 0.950 . S
C1540 C1539 1.364 . S
C1540 C1552 1.334 1_556 S
C1541 C1539 1.327 . S
C1541 C1557 1.443 . S
C1541 H1563 0.950 . S
C1542 H1538 0.949 . S
C1542 C1550 1.574 . S
C1542 C1558 1.353 1_554 S
H1543 C1551 0.950 . S
H1544 C1549 0.950 . S
H1545 C1550 0.949 . S
H1546 C1552 0.950 . S
H1547 C1553 0.950 . S
H1548 C1554 0.949 . S
C1549 H1544 0.950 . S
C1549 C1551 1.327 . S
C1549 C1555 1.443 . S
C1550 C1542 1.574 . S
C1550 H1545 0.949 . S
C1550 C1556 1.353 1_554 S
C1551 C1535 1.364 . S
C1551 H1543 0.950 . S
C1551 C1549 1.327 . S
C1552 C1540 1.334 1_554 S
C1552 H1546 0.950 . S
C1552 C1553 1.327 . S
C1553 H1547 0.950 . S
C1553 C1552 1.327 . S
C1553 C1557 1.414 1_554 S
C1554 C1537 1.574 . S
C1554 H1548 0.949 . S
C1554 C1558 1.384 . S
C1555 C1536 1.414 1_556 S
C1555 C1549 1.443 . S
C1555 C1556 1.523 . S
C1556 C1537 1.384 . S
C1556 C1550 1.353 1_556 S
C1556 C1555 1.523 . S
C1557 C1541 1.443 . S
C1557 C1553 1.414 1_556 S
C1557 C1558 1.523 . S
C1558 C1542 1.353 1_556 S
C1558 C1554 1.384 . S
C1558 C1557 1.523 . S
H1559 C1534 0.950 . S
H1560 C1536 0.950 . S
H1561 C1537 0.949 . S
H1562 C1539 0.950 . S
H1563 C1541 0.950 . S
C1564 C1565 1.349 . S
C1564 C1566 1.327 . S
C1564 H1589 0.950 . S
C1565 C1564 1.349 . S
C1565 C1581 1.349 . S
C1566 C1564 1.327 . S
C1566 C1585 1.429 . S
C1566 H1590 0.950 . S
C1567 C1584 1.574 1_455 S
C1567 C1586 1.368 . S
C1567 H1591 0.949 . S
H1568 C1572 0.949 . S
C1569 C1570 1.349 . S
C1569 C1571 1.327 . S
C1569 H1592 0.950 . S
C1570 C1569 1.349 . S
C1570 C1582 1.349 . S
C1571 C1569 1.327 . S
C1571 C1587 1.429 . S
C1571 H1593 0.950 . S
C1572 H1568 0.949 . S
C1572 C1580 1.574 1_655 S
C1572 C1588 1.368 . S
H1573 C1581 0.950 . S
H1574 C1579 0.950 . S
H1575 C1580 0.949 . S
H1576 C1582 0.950 . S
H1577 C1583 0.950 . S
H1578 C1584 0.949 . S
C1579 H1574 0.950 . S
C1579 C1581 1.327 . S
C1579 C1585 1.429 . S
C1580 C1572 1.574 1_455 S
C1580 H1575 0.949 . S
C1580 C1586 1.368 . S
C1581 C1565 1.349 . S
C1581 H1573 0.950 . S
C1581 C1579 1.327 . S
C1582 C1570 1.349 . S
C1582 H1576 0.950 . S
C1582 C1583 1.327 . S
C1583 H1577 0.950 . S
C1583 C1582 1.327 . S
C1583 C1587 1.429 . S
C1584 C1567 1.574 1_655 S
C1584 H1578 0.949 . S
C1584 C1588 1.368 . S
C1585 C1566 1.429 . S
C1585 C1579 1.429 . S
C1585 C1586 1.523 . S
C1586 C1567 1.368 . S
C1586 C1580 1.368 . S
C1586 C1585 1.523 . S
C1587 C1571 1.429 . S
C1587 C1583 1.429 . S
C1587 C1588 1.523 . S
C1588 C1572 1.368 . S
C1588 C1584 1.368 . S
C1588 C1587 1.523 . S
H1589 C1564 0.950 . S
H1590 C1566 0.950 . S
H1591 C1567 0.949 . S
H1592 C1569 0.950 . S
H1593 C1571 0.950 . S
C1594 C1595 1.349 . S
C1594 C1596 1.327 . S
C1594 H1619 0.950 . S
C1595 C1594 1.349 . S
C1595 C1611 1.349 . S
C1596 C1594 1.327 . S
C1596 C1615 1.429 . S
C1596 H1620 0.950 . S
C1597 C1614 1.574 . S
C1597 C1616 1.368 . S
C1597 H1621 0.949 . S
H1598 C1602 0.949 . S
C1599 C1600 1.349 . S
C1599 C1601 1.327 . S
C1599 H1622 0.950 . S
C1600 C1599 1.349 . S
C1600 C1612 1.349 . S
C1601 C1599 1.327 . S
C1601 C1617 1.429 . S
C1601 H1623 0.950 . S
C1602 H1598 0.949 . S
C1602 C1610 1.574 . S
C1602 C1618 1.368 . S
H1603 C1611 0.950 . S
H1604 C1609 0.950 . S
H1605 C1610 0.949 . S
H1606 C1612 0.950 . S
H1607 C1613 0.950 . S
H1608 C1614 0.949 . S
C1609 H1604 0.950 . S
C1609 C1611 1.327 . S
C1609 C1615 1.429 . S
C1610 C1602 1.574 . S
C1610 H1605 0.949 . S
C1610 C1616 1.368 . S
C1611 C1595 1.349 . S
C1611 H1603 0.950 . S
C1611 C1609 1.327 . S
C1612 C1600 1.349 . S
C1612 H1606 0.950 . S
C1612 C1613 1.327 . S
C1613 H1607 0.950 . S
C1613 C1612 1.327 . S
C1613 C1617 1.429 . S
C1614 C1597 1.574 . S
C1614 H1608 0.949 . S
C1614 C1618 1.368 . S
C1615 C1596 1.429 . S
C1615 C1609 1.429 . S
C1615 C1616 1.523 . S
C1616 C1597 1.368 . S
C1616 C1610 1.368 . S
C1616 C1615 1.523 . S
C1617 C1601 1.429 . S
C1617 C1613 1.429 . S
C1617 C1618 1.523 . S
C1618 C1602 1.368 . S
C1618 C1614 1.368 . S
C1618 C1617 1.523 . S
H1619 C1594 0.950 . S
H1620 C1596 0.950 . S
H1621 C1597 0.949 . S
H1622 C1599 0.950 . S
H1623 C1601 0.950 . S
C1624 C1625 1.349 . S
C1624 C1626 1.327 . S
C1624 H1649 0.950 . S
C1625 C1624 1.349 . S
C1625 C1641 1.349 . S
C1626 C1624 1.327 . S
C1626 C1645 1.429 . S
C1626 H1650 0.950 . S
C1627 C1644 1.574 . S
C1627 C1646 1.368 . S
C1627 H1651 0.949 . S
H1628 C1632 0.949 . S
C1629 C1630 1.349 . S
C1629 C1631 1.327 . S
C1629 H1652 0.950 . S
C1630 C1629 1.349 . S
C1630 C1642 1.349 . S
C1631 C1629 1.327 . S
C1631 C1647 1.429 . S
C1631 H1653 0.950 . S
C1632 H1628 0.949 . S
C1632 C1640 1.574 . S
C1632 C1648 1.368 . S
H1633 C1641 0.950 . S
H1634 C1639 0.950 . S
H1635 C1640 0.949 . S
H1636 C1642 0.950 . S
H1637 C1643 0.950 . S
H1638 C1644 0.949 . S
C1639 H1634 0.950 . S
C1639 C1641 1.327 . S
C1639 C1645 1.429 . S
C1640 C1632 1.574 . S
C1640 H1635 0.949 . S
C1640 C1646 1.368 . S
C1641 C1625 1.349 . S
C1641 H1633 0.950 . S
C1641 C1639 1.327 . S
C1642 C1630 1.349 . S
C1642 H1636 0.950 . S
C1642 C1643 1.327 . S
C1643 H1637 0.950 . S
C1643 C1642 1.327 . S
C1643 C1647 1.429 . S
C1644 C1627 1.574 . S
C1644 H1638 0.949 . S
C1644 C1648 1.368 . S
C1645 C1626 1.429 . S
C1645 C1639 1.429 . S
C1645 C1646 1.523 . S
C1646 C1627 1.368 . S
C1646 C1640 1.368 . S
C1646 C1645 1.523 . S
C1647 C1631 1.429 . S
C1647 C1643 1.429 . S
C1647 C1648 1.523 . S
C1648 C1632 1.368 . S
C1648 C1644 1.368 . S
C1648 C1647 1.523 . S
H1649 C1624 0.950 . S
H1650 C1626 0.950 . S
H1651 C1627 0.949 . S
H1652 C1629 0.950 . S
H1653 C1631 0.950 . S
C1654 C1655 1.349 . S
C1654 C1656 1.327 . S
C1654 H1679 0.950 . S
C1655 C1654 1.349 . S
C1655 C1671 1.349 . S
C1656 C1654 1.327 . S
C1656 C1675 1.429 . S
C1656 H1680 0.950 . S
C1657 C1674 1.574 1_455 S
C1657 C1676 1.368 . S
C1657 H1681 0.949 . S
H1658 C1662 0.949 . S
C1659 C1660 1.349 . S
C1659 C1661 1.327 . S
C1659 H1682 0.950 . S
C1660 C1659 1.349 . S
C1660 C1672 1.349 . S
C1661 C1659 1.327 . S
C1661 C1677 1.429 . S
C1661 H1683 0.950 . S
C1662 H1658 0.949 . S
C1662 C1670 1.574 1_655 S
C1662 C1678 1.368 . S
H1663 C1671 0.950 . S
H1664 C1669 0.950 . S
H1665 C1670 0.949 . S
H1666 C1672 0.950 . S
H1667 C1673 0.950 . S
H1668 C1674 0.949 . S
C1669 H1664 0.950 . S
C1669 C1671 1.327 . S
C1669 C1675 1.429 . S
C1670 C1662 1.574 1_455 S
C1670 H1665 0.949 . S
C1670 C1676 1.368 1_565 S
C1671 C1655 1.349 . S
C1671 H1663 0.950 . S
C1671 C1669 1.327 . S
C1672 C1660 1.349 . S
C1672 H1666 0.950 . S
C1672 C1673 1.327 . S
C1673 H1667 0.950 . S
C1673 C1672 1.327 . S
C1673 C1677 1.429 . S
C1674 C1657 1.574 1_655 S
C1674 H1668 0.949 . S
C1674 C1678 1.368 1_545 S
C1675 C1656 1.429 . S
C1675 C1669 1.429 . S
C1675 C1676 1.523 . S
C1676 C1657 1.368 . S
C1676 C1670 1.368 1_545 S
C1676 C1675 1.523 . S
C1677 C1661 1.429 . S
C1677 C1673 1.429 . S
C1677 C1678 1.523 . S
C1678 C1662 1.368 . S
C1678 C1674 1.368 1_565 S
C1678 C1677 1.523 . S
H1679 C1654 0.950 . S
H1680 C1656 0.950 . S
H1681 C1657 0.949 . S
H1682 C1659 0.950 . S
H1683 C1661 0.950 . S
C1684 C1685 1.349 . S
C1684 C1686 1.327 . S
C1684 H1709 0.950 . S
C1685 C1684 1.349 . S
C1685 C1701 1.349 . S
C1686 C1684 1.327 . S
C1686 C1705 1.429 . S
C1686 H1710 0.950 . S
C1687 C1704 1.574 . S
C1687 C1706 1.368 . S
C1687 H1711 0.949 . S
H1688 C1692 0.949 . S
C1689 C1690 1.349 . S
C1689 C1691 1.327 . S
C1689 H1712 0.950 . S
C1690 C1689 1.349 . S
C1690 C1702 1.349 . S
C1691 C1689 1.327 . S
C1691 C1707 1.429 . S
C1691 H1713 0.950 . S
C1692 H1688 0.949 . S
C1692 C1700 1.574 . S
C1692 C1708 1.368 . S
H1693 C1701 0.950 . S
H1694 C1699 0.950 . S
H1695 C1700 0.949 . S
H1696 C1702 0.950 . S
H1697 C1703 0.950 . S
H1698 C1704 0.949 . S
C1699 H1694 0.950 . S
C1699 C1701 1.327 . S
C1699 C1705 1.429 . S
C1700 C1692 1.574 . S
C1700 H1695 0.949 . S
C1700 C1706 1.368 . S
C1701 C1685 1.349 . S
C1701 H1693 0.950 . S
C1701 C1699 1.327 . S
C1702 C1690 1.349 . S
C1702 H1696 0.950 . S
C1702 C1703 1.327 . S
C1703 H1697 0.950 . S
C1703 C1702 1.327 . S
C1703 C1707 1.429 . S
C1704 C1687 1.574 . S
C1704 H1698 0.949 . S
C1704 C1708 1.368 . S
C1705 C1686 1.429 . S
C1705 C1699 1.429 . S
C1705 C1706 1.523 . S
C1706 C1687 1.368 . S
C1706 C1700 1.368 . S
C1706 C1705 1.523 . S
C1707 C1691 1.429 . S
C1707 C1703 1.429 . S
C1707 C1708 1.523 . S
C1708 C1692 1.368 . S
C1708 C1704 1.368 . S
C1708 C1707 1.523 . S
H1709 C1684 0.950 . S
H1710 C1686 0.950 . S
H1711 C1687 0.949 . S
H1712 C1689 0.950 . S
H1713 C1691 0.950 . S
C1714 C1715 1.349 . S
C1714 C1716 1.327 . S
C1714 H1739 0.950 . S
C1715 C1714 1.349 . S
C1715 C1731 1.349 . S
C1716 C1714 1.327 . S
C1716 C1735 1.429 . S
C1716 H1740 0.950 . S
C1717 C1734 1.574 . S
C1717 C1736 1.368 . S
C1717 H1741 0.949 . S
H1718 C1722 0.949 . S
C1719 C1720 1.349 . S
C1719 C1721 1.327 . S
C1719 H1742 0.950 . S
C1720 C1719 1.349 . S
C1720 C1732 1.349 . S
C1721 C1719 1.327 . S
C1721 C1737 1.429 . S
C1721 H1743 0.950 . S
C1722 H1718 0.949 . S
C1722 C1730 1.574 . S
C1722 C1738 1.368 . S
H1723 C1731 0.950 . S
H1724 C1729 0.950 . S
H1725 C1730 0.949 . S
H1726 C1732 0.950 . S
H1727 C1733 0.950 . S
H1728 C1734 0.949 . S
C1729 H1724 0.950 . S
C1729 C1731 1.327 . S
C1729 C1735 1.429 . S
C1730 C1722 1.574 . S
C1730 H1725 0.949 . S
C1730 C1736 1.368 1_545 S
C1731 C1715 1.349 . S
C1731 H1723 0.950 . S
C1731 C1729 1.327 . S
C1732 C1720 1.349 . S
C1732 H1726 0.950 . S
C1732 C1733 1.327 . S
C1733 H1727 0.950 . S
C1733 C1732 1.327 . S
C1733 C1737 1.429 . S
C1734 C1717 1.574 . S
C1734 H1728 0.949 . S
C1734 C1738 1.368 1_565 S
C1735 C1716 1.429 . S
C1735 C1729 1.429 . S
C1735 C1736 1.523 . S
C1736 C1717 1.368 . S
C1736 C1730 1.368 1_565 S
C1736 C1735 1.523 . S
C1737 C1721 1.429 . S
C1737 C1733 1.429 . S
C1737 C1738 1.523 . S
C1738 C1722 1.368 . S
C1738 C1734 1.368 1_545 S
C1738 C1737 1.523 . S
H1739 C1714 0.950 . S
H1740 C1716 0.950 . S
H1741 C1717 0.949 . S
H1742 C1719 0.950 . S
H1743 C1721 0.950 . S
C545 C5 1.404 . S
C550 C394 1.442 . S
C575 C39 1.404 . S
C580 C360 1.442 . S
C605 C54 1.440 . S
C610 C73 1.402 . S
C635 C20 1.440 . S
C640 C107 1.402 . S
C665 C141 1.404 . S
C670 C530 1.440 . S
C695 C175 1.404 . S
C700 C496 1.440 . S
C725 C190 1.440 . S
C730 C209 1.404 . S
C755 C243 1.404 . S
C760 C156 1.440 . S
C785 C122 1.440 . S
C790 C277 1.404 . S
C815 C88 1.440 . S
C820 C311 1.404 . S
C845 C326 1.440 . S
C850 C345 1.404 . S
C875 C292 1.440 . S
C880 C379 1.404 . S
C905 C413 1.404 . S
C910 C258 1.442 . S
C935 C447 1.404 . S
C940 C224 1.442 . S
C965 C481 1.404 . S
C970 C462 1.439 . S
C995 C428 1.440 . S
C1000 C515 1.402 . S
C1025 C203 1.533 . S
C1030 C9 1.498 . S
C1055 C169 1.533 . S
C1060 C43 1.498 . S
C1085 C77 1.501 . S
C1090 C407 1.533 . S
C1115 C373 1.533 . S
C1120 C111 1.501 . S
C1145 C67 1.533 . S
C1150 C145 1.505 . S
C1175 C33 1.533 . S
C1180 C179 1.505 . S
C1205 C213 1.501 . S
C1210 C543 1.533 . S
C1235 C247 1.501 . S
C1240 C509 1.533 . S
C1265 C281 1.501 . S
C1270 C475 1.537 . S
C1295 C441 1.533 . S
C1300 C315 1.505 . S
C1325 C135 1.533 . S
C1330 C349 1.501 . S
C1355 C101 1.533 . S
C1360 C383 1.501 . S
C1385 C339 1.533 . S
C1390 C417 1.498 . S
C1415 C305 1.533 . S
C1420 C451 1.498 . S
C1445 C271 1.533 . S
C1450 C485 1.501 . S
C1475 C237 1.533 . S
C1480 C519 1.501 . S
C1505 C444 1.675 . S
C1510 C2 1.675 . S
C1535 C36 1.675 . S
C1540 C410 1.675 . S
C1565 C70 1.674 . S
C1570 C104 1.674 . S
C1595 C308 1.674 . S
C1600 C138 1.674 . S
C1625 C172 1.674 . S
C1630 C274 1.674 . S
C1655 C206 1.674 . S
C1660 C240 1.674 . S
C1685 C376 1.674 . S
C1690 C342 1.674 . S
C1715 C512 1.674 . S
C1720 C478 1.674 . S
